# Generated by pormake.
# Topology dia, (4)-cn, num edge types: 1
# Building blocks:
#     Node 0, Type 0, BuildingBlock: NAHDIM_clean_sbu_0, # of connection points: 4
#     Node 1, Type 0, BuildingBlock: NAHDIM_clean_sbu_0, # of connection points: 4
#     Node 2, Type 0, BuildingBlock: NAHDIM_clean_sbu_0, # of connection points: 4
#     Node 3, Type 0, BuildingBlock: NAHDIM_clean_sbu_0, # of connection points: 4
#     Node 4, Type 0, BuildingBlock: NAHDIM_clean_sbu_0, # of connection points: 4
#     Node 5, Type 0, BuildingBlock: NAHDIM_clean_sbu_0, # of connection points: 4
#     Node 6, Type 0, BuildingBlock: NAHDIM_clean_sbu_0, # of connection points: 4
#     Node 7, Type 0, BuildingBlock: NAHDIM_clean_sbu_0, # of connection points: 4
#     Edge 8, Type (0, 0), BuildingBlock: KIFKEQ_clean_linker_1, # of connection points: 2
#     Edge 9, Type (0, 0), BuildingBlock: KIFKEQ_clean_linker_1, # of connection points: 2
#     Edge 10, Type (0, 0), BuildingBlock: KIFKEQ_clean_linker_1, # of connection points: 2
#     Edge 11, Type (0, 0), BuildingBlock: KIFKEQ_clean_linker_1, # of connection points: 2
#     Edge 12, Type (0, 0), BuildingBlock: KIFKEQ_clean_linker_1, # of connection points: 2
#     Edge 13, Type (0, 0), BuildingBlock: KIFKEQ_clean_linker_1, # of connection points: 2
#     Edge 14, Type (0, 0), BuildingBlock: KIFKEQ_clean_linker_1, # of connection points: 2
#     Edge 15, Type (0, 0), BuildingBlock: KIFKEQ_clean_linker_1, # of connection points: 2
#     Edge 16, Type (0, 0), BuildingBlock: KIFKEQ_clean_linker_1, # of connection points: 2
#     Edge 17, Type (0, 0), BuildingBlock: KIFKEQ_clean_linker_1, # of connection points: 2
#     Edge 18, Type (0, 0), BuildingBlock: KIFKEQ_clean_linker_1, # of connection points: 2
#     Edge 19, Type (0, 0), BuildingBlock: KIFKEQ_clean_linker_1, # of connection points: 2
#     Edge 20, Type (0, 0), BuildingBlock: KIFKEQ_clean_linker_1, # of connection points: 2
#     Edge 21, Type (0, 0), BuildingBlock: KIFKEQ_clean_linker_1, # of connection points: 2
#     Edge 22, Type (0, 0), BuildingBlock: KIFKEQ_clean_linker_1, # of connection points: 2
#     Edge 23, Type (0, 0), BuildingBlock: KIFKEQ_clean_linker_1, # of connection points: 2
# Relax obj value: 0.005
# Max RMSD: 0.034
# Mean RMSD: 0.034
data_MOF--net-dia--node1-NAHDIM_clean_sbu_0--edge1-KIFKEQ_clean_linker_1
_symmetry_space_group_name_H-M    P1
_symmetry_Int_Tables_number       1
_symmetry_cell_setting            triclinic
loop_
_symmetry_equiv_pos_as_xyz
'x, y, z'
_cell_length_a     38.039232
_cell_length_b     34.62843
_cell_length_c     34.623066
_cell_angle_alpha  88.734262
_cell_angle_beta   93.665748
_cell_angle_gamma 93.577508
loop_
_atom_site_label
_atom_site_type_symbol
_atom_site_fract_x
_atom_site_fract_y
_atom_site_fract_z
_atom_type_partial_charge
C0 C 0.07553 0.15493 0.6889 0.0
O1 O 0.07445 0.11707 0.69301 0.0
O2 O 0.15255 0.10364 0.66836 0.0
Zn3 Zn 0.12384 0.13824 0.63249 0.0
O4 O 0.08925 0.10642 0.5975 0.0
C5 C 0.18523 0.16204 0.58999 0.0
O6 O 0.19424 0.12677 0.59883 0.0
O7 O 0.09552 0.1712 0.66452 0.0
C8 C 0.09563 0.09606 0.56378 0.0
O9 O 0.12649 0.10587 0.55032 0.0
C10 C 0.15986 0.06984 0.65913 0.0
O11 O 0.14816 0.05644 0.6252 0.0
O12 O 0.15634 0.17316 0.60113 0.0
C13 C 0.92354 0.31346 0.84507 0.0
O14 O 0.92561 0.31035 0.88303 0.0
O15 O 0.84819 0.33731 0.89835 0.0
Zn16 Zn 0.8768 0.37134 0.86207 0.0
O17 O 0.91247 0.40697 0.89157 0.0
C18 C 0.81466 0.4124 0.84056 0.0
O19 O 0.80638 0.40095 0.87543 0.0
O20 O 0.9035 0.33784 0.82877 0.0
C21 C 0.90404 0.43222 0.91484 0.0
O22 O 0.87057 0.43557 0.92054 0.0
C23 C 0.85648 0.33281 0.93426 0.0
O24 O 0.8857 0.35018 0.94931 0.0
O25 O 0.84376 0.40316 0.82828 0.0
C26 C 0.56965 0.16454 0.1707 0.0
O27 O 0.55579 0.13006 0.16131 0.0
O28 O 0.65285 0.104 0.16263 0.0
Zn29 Zn 0.62553 0.13984 0.12697 0.0
O30 O 0.58977 0.10842 0.09309 0.0
C31 C 0.69108 0.17869 0.10506 0.0
O32 O 0.70265 0.16589 0.13924 0.0
O33 O 0.59983 0.17546 0.15921 0.0
C34 C 0.59591 0.09687 0.05972 0.0
O35 O 0.62689 0.10563 0.04603 0.0
C36 C 0.6714 0.07868 0.1493 0.0
O37 O 0.67231 0.07562 0.11164 0.0
O38 O 0.65891 0.17145 0.09379 0.0
C39 C 0.92601 0.81149 0.33824 0.0
O40 O 0.9224 0.80304 0.37502 0.0
O41 O 0.8528 0.8374 0.38921 0.0
Zn42 Zn 0.88312 0.87297 0.35603 0.0
O43 O 0.9179 0.90642 0.38904 0.0
C44 C 0.82161 0.91415 0.32982 0.0
O45 O 0.80965 0.90065 0.36255 0.0
O46 O 0.91106 0.84049 0.32313 0.0
C47 C 0.91109 0.93929 0.40133 0.0
O48 O 0.87981 0.95242 0.39283 0.0
C49 C 0.84735 0.84448 0.42414 0.0
O50 O 0.86202 0.87614 0.43994 0.0
O51 O 0.8523 0.90623 0.32112 0.0
C52 C 0.07567 0.6519 0.18056 0.0
O53 O 0.06872 0.61438 0.17794 0.0
O54 O 0.16074 0.60303 0.16297 0.0
Zn55 Zn 0.1287 0.63556 0.1289 0.0
O56 O 0.0942 0.60129 0.09612 0.0
C57 C 0.18577 0.65901 0.08114 0.0
O58 O 0.19312 0.62267 0.0868 0.0
O59 O 0.10076 0.6678 0.16217 0.0
C60 C 0.09308 0.60011 0.05939 0.0
O61 O 0.11591 0.62192 0.04043 0.0
C62 C 0.15127 0.56917 0.17475 0.0
O63 O 0.11937 0.55458 0.16469 0.0
O64 O 0.15887 0.67116 0.09593 0.0
C65 C 0.43808 0.33208 0.34015 0.0
O66 O 0.45352 0.34488 0.37282 0.0
O67 O 0.34987 0.33306 0.39967 0.0
Zn68 Zn 0.37882 0.37031 0.36684 0.0
O69 O 0.41293 0.40259 0.40174 0.0
C70 C 0.31694 0.41308 0.34562 0.0
O71 O 0.30712 0.40001 0.3794 0.0
O72 O 0.40617 0.33947 0.33143 0.0
C73 C 0.4217 0.43803 0.39527 0.0
O74 O 0.40777 0.45554 0.36445 0.0
C75 C 0.34312 0.34152 0.43387 0.0
O76 O 0.35537 0.37498 0.44796 0.0
O77 O 0.34658 0.4044 0.33435 0.0
C78 C 0.43641 0.82461 0.83851 0.0
O79 O 0.4489 0.83305 0.87378 0.0
O80 O 0.35118 0.8334 0.89435 0.0
Zn81 Zn 0.37987 0.86951 0.86015 0.0
O82 O 0.41493 0.90402 0.89205 0.0
C83 C 0.3184 0.91246 0.83726 0.0
O84 O 0.30942 0.90304 0.8724 0.0
O85 O 0.40696 0.83711 0.82613 0.0
C86 C 0.40853 0.93729 0.90368 0.0
O87 O 0.37733 0.95061 0.89527 0.0
C88 C 0.34436 0.84143 0.92864 0.0
O89 O 0.35666 0.87461 0.94329 0.0
O90 O 0.3473 0.90155 0.82595 0.0
C91 C 0.57231 0.66245 0.66809 0.0
O92 O 0.55672 0.63173 0.6513 0.0
O93 O 0.66232 0.60549 0.6578 0.0
Zn94 Zn 0.6314 0.64115 0.62617 0.0
O95 O 0.59726 0.61118 0.5892 0.0
C96 C 0.68593 0.66442 0.5757 0.0
O97 O 0.68915 0.62687 0.57565 0.0
O98 O 0.6043 0.67195 0.66181 0.0
C99 C 0.60298 0.57821 0.57631 0.0
O100 O 0.63257 0.5623 0.58717 0.0
C101 C 0.64983 0.57798 0.67872 0.0
O102 O 0.61543 0.57222 0.67985 0.0
O103 O 0.66254 0.67773 0.59547 0.0
H104 H 0.31659 0.35503 0.50346 0.0
H105 H 0.31814 0.26773 0.41636 0.0
H106 H 0.27843 0.31154 0.54103 0.0
H107 H 0.2798 0.22436 0.45396 0.0
H108 H 0.24418 0.14449 0.55451 0.0
H109 H 0.28249 0.18773 0.51684 0.0
H110 H 0.21682 0.28209 0.53543 0.0
H111 H 0.17852 0.23895 0.57331 0.0
C112 C 0.30884 0.32656 0.49233 0.0
C113 C 0.32042 0.31484 0.45691 0.0
C114 C 0.28679 0.30176 0.51376 0.0
C115 C 0.27608 0.26459 0.50041 0.0
C116 C 0.28788 0.25272 0.46515 0.0
C117 C 0.30971 0.27764 0.44355 0.0
C118 C 0.23789 0.17446 0.55059 0.0
C119 C 0.20831 0.18829 0.56696 0.0
C120 C 0.25974 0.19915 0.52883 0.0
C121 C 0.25266 0.23829 0.52321 0.0
C122 C 0.22313 0.25215 0.53961 0.0
C123 C 0.20111 0.22739 0.56113 0.0
H124 H 0.72199 0.58349 0.68417 0.0
H125 H 0.63211 0.51561 0.72498 0.0
H126 H 0.76156 0.54309 0.72277 0.0
H127 H 0.67176 0.47465 0.76293 0.0
H128 H 0.75182 0.4386 0.85937 0.0
H129 H 0.71218 0.47803 0.81982 0.0
H130 H 0.78242 0.47832 0.72654 0.0
H131 H 0.82256 0.43953 0.76647 0.0
C132 C 0.71066 0.55981 0.7012 0.0
C133 C 0.67386 0.55287 0.70158 0.0
C134 C 0.73338 0.53648 0.72315 0.0
C135 C 0.71986 0.50562 0.74597 0.0
C136 C 0.68305 0.49851 0.7461 0.0
C137 C 0.66031 0.52188 0.72417 0.0
C138 C 0.75884 0.44703 0.83042 0.0
C139 C 0.79041 0.43594 0.81612 0.0
C140 C 0.73597 0.46945 0.80763 0.0
C141 C 0.74406 0.48131 0.76996 0.0
C142 C 0.77559 0.4701 0.7556 0.0
C143 C 0.79851 0.44768 0.77843 0.0
H144 H 0.60222 0.06156 0.99082 0.0
H145 H 0.5274 0.0795 0.07658 0.0
H146 H 0.55688 0.02315 0.95303 0.0
H147 H 0.48224 0.04086 0.03889 0.0
H148 H 0.40179 0.00619 0.93876 0.0
H149 H 0.44713 0.04488 0.97619 0.0
H150 H 0.52265 0.95998 0.95812 0.0
H151 H 0.47744 0.92136 0.92042 0.0
C152 C 0.57613 0.05731 0.00163 0.0
C153 C 0.56843 0.07362 0.0367 0.0
C154 C 0.55023 0.03512 0.98008 0.0
C155 C 0.516 0.02898 0.993 0.0
C156 C 0.50827 0.04542 0.02798 0.0
C157 C 0.53422 0.06738 0.04966 0.0
C158 C 0.42805 0.99576 0.94274 0.0
C159 C 0.43599 0.96069 0.92658 0.0
C160 C 0.45397 0.01784 0.96436 0.0
C161 C 0.48845 0.00548 0.97009 0.0
C162 C 0.49642 0.97047 0.95385 0.0
C163 C 0.47045 0.94825 0.93244 0.0
H164 H 0.94422 0.82505 0.26372 0.0
H165 H 0.95699 0.74468 0.36017 0.0
H166 H 0.98047 0.78645 0.22576 0.0
H167 H 0.99346 0.70636 0.32228 0.0
H168 H 0.02336 0.62617 0.227 0.0
H169 H 0.98704 0.66472 0.26481 0.0
H170 H 0.04277 0.7692 0.22528 0.0
H171 H 0.07896 0.73071 0.1871 0.0
C172 C 0.95475 0.79917 0.27684 0.0
C173 C 0.94769 0.78793 0.31498 0.0
C174 C 0.9757 0.7772 0.25516 0.0
C175 C 0.98985 0.7434 0.27105 0.0
C176 C 0.98264 0.73205 0.3091 0.0
C177 C 0.96187 0.75414 0.33086 0.0
C178 C 0.02793 0.65736 0.22637 0.0
C179 C 0.05407 0.67536 0.20402 0.0
C180 C 0.00721 0.67942 0.24821 0.0
C181 C 0.01204 0.71999 0.24801 0.0
C182 C 0.03817 0.73801 0.22567 0.0
C183 C 0.05904 0.71593 0.204 0.0
H184 H 0.25886 0.94681 0.855 0.0
H185 H 0.32537 0.93069 0.7607 0.0
H186 H 0.22028 0.98463 0.8121 0.0
H187 H 0.28683 0.96876 0.71793 0.0
H188 H 0.1874 0.00101 0.64453 0.0
H189 H 0.22562 0.96307 0.68772 0.0
H190 H 0.22219 0.04798 0.77668 0.0
H191 H 0.18376 0.0859 0.73362 0.0
C192 C 0.26529 0.95136 0.82515 0.0
C193 C 0.29518 0.93569 0.81126 0.0
C194 C 0.24328 0.97321 0.80065 0.0
C195 C 0.25051 0.97964 0.76165 0.0
C196 C 0.28037 0.96394 0.74774 0.0
C197 C 0.30254 0.94233 0.77231 0.0
C198 C 0.1947 0.01157 0.67332 0.0
C199 C 0.18252 0.04649 0.68563 0.0
C200 C 0.21678 0.98994 0.69797 0.0
C201 C 0.22696 0.00259 0.73555 0.0
C202 C 0.21454 0.03732 0.74799 0.0
C203 C 0.19266 0.05912 0.72325 0.0
H204 H 0.89592 0.48356 0.97206 0.0
H205 H 0.975 0.43671 0.90532 0.0
H206 H 0.94176 0.52401 0.00687 0.0
H207 H 0.02077 0.47695 0.94037 0.0
H208 H 0.08585 0.58676 0.98163 0.0
H209 H 0.04009 0.54636 0.94667 0.0
H210 H 0.99273 0.51618 0.05421 0.0
H211 H 0.03826 0.55678 0.08921 0.0
C212 C 0.92305 0.48186 0.96481 0.0
C213 C 0.93178 0.45692 0.93589 0.0
C214 C 0.94933 0.50488 0.98492 0.0
C215 C 0.98487 0.50364 0.97637 0.0
C216 C 0.99358 0.47884 0.94734 0.0
C217 C 0.96735 0.45564 0.92741 0.0
C218 C 0.06572 0.57149 0.99785 0.0
C219 C 0.06571 0.57503 0.03821 0.0
C220 C 0.0396 0.54819 0.97782 0.0
C221 C 0.01279 0.52813 0.99768 0.0
C222 C 0.01281 0.53164 0.03804 0.0
C223 C 0.03903 0.55473 0.05811 0.0
H224 H 0.50749 0.31543 0.34795 0.0
H225 H 0.41264 0.29601 0.2736 0.0
H226 H 0.53919 0.27585 0.30616 0.0
H227 H 0.44454 0.25672 0.23161 0.0
H228 H 0.50286 0.15201 0.19482 0.0
H229 H 0.47125 0.19342 0.23484 0.0
H230 H 0.56084 0.27656 0.24027 0.0
H231 H 0.5927 0.23494 0.20049 0.0
C232 C 0.49342 0.30286 0.32261 0.0
C233 C 0.45749 0.3088 0.31418 0.0
C234 C 0.51167 0.28037 0.29854 0.0
C235 C 0.49437 0.26313 0.26561 0.0
C236 C 0.4585 0.26926 0.25703 0.0
C237 C 0.44028 0.29194 0.28098 0.0
C238 C 0.51584 0.17913 0.20448 0.0
C239 C 0.55034 0.19012 0.19451 0.0
C240 C 0.49762 0.20298 0.22723 0.0
C241 C 0.51353 0.23827 0.2407 0.0
C242 C 0.548 0.24934 0.23065 0.0
C243 C 0.56618 0.22558 0.2077 0.0
H244 H 0.82781 0.85274 0.49798 0.0
H245 H 0.81387 0.77596 0.4007 0.0
H246 H 0.78896 0.80912 0.53453 0.0
H247 H 0.77459 0.73268 0.4371 0.0
H248 H 0.73753 0.64504 0.52956 0.0
H249 H 0.77674 0.68842 0.49324 0.0
H250 H 0.72652 0.78683 0.53431 0.0
H251 H 0.68761 0.74351 0.57116 0.0
C252 C 0.81643 0.8266 0.48435 0.0
C253 C 0.82397 0.81783 0.44642 0.0
C254 C 0.79398 0.80173 0.50523 0.0
C255 C 0.77864 0.76747 0.4887 0.0
C256 C 0.7863 0.75863 0.45082 0.0
C257 C 0.80868 0.78355 0.42989 0.0
C258 C 0.73482 0.67592 0.53087 0.0
C259 C 0.70945 0.69081 0.5533 0.0
C260 C 0.75718 0.70077 0.50986 0.0
C261 C 0.75475 0.74107 0.51089 0.0
C262 C 0.72935 0.75595 0.5333 0.0
C263 C 0.70692 0.7311 0.55424 0.0
H264 H 0.13715 0.4998 0.21147 0.0
H265 H 0.22115 0.58717 0.19416 0.0
H266 H 0.17764 0.46248 0.2525 0.0
H267 H 0.26155 0.54988 0.23547 0.0
H268 H 0.33063 0.4496 0.27669 0.0
H269 H 0.29078 0.48747 0.23516 0.0
H270 H 0.20998 0.46819 0.31678 0.0
H271 H 0.24955 0.43017 0.35812 0.0
C272 C 0.16423 0.51107 0.21642 0.0
C273 C 0.1759 0.54649 0.19958 0.0
C274 C 0.18738 0.48978 0.24011 0.0
C275 C 0.22276 0.50329 0.24727 0.0
C276 C 0.23452 0.53856 0.2302 0.0
C277 C 0.2113 0.56001 0.20673 0.0
C278 C 0.30438 0.45348 0.28579 0.0
C279 C 0.29325 0.43678 0.32068 0.0
C280 C 0.28163 0.47533 0.26209 0.0
C281 C 0.24722 0.4807 0.27266 0.0
C282 C 0.23619 0.46415 0.30762 0.0
C283 C 0.25897 0.44255 0.33141 0.0
H284 H 0.86071 0.32636 0.01318 0.0
H285 H 0.79856 0.28612 0.9115 0.0
H286 H 0.82064 0.28944 0.05417 0.0
H287 H 0.75915 0.24807 0.95241 0.0
H288 H 0.67444 0.21785 0.0375 0.0
H289 H 0.7145 0.25488 0.99648 0.0
H290 H 0.80293 0.2254 0.07385 0.0
H291 H 0.76274 0.18959 0.11551 0.0
C292 C 0.83868 0.30932 0.99955 0.0
C293 C 0.83281 0.30923 0.95908 0.0
C294 C 0.81577 0.28794 0.02307 0.0
C295 C 0.78658 0.2657 0.00667 0.0
C296 C 0.78097 0.26535 0.96611 0.0
C297 C 0.80373 0.28697 0.94261 0.0
C298 C 0.70244 0.21933 0.04576 0.0
C299 C 0.71538 0.20088 0.07984 0.0
C300 C 0.72547 0.24036 0.02209 0.0
C301 C 0.76203 0.24317 0.03178 0.0
C302 C 0.77492 0.22445 0.06578 0.0
C303 C 0.75186 0.20371 0.0896 0.0
H304 H 0.83856 0.94775 0.26061 0.0
H305 H 0.75465 0.93509 0.33926 0.0
H306 H 0.80213 0.98746 0.2173 0.0
H307 H 0.71799 0.97413 0.29557 0.0
H308 H 0.67783 0.07985 0.22844 0.0
H309 H 0.71429 0.04038 0.27196 0.0
H310 H 0.7494 0.98179 0.17382 0.0
H311 H 0.71351 0.02178 0.13023 0.0
C312 C 0.81231 0.95331 0.26861 0.0
C313 C 0.79953 0.93825 0.30341 0.0
C314 C 0.79133 0.97589 0.24365 0.0
C315 C 0.75711 0.98393 0.25293 0.0
C316 C 0.74439 0.9689 0.28778 0.0
C317 C 0.76535 0.94633 0.31273 0.0
C318 C 0.69328 0.05851 0.21613 0.0
C319 C 0.69278 0.054 0.17584 0.0
C320 C 0.71405 0.03574 0.2411 0.0
C321 C 0.73479 0.00794 0.22638 0.0
C322 C 0.73413 0.00331 0.18609 0.0
C323 C 0.71336 0.02608 0.16111 0.0
H324 H 0.97997 0.92368 0.41843 0.0
H325 H 0.90327 0.00687 0.43841 0.0
H326 H 0.02443 0.96151 0.45785 0.0
H327 H 0.94791 0.0448 0.47763 0.0
H328 H 0.02719 0.07696 0.57989 0.0
H329 H 0.9826 0.03899 0.5407 0.0
H330 H 0.05805 0.02529 0.45472 0.0
H331 H 0.10278 0.06302 0.49395 0.0
C332 C 0.97259 0.95005 0.43119 0.0
C333 C 0.93806 0.96227 0.42527 0.0
C334 C 0.99813 0.97182 0.45359 0.0
C335 C 0.98967 0.00614 0.47079 0.0
C336 C 0.95512 0.01827 0.46504 0.0
C337 C 0.92961 0.99665 0.4424 0.0
C338 C 0.0343 0.06584 0.55264 0.0
C339 C 0.06855 0.07302 0.54004 0.0
C340 C 0.00868 0.04428 0.53011 0.0
C341 C 0.01682 0.02919 0.49464 0.0
C342 C 0.0511 0.03623 0.48211 0.0
C343 C 0.07666 0.05802 0.5045 0.0
H344 H 0.96549 0.25584 0.8708 0.0
H345 H 0.93047 0.31735 0.7668 0.0
H346 H 1.00216 0.21772 0.833 0.0
H347 H 0.96695 0.27885 0.72895 0.0
H348 H 0.06742 0.23291 0.68346 0.0
H349 H 0.03029 0.2709 0.721 0.0
H350 H 0.99573 0.16743 0.78332 0.0
H351 H 0.03307 0.12947 0.74614 0.0
C352 C 0.96549 0.26114 0.83985 0.0
C353 C 0.94506 0.28967 0.82183 0.0
C354 C 0.98638 0.23914 0.81817 0.0
C355 C 0.98748 0.24528 0.778 0.0
C356 C 0.96697 0.27373 0.75993 0.0
C357 C 0.94591 0.29561 0.78159 0.0
C358 C 0.05195 0.21826 0.70521 0.0
C359 C 0.05325 0.17815 0.71183 0.0
C360 C 0.0305 0.24 0.72653 0.0
C361 C 0.01005 0.22216 0.7551 0.0
C362 C 0.01146 0.18209 0.7618 0.0
C363 C 0.03275 0.16032 0.74035 0.0
H364 H 0.50257 0.65319 0.68298 0.0
H365 H 0.59743 0.72511 0.71068 0.0
H366 H 0.46993 0.69226 0.72433 0.0
H367 H 0.5646 0.7644 0.75173 0.0
H368 H 0.50212 0.79814 0.85416 0.0
H369 H 0.53498 0.75877 0.81328 0.0
H370 H 0.44909 0.75832 0.72542 0.0
H371 H 0.41601 0.79736 0.76641 0.0
C372 C 0.51648 0.67734 0.69785 0.0
C373 C 0.55262 0.68603 0.69351 0.0
C374 C 0.4977 0.69986 0.72137 0.0
C375 C 0.51466 0.73146 0.74124 0.0
C376 C 0.55086 0.74 0.7371 0.0
C377 C 0.56962 0.7176 0.71342 0.0
C378 C 0.49021 0.78964 0.82613 0.0
C379 C 0.45641 0.80087 0.81357 0.0
C380 C 0.50915 0.76727 0.80263 0.0
C381 C 0.49464 0.75543 0.76613 0.0
C382 C 0.46082 0.76661 0.75358 0.0
C383 C 0.44195 0.78917 0.77699 0.0
H384 H 0.24251 0.64121 0.04181 0.0
H385 H 0.18113 0.73689 0.06876 0.0
H386 H 0.28113 0.68512 0.00522 0.0
H387 H 0.21959 0.78067 0.03182 0.0
H388 H 0.3195 0.85253 0.99969 0.0
H389 H 0.28123 0.80826 0.03632 0.0
H390 H 0.27907 0.72491 0.94509 0.0
H391 H 0.31762 0.76895 0.90857 0.0
C392 C 0.23717 0.67157 0.03984 0.0
C393 C 0.20876 0.68554 0.05825 0.0
C394 C 0.25921 0.69669 0.01871 0.0
C395 C 0.25344 0.73637 0.01569 0.0
C396 C 0.22497 0.75032 0.03401 0.0
C397 C 0.20281 0.72518 0.05497 0.0
C398 C 0.31096 0.82473 0.98746 0.0
C399 C 0.32163 0.81429 0.9512 0.0
C400 C 0.28884 0.79947 0.00836 0.0
C401 C 0.27707 0.76312 0.99356 0.0
C402 C 0.28797 0.75255 0.95744 0.0
C403 C 0.30993 0.77789 0.93644 0.0
H404 H 0.4583 0.40887 0.45869 0.0
H405 H 0.4445 0.51455 0.39217 0.0
H406 H 0.50185 0.44301 0.50227 0.0
H407 H 0.48848 0.54857 0.4356 0.0
H408 H 0.54009 0.60396 0.54664 0.0
H409 H 0.49614 0.57029 0.50303 0.0
H410 H 0.56196 0.47317 0.50137 0.0
H411 H 0.60574 0.50657 0.54538 0.0
C412 C 0.46457 0.43938 0.45331 0.0
C413 C 0.44791 0.45899 0.42191 0.0
C414 C 0.48971 0.45888 0.47818 0.0
C415 C 0.4987 0.49846 0.47233 0.0
C416 C 0.48188 0.51815 0.44109 0.0
C417 C 0.45681 0.4986 0.4161 0.0
C418 C 0.54522 0.57543 0.53697 0.0
C419 C 0.57644 0.55794 0.54953 0.0
C420 C 0.5201 0.55624 0.51181 0.0
C421 C 0.52556 0.51906 0.49875 0.0
C422 C 0.55678 0.5016 0.51128 0.0
C423 C 0.58196 0.52084 0.53634 0.0
loop_
_geom_bond_atom_site_label_1
_geom_bond_atom_site_label_2
_geom_bond_distance
_geom_bond_site_symmetry_2
_ccdc_geom_bond_type
C0 O1 1.160 . S
C0 O7 1.185 . S
O1 C0 1.160 . S
O2 Zn3 1.899 . S
O2 C10 1.284 . S
Zn3 O2 1.899 . S
Zn3 O4 2.032 . S
Zn3 O7 2.086 . S
Zn3 O12 1.977 . S
O4 Zn3 2.032 . S
O4 C8 1.278 . S
C5 O6 1.203 . S
C5 O12 1.267 . S
O6 C5 1.203 . S
O7 C0 1.185 . S
O7 Zn3 2.086 . S
C8 O4 1.278 . S
C8 O9 1.211 . S
O9 C8 1.211 . S
C10 O2 1.284 . S
C10 O11 1.273 . S
O11 C10 1.273 . S
O12 Zn3 1.977 . S
O12 C5 1.267 . S
C13 O14 1.160 . S
C13 O20 1.185 . S
O14 C13 1.160 . S
O15 Zn16 1.899 . S
O15 C23 1.284 . S
Zn16 O15 1.899 . S
Zn16 O17 2.032 . S
Zn16 O20 2.086 . S
Zn16 O25 1.977 . S
O17 Zn16 2.032 . S
O17 C21 1.278 . S
C18 O19 1.203 . S
C18 O25 1.267 . S
O19 C18 1.203 . S
O20 C13 1.185 . S
O20 Zn16 2.086 . S
C21 O17 1.278 . S
C21 O22 1.211 . S
O22 C21 1.211 . S
C23 O15 1.284 . S
C23 O24 1.273 . S
O24 C23 1.273 . S
O25 Zn16 1.977 . S
O25 C18 1.267 . S
C26 O27 1.160 . S
C26 O33 1.185 . S
O27 C26 1.160 . S
O28 Zn29 1.899 . S
O28 C36 1.284 . S
Zn29 O28 1.899 . S
Zn29 O30 2.032 . S
Zn29 O33 2.086 . S
Zn29 O38 1.977 . S
O30 Zn29 2.032 . S
O30 C34 1.278 . S
C31 O32 1.203 . S
C31 O38 1.267 . S
O32 C31 1.203 . S
O33 C26 1.185 . S
O33 Zn29 2.086 . S
C34 O30 1.278 . S
C34 O35 1.211 . S
O35 C34 1.211 . S
C36 O28 1.284 . S
C36 O37 1.273 . S
O37 C36 1.273 . S
O38 Zn29 1.977 . S
O38 C31 1.267 . S
C39 O40 1.160 . S
C39 O46 1.185 . S
O40 C39 1.160 . S
O41 Zn42 1.899 . S
O41 C49 1.284 . S
Zn42 O41 1.899 . S
Zn42 O43 2.032 . S
Zn42 O46 2.086 . S
Zn42 O51 1.977 . S
O43 Zn42 2.032 . S
O43 C47 1.278 . S
C44 O45 1.203 . S
C44 O51 1.267 . S
O45 C44 1.203 . S
O46 C39 1.185 . S
O46 Zn42 2.086 . S
C47 O43 1.278 . S
C47 O48 1.211 . S
O48 C47 1.211 . S
C49 O41 1.284 . S
C49 O50 1.273 . S
O50 C49 1.273 . S
O51 Zn42 1.977 . S
O51 C44 1.267 . S
C52 O53 1.160 . S
C52 O59 1.185 . S
O53 C52 1.160 . S
O54 Zn55 1.899 . S
O54 C62 1.284 . S
Zn55 O54 1.899 . S
Zn55 O56 2.032 . S
Zn55 O59 2.086 . S
Zn55 O64 1.977 . S
O56 Zn55 2.032 . S
O56 C60 1.278 . S
C57 O58 1.203 . S
C57 O64 1.267 . S
O58 C57 1.203 . S
O59 C52 1.185 . S
O59 Zn55 2.086 . S
C60 O56 1.278 . S
C60 O61 1.211 . S
O61 C60 1.211 . S
C62 O54 1.284 . S
C62 O63 1.273 . S
O63 C62 1.273 . S
O64 Zn55 1.977 . S
O64 C57 1.267 . S
C65 O66 1.160 . S
C65 O72 1.185 . S
O66 C65 1.160 . S
O67 Zn68 1.899 . S
O67 C75 1.284 . S
Zn68 O67 1.899 . S
Zn68 O69 2.032 . S
Zn68 O72 2.086 . S
Zn68 O77 1.977 . S
O69 Zn68 2.032 . S
O69 C73 1.278 . S
C70 O71 1.203 . S
C70 O77 1.267 . S
O71 C70 1.203 . S
O72 C65 1.185 . S
O72 Zn68 2.086 . S
C73 O69 1.278 . S
C73 O74 1.211 . S
O74 C73 1.211 . S
C75 O67 1.284 . S
C75 O76 1.273 . S
O76 C75 1.273 . S
O77 Zn68 1.977 . S
O77 C70 1.267 . S
C78 O79 1.160 . S
C78 O85 1.185 . S
O79 C78 1.160 . S
O80 Zn81 1.899 . S
O80 C88 1.284 . S
Zn81 O80 1.899 . S
Zn81 O82 2.032 . S
Zn81 O85 2.086 . S
Zn81 O90 1.977 . S
O82 Zn81 2.032 . S
O82 C86 1.278 . S
C83 O84 1.203 . S
C83 O90 1.267 . S
O84 C83 1.203 . S
O85 C78 1.185 . S
O85 Zn81 2.086 . S
C86 O82 1.278 . S
C86 O87 1.211 . S
O87 C86 1.211 . S
C88 O80 1.284 . S
C88 O89 1.273 . S
O89 C88 1.273 . S
O90 Zn81 1.977 . S
O90 C83 1.267 . S
C91 O92 1.160 . S
C91 O98 1.185 . S
O92 C91 1.160 . S
O93 Zn94 1.899 . S
O93 C101 1.284 . S
Zn94 O93 1.899 . S
Zn94 O95 2.032 . S
Zn94 O98 2.086 . S
Zn94 O103 1.977 . S
O95 Zn94 2.032 . S
O95 C99 1.278 . S
C96 O97 1.203 . S
C96 O103 1.267 . S
O97 C96 1.203 . S
O98 C91 1.185 . S
O98 Zn94 2.086 . S
C99 O95 1.278 . S
C99 O100 1.211 . S
O100 C99 1.211 . S
C101 O93 1.284 . S
C101 O102 1.273 . S
O102 C101 1.273 . S
O103 Zn94 1.977 . S
O103 C96 1.267 . S
H104 C112 0.950 . S
H105 C117 0.950 . S
H106 C114 0.950 . S
H107 C116 0.950 . S
H108 C118 0.950 . S
H109 C120 0.950 . S
H110 C122 0.950 . S
H111 C123 0.950 . S
C112 H104 0.950 . S
C112 C113 1.386 . S
C112 C114 1.391 . S
C113 C112 1.386 . S
C113 C117 1.393 . S
C114 H106 0.950 . S
C114 C112 1.391 . S
C114 C115 1.400 . S
C115 C114 1.400 . S
C115 C116 1.398 . S
C115 C121 1.491 . S
C116 H107 0.950 . S
C116 C115 1.398 . S
C116 C117 1.391 . S
C117 H105 0.950 . S
C117 C113 1.393 . S
C117 C116 1.391 . S
C118 H108 0.950 . S
C118 C119 1.386 . S
C118 C120 1.391 . S
C119 C118 1.386 . S
C119 C123 1.393 . S
C120 H109 0.950 . S
C120 C118 1.391 . S
C120 C121 1.400 . S
C121 C115 1.491 . S
C121 C120 1.400 . S
C121 C122 1.398 . S
C122 H110 0.950 . S
C122 C121 1.398 . S
C122 C123 1.391 . S
C123 H111 0.950 . S
C123 C119 1.393 . S
C123 C122 1.391 . S
H124 C132 0.950 . S
H125 C137 0.950 . S
H126 C134 0.950 . S
H127 C136 0.950 . S
H128 C138 0.950 . S
H129 C140 0.950 . S
H130 C142 0.950 . S
H131 C143 0.950 . S
C132 H124 0.950 . S
C132 C133 1.386 . S
C132 C134 1.391 . S
C133 C132 1.386 . S
C133 C137 1.393 . S
C134 H126 0.950 . S
C134 C132 1.391 . S
C134 C135 1.400 . S
C135 C134 1.400 . S
C135 C136 1.398 . S
C135 C141 1.491 . S
C136 H127 0.950 . S
C136 C135 1.398 . S
C136 C137 1.391 . S
C137 H125 0.950 . S
C137 C133 1.393 . S
C137 C136 1.391 . S
C138 H128 0.950 . S
C138 C139 1.386 . S
C138 C140 1.391 . S
C139 C138 1.386 . S
C139 C143 1.393 . S
C140 H129 0.950 . S
C140 C138 1.391 . S
C140 C141 1.400 . S
C141 C135 1.491 . S
C141 C140 1.400 . S
C141 C142 1.398 . S
C142 H130 0.950 . S
C142 C141 1.398 . S
C142 C143 1.391 . S
C143 H131 0.950 . S
C143 C139 1.393 . S
C143 C142 1.391 . S
H144 C152 0.950 . S
H145 C157 0.950 . S
H146 C154 0.952 1_565 S
H147 C156 0.950 . S
H148 C158 0.950 . S
H149 C160 0.950 . S
H150 C162 0.950 . S
H151 C163 0.950 . S
C152 H144 0.950 . S
C152 C153 1.386 . S
C152 C154 1.390 . S
C153 C152 1.386 . S
C153 C157 1.393 . S
C154 H146 0.952 1_545 S
C154 C152 1.390 . S
C154 C155 1.399 . S
C155 C154 1.399 . S
C155 C156 1.398 . S
C155 C161 1.491 1_544 S
C156 H147 0.950 . S
C156 C155 1.398 . S
C156 C157 1.391 . S
C157 H145 0.950 . S
C157 C153 1.393 . S
C157 C156 1.391 . S
C158 H148 0.950 . S
C158 C159 1.386 . S
C158 C160 1.391 1_565 S
C159 C158 1.386 . S
C159 C163 1.393 . S
C160 H149 0.950 . S
C160 C158 1.391 1_545 S
C160 C161 1.400 1_545 S
C161 C155 1.491 1_566 S
C161 C160 1.400 1_565 S
C161 C162 1.398 . S
C162 H150 0.950 . S
C162 C161 1.398 . S
C162 C163 1.391 . S
C163 H151 0.950 . S
C163 C159 1.393 . S
C163 C162 1.391 . S
H164 C172 0.950 . S
H165 C177 0.950 . S
H166 C174 0.950 1_455 S
H167 C176 0.950 . S
H168 C178 0.950 . S
H169 C180 0.950 1_655 S
H170 C182 0.950 . S
H171 C183 0.950 . S
C172 H164 0.950 . S
C172 C173 1.386 . S
C172 C174 1.391 . S
C173 C172 1.386 . S
C173 C177 1.393 . S
C174 H166 0.950 1_655 S
C174 C172 1.391 . S
C174 C175 1.400 . S
C175 C174 1.400 . S
C175 C176 1.398 . S
C175 C181 1.491 1_655 S
C176 H167 0.950 . S
C176 C175 1.398 . S
C176 C177 1.391 . S
C177 H165 0.950 . S
C177 C173 1.393 . S
C177 C176 1.391 . S
C178 H168 0.950 . S
C178 C179 1.386 . S
C178 C180 1.391 . S
C179 C178 1.386 . S
C179 C183 1.393 . S
C180 H169 0.950 1_455 S
C180 C178 1.391 . S
C180 C181 1.400 . S
C181 C175 1.491 1_455 S
C181 C180 1.400 . S
C181 C182 1.398 . S
C182 H170 0.950 . S
C182 C181 1.398 . S
C182 C183 1.391 . S
C183 H171 0.950 . S
C183 C179 1.393 . S
C183 C182 1.391 . S
H184 C192 0.950 . S
H185 C197 0.950 . S
H186 C194 0.950 . S
H187 C196 0.950 . S
H188 C198 0.950 . S
H189 C200 0.950 . S
H190 C202 0.950 . S
H191 C203 0.950 . S
C192 H184 0.950 . S
C192 C193 1.386 . S
C192 C194 1.391 . S
C193 C192 1.386 . S
C193 C197 1.393 . S
C194 H186 0.950 . S
C194 C192 1.391 . S
C194 C195 1.400 . S
C195 C194 1.400 . S
C195 C196 1.398 . S
C195 C201 1.491 1_565 S
C196 H187 0.950 . S
C196 C195 1.398 . S
C196 C197 1.391 . S
C197 H185 0.950 . S
C197 C193 1.393 . S
C197 C196 1.391 . S
C198 H188 0.950 . S
C198 C199 1.386 . S
C198 C200 1.391 . S
C199 C198 1.386 . S
C199 C203 1.393 . S
C200 H189 0.950 . S
C200 C198 1.391 . S
C200 C201 1.400 . S
C201 C195 1.491 1_545 S
C201 C200 1.400 . S
C201 C202 1.398 . S
C202 H190 0.950 . S
C202 C201 1.398 . S
C202 C203 1.391 . S
C203 H191 0.950 . S
C203 C199 1.393 . S
C203 C202 1.391 . S
H204 C212 0.950 . S
H205 C217 0.950 . S
H206 C214 0.950 . S
H207 C216 0.958 . S
H208 C218 0.950 . S
H209 C220 0.950 . S
H210 C222 0.958 . S
H211 C223 0.950 . S
C212 H204 0.950 . S
C212 C213 1.386 . S
C212 C214 1.391 1_556 S
C213 C212 1.386 . S
C213 C217 1.393 . S
C214 H206 0.950 . S
C214 C212 1.391 1_554 S
C214 C215 1.400 1_554 S
C215 C214 1.400 1_556 S
C215 C216 1.398 . S
C215 C221 1.491 1_656 S
C216 H207 0.958 . S
C216 C215 1.398 . S
C216 C217 1.391 . S
C217 H205 0.950 . S
C217 C213 1.393 . S
C217 C216 1.391 . S
C218 H208 0.950 . S
C218 C219 1.386 . S
C218 C220 1.391 1_554 S
C219 C218 1.386 . S
C219 C223 1.393 . S
C220 H209 0.950 . S
C220 C218 1.391 1_556 S
C220 C221 1.400 1_556 S
C221 C215 1.491 1_454 S
C221 C220 1.400 1_554 S
C221 C222 1.398 . S
C222 H210 0.958 . S
C222 C221 1.398 . S
C222 C223 1.391 . S
C223 H211 0.950 . S
C223 C219 1.393 . S
C223 C222 1.391 . S
H224 C232 0.950 . S
H225 C237 0.950 . S
H226 C234 0.950 . S
H227 C236 0.950 . S
H228 C238 0.950 . S
H229 C240 0.950 . S
H230 C242 0.950 . S
H231 C243 0.950 . S
C232 H224 0.950 . S
C232 C233 1.386 . S
C232 C234 1.391 . S
C233 C232 1.386 . S
C233 C237 1.393 . S
C234 H226 0.950 . S
C234 C232 1.391 . S
C234 C235 1.400 . S
C235 C234 1.400 . S
C235 C236 1.398 . S
C235 C241 1.491 . S
C236 H227 0.950 . S
C236 C235 1.398 . S
C236 C237 1.391 . S
C237 H225 0.950 . S
C237 C233 1.393 . S
C237 C236 1.391 . S
C238 H228 0.950 . S
C238 C239 1.386 . S
C238 C240 1.391 . S
C239 C238 1.386 . S
C239 C243 1.393 . S
C240 H229 0.950 . S
C240 C238 1.391 . S
C240 C241 1.400 . S
C241 C235 1.491 . S
C241 C240 1.400 . S
C241 C242 1.398 . S
C242 H230 0.950 . S
C242 C241 1.398 . S
C242 C243 1.391 . S
C243 H231 0.950 . S
C243 C239 1.393 . S
C243 C242 1.391 . S
H244 C252 0.950 . S
H245 C257 0.950 . S
H246 C254 0.950 . S
H247 C256 0.950 . S
H248 C258 0.950 . S
H249 C260 0.950 . S
H250 C262 0.950 . S
H251 C263 0.950 . S
C252 H244 0.950 . S
C252 C253 1.386 . S
C252 C254 1.391 . S
C253 C252 1.386 . S
C253 C257 1.393 . S
C254 H246 0.950 . S
C254 C252 1.391 . S
C254 C255 1.400 . S
C255 C254 1.400 . S
C255 C256 1.398 . S
C255 C261 1.491 . S
C256 H247 0.950 . S
C256 C255 1.398 . S
C256 C257 1.391 . S
C257 H245 0.950 . S
C257 C253 1.393 . S
C257 C256 1.391 . S
C258 H248 0.950 . S
C258 C259 1.386 . S
C258 C260 1.391 . S
C259 C258 1.386 . S
C259 C263 1.393 . S
C260 H249 0.950 . S
C260 C258 1.391 . S
C260 C261 1.400 . S
C261 C255 1.491 . S
C261 C260 1.400 . S
C261 C262 1.398 . S
C262 H250 0.950 . S
C262 C261 1.398 . S
C262 C263 1.391 . S
C263 H251 0.950 . S
C263 C259 1.393 . S
C263 C262 1.391 . S
H264 C272 0.950 . S
H265 C277 0.950 . S
H266 C274 0.950 . S
H267 C276 0.950 . S
H268 C278 0.950 . S
H269 C280 0.950 . S
H270 C282 0.950 . S
H271 C283 0.950 . S
C272 H264 0.950 . S
C272 C273 1.386 . S
C272 C274 1.391 . S
C273 C272 1.386 . S
C273 C277 1.393 . S
C274 H266 0.950 . S
C274 C272 1.391 . S
C274 C275 1.400 . S
C275 C274 1.400 . S
C275 C276 1.398 . S
C275 C281 1.491 . S
C276 H267 0.950 . S
C276 C275 1.398 . S
C276 C277 1.391 . S
C277 H265 0.950 . S
C277 C273 1.393 . S
C277 C276 1.391 . S
C278 H268 0.950 . S
C278 C279 1.386 . S
C278 C280 1.391 . S
C279 C278 1.386 . S
C279 C283 1.393 . S
C280 H269 0.950 . S
C280 C278 1.391 . S
C280 C281 1.400 . S
C281 C275 1.491 . S
C281 C280 1.400 . S
C281 C282 1.398 . S
C282 H270 0.950 . S
C282 C281 1.398 . S
C282 C283 1.391 . S
C283 H271 0.950 . S
C283 C279 1.393 . S
C283 C282 1.391 . S
H284 C292 0.950 . S
H285 C297 0.950 . S
H286 C294 0.972 . S
H287 C296 0.950 . S
H288 C298 0.950 . S
H289 C300 0.950 . S
H290 C302 0.950 . S
H291 C303 0.950 . S
C292 H284 0.950 . S
C292 C293 1.386 . S
C292 C294 1.378 1_556 S
C293 C292 1.386 . S
C293 C297 1.393 . S
C294 H286 0.972 . S
C294 C292 1.378 1_554 S
C294 C295 1.392 1_554 S
C295 C294 1.392 1_556 S
C295 C296 1.398 . S
C295 C301 1.491 1_556 S
C296 H287 0.950 . S
C296 C295 1.398 . S
C296 C297 1.391 . S
C297 H285 0.950 . S
C297 C293 1.393 . S
C297 C296 1.391 . S
C298 H288 0.950 . S
C298 C299 1.386 . S
C298 C300 1.391 1_554 S
C299 C298 1.386 . S
C299 C303 1.393 . S
C300 H289 0.950 . S
C300 C298 1.391 1_556 S
C300 C301 1.400 1_556 S
C301 C295 1.491 1_554 S
C301 C300 1.400 1_554 S
C301 C302 1.398 . S
C302 H290 0.950 . S
C302 C301 1.398 . S
C302 C303 1.391 . S
C303 H291 0.950 . S
C303 C299 1.393 . S
C303 C302 1.391 . S
H304 C312 0.950 . S
H305 C317 0.950 . S
H306 C314 0.950 . S
H307 C316 0.950 1_545 S
H308 C318 0.950 . S
H309 C320 0.950 . S
H310 C322 0.950 1_565 S
H311 C323 0.950 . S
C312 H304 0.950 . S
C312 C313 1.386 . S
C312 C314 1.391 . S
C313 C312 1.386 . S
C313 C317 1.393 . S
C314 H306 0.950 . S
C314 C312 1.391 . S
C314 C315 1.400 . S
C315 C314 1.400 . S
C315 C316 1.398 . S
C315 C321 1.491 1_565 S
C316 H307 0.950 1_565 S
C316 C315 1.398 . S
C316 C317 1.391 . S
C317 H305 0.950 . S
C317 C313 1.393 . S
C317 C316 1.391 . S
C318 H308 0.950 . S
C318 C319 1.386 . S
C318 C320 1.391 . S
C319 C318 1.386 . S
C319 C323 1.393 . S
C320 H309 0.950 . S
C320 C318 1.391 . S
C320 C321 1.400 . S
C321 C315 1.491 1_545 S
C321 C320 1.400 . S
C321 C322 1.398 . S
C322 H310 0.950 1_545 S
C322 C321 1.398 . S
C322 C323 1.391 . S
C323 H311 0.950 . S
C323 C319 1.393 . S
C323 C322 1.391 . S
H324 C332 0.950 . S
H325 C337 0.950 . S
H326 C334 0.951 1_455 S
H327 C336 0.950 1_545 S
H328 C338 0.950 . S
H329 C340 0.951 1_655 S
H330 C342 0.950 1_565 S
H331 C343 0.950 . S
C332 H324 0.950 . S
C332 C333 1.386 . S
C332 C334 1.390 . S
C333 C332 1.386 . S
C333 C337 1.393 . S
C334 H326 0.951 1_655 S
C334 C332 1.390 . S
C334 C335 1.400 . S
C335 C334 1.400 . S
C335 C336 1.398 . S
C335 C341 1.491 1_665 S
C336 H327 0.950 1_565 S
C336 C335 1.398 . S
C336 C337 1.391 . S
C337 H325 0.950 . S
C337 C333 1.393 . S
C337 C336 1.391 . S
C338 H328 0.950 . S
C338 C339 1.386 . S
C338 C340 1.390 . S
C339 C338 1.386 . S
C339 C343 1.393 . S
C340 H329 0.951 1_455 S
C340 C338 1.390 . S
C340 C341 1.400 . S
C341 C335 1.491 1_445 S
C341 C340 1.400 . S
C341 C342 1.398 . S
C342 H330 0.950 1_545 S
C342 C341 1.398 . S
C342 C343 1.391 . S
C343 H331 0.950 . S
C343 C339 1.393 . S
C343 C342 1.391 . S
H344 C352 0.950 . S
H345 C357 0.950 . S
H346 C354 0.950 . S
H347 C356 0.950 . S
H348 C358 0.950 . S
H349 C360 0.950 . S
H350 C362 0.950 . S
H351 C363 0.950 . S
C352 H344 0.950 . S
C352 C353 1.386 . S
C352 C354 1.391 . S
C353 C352 1.386 . S
C353 C357 1.393 . S
C354 H346 0.950 . S
C354 C352 1.391 . S
C354 C355 1.400 . S
C355 C354 1.400 . S
C355 C356 1.398 . S
C355 C361 1.491 1_655 S
C356 H347 0.950 . S
C356 C355 1.398 . S
C356 C357 1.391 . S
C357 H345 0.950 . S
C357 C353 1.393 . S
C357 C356 1.391 . S
C358 H348 0.950 . S
C358 C359 1.386 . S
C358 C360 1.391 . S
C359 C358 1.386 . S
C359 C363 1.393 . S
C360 H349 0.950 . S
C360 C358 1.391 . S
C360 C361 1.400 . S
C361 C355 1.491 1_455 S
C361 C360 1.400 . S
C361 C362 1.398 . S
C362 H350 0.950 . S
C362 C361 1.398 . S
C362 C363 1.391 . S
C363 H351 0.950 . S
C363 C359 1.393 . S
C363 C362 1.391 . S
H364 C372 0.950 . S
H365 C377 0.950 . S
H366 C374 0.950 . S
H367 C376 0.950 . S
H368 C378 0.950 . S
H369 C380 0.950 . S
H370 C382 0.950 . S
H371 C383 0.950 . S
C372 H364 0.950 . S
C372 C373 1.386 . S
C372 C374 1.391 . S
C373 C372 1.386 . S
C373 C377 1.393 . S
C374 H366 0.950 . S
C374 C372 1.391 . S
C374 C375 1.400 . S
C375 C374 1.400 . S
C375 C376 1.398 . S
C375 C381 1.491 . S
C376 H367 0.950 . S
C376 C375 1.398 . S
C376 C377 1.391 . S
C377 H365 0.950 . S
C377 C373 1.393 . S
C377 C376 1.391 . S
C378 H368 0.950 . S
C378 C379 1.386 . S
C378 C380 1.391 . S
C379 C378 1.386 . S
C379 C383 1.393 . S
C380 H369 0.950 . S
C380 C378 1.391 . S
C380 C381 1.400 . S
C381 C375 1.491 . S
C381 C380 1.400 . S
C381 C382 1.398 . S
C382 H370 0.950 . S
C382 C381 1.398 . S
C382 C383 1.391 . S
C383 H371 0.950 . S
C383 C379 1.393 . S
C383 C382 1.391 . S
H384 C392 0.950 . S
H385 C397 0.950 . S
H386 C394 0.950 . S
H387 C396 0.950 1_556 S
H388 C398 0.950 . S
H389 C400 0.950 . S
H390 C402 0.950 . S
H391 C403 0.950 . S
C392 H384 0.950 . S
C392 C393 1.386 . S
C392 C394 1.391 . S
C393 C392 1.386 . S
C393 C397 1.393 . S
C394 H386 0.950 . S
C394 C392 1.391 . S
C394 C395 1.400 . S
C395 C394 1.400 . S
C395 C396 1.398 . S
C395 C401 1.491 1_554 S
C396 H387 0.950 1_554 S
C396 C395 1.398 . S
C396 C397 1.391 . S
C397 H385 0.950 . S
C397 C393 1.393 . S
C397 C396 1.391 . S
C398 H388 0.950 . S
C398 C399 1.386 . S
C398 C400 1.391 . S
C399 C398 1.386 . S
C399 C403 1.393 . S
C400 H389 0.950 . S
C400 C398 1.391 . S
C400 C401 1.400 . S
C401 C395 1.491 1_556 S
C401 C400 1.400 . S
C401 C402 1.398 . S
C402 H390 0.950 . S
C402 C401 1.398 . S
C402 C403 1.391 . S
C403 H391 0.950 . S
C403 C399 1.393 . S
C403 C402 1.391 . S
H404 C412 0.950 . S
H405 C417 0.950 . S
H406 C414 0.950 . S
H407 C416 0.950 . S
H408 C418 0.950 . S
H409 C420 0.950 . S
H410 C422 0.950 . S
H411 C423 0.950 . S
C412 H404 0.950 . S
C412 C413 1.386 . S
C412 C414 1.391 . S
C413 C412 1.386 . S
C413 C417 1.393 . S
C414 H406 0.950 . S
C414 C412 1.391 . S
C414 C415 1.400 . S
C415 C414 1.400 . S
C415 C416 1.398 . S
C415 C421 1.491 . S
C416 H407 0.950 . S
C416 C415 1.398 . S
C416 C417 1.391 . S
C417 H405 0.950 . S
C417 C413 1.393 . S
C417 C416 1.391 . S
C418 H408 0.950 . S
C418 C419 1.386 . S
C418 C420 1.391 . S
C419 C418 1.386 . S
C419 C423 1.393 . S
C420 H409 0.950 . S
C420 C418 1.391 . S
C420 C421 1.400 . S
C421 C415 1.491 . S
C421 C420 1.400 . S
C421 C422 1.398 . S
C422 H410 0.950 . S
C422 C421 1.398 . S
C422 C423 1.391 . S
C423 H411 0.950 . S
C423 C419 1.393 . S
C423 C422 1.391 . S
C113 C75 1.491 . S
C119 C5 1.473 . S
C133 C101 1.491 . S
C139 C18 1.484 . S
C153 C34 1.482 . S
C159 C86 1.472 . S
C173 C39 1.477 . S
C179 C52 1.488 . S
C193 C83 1.479 . S
C199 C10 1.479 . S
C213 C21 1.480 . S
C219 C60 1.478 . S
C233 C65 1.472 . S
C239 C26 1.485 . S
C253 C49 1.491 . S
C259 C96 1.473 . S
C273 C62 1.479 . S
C279 C70 1.473 . S
C293 C23 1.485 . S
C299 C31 1.469 . S
C313 C44 1.471 . S
C319 C36 1.489 . S
C333 C47 1.466 . S
C339 C8 1.479 . S
C353 C13 1.479 . S
C359 C0 1.472 . S
C373 C91 1.471 . S
C379 C78 1.484 . S
C393 C57 1.477 . S
C399 C88 1.479 . S
C413 C73 1.474 . S
C419 C99 1.482 . S
