# Generated by pormake.
# Topology sma, (6)-cn, num edge types: 1
# Building blocks:
#     Node 0, Type 0, BuildingBlock: BETFEN_clean_sbu_0, # of connection points: 6
#     Node 1, Type 0, BuildingBlock: BETFEN_clean_sbu_0, # of connection points: 6
#     Node 2, Type 0, BuildingBlock: BETFEN_clean_sbu_0, # of connection points: 6
#     Edge 3, Type (0, 0), BuildingBlock: MIFKUJ_clean_linker_0, # of connection points: 2
#     Edge 4, Type (0, 0), BuildingBlock: MIFKUJ_clean_linker_0, # of connection points: 2
#     Edge 5, Type (0, 0), BuildingBlock: MIFKUJ_clean_linker_0, # of connection points: 2
#     Edge 6, Type (0, 0), BuildingBlock: MIFKUJ_clean_linker_0, # of connection points: 2
#     Edge 7, Type (0, 0), BuildingBlock: MIFKUJ_clean_linker_0, # of connection points: 2
#     Edge 8, Type (0, 0), BuildingBlock: MIFKUJ_clean_linker_0, # of connection points: 2
#     Edge 9, Type (0, 0), BuildingBlock: MIFKUJ_clean_linker_0, # of connection points: 2
#     Edge 10, Type (0, 0), BuildingBlock: MIFKUJ_clean_linker_0, # of connection points: 2
#     Edge 11, Type (0, 0), BuildingBlock: MIFKUJ_clean_linker_0, # of connection points: 2
# Relax obj value: 0.123
# Max RMSD: 0.244
# Mean RMSD: 0.202
data_MOF--net-sma--node1-BETFEN_clean_sbu_0--edge1-MIFKUJ_clean_linker_0
_symmetry_space_group_name_H-M    P1
_symmetry_Int_Tables_number       1
_symmetry_cell_setting            triclinic
loop_
_symmetry_equiv_pos_as_xyz
'x, y, z'
_cell_length_a     39.995285
_cell_length_b     49.554754
_cell_length_c     17.891529
_cell_angle_alpha  90.850833
_cell_angle_beta   94.363213
_cell_angle_gamma 103.45977
loop_
_atom_site_label
_atom_site_type_symbol
_atom_site_fract_x
_atom_site_fract_y
_atom_site_fract_z
_atom_type_partial_charge
Pr0 Pr 0.06659 0.50277 0.04271 0.0
Pr1 Pr 0.08974 0.56728 0.02649 0.0
C2 C 1.05411 0.44991 0.08789 0.0
C3 C 1.02538 0.42709 0.1085 0.0
C4 C 1.0123 0.40422 0.0587 0.0
C5 C 0.98656 0.38182 0.07886 0.0
C6 C 0.97339 0.38158 0.14966 0.0
C7 C 0.98623 0.40463 0.19919 0.0
C8 C 1.01194 0.42708 0.17895 0.0
C9 C 1.05115 0.52156 0.90295 0.0
C10 C 1.00604 0.53707 0.03615 0.0
C11 C 0.10352 0.62263 0.00941 0.0
C12 C 0.12732 0.6465 0.05011 0.0
C13 C 0.13583 0.64565 0.12753 0.0
C14 C 0.15854 0.66819 0.16593 0.0
C15 C 0.17357 0.69206 0.12771 0.0
C16 C 0.16516 0.6927 0.0499 0.0
C17 C 0.14223 0.67014 0.01157 0.0
C18 C 0.10204 0.54834 0.16925 0.0
C19 C 0.14804 0.53186 0.00286 0.0
O20 O 0.06428 0.47153 0.13416 0.0
O21 O 0.05469 0.45642 0.01722 0.0
O22 O 0.07874 0.53069 0.94339 0.0
O23 O 1.0318 0.49963 0.92983 0.0
O24 O 1.02886 0.55785 0.00973 0.0
O25 O 1.01498 0.51488 0.06357 0.0
O26 O 0.11774 0.6062 -0.02873 0.0
O27 O 0.07802 0.60915 0.04597 0.0
O28 O 0.07524 0.53968 0.12615 0.0
O29 O 0.12341 0.56805 0.13902 0.0
O30 O 0.12679 0.51029 0.03032 0.0
O31 O 0.13854 0.5551 -0.0124 0.0
H32 H 1.02224 0.4035 0.00424 0.0
H33 H 0.97699 0.36465 0.0388 0.0
H34 H 0.97708 0.40504 0.25453 0.0
H35 H 1.0216 0.44422 0.21907 0.0
H36 H 0.12482 0.62755 0.15854 0.0
H37 H 0.16391 0.66703 0.22587 0.0
H38 H 0.17658 0.71049 0.01832 0.0
H39 H 0.13626 0.67111 0.95172 0.0
Pr40 Pr 0.60962 0.04021 0.50574 0.0
Pr41 Pr 0.5366 1.02276 0.56632 0.0
C42 C 0.66208 0.0593 0.41984 0.0
C43 C 0.68472 0.08575 0.40012 0.0
C44 C 0.69035 0.10958 0.44705 0.0
C45 C 0.71264 0.13433 0.428 0.0
C46 C 0.72949 0.13581 0.36121 0.0
C47 C 0.72311 0.11185 0.31393 0.0
C48 C 0.70116 0.08709 0.33349 0.0
C49 C 0.60968 0.0443 0.65953 0.0
C50 C 0.56475 0.08885 0.53816 0.0
C51 C 0.47749 0.99816 0.62435 0.0
C52 C 0.44949 0.97502 0.59219 0.0
C53 C 0.4425 0.97173 0.514 0.0
C54 C 0.41793 0.9489 0.48225 0.0
C55 C 0.3999 0.92857 0.52781 0.0
C56 C 0.40685 0.93185 0.60624 0.0
C57 C 0.43138 0.95495 0.63815 0.0
C58 C 0.53834 1.01469 0.41293 0.0
C59 C 0.58761 0.97815 0.57068 0.0
O60 O 0.6296 0.05467 0.39433 0.0
O61 O 0.66651 0.05132 0.48864 0.0
O62 O 0.58791 0.05082 0.61324 0.0
O63 O 0.6346 0.03725 0.62714 0.0
O64 O 0.54444 0.07076 0.57834 0.0
O65 O 0.58837 0.08139 0.49928 0.0
O66 O 0.50682 0.99176 0.64358 0.0
O67 O 0.4814 1.02153 0.58918 0.0
O68 O 0.55965 1.00976 0.46249 0.0
O69 O 0.51394 1.02348 0.44149 0.0
O70 O 0.60524 0.99239 0.51849 0.0
O71 O 0.56446 0.9879 0.60481 0.0
H72 H 0.67779 0.10898 0.49878 0.0
H73 H 0.71713 0.15211 0.46646 0.0
H74 H 0.7348 0.11219 0.26124 0.0
H75 H 0.69685 0.06897 0.29617 0.0
H76 H 0.45649 0.98661 0.47706 0.0
H77 H 0.41372 0.94679 0.4217 0.0
H78 H 0.39327 0.9166 0.64286 0.0
H79 H 0.43651 0.95695 0.69854 0.0
Pr80 Pr 0.56582 0.50595 0.83549 0.0
Pr81 Pr 0.58172 0.57108 0.87019 0.0
C82 C 0.54615 0.45374 0.77578 0.0
C83 C 0.556 0.42709 0.76123 0.0
C84 C 0.55227 0.40649 0.8153 0.0
C85 C 0.55711 0.38007 0.79811 0.0
C86 C 0.56565 0.37347 0.72631 0.0
C87 C 0.57042 0.39433 0.67297 0.0
C88 C 0.56549 0.42076 0.69012 0.0
C89 C 0.58355 0.52237 -0.01642 0.0
C90 C 0.64663 0.53819 0.87459 0.0
C91 C 0.60329 0.62544 0.91165 0.0
C92 C 0.6025 0.65273 0.88028 0.0
C93 C 0.60029 0.65635 0.80246 0.0
C94 C 0.60075 0.68261 0.77378 0.0
C95 C 0.60322 0.70575 0.82236 0.0
C96 C 0.60512 0.70187 0.90027 0.0
C97 C 0.60479 0.67566 0.92883 0.0
C98 C 0.57144 0.55442 0.71906 0.0
C99 C 0.50062 0.53709 0.86046 0.0
O100 O 0.55917 0.47532 0.7367 0.0
O101 O 0.54157 0.46028 0.84489 0.0
O102 O 0.56441 0.53279 0.93927 0.0
O103 O 0.59131 0.50064 0.9542 0.0
O104 O 0.63487 0.55905 0.9013 0.0
O105 O 0.626 0.5166 0.83723 0.0
O106 O 0.57399 0.60987 0.92933 0.0
O107 O 0.62255 0.61133 0.88 0.0
O108 O 0.58738 0.54428 0.76997 0.0
O109 O 0.56075 0.57516 0.74545 0.0
O110 O 0.51052 0.51604 0.82937 0.0
O111 O 0.52311 0.55956 0.88817 0.0
H112 H 0.54469 0.41049 0.87046 0.0
H113 H 0.55369 0.36467 0.84092 0.0
H114 H 0.57661 0.38993 0.61687 0.0
H115 H 0.56806 0.43597 0.64676 0.0
H116 H 0.59836 0.6389 0.76385 0.0
H117 H 0.59881 0.68471 0.71354 0.0
H118 H 0.60749 0.71923 0.9394 0.0
H119 H 0.60665 0.67334 -0.01098 0.0
H120 H 0.20353 0.57495 -0.01006 0.0
H121 H 0.26176 0.57319 0.96302 0.0
H122 H 0.23191 0.48367 0.95297 0.0
H123 H 0.17356 0.48535 -0.01659 0.0
H124 H 0.29378 0.49929 0.01999 0.0
H125 H 0.2417 0.52458 0.78925 0.0
H126 H 0.2093 0.55205 0.71104 0.0
H127 H 0.28793 0.626 0.76948 0.0
H128 H 0.32063 0.59905 0.84854 0.0
H129 H 0.44706 0.49058 0.84479 0.0
H130 H 0.38625 0.4872 0.86477 0.0
H131 H 0.4087 0.57535 0.91313 0.0
H132 H 0.4694 0.57891 0.89381 0.0
H133 H 0.3491 0.55703 0.81872 0.0
H134 H 0.39929 0.53184 0.05333 0.0
H135 H 0.43091 0.5047 0.13434 0.0
H136 H 0.35523 0.42993 0.06688 0.0
H137 H 0.3234 0.4566 -0.01544 0.0
C138 C 0.20924 0.55483 -0.01802 0.0
C139 C 0.18369 0.53028 -0.01187 0.0
C140 C 0.24264 0.55385 0.96607 0.0
C141 C 0.25125 0.5283 0.95374 0.0
C142 C 0.22599 0.50368 0.96158 0.0
C143 C 0.19259 0.50465 -0.02109 0.0
C144 C 0.28661 0.52752 0.93302 0.0
C145 C 0.30555 0.51152 -0.02502 0.0
C146 C 0.3025 0.54377 0.87501 0.0
C147 C 0.28348 0.55982 0.82529 0.0
C148 C 0.25204 0.54671 0.78551 0.0
C149 C 0.23362 0.56218 0.74105 0.0
C150 C 0.24649 0.59076 0.73566 0.0
C151 C 0.27798 0.60387 0.77388 0.0
C152 C 0.2965 0.5885 0.81837 0.0
C153 C 0.43904 0.5093 0.85913 0.0
C154 C 0.46324 0.53502 0.86779 0.0
C155 C 0.40425 0.50729 0.87093 0.0
C156 C 0.39287 0.53099 0.89102 0.0
C157 C 0.41681 0.55677 0.89774 0.0
C158 C 0.45159 0.55875 0.88684 0.0
C159 C 0.3562 0.52905 0.90612 0.0
C160 C 0.33707 0.54455 0.86304 0.0
C161 C 0.34011 0.51221 0.96266 0.0
C162 C 0.3592 0.49616 0.0121 0.0
C163 C 0.38957 0.50957 0.05523 0.0
C164 C 0.40749 0.49429 0.10149 0.0
C165 C 0.39515 0.4656 0.10557 0.0
C166 C 0.3648 0.45215 0.06354 0.0
C167 C 0.3468 0.46734 0.0171 0.0
H168 H 0.40905 0.4538 0.14145 0.0
H169 H 0.23204 0.6028 0.70206 0.0
H170 H 0.78907 0.14126 0.28964 0.0
H171 H 0.82842 0.18366 0.25544 0.0
H172 H 0.7667 0.2325 0.35727 0.0
H173 H 0.72567 0.19001 0.38709 0.0
H174 H 0.78629 0.25493 0.23315 0.0
H175 H 0.84582 0.22337 0.44373 0.0
H176 H 0.8701 0.19 0.51849 0.0
H177 H 0.93618 0.18219 0.34518 0.0
H178 H 0.91197 0.21524 0.26893 0.0
H179 H 0.91732 0.38097 0.23037 0.0
H180 H 0.87539 0.34053 0.2699 0.0
H181 H 0.92742 0.28627 0.15861 0.0
H182 H 0.97014 0.32646 0.12143 0.0
H183 H 0.91225 0.26822 0.29425 0.0
H184 H 0.85039 0.29957 0.08291 0.0
H185 H 0.82618 0.33381 0.01165 0.0
H186 H 0.76473 0.34329 0.19254 0.0
H187 H 0.78891 0.30935 0.26528 0.0
C188 C 0.78339 0.16093 0.3039 0.0
C189 C 0.75396 0.16198 0.34134 0.0
C190 C 0.80636 0.18529 0.28525 0.0
C191 C 0.80106 0.21143 0.30505 0.0
C192 C 0.77158 0.21263 0.34177 0.0
C193 C 0.74829 0.18823 0.35959 0.0
C194 C 0.8261 0.23739 0.2867 0.0
C195 C 0.81378 0.25798 0.24762 0.0
C196 C 0.86212 0.24139 0.30446 0.0
C197 C 0.87686 0.22161 0.35036 0.0
C198 C 0.86537 0.21439 0.42135 0.0
C199 C 0.87914 0.19556 0.46402 0.0
C200 C 0.90461 0.18393 0.43653 0.0
C201 C 0.91643 0.19118 0.36638 0.0
C202 C 0.90272 0.21 0.32345 0.0
C203 C 0.92001 0.36043 0.21471 0.0
C204 C 0.94713 0.35706 0.17239 0.0
C205 C 0.89576 0.33731 0.23674 0.0
C206 C 0.89795 0.31029 0.21654 0.0
C207 C 0.92507 0.30687 0.17468 0.0
C208 C 0.94932 0.32994 0.15279 0.0
C209 C 0.87246 0.28549 0.23989 0.0
C210 C 0.88473 0.26516 0.2801 0.0
C211 C 0.83643 0.28188 0.22376 0.0
C212 C 0.82172 0.30213 0.17981 0.0
C213 C 0.8319 0.3091 0.10769 0.0
C214 C 0.81815 0.32843 0.06701 0.0
C215 C 0.79401 0.34078 0.09763 0.0
C216 C 0.78347 0.33375 0.16893 0.0
C217 C 0.79717 0.31445 0.20988 0.0
H218 H 0.7834 0.35574 0.06606 0.0
H219 H 0.91524 0.16935 0.46964 0.0
H220 H 0.55888 0.94629 0.68248 0.0
H221 H 0.56649 0.90091 0.71913 0.0
H222 H 0.63643 0.90156 0.54698 0.0
H223 H 0.62854 0.94729 0.50881 0.0
H224 H 0.5906 0.85104 0.55187 0.0
H225 H 0.66604 0.91423 0.72735 0.0
H226 H 0.68223 0.9534 0.81967 0.0
H227 H 0.61058 0.90891 0.96719 0.0
H228 H 0.59305 0.86982 0.87475 0.0
H229 H 0.63748 0.73054 0.70448 0.0
H230 H 0.63932 0.77692 0.65719 0.0
H231 H 0.5726 0.79101 0.82461 0.0
H232 H 0.57069 0.74477 0.87213 0.0
H233 H 0.62405 0.8353 0.81752 0.0
H234 H 0.54332 0.77568 0.63667 0.0
H235 H 0.52432 0.7371 0.54286 0.0
H236 H 0.60546 0.7749 0.40718 0.0
H237 H 0.62521 0.81355 0.5007 0.0
C238 C 0.57595 0.93692 0.65209 0.0
C239 C 0.59318 0.95059 0.59264 0.0
C240 C 0.58035 0.91093 0.6735 0.0
C241 C 0.60236 0.89791 0.63657 0.0
C242 C 0.6194 0.91125 0.57653 0.0
C243 C 0.615 0.93744 0.55493 0.0
C244 C 0.60714 0.87034 0.66124 0.0
C245 C 0.59858 0.84769 0.60964 0.0
C246 C 0.61695 0.86583 0.73701 0.0
C247 C 0.62797 0.88913 0.7936 0.0
C248 C 0.65347 0.91287 0.77914 0.0
C249 C 0.66286 0.9351 0.8315 0.0
C250 C 0.64732 0.9337 0.8991 0.0
C251 C 0.62251 0.91 0.91468 0.0
C252 C 0.6128 0.88781 0.86225 0.0
C253 C 0.62291 0.74339 0.73078 0.0
C254 C 0.60392 0.73384 0.79222 0.0
C255 C 0.62403 0.76997 0.7037 0.0
C256 C 0.6059 0.78751 0.73689 0.0
C257 C 0.58696 0.778 0.79818 0.0
C258 C 0.58594 0.75152 0.82544 0.0
C259 C 0.60671 0.81584 0.70858 0.0
C260 C 0.61643 0.83868 0.75957 0.0
C261 C 0.59788 0.8205 0.63239 0.0
C262 C 0.58598 0.79733 0.57608 0.0
C263 C 0.55728 0.77565 0.58711 0.0
C264 C 0.54634 0.75379 0.53394 0.0
C265 C 0.56374 0.7535 0.46922 0.0
C266 C 0.59205 0.77512 0.45741 0.0
C267 C 0.60311 0.79702 0.51044 0.0
H268 H 0.55524 0.73656 0.42812 0.0
H269 H 0.65457 0.95095 0.93952 0.0
H270 H 0.67819 0.49498 0.86055 0.0
H271 H 0.73898 0.49526 0.8914 0.0
H272 H 0.7601 0.58212 0.95577 0.0
H273 H 0.6993 0.58201 0.92577 0.0
H274 H 0.80914 0.56816 0.86368 0.0
H275 H 0.75342 0.53705 0.08815 0.0
H276 H 0.7098 0.50652 0.15868 0.0
H277 H 0.74603 0.4357 0.09039 0.0
H278 H 0.78962 0.46571 0.01868 0.0
H279 H 0.97795 0.58243 0.0312 0.0
H280 H 0.91698 0.58309 0.01066 0.0
H281 H 0.88956 0.49349 -0.00206 0.0
H282 H 0.95029 0.49282 0.02306 0.0
H283 H 0.84287 0.50906 0.06368 0.0
H284 H 0.89658 0.53699 0.83801 0.0
H285 H 0.94108 0.56534 0.76529 0.0
H286 H 0.90793 0.63866 0.82505 0.0
H287 H 0.86373 0.61082 0.89966 0.0
C288 C 0.69574 0.5142 0.88093 0.0
C289 C 0.68377 0.53847 0.89068 0.0
C290 C 0.7305 0.51429 0.89881 0.0
C291 C 0.75409 0.53868 0.92628 0.0
C292 C 0.74238 0.56307 0.93467 0.0
C293 C 0.70756 0.56292 0.91769 0.0
C294 C 0.79088 0.5387 0.94714 0.0
C295 C 0.81659 0.5555 0.908 0.0
C296 C 0.80054 0.52159 0.00351 0.0
C297 C 0.77459 0.50361 0.04746 0.0
C298 C 0.75193 0.51494 0.0877 0.0
C299 C 0.72722 0.49774 0.12794 0.0
C300 C 0.72506 0.4692 0.12876 0.0
C301 C 0.7477 0.45781 0.0896 0.0
C302 C 0.77244 0.4749 0.04923 0.0
C303 C 0.95886 0.56288 0.02472 0.0
C304 C 0.96898 0.53758 0.02846 0.0
C305 C 0.92395 0.56325 0.01239 0.0
C306 C 0.89843 0.53834 0.00061 0.0
C307 C 0.90853 0.51304 0.00651 0.0
C308 C 0.94335 0.51267 0.02081 0.0
C309 C 0.86147 0.53857 -0.01979 0.0
C310 C 0.83561 0.52176 0.0193 0.0
C311 C 0.8516 0.55527 0.92267 0.0
C312 C 0.87707 0.57186 0.87503 0.0
C313 C 0.89883 0.55917 0.83579 0.0
C314 C 0.92405 0.57516 0.79434 0.0
C315 C 0.9274 0.60381 0.79077 0.0
C316 C 0.90535 0.61648 0.82807 0.0
C317 C 0.88022 0.60061 0.86997 0.0
H318 H 0.94708 0.6162 0.75909 0.0
H319 H 0.70592 0.45593 0.1599 0.0
H320 H 0.39169 0.87397 0.56456 0.0
H321 H 0.3528 0.83321 0.50051 0.0
H322 H 0.31296 0.88646 0.34647 0.0
H323 H 0.35118 0.92722 0.41105 0.0
H324 H 0.26166 0.84573 0.39214 0.0
H325 H 0.37236 0.85229 0.29555 0.0
H326 H 0.43491 0.85505 0.30466 0.0
H327 H 0.41824 0.77627 0.41003 0.0
H328 H 0.35559 0.77323 0.40249 0.0
H329 H 0.17922 0.74771 0.10619 0.0
H330 H 0.21775 0.78701 0.17578 0.0
H331 H 0.2599 0.73067 0.31506 0.0
H332 H 0.22272 0.69123 0.24321 0.0
H333 H 0.30996 0.77216 0.28113 0.0
H334 H 0.19953 0.76479 0.37635 0.0
H335 H 0.13693 0.76174 0.36859 0.0
H336 H 0.15284 0.84152 0.26873 0.0
H337 H 0.21552 0.84488 0.27496 0.0
C338 C 0.3743 0.877 0.51772 0.0
C339 C 0.37468 0.90384 0.49267 0.0
C340 C 0.35231 0.85368 0.48071 0.0
C341 C 0.33027 0.85674 0.41799 0.0
C342 C 0.32983 0.88355 0.39445 0.0
C343 C 0.35186 0.90683 0.43116 0.0
C344 C 0.30799 0.83209 0.37595 0.0
C345 C 0.27225 0.82979 0.3672 0.0
C346 C 0.32169 0.81093 0.34488 0.0
C347 C 0.35933 0.81268 0.34919 0.0
C348 C 0.38206 0.83566 0.32122 0.0
C349 C 0.41752 0.83726 0.326 0.0
C350 C 0.43055 0.81589 0.3581 0.0
C351 C 0.40812 0.79283 0.3853 0.0
C352 C 0.37263 0.79115 0.38074 0.0
C353 C 0.197 0.7436 0.15088 0.0
C354 C 0.1976 0.71617 0.16917 0.0
C355 C 0.21877 0.76616 0.19135 0.0
C356 C 0.24134 0.76187 0.25174 0.0
C357 C 0.24257 0.73456 0.26911 0.0
C358 C 0.22098 0.71199 0.22836 0.0
C359 C 0.26355 0.78582 0.29693 0.0
C360 C 0.29929 0.78802 0.3063 0.0
C361 C 0.24984 0.80684 0.3289 0.0
C362 C 0.21219 0.80496 0.32551 0.0
C363 C 0.18966 0.7816 0.35226 0.0
C364 C 0.15416 0.77983 0.3482 0.0
C365 C 0.14091 0.80139 0.31802 0.0
C366 C 0.16314 0.82482 0.29201 0.0
C367 C 0.19865 0.82668 0.29586 0.0
H368 H 0.11342 0.79998 0.31492 0.0
H369 H 0.45801 0.81716 0.36175 0.0
H370 H 0.61282 0.35692 0.6428 0.0
H371 H 0.61493 0.30951 0.60681 0.0
H372 H 0.52548 0.27729 0.72722 0.0
H373 H 0.52331 0.3245 0.76349 0.0
H374 H 0.57156 0.24738 0.75395 0.0
H375 H 0.52084 0.28144 0.5326 0.0
H376 H 0.51837 0.31402 0.43058 0.0
H377 H 0.61154 0.29885 0.35296 0.0
H378 H 0.61481 0.26644 0.45519 0.0
H379 H 0.51807 0.11106 0.60657 0.0
H380 H 0.52046 0.1599 0.63278 0.0
H381 H 0.61267 0.18344 0.51572 0.0
H382 H 0.61025 0.13435 0.48817 0.0
H383 H 0.56964 0.21832 0.48672 0.0
H384 H 0.61844 0.1822 0.70468 0.0
H385 H 0.61992 0.14894 0.80533 0.0
H386 H 0.52996 0.16785 0.88937 0.0
H387 H 0.52759 0.2009 0.78842 0.0
C388 C 0.59351 0.33974 0.66137 0.0
C389 C 0.56789 0.3446 0.70608 0.0
C390 C 0.59474 0.31261 0.64071 0.0
C391 C 0.57011 0.28971 0.66349 0.0
C392 C 0.54484 0.29452 0.70901 0.0
C393 C 0.5437 0.3216 0.72996 0.0
C394 C 0.57041 0.26073 0.63997 0.0
C395 C 0.57078 0.24101 0.69544 0.0
C396 C 0.57032 0.25243 0.56374 0.0
C397 C 0.56826 0.27175 0.50199 0.0
C398 C 0.54094 0.28521 0.49409 0.0
C399 C 0.53937 0.30362 0.43619 0.0
C400 C 0.56483 0.30856 0.38546 0.0
C401 C 0.59186 0.29504 0.39238 0.0
C402 C 0.59358 0.27663 0.45025 0.0
C403 C 0.53873 0.12655 0.5856 0.0
C404 C 0.56416 0.11867 0.5458 0.0
C405 C 0.54012 0.15454 0.60099 0.0
C406 C 0.56715 0.17539 0.57766 0.0
C407 C 0.59169 0.16773 0.53475 0.0
C408 C 0.59025 0.13963 0.51903 0.0
C409 C 0.57024 0.20497 0.60065 0.0
C410 C 0.57061 0.22477 0.54521 0.0
C411 C 0.57098 0.21338 0.67695 0.0
C412 C 0.57268 0.19388 0.73858 0.0
C413 C 0.59885 0.17915 0.74435 0.0
C414 C 0.59985 0.16034 0.80147 0.0
C415 C 0.57501 0.15624 0.85362 0.0
C416 C 0.54917 0.17103 0.84889 0.0
C417 C 0.548 0.18982 0.79176 0.0
H418 H 0.57581 0.14165 0.89777 0.0
H419 H 0.56358 0.32283 0.34067 0.0
H420 H 0.07477 0.57499 0.86788 0.0
H421 H 0.07266 0.59367 0.74282 0.0
H422 H 1.00627 0.51586 0.65835 0.0
H423 H 1.00745 0.49756 0.78415 0.0
H424 H 0.1046 0.56607 0.65721 0.0
H425 H 0.97252 0.51905 0.49082 0.0
H426 H 0.91086 0.51778 0.49845 0.0
H427 H 0.93759 0.59403 0.62975 0.0
H428 H 0.99943 0.59552 0.62429 0.0
H429 H 0.06039 0.50939 0.24587 0.0
H430 H 1.04792 0.51365 0.37649 0.0
H431 H 0.12538 0.59084 0.40306 0.0
H432 H 0.13909 0.58597 0.27397 0.0
H433 H 1.02197 0.55367 0.43149 0.0
H434 H 0.15454 0.60367 0.57594 0.0
H435 H 0.21577 0.60352 0.56644 0.0
H436 H 0.18648 0.5189 0.48329 0.0
H437 H 0.12506 0.51873 0.49102 0.0
C438 C 0.05875 0.56232 0.82297 0.0
C439 C 1.04238 0.53459 0.83403 0.0
C440 C 0.05716 0.57312 0.75197 0.0
C441 C 1.03982 0.556 0.69132 0.0
C442 C 1.01963 0.52951 0.70451 0.0
C443 C 1.02073 0.51888 0.77606 0.0
C444 C 1.0513 0.56172 0.61587 0.0
C445 C 0.08658 0.56431 0.60785 0.0
C446 C 1.02776 0.55854 0.55178 0.0
C447 C 0.99062 0.55734 0.55729 0.0
C448 C 0.96525 0.53552 0.5215 0.0
C449 C 0.93027 0.53469 0.5258 0.0
C450 C 0.92033 0.55572 0.56507 0.0
C451 C 0.94535 0.57759 0.60024 0.0
C452 C 0.98037 0.57835 0.59696 0.0
C453 C 0.07553 0.52671 0.28055 0.0
C454 C 0.10062 0.54733 0.25038 0.0
C455 C 0.06812 0.52932 0.35456 0.0
C456 C 0.08553 0.55267 0.3988 0.0
C457 C 0.11193 0.57252 0.3699 0.0
C458 C 0.11979 0.56966 0.29629 0.0
C459 C 0.07475 0.55687 0.47388 0.0
C460 C 1.03987 0.55622 0.4812 0.0
C461 C 0.09852 0.56151 0.5377 0.0
C462 C 0.13532 0.56127 0.53366 0.0
C463 C 0.16123 0.58503 0.55581 0.0
C464 C 0.19592 0.58502 0.55056 0.0
C465 C 0.20502 0.56118 0.52461 0.0
C466 C 0.17941 0.53735 0.50333 0.0
C467 C 0.14465 0.53735 0.50771 0.0
H468 H 0.23191 0.56119 0.52095 0.0
H469 H 0.89324 0.55514 0.56801 0.0
H470 H 0.59155 1.00191 0.34739 0.0
H471 H 0.5981 0.99941 0.21309 0.0
H472 H 0.49511 1.01096 0.1652 0.0
H473 H 0.48877 1.01465 0.30009 0.0
H474 H 0.53097 0.96844 0.06475 0.0
H475 H 0.5312 0.06295 0.15776 0.0
H476 H 0.54916 0.10118 0.25278 0.0
H477 H 0.65546 0.10397 0.22438 0.0
H478 H 0.63813 0.06468 0.13221 0.0
H479 H 0.56904 0.06768 0.73938 0.0
H480 H 0.55211 0.05619 0.86536 0.0
H481 H 0.61639 0.99718 0.87921 0.0
H482 H 0.6337 1.0088 0.7525 0.0
H483 H 0.59629 0.06149 -0.00455 0.0
H484 H 0.56581 0.94109 -0.01712 0.0
H485 H 0.54495 0.90188 0.89145 0.0
H486 H 0.49545 0.95268 0.75035 0.0
H487 H 0.51514 0.99203 0.8415 0.0
C488 C 0.57014 1.00356 0.30821 0.0
C489 C 0.54003 1.00925 0.33327 0.0
C490 C 0.57378 1.00176 0.23192 0.0
C491 C 0.54707 1.00506 0.18038 0.0
C492 C 0.51579 1.00825 0.20502 0.0
C493 C 0.51239 1.01068 0.28156 0.0
C494 C 0.55448 1.01044 0.10279 0.0
C495 C 0.54517 0.98869 0.04895 0.0
C496 C 0.57285 0.03698 0.08363 0.0
C497 C 0.58335 0.0605 0.13932 0.0
C498 C 0.5584 0.07128 0.17307 0.0
C499 C 0.56848 0.09312 0.22649 0.0
C500 C 0.60347 0.10473 0.24545 0.0
C501 C 0.62842 0.0946 0.21072 0.0
C502 C 0.61848 0.07249 0.15808 0.0
C503 C 0.57978 0.05246 0.76967 0.0
C504 C 0.60283 0.03925 0.73737 0.0
C505 C 0.57002 0.04587 0.84109 0.0
C506 C 0.58283 1.02573 0.88046 0.0
C507 C 0.60614 1.01262 0.84875 0.0
C508 C 0.61628 1.01948 0.77729 0.0
C509 C 0.57265 1.01952 0.95622 0.0
C510 C 0.58191 0.04117 0.01045 0.0
C511 C 0.55389 0.99296 -0.02501 0.0
C512 C 0.54244 0.96966 0.91871 0.0
C513 C 0.5505 0.94393 0.93229 0.0
C514 C 0.53884 0.92168 0.88054 0.0
C515 C 0.51909 0.92488 0.81495 0.0
C516 C 0.5109 0.95033 0.801 0.0
C517 C 0.52236 0.97263 0.85264 0.0
H518 H 0.51005 0.90763 0.77501 0.0
H519 H 0.61126 0.12173 0.28655 0.0
H520 H 0.61307 0.52416 0.66584 0.0
H521 H 0.63697 0.52783 0.5447 0.0
H522 H 0.57303 0.5837 0.47514 0.0
H523 H 0.55055 0.58152 0.59901 0.0
H524 H 0.61023 0.51342 0.41574 0.0
H525 H 0.60876 0.62893 0.35339 0.0
H526 H 0.61774 0.67336 0.42462 0.0
H527 H 0.67941 0.6438 0.59733 0.0
H528 H 0.67133 0.59938 0.52663 0.0
H529 H 0.56327 0.56076 0.06644 0.0
H530 H 0.58705 0.57822 0.19219 0.0
H531 H 0.66945 0.53608 0.17668 0.0
H532 H 0.64478 0.51743 0.05188 0.0
H533 H 0.64602 0.60254 0.28774 0.0
H534 H 0.66598 0.49597 0.31418 0.0
H535 H 0.65473 0.45106 0.24375 0.0
H536 H 0.55719 0.46332 0.15179 0.0
H537 H 0.56779 0.50812 0.22243 0.0
C538 C 0.60398 0.53719 0.62468 0.0
C539 C 0.58022 0.55281 0.64164 0.0
C540 C 0.61785 0.53937 0.55571 0.0
C541 C 0.60758 0.5567 0.50196 0.0
C542 C 0.58227 0.57106 0.51712 0.0
C543 C 0.56894 0.56939 0.58707 0.0
C544 C 0.62151 0.55811 0.428 0.0
C545 C 0.61925 0.53299 0.3889 0.0
C546 C 0.63336 0.58363 0.39302 0.0
C547 C 0.6393 0.61072 0.43468 0.0
C548 C 0.62452 0.63198 0.40618 0.0
C549 C 0.62939 0.65716 0.44659 0.0
C550 C 0.64907 0.66138 0.51551 0.0
C551 C 0.66409 0.64049 0.54401 0.0
C552 C 0.65937 0.6153 0.5038 0.0
C553 C 0.58684 0.55571 0.08944 0.0
C554 C 0.60132 0.53674 0.05211 0.0
C555 C 0.60082 0.56614 0.16044 0.0
C556 C 0.62948 0.5578 0.19389 0.0
C557 C 0.64699 0.54228 0.15174 0.0
C558 C 0.63253 0.53126 0.08143 0.0
C559 C 0.63352 0.55795 0.27606 0.0
C560 C 0.63889 0.5832 0.31663 0.0
C561 C 0.62494 0.5326 0.31331 0.0
C562 C 0.61775 0.50529 0.27308 0.0
C563 C 0.64207 0.48893 0.27927 0.0
C564 C 0.63584 0.46357 0.23923 0.0
C565 C 0.60531 0.45438 0.19315 0.0
C566 C 0.58083 0.47046 0.18744 0.0
C567 C 0.58689 0.49579 0.22755 0.0
H568 H 0.60061 0.4348 0.16199 0.0
H569 H 0.65271 0.68085 0.54681 0.0
loop_
_geom_bond_atom_site_label_1
_geom_bond_atom_site_label_2
_geom_bond_distance
_geom_bond_site_symmetry_2
_ccdc_geom_bond_type
Pr0 C2 2.880 1_455 S
Pr0 O20 2.562 1_455 S
Pr0 O21 2.490 1_455 S
Pr0 O22 2.695 . S
Pr0 O23 2.512 1_554 S
Pr0 O25 2.437 1_455 S
Pr0 O28 2.436 . S
Pr0 O30 2.438 . S
Pr1 C11 2.880 . S
Pr1 O22 2.436 . S
Pr1 O24 2.438 1_455 S
Pr1 O26 2.562 . S
Pr1 O27 2.490 . S
Pr1 O28 2.695 . S
Pr1 O29 2.512 . S
Pr1 O31 2.437 . S
C2 Pr0 2.880 1_655 S
C2 C3 1.491 . S
C2 O20 1.254 . S
C2 O21 1.225 . S
C3 C2 1.491 . S
C3 C4 1.392 . S
C3 C8 1.356 . S
C4 C3 1.392 . S
C4 C5 1.368 . S
C4 H32 0.929 . S
C5 C4 1.368 . S
C5 C6 1.386 . S
C5 H33 0.929 . S
C6 C5 1.386 . S
C6 C7 1.373 . S
C7 C6 1.373 . S
C7 C8 1.409 . S
C7 H34 0.931 . S
C8 C3 1.356 . S
C8 C7 1.409 . S
C8 H35 0.930 . S
C9 O22 1.270 1_556 S
C9 O23 1.248 . S
C10 O24 1.267 . S
C10 O25 1.278 . S
C11 Pr1 2.880 . S
C11 C12 1.491 . S
C11 O26 1.254 . S
C11 O27 1.225 . S
C12 C11 1.491 . S
C12 C13 1.392 . S
C12 C17 1.356 . S
C13 C12 1.392 . S
C13 C14 1.368 . S
C13 H36 0.929 . S
C14 C13 1.368 . S
C14 C15 1.386 . S
C14 H37 0.929 . S
C15 C14 1.386 . S
C15 C16 1.373 . S
C16 C15 1.373 . S
C16 C17 1.409 . S
C16 H38 0.931 . S
C17 C12 1.356 . S
C17 C16 1.409 . S
C17 H39 0.930 . S
C18 O28 1.270 . S
C18 O29 1.248 . S
C19 O30 1.267 . S
C19 O31 1.278 . S
O20 Pr0 2.562 1_655 S
O20 C2 1.254 . S
O21 Pr0 2.490 1_655 S
O21 C2 1.225 . S
O22 Pr0 2.695 . S
O22 Pr1 2.436 . S
O22 C9 1.270 1_554 S
O23 Pr0 2.512 1_556 S
O23 C9 1.248 . S
O24 Pr1 2.438 1_655 S
O24 C10 1.267 . S
O25 Pr0 2.437 1_655 S
O25 C10 1.278 . S
O26 Pr1 2.562 . S
O26 C11 1.254 . S
O27 Pr1 2.490 . S
O27 C11 1.225 . S
O28 Pr0 2.436 . S
O28 Pr1 2.695 . S
O28 C18 1.270 . S
O29 Pr1 2.512 . S
O29 C18 1.248 . S
O30 Pr0 2.438 . S
O30 C19 1.267 . S
O31 Pr1 2.437 . S
O31 C19 1.278 . S
H32 C4 0.929 . S
H33 C5 0.929 . S
H34 C7 0.931 . S
H35 C8 0.930 . S
H36 C13 0.929 . S
H37 C14 0.929 . S
H38 C16 0.931 . S
H39 C17 0.930 . S
Pr40 C42 2.880 . S
Pr40 O60 2.562 . S
Pr40 O61 2.490 . S
Pr40 O62 2.695 . S
Pr40 O63 2.512 . S
Pr40 O65 2.437 . S
Pr40 O68 2.436 . S
Pr40 O70 2.438 1_545 S
Pr41 C51 2.880 . S
Pr41 O62 2.436 1_565 S
Pr41 O64 2.438 1_565 S
Pr41 O66 2.562 . S
Pr41 O67 2.490 . S
Pr41 O68 2.695 1_565 S
Pr41 O69 2.512 . S
Pr41 O71 2.437 . S
C42 Pr40 2.880 . S
C42 C43 1.491 . S
C42 O60 1.254 . S
C42 O61 1.225 . S
C43 C42 1.491 . S
C43 C44 1.392 . S
C43 C48 1.356 . S
C44 C43 1.392 . S
C44 C45 1.368 . S
C44 H72 0.929 . S
C45 C44 1.368 . S
C45 C46 1.386 . S
C45 H73 0.929 . S
C46 C45 1.386 . S
C46 C47 1.373 . S
C47 C46 1.373 . S
C47 C48 1.409 . S
C47 H74 0.931 . S
C48 C43 1.356 . S
C48 C47 1.409 . S
C48 H75 0.930 . S
C49 O62 1.270 . S
C49 O63 1.248 . S
C50 O64 1.267 . S
C50 O65 1.278 . S
C51 Pr41 2.880 . S
C51 C52 1.491 . S
C51 O66 1.254 . S
C51 O67 1.225 . S
C52 C51 1.491 . S
C52 C53 1.392 . S
C52 C57 1.356 . S
C53 C52 1.392 . S
C53 C54 1.368 . S
C53 H76 0.929 . S
C54 C53 1.368 . S
C54 C55 1.386 . S
C54 H77 0.929 . S
C55 C54 1.386 . S
C55 C56 1.373 . S
C56 C55 1.373 . S
C56 C57 1.409 . S
C56 H78 0.931 . S
C57 C52 1.356 . S
C57 C56 1.409 . S
C57 H79 0.930 . S
C58 O68 1.270 . S
C58 O69 1.248 1_545 S
C59 O70 1.267 . S
C59 O71 1.278 . S
O60 Pr40 2.562 . S
O60 C42 1.254 . S
O61 Pr40 2.490 . S
O61 C42 1.225 . S
O62 Pr40 2.695 . S
O62 Pr41 2.436 1_545 S
O62 C49 1.270 . S
O63 Pr40 2.512 . S
O63 C49 1.248 . S
O64 Pr41 2.438 1_545 S
O64 C50 1.267 . S
O65 Pr40 2.437 . S
O65 C50 1.278 . S
O66 Pr41 2.562 . S
O66 C51 1.254 . S
O67 Pr41 2.490 . S
O67 C51 1.225 . S
O68 Pr40 2.436 . S
O68 Pr41 2.695 1_545 S
O68 C58 1.270 . S
O69 Pr41 2.512 . S
O69 C58 1.248 1_565 S
O70 Pr40 2.438 1_565 S
O70 C59 1.267 . S
O71 Pr41 2.437 . S
O71 C59 1.278 . S
H72 C44 0.929 . S
H73 C45 0.929 . S
H74 C47 0.931 . S
H75 C48 0.930 . S
H76 C53 0.929 . S
H77 C54 0.929 . S
H78 C56 0.931 . S
H79 C57 0.930 . S
Pr80 C82 2.880 . S
Pr80 O100 2.562 . S
Pr80 O101 2.490 . S
Pr80 O102 2.695 . S
Pr80 O103 2.512 . S
Pr80 O105 2.437 . S
Pr80 O108 2.436 . S
Pr80 O110 2.438 . S
Pr81 C91 2.880 . S
Pr81 O102 2.436 . S
Pr81 O104 2.438 . S
Pr81 O106 2.562 . S
Pr81 O107 2.490 . S
Pr81 O108 2.695 . S
Pr81 O109 2.512 . S
Pr81 O111 2.437 . S
C82 Pr80 2.880 . S
C82 C83 1.491 . S
C82 O100 1.254 . S
C82 O101 1.225 . S
C83 C82 1.491 . S
C83 C84 1.392 . S
C83 C88 1.356 . S
C84 C83 1.392 . S
C84 C85 1.368 . S
C84 H112 0.929 . S
C85 C84 1.368 . S
C85 C86 1.386 . S
C85 H113 0.929 . S
C86 C85 1.386 . S
C86 C87 1.373 . S
C87 C86 1.373 . S
C87 C88 1.409 . S
C87 H114 0.931 . S
C88 C83 1.356 . S
C88 C87 1.409 . S
C88 H115 0.930 . S
C89 O102 1.270 . S
C89 O103 1.248 . S
C90 O104 1.267 . S
C90 O105 1.278 . S
C91 Pr81 2.880 . S
C91 C92 1.491 . S
C91 O106 1.254 . S
C91 O107 1.225 . S
C92 C91 1.491 . S
C92 C93 1.392 . S
C92 C97 1.356 . S
C93 C92 1.392 . S
C93 C94 1.368 . S
C93 H116 0.929 . S
C94 C93 1.368 . S
C94 C95 1.386 . S
C94 H117 0.929 . S
C95 C94 1.386 . S
C95 C96 1.373 . S
C96 C95 1.373 . S
C96 C97 1.409 . S
C96 H118 0.931 . S
C97 C92 1.356 . S
C97 C96 1.409 . S
C97 H119 0.930 . S
C98 O108 1.270 . S
C98 O109 1.248 . S
C99 O110 1.267 . S
C99 O111 1.278 . S
O100 Pr80 2.562 . S
O100 C82 1.254 . S
O101 Pr80 2.490 . S
O101 C82 1.225 . S
O102 Pr80 2.695 . S
O102 Pr81 2.436 . S
O102 C89 1.270 . S
O103 Pr80 2.512 . S
O103 C89 1.248 . S
O104 Pr81 2.438 . S
O104 C90 1.267 . S
O105 Pr80 2.437 . S
O105 C90 1.278 . S
O106 Pr81 2.562 . S
O106 C91 1.254 . S
O107 Pr81 2.490 . S
O107 C91 1.225 . S
O108 Pr80 2.436 . S
O108 Pr81 2.695 . S
O108 C98 1.270 . S
O109 Pr81 2.512 . S
O109 C98 1.248 . S
O110 Pr80 2.438 . S
O110 C99 1.267 . S
O111 Pr81 2.437 . S
O111 C99 1.278 . S
H112 C84 0.929 . S
H113 C85 0.929 . S
H114 C87 0.931 . S
H115 C88 0.930 . S
H116 C93 0.929 . S
H117 C94 0.929 . S
H118 C96 0.931 . S
H119 C97 0.930 . S
H120 C138 0.951 . S
H121 C140 0.951 . S
H122 C142 0.950 . S
H123 C143 0.950 . S
H124 C145 0.950 . S
H125 C148 0.950 . S
H126 C149 0.950 . S
H127 C151 0.950 . S
H128 C152 0.950 . S
H129 C153 0.951 . S
H130 C155 0.951 . S
H131 C157 0.950 . S
H132 C158 0.950 . S
H133 C160 0.950 . S
H134 C163 0.950 . S
H135 C164 0.950 . S
H136 C166 0.950 . S
H137 C167 0.950 . S
C138 H120 0.951 . S
C138 C139 1.366 . S
C138 C140 1.388 . S
C139 C138 1.366 . S
C139 C143 1.385 . S
C140 H121 0.951 . S
C140 C138 1.388 . S
C140 C141 1.366 . S
C141 C140 1.366 . S
C141 C142 1.414 . S
C141 C144 1.499 . S
C142 H122 0.950 . S
C142 C141 1.414 . S
C142 C143 1.374 . S
C143 H123 0.950 . S
C143 C139 1.385 . S
C143 C142 1.374 . S
C144 C141 1.499 . S
C144 C145 1.373 . S
C144 C146 1.389 1_554 S
C145 H124 0.950 . S
C145 C144 1.373 . S
C145 C161 1.377 . S
C146 C144 1.389 1_556 S
C146 C147 1.524 . S
C146 C160 1.377 . S
C147 C146 1.524 . S
C147 C148 1.397 . S
C147 C152 1.363 . S
C148 H125 0.950 . S
C148 C147 1.397 . S
C148 C149 1.334 . S
C149 H126 0.950 . S
C149 C148 1.334 . S
C149 C150 1.287 . S
C150 C149 1.287 . S
C150 C151 1.524 . S
C150 H169 0.913 . S
C151 H127 0.950 . S
C151 C150 1.524 . S
C151 C152 1.415 . S
C152 H128 0.950 . S
C152 C147 1.363 . S
C152 C151 1.415 . S
C153 H129 0.951 . S
C153 C154 1.366 . S
C153 C155 1.388 . S
C154 C153 1.366 . S
C154 C158 1.385 . S
C155 H130 0.951 . S
C155 C153 1.388 . S
C155 C156 1.366 . S
C156 C155 1.366 . S
C156 C157 1.414 . S
C156 C159 1.499 . S
C157 H131 0.950 . S
C157 C156 1.414 . S
C157 C158 1.374 . S
C158 H132 0.950 . S
C158 C154 1.385 . S
C158 C157 1.374 . S
C159 C156 1.499 . S
C159 C160 1.373 . S
C159 C161 1.389 1_556 S
C160 H133 0.950 . S
C160 C146 1.377 . S
C160 C159 1.373 . S
C161 C145 1.377 . S
C161 C159 1.389 1_554 S
C161 C162 1.524 . S
C162 C161 1.524 . S
C162 C163 1.397 . S
C162 C167 1.363 . S
C163 H134 0.950 . S
C163 C162 1.397 . S
C163 C164 1.334 . S
C164 H135 0.950 . S
C164 C163 1.334 . S
C164 C165 1.287 . S
C165 C164 1.287 . S
C165 C166 1.524 . S
C165 H168 0.999 . S
C166 H136 0.950 . S
C166 C165 1.524 . S
C166 C167 1.415 . S
C167 H137 0.950 . S
C167 C162 1.363 . S
C167 C166 1.415 . S
H168 C165 0.999 . S
H169 C150 0.913 . S
H170 C188 0.951 . S
H171 C190 0.951 . S
H172 C192 0.950 . S
H173 C193 0.950 . S
H174 C195 0.950 . S
H175 C198 0.950 . S
H176 C199 0.950 . S
H177 C201 0.950 . S
H178 C202 0.950 . S
H179 C203 0.951 . S
H180 C205 0.951 . S
H181 C207 0.950 . S
H182 C208 0.950 . S
H183 C210 0.950 . S
H184 C213 0.950 . S
H185 C214 0.950 . S
H186 C216 0.950 . S
H187 C217 0.950 . S
C188 H170 0.951 . S
C188 C189 1.366 . S
C188 C190 1.388 . S
C189 C188 1.366 . S
C189 C193 1.385 . S
C190 H171 0.951 . S
C190 C188 1.388 . S
C190 C191 1.366 . S
C191 C190 1.366 . S
C191 C192 1.414 . S
C191 C194 1.499 . S
C192 H172 0.950 . S
C192 C191 1.414 . S
C192 C193 1.374 . S
C193 H173 0.950 . S
C193 C189 1.385 . S
C193 C192 1.374 . S
C194 C191 1.499 . S
C194 C195 1.373 . S
C194 C196 1.389 . S
C195 H174 0.950 . S
C195 C194 1.373 . S
C195 C211 1.377 . S
C196 C194 1.389 . S
C196 C197 1.524 . S
C196 C210 1.377 . S
C197 C196 1.524 . S
C197 C198 1.397 . S
C197 C202 1.363 . S
C198 H175 0.950 . S
C198 C197 1.397 . S
C198 C199 1.334 . S
C199 H176 0.950 . S
C199 C198 1.334 . S
C199 C200 1.287 . S
C200 C199 1.287 . S
C200 C201 1.524 . S
C200 H219 0.913 . S
C201 H177 0.950 . S
C201 C200 1.524 . S
C201 C202 1.415 . S
C202 H178 0.950 . S
C202 C197 1.363 . S
C202 C201 1.415 . S
C203 H179 0.951 . S
C203 C204 1.366 . S
C203 C205 1.388 . S
C204 C203 1.366 . S
C204 C208 1.385 . S
C205 H180 0.951 . S
C205 C203 1.388 . S
C205 C206 1.366 . S
C206 C205 1.366 . S
C206 C207 1.414 . S
C206 C209 1.499 . S
C207 H181 0.950 . S
C207 C206 1.414 . S
C207 C208 1.374 . S
C208 H182 0.950 . S
C208 C204 1.385 . S
C208 C207 1.374 . S
C209 C206 1.499 . S
C209 C210 1.373 . S
C209 C211 1.389 . S
C210 H183 0.950 . S
C210 C196 1.377 . S
C210 C209 1.373 . S
C211 C195 1.377 . S
C211 C209 1.389 . S
C211 C212 1.524 . S
C212 C211 1.524 . S
C212 C213 1.397 . S
C212 C217 1.363 . S
C213 H184 0.950 . S
C213 C212 1.397 . S
C213 C214 1.334 . S
C214 H185 0.950 . S
C214 C213 1.334 . S
C214 C215 1.287 . S
C215 C214 1.287 . S
C215 C216 1.524 . S
C215 H218 0.999 . S
C216 H186 0.950 . S
C216 C215 1.524 . S
C216 C217 1.415 . S
C217 H187 0.950 . S
C217 C212 1.363 . S
C217 C216 1.415 . S
H218 C215 0.999 . S
H219 C200 0.913 . S
H220 C238 0.951 . S
H221 C240 0.951 . S
H222 C242 0.950 . S
H223 C243 0.950 . S
H224 C245 0.950 . S
H225 C248 0.950 . S
H226 C249 0.950 . S
H227 C251 0.950 . S
H228 C252 0.950 . S
H229 C253 0.951 . S
H230 C255 0.951 . S
H231 C257 0.950 . S
H232 C258 0.950 . S
H233 C260 0.950 . S
H234 C263 0.950 . S
H235 C264 0.950 . S
H236 C266 0.950 . S
H237 C267 0.950 . S
C238 H220 0.951 . S
C238 C239 1.366 . S
C238 C240 1.388 . S
C239 C238 1.366 . S
C239 C243 1.385 . S
C240 H221 0.951 . S
C240 C238 1.388 . S
C240 C241 1.366 . S
C241 C240 1.366 . S
C241 C242 1.414 . S
C241 C244 1.499 . S
C242 H222 0.950 . S
C242 C241 1.414 . S
C242 C243 1.374 . S
C243 H223 0.950 . S
C243 C239 1.385 . S
C243 C242 1.374 . S
C244 C241 1.499 . S
C244 C245 1.373 . S
C244 C246 1.389 . S
C245 H224 0.950 . S
C245 C244 1.373 . S
C245 C261 1.377 . S
C246 C244 1.389 . S
C246 C247 1.524 . S
C246 C260 1.377 . S
C247 C246 1.524 . S
C247 C248 1.397 . S
C247 C252 1.363 . S
C248 H225 0.950 . S
C248 C247 1.397 . S
C248 C249 1.334 . S
C249 H226 0.950 . S
C249 C248 1.334 . S
C249 C250 1.287 . S
C250 C249 1.287 . S
C250 C251 1.524 . S
C250 H269 0.913 . S
C251 H227 0.950 . S
C251 C250 1.524 . S
C251 C252 1.415 . S
C252 H228 0.950 . S
C252 C247 1.363 . S
C252 C251 1.415 . S
C253 H229 0.951 . S
C253 C254 1.366 . S
C253 C255 1.388 . S
C254 C253 1.366 . S
C254 C258 1.385 . S
C255 H230 0.951 . S
C255 C253 1.388 . S
C255 C256 1.366 . S
C256 C255 1.366 . S
C256 C257 1.414 . S
C256 C259 1.499 . S
C257 H231 0.950 . S
C257 C256 1.414 . S
C257 C258 1.374 . S
C258 H232 0.950 . S
C258 C254 1.385 . S
C258 C257 1.374 . S
C259 C256 1.499 . S
C259 C260 1.373 . S
C259 C261 1.389 . S
C260 H233 0.950 . S
C260 C246 1.377 . S
C260 C259 1.373 . S
C261 C245 1.377 . S
C261 C259 1.389 . S
C261 C262 1.524 . S
C262 C261 1.524 . S
C262 C263 1.397 . S
C262 C267 1.363 . S
C263 H234 0.950 . S
C263 C262 1.397 . S
C263 C264 1.334 . S
C264 H235 0.950 . S
C264 C263 1.334 . S
C264 C265 1.287 . S
C265 C264 1.287 . S
C265 C266 1.524 . S
C265 H268 0.999 . S
C266 H236 0.950 . S
C266 C265 1.524 . S
C266 C267 1.415 . S
C267 H237 0.950 . S
C267 C262 1.363 . S
C267 C266 1.415 . S
H268 C265 0.999 . S
H269 C250 0.913 . S
H270 C288 0.951 . S
H271 C290 0.951 . S
H272 C292 0.950 . S
H273 C293 0.950 . S
H274 C295 0.950 . S
H275 C298 0.950 . S
H276 C299 0.950 . S
H277 C301 0.950 . S
H278 C302 0.950 . S
H279 C303 0.951 . S
H280 C305 0.951 . S
H281 C307 0.950 . S
H282 C308 0.950 . S
H283 C310 0.950 . S
H284 C313 0.950 . S
H285 C314 0.950 . S
H286 C316 0.950 . S
H287 C317 0.950 . S
C288 H270 0.951 . S
C288 C289 1.366 . S
C288 C290 1.388 . S
C289 C288 1.366 . S
C289 C293 1.385 . S
C290 H271 0.951 . S
C290 C288 1.388 . S
C290 C291 1.366 . S
C291 C290 1.366 . S
C291 C292 1.414 . S
C291 C294 1.499 . S
C292 H272 0.950 . S
C292 C291 1.414 . S
C292 C293 1.374 . S
C293 H273 0.950 . S
C293 C289 1.385 . S
C293 C292 1.374 . S
C294 C291 1.499 . S
C294 C295 1.373 . S
C294 C296 1.389 1_556 S
C295 H274 0.950 . S
C295 C294 1.373 . S
C295 C311 1.377 . S
C296 C294 1.389 1_554 S
C296 C297 1.524 . S
C296 C310 1.377 . S
C297 C296 1.524 . S
C297 C298 1.397 . S
C297 C302 1.363 . S
C298 H275 0.950 . S
C298 C297 1.397 . S
C298 C299 1.334 . S
C299 H276 0.950 . S
C299 C298 1.334 . S
C299 C300 1.287 . S
C300 C299 1.287 . S
C300 C301 1.524 . S
C300 H319 0.913 . S
C301 H277 0.950 . S
C301 C300 1.524 . S
C301 C302 1.415 . S
C302 H278 0.950 . S
C302 C297 1.363 . S
C302 C301 1.415 . S
C303 H279 0.951 . S
C303 C304 1.366 . S
C303 C305 1.388 . S
C304 C303 1.366 . S
C304 C308 1.385 . S
C305 H280 0.951 . S
C305 C303 1.388 . S
C305 C306 1.366 . S
C306 C305 1.366 . S
C306 C307 1.414 . S
C306 C309 1.499 . S
C307 H281 0.950 . S
C307 C306 1.414 . S
C307 C308 1.374 . S
C308 H282 0.950 . S
C308 C304 1.385 . S
C308 C307 1.374 . S
C309 C306 1.499 . S
C309 C310 1.373 . S
C309 C311 1.389 1_554 S
C310 H283 0.950 . S
C310 C296 1.377 . S
C310 C309 1.373 . S
C311 C295 1.377 . S
C311 C309 1.389 1_556 S
C311 C312 1.524 . S
C312 C311 1.524 . S
C312 C313 1.397 . S
C312 C317 1.363 . S
C313 H284 0.950 . S
C313 C312 1.397 . S
C313 C314 1.334 . S
C314 H285 0.950 . S
C314 C313 1.334 . S
C314 C315 1.287 . S
C315 C314 1.287 . S
C315 C316 1.524 . S
C315 H318 0.999 . S
C316 H286 0.950 . S
C316 C315 1.524 . S
C316 C317 1.415 . S
C317 H287 0.950 . S
C317 C312 1.363 . S
C317 C316 1.415 . S
H318 C315 0.999 . S
H319 C300 0.913 . S
H320 C338 0.951 . S
H321 C340 0.951 . S
H322 C342 0.950 . S
H323 C343 0.950 . S
H324 C345 0.950 . S
H325 C348 0.950 . S
H326 C349 0.950 . S
H327 C351 0.950 . S
H328 C352 0.950 . S
H329 C353 0.951 . S
H330 C355 0.951 . S
H331 C357 0.950 . S
H332 C358 0.950 . S
H333 C360 0.950 . S
H334 C363 0.950 . S
H335 C364 0.950 . S
H336 C366 0.950 . S
H337 C367 0.950 . S
C338 H320 0.951 . S
C338 C339 1.366 . S
C338 C340 1.388 . S
C339 C338 1.366 . S
C339 C343 1.385 . S
C340 H321 0.951 . S
C340 C338 1.388 . S
C340 C341 1.366 . S
C341 C340 1.366 . S
C341 C342 1.414 . S
C341 C344 1.499 . S
C342 H322 0.950 . S
C342 C341 1.414 . S
C342 C343 1.374 . S
C343 H323 0.950 . S
C343 C339 1.385 . S
C343 C342 1.374 . S
C344 C341 1.499 . S
C344 C345 1.373 . S
C344 C346 1.389 . S
C345 H324 0.950 . S
C345 C344 1.373 . S
C345 C361 1.377 . S
C346 C344 1.389 . S
C346 C347 1.524 . S
C346 C360 1.377 . S
C347 C346 1.524 . S
C347 C348 1.397 . S
C347 C352 1.363 . S
C348 H325 0.950 . S
C348 C347 1.397 . S
C348 C349 1.334 . S
C349 H326 0.950 . S
C349 C348 1.334 . S
C349 C350 1.287 . S
C350 C349 1.287 . S
C350 C351 1.524 . S
C350 H369 0.913 . S
C351 H327 0.950 . S
C351 C350 1.524 . S
C351 C352 1.415 . S
C352 H328 0.950 . S
C352 C347 1.363 . S
C352 C351 1.415 . S
C353 H329 0.951 . S
C353 C354 1.366 . S
C353 C355 1.388 . S
C354 C353 1.366 . S
C354 C358 1.385 . S
C355 H330 0.951 . S
C355 C353 1.388 . S
C355 C356 1.366 . S
C356 C355 1.366 . S
C356 C357 1.414 . S
C356 C359 1.499 . S
C357 H331 0.950 . S
C357 C356 1.414 . S
C357 C358 1.374 . S
C358 H332 0.950 . S
C358 C354 1.385 . S
C358 C357 1.374 . S
C359 C356 1.499 . S
C359 C360 1.373 . S
C359 C361 1.389 . S
C360 H333 0.950 . S
C360 C346 1.377 . S
C360 C359 1.373 . S
C361 C345 1.377 . S
C361 C359 1.389 . S
C361 C362 1.524 . S
C362 C361 1.524 . S
C362 C363 1.397 . S
C362 C367 1.363 . S
C363 H334 0.950 . S
C363 C362 1.397 . S
C363 C364 1.334 . S
C364 H335 0.950 . S
C364 C363 1.334 . S
C364 C365 1.287 . S
C365 C364 1.287 . S
C365 C366 1.524 . S
C365 H368 0.999 . S
C366 H336 0.950 . S
C366 C365 1.524 . S
C366 C367 1.415 . S
C367 H337 0.950 . S
C367 C362 1.363 . S
C367 C366 1.415 . S
H368 C365 0.999 . S
H369 C350 0.913 . S
H370 C388 0.951 . S
H371 C390 0.951 . S
H372 C392 0.950 . S
H373 C393 0.950 . S
H374 C395 0.950 . S
H375 C398 0.950 . S
H376 C399 0.950 . S
H377 C401 0.950 . S
H378 C402 0.950 . S
H379 C403 0.951 . S
H380 C405 0.951 . S
H381 C407 0.950 . S
H382 C408 0.950 . S
H383 C410 0.950 . S
H384 C413 0.950 . S
H385 C414 0.950 . S
H386 C416 0.950 . S
H387 C417 0.950 . S
C388 H370 0.951 . S
C388 C389 1.366 . S
C388 C390 1.388 . S
C389 C388 1.366 . S
C389 C393 1.385 . S
C390 H371 0.951 . S
C390 C388 1.388 . S
C390 C391 1.366 . S
C391 C390 1.366 . S
C391 C392 1.414 . S
C391 C394 1.499 . S
C392 H372 0.950 . S
C392 C391 1.414 . S
C392 C393 1.374 . S
C393 H373 0.950 . S
C393 C389 1.385 . S
C393 C392 1.374 . S
C394 C391 1.499 . S
C394 C395 1.373 . S
C394 C396 1.389 . S
C395 H374 0.950 . S
C395 C394 1.373 . S
C395 C411 1.377 . S
C396 C394 1.389 . S
C396 C397 1.524 . S
C396 C410 1.377 . S
C397 C396 1.524 . S
C397 C398 1.397 . S
C397 C402 1.363 . S
C398 H375 0.950 . S
C398 C397 1.397 . S
C398 C399 1.334 . S
C399 H376 0.950 . S
C399 C398 1.334 . S
C399 C400 1.287 . S
C400 C399 1.287 . S
C400 C401 1.524 . S
C400 H419 0.913 . S
C401 H377 0.950 . S
C401 C400 1.524 . S
C401 C402 1.415 . S
C402 H378 0.950 . S
C402 C397 1.363 . S
C402 C401 1.415 . S
C403 H379 0.951 . S
C403 C404 1.366 . S
C403 C405 1.388 . S
C404 C403 1.366 . S
C404 C408 1.385 . S
C405 H380 0.951 . S
C405 C403 1.388 . S
C405 C406 1.366 . S
C406 C405 1.366 . S
C406 C407 1.414 . S
C406 C409 1.499 . S
C407 H381 0.950 . S
C407 C406 1.414 . S
C407 C408 1.374 . S
C408 H382 0.950 . S
C408 C404 1.385 . S
C408 C407 1.374 . S
C409 C406 1.499 . S
C409 C410 1.373 . S
C409 C411 1.389 . S
C410 H383 0.950 . S
C410 C396 1.377 . S
C410 C409 1.373 . S
C411 C395 1.377 . S
C411 C409 1.389 . S
C411 C412 1.524 . S
C412 C411 1.524 . S
C412 C413 1.397 . S
C412 C417 1.363 . S
C413 H384 0.950 . S
C413 C412 1.397 . S
C413 C414 1.334 . S
C414 H385 0.950 . S
C414 C413 1.334 . S
C414 C415 1.287 . S
C415 C414 1.287 . S
C415 C416 1.524 . S
C415 H418 0.999 . S
C416 H386 0.950 . S
C416 C415 1.524 . S
C416 C417 1.415 . S
C417 H387 0.950 . S
C417 C412 1.363 . S
C417 C416 1.415 . S
H418 C415 0.999 . S
H419 C400 0.913 . S
H420 C438 0.951 . S
H421 C440 0.951 . S
H422 C442 0.950 . S
H423 C443 0.950 . S
H424 C445 0.950 . S
H425 C448 0.950 . S
H426 C449 0.950 . S
H427 C451 0.950 . S
H428 C452 0.950 1_455 S
H429 C453 0.951 . S
H430 C455 0.951 . S
H431 C457 0.950 . S
H432 C458 0.950 . S
H433 C460 0.969 . S
H434 C463 0.950 . S
H435 C464 0.950 . S
H436 C466 0.950 . S
H437 C467 0.950 . S
C438 H420 0.951 . S
C438 C439 1.366 . S
C438 C440 1.388 . S
C439 C438 1.366 . S
C439 C443 1.385 . S
C440 H421 0.951 . S
C440 C438 1.388 . S
C440 C441 1.366 . S
C441 C440 1.366 . S
C441 C442 1.414 . S
C441 C444 1.499 . S
C442 H422 0.950 . S
C442 C441 1.414 . S
C442 C443 1.374 . S
C443 H423 0.950 . S
C443 C439 1.385 . S
C443 C442 1.374 . S
C444 C441 1.499 . S
C444 C445 1.373 . S
C444 C446 1.389 . S
C445 H424 0.950 . S
C445 C444 1.373 . S
C445 C461 1.377 . S
C446 C444 1.389 . S
C446 C447 1.524 1_455 S
C446 C460 1.377 . S
C447 C446 1.524 1_655 S
C447 C448 1.397 . S
C447 C452 1.363 . S
C448 H425 0.950 . S
C448 C447 1.397 . S
C448 C449 1.334 . S
C449 H426 0.950 . S
C449 C448 1.334 . S
C449 C450 1.287 . S
C450 C449 1.287 . S
C450 C451 1.524 . S
C450 H469 0.913 . S
C451 H427 0.950 . S
C451 C450 1.524 . S
C451 C452 1.415 . S
C452 H428 0.950 1_655 S
C452 C447 1.363 . S
C452 C451 1.415 . S
C453 H429 0.951 . S
C453 C454 1.366 . S
C453 C455 1.388 . S
C454 C453 1.366 . S
C454 C458 1.385 . S
C455 H430 0.951 . S
C455 C453 1.388 . S
C455 C456 1.366 . S
C456 C455 1.366 . S
C456 C457 1.414 . S
C456 C459 1.499 . S
C457 H431 0.950 . S
C457 C456 1.414 . S
C457 C458 1.374 . S
C458 H432 0.950 . S
C458 C454 1.385 . S
C458 C457 1.374 . S
C459 C456 1.499 . S
C459 C460 1.373 . S
C459 C461 1.389 . S
C460 H433 0.969 . S
C460 C446 1.377 . S
C460 C459 1.373 . S
C461 C445 1.377 . S
C461 C459 1.389 . S
C461 C462 1.524 . S
C462 C461 1.524 . S
C462 C463 1.397 . S
C462 C467 1.363 . S
C463 H434 0.950 . S
C463 C462 1.397 . S
C463 C464 1.334 . S
C464 H435 0.950 . S
C464 C463 1.334 . S
C464 C465 1.287 . S
C465 C464 1.287 . S
C465 C466 1.524 . S
C465 H468 0.999 . S
C466 H436 0.950 . S
C466 C465 1.524 . S
C466 C467 1.415 . S
C467 H437 0.950 . S
C467 C462 1.363 . S
C467 C466 1.415 . S
H468 C465 0.999 . S
H469 C450 0.913 . S
H470 C488 0.951 . S
H471 C490 0.951 . S
H472 C492 0.950 . S
H473 C493 0.950 . S
H474 C495 0.950 . S
H475 C498 0.950 . S
H476 C499 0.950 . S
H477 C501 0.950 . S
H478 C502 0.950 . S
H479 C503 0.951 . S
H480 C505 0.951 . S
H481 C507 0.950 . S
H482 C508 0.950 . S
H483 C510 0.950 . S
H484 C513 0.950 . S
H485 C514 0.950 . S
H486 C516 0.950 . S
H487 C517 0.950 . S
C488 H470 0.951 . S
C488 C489 1.366 . S
C488 C490 1.388 . S
C489 C488 1.366 . S
C489 C493 1.385 1_545 S
C490 H471 0.951 . S
C490 C488 1.388 . S
C490 C491 1.366 . S
C491 C490 1.366 . S
C491 C492 1.414 1_545 S
C491 C494 1.499 . S
C492 H472 0.950 . S
C492 C491 1.414 1_565 S
C492 C493 1.374 . S
C493 H473 0.950 . S
C493 C489 1.385 1_565 S
C493 C492 1.374 . S
C494 C491 1.499 . S
C494 C495 1.373 1_545 S
C494 C496 1.389 . S
C495 H474 0.950 . S
C495 C494 1.373 1_565 S
C495 C511 1.377 1_554 S
C496 C494 1.389 . S
C496 C497 1.524 . S
C496 C510 1.377 1_554 S
C497 C496 1.524 . S
C497 C498 1.397 . S
C497 C502 1.363 . S
C498 H475 0.950 . S
C498 C497 1.397 . S
C498 C499 1.334 . S
C499 H476 0.950 . S
C499 C498 1.334 . S
C499 C500 1.287 . S
C500 C499 1.287 . S
C500 C501 1.524 . S
C500 H519 0.913 . S
C501 H477 0.950 . S
C501 C500 1.524 . S
C501 C502 1.415 . S
C502 H478 0.950 . S
C502 C497 1.363 . S
C502 C501 1.415 . S
C503 H479 0.951 . S
C503 C504 1.366 1_565 S
C503 C505 1.388 . S
C504 C503 1.366 1_545 S
C504 C508 1.385 . S
C505 H480 0.951 . S
C505 C503 1.388 . S
C505 C506 1.366 1_565 S
C506 C505 1.366 1_545 S
C506 C507 1.414 . S
C506 C509 1.499 . S
C507 H481 0.950 . S
C507 C506 1.414 . S
C507 C508 1.374 . S
C508 H482 0.950 . S
C508 C504 1.385 . S
C508 C507 1.374 . S
C509 C506 1.499 . S
C509 C510 1.373 . S
C509 C511 1.389 1_545 S
C510 H483 0.950 . S
C510 C496 1.377 1_556 S
C510 C509 1.373 . S
C511 C495 1.377 1_556 S
C511 C509 1.389 1_565 S
C511 C512 1.524 . S
C512 C511 1.524 . S
C512 C513 1.397 . S
C512 C517 1.363 . S
C513 H484 0.950 . S
C513 C512 1.397 . S
C513 C514 1.334 . S
C514 H485 0.950 . S
C514 C513 1.334 . S
C514 C515 1.287 . S
C515 C514 1.287 . S
C515 C516 1.524 . S
C515 H518 0.999 . S
C516 H486 0.950 . S
C516 C515 1.524 . S
C516 C517 1.415 . S
C517 H487 0.950 . S
C517 C512 1.363 . S
C517 C516 1.415 . S
H518 C515 0.999 . S
H519 C500 0.913 . S
H520 C538 0.951 . S
H521 C540 0.951 . S
H522 C542 0.950 . S
H523 C543 0.950 . S
H524 C545 0.950 . S
H525 C548 0.950 . S
H526 C549 0.950 . S
H527 C551 0.950 . S
H528 C552 0.950 . S
H529 C553 0.951 . S
H530 C555 0.951 . S
H531 C557 0.950 . S
H532 C558 0.950 . S
H533 C560 0.950 . S
H534 C563 0.950 . S
H535 C564 0.950 . S
H536 C566 0.950 . S
H537 C567 0.950 . S
C538 H520 0.951 . S
C538 C539 1.366 . S
C538 C540 1.388 . S
C539 C538 1.366 . S
C539 C543 1.385 . S
C540 H521 0.951 . S
C540 C538 1.388 . S
C540 C541 1.366 . S
C541 C540 1.366 . S
C541 C542 1.414 . S
C541 C544 1.499 . S
C542 H522 0.950 . S
C542 C541 1.414 . S
C542 C543 1.374 . S
C543 H523 0.950 . S
C543 C539 1.385 . S
C543 C542 1.374 . S
C544 C541 1.499 . S
C544 C545 1.373 . S
C544 C546 1.389 . S
C545 H524 0.950 . S
C545 C544 1.373 . S
C545 C561 1.377 . S
C546 C544 1.389 . S
C546 C547 1.524 . S
C546 C560 1.377 . S
C547 C546 1.524 . S
C547 C548 1.397 . S
C547 C552 1.363 . S
C548 H525 0.950 . S
C548 C547 1.397 . S
C548 C549 1.334 . S
C549 H526 0.950 . S
C549 C548 1.334 . S
C549 C550 1.287 . S
C550 C549 1.287 . S
C550 C551 1.524 . S
C550 H569 0.913 . S
C551 H527 0.950 . S
C551 C550 1.524 . S
C551 C552 1.415 . S
C552 H528 0.950 . S
C552 C547 1.363 . S
C552 C551 1.415 . S
C553 H529 0.951 . S
C553 C554 1.366 . S
C553 C555 1.388 . S
C554 C553 1.366 . S
C554 C558 1.385 . S
C555 H530 0.951 . S
C555 C553 1.388 . S
C555 C556 1.366 . S
C556 C555 1.366 . S
C556 C557 1.414 . S
C556 C559 1.499 . S
C557 H531 0.950 . S
C557 C556 1.414 . S
C557 C558 1.374 . S
C558 H532 0.950 . S
C558 C554 1.385 . S
C558 C557 1.374 . S
C559 C556 1.499 . S
C559 C560 1.373 . S
C559 C561 1.389 . S
C560 H533 0.950 . S
C560 C546 1.377 . S
C560 C559 1.373 . S
C561 C545 1.377 . S
C561 C559 1.389 . S
C561 C562 1.524 . S
C562 C561 1.524 . S
C562 C563 1.397 . S
C562 C567 1.363 . S
C563 H534 0.950 . S
C563 C562 1.397 . S
C563 C564 1.334 . S
C564 H535 0.950 . S
C564 C563 1.334 . S
C564 C565 1.287 . S
C565 C564 1.287 . S
C565 C566 1.524 . S
C565 H568 0.999 . S
C566 H536 0.950 . S
C566 C565 1.524 . S
C566 C567 1.415 . S
C567 H537 0.950 . S
C567 C562 1.363 . S
C567 C566 1.415 . S
H568 C565 0.999 . S
H569 C550 0.913 . S
C139 C19 3.078 . S
C154 C99 3.045 . S
C189 C46 1.576 . S
C204 C6 1.575 . S
C239 C59 2.512 . S
C254 C95 2.415 . S
C289 C90 2.712 . S
C304 C10 2.737 . S
C339 C55 1.491 . S
C354 C15 1.485 . S
C389 C86 2.208 . S
C404 C50 2.178 . S
C439 C9 0.391 . S
C454 C18 0.391 . S
C489 C58 0.384 . S
C504 C49 0.384 . S
C539 C98 0.420 . S
C554 C89 0.420 1_554 S
