# Generated by pormake.
# Topology mok, (4)-cn, num edge types: 1
# Building blocks:
#     Node 0, Type 0, BuildingBlock: QUQFOY_clean_sbu_3, # of connection points: 4
#     Node 1, Type 0, BuildingBlock: QUQFOY_clean_sbu_3, # of connection points: 4
#     Node 2, Type 0, BuildingBlock: QUQFOY_clean_sbu_3, # of connection points: 4
#     Node 3, Type 0, BuildingBlock: QUQFOY_clean_sbu_3, # of connection points: 4
#     Node 4, Type 0, BuildingBlock: QUQFOY_clean_sbu_3, # of connection points: 4
#     Node 5, Type 0, BuildingBlock: QUQFOY_clean_sbu_3, # of connection points: 4
#     Node 6, Type 0, BuildingBlock: QUQFOY_clean_sbu_3, # of connection points: 4
#     Node 7, Type 0, BuildingBlock: QUQFOY_clean_sbu_3, # of connection points: 4
#     Edge 8, Type (0, 0), BuildingBlock: ZUJKAS_clean_linker_0, # of connection points: 2
#     Edge 9, Type (0, 0), BuildingBlock: ZUJKAS_clean_linker_0, # of connection points: 2
#     Edge 10, Type (0, 0), BuildingBlock: ZUJKAS_clean_linker_0, # of connection points: 2
#     Edge 11, Type (0, 0), BuildingBlock: ZUJKAS_clean_linker_0, # of connection points: 2
#     Edge 12, Type (0, 0), BuildingBlock: ZUJKAS_clean_linker_0, # of connection points: 2
#     Edge 13, Type (0, 0), BuildingBlock: ZUJKAS_clean_linker_0, # of connection points: 2
#     Edge 14, Type (0, 0), BuildingBlock: ZUJKAS_clean_linker_0, # of connection points: 2
#     Edge 15, Type (0, 0), BuildingBlock: ZUJKAS_clean_linker_0, # of connection points: 2
#     Edge 16, Type (0, 0), BuildingBlock: ZUJKAS_clean_linker_0, # of connection points: 2
#     Edge 17, Type (0, 0), BuildingBlock: ZUJKAS_clean_linker_0, # of connection points: 2
#     Edge 18, Type (0, 0), BuildingBlock: ZUJKAS_clean_linker_0, # of connection points: 2
#     Edge 19, Type (0, 0), BuildingBlock: ZUJKAS_clean_linker_0, # of connection points: 2
#     Edge 20, Type (0, 0), BuildingBlock: ZUJKAS_clean_linker_0, # of connection points: 2
#     Edge 21, Type (0, 0), BuildingBlock: ZUJKAS_clean_linker_0, # of connection points: 2
#     Edge 22, Type (0, 0), BuildingBlock: ZUJKAS_clean_linker_0, # of connection points: 2
#     Edge 23, Type (0, 0), BuildingBlock: ZUJKAS_clean_linker_0, # of connection points: 2
# Relax obj value: 0.013
# Max RMSD: 0.033
# Mean RMSD: 0.033
data_MOF--net-mok--node1-QUQFOY_clean_sbu_3--edge1-ZUJKAS_clean_linker_0
_symmetry_space_group_name_H-M    P1
_symmetry_Int_Tables_number       1
_symmetry_cell_setting            triclinic
loop_
_symmetry_equiv_pos_as_xyz
'x, y, z'
_cell_length_a     70.848733
_cell_length_b     20.904598
_cell_length_c     36.218948
_cell_angle_alpha  90.064289
_cell_angle_beta   89.933507
_cell_angle_gamma 90.045622
loop_
_atom_site_label
_atom_site_type_symbol
_atom_site_fract_x
_atom_site_fract_y
_atom_site_fract_z
_atom_type_partial_charge
C0 C 0.60235 0.45044 0.04965 0.0
O1 O 0.60684 0.48512 0.02226 0.0
Cd2 Cd 0.6119 0.43898 0.96226 0.0
O3 O 0.59956 0.39069 0.04551 0.0
Cd4 Cd 0.59861 0.30553 -0.00137 0.0
C5 C 0.6456 0.32628 0.9855 0.0
O6 O 0.5858 0.36997 0.94919 0.0
O7 O 0.59572 0.27623 0.93337 0.0
O8 O 0.56904 0.27521 0.02683 0.0
C9 C 0.58779 0.32815 0.92411 0.0
O10 O 0.641 0.37824 0.96952 0.0
C11 C 0.57299 0.21655 0.03116 0.0
O12 O 0.63309 0.29064 0.00033 0.0
O13 O 0.58939 0.19865 0.02119 0.0
C14 C 0.38919 0.55663 0.06434 0.0
O15 O 0.38476 0.52041 0.03756 0.0
Cd16 Cd 0.38014 0.56336 0.97688 0.0
O17 O 0.39208 0.61608 0.05917 0.0
Cd18 Cd 0.39346 0.69876 0.01096 0.0
C19 C 0.34656 0.67848 -0.00234 0.0
O20 O 0.40673 0.6302 0.96391 0.0
O21 O 0.39693 0.72202 0.94488 0.0
O22 O 0.42239 0.7276 0.04184 0.0
C23 C 0.40507 0.6695 0.93753 0.0
O24 O 0.35119 0.62563 0.98262 0.0
C25 C 0.41949 0.78742 0.04258 0.0
O26 O 0.35903 0.71469 0.01218 0.0
O27 O 0.40387 0.80696 0.02942 0.0
C28 C 0.61196 0.58264 0.43354 0.0
O29 O 0.61699 0.53346 0.45157 0.0
Cd30 Cd 0.61984 0.53235 0.51754 0.0
O31 O 0.60745 0.63401 0.45027 0.0
Cd32 Cd 0.60388 0.6769 0.51335 0.0
C33 C 0.65087 0.65883 0.52779 0.0
O34 O 0.59137 0.57871 0.54057 0.0
O35 O 0.59764 0.65604 0.57818 0.0
O36 O 0.57594 0.72392 0.48605 0.0
C37 C 0.59109 0.60026 0.5733 0.0
O38 O 0.64732 0.59918 0.52968 0.0
C39 C 0.57751 0.77792 0.50175 0.0
O40 O 0.63782 0.69889 0.52048 0.0
O41 O 0.59186 0.78623 0.52225 0.0
C42 C 0.38793 0.412 0.44829 0.0
O43 O 0.38371 0.45985 0.46829 0.0
Cd44 Cd 0.37933 0.45172 0.53364 0.0
O45 O 0.39106 0.35759 0.4628 0.0
Cd46 Cd 0.39307 0.30473 0.52349 0.0
C47 C 0.34613 0.32966 0.53321 0.0
O48 O 0.4062 0.39579 0.55655 0.0
O49 O 0.39687 0.31633 0.58989 0.0
O50 O 0.42104 0.25912 0.49564 0.0
C51 C 0.40468 0.37083 0.58829 0.0
O52 O 0.35057 0.38802 0.53857 0.0
C53 C 0.4188 0.20317 0.50842 0.0
O54 O 0.35874 0.28808 0.5256 0.0
O55 O 0.40407 0.19321 0.5277 0.0
C56 C 0.10156 0.93285 0.06381 0.0
O57 O 0.10693 0.96983 0.0381 0.0
Cd58 Cd 0.1127 0.92838 0.97754 0.0
O59 O 0.0993 0.87326 0.05812 0.0
Cd60 Cd 0.10122 0.79066 0.00992 0.0
C61 C 0.14785 0.82002 -7e-05 0.0
O62 O 0.08707 0.85746 0.96333 0.0
O63 O 0.10004 0.77057 0.94338 0.0
O64 O 0.07282 0.75602 0.04062 0.0
C65 C 0.09013 0.81965 0.93666 0.0
O66 O 0.14253 0.8716 0.9844 0.0
C67 C 0.07612 0.69653 0.03897 0.0
O68 O 0.13582 0.78167 0.01402 0.0
O69 O 0.09172 0.67969 0.02451 0.0
C70 C 0.88608 0.06508 0.07017 0.0
O71 O 0.88235 0.02528 0.04473 0.0
Cd72 Cd 0.87848 0.06145 0.9825 0.0
O73 O 0.88859 0.12394 0.06268 0.0
Cd74 Cd 0.8901 0.19915 0.01061 0.0
C75 C 0.8437 0.17534 -0.00356 0.0
O76 O 0.90535 0.12665 0.96764 0.0
O77 O 0.8931 0.21175 0.94381 0.0
O78 O 0.91802 0.23363 0.04293 0.0
C79 C 0.90325 0.16233 0.9397 0.0
O80 O 0.84887 0.12137 0.98356 0.0
C81 C 0.91553 0.29317 0.03865 0.0
O82 O 0.85574 0.21381 0.01033 0.0
O83 O 0.90053 0.31025 0.02207 0.0
C84 C 0.10572 0.06913 0.44838 0.0
O85 O 0.11155 0.02432 0.46902 0.0
Cd86 Cd 0.11669 0.03962 0.53365 0.0
O87 O 0.10211 0.12424 0.46153 0.0
Cd88 Cd 0.10199 0.18291 0.52043 0.0
C89 C 0.14916 0.16281 0.52804 0.0
O90 O 0.08985 0.09556 0.55751 0.0
O91 O 0.10107 0.17648 0.58749 0.0
O92 O 0.07213 0.22164 0.49782 0.0
C93 C 0.0925 0.12324 0.5882 0.0
O94 O 0.14511 0.10495 0.5357 0.0
C95 C 0.07481 0.28011 0.50549 0.0
O96 O 0.13626 0.20255 0.51929 0.0
O97 O 0.09067 0.29472 0.51966 0.0
C98 C 0.88804 0.92749 0.45629 0.0
O99 O 0.88429 0.97374 0.47781 0.0
Cd100 Cd 0.88045 0.95727 0.54281 0.0
O101 O 0.89093 0.87171 0.46911 0.0
Cd102 Cd 0.89314 0.81406 0.52809 0.0
C103 C 0.84647 0.83847 0.53984 0.0
O104 O 0.90733 0.89901 0.56469 0.0
O105 O 0.89555 0.81931 0.59495 0.0
O106 O 0.92197 0.77225 0.50211 0.0
C107 C 0.90504 0.87076 0.59533 0.0
O108 O 0.85118 0.89594 0.54715 0.0
C109 C 0.91891 0.71409 0.50999 0.0
O110 O 0.85886 0.79746 0.5302 0.0
O111 O 0.90332 0.70123 0.52582 0.0
H112 H 0.81465 0.10365 0.96917 0.0
H113 H 0.78114 0.12977 0.96841 0.0
H114 H 0.79284 0.31053 0.02107 0.0
H115 H 0.82659 0.28456 0.02239 0.0
H116 H 0.76206 0.24206 0.05237 0.0
H117 H 0.75594 0.26086 0.90001 0.0
H118 H 0.76625 0.18732 0.91569 0.0
H119 H 0.77839 0.26165 0.92352 0.0
C120 C 0.81019 0.14915 0.98052 0.0
C121 C 0.82338 0.1922 -0.00433 0.0
C122 C 0.791 0.16404 0.97991 0.0
C123 C 0.78456 0.2224 -0.0058 0.0
C124 C 0.79758 0.26532 0.00974 0.0
H125 H 0.67545 0.39285 0.95736 0.0
H126 H 0.70886 0.36661 0.96118 0.0
C127 C 0.81685 0.25047 0.01037 0.0
C128 C 0.76419 0.23809 -0.00689 0.0
H129 H 0.72728 0.26032 0.93404 0.0
C130 C 0.75444 0.24631 0.02654 0.0
C131 C 0.75435 0.24406 0.95934 0.0
C132 C 0.76427 0.23862 0.92257 0.0
C133 C 0.735 0.25956 0.02708 0.0
C134 C 0.72507 0.26378 -0.0067 0.0
C135 C 0.73489 0.25631 0.9599 0.0
C136 C 0.70466 0.27896 -0.00823 0.0
C137 C 0.72533 0.27014 0.06372 0.0
C138 C 0.69113 0.23793 0.00742 0.0
C139 C 0.67189 0.25282 0.00534 0.0
C140 C 0.66587 0.30886 0.98739 0.0
C141 C 0.67952 0.34932 0.97145 0.0
C142 C 0.69867 0.33445 0.97358 0.0
H143 H 0.73563 0.27995 0.08615 0.0
H144 H 0.71526 0.31072 0.0621 0.0
H145 H 0.71726 0.22654 0.07123 0.0
H146 H 0.69545 0.19418 0.02098 0.0
H147 H 0.66176 0.22052 0.01779 0.0
H148 H 0.16541 0.71359 0.02854 0.0
H149 H 0.1994 0.69166 0.03042 0.0
H150 H 0.21053 0.87285 0.9779 0.0
H151 H 0.17682 0.89477 0.97537 0.0
H152 H 0.22957 0.7735 0.94543 0.0
H153 H 0.23965 0.77158 0.09745 0.0
H154 H 0.2216 0.71832 0.08101 0.0
H155 H 0.21868 0.80323 0.0759 0.0
C156 C 0.1751 0.74885 0.01753 0.0
C157 C 0.16835 0.80593 0.00181 0.0
C158 C 0.19452 0.73644 0.01886 0.0
C159 C 0.20749 0.78106 0.00475 0.0
C160 C 0.20077 0.83789 0.98908 0.0
H161 H 0.33023 0.78455 0.0295 0.0
H162 H 0.29654 0.81178 0.03127 0.0
C163 C 0.18145 0.85027 0.98766 0.0
C164 C 0.22805 0.76787 0.00472 0.0
H165 H 0.26584 0.73921 0.06082 0.0
C166 C 0.23751 0.76615 0.97067 0.0
C167 C 0.23841 0.75927 0.03772 0.0
C168 C 0.22914 0.76373 0.07515 0.0
C169 C 0.257 0.75501 0.96863 0.0
C170 C 0.26725 0.74425 0.00152 0.0
C171 C 0.25789 0.74712 0.03566 0.0
C172 C 0.28759 0.72803 0.00079 0.0
C173 C 0.26648 0.75548 0.93129 0.0
C174 C 0.29363 0.6717 0.98345 0.0
C175 C 0.31276 0.65613 0.98231 0.0
C176 C 0.32631 0.69641 -0.00128 0.0
C177 C 0.3202 0.75265 0.01644 0.0
C178 C 0.30097 0.76819 0.01758 0.0
H179 H 0.25788 0.78123 0.91041 0.0
H180 H 0.28062 0.77828 0.93281 0.0
H181 H 0.26834 0.7055 0.92162 0.0
H182 H 0.2835 0.6395 0.9709 0.0
H183 H 0.31688 0.61223 0.96861 0.0
H184 H 0.8307 0.71908 0.532 0.0
H185 H 0.79703 0.69153 0.53279 0.0
H186 H 0.78291 0.88934 0.55176 0.0
H187 H 0.81634 0.91749 0.5512 0.0
H188 H 0.76874 0.72466 0.59398 0.0
H189 H 0.75296 0.82871 0.45595 0.0
H190 H 0.77648 0.80472 0.4693 0.0
H191 H 0.76648 0.87698 0.48751 0.0
C192 C 0.82044 0.7567 0.53642 0.0
C193 C 0.82624 0.82052 0.54141 0.0
C194 C 0.80124 0.74085 0.53691 0.0
C195 C 0.78757 0.78859 0.54199 0.0
C196 C 0.79328 0.85202 0.54745 0.0
H197 H 0.66451 0.7821 0.52863 0.0
H198 H 0.69747 0.81613 0.53509 0.0
C199 C 0.81242 0.86787 0.54723 0.0
C200 C 0.76727 0.77235 0.54147 0.0
H201 H 0.72724 0.78817 0.49 0.0
C202 C 0.75963 0.73836 0.57128 0.0
C203 C 0.75548 0.79115 0.51199 0.0
C204 C 0.76318 0.82711 0.47917 0.0
C205 C 0.74036 0.72271 0.57245 0.0
C206 C 0.7286 0.74016 0.54252 0.0
C207 C 0.73626 0.77492 0.51293 0.0
C208 C 0.70855 0.72012 0.54045 0.0
C209 C 0.73276 0.68855 0.60601 0.0
C210 C 0.70387 0.65497 0.54103 0.0
C211 C 0.68513 0.63545 0.53756 0.0
C212 C 0.67061 0.68067 0.53293 0.0
C213 C 0.67532 0.74605 0.53225 0.0
C214 C 0.69414 0.76557 0.53591 0.0
H215 H 0.74176 0.69716 0.63063 0.0
H216 H 0.71813 0.70402 0.61247 0.0
H217 H 0.73262 0.63628 0.60064 0.0
H218 H 0.71479 0.61896 0.54348 0.0
H219 H 0.6821 0.58467 0.53792 0.0
H220 H 0.18 0.08608 0.53569 0.0
H221 H 0.21314 0.11739 0.53688 0.0
H222 H 0.19734 0.31502 0.52327 0.0
H223 H 0.16389 0.2842 0.52189 0.0
H224 H 0.23296 0.19258 0.4782 0.0
H225 H 0.23296 0.30477 0.61777 0.0
H226 H 0.21525 0.24746 0.60374 0.0
H227 H 0.21452 0.32762 0.58625 0.0
C228 C 0.18348 0.13633 0.53304 0.0
C229 C 0.16924 0.18272 0.52879 0.0
C230 C 0.20245 0.15401 0.53366 0.0
C231 C 0.20762 0.2184 0.53043 0.0
C232 C 0.19355 0.26505 0.52613 0.0
H233 H 0.31579 0.409 0.54047 0.0
H234 H 0.28244 0.38079 0.53922 0.0
C235 C 0.17448 0.24735 0.52523 0.0
C236 C 0.22781 0.23609 0.53111 0.0
H237 H 0.26156 0.30654 0.58457 0.0
C238 C 0.23927 0.21759 0.50138 0.0
C239 C 0.23587 0.26862 0.56143 0.0
C240 C 0.22412 0.28813 0.59432 0.0
C241 C 0.25865 0.23152 0.50092 0.0
C242 C 0.26683 0.26323 0.53154 0.0
C243 C 0.25529 0.28193 0.56122 0.0
C244 C 0.28722 0.27918 0.5329 0.0
C245 C 0.27006 0.2135 0.46727 0.0
C246 C 0.30105 0.23122 0.53039 0.0
C247 C 0.32024 0.24722 0.53081 0.0
C248 C 0.32591 0.31144 0.53425 0.0
C249 C 0.31198 0.35904 0.53774 0.0
C250 C 0.29286 0.34305 0.53705 0.0
H251 H 0.26093 0.20596 0.44272 0.0
H252 H 0.28065 0.25097 0.46062 0.0
H253 H 0.27767 0.16813 0.47274 0.0
H254 H 0.29701 0.18141 0.52809 0.0
H255 H 0.33059 0.20937 0.52835 0.0
H256 H 0.61324 0.57028 0.07224 0.0
H257 H 0.61384 0.61138 0.1357 0.0
H258 H 0.58959 0.43472 0.1748 0.0
H259 H 0.58883 0.39339 0.11187 0.0
H260 H 0.57381 0.55145 0.20626 0.0
H261 H 0.65232 0.53707 0.21248 0.0
H262 H 0.64204 0.58106 0.17485 0.0
H263 H 0.63881 0.49607 0.17745 0.0
C264 C 0.60784 0.5405 0.09431 0.0
C265 C 0.60116 0.47833 0.08708 0.0
C266 C 0.60826 0.56398 0.13048 0.0
C267 C 0.60195 0.52569 0.15978 0.0
C268 C 0.59455 0.46484 0.15246 0.0
H269 H 0.62202 0.48355 0.3883 0.0
H270 H 0.6196 0.4787 0.32107 0.0
C271 C 0.5942 0.44126 0.11648 0.0
C272 C 0.60389 0.54677 0.19847 0.0
H273 H 0.63641 0.56478 0.2671 0.0
C274 C 0.58747 0.55544 0.21955 0.0
C275 C 0.62178 0.55114 0.21554 0.0
C276 C 0.6398 0.54055 0.19414 0.0
C277 C 0.58846 0.56659 0.25769 0.0
C278 C 0.60634 0.56945 0.27489 0.0
C279 C 0.62276 0.56271 0.25362 0.0
C280 C 0.60824 0.57419 0.31536 0.0
C281 C 0.57041 0.57224 0.27961 0.0
C282 C 0.60284 0.62984 0.33416 0.0
C283 C 0.60419 0.63284 0.3726 0.0
C284 C 0.61099 0.58015 0.39278 0.0
C285 C 0.61666 0.52485 0.37365 0.0
C286 C 0.61533 0.52202 0.33526 0.0
H287 H 0.55781 0.55908 0.26302 0.0
H288 H 0.57095 0.54112 0.30441 0.0
H289 H 0.56869 0.62236 0.28916 0.0
H290 H 0.59753 0.67082 0.31913 0.0
H291 H 0.59978 0.67626 0.38646 0.0
H292 H 0.37882 0.43752 0.08885 0.0
H293 H 0.37967 0.39805 0.15258 0.0
H294 H 0.40369 0.57713 0.18854 0.0
H295 H 0.40296 0.61697 0.12532 0.0
H296 H 0.42124 0.45911 0.2176 0.0
H297 H 0.34309 0.47304 0.23413 0.0
H298 H 0.35222 0.43054 0.19471 0.0
H299 H 0.35543 0.51545 0.19802 0.0
C300 C 0.38441 0.46828 0.11029 0.0
C301 C 0.39068 0.53056 0.1021 0.0
C302 C 0.38484 0.44571 0.1466 0.0
C303 C 0.3916 0.48501 0.17506 0.0
C304 C 0.3984 0.54626 0.16682 0.0
H305 H 0.37902 0.51727 0.40717 0.0
H306 H 0.38029 0.52799 0.34003 0.0
C307 C 0.3979 0.56896 0.1307 0.0
C308 C 0.39096 0.46406 0.21387 0.0
H309 H 0.36077 0.44426 0.28638 0.0
C310 C 0.40805 0.45491 0.23264 0.0
C311 C 0.37368 0.45942 0.23318 0.0
C312 C 0.35501 0.4704 0.21422 0.0
C313 C 0.40831 0.44253 0.27067 0.0
C314 C 0.39104 0.43915 0.2901 0.0
C315 C 0.37395 0.4468 0.27116 0.0
C316 C 0.39046 0.43184 0.33053 0.0
C317 C 0.42702 0.4357 0.29014 0.0
C318 C 0.39571 0.37408 0.34715 0.0
C319 C 0.39498 0.36768 0.38549 0.0
C320 C 0.38899 0.41906 0.40776 0.0
C321 C 0.38375 0.47688 0.39086 0.0
C322 C 0.38442 0.48308 0.35254 0.0
H323 H 0.4391 0.44864 0.27204 0.0
H324 H 0.42739 0.46641 0.31517 0.0
H325 H 0.42884 0.38537 0.29915 0.0
H326 H 0.40024 0.33389 0.33044 0.0
H327 H 0.39908 0.32245 0.39763 0.0
H328 H 0.39942 0.73853 0.87438 0.0
H329 H 0.40401 0.70185 0.81072 0.0
H330 H 0.42589 0.52251 0.85083 0.0
H331 H 0.42151 0.55874 0.91441 0.0
H332 H 0.44535 0.57616 0.78645 0.0
H333 H 0.36712 0.56068 0.77251 0.0
H334 H 0.37668 0.63665 0.78649 0.0
H335 H 0.37856 0.569 0.81673 0.0
C336 C 0.40546 0.69165 0.86962 0.0
C337 C 0.40984 0.65107 0.89933 0.0
C338 C 0.40807 0.67087 0.8333 0.0
C339 C 0.41507 0.60932 0.82627 0.0
C340 C 0.42046 0.5702 0.85582 0.0
H341 H 0.40012 0.33188 0.65945 0.0
H342 H 0.40485 0.39509 0.71544 0.0
C343 C 0.41785 0.59085 0.89209 0.0
C344 C 0.41504 0.58275 0.78854 0.0
H345 H 0.38531 0.52476 0.72249 0.0
C346 C 0.43227 0.56566 0.77213 0.0
C347 C 0.39788 0.56863 0.77034 0.0
C348 C 0.37897 0.58417 0.78737 0.0
C349 C 0.43275 0.53357 0.73806 0.0
C350 C 0.41558 0.51839 0.72038 0.0
C351 C 0.39841 0.53687 0.73632 0.0
C352 C 0.41489 0.47907 0.68666 0.0
C353 C 0.45145 0.51377 0.72177 0.0
C354 C 0.41922 0.50553 0.65215 0.0
C355 C 0.41645 0.46964 0.62002 0.0
C356 C 0.40928 0.40695 0.62211 0.0
C357 C 0.40559 0.38008 0.65692 0.0
C358 C 0.40831 0.416 0.68891 0.0
H359 H 0.46349 0.52572 0.74016 0.0
H360 H 0.45147 0.46146 0.7164 0.0
H361 H 0.45355 0.53825 0.6949 0.0
H362 H 0.42416 0.55444 0.65004 0.0
H363 H 0.41944 0.49154 0.59356 0.0
H364 H 0.58758 0.24524 0.86564 0.0
H365 H 0.58199 0.27111 0.80059 0.0
H366 H 0.57223 0.46836 0.83009 0.0
H367 H 0.57721 0.44262 0.89502 0.0
H368 H 0.54755 0.4258 0.77698 0.0
H369 H 0.62171 0.36357 0.74033 0.0
H370 H 0.60793 0.30038 0.76038 0.0
H371 H 0.61384 0.36953 0.78755 0.0
C372 C 0.58409 0.294 0.85822 0.0
C373 C 0.58306 0.34212 0.88531 0.0
C374 C 0.58096 0.30869 0.82109 0.0
C375 C 0.57706 0.37186 0.8105 0.0
C376 C 0.57527 0.41932 0.83769 0.0
H377 H 0.58301 0.64047 0.64288 0.0
H378 H 0.57588 0.57441 0.69667 0.0
C379 C 0.57819 0.40458 0.87477 0.0
C380 C 0.57594 0.39022 0.77114 0.0
H381 H 0.60308 0.40898 0.694 0.0
C382 C 0.55958 0.42125 0.75862 0.0
C383 C 0.59165 0.38399 0.74721 0.0
C384 C 0.60985 0.35303 0.75947 0.0
C385 C 0.55886 0.44897 0.72342 0.0
C386 C 0.57491 0.44562 0.70038 0.0
C387 C 0.5908 0.41114 0.71188 0.0
C388 C 0.5766 0.48483 0.66671 0.0
C389 C 0.54121 0.48353 0.71158 0.0
C390 C 0.57937 0.45612 0.63211 0.0
C391 C 0.58338 0.49385 0.60122 0.0
C392 C 0.58506 0.5606 0.60479 0.0
C393 C 0.58186 0.58914 0.63935 0.0
C394 C 0.57763 0.55156 0.67002 0.0
H395 H 0.52865 0.46666 0.7272 0.0
H396 H 0.54294 0.53548 0.71697 0.0
H397 H 0.5386 0.47694 0.68158 0.0
H398 H 0.57884 0.40456 0.62924 0.0
H399 H 0.58585 0.47062 0.57491 0.0
H400 H 0.07365 0.89924 0.111 0.0
H401 H 0.06982 0.93299 0.1752 0.0
H402 H 0.11953 0.05165 0.16547 0.0
H403 H 0.12248 0.02145 0.10047 0.0
H404 H 0.09131 0.90748 0.22801 0.0
H405 H 0.08769 0.1707 0.22185 0.0
H406 H 0.08576 0.12175 0.181 0.0
H407 H 0.10862 0.14344 0.19905 0.0
C408 C 0.08345 0.93374 0.12247 0.0
C409 C 0.09831 0.95807 0.10106 0.0
C410 C 0.08129 0.95293 0.15909 0.0
C411 C 0.09425 0.99551 0.17519 0.0
C412 C 0.10897 0.02051 0.15348 0.0
H413 H 0.12477 0.98503 0.40475 0.0
H414 H 0.12087 0.96825 0.33843 0.0
C415 C 0.11077 0.00284 0.11646 0.0
C416 C 0.09351 0.00811 0.21544 0.0
H417 H 0.09749 0.12571 0.28028 0.0
C418 C 0.09233 0.9554 0.23936 0.0
C419 C 0.09453 0.07055 0.23046 0.0
C420 C 0.09399 0.12973 0.20666 0.0
C421 C 0.0927 0.96314 0.27773 0.0
C422 C 0.09533 0.02506 0.29264 0.0
C423 C 0.09585 0.07805 0.26884 0.0
C424 C 0.09786 0.03582 0.33274 0.0
C425 C 0.09002 0.90476 0.30169 0.0
C426 C 0.08684 0.08149 0.35127 0.0
C427 C 0.08949 0.09261 0.3889 0.0
C428 C 0.103 0.0575 0.4087 0.0
C429 C 0.11405 0.01194 0.39018 0.0
C430 C 0.11172 0.002 0.35238 0.0
H431 H 0.08156 0.86761 0.28726 0.0
H432 H 0.104 0.88357 0.30799 0.0
H433 H 0.08285 0.91682 0.32807 0.0
H434 H 0.07614 0.1084 0.33666 0.0
H435 H 0.08079 0.12804 0.40261 0.0
H436 H 0.87766 0.0345 0.41793 0.0
H437 H 0.87791 0.04933 0.3509 0.0
H438 H 0.90018 0.85904 0.33656 0.0
H439 H 0.89999 0.84347 0.40345 0.0
H440 H 0.9191 0.96363 0.29563 0.0
H441 H 0.84122 0.95356 0.27724 0.0
H442 H 0.84958 0.00616 0.31302 0.0
H443 H 0.85295 0.92141 0.31742 0.0
C444 C 0.88265 0.99583 0.40055 0.0
C445 C 0.88873 0.93772 0.41598 0.0
C446 C 0.8827 0.0043 0.36233 0.0
C447 C 0.88886 0.95495 0.33903 0.0
C448 C 0.89528 0.89742 0.35426 0.0
H449 H 0.87598 0.94892 0.09914 0.0
H450 H 0.87756 0.91594 0.16402 0.0
C451 C 0.89513 0.8887 0.39243 0.0
C452 C 0.88875 0.96369 0.29869 0.0
H453 H 0.85936 0.98578 0.22532 0.0
C454 C 0.90608 0.96804 0.28013 0.0
C455 C 0.87169 0.9685 0.27875 0.0
C456 C 0.85276 0.96169 0.29745 0.0
C457 C 0.90677 0.97948 0.24203 0.0
C458 C 0.88972 0.98688 0.22235 0.0
C459 C 0.87239 0.98026 0.24069 0.0
C460 C 0.88955 0.00521 0.1831 0.0
C461 C 0.9257 0.98413 0.22311 0.0
C462 C 0.89566 0.06632 0.17274 0.0
C463 C 0.89466 0.08544 0.13596 0.0
C464 C 0.88755 0.04364 0.10888 0.0
C465 C 0.88159 0.98208 0.11935 0.0
C466 C 0.88246 0.96318 0.1563 0.0
H467 H 0.93714 0.96283 0.24007 0.0
H468 H 0.92537 0.95975 0.19586 0.0
H469 H 0.92917 0.03525 0.21836 0.0
H470 H 0.90093 0.09962 0.19324 0.0
H471 H 0.8994 0.13314 0.12882 0.0
H472 H 0.93275 0.95987 0.60525 0.0
H473 H 0.94216 0.01092 0.66336 0.0
H474 H 0.89967 0.90169 0.72119 0.0
H475 H 0.89107 0.84828 0.6639 0.0
H476 H 0.9241 0.08634 0.70528 0.0
H477 H 0.94163 0.87845 0.79087 0.0
H478 H 0.93841 0.87142 0.74162 0.0
H479 H 0.91847 0.86598 0.77261 0.0
C480 C 0.92568 0.94616 0.63057 0.0
C481 C 0.91127 0.89996 0.63024 0.0
C482 C 0.93106 0.97524 0.6637 0.0
C483 C 0.92195 0.9591 0.69688 0.0
C484 C 0.90746 0.91317 0.69633 0.0
H485 H 0.88749 0.18785 0.87304 0.0
H486 H 0.89683 0.14442 0.81332 0.0
C487 C 0.90239 0.88313 0.66346 0.0
C488 C 0.92617 0.994 0.73156 0.0
H489 H 0.92883 0.97103 0.82441 0.0
C490 C 0.92562 0.06115 0.73127 0.0
C491 C 0.9289 0.96171 0.76543 0.0
C492 C 0.93213 0.89045 0.76749 0.0
C493 C 0.92599 0.09639 0.76421 0.0
C494 C 0.92599 0.0634 0.79833 0.0
C495 C 0.9283 0.99665 0.79841 0.0
C496 C 0.92172 0.09573 0.83387 0.0
C497 C 0.92609 0.16845 0.7619 0.0
C498 C 0.93223 0.08161 0.86572 0.0
C499 C 0.92641 0.1043 0.90017 0.0
C500 C 0.91022 0.1426 0.90321 0.0
C501 C 0.90016 0.15899 0.8713 0.0
C502 C 0.90565 0.13477 0.83704 0.0
H503 H 0.93424 0.18469 0.73741 0.0
H504 H 0.91141 0.18589 0.75847 0.0
H505 H 0.9323 0.19066 0.78696 0.0
H506 H 0.94464 0.05145 0.86409 0.0
H507 H 0.93443 0.09132 0.92448 0.0
H508 H 0.11038 0.79603 0.8744 0.0
H509 H 0.10518 0.84242 0.81335 0.0
H510 H 0.05346 0.92874 0.85212 0.0
H511 H 0.05939 0.88605 0.91398 0.0
H512 H 0.08006 0.83813 0.76134 0.0
H513 H 0.08062 0.08413 0.81935 0.0
H514 H 0.08596 0.01494 0.84693 0.0
H515 H 0.06181 0.0356 0.83699 0.0
C516 C 0.09783 0.82443 0.86971 0.0
C517 C 0.08543 0.83856 0.89879 0.0
C518 C 0.09484 0.85084 0.83486 0.0
C519 C 0.07921 0.89066 0.82846 0.0
C520 C 0.06598 0.90023 0.8568 0.0
H521 H 0.06567 0.03247 0.60079 0.0
H522 H 0.05936 0.97622 0.65883 0.0
C523 C 0.06928 0.87546 0.89196 0.0
C524 C 0.07761 0.92509 0.79289 0.0
H525 H 0.07573 0.07463 0.7555 0.0
C526 C 0.07906 0.88986 0.75999 0.0
C527 C 0.0765 0.9927 0.79127 0.0
C528 C 0.07633 0.03412 0.82549 0.0
C529 C 0.08016 0.92036 0.72559 0.0
C530 C 0.07889 0.9879 0.72401 0.0
C531 C 0.07663 0.02287 0.75679 0.0
C532 C 0.08161 0.02397 0.68924 0.0
C533 C 0.08372 0.88 0.69168 0.0
C534 C 0.09553 0.07177 0.68758 0.0
C535 C 0.09869 0.10533 0.65495 0.0
C536 C 0.08822 0.09084 0.62319 0.0
C537 C 0.07408 0.04383 0.62489 0.0
C538 C 0.07058 0.01135 0.65789 0.0
H539 H 0.08936 0.83205 0.69892 0.0
H540 H 0.07023 0.87277 0.67671 0.0
H541 H 0.09388 0.90367 0.67274 0.0
H542 H 0.1042 0.08247 0.71143 0.0
H543 H 0.10971 0.14128 0.6543 0.0
H544 H 0.45396 0.75615 0.07029 0.0
H545 H 0.4806 0.82763 0.08142 0.0
H546 H 0.44597 0.99007 0.05378 0.0
H547 H 0.4191 0.9187 0.04234 0.0
H548 H 0.49316 0.90952 0.02025 0.0
H549 H 0.47703 0.04441 0.14888 0.0
H550 H 0.467 0.96665 0.13908 0.0
H551 H 0.45817 0.03624 0.11592 0.0
C552 C 0.45184 0.80719 0.06728 0.0
C553 C 0.43445 0.83177 0.05509 0.0
C554 C 0.4671 0.8479 0.07375 0.0
C555 C 0.46519 0.91396 0.0686 0.0
C556 C 0.4476 0.93918 0.05839 0.0
H557 H 0.5359 0.24103 0.04459 0.0
H558 H 0.51101 0.16411 0.05824 0.0
C559 C 0.43231 0.89836 0.05171 0.0
C560 C 0.48216 0.95511 0.06897 0.0
H561 H 0.50299 0.08086 0.11312 0.0
C562 C 0.49547 0.94659 0.04075 0.0
C563 C 0.48494 0.00343 0.09565 0.0
C564 C 0.47113 0.0133 0.12683 0.0
C565 C 0.51124 0.98674 0.0376 0.0
C566 C 0.51406 0.03554 0.06419 0.0
C567 C 0.50089 0.04315 0.09294 0.0
C568 C 0.52969 0.08238 0.06065 0.0
C569 C 0.52416 0.97837 0.00475 0.0
C570 C 0.5486 0.06238 0.05874 0.0
C571 C 0.5629 0.10625 0.05034 0.0
C572 C 0.55853 0.17098 0.04441 0.0
C573 C 0.53975 0.19143 0.04877 0.0
C574 C 0.52548 0.14752 0.0567 0.0
H575 H 0.51745 0.94965 0.98252 0.0
H576 H 0.52835 0.02539 -0.00692 0.0
H577 H 0.53713 0.95294 0.01358 0.0
H578 H 0.55223 0.01254 0.06267 0.0
H579 H 0.57727 0.08924 0.04758 0.0
H580 H 0.57042 0.87891 0.54762 0.0
H581 H 0.54302 0.95013 0.54629 0.0
H582 H 0.52364 0.85883 0.44636 0.0
H583 H 0.55055 0.78584 0.44843 0.0
H584 H 0.53003 0.03615 0.49951 0.0
H585 H 0.47783 0.83965 0.51007 0.0
H586 H 0.5028 0.82678 0.51605 0.0
H587 H 0.49281 0.83152 0.47042 0.0
C588 C 0.56039 0.8744 0.52523 0.0
C589 C 0.56249 0.82643 0.49836 0.0
C590 C 0.54471 0.91498 0.52454 0.0
C591 C 0.53098 0.90861 0.4968 0.0
C592 C 0.53368 0.86316 0.46874 0.0
H593 H 0.44589 0.19954 0.45517 0.0
H594 H 0.47251 0.12571 0.45069 0.0
C595 C 0.54916 0.82191 0.46976 0.0
C596 C 0.51379 0.94913 0.49747 0.0
H597 H 0.46561 0.94308 0.49681 0.0
C598 C 0.51594 0.0158 0.49904 0.0
C599 C 0.49539 0.92249 0.49759 0.0
C600 C 0.49204 0.85119 0.49885 0.0
C601 C 0.50025 0.05662 0.5003 0.0
C602 C 0.48185 0.03009 0.49862 0.0
C603 C 0.47969 0.9634 0.49752 0.0
C604 C 0.46469 0.07074 0.49899 0.0
C605 C 0.50359 0.1276 0.50448 0.0
C606 C 0.45075 0.06178 0.52614 0.0
C607 C 0.43523 0.10293 0.52815 0.0
C608 C 0.43351 0.15402 0.50323 0.0
C609 C 0.44699 0.16104 0.47504 0.0
C610 C 0.46231 0.11926 0.47266 0.0
H611 H 0.51769 0.13778 0.51654 0.0
H612 H 0.50306 0.15051 0.47688 0.0
H613 H 0.49268 0.15001 0.5223 0.0
H614 H 0.4522 0.02424 0.54653 0.0
H615 H 0.42504 0.09647 0.55017 0.0
H616 H 0.04359 0.72115 0.07631 0.0
H617 H 0.01703 0.64887 0.08594 0.0
H618 H 0.04868 0.4947 0.03658 0.0
H619 H 0.0754 0.56724 0.02641 0.0
H620 H 0.01395 0.51652 0.00365 0.0
H621 H 0.00588 0.49967 0.15561 0.0
H622 H 0.00768 0.58033 0.13898 0.0
H623 H 0.02739 0.5269 0.13384 0.0
C624 C 0.04508 0.67152 0.06819 0.0
C625 C 0.06155 0.64993 0.05036 0.0
C626 C 0.02991 0.63015 0.07398 0.0
C627 C 0.03094 0.56635 0.06226 0.0
C628 C 0.04768 0.54379 0.046 0.0
H629 H 0.94674 0.26921 0.08008 0.0
H630 H 0.97408 0.33877 0.08878 0.0
C631 C 0.06293 0.58519 0.04028 0.0
C632 C 0.0138 0.52585 0.06286 0.0
H633 H 0.97956 0.46502 0.11931 0.0
C634 C 0.00651 0.50482 0.02896 0.0
C635 C 0.00415 0.51075 0.09593 0.0
C636 C 0.01174 0.53005 0.1332 0.0
C637 C 0.98965 0.46994 0.02712 0.0
C638 C 0.97966 0.45662 0.06005 0.0
C639 C 0.98711 0.47642 0.09408 0.0
C640 C 0.96199 0.41893 0.0595 0.0
C641 C 0.98277 0.4469 0.98997 0.0
C642 C 0.94586 0.44206 0.04144 0.0
C643 C 0.93015 0.40239 0.0364 0.0
C644 C 0.93042 0.33906 0.04935 0.0
C645 C 0.94616 0.31762 0.0695 0.0
C646 C 0.96179 0.3573 0.0746 0.0
H647 H 0.99402 0.44943 0.9686 0.0
H648 H 0.97763 0.3968 -0.00828 0.0
H649 H 0.97085 0.47738 0.98084 0.0
H650 H 0.9457 0.48994 0.03004 0.0
H651 H 0.91822 0.4203 0.02088 0.0
H652 H 0.07412 0.40601 0.52697 0.0
H653 H 0.04734 0.48004 0.523 0.0
H654 H 0.01433 0.33457 0.46852 0.0
H655 H 0.04094 0.26082 0.47195 0.0
H656 H 0.01048 0.45682 0.43701 0.0
H657 H 0.00021 0.45962 0.58916 0.0
H658 H 0.02348 0.4814 0.5739 0.0
H659 H 0.01497 0.40151 0.56621 0.0
C660 C 0.06122 0.39011 0.5138 0.0
C661 C 0.05958 0.32744 0.50007 0.0
C662 C 0.04592 0.43225 0.51176 0.0
C663 C 0.02878 0.41227 0.49605 0.0
C664 C 0.0274 0.35074 0.48093 0.0
H665 H 0.91892 0.58841 0.5316 0.0
H666 H 0.94482 0.51137 0.52516 0.0
C667 C 0.04263 0.30866 0.48299 0.0
C668 C 0.012 0.45438 0.49637 0.0
H669 H 0.98091 0.529 0.55409 0.0
C670 C 0.00399 0.47268 0.46257 0.0
C671 C 0.00338 0.47376 0.52979 0.0
C672 C 0.0108 0.4527 0.56687 0.0
C673 C 0.98776 0.51105 0.46131 0.0
C674 C 0.9795 0.53214 0.49474 0.0
C675 C 0.98732 0.51285 0.52851 0.0
C676 C 0.96317 0.57625 0.49547 0.0
C677 C 0.97945 0.52805 0.42426 0.0
C678 C 0.9649 0.6379 0.48068 0.0
C679 C 0.95019 0.68179 0.48429 0.0
C680 C 0.93349 0.665 0.50298 0.0
C681 C 0.93158 0.60265 0.51696 0.0
C682 C 0.94636 0.55871 0.51338 0.0
H683 H 0.98404 0.49407 0.40241 0.0
H684 H 0.96379 0.5284 0.42538 0.0
H685 H 0.98431 0.57657 0.41624 0.0
H686 H 0.97788 0.65281 0.46739 0.0
H687 H 0.95214 0.7295 0.47328 0.0
loop_
_geom_bond_atom_site_label_1
_geom_bond_atom_site_label_2
_geom_bond_distance
_geom_bond_site_symmetry_2
_ccdc_geom_bond_type
C0 O1 1.306 . S
C0 O3 1.160 . S
O1 C0 1.306 . S
O1 Cd2 2.228 . S
Cd2 O1 2.228 . S
Cd2 O6 2.273 1_554 S
Cd2 O10 2.277 . S
O3 C0 1.160 . S
O3 Cd4 2.203 . S
Cd4 O3 2.203 . S
Cd4 O6 2.411 1_554 S
Cd4 O7 2.333 1_554 S
Cd4 O8 2.352 . S
Cd4 O12 2.277 . S
Cd4 O13 2.356 . S
C5 O10 1.209 . S
C5 O12 1.226 . S
O6 Cd2 2.273 1_556 S
O6 Cd4 2.411 1_556 S
O6 C9 1.320 . S
O7 Cd4 2.333 1_556 S
O7 C9 1.214 . S
O8 Cd4 2.352 . S
O8 C11 1.258 . S
C9 O6 1.320 . S
C9 O7 1.214 . S
O10 Cd2 2.277 . S
O10 C5 1.209 . S
C11 O8 1.258 . S
C11 O13 1.282 . S
O12 Cd4 2.277 . S
O12 C5 1.226 . S
O13 Cd4 2.356 . S
O13 C11 1.282 . S
C14 O15 1.306 . S
C14 O17 1.160 . S
O15 C14 1.306 . S
O15 Cd16 2.228 . S
Cd16 O15 2.228 . S
Cd16 O20 2.273 1_554 S
Cd16 O24 2.277 . S
O17 C14 1.160 . S
O17 Cd18 2.203 . S
Cd18 O17 2.203 . S
Cd18 O20 2.411 1_554 S
Cd18 O21 2.333 1_554 S
Cd18 O22 2.352 . S
Cd18 O26 2.277 . S
Cd18 O27 2.356 . S
C19 O24 1.209 . S
C19 O26 1.226 . S
O20 Cd16 2.273 1_556 S
O20 Cd18 2.411 1_556 S
O20 C23 1.320 . S
O21 Cd18 2.333 1_556 S
O21 C23 1.214 . S
O22 Cd18 2.352 . S
O22 C25 1.258 . S
C23 O20 1.320 . S
C23 O21 1.214 . S
O24 Cd16 2.277 . S
O24 C19 1.209 . S
C25 O22 1.258 . S
C25 O27 1.282 . S
O26 Cd18 2.277 . S
O26 C19 1.226 . S
O27 Cd18 2.356 . S
O27 C25 1.282 . S
C28 O29 1.306 . S
C28 O31 1.160 . S
O29 C28 1.306 . S
O29 Cd30 2.228 . S
Cd30 O29 2.228 . S
Cd30 O34 2.273 . S
Cd30 O38 2.277 . S
O31 C28 1.160 . S
O31 Cd32 2.203 . S
Cd32 O31 2.203 . S
Cd32 O34 2.411 . S
Cd32 O35 2.333 . S
Cd32 O36 2.352 . S
Cd32 O40 2.277 . S
Cd32 O41 2.356 . S
C33 O38 1.209 . S
C33 O40 1.226 . S
O34 Cd30 2.273 . S
O34 Cd32 2.411 . S
O34 C37 1.320 . S
O35 Cd32 2.333 . S
O35 C37 1.214 . S
O36 Cd32 2.352 . S
O36 C39 1.258 . S
C37 O34 1.320 . S
C37 O35 1.214 . S
O38 Cd30 2.277 . S
O38 C33 1.209 . S
C39 O36 1.258 . S
C39 O41 1.282 . S
O40 Cd32 2.277 . S
O40 C33 1.226 . S
O41 Cd32 2.356 . S
O41 C39 1.282 . S
C42 O43 1.306 . S
C42 O45 1.160 . S
O43 C42 1.306 . S
O43 Cd44 2.228 . S
Cd44 O43 2.228 . S
Cd44 O48 2.273 . S
Cd44 O52 2.277 . S
O45 C42 1.160 . S
O45 Cd46 2.203 . S
Cd46 O45 2.203 . S
Cd46 O48 2.411 . S
Cd46 O49 2.333 . S
Cd46 O50 2.352 . S
Cd46 O54 2.277 . S
Cd46 O55 2.356 . S
C47 O52 1.209 . S
C47 O54 1.226 . S
O48 Cd44 2.273 . S
O48 Cd46 2.411 . S
O48 C51 1.320 . S
O49 Cd46 2.333 . S
O49 C51 1.214 . S
O50 Cd46 2.352 . S
O50 C53 1.258 . S
C51 O48 1.320 . S
C51 O49 1.214 . S
O52 Cd44 2.277 . S
O52 C47 1.209 . S
C53 O50 1.258 . S
C53 O55 1.282 . S
O54 Cd46 2.277 . S
O54 C47 1.226 . S
O55 Cd46 2.356 . S
O55 C53 1.282 . S
C56 O57 1.306 . S
C56 O59 1.160 . S
O57 C56 1.306 . S
O57 Cd58 2.228 . S
Cd58 O57 2.228 . S
Cd58 O62 2.273 1_554 S
Cd58 O66 2.277 . S
O59 C56 1.160 . S
O59 Cd60 2.203 . S
Cd60 O59 2.203 . S
Cd60 O62 2.411 1_554 S
Cd60 O63 2.333 1_554 S
Cd60 O64 2.352 . S
Cd60 O68 2.277 . S
Cd60 O69 2.356 . S
C61 O66 1.209 . S
C61 O68 1.226 . S
O62 Cd58 2.273 1_556 S
O62 Cd60 2.411 1_556 S
O62 C65 1.320 . S
O63 Cd60 2.333 1_556 S
O63 C65 1.214 . S
O64 Cd60 2.352 . S
O64 C67 1.258 . S
C65 O62 1.320 . S
C65 O63 1.214 . S
O66 Cd58 2.277 . S
O66 C61 1.209 . S
C67 O64 1.258 . S
C67 O69 1.282 . S
O68 Cd60 2.277 . S
O68 C61 1.226 . S
O69 Cd60 2.356 . S
O69 C67 1.282 . S
C70 O71 1.306 . S
C70 O73 1.160 . S
O71 C70 1.306 . S
O71 Cd72 2.228 . S
Cd72 O71 2.228 . S
Cd72 O76 2.273 1_554 S
Cd72 O80 2.277 . S
O73 C70 1.160 . S
O73 Cd74 2.203 . S
Cd74 O73 2.203 . S
Cd74 O76 2.411 1_554 S
Cd74 O77 2.333 1_554 S
Cd74 O78 2.352 . S
Cd74 O82 2.277 . S
Cd74 O83 2.356 . S
C75 O80 1.209 . S
C75 O82 1.226 . S
O76 Cd72 2.273 1_556 S
O76 Cd74 2.411 1_556 S
O76 C79 1.320 . S
O77 Cd74 2.333 1_556 S
O77 C79 1.214 . S
O78 Cd74 2.352 . S
O78 C81 1.258 . S
C79 O76 1.320 . S
C79 O77 1.214 . S
O80 Cd72 2.277 . S
O80 C75 1.209 . S
C81 O78 1.258 . S
C81 O83 1.282 . S
O82 Cd74 2.277 . S
O82 C75 1.226 . S
O83 Cd74 2.356 . S
O83 C81 1.282 . S
C84 O85 1.306 . S
C84 O87 1.160 . S
O85 C84 1.306 . S
O85 Cd86 2.228 . S
Cd86 O85 2.228 . S
Cd86 O90 2.273 . S
Cd86 O94 2.277 . S
O87 C84 1.160 . S
O87 Cd88 2.203 . S
Cd88 O87 2.203 . S
Cd88 O90 2.411 . S
Cd88 O91 2.333 . S
Cd88 O92 2.352 . S
Cd88 O96 2.277 . S
Cd88 O97 2.356 . S
C89 O94 1.209 . S
C89 O96 1.226 . S
O90 Cd86 2.273 . S
O90 Cd88 2.411 . S
O90 C93 1.320 . S
O91 Cd88 2.333 . S
O91 C93 1.214 . S
O92 Cd88 2.352 . S
O92 C95 1.258 . S
C93 O90 1.320 . S
C93 O91 1.214 . S
O94 Cd86 2.277 . S
O94 C89 1.209 . S
C95 O92 1.258 . S
C95 O97 1.282 . S
O96 Cd88 2.277 . S
O96 C89 1.226 . S
O97 Cd88 2.356 . S
O97 C95 1.282 . S
C98 O99 1.306 . S
C98 O101 1.160 . S
O99 C98 1.306 . S
O99 Cd100 2.228 . S
Cd100 O99 2.228 . S
Cd100 O104 2.273 . S
Cd100 O108 2.277 . S
O101 C98 1.160 . S
O101 Cd102 2.203 . S
Cd102 O101 2.203 . S
Cd102 O104 2.411 . S
Cd102 O105 2.333 . S
Cd102 O106 2.352 . S
Cd102 O110 2.277 . S
Cd102 O111 2.356 . S
C103 O108 1.209 . S
C103 O110 1.226 . S
O104 Cd100 2.273 . S
O104 Cd102 2.411 . S
O104 C107 1.320 . S
O105 Cd102 2.333 . S
O105 C107 1.214 . S
O106 Cd102 2.352 . S
O106 C109 1.258 . S
C107 O104 1.320 . S
C107 O105 1.214 . S
O108 Cd100 2.277 . S
O108 C103 1.209 . S
C109 O106 1.258 . S
C109 O111 1.282 . S
O110 Cd102 2.277 . S
O110 C103 1.226 . S
O111 Cd102 2.356 . S
O111 C109 1.282 . S
H112 C120 0.929 . S
H113 C122 0.930 . S
H114 C124 0.930 . S
H115 C127 0.929 . S
H116 C130 0.930 . S
H117 C132 0.960 . S
H118 C132 0.960 . S
H119 C132 0.960 . S
C120 H112 0.929 . S
C120 C121 1.377 . S
C120 C122 1.384 . S
C121 C120 1.377 . S
C121 C127 1.390 . S
C122 H113 0.930 . S
C122 C120 1.384 . S
C122 C123 1.372 . S
C123 C122 1.372 . S
C123 C124 1.400 . S
C123 C128 1.490 . S
C124 H114 0.930 . S
C124 C123 1.400 . S
C124 C127 1.386 . S
H125 C141 0.930 . S
H126 C142 0.931 . S
C127 H115 0.929 . S
C127 C121 1.390 . S
C127 C124 1.386 . S
C128 C123 1.490 . S
C128 C130 1.395 . S
C128 C131 1.403 1_554 S
H129 C135 0.930 . S
C130 H116 0.930 . S
C130 C128 1.395 . S
C130 C133 1.403 . S
C131 C128 1.403 1_556 S
C131 C132 1.524 . S
C131 C135 1.400 . S
C132 H117 0.960 . S
C132 H118 0.960 . S
C132 H119 0.960 . S
C132 C131 1.524 . S
C133 C130 1.403 . S
C133 C134 1.392 . S
C133 C137 1.495 . S
C134 C133 1.392 . S
C134 C135 1.385 1_554 S
C134 C136 1.478 . S
C135 H129 0.930 . S
C135 C131 1.400 . S
C135 C134 1.385 1_556 S
C136 C134 1.478 . S
C136 C138 1.381 . S
C136 C142 1.383 . S
C137 C133 1.495 . S
C137 H143 0.959 . S
C137 H144 0.961 . S
C137 H145 0.960 . S
C138 C136 1.381 . S
C138 C139 1.394 . S
C138 H146 0.930 . S
C139 C138 1.394 . S
C139 C140 1.383 . S
C139 H147 0.929 . S
C140 C139 1.383 . S
C140 C141 1.377 . S
C141 H125 0.930 . S
C141 C140 1.377 . S
C141 C142 1.379 . S
C142 H126 0.931 . S
C142 C136 1.383 . S
C142 C141 1.379 . S
H143 C137 0.959 . S
H144 C137 0.961 . S
H145 C137 0.960 . S
H146 C138 0.930 . S
H147 C139 0.929 . S
H148 C156 0.929 . S
H149 C158 0.930 . S
H150 C160 0.930 . S
H151 C163 0.929 . S
H152 C166 0.930 . S
H153 C168 0.960 . S
H154 C168 0.960 . S
H155 C168 0.960 . S
C156 H148 0.929 . S
C156 C157 1.377 . S
C156 C158 1.384 . S
C157 C156 1.377 . S
C157 C163 1.390 1_554 S
C158 H149 0.930 . S
C158 C156 1.384 . S
C158 C159 1.372 . S
C159 C158 1.372 . S
C159 C160 1.400 1_554 S
C159 C164 1.490 . S
C160 H150 0.930 . S
C160 C159 1.400 1_556 S
C160 C163 1.386 . S
H161 C177 0.930 . S
H162 C178 0.931 . S
C163 H151 0.929 . S
C163 C157 1.390 1_556 S
C163 C160 1.386 . S
C164 C159 1.490 . S
C164 C166 1.395 . S
C164 C167 1.403 . S
H165 C171 0.930 . S
C166 H152 0.930 . S
C166 C164 1.395 . S
C166 C169 1.403 . S
C167 C164 1.403 . S
C167 C168 1.524 . S
C167 C171 1.400 . S
C168 H153 0.960 . S
C168 H154 0.960 . S
C168 H155 0.960 . S
C168 C167 1.524 . S
C169 C166 1.403 . S
C169 C170 1.392 . S
C169 C173 1.495 . S
C170 C169 1.392 . S
C170 C171 1.385 . S
C170 C172 1.478 . S
C171 H165 0.930 . S
C171 C167 1.400 . S
C171 C170 1.385 . S
C172 C170 1.478 . S
C172 C174 1.381 . S
C172 C178 1.383 1_554 S
C173 C169 1.495 . S
C173 H179 0.959 1_554 S
C173 H180 0.961 1_554 S
C173 H181 0.960 . S
C174 C172 1.381 . S
C174 C175 1.394 . S
C174 H182 0.930 . S
C175 C174 1.394 . S
C175 C176 1.383 . S
C175 H183 0.929 . S
C176 C175 1.383 . S
C176 C177 1.377 1_554 S
C177 H161 0.930 . S
C177 C176 1.377 1_556 S
C177 C178 1.379 . S
C178 H162 0.931 . S
C178 C172 1.383 1_556 S
C178 C177 1.379 . S
H179 C173 0.959 1_556 S
H180 C173 0.961 1_556 S
H181 C173 0.960 . S
H182 C174 0.930 . S
H183 C175 0.929 . S
H184 C192 0.929 . S
H185 C194 0.930 . S
H186 C196 0.930 . S
H187 C199 0.929 . S
H188 C202 0.930 . S
H189 C204 0.960 . S
H190 C204 0.960 . S
H191 C204 0.960 . S
C192 H184 0.929 . S
C192 C193 1.377 . S
C192 C194 1.384 . S
C193 C192 1.377 . S
C193 C199 1.390 . S
C194 H185 0.930 . S
C194 C192 1.384 . S
C194 C195 1.372 . S
C195 C194 1.372 . S
C195 C196 1.400 . S
C195 C200 1.490 . S
C196 H186 0.930 . S
C196 C195 1.400 . S
C196 C199 1.386 . S
H197 C213 0.930 . S
H198 C214 0.931 . S
C199 H187 0.929 . S
C199 C193 1.390 . S
C199 C196 1.386 . S
C200 C195 1.490 . S
C200 C202 1.395 . S
C200 C203 1.403 . S
H201 C207 0.930 . S
C202 H188 0.930 . S
C202 C200 1.395 . S
C202 C205 1.403 . S
C203 C200 1.403 . S
C203 C204 1.524 . S
C203 C207 1.400 . S
C204 H189 0.960 . S
C204 H190 0.960 . S
C204 H191 0.960 . S
C204 C203 1.524 . S
C205 C202 1.403 . S
C205 C206 1.392 . S
C205 C209 1.495 . S
C206 C205 1.392 . S
C206 C207 1.385 . S
C206 C208 1.478 . S
C207 H201 0.930 . S
C207 C203 1.400 . S
C207 C206 1.385 . S
C208 C206 1.478 . S
C208 C210 1.381 . S
C208 C214 1.383 . S
C209 C205 1.495 . S
C209 H215 0.959 . S
C209 H216 0.961 . S
C209 H217 0.960 . S
C210 C208 1.381 . S
C210 C211 1.394 . S
C210 H218 0.930 . S
C211 C210 1.394 . S
C211 C212 1.383 . S
C211 H219 0.929 . S
C212 C211 1.383 . S
C212 C213 1.377 . S
C213 H197 0.930 . S
C213 C212 1.377 . S
C213 C214 1.379 . S
C214 H198 0.931 . S
C214 C208 1.383 . S
C214 C213 1.379 . S
H215 C209 0.959 . S
H216 C209 0.961 . S
H217 C209 0.960 . S
H218 C210 0.930 . S
H219 C211 0.929 . S
H220 C228 0.929 . S
H221 C230 0.930 . S
H222 C232 0.930 . S
H223 C235 0.929 . S
H224 C238 0.930 . S
H225 C240 0.960 . S
H226 C240 0.960 . S
H227 C240 0.960 . S
C228 H220 0.929 . S
C228 C229 1.377 . S
C228 C230 1.384 . S
C229 C228 1.377 . S
C229 C235 1.390 . S
C230 H221 0.930 . S
C230 C228 1.384 . S
C230 C231 1.372 . S
C231 C230 1.372 . S
C231 C232 1.400 . S
C231 C236 1.490 . S
C232 H222 0.930 . S
C232 C231 1.400 . S
C232 C235 1.386 . S
H233 C249 0.930 . S
H234 C250 0.931 . S
C235 H223 0.929 . S
C235 C229 1.390 . S
C235 C232 1.386 . S
C236 C231 1.490 . S
C236 C238 1.395 . S
C236 C239 1.403 . S
H237 C243 0.930 . S
C238 H224 0.930 . S
C238 C236 1.395 . S
C238 C241 1.403 . S
C239 C236 1.403 . S
C239 C240 1.524 . S
C239 C243 1.400 . S
C240 H225 0.960 . S
C240 H226 0.960 . S
C240 H227 0.960 . S
C240 C239 1.524 . S
C241 C238 1.403 . S
C241 C242 1.392 . S
C241 C245 1.495 . S
C242 C241 1.392 . S
C242 C243 1.385 . S
C242 C244 1.478 . S
C243 H237 0.930 . S
C243 C239 1.400 . S
C243 C242 1.385 . S
C244 C242 1.478 . S
C244 C246 1.381 . S
C244 C250 1.383 . S
C245 C241 1.495 . S
C245 H251 0.959 . S
C245 H252 0.961 . S
C245 H253 0.960 . S
C246 C244 1.381 . S
C246 C247 1.394 . S
C246 H254 0.930 . S
C247 C246 1.394 . S
C247 C248 1.383 . S
C247 H255 0.929 . S
C248 C247 1.383 . S
C248 C249 1.377 . S
C249 H233 0.930 . S
C249 C248 1.377 . S
C249 C250 1.379 . S
C250 H234 0.931 . S
C250 C244 1.383 . S
C250 C249 1.379 . S
H251 C245 0.959 . S
H252 C245 0.961 . S
H253 C245 0.960 . S
H254 C246 0.930 . S
H255 C247 0.929 . S
H256 C264 0.929 . S
H257 C266 0.930 . S
H258 C268 0.930 . S
H259 C271 0.929 . S
H260 C274 0.930 . S
H261 C276 0.960 . S
H262 C276 0.960 . S
H263 C276 0.960 . S
C264 H256 0.929 . S
C264 C265 1.377 . S
C264 C266 1.384 . S
C265 C264 1.377 . S
C265 C271 1.390 . S
C266 H257 0.930 . S
C266 C264 1.384 . S
C266 C267 1.372 . S
C267 C266 1.372 . S
C267 C268 1.400 . S
C267 C272 1.490 . S
C268 H258 0.930 . S
C268 C267 1.400 . S
C268 C271 1.386 . S
H269 C285 0.930 . S
H270 C286 0.931 . S
C271 H259 0.929 . S
C271 C265 1.390 . S
C271 C268 1.386 . S
C272 C267 1.490 . S
C272 C274 1.395 . S
C272 C275 1.403 . S
H273 C279 0.930 . S
C274 H260 0.930 . S
C274 C272 1.395 . S
C274 C277 1.403 . S
C275 C272 1.403 . S
C275 C276 1.524 . S
C275 C279 1.400 . S
C276 H261 0.960 . S
C276 H262 0.960 . S
C276 H263 0.960 . S
C276 C275 1.524 . S
C277 C274 1.403 . S
C277 C278 1.392 . S
C277 C281 1.495 . S
C278 C277 1.392 . S
C278 C279 1.385 . S
C278 C280 1.478 . S
C279 H273 0.930 . S
C279 C275 1.400 . S
C279 C278 1.385 . S
C280 C278 1.478 . S
C280 C282 1.381 . S
C280 C286 1.383 . S
C281 C277 1.495 . S
C281 H287 0.959 . S
C281 H288 0.961 . S
C281 H289 0.960 . S
C282 C280 1.381 . S
C282 C283 1.394 . S
C282 H290 0.930 . S
C283 C282 1.394 . S
C283 C284 1.383 . S
C283 H291 0.929 . S
C284 C283 1.383 . S
C284 C285 1.377 . S
C285 H269 0.930 . S
C285 C284 1.377 . S
C285 C286 1.379 . S
C286 H270 0.931 . S
C286 C280 1.383 . S
C286 C285 1.379 . S
H287 C281 0.959 . S
H288 C281 0.961 . S
H289 C281 0.960 . S
H290 C282 0.930 . S
H291 C283 0.929 . S
H292 C300 0.929 . S
H293 C302 0.930 . S
H294 C304 0.930 . S
H295 C307 0.929 . S
H296 C310 0.930 . S
H297 C312 0.960 . S
H298 C312 0.960 . S
H299 C312 0.960 . S
C300 H292 0.929 . S
C300 C301 1.377 . S
C300 C302 1.384 . S
C301 C300 1.377 . S
C301 C307 1.390 . S
C302 H293 0.930 . S
C302 C300 1.384 . S
C302 C303 1.372 . S
C303 C302 1.372 . S
C303 C304 1.400 . S
C303 C308 1.490 . S
C304 H294 0.930 . S
C304 C303 1.400 . S
C304 C307 1.386 . S
H305 C321 0.930 . S
H306 C322 0.931 . S
C307 H295 0.929 . S
C307 C301 1.390 . S
C307 C304 1.386 . S
C308 C303 1.490 . S
C308 C310 1.395 . S
C308 C311 1.403 . S
H309 C315 0.930 . S
C310 H296 0.930 . S
C310 C308 1.395 . S
C310 C313 1.403 . S
C311 C308 1.403 . S
C311 C312 1.524 . S
C311 C315 1.400 . S
C312 H297 0.960 . S
C312 H298 0.960 . S
C312 H299 0.960 . S
C312 C311 1.524 . S
C313 C310 1.403 . S
C313 C314 1.392 . S
C313 C317 1.495 . S
C314 C313 1.392 . S
C314 C315 1.385 . S
C314 C316 1.478 . S
C315 H309 0.930 . S
C315 C311 1.400 . S
C315 C314 1.385 . S
C316 C314 1.478 . S
C316 C318 1.381 . S
C316 C322 1.383 . S
C317 C313 1.495 . S
C317 H323 0.959 . S
C317 H324 0.961 . S
C317 H325 0.960 . S
C318 C316 1.381 . S
C318 C319 1.394 . S
C318 H326 0.930 . S
C319 C318 1.394 . S
C319 C320 1.383 . S
C319 H327 0.929 . S
C320 C319 1.383 . S
C320 C321 1.377 . S
C321 H305 0.930 . S
C321 C320 1.377 . S
C321 C322 1.379 . S
C322 H306 0.931 . S
C322 C316 1.383 . S
C322 C321 1.379 . S
H323 C317 0.959 . S
H324 C317 0.961 . S
H325 C317 0.960 . S
H326 C318 0.930 . S
H327 C319 0.929 . S
H328 C336 0.929 . S
H329 C338 0.930 . S
H330 C340 0.930 . S
H331 C343 0.929 . S
H332 C346 0.930 . S
H333 C348 0.960 . S
H334 C348 0.960 . S
H335 C348 0.960 . S
C336 H328 0.929 . S
C336 C337 1.377 . S
C336 C338 1.384 . S
C337 C336 1.377 . S
C337 C343 1.390 . S
C338 H329 0.930 . S
C338 C336 1.384 . S
C338 C339 1.372 . S
C339 C338 1.372 . S
C339 C340 1.400 . S
C339 C344 1.490 . S
C340 H330 0.930 . S
C340 C339 1.400 . S
C340 C343 1.386 . S
H341 C357 0.930 . S
H342 C358 0.931 . S
C343 H331 0.929 . S
C343 C337 1.390 . S
C343 C340 1.386 . S
C344 C339 1.490 . S
C344 C346 1.395 . S
C344 C347 1.403 . S
H345 C351 0.930 . S
C346 H332 0.930 . S
C346 C344 1.395 . S
C346 C349 1.403 . S
C347 C344 1.403 . S
C347 C348 1.524 . S
C347 C351 1.400 . S
C348 H333 0.960 . S
C348 H334 0.960 . S
C348 H335 0.960 . S
C348 C347 1.524 . S
C349 C346 1.403 . S
C349 C350 1.392 . S
C349 C353 1.495 . S
C350 C349 1.392 . S
C350 C351 1.385 . S
C350 C352 1.478 . S
C351 H345 0.930 . S
C351 C347 1.400 . S
C351 C350 1.385 . S
C352 C350 1.478 . S
C352 C354 1.381 . S
C352 C358 1.383 . S
C353 C349 1.495 . S
C353 H359 0.959 . S
C353 H360 0.961 . S
C353 H361 0.960 . S
C354 C352 1.381 . S
C354 C355 1.394 . S
C354 H362 0.930 . S
C355 C354 1.394 . S
C355 C356 1.383 . S
C355 H363 0.929 . S
C356 C355 1.383 . S
C356 C357 1.377 . S
C357 H341 0.930 . S
C357 C356 1.377 . S
C357 C358 1.379 . S
C358 H342 0.931 . S
C358 C352 1.383 . S
C358 C357 1.379 . S
H359 C353 0.959 . S
H360 C353 0.961 . S
H361 C353 0.960 . S
H362 C354 0.930 . S
H363 C355 0.929 . S
H364 C372 0.929 . S
H365 C374 0.930 . S
H366 C376 0.930 . S
H367 C379 0.929 . S
H368 C382 0.930 . S
H369 C384 0.960 . S
H370 C384 0.960 . S
H371 C384 0.960 . S
C372 H364 0.929 . S
C372 C373 1.377 . S
C372 C374 1.384 . S
C373 C372 1.377 . S
C373 C379 1.390 . S
C374 H365 0.930 . S
C374 C372 1.384 . S
C374 C375 1.372 . S
C375 C374 1.372 . S
C375 C376 1.400 . S
C375 C380 1.490 . S
C376 H366 0.930 . S
C376 C375 1.400 . S
C376 C379 1.386 . S
H377 C393 0.930 . S
H378 C394 0.931 . S
C379 H367 0.929 . S
C379 C373 1.390 . S
C379 C376 1.386 . S
C380 C375 1.490 . S
C380 C382 1.395 . S
C380 C383 1.403 . S
H381 C387 0.930 . S
C382 H368 0.930 . S
C382 C380 1.395 . S
C382 C385 1.403 . S
C383 C380 1.403 . S
C383 C384 1.524 . S
C383 C387 1.400 . S
C384 H369 0.960 . S
C384 H370 0.960 . S
C384 H371 0.960 . S
C384 C383 1.524 . S
C385 C382 1.403 . S
C385 C386 1.392 . S
C385 C389 1.495 . S
C386 C385 1.392 . S
C386 C387 1.385 . S
C386 C388 1.478 . S
C387 H381 0.930 . S
C387 C383 1.400 . S
C387 C386 1.385 . S
C388 C386 1.478 . S
C388 C390 1.381 . S
C388 C394 1.383 . S
C389 C385 1.495 . S
C389 H395 0.959 . S
C389 H396 0.961 . S
C389 H397 0.960 . S
C390 C388 1.381 . S
C390 C391 1.394 . S
C390 H398 0.930 . S
C391 C390 1.394 . S
C391 C392 1.383 . S
C391 H399 0.929 . S
C392 C391 1.383 . S
C392 C393 1.377 . S
C393 H377 0.930 . S
C393 C392 1.377 . S
C393 C394 1.379 . S
C394 H378 0.931 . S
C394 C388 1.383 . S
C394 C393 1.379 . S
H395 C389 0.959 . S
H396 C389 0.961 . S
H397 C389 0.960 . S
H398 C390 0.930 . S
H399 C391 0.929 . S
H400 C408 0.929 . S
H401 C410 0.930 . S
H402 C412 0.930 . S
H403 C415 0.929 . S
H404 C418 0.930 . S
H405 C420 0.960 . S
H406 C420 0.960 . S
H407 C420 0.960 . S
C408 H400 0.929 . S
C408 C409 1.377 . S
C408 C410 1.384 . S
C409 C408 1.377 . S
C409 C415 1.390 . S
C410 H401 0.930 . S
C410 C408 1.384 . S
C410 C411 1.372 . S
C411 C410 1.372 . S
C411 C412 1.400 . S
C411 C416 1.490 . S
C412 H402 0.930 . S
C412 C411 1.400 . S
C412 C415 1.386 . S
H413 C429 0.930 . S
H414 C430 0.931 . S
C415 H403 0.929 . S
C415 C409 1.390 . S
C415 C412 1.386 . S
C416 C411 1.490 . S
C416 C418 1.395 . S
C416 C419 1.403 1_565 S
H417 C423 0.930 . S
C418 H404 0.930 . S
C418 C416 1.395 . S
C418 C421 1.403 . S
C419 C416 1.403 1_545 S
C419 C420 1.524 . S
C419 C423 1.400 . S
C420 H405 0.960 . S
C420 H406 0.960 . S
C420 H407 0.960 . S
C420 C419 1.524 . S
C421 C418 1.403 . S
C421 C422 1.392 1_565 S
C421 C425 1.495 . S
C422 C421 1.392 1_545 S
C422 C423 1.385 . S
C422 C424 1.478 . S
C423 H417 0.930 . S
C423 C419 1.400 . S
C423 C422 1.385 . S
C424 C422 1.478 . S
C424 C426 1.381 . S
C424 C430 1.383 . S
C425 C421 1.495 . S
C425 H431 0.959 . S
C425 H432 0.961 . S
C425 H433 0.960 . S
C426 C424 1.381 . S
C426 C427 1.394 . S
C426 H434 0.930 . S
C427 C426 1.394 . S
C427 C428 1.383 . S
C427 H435 0.929 . S
C428 C427 1.383 . S
C428 C429 1.377 . S
C429 H413 0.930 . S
C429 C428 1.377 . S
C429 C430 1.379 . S
C430 H414 0.931 . S
C430 C424 1.383 . S
C430 C429 1.379 . S
H431 C425 0.959 . S
H432 C425 0.961 . S
H433 C425 0.960 . S
H434 C426 0.930 . S
H435 C427 0.929 . S
H436 C444 0.929 . S
H437 C446 0.930 1_545 S
H438 C448 0.930 . S
H439 C451 0.929 . S
H440 C454 0.930 . S
H441 C456 0.960 . S
H442 C456 0.960 1_545 S
H443 C456 0.960 . S
C444 H436 0.929 . S
C444 C445 1.377 . S
C444 C446 1.384 . S
C445 C444 1.377 . S
C445 C451 1.390 . S
C446 H437 0.930 1_565 S
C446 C444 1.384 . S
C446 C447 1.372 . S
C447 C446 1.372 . S
C447 C448 1.400 . S
C447 C452 1.490 . S
C448 H438 0.930 . S
C448 C447 1.400 . S
C448 C451 1.386 . S
H449 C465 0.930 . S
H450 C466 0.931 1_565 S
C451 H439 0.929 . S
C451 C445 1.390 . S
C451 C448 1.386 . S
C452 C447 1.490 . S
C452 C454 1.395 . S
C452 C455 1.403 . S
H453 C459 0.930 . S
C454 H440 0.930 . S
C454 C452 1.395 . S
C454 C457 1.403 1_565 S
C455 C452 1.403 . S
C455 C456 1.524 . S
C455 C459 1.400 1_565 S
C456 H441 0.960 . S
C456 H442 0.960 1_565 S
C456 H443 0.960 . S
C456 C455 1.524 . S
C457 C454 1.403 1_545 S
C457 C458 1.392 . S
C457 C461 1.495 . S
C458 C457 1.392 . S
C458 C459 1.385 . S
C458 C460 1.478 . S
C459 H453 0.930 . S
C459 C455 1.400 1_545 S
C459 C458 1.385 . S
C460 C458 1.478 . S
C460 C462 1.381 . S
C460 C466 1.383 . S
C461 C457 1.495 . S
C461 H467 0.959 . S
C461 H468 0.954 1_545 S
C461 H469 0.960 . S
C462 C460 1.381 . S
C462 C463 1.394 . S
C462 H470 0.930 . S
C463 C462 1.394 . S
C463 C464 1.383 . S
C463 H471 0.929 . S
C464 C463 1.383 . S
C464 C465 1.377 . S
C465 H449 0.930 . S
C465 C464 1.377 . S
C465 C466 1.379 . S
C466 H450 0.931 1_545 S
C466 C460 1.383 . S
C466 C465 1.379 . S
H467 C461 0.959 . S
H468 C461 0.954 1_565 S
H469 C461 0.960 . S
H470 C462 0.930 . S
H471 C463 0.929 . S
H472 C480 0.929 . S
H473 C482 0.930 . S
H474 C484 0.930 . S
H475 C487 0.929 . S
H476 C490 0.930 . S
H477 C492 0.960 . S
H478 C492 0.960 . S
H479 C492 0.960 . S
C480 H472 0.929 . S
C480 C481 1.377 . S
C480 C482 1.384 . S
C481 C480 1.377 . S
C481 C487 1.390 . S
C482 H473 0.930 . S
C482 C480 1.384 . S
C482 C483 1.372 . S
C483 C482 1.372 . S
C483 C484 1.400 . S
C483 C488 1.490 . S
C484 H474 0.930 . S
C484 C483 1.400 . S
C484 C487 1.386 . S
H485 C501 0.930 . S
H486 C502 0.931 . S
C487 H475 0.929 . S
C487 C481 1.390 . S
C487 C484 1.386 . S
C488 C483 1.490 . S
C488 C490 1.395 1_565 S
C488 C491 1.403 . S
H489 C495 0.930 . S
C490 H476 0.930 . S
C490 C488 1.395 1_545 S
C490 C493 1.403 . S
C491 C488 1.403 . S
C491 C492 1.524 . S
C491 C495 1.400 . S
C492 H477 0.960 . S
C492 H478 0.960 . S
C492 H479 0.960 . S
C492 C491 1.524 . S
C493 C490 1.403 . S
C493 C494 1.392 . S
C493 C497 1.495 . S
C494 C493 1.392 . S
C494 C495 1.385 1_545 S
C494 C496 1.478 . S
C495 H489 0.930 . S
C495 C491 1.400 . S
C495 C494 1.385 1_565 S
C496 C494 1.478 . S
C496 C498 1.381 . S
C496 C502 1.383 . S
C497 C493 1.495 . S
C497 H503 0.959 . S
C497 H504 0.961 . S
C497 H505 0.960 . S
C498 C496 1.381 . S
C498 C499 1.394 . S
C498 H506 0.930 . S
C499 C498 1.394 . S
C499 C500 1.383 . S
C499 H507 0.929 . S
C500 C499 1.383 . S
C500 C501 1.377 . S
C501 H485 0.930 . S
C501 C500 1.377 . S
C501 C502 1.379 . S
C502 H486 0.931 . S
C502 C496 1.383 . S
C502 C501 1.379 . S
H503 C497 0.959 . S
H504 C497 0.961 . S
H505 C497 0.960 . S
H506 C498 0.930 . S
H507 C499 0.929 . S
H508 C516 0.929 . S
H509 C518 0.930 . S
H510 C520 0.930 . S
H511 C523 0.929 . S
H512 C526 0.930 . S
H513 C528 0.960 . S
H514 C528 0.960 . S
H515 C528 0.960 . S
C516 H508 0.929 . S
C516 C517 1.377 . S
C516 C518 1.384 . S
C517 C516 1.377 . S
C517 C523 1.390 . S
C518 H509 0.930 . S
C518 C516 1.384 . S
C518 C519 1.372 . S
C519 C518 1.372 . S
C519 C520 1.400 . S
C519 C524 1.490 . S
C520 H510 0.930 . S
C520 C519 1.400 . S
C520 C523 1.386 . S
H521 C537 0.930 . S
H522 C538 0.931 . S
C523 H511 0.929 . S
C523 C517 1.390 . S
C523 C520 1.386 . S
C524 C519 1.490 . S
C524 C526 1.395 . S
C524 C527 1.403 1_565 S
H525 C531 0.930 . S
C526 H512 0.930 . S
C526 C524 1.395 . S
C526 C529 1.403 . S
C527 C524 1.403 1_545 S
C527 C528 1.524 . S
C527 C531 1.400 . S
C528 H513 0.960 . S
C528 H514 0.960 . S
C528 H515 0.960 . S
C528 C527 1.524 . S
C529 C526 1.403 . S
C529 C530 1.392 1_565 S
C529 C533 1.495 . S
C530 C529 1.392 1_545 S
C530 C531 1.385 . S
C530 C532 1.478 . S
C531 H525 0.930 . S
C531 C527 1.400 . S
C531 C530 1.385 . S
C532 C530 1.478 . S
C532 C534 1.381 . S
C532 C538 1.383 . S
C533 C529 1.495 . S
C533 H539 0.959 . S
C533 H540 0.961 . S
C533 H541 0.960 . S
C534 C532 1.381 . S
C534 C535 1.394 . S
C534 H542 0.930 . S
C535 C534 1.394 . S
C535 C536 1.383 . S
C535 H543 0.929 . S
C536 C535 1.383 . S
C536 C537 1.377 . S
C537 H521 0.930 . S
C537 C536 1.377 . S
C537 C538 1.379 . S
C538 H522 0.931 . S
C538 C532 1.383 . S
C538 C537 1.379 . S
H539 C533 0.959 . S
H540 C533 0.961 . S
H541 C533 0.960 . S
H542 C534 0.930 . S
H543 C535 0.929 . S
H544 C552 0.929 . S
H545 C554 0.930 . S
H546 C556 0.930 . S
H547 C559 0.929 . S
H548 C562 0.930 . S
H549 C564 0.960 . S
H550 C564 0.960 . S
H551 C564 0.960 . S
C552 H544 0.929 . S
C552 C553 1.377 . S
C552 C554 1.384 . S
C553 C552 1.377 . S
C553 C559 1.390 1_554 S
C554 H545 0.930 . S
C554 C552 1.384 . S
C554 C555 1.372 . S
C555 C554 1.372 . S
C555 C556 1.400 1_554 S
C555 C560 1.490 . S
C556 H546 0.930 . S
C556 C555 1.400 1_556 S
C556 C559 1.386 . S
H557 C573 0.930 . S
H558 C574 0.931 . S
C559 H547 0.929 . S
C559 C553 1.390 1_556 S
C559 C556 1.386 . S
C560 C555 1.490 . S
C560 C562 1.395 . S
C560 C563 1.403 1_565 S
H561 C567 0.930 . S
C562 H548 0.930 . S
C562 C560 1.395 . S
C562 C565 1.403 . S
C563 C560 1.403 1_545 S
C563 C564 1.524 . S
C563 C567 1.400 . S
C564 H549 0.960 . S
C564 H550 0.960 . S
C564 H551 0.960 . S
C564 C563 1.524 . S
C565 C562 1.403 . S
C565 C566 1.392 1_565 S
C565 C569 1.495 1_554 S
C566 C565 1.392 1_545 S
C566 C567 1.385 . S
C566 C568 1.478 . S
C567 H561 0.930 . S
C567 C563 1.400 . S
C567 C566 1.385 . S
C568 C566 1.478 . S
C568 C570 1.381 . S
C568 C574 1.383 1_554 S
C569 C565 1.495 1_556 S
C569 H575 0.959 . S
C569 H576 0.961 . S
C569 H577 0.960 1_556 S
C570 C568 1.381 . S
C570 C571 1.394 . S
C570 H578 0.930 . S
C571 C570 1.394 . S
C571 C572 1.383 . S
C571 H579 0.929 . S
C572 C571 1.383 . S
C572 C573 1.377 1_554 S
C573 H557 0.930 . S
C573 C572 1.377 1_556 S
C573 C574 1.379 . S
C574 H558 0.931 . S
C574 C568 1.383 1_556 S
C574 C573 1.379 . S
H575 C569 0.959 . S
H576 C569 0.961 . S
H577 C569 0.960 1_554 S
H578 C570 0.930 . S
H579 C571 0.929 . S
H580 C588 0.929 . S
H581 C590 0.930 . S
H582 C592 0.930 . S
H583 C595 0.929 . S
H584 C598 0.930 . S
H585 C600 0.960 . S
H586 C600 0.960 . S
H587 C600 0.960 . S
C588 H580 0.929 . S
C588 C589 1.377 . S
C588 C590 1.384 . S
C589 C588 1.377 . S
C589 C595 1.390 . S
C590 H581 0.930 . S
C590 C588 1.384 . S
C590 C591 1.372 . S
C591 C590 1.372 . S
C591 C592 1.400 . S
C591 C596 1.490 . S
C592 H582 0.930 . S
C592 C591 1.400 . S
C592 C595 1.386 . S
H593 C609 0.930 . S
H594 C610 0.931 . S
C595 H583 0.929 . S
C595 C589 1.390 . S
C595 C592 1.386 . S
C596 C591 1.490 . S
C596 C598 1.395 1_565 S
C596 C599 1.403 . S
H597 C603 0.930 . S
C598 H584 0.930 . S
C598 C596 1.395 1_545 S
C598 C601 1.403 . S
C599 C596 1.403 . S
C599 C600 1.524 . S
C599 C603 1.400 . S
C600 H585 0.960 . S
C600 H586 0.960 . S
C600 H587 0.960 . S
C600 C599 1.524 . S
C601 C598 1.403 . S
C601 C602 1.392 . S
C601 C605 1.495 . S
C602 C601 1.392 . S
C602 C603 1.385 1_545 S
C602 C604 1.478 . S
C603 H597 0.930 . S
C603 C599 1.400 . S
C603 C602 1.385 1_565 S
C604 C602 1.478 . S
C604 C606 1.381 . S
C604 C610 1.383 . S
C605 C601 1.495 . S
C605 H611 0.959 . S
C605 H612 0.961 . S
C605 H613 0.960 . S
C606 C604 1.381 . S
C606 C607 1.394 . S
C606 H614 0.930 . S
C607 C606 1.394 . S
C607 C608 1.383 . S
C607 H615 0.929 . S
C608 C607 1.383 . S
C608 C609 1.377 . S
C609 H593 0.930 . S
C609 C608 1.377 . S
C609 C610 1.379 . S
C610 H594 0.931 . S
C610 C604 1.383 . S
C610 C609 1.379 . S
H611 C605 0.959 . S
H612 C605 0.961 . S
H613 C605 0.960 . S
H614 C606 0.930 . S
H615 C607 0.929 . S
H616 C624 0.929 . S
H617 C626 0.930 . S
H618 C628 0.930 . S
H619 C631 0.929 . S
H620 C634 0.930 . S
H621 C636 0.960 . S
H622 C636 0.960 . S
H623 C636 0.960 . S
C624 H616 0.929 . S
C624 C625 1.377 . S
C624 C626 1.384 . S
C625 C624 1.377 . S
C625 C631 1.390 1_554 S
C626 H617 0.930 . S
C626 C624 1.384 . S
C626 C627 1.372 . S
C627 C626 1.372 . S
C627 C628 1.400 1_554 S
C627 C632 1.490 . S
C628 H618 0.930 . S
C628 C627 1.400 1_556 S
C628 C631 1.386 . S
H629 C645 0.930 . S
H630 C646 0.931 . S
C631 H619 0.929 . S
C631 C625 1.390 1_556 S
C631 C628 1.386 . S
C632 C627 1.490 . S
C632 C634 1.395 1_455 S
C632 C635 1.403 . S
H633 C639 0.935 . S
C634 H620 0.930 . S
C634 C632 1.395 1_655 S
C634 C637 1.403 . S
C635 C632 1.403 . S
C635 C636 1.524 . S
C635 C639 1.430 . S
C636 H621 0.960 . S
C636 H622 0.960 . S
C636 H623 0.960 . S
C636 C635 1.524 . S
C637 C634 1.403 . S
C637 C638 1.392 . S
C637 C641 1.495 . S
C638 C637 1.392 . S
C638 C639 1.351 1_655 S
C638 C640 1.478 . S
C639 H633 0.935 . S
C639 C635 1.430 . S
C639 C638 1.351 1_455 S
C640 C638 1.478 . S
C640 C642 1.381 . S
C640 C646 1.383 1_554 S
C641 C637 1.495 . S
C641 H647 0.959 . S
C641 H648 0.961 1_554 S
C641 H649 0.960 . S
C642 C640 1.381 . S
C642 C643 1.394 . S
C642 H650 0.930 . S
C643 C642 1.394 . S
C643 C644 1.383 . S
C643 H651 0.929 . S
C644 C643 1.383 . S
C644 C645 1.377 1_554 S
C645 H629 0.930 . S
C645 C644 1.377 1_556 S
C645 C646 1.379 . S
C646 H630 0.931 . S
C646 C640 1.383 1_556 S
C646 C645 1.379 . S
H647 C641 0.959 . S
H648 C641 0.961 1_556 S
H649 C641 0.960 . S
H650 C642 0.930 . S
H651 C643 0.929 . S
H652 C660 0.929 . S
H653 C662 0.930 . S
H654 C664 0.930 . S
H655 C667 0.929 . S
H656 C670 0.930 . S
H657 C672 0.960 . S
H658 C672 0.960 . S
H659 C672 0.960 . S
C660 H652 0.929 . S
C660 C661 1.377 . S
C660 C662 1.384 . S
C661 C660 1.377 . S
C661 C667 1.390 . S
C662 H653 0.930 . S
C662 C660 1.384 . S
C662 C663 1.372 . S
C663 C662 1.372 . S
C663 C664 1.400 . S
C663 C668 1.490 . S
C664 H654 0.930 . S
C664 C663 1.400 . S
C664 C667 1.386 . S
H665 C681 0.930 . S
H666 C682 0.931 . S
C667 H655 0.929 . S
C667 C661 1.390 . S
C667 C664 1.386 . S
C668 C663 1.490 . S
C668 C670 1.395 . S
C668 C671 1.403 1_455 S
H669 C675 0.930 . S
C670 H656 0.930 . S
C670 C668 1.395 . S
C670 C673 1.403 . S
C671 C668 1.403 1_655 S
C671 C672 1.524 . S
C671 C675 1.400 . S
C672 H657 0.960 . S
C672 H658 0.960 . S
C672 H659 0.960 . S
C672 C671 1.524 . S
C673 C670 1.403 . S
C673 C674 1.392 1_455 S
C673 C677 1.495 . S
C674 C673 1.392 1_655 S
C674 C675 1.385 . S
C674 C676 1.478 . S
C675 H669 0.930 . S
C675 C671 1.400 . S
C675 C674 1.385 . S
C676 C674 1.478 . S
C676 C678 1.381 . S
C676 C682 1.383 . S
C677 C673 1.495 . S
C677 H683 0.959 . S
C677 H684 0.961 . S
C677 H685 0.960 . S
C678 C676 1.381 . S
C678 C679 1.394 . S
C678 H686 0.930 . S
C679 C678 1.394 . S
C679 C680 1.383 . S
C679 H687 0.929 . S
C680 C679 1.383 . S
C680 C681 1.377 . S
C681 H665 0.930 . S
C681 C680 1.377 . S
C681 C682 1.379 . S
C682 H666 0.931 . S
C682 C676 1.383 . S
C682 C681 1.379 . S
H683 C677 0.959 . S
H684 C677 0.961 . S
H685 C677 0.960 . S
H686 C678 0.930 . S
H687 C679 0.929 . S
C121 C75 1.499 . S
C140 C5 1.498 . S
C157 C61 1.500 . S
C176 C19 1.492 . S
C193 C103 1.500 . S
C212 C33 1.492 . S
C229 C89 1.499 . S
C248 C47 1.499 . S
C265 C0 1.388 . S
C284 C28 1.389 . S
C301 C14 1.388 . S
C320 C42 1.398 . S
C337 C23 1.389 . S
C356 C51 1.392 . S
C373 C9 1.390 . S
C392 C37 1.396 . S
C409 C56 1.391 . S
C428 C84 1.387 . S
C445 C98 1.388 . S
C464 C70 1.398 . S
C481 C107 1.389 . S
C500 C79 1.379 . S
C517 C65 1.391 . S
C536 C93 1.397 . S
C553 C25 1.498 . S
C572 C11 1.487 . S
C589 C39 1.498 . S
C608 C53 1.501 . S
C625 C67 1.498 . S
C644 C81 1.488 . S
C661 C95 1.498 . S
C680 C109 1.501 . S
