# Generated by pormake.
# Topology kag, (6)-cn, num edge types: 1
# Building blocks:
#     Node 0, Type 0, BuildingBlock: FUNLAD_clean_sbu_0, # of connection points: 6
#     Node 1, Type 0, BuildingBlock: FUNLAD_clean_sbu_0, # of connection points: 6
#     Node 2, Type 0, BuildingBlock: FUNLAD_clean_sbu_0, # of connection points: 6
#     Edge 3, Type (0, 0), BuildingBlock: ZUJKAS_clean_linker_0, # of connection points: 2
#     Edge 4, Type (0, 0), BuildingBlock: ZUJKAS_clean_linker_0, # of connection points: 2
#     Edge 5, Type (0, 0), BuildingBlock: ZUJKAS_clean_linker_0, # of connection points: 2
#     Edge 6, Type (0, 0), BuildingBlock: ZUJKAS_clean_linker_0, # of connection points: 2
#     Edge 7, Type (0, 0), BuildingBlock: ZUJKAS_clean_linker_0, # of connection points: 2
#     Edge 8, Type (0, 0), BuildingBlock: ZUJKAS_clean_linker_0, # of connection points: 2
#     Edge 9, Type (0, 0), BuildingBlock: ZUJKAS_clean_linker_0, # of connection points: 2
#     Edge 10, Type (0, 0), BuildingBlock: ZUJKAS_clean_linker_0, # of connection points: 2
#     Edge 11, Type (0, 0), BuildingBlock: ZUJKAS_clean_linker_0, # of connection points: 2
# Relax obj value: 0.141
# Max RMSD: 0.177
# Mean RMSD: 0.176
data_MOF--net-kag--node1-FUNLAD_clean_sbu_0--edge1-ZUJKAS_clean_linker_0
_symmetry_space_group_name_H-M    P1
_symmetry_Int_Tables_number       1
_symmetry_cell_setting            triclinic
loop_
_symmetry_equiv_pos_as_xyz
'x, y, z'
_cell_length_a     38.024429
_cell_length_b     37.830249
_cell_length_c     26.247584
_cell_angle_alpha  88.821043
_cell_angle_beta   93.354621
_cell_angle_gamma 120.1357
loop_
_atom_site_label
_atom_site_type_symbol
_atom_site_fract_x
_atom_site_fract_y
_atom_site_fract_z
_atom_type_partial_charge
C0 C 0.91186 0.50066 1.00461 0.0
N1 N -0.0234 0.491 0.13346 0.0
C2 C 0.97251 0.52027 0.15722 0.0
C3 C 0.97171 0.52075 0.21038 0.0
C4 C -0.02493 0.49078 0.23927 0.0
C5 C -0.02028 0.46128 0.21366 0.0
C6 C -0.01963 0.46193 0.16061 0.0
Zn7 Zn -0.02415 0.48862 0.05562 0.0
C8 C 0.92278 0.40299 0.01799 0.0
N9 N 0.97244 0.47938 0.89319 0.0
C10 C 0.96871 0.50848 0.86608 0.0
C11 C -0.02362 0.45003 0.86937 0.0
C12 C -0.02296 0.4495 0.81619 0.0
C13 C 0.97368 0.4795 0.78735 0.0
C14 C 0.96921 0.50908 0.81302 0.0
Zn15 Zn 0.97325 0.48175 0.97104 0.0
O16 O 0.92696 0.49975 0.04874 0.0
C17 C 0.02606 0.56742 1.00893 0.0
O18 O 0.92489 0.49272 0.96558 0.0
H19 H -0.0206 0.42724 0.89166 0.0
H20 H 0.96946 0.54303 0.1349 0.0
H21 H 0.96554 0.53152 0.88565 0.0
O22 O 0.01609 0.55159 0.05261 0.0
O23 O 0.01325 0.5448 0.9693 0.0
H24 H -0.01634 0.43896 0.14108 0.0
O25 O 0.02213 0.47111 0.97766 0.0
O26 O 0.02456 0.47757 0.06098 0.0
O27 O 0.93281 0.41854 0.97417 0.0
O28 O 0.9358 0.42578 0.05744 0.0
C29 C 0.03769 0.47031 0.02148 0.0
H30 H 0.96772 0.54385 0.22855 0.0
H31 H -0.01689 0.43803 0.23441 0.0
H32 H -0.0191 0.42634 0.79797 0.0
H33 H 0.96584 0.53236 0.79232 0.0
C34 C 0.39641 0.92016 1.01135 0.0
N35 N 0.47068 0.97914 0.14142 0.0
C36 C 0.43752 0.97493 0.16409 0.0
C37 C 0.43667 0.97447 0.21724 0.0
C38 C 0.47032 0.97854 0.24731 0.0
C39 C 0.50391 0.98236 0.22283 0.0
C40 C 0.50344 0.98256 0.16965 0.0
Zn41 Zn 0.47243 0.98182 0.06372 0.0
C42 C 0.50547 0.93282 0.02338 0.0
N43 N 0.47772 -0.01151 0.90142 0.0
C44 C 0.44458 0.98416 0.87322 0.0
C45 C 0.51107 -0.00677 0.87869 0.0
C46 C 0.51169 -0.00677 0.82553 0.0
C47 C 0.47763 -0.01181 0.7955 0.0
C48 C 0.44388 0.98391 0.82004 0.0
Zn49 Zn 0.47608 -0.01402 0.97917 0.0
O50 O 0.41253 0.93281 0.05582 0.0
C51 C 0.4427 0.03468 0.01867 0.0
O52 O 0.41707 0.93624 0.97264 0.0
H53 H 0.53705 -0.00349 0.90181 0.0
H54 H 0.41186 0.97238 0.14093 0.0
H55 H 0.41841 0.98055 0.89199 0.0
O56 O 0.44973 0.02255 0.06151 0.0
O57 O 0.45181 0.02441 0.97797 0.0
H58 H 0.52944 -0.01427 0.15089 0.0
O59 O 0.53508 0.03582 0.98679 0.0
O60 O 0.5324 0.03081 0.07015 0.0
O61 O 0.50022 0.9473 0.98148 0.0
O62 O 0.495 0.94115 0.0645 0.0
C63 C 0.55215 0.04775 0.031 0.0
H64 H 0.41031 0.97186 0.23457 0.0
H65 H 0.53025 -0.01501 0.24454 0.0
H66 H 0.53819 -0.00378 0.80817 0.0
H67 H 0.41722 0.98055 0.79838 0.0
C68 C 0.55523 0.50937 0.99916 0.0
N69 N 0.46635 0.4845 0.88278 0.0
C70 C 0.49621 0.51711 0.85882 0.0
C71 C 0.49677 0.51782 0.80571 0.0
C72 C 0.46638 0.48459 0.77672 0.0
C73 C 0.43532 0.45175 0.80237 0.0
C74 C 0.4359 0.45233 0.85567 0.0
Zn75 Zn 0.47018 0.48324 0.96094 0.0
C76 C 0.45442 0.40314 0.99939 0.0
N77 N 0.48262 0.48161 0.12399 0.0
C78 C 0.51298 0.51388 0.15106 0.0
C79 C 0.45312 0.44873 0.14799 0.0
C80 C 0.45289 0.4478 0.20113 0.0
C81 C 0.48325 0.48107 0.2301 0.0
C82 C 0.51389 0.51423 0.20439 0.0
Zn83 Zn 0.47869 0.48296 0.04587 0.0
O84 O 0.53213 0.50239 0.95924 0.0
C85 C 0.49467 0.56312 1.00703 0.0
O86 O 0.54053 0.50276 0.04282 0.0
H87 H 0.42924 0.42336 0.12585 0.0
H88 H 0.52018 0.5424 0.88097 0.0
H89 H 0.53608 0.53977 0.13126 0.0
O90 O 0.48551 0.54428 0.96456 0.0
O91 O 0.49295 0.54424 0.04821 0.0
H92 H 0.41252 0.42664 0.87543 0.0
O93 O 0.4168 0.46311 0.04758 0.0
O94 O 0.40824 0.46421 0.96416 0.0
O95 O 0.46448 0.42191 0.04201 0.0
O96 O 0.45497 0.42202 0.95866 0.0
C97 C 0.39362 0.45692 1.00795 0.0
H98 H 0.52091 0.5441 0.78758 0.0
H99 H 0.41149 0.42531 0.78162 0.0
H100 H 0.42905 0.4213 0.21931 0.0
H101 H 0.53768 0.5407 0.22514 0.0
H102 H 0.93732 0.41463 0.72032 0.0
H103 H 0.93868 0.41655 0.62708 0.0
H104 H 0.01296 0.54795 0.63349 0.0
H105 H 0.0129 0.54626 0.72655 0.0
H106 H 0.91078 0.45698 0.55986 0.0
H107 H 0.07566 0.51484 0.54259 0.0
H108 H 0.05055 0.49404 0.60114 0.0
H109 H 0.06485 0.54546 0.58315 0.0
C110 C 0.95448 0.44388 0.70192 0.0
C111 C -0.02496 0.48029 0.73087 0.0
C112 C 0.95499 0.44493 0.64867 0.0
C113 C -0.02367 0.48234 0.6235 0.0
C114 C -0.00311 0.5187 0.65223 0.0
H115 H 0.01118 0.5556 0.30636 0.0
H116 H 0.00964 0.55361 0.39958 0.0
C117 C -0.0036 0.5177 0.70539 0.0
C118 C -0.02408 0.48354 0.56707 0.0
H119 H 0.03758 0.51313 0.46671 0.0
C120 C 0.93844 0.46903 0.53942 0.0
C121 C 0.01212 0.49945 0.54063 0.0
C122 C 0.05306 0.51401 0.5683 0.0
C123 C 0.93623 0.47064 0.48594 0.0
C124 C 0.97243 0.48658 0.45951 0.0
C125 C 0.00991 0.50108 0.48715 0.0
C126 C 0.97205 0.48781 0.40308 0.0
C127 C 0.89529 0.45608 0.45826 0.0
C128 C 0.95157 0.45146 0.37431 0.0
C129 C 0.95217 0.45251 0.32115 0.0
C130 C 0.97355 0.48994 0.29573 0.0
C131 C -0.00598 0.52634 0.32472 0.0
C132 C -0.00661 0.52524 0.37795 0.0
H133 H 0.87267 0.45519 0.48397 0.0
H134 H 0.8978 0.47608 0.42546 0.0
H135 H 0.88354 0.42466 0.44335 0.0
H136 H 0.93549 0.4222 0.39301 0.0
H137 H 0.93575 0.42396 0.29995 0.0
H138 H 0.40833 0.93019 0.30881 0.0
H139 H 0.40924 0.93239 0.40214 0.0
H140 H 0.53427 0.03017 0.40685 0.0
H141 H 0.53336 0.0289 0.31368 0.0
H142 H 0.46224 0.92158 0.47372 0.0
H143 H 0.47712 0.07457 0.49263 0.0
H144 H 0.46133 0.04619 0.43317 0.0
H145 H 0.51421 0.07337 0.45444 0.0
C146 C 0.43587 0.95246 0.32971 0.0
C147 C 0.47074 0.97946 0.30387 0.0
C148 C 0.4364 0.95351 0.38297 0.0
C149 C 0.47165 0.98179 0.41123 0.0
C150 C 0.50657 0.00855 0.38564 0.0
H151 H 0.53906 0.03654 0.73329 0.0
H152 H 0.53772 0.03371 0.64001 0.0
C153 C 0.50612 0.00747 0.33245 0.0
C154 C 0.47222 0.98275 0.4676 0.0
H155 H 0.48459 0.04377 0.56902 0.0
C156 C 0.46691 0.94818 0.49463 0.0
C157 C 0.47844 0.01758 0.49459 0.0
C158 C 0.48276 0.05495 0.46732 0.0
C159 C 0.46839 0.94777 0.54818 0.0
C160 C 0.47466 0.98262 0.57518 0.0
C161 C 0.47991 0.01716 0.54813 0.0
C162 C 0.47554 0.98375 0.63158 0.0
C163 C 0.46412 0.9104 0.57542 0.0
C164 C 0.44089 0.95684 0.65755 0.0
C165 C 0.44162 0.95825 0.71074 0.0
C166 C 0.47697 -0.01323 0.73895 0.0
C167 C 0.51156 0.01388 0.71272 0.0
C168 C 0.51077 0.01247 0.65947 0.0
H169 H 0.46985 0.89085 0.55012 0.0
H170 H 0.48551 0.91916 0.60963 0.0
H171 H 0.43265 0.89191 0.58822 0.0
H172 H 0.41319 0.93489 0.63664 0.0
H173 H 0.41459 0.93672 0.72981 0.0
H174 H 0.40278 0.45774 0.70466 0.0
H175 H 0.40569 0.45635 0.61183 0.0
H176 H 0.53598 0.50854 0.62816 0.0
H177 H 0.53337 0.50964 0.72088 0.0
H178 H 0.51004 0.54696 0.55417 0.0
H179 H 0.42624 0.37826 0.52808 0.0
H180 H 0.40028 0.39781 0.56298 0.0
H181 H 0.44717 0.40267 0.58952 0.0
C182 C 0.432 0.4685 0.68855 0.0
C183 C 0.46783 0.48379 0.72026 0.0
C184 C 0.4336 0.46769 0.63551 0.0
C185 C 0.471 0.48189 0.61322 0.0
C186 C 0.50681 0.49741 0.64465 0.0
H187 H 0.54735 0.50789 0.30138 0.0
H188 H 0.5451 0.50892 0.39435 0.0
C189 C 0.50526 0.49822 0.69762 0.0
C190 C 0.473 0.48142 0.55705 0.0
H191 H 0.44115 0.41798 0.45295 0.0
C192 C 0.49514 0.51878 0.532 0.0
C193 C 0.45353 0.44458 0.52834 0.0
C194 C 0.43074 0.40348 0.55351 0.0
C195 C 0.4977 0.52036 0.47878 0.0
C196 C 0.47815 0.48352 0.45005 0.0
C197 C 0.45608 0.44616 0.47512 0.0
C198 C 0.47978 0.48308 0.39381 0.0
C199 C 0.52046 0.56147 0.45362 0.0
C200 C 0.44374 0.46747 0.3628 0.0
C201 C 0.44492 0.46684 0.30976 0.0
C202 C 0.48218 0.48157 0.28663 0.0
C203 C 0.51825 0.4969 0.3179 0.0
C204 C 0.51702 0.49751 0.37102 0.0
H205 H 0.52507 0.5867 0.47913 0.0
H206 H 0.55087 0.5671 0.44397 0.0
H207 H 0.50394 0.56233 0.41772 0.0
H208 H 0.41469 0.45616 0.37967 0.0
H209 H 0.41664 0.45535 0.28683 0.0
H210 H 0.06387 0.44758 0.10808 0.0
H211 H 0.11579 0.42744 0.11617 0.0
H212 H 0.13441 0.44714 0.95508 0.0
H213 H 0.08183 0.46623 0.94629 0.0
H214 H 0.1319 0.37533 0.99144 0.0
H215 H 0.23655 0.51245 0.11121 0.0
H216 H 0.18705 0.47953 0.13474 0.0
H217 H 0.19177 0.50746 0.07692 0.0
C218 C 0.07912 0.44769 0.07443 0.0
C219 C 0.06933 0.45897 0.02665 0.0
C220 C 0.10857 0.43607 0.07912 0.0
C221 C 0.12897 0.43626 0.03631 0.0
C222 C 0.11874 0.44675 0.98846 0.0
H223 H 0.33677 0.44951 0.93392 0.0
H224 H 0.26666 0.4319 0.94619 0.0
C225 C 0.089 0.45792 0.9836 0.0
C226 C 0.16284 0.42805 0.04133 0.0
H227 H 0.26142 0.47049 0.08677 0.0
C228 C 0.1601 0.39567 0.01289 0.0
C229 C 0.1993 0.45467 0.0696 0.0
C230 C 0.20418 0.49067 0.09961 0.0
C231 C 0.19378 0.39033 1.0101 0.0
C232 C 0.2308 0.4183 0.03611 0.0
C233 C 0.23275 0.44908 0.06703 0.0
C234 C 0.26934 0.42004 0.027 0.0
C235 C 0.18986 0.35567 0.97828 0.0
C236 C 0.29372 0.41897 0.06838 0.0
C237 C 0.33386 0.42967 0.06168 0.0
C238 C 0.35017 0.44173 0.01348 0.0
C239 C 0.325 0.44055 0.97149 0.0
C240 C 0.28484 0.42998 0.97831 0.0
H241 H 0.15785 0.33006 0.97503 0.0
H242 H 0.19932 0.36679 0.93921 0.0
H243 H 0.20962 0.34398 0.99467 0.0
H244 H 0.28222 0.4117 0.10627 0.0
H245 H 0.35245 0.42977 0.09464 0.0
H246 H 0.60227 0.09132 0.95571 0.0
H247 H 0.67466 0.14162 0.96512 0.0
H248 H 0.67268 0.12388 0.12807 0.0
H249 H 0.59991 0.07385 0.11925 0.0
H250 H 0.70589 0.20347 0.10047 0.0
H251 H 0.77476 0.13028 0.99556 0.0
H252 H 0.73337 0.1301 0.95885 0.0
H253 H 0.72369 0.10204 0.01756 0.0
C254 C 0.61724 0.09798 0.99355 0.0
C255 C 0.59546 0.07887 0.03678 0.0
C256 C 0.65868 0.12622 0.99875 0.0
C257 C 0.67902 0.13545 0.04711 0.0
C258 C 0.65745 0.1165 0.09039 0.0
H259 H 0.91263 0.35854 0.104 0.0
H260 H 0.85999 0.28768 0.11716 0.0
C261 C 0.61591 0.0883 0.08527 0.0
C262 C 0.72162 0.16854 0.0526 0.0
H263 H 0.81395 0.20443 1.00211 0.0
C264 C 0.72993 0.20343 0.08018 0.0
C265 C 0.75263 0.16803 0.02606 0.0
C266 C 0.74576 0.13038 0.99828 0.0
C267 C 0.76766 0.23923 0.07851 0.0
C268 C 0.7979 0.23955 0.04926 0.0
C269 C 0.7905 0.20386 0.02435 0.0
C270 C 0.83507 0.27806 0.03919 0.0
C271 C 0.77377 0.27717 0.10498 0.0
C272 C 0.83961 0.29489 0.99025 0.0
C273 C 0.86976 0.33519 0.98245 0.0
C274 C 0.89531 0.359 0.02372 0.0
C275 C 0.89265 0.341 0.07179 0.0
C276 C 0.86285 0.30059 0.07937 0.0
H277 H 0.74495 0.27316 0.11887 0.0
H278 H 0.7957 0.2846 0.13835 0.0
H279 H 0.78653 0.30366 0.07882 0.0
H280 H 0.81828 0.27768 0.95885 0.0
H281 H 0.8715 0.34831 0.94496 0.0
H282 H 0.54478 0.92175 0.94746 0.0
H283 H 0.56414 0.86936 0.94292 0.0
H284 H 0.52372 0.83002 0.09461 0.0
H285 H 0.50496 0.88286 0.10003 0.0
H286 H 0.59592 0.82585 0.06717 0.0
H287 H 0.46206 0.75295 0.9273 0.0
H288 H 0.50146 0.80384 0.91315 0.0
H289 H 0.47176 0.79529 0.96759 0.0
C290 C 0.54067 0.90239 0.9802 0.0
C291 C 0.52242 0.90552 0.02363 0.0
C292 C 0.55201 0.87279 0.97763 0.0
C293 C 0.54472 0.84575 0.01813 0.0
C294 C 0.52951 0.85084 0.06306 0.0
H295 H 0.50267 0.61009 0.08917 0.0
H296 H 0.52452 0.68286 0.08936 0.0
C297 C 0.51853 0.88073 0.06591 0.0
C298 C 0.54638 0.80832 1.01079 0.0
H299 H 0.49384 0.71564 0.95106 0.0
C300 C 0.57409 0.80185 0.04131 0.0
C301 C 0.51766 0.77732 0.97703 0.0
C302 C 0.4863 0.78235 0.94458 0.0
C303 C 0.5732 0.76441 0.03968 0.0
C304 C 0.54334 0.73288 1.00745 0.0
C305 C 0.51678 0.74006 0.97555 0.0
C306 C 0.5362 0.69092 1.00894 0.0
C307 C 0.60379 0.7588 0.07278 0.0
C308 C 0.5349 0.6714 0.96349 0.0
C309 C 0.52142 0.62976 0.963 0.0
C310 C 0.50924 0.60709 1.00806 0.0
C311 C 0.51181 0.62692 0.05391 0.0
C312 C 0.52486 0.66854 0.05423 0.0
H313 H 0.632 0.78852 0.08116 0.0
H314 H 0.59046 0.7454 0.10969 0.0
H315 H 0.61197 0.73793 0.05441 0.0
H316 H 0.5432 0.6882 0.92811 0.0
H317 H 0.52027 0.61532 0.92723 0.0
H318 H 0.88719 0.52216 0.91603 0.0
H319 H 0.83797 0.54543 0.90469 0.0
H320 H 0.81947 0.53257 0.06623 0.0
H321 H 0.86954 0.51028 0.07823 0.0
H322 H 0.75996 0.49879 0.92463 0.0
H323 H 0.82604 0.64134 0.0384 0.0
H324 H 0.85604 0.61945 0.01942 0.0
H325 H 0.82636 0.60093 0.07496 0.0
C326 C 0.87283 0.52452 0.94923 0.0
C327 C 0.88179 0.51404 0.998 0.0
C328 C 0.84511 0.53823 0.9427 0.0
C329 C 0.82591 0.54155 0.98476 0.0
C330 C 0.83503 0.53145 0.03356 0.0
H331 H 0.61029 0.51284 0.07293 0.0
H332 H 0.68112 0.53239 0.06206 0.0
C333 C 0.86308 0.5181 0.04024 0.0
C334 C 0.79213 0.54977 0.97686 0.0
H335 H 0.75199 0.60367 0.02577 0.0
C336 C 0.75853 0.52244 0.94555 0.0
C337 C 0.7907 0.5808 1.00409 0.0
C338 C 0.82696 0.61254 0.03566 0.0
C339 C 0.72205 0.52294 0.94421 0.0
C340 C 0.71967 0.5521 0.97439 0.0
C341 C 0.75414 0.58135 1.00287 0.0
C342 C 0.68015 0.54841 0.98253 0.0
C343 C 0.68554 0.49028 0.91368 0.0
C344 C 0.65698 0.55229 0.94171 0.0
C345 C 0.61637 0.5404 0.94751 0.0
C346 C 0.5988 0.52509 0.99443 0.0
C347 C 0.62301 0.5241 0.03623 0.0
C348 C 0.66347 0.53557 0.03022 0.0
H349 H 0.69126 0.4665 0.89858 0.0
H350 H 0.65869 0.47511 0.93747 0.0
H351 H 0.67781 0.5045 0.88079 0.0
H352 H 0.66976 0.56269 0.90487 0.0
H353 H 0.59853 0.54227 0.91494 0.0
H354 H 0.07153 0.62287 0.08422 0.0
H355 H 0.12306 0.69429 0.07307 0.0
H356 H 0.09137 0.68339 0.91128 0.0
H357 H 0.04035 0.61163 0.92189 0.0
H358 H 0.16905 0.70394 0.93331 0.0
H359 H 0.13424 0.80477 0.04251 0.0
H360 H 0.12867 0.76235 0.08014 0.0
H361 H 0.09585 0.75328 0.02368 0.0
C362 C 0.07492 0.63596 0.04648 0.0
C363 C 0.05273 0.61164 1.00377 0.0
C364 C 0.10393 0.67691 0.04026 0.0
C365 C 0.11058 0.6941 0.99142 0.0
C366 C 0.08636 0.6706 0.94927 0.0
H367 H 0.34911 0.90067 0.92316 0.0
H368 H 0.27649 0.85106 0.9116 0.0
C369 C 0.05761 0.62959 0.95537 0.0
C370 C 0.14802 0.73304 0.9834 0.0
H371 H 0.20633 0.82936 0.03231 0.0
C372 C 0.17689 0.73183 0.95372 0.0
C373 C 0.15797 0.76909 1.01029 0.0
C374 C 0.12731 0.77257 0.04051 0.0
C375 C 0.21671 0.76465 0.95356 0.0
C376 C 0.2274 0.79976 0.98309 0.0
C377 C 0.19784 0.80212 1.01004 0.0
C378 C 0.27002 0.83235 0.99054 0.0
C379 C 0.24764 0.76025 0.92486 0.0
C380 C 0.28982 0.83863 0.03905 0.0
C381 C 0.33116 0.86705 0.04593 0.0
C382 C 0.35316 0.8893 1.00423 0.0
C383 C 0.33301 0.88336 0.95581 0.0
C384 C 0.29159 0.85527 0.94913 0.0
H385 H 0.23592 0.7283 0.91182 0.0
H386 H 0.25553 0.77998 0.89069 0.0
H387 H 0.27601 0.7701 0.9491 0.0
H388 H 0.27343 0.82093 0.07134 0.0
H389 H 0.34591 0.87131 0.08369 0.0
H390 H 0.45939 0.35604 0.07614 0.0
H391 H 0.43698 0.28325 0.07203 0.0
H392 H 0.39342 0.27807 0.9153 0.0
H393 H 0.4166 0.35112 0.91854 0.0
H394 H 0.35973 0.21261 0.04615 0.0
H395 H 0.47853 0.24208 0.90988 0.0
H396 H 0.47862 0.28273 0.94467 0.0
H397 H 0.44333 0.25906 0.89078 0.0
C398 C 0.44502 0.3394 0.04082 0.0
C399 C 0.44038 0.35928 0.99738 0.0
C400 C 0.43194 0.29785 0.03869 0.0
C401 C 0.4139 0.27568 0.99327 0.0
C402 C 0.40777 0.29502 0.95044 0.0
H403 H 0.40469 0.04717 0.93549 0.0
H404 H 0.38251 0.09743 0.92664 0.0
C405 C 0.4212 0.33667 0.95233 0.0
C406 C 0.40494 0.23326 0.98991 0.0
H407 H 0.44041 0.17571 0.9399 0.0
C408 C 0.3768 0.20415 0.02238 0.0
C409 C 0.4273 0.22265 0.95865 0.0
C410 C 0.45886 0.25322 0.92424 0.0
C411 C 0.37159 0.16483 0.02588 0.0
C412 C 0.39555 0.155 0.99661 0.0
C413 C 0.42194 0.18341 0.96209 0.0
C414 C 0.39828 0.11792 1.00534 0.0
C415 C 0.34137 0.13461 0.06167 0.0
C416 C 0.4133 0.1121 0.05299 0.0
C417 C 0.42594 0.08336 0.05822 0.0
C418 C 0.42437 0.06077 0.01557 0.0
C419 C 0.4069 0.06481 0.96876 0.0
C420 C 0.39383 0.09313 0.96373 0.0
H421 H 0.31622 0.14092 0.06679 0.0
H422 H 0.32821 0.10273 0.04756 0.0
H423 H 0.35701 0.13736 0.09966 0.0
H424 H 0.41789 0.13166 0.08524 0.0
H425 H 0.43912 0.0806 0.09475 0.0
loop_
_geom_bond_atom_site_label_1
_geom_bond_atom_site_label_2
_geom_bond_distance
_geom_bond_site_symmetry_2
_ccdc_geom_bond_type
C0 O16 1.269 . S
C0 O18 1.234 1_554 S
N1 C2 1.333 1_455 S
N1 C6 1.307 . S
N1 Zn7 2.020 . S
C2 N1 1.333 1_655 S
C2 C3 1.379 . S
C2 H20 0.952 . S
C3 C2 1.379 . S
C3 C4 1.390 1_655 S
C3 H30 0.949 . S
C4 C3 1.390 1_455 S
C4 C5 1.357 . S
C5 C4 1.357 . S
C5 C6 1.370 . S
C5 H31 0.950 . S
C6 N1 1.307 . S
C6 C5 1.370 . S
C6 H24 0.948 . S
Zn7 N1 2.020 . S
Zn7 O16 2.039 1_455 S
Zn7 O22 2.034 . S
Zn7 O26 2.025 . S
Zn7 O28 2.024 1_455 S
C8 O27 1.246 . S
C8 O28 1.249 1_556 S
N9 C10 1.307 . S
N9 C11 1.333 1_655 S
N9 Zn15 2.020 . S
C10 N9 1.307 . S
C10 C14 1.370 . S
C10 H21 0.948 . S
C11 N9 1.333 1_455 S
C11 C12 1.379 . S
C11 H19 0.952 . S
C12 C11 1.379 . S
C12 C13 1.390 1_455 S
C12 H32 0.949 . S
C13 C12 1.390 1_655 S
C13 C14 1.357 . S
C14 C10 1.370 . S
C14 C13 1.357 . S
C14 H33 0.950 . S
Zn15 N9 2.020 . S
Zn15 O18 2.025 . S
Zn15 O23 2.024 1_655 S
Zn15 O25 2.039 1_655 S
Zn15 O27 2.034 . S
O16 C0 1.269 . S
O16 Zn7 2.039 1_655 S
C17 O22 1.246 . S
C17 O23 1.249 1_554 S
O18 C0 1.234 1_556 S
O18 Zn15 2.025 . S
H19 C11 0.952 . S
H20 C2 0.952 . S
H21 C10 0.948 . S
O22 Zn7 2.034 . S
O22 C17 1.246 . S
O23 Zn15 2.024 1_455 S
O23 C17 1.249 1_556 S
H24 C6 0.948 . S
O25 Zn15 2.039 1_455 S
O25 C29 1.265 . S
O26 Zn7 2.025 . S
O26 C29 1.239 1_554 S
O27 C8 1.246 . S
O27 Zn15 2.034 . S
O28 Zn7 2.024 1_655 S
O28 C8 1.249 1_554 S
C29 O25 1.265 . S
C29 O26 1.239 1_556 S
H30 C3 0.949 . S
H31 C5 0.950 . S
H32 C12 0.949 . S
H33 C14 0.950 . S
C34 O50 1.263 . S
C34 O52 1.241 1_554 S
N35 C36 1.333 1_545 S
N35 C40 1.307 . S
N35 Zn41 2.021 . S
C36 N35 1.333 1_565 S
C36 C37 1.379 . S
C36 H54 0.952 . S
C37 C36 1.379 . S
C37 C38 1.391 1_565 S
C37 H64 0.949 . S
C38 C37 1.391 1_545 S
C38 C39 1.355 . S
C39 C38 1.355 . S
C39 C40 1.370 . S
C39 H65 0.950 . S
C40 N35 1.307 . S
C40 C39 1.370 . S
C40 H58 0.948 . S
Zn41 N35 2.021 . S
Zn41 O50 2.034 1_545 S
Zn41 O56 2.052 . S
Zn41 O60 2.031 . S
Zn41 O62 2.006 1_545 S
C42 O61 1.246 1_554 S
C42 O62 1.249 . S
N43 C44 1.307 . S
N43 C45 1.333 1_565 S
N43 Zn49 2.020 . S
C44 N43 1.307 . S
C44 C48 1.370 . S
C44 H55 0.948 . S
C45 N43 1.333 1_545 S
C45 C46 1.379 . S
C45 H53 0.952 . S
C46 C45 1.379 . S
C46 C47 1.389 . S
C46 H66 0.949 . S
C47 C46 1.389 . S
C47 C48 1.358 1_545 S
C48 C44 1.370 . S
C48 C47 1.358 1_565 S
C48 H67 0.950 . S
Zn49 N43 2.020 . S
Zn49 O52 2.025 . S
Zn49 O57 2.026 1_565 S
Zn49 O59 2.039 1_565 S
Zn49 O61 2.033 . S
O50 C34 1.263 . S
O50 Zn41 2.034 1_565 S
C51 O56 1.246 1_556 S
C51 O57 1.249 . S
O52 C34 1.241 1_556 S
O52 Zn49 2.025 . S
H53 C45 0.952 . S
H54 C36 0.952 . S
H55 C44 0.948 . S
O56 Zn41 2.052 . S
O56 C51 1.246 1_554 S
O57 Zn49 2.026 1_545 S
O57 C51 1.249 . S
H58 C40 0.948 . S
O59 Zn49 2.039 1_545 S
O59 C63 1.258 . S
O60 Zn41 2.031 . S
O60 C63 1.246 1_554 S
O61 C42 1.246 1_556 S
O61 Zn49 2.033 . S
O62 Zn41 2.006 1_565 S
O62 C42 1.249 . S
C63 O59 1.258 . S
C63 O60 1.246 1_556 S
H64 C37 0.949 . S
H65 C39 0.950 . S
H66 C46 0.949 . S
H67 C48 0.950 . S
C68 O84 1.253 . S
C68 O86 1.251 1_556 S
N69 C70 1.333 . S
N69 C74 1.307 . S
N69 Zn75 2.020 . S
C70 N69 1.333 . S
C70 C71 1.379 . S
C70 H88 0.952 . S
C71 C70 1.379 . S
C71 C72 1.390 . S
C71 H98 0.949 . S
C72 C71 1.390 . S
C72 C73 1.357 . S
C73 C72 1.357 . S
C73 C74 1.370 . S
C73 H99 0.950 . S
C74 N69 1.307 . S
C74 C73 1.370 . S
C74 H92 0.948 . S
Zn75 N69 2.020 . S
Zn75 O84 2.039 . S
Zn75 O90 2.034 . S
Zn75 O94 2.025 . S
Zn75 O96 2.024 . S
C76 O95 1.246 . S
C76 O96 1.249 1_554 S
N77 C78 1.307 . S
N77 C79 1.333 . S
N77 Zn83 2.020 . S
C78 N77 1.307 . S
C78 C82 1.370 . S
C78 H89 0.948 . S
C79 N77 1.333 . S
C79 C80 1.379 . S
C79 H87 0.952 . S
C80 C79 1.379 . S
C80 C81 1.390 . S
C80 H100 0.949 . S
C81 C80 1.390 . S
C81 C82 1.357 . S
C82 C78 1.370 . S
C82 C81 1.357 . S
C82 H101 0.950 . S
Zn83 N77 2.020 . S
Zn83 O86 2.025 . S
Zn83 O91 2.024 . S
Zn83 O93 2.039 . S
Zn83 O95 2.034 . S
O84 C68 1.253 . S
O84 Zn75 2.039 . S
C85 O90 1.246 1_554 S
C85 O91 1.249 . S
O86 C68 1.251 1_554 S
O86 Zn83 2.025 . S
H87 C79 0.952 . S
H88 C70 0.952 . S
H89 C78 0.948 . S
O90 Zn75 2.034 . S
O90 C85 1.246 1_556 S
O91 Zn83 2.024 . S
O91 C85 1.249 . S
H92 C74 0.948 . S
O93 Zn83 2.039 . S
O93 C97 1.258 . S
O94 Zn75 2.025 . S
O94 C97 1.246 1_556 S
O95 C76 1.246 . S
O95 Zn83 2.034 . S
O96 Zn75 2.024 . S
O96 C76 1.249 1_556 S
C97 O93 1.258 . S
C97 O94 1.246 1_554 S
H98 C71 0.949 . S
H99 C73 0.950 . S
H100 C80 0.949 . S
H101 C82 0.950 . S
H102 C110 0.929 . S
H103 C112 0.930 . S
H104 C114 0.930 . S
H105 C117 0.929 . S
H106 C120 0.930 . S
H107 C122 0.960 . S
H108 C122 0.960 . S
H109 C122 0.960 . S
C110 H102 0.929 . S
C110 C111 1.377 . S
C110 C112 1.384 . S
C111 C110 1.377 . S
C111 C117 1.390 1_655 S
C112 H103 0.930 . S
C112 C110 1.384 . S
C112 C113 1.372 . S
C113 C112 1.372 . S
C113 C114 1.400 1_655 S
C113 C118 1.490 . S
C114 H104 0.930 . S
C114 C113 1.400 1_455 S
C114 C117 1.386 . S
H115 C131 0.930 . S
H116 C132 0.931 . S
C117 H105 0.929 . S
C117 C111 1.390 1_455 S
C117 C114 1.386 . S
C118 C113 1.490 . S
C118 C120 1.395 . S
C118 C121 1.403 1_655 S
H119 C125 0.930 . S
C120 H106 0.930 . S
C120 C118 1.395 . S
C120 C123 1.403 . S
C121 C118 1.403 1_455 S
C121 C122 1.524 . S
C121 C125 1.400 . S
C122 H107 0.960 . S
C122 H108 0.960 . S
C122 H109 0.960 . S
C122 C121 1.524 . S
C123 C120 1.403 . S
C123 C124 1.392 . S
C123 C127 1.495 . S
C124 C123 1.392 . S
C124 C125 1.385 1_655 S
C124 C126 1.478 . S
C125 H119 0.930 . S
C125 C121 1.400 . S
C125 C124 1.385 1_455 S
C126 C124 1.478 . S
C126 C128 1.381 . S
C126 C132 1.383 1_655 S
C127 C123 1.495 . S
C127 H133 0.959 . S
C127 H134 0.961 . S
C127 H135 0.960 . S
C128 C126 1.381 . S
C128 C129 1.394 . S
C128 H136 0.930 . S
C129 C128 1.394 . S
C129 C130 1.383 . S
C129 H137 0.929 . S
C130 C129 1.383 . S
C130 C131 1.378 1_655 S
C131 H115 0.930 . S
C131 C130 1.378 1_455 S
C131 C132 1.379 . S
C132 H116 0.931 . S
C132 C126 1.383 1_455 S
C132 C131 1.379 . S
H133 C127 0.959 . S
H134 C127 0.961 . S
H135 C127 0.960 . S
H136 C128 0.930 . S
H137 C129 0.929 . S
H138 C146 0.929 . S
H139 C148 0.930 . S
H140 C150 0.930 . S
H141 C153 0.929 . S
H142 C156 0.930 . S
H143 C158 0.960 . S
H144 C158 0.960 . S
H145 C158 0.960 . S
C146 H138 0.929 . S
C146 C147 1.377 . S
C146 C148 1.384 . S
C147 C146 1.377 . S
C147 C153 1.390 1_565 S
C148 H139 0.930 . S
C148 C146 1.384 . S
C148 C149 1.372 . S
C149 C148 1.372 . S
C149 C150 1.400 1_565 S
C149 C154 1.490 . S
C150 H140 0.930 . S
C150 C149 1.400 1_545 S
C150 C153 1.386 . S
H151 C167 0.930 . S
H152 C168 0.931 . S
C153 H141 0.929 . S
C153 C147 1.390 1_545 S
C153 C150 1.386 . S
C154 C149 1.490 . S
C154 C156 1.395 . S
C154 C157 1.403 1_565 S
H155 C161 0.930 . S
C156 H142 0.930 . S
C156 C154 1.395 . S
C156 C159 1.403 . S
C157 C154 1.403 1_545 S
C157 C158 1.524 . S
C157 C161 1.400 . S
C158 H143 0.960 . S
C158 H144 0.960 . S
C158 H145 0.960 . S
C158 C157 1.524 . S
C159 C156 1.403 . S
C159 C160 1.392 . S
C159 C163 1.495 . S
C160 C159 1.392 . S
C160 C161 1.385 1_565 S
C160 C162 1.478 . S
C161 H155 0.930 . S
C161 C157 1.400 . S
C161 C160 1.385 1_545 S
C162 C160 1.478 . S
C162 C164 1.381 . S
C162 C168 1.383 1_565 S
C163 C159 1.495 . S
C163 H169 0.959 . S
C163 H170 0.961 . S
C163 H171 0.960 . S
C164 C162 1.381 . S
C164 C165 1.394 . S
C164 H172 0.930 . S
C165 C164 1.394 . S
C165 C166 1.383 . S
C165 H173 0.929 . S
C166 C165 1.383 . S
C166 C167 1.377 1_565 S
C167 H151 0.930 . S
C167 C166 1.377 1_545 S
C167 C168 1.379 . S
C168 H152 0.931 . S
C168 C162 1.383 1_545 S
C168 C167 1.379 . S
H169 C163 0.959 . S
H170 C163 0.961 . S
H171 C163 0.960 . S
H172 C164 0.930 . S
H173 C165 0.929 . S
H174 C182 0.929 . S
H175 C184 0.930 . S
H176 C186 0.930 . S
H177 C189 0.929 . S
H178 C192 0.930 . S
H179 C194 0.960 . S
H180 C194 0.960 . S
H181 C194 0.960 . S
C182 H174 0.929 . S
C182 C183 1.377 . S
C182 C184 1.384 . S
C183 C182 1.377 . S
C183 C189 1.390 . S
C184 H175 0.930 . S
C184 C182 1.384 . S
C184 C185 1.372 . S
C185 C184 1.372 . S
C185 C186 1.400 . S
C185 C190 1.490 . S
C186 H176 0.930 . S
C186 C185 1.400 . S
C186 C189 1.386 . S
H187 C203 0.930 . S
H188 C204 0.931 . S
C189 H177 0.929 . S
C189 C183 1.390 . S
C189 C186 1.386 . S
C190 C185 1.490 . S
C190 C192 1.395 . S
C190 C193 1.403 . S
H191 C197 0.930 . S
C192 H178 0.930 . S
C192 C190 1.395 . S
C192 C195 1.403 . S
C193 C190 1.403 . S
C193 C194 1.524 . S
C193 C197 1.400 . S
C194 H179 0.960 . S
C194 H180 0.960 . S
C194 H181 0.960 . S
C194 C193 1.524 . S
C195 C192 1.403 . S
C195 C196 1.392 . S
C195 C199 1.495 . S
C196 C195 1.392 . S
C196 C197 1.385 . S
C196 C198 1.478 . S
C197 H191 0.930 . S
C197 C193 1.400 . S
C197 C196 1.385 . S
C198 C196 1.478 . S
C198 C200 1.381 . S
C198 C204 1.383 . S
C199 C195 1.495 . S
C199 H205 0.959 . S
C199 H206 0.961 . S
C199 H207 0.960 . S
C200 C198 1.381 . S
C200 C201 1.394 . S
C200 H208 0.930 . S
C201 C200 1.394 . S
C201 C202 1.383 . S
C201 H209 0.929 . S
C202 C201 1.383 . S
C202 C203 1.377 . S
C203 H187 0.930 . S
C203 C202 1.377 . S
C203 C204 1.379 . S
C204 H188 0.931 . S
C204 C198 1.383 . S
C204 C203 1.379 . S
H205 C199 0.959 . S
H206 C199 0.961 . S
H207 C199 0.960 . S
H208 C200 0.930 . S
H209 C201 0.929 . S
H210 C218 0.929 . S
H211 C220 0.930 . S
H212 C222 0.930 . S
H213 C225 0.929 . S
H214 C228 0.930 . S
H215 C230 0.960 . S
H216 C230 0.960 . S
H217 C230 0.960 1_556 S
C218 H210 0.929 . S
C218 C219 1.368 1_554 S
C218 C220 1.384 . S
C219 C218 1.368 1_556 S
C219 C225 1.400 . S
C220 H211 0.930 . S
C220 C218 1.384 . S
C220 C221 1.372 . S
C221 C220 1.372 . S
C221 C222 1.400 1_554 S
C221 C226 1.490 . S
C222 H212 0.930 . S
C222 C221 1.400 1_556 S
C222 C225 1.386 . S
H223 C239 0.930 . S
H224 C240 0.931 . S
C225 H213 0.929 . S
C225 C219 1.400 . S
C225 C222 1.386 . S
C226 C221 1.490 . S
C226 C228 1.395 . S
C226 C229 1.403 . S
H227 C233 0.930 . S
C228 H214 0.930 . S
C228 C226 1.395 . S
C228 C231 1.403 . S
C229 C226 1.403 . S
C229 C230 1.524 . S
C229 C233 1.400 . S
C230 H215 0.960 . S
C230 H216 0.960 . S
C230 H217 0.960 1_554 S
C230 C229 1.524 . S
C231 C228 1.403 . S
C231 C232 1.392 . S
C231 C235 1.496 . S
C232 C231 1.392 . S
C232 C233 1.385 . S
C232 C234 1.478 . S
C233 H227 0.930 . S
C233 C229 1.400 . S
C233 C232 1.385 . S
C234 C232 1.478 . S
C234 C236 1.389 . S
C234 C240 1.375 1_554 S
C235 C231 1.496 . S
C235 H241 0.961 . S
C235 H242 0.941 1_554 S
C235 H243 0.978 . S
C236 C234 1.389 . S
C236 C237 1.394 . S
C236 H244 0.930 . S
C237 C236 1.394 . S
C237 C238 1.393 . S
C237 H245 0.929 . S
C238 C237 1.393 . S
C238 C239 1.367 1_554 S
C239 H223 0.930 . S
C239 C238 1.367 1_556 S
C239 C240 1.379 . S
C240 H224 0.931 . S
C240 C234 1.375 1_556 S
C240 C239 1.379 . S
H241 C235 0.961 . S
H242 C235 0.941 1_556 S
H243 C235 0.978 . S
H244 C236 0.930 . S
H245 C237 0.929 . S
H246 C254 0.929 . S
H247 C256 0.930 . S
H248 C258 0.930 . S
H249 C261 0.929 . S
H250 C264 0.930 . S
H251 C266 0.960 . S
H252 C266 0.960 . S
H253 C266 0.960 . S
C254 H246 0.929 . S
C254 C255 1.377 . S
C254 C256 1.384 . S
C255 C254 1.377 . S
C255 C261 1.390 1_556 S
C256 H247 0.930 . S
C256 C254 1.384 . S
C256 C257 1.372 . S
C257 C256 1.372 . S
C257 C258 1.400 1_556 S
C257 C262 1.490 . S
C258 H248 0.930 . S
C258 C257 1.400 1_554 S
C258 C261 1.386 . S
H259 C275 0.930 . S
H260 C276 0.931 . S
C261 H249 0.929 . S
C261 C255 1.390 1_554 S
C261 C258 1.386 . S
C262 C257 1.490 . S
C262 C264 1.395 1_556 S
C262 C265 1.403 . S
H263 C269 0.930 . S
C264 H250 0.930 . S
C264 C262 1.395 1_554 S
C264 C267 1.403 . S
C265 C262 1.403 . S
C265 C266 1.524 . S
C265 C269 1.400 . S
C266 H251 0.960 . S
C266 H252 0.960 . S
C266 H253 0.960 . S
C266 C265 1.524 . S
C267 C264 1.403 . S
C267 C268 1.392 . S
C267 C271 1.495 . S
C268 C267 1.392 . S
C268 C269 1.385 1_554 S
C268 C270 1.478 . S
C269 H263 0.930 . S
C269 C265 1.400 . S
C269 C268 1.385 1_556 S
C270 C268 1.478 . S
C270 C272 1.381 1_554 S
C270 C276 1.383 . S
C271 C267 1.495 . S
C271 H277 0.959 . S
C271 H278 0.961 . S
C271 H279 0.960 . S
C272 C270 1.381 1_556 S
C272 C273 1.394 . S
C272 H280 0.930 . S
C273 C272 1.394 . S
C273 C274 1.384 . S
C273 H281 0.929 . S
C274 C273 1.384 . S
C274 C275 1.375 1_556 S
C275 H259 0.930 . S
C275 C274 1.375 1_554 S
C275 C276 1.379 . S
C276 H260 0.931 . S
C276 C270 1.383 . S
C276 C275 1.379 . S
H277 C271 0.959 . S
H278 C271 0.961 . S
H279 C271 0.960 . S
H280 C272 0.930 . S
H281 C273 0.929 . S
H282 C290 0.929 . S
H283 C292 0.930 . S
H284 C294 0.930 . S
H285 C297 0.929 . S
H286 C300 0.930 1_554 S
H287 C302 0.960 . S
H288 C302 0.960 . S
H289 C302 0.960 1_554 S
C290 H282 0.929 . S
C290 C291 1.386 . S
C290 C292 1.384 . S
C291 C290 1.386 . S
C291 C297 1.381 1_556 S
C292 H283 0.930 . S
C292 C290 1.384 . S
C292 C293 1.372 . S
C293 C292 1.372 . S
C293 C294 1.400 1_556 S
C293 C298 1.490 . S
C294 H284 0.930 . S
C294 C293 1.400 1_554 S
C294 C297 1.386 . S
H295 C311 0.930 . S
H296 C312 0.931 . S
C297 H285 0.929 . S
C297 C291 1.381 1_554 S
C297 C294 1.386 . S
C298 C293 1.490 . S
C298 C300 1.395 . S
C298 C301 1.403 . S
H299 C305 0.930 . S
C300 H286 0.930 1_556 S
C300 C298 1.395 . S
C300 C303 1.404 1_556 S
C301 C298 1.403 . S
C301 C302 1.524 . S
C301 C305 1.400 . S
C302 H287 0.960 . S
C302 H288 0.960 . S
C302 H289 0.960 1_556 S
C302 C301 1.524 . S
C303 C300 1.404 1_554 S
C303 C304 1.392 1_554 S
C303 C307 1.496 . S
C304 C303 1.392 1_556 S
C304 C305 1.385 . S
C304 C306 1.478 . S
C305 H299 0.930 . S
C305 C301 1.400 . S
C305 C304 1.385 . S
C306 C304 1.478 . S
C306 C308 1.391 . S
C306 C312 1.373 1_556 S
C307 C303 1.496 . S
C307 H313 0.959 . S
C307 H314 0.961 . S
C307 H315 0.960 1_554 S
C308 C306 1.391 . S
C308 C309 1.394 . S
C308 H316 0.930 . S
C309 C308 1.394 . S
C309 C310 1.401 . S
C309 H317 0.929 . S
C310 C309 1.401 . S
C310 C311 1.359 1_556 S
C311 H295 0.930 . S
C311 C310 1.359 1_554 S
C311 C312 1.379 . S
C312 H296 0.931 . S
C312 C306 1.373 1_554 S
C312 C311 1.379 . S
H313 C307 0.959 . S
H314 C307 0.961 . S
H315 C307 0.960 1_556 S
H316 C308 0.930 . S
H317 C309 0.929 . S
H318 C326 0.929 . S
H319 C328 0.930 . S
H320 C330 0.930 . S
H321 C333 0.929 . S
H322 C336 0.930 . S
H323 C338 0.960 . S
H324 C338 0.960 . S
H325 C338 0.960 . S
C326 H318 0.929 . S
C326 C327 1.377 1_556 S
C326 C328 1.384 . S
C327 C326 1.377 1_554 S
C327 C333 1.390 . S
C328 H319 0.930 . S
C328 C326 1.384 . S
C328 C329 1.368 1_556 S
C329 C328 1.368 1_554 S
C329 C330 1.403 . S
C329 C334 1.490 1_554 S
C330 H320 0.930 . S
C330 C329 1.403 . S
C330 C333 1.386 . S
H331 C347 0.930 . S
H332 C348 0.932 . S
C333 H321 0.929 . S
C333 C327 1.390 . S
C333 C330 1.386 . S
C334 C329 1.490 1_556 S
C334 C336 1.395 . S
C334 C337 1.403 1_556 S
H335 C341 0.930 . S
C336 H322 0.930 . S
C336 C334 1.395 . S
C336 C339 1.403 . S
C337 C334 1.403 1_554 S
C337 C338 1.524 . S
C337 C341 1.400 . S
C338 H323 0.960 . S
C338 H324 0.960 . S
C338 H325 0.960 . S
C338 C337 1.524 . S
C339 C336 1.403 . S
C339 C340 1.392 . S
C339 C343 1.495 . S
C340 C339 1.392 . S
C340 C341 1.385 1_556 S
C340 C342 1.478 . S
C341 H335 0.930 . S
C341 C337 1.400 . S
C341 C340 1.385 1_554 S
C342 C340 1.478 . S
C342 C344 1.381 . S
C342 C348 1.380 1_556 S
C343 C339 1.495 . S
C343 H349 0.959 . S
C343 H350 0.961 . S
C343 H351 0.960 . S
C344 C342 1.381 . S
C344 C345 1.394 . S
C344 H352 0.930 . S
C345 C344 1.394 . S
C345 C346 1.383 . S
C345 H353 0.929 . S
C346 C345 1.383 . S
C346 C347 1.377 1_556 S
C347 H331 0.930 . S
C347 C346 1.377 1_554 S
C347 C348 1.381 . S
C348 H332 0.932 . S
C348 C342 1.380 1_554 S
C348 C347 1.381 . S
H349 C343 0.959 . S
H350 C343 0.961 . S
H351 C343 0.960 . S
H352 C344 0.930 . S
H353 C345 0.929 . S
H354 C362 0.929 . S
H355 C364 0.930 . S
H356 C366 0.930 . S
H357 C369 0.929 . S
H358 C372 0.930 . S
H359 C374 0.960 . S
H360 C374 0.960 . S
H361 C374 0.960 . S
C362 H354 0.929 . S
C362 C363 1.377 1_556 S
C362 C364 1.384 . S
C363 C362 1.377 1_554 S
C363 C369 1.390 . S
C364 H355 0.930 . S
C364 C362 1.384 . S
C364 C365 1.372 1_556 S
C365 C364 1.372 1_554 S
C365 C366 1.400 . S
C365 C370 1.490 . S
C366 H356 0.930 . S
C366 C365 1.400 . S
C366 C369 1.386 . S
H367 C383 0.929 1_554 S
H368 C384 0.931 . S
C369 H357 0.929 . S
C369 C363 1.390 . S
C369 C366 1.386 . S
C370 C365 1.490 . S
C370 C372 1.395 1_554 S
C370 C373 1.403 . S
H371 C377 0.930 . S
C372 H358 0.930 . S
C372 C370 1.395 1_556 S
C372 C375 1.403 . S
C373 C370 1.403 . S
C373 C374 1.524 . S
C373 C377 1.400 . S
C374 H359 0.960 . S
C374 H360 0.960 . S
C374 H361 0.960 . S
C374 C373 1.524 . S
C375 C372 1.403 . S
C375 C376 1.392 . S
C375 C379 1.495 . S
C376 C375 1.392 . S
C376 C377 1.385 1_556 S
C376 C378 1.478 . S
C377 H371 0.930 . S
C377 C373 1.400 . S
C377 C376 1.385 1_554 S
C378 C376 1.478 . S
C378 C380 1.381 . S
C378 C384 1.383 . S
C379 C375 1.495 . S
C379 H385 0.959 . S
C379 H386 0.961 . S
C379 H387 0.960 . S
C380 C378 1.381 . S
C380 C381 1.394 . S
C380 H388 0.930 . S
C381 C380 1.394 . S
C381 C382 1.383 . S
C381 H389 0.929 . S
C382 C381 1.383 . S
C382 C383 1.377 . S
C383 H367 0.929 1_556 S
C383 C382 1.377 . S
C383 C384 1.379 . S
C384 H368 0.931 . S
C384 C378 1.383 . S
C384 C383 1.379 . S
H385 C379 0.959 . S
H386 C379 0.961 . S
H387 C379 0.960 . S
H388 C380 0.930 . S
H389 C381 0.929 . S
H390 C398 0.929 . S
H391 C400 0.930 . S
H392 C402 0.930 . S
H393 C405 0.929 . S
H394 C408 0.930 . S
H395 C410 0.960 . S
H396 C410 0.960 . S
H397 C410 0.960 . S
C398 H390 0.929 . S
C398 C399 1.377 . S
C398 C400 1.384 . S
C399 C398 1.377 . S
C399 C405 1.390 1_554 S
C400 H391 0.930 . S
C400 C398 1.384 . S
C400 C401 1.372 . S
C401 C400 1.372 . S
C401 C402 1.400 1_554 S
C401 C406 1.490 . S
C402 H392 0.930 . S
C402 C401 1.400 1_556 S
C402 C405 1.386 . S
H403 C419 0.930 . S
H404 C420 0.931 . S
C405 H393 0.929 . S
C405 C399 1.390 1_556 S
C405 C402 1.386 . S
C406 C401 1.490 . S
C406 C408 1.395 . S
C406 C409 1.403 1_554 S
H407 C413 0.930 . S
C408 H394 0.930 . S
C408 C406 1.395 . S
C408 C411 1.403 . S
C409 C406 1.403 1_556 S
C409 C410 1.524 . S
C409 C413 1.400 . S
C410 H395 0.960 . S
C410 H396 0.960 . S
C410 H397 0.960 . S
C410 C409 1.524 . S
C411 C408 1.403 . S
C411 C412 1.392 . S
C411 C415 1.495 . S
C412 C411 1.392 . S
C412 C413 1.385 1_554 S
C412 C414 1.478 . S
C413 H407 0.930 . S
C413 C409 1.400 . S
C413 C412 1.385 1_556 S
C414 C412 1.478 . S
C414 C416 1.381 . S
C414 C420 1.383 1_554 S
C415 C411 1.495 . S
C415 H421 0.959 . S
C415 H422 0.961 . S
C415 H423 0.960 . S
C416 C414 1.381 . S
C416 C417 1.394 . S
C416 H424 0.930 . S
C417 C416 1.394 . S
C417 C418 1.383 . S
C417 H425 0.929 . S
C418 C417 1.383 . S
C418 C419 1.377 1_554 S
C419 H403 0.930 . S
C419 C418 1.377 1_556 S
C419 C420 1.379 . S
C420 H404 0.931 . S
C420 C414 1.383 1_556 S
C420 C419 1.379 . S
H421 C415 0.959 . S
H422 C415 0.961 . S
H423 C415 0.960 . S
H424 C416 0.930 . S
H425 C417 0.929 . S
C111 C13 1.503 . S
C130 C4 1.500 1_655 S
C147 C38 1.498 1_565 S
C166 C47 1.490 1_565 S
C183 C72 1.498 . S
C202 C81 1.493 . S
C219 C29 0.984 . S
C238 C97 0.998 . S
C255 C63 0.990 . S
C274 C8 0.981 . S
C291 C42 0.994 1_556 S
C310 C85 0.999 1_556 S
C327 C0 0.991 . S
C346 C68 0.988 . S
C363 C17 0.991 . S
C382 C34 0.983 1_556 S
C399 C76 0.993 . S
C418 C51 1.001 1_554 S
