# Generated by pormake.
# Topology unp, (4)-cn, num edge types: 1
# Building blocks:
#     Node 0, Type 0, BuildingBlock: NAHDIM_clean_sbu_0, # of connection points: 4
#     Node 1, Type 0, BuildingBlock: NAHDIM_clean_sbu_0, # of connection points: 4
#     Node 2, Type 0, BuildingBlock: NAHDIM_clean_sbu_0, # of connection points: 4
#     Node 3, Type 0, BuildingBlock: NAHDIM_clean_sbu_0, # of connection points: 4
#     Node 4, Type 0, BuildingBlock: NAHDIM_clean_sbu_0, # of connection points: 4
#     Node 5, Type 0, BuildingBlock: NAHDIM_clean_sbu_0, # of connection points: 4
#     Node 6, Type 0, BuildingBlock: NAHDIM_clean_sbu_0, # of connection points: 4
#     Node 7, Type 0, BuildingBlock: NAHDIM_clean_sbu_0, # of connection points: 4
#     Node 8, Type 0, BuildingBlock: NAHDIM_clean_sbu_0, # of connection points: 4
#     Node 9, Type 0, BuildingBlock: NAHDIM_clean_sbu_0, # of connection points: 4
#     Node 10, Type 0, BuildingBlock: NAHDIM_clean_sbu_0, # of connection points: 4
#     Node 11, Type 0, BuildingBlock: NAHDIM_clean_sbu_0, # of connection points: 4
#     Node 12, Type 0, BuildingBlock: NAHDIM_clean_sbu_0, # of connection points: 4
#     Node 13, Type 0, BuildingBlock: NAHDIM_clean_sbu_0, # of connection points: 4
#     Node 14, Type 0, BuildingBlock: NAHDIM_clean_sbu_0, # of connection points: 4
#     Node 15, Type 0, BuildingBlock: NAHDIM_clean_sbu_0, # of connection points: 4
#     Node 16, Type 0, BuildingBlock: NAHDIM_clean_sbu_0, # of connection points: 4
#     Node 17, Type 0, BuildingBlock: NAHDIM_clean_sbu_0, # of connection points: 4
#     Edge 18, Type (0, 0), BuildingBlock: AJUNOK_clean_linker_0, # of connection points: 2
#     Edge 19, Type (0, 0), BuildingBlock: AJUNOK_clean_linker_0, # of connection points: 2
#     Edge 20, Type (0, 0), BuildingBlock: AJUNOK_clean_linker_0, # of connection points: 2
#     Edge 21, Type (0, 0), BuildingBlock: AJUNOK_clean_linker_0, # of connection points: 2
#     Edge 22, Type (0, 0), BuildingBlock: AJUNOK_clean_linker_0, # of connection points: 2
#     Edge 23, Type (0, 0), BuildingBlock: AJUNOK_clean_linker_0, # of connection points: 2
#     Edge 24, Type (0, 0), BuildingBlock: AJUNOK_clean_linker_0, # of connection points: 2
#     Edge 25, Type (0, 0), BuildingBlock: AJUNOK_clean_linker_0, # of connection points: 2
#     Edge 26, Type (0, 0), BuildingBlock: AJUNOK_clean_linker_0, # of connection points: 2
#     Edge 27, Type (0, 0), BuildingBlock: AJUNOK_clean_linker_0, # of connection points: 2
#     Edge 28, Type (0, 0), BuildingBlock: AJUNOK_clean_linker_0, # of connection points: 2
#     Edge 29, Type (0, 0), BuildingBlock: AJUNOK_clean_linker_0, # of connection points: 2
#     Edge 30, Type (0, 0), BuildingBlock: AJUNOK_clean_linker_0, # of connection points: 2
#     Edge 31, Type (0, 0), BuildingBlock: AJUNOK_clean_linker_0, # of connection points: 2
#     Edge 32, Type (0, 0), BuildingBlock: AJUNOK_clean_linker_0, # of connection points: 2
#     Edge 33, Type (0, 0), BuildingBlock: AJUNOK_clean_linker_0, # of connection points: 2
#     Edge 34, Type (0, 0), BuildingBlock: AJUNOK_clean_linker_0, # of connection points: 2
#     Edge 35, Type (0, 0), BuildingBlock: AJUNOK_clean_linker_0, # of connection points: 2
#     Edge 36, Type (0, 0), BuildingBlock: AJUNOK_clean_linker_0, # of connection points: 2
#     Edge 37, Type (0, 0), BuildingBlock: AJUNOK_clean_linker_0, # of connection points: 2
#     Edge 38, Type (0, 0), BuildingBlock: AJUNOK_clean_linker_0, # of connection points: 2
#     Edge 39, Type (0, 0), BuildingBlock: AJUNOK_clean_linker_0, # of connection points: 2
#     Edge 40, Type (0, 0), BuildingBlock: AJUNOK_clean_linker_0, # of connection points: 2
#     Edge 41, Type (0, 0), BuildingBlock: AJUNOK_clean_linker_0, # of connection points: 2
#     Edge 42, Type (0, 0), BuildingBlock: AJUNOK_clean_linker_0, # of connection points: 2
#     Edge 43, Type (0, 0), BuildingBlock: AJUNOK_clean_linker_0, # of connection points: 2
#     Edge 44, Type (0, 0), BuildingBlock: AJUNOK_clean_linker_0, # of connection points: 2
#     Edge 45, Type (0, 0), BuildingBlock: AJUNOK_clean_linker_0, # of connection points: 2
#     Edge 46, Type (0, 0), BuildingBlock: AJUNOK_clean_linker_0, # of connection points: 2
#     Edge 47, Type (0, 0), BuildingBlock: AJUNOK_clean_linker_0, # of connection points: 2
#     Edge 48, Type (0, 0), BuildingBlock: AJUNOK_clean_linker_0, # of connection points: 2
#     Edge 49, Type (0, 0), BuildingBlock: AJUNOK_clean_linker_0, # of connection points: 2
#     Edge 50, Type (0, 0), BuildingBlock: AJUNOK_clean_linker_0, # of connection points: 2
#     Edge 51, Type (0, 0), BuildingBlock: AJUNOK_clean_linker_0, # of connection points: 2
#     Edge 52, Type (0, 0), BuildingBlock: AJUNOK_clean_linker_0, # of connection points: 2
#     Edge 53, Type (0, 0), BuildingBlock: AJUNOK_clean_linker_0, # of connection points: 2
# Relax obj value: 0.391
# Max RMSD: 0.208
# Mean RMSD: 0.206
data_MOF--net-unp--node1-NAHDIM_clean_sbu_0--edge1-AJUNOK_clean_linker_0
_symmetry_space_group_name_H-M    P1
_symmetry_Int_Tables_number       1
_symmetry_cell_setting            triclinic
loop_
_symmetry_equiv_pos_as_xyz
'x, y, z'
_cell_length_a     34.668626
_cell_length_b     34.695837
_cell_length_c     46.380951
_cell_angle_alpha  90.206606
_cell_angle_beta   89.785156
_cell_angle_gamma 120.29826
loop_
_atom_site_label
_atom_site_type_symbol
_atom_site_fract_x
_atom_site_fract_y
_atom_site_fract_z
_atom_type_partial_charge
C0 C 0.22824 0.21482 0.15916 0.0
O1 O 0.19666 0.17716 0.17019 0.0
O2 O 0.15744 0.11741 0.11914 0.0
Zn3 Zn 0.1734 0.1803 0.10893 0.0
O4 O 0.19274 0.18989 0.06742 0.0
C5 C 0.09177 0.16319 0.13545 0.0
O6 O 0.10699 0.14827 0.15583 0.0
O7 O 0.22438 0.22424 0.13332 0.0
C8 C 0.16608 0.18593 0.04742 0.0
O9 O 0.12562 0.17713 0.05423 0.0
C10 C 0.12051 0.08688 0.10904 0.0
O11 O 0.09753 0.09781 0.09187 0.0
O12 O 0.1171 0.18339 0.11414 0.0
C13 C 0.74013 0.99684 0.12385 0.0
O14 O 0.73552 -0.00012 0.09599 0.0
O15 O 0.87835 0.03494 0.12139 0.0
Zn16 Zn 0.81732 0.99055 0.10657 0.0
O17 O 0.81219 0.00634 0.06558 0.0
C18 C 0.82911 0.91954 0.12752 0.0
O19 O 0.84185 0.94457 0.15083 0.0
O20 O 0.77159 0.99136 0.13281 0.0
C21 C 0.78922 0.97582 0.0474 0.0
O22 O 0.76675 0.93425 0.05628 0.0
C23 C 0.9024 0.07422 0.1116 0.0
O24 O 0.88676 0.08806 0.0908 0.0
O25 O 0.81433 0.93132 0.10636 0.0
C26 C 0.98074 0.72909 0.12169 0.0
O27 O 0.96567 0.72221 0.09513 0.0
O28 O 0.94216 0.82008 0.12061 0.0
Zn29 Zn 0.9958 0.8157 0.10878 0.0
O30 O 0.99048 0.8016 0.06626 0.0
C31 C 0.04416 0.89982 0.136 0.0
O32 O 0.01163 0.87919 0.15477 0.0
O33 O -0.00254 0.76811 0.13228 0.0
C34 C 0.01234 0.83168 0.04763 0.0
O35 O 0.0406 0.87243 0.05635 0.0
C36 C 0.90997 0.81266 0.10409 0.0
O37 O 0.90821 0.79634 0.07823 0.0
O38 O 0.04825 0.8774 0.11574 0.0
C39 C 0.2428 0.25893 0.86122 0.0
O40 O 0.22123 0.25915 0.8845 0.0
O41 O 0.12044 0.15834 0.85113 0.0
Zn42 Zn 0.17875 0.16672 0.86522 0.0
O43 O 0.17632 0.16989 0.90838 0.0
C44 C 0.18128 0.08418 0.86953 0.0
O45 O 0.19709 0.09843 0.89552 0.0
O46 O 0.23052 0.22203 0.8485 0.0
C47 C 0.20864 0.18446 0.92601 0.0
O48 O 0.2492 0.19855 0.91621 0.0
C49 C 0.09721 0.17165 0.86451 0.0
O50 O 0.11482 0.19869 0.88663 0.0
O51 O 0.17604 0.10993 0.85268 0.0
C52 C 0.73173 0.00614 0.85462 0.0
O53 O 0.7286 0.00287 0.88284 0.0
O54 O 0.82082 0.95636 0.84708 0.0
Zn55 Zn 0.81432 0.00646 0.86414 0.0
O56 O 0.79874 0.993 0.90614 0.0
C57 C 0.90669 0.0547 0.86549 0.0
O58 O 0.89713 0.0146 0.87355 0.0
O59 O 0.76632 0.01003 0.84232 0.0
C60 C 0.81185 0.0228 0.9256 0.0
O61 O 0.83596 0.06498 0.91818 0.0
C62 C 0.80657 0.9189 0.8594 0.0
O63 O 0.78158 0.90987 0.88256 0.0
O64 O 0.87504 0.06215 0.86035 0.0
C65 C 0.97507 0.73574 0.854 0.0
O66 O 0.96363 0.72866 0.88132 0.0
O67 O 0.02978 0.87962 0.85178 0.0
Zn68 Zn 0.9798 0.82 0.86487 0.0
O69 O 0.99268 0.81752 0.90668 0.0
C70 C 0.91535 0.83874 0.8401 0.0
O71 O 0.94481 0.85405 0.81905 0.0
O72 O 0.98141 0.77153 0.84227 0.0
C73 C 0.96401 0.79847 0.92654 0.0
O74 O 0.92143 0.77495 0.91988 0.0
C75 C 0.06917 0.89321 0.86085 0.0
O76 O 0.07673 0.86633 0.87661 0.0
O77 O 0.92207 0.82002 0.86142 0.0
C78 C 0.9213 0.60451 0.4782 0.0
O79 O 0.92221 0.61723 0.45146 0.0
O80 O 0.81643 0.46482 0.47145 0.0
Zn81 Zn 0.83847 0.52783 0.45999 0.0
O82 O 0.86059 0.53409 0.41907 0.0
C83 C 0.75405 0.50975 0.44261 0.0
O84 O 0.76601 0.49324 0.42115 0.0
O85 O 0.88747 0.56864 0.4869 0.0
C86 C 0.85934 0.56046 0.40067 0.0
O87 O 0.84526 0.58759 0.40881 0.0
C88 C 0.83243 0.44036 0.46436 0.0
O89 O 0.87044 0.45799 0.45016 0.0
O90 O 0.78201 0.5309 0.46256 0.0
C91 C 0.40787 0.32111 0.47783 0.0
O92 O 0.39531 0.30844 0.45111 0.0
O93 O 0.54965 0.37218 0.46556 0.0
Zn94 Zn 0.48709 0.32056 0.4595 0.0
O95 O 0.47135 0.32399 0.41846 0.0
C96 C 0.51158 0.25951 0.48338 0.0
O97 O 0.53157 0.29164 0.5025 0.0
O98 O 0.44499 0.32636 0.48641 0.0
C99 C 0.49605 0.32128 0.39926 0.0
O100 O 0.5286 0.31473 0.40734 0.0
C101 C 0.56306 0.40868 0.45213 0.0
O102 O 0.53479 0.41356 0.43596 0.0
O103 O 0.48794 0.26342 0.46406 0.0
C104 C 0.6808 0.07642 0.4658 0.0
O105 O 0.67825 0.07578 0.43754 0.0
O106 O 0.6241 0.15834 0.47533 0.0
Zn107 Zn 0.67819 0.15776 0.45951 0.0
O108 O 0.6726 0.14931 0.41624 0.0
C109 C 0.71907 0.24868 0.46043 0.0
O110 O 0.68116 0.23542 0.44694 0.0
O111 O 0.68338 0.10941 0.4795 0.0
C112 C 0.7053 0.17394 0.39982 0.0
O113 O 0.74385 0.20292 0.41125 0.0
C114 C 0.59021 0.1503 0.46036 0.0
O115 O 0.58657 0.13435 0.43415 0.0
O116 O 0.72911 0.21973 0.46823 0.0
C117 C 0.91675 0.58128 0.2008 0.0
O118 O 0.92671 0.58853 0.22832 0.0
O119 O 0.77716 0.4885 0.21132 0.0
Zn120 Zn 0.83878 0.50149 0.22166 0.0
O121 O 0.85063 0.52702 0.26168 0.0
C122 C 0.81857 0.41672 0.19986 0.0
O123 O 0.80537 0.43121 0.17802 0.0
O124 O 0.88195 0.54545 0.19315 0.0
C125 C 0.872 0.51937 0.28078 0.0
O126 O 0.88895 0.49404 0.27424 0.0
C127 C 0.76205 0.51347 0.21929 0.0
O128 O 0.78824 0.55028 0.23362 0.0
O129 O 0.83712 0.44271 0.22114 0.0
C130 C 0.40124 0.2964 0.21396 0.0
O131 O 0.40505 0.27455 0.23579 0.0
O132 O 0.50123 0.28278 0.20062 0.0
Zn133 Zn 0.49433 0.33317 0.21608 0.0
O134 O 0.49527 0.32991 0.25929 0.0
C135 C 0.56965 0.42368 0.21877 0.0
O136 O 0.54965 0.42639 0.24213 0.0
O137 O 0.43657 0.32614 0.20165 0.0
C138 C 0.47735 0.3444 0.27689 0.0
O139 O 0.45616 0.36401 0.26692 0.0
C140 C 0.48757 0.24631 0.21408 0.0
O141 O 0.46564 0.23987 0.23841 0.0
O142 O 0.54962 0.38896 0.2031 0.0
C143 C 0.66443 0.06813 0.20461 0.0
O144 O 0.66705 0.06505 0.23266 0.0
O145 O 0.6979 0.20411 0.20648 0.0
Zn146 Zn 0.65193 0.14223 0.21958 0.0
O147 O 0.66253 0.13655 0.26165 0.0
C148 C 0.58545 0.15547 0.19376 0.0
O149 O 0.61397 0.1679 0.17224 0.0
O150 O 0.6565 0.09744 0.19456 0.0
C151 C 0.67027 0.16972 0.27742 0.0
O152 O 0.66935 0.20374 0.26584 0.0
C153 C 0.73785 0.22594 0.21564 0.0
O154 O 0.75224 0.20667 0.23349 0.0
O155 O 0.59284 0.13902 0.21604 0.0
C156 C 0.57205 0.93421 0.78552 0.0
O157 O 0.57371 0.93531 0.75723 0.0
O158 O 0.47814 0.79817 0.78414 0.0
Zn159 Zn 0.48485 0.85798 0.7752 0.0
O160 O 0.49469 0.86589 0.73233 0.0
C161 C 0.40401 0.8309 0.80632 0.0
O162 O 0.4231 0.81641 0.82428 0.0
O163 O 0.53633 0.90519 0.79785 0.0
C164 C 0.46491 0.83483 0.71693 0.0
O165 O 0.42948 0.80259 0.72978 0.0
C166 C 0.4991 0.78336 0.76965 0.0
O167 O 0.52878 0.8092 0.75044 0.0
O168 O 0.42604 0.85336 0.78451 0.0
C169 C 0.05897 0.65215 0.79327 0.0
O170 O 0.0641 0.65617 0.76517 0.0
O171 O 0.19436 0.69156 0.80588 0.0
Zn172 Zn 0.13657 0.6426 0.78948 0.0
O173 O 0.14003 0.65329 0.74677 0.0
C174 C 0.15511 0.58086 0.81738 0.0
O175 O 0.16777 0.61094 0.83795 0.0
O176 O 0.08511 0.64433 0.80798 0.0
C177 C 0.17539 0.65895 0.73454 0.0
O178 O 0.20535 0.6561 0.75019 0.0
C179 C 0.21186 0.73157 0.79707 0.0
O180 O 0.18945 0.74179 0.7789 0.0
O181 O 0.13589 0.58509 0.79537 0.0
C182 C 0.34692 0.42553 0.80148 0.0
O183 O 0.3543 0.42486 0.77375 0.0
O184 O 0.29457 0.51375 0.80243 0.0
Zn185 Zn 0.34351 0.50476 0.78708 0.0
O186 O 0.32934 0.48356 0.74585 0.0
C187 C 0.39987 0.59216 0.7693 0.0
O188 O 0.36698 0.57756 0.75067 0.0
O189 O 0.34496 0.4584 0.81192 0.0
C190 C 0.36038 0.49251 0.72779 0.0
O191 O 0.40207 0.51362 0.73658 0.0
C192 C 0.25406 0.49194 0.79444 0.0
O193 O 0.24204 0.46072 0.77469 0.0
O194 O 0.39893 0.56577 0.78862 0.0
C195 C 0.60476 0.91171 0.52915 0.0
O196 O 0.60873 0.90967 0.55718 0.0
O197 O 0.46366 0.81393 0.52191 0.0
Zn198 Zn 0.52306 0.8281 0.5381 0.0
O199 O 0.52261 0.84237 0.58012 0.0
C200 C 0.50772 0.74753 0.51254 0.0
O201 O 0.49729 0.76469 0.49081 0.0
O202 O 0.57188 0.87945 0.51642 0.0
C203 C 0.48934 0.81383 0.59469 0.0
O204 O 0.45888 0.77743 0.58169 0.0
C205 C 0.44362 0.83486 0.52858 0.0
O206 O 0.46358 0.86976 0.5457 0.0
O207 O 0.5249 0.77145 0.53486 0.0
C208 C 0.08224 0.66674 0.54556 0.0
O209 O 0.07907 0.65113 0.57177 0.0
O210 O 0.17529 0.63222 0.54281 0.0
Zn211 Zn 0.17199 0.68691 0.55297 0.0
O212 O 0.16606 0.68735 0.59597 0.0
C213 C 0.25125 0.73653 0.51975 0.0
O214 O 0.2299 0.70158 0.50284 0.0
O215 O 0.11995 0.68513 0.53295 0.0
C216 C 0.19735 0.68812 0.61061 0.0
O217 O 0.23152 0.69012 0.59686 0.0
C218 C 0.15389 0.5953 0.55608 0.0
O219 O 0.12568 0.59106 0.57653 0.0
O220 O 0.23107 0.7397 0.54176 0.0
C221 C 0.34277 0.41998 0.54091 0.0
O222 O 0.36755 0.44376 0.56267 0.0
O223 O 0.36779 0.53927 0.5277 0.0
Zn224 Zn 0.31724 0.48486 0.54616 0.0
O225 O 0.32949 0.49026 0.58883 0.0
C226 C 0.23294 0.48342 0.55584 0.0
O227 O 0.23249 0.46544 0.58078 0.0
O228 O 0.31589 0.43042 0.52966 0.0
C229 C 0.31107 0.45873 0.607 0.0
O230 O 0.27981 0.41898 0.5984 0.0
C231 C 0.4076 0.55956 0.53713 0.0
O232 O 0.41778 0.54311 0.55938 0.0
O233 O 0.26308 0.49005 0.53758 0.0
C234 C 0.31861 0.24624 0.21488 0.0
C235 C 0.35648 0.28183 0.2018 0.0
C236 C 0.27672 0.22656 0.2017 0.0
C237 C 0.27088 0.24162 0.17486 0.0
H238 H 0.32151 0.23203 0.23495 0.0
H239 H 0.24917 0.19798 0.21213 0.0
S240 S 0.35775 0.33879 0.13388 0.0
N241 N 0.38435 0.33505 0.16221 0.0
N242 N 0.30545 0.29808 0.13738 0.0
C243 C 0.30771 0.27946 0.16259 0.0
C244 C 0.35053 0.29955 0.17606 0.0
C245 C 0.69224 0.02973 0.13505 0.0
C246 C 0.7143 0.00752 0.14465 0.0
C247 C 0.67413 0.04715 0.15463 0.0
C248 C 0.67708 0.04284 0.18461 0.0
H249 H 0.69083 0.03579 0.11229 0.0
H250 H 0.65925 0.06569 0.14612 0.0
S251 S 0.72491 0.98092 0.22064 0.0
N252 N 0.73333 0.97732 0.18593 0.0
N253 N 0.6991 0.00986 0.22278 0.0
C254 C 0.69603 0.0177 0.19443 0.0
C255 C 0.71472 0.00014 0.17444 0.0
C256 C 0.9657 0.66214 0.18939 0.0
C257 C 0.9402 0.61779 0.17966 0.0
C258 C 0.98101 0.698 0.17021 0.0
C259 C 0.97156 0.69091 0.14053 0.0
H260 H 0.97182 0.66945 0.21219 0.0
H261 H -0.0015 0.73152 0.179 0.0
S262 S 0.91348 0.58087 0.10348 0.0
N263 N 0.91154 0.56857 0.13799 0.0
N264 N 0.94049 0.6359 0.10186 0.0
C265 C 0.94938 0.64665 0.13022 0.0
C266 C 0.93364 0.61012 0.1498 0.0
C267 C 0.31469 0.34305 0.80449 0.0
C268 C 0.32954 0.38411 0.81865 0.0
C269 C 0.28875 0.30251 0.81891 0.0
C270 C 0.27672 0.30152 0.84801 0.0
H271 H 0.32071 0.342 0.78165 0.0
H272 H 0.27604 0.27185 0.80665 0.0
S273 S 0.31529 0.39958 0.89643 0.0
N274 N 0.33632 0.42118 0.86457 0.0
N275 N 0.28756 0.34496 0.89166 0.0
C276 C 0.29477 0.34222 0.86309 0.0
C277 C 0.32124 0.38352 0.84842 0.0
C278 C 0.64948 0.97441 0.84994 0.0
C279 C 0.69211 0.99632 0.83714 0.0
C280 C 0.61076 0.95679 0.83315 0.0
C281 C 0.61311 0.96059 0.80289 0.0
H282 H 0.64575 0.9685 0.87297 0.0
H283 H 0.57878 0.93824 0.84397 0.0
S284 S 0.71686 0.02244 0.75939 0.0
N285 N 0.73456 0.0263 0.79284 0.0
N286 N 0.6618 0.99345 0.76122 0.0
C287 C 0.65555 0.98582 0.79005 0.0
C288 C 0.69504 0.00357 0.80719 0.0
C289 C 0.01626 0.69229 0.79351 0.0
C290 C 0.02957 0.66545 0.80807 0.0
C291 C 0.99612 0.71277 0.80831 0.0
C292 C 0.98806 0.70684 0.83818 0.0
H293 H 0.02375 0.69978 0.77083 0.0
H294 H 0.9886 0.73499 0.7964 0.0
S295 S 0.0095 0.63331 0.88526 0.0
N296 N 0.02817 0.62935 0.85324 0.0
N297 N 0.98988 0.66751 0.88108 0.0
C298 C -0.00228 0.677 0.85252 0.0
C299 C 0.01864 0.65643 0.83746 0.0
C300 C 0.9603 0.61124 0.52471 0.0
C301 C 0.96182 0.62683 0.49651 0.0
C302 C -0.00077 0.62617 0.54095 0.0
C303 C 0.04136 0.65717 0.52964 0.0
H304 H 0.92899 0.58591 0.534 0.0
H305 H 0.99628 0.61166 0.56206 0.0
S306 S 0.0631 0.71365 0.45865 0.0
N307 N 0.00859 0.67904 0.45925 0.0
N308 N 0.08181 0.70693 0.4898 0.0
C309 C 0.04313 0.67538 0.50227 0.0
C310 C 0.00336 0.66031 0.48572 0.0
C311 C 0.33969 0.37461 0.49804 0.0
C312 C 0.3518 0.3869 0.52697 0.0
C313 C 0.35551 0.35045 0.48272 0.0
C314 C 0.384 0.33779 0.49581 0.0
H315 H 0.32006 0.38591 0.48658 0.0
H316 H 0.34746 0.34408 0.46003 0.0
S317 S 0.4177 0.35357 0.57275 0.0
N318 N 0.38814 0.37855 0.56934 0.0
N319 N 0.41796 0.33333 0.54054 0.0
C320 C 0.39305 0.34643 0.5254 0.0
C321 C 0.37692 0.37095 0.54099 0.0
C322 C 0.64852 0.99395 0.46745 0.0
C323 C 0.67071 0.03542 0.48168 0.0
C324 C 0.62978 0.95393 0.48291 0.0
C325 C 0.63285 0.95378 0.51316 0.0
H326 H 0.64303 0.99219 0.44439 0.0
H327 H 0.61087 0.92292 0.47111 0.0
S328 S 0.69509 0.0535 0.56 0.0
N329 N 0.70024 0.074 0.52723 0.0
N330 N 0.66532 -0.00127 0.55634 0.0
C331 C 0.65856 0.99495 0.52737 0.0
C332 C 0.67737 0.03579 0.51161 0.0
C333 C 0.02644 0.15865 0.10943 0.0
C334 C 0.0431 0.14643 0.1332 0.0
C335 C 0.98057 0.13678 0.10348 0.0
C336 C 0.94956 0.10158 0.12094 0.0
H337 H 0.0491 0.18393 0.09446 0.0
H338 H 0.96971 0.14609 0.0842 0.0
S339 S 0.97491 0.06103 0.18821 0.0
N340 N 0.0241 0.10017 0.17623 0.0
N341 N 0.93812 0.05892 0.16484 0.0
C342 C 0.96538 0.09108 0.14587 0.0
C343 C 0.01205 0.11358 0.15208 0.0
C344 C 0.86784 0.87943 0.1442 0.0
C345 C 0.84091 0.88425 0.1236 0.0
C346 C 0.88743 0.85345 0.13849 0.0
C347 C 0.88096 0.83122 0.11192 0.0
H348 H 0.8761 0.89789 0.16429 0.0
H349 H 0.90983 0.85292 0.15449 0.0
S350 S 0.80614 0.82584 0.05298 0.0
N351 N 0.80332 0.85919 0.07729 0.0
N352 N 0.84029 0.81048 0.06651 0.0
C353 C 0.85079 0.83239 0.0922 0.0
C354 C 0.83077 0.85889 0.09804 0.0
C355 C 0.129 0.02116 0.12082 0.0
C356 C 0.10161 0.04008 0.11803 0.0
C357 C 0.1105 0.97563 0.12728 0.0
C358 C 0.0644 0.94832 0.13222 0.0
H359 H 0.16462 0.04124 0.11694 0.0
H360 H 0.13221 0.96162 0.12817 0.0
S361 S 0.97884 0.98241 0.12863 0.0
N362 N 0.02641 0.02833 0.12121 0.0
N363 N 0.99199 0.94348 0.1343 0.0
C364 C 0.03701 0.9673 0.13042 0.0
C365 C 0.05556 0.01308 0.12309 0.0
C366 C 0.13712 0.96066 0.87975 0.0
C367 C 0.10341 0.94112 0.85873 0.0
C368 C 0.16447 0.00711 0.88182 0.0
C369 C 0.15949 0.03579 0.86278 0.0
H370 H 0.14066 0.94019 0.89591 0.0
H371 H 0.18814 0.02062 0.89943 0.0
S372 S 0.08121 0.00061 0.80071 0.0
N373 N 0.0702 0.95342 0.81629 0.0
N374 N 0.1219 0.04065 0.81977 0.0
C375 C 0.1285 0.01639 0.84005 0.0
C376 C 0.10033 0.96908 0.83818 0.0
C377 C 0.02808 0.10518 0.84639 0.0
C378 C 0.04815 0.1471 0.86018 0.0
C379 C 0.98188 0.07646 0.84717 0.0
C380 C 0.95378 0.08891 0.86104 0.0
H381 H 0.04824 0.09304 0.8364 0.0
H382 H 0.96814 0.04355 0.83763 0.0
S383 S 0.98829 0.19685 0.89709 0.0
N384 N 0.03565 0.2011 0.886 0.0
N385 N 0.94818 0.14707 0.88658 0.0
C386 C 0.97268 0.13183 0.87299 0.0
C387 C 0.02007 0.16096 0.87277 0.0
C388 C 0.88259 0.88438 0.82321 0.0
C389 C 0.88045 0.85148 0.84188 0.0
C390 C 0.85617 0.90381 0.8279 0.0
C391 C 0.82635 0.89103 0.85139 0.0
H392 H 0.90666 0.89722 0.80575 0.0
H393 H 0.86097 0.9307 0.8138 0.0
S394 S 0.80204 0.80028 0.90339 0.0
N395 N 0.84164 0.80251 0.88238 0.0
N396 N 0.79184 0.83888 0.89116 0.0
C397 C 0.82098 0.85535 0.86869 0.0
C398 C 0.84809 0.83565 0.86396 0.0
C399 C 0.68534 0.47327 0.47279 0.0
C400 C 0.70615 0.49359 0.44663 0.0
C401 C 0.63866 0.44729 0.47483 0.0
C402 C 0.61133 0.44177 0.451 0.0
H403 H 0.70525 0.47471 0.49116 0.0
H404 H 0.62394 0.43009 0.49488 0.0
S405 S 0.64988 0.49158 0.37844 0.0
N406 N 0.69633 0.50868 0.39699 0.0
N407 N 0.60856 0.4613 0.401 0.0
C408 C 0.63178 0.46445 0.4253 0.0
C409 C 0.67926 0.48998 0.42307 0.0
C410 C 0.55745 0.22612 0.49865 0.0
C411 C 0.52395 0.22439 0.48075 0.0
C412 C 0.57634 0.19942 0.49317 0.0
C413 C 0.56263 0.16993 0.46947 0.0
H414 H 0.57108 0.25 0.51617 0.0
H415 H 0.60377 0.20406 0.50669 0.0
S416 S 0.47015 0.14655 0.41925 0.0
N417 N 0.47336 0.18604 0.44078 0.0
N418 N 0.50906 0.13603 0.43043 0.0
C419 C 0.5265 0.16503 0.4529 0.0
C420 C 0.50712 0.1922 0.45854 0.0
C421 C 0.82247 0.36355 0.46212 0.0
C422 C 0.80445 0.39128 0.4677 0.0
C423 C 0.7951 0.31688 0.46143 0.0
C424 C 0.7488 0.29664 0.4658 0.0
H425 H 0.85773 0.37799 0.4574 0.0
H426 H 0.80987 0.29673 0.45599 0.0
S427 S 0.68528 0.35321 0.48398 0.0
N428 N 0.73739 0.39412 0.48009 0.0
N429 N 0.68642 0.30685 0.47817 0.0
C430 C 0.73067 0.32364 0.47272 0.0
C431 C 0.75837 0.37089 0.47388 0.0
C432 C 0.75337 0.29212 0.18603 0.0
C433 C 0.76466 0.27443 0.20962 0.0
C434 C 0.7731 0.33825 0.18212 0.0
C435 C 0.80454 0.36868 0.20188 0.0
H436 H 0.72793 0.27013 0.17089 0.0
H437 H 0.76189 0.34994 0.16417 0.0
S438 S 0.84891 0.3396 0.26581 0.0
N439 N 0.81206 0.29095 0.25181 0.0
N440 N 0.84889 0.37775 0.24465 0.0
C441 C 0.81801 0.3515 0.22471 0.0
C442 C 0.79817 0.30437 0.22853 0.0
C443 C 0.68862 0.46287 0.19613 0.0
C444 C 0.71385 0.49761 0.21571 0.0
C445 C 0.64197 0.44162 0.19561 0.0
C446 C 0.61851 0.45383 0.21495 0.0
H447 H 0.70488 0.45063 0.18183 0.0
H448 H 0.62423 0.4136 0.18107 0.0
S449 S 0.66923 0.54748 0.26745 0.0
N450 N 0.71229 0.54701 0.25251 0.0
N451 N 0.62445 0.50675 0.25174 0.0
C452 C 0.64348 0.4909 0.23305 0.0
C453 C 0.69118 0.51285 0.2334 0.0
C454 C 0.50363 0.18561 0.2258 0.0
C455 C 0.50405 0.21592 0.20557 0.0
C456 C 0.52728 0.16335 0.2208 0.0
C457 C 0.55219 0.1704 0.19531 0.0
H458 H 0.48728 0.18105 0.24649 0.0
H459 H 0.5281 0.14251 0.23784 0.0
S460 S 0.55582 0.23879 0.13279 0.0
N461 N 0.52534 0.24627 0.15714 0.0
N462 N 0.56968 0.20429 0.14762 0.0
C463 C 0.54913 0.19712 0.17369 0.0
C464 C 0.52515 0.21996 0.17886 0.0
C465 C 0.28216 0.75213 0.8237 0.0
C466 C 0.25981 0.76318 0.80296 0.0
C467 C 0.32877 0.77643 0.8261 0.0
C468 C 0.35501 0.81258 0.80769 0.0
H469 H 0.26374 0.72316 0.83737 0.0
H470 H 0.34432 0.76501 0.84143 0.0
S471 S 0.31252 0.85959 0.7528 0.0
N472 N 0.26719 0.8162 0.76603 0.0
N473 N 0.35482 0.86172 0.77044 0.0
C474 C 0.33291 0.82621 0.78841 0.0
C475 C 0.28532 0.80157 0.78608 0.0
C476 C 0.18743 0.50016 0.78618 0.0
C477 C 0.2229 0.50678 0.80406 0.0
C478 C 0.16311 0.52158 0.79194 0.0
C479 C 0.17319 0.55018 0.8159 0.0
H480 H 0.18017 0.48063 0.76658 0.0
H481 H 0.13795 0.51763 0.77653 0.0
S482 S 0.25694 0.57084 0.8726 0.0
N483 N 0.26253 0.5383 0.84897 0.0
N484 N 0.21666 0.57823 0.86003 0.0
C485 C 0.2057 0.55347 0.83546 0.0
C486 C 0.23068 0.53194 0.82944 0.0
C487 C 0.46748 0.71087 0.79575 0.0
C488 C 0.48238 0.73498 0.76983 0.0
C489 C 0.44393 0.66403 0.79573 0.0
C490 C 0.43346 0.64004 0.76969 0.0
H491 H 0.47256 0.72833 0.81605 0.0
H492 H 0.43115 0.64665 0.81598 0.0
S493 S 0.46706 0.68727 0.69623 0.0
N494 N 0.48761 0.73131 0.71767 0.0
N495 N 0.44202 0.64337 0.71761 0.0
C496 C 0.44993 0.66368 0.7438 0.0
C497 C 0.4748 0.71123 0.74386 0.0
C498 C 0.49932 0.6807 0.53853 0.0
C499 C 0.48929 0.69861 0.51441 0.0
C500 C 0.47484 0.63493 0.54459 0.0
C501 C 0.43916 0.60535 0.52688 0.0
H502 H 0.52464 0.70247 0.55379 0.0
H503 H 0.48217 0.62327 0.56431 0.0
S504 S 0.40459 0.63383 0.45828 0.0
N505 N 0.44526 0.68199 0.4705 0.0
N506 N 0.39915 0.59611 0.48205 0.0
C507 C 0.43137 0.62214 0.50135 0.0
C508 C 0.45651 0.66873 0.49505 0.0
C509 C 0.32245 0.80393 0.53527 0.0
C510 C 0.30032 0.7664 0.5171 0.0
C511 C 0.36913 0.82783 0.53741 0.0
C512 C 0.39554 0.81494 0.52164 0.0
H513 H 0.30354 0.8138 0.54898 0.0
H514 H 0.38433 0.85505 0.55278 0.0
S515 S 0.35462 0.72308 0.46787 0.0
N516 N 0.30889 0.72059 0.48058 0.0
N517 N 0.39649 0.76536 0.48474 0.0
C518 C 0.37409 0.77953 0.50182 0.0
C519 C 0.32654 0.75533 0.49949 0.0
C520 C 0.17535 0.50117 0.57351 0.0
C521 C 0.20576 0.50517 0.55188 0.0
C522 C 0.15625 0.52844 0.57365 0.0
C523 C 0.167 0.56098 0.55224 0.0
H524 H 0.16788 0.4784 0.59136 0.0
H525 H 0.13495 0.52563 0.59162 0.0
S526 S 0.23877 0.5799 0.48807 0.0
N527 N 0.24107 0.54037 0.50633 0.0
N528 N 0.2054 0.59166 0.50676 0.0
C529 C 0.19446 0.56286 0.52922 0.0
C530 C 0.21373 0.53491 0.52896 0.0
C531 C 0.14666 0.17684 0.99518 0.0
C532 C 0.17902 0.18786 0.01672 0.0
C533 C 0.15679 0.17602 0.96608 0.0
C534 C 0.19984 0.18638 0.95714 0.0
H535 H 0.11284 0.16814 0.00076 0.0
H536 H 0.13037 0.16702 0.9505 0.0
S537 S 0.29735 0.21903 0.00486 0.0
N538 N 0.25648 0.21053 0.02706 0.0
N539 N 0.27554 0.20908 0.97221 0.0
C540 C 0.23286 0.1982 0.97836 0.0
C541 C 0.22247 0.19891 0.00815 0.0
C542 C 0.82181 0.04294 0.978 0.0
C543 C 0.80249 0.00998 0.95645 0.0
C544 C 0.81629 0.03163 0.0073 0.0
C545 C 0.79113 0.98686 0.01632 0.0
H546 H 0.84226 0.07782 0.97228 0.0
H547 H 0.8327 0.05829 0.02295 0.0
S548 S 0.73095 0.88788 0.96854 0.0
N549 N 0.75512 0.93064 0.94626 0.0
N550 N 0.74482 0.90942 0.00123 0.0
C551 C 0.77036 0.95361 0.99503 0.0
C552 C 0.77603 0.96514 0.96516 0.0
C553 C 0.94951 0.77746 0.97865 0.0
C554 C 0.97844 0.80571 0.95707 0.0
C555 C 0.96144 0.78521 0.00783 0.0
C556 C 0.00247 0.82193 0.01657 0.0
H557 H 0.91718 0.74933 0.97303 0.0
H558 H 0.93767 0.76296 0.02369 0.0
S559 S 0.09099 0.90511 0.96849 0.0
N560 N 0.0508 0.87112 0.94643 0.0
N561 N 0.07283 0.88584 0.00123 0.0
C562 C 0.03212 0.84994 0.99519 0.0
C563 C 0.02023 0.84178 0.96546 0.0
C564 C 0.88792 0.51793 0.33317 0.0
C565 C 0.87361 0.53498 0.31081 0.0
C566 C 0.88489 0.52793 0.36207 0.0
C567 C 0.86764 0.5556 0.36983 0.0
H568 H 0.90014 0.49535 0.32849 0.0
H569 H 0.89504 0.51273 0.37848 0.0
S570 S 0.82989 0.61263 0.31926 0.0
N571 N 0.84481 0.58387 0.29824 0.0
N572 N 0.83912 0.60262 0.35254 0.0
C573 C 0.85538 0.57481 0.34761 0.0
C574 C 0.85832 0.56448 0.31813 0.0
C575 C 0.50916 0.3236 0.31811 0.0
C576 C 0.48091 0.33896 0.30828 0.0
C577 C 0.51355 0.31789 0.34748 0.0
C578 C 0.48968 0.32699 0.36834 0.0
H579 H 0.52839 0.31607 0.30302 0.0
H580 H 0.53588 0.30612 0.35381 0.0
S581 S 0.41099 0.36779 0.35411 0.0
N582 N 0.42848 0.3631 0.32184 0.0
N583 N 0.43664 0.3522 0.37718 0.0
C584 C 0.4611 0.3422 0.3589 0.0
C585 C 0.45679 0.34827 0.32887 0.0
C586 C 0.66788 0.13288 0.35457 0.0
C587 C 0.69871 0.1729 0.36834 0.0
C588 C 0.65975 0.13172 0.32487 0.0
C589 C 0.68119 0.17081 0.3082 0.0
H590 H 0.64994 0.10226 0.36683 0.0
H591 H 0.6356 0.1003 0.31507 0.0
S592 S 0.76519 0.28393 0.3338 0.0
N593 N 0.75153 0.25232 0.36287 0.0
N594 N 0.73523 0.25032 0.30731 0.0
C595 C 0.71226 0.21093 0.32166 0.0
C596 C 0.72131 0.21193 0.35168 0.0
C597 C 0.44577 0.78951 0.64061 0.0
C598 C 0.48411 0.82121 0.62566 0.0
C599 C 0.43966 0.79482 0.66986 0.0
C600 C 0.47161 0.83205 0.68554 0.0
H601 H 0.42014 0.76003 0.62973 0.0
H602 H 0.40972 0.76905 0.68028 0.0
S603 S 0.57764 0.92542 0.6565 0.0
N604 N 0.55436 0.89177 0.62868 0.0
N605 N 0.54287 0.90173 0.68377 0.0
C606 C 0.50995 0.86439 0.67085 0.0
C607 C 0.51619 0.85898 0.64092 0.0
C608 C 0.15284 0.67155 0.65612 0.0
C609 C 0.19358 0.68326 0.64239 0.0
C610 C 0.14745 0.66423 0.68591 0.0
C611 C 0.18257 0.6683 0.70321 0.0
H612 H 0.12448 0.66718 0.64372 0.0
H613 H 0.11521 0.65466 0.69533 0.0
S614 S 0.29725 0.70175 0.67824 0.0
N615 N 0.27053 0.701 0.64869 0.0
N616 N 0.26045 0.68729 0.70462 0.0
C617 C 0.22389 0.6811 0.6899 0.0
C618 C 0.22939 0.68857 0.65953 0.0
C619 C 0.29583 0.4393 0.65925 0.0
C620 C 0.32507 0.4669 0.63755 0.0
C621 C 0.30771 0.44753 0.68842 0.0
C622 C 0.34965 0.48304 0.69688 0.0
H623 H 0.26309 0.41172 0.65374 0.0
H624 H 0.28385 0.42595 0.70447 0.0
S625 S 0.43888 0.56439 0.64845 0.0
N626 N 0.39817 0.53083 0.62654 0.0
N627 N 0.42068 0.54575 0.68128 0.0
C628 C 0.37959 0.5103 0.6754 0.0
C629 C 0.36724 0.50241 0.64574 0.0
loop_
_geom_bond_atom_site_label_1
_geom_bond_atom_site_label_2
_geom_bond_distance
_geom_bond_site_symmetry_2
_ccdc_geom_bond_type
C0 O1 1.160 . S
C0 O7 1.185 . S
O1 C0 1.160 . S
O2 Zn3 1.899 . S
O2 C10 1.284 . S
Zn3 O2 1.899 . S
Zn3 O4 2.032 . S
Zn3 O7 2.086 . S
Zn3 O12 1.977 . S
O4 Zn3 2.032 . S
O4 C8 1.278 . S
C5 O6 1.203 . S
C5 O12 1.267 . S
O6 C5 1.203 . S
O7 C0 1.185 . S
O7 Zn3 2.086 . S
C8 O4 1.278 . S
C8 O9 1.211 . S
O9 C8 1.211 . S
C10 O2 1.284 . S
C10 O11 1.273 . S
O11 C10 1.273 . S
O12 Zn3 1.977 . S
O12 C5 1.267 . S
C13 O14 1.160 . S
C13 O20 1.185 1_545 S
O14 C13 1.160 . S
O15 Zn16 1.899 1_545 S
O15 C23 1.284 . S
Zn16 O15 1.899 1_565 S
Zn16 O17 2.032 1_565 S
Zn16 O20 2.086 . S
Zn16 O25 1.977 . S
O17 Zn16 2.032 1_545 S
O17 C21 1.278 1_545 S
C18 O19 1.203 . S
C18 O25 1.267 . S
O19 C18 1.203 . S
O20 C13 1.185 1_565 S
O20 Zn16 2.086 . S
C21 O17 1.278 1_565 S
C21 O22 1.211 . S
O22 C21 1.211 . S
C23 O15 1.284 . S
C23 O24 1.273 . S
O24 C23 1.273 . S
O25 Zn16 1.977 . S
O25 C18 1.267 . S
C26 O27 1.160 . S
C26 O33 1.185 1_655 S
O27 C26 1.160 . S
O28 Zn29 1.899 1_655 S
O28 C36 1.284 . S
Zn29 O28 1.899 1_455 S
Zn29 O30 2.032 1_455 S
Zn29 O33 2.086 . S
Zn29 O38 1.977 . S
O30 Zn29 2.032 1_655 S
O30 C34 1.278 1_655 S
C31 O32 1.203 . S
C31 O38 1.267 . S
O32 C31 1.203 . S
O33 C26 1.185 1_455 S
O33 Zn29 2.086 . S
C34 O30 1.278 1_455 S
C34 O35 1.211 . S
O35 C34 1.211 . S
C36 O28 1.284 . S
C36 O37 1.273 . S
O37 C36 1.273 . S
O38 Zn29 1.977 . S
O38 C31 1.267 . S
C39 O40 1.160 . S
C39 O46 1.185 . S
O40 C39 1.160 . S
O41 Zn42 1.899 . S
O41 C49 1.284 . S
Zn42 O41 1.899 . S
Zn42 O43 2.032 . S
Zn42 O46 2.086 . S
Zn42 O51 1.977 . S
O43 Zn42 2.032 . S
O43 C47 1.278 . S
C44 O45 1.203 . S
C44 O51 1.267 . S
O45 C44 1.203 . S
O46 C39 1.185 . S
O46 Zn42 2.086 . S
C47 O43 1.278 . S
C47 O48 1.211 . S
O48 C47 1.211 . S
C49 O41 1.284 . S
C49 O50 1.273 . S
O50 C49 1.273 . S
O51 Zn42 1.977 . S
O51 C44 1.267 . S
C52 O53 1.160 . S
C52 O59 1.185 1_565 S
O53 C52 1.160 . S
O54 Zn55 1.899 1_565 S
O54 C62 1.284 . S
Zn55 O54 1.899 1_545 S
Zn55 O56 2.032 1_545 S
Zn55 O59 2.086 . S
Zn55 O64 1.977 . S
O56 Zn55 2.032 1_565 S
O56 C60 1.278 1_565 S
C57 O58 1.203 . S
C57 O64 1.267 . S
O58 C57 1.203 . S
O59 C52 1.185 1_545 S
O59 Zn55 2.086 . S
C60 O56 1.278 1_545 S
C60 O61 1.211 . S
O61 C60 1.211 . S
C62 O54 1.284 . S
C62 O63 1.273 . S
O63 C62 1.273 . S
O64 Zn55 1.977 . S
O64 C57 1.267 . S
C65 O66 1.160 . S
C65 O72 1.185 1_455 S
O66 C65 1.160 . S
O67 Zn68 1.899 1_455 S
O67 C75 1.284 . S
Zn68 O67 1.899 1_655 S
Zn68 O69 2.032 1_655 S
Zn68 O72 2.086 . S
Zn68 O77 1.977 . S
O69 Zn68 2.032 1_455 S
O69 C73 1.278 1_455 S
C70 O71 1.203 . S
C70 O77 1.267 . S
O71 C70 1.203 . S
O72 C65 1.185 1_655 S
O72 Zn68 2.086 . S
C73 O69 1.278 1_655 S
C73 O74 1.211 . S
O74 C73 1.211 . S
C75 O67 1.284 . S
C75 O76 1.273 . S
O76 C75 1.273 . S
O77 Zn68 1.977 . S
O77 C70 1.267 . S
C78 O79 1.160 . S
C78 O85 1.185 . S
O79 C78 1.160 . S
O80 Zn81 1.899 . S
O80 C88 1.284 . S
Zn81 O80 1.899 . S
Zn81 O82 2.032 . S
Zn81 O85 2.086 . S
Zn81 O90 1.977 . S
O82 Zn81 2.032 . S
O82 C86 1.278 . S
C83 O84 1.203 . S
C83 O90 1.267 . S
O84 C83 1.203 . S
O85 C78 1.185 . S
O85 Zn81 2.086 . S
C86 O82 1.278 . S
C86 O87 1.211 . S
O87 C86 1.211 . S
C88 O80 1.284 . S
C88 O89 1.273 . S
O89 C88 1.273 . S
O90 Zn81 1.977 . S
O90 C83 1.267 . S
C91 O92 1.160 . S
C91 O98 1.185 . S
O92 C91 1.160 . S
O93 Zn94 1.899 . S
O93 C101 1.284 . S
Zn94 O93 1.899 . S
Zn94 O95 2.032 . S
Zn94 O98 2.086 . S
Zn94 O103 1.977 . S
O95 Zn94 2.032 . S
O95 C99 1.278 . S
C96 O97 1.203 . S
C96 O103 1.267 . S
O97 C96 1.203 . S
O98 C91 1.185 . S
O98 Zn94 2.086 . S
C99 O95 1.278 . S
C99 O100 1.211 . S
O100 C99 1.211 . S
C101 O93 1.284 . S
C101 O102 1.273 . S
O102 C101 1.273 . S
O103 Zn94 1.977 . S
O103 C96 1.267 . S
C104 O105 1.160 . S
C104 O111 1.185 . S
O105 C104 1.160 . S
O106 Zn107 1.899 . S
O106 C114 1.284 . S
Zn107 O106 1.899 . S
Zn107 O108 2.032 . S
Zn107 O111 2.086 . S
Zn107 O116 1.977 . S
O108 Zn107 2.032 . S
O108 C112 1.278 . S
C109 O110 1.203 . S
C109 O116 1.267 . S
O110 C109 1.203 . S
O111 C104 1.185 . S
O111 Zn107 2.086 . S
C112 O108 1.278 . S
C112 O113 1.211 . S
O113 C112 1.211 . S
C114 O106 1.284 . S
C114 O115 1.273 . S
O115 C114 1.273 . S
O116 Zn107 1.977 . S
O116 C109 1.267 . S
C117 O118 1.160 . S
C117 O124 1.185 . S
O118 C117 1.160 . S
O119 Zn120 1.899 . S
O119 C127 1.284 . S
Zn120 O119 1.899 . S
Zn120 O121 2.032 . S
Zn120 O124 2.086 . S
Zn120 O129 1.977 . S
O121 Zn120 2.032 . S
O121 C125 1.278 . S
C122 O123 1.203 . S
C122 O129 1.267 . S
O123 C122 1.203 . S
O124 C117 1.185 . S
O124 Zn120 2.086 . S
C125 O121 1.278 . S
C125 O126 1.211 . S
O126 C125 1.211 . S
C127 O119 1.284 . S
C127 O128 1.273 . S
O128 C127 1.273 . S
O129 Zn120 1.977 . S
O129 C122 1.267 . S
C130 O131 1.160 . S
C130 O137 1.185 . S
O131 C130 1.160 . S
O132 Zn133 1.899 . S
O132 C140 1.284 . S
Zn133 O132 1.899 . S
Zn133 O134 2.032 . S
Zn133 O137 2.086 . S
Zn133 O142 1.977 . S
O134 Zn133 2.032 . S
O134 C138 1.278 . S
C135 O136 1.203 . S
C135 O142 1.267 . S
O136 C135 1.203 . S
O137 C130 1.185 . S
O137 Zn133 2.086 . S
C138 O134 1.278 . S
C138 O139 1.211 . S
O139 C138 1.211 . S
C140 O132 1.284 . S
C140 O141 1.273 . S
O141 C140 1.273 . S
O142 Zn133 1.977 . S
O142 C135 1.267 . S
C143 O144 1.160 . S
C143 O150 1.185 . S
O144 C143 1.160 . S
O145 Zn146 1.899 . S
O145 C153 1.284 . S
Zn146 O145 1.899 . S
Zn146 O147 2.032 . S
Zn146 O150 2.086 . S
Zn146 O155 1.977 . S
O147 Zn146 2.032 . S
O147 C151 1.278 . S
C148 O149 1.203 . S
C148 O155 1.267 . S
O149 C148 1.203 . S
O150 C143 1.185 . S
O150 Zn146 2.086 . S
C151 O147 1.278 . S
C151 O152 1.211 . S
O152 C151 1.211 . S
C153 O145 1.284 . S
C153 O154 1.273 . S
O154 C153 1.273 . S
O155 Zn146 1.977 . S
O155 C148 1.267 . S
C156 O157 1.160 . S
C156 O163 1.185 . S
O157 C156 1.160 . S
O158 Zn159 1.899 . S
O158 C166 1.284 . S
Zn159 O158 1.899 . S
Zn159 O160 2.032 . S
Zn159 O163 2.086 . S
Zn159 O168 1.977 . S
O160 Zn159 2.032 . S
O160 C164 1.278 . S
C161 O162 1.203 . S
C161 O168 1.267 . S
O162 C161 1.203 . S
O163 C156 1.185 . S
O163 Zn159 2.086 . S
C164 O160 1.278 . S
C164 O165 1.211 . S
O165 C164 1.211 . S
C166 O158 1.284 . S
C166 O167 1.273 . S
O167 C166 1.273 . S
O168 Zn159 1.977 . S
O168 C161 1.267 . S
C169 O170 1.160 . S
C169 O176 1.185 . S
O170 C169 1.160 . S
O171 Zn172 1.899 . S
O171 C179 1.284 . S
Zn172 O171 1.899 . S
Zn172 O173 2.032 . S
Zn172 O176 2.086 . S
Zn172 O181 1.977 . S
O173 Zn172 2.032 . S
O173 C177 1.278 . S
C174 O175 1.203 . S
C174 O181 1.267 . S
O175 C174 1.203 . S
O176 C169 1.185 . S
O176 Zn172 2.086 . S
C177 O173 1.278 . S
C177 O178 1.211 . S
O178 C177 1.211 . S
C179 O171 1.284 . S
C179 O180 1.273 . S
O180 C179 1.273 . S
O181 Zn172 1.977 . S
O181 C174 1.267 . S
C182 O183 1.160 . S
C182 O189 1.185 . S
O183 C182 1.160 . S
O184 Zn185 1.899 . S
O184 C192 1.284 . S
Zn185 O184 1.899 . S
Zn185 O186 2.032 . S
Zn185 O189 2.086 . S
Zn185 O194 1.977 . S
O186 Zn185 2.032 . S
O186 C190 1.278 . S
C187 O188 1.203 . S
C187 O194 1.267 . S
O188 C187 1.203 . S
O189 C182 1.185 . S
O189 Zn185 2.086 . S
C190 O186 1.278 . S
C190 O191 1.211 . S
O191 C190 1.211 . S
C192 O184 1.284 . S
C192 O193 1.273 . S
O193 C192 1.273 . S
O194 Zn185 1.977 . S
O194 C187 1.267 . S
C195 O196 1.160 . S
C195 O202 1.185 . S
O196 C195 1.160 . S
O197 Zn198 1.899 . S
O197 C205 1.284 . S
Zn198 O197 1.899 . S
Zn198 O199 2.032 . S
Zn198 O202 2.086 . S
Zn198 O207 1.977 . S
O199 Zn198 2.032 . S
O199 C203 1.278 . S
C200 O201 1.203 . S
C200 O207 1.267 . S
O201 C200 1.203 . S
O202 C195 1.185 . S
O202 Zn198 2.086 . S
C203 O199 1.278 . S
C203 O204 1.211 . S
O204 C203 1.211 . S
C205 O197 1.284 . S
C205 O206 1.273 . S
O206 C205 1.273 . S
O207 Zn198 1.977 . S
O207 C200 1.267 . S
C208 O209 1.160 . S
C208 O215 1.185 . S
O209 C208 1.160 . S
O210 Zn211 1.899 . S
O210 C218 1.284 . S
Zn211 O210 1.899 . S
Zn211 O212 2.032 . S
Zn211 O215 2.086 . S
Zn211 O220 1.977 . S
O212 Zn211 2.032 . S
O212 C216 1.278 . S
C213 O214 1.203 . S
C213 O220 1.267 . S
O214 C213 1.203 . S
O215 C208 1.185 . S
O215 Zn211 2.086 . S
C216 O212 1.278 . S
C216 O217 1.211 . S
O217 C216 1.211 . S
C218 O210 1.284 . S
C218 O219 1.273 . S
O219 C218 1.273 . S
O220 Zn211 1.977 . S
O220 C213 1.267 . S
C221 O222 1.160 . S
C221 O228 1.185 . S
O222 C221 1.160 . S
O223 Zn224 1.899 . S
O223 C231 1.284 . S
Zn224 O223 1.899 . S
Zn224 O225 2.032 . S
Zn224 O228 2.086 . S
Zn224 O233 1.977 . S
O225 Zn224 2.032 . S
O225 C229 1.278 . S
C226 O227 1.203 . S
C226 O233 1.267 . S
O227 C226 1.203 . S
O228 C221 1.185 . S
O228 Zn224 2.086 . S
C229 O225 1.278 . S
C229 O230 1.211 . S
O230 C229 1.211 . S
C231 O223 1.284 . S
C231 O232 1.273 . S
O232 C231 1.273 . S
O233 Zn224 1.977 . S
O233 C226 1.267 . S
C234 C235 1.369 . S
C234 C236 1.419 . S
C234 H238 0.930 . S
C235 C234 1.369 . S
C235 C244 1.429 . S
C236 C234 1.419 . S
C236 C237 1.363 . S
C236 H239 0.929 . S
C237 C236 1.363 . S
C237 C243 1.428 . S
H238 C234 0.930 . S
H239 C236 0.929 . S
S240 N241 1.613 . S
S240 N242 1.610 . S
N241 S240 1.613 . S
N241 C244 1.350 . S
N242 S240 1.610 . S
N242 C243 1.351 . S
C243 C237 1.428 . S
C243 N242 1.351 . S
C243 C244 1.434 . S
C244 C235 1.429 . S
C244 N241 1.350 . S
C244 C243 1.434 . S
C245 C246 1.369 . S
C245 C247 1.419 . S
C245 H249 0.930 . S
C246 C245 1.369 . S
C246 C255 1.429 . S
C247 C245 1.419 . S
C247 C248 1.363 . S
C247 H250 0.929 . S
C248 C247 1.363 . S
C248 C254 1.428 . S
H249 C245 0.930 . S
H250 C247 0.929 . S
S251 N252 1.613 . S
S251 N253 1.610 . S
N252 S251 1.613 . S
N252 C255 1.350 . S
N253 S251 1.610 . S
N253 C254 1.351 . S
C254 C248 1.428 . S
C254 N253 1.351 . S
C254 C255 1.434 . S
C255 C246 1.429 . S
C255 N252 1.350 . S
C255 C254 1.434 . S
C256 C257 1.369 . S
C256 C258 1.419 . S
C256 H260 0.930 . S
C257 C256 1.369 . S
C257 C266 1.429 . S
C258 C256 1.419 . S
C258 C259 1.363 . S
C258 H261 0.929 1_655 S
C259 C258 1.363 . S
C259 C265 1.428 . S
H260 C256 0.930 . S
H261 C258 0.929 1_455 S
S262 N263 1.613 . S
S262 N264 1.610 . S
N263 S262 1.613 . S
N263 C266 1.350 . S
N264 S262 1.610 . S
N264 C265 1.351 . S
C265 C259 1.428 . S
C265 N264 1.351 . S
C265 C266 1.434 . S
C266 C257 1.429 . S
C266 N263 1.350 . S
C266 C265 1.434 . S
C267 C268 1.369 . S
C267 C269 1.419 . S
C267 H271 0.930 . S
C268 C267 1.369 . S
C268 C277 1.429 . S
C269 C267 1.419 . S
C269 C270 1.363 . S
C269 H272 0.929 . S
C270 C269 1.363 . S
C270 C276 1.428 . S
H271 C267 0.930 . S
H272 C269 0.929 . S
S273 N274 1.613 . S
S273 N275 1.610 . S
N274 S273 1.613 . S
N274 C277 1.350 . S
N275 S273 1.610 . S
N275 C276 1.351 . S
C276 C270 1.428 . S
C276 N275 1.351 . S
C276 C277 1.434 . S
C277 C268 1.429 . S
C277 N274 1.350 . S
C277 C276 1.434 . S
C278 C279 1.369 . S
C278 C280 1.419 . S
C278 H282 0.930 . S
C279 C278 1.369 . S
C279 C288 1.429 . S
C280 C278 1.419 . S
C280 C281 1.363 . S
C280 H283 0.929 . S
C281 C280 1.363 . S
C281 C287 1.428 . S
H282 C278 0.930 . S
H283 C280 0.929 . S
S284 N285 1.613 . S
S284 N286 1.610 1_545 S
N285 S284 1.613 . S
N285 C288 1.350 1_545 S
N286 S284 1.610 1_565 S
N286 C287 1.351 . S
C287 C281 1.428 . S
C287 N286 1.351 . S
C287 C288 1.434 . S
C288 C279 1.429 . S
C288 N285 1.350 1_565 S
C288 C287 1.434 . S
C289 C290 1.369 . S
C289 C291 1.419 . S
C289 H293 0.930 . S
C290 C289 1.369 . S
C290 C299 1.429 . S
C291 C289 1.419 . S
C291 C292 1.363 . S
C291 H294 0.929 . S
C292 C291 1.363 . S
C292 C298 1.428 . S
H293 C289 0.930 . S
H294 C291 0.929 . S
S295 N296 1.613 1_655 S
S295 N297 1.610 . S
N296 S295 1.613 1_455 S
N296 C299 1.350 . S
N297 S295 1.610 . S
N297 C298 1.351 1_655 S
C298 C292 1.428 . S
C298 N297 1.351 1_455 S
C298 C299 1.434 . S
C299 C290 1.429 . S
C299 N296 1.350 . S
C299 C298 1.434 . S
C300 C301 1.369 . S
C300 C302 1.419 1_655 S
C300 H304 0.930 . S
C301 C300 1.369 . S
C301 C310 1.429 . S
C302 C300 1.419 1_455 S
C302 C303 1.363 . S
C302 H305 0.929 . S
C303 C302 1.363 . S
C303 C309 1.428 . S
H304 C300 0.930 . S
H305 C302 0.929 . S
S306 N307 1.613 1_455 S
S306 N308 1.610 . S
N307 S306 1.613 1_655 S
N307 C310 1.350 . S
N308 S306 1.610 . S
N308 C309 1.351 . S
C309 C303 1.428 . S
C309 N308 1.351 . S
C309 C310 1.434 1_455 S
C310 C301 1.429 . S
C310 N307 1.350 . S
C310 C309 1.434 1_655 S
C311 C312 1.369 . S
C311 C313 1.419 . S
C311 H315 0.930 . S
C312 C311 1.369 . S
C312 C321 1.429 . S
C313 C311 1.419 . S
C313 C314 1.363 . S
C313 H316 0.929 . S
C314 C313 1.363 . S
C314 C320 1.428 . S
H315 C311 0.930 . S
H316 C313 0.929 . S
S317 N318 1.613 . S
S317 N319 1.610 . S
N318 S317 1.613 . S
N318 C321 1.350 . S
N319 S317 1.610 . S
N319 C320 1.351 . S
C320 C314 1.428 . S
C320 N319 1.351 . S
C320 C321 1.434 . S
C321 C312 1.429 . S
C321 N318 1.350 . S
C321 C320 1.434 . S
C322 C323 1.369 . S
C322 C324 1.419 1_545 S
C322 H326 0.930 . S
C323 C322 1.369 . S
C323 C332 1.429 . S
C324 C322 1.419 1_565 S
C324 C325 1.363 . S
C324 H327 0.929 . S
C325 C324 1.363 . S
C325 C331 1.428 . S
H326 C322 0.930 . S
H327 C324 0.929 . S
S328 N329 1.613 . S
S328 N330 1.610 1_545 S
N329 S328 1.613 . S
N329 C332 1.350 . S
N330 S328 1.610 1_565 S
N330 C331 1.351 . S
C331 C325 1.428 . S
C331 N330 1.351 . S
C331 C332 1.434 1_565 S
C332 C323 1.429 . S
C332 N329 1.350 . S
C332 C331 1.434 1_545 S
C333 C334 1.369 . S
C333 C335 1.419 1_455 S
C333 H337 0.930 . S
C334 C333 1.369 . S
C334 C343 1.429 . S
C335 C333 1.419 1_655 S
C335 C336 1.363 . S
C335 H338 0.929 . S
C336 C335 1.363 . S
C336 C342 1.428 . S
H337 C333 0.930 . S
H338 C335 0.929 . S
S339 N340 1.610 1_655 S
S339 N341 1.615 . S
N340 S339 1.610 1_455 S
N340 C343 1.350 . S
N341 S339 1.615 . S
N341 C342 1.351 . S
C342 C336 1.428 . S
C342 N341 1.351 . S
C342 C343 1.434 1_655 S
C343 C334 1.429 . S
C343 N340 1.350 . S
C343 C342 1.434 1_455 S
C344 C345 1.369 . S
C344 C346 1.419 . S
C344 H348 0.930 . S
C345 C344 1.369 . S
C345 C354 1.429 . S
C346 C344 1.419 . S
C346 C347 1.363 . S
C346 H349 0.929 . S
C347 C346 1.363 . S
C347 C353 1.428 . S
H348 C344 0.930 . S
H349 C346 0.929 . S
S350 N351 1.613 . S
S350 N352 1.610 . S
N351 S350 1.613 . S
N351 C354 1.350 . S
N352 S350 1.610 . S
N352 C353 1.351 . S
C353 C347 1.428 . S
C353 N352 1.351 . S
C353 C354 1.434 . S
C354 C345 1.429 . S
C354 N351 1.350 . S
C354 C353 1.434 . S
C355 C356 1.369 . S
C355 C357 1.419 1_545 S
C355 H359 0.930 . S
C356 C355 1.369 . S
C356 C365 1.429 . S
C357 C355 1.419 1_565 S
C357 C358 1.363 . S
C357 H360 0.929 . S
C358 C357 1.363 . S
C358 C364 1.428 . S
H359 C355 0.930 . S
H360 C357 0.929 . S
S361 N362 1.613 1_565 S
S361 N363 1.610 . S
N362 S361 1.613 1_545 S
N362 C365 1.350 . S
N363 S361 1.610 . S
N363 C364 1.351 . S
C364 C358 1.428 . S
C364 N363 1.351 . S
C364 C365 1.434 1_565 S
C365 C356 1.429 . S
C365 N362 1.350 . S
C365 C364 1.434 1_545 S
C366 C367 1.369 . S
C366 C368 1.419 1_565 S
C366 H370 0.930 . S
C367 C366 1.369 . S
C367 C376 1.429 . S
C368 C366 1.419 1_545 S
C368 C369 1.363 . S
C368 H371 0.929 . S
C369 C368 1.363 . S
C369 C375 1.428 . S
H370 C366 0.930 . S
H371 C368 0.929 . S
S372 N373 1.613 1_545 S
S372 N374 1.610 . S
N373 S372 1.613 1_565 S
N373 C376 1.350 . S
N374 S372 1.610 . S
N374 C375 1.351 . S
C375 C369 1.428 . S
C375 N374 1.351 . S
C375 C376 1.434 1_545 S
C376 C367 1.429 . S
C376 N373 1.350 . S
C376 C375 1.434 1_565 S
C377 C378 1.369 . S
C377 C379 1.419 1_455 S
C377 H381 0.930 . S
C378 C377 1.369 . S
C378 C387 1.429 . S
C379 C377 1.419 1_655 S
C379 C380 1.363 . S
C379 H382 0.929 . S
C380 C379 1.363 . S
C380 C386 1.428 . S
H381 C377 0.930 . S
H382 C379 0.929 . S
S383 N384 1.613 . S
S383 N385 1.610 1_455 S
N384 S383 1.613 . S
N384 C387 1.350 . S
N385 S383 1.610 1_655 S
N385 C386 1.351 . S
C386 C380 1.428 . S
C386 N385 1.351 . S
C386 C387 1.434 1_655 S
C387 C378 1.429 . S
C387 N384 1.350 . S
C387 C386 1.434 1_455 S
C388 C389 1.369 . S
C388 C390 1.419 . S
C388 H392 0.930 . S
C389 C388 1.369 . S
C389 C398 1.429 . S
C390 C388 1.419 . S
C390 C391 1.363 . S
C390 H393 0.929 . S
C391 C390 1.363 . S
C391 C397 1.428 . S
H392 C388 0.930 . S
H393 C390 0.929 . S
S394 N395 1.613 . S
S394 N396 1.610 . S
N395 S394 1.613 . S
N395 C398 1.350 . S
N396 S394 1.610 . S
N396 C397 1.351 . S
C397 C391 1.428 . S
C397 N396 1.351 . S
C397 C398 1.434 . S
C398 C389 1.429 . S
C398 N395 1.350 . S
C398 C397 1.434 . S
C399 C400 1.369 . S
C399 C401 1.419 . S
C399 H403 0.930 . S
C400 C399 1.369 . S
C400 C409 1.429 . S
C401 C399 1.419 . S
C401 C402 1.363 . S
C401 H404 0.929 . S
C402 C401 1.363 . S
C402 C408 1.428 . S
H403 C399 0.930 . S
H404 C401 0.929 . S
S405 N406 1.613 . S
S405 N407 1.610 . S
N406 S405 1.613 . S
N406 C409 1.350 . S
N407 S405 1.610 . S
N407 C408 1.351 . S
C408 C402 1.428 . S
C408 N407 1.351 . S
C408 C409 1.434 . S
C409 C400 1.429 . S
C409 N406 1.350 . S
C409 C408 1.434 . S
C410 C411 1.369 . S
C410 C412 1.419 . S
C410 H414 0.930 . S
C411 C410 1.369 . S
C411 C420 1.429 . S
C412 C410 1.419 . S
C412 C413 1.363 . S
C412 H415 0.929 . S
C413 C412 1.363 . S
C413 C419 1.428 . S
H414 C410 0.930 . S
H415 C412 0.929 . S
S416 N417 1.613 . S
S416 N418 1.610 . S
N417 S416 1.613 . S
N417 C420 1.350 . S
N418 S416 1.610 . S
N418 C419 1.351 . S
C419 C413 1.428 . S
C419 N418 1.351 . S
C419 C420 1.434 . S
C420 C411 1.429 . S
C420 N417 1.350 . S
C420 C419 1.434 . S
C421 C422 1.369 . S
C421 C423 1.419 . S
C421 H425 0.930 . S
C422 C421 1.369 . S
C422 C431 1.429 . S
C423 C421 1.419 . S
C423 C424 1.363 . S
C423 H426 0.929 . S
C424 C423 1.363 . S
C424 C430 1.428 . S
H425 C421 0.930 . S
H426 C423 0.929 . S
S427 N428 1.613 . S
S427 N429 1.610 . S
N428 S427 1.613 . S
N428 C431 1.350 . S
N429 S427 1.610 . S
N429 C430 1.351 . S
C430 C424 1.428 . S
C430 N429 1.351 . S
C430 C431 1.434 . S
C431 C422 1.429 . S
C431 N428 1.350 . S
C431 C430 1.434 . S
C432 C433 1.369 . S
C432 C434 1.419 . S
C432 H436 0.930 . S
C433 C432 1.369 . S
C433 C442 1.429 . S
C434 C432 1.419 . S
C434 C435 1.363 . S
C434 H437 0.929 . S
C435 C434 1.363 . S
C435 C441 1.428 . S
H436 C432 0.930 . S
H437 C434 0.929 . S
S438 N439 1.613 . S
S438 N440 1.610 . S
N439 S438 1.613 . S
N439 C442 1.350 . S
N440 S438 1.610 . S
N440 C441 1.351 . S
C441 C435 1.428 . S
C441 N440 1.351 . S
C441 C442 1.434 . S
C442 C433 1.429 . S
C442 N439 1.350 . S
C442 C441 1.434 . S
C443 C444 1.369 . S
C443 C445 1.419 . S
C443 H447 0.930 . S
C444 C443 1.369 . S
C444 C453 1.429 . S
C445 C443 1.419 . S
C445 C446 1.363 . S
C445 H448 0.929 . S
C446 C445 1.363 . S
C446 C452 1.428 . S
H447 C443 0.930 . S
H448 C445 0.929 . S
S449 N450 1.613 . S
S449 N451 1.610 . S
N450 S449 1.613 . S
N450 C453 1.350 . S
N451 S449 1.610 . S
N451 C452 1.351 . S
C452 C446 1.428 . S
C452 N451 1.351 . S
C452 C453 1.434 . S
C453 C444 1.429 . S
C453 N450 1.350 . S
C453 C452 1.434 . S
C454 C455 1.369 . S
C454 C456 1.419 . S
C454 H458 0.930 . S
C455 C454 1.369 . S
C455 C464 1.429 . S
C456 C454 1.419 . S
C456 C457 1.363 . S
C456 H459 0.929 . S
C457 C456 1.363 . S
C457 C463 1.428 . S
H458 C454 0.930 . S
H459 C456 0.929 . S
S460 N461 1.613 . S
S460 N462 1.610 . S
N461 S460 1.613 . S
N461 C464 1.350 . S
N462 S460 1.610 . S
N462 C463 1.351 . S
C463 C457 1.428 . S
C463 N462 1.351 . S
C463 C464 1.434 . S
C464 C455 1.429 . S
C464 N461 1.350 . S
C464 C463 1.434 . S
C465 C466 1.369 . S
C465 C467 1.419 . S
C465 H469 0.930 . S
C466 C465 1.369 . S
C466 C475 1.429 . S
C467 C465 1.419 . S
C467 C468 1.363 . S
C467 H470 0.929 . S
C468 C467 1.363 . S
C468 C474 1.428 . S
H469 C465 0.930 . S
H470 C467 0.929 . S
S471 N472 1.613 . S
S471 N473 1.610 . S
N472 S471 1.613 . S
N472 C475 1.350 . S
N473 S471 1.610 . S
N473 C474 1.351 . S
C474 C468 1.428 . S
C474 N473 1.351 . S
C474 C475 1.434 . S
C475 C466 1.429 . S
C475 N472 1.350 . S
C475 C474 1.434 . S
C476 C477 1.369 . S
C476 C478 1.419 . S
C476 H480 0.930 . S
C477 C476 1.369 . S
C477 C486 1.429 . S
C478 C476 1.419 . S
C478 C479 1.363 . S
C478 H481 0.929 . S
C479 C478 1.363 . S
C479 C485 1.428 . S
H480 C476 0.930 . S
H481 C478 0.929 . S
S482 N483 1.613 . S
S482 N484 1.610 . S
N483 S482 1.613 . S
N483 C486 1.350 . S
N484 S482 1.610 . S
N484 C485 1.351 . S
C485 C479 1.428 . S
C485 N484 1.351 . S
C485 C486 1.434 . S
C486 C477 1.429 . S
C486 N483 1.350 . S
C486 C485 1.434 . S
C487 C488 1.369 . S
C487 C489 1.419 . S
C487 H491 0.930 . S
C488 C487 1.369 . S
C488 C497 1.429 . S
C489 C487 1.419 . S
C489 C490 1.363 . S
C489 H492 0.929 . S
C490 C489 1.363 . S
C490 C496 1.428 . S
H491 C487 0.930 . S
H492 C489 0.929 . S
S493 N494 1.613 . S
S493 N495 1.610 . S
N494 S493 1.613 . S
N494 C497 1.350 . S
N495 S493 1.610 . S
N495 C496 1.351 . S
C496 C490 1.428 . S
C496 N495 1.351 . S
C496 C497 1.434 . S
C497 C488 1.429 . S
C497 N494 1.350 . S
C497 C496 1.434 . S
C498 C499 1.369 . S
C498 C500 1.419 . S
C498 H502 0.930 . S
C499 C498 1.369 . S
C499 C508 1.429 . S
C500 C498 1.419 . S
C500 C501 1.363 . S
C500 H503 0.929 . S
C501 C500 1.363 . S
C501 C507 1.428 . S
H502 C498 0.930 . S
H503 C500 0.929 . S
S504 N505 1.613 . S
S504 N506 1.610 . S
N505 S504 1.613 . S
N505 C508 1.350 . S
N506 S504 1.610 . S
N506 C507 1.351 . S
C507 C501 1.428 . S
C507 N506 1.351 . S
C507 C508 1.434 . S
C508 C499 1.429 . S
C508 N505 1.350 . S
C508 C507 1.434 . S
C509 C510 1.369 . S
C509 C511 1.419 . S
C509 H513 0.930 . S
C510 C509 1.369 . S
C510 C519 1.429 . S
C511 C509 1.419 . S
C511 C512 1.363 . S
C511 H514 0.929 . S
C512 C511 1.363 . S
C512 C518 1.428 . S
H513 C509 0.930 . S
H514 C511 0.929 . S
S515 N516 1.613 . S
S515 N517 1.610 . S
N516 S515 1.613 . S
N516 C519 1.350 . S
N517 S515 1.610 . S
N517 C518 1.351 . S
C518 C512 1.428 . S
C518 N517 1.351 . S
C518 C519 1.434 . S
C519 C510 1.429 . S
C519 N516 1.350 . S
C519 C518 1.434 . S
C520 C521 1.369 . S
C520 C522 1.419 . S
C520 H524 0.930 . S
C521 C520 1.369 . S
C521 C530 1.429 . S
C522 C520 1.419 . S
C522 C523 1.363 . S
C522 H525 0.929 . S
C523 C522 1.363 . S
C523 C529 1.428 . S
H524 C520 0.930 . S
H525 C522 0.929 . S
S526 N527 1.613 . S
S526 N528 1.610 . S
N527 S526 1.613 . S
N527 C530 1.350 . S
N528 S526 1.610 . S
N528 C529 1.351 . S
C529 C523 1.428 . S
C529 N528 1.351 . S
C529 C530 1.434 . S
C530 C521 1.429 . S
C530 N527 1.350 . S
C530 C529 1.434 . S
C531 C532 1.369 . S
C531 C533 1.419 1_554 S
C531 H535 0.930 . S
C532 C531 1.369 . S
C532 C541 1.429 . S
C533 C531 1.419 1_556 S
C533 C534 1.363 . S
C533 H536 0.929 . S
C534 C533 1.363 . S
C534 C540 1.428 . S
H535 C531 0.930 . S
H536 C533 0.929 . S
S537 N538 1.613 . S
S537 N539 1.610 1_554 S
N538 S537 1.613 . S
N538 C541 1.350 . S
N539 S537 1.610 1_556 S
N539 C540 1.351 . S
C540 C534 1.428 . S
C540 N539 1.351 . S
C540 C541 1.434 1_556 S
C541 C532 1.429 . S
C541 N538 1.350 . S
C541 C540 1.434 1_554 S
C542 C543 1.369 . S
C542 C544 1.419 1_556 S
C542 H546 0.930 . S
C543 C542 1.369 . S
C543 C552 1.429 1_545 S
C544 C542 1.419 1_554 S
C544 C545 1.363 1_545 S
C544 H547 0.929 . S
C545 C544 1.363 1_565 S
C545 C551 1.428 . S
H546 C542 0.930 . S
H547 C544 0.929 . S
S548 N549 1.613 . S
S548 N550 1.610 1_556 S
N549 S548 1.613 . S
N549 C552 1.350 . S
N550 S548 1.610 1_554 S
N550 C551 1.351 . S
C551 C545 1.428 . S
C551 N550 1.351 . S
C551 C552 1.434 1_554 S
C552 C543 1.429 1_565 S
C552 N549 1.350 . S
C552 C551 1.434 1_556 S
C553 C554 1.369 . S
C553 C555 1.419 1_556 S
C553 H557 0.930 . S
C554 C553 1.369 . S
C554 C563 1.429 1_655 S
C555 C553 1.419 1_554 S
C555 C556 1.363 1_655 S
C555 H558 0.929 . S
C556 C555 1.363 1_455 S
C556 C562 1.428 . S
H557 C553 0.930 . S
H558 C555 0.929 . S
S559 N560 1.613 . S
S559 N561 1.610 1_556 S
N560 S559 1.613 . S
N560 C563 1.350 . S
N561 S559 1.610 1_554 S
N561 C562 1.351 . S
C562 C556 1.428 . S
C562 N561 1.351 . S
C562 C563 1.434 1_554 S
C563 C554 1.429 1_455 S
C563 N560 1.350 . S
C563 C562 1.434 1_556 S
C564 C565 1.369 . S
C564 C566 1.419 . S
C564 H568 0.930 . S
C565 C564 1.369 . S
C565 C574 1.429 . S
C566 C564 1.419 . S
C566 C567 1.363 . S
C566 H569 0.929 . S
C567 C566 1.363 . S
C567 C573 1.428 . S
H568 C564 0.930 . S
H569 C566 0.929 . S
S570 N571 1.613 . S
S570 N572 1.610 . S
N571 S570 1.613 . S
N571 C574 1.350 . S
N572 S570 1.610 . S
N572 C573 1.351 . S
C573 C567 1.428 . S
C573 N572 1.351 . S
C573 C574 1.434 . S
C574 C565 1.429 . S
C574 N571 1.350 . S
C574 C573 1.434 . S
C575 C576 1.369 . S
C575 C577 1.419 . S
C575 H579 0.930 . S
C576 C575 1.369 . S
C576 C585 1.429 . S
C577 C575 1.419 . S
C577 C578 1.363 . S
C577 H580 0.929 . S
C578 C577 1.363 . S
C578 C584 1.428 . S
H579 C575 0.930 . S
H580 C577 0.929 . S
S581 N582 1.613 . S
S581 N583 1.610 . S
N582 S581 1.613 . S
N582 C585 1.350 . S
N583 S581 1.610 . S
N583 C584 1.351 . S
C584 C578 1.428 . S
C584 N583 1.351 . S
C584 C585 1.434 . S
C585 C576 1.429 . S
C585 N582 1.350 . S
C585 C584 1.434 . S
C586 C587 1.369 . S
C586 C588 1.419 . S
C586 H590 0.930 . S
C587 C586 1.369 . S
C587 C596 1.429 . S
C588 C586 1.419 . S
C588 C589 1.363 . S
C588 H591 0.929 . S
C589 C588 1.363 . S
C589 C595 1.428 . S
H590 C586 0.930 . S
H591 C588 0.929 . S
S592 N593 1.613 . S
S592 N594 1.610 . S
N593 S592 1.613 . S
N593 C596 1.350 . S
N594 S592 1.610 . S
N594 C595 1.351 . S
C595 C589 1.428 . S
C595 N594 1.351 . S
C595 C596 1.434 . S
C596 C587 1.429 . S
C596 N593 1.350 . S
C596 C595 1.434 . S
C597 C598 1.369 . S
C597 C599 1.419 . S
C597 H601 0.930 . S
C598 C597 1.369 . S
C598 C607 1.429 . S
C599 C597 1.419 . S
C599 C600 1.363 . S
C599 H602 0.929 . S
C600 C599 1.363 . S
C600 C606 1.428 . S
H601 C597 0.930 . S
H602 C599 0.929 . S
S603 N604 1.613 . S
S603 N605 1.610 . S
N604 S603 1.613 . S
N604 C607 1.350 . S
N605 S603 1.610 . S
N605 C606 1.351 . S
C606 C600 1.428 . S
C606 N605 1.351 . S
C606 C607 1.434 . S
C607 C598 1.429 . S
C607 N604 1.350 . S
C607 C606 1.434 . S
C608 C609 1.369 . S
C608 C610 1.419 . S
C608 H612 0.930 . S
C609 C608 1.369 . S
C609 C618 1.429 . S
C610 C608 1.419 . S
C610 C611 1.363 . S
C610 H613 0.929 . S
C611 C610 1.363 . S
C611 C617 1.428 . S
H612 C608 0.930 . S
H613 C610 0.929 . S
S614 N615 1.613 . S
S614 N616 1.610 . S
N615 S614 1.613 . S
N615 C618 1.350 . S
N616 S614 1.610 . S
N616 C617 1.351 . S
C617 C611 1.428 . S
C617 N616 1.351 . S
C617 C618 1.434 . S
C618 C609 1.429 . S
C618 N615 1.350 . S
C618 C617 1.434 . S
C619 C620 1.369 . S
C619 C621 1.419 . S
C619 H623 0.930 . S
C620 C619 1.369 . S
C620 C629 1.429 . S
C621 C619 1.419 . S
C621 C622 1.363 . S
C621 H624 0.929 . S
C622 C621 1.363 . S
C622 C628 1.428 . S
H623 C619 0.930 . S
H624 C621 0.929 . S
S625 N626 1.613 . S
S625 N627 1.610 . S
N626 S625 1.613 . S
N626 C629 1.350 . S
N627 S625 1.610 . S
N627 C628 1.351 . S
C628 C622 1.428 . S
C628 N627 1.351 . S
C628 C629 1.434 . S
C629 C620 1.429 . S
C629 N626 1.350 . S
C629 C628 1.434 . S
C235 C130 1.219 . S
C237 C0 1.214 . S
C246 C13 1.206 . S
C248 C143 1.193 . S
C257 C117 1.196 . S
C259 C26 1.209 . S
C268 C182 1.211 . S
C270 C39 1.206 . S
C279 C52 1.217 . S
C281 C156 1.204 . S
C290 C169 1.206 . S
C292 C65 1.210 . S
C301 C78 1.218 . S
C303 C208 1.226 . S
C312 C221 1.214 . S
C314 C91 1.217 . S
C323 C104 1.228 . S
C325 C195 1.220 . S
C334 C5 1.027 . S
C336 C23 1.244 . S
C345 C18 1.032 . S
C347 C36 1.223 . S
C356 C10 1.253 . S
C358 C31 1.037 . S
C367 C75 1.245 . S
C369 C44 1.030 . S
C378 C49 1.250 . S
C380 C57 1.045 . S
C389 C70 1.044 . S
C391 C62 1.226 . S
C400 C83 1.051 . S
C402 C101 1.261 . S
C411 C96 1.049 . S
C413 C114 1.252 . S
C422 C88 1.251 . S
C424 C109 1.033 . S
C433 C153 1.261 . S
C435 C122 1.040 . S
C444 C127 1.241 . S
C446 C135 1.035 . S
C455 C140 1.251 . S
C457 C148 1.044 . S
C466 C179 1.263 . S
C468 C161 1.038 . S
C477 C192 1.252 . S
C479 C174 1.027 . S
C488 C166 1.241 . S
C490 C187 1.038 . S
C499 C200 1.041 . S
C501 C231 1.265 . S
C510 C213 1.047 . S
C512 C205 1.252 . S
C521 C226 1.031 . S
C523 C218 1.254 . S
C532 C8 1.529 . S
C534 C47 1.528 . S
C543 C60 1.515 . S
C545 C21 1.505 . S
C554 C73 1.507 . S
C556 C34 1.510 . S
C565 C125 1.526 . S
C567 C86 1.526 . S
C576 C138 1.520 . S
C578 C99 1.523 . S
C587 C112 1.524 . S
C589 C151 1.526 . S
C598 C203 1.532 . S
C600 C164 1.530 . S
C609 C216 1.524 . S
C611 C177 1.526 . S
C620 C229 1.521 . S
C622 C190 1.518 . S
