# Generated by pormake.
# Topology snp, (6)-cn, num edge types: 1
# Building blocks:
#     Node 0, Type 0, BuildingBlock: KUMBOL_clean_sbu_1, # of connection points: 6
#     Node 1, Type 0, BuildingBlock: KUMBOL_clean_sbu_1, # of connection points: 6
#     Node 2, Type 0, BuildingBlock: KUMBOL_clean_sbu_1, # of connection points: 6
#     Node 3, Type 0, BuildingBlock: KUMBOL_clean_sbu_1, # of connection points: 6
#     Edge 4, Type (0, 0), BuildingBlock: CIFDUS_clean_linker_0, # of connection points: 2
#     Edge 5, Type (0, 0), BuildingBlock: CIFDUS_clean_linker_0, # of connection points: 2
#     Edge 6, Type (0, 0), BuildingBlock: CIFDUS_clean_linker_0, # of connection points: 2
#     Edge 7, Type (0, 0), BuildingBlock: CIFDUS_clean_linker_0, # of connection points: 2
#     Edge 8, Type (0, 0), BuildingBlock: CIFDUS_clean_linker_0, # of connection points: 2
#     Edge 9, Type (0, 0), BuildingBlock: CIFDUS_clean_linker_0, # of connection points: 2
#     Edge 10, Type (0, 0), BuildingBlock: CIFDUS_clean_linker_0, # of connection points: 2
#     Edge 11, Type (0, 0), BuildingBlock: CIFDUS_clean_linker_0, # of connection points: 2
#     Edge 12, Type (0, 0), BuildingBlock: CIFDUS_clean_linker_0, # of connection points: 2
#     Edge 13, Type (0, 0), BuildingBlock: CIFDUS_clean_linker_0, # of connection points: 2
#     Edge 14, Type (0, 0), BuildingBlock: CIFDUS_clean_linker_0, # of connection points: 2
#     Edge 15, Type (0, 0), BuildingBlock: CIFDUS_clean_linker_0, # of connection points: 2
# Relax obj value: 0.190
# Max RMSD: 0.249
# Mean RMSD: 0.249
data_MOF--net-snp--node1-KUMBOL_clean_sbu_1--edge1-CIFDUS_clean_linker_0
_symmetry_space_group_name_H-M    P1
_symmetry_Int_Tables_number       1
_symmetry_cell_setting            triclinic
loop_
_symmetry_equiv_pos_as_xyz
'x, y, z'
_cell_length_a     22.895015
_cell_length_b     22.959879
_cell_length_c     30.059359
_cell_angle_alpha  113.79129
_cell_angle_beta   66.068017
_cell_angle_gamma 157.38247
loop_
_atom_site_label
_atom_site_type_symbol
_atom_site_fract_x
_atom_site_fract_y
_atom_site_fract_z
_atom_type_partial_charge
C0 C 0.11241 0.85109 0.15513 0.0
C1 C 0.2163 0.83785 0.12241 0.0
C2 C 0.22074 0.90646 0.15341 0.0
C3 C 0.12771 0.73715 0.08297 0.0
C4 C -0.0185 0.70849 0.12275 0.0
C5 C 0.01914 0.67944 0.08002 0.0
N6 N 0.11828 0.91817 0.19247 0.0
C7 C -0.00034 0.85828 0.20816 0.0
C8 C 0.82821 0.61837 0.14363 0.0
C9 C 0.84345 0.70363 0.18581 0.0
Gd10 Gd 0.0031 0.82275 0.13157 0.0
Gd11 Gd 0.39739 0.19857 0.20123 0.0
N12 N 0.33533 0.03297 0.18244 0.0
C13 C 0.30266 0.87412 0.1327 0.0
C14 C 0.40383 0.0553 0.19789 0.0
C15 C 0.38095 -0.0311 0.1746 0.0
H16 H 0.47431 0.13746 0.22788 0.0
H17 H 0.42719 -0.02138 0.18765 0.0
H18 H 0.81922 0.8001 0.16954 0.0
H19 H 0.00877 0.91029 0.23976 0.0
H20 H 0.82358 0.90195 0.24023 0.0
H21 H 0.30119 0.8221 0.11078 0.0
H22 H 0.13534 0.69535 0.05604 0.0
H23 H 0.35611 0.07123 0.09575 0.0
H24 H 0.8923 0.64399 0.12681 0.0
H25 H 0.75085 0.65253 0.20174 0.0
H26 H 0.3308 0.37919 0.27931 0.0
H27 H -0.05282 0.59586 0.05065 0.0
H28 H 0.53118 0.38607 0.19743 0.0
H29 H 0.61679 0.31891 0.1233 0.0
N30 N 0.27857 0.09811 0.14137 0.0
C31 C 0.29853 0.17851 0.17829 0.0
C32 C 0.38381 0.14061 0.12458 0.0
C33 C 0.58584 0.40006 0.18172 0.0
C34 C 0.54125 0.28833 0.14289 0.0
C35 C 0.44814 0.33368 0.20443 0.0
H36 H 0.53519 0.49637 0.26401 0.0
N37 N 0.0452 -0.0246 0.17023 0.0
C38 C 0.17831 0.11349 0.19199 0.0
C39 C 0.0566 0.10107 0.24885 0.0
C40 C 0.18524 0.1786 0.23216 0.0
C41 C 0.92123 0.90289 0.18695 0.0
C42 C 0.92249 -0.03951 0.22767 0.0
O43 O 0.55259 0.3524 0.09833 0.0
O44 O 0.82134 0.59866 0.06427 0.0
O45 O -0.031 0.8188 0.07125 0.0
O46 O 0.13804 0.89889 0.059 0.0
O47 O 0.62941 0.35662 0.21219 0.0
O48 O 0.88003 0.63016 0.19875 0.0
O49 O 0.85352 0.65965 0.23007 0.0
O50 O 0.58768 0.43557 0.26747 0.0
O51 O 0.4586 0.2783 0.27463 0.0
O52 O 0.24258 0.11677 0.26479 0.0
O53 O 0.75883 0.64866 0.12084 0.0
O54 O 0.52124 0.37299 0.1251 0.0
C55 C 0.68289 0.44158 0.0634 0.0
C56 C 0.77676 0.48306 0.19047 0.0
C57 C 0.17112 -0.00756 1.00609 0.0
C58 C 0.22133 0.09528 0.94744 0.0
C59 C 0.42823 0.24878 0.97965 0.0
C60 C 0.32641 0.1378 1.00993 0.0
C61 C 0.37723 0.22552 0.94758 0.0
C62 C 0.11639 -0.02797 0.97504 0.0
C63 C 0.07489 0.87755 0.03997 0.0
C64 C 0.31769 0.3192 0.2548 0.0
C65 C 0.44256 0.39435 0.24372 0.0
H66 H 0.0623 0.15379 0.27538 0.0
C67 C 0.74003 0.59407 0.26892 0.0
C68 C 0.60389 0.50547 0.1327 0.0
C69 C 0.24141 0.05249 0.31225 0.0
C70 C 0.24458 -0.03339 0.33907 0.0
C71 C 0.00798 0.78589 0.32051 0.0
C72 C 0.08549 0.90289 0.30962 0.0
C73 C 0.08514 0.81672 0.33548 0.0
C74 C 0.3224 0.08513 0.32702 0.0
C75 C 0.3182 0.16666 0.29233 0.0
H76 H 0.54937 0.3585 0.98301 0.0
H77 H 0.36836 0.16858 0.0394 0.0
H78 H 0.4647 0.31966 0.92673 0.0
H79 H -0.00544 0.86526 0.97478 0.0
H80 H 0.88641 0.66987 0.31797 0.0
H81 H 0.02548 0.87785 0.29754 0.0
H82 H 0.01434 0.72006 0.34603 0.0
H83 H 0.44439 0.20125 0.32865 0.0
C84 C 0.8515 0.16723 0.64109 0.0
C85 C 0.83403 0.2668 0.67532 0.0
C86 C 0.90587 0.27471 0.64351 0.0
C87 C 0.71822 0.16157 0.71064 0.0
C88 C 0.71617 0.04372 0.67227 0.0
C89 C 0.65981 0.05067 0.70938 0.0
N90 N 0.91897 0.17437 0.60318 0.0
C91 C 0.85526 0.05394 0.58733 0.0
C92 C 0.62469 0.90114 0.65533 0.0
C93 C 0.69316 0.8953 0.61076 0.0
Gd94 Gd 0.82273 0.05299 0.66199 0.0
Gd95 Gd 0.20156 0.45406 0.59421 0.0
N96 N 0.03398 0.39127 0.61487 0.0
C97 C 0.8773 0.36104 0.66862 0.0
C98 C 0.05837 0.46333 0.60163 0.0
C99 C -0.02547 0.44342 0.62732 0.0
H100 H 0.14089 0.53529 0.57173 0.0
H101 H -0.01361 0.49295 0.61598 0.0
H102 H 0.8055 0.87352 0.61325 0.0
H103 H 0.90728 0.06393 0.55517 0.0
H104 H 0.91476 0.88963 0.54013 0.0
H105 H 0.82612 0.36016 0.69217 0.0
H106 H 0.66553 0.15785 0.73674 0.0
H107 H 0.06149 0.3956 0.70011 0.0
H108 H 0.52407 0.83006 0.67245 0.0
H109 H 0.64271 0.80398 0.59325 0.0
H110 H 0.40099 0.40388 0.52008 0.0
H111 H 0.56066 -0.03851 0.73388 0.0
H112 H 0.39224 0.59204 0.59791 0.0
H113 H 0.29993 0.65475 0.67344 0.0
N114 N 0.09872 0.3293 0.65214 0.0
C115 C 0.18351 0.3554 0.61377 0.0
C116 C 0.13567 0.42948 0.67116 0.0
C117 C 0.40251 0.64365 0.61533 0.0
C118 C 0.2803 0.58696 0.65467 0.0
C119 C 0.34213 0.51043 0.58917 0.0
H120 H 0.53084 0.62061 0.53831 0.0
N121 N -0.01918 0.10077 0.61807 0.0
C122 C 0.12023 0.237 0.59754 0.0
C123 C 0.11232 0.12329 0.53466 0.0
C124 C 0.19023 0.25078 0.55651 0.0
C125 C 0.91185 -0.01994 0.59844 0.0
C126 C -0.02627 -0.01206 0.556 0.0
O127 O 0.34965 0.59708 0.69507 0.0
O128 O 0.59881 0.86334 0.72768 0.0
O129 O 0.83057 0.02494 0.71988 0.0
O130 O 0.89613 0.18214 0.73569 0.0
O131 O 0.35527 0.68408 0.58668 0.0
O132 O 0.63515 0.93986 0.59514 0.0
O133 O 0.66361 0.913 0.56226 0.0
O134 O 0.43739 0.64585 0.52833 0.0
O135 O 0.28027 0.51678 0.52118 0.0
O136 O 0.12427 0.30438 0.5297 0.0
O137 O 0.65333 0.80887 0.66706 0.0
O138 O 0.3744 0.571 0.66763 0.0
C139 C 0.44039 0.72407 0.73166 0.0
C140 C 0.4853 0.83387 0.60511 0.0
C141 C 0.00134 0.22444 0.78732 0.0
C142 C 0.11722 0.28959 0.84657 0.0
C143 C 0.24937 0.48452 0.81831 0.0
C144 C 0.1405 0.37998 0.78618 0.0
C145 C 0.23176 0.43878 0.85044 0.0
C146 C -0.00734 0.1775 0.81682 0.0
C147 C 0.884 0.12523 0.75268 0.0
C148 C 0.33816 0.3899 0.53894 0.0
C149 C 0.41504 0.51634 0.5523 0.0
H150 H 0.15899 0.12849 0.50154 0.0
C151 C 0.59495 0.79833 0.52459 0.0
C152 C 0.50693 0.65264 0.65866 0.0
C153 C 0.06019 0.3006 0.48033 0.0
C154 C -0.03835 0.2924 0.45552 0.0
C155 C 0.79142 0.0618 0.47199 0.0
C156 C 0.9134 0.14418 0.48132 0.0
C157 C 0.81454 0.13358 0.45907 0.0
C158 C 0.08553 0.37648 0.467 0.0
C159 C 0.17498 0.38037 0.50204 0.0
H160 H 0.35347 0.60474 0.81693 0.0
H161 H 0.16774 0.42029 0.75745 0.0
H162 H 0.32198 0.52672 0.87389 0.0
H163 H 0.89738 0.05912 0.81391 0.0
H164 H 0.67679 0.94066 0.47433 0.0
H165 H 0.89476 0.08863 0.49199 0.0
H166 H 0.71414 0.05881 0.44957 0.0
H167 H 0.19941 0.49875 0.46603 0.0
C168 C 0.15357 0.3215 0.11027 0.0
C169 C 0.26395 0.32186 0.0509 0.0
C170 C 0.27356 0.38588 0.09342 0.0
C171 C 0.12597 0.17623 1.03263 0.0
C172 C 0.00083 0.16678 0.08515 0.0
C173 C -0.00259 0.09744 0.04631 0.0
N174 N 0.17655 0.40209 0.14968 0.0
C175 C 0.07348 0.3622 0.1697 0.0
C176 C 0.86653 0.10473 0.11177 0.0
C177 C 0.91577 0.21813 0.15306 0.0
Gd178 Gd 0.05517 0.30681 0.09299 0.0
Gd179 Gd 0.45311 0.67664 0.15996 0.0
N180 N 0.40842 0.52233 0.11461 0.0
C181 C 0.39434 0.40316 1.02823 0.0
C182 C 0.53125 0.59332 0.09453 0.0
C183 C 0.52866 0.53941 0.05008 0.0
H184 H 0.63572 0.69616 0.11083 0.0
H185 H 0.62906 0.60088 1.03353 0.0
H186 H -0.02393 0.37379 0.07745 0.0
H187 H 0.10539 0.43373 0.19901 0.0
H188 H 0.02487 0.53287 0.12343 0.0
H189 H 0.39227 0.36105 0.99398 0.0
H190 H 0.11423 0.11586 1.01403 0.0
H191 H 0.44033 0.59236 0.04963 0.0
H192 H 0.91926 0.11648 0.0939 0.0
H193 H 0.84227 0.18984 0.17494 0.0
H194 H 0.33408 0.81706 0.24688 0.0
H195 H 0.89283 -0.01744 1.03123 0.0
H196 H 0.56658 0.85751 0.16762 0.0
H197 H 0.6966 0.84014 0.08433 0.0
N198 N 0.3348 0.58604 0.10226 0.0
C199 C 0.34381 0.6535 0.14211 0.0
C200 C 0.45154 0.64358 0.083 0.0
C201 C 0.62895 0.88135 0.14865 0.0
C202 C 0.60785 0.79388 0.10362 0.0
C203 C 0.47764 0.79456 0.17371 0.0
H204 H 0.52407 0.91492 0.24586 0.0
N205 N 0.12052 0.47651 0.11791 0.0
C206 C 0.23709 0.60168 0.14663 0.0
C207 C 0.15648 0.63679 0.17402 0.0
C208 C 0.24453 0.67167 0.1803 0.0
C209 C 0.04896 0.4549 0.10682 0.0
C210 C 0.07291 0.54154 0.13338 0.0
O211 O 0.59461 0.84628 0.06818 0.0
O212 O 0.85742 0.07096 1.02762 0.0
O213 O -0.00971 0.22847 1.02029 0.0
O214 O 0.20641 0.38864 1.02664 0.0
O215 O 0.70227 0.85084 0.16417 0.0
O216 O -0.06708 0.12581 0.16379 0.0
O217 O 0.90205 0.14511 0.19236 0.0
O218 O 0.63721 0.89909 0.22764 0.0
O219 O 0.48316 0.67068 0.21793 0.0
O220 O 0.31911 0.59714 0.23332 0.0
O221 O 0.82158 0.15196 0.08796 0.0
O222 O 0.57392 0.8785 0.10065 0.0
C223 C 0.70508 0.91266 1.02708 0.0
C224 C 0.85695 -0.00254 0.15315 0.0
C225 C 0.20095 0.45463 0.98537 0.0
C226 C 0.16606 0.52182 0.97335 0.0
C227 C 0.37138 0.69845 1.01719 0.0
C228 C 0.33757 0.60386 1.00412 0.0
C229 C 0.27702 0.65076 1.00603 0.0
C230 C 0.1177 0.41522 0.9669 0.0
C231 C 0.12934 0.33987 1.00085 0.0
C232 C 0.33811 0.77302 0.21835 0.0
C233 C 0.44754 0.82943 0.21783 0.0
H234 H 0.16079 0.69065 0.19799 0.0
C235 C 0.77385 0.0559 0.22881 0.0
C236 C 0.67607 0.0253 0.111 0.0
C237 C 0.27904 0.49435 0.28455 0.0
C238 C 0.21398 0.37967 0.34426 0.0
C239 C 0.01736 0.24404 0.31455 0.0
C240 C 0.12295 0.35365 0.2825 0.0
C241 C 0.06304 0.26236 0.34716 0.0
C242 C 0.3266 0.5048 0.31477 0.0
C243 C 0.37881 0.61261 0.25047 0.0
H244 H 0.47071 0.80926 1.03583 0.0
H245 H 0.40868 0.63954 1.01321 0.0
H246 H 0.3041 0.72538 1.01816 0.0
H247 H 0.01911 0.30491 0.94752 0.0
H248 H 0.89669 0.13899 0.31268 0.0
H249 H 0.08289 0.3265 0.25362 0.0
H250 H -0.02579 0.17094 0.37022 0.0
H251 H 0.44615 0.60218 0.31268 0.0
C252 C 0.32613 0.20915 0.68432 0.0
C253 C 0.31218 0.30881 0.73786 0.0
C254 C 0.38753 0.32574 0.69921 0.0
C255 C 0.16705 0.17131 0.75863 0.0
C256 C 0.16714 0.05445 0.70881 0.0
C257 C 0.09481 0.04855 0.74638 0.0
N258 N 0.41223 0.23573 0.64697 0.0
C259 C 0.37528 0.13553 0.62869 0.0
C260 C 0.1077 0.92201 0.68372 0.0
C261 C 0.2303 -0.02153 0.64557 0.0
Gd262 Gd 0.30747 0.1117 0.70565 0.0
Gd263 Gd 0.6882 0.51143 0.63802 0.0
N264 N 0.52888 0.46262 0.67917 0.0
C265 C 0.38365 0.43248 0.75441 0.0
C266 C 0.59961 0.58444 0.69882 0.0
C267 C 0.5307 0.57275 0.73743 0.0
H268 H 0.71158 0.6939 0.6868 0.0
H269 H 0.58684 0.6694 0.75163 0.0
H270 H 0.36458 0.02956 0.73194 0.0
H271 H 0.44876 0.16812 0.59974 0.0
H272 H 0.5212 0.07416 0.69065 0.0
H273 H 0.32287 0.41937 0.77792 0.0
H274 H 0.10165 0.15292 0.78247 0.0
H275 H 0.60642 0.50908 0.74503 0.0
H276 H 0.1176 -0.02681 0.70036 0.0
H277 H 0.2105 0.91053 0.62754 0.0
H278 H 0.84349 0.40551 0.56777 0.0
H279 H -0.0165 0.94649 0.7628 0.0
H280 H -0.01378 0.73422 0.62795 0.0
H281 H 0.8677 0.76273 0.70569 0.0
N282 N 0.59019 0.39236 0.69788 0.0
C283 C 0.65795 0.39845 0.66104 0.0
C284 C 0.65543 0.51434 0.71293 0.0
C285 C 0.88608 0.66406 0.64539 0.0
C286 C 0.8178 0.67146 0.68891 0.0
C287 C 0.79432 0.52134 0.62971 0.0
H288 H -0.0508 0.60148 0.5686 0.0
N289 N 0.47287 0.17287 0.68747 0.0
C290 C 0.60232 0.29013 0.65935 0.0
C291 C 0.63152 0.20482 0.63676 0.0
C292 C 0.67478 0.29815 0.62872 0.0
C293 C 0.44827 0.10182 0.70218 0.0
C294 C 0.53346 0.12306 0.67815 0.0
O295 O 0.84529 0.65422 0.73914 0.0
O296 O 0.06982 0.92186 0.77164 0.0
O297 O 0.22193 0.04608 0.77903 0.0
O298 O 0.39066 0.26579 0.7692 0.0
O299 O 0.85723 0.75327 0.63004 0.0
O300 O 0.13757 -0.00553 0.63002 0.0
O301 O 0.16209 -0.03296 0.6033 0.0
O302 O 0.91187 0.69873 0.57183 0.0
O303 O 0.69083 0.54443 0.57779 0.0
O304 O 0.61983 0.38327 0.56483 0.0
O305 O 0.15423 0.88356 0.71526 0.0
O306 O 0.87436 0.62725 0.70713 0.0
C307 C 0.91237 0.76909 0.77601 0.0
C308 C 0.00316 0.9098 0.63769 0.0
C309 C 0.45066 0.25721 0.81301 0.0
C310 C 0.53127 0.24132 0.83234 0.0
C311 C 0.71818 0.47636 0.80852 0.0
C312 C 0.60278 0.4092 0.80615 0.0
C313 C 0.68382 0.39428 0.82082 0.0
C314 C 0.41368 0.17194 0.82687 0.0
C315 C 0.33824 0.18705 0.79599 0.0
C316 C 0.79101 0.40242 0.59318 0.0
C317 C 0.85006 0.51318 0.59335 0.0
H318 H 0.68273 0.20546 0.61404 0.0
C319 C 0.0704 0.8384 0.56746 0.0
C320 C 0.02413 0.7333 0.69762 0.0
C321 C 0.52169 0.34552 0.51205 0.0
C322 C 0.41645 0.29096 0.4524 0.0
C323 C 0.2647 0.08791 0.48651 0.0
C324 C 0.37717 0.191 0.51627 0.0
C325 C 0.28711 0.13647 0.45342 0.0
C326 C 0.54016 0.39766 0.48046 0.0
C327 C 0.63739 0.4432 0.54608 0.0
H328 H 0.83632 0.59456 0.80185 0.0
H329 H 0.63033 0.47364 0.79696 0.0
H330 H 0.78179 0.45863 0.82367 0.0
H331 H 0.295 0.05342 0.83291 0.0
H332 H 0.1549 -0.03246 0.49064 0.0
H333 H 0.34827 0.1509 0.54586 0.0
H334 H 0.19242 0.04819 0.43274 0.0
H335 H 0.64611 0.51872 0.47983 0.0
H336 H 0.08218 0.22082 0.20774 0.0
H337 H 0.88298 0.89736 0.08633 0.0
H338 H 0.12265 0.05771 0.06362 0.0
H339 H 0.39678 0.30248 0.07261 0.0
H340 H 0.58107 0.60653 0.19928 0.0
H341 H 0.34557 0.4509 0.22039 0.0
C342 C 0.0915 0.18553 0.17617 0.0
C343 C -0.03465 0.04814 0.14931 0.0
C344 C 0.23037 0.28068 0.16134 0.0
C345 C -0.02482 -0.00129 0.10937 0.0
C346 C 0.11386 0.09208 0.09548 0.0
C347 C 0.38352 0.33308 0.1046 0.0
C348 C 0.50564 0.46515 0.1333 0.0
C349 C 0.24279 0.23516 0.11995 0.0
C350 C 0.49379 0.51162 0.17423 0.0
C351 C 0.35686 0.42037 0.1873 0.0
H352 H 0.21713 0.12653 0.57958 0.0
H353 H 0.89186 0.92544 0.70161 0.0
H354 H 0.04629 0.15868 0.72342 0.0
H355 H 0.27873 0.42361 0.7128 0.0
H356 H 0.62013 0.63708 0.59554 0.0
H357 H 0.46327 0.40115 0.57217 0.0
C358 C 0.18085 0.13479 0.61068 0.0
C359 C 0.04327 0.00793 0.63787 0.0
C360 C 0.27712 0.27397 0.62644 0.0
C361 C -0.00865 0.01556 0.67761 0.0
C362 C 0.08187 0.15152 0.69112 0.0
C363 C 0.31948 0.41894 0.68212 0.0
C364 C 0.46136 0.54901 0.65672 0.0
C365 C 0.22574 0.28143 0.6667 0.0
C366 C 0.5162 0.54337 0.61797 0.0
C367 C 0.42416 0.40606 0.60348 0.0
H368 H 0.6409 0.07483 0.06899 0.0
H369 H 0.66387 0.09197 0.21002 0.0
H370 H 0.73339 0.2634 0.2441 0.0
H371 H 0.80374 0.42688 0.23465 0.0
H372 H 0.79508 0.41888 0.09178 0.0
H373 H 0.72143 0.24508 0.05885 0.0
C374 C 0.65263 0.10907 0.10784 0.0
C375 C 0.63321 0.05554 0.13654 0.0
C376 C 0.70992 0.2239 0.12699 0.0
C377 C 0.66061 0.11297 0.18632 0.0
C378 C 0.71043 0.22119 0.20608 0.0
C379 C 0.79424 0.39411 0.19572 0.0
C380 C 0.81735 0.45019 0.16635 0.0
C381 C 0.73938 0.28093 0.17652 0.0
C382 C 0.79465 0.39581 0.11633 0.0
C383 C 0.74253 0.28603 0.09704 0.0
H384 H 0.37095 0.81596 0.69395 0.0
H385 H 0.50934 0.92164 0.54692 0.0
H386 H 0.33868 0.85516 0.55885 0.0
H387 H 0.13808 0.74976 0.60884 0.0
H388 H 0.00376 0.64957 0.75648 0.0
H389 H 0.17313 0.71465 0.74454 0.0
C390 C 0.36717 0.8277 0.66448 0.0
C391 C 0.4582 0.87848 0.61968 0.0
C392 C 0.26124 0.77982 0.67077 0.0
C393 C 0.44822 0.89115 0.58252 0.0
C394 C 0.346 0.84758 0.58883 0.0
C395 C 0.14306 0.73991 0.63863 0.0
C396 C 0.05232 0.6897 0.68345 0.0
C397 C 0.24962 0.78863 0.63245 0.0
C398 C 0.06359 0.6786 0.72079 0.0
C399 C 0.16541 0.72167 0.71447 0.0
H400 H 0.64694 0.81118 0.41878 0.0
H401 H 0.77269 0.85716 0.52377 0.0
H402 H 0.85632 0.83293 0.45885 0.0
H403 H 0.80165 0.69906 0.3735 0.0
H404 H 0.76009 0.73844 0.26628 0.0
H405 H 0.71089 0.7967 0.32894 0.0
C406 C 0.69328 0.81767 0.42878 0.0
C407 C 0.69106 0.8287 0.48029 0.0
C408 C 0.74012 0.79854 0.38944 0.0
C409 C 0.76641 0.84781 0.4875 0.0
C410 C 0.81309 0.83005 0.44905 0.0
C411 C 0.78827 0.72534 0.36212 0.0
C412 C 0.76812 0.6911 0.31096 0.0
C413 C 0.7859 0.78909 0.39978 0.0
C414 C 0.76064 0.74112 0.30231 0.0
C415 C 0.73497 0.78029 0.33962 0.0
H416 H 0.1317 0.48397 0.7704 0.0
H417 H 0.59669 -0.04303 0.80061 0.0
H418 H 0.51548 0.93526 0.88618 0.0
H419 H 0.3532 0.77316 0.94817 0.0
H420 H 0.92003 0.28473 0.91691 0.0
H421 H -0.05748 0.31618 0.83872 0.0
C422 C 0.21683 0.58133 0.79519 0.0
C423 C 0.37376 0.71505 0.77874 0.0
C424 C 0.17283 0.56226 0.84566 0.0
C425 C 0.47649 0.84621 0.81177 0.0
C426 C 0.43003 0.83442 0.86127 0.0
C427 C 0.25968 0.67057 0.9257 0.0
C428 C 0.13914 0.52641 0.938 0.0
C429 C 0.28401 0.69005 0.87851 0.0
C430 C 0.0184 0.39806 0.90787 0.0
C431 C 0.03179 0.4164 0.86291 0.0
H432 H 0.18457 0.10226 0.39637 0.0
H433 H 0.59831 0.55781 0.46012 0.0
H434 H 0.51871 0.58228 0.45382 0.0
H435 H 0.43162 0.55519 0.40023 0.0
H436 H 0.01072 0.09723 0.34381 0.0
H437 H 0.05267 0.03917 0.35525 0.0
C438 C 0.27633 0.21924 0.40343 0.0
C439 C 0.40483 0.32934 0.42798 0.0
C440 C 0.26006 0.2574 0.38945 0.0
C441 C 0.50672 0.47246 0.43825 0.0
C442 C 0.47117 0.49591 0.43207 0.0
C443 C 0.35138 0.44436 0.38966 0.0
C444 C 0.23046 0.34122 0.36442 0.0
C445 C 0.36306 0.40108 0.40289 0.0
C446 C 0.11653 0.18981 0.35758 0.0
C447 C 0.13598 0.15204 0.36639 0.0
H448 H 0.73058 0.33402 0.84006 0.0
H449 H 0.25969 -0.03512 0.8793 0.0
H450 H 0.26801 -0.04611 0.95371 0.0
H451 H 0.43294 0.13289 1.02346 0.0
H452 H 0.91195 0.59462 0.99059 0.0
H453 H 0.89244 0.50969 0.90652 0.0
C454 C 0.63063 0.25749 0.86606 0.0
C455 C 0.50343 0.1702 0.85715 0.0
C456 C 0.64636 0.28234 0.91445 0.0
C457 C 0.36671 0.04744 0.8865 0.0
C458 C 0.37222 0.04355 0.93011 0.0
C459 C 0.53208 0.21749 0.99842 0.0
C460 C 0.669 0.37353 1.01469 0.0
C461 C 0.5154 0.17543 0.94781 0.0
C462 C 0.80047 0.47434 0.98071 0.0
C463 C 0.79012 0.42611 0.93168 0.0
H464 H 0.65087 0.7251 1.00056 0.0
H465 H 0.67039 0.87904 0.93514 0.0
H466 H 0.69729 0.81593 0.85398 0.0
H467 H 0.76872 0.76585 0.79948 0.0
H468 H 0.81947 0.6828 0.86874 0.0
H469 H 0.68953 0.64223 0.94383 0.0
C470 C 0.65417 0.73999 0.96924 0.0
C471 C 0.66491 0.81704 0.97739 0.0
C472 C 0.68214 0.71276 0.92031 0.0
C473 C 0.66836 0.82904 0.93316 0.0
C474 C 0.6857 0.79335 0.88547 0.0
C475 C 0.7656 0.75139 0.83083 0.0
C476 C 0.81577 0.73359 0.82431 0.0
C477 C 0.70938 0.75056 0.87826 0.0
C478 C 0.78314 0.69388 0.86811 0.0
C479 C 0.70879 0.67265 0.91286 0.0
H480 H 0.14652 0.76513 0.34693 0.0
H481 H 0.52744 0.23867 0.3808 0.0
H482 H 0.54963 0.23781 0.45338 0.0
H483 H 0.37878 0.08081 0.52552 0.0
H484 H 0.9138 0.6011 0.50118 0.0
H485 H -0.01219 0.6124 0.41513 0.0
C486 C 0.23031 0.86791 0.37128 0.0
C487 C 0.31787 -0.0055 0.36192 0.0
C488 C 0.21487 0.85802 0.41918 0.0
C489 C 0.44619 0.1332 0.38866 0.0
C490 C 0.45675 0.13206 0.43125 0.0
C491 C 0.29099 -0.01969 0.50161 0.0
C492 C 0.13566 0.84611 0.5199 0.0
C493 C 0.32713 -0.00826 0.45062 0.0
C494 C 0.03205 0.71128 0.48849 0.0
C495 C 0.07434 0.71693 0.43871 0.0
H496 H -0.05246 0.07628 0.90246 0.0
H497 H 0.40528 0.4995 0.84661 0.0
H498 H 0.46675 0.45803 0.85471 0.0
H499 H 0.40684 0.32712 0.89337 0.0
H500 H -0.04873 0.91219 0.95816 0.0
H501 H 0.92019 -0.01455 0.95114 0.0
C502 C 0.05744 0.15455 0.88991 0.0
C503 C 0.15944 0.27574 0.8656 0.0
C504 C 0.10192 0.14233 0.901 0.0
C505 C 0.31298 0.39253 0.85917 0.0
C506 C 0.3528 0.37363 0.86607 0.0
C507 C 0.28845 0.23353 0.90051 0.0
C508 C 0.17931 0.10445 0.92402 0.0
C509 C 0.24773 0.24808 0.88759 0.0
C510 C 0.03388 0.00033 0.9349 0.0
C511 C 0.00621 0.03181 0.92878 0.0
H512 H 0.0205 0.36421 0.26717 0.0
H513 H 0.55132 0.90322 0.30511 0.0
H514 H 0.5774 -0.00435 0.3888 0.0
H515 H 0.74981 0.18565 0.4532 0.0
H516 H 0.22128 0.56083 0.40674 0.0
H517 H 0.195 0.55398 0.33255 0.0
C518 C 0.92408 0.28177 0.29269 0.0
C519 C 0.78885 0.12463 0.27792 0.0
C520 C -0.05257 0.33106 0.34271 0.0
C521 C 0.66175 0.0249 0.31366 0.0
C522 C 0.67597 0.07768 0.3624 0.0
C523 C 0.84693 0.26287 0.42593 0.0
C524 C -0.01964 0.35746 0.43281 0.0
C525 C 0.82143 0.22714 0.37775 0.0
C526 C 0.11138 0.47578 0.40153 0.0
C527 C 0.09509 0.46869 0.35802 0.0
loop_
_geom_bond_atom_site_label_1
_geom_bond_atom_site_label_2
_geom_bond_distance
_geom_bond_site_symmetry_2
_ccdc_geom_bond_type
C0 C2 1.422 . S
C0 C4 1.415 . S
C0 N6 1.369 1_565 S
C1 C2 1.421 . S
C1 C3 1.417 . S
C1 C13 1.422 . S
C2 C0 1.422 . S
C2 C1 1.421 . S
C2 N12 1.359 1_565 S
C3 C1 1.417 . S
C3 C5 1.329 1_455 S
C3 H22 0.930 1_455 S
C4 C0 1.415 . S
C4 C5 1.437 1_455 S
C4 C8 1.413 1_455 S
C5 C3 1.329 1_655 S
C5 C4 1.437 1_655 S
C5 H27 0.929 . S
N6 C0 1.369 1_545 S
N6 C7 1.338 . S
N6 Gd11 2.622 . S
C7 N6 1.338 . S
C7 C9 1.378 1_545 S
C7 H19 0.929 . S
C8 C4 1.413 1_655 S
C8 C9 1.348 1_655 S
C8 H24 0.931 . S
C9 C7 1.378 1_565 S
C9 C8 1.348 1_455 S
C9 H25 0.930 1_455 S
Gd10 N30 2.622 1_565 S
Gd10 N37 2.570 1_565 S
Gd10 O44 2.353 1_455 S
Gd10 O45 2.468 . S
Gd10 O46 2.427 . S
Gd10 O48 2.388 . S
Gd10 O49 2.386 . S
Gd10 O53 2.307 1_455 S
Gd10 C63 2.805 . S
Gd11 N6 2.622 . S
Gd11 N12 2.570 . S
Gd11 O43 2.386 . S
Gd11 O47 2.307 . S
Gd11 O50 2.353 . S
Gd11 O51 2.468 . S
Gd11 O52 2.427 . S
Gd11 O54 2.388 . S
Gd11 C75 2.805 . S
N12 C2 1.359 1_545 S
N12 Gd11 2.570 . S
N12 C14 1.343 . S
C13 C1 1.422 . S
C13 C15 1.321 1_565 S
C13 H21 0.931 . S
C14 N12 1.343 . S
C14 C15 1.390 . S
C14 H16 0.931 . S
C15 C13 1.321 1_545 S
C15 C14 1.390 . S
C15 H17 0.930 . S
H16 C14 0.931 . S
H17 C15 0.930 . S
H18 C41 0.931 1_565 S
H19 C7 0.929 . S
H20 C42 0.930 . S
H21 C13 0.931 . S
H22 C3 0.930 1_655 S
H23 C32 0.929 . S
H24 C8 0.931 . S
H25 C9 0.930 1_655 S
H26 C64 0.930 . S
H27 C5 0.929 . S
H28 C33 0.931 . S
H29 C34 0.930 . S
N30 Gd10 2.622 1_545 S
N30 C31 1.369 . S
N30 C32 1.338 . S
C31 N30 1.369 . S
C31 C35 1.415 . S
C31 C38 1.422 . S
C32 H23 0.929 . S
C32 N30 1.338 . S
C32 C34 1.378 . S
C33 H28 0.931 . S
C33 C34 1.348 . S
C33 C35 1.413 . S
C34 H29 0.930 . S
C34 C32 1.378 . S
C34 C33 1.348 . S
C35 C31 1.415 . S
C35 C33 1.413 . S
C35 C65 1.437 . S
H36 C65 0.929 . S
N37 Gd10 2.570 1_545 S
N37 C38 1.359 . S
N37 C41 1.343 . S
C38 C31 1.422 . S
C38 N37 1.359 . S
C38 C40 1.421 . S
C39 C40 1.422 . S
C39 C42 1.321 . S
C39 H66 0.931 . S
C40 C38 1.421 . S
C40 C39 1.422 . S
C40 C64 1.417 . S
C41 H18 0.931 1_545 S
C41 N37 1.343 . S
C41 C42 1.390 . S
C42 H20 0.930 . S
C42 C39 1.321 . S
C42 C41 1.390 . S
O43 Gd11 2.386 . S
O43 C55 1.265 . S
O44 Gd10 2.353 1_655 S
O44 C55 1.242 . S
O45 Gd10 2.468 . S
O45 C63 1.263 . S
O46 Gd10 2.427 . S
O46 C63 1.252 . S
O47 Gd11 2.307 . S
O47 C56 1.261 . S
O48 Gd10 2.388 . S
O48 C56 1.252 1_455 S
O49 Gd10 2.386 . S
O49 C67 1.265 1_455 S
O50 Gd11 2.353 . S
O50 C67 1.242 . S
O51 Gd11 2.468 . S
O51 C75 1.263 . S
O52 Gd11 2.427 . S
O52 C75 1.252 . S
O53 Gd10 2.307 1_655 S
O53 C68 1.261 . S
O54 Gd11 2.388 . S
O54 C68 1.252 . S
C55 O43 1.265 . S
C55 O44 1.242 . S
C56 O47 1.261 . S
C56 O48 1.252 1_655 S
C57 C60 1.394 . S
C57 C62 1.370 . S
C57 C63 1.500 1_546 S
C58 C61 1.383 . S
C58 C62 1.395 . S
C59 C60 1.396 . S
C59 C61 1.365 . S
C59 H76 0.929 . S
C60 C57 1.394 . S
C60 C59 1.396 . S
C60 H77 0.930 . S
C61 C58 1.383 . S
C61 C59 1.365 . S
C61 H78 0.931 . S
C62 C57 1.370 . S
C62 C58 1.395 . S
C62 H79 0.930 1_545 S
C63 Gd10 2.805 . S
C63 O45 1.263 . S
C63 O46 1.252 . S
C63 C57 1.500 1_564 S
C64 H26 0.930 . S
C64 C40 1.417 . S
C64 C65 1.329 . S
C65 C35 1.437 . S
C65 H36 0.929 . S
C65 C64 1.329 . S
H66 C39 0.931 . S
C67 O49 1.265 1_655 S
C67 O50 1.242 . S
C68 O53 1.261 . S
C68 O54 1.252 . S
C69 C72 1.394 . S
C69 C74 1.370 . S
C69 C75 1.500 . S
C70 C73 1.383 . S
C70 C74 1.395 . S
C71 C72 1.396 . S
C71 C73 1.365 . S
C71 H80 0.929 1_545 S
C72 C69 1.394 . S
C72 C71 1.396 . S
C72 H81 0.930 . S
C73 C70 1.383 . S
C73 C71 1.365 . S
C73 H82 0.931 1_545 S
C74 C69 1.370 . S
C74 C70 1.395 . S
C74 H83 0.930 . S
C75 Gd11 2.805 . S
C75 O51 1.263 . S
C75 O52 1.252 . S
C75 C69 1.500 . S
H76 C59 0.929 . S
H77 C60 0.930 . S
H78 C61 0.931 . S
H79 C62 0.930 1_565 S
H80 C71 0.929 1_565 S
H81 C72 0.930 . S
H82 C73 0.931 1_565 S
H83 C74 0.930 . S
C84 C86 1.422 . S
C84 C88 1.415 . S
C84 N90 1.369 1_655 S
C85 C86 1.421 . S
C85 C87 1.417 . S
C85 C97 1.422 . S
C86 C84 1.422 . S
C86 C85 1.421 . S
C86 N96 1.359 1_655 S
C87 C85 1.417 . S
C87 C89 1.329 1_545 S
C87 H106 0.930 1_545 S
C88 C84 1.415 . S
C88 C89 1.437 1_545 S
C88 C92 1.413 1_545 S
C89 C87 1.329 1_565 S
C89 C88 1.437 1_565 S
C89 H111 0.929 . S
N90 C84 1.369 1_455 S
N90 C91 1.338 . S
N90 Gd95 2.622 . S
C91 N90 1.338 . S
C91 C93 1.378 1_455 S
C91 H103 0.929 . S
C92 C88 1.413 1_565 S
C92 C93 1.348 1_565 S
C92 H108 0.931 . S
C93 C91 1.378 1_655 S
C93 C92 1.348 1_545 S
C93 H109 0.930 1_545 S
Gd94 N114 2.622 1_655 S
Gd94 N121 2.570 1_655 S
Gd94 O128 2.353 1_545 S
Gd94 O129 2.468 . S
Gd94 O130 2.427 . S
Gd94 O132 2.388 . S
Gd94 O133 2.386 . S
Gd94 O137 2.307 1_545 S
Gd94 C147 2.805 . S
Gd95 N90 2.622 . S
Gd95 N96 2.570 . S
Gd95 O127 2.386 . S
Gd95 O131 2.307 . S
Gd95 O134 2.353 . S
Gd95 O135 2.468 . S
Gd95 O136 2.427 . S
Gd95 O138 2.388 . S
Gd95 C159 2.805 . S
N96 C86 1.359 1_455 S
N96 Gd95 2.570 . S
N96 C98 1.343 . S
C97 C85 1.422 . S
C97 C99 1.321 1_655 S
C97 H105 0.931 . S
C98 N96 1.343 . S
C98 C99 1.390 . S
C98 H100 0.931 . S
C99 C97 1.321 1_455 S
C99 C98 1.390 . S
C99 H101 0.930 . S
H100 C98 0.931 . S
H101 C99 0.930 . S
H102 C125 0.931 1_655 S
H103 C91 0.929 . S
H104 C126 0.930 . S
H105 C97 0.931 . S
H106 C87 0.930 1_565 S
H107 C116 0.929 . S
H108 C92 0.931 . S
H109 C93 0.930 1_565 S
H110 C148 0.930 . S
H111 C89 0.929 . S
H112 C117 0.931 . S
H113 C118 0.930 . S
N114 Gd94 2.622 1_455 S
N114 C115 1.369 . S
N114 C116 1.338 . S
C115 N114 1.369 . S
C115 C119 1.415 . S
C115 C122 1.422 . S
C116 H107 0.929 . S
C116 N114 1.338 . S
C116 C118 1.378 . S
C117 H112 0.931 . S
C117 C118 1.348 . S
C117 C119 1.413 . S
C118 H113 0.930 . S
C118 C116 1.378 . S
C118 C117 1.348 . S
C119 C115 1.415 . S
C119 C117 1.413 . S
C119 C149 1.437 . S
H120 C149 0.929 . S
N121 Gd94 2.570 1_455 S
N121 C122 1.359 . S
N121 C125 1.343 . S
C122 C115 1.422 . S
C122 N121 1.359 . S
C122 C124 1.421 . S
C123 C124 1.422 . S
C123 C126 1.321 . S
C123 H150 0.931 . S
C124 C122 1.421 . S
C124 C123 1.422 . S
C124 C148 1.417 . S
C125 H102 0.931 1_455 S
C125 N121 1.343 . S
C125 C126 1.390 . S
C126 H104 0.930 . S
C126 C123 1.321 . S
C126 C125 1.390 . S
O127 Gd95 2.386 . S
O127 C139 1.265 . S
O128 Gd94 2.353 1_565 S
O128 C139 1.242 . S
O129 Gd94 2.468 . S
O129 C147 1.263 . S
O130 Gd94 2.427 . S
O130 C147 1.252 . S
O131 Gd95 2.307 . S
O131 C140 1.261 . S
O132 Gd94 2.388 . S
O132 C140 1.252 1_545 S
O133 Gd94 2.386 . S
O133 C151 1.265 1_545 S
O134 Gd95 2.353 . S
O134 C151 1.242 . S
O135 Gd95 2.468 . S
O135 C159 1.263 . S
O136 Gd95 2.427 . S
O136 C159 1.252 . S
O137 Gd94 2.307 1_565 S
O137 C152 1.261 . S
O138 Gd95 2.388 . S
O138 C152 1.252 . S
C139 O127 1.265 . S
C139 O128 1.242 . S
C140 O131 1.261 . S
C140 O132 1.252 1_565 S
C141 C144 1.394 . S
C141 C146 1.370 . S
C141 C147 1.500 1_455 S
C142 C145 1.383 . S
C142 C146 1.395 . S
C143 C144 1.396 . S
C143 C145 1.365 . S
C143 H160 0.929 . S
C144 C141 1.394 . S
C144 C143 1.396 . S
C144 H161 0.930 . S
C145 C142 1.383 . S
C145 C143 1.365 . S
C145 H162 0.931 . S
C146 C141 1.370 . S
C146 C142 1.395 . S
C146 H163 0.930 1_455 S
C147 Gd94 2.805 . S
C147 O129 1.263 . S
C147 O130 1.252 . S
C147 C141 1.500 1_655 S
C148 H110 0.930 . S
C148 C124 1.417 . S
C148 C149 1.329 . S
C149 C119 1.437 . S
C149 H120 0.929 . S
C149 C148 1.329 . S
H150 C123 0.931 . S
C151 O133 1.265 1_565 S
C151 O134 1.242 . S
C152 O137 1.261 . S
C152 O138 1.252 . S
C153 C156 1.394 . S
C153 C158 1.370 . S
C153 C159 1.500 . S
C154 C157 1.383 . S
C154 C158 1.395 . S
C155 C156 1.396 . S
C155 C157 1.365 . S
C155 H164 0.929 1_455 S
C156 C153 1.394 . S
C156 C155 1.396 . S
C156 H165 0.930 . S
C157 C154 1.383 . S
C157 C155 1.365 . S
C157 H166 0.931 1_455 S
C158 C153 1.370 . S
C158 C154 1.395 . S
C158 H167 0.930 . S
C159 Gd95 2.805 . S
C159 O135 1.263 . S
C159 O136 1.252 . S
C159 C153 1.500 . S
H160 C143 0.929 . S
H161 C144 0.930 . S
H162 C145 0.931 . S
H163 C146 0.930 1_655 S
H164 C155 0.929 1_655 S
H165 C156 0.930 . S
H166 C157 0.931 1_655 S
H167 C158 0.930 . S
C168 C170 1.422 . S
C168 C172 1.415 . S
C168 N174 1.369 . S
C169 C170 1.421 . S
C169 C171 1.417 . S
C169 C181 1.422 . S
C170 C168 1.422 . S
C170 C169 1.421 . S
C170 N180 1.359 . S
C171 C169 1.417 . S
C171 C173 1.329 1_455 S
C171 H190 0.924 1_445 S
C172 C168 1.415 . S
C172 C173 1.437 1_455 S
C172 C176 1.413 1_455 S
C173 C171 1.329 1_655 S
C173 C172 1.437 1_655 S
C173 H195 0.929 1_545 S
N174 C168 1.369 . S
N174 C175 1.338 . S
N174 Gd179 2.622 . S
C175 N174 1.338 . S
C175 C177 1.378 . S
C175 H187 0.929 . S
C176 C172 1.413 1_655 S
C176 C177 1.348 1_655 S
C176 H192 0.931 . S
C177 C175 1.378 . S
C177 C176 1.348 1_455 S
C177 H193 0.930 1_455 S
Gd178 N198 2.622 . S
Gd178 N205 2.570 . S
Gd178 O212 2.353 1_455 S
Gd178 O213 2.468 . S
Gd178 O214 2.427 1_554 S
Gd178 O216 2.388 . S
Gd178 O217 2.386 . S
Gd178 O221 2.307 1_455 S
Gd178 C231 2.805 1_554 S
Gd179 N174 2.622 . S
Gd179 N180 2.570 . S
Gd179 O211 2.386 . S
Gd179 O215 2.307 . S
Gd179 O218 2.353 1_565 S
Gd179 O219 2.468 . S
Gd179 O220 2.427 . S
Gd179 O222 2.388 . S
Gd179 C243 2.805 . S
N180 C170 1.359 . S
N180 Gd179 2.570 . S
N180 C182 1.343 . S
C181 C169 1.422 . S
C181 C183 1.321 . S
C181 H189 0.931 . S
C182 N180 1.343 . S
C182 C183 1.390 . S
C182 H184 0.931 . S
C183 C181 1.321 . S
C183 C182 1.390 . S
C183 H185 0.930 . S
H184 C182 0.931 . S
H185 C183 0.930 . S
H186 C209 0.923 1_655 S
H187 C175 0.929 . S
H188 C210 0.930 . S
H189 C181 0.931 . S
H190 C171 0.924 1_665 S
H191 C200 0.929 . S
H192 C176 0.931 . S
H193 C177 0.930 1_655 S
H194 C232 0.930 1_545 S
H195 C173 0.929 1_565 S
H196 C201 0.931 . S
H197 C202 0.930 . S
N198 Gd178 2.622 . S
N198 C199 1.369 . S
N198 C200 1.338 . S
C199 N198 1.369 . S
C199 C203 1.415 . S
C199 C206 1.422 . S
C200 H191 0.929 . S
C200 N198 1.338 . S
C200 C202 1.378 . S
C201 H196 0.931 . S
C201 C202 1.348 . S
C201 C203 1.413 . S
C202 H197 0.930 . S
C202 C200 1.378 . S
C202 C201 1.348 . S
C203 C199 1.415 . S
C203 C201 1.413 . S
C203 C233 1.437 . S
H204 C233 0.929 1_545 S
N205 Gd178 2.570 . S
N205 C206 1.359 . S
N205 C209 1.343 . S
C206 C199 1.422 . S
C206 N205 1.359 . S
C206 C208 1.421 . S
C207 C208 1.422 . S
C207 C210 1.321 . S
C207 H234 0.931 . S
C208 C206 1.421 . S
C208 C207 1.422 . S
C208 C232 1.417 . S
C209 H186 0.923 1_455 S
C209 N205 1.343 . S
C209 C210 1.390 . S
C210 H188 0.930 . S
C210 C207 1.321 . S
C210 C209 1.390 . S
O211 Gd179 2.386 . S
O211 C223 1.265 . S
O212 Gd178 2.353 1_655 S
O212 C223 1.242 1_545 S
O213 Gd178 2.468 . S
O213 C231 1.263 1_554 S
O214 Gd178 2.427 1_556 S
O214 C231 1.252 . S
O215 Gd179 2.307 . S
O215 C224 1.261 1_565 S
O216 Gd178 2.388 . S
O216 C224 1.252 1_455 S
O217 Gd178 2.386 . S
O217 C235 1.265 1_455 S
O218 Gd179 2.353 1_545 S
O218 C235 1.242 . S
O219 Gd179 2.468 . S
O219 C243 1.263 . S
O220 Gd179 2.427 . S
O220 C243 1.252 . S
O221 Gd178 2.307 1_655 S
O221 C236 1.261 1_545 S
O222 Gd179 2.388 . S
O222 C236 1.252 . S
C223 O211 1.265 . S
C223 O212 1.242 1_565 S
C224 O215 1.261 1_545 S
C224 O216 1.252 1_655 S
C225 C228 1.394 . S
C225 C230 1.370 . S
C225 C231 1.500 . S
C226 C229 1.383 . S
C226 C230 1.395 . S
C227 C228 1.396 . S
C227 C229 1.365 . S
C227 H244 0.929 . S
C228 C225 1.394 . S
C228 C227 1.396 . S
C228 H245 0.930 . S
C229 C226 1.383 . S
C229 C227 1.365 . S
C229 H246 0.931 . S
C230 C225 1.370 . S
C230 C226 1.395 . S
C230 H247 0.930 . S
C231 Gd178 2.805 1_556 S
C231 O213 1.263 1_556 S
C231 O214 1.252 . S
C231 C225 1.500 . S
C232 H194 0.930 1_565 S
C232 C208 1.417 . S
C232 C233 1.329 . S
C233 C203 1.437 . S
C233 H204 0.929 1_565 S
C233 C232 1.329 . S
H234 C207 0.931 . S
C235 O217 1.265 1_655 S
C235 O218 1.242 . S
C236 O221 1.261 1_565 S
C236 O222 1.252 . S
C237 C240 1.394 . S
C237 C242 1.370 . S
C237 C243 1.500 . S
C238 C241 1.383 . S
C238 C242 1.395 . S
C239 C240 1.396 . S
C239 C241 1.365 . S
C239 H248 0.929 . S
C240 C237 1.394 . S
C240 C239 1.396 . S
C240 H249 0.930 . S
C241 C238 1.383 . S
C241 C239 1.365 . S
C241 H250 0.931 . S
C242 C237 1.370 . S
C242 C238 1.395 . S
C242 H251 0.930 . S
C243 Gd179 2.805 . S
C243 O219 1.263 . S
C243 O220 1.252 . S
C243 C237 1.500 . S
H244 C227 0.929 . S
H245 C228 0.930 . S
H246 C229 0.931 . S
H247 C230 0.930 . S
H248 C239 0.929 . S
H249 C240 0.930 . S
H250 C241 0.931 . S
H251 C242 0.930 . S
C252 C254 1.422 . S
C252 C256 1.415 . S
C252 N258 1.369 . S
C253 C254 1.421 . S
C253 C255 1.417 . S
C253 C265 1.422 . S
C254 C252 1.422 . S
C254 C253 1.421 . S
C254 N264 1.359 . S
C255 C253 1.417 . S
C255 C257 1.329 1_545 S
C255 H274 0.930 1_545 S
C256 C252 1.415 . S
C256 C257 1.437 1_545 S
C256 C260 1.413 1_545 S
C257 C255 1.329 1_565 S
C257 C256 1.437 1_565 S
C257 H279 0.929 1_455 S
N258 C252 1.369 . S
N258 C259 1.338 . S
N258 Gd263 2.622 . S
C259 N258 1.338 . S
C259 C261 1.378 . S
C259 H271 0.929 . S
C260 C256 1.413 1_565 S
C260 C261 1.348 1_565 S
C260 H276 0.931 . S
C261 C259 1.378 . S
C261 C260 1.348 1_545 S
C261 H277 0.930 1_545 S
Gd262 N282 2.622 . S
Gd262 N289 2.570 . S
Gd262 O296 2.353 1_545 S
Gd262 O297 2.468 . S
Gd262 O298 2.427 . S
Gd262 O300 2.388 . S
Gd262 O301 2.386 . S
Gd262 O305 2.307 1_545 S
Gd262 C315 2.805 . S
Gd263 N258 2.622 . S
Gd263 N264 2.570 . S
Gd263 O295 2.386 . S
Gd263 O299 2.307 . S
Gd263 O302 2.353 1_655 S
Gd263 O303 2.468 . S
Gd263 O304 2.427 . S
Gd263 O306 2.388 . S
Gd263 C327 2.805 . S
N264 C254 1.359 . S
N264 Gd263 2.570 . S
N264 C266 1.343 . S
C265 C253 1.422 . S
C265 C267 1.321 . S
C265 H273 0.931 . S
C266 N264 1.343 . S
C266 C267 1.390 . S
C266 H268 0.931 . S
C267 C265 1.321 . S
C267 C266 1.390 . S
C267 H269 0.930 . S
H268 C266 0.931 . S
H269 C267 0.930 . S
H270 C293 0.931 1_565 S
H271 C259 0.929 . S
H272 C294 0.930 . S
H273 C265 0.931 . S
H274 C255 0.930 1_565 S
H275 C284 0.929 . S
H276 C260 0.931 . S
H277 C261 0.930 1_565 S
H278 C316 0.930 1_455 S
H279 C257 0.929 1_655 S
H280 C285 0.931 . S
H281 C286 0.930 . S
N282 Gd262 2.622 . S
N282 C283 1.369 . S
N282 C284 1.338 . S
C283 N282 1.369 . S
C283 C287 1.415 . S
C283 C290 1.422 . S
C284 H275 0.929 . S
C284 N282 1.338 . S
C284 C286 1.378 . S
C285 H280 0.931 . S
C285 C286 1.348 . S
C285 C287 1.413 . S
C286 H281 0.930 . S
C286 C284 1.378 . S
C286 C285 1.348 . S
C287 C283 1.415 . S
C287 C285 1.413 . S
C287 C317 1.437 . S
H288 C317 0.929 1_455 S
N289 Gd262 2.570 . S
N289 C290 1.359 . S
N289 C293 1.343 . S
C290 C283 1.422 . S
C290 N289 1.359 . S
C290 C292 1.421 . S
C291 C292 1.422 . S
C291 C294 1.321 . S
C291 H318 0.931 . S
C292 C290 1.421 . S
C292 C291 1.422 . S
C292 C316 1.417 . S
C293 H270 0.931 1_545 S
C293 N289 1.343 . S
C293 C294 1.390 . S
C294 H272 0.930 . S
C294 C291 1.321 . S
C294 C293 1.390 . S
O295 Gd263 2.386 . S
O295 C307 1.265 . S
O296 Gd262 2.353 1_565 S
O296 C307 1.242 1_455 S
O297 Gd262 2.468 . S
O297 C315 1.263 . S
O298 Gd262 2.427 . S
O298 C315 1.252 . S
O299 Gd263 2.307 . S
O299 C308 1.261 1_655 S
O300 Gd262 2.388 . S
O300 C308 1.252 1_545 S
O301 Gd262 2.386 . S
O301 C319 1.265 1_545 S
O302 Gd263 2.353 1_455 S
O302 C319 1.242 . S
O303 Gd263 2.468 . S
O303 C327 1.263 . S
O304 Gd263 2.427 . S
O304 C327 1.252 . S
O305 Gd262 2.307 1_565 S
O305 C320 1.261 1_455 S
O306 Gd263 2.388 . S
O306 C320 1.252 . S
C307 O295 1.265 . S
C307 O296 1.242 1_655 S
C308 O299 1.261 1_455 S
C308 O300 1.252 1_565 S
C309 C312 1.394 . S
C309 C314 1.370 . S
C309 C315 1.500 . S
C310 C313 1.383 . S
C310 C314 1.395 . S
C311 C312 1.396 . S
C311 C313 1.365 . S
C311 H328 0.929 . S
C312 C309 1.394 . S
C312 C311 1.396 . S
C312 H329 0.930 . S
C313 C310 1.383 . S
C313 C311 1.365 . S
C313 H330 0.931 . S
C314 C309 1.370 . S
C314 C310 1.395 . S
C314 H331 0.930 . S
C315 Gd262 2.805 . S
C315 O297 1.263 . S
C315 O298 1.252 . S
C315 C309 1.500 . S
C316 H278 0.930 1_655 S
C316 C292 1.417 . S
C316 C317 1.329 . S
C317 C287 1.437 . S
C317 H288 0.929 1_655 S
C317 C316 1.329 . S
H318 C291 0.931 . S
C319 O301 1.265 1_565 S
C319 O302 1.242 . S
C320 O305 1.261 1_655 S
C320 O306 1.252 . S
C321 C324 1.394 . S
C321 C326 1.370 . S
C321 C327 1.500 . S
C322 C325 1.383 . S
C322 C326 1.395 . S
C323 C324 1.396 . S
C323 C325 1.365 . S
C323 H332 0.929 . S
C324 C321 1.394 . S
C324 C323 1.396 . S
C324 H333 0.930 . S
C325 C322 1.383 . S
C325 C323 1.365 . S
C325 H334 0.931 . S
C326 C321 1.370 . S
C326 C322 1.395 . S
C326 H335 0.930 . S
C327 Gd263 2.805 . S
C327 O303 1.263 . S
C327 O304 1.252 . S
C327 C321 1.500 . S
H328 C311 0.929 . S
H329 C312 0.930 . S
H330 C313 0.931 . S
H331 C314 0.930 . S
H332 C323 0.929 . S
H333 C324 0.930 . S
H334 C325 0.931 . S
H335 C326 0.930 . S
H336 C342 0.930 . S
H337 C345 0.930 1_665 S
H338 C346 0.930 . S
H339 C347 0.930 . S
H340 C350 0.930 . S
H341 C351 0.930 . S
C342 H336 0.930 . S
C342 C343 1.355 . S
C342 C344 1.415 . S
C343 C342 1.355 . S
C343 C345 1.419 . S
C344 C342 1.415 . S
C344 C349 1.425 . S
C344 C351 1.409 . S
C345 H337 0.930 1_445 S
C345 C343 1.419 . S
C345 C346 1.362 . S
C346 H338 0.930 . S
C346 C345 1.362 . S
C346 C349 1.409 . S
C347 H339 0.930 . S
C347 C348 1.355 . S
C347 C349 1.415 . S
C348 C347 1.355 . S
C348 C350 1.419 . S
C349 C344 1.425 . S
C349 C346 1.409 . S
C349 C347 1.415 . S
C350 H340 0.930 . S
C350 C348 1.419 . S
C350 C351 1.362 . S
C351 H341 0.930 . S
C351 C344 1.409 . S
C351 C350 1.362 . S
H352 C358 0.930 1_565 S
H353 C361 0.930 . S
H354 C362 0.930 . S
H355 C363 0.930 . S
H356 C366 0.930 . S
H357 C367 0.930 . S
C358 H352 0.930 1_545 S
C358 C359 1.355 . S
C358 C360 1.415 . S
C359 C358 1.355 . S
C359 C361 1.419 . S
C360 C358 1.415 . S
C360 C365 1.425 . S
C360 C367 1.409 . S
C361 H353 0.930 . S
C361 C359 1.419 . S
C361 C362 1.362 . S
C362 H354 0.930 . S
C362 C361 1.362 . S
C362 C365 1.409 . S
C363 H355 0.930 . S
C363 C364 1.355 . S
C363 C365 1.415 . S
C364 C363 1.355 . S
C364 C366 1.419 . S
C365 C360 1.425 . S
C365 C362 1.409 . S
C365 C363 1.415 . S
C366 H356 0.930 . S
C366 C364 1.419 . S
C366 C367 1.362 . S
C367 H357 0.930 . S
C367 C360 1.409 . S
C367 C366 1.362 . S
H368 C374 0.930 . S
H369 C377 0.930 1_565 S
H370 C378 0.930 . S
H371 C379 0.930 . S
H372 C382 0.930 . S
H373 C383 0.930 . S
C374 H368 0.930 . S
C374 C375 1.355 . S
C374 C376 1.415 . S
C375 C374 1.355 . S
C375 C377 1.419 . S
C376 C374 1.415 . S
C376 C381 1.425 . S
C376 C383 1.409 . S
C377 H369 0.930 1_545 S
C377 C375 1.419 . S
C377 C378 1.362 . S
C378 H370 0.930 . S
C378 C377 1.362 . S
C378 C381 1.409 . S
C379 H371 0.930 . S
C379 C380 1.355 . S
C379 C381 1.415 . S
C380 C379 1.355 . S
C380 C382 1.419 1_655 S
C381 C376 1.425 . S
C381 C378 1.409 . S
C381 C379 1.415 . S
C382 H372 0.930 . S
C382 C380 1.419 1_455 S
C382 C383 1.362 1_455 S
C383 H373 0.930 . S
C383 C376 1.409 . S
C383 C382 1.362 1_655 S
H384 C390 0.930 1_545 S
H385 C393 0.930 . S
H386 C394 0.930 . S
H387 C395 0.930 . S
H388 C398 0.930 . S
H389 C399 0.930 1_545 S
C390 H384 0.930 1_565 S
C390 C391 1.355 . S
C390 C392 1.415 . S
C391 C390 1.355 . S
C391 C393 1.419 . S
C392 C390 1.415 . S
C392 C397 1.425 . S
C392 C399 1.409 . S
C393 H385 0.930 . S
C393 C391 1.419 . S
C393 C394 1.362 . S
C394 H386 0.930 . S
C394 C393 1.362 . S
C394 C397 1.409 . S
C395 H387 0.930 . S
C395 C396 1.355 . S
C395 C397 1.415 . S
C396 C395 1.355 . S
C396 C398 1.419 . S
C397 C392 1.425 . S
C397 C394 1.409 . S
C397 C395 1.415 . S
C398 H388 0.930 . S
C398 C396 1.419 . S
C398 C399 1.362 . S
C399 H389 0.930 1_565 S
C399 C392 1.409 . S
C399 C398 1.362 . S
H400 C406 0.930 . S
H401 C409 0.930 1_545 S
H402 C410 0.930 1_455 S
H403 C411 0.930 1_455 S
H404 C414 0.930 . S
H405 C415 0.930 . S
C406 H400 0.930 . S
C406 C407 1.355 . S
C406 C408 1.415 . S
C407 C406 1.355 . S
C407 C409 1.419 . S
C408 C406 1.415 . S
C408 C413 1.425 . S
C408 C415 1.409 . S
C409 H401 0.930 1_565 S
C409 C407 1.419 . S
C409 C410 1.362 . S
C410 H402 0.930 1_655 S
C410 C409 1.362 . S
C410 C413 1.409 . S
C411 H403 0.930 1_655 S
C411 C412 1.355 . S
C411 C413 1.415 . S
C412 C411 1.355 . S
C412 C414 1.419 . S
C413 C408 1.425 . S
C413 C410 1.409 . S
C413 C411 1.415 . S
C414 H404 0.930 . S
C414 C412 1.419 . S
C414 C415 1.362 . S
C415 H405 0.930 . S
C415 C408 1.409 . S
C415 C414 1.362 . S
H416 C422 0.930 . S
H417 C425 0.930 . S
H418 C426 0.930 . S
H419 C427 0.930 . S
H420 C430 0.930 1_655 S
H421 C431 0.930 1_655 S
C422 H416 0.930 . S
C422 C423 1.355 . S
C422 C424 1.415 . S
C423 C422 1.355 . S
C423 C425 1.419 . S
C424 C422 1.415 . S
C424 C429 1.425 . S
C424 C431 1.409 . S
C425 H417 0.930 . S
C425 C423 1.419 . S
C425 C426 1.362 . S
C426 H418 0.930 . S
C426 C425 1.362 . S
C426 C429 1.409 . S
C427 H419 0.930 . S
C427 C428 1.355 . S
C427 C429 1.415 . S
C428 C427 1.355 . S
C428 C430 1.419 . S
C429 C424 1.425 . S
C429 C426 1.409 . S
C429 C427 1.415 . S
C430 H420 0.930 1_455 S
C430 C428 1.419 . S
C430 C431 1.362 . S
C431 H421 0.930 1_455 S
C431 C424 1.409 . S
C431 C430 1.362 . S
H432 C438 0.930 . S
H433 C441 0.930 . S
H434 C442 0.930 . S
H435 C443 0.930 . S
H436 C446 0.930 . S
H437 C447 0.930 . S
C438 H432 0.930 . S
C438 C439 1.355 . S
C438 C440 1.415 . S
C439 C438 1.355 . S
C439 C441 1.419 . S
C440 C438 1.415 . S
C440 C445 1.425 . S
C440 C447 1.409 . S
C441 H433 0.930 . S
C441 C439 1.419 . S
C441 C442 1.362 . S
C442 H434 0.930 . S
C442 C441 1.362 . S
C442 C445 1.409 . S
C443 H435 0.930 . S
C443 C444 1.355 . S
C443 C445 1.415 . S
C444 C443 1.355 . S
C444 C446 1.419 . S
C445 C440 1.425 . S
C445 C442 1.409 . S
C445 C443 1.415 . S
C446 H436 0.930 . S
C446 C444 1.419 . S
C446 C447 1.362 . S
C447 H437 0.930 . S
C447 C440 1.409 . S
C447 C446 1.362 . S
H448 C454 0.930 . S
H449 C457 0.930 1_565 S
H450 C458 0.930 1_565 S
H451 C459 0.930 1_554 S
H452 C462 0.930 . S
H453 C463 0.930 . S
C454 H448 0.930 . S
C454 C455 1.355 . S
C454 C456 1.415 . S
C455 C454 1.355 . S
C455 C457 1.419 . S
C456 C454 1.415 . S
C456 C461 1.425 . S
C456 C463 1.409 . S
C457 H449 0.930 1_545 S
C457 C455 1.419 . S
C457 C458 1.362 . S
C458 H450 0.930 1_545 S
C458 C457 1.362 . S
C458 C461 1.409 . S
C459 H451 0.930 1_556 S
C459 C460 1.355 1_556 S
C459 C461 1.415 . S
C460 C459 1.355 1_554 S
C460 C462 1.419 1_554 S
C461 C456 1.425 . S
C461 C458 1.409 . S
C461 C459 1.415 . S
C462 H452 0.930 . S
C462 C460 1.419 1_556 S
C462 C463 1.362 . S
C463 H453 0.930 . S
C463 C456 1.409 . S
C463 C462 1.362 . S
H464 C470 0.930 . S
H465 C473 0.930 . S
H466 C474 0.930 . S
H467 C475 0.930 . S
H468 C478 0.930 1_455 S
H469 C479 0.930 1_455 S
C470 H464 0.930 . S
C470 C471 1.355 . S
C470 C472 1.415 . S
C471 C470 1.355 . S
C471 C473 1.419 . S
C472 C470 1.415 . S
C472 C477 1.425 . S
C472 C479 1.409 . S
C473 H465 0.930 . S
C473 C471 1.419 . S
C473 C474 1.362 . S
C474 H466 0.930 . S
C474 C473 1.362 . S
C474 C477 1.409 . S
C475 H467 0.930 . S
C475 C476 1.355 . S
C475 C477 1.415 . S
C476 C475 1.355 . S
C476 C478 1.419 . S
C477 C472 1.425 . S
C477 C474 1.409 . S
C477 C475 1.415 . S
C478 H468 0.930 1_655 S
C478 C476 1.419 . S
C478 C479 1.362 . S
C479 H469 0.930 1_655 S
C479 C472 1.409 . S
C479 C478 1.362 . S
H480 C486 0.930 . S
H481 C489 0.930 . S
H482 C490 0.930 . S
H483 C491 0.930 . S
H484 C494 0.930 1_655 S
H485 C495 0.930 . S
C486 H480 0.930 . S
C486 C487 1.355 1_565 S
C486 C488 1.415 . S
C487 C486 1.355 1_545 S
C487 C489 1.419 . S
C488 C486 1.415 . S
C488 C493 1.425 1_565 S
C488 C495 1.409 . S
C489 H481 0.930 . S
C489 C487 1.419 . S
C489 C490 1.362 . S
C490 H482 0.930 . S
C490 C489 1.362 . S
C490 C493 1.409 . S
C491 H483 0.930 . S
C491 C492 1.355 1_545 S
C491 C493 1.415 . S
C492 C491 1.355 1_565 S
C492 C494 1.419 . S
C493 C488 1.425 1_545 S
C493 C490 1.409 . S
C493 C491 1.415 . S
C494 H484 0.930 1_455 S
C494 C492 1.419 . S
C494 C495 1.362 . S
C495 H485 0.930 . S
C495 C488 1.409 . S
C495 C494 1.362 . S
H496 C502 0.930 1_655 S
H497 C505 0.930 . S
H498 C506 0.930 . S
H499 C507 0.930 . S
H500 C510 0.930 1_665 S
H501 C511 0.930 1_565 S
C502 H496 0.930 1_455 S
C502 C503 1.355 . S
C502 C504 1.415 . S
C503 C502 1.355 . S
C503 C505 1.419 . S
C504 C502 1.415 . S
C504 C509 1.425 . S
C504 C511 1.409 1_455 S
C505 H497 0.930 . S
C505 C503 1.419 . S
C505 C506 1.362 . S
C506 H498 0.930 . S
C506 C505 1.362 . S
C506 C509 1.409 . S
C507 H499 0.930 . S
C507 C508 1.355 . S
C507 C509 1.415 . S
C508 C507 1.355 . S
C508 C510 1.419 . S
C509 C504 1.425 . S
C509 C506 1.409 . S
C509 C507 1.415 . S
C510 H500 0.930 1_445 S
C510 C508 1.419 . S
C510 C511 1.362 1_455 S
C511 H501 0.930 1_545 S
C511 C504 1.409 1_655 S
C511 C510 1.362 1_655 S
H512 C518 0.930 . S
H513 C521 0.930 . S
H514 C522 0.930 . S
H515 C523 0.930 . S
H516 C526 0.930 . S
H517 C527 0.930 . S
C518 H512 0.930 . S
C518 C519 1.355 1_455 S
C518 C520 1.415 . S
C519 C518 1.355 1_655 S
C519 C521 1.419 . S
C520 C518 1.415 . S
C520 C525 1.425 1_455 S
C520 C527 1.409 . S
C521 H513 0.930 . S
C521 C519 1.419 . S
C521 C522 1.362 . S
C522 H514 0.930 . S
C522 C521 1.362 . S
C522 C525 1.409 . S
C523 H515 0.930 . S
C523 C524 1.354 1_655 S
C523 C525 1.415 . S
C524 C523 1.354 1_455 S
C524 C526 1.419 . S
C525 C520 1.425 1_655 S
C525 C522 1.409 . S
C525 C523 1.415 . S
C526 H516 0.930 . S
C526 C524 1.419 . S
C526 C527 1.362 . S
C527 H517 0.930 . S
C527 C520 1.409 . S
C527 C526 1.362 . S
C343 C224 1.156 1_455 S
C348 C68 1.156 . S
C359 C308 1.048 1_545 S
C364 C152 1.048 . S
C375 C236 1.821 1_545 S
C380 C56 1.821 . S
C391 C140 1.809 . S
C396 C320 1.809 1_455 S
C407 C151 2.066 . S
C412 C67 2.062 . S
C423 C139 1.227 . S
C428 C226 1.107 . S
C439 C322 1.731 . S
C444 C238 1.715 . S
C455 C310 1.098 . S
C460 C55 1.231 . S
C471 C223 2.088 1_556 S
C476 C307 2.070 . S
C487 C70 1.049 . S
C492 C319 1.250 . S
C503 C142 1.703 . S
C508 C58 1.728 . S
C519 C235 1.248 . S
C524 C154 1.056 . S
