# Generated by pormake.
# Topology son, (6)-cn, num edge types: 1
# Building blocks:
#     Node 0, Type 0, BuildingBlock: BETDAH_clean_sbu_0, # of connection points: 6
#     Node 1, Type 0, BuildingBlock: BETDAH_clean_sbu_0, # of connection points: 6
#     Node 2, Type 0, BuildingBlock: BETDAH_clean_sbu_0, # of connection points: 6
#     Node 3, Type 0, BuildingBlock: BETDAH_clean_sbu_0, # of connection points: 6
#     Node 4, Type 0, BuildingBlock: BETDAH_clean_sbu_0, # of connection points: 6
#     Node 5, Type 0, BuildingBlock: BETDAH_clean_sbu_0, # of connection points: 6
#     Node 6, Type 0, BuildingBlock: BETDAH_clean_sbu_0, # of connection points: 6
#     Node 7, Type 0, BuildingBlock: BETDAH_clean_sbu_0, # of connection points: 6
#     Node 8, Type 0, BuildingBlock: BETDAH_clean_sbu_0, # of connection points: 6
#     Node 9, Type 0, BuildingBlock: BETDAH_clean_sbu_0, # of connection points: 6
#     Node 10, Type 0, BuildingBlock: BETDAH_clean_sbu_0, # of connection points: 6
#     Node 11, Type 0, BuildingBlock: BETDAH_clean_sbu_0, # of connection points: 6
#     Node 12, Type 0, BuildingBlock: BETDAH_clean_sbu_0, # of connection points: 6
#     Node 13, Type 0, BuildingBlock: BETDAH_clean_sbu_0, # of connection points: 6
#     Node 14, Type 0, BuildingBlock: BETDAH_clean_sbu_0, # of connection points: 6
#     Node 15, Type 0, BuildingBlock: BETDAH_clean_sbu_0, # of connection points: 6
#     Node 16, Type 0, BuildingBlock: BETDAH_clean_sbu_0, # of connection points: 6
#     Node 17, Type 0, BuildingBlock: BETDAH_clean_sbu_0, # of connection points: 6
#     Node 18, Type 0, BuildingBlock: BETDAH_clean_sbu_0, # of connection points: 6
#     Node 19, Type 0, BuildingBlock: BETDAH_clean_sbu_0, # of connection points: 6
#     Node 20, Type 0, BuildingBlock: BETDAH_clean_sbu_0, # of connection points: 6
#     Node 21, Type 0, BuildingBlock: BETDAH_clean_sbu_0, # of connection points: 6
#     Node 22, Type 0, BuildingBlock: BETDAH_clean_sbu_0, # of connection points: 6
#     Node 23, Type 0, BuildingBlock: BETDAH_clean_sbu_0, # of connection points: 6
#     Node 24, Type 0, BuildingBlock: BETDAH_clean_sbu_0, # of connection points: 6
#     Node 25, Type 0, BuildingBlock: BETDAH_clean_sbu_0, # of connection points: 6
#     Node 26, Type 0, BuildingBlock: BETDAH_clean_sbu_0, # of connection points: 6
#     Node 27, Type 0, BuildingBlock: BETDAH_clean_sbu_0, # of connection points: 6
#     Node 28, Type 0, BuildingBlock: BETDAH_clean_sbu_0, # of connection points: 6
#     Node 29, Type 0, BuildingBlock: BETDAH_clean_sbu_0, # of connection points: 6
#     Node 30, Type 0, BuildingBlock: BETDAH_clean_sbu_0, # of connection points: 6
#     Node 31, Type 0, BuildingBlock: BETDAH_clean_sbu_0, # of connection points: 6
#     Edge 32, Type (0, 0), BuildingBlock: EZIPEK_clean_linker_0, # of connection points: 2
#     Edge 33, Type (0, 0), BuildingBlock: EZIPEK_clean_linker_0, # of connection points: 2
#     Edge 34, Type (0, 0), BuildingBlock: EZIPEK_clean_linker_0, # of connection points: 2
#     Edge 35, Type (0, 0), BuildingBlock: EZIPEK_clean_linker_0, # of connection points: 2
#     Edge 36, Type (0, 0), BuildingBlock: EZIPEK_clean_linker_0, # of connection points: 2
#     Edge 37, Type (0, 0), BuildingBlock: EZIPEK_clean_linker_0, # of connection points: 2
#     Edge 38, Type (0, 0), BuildingBlock: EZIPEK_clean_linker_0, # of connection points: 2
#     Edge 39, Type (0, 0), BuildingBlock: EZIPEK_clean_linker_0, # of connection points: 2
#     Edge 40, Type (0, 0), BuildingBlock: EZIPEK_clean_linker_0, # of connection points: 2
#     Edge 41, Type (0, 0), BuildingBlock: EZIPEK_clean_linker_0, # of connection points: 2
#     Edge 42, Type (0, 0), BuildingBlock: EZIPEK_clean_linker_0, # of connection points: 2
#     Edge 43, Type (0, 0), BuildingBlock: EZIPEK_clean_linker_0, # of connection points: 2
#     Edge 44, Type (0, 0), BuildingBlock: EZIPEK_clean_linker_0, # of connection points: 2
#     Edge 45, Type (0, 0), BuildingBlock: EZIPEK_clean_linker_0, # of connection points: 2
#     Edge 46, Type (0, 0), BuildingBlock: EZIPEK_clean_linker_0, # of connection points: 2
#     Edge 47, Type (0, 0), BuildingBlock: EZIPEK_clean_linker_0, # of connection points: 2
#     Edge 48, Type (0, 0), BuildingBlock: EZIPEK_clean_linker_0, # of connection points: 2
#     Edge 49, Type (0, 0), BuildingBlock: EZIPEK_clean_linker_0, # of connection points: 2
#     Edge 50, Type (0, 0), BuildingBlock: EZIPEK_clean_linker_0, # of connection points: 2
#     Edge 51, Type (0, 0), BuildingBlock: EZIPEK_clean_linker_0, # of connection points: 2
#     Edge 52, Type (0, 0), BuildingBlock: EZIPEK_clean_linker_0, # of connection points: 2
#     Edge 53, Type (0, 0), BuildingBlock: EZIPEK_clean_linker_0, # of connection points: 2
#     Edge 54, Type (0, 0), BuildingBlock: EZIPEK_clean_linker_0, # of connection points: 2
#     Edge 55, Type (0, 0), BuildingBlock: EZIPEK_clean_linker_0, # of connection points: 2
#     Edge 56, Type (0, 0), BuildingBlock: EZIPEK_clean_linker_0, # of connection points: 2
#     Edge 57, Type (0, 0), BuildingBlock: EZIPEK_clean_linker_0, # of connection points: 2
#     Edge 58, Type (0, 0), BuildingBlock: EZIPEK_clean_linker_0, # of connection points: 2
#     Edge 59, Type (0, 0), BuildingBlock: EZIPEK_clean_linker_0, # of connection points: 2
#     Edge 60, Type (0, 0), BuildingBlock: EZIPEK_clean_linker_0, # of connection points: 2
#     Edge 61, Type (0, 0), BuildingBlock: EZIPEK_clean_linker_0, # of connection points: 2
#     Edge 62, Type (0, 0), BuildingBlock: EZIPEK_clean_linker_0, # of connection points: 2
#     Edge 63, Type (0, 0), BuildingBlock: EZIPEK_clean_linker_0, # of connection points: 2
#     Edge 64, Type (0, 0), BuildingBlock: EZIPEK_clean_linker_0, # of connection points: 2
#     Edge 65, Type (0, 0), BuildingBlock: EZIPEK_clean_linker_0, # of connection points: 2
#     Edge 66, Type (0, 0), BuildingBlock: EZIPEK_clean_linker_0, # of connection points: 2
#     Edge 67, Type (0, 0), BuildingBlock: EZIPEK_clean_linker_0, # of connection points: 2
#     Edge 68, Type (0, 0), BuildingBlock: EZIPEK_clean_linker_0, # of connection points: 2
#     Edge 69, Type (0, 0), BuildingBlock: EZIPEK_clean_linker_0, # of connection points: 2
#     Edge 70, Type (0, 0), BuildingBlock: EZIPEK_clean_linker_0, # of connection points: 2
#     Edge 71, Type (0, 0), BuildingBlock: EZIPEK_clean_linker_0, # of connection points: 2
#     Edge 72, Type (0, 0), BuildingBlock: EZIPEK_clean_linker_0, # of connection points: 2
#     Edge 73, Type (0, 0), BuildingBlock: EZIPEK_clean_linker_0, # of connection points: 2
#     Edge 74, Type (0, 0), BuildingBlock: EZIPEK_clean_linker_0, # of connection points: 2
#     Edge 75, Type (0, 0), BuildingBlock: EZIPEK_clean_linker_0, # of connection points: 2
#     Edge 76, Type (0, 0), BuildingBlock: EZIPEK_clean_linker_0, # of connection points: 2
#     Edge 77, Type (0, 0), BuildingBlock: EZIPEK_clean_linker_0, # of connection points: 2
#     Edge 78, Type (0, 0), BuildingBlock: EZIPEK_clean_linker_0, # of connection points: 2
#     Edge 79, Type (0, 0), BuildingBlock: EZIPEK_clean_linker_0, # of connection points: 2
#     Edge 80, Type (0, 0), BuildingBlock: EZIPEK_clean_linker_0, # of connection points: 2
#     Edge 81, Type (0, 0), BuildingBlock: EZIPEK_clean_linker_0, # of connection points: 2
#     Edge 82, Type (0, 0), BuildingBlock: EZIPEK_clean_linker_0, # of connection points: 2
#     Edge 83, Type (0, 0), BuildingBlock: EZIPEK_clean_linker_0, # of connection points: 2
#     Edge 84, Type (0, 0), BuildingBlock: EZIPEK_clean_linker_0, # of connection points: 2
#     Edge 85, Type (0, 0), BuildingBlock: EZIPEK_clean_linker_0, # of connection points: 2
#     Edge 86, Type (0, 0), BuildingBlock: EZIPEK_clean_linker_0, # of connection points: 2
#     Edge 87, Type (0, 0), BuildingBlock: EZIPEK_clean_linker_0, # of connection points: 2
#     Edge 88, Type (0, 0), BuildingBlock: EZIPEK_clean_linker_0, # of connection points: 2
#     Edge 89, Type (0, 0), BuildingBlock: EZIPEK_clean_linker_0, # of connection points: 2
#     Edge 90, Type (0, 0), BuildingBlock: EZIPEK_clean_linker_0, # of connection points: 2
#     Edge 91, Type (0, 0), BuildingBlock: EZIPEK_clean_linker_0, # of connection points: 2
#     Edge 92, Type (0, 0), BuildingBlock: EZIPEK_clean_linker_0, # of connection points: 2
#     Edge 93, Type (0, 0), BuildingBlock: EZIPEK_clean_linker_0, # of connection points: 2
#     Edge 94, Type (0, 0), BuildingBlock: EZIPEK_clean_linker_0, # of connection points: 2
#     Edge 95, Type (0, 0), BuildingBlock: EZIPEK_clean_linker_0, # of connection points: 2
#     Edge 96, Type (0, 0), BuildingBlock: EZIPEK_clean_linker_0, # of connection points: 2
#     Edge 97, Type (0, 0), BuildingBlock: EZIPEK_clean_linker_0, # of connection points: 2
#     Edge 98, Type (0, 0), BuildingBlock: EZIPEK_clean_linker_0, # of connection points: 2
#     Edge 99, Type (0, 0), BuildingBlock: EZIPEK_clean_linker_0, # of connection points: 2
#     Edge 100, Type (0, 0), BuildingBlock: EZIPEK_clean_linker_0, # of connection points: 2
#     Edge 101, Type (0, 0), BuildingBlock: EZIPEK_clean_linker_0, # of connection points: 2
#     Edge 102, Type (0, 0), BuildingBlock: EZIPEK_clean_linker_0, # of connection points: 2
#     Edge 103, Type (0, 0), BuildingBlock: EZIPEK_clean_linker_0, # of connection points: 2
#     Edge 104, Type (0, 0), BuildingBlock: EZIPEK_clean_linker_0, # of connection points: 2
#     Edge 105, Type (0, 0), BuildingBlock: EZIPEK_clean_linker_0, # of connection points: 2
#     Edge 106, Type (0, 0), BuildingBlock: EZIPEK_clean_linker_0, # of connection points: 2
#     Edge 107, Type (0, 0), BuildingBlock: EZIPEK_clean_linker_0, # of connection points: 2
#     Edge 108, Type (0, 0), BuildingBlock: EZIPEK_clean_linker_0, # of connection points: 2
#     Edge 109, Type (0, 0), BuildingBlock: EZIPEK_clean_linker_0, # of connection points: 2
#     Edge 110, Type (0, 0), BuildingBlock: EZIPEK_clean_linker_0, # of connection points: 2
#     Edge 111, Type (0, 0), BuildingBlock: EZIPEK_clean_linker_0, # of connection points: 2
#     Edge 112, Type (0, 0), BuildingBlock: EZIPEK_clean_linker_0, # of connection points: 2
#     Edge 113, Type (0, 0), BuildingBlock: EZIPEK_clean_linker_0, # of connection points: 2
#     Edge 114, Type (0, 0), BuildingBlock: EZIPEK_clean_linker_0, # of connection points: 2
#     Edge 115, Type (0, 0), BuildingBlock: EZIPEK_clean_linker_0, # of connection points: 2
#     Edge 116, Type (0, 0), BuildingBlock: EZIPEK_clean_linker_0, # of connection points: 2
#     Edge 117, Type (0, 0), BuildingBlock: EZIPEK_clean_linker_0, # of connection points: 2
#     Edge 118, Type (0, 0), BuildingBlock: EZIPEK_clean_linker_0, # of connection points: 2
#     Edge 119, Type (0, 0), BuildingBlock: EZIPEK_clean_linker_0, # of connection points: 2
#     Edge 120, Type (0, 0), BuildingBlock: EZIPEK_clean_linker_0, # of connection points: 2
#     Edge 121, Type (0, 0), BuildingBlock: EZIPEK_clean_linker_0, # of connection points: 2
#     Edge 122, Type (0, 0), BuildingBlock: EZIPEK_clean_linker_0, # of connection points: 2
#     Edge 123, Type (0, 0), BuildingBlock: EZIPEK_clean_linker_0, # of connection points: 2
#     Edge 124, Type (0, 0), BuildingBlock: EZIPEK_clean_linker_0, # of connection points: 2
#     Edge 125, Type (0, 0), BuildingBlock: EZIPEK_clean_linker_0, # of connection points: 2
#     Edge 126, Type (0, 0), BuildingBlock: EZIPEK_clean_linker_0, # of connection points: 2
#     Edge 127, Type (0, 0), BuildingBlock: EZIPEK_clean_linker_0, # of connection points: 2
# Relax obj value: 0.206
# Max RMSD: 0.227
# Mean RMSD: 0.226
data_MOF--net-son--node1-BETDAH_clean_sbu_0--edge1-EZIPEK_clean_linker_0
_symmetry_space_group_name_H-M    P1
_symmetry_Int_Tables_number       1
_symmetry_cell_setting            triclinic
loop_
_symmetry_equiv_pos_as_xyz
'x, y, z'
_cell_length_a     61.544216
_cell_length_b     36.408415
_cell_length_c     20.67687
_cell_angle_alpha  90.083194
_cell_angle_beta   89.919382
_cell_angle_gamma 90.046021
loop_
_atom_site_label
_atom_site_type_symbol
_atom_site_fract_x
_atom_site_fract_y
_atom_site_fract_z
_atom_type_partial_charge
Ho0 Ho 0.30541 0.28603 0.18571 0.0
Ho1 Ho 0.27424 0.25827 0.28923 0.0
C2 C 0.25463 0.27106 0.14913 0.0
C3 C 0.32282 0.29669 0.07351 0.0
C4 C 0.31532 0.29087 1.00558 0.0
C5 C 0.32283 0.26066 0.96937 0.0
C6 C 0.31667 0.25605 0.90454 0.0
C7 C 0.30288 0.28155 0.87444 0.0
C8 C 0.29495 0.3113 0.91072 0.0
C9 C 0.30109 0.31594 0.97549 0.0
C10 C 0.29749 0.33663 0.28101 0.0
C11 C 0.32685 0.25687 0.31296 0.0
C12 C 0.25744 0.25665 0.40401 0.0
C13 C 0.26603 0.26126 0.47093 0.0
C14 C 0.25835 0.29018 0.5099 0.0
C15 C 0.26497 0.2935 0.57452 0.0
C16 C 0.27991 0.26859 0.60119 0.0
C17 C 0.28838 0.24065 0.5615 0.0
C18 C 0.28129 0.23667 0.49738 0.0
C19 C 0.28453 0.20537 0.20362 0.0
O20 O 0.27455 0.27916 0.1324 0.0
O21 O 0.24893 0.26467 0.21014 0.0
O22 O 0.31296 0.32248 0.10656 0.0
O23 O 0.32675 0.2674 0.10852 0.0
O24 O 0.31429 0.33643 0.24315 0.0
O25 O 0.28398 0.3134 0.25761 0.0
O26 O 0.30708 0.24751 0.33111 0.0
O27 O 0.33128 0.27095 0.2556 0.0
O28 O 0.26315 0.22712 0.37213 0.0
O29 O 0.25729 0.28593 0.36741 0.0
O30 O 0.26619 0.20728 0.23514 0.0
O31 O 0.29755 0.23021 0.22407 0.0
H32 H 0.33373 0.2408 0.99093 0.0
H33 H 0.32292 0.23283 0.8775 0.0
H34 H 0.28432 0.33132 0.88846 0.0
H35 H 0.29487 0.33953 1.00157 0.0
H36 H 0.24667 0.3096 0.49091 0.0
H37 H 0.2583 0.31539 0.60399 0.0
H38 H 0.30007 0.22133 0.58078 0.0
H39 H 0.28777 0.21431 0.46869 0.0
Ho40 Ho 0.91868 0.97541 0.18323 0.0
Ho41 Ho 0.94993 1.0034 0.28598 0.0
C42 C 0.96945 0.9899 0.14439 0.0
C43 C 0.90084 0.96549 0.07157 0.0
C44 C 0.90824 0.97128 1.00353 0.0
C45 C 0.90043 1.00119 0.96732 0.0
C46 C 0.9066 1.00589 0.9025 0.0
C47 C 0.9208 0.98089 0.8725 0.0
C48 C 0.92888 0.95132 0.90869 0.0
C49 C 0.92271 0.94654 0.97339 0.0
C50 C 0.9261 0.92535 0.27941 0.0
C51 C 0.89727 1.00418 0.31151 0.0
C52 C 0.96643 0.00723 0.40107 0.0
C53 C 0.95794 1.00267 0.46841 0.0
C54 C 0.96258 0.97071 0.50401 0.0
C55 C 0.95623 0.96757 0.56903 0.0
C56 C 0.94445 0.99583 0.59953 0.0
C57 C 0.9388 0.02695 0.56309 0.0
C58 C 0.94577 0.03063 0.49877 0.0
C59 C 0.93987 0.05567 0.19948 0.0
O60 O 0.94956 0.98079 0.12886 0.0
O61 O 0.9752 0.99707 0.20534 0.0
O62 O 0.91047 0.93931 0.10405 0.0
O63 O 0.89735 0.99486 0.10698 0.0
O64 O 0.90952 0.92528 0.24078 0.0
O65 O 0.93983 0.94819 0.25587 0.0
O66 O 0.91706 0.01368 0.32904 0.0
O67 O 0.89285 0.99031 0.25393 0.0
O68 O 0.95958 0.03575 0.36866 0.0
O69 O 0.96783 0.97782 0.3647 0.0
O70 O 0.95819 0.05382 0.23087 0.0
O71 O 0.92672 0.0313 0.22077 0.0
H72 H 0.88933 0.02076 0.98893 0.0
H73 H 0.90018 0.02892 0.87552 0.0
H74 H 0.93954 0.9314 0.88619 0.0
H75 H 0.9291 0.92312 0.99939 0.0
H76 H 0.97165 0.94846 0.48205 0.0
H77 H 0.96057 0.94308 0.59571 0.0
H78 H 0.92948 0.04889 0.58512 0.0
H79 H 0.94168 0.05556 0.47304 0.0
Ho80 Ho 0.30075 0.97801 0.11846 0.0
Ho81 Ho 0.27273 1.00473 1.01622 0.0
C82 C 0.25281 1.00139 0.15694 0.0
C83 C 0.31526 0.95716 0.23052 0.0
C84 C 0.31018 0.9646 0.29955 0.0
C85 C 0.29482 0.9912 0.31839 0.0
C86 C 0.28938 0.99593 0.38378 0.0
C87 C 0.2993 0.97438 0.43166 0.0
C88 C 0.31484 0.94818 0.41295 0.0
C89 C 0.32008 0.94315 0.34753 0.0
C90 C 0.29072 0.9249 0.02811 0.0
C91 C 0.3256 0.99632 0.99448 0.0
C92 C 0.25657 0.01332 0.90137 0.0
C93 C 0.26413 0.00644 0.83424 0.0
C94 C 0.2759 0.97475 0.81714 0.0
C95 C 0.28245 0.96891 0.75284 0.0
C96 C 0.2772 0.99453 0.70438 0.0
C97 C 0.26601 0.02664 0.72209 0.0
C98 C 0.25968 0.03261 0.78631 0.0
C99 C 0.28439 0.06097 0.09388 0.0
O100 O 0.27321 1.00106 0.17254 0.0
O101 O 0.24677 0.99883 0.09533 0.0
O102 O 0.30022 0.93969 0.19823 0.0
O103 O 0.32412 0.98365 0.1967 0.0
O104 O 0.30941 0.93074 0.05462 0.0
O105 O 0.27749 0.94833 0.05164 0.0
O106 O 0.30585 0.99886 0.96983 0.0
O107 O 0.32883 0.99215 0.05692 0.0
O108 O 0.26672 0.03916 0.93276 0.0
O109 O 0.2523 0.98503 0.938 0.0
O110 O 0.26564 0.05747 0.06591 0.0
O111 O 0.29696 0.03461 0.0772 0.0
H112 H 0.28688 0.00823 0.28303 0.0
H113 H 0.27754 0.01658 0.3972 0.0
H114 H 0.32271 0.93126 0.44904 0.0
H115 H 0.33178 0.92223 0.33431 0.0
H116 H 0.28007 0.95462 0.85339 0.0
H117 H 0.29139 0.9442 0.74069 0.0
H118 H 0.26198 0.04703 0.68592 0.0
H119 H 0.25097 0.05753 0.79834 0.0
Ho120 Ho 0.91771 0.28007 0.11311 0.0
Ho121 Ho 0.94941 0.25758 1.01015 0.0
C122 C 0.96711 0.26589 0.15188 0.0
C123 C 0.90264 0.29868 0.22582 0.0
C124 C 0.90856 0.29183 0.29442 0.0
C125 C 0.92456 0.26607 0.31208 0.0
C126 C 0.9308 0.26204 0.37695 0.0
C127 C 0.92128 0.28387 0.4253 0.0
C128 C 0.90541 0.30967 0.40778 0.0
C129 C 0.89916 0.31364 0.34298 0.0
C130 C 0.92481 0.33186 1.01811 0.0
C131 C 0.89654 0.24874 0.98998 0.0
C132 C 0.96647 0.25533 0.89542 0.0
C133 C 0.95804 0.25998 0.8283 0.0
C134 C 0.94898 0.29334 0.80703 0.0
C135 C 0.94203 0.29761 0.74285 0.0
C136 C 0.94458 0.26893 0.69784 0.0
C137 C 0.95311 0.2353 0.71944 0.0
C138 C 0.9594 0.23072 0.78411 0.0
C139 C 0.94005 0.20017 0.08862 0.0
O140 O 0.94669 0.26167 0.16636 0.0
O141 O 0.97353 0.2703 0.09094 0.0
O142 O 0.89473 0.2713 0.19185 0.0
O143 O 0.91665 0.3182 0.19308 0.0
O144 O 0.90685 0.32743 0.0499 0.0
O145 O 0.93881 0.311 0.04446 0.0
O146 O 0.9159 0.25696 0.96601 0.0
O147 O 0.89252 0.25364 0.05207 0.0
O148 O 0.96009 0.22609 0.92661 0.0
O149 O 0.96697 0.28438 0.93269 0.0
O150 O 0.95862 0.20546 0.05987 0.0
O151 O 0.92667 0.225 0.07115 0.0
H152 H 0.93243 0.24924 0.27616 0.0
H153 H 0.943 0.24188 0.38956 0.0
H154 H 0.89794 0.3269 0.44431 0.0
H155 H 0.88712 0.33414 0.33065 0.0
H156 H 0.94745 0.31625 0.83976 0.0
H157 H 0.93524 0.32366 0.72778 0.0
H158 H 0.95502 0.21259 0.68604 0.0
H159 H 0.96597 0.20451 0.79916 0.0
Ho160 Ho 0.69574 0.75658 0.7586 0.0
Ho161 Ho 0.6657 0.73135 0.86692 0.0
C162 C 0.64239 0.75665 0.74296 0.0
C163 C 0.71356 0.76123 0.64525 0.0
C164 C 0.70626 0.7558 0.57752 0.0
C165 C 0.69649 0.72285 0.55717 0.0
C166 C 0.69016 0.71802 0.49267 0.0
C167 C 0.69363 0.74599 0.44708 0.0
C168 C 0.70324 0.77905 0.4674 0.0
C169 C 0.70942 0.78394 0.53204 0.0
C170 C 0.68447 0.81271 0.83708 0.0
C171 C 0.71517 0.74619 0.90061 0.0
C172 C 0.64973 0.71413 0.97866 0.0
C173 C 0.65617 0.72005 0.0467 0.0
C174 C 0.67142 0.74712 0.06428 0.0
C175 C 0.67807 0.75071 0.12884 0.0
C176 C 0.66936 0.72764 0.17678 0.0
C177 C 0.6541 0.70078 0.15914 0.0
C178 C 0.64773 0.69682 0.09457 0.0
C179 C 0.67411 0.68009 0.77199 0.0
O180 O 0.66181 0.75258 0.71551 0.0
O181 O 0.63976 0.75434 0.80597 0.0
O182 O 0.70525 0.78931 0.67573 0.0
O183 O 0.71502 0.73213 0.68213 0.0
O184 O 0.70267 0.81045 0.80523 0.0
O185 O 0.67227 0.78586 0.82187 0.0
O186 O 0.69496 0.75052 0.91779 0.0
O187 O 0.72074 0.74427 0.83832 0.0
O188 O 0.66259 0.69267 0.94542 0.0
O189 O 0.64338 0.74289 0.94563 0.0
O190 O 0.6564 0.68215 0.80564 0.0
O191 O 0.68731 0.70294 0.79665 0.0
H192 H 0.69394 0.70074 0.59098 0.0
H193 H 0.6829 0.69227 0.47791 0.0
H194 H 0.70605 0.80101 0.43309 0.0
H195 H 0.71694 0.8096 0.5464 0.0
H196 H 0.6782 0.76541 0.02835 0.0
H197 H 0.68981 0.77169 0.14157 0.0
H198 H 0.64723 0.68274 0.19542 0.0
H199 H 0.63619 0.67551 0.08195 0.0
Ho200 Ho 0.02434 0.00621 0.74757 0.0
Ho201 Ho 0.05348 0.03489 0.85483 0.0
C202 C 0.07804 0.99729 0.74279 0.0
C203 C 0.00634 0.01257 0.63492 0.0
C204 C 0.01417 0.01407 0.5669 0.0
C205 C 0.02117 0.04767 0.54067 0.0
C206 C 0.0282 0.05008 0.47671 0.0
C207 C 0.02666 0.01961 0.43544 0.0
C208 C 0.01942 0.98591 0.46098 0.0
C209 C 0.01375 0.98297 0.52656 0.0
C210 C 0.03607 0.94626 0.81254 0.0
C211 C 0.00548 0.00824 0.89167 0.0
C212 C 0.06625 0.05896 0.96612 0.0
C213 C 0.06117 0.05023 0.03418 0.0
C214 C 0.04765 0.0205 0.05086 0.0
C215 C 0.04158 0.01474 0.11532 0.0
C216 C 0.04945 0.03796 0.1642 0.0
C217 C 0.06341 0.06701 0.14775 0.0
C218 C 0.069 0.07333 0.08314 0.0
C219 C 0.04425 0.08397 0.75625 0.0
O220 O 0.05898 0.99761 0.71236 0.0
O221 O 0.08037 0.00771 0.8033 0.0
O222 O 0.0072 0.98136 0.66601 0.0
O223 O 0.01187 0.04026 0.67145 0.0
O224 O 0.02564 0.94626 0.75815 0.0
O225 O 0.04229 0.97892 0.82691 0.0
O226 O 0.026 0.00964 0.90716 0.0
O227 O -0.00085 0.00989 0.82993 0.0
O228 O 0.05029 0.0736 0.93333 0.0
O229 O 0.07696 0.03414 0.93289 0.0
O230 O 0.06295 0.08036 0.78401 0.0
O231 O 0.03149 0.06137 0.78368 0.0
H232 H 0.02075 0.07249 0.56919 0.0
H233 H 0.03372 0.07634 0.45833 0.0
H234 H 0.01809 0.96196 0.43009 0.0
H235 H 0.00837 0.95668 0.54509 0.0
H236 H 0.04168 1.0018 1.01446 0.0
H237 H 0.0309 0.99205 0.12723 0.0
H238 H 0.06959 0.08523 0.18488 0.0
H239 H 0.07931 0.09651 0.07132 0.0
Ho240 Ho 0.68908 1.00244 0.04017 0.0
Ho241 Ho 0.66509 0.03879 0.93311 0.0
C242 C 0.63668 0.01148 0.04562 0.0
C243 C 0.70868 0.99199 0.14984 0.0
C244 C 0.70085 0.99698 0.2181 0.0
C245 C 0.70884 0.02612 0.25586 0.0
C246 C 0.70124 0.03203 0.31907 0.0
C247 C 0.68503 0.00944 0.3462 0.0
C248 C 0.67679 0.98047 0.30835 0.0
C249 C 0.68452 0.97439 0.2451 0.0
C250 C 0.66809 0.95305 0.96547 0.0
C251 C 0.71374 0.01486 0.9007 0.0
C252 C 0.64963 0.05637 0.82073 0.0
C253 C 0.65504 0.04925 0.75184 0.0
C254 C 0.66768 0.01888 0.73281 0.0
C255 C 0.67166 0.01197 0.66695 0.0
C256 C 0.66332 0.0355 0.61888 0.0
C257 C 0.65104 0.06613 0.63834 0.0
C258 C 0.64682 0.07273 0.70401 0.0
C259 C 0.67052 0.08148 0.04382 0.0
O260 O 0.65509 0.00963 0.07747 0.0
O261 O 0.63596 0.0168 0.9831 0.0
O262 O 0.69995 0.96553 0.11616 0.0
O263 O 0.71112 0.02179 0.11529 0.0
O264 O 0.66806 0.95298 0.02825 0.0
O265 O 0.67809 0.98155 0.94573 0.0
O266 O 0.69774 0.03739 0.88777 0.0
O267 O 0.71462 0.99747 0.95784 0.0
O268 O 0.66297 0.07744 0.85338 0.0
O269 O 0.64293 0.02807 0.85435 0.0
O270 O 0.65473 0.08458 1.00272 0.0
O271 O 0.68419 0.06016 1.01771 0.0
H272 H 0.72081 0.04476 0.23602 0.0
H273 H 0.70803 0.05447 0.34699 0.0
H274 H 0.66453 0.96227 0.32804 0.0
H275 H 0.67762 0.95201 0.21736 0.0
H276 H 0.67434 1.00041 0.76875 0.0
H277 H 0.6814 0.98838 0.65345 0.0
H278 H 0.64462 0.08491 0.60256 0.0
H279 H 0.63704 0.09625 0.71751 0.0
Ho280 Ho 0.02227 0.75615 0.04436 0.0
Ho281 Ho 0.05625 0.72876 0.93567 0.0
C282 C 0.07527 0.76071 0.06619 0.0
C283 C 0.00386 0.75229 0.15695 0.0
C284 C 0.01238 0.74793 0.22436 0.0
C285 C 0.01744 0.71301 0.24901 0.0
C286 C 0.02588 0.70867 0.31147 0.0
C287 C 0.02846 0.73915 0.35252 0.0
C288 C 0.02311 0.77417 0.32861 0.0
C289 C 0.01534 0.77855 0.26517 0.0
C290 C 0.03472 0.81418 0.97211 0.0
C291 C 0.00564 0.73818 0.89914 0.0
C292 C 0.07522 0.7227 0.82437 0.0
C293 C 0.06859 0.72482 0.75503 0.0
C294 C 0.0651 0.75878 0.72426 0.0
C295 C 0.0586 0.76026 0.65933 0.0
C296 C 0.05626 0.72793 0.6227 0.0
C297 C 0.06054 0.69405 0.65267 0.0
C298 C 0.06629 0.69248 0.71821 0.0
C299 C 0.04843 0.68013 0.03344 0.0
O300 O 0.05517 0.76715 0.08541 0.0
O301 O 0.08037 0.74777 1.00827 0.0
O302 O 0.00814 0.7833 0.12784 0.0
O303 O 0.00558 0.72413 0.11767 0.0
O304 O 0.02023 0.8158 1.01805 0.0
O305 O 0.04141 0.78103 0.96768 0.0
O306 O 0.02427 0.72175 0.88794 0.0
O307 O -0.00037 0.75057 0.95759 0.0
O308 O 0.06786 0.69456 0.8573 0.0
O309 O 0.07514 0.75324 0.85833 0.0
O310 O 0.0653 0.67908 0.99535 0.0
O311 O 0.0353 0.70356 1.00963 0.0
H312 H 0.01467 0.68901 0.22 0.0
H313 H 0.0298 0.68134 0.32852 0.0
H314 H 0.02492 0.79815 0.3592 0.0
H315 H 0.01142 0.8059 0.24831 0.0
H316 H 0.06737 0.7843 0.7503 0.0
H317 H 0.05581 0.78675 0.63711 0.0
H318 H 0.05908 0.6687 0.62549 0.0
H319 H 0.06912 0.66587 0.73998 0.0
Ho320 Ho 0.30388 0.78538 0.69055 0.0
Ho321 Ho 0.27707 0.75428 0.79915 0.0
C322 C 0.25423 0.76357 0.65747 0.0
C323 C 0.31951 0.80132 0.57787 0.0
C324 C 0.31303 0.79301 0.50992 0.0
C325 C 0.31737 0.75859 0.48135 0.0
C326 C 0.3119 0.75175 0.4166 0.0
C327 C 0.30163 0.77888 0.37926 0.0
C328 C 0.29716 0.81311 0.40782 0.0
C329 C 0.30284 0.82012 0.47224 0.0
C330 C 0.29494 0.83391 0.79084 0.0
C331 C 0.32947 0.75421 0.80773 0.0
C332 C 0.25687 0.75096 0.90871 0.0
C333 C 0.26452 0.7539 0.97695 0.0
C334 C 0.2558 0.78114 1.0176 0.0
C335 C 0.26244 0.78422 0.08226 0.0
C336 C 0.27829 0.7605 0.10746 0.0
C337 C 0.2877 0.73413 0.06637 0.0
C338 C 0.28084 0.73074 1.00184 0.0
C339 C 0.29703 0.70097 0.72894 0.0
O340 O 0.27248 0.77942 0.64039 0.0
O341 O 0.25123 0.75095 0.71782 0.0
O342 O 0.30676 0.82338 0.61051 0.0
O343 O 0.32663 0.77398 0.61312 0.0
O344 O 0.31262 0.83375 0.7564 0.0
O345 O 0.28261 0.81003 0.76606 0.0
O346 O 0.31108 0.75983 0.83972 0.0
O347 O 0.33053 0.75798 0.74469 0.0
O348 O 0.26252 0.7218 0.87563 0.0
O349 O 0.25812 0.78096 0.87427 0.0
O350 O 0.29449 0.70064 0.79128 0.0
O351 O 0.28862 0.7303 0.70704 0.0
H352 H 0.32523 0.73702 0.50869 0.0
H353 H 0.31572 0.72528 0.39548 0.0
H354 H 0.28944 0.8346 0.3799 0.0
H355 H 0.29937 0.84695 0.49245 0.0
H356 H 0.24377 0.80011 0.99921 0.0
H357 H 0.25521 0.80516 0.1127 0.0
H358 H 0.3002 0.71594 0.08452 0.0
H359 H 0.28834 0.71002 0.97155 0.0
Ho360 Ho 0.918 0.47739 0.6892 0.0
Ho361 Ho 0.94938 0.50175 0.79711 0.0
C362 C 0.96841 0.49388 0.65336 0.0
C363 C 0.90141 0.46635 0.5758 0.0
C364 C 0.90977 0.4694 0.50854 0.0
C365 C 0.92412 0.49761 0.4895 0.0
C366 C 0.93126 0.50007 0.42504 0.0
C367 C 0.92422 0.47437 0.3787 0.0
C368 C 0.91034 0.44581 0.39816 0.0
C369 C 0.90331 0.44326 0.46244 0.0
C370 C 0.92633 0.4242 0.78062 0.0
C371 C 0.89676 0.5019 0.81781 0.0
C372 C 0.96825 0.50559 0.90901 0.0
C373 C 0.96128 0.49936 0.97685 0.0
C374 C 0.94861 0.46893 0.99503 0.0
C375 C 0.94204 0.4643 0.05956 0.0
C376 C 0.9477 0.49046 0.10674 0.0
C377 C 0.95961 0.52157 0.08803 0.0
C378 C 0.96628 0.526 1.02377 0.0
C379 C 0.93611 0.56404 0.73524 0.0
O380 O 0.94913 0.48205 0.63704 0.0
O381 O 0.97388 0.50168 0.71426 0.0
O382 O 0.90981 0.44017 0.61094 0.0
O383 O 0.89881 0.49688 0.60844 0.0
O384 O 0.90816 0.42947 0.75018 0.0
O385 O 0.94002 0.44735 0.75805 0.0
O386 O 0.91628 0.49659 0.84265 0.0
O387 O 0.8929 0.50028 0.75519 0.0
O388 O 0.95886 0.53327 0.88091 0.0
O389 O 0.97032 0.47736 0.87016 0.0
O390 O 0.95062 0.56169 0.77984 0.0
O391 O 0.93029 0.5312 0.72204 0.0
H392 H 0.92963 0.51794 0.52413 0.0
H393 H 0.94191 0.52239 0.41096 0.0
H394 H 0.90476 0.42568 0.36328 0.0
H395 H 0.89254 0.42103 0.47606 0.0
H396 H 0.94356 0.44907 0.95933 0.0
H397 H 0.93252 0.4404 0.07269 0.0
H398 H 0.96382 0.54239 0.12334 0.0
H399 H 0.97552 0.55023 1.01076 0.0
Ho400 Ho 0.30769 0.47846 0.61909 0.0
Ho401 Ho 0.27575 0.50636 0.5109 0.0
C402 C 0.25771 0.49463 0.65665 0.0
C403 C 0.32544 0.46703 0.73097 0.0
C404 C 0.31822 0.47019 0.79984 0.0
C405 C 0.31282 0.50433 0.8275 0.0
C406 C 0.30552 0.50678 0.89168 0.0
C407 C 0.30464 0.47539 0.93122 0.0
C408 C 0.31072 0.44137 0.9043 0.0
C409 C 0.31703 0.43872 0.83913 0.0
C410 C 0.29937 0.42851 0.52179 0.0
C411 C 0.32836 0.50917 0.49206 0.0
C412 C 0.25698 0.50852 0.39899 0.0
C413 C 0.26492 0.50256 0.33172 0.0
C414 C 0.27811 0.47243 0.31493 0.0
C415 C 0.2853 0.46756 0.25097 0.0
C416 C 0.27961 0.49296 0.20271 0.0
C417 C 0.26708 0.52369 0.21989 0.0
C418 C 0.25995 0.52854 0.28376 0.0
C419 C 0.28954 0.56521 0.58127 0.0
O420 O 0.27618 0.47864 0.67026 0.0
O421 O 0.25223 0.50513 0.59677 0.0
O422 O 0.31638 0.44102 0.69649 0.0
O423 O 0.32789 0.49753 0.69806 0.0
O424 O 0.31727 0.43218 0.55426 0.0
O425 O 0.28581 0.45133 0.54616 0.0
O426 O 0.30895 0.50485 0.46596 0.0
O427 O 0.33235 0.50381 0.55405 0.0
O428 O 0.26483 0.53743 0.42797 0.0
O429 O 0.25568 0.48012 0.43773 0.0
O430 O 0.27572 0.567 0.5341 0.0
O431 O 0.29494 0.53171 0.58775 0.0
H432 H 0.31453 0.5293 0.79977 0.0
H433 H 0.30124 0.53344 0.91124 0.0
H434 H 0.31045 0.41678 0.93373 0.0
H435 H 0.3213 0.41204 0.81965 0.0
H436 H 0.28299 0.45281 0.35119 0.0
H437 H 0.29517 0.44387 0.23901 0.0
H438 H 0.26269 0.5438 0.18365 0.0
H439 H 0.2502 0.5524 0.29555 0.0
Ho440 Ho 0.91481 0.78321 0.61593 0.0
Ho441 Ho 0.94647 0.75716 0.50817 0.0
C442 C 0.96464 0.77137 0.65224 0.0
C443 C 0.89683 0.79161 0.72851 0.0
C444 C 0.90378 0.78877 0.79759 0.0
C445 C 0.90452 0.75458 0.82932 0.0
C446 C 0.91092 0.75209 0.89421 0.0
C447 C 0.91575 0.78386 0.93022 0.0
C448 C 0.91455 0.81814 0.89905 0.0
C449 C 0.90893 0.82052 0.83343 0.0
C450 C 0.92227 0.83407 0.51992 0.0
C451 C 0.89346 0.75557 0.48891 0.0
C452 C 0.96512 0.75724 0.39587 0.0
C453 C 0.95708 0.76284 0.32891 0.0
C454 C 0.94375 0.79271 0.31215 0.0
C455 C 0.93576 0.79635 0.24894 0.0
C456 C 0.94082 0.76998 0.20155 0.0
C457 C 0.95368 0.73971 0.21861 0.0
C458 C 0.96163 0.73612 0.2817 0.0
C459 C 0.93428 0.69657 0.57541 0.0
O460 O 0.9467 0.78951 0.66339 0.0
O461 O 0.96987 0.75848 0.5937 0.0
O462 O 0.90478 0.81888 0.69463 0.0
O463 O 0.89577 0.76107 0.69497 0.0
O464 O 0.90407 0.82859 0.55047 0.0
O465 O 0.93617 0.81193 0.54415 0.0
O466 O 0.91329 0.75536 0.46432 0.0
O467 O 0.88937 0.76256 0.55015 0.0
O468 O 0.95776 0.72777 0.42405 0.0
O469 O 0.96582 0.78542 0.43533 0.0
O470 O 0.94802 0.69645 0.52792 0.0
O471 O 0.92805 0.72962 0.58484 0.0
H472 H 0.90015 0.7296 0.80401 0.0
H473 H 0.91167 0.7253 0.91683 0.0
H474 H 0.91808 0.84314 0.92554 0.0
H475 H 0.90831 0.84736 0.81098 0.0
H476 H 0.93932 0.81298 0.34791 0.0
H477 H 0.92581 0.81988 0.2368 0.0
H478 H 0.9577 0.71901 0.18288 0.0
H479 H 0.97137 0.71233 0.29372 0.0
Ho480 Ho 0.69578 0.26794 0.25593 0.0
Ho481 Ho 0.66461 0.2352 0.36257 0.0
C482 C 0.64203 0.26687 0.23992 0.0
C483 C 0.71436 0.27435 0.14425 0.0
C484 C 0.70628 0.27069 0.07649 0.0
C485 C 0.71496 0.24369 0.03575 0.0
C486 C 0.70831 0.24066 0.97112 0.0
C487 C 0.69179 0.26325 0.94685 0.0
C488 C 0.68219 0.28923 0.98825 0.0
C489 C 0.68957 0.29333 0.05209 0.0
C490 C 0.68349 0.32318 0.33411 0.0
C491 C 0.7148 0.24455 0.3971 0.0
C492 C 0.6485 0.22838 0.47728 0.0
C493 C 0.65668 0.23469 0.54429 0.0
C494 C 0.6492 0.26517 0.57983 0.0
C495 C 0.65549 0.27043 0.64424 0.0
C496 C 0.66946 0.24542 0.67465 0.0
C497 C 0.67761 0.2156 0.63886 0.0
C498 C 0.67126 0.21022 0.57433 0.0
C499 C 0.67158 0.18998 0.25845 0.0
O500 O 0.6617 0.27254 0.21616 0.0
O501 O 0.63821 0.25487 0.29887 0.0
O502 O 0.70668 0.302 0.17722 0.0
O503 O 0.71607 0.24448 0.17945 0.0
O504 O 0.69699 0.3269 0.28643 0.0
O505 O 0.67768 0.28964 0.33739 0.0
O506 O 0.69687 0.22597 0.40583 0.0
O507 O 0.71928 0.26233 0.34193 0.0
O508 O 0.6566 0.20069 0.44454 0.0
O509 O 0.64577 0.25773 0.4415 0.0
O510 O 0.65502 0.18799 0.29791 0.0
O511 O 0.68535 0.21206 0.28367 0.0
H512 H 0.72629 0.22405 0.05498 0.0
H513 H 0.71552 0.21974 0.94063 0.0
H514 H 0.6693 0.30681 0.97068 0.0
H515 H 0.68202 0.314 0.08234 0.0
H516 H 0.63812 0.28467 0.55813 0.0
H517 H 0.64916 0.29376 0.6708 0.0
H518 H 0.68854 0.19611 0.66132 0.0
H519 H 0.67752 0.18661 0.54845 0.0
Ho520 Ho 0.02421 0.51451 0.26606 0.0
Ho521 Ho 0.05411 0.54099 0.37079 0.0
C522 C 0.07738 0.51431 0.24664 0.0
C523 C 0.00798 0.50654 0.15131 0.0
C524 C 0.01597 0.51182 0.08411 0.0
C525 C 0.02683 0.54402 0.06493 0.0
C526 C 0.0333 0.54898 1.00045 0.0
C527 C 0.02915 0.52164 0.95401 0.0
C528 C 0.01893 0.48897 0.97356 0.0
C529 C 0.01248 0.48408 0.03799 0.0
C530 C 0.03451 0.46094 0.35036 0.0
C531 C 0.00311 0.52432 0.40427 0.0
C532 C 0.07127 0.55521 0.48283 0.0
C533 C 0.06504 0.54926 0.55152 0.0
C534 C 0.04369 0.53978 0.56933 0.0
C535 C 0.03802 0.535 0.63433 0.0
C536 C 0.05344 0.54039 0.68324 0.0
C537 C 0.07483 0.54982 0.66575 0.0
C538 C 0.08059 0.55395 0.60045 0.0
C539 C 0.04681 0.59204 0.27565 0.0
O540 O 0.05758 0.51294 0.22207 0.0
O541 O 0.08102 0.52181 0.30799 0.0
O542 O 0.01691 0.47981 0.18365 0.0
O543 O 0.00489 0.53582 0.18697 0.0
O544 O 0.01632 0.46293 0.31884 0.0
O545 O 0.04735 0.48582 0.33076 0.0
O546 O 0.02298 0.53164 0.42192 0.0
O547 O -0.00219 0.5196 0.34259 0.0
O548 O 0.05944 0.57863 0.45036 0.0
O549 O 0.07599 0.52595 0.44877 0.0
O550 O 0.06491 0.58625 0.30584 0.0
O551 O 0.03264 0.57041 0.30001 0.0
H552 H 0.03035 0.5653 0.09968 0.0
H553 H 0.04142 0.57421 0.98669 0.0
H554 H 0.01572 0.46741 0.93871 0.0
H555 H 0.00434 0.45884 0.05156 0.0
H556 H 0.03124 0.53624 0.53357 0.0
H557 H 0.02152 0.52756 0.6468 0.0
H558 H 0.08706 0.55391 0.7027 0.0
H559 H 0.09717 0.56119 0.58819 0.0
Ho560 Ho 0.69697 0.5135 0.54254 0.0
Ho561 Ho 0.67032 0.54144 0.43506 0.0
C562 C 0.64584 0.51918 0.56185 0.0
C563 C 0.71848 0.50537 0.64914 0.0
C564 C 0.71122 0.50922 0.71793 0.0
C565 C 0.71859 0.53886 0.75565 0.0
C566 C 0.71219 0.54271 0.8205 0.0
C567 C 0.69783 0.51737 0.84893 0.0
C568 C 0.68969 0.48854 0.81067 0.0
C569 C 0.69645 0.48428 0.74618 0.0
C570 C 0.67611 0.45934 0.47625 0.0
C571 C 0.71971 0.5247 0.40215 0.0
C572 C 0.65459 0.5519 0.32044 0.0
C573 C 0.66239 0.54549 0.25292 0.0
C574 C 0.65312 0.51728 0.21537 0.0
C575 C 0.65927 0.51221 0.15063 0.0
C576 C 0.67492 0.5351 0.12192 0.0
C577 C 0.68455 0.56284 0.15956 0.0
C578 C 0.67837 0.56803 0.2243 0.0
C579 C 0.67712 0.59321 0.53006 0.0
O580 O 0.66492 0.52481 0.58894 0.0
O581 O 0.64362 0.51932 0.49837 0.0
O582 O 0.71064 0.47784 0.6161 0.0
O583 O 0.71913 0.53537 0.61475 0.0
O584 O 0.67742 0.4613 0.53874 0.0
O585 O 0.6855 0.48718 0.45259 0.0
O586 O 0.70292 0.54565 0.39035 0.0
O587 O 0.72163 0.50792 0.45924 0.0
O588 O 0.66424 0.57764 0.35406 0.0
O589 O 0.6503 0.52275 0.35525 0.0
O590 O 0.65921 0.58829 0.49794 0.0
O591 O 0.69093 0.57015 0.50877 0.0
H592 H 0.72954 0.55893 0.735 0.0
H593 H 0.7185 0.56544 0.84864 0.0
H594 H 0.67838 0.46892 0.83121 0.0
H595 H 0.69004 0.46144 0.71854 0.0
H596 H 0.64083 0.49942 0.23582 0.0
H597 H 0.65166 0.49056 0.12266 0.0
H598 H 0.69643 0.58111 0.13817 0.0
H599 H 0.68591 0.59005 0.25147 0.0
Ho600 Ho 0.02395 0.26433 0.54158 0.0
Ho601 Ho 0.05074 0.23575 0.43862 0.0
C602 C 0.07691 0.25704 0.55581 0.0
C603 C 0.00946 0.2772 0.65708 0.0
C604 C 0.01742 0.26974 0.72372 0.0
C605 C 0.01069 0.23821 0.75718 0.0
C606 C 0.01641 0.23286 0.82201 0.0
C607 C 0.02945 0.25867 0.85433 0.0
C608 C 0.03725 0.28923 0.82004 0.0
C609 C 0.03108 0.29497 0.75568 0.0
C610 C 0.03499 0.31863 0.4602 0.0
C611 C 0.00295 0.25947 0.40235 0.0
C612 C 0.0642 0.21387 0.3265 0.0
C613 C 0.05812 0.2229 0.25863 0.0
C614 C 0.06956 0.24983 0.22357 0.0
C615 C 0.06448 0.25688 0.15871 0.0
C616 C 0.04782 0.23726 0.12775 0.0
C617 C 0.03603 0.21102 0.16283 0.0
C618 C 0.04114 0.2038 0.22748 0.0
C619 C 0.04122 0.18472 0.53287 0.0
O620 O 0.05759 0.25516 0.58383 0.0
O621 O 0.07906 0.25569 0.49283 0.0
O622 O 0.02055 0.30087 0.62331 0.0
O623 O 0.0029 0.24945 0.62197 0.0
O624 O 0.01653 0.31619 0.49012 0.0
O625 O 0.04756 0.29271 0.4773 0.0
O626 O 0.02316 0.25841 0.38454 0.0
O627 O -0.00252 0.2573 0.46456 0.0
O628 O 0.07423 0.23918 0.36028 0.0
O629 O 0.04959 0.19639 0.36059 0.0
O630 O 0.05981 0.19003 0.50538 0.0
O631 O 0.02785 0.20739 0.50841 0.0
H632 H 0.00052 0.21816 0.73354 0.0
H633 H 0.0104 0.20884 0.84725 0.0
H634 H 0.04755 0.30924 0.84382 0.0
H635 H 0.03676 0.3195 0.73138 0.0
H636 H 0.08265 0.26512 0.24595 0.0
H637 H 0.07372 0.27732 0.13236 0.0
H638 H 0.02326 0.19542 0.13947 0.0
H639 H 0.03198 0.18281 0.25267 0.0
Ho640 Ho 0.80303 0.27718 0.68663 0.0
Ho641 Ho 0.77511 0.25168 0.78898 0.0
C642 C 0.75541 0.2549 0.64805 0.0
C643 C 0.81646 0.30044 0.57482 0.0
C644 C 0.81133 0.29263 0.50603 0.0
C645 C 0.79988 0.26093 0.48696 0.0
C646 C 0.79469 0.25501 0.42169 0.0
C647 C 0.80048 0.28103 0.37458 0.0
C648 C 0.81141 0.31308 0.39382 0.0
C649 C 0.81678 0.31879 0.4589 0.0
C650 C 0.79518 0.32998 0.78 0.0
C651 C 0.82784 0.25358 0.80567 0.0
C652 C 0.75982 0.24121 0.90448 0.0
C653 C 0.76849 0.24677 0.97081 0.0
C654 C 0.77946 0.27904 0.98919 0.0
C655 C 0.78617 0.28421 0.05348 0.0
C656 C 0.78158 0.25754 0.10085 0.0
C657 C 0.77159 0.22461 0.08151 0.0
C658 C 0.76579 0.21887 1.01681 0.0
C659 C 0.78632 0.19453 0.71258 0.0
O660 O 0.77582 0.25279 0.6328 0.0
O661 O 0.74951 0.25992 0.70948 0.0
O662 O 0.8008 0.31579 0.60775 0.0
O663 O 0.82663 0.27517 0.60814 0.0
O664 O 0.81359 0.3225 0.75286 0.0
O665 O 0.78113 0.30815 0.7558 0.0
O666 O 0.80866 0.26076 0.83185 0.0
O667 O 0.82999 0.2528 0.74243 0.0
O668 O 0.7553 0.2702 0.8698 0.0
O669 O 0.76932 0.21573 0.8706 0.0
O670 O 0.7675 0.1985 0.74001 0.0
O671 O 0.79883 0.2209 0.72837 0.0
H672 H 0.79476 0.24092 0.52223 0.0
H673 H 0.78619 0.23018 0.40782 0.0
H674 H 0.81585 0.33363 0.35834 0.0
H675 H 0.82511 0.34385 0.47253 0.0
H676 H 0.78276 0.30024 0.95407 0.0
H677 H 0.79426 0.30956 0.06679 0.0
H678 H 0.76814 0.20338 0.11673 0.0
H679 H 0.75806 0.19323 1.00339 0.0
Ho680 Ho 0.42379 0.97856 0.69084 0.0
Ho681 Ho 0.44822 0.01144 0.79814 0.0
C682 C 0.47214 0.99646 0.66065 0.0
C683 C 0.40917 0.96742 0.57456 0.0
C684 C 0.41712 0.97288 0.50708 0.0
C685 C 0.42952 1.00379 0.48893 0.0
C686 C 0.43551 0.00924 0.42393 0.0
C687 C 0.4292 0.98402 0.37575 0.0
C688 C 0.41716 0.95292 0.39427 0.0
C689 C 0.41134 0.94732 0.45915 0.0
C690 C 0.43196 0.92917 0.78781 0.0
C691 C 0.39815 0.99682 0.81691 0.0
C692 C 0.46845 0.02934 0.90372 0.0
C693 C 0.46248 0.02209 0.97218 0.0
C694 C 0.44736 0.99457 0.98849 0.0
C695 C 0.44123 0.98886 0.05318 0.0
C696 C 0.45014 0.0105 0.10296 0.0
C697 C 0.46455 0.03894 0.08617 0.0
C698 C 0.47058 0.04472 1.0215 0.0
C699 C 0.42632 0.06145 0.72543 0.0
O700 O 0.457 0.9717 0.65417 0.0
O701 O 0.47279 0.01695 0.71426 0.0
O702 O 0.41868 0.94198 0.60889 0.0
O703 O 0.40503 0.99695 0.60853 0.0
O704 O 0.41416 0.93093 0.754 0.0
O705 O 0.445 0.95359 0.76724 0.0
O706 O 0.41726 0.9927 0.84438 0.0
O707 O 0.39645 0.99859 0.7534 0.0
O708 O 0.45543 0.05134 0.8732 0.0
O709 O 0.47397 1.00134 0.86788 0.0
O710 O 0.42633 0.06045 0.78769 0.0
O711 O 0.43724 0.03446 0.70528 0.0
H712 H 0.43432 0.02396 0.52475 0.0
H713 H 0.44475 0.03349 0.41094 0.0
H714 H 0.41211 0.93304 0.35825 0.0
H715 H 0.40191 0.92323 0.47175 0.0
H716 H 0.44024 0.9775 0.95127 0.0
H717 H 0.42977 0.9672 0.06457 0.0
H718 H 0.47116 0.05669 0.12326 0.0
H719 H 0.48169 0.0668 1.01 0.0
Ho720 Ho 0.80636 0.96949 0.62147 0.0
Ho721 Ho 0.77559 0.99611 0.51253 0.0
C722 C 0.75513 0.98752 0.65339 0.0
C723 C 0.82303 0.95273 0.73211 0.0
C724 C 0.81679 0.96013 0.79996 0.0
C725 C 0.7949 0.96505 0.81782 0.0
C726 C 0.78917 0.97088 0.88239 0.0
C727 C 0.80519 0.97102 0.93055 0.0
C728 C 0.82707 0.96634 0.91289 0.0
C729 C 0.83283 0.96123 0.84799 0.0
C730 C 0.79953 0.91951 0.52312 0.0
C731 C 0.82809 1.00042 0.49982 0.0
C732 C 0.75964 0.99919 0.39714 0.0
C733 C 0.76825 0.99562 0.33067 0.0
C734 C 0.78131 0.9658 0.31166 0.0
C735 C 0.78794 0.96209 0.24716 0.0
C736 C 0.78171 0.98827 0.20092 0.0
C737 C 0.76941 0.01876 0.22048 0.0
C738 C 0.76297 0.02255 0.28497 0.0
C739 C 0.78826 0.05554 0.58426 0.0
O740 O 0.77506 0.98051 0.6721 0.0
O741 O 0.74978 0.99113 0.59123 0.0
O742 O 0.81001 0.93098 0.69983 0.0
O743 O 0.82953 0.98098 0.69796 0.0
O744 O 0.81775 0.92564 0.55266 0.0
O745 O 0.78541 0.94096 0.54819 0.0
O746 O 0.80948 0.99179 0.47193 0.0
O747 O 0.83009 1.00118 0.56318 0.0
O748 O 0.75893 0.96968 0.43308 0.0
O749 O 0.76575 0.0282 0.42939 0.0
O750 O 0.77468 0.05688 0.53648 0.0
O751 O 0.79353 0.02224 0.59151 0.0
H752 H 0.7821 0.96365 0.7825 0.0
H753 H 0.77221 0.97446 0.89504 0.0
H754 H 0.83966 0.96648 0.94946 0.0
H755 H 0.84979 0.95753 0.83541 0.0
H756 H 0.78629 0.94535 0.34639 0.0
H757 H 0.79768 0.9386 0.23311 0.0
H758 H 0.76465 0.03945 0.18567 0.0
H759 H 0.75355 0.04636 0.29914 0.0
Ho760 Ho 0.41798 0.28354 0.62136 0.0
Ho761 Ho 0.44821 0.25481 0.51242 0.0
C762 C 0.46747 0.27193 0.65581 0.0
C763 C 0.40094 0.29159 0.73498 0.0
C764 C 0.40916 0.28927 0.80265 0.0
C765 C 0.41356 0.25503 0.83155 0.0
C766 C 0.42027 0.25287 0.89606 0.0
C767 C 0.42214 0.28479 0.93384 0.0
C768 C 0.41801 0.31904 0.90515 0.0
C769 C 0.41174 0.32126 0.84009 0.0
C770 C 0.42537 0.33269 0.52344 0.0
C771 C 0.39584 0.25642 0.49844 0.0
C772 C 0.46559 0.24572 0.39961 0.0
C773 C 0.45865 0.25439 0.33295 0.0
C774 C 0.44368 0.28251 0.31954 0.0
C775 C 0.43675 0.28883 0.25585 0.0
C776 C 0.4444 0.26661 0.20508 0.0
C777 C 0.4584 0.23736 0.21913 0.0
C778 C 0.46513 0.23102 0.28268 0.0
C779 C 0.43459 0.19624 0.58091 0.0
O780 O 0.45005 0.29145 0.66534 0.0
O781 O 0.4717 0.25542 0.59919 0.0
O782 O 0.40749 0.31934 0.6997 0.0
O783 O 0.40028 0.26088 0.70211 0.0
O784 O 0.40706 0.32795 0.55419 0.0
O785 O 0.43935 0.31063 0.54722 0.0
O786 O 0.41477 0.26298 0.47046 0.0
O787 O 0.39368 0.25552 0.5614 0.0
O788 O 0.47092 0.27272 0.43848 0.0
O789 O 0.45348 0.22124 0.42801 0.0
O790 O 0.44793 0.19431 0.53296 0.0
O791 O 0.4296 0.22962 0.58984 0.0
H792 H 0.41142 0.22972 0.80479 0.0
H793 H 0.42336 0.22616 0.91719 0.0
H794 H 0.41936 0.34402 0.9334 0.0
H795 H 0.40844 0.34798 0.81947 0.0
H796 H 0.43713 0.29909 0.35826 0.0
H797 H 0.42547 0.31097 0.24616 0.0
H798 H 0.46396 0.21924 0.18094 0.0
H799 H 0.47502 0.20724 0.29309 0.0
Ho800 Ho 0.19679 0.7514 0.26397 0.0
Ho801 Ho 0.16536 0.72919 0.37453 0.0
C802 C 0.14445 0.75829 0.25146 0.0
C803 C 0.21377 0.7519 0.14913 0.0
C804 C 0.20423 0.74816 0.08302 0.0
C805 C 0.19754 0.71387 0.05911 0.0
C806 C 0.18929 0.7101 0.99637 0.0
C807 C 0.18784 0.7407 0.9554 0.0
C808 C 0.19374 0.77539 0.97965 0.0
C809 C 0.2017 0.7791 0.04293 0.0
C810 C 0.18585 0.81358 0.32898 0.0
C811 C 0.21612 0.74187 0.40839 0.0
C812 C 0.14677 0.71503 0.48399 0.0
C813 C 0.15196 0.72149 0.55274 0.0
C814 C 0.16991 0.74298 0.57142 0.0
C815 C 0.17534 0.74661 0.63691 0.0
C816 C 0.16285 0.72894 0.68458 0.0
C817 C 0.14481 0.70786 0.66586 0.0
C818 C 0.1394 0.70422 0.60047 0.0
C819 C 0.17138 0.67689 0.27905 0.0
O820 O 0.16287 0.7486 0.22319 0.0
O821 O 0.14247 0.76009 0.31452 0.0
O822 O 0.20862 0.7816 0.18077 0.0
O823 O 0.21389 0.72303 0.18672 0.0
O824 O 0.19818 0.81239 0.27851 0.0
O825 O 0.17922 0.78124 0.34078 0.0
O826 O 0.19588 0.73903 0.42702 0.0
O827 O 0.22178 0.74465 0.34593 0.0
O828 O 0.15958 0.69196 0.45391 0.0
O829 O 0.14212 0.74395 0.44898 0.0
O830 O 0.15323 0.68464 0.30781 0.0
O831 O 0.18578 0.69796 0.30337 0.0
H832 H 0.19886 0.68993 0.08887 0.0
H833 H 0.18464 0.68311 0.9791 0.0
H834 H 0.19255 0.79948 0.94919 0.0
H835 H 0.20636 0.80612 0.06 0.0
H836 H 0.17981 0.75671 0.53562 0.0
H837 H 0.18939 0.76285 0.65042 0.0
H838 H 0.13504 0.69393 0.70192 0.0
H839 H 0.12557 0.68746 0.58706 0.0
Ho840 Ho 0.52443 1.00591 0.26472 0.0
Ho841 Ho 0.55575 0.03376 0.37345 0.0
C842 C 0.57734 0.00681 0.24873 0.0
C843 C 0.50777 0.99982 0.15038 0.0
C844 C 0.51593 0.00702 0.08409 0.0
C845 C 0.53087 0.03532 0.07087 0.0
C846 C 0.53858 0.04089 1.00767 0.0
C847 C 0.53162 0.01798 0.95695 0.0
C848 C 0.51725 0.9891 0.9706 0.0
C849 C 0.50955 0.98358 0.03357 0.0
C850 C 0.53716 0.94724 0.3373 0.0
C851 C 0.50449 0.01909 0.40511 0.0
C852 C 0.57322 0.04749 0.48464 0.0
C853 C 0.56696 0.04262 0.55366 0.0
C854 C 0.56291 0.0077 0.58031 0.0
C855 C 0.55691 1.00396 0.64542 0.0
C856 C 0.55564 0.03493 0.68593 0.0
C857 C 0.55997 0.06975 0.65958 0.0
C858 C 0.56532 0.07353 0.59409 0.0
C859 C 0.54787 0.08372 0.27574 0.0
O860 O 0.55797 0.01112 0.22239 0.0
O861 O 0.58079 0.00855 0.31132 0.0
O862 O 0.51742 0.97294 0.1803 0.0
O863 O 0.50407 0.02791 0.18851 0.0
O864 O 0.52301 0.94573 0.29116 0.0
O865 O 0.54264 0.98062 0.34388 0.0
O866 O 0.52418 0.02811 0.42336 0.0
O867 O 0.4991 0.01162 0.34402 0.0
O868 O 0.56213 0.07184 0.45186 0.0
O869 O 0.57736 0.01782 0.45077 0.0
O870 O 0.56585 0.07912 0.30714 0.0
O871 O 0.53413 0.06135 0.30023 0.0
H872 H 0.53668 0.05289 0.10934 0.0
H873 H 0.54983 0.06314 0.9982 0.0
H874 H 0.51192 0.97091 0.9323 0.0
H875 H 0.49847 0.96107 0.04273 0.0
H876 H 0.56464 0.98323 0.55118 0.0
H877 H 0.55368 0.97681 0.66457 0.0
H878 H 0.55909 0.09407 0.68973 0.0
H879 H 0.56841 0.1007 0.57512 0.0
Ho880 Ho 0.19821 1.00197 0.55015 0.0
Ho881 Ho 0.17148 0.03454 0.44522 0.0
C882 C 0.14538 0.99659 0.55581 0.0
C883 C 0.21972 0.99951 0.65764 0.0
C884 C 0.21266 1.00437 0.7265 0.0
C885 C 0.20383 0.03792 0.74811 0.0
C886 C 0.19717 0.04264 0.81245 0.0
C887 C 0.20024 0.01463 0.8582 0.0
C888 C 0.20917 0.98105 0.83694 0.0
C889 C 0.2151 0.97587 0.77178 0.0
C890 C 0.17997 0.94971 0.47627 0.0
C891 C 0.22105 0.02233 0.41351 0.0
C892 C 0.15679 0.04867 0.33028 0.0
C893 C 0.16471 0.04429 0.26268 0.0
C894 C 0.17908 0.0159 0.24476 0.0
C895 C 0.18521 0.01117 0.17972 0.0
C896 C 0.17707 0.03459 0.13142 0.0
C897 C 0.16283 0.06297 0.14959 0.0
C898 C 0.15687 0.06792 0.2145 0.0
C899 C 0.17565 0.07847 0.55418 0.0
O900 O 0.16401 0.99668 0.58798 0.0
O901 O 0.14419 0.0065 0.49499 0.0
O902 O 0.21318 0.96999 0.62728 0.0
O903 O 0.2188 0.0286 0.62077 0.0
O904 O 0.18248 0.94739 0.53854 0.0
O905 O 0.18791 0.97997 0.4559 0.0
O906 O 0.20465 0.04494 0.4082 0.0
O907 O 0.22255 1.00065 0.46539 0.0
O908 O 0.16648 0.07322 0.36643 0.0
O909 O 0.15259 0.01837 0.36187 0.0
O910 O 0.15843 0.07701 0.51795 0.0
O911 O 0.18996 0.0588 0.5271 0.0
H912 H 0.20235 0.06086 0.71546 0.0
H913 H 0.19028 0.06871 0.82716 0.0
H914 H 0.21164 0.95885 0.87094 0.0
H915 H 0.22196 0.94979 0.75706 0.0
H916 H 0.18535 0.99715 0.28083 0.0
H917 H 0.19598 0.98883 0.16675 0.0
H918 H 0.15635 0.0814 0.11334 0.0
H919 H 0.14581 0.08995 0.227 0.0
Ho920 Ho 0.5233 0.7516 0.53538 0.0
Ho921 Ho 0.5495 0.72324 0.43534 0.0
C922 C 0.57627 0.74612 0.55185 0.0
C923 C 0.50801 0.76079 0.64987 0.0
C924 C 0.517 0.75259 0.71441 0.0
C925 C 0.50907 0.72283 0.75037 0.0
C926 C 0.51585 0.71749 0.81407 0.0
C927 C 0.53134 0.74105 0.8416 0.0
C928 C 0.54061 0.76898 0.80418 0.0
C929 C 0.53329 0.77509 0.74142 0.0
C930 C 0.5357 0.80719 0.45816 0.0
C931 C 0.50045 0.73188 0.40385 0.0
C932 C 0.55637 0.72016 0.3141 0.0
C933 C 0.5603 0.71842 0.24474 0.0
C934 C 0.56712 0.75028 0.21257 0.0
C935 C 0.56387 0.75394 0.14619 0.0
C936 C 0.55322 0.72608 0.11168 0.0
C937 C 0.54705 0.69364 0.14344 0.0
C938 C 0.55074 0.68973 0.20962 0.0
C939 C 0.54136 0.67053 0.52574 0.0
O940 O 0.55677 0.74633 0.57874 0.0
O941 O 0.57875 0.74118 0.48927 0.0
O942 O 0.51797 0.78648 0.61751 0.0
O943 O 0.50223 0.73311 0.61331 0.0
O944 O 0.51676 0.80429 0.48523 0.0
O945 O 0.54765 0.78033 0.47506 0.0
O946 O 0.51607 0.70779 0.40538 0.0
O947 O 0.49801 0.75316 0.45502 0.0
O948 O 0.56619 0.69782 0.35466 0.0
O949 O 0.54428 0.74573 0.33996 0.0
O950 O 0.55944 0.67432 0.49329 0.0
O951 O 0.52769 0.69416 0.50477 0.0
H952 H 0.49717 0.70434 0.72981 0.0
H953 H 0.50881 0.69538 0.8422 0.0
H954 H 0.55281 0.78705 0.82464 0.0
H955 H 0.54014 0.7979 0.7147 0.0
H956 H 0.57388 0.77309 0.23928 0.0
H957 H 0.56869 0.77914 0.12231 0.0
H958 H 0.53877 0.67193 0.11737 0.0
H959 H 0.54456 0.66558 0.23414 0.0
Ho960 Ho 0.80429 0.78144 0.18086 0.0
Ho961 Ho 0.77371 0.7556 0.28728 0.0
C962 C 0.75366 0.76664 0.14699 0.0
C963 C 0.82154 0.79805 0.06981 0.0
C964 C 0.81563 0.79454 1.00021 0.0
C965 C 0.80609 0.76248 0.97505 0.0
C966 C 0.80038 0.76013 0.90946 0.0
C967 C 0.80448 0.78959 0.86702 0.0
C968 C 0.81449 0.82133 0.892 0.0
C969 C 0.81962 0.82399 0.95798 0.0
C970 C 0.79863 0.83046 0.28106 0.0
C971 C 0.82659 0.74754 0.30055 0.0
C972 C 0.75698 0.75027 0.40195 0.0
C973 C 0.7649 0.75683 0.46866 0.0
C974 C 0.78122 0.78281 0.48191 0.0
C975 C 0.78854 0.78838 0.54543 0.0
C976 C 0.77968 0.76797 0.59676 0.0
C977 C 0.7638 0.74136 0.58324 0.0
C978 C 0.75657 0.73574 0.51974 0.0
C979 C 0.78198 0.70142 0.20075 0.0
O980 O 0.77381 0.77148 0.12913 0.0
O981 O 0.74799 0.76405 0.20903 0.0
O982 O 0.80976 0.82082 0.10393 0.0
O983 O 0.82611 0.76796 0.10171 0.0
O984 O 0.81594 0.82757 0.24565 0.0
O985 O 0.78422 0.80991 0.2555 0.0
O986 O 0.80766 0.75387 0.32905 0.0
O987 O 0.82916 0.75258 0.23809 0.0
O988 O 0.76599 0.72278 0.37143 0.0
O989 O 0.7543 0.77903 0.36469 0.0
O990 O 0.76426 0.70449 0.23454 0.0
O991 O 0.79547 0.72583 0.21941 0.0
H992 H 0.80322 0.73914 1.00589 0.0
H993 H 0.79294 0.73513 0.89157 0.0
H994 H 0.81816 0.84423 0.86042 0.0
H995 H 0.82695 0.84906 0.97598 0.0
H996 H 0.78832 0.79861 0.44317 0.0
H997 H 0.80095 0.8088 0.55476 0.0
H998 H 0.757 0.72495 0.62193 0.0
H999 H 0.74434 0.71499 0.51056 0.0
Ho1000 Ho 0.41533 0.47348 0.18851 0.0
Ho1001 Ho 0.4467 0.505 0.29388 0.0
C1002 C 0.46593 0.49247 0.15186 0.0
C1003 C 0.40067 0.45348 0.07717 0.0
C1004 C 0.40761 0.4619 1.00963 0.0
C1005 C 0.39616 0.48786 0.97255 0.0
C1006 C 0.40203 0.49479 0.9082 0.0
C1007 C 0.4195 0.47601 0.87969 0.0
C1008 C 0.43139 0.45088 0.91686 0.0
C1009 C 0.4255 0.44383 0.98113 0.0
C1010 C 0.42301 0.42911 0.29428 0.0
C1011 C 0.39274 0.51663 0.29645 0.0
C1012 C 0.46294 0.50489 0.40929 0.0
C1013 C 0.45388 0.5004 0.4758 0.0
C1014 C 0.45758 0.46789 0.51072 0.0
C1015 C 0.45105 0.46489 0.57552 0.0
C1016 C 0.44025 0.49406 0.60649 0.0
C1017 C 0.43531 0.52566 0.57052 0.0
C1018 C 0.4423 0.52903 0.50625 0.0
C1019 C 0.43497 0.56105 0.21798 0.0
O1020 O 0.44603 0.48375 0.13534 0.0
O1021 O 0.47183 0.49897 0.21308 0.0
O1022 O 0.41384 0.43321 0.11178 0.0
O1023 O 0.39212 0.4805 0.11065 0.0
O1024 O 0.40466 0.43107 0.26356 0.0
O1025 O 0.43647 0.44958 0.26475 0.0
O1026 O 0.4117 0.51452 0.32766 0.0
O1027 O 0.39061 0.50773 0.23538 0.0
O1028 O 0.45761 0.53475 0.37816 0.0
O1029 O 0.46317 0.47595 0.37157 0.0
O1030 O 0.44968 0.5635 0.26303 0.0
O1031 O 0.42902 0.52765 0.21242 0.0
H1032 H 0.38244 0.50247 0.993 0.0
H1033 H 0.39273 0.5144 0.88026 0.0
H1034 H 0.44493 0.43614 0.89562 0.0
H1035 H 0.43483 0.42383 1.00809 0.0
H1036 H 0.46608 0.44509 0.48844 0.0
H1037 H 0.45468 0.43993 0.60182 0.0
H1038 H 0.42663 0.54822 0.59295 0.0
H1039 H 0.43888 0.55436 0.48087 0.0
Ho1040 Ho 0.80406 0.47189 0.1183 0.0
Ho1041 Ho 0.77696 0.50137 1.01335 0.0
C1042 C 0.7547 0.49359 0.1523 0.0
C1043 C 0.81843 0.44885 0.22896 0.0
C1044 C 0.81297 0.45518 0.29778 0.0
C1045 C 0.79649 0.47979 0.31654 0.0
C1046 C 0.79131 0.4847 0.38188 0.0
C1047 C 0.80248 0.46496 0.42951 0.0
C1048 C 0.81882 0.44018 0.41105 0.0
C1049 C 0.82398 0.4353 0.34563 0.0
C1050 C 0.79722 0.42371 1.0165 0.0
C1051 C 0.83075 0.50742 1.0094 0.0
C1052 C 0.76114 0.50652 0.89772 0.0
C1053 C 0.76915 0.49988 0.83099 0.0
C1054 C 0.77582 0.46481 0.81029 0.0
C1055 C 0.7825 0.45893 0.74635 0.0
C1056 C 0.78178 0.48768 0.7011 0.0
C1057 C 0.77532 0.52278 0.7219 0.0
C1058 C 0.76951 0.52892 0.78646 0.0
C1059 C 0.78467 0.55476 0.0996 0.0
O1060 O 0.77454 0.48798 0.17151 0.0
O1061 O 0.74993 0.49606 0.08961 0.0
O1062 O 0.80372 0.43161 0.19502 0.0
O1063 O 0.82709 0.47632 0.19732 0.0
O1064 O 0.81516 0.42704 0.04876 0.0
O1065 O 0.78342 0.44496 0.04285 0.0
O1066 O 0.81201 0.50618 0.97737 0.0
O1067 O 0.83176 0.4995 0.07115 0.0
O1068 O 0.76965 0.5343 0.92869 0.0
O1069 O 0.75854 0.47781 0.93489 0.0
O1070 O 0.76718 0.55185 0.06473 0.0
O1071 O 0.7983 0.52977 0.08397 0.0
H1072 H 0.7875 0.49518 0.28127 0.0
H1073 H 0.77867 0.50396 0.39535 0.0
H1074 H 0.82752 0.42461 0.4473 0.0
H1075 H 0.83655 0.41588 0.33236 0.0
H1076 H 0.77558 0.4418 0.84314 0.0
H1077 H 0.78755 0.43167 0.7316 0.0
H1078 H 0.77469 0.54541 0.68801 0.0
H1079 H 0.76464 0.55627 0.80122 0.0
Ho1080 Ho 0.42129 0.78375 0.11058 0.0
Ho1081 Ho 0.45065 0.74736 1.00164 0.0
C1082 C 0.47049 0.7542 0.14393 0.0
C1083 C 0.40778 0.80662 0.22209 0.0
C1084 C 0.41333 0.79924 0.29048 0.0
C1085 C 0.42941 0.77357 0.30771 0.0
C1086 C 0.43505 0.76837 0.37264 0.0
C1087 C 0.42482 0.78893 0.42127 0.0
C1088 C 0.4087 0.81438 0.40431 0.0
C1089 C 0.40301 0.81947 0.3394 0.0
C1090 C 0.43152 0.82744 1.00655 0.0
C1091 C 0.39616 0.74821 0.9965 0.0
C1092 C 0.46921 0.74614 0.88873 0.0
C1093 C 0.46269 0.75461 0.82085 0.0
C1094 C 0.46179 0.79094 0.79797 0.0
C1095 C 0.45442 0.79853 0.7353 0.0
C1096 C 0.45007 0.77 0.69122 0.0
C1097 C 0.45199 0.73355 0.71332 0.0
C1098 C 0.45749 0.72603 0.77773 0.0
C1099 C 0.4355 0.69347 0.07707 0.0
O1100 O 0.45125 0.76617 0.16139 0.0
O1101 O 0.47581 0.7474 0.08248 0.0
O1102 O 0.4228 0.82337 0.18823 0.0
O1103 O 0.39823 0.78009 0.18981 0.0
O1104 O 0.41446 0.83137 0.04245 0.0
O1105 O 0.44354 0.80359 0.0333 0.0
O1106 O 0.41535 0.74332 0.96839 0.0
O1107 O 0.39372 0.76017 0.05622 0.0
O1108 O 0.46008 0.71749 0.91539 0.0
O1109 O 0.47099 0.77362 0.92938 0.0
O1110 O 0.44952 0.68854 0.03059 0.0
O1111 O 0.43169 0.72774 0.08342 0.0
H1112 H 0.43776 0.75768 0.27145 0.0
H1113 H 0.44743 0.74849 0.38505 0.0
H1114 H 0.40072 0.8306 0.44131 0.0
H1115 H 0.39072 0.83959 0.32731 0.0
H1116 H 0.46614 0.81369 0.82913 0.0
H1117 H 0.4528 0.8269 0.72053 0.0
H1118 H 0.44884 0.71077 0.68089 0.0
H1119 H 0.45832 0.69766 0.79325 0.0
Ho1120 Ho 0.19778 0.25868 0.76133 0.0
Ho1121 Ho 0.17013 0.23477 0.86479 0.0
C1122 C 0.14504 0.25095 0.74227 0.0
C1123 C 0.21386 0.27122 0.64752 0.0
C1124 C 0.2064 0.26327 0.58059 0.0
C1125 C 0.21767 0.23781 0.54209 0.0
C1126 C 0.21175 0.23206 0.47747 0.0
C1127 C 0.1945 0.25182 0.45014 0.0
C1128 C 0.18261 0.27618 0.48903 0.0
C1129 C 0.18849 0.2819 0.55361 0.0
C1130 C 0.18774 0.31599 0.83769 0.0
C1131 C 0.21818 0.25416 0.90116 0.0
C1132 C 0.15619 0.21623 0.97828 0.0
C1133 C 0.16303 0.22423 0.04593 0.0
C1134 C 0.15452 0.25445 0.08014 0.0
C1135 C 0.16012 0.2604 0.14503 0.0
C1136 C 0.17439 0.23637 0.1768 0.0
C1137 C 0.18332 0.20675 0.14248 0.0
C1138 C 0.17766 0.20066 0.07786 0.0
C1139 C 0.17962 0.18003 0.77727 0.0
O1140 O 0.16464 0.24818 0.71632 0.0
O1141 O 0.14215 0.25115 0.80515 0.0
O1142 O 0.21971 0.24344 0.68321 0.0
O1143 O 0.20255 0.29512 0.68021 0.0
O1144 O 0.2068 0.30868 0.8147 0.0
O1145 O 0.17437 0.29089 0.82122 0.0
O1146 O 0.19794 0.2573 0.91799 0.0
O1147 O 0.2236 0.24954 0.8394 0.0
O1148 O 0.16963 0.19639 0.94405 0.0
O1149 O 0.14752 0.24286 0.94448 0.0
O1150 O 0.1612 0.18595 0.80536 0.0
O1151 O 0.1931 0.20336 0.79907 0.0
H1152 H 0.23149 0.22311 0.56147 0.0
H1153 H 0.22089 0.21271 0.44839 0.0
H1154 H 0.16911 0.2914 0.46888 0.0
H1155 H 0.17922 0.30146 0.58187 0.0
H1156 H 0.14325 0.27315 0.05717 0.0
H1157 H 0.15306 0.28341 0.17082 0.0
H1158 H 0.19427 0.18782 0.16626 0.0
H1159 H 0.18452 0.17705 0.0533 0.0
Ho1160 Ho 0.52452 0.50472 0.76103 0.0
Ho1161 Ho 0.55191 0.53548 0.86793 0.0
C1162 C 0.57797 0.50856 0.74984 0.0
C1163 C 0.50754 0.49722 0.6471 0.0
C1164 C 0.51448 0.50333 0.57936 0.0
C1165 C 0.52479 0.53602 0.56013 0.0
C1166 C 0.53058 0.54157 0.49536 0.0
C1167 C 0.52597 0.51469 0.44859 0.0
C1168 C 0.51592 0.48183 0.4679 0.0
C1169 C 0.51046 0.47609 0.53284 0.0
C1170 C 0.53638 0.45113 0.84332 0.0
C1171 C 0.50359 0.50999 0.90185 0.0
C1172 C 0.5651 0.55833 0.97995 0.0
C1173 C 0.55977 0.54993 0.04817 0.0
C1174 C 0.54402 0.5235 0.06479 0.0
C1175 C 0.53827 0.51766 0.1294 0.0
C1176 C 0.54816 0.53821 0.17857 0.0
C1177 C 0.56384 0.56466 0.16232 0.0
C1178 C 0.56954 0.57054 0.09756 0.0
C1179 C 0.54315 0.58406 0.76918 0.0
O1180 O 0.55881 0.50976 0.72027 0.0
O1181 O 0.57961 0.51291 0.81282 0.0
O1182 O 0.51714 0.47049 0.67784 0.0
O1183 O 0.50494 0.52631 0.68344 0.0
O1184 O 0.51846 0.45135 0.81021 0.0
O1185 O 0.54818 0.47852 0.82762 0.0
O1186 O 0.52373 0.51279 0.91977 0.0
O1187 O 0.49818 0.51067 0.83946 0.0
O1188 O 0.5495 0.57387 0.9471 0.0
O1189 O 0.57535 0.53312 0.94644 0.0
O1190 O 0.56047 0.58399 0.8045 0.0
O1191 O 0.53022 0.56069 0.794 0.0
H1192 H 0.52819 0.55733 0.59501 0.0
H1193 H 0.53827 0.56707 0.4813 0.0
H1194 H 0.51229 0.46068 0.43263 0.0
H1195 H 0.50282 0.45047 0.5467 0.0
H1196 H 0.53595 0.50741 0.02846 0.0
H1197 H 0.52617 0.49708 0.14113 0.0
H1198 H 0.57153 0.58091 0.19977 0.0
H1199 H 0.58143 0.59148 0.08596 0.0
Ho1200 Ho 0.19773 0.51105 0.0497 0.0
Ho1201 Ho 0.16588 0.53848 0.93843 0.0
C1202 C 0.1451 0.50317 0.0614 0.0
C1203 C 0.2168 0.51044 0.16082 0.0
C1204 C 0.20876 0.51515 0.22802 0.0
C1205 C 0.19536 0.54476 0.24563 0.0
C1206 C 0.18796 0.5487 0.30931 0.0
C1207 C 0.19369 0.5228 0.35646 0.0
C1208 C 0.20639 0.49243 0.33862 0.0
C1209 C 0.21373 0.48853 0.27483 0.0
C1210 C 0.18558 0.45231 0.9791 0.0
C1211 C 0.21588 0.52596 0.90371 0.0
C1212 C 0.14793 0.54743 0.82649 0.0
C1213 C 0.15531 0.54442 0.75798 0.0
C1214 C 0.15885 0.50999 0.72878 0.0
C1215 C 0.16605 0.50745 0.66466 0.0
C1216 C 0.16871 0.53921 0.6269 0.0
C1217 C 0.16467 0.57364 0.65542 0.0
C1218 C 0.15837 0.57623 0.72047 0.0
C1219 C 0.17157 0.58551 0.04077 0.0
O1220 O 0.1638 0.50997 0.091 0.0
O1221 O 0.14251 0.50817 0.9989 0.0
O1222 O 0.20992 0.48084 0.13174 0.0
O1223 O 0.21697 0.53921 0.12256 0.0
O1224 O 0.19878 0.45073 0.02777 0.0
O1225 O 0.17964 0.48554 0.97117 0.0
O1226 O 0.19778 0.54321 0.89106 0.0
O1227 O 0.22108 0.51377 0.96291 0.0
O1228 O 0.15598 0.57457 0.86057 0.0
O1229 O 0.14653 0.51692 0.85984 0.0
O1230 O 0.15451 0.58484 1.00351 0.0
O1231 O 0.18555 0.56408 1.01558 0.0
H1232 H 0.1905 0.56466 0.2102 0.0
H1233 H 0.17797 0.57214 0.322 0.0
H1234 H 0.2108 0.47197 0.37424 0.0
H1235 H 0.22363 0.46496 0.26225 0.0
H1236 H 0.1559 0.48487 0.75528 0.0
H1237 H 0.16889 0.48057 0.64377 0.0
H1238 H 0.16643 0.59854 0.62727 0.0
H1239 H 0.15556 0.60316 0.74117 0.0
Ho1240 Ho 0.52598 0.25464 0.04421 0.0
Ho1241 Ho 0.5551 0.22375 0.9363 0.0
C1242 C 0.57933 0.2647 0.04343 0.0
C1243 C 0.51028 0.25399 0.15973 0.0
C1244 C 0.52019 0.24779 0.22419 0.0
C1245 C 0.5166 0.21462 0.25713 0.0
C1246 C 0.5232 0.21058 0.32144 0.0
C1247 C 0.53445 0.23902 0.35289 0.0
C1248 C 0.54011 0.2706 0.31781 0.0
C1249 C 0.53264 0.27532 0.25456 0.0
C1250 C 0.53801 0.31281 0.9724 0.0
C1251 C 0.50533 0.24864 0.90487 0.0
C1252 C 0.56861 0.20045 0.82562 0.0
C1253 C 0.56283 0.2088 0.75748 0.0
C1254 C 0.5741 0.23601 0.72259 0.0
C1255 C 0.56926 0.24248 0.65748 0.0
C1256 C 0.55308 0.22193 0.62627 0.0
C1257 C 0.5414 0.19547 0.66113 0.0
C1258 C 0.54628 0.18885 0.72606 0.0
C1259 C 0.54811 0.1778 0.0406 0.0
O1260 O 0.56105 0.26032 0.07716 0.0
O1261 O 0.58072 0.25677 0.98173 0.0
O1262 O 0.5159 0.28406 0.12967 0.0
O1263 O 0.50896 0.22569 0.12079 0.0
O1264 O 0.52352 0.31374 1.01818 0.0
O1265 O 0.54348 0.27941 0.9623 0.0
O1266 O 0.52507 0.24092 0.88508 0.0
O1267 O 0.5 0.25124 0.96707 0.0
O1268 O 0.55371 0.1836 0.8598 0.0
O1269 O 0.57876 0.22604 0.85863 0.0
O1270 O 0.5661 0.18018 1.0081 0.0
O1271 O 0.53453 0.19892 1.01319 0.0
H1272 H 0.50774 0.19243 0.23421 0.0
H1273 H 0.51918 0.18554 0.34706 0.0
H1274 H 0.54931 0.29242 0.34067 0.0
H1275 H 0.53626 0.3009 0.23014 0.0
H1276 H 0.58687 0.25194 0.74525 0.0
H1277 H 0.57834 0.26312 0.63113 0.0
H1278 H 0.52882 0.17946 0.63767 0.0
H1279 H 0.53726 0.1677 0.75131 0.0
C1280 C 0.23337 0.22565 0.9989 0.0
C1281 C 0.23327 0.25643 0.95684 0.0
C1282 C 0.23885 0.29734 0.05012 0.0
C1283 C 0.24011 0.2666 0.092 0.0
N1284 N 0.23746 0.20149 0.10776 0.0
N1285 N 0.23972 0.32051 0.93981 0.0
C1286 C 0.23691 0.23071 0.06665 0.0
C1287 C 0.23728 0.29198 0.98194 0.0
N1288 N 0.22891 0.19173 0.97369 0.0
N1289 N 0.23916 0.33176 0.07652 0.0
H1290 H 0.23963 0.31632 0.88988 0.0
H1291 H 0.24399 0.34707 0.95355 0.0
H1292 H 0.23989 0.33586 0.12651 0.0
H1293 H 0.23679 0.35575 0.05018 0.0
H1294 H 0.2262 0.16828 1.00115 0.0
H1295 H 0.22756 0.18735 0.92391 0.0
H1296 H 0.23831 0.17418 0.09314 0.0
H1297 H 0.2365 0.20509 0.15761 0.0
C1298 C -0.00795 0.03612 0.99428 0.0
C1299 C -0.00892 0.00609 0.95019 0.0
C1300 C 0.9843 0.96452 0.04209 0.0
C1301 C 0.98372 0.99459 0.08585 0.0
N1302 N -0.01248 0.05944 0.10369 0.0
N1303 N 0.98132 0.94376 0.93078 0.0
C1304 C -0.01214 0.03054 0.06181 0.0
C1305 C 0.98577 0.97086 0.97405 0.0
N1306 N -0.00208 0.06989 0.97125 0.0
N1307 N 0.98326 0.92968 0.06632 0.0
H1308 H 0.97992 0.94994 0.88182 0.0
H1309 H 0.97621 0.91747 0.94346 0.0
H1310 H 0.98247 0.92467 0.11601 0.0
H1311 H 0.98525 0.90614 0.03829 0.0
H1312 H 0.0018 0.09226 1.0004 0.0
H1313 H -0.00051 0.07511 0.9218 0.0
H1314 H -0.01281 0.08688 0.08967 0.0
H1315 H -0.01228 0.05547 0.15343 0.0
C1316 C 0.23637 0.98114 0.32481 0.0
C1317 C 0.23329 0.01682 0.35077 0.0
C1318 C 0.23677 0.04231 0.24028 0.0
C1319 C 0.2384 0.00638 0.21426 0.0
N1320 N 0.23587 0.94142 0.23018 0.0
N1321 N 0.23729 0.08178 0.33544 0.0
C1322 C 0.23676 0.97583 0.25633 0.0
C1323 C 0.23537 0.04757 0.30874 0.0
N1324 N 0.24152 0.953 0.36514 0.0
N1325 N 0.23632 0.07134 0.19871 0.0
H1326 H 0.23775 0.08573 0.38547 0.0
H1327 H 0.24058 0.1055 0.30921 0.0
H1328 H 0.23662 0.06743 0.14881 0.0
H1329 H 0.23362 0.09843 0.21259 0.0
H1330 H 0.24663 0.92747 0.34843 0.0
H1331 H 0.24455 0.95725 0.41406 0.0
H1332 H 0.2327 0.91791 0.25732 0.0
H1333 H 0.23615 0.93718 0.18019 0.0
C1334 C 0.98443 0.22968 0.31139 0.0
C1335 C -0.01209 0.26256 0.3465 0.0
C1336 C 0.98341 0.29808 0.24557 0.0
C1337 C 0.98131 0.26495 0.20994 0.0
N1338 N 0.98285 0.19919 0.20676 0.0
N1339 N -0.00928 0.32824 0.34834 0.0
C1340 C 0.98281 0.23072 0.24254 0.0
C1341 C -0.01281 0.29686 0.31376 0.0
N1342 N 0.98295 0.19738 0.34471 0.0
N1343 N 0.9808 0.33075 0.21407 0.0
H1344 H -0.00895 0.32808 0.39871 0.0
H1345 H -0.00651 0.3539 0.32781 0.0
H1346 H 0.97936 0.33228 0.16383 0.0
H1347 H 0.97958 0.35603 0.23715 0.0
H1348 H 0.97909 0.17222 0.32376 0.0
H1349 H 0.98383 0.19657 0.39513 0.0
H1350 H 0.98497 0.17301 0.22577 0.0
H1351 H 0.9829 0.19986 0.15639 0.0
C1352 C 0.72455 0.71931 1.00778 0.0
C1353 C 0.73017 0.74432 0.95746 0.0
C1354 C 0.74302 0.7876 0.03923 0.0
C1355 C 0.73902 0.76216 0.0898 0.0
N1356 N 0.72843 0.70087 0.11993 0.0
N1357 N 0.75314 0.79413 0.92688 0.0
C1358 C 0.73038 0.72712 0.07345 0.0
C1359 C 0.74211 0.77586 0.97377 0.0
N1360 N 0.71301 0.68844 0.99253 0.0
N1361 N 0.74857 0.82288 0.05438 0.0
H1362 H 0.75286 0.78525 0.87887 0.0
H1363 H 0.76384 0.81545 0.93763 0.0
H1364 H 0.74893 0.83228 0.10215 0.0
H1365 H 0.75084 0.84318 1.01966 0.0
H1366 H 0.70577 0.6715 0.02693 0.0
H1367 H 0.71006 0.68079 0.94461 0.0
H1368 H 0.72528 0.67333 0.10985 0.0
H1369 H 0.73051 0.70687 0.16871 0.0
C1370 C 0.73478 0.96378 0.74964 0.0
C1371 C 0.7399 0.99399 0.70903 0.0
C1372 C 0.73408 0.03579 0.80183 0.0
C1373 C 0.72768 1.0059 0.842 0.0
N1374 N 0.7213 0.9409 0.8519 0.0
N1375 N 0.74124 0.05921 0.69355 0.0
C1376 C 0.72796 0.96975 0.81517 0.0
C1377 C 0.73838 0.03015 0.73437 0.0
N1378 N 0.73742 0.929 0.72588 0.0
N1379 N 0.73664 0.06968 0.82932 0.0
H1380 H 0.74462 0.05568 0.64453 0.0
H1381 H 0.73848 0.08644 0.70643 0.0
H1382 H 0.73477 0.07401 0.87895 0.0
H1383 H 0.7424 0.09262 0.80478 0.0
H1384 H 0.73703 0.90542 0.75421 0.0
H1385 H 0.74085 0.9239 0.67721 0.0
H1386 H 0.71739 0.91517 0.83325 0.0
H1387 H 0.71979 0.94298 0.9016 0.0
C1388 C -0.00348 0.77586 0.72812 0.0
C1389 C 0.9762 0.76034 0.71281 0.0
C1390 C 0.97353 0.73347 0.82326 0.0
C1391 C -0.00602 0.74869 0.83829 0.0
N1392 N 0.02448 0.78705 0.80782 0.0
N1393 N 0.9447 0.7249 0.7449 0.0
C1394 C 0.00533 0.77058 0.79128 0.0
C1395 C 0.96451 0.73941 0.76041 0.0
N1396 N 0.00732 0.7957 0.68195 0.0
N1397 N 0.96291 0.71319 0.86922 0.0
H1398 H 0.93723 0.7288 0.70055 0.0
H1399 H 0.93569 0.70739 0.77395 0.0
H1400 H 0.9691 0.70906 0.91553 0.0
H1401 H 0.94799 0.70033 0.86311 0.0
H1402 H 0.0224 0.80799 0.68801 0.0
H1403 H 0.00133 0.79939 0.63527 0.0
H1404 H 0.03215 0.8074 0.78109 0.0
H1405 H 0.03242 0.78232 0.85111 0.0
C1406 C 0.23885 0.77699 0.48622 0.0
C1407 C 0.23129 0.74254 0.46523 0.0
C1408 C 0.23472 0.72056 0.57846 0.0
C1409 C 0.23966 0.7568 0.59986 0.0
N1410 N 0.23997 0.82113 0.57375 0.0
N1411 N 0.22114 0.68076 0.49265 0.0
C1412 C 0.23927 0.78549 0.55336 0.0
C1413 C 0.22917 0.71399 0.51197 0.0
N1414 N 0.24687 0.80093 0.44202 0.0
N1415 N 0.23571 0.69223 0.62108 0.0
H1416 H 0.21857 0.6745 0.44392 0.0
H1417 H 0.21628 0.66021 0.52454 0.0
H1418 H 0.23699 0.69669 0.67049 0.0
H1419 H 0.23535 0.66476 0.60725 0.0
H1420 H 0.25406 0.8258 0.455 0.0
H1421 H 0.24877 0.79315 0.39374 0.0
H1422 H 0.23838 0.84325 0.54225 0.0
H1423 H 0.23989 0.82803 0.62282 0.0
C1424 C 0.98623 0.47394 0.55182 0.0
C1425 C 0.9818 0.50311 0.59536 0.0
C1426 C 0.98521 0.54693 0.50459 0.0
C1427 C -0.01152 0.5174 0.46072 0.0
N1428 N -0.01344 0.45269 0.44057 0.0
N1429 N 0.97566 0.56758 0.61266 0.0
C1430 C -0.01274 0.48083 0.48397 0.0
C1431 C 0.98101 0.53972 0.57146 0.0
N1432 N -0.01062 0.43947 0.57602 0.0
N1433 N -0.01297 0.58209 0.48217 0.0
H1434 H 0.97494 0.56387 0.66256 0.0
H1435 H 0.97163 0.59393 0.59749 0.0
H1436 H -0.01142 0.58788 0.43291 0.0
H1437 H -0.01227 0.60518 0.51184 0.0
H1438 H -0.00556 0.41722 0.54811 0.0
H1439 H -0.01109 0.43419 0.62565 0.0
H1440 H 0.98434 0.42527 0.45319 0.0
H1441 H 0.9855 0.45778 0.39121 0.0
C1442 C 0.2262 0.48695 0.73371 0.0
C1443 C 0.24538 0.50569 0.71627 0.0
C1444 C 0.24669 0.53514 0.82509 0.0
C1445 C 0.22793 0.51548 0.84337 0.0
N1446 N 0.19767 0.47678 0.81232 0.0
N1447 N 0.27536 0.54508 0.74724 0.0
C1448 C 0.21716 0.49243 0.79678 0.0
C1449 C 0.2559 0.52928 0.76248 0.0
N1450 N 0.21698 0.46328 0.69013 0.0
N1451 N 0.25526 0.56033 0.86716 0.0
H1452 H 0.28355 0.54003 0.70438 0.0
H1453 H 0.28408 0.56259 0.77716 0.0
H1454 H 0.24968 0.5634 0.91451 0.0
H1455 H 0.26703 0.57965 0.85519 0.0
H1456 H 0.20409 0.4457 0.69979 0.0
H1457 H 0.22272 0.46031 0.64294 0.0
H1458 H 0.18896 0.459 0.78296 0.0
H1459 H 0.18969 0.48146 0.85567 0.0
C1460 C 0.74374 0.21882 0.55166 0.0
C1461 C 0.74064 0.25039 0.59145 0.0
C1462 C 0.71983 0.27756 0.50352 0.0
C1463 C 0.72699 0.25001 0.45902 0.0
N1464 N 0.74741 0.19454 0.44258 0.0
N1465 N 0.73012 0.31421 0.59563 0.0
C1466 C 0.73964 0.22077 0.48372 0.0
C1467 C 0.73005 0.28116 0.56455 0.0
N1468 N 0.75013 0.18667 0.57943 0.0
N1469 N 0.7018 0.29795 0.49118 0.0
H1470 H 0.73756 0.31813 0.64041 0.0
H1471 H 0.72394 0.33796 0.57425 0.0
H1472 H 0.69205 0.29318 0.45117 0.0
H1473 H 0.69521 0.31612 0.52499 0.0
H1474 H 0.75139 0.16197 0.55423 0.0
H1475 H 0.7515 0.18411 0.6294 0.0
H1476 H 0.7583 0.17422 0.45692 0.0
H1477 H 0.74457 0.1955 0.39283 0.0
C1478 C 0.73476 0.47909 0.32009 0.0
C1479 C 0.7329 0.51592 0.34242 0.0
C1480 C 0.73801 0.53759 0.23007 0.0
C1481 C 0.73958 0.50091 0.20761 0.0
N1482 N 0.73565 0.4367 0.22851 0.0
N1483 N 0.73883 0.57991 0.32125 0.0
C1484 C 0.73662 0.47172 0.25215 0.0
C1485 C 0.73639 0.54504 0.2978 0.0
N1486 N 0.73646 0.45138 0.364 0.0
N1487 N 0.73733 0.56527 0.18584 0.0
H1488 H 0.73855 0.58554 0.3708 0.0
H1489 H 0.74329 0.60233 0.293 0.0
H1490 H 0.73618 0.55966 0.13655 0.0
H1491 H 0.73501 0.59281 0.1975 0.0
H1492 H 0.73942 0.42415 0.35166 0.0
H1493 H 0.73809 0.45647 0.41323 0.0
H1494 H 0.73174 0.41381 0.25628 0.0
H1495 H 0.73683 0.43123 0.179 0.0
C1496 C 0.48276 0.04045 0.56955 0.0
C1497 C 0.48372 1.00477 0.5979 0.0
C1498 C 0.48871 0.97851 0.48839 0.0
C1499 C 0.48981 0.01413 0.46149 0.0
N1500 N 0.48861 0.0794 0.47557 0.0
N1501 N 0.49186 0.9406 0.58442 0.0
C1502 C 0.48665 0.04512 0.50194 0.0
C1503 C 0.48799 0.97409 0.55693 0.0
N1504 N 0.47763 0.07006 0.60654 0.0
N1505 N 0.489 0.94881 0.44806 0.0
H1506 H 0.49296 0.93721 0.63445 0.0
H1507 H 0.49579 0.91708 0.55835 0.0
H1508 H 0.49061 0.95158 0.39815 0.0
H1509 H 0.486 0.92201 0.46313 0.0
H1510 H 0.47273 0.09509 0.58732 0.0
H1511 H 0.47845 0.0695 0.65644 0.0
H1512 H 0.48995 0.10343 0.50263 0.0
H1513 H 0.48984 0.08343 0.42568 0.0
C1514 C 0.47005 0.23489 0.75843 0.0
C1515 C 0.47864 0.26349 0.71825 0.0
C1516 C 0.49409 0.29052 0.81696 0.0
C1517 C 0.49034 0.25747 0.85123 0.0
N1518 N 0.47533 0.19665 0.85285 0.0
N1519 N 0.49851 0.32041 0.713 0.0
C1520 C 0.47867 0.22901 0.82114 0.0
C1521 C 0.49075 0.29178 0.74874 0.0
N1522 N 0.45182 0.21635 0.74077 0.0
N1523 N 0.49982 0.32119 0.85062 0.0
H1524 H 0.49571 0.32268 0.66343 0.0
H1525 H 0.50888 0.34034 0.73176 0.0
H1526 H 0.50099 0.32088 0.9009 0.0
H1527 H 0.50072 0.34723 0.82996 0.0
H1528 H 0.44406 0.19739 0.77069 0.0
H1529 H 0.44294 0.22331 0.70012 0.0
H1530 H 0.46843 0.17375 0.83063 0.0
H1531 H 0.48028 0.19254 0.90056 0.0
C1532 C 0.48964 0.77859 0.24008 0.0
C1533 C 0.48491 0.74761 0.20084 0.0
C1534 C 0.48563 0.70831 0.29797 0.0
C1535 C 0.49064 0.73916 0.33783 0.0
N1536 N 0.49679 0.80456 0.34551 0.0
N1537 N 0.48269 0.68232 0.18952 0.0
C1538 C 0.49251 0.77452 0.30835 0.0
C1539 C 0.48445 0.71222 0.22911 0.0
N1540 N 0.48972 0.81257 0.2119 0.0
N1541 N 0.4809 0.67549 0.32677 0.0
H1542 H 0.48205 0.68491 0.1393 0.0
H1543 H 0.48389 0.65528 0.20539 0.0
H1544 H 0.48054 0.67237 0.37694 0.0
H1545 H 0.47525 0.65252 0.30193 0.0
H1546 H 0.49001 0.83726 0.23727 0.0
H1547 H 0.48887 0.81591 0.16181 0.0
H1548 H 0.50313 0.82904 0.32762 0.0
H1549 H 0.49259 0.80557 0.39402 0.0
C1550 C 0.4847 0.53614 0.99738 0.0
C1551 C 0.48855 0.50476 0.9581 0.0
C1552 C 0.48325 0.46526 0.05418 0.0
C1553 C 0.48028 0.49681 0.0939 0.0
N1554 N 0.48116 0.56232 0.10561 0.0
N1555 N 0.49142 0.43936 0.94838 0.0
C1556 C 0.48199 0.5323 0.06596 0.0
C1557 C 0.48762 0.46927 0.98655 0.0
N1558 N 0.48362 0.56972 0.96817 0.0
N1559 N 0.481 0.43128 0.08149 0.0
H1560 H 0.49176 0.44147 0.89816 0.0
H1561 H 0.49415 0.41294 0.96566 0.0
H1562 H 0.47937 0.42773 0.13139 0.0
H1563 H 0.48026 0.40685 0.05547 0.0
H1564 H 0.47943 0.59393 0.99184 0.0
H1565 H 0.48523 0.57265 0.91814 0.0
H1566 H 0.48356 0.5892 0.09023 0.0
H1567 H 0.4798 0.55985 0.15571 0.0
C1568 C 0.35715 0.27175 0.47037 0.0
C1569 C 0.37666 0.25235 0.45685 0.0
C1570 C 0.36338 0.2348 0.34993 0.0
C1571 C 0.34389 0.25426 0.36266 0.0
N1572 N 0.32044 0.28628 0.4391 0.0
N1573 N 0.39489 0.20503 0.39606 0.0
C1574 C 0.34004 0.27043 0.4247 0.0
C1575 C 0.37878 0.23083 0.40014 0.0
N1576 N 0.35539 0.29344 0.52439 0.0
N1577 N 0.36717 0.21974 0.2904 0.0
H1578 H 0.40549 0.19952 0.43422 0.0
H1579 H 0.39622 0.18619 0.35835 0.0
H1580 H 0.3556 0.2189 0.25372 0.0
H1581 H 0.38226 0.20949 0.27642 0.0
H1582 H 0.34159 0.30792 0.53787 0.0
H1583 H 0.36812 0.29973 0.55529 0.0
H1584 H 0.31536 0.2929 0.48561 0.0
H1585 H 0.30852 0.29249 0.40543 0.0
C1586 C 0.86712 0.98788 0.46976 0.0
C1587 C 0.84713 1.00584 0.45702 0.0
C1588 C 0.85998 0.02339 0.34889 0.0
C1589 C 0.88017 0.0062 0.36194 0.0
N1590 N 0.90435 0.97713 0.43973 0.0
N1591 N 0.82688 0.04912 0.39263 0.0
C1592 C 0.8843 0.99076 0.42429 0.0
C1593 C 0.84426 0.02602 0.39889 0.0
N1594 N 0.86927 0.9653 0.52227 0.0
N1595 N 0.85575 0.03749 0.28897 0.0
H1596 H 0.8153 0.05266 0.42879 0.0
H1597 H 0.82502 0.06755 0.3546 0.0
H1598 H 0.86748 0.04015 0.25292 0.0
H1599 H 0.84026 0.0452 0.27405 0.0
H1600 H 0.88305 0.94992 0.53205 0.0
H1601 H 0.8568 0.95855 0.55392 0.0
H1602 H 0.90943 0.97285 0.48706 0.0
H1603 H 0.91641 0.97069 0.4065 0.0
C1604 C 0.37842 0.02343 0.91216 0.0
C1605 C 0.37869 0.99842 0.85899 0.0
C1606 C 0.34444 0.97134 0.89623 0.0
C1607 C 0.34426 0.99625 0.9494 0.0
N1608 N 0.3586 0.05027 1.0018 0.0
N1609 N 0.36361 0.94508 0.80536 0.0
C1610 C 0.36073 0.02315 0.95623 0.0
C1611 C 0.36197 0.97184 0.85169 0.0
N1612 N 0.39532 0.04726 0.92137 0.0
N1613 N 0.32758 0.94742 0.88744 0.0
H1614 H 0.37527 0.94503 0.76908 0.0
H1615 H 0.3542 0.92132 0.80464 0.0
H1616 H 0.31578 0.94274 0.92217 0.0
H1617 H 0.32456 0.93335 0.84453 0.0
H1618 H 0.39819 0.06123 0.96446 0.0
H1619 H 0.40726 0.05206 0.88703 0.0
H1620 H 0.3685 0.07342 1.00418 0.0
H1621 H 0.34573 0.05167 0.03448 0.0
C1622 C 0.84142 0.22931 0.911 0.0
C1623 C 0.84615 0.24493 0.8495 0.0
C1624 C 0.88433 0.23988 0.876 0.0
C1625 C 0.87919 0.23829 0.94287 0.0
N1626 N 0.85137 0.22491 1.02312 0.0
N1627 N 0.87404 0.26941 0.77739 0.0
C1628 C 0.85726 0.23125 0.9606 0.0
C1629 C 0.86817 0.25132 0.83246 0.0
N1630 N 0.82266 0.20992 0.9205 0.0
N1631 N 0.9041 0.22873 0.85348 0.0
H1632 H 0.86304 0.28204 0.74648 0.0
H1633 H 0.89023 0.27581 0.76731 0.0
H1634 H 0.91503 0.21435 0.88249 0.0
H1635 H 0.90793 0.22852 0.80439 0.0
H1636 H 0.81907 0.19626 0.96349 0.0
H1637 H 0.8123 0.2029 0.88255 0.0
H1638 H 0.8352 0.22606 0.03795 0.0
H1639 H 0.8623 0.2178 0.05929 0.0
C1640 C 0.61034 0.77772 0.59148 0.0
C1641 C 0.59489 0.74891 0.59629 0.0
C1642 C 0.60508 0.73848 0.70829 0.0
C1643 C 0.62337 0.76152 0.70013 0.0
N1644 N 0.6424 0.80692 0.63689 0.0
N1645 N 0.58227 0.69531 0.65313 0.0
C1646 C 0.62573 0.78231 0.6423 0.0
C1647 C 0.59374 0.72734 0.65292 0.0
N1648 N 0.6097 0.8015 0.54047 0.0
N1649 N 0.59816 0.72735 0.76791 0.0
H1650 H 0.57537 0.68501 0.61105 0.0
H1651 H 0.58227 0.67712 0.69203 0.0
H1652 H 0.60434 0.73765 0.81101 0.0
H1653 H 0.58391 0.71229 0.77436 0.0
H1654 H 0.6191 0.82523 0.53767 0.0
H1655 H 0.59876 0.79876 0.50236 0.0
H1656 H 0.6469 0.8193 0.59354 0.0
H1657 H 0.65202 0.81446 0.6763 0.0
C1658 C 0.10667 0.02676 0.67849 0.0
C1659 C 0.09758 0.99385 0.70213 0.0
C1660 C 0.1191 0.9596 0.62274 0.0
C1661 C 0.12518 0.99338 0.5939 0.0
N1662 N 0.11694 0.0576 0.58028 0.0
N1663 N 0.09362 0.92824 0.69399 0.0
C1664 C 0.11603 0.02643 0.6166 0.0
C1665 C 0.10326 0.95985 0.67322 0.0
N1666 N 0.10607 0.05829 0.71424 0.0
N1667 N 0.12841 0.92772 0.60195 0.0
H1668 H 0.08291 0.92781 0.7332 0.0
H1669 H 0.09558 0.90305 0.67077 0.0
H1670 H 0.13902 0.92697 0.56255 0.0
H1671 H 0.12619 0.90261 0.62511 0.0
H1672 H 0.11278 0.083 0.69843 0.0
H1673 H 0.10103 0.05862 0.76229 0.0
H1674 H 0.11095 0.08281 0.59613 0.0
H1675 H 0.12106 0.0568 0.53146 0.0
C1676 C 0.61284 0.04222 0.12175 0.0
C1677 C 0.61699 0.01044 0.08483 0.0
C1678 C 0.59734 0.97339 0.16366 0.0
C1679 C 0.59556 1.00486 0.20357 0.0
N1680 N 0.60792 0.06587 0.22955 0.0
N1681 N 0.6135 0.94547 0.0682 0.0
C1682 C 0.60532 0.03831 0.18552 0.0
C1683 C 0.60912 0.97582 0.10481 0.0
N1684 N 0.61559 0.07606 0.09496 0.0
N1685 N 0.5879 0.94135 0.18299 0.0
H1686 H 0.62093 0.94742 1.02289 0.0
H1687 H 0.61021 0.91871 0.08284 0.0
H1688 H 0.58168 0.93838 0.22963 0.0
H1689 H 0.58621 0.9183 0.15358 0.0
H1690 H 0.61176 0.10042 0.11903 0.0
H1691 H 0.61858 0.0789 0.04562 0.0
H1692 H 0.61658 0.08981 0.21939 0.0
H1693 H 0.60405 0.06234 0.27823 0.0
C1694 C 0.11237 0.78197 0.10304 0.0
C1695 C 0.09231 0.76404 0.11639 0.0
C1696 C 0.10531 0.74701 0.22464 0.0
C1697 C 0.12537 0.7643 0.21024 0.0
N1698 N 0.14523 0.80872 0.14758 0.0
N1699 N 0.06826 0.73548 0.19579 0.0
C1700 C 0.12807 0.78496 0.15288 0.0
C1701 C 0.08818 0.74935 0.17943 0.0
N1702 N 0.11649 0.79638 0.04329 0.0
N1703 N 0.103 0.72549 0.2786 0.0
H1704 H 0.05681 0.72574 0.16327 0.0
H1705 H 0.06296 0.73356 0.24337 0.0
H1706 H 0.11549 0.71835 0.30971 0.0
H1707 H 0.08885 0.71169 0.29128 0.0
H1708 H 0.13168 0.80607 0.02912 0.0
H1709 H 0.10508 0.79739 1.0064 0.0
H1710 H 0.14723 0.82711 0.10955 0.0
H1711 H 0.15628 0.81309 0.18507 0.0
C1712 C 0.36342 0.77771 0.85635 0.0
C1713 C 0.34955 0.74764 0.84527 0.0
C1714 C 0.36676 0.71493 0.9355 0.0
C1715 C 0.37719 0.74808 0.95311 0.0
N1716 N 0.37927 0.81358 0.9419 0.0
N1717 N 0.33952 0.68525 0.86835 0.0
C1718 C 0.37371 0.78031 0.9168 0.0
C1719 C 0.35164 0.71539 0.88331 0.0
N1720 N 0.3661 0.80423 0.81051 0.0
N1721 N 0.37144 0.6834 0.96827 0.0
H1722 H 0.33103 0.68346 0.82494 0.0
H1723 H 0.33815 0.66227 0.89798 0.0
H1724 H 0.3814 0.6833 1.00908 0.0
H1725 H 0.36606 0.6575 0.9541 0.0
H1726 H 0.37582 0.82725 0.81746 0.0
H1727 H 0.35932 0.80213 0.76448 0.0
H1728 H 0.38204 0.81641 0.99116 0.0
H1729 H 0.37796 0.83833 0.91706 0.0
C1730 C 0.86788 0.53874 0.87476 0.0
C1731 C 0.87871 0.50492 0.86425 0.0
C1732 C 0.86534 0.4818 0.96705 0.0
C1733 C 0.85102 0.51205 0.9717 0.0
N1734 N 0.83968 0.57136 0.93401 0.0
N1735 N 0.88141 0.44079 0.89018 0.0
C1736 C 0.85263 0.54127 0.92656 0.0
C1737 C 0.87582 0.47555 0.9078 0.0
N1738 N 0.87251 0.56831 0.83658 0.0
N1739 N 0.86828 0.45796 1.0172 0.0
H1740 H 0.88606 0.43486 0.84316 0.0
H1741 H 0.87781 0.41777 0.91816 0.0
H1742 H 0.86155 0.46177 0.06282 0.0
H1743 H 0.87975 0.43688 1.01549 0.0
H1744 H 0.86674 0.59468 0.84571 0.0
H1745 H 0.88316 0.56676 0.79736 0.0
H1746 H 0.8381 0.59192 0.89941 0.0
H1747 H 0.83026 0.57515 0.97544 0.0
C1748 C 0.35241 0.48214 0.41121 0.0
C1749 C 0.34639 0.51361 0.44623 0.0
C1750 C 0.36841 0.55106 0.37302 0.0
C1751 C 0.37276 0.51923 0.33585 0.0
N1752 N 0.36037 0.45823 0.30583 0.0
N1753 N 0.34449 0.5797 0.45179 0.0
C1754 C 0.36154 0.48624 0.34958 0.0
C1755 C 0.35315 0.54881 0.42476 0.0
N1756 N 0.35078 0.4483 0.43849 0.0
N1757 N 0.3784 0.58328 0.35762 0.0
H1758 H 0.3329 0.57854 0.48847 0.0
H1759 H 0.3475 0.60605 0.43442 0.0
H1760 H 0.38761 0.58595 0.31552 0.0
H1761 H 0.37775 0.60662 0.38675 0.0
H1762 H 0.35666 0.4247 0.41593 0.0
H1763 H 0.34738 0.44533 0.48742 0.0
H1764 H 0.35132 0.43448 0.31455 0.0
H1765 H 0.36592 0.46062 0.25849 0.0
C1766 C 0.86544 0.757 0.32903 0.0
C1767 C 0.84552 0.73937 0.34226 0.0
C1768 C 0.85792 0.72712 0.45307 0.0
C1769 C 0.87552 0.75166 0.44228 0.0
N1770 N 0.89171 0.7981 0.3736 0.0
N1771 N 0.8237 0.70267 0.41442 0.0
C1772 C 0.87799 0.76901 0.38132 0.0
C1773 C 0.84207 0.7228 0.40371 0.0
N1774 N 0.87281 0.76174 0.26734 0.0
N1775 N 0.85667 0.70705 0.50876 0.0
H1776 H 0.81362 0.69436 0.3768 0.0
H1777 H 0.81831 0.6948 0.46009 0.0
H1778 H 0.86742 0.71002 0.54709 0.0
H1779 H 0.84567 0.68568 0.5158 0.0
H1780 H 0.88788 0.77354 0.25719 0.0
H1781 H 0.8659 0.74854 0.22772 0.0
H1782 H 0.89239 0.81365 0.33131 0.0
H1783 H 0.9003 0.80934 0.41189 0.0
C1784 C 0.62311 0.23797 0.14916 0.0
C1785 C 0.62433 0.26788 0.19253 0.0
C1786 C 0.59933 0.30211 0.12402 0.0
C1787 C 0.59932 0.27233 0.07998 0.0
N1788 N 0.61879 0.21958 0.03838 0.0
N1789 N 0.61603 0.33091 0.21754 0.0
C1790 C 0.61421 0.24332 0.08765 0.0
C1791 C 0.61319 0.30095 0.17884 0.0
N1792 N 0.62826 0.20351 0.16914 0.0
N1793 N 0.58611 0.33132 0.11241 0.0
H1794 H 0.62555 0.32995 0.25901 0.0
H1795 H 0.60978 0.35679 0.20718 0.0
H1796 H 0.5782 0.33399 0.06812 0.0
H1797 H 0.58311 0.35222 0.14565 0.0
H1798 H 0.62667 0.18026 0.13996 0.0
H1799 H 0.62961 0.19789 0.21804 0.0
H1800 H 0.63057 0.19911 0.04256 0.0
H1801 H 0.61299 0.22324 0.99157 0.0
C1802 C 0.11253 0.4839 0.21228 0.0
C1803 C 0.09545 0.50933 0.20062 0.0
C1804 C 0.10603 0.51306 0.08758 0.0
C1805 C 0.12583 0.49542 0.10219 0.0
N1806 N 0.14672 0.45799 0.175 0.0
N1807 N 0.07963 0.55493 0.12963 0.0
C1808 C 0.12873 0.47896 0.1638 0.0
C1809 C 0.09332 0.52596 0.139 0.0
N1810 N 0.11272 0.46331 0.26748 0.0
N1811 N 0.09882 0.51662 1.02551 0.0
H1812 H 0.07094 0.56682 0.16722 0.0
H1813 H 0.07903 0.56967 0.08644 0.0
H1814 H 0.10583 0.50262 0.98685 0.0
H1815 H 0.08375 0.52812 1.01443 0.0
H1816 H 0.1237 0.44213 0.27585 0.0
H1817 H 0.10082 0.46529 0.30317 0.0
H1818 H 0.15159 0.44955 0.22083 0.0
H1819 H 0.15697 0.44944 0.1376 0.0
C1820 C 0.62603 0.5403 0.65853 0.0
C1821 C 0.627 0.51551 0.60607 0.0
C1822 C 0.59725 0.48043 0.655 0.0
C1823 C 0.59771 0.50453 0.70923 0.0
N1824 N 0.61979 0.5468 0.77234 0.0
N1825 N 0.61616 0.45731 0.56026 0.0
C1826 C 0.61459 0.53069 0.71472 0.0
C1827 C 0.61326 0.48417 0.60553 0.0
N1828 N 0.63509 0.57422 0.65322 0.0
N1829 N 0.58183 0.45351 0.6518 0.0
H1830 H 0.62795 0.45901 0.5244 0.0
H1831 H 0.60806 0.43219 0.56116 0.0
H1832 H 0.57183 0.4471 0.69098 0.0
H1833 H 0.57869 0.4382 0.61026 0.0
H1834 H 0.63358 0.59435 0.68883 0.0
H1835 H 0.64091 0.58345 0.60904 0.0
H1836 H 0.6331 0.56435 0.77729 0.0
H1837 H 0.61314 0.53898 0.81641 0.0
C1838 C 0.11531 0.28623 0.68857 0.0
C1839 C 0.12626 0.25249 0.69856 0.0
C1840 C 0.10883 0.22585 0.60374 0.0
C1841 C 0.0961 0.25797 0.59757 0.0
N1842 N 0.08601 0.31843 0.63442 0.0
N1843 N 0.12836 0.18741 0.67791 0.0
C1844 C 0.09895 0.28811 0.64028 0.0
C1845 C 0.12165 0.22151 0.65952 0.0
N1846 N 0.12099 0.31658 0.72371 0.0
N1847 N 0.10884 0.19948 0.55665 0.0
H1848 H 0.13584 0.18295 0.722 0.0
H1849 H 0.1238 0.16329 0.65436 0.0
H1850 H 0.10018 0.20193 0.51374 0.0
H1851 H 0.11945 0.17717 0.55682 0.0
H1852 H 0.11534 0.34291 0.71379 0.0
H1853 H 0.13239 0.31584 0.76097 0.0
H1854 H 0.08532 0.33938 0.66866 0.0
H1855 H 0.07523 0.32195 0.59601 0.0
C1856 C 0.29982 0.30072 0.69232 0.0
C1857 C 0.28629 0.27139 0.67108 0.0
C1858 C 0.28293 0.24956 0.78359 0.0
C1859 C 0.29726 0.27781 0.80425 0.0
N1860 N 0.32222 0.3266 0.77776 0.0
N1861 N 0.26715 0.21508 0.69483 0.0
C1862 C 0.30642 0.3025 0.75845 0.0
C1863 C 0.27859 0.24489 0.71627 0.0
N1864 N 0.3064 0.32694 0.64918 0.0
N1865 N 0.27271 0.22815 0.82871 0.0
H1866 H 0.26194 0.21206 0.64721 0.0
H1867 H 0.26386 0.19219 0.72329 0.0
H1868 H 0.27523 0.23103 0.87833 0.0
H1869 H 0.26051 0.20936 0.81782 0.0
H1870 H 0.31375 0.35155 0.66263 0.0
H1871 H 0.30352 0.3251 0.5996 0.0
H1872 H 0.33127 0.34271 0.74611 0.0
H1873 H 0.32764 0.32852 0.82541 0.0
C1874 C 0.94732 0.01677 0.7166 0.0
C1875 C 0.93802 0.99274 0.66961 0.0
C1876 C 0.91789 0.96058 0.75594 0.0
C1877 C 0.92678 0.98508 0.80258 0.0
N1878 N 0.94902 0.03751 0.82859 0.0
N1879 N 0.91201 0.94558 0.64291 0.0
C1880 C 0.94119 0.01355 0.78313 0.0
C1881 C 0.92275 0.96552 0.689 0.0
N1882 N 0.96255 0.04198 0.69779 0.0
N1883 N 0.90483 0.93231 0.7758 0.0
H1884 H 0.91524 0.94797 0.59368 0.0
H1885 H 0.89879 0.9286 0.65244 0.0
H1886 H 0.89922 0.92953 0.82313 0.0
H1887 H 0.90034 0.9104 0.74632 0.0
H1888 H 0.97177 0.05779 0.7294 0.0
H1889 H 0.96697 0.04615 0.64976 0.0
H1890 H 0.95745 0.06152 0.81798 0.0
H1891 H 0.94643 0.03421 0.87809 0.0
C1892 C 0.28089 0.95241 0.53407 0.0
C1893 C 0.29359 0.97935 0.50156 0.0
C1894 C 0.29786 0.01317 0.6039 0.0
C1895 C 0.28346 0.98826 0.63502 0.0
N1896 N 0.25882 0.93675 0.62726 0.0
N1897 N 0.31221 0.03772 0.5036 0.0
C1898 C 0.27442 0.95841 0.59953 0.0
C1899 C 0.30137 0.01053 0.53589 0.0
N1900 N 0.2751 0.92086 0.50255 0.0
N1901 N 0.30918 0.03818 0.64004 0.0
H1902 H 0.31664 0.03577 0.45505 0.0
H1903 H 0.31562 0.06327 0.5239 0.0
H1904 H 0.30772 0.04012 0.69018 0.0
H1905 H 0.32162 0.05449 0.62152 0.0
H1906 H 0.2688 0.89793 0.52608 0.0
H1907 H 0.27787 0.91654 0.45337 0.0
H1908 H 0.24981 0.91733 0.60177 0.0
H1909 H 0.25344 0.9402 0.67466 0.0
C1910 C 0.94327 0.30397 0.52219 0.0
C1911 C 0.92774 0.27971 0.49459 0.0
C1912 C 0.92154 0.25168 0.60113 0.0
C1913 C 0.93832 0.27379 0.62808 0.0
N1914 N 0.96683 0.31865 0.61262 0.0
N1915 N 0.90436 0.22694 0.50495 0.0
C1916 C 0.94959 0.29945 0.58817 0.0
C1917 C 0.91762 0.25246 0.53325 0.0
N1918 N 0.95179 0.33169 0.48538 0.0
N1919 N 0.90852 0.23132 0.64095 0.0
H1920 H 0.90035 0.2274 0.45597 0.0
H1921 H 0.89866 0.20368 0.52885 0.0
H1922 H 0.91047 0.23066 0.69094 0.0
H1923 H 0.89451 0.21794 0.62544 0.0
H1924 H 0.96111 0.35309 0.50399 0.0
H1925 H 0.94845 0.33464 0.43621 0.0
H1926 H 0.97735 0.33435 0.58453 0.0
H1927 H 0.97172 0.31695 0.66069 0.0
C1928 C 0.69077 0.70769 0.27463 0.0
C1929 C 0.67564 0.7322 0.24601 0.0
C1930 C 0.67026 0.7624 0.35119 0.0
C1931 C 0.68719 0.74071 0.37797 0.0
N1932 N 0.71567 0.69591 0.36281 0.0
N1933 N 0.65243 0.78536 0.2549 0.0
C1934 C 0.698 0.71415 0.33904 0.0
C1935 C 0.6659 0.76041 0.28365 0.0
N1936 N 0.69788 0.67771 0.24081 0.0
N1937 N 0.65758 0.78349 0.39091 0.0
H1938 H 0.64776 0.78368 0.20652 0.0
H1939 H 0.647 0.80912 0.27787 0.0
H1940 H 0.65987 0.78496 0.44082 0.0
H1941 H 0.64352 0.79675 0.37557 0.0
H1942 H 0.70693 0.65661 0.26141 0.0
H1943 H 0.69343 0.67248 0.19305 0.0
H1944 H 0.72578 0.67956 0.33443 0.0
H1945 H 0.7214 0.69946 0.40979 0.0
C1946 C 0.05275 1.00381 0.26948 0.0
C1947 C 0.04297 0.03228 0.23284 0.0
C1948 C 0.02089 0.04992 0.32677 0.0
C1949 C 0.0321 0.0236 0.36523 0.0
N1950 N 0.06202 0.98113 0.37593 0.0
N1951 N 0.0199 0.0858 0.22822 0.0
C1952 C 0.04883 1.00184 0.33723 0.0
C1953 C 0.0277 0.05636 0.26203 0.0
N1954 N 0.06597 0.97878 0.23975 0.0
N1955 N 0.00321 0.06796 0.35122 0.0
H1956 H 0.02333 0.09031 0.17948 0.0
H1957 H 0.01112 0.10712 0.24935 0.0
H1958 H -0.00255 0.06423 0.3981 0.0
H1959 H -0.00705 0.08425 0.3234 0.0
H1960 H 0.07127 0.95478 0.2621 0.0
H1961 H 0.07048 0.98056 0.19124 0.0
H1962 H 0.0759 0.9678 0.35924 0.0
H1963 H 0.06047 0.98025 0.42611 0.0
C1964 C 0.68998 0.02697 0.52726 0.0
C1965 C 0.66815 0.02886 0.54849 0.0
C1966 C 0.65647 0.02116 0.43496 0.0
C1967 C 0.67836 0.01453 0.41598 0.0
N1968 N 0.71401 0.99751 0.4521 0.0
N1969 N 0.63028 0.01947 0.52288 0.0
C1970 C 0.69455 0.01365 0.46442 0.0
C1971 C 0.65123 0.02361 0.50241 0.0
N1972 N 0.70648 0.03906 0.5658 0.0
N1973 N 0.64082 0.02631 0.38917 0.0
H1974 H 0.62585 0.02006 0.57157 0.0
H1975 H 0.61779 0.01157 0.49196 0.0
H1976 H 0.64415 0.02568 0.33971 0.0
H1977 H 0.62505 0.03453 0.40047 0.0
H1978 H 0.72233 0.04173 0.54852 0.0
H1979 H 0.70387 0.05042 0.61147 0.0
H1980 H 0.7253 0.99304 0.48868 0.0
H1981 H 0.71719 0.9841 0.4085 0.0
C1982 C 0.02279 0.71608 0.46708 0.0
C1983 C 0.0362 0.73438 0.42106 0.0
C1984 C 0.06323 0.74703 0.5065 0.0
C1985 C 0.04953 0.72961 0.55283 0.0
N1986 N 0.01712 0.695 0.57716 0.0
N1987 N 0.07063 0.76184 0.39389 0.0
C1988 C 0.02963 0.71324 0.53287 0.0
C1989 C 0.05678 0.74859 0.44012 0.0
N1990 N 0.00297 0.70281 0.44847 0.0
N1991 N 0.08259 0.76184 0.52605 0.0
H1992 H 0.0665 0.76351 0.34517 0.0
H1993 H 0.08675 0.76898 0.40222 0.0
H1994 H 0.08923 0.75731 0.5717 0.0
H1995 H 0.092 0.77942 0.49801 0.0
H1996 H -0.00866 0.69244 0.48001 0.0
H1997 H -0.00257 0.70346 0.40099 0.0
H1998 H 0.00506 0.67626 0.56481 0.0
H1999 H 0.0194 0.69718 0.62695 0.0
C2000 C 0.30006 0.79138 0.19579 0.0
C2001 C 0.28515 0.76362 0.17686 0.0
C2002 C 0.28102 0.7451 0.29082 0.0
C2003 C 0.29645 0.77233 0.30932 0.0
N2004 N 0.32447 0.81511 0.27788 0.0
N2005 N 0.2639 0.71027 0.20409 0.0
C2006 C 0.307 0.79379 0.26132 0.0
C2007 C 0.27648 0.73916 0.22378 0.0
N2008 N 0.30756 0.8157 0.1509 0.0
N2009 N 0.27009 0.72592 0.33746 0.0
H2010 H 0.25933 0.70619 0.15606 0.0
H2011 H 0.25904 0.68894 0.23421 0.0
H2012 H 0.27228 0.73043 0.38679 0.0
H2013 H 0.25777 0.70713 0.32802 0.0
H2014 H 0.31603 0.83952 0.16281 0.0
H2015 H 0.30411 0.81298 0.10184 0.0
H2016 H 0.33431 0.82849 0.24438 0.0
H2017 H 0.33058 0.81662 0.32482 0.0
C2018 C 0.91896 0.50422 0.26978 0.0
C2019 C 0.93028 0.47843 0.30889 0.0
C2020 C 0.95252 0.45991 0.21526 0.0
C2021 C 0.94117 0.48549 0.17595 0.0
N2022 N 0.91415 0.53283 0.16426 0.0
N2023 N 0.95492 0.42729 0.31734 0.0
C2024 C 0.9245 0.50786 0.20289 0.0
C2025 C 0.94626 0.45505 0.28114 0.0
N2026 N 0.90217 0.52384 0.29621 0.0
N2027 N 0.96997 0.44143 0.19025 0.0
H2028 H 0.95122 0.42337 0.36606 0.0
H2029 H 0.96478 0.40667 0.29862 0.0
H2030 H 0.97482 0.44359 0.14207 0.0
H2031 H 0.98075 0.42611 0.218 0.0
H2032 H 0.8919 0.54107 0.27044 0.0
H2033 H 0.89758 0.52172 0.34463 0.0
H2034 H 0.90347 0.55284 0.1808 0.0
H2035 H 0.91665 0.53434 0.11443 0.0
C2036 C 0.3113 0.50068 0.04359 0.0
C2037 C 0.29841 0.47868 1.00152 0.0
C2038 C 0.27445 0.46276 0.09355 0.0
C2039 C 0.28641 0.48721 0.13379 0.0
N2040 N 0.31451 0.53282 0.14599 0.0
N2041 N 0.26743 0.43913 0.98516 0.0
C2042 C 0.3043 0.50717 0.10835 0.0
C2043 C 0.27994 0.45959 1.02635 0.0
N2044 N 0.33101 0.51357 1.02285 0.0
N2045 N 0.25742 0.44353 0.11959 0.0
H2046 H 0.26976 0.43882 0.93526 0.0
H2047 H 0.25428 0.42311 0.99903 0.0
H2048 H 0.25262 0.44613 0.16776 0.0
H2049 H 0.24804 0.4244 0.09496 0.0
H2050 H 0.3422 0.52651 0.05293 0.0
H2051 H 0.33731 0.50808 0.97703 0.0
H2052 H 0.3256 0.55185 0.12792 0.0
H2053 H 0.31086 0.53683 0.19476 0.0
C2054 C 0.90768 0.76326 0.04523 0.0
C2055 C 0.92176 0.7812 1.00063 0.0
C2056 C 0.94614 0.79704 0.09086 0.0
C2057 C 0.93367 0.77481 0.1331 0.0
N2058 N 0.9043 0.73176 0.14799 0.0
N2059 N 0.95688 0.80835 0.98049 0.0
C2060 C 0.91497 0.75633 0.10949 0.0
C2061 C 0.9416 0.79649 1.02339 0.0
N2062 N 0.88694 0.75444 0.0274 0.0
N2063 N 0.96244 0.8186 0.11498 0.0
H2064 H 0.95514 0.80588 0.93053 0.0
H2065 H 0.97224 0.81682 0.99509 0.0
H2066 H 0.96702 0.81848 0.16352 0.0
H2067 H 0.97023 0.83882 0.08787 0.0
H2068 H 0.87537 0.74445 0.05974 0.0
H2069 H 0.88053 0.7609 0.98218 0.0
H2070 H 0.892 0.71461 0.13103 0.0
H2071 H 0.9089 0.72649 0.19562 0.0
C2072 C 0.66538 0.22649 0.79155 0.0
C2073 C 0.67494 0.25006 0.74469 0.0
C2074 C 0.69263 0.2854 0.83146 0.0
C2075 C 0.68485 0.25981 0.87773 0.0
N2076 N 0.66372 0.20605 0.90323 0.0
N2077 N 0.69933 0.29963 0.71878 0.0
C2078 C 0.67125 0.23026 0.85803 0.0
C2079 C 0.68892 0.279 0.76442 0.0
N2080 N 0.64986 0.20176 0.7728 0.0
N2081 N 0.70316 0.31639 0.85171 0.0
H2082 H 0.69671 0.29624 0.66937 0.0
H2083 H 0.71169 0.3182 0.72948 0.0
H2084 H 0.70709 0.32138 0.89993 0.0
H2085 H 0.70648 0.33859 0.82159 0.0
H2086 H 0.64058 0.18627 0.80484 0.0
H2087 H 0.64499 0.19846 0.72486 0.0
H2088 H 0.65648 0.18099 0.89201 0.0
H2089 H 0.66523 0.2108 0.9527 0.0
C2090 C 0.02451 0.55328 0.846 0.0
C2091 C 0.03554 0.52702 0.8848 0.0
C2092 C 0.05644 0.507 0.78974 0.0
C2093 C 0.04717 0.53581 0.75272 0.0
N2094 N 0.02477 0.59022 0.74845 0.0
N2095 N 0.06484 0.48354 0.89633 0.0
C2096 C 0.03181 0.56001 0.78162 0.0
C2097 C 0.05232 0.5052 0.8574 0.0
N2098 N 0.00667 0.57104 0.86996 0.0
N2099 N 0.06844 0.48033 0.75984 0.0
H2100 H 0.06241 0.48147 0.94611 0.0
H2101 H 0.07886 0.47034 0.88026 0.0
H2102 H 0.07141 0.48006 0.71016 0.0
H2103 H 0.07365 0.45658 0.78316 0.0
H2104 H -0.00356 0.58715 0.84168 0.0
H2105 H 0.00095 0.56722 0.91695 0.0
H2106 H 0.01529 0.61081 0.76916 0.0
H2107 H 0.03001 0.59656 0.70181 0.0
C2108 C 0.69332 0.49947 0.03199 0.0
C2109 C 0.68085 0.53039 0.05196 0.0
C2110 C 0.67793 0.55074 0.93857 0.0
C2111 C 0.69144 0.52109 0.91886 0.0
N2112 N 0.71232 0.46721 0.94548 0.0
N2113 N 0.66251 0.58702 1.02592 0.0
C2114 C 0.69908 0.49526 0.96527 0.0
C2115 C 0.67357 0.5565 1.00566 0.0
N2116 N 0.69984 0.47441 0.07731 0.0
N2117 N 0.66824 0.5722 0.89262 0.0
H2118 H 0.65725 0.59083 0.07339 0.0
H2119 H 0.65947 0.60965 0.99661 0.0
H2120 H 0.67075 0.56855 0.84313 0.0
H2121 H 0.65632 0.59164 0.90265 0.0
H2122 H 0.70718 0.4494 0.06688 0.0
H2123 H 0.6975 0.47814 0.12684 0.0
H2124 H 0.7196 0.44828 0.97607 0.0
H2125 H 0.71707 0.46345 0.89755 0.0
C2126 C 0.04798 0.22426 0.94437 0.0
C2127 C 0.03461 0.25394 0.92446 0.0
C2128 C 0.03118 0.27439 0.03771 0.0
C2129 C 0.04323 0.24315 0.05772 0.0
N2130 N 0.0612 0.18608 0.03187 0.0
N2131 N 0.01186 0.30573 0.95158 0.0
C2132 C 0.05102 0.21738 1.01151 0.0
C2133 C 0.02587 0.27877 0.971 0.0
N2134 N 0.05871 0.20377 0.89892 0.0
N2135 N 0.0248 0.29981 0.08271 0.0
H2136 H 0.00738 0.30972 0.90351 0.0
H2137 H 0.00325 0.32263 0.98306 0.0
H2138 H 0.02707 0.29628 0.13229 0.0
H2139 H 0.01823 0.3253 0.07133 0.0
H2140 H 0.07053 0.18436 0.91005 0.0
H2141 H 0.05728 0.20837 0.84934 0.0
H2142 H 0.06455 0.16389 1.00165 0.0
H2143 H 0.06516 0.18109 0.08008 0.0
C2144 C 0.77482 0.29071 0.20688 0.0
C2145 C 0.78676 0.26407 0.1709 0.0
C2146 C 0.80839 0.24992 0.26807 0.0
C2147 C 0.79544 0.2746 0.30474 0.0
N2148 N 0.76435 0.31447 0.31229 0.0
N2149 N 0.81342 0.2154 0.16885 0.0
C2150 C 0.77816 0.294 0.27493 0.0
C2151 C 0.80306 0.24275 0.20211 0.0
N2152 N 0.76029 0.31304 0.17608 0.0
N2153 N 0.82635 0.23439 0.29571 0.0
H2154 H 0.81115 0.21066 0.11968 0.0
H2155 H 0.8233 0.1958 0.19062 0.0
H2156 H 0.83066 0.23859 0.34393 0.0
H2157 H 0.83798 0.21963 0.26998 0.0
H2158 H 0.75336 0.33618 0.19735 0.0
H2159 H 0.75592 0.30985 0.12776 0.0
H2160 H 0.75005 0.32611 0.29508 0.0
H2161 H 0.76623 0.31742 0.36217 0.0
C2162 C 0.44897 0.96672 0.27214 0.0
C2163 C 0.43451 0.99063 0.3056 0.0
C2164 C 0.43097 0.02836 0.20704 0.0
C2165 C 0.44452 1.00339 0.17267 0.0
N2166 N 0.46443 0.94632 0.1702 0.0
N2167 N 0.40852 0.04007 0.30151 0.0
C2168 C 0.45288 0.9718 0.2046 0.0
C2169 C 0.42474 0.02047 0.27217 0.0
N2170 N 0.45962 0.93983 0.30553 0.0
N2171 N 0.42394 0.0597 0.17734 0.0
H2172 H 0.4031 0.03471 0.34836 0.0
H2173 H 0.39902 0.05946 0.27779 0.0
H2174 H 0.42644 0.06506 0.12837 0.0
H2175 H 0.41668 0.08144 0.20194 0.0
H2176 H 0.47245 0.92461 0.28662 0.0
H2177 H 0.45672 0.93435 0.35422 0.0
H2178 H 0.46843 0.92043 0.18784 0.0
H2179 H 0.46908 0.95009 0.12223 0.0
C2180 C 0.78624 0.94828 0.03088 0.0
C2181 C 0.79899 0.97556 0.9997 0.0
C2182 C 0.80242 0.00884 0.10227 0.0
C2183 C 0.78781 0.9837 0.13168 0.0
N2184 N 0.76214 0.9339 0.11997 0.0
N2185 N 0.81533 0.03582 1.0024 0.0
C2186 C 0.77864 0.95464 0.09484 0.0
C2187 C 0.80599 0.00703 0.03446 0.0
N2188 N 0.78209 0.91564 1.00056 0.0
N2189 N 0.81347 0.03368 0.13937 0.0
H2190 H 0.81776 0.03593 0.95246 0.0
H2191 H 0.8187 0.06096 1.02435 0.0
H2192 H 0.81149 0.0356 0.18936 0.0
H2193 H 0.82604 0.04995 0.12148 0.0
H2194 H 0.77508 0.89333 1.0241 0.0
H2195 H 0.78766 0.90946 0.95414 0.0
H2196 H 0.75333 0.91498 0.09268 0.0
H2197 H 0.75585 0.93803 0.16629 0.0
C2198 C 0.44712 0.29664 0.02876 0.0
C2199 C 0.42735 0.28199 1.00428 0.0
C2200 C 0.41871 0.25703 0.11175 0.0
C2201 C 0.43781 0.27354 0.13687 0.0
N2202 N 0.46807 0.31479 0.12301 0.0
N2203 N 0.39206 0.25555 1.02555 0.0
C2204 C 0.45134 0.29521 0.09645 0.0
C2205 C 0.41248 0.26423 0.04671 0.0
N2206 N 0.4623 0.31047 0.98705 0.0
N2207 N 0.40677 0.23379 0.14963 0.0
H2208 H 0.38664 0.26128 0.97887 0.0
H2209 H 0.37977 0.24598 0.05585 0.0
H2210 H 0.41053 0.22865 0.19794 0.0
H2211 H 0.39414 0.2176 0.132 0.0
H2212 H 0.46007 0.31123 0.9371 0.0
H2213 H 0.47784 0.31837 1.00121 0.0
H2214 H 0.47708 0.33423 0.09759 0.0
H2215 H 0.47186 0.31386 0.17215 0.0
C2216 C 0.19451 0.71728 0.84187 0.0
C2217 C 0.1809 0.73625 0.88642 0.0
C2218 C 0.15588 0.75179 0.79795 0.0
C2219 C 0.169 0.73145 0.75418 0.0
N2220 N 0.19802 0.68813 0.73684 0.0
N2221 N 0.14615 0.76363 0.90977 0.0
C2222 C 0.18756 0.71231 0.77681 0.0
C2223 C 0.16086 0.7513 0.86522 0.0
N2224 N 0.21435 0.7047 0.86124 0.0
N2225 N 0.13896 0.77229 0.77503 0.0
H2226 H 0.1491 0.76261 0.95937 0.0
H2227 H 0.13033 0.7713 0.89822 0.0
H2228 H 0.13481 0.77333 0.72617 0.0
H2229 H 0.13012 0.79057 0.80351 0.0
H2230 H 0.22594 0.69431 0.82943 0.0
H2231 H 0.21994 0.70689 0.9086 0.0
H2232 H 0.19345 0.68367 0.68891 0.0
H2233 H 0.20993 0.66995 0.75257 0.0
C2234 C 0.53112 0.04875 0.78104 0.0
C2235 C 0.54993 0.03107 0.75608 0.0
C2236 C 0.55678 1.00417 0.8633 0.0
C2237 C 0.53896 0.02424 0.88897 0.0
N2238 N 0.51233 0.07212 0.87552 0.0
N2239 N 0.58336 0.99852 0.77713 0.0
C2240 C 0.52715 0.04862 0.84882 0.0
C2241 C 0.56352 0.01051 0.79824 0.0
N2242 N 0.51644 0.06418 0.73977 0.0
N2243 N 0.56716 0.97883 0.90088 0.0
H2244 H 0.58925 1.00375 0.73074 0.0
H2245 H 0.59487 0.98658 0.80736 0.0
H2246 H 0.56336 0.9747 0.94952 0.0
H2247 H 0.57854 0.9603 0.88277 0.0
H2248 H 0.50146 0.07416 0.75498 0.0
H2249 H 0.51818 0.06361 0.68962 0.0
H2250 H 0.5049 0.09321 0.84973 0.0
H2251 H 0.50893 0.07272 0.9249 0.0
C2252 C 0.20398 0.04887 0.96546 0.0
C2253 C 0.19406 0.02043 0.92817 0.0
C2254 C 0.17419 0.99986 1.02541 0.0
C2255 C 0.18319 0.02941 0.0616 0.0
N2256 N 0.20418 0.08537 0.0638 0.0
N2257 N 0.1658 0.97474 0.91963 0.0
C2258 C 0.19732 0.05491 0.03082 0.0
C2259 C 0.17818 0.99738 0.95749 0.0
N2260 N 0.22037 0.06946 0.93933 0.0
N2261 N 0.1616 0.97416 0.05579 0.0
H2262 H 0.16746 0.97328 0.8695 0.0
H2263 H 0.15239 0.96023 0.9367 0.0
H2264 H 0.15676 0.97636 0.10397 0.0
H2265 H 0.15704 0.94943 0.03433 0.0
H2266 H 0.23014 0.08717 0.96612 0.0
H2267 H 0.22559 0.06685 0.8917 0.0
H2268 H 0.212 0.1075 0.04206 0.0
H2269 H 0.20086 0.08986 0.1126 0.0
C2270 C 0.55111 0.70879 0.93081 0.0
C2271 C 0.5372 0.73762 0.91066 0.0
C2272 C 0.53302 0.75826 1.02278 0.0
C2273 C 0.54812 0.73095 0.04228 0.0
N2274 N 0.575 0.68547 1.01414 0.0
N2275 N 0.51749 0.79341 0.93498 0.0
C2276 C 0.55811 0.7076 0.99609 0.0
C2277 C 0.52903 0.76361 0.95589 0.0
N2278 N 0.55756 0.68244 0.8877 0.0
N2279 N 0.52171 0.77785 0.06821 0.0
H2280 H 0.51264 0.79701 0.88713 0.0
H2281 H 0.51371 0.81576 0.96439 0.0
H2282 H 0.5236 0.77398 0.11782 0.0
H2283 H 0.50907 0.79573 0.05708 0.0
H2284 H 0.56539 0.65832 0.90135 0.0
H2285 H 0.55382 0.68334 0.83858 0.0
H2286 H 0.58443 0.67062 0.98148 0.0
H2287 H 0.58103 0.68455 0.06123 0.0
C2288 C 0.80172 0.75042 0.69498 0.0
C2289 C 0.78679 0.7747 0.66497 0.0
C2290 C 0.78369 0.80992 0.76639 0.0
C2291 C 0.7992 0.78622 0.79612 0.0
N2292 N 0.82684 0.73981 0.78332 0.0
N2293 N 0.76585 0.83058 0.66827 0.0
C2294 C 0.80924 0.75802 0.75885 0.0
C2295 C 0.77851 0.80538 0.69958 0.0
N2296 N 0.80866 0.71984 0.66252 0.0
N2297 N 0.77323 0.83601 0.80235 0.0
H2298 H 0.7605 0.82719 0.62081 0.0
H2299 H 0.76179 0.85607 0.68766 0.0
H2300 H 0.77747 0.84258 0.84957 0.0
H2301 H 0.75941 0.84985 0.78675 0.0
H2302 H 0.81723 0.69858 0.6844 0.0
H2303 H 0.80467 0.71447 0.61441 0.0
H2304 H 0.8363 0.72165 0.75645 0.0
H2305 H 0.83345 0.74562 0.8286 0.0
C2306 C 0.41544 0.4574 0.7632 0.0
C2307 C 0.42467 0.4814 0.80984 0.0
C2308 C 0.44402 0.51455 0.72354 0.0
C2309 C 0.4341 0.49127 0.67658 0.0
N2310 N 0.40613 0.44741 0.65077 0.0
N2311 N 0.44551 0.53547 0.83542 0.0
C2312 C 0.41867 0.46451 0.69624 0.0
C2313 C 0.43825 0.51089 0.79019 0.0
N2314 N 0.40374 0.42748 0.7829 0.0
N2315 N 0.45942 0.53941 0.70465 0.0
H2316 H 0.44249 0.53255 0.88481 0.0
H2317 H 0.45343 0.55991 0.82429 0.0
H2318 H 0.46417 0.54292 0.65669 0.0
H2319 H 0.46865 0.55508 0.7365 0.0
H2320 H 0.39888 0.40657 0.75169 0.0
H2321 H 0.40018 0.42209 0.83131 0.0
H2322 H 0.39303 0.43048 0.66207 0.0
H2323 H 0.40733 0.45338 0.60159 0.0
C2324 C 0.8081 0.49834 0.53458 0.0
C2325 C 0.79725 0.47053 0.49903 0.0
C2326 C 0.77528 0.45537 0.59438 0.0
C2327 C 0.78743 0.48106 0.63167 0.0
N2328 N 0.81875 0.52079 0.64017 0.0
N2329 N 0.77345 0.41793 0.49751 0.0
C2330 C 0.80476 0.50094 0.60252 0.0
C2331 C 0.78175 0.44758 0.52973 0.0
N2332 N 0.82151 0.5225 0.50338 0.0
N2333 N 0.75693 0.43968 0.61947 0.0
H2334 H 0.77693 0.41231 0.4491 0.0
H2335 H 0.7647 0.39722 0.52051 0.0
H2336 H 0.75104 0.44557 0.66559 0.0
H2337 H 0.74639 0.42342 0.59246 0.0
H2338 H 0.82786 0.54591 0.52536 0.0
H2339 H 0.82497 0.52072 0.45407 0.0
H2340 H 0.83293 0.53278 0.62249 0.0
H2341 H 0.81744 0.52214 0.69041 0.0
C2342 C 0.42411 0.75965 0.59799 0.0
C2343 C 0.44295 0.77765 0.62266 0.0
C2344 C 0.4482 0.80675 0.51583 0.0
C2345 C 0.43134 0.78462 0.49012 0.0
N2346 N 0.40517 0.73607 0.50397 0.0
N2347 N 0.47398 0.81729 0.60164 0.0
C2348 C 0.41993 0.7598 0.53037 0.0
C2349 C 0.45521 0.80116 0.58078 0.0
N2350 N 0.40938 0.7444 0.63961 0.0
N2351 N 0.45734 0.83357 0.47827 0.0
H2352 H 0.47995 0.8151 0.64832 0.0
H2353 H 0.48479 0.83093 0.57126 0.0
H2354 H 0.45341 0.83733 0.42967 0.0
H2355 H 0.4676 0.85393 0.49615 0.0
H2356 H 0.39444 0.73392 0.62475 0.0
H2357 H 0.41085 0.74626 0.68975 0.0
H2358 H 0.39818 0.71452 0.5298 0.0
H2359 H 0.40127 0.73597 0.45486 0.0
C2360 C 0.19286 0.27018 0.26816 0.0
C2361 C 0.17924 0.24102 0.24703 0.0
C2362 C 0.17669 0.21775 0.35842 0.0
C2363 C 0.1893 0.248 0.38007 0.0
N2364 N 0.20764 0.30523 0.35805 0.0
N2365 N 0.15514 0.19076 0.27238 0.0
C2366 C 0.19682 0.27495 0.3356 0.0
C2367 C 0.17037 0.21573 0.29228 0.0
N2368 N 0.20259 0.29249 0.22347 0.0
N2369 N 0.17091 0.19076 0.40108 0.0
H2370 H 0.14987 0.18868 0.22461 0.0
H2371 H 0.14632 0.17412 0.30378 0.0
H2372 H 0.17421 0.19219 0.45048 0.0
H2373 H 0.16409 0.1658 0.38717 0.0
H2374 H 0.21428 0.31214 0.23469 0.0
H2375 H 0.20016 0.2897 0.1738 0.0
H2376 H 0.21137 0.328 0.32977 0.0
H2377 H 0.21199 0.30867 0.40641 0.0
C2378 C 0.54821 0.49946 0.34976 0.0
C2379 C 0.53165 0.52093 0.37924 0.0
C2380 C 0.52664 0.55509 0.27773 0.0
C2381 C 0.54215 0.53191 0.24737 0.0
N2382 N 0.56567 0.47903 0.25077 0.0
N2383 N 0.50322 0.56626 0.37022 0.0
C2384 C 0.55228 0.50312 0.2823 0.0
C2385 C 0.52038 0.54807 0.34295 0.0
N2386 N 0.5608 0.47688 0.38695 0.0
N2387 N 0.51808 0.58406 0.24428 0.0
H2388 H 0.49815 0.56203 0.41775 0.0
H2389 H 0.49287 0.58355 0.34474 0.0
H2390 H 0.52137 0.58888 0.19552 0.0
H2391 H 0.50875 0.60467 0.26541 0.0
H2392 H 0.57462 0.46351 0.36991 0.0
H2393 H 0.55864 0.47393 0.43671 0.0
H2394 H 0.57143 0.45486 0.27139 0.0
H2395 H 0.56989 0.48177 0.20213 0.0
C2396 C 0.16848 0.50899 0.44941 0.0
C2397 C 0.18689 0.52796 0.42506 0.0
C2398 C 0.19406 0.55322 0.53318 0.0
C2399 C 0.17483 0.53614 0.55684 0.0
N2400 N 0.141 0.50526 0.53313 0.0
N2401 N 0.21528 0.5728 0.44015 0.0
C2402 C 0.16129 0.51598 0.51375 0.0
C2403 C 0.199 0.55174 0.46583 0.0
N2404 N 0.15788 0.48414 0.41114 0.0
N2405 N 0.20822 0.5693 0.57543 0.0
H2406 H 0.22023 0.5709 0.392 0.0
H2407 H 0.2229 0.59407 0.46502 0.0
H2408 H 0.20603 0.56902 0.62542 0.0
H2409 H 0.22309 0.58023 0.56141 0.0
H2410 H 0.14609 0.46614 0.42856 0.0
H2411 H 0.1619 0.47967 0.36273 0.0
H2412 H 0.12958 0.49364 0.5021 0.0
H2413 H 0.1346 0.51148 0.57856 0.0
C2414 C 0.53011 0.26 0.46873 0.0
C2415 C 0.5399 0.23581 0.42297 0.0
C2416 C 0.55872 0.20333 0.51061 0.0
C2417 C 0.54885 0.22727 0.55619 0.0
N2418 N 0.52388 0.27603 0.58143 0.0
N2419 N 0.56686 0.18995 0.39819 0.0
C2420 C 0.5344 0.25529 0.53592 0.0
C2421 C 0.55503 0.20878 0.4434 0.0
N2422 N 0.51699 0.28785 0.44778 0.0
N2423 N 0.57129 0.17483 0.53188 0.0
H2424 H 0.56519 0.19423 0.34861 0.0
H2425 H 0.57974 0.17257 0.40923 0.0
H2426 H 0.57533 0.17104 0.58039 0.0
H2427 H 0.57672 0.15359 0.5023 0.0
H2428 H 0.51199 0.30975 0.47647 0.0
H2429 H 0.51145 0.29006 0.40038 0.0
H2430 H 0.51136 0.29421 0.57111 0.0
H2431 H 0.52681 0.27363 0.63092 0.0
C2432 C 0.27694 0.39358 0.43173 0.0
C2433 C 0.29685 0.40106 0.46486 0.0
C2434 C 0.31627 0.36496 0.3807 0.0
C2435 C 0.29663 0.35825 0.34524 0.0
N2436 N 0.25848 0.37195 0.33426 0.0
N2437 N 0.33194 0.37407 0.48581 0.0
C2438 C 0.27695 0.3737 0.37067 0.0
C2439 C 0.31555 0.38153 0.44324 0.0
N2440 N 0.2578 0.40267 0.46099 0.0
N2441 N 0.33601 0.35393 0.35733 0.0
H2442 H 0.32976 0.37512 0.53571 0.0
H2443 H 0.34623 0.36054 0.47333 0.0
H2444 H 0.33834 0.33352 0.32309 0.0
H2445 H 0.35062 0.36498 0.37381 0.0
H2446 H 0.24261 0.39495 0.44359 0.0
H2447 H 0.2571 0.41438 0.50689 0.0
H2448 H 0.24433 0.38633 0.34515 0.0
H2449 H 0.25777 0.35881 0.28957 0.0
C2450 C 0.90613 0.88042 0.43996 0.0
C2451 C 0.92495 0.8623 0.46436 0.0
C2452 C 0.9458 0.89003 0.37241 0.0
C2453 C 0.92634 0.9047 0.34458 0.0
N2454 N 0.88688 0.90846 0.35221 0.0
N2455 N 0.96405 0.86296 0.46565 0.0
C2456 C 0.90629 0.89768 0.37794 0.0
C2457 C 0.9452 0.87075 0.43382 0.0
N2458 N 0.88832 0.88479 0.4789 0.0
N2459 N 0.96471 0.89172 0.33789 0.0
H2460 H 0.96431 0.85181 0.51196 0.0
H2461 H 0.97932 0.87151 0.44999 0.0
H2462 H 0.96591 0.90433 0.29288 0.0
H2463 H 0.97876 0.8776 0.35063 0.0
H2464 H 0.8739 0.89718 0.46446 0.0
H2465 H 0.88918 0.88308 0.52904 0.0
H2466 H 0.87217 0.8962 0.36477 0.0
H2467 H 0.88498 0.92978 0.31963 0.0
C2468 C 0.30514 0.87115 0.96401 0.0
C2469 C 0.28771 0.89581 0.97481 0.0
C2470 C 0.27198 0.87405 0.87019 0.0
C2471 C 0.29154 0.85434 0.85533 0.0
N2472 N 0.32812 0.84053 0.88893 0.0
N2473 N 0.25038 0.90826 0.94968 0.0
C2474 C 0.30833 0.85481 0.90251 0.0
C2475 C 0.26982 0.89378 0.9311 0.0
N2476 N 0.31818 0.86093 1.01428 0.0
N2477 N 0.25609 0.87618 0.82432 0.0
H2478 H 0.24805 0.91971 0.99536 0.0
H2479 H 0.23608 0.90557 0.92334 0.0
H2480 H 0.25717 0.86276 0.77988 0.0
H2481 H 0.24263 0.89333 0.82791 0.0
H2482 H 0.32979 0.84016 1.01077 0.0
H2483 H 0.3152 0.86889 0.06176 0.0
H2484 H 0.3418 0.84709 0.916 0.0
H2485 H 0.33104 0.82461 0.84889 0.0
C2486 C 0.91119 0.37097 0.84743 0.0
C2487 C 0.92878 0.39533 0.8349 0.0
C2488 C 0.94605 0.37231 0.93612 0.0
C2489 C 0.92674 0.35254 0.95353 0.0
N2490 N 0.88949 0.33714 0.92337 0.0
N2491 N 0.96711 0.40276 0.85173 0.0
C2492 C 0.90895 0.35324 0.90874 0.0
C2493 C 0.94747 0.39148 0.87489 0.0
N2494 N 0.89768 0.36116 0.79787 0.0
N2495 N 0.96265 0.37506 0.97968 0.0
H2496 H 0.96898 0.41338 0.80531 0.0
H2497 H 0.98179 0.39748 0.87486 0.0
H2498 H 0.96233 0.36261 1.02497 0.0
H2499 H 0.97588 0.39258 0.97357 0.0
H2500 H 0.88527 0.34189 0.80234 0.0
H2501 H 0.90108 0.36731 0.74972 0.0
H2502 H 0.87521 0.34332 0.89861 0.0
H2503 H 0.88691 0.31883 0.96079 0.0
C2504 C 0.65876 0.65955 0.66167 0.0
C2505 C 0.67632 0.66015 0.70704 0.0
C2506 C 0.69787 0.62351 0.62709 0.0
C2507 C 0.67951 0.62121 0.58526 0.0
N2508 N 0.64882 0.65674 0.54914 0.0
N2509 N 0.71271 0.64023 0.73273 0.0
C2510 C 0.66196 0.64526 0.59837 0.0
C2511 C 0.69607 0.64188 0.68909 0.0
N2512 N 0.63838 0.67101 0.67809 0.0
N2513 N 0.71752 0.61156 0.60492 0.0
H2514 H 0.71188 0.65194 0.77863 0.0
H2515 H 0.72683 0.62506 0.72591 0.0
H2516 H 0.71974 0.60227 0.55773 0.0
H2517 H 0.73208 0.61469 0.62975 0.0
H2518 H 0.62491 0.66545 0.64912 0.0
H2519 H 0.63399 0.68225 0.72204 0.0
H2520 H 0.63692 0.67684 0.55518 0.0
H2521 H 0.65213 0.651 0.50073 0.0
C2522 C 0.05396 0.10144 0.63941 0.0
C2523 C 0.04037 0.10665 0.69449 0.0
C2524 C 0.02074 0.1541 0.63028 0.0
C2525 C 0.0376 0.15415 0.58267 0.0
N2526 N 0.06675 0.11959 0.53403 0.0
N2527 N 0.00883 0.13635 0.73903 0.0
C2528 C 0.05316 0.12548 0.58536 0.0
C2529 C 0.02301 0.1324 0.68867 0.0
N2530 N 0.06589 0.0704 0.6349 0.0
N2531 N 0.00193 0.1724 0.61765 0.0
H2532 H 0.01003 0.12102 0.78142 0.0
H2533 H -0.00362 0.1556 0.74027 0.0
H2534 H -0.00098 0.18476 0.57313 0.0
H2535 H -0.01173 0.17147 0.64732 0.0
H2536 H 0.07223 0.05991 0.59198 0.0
H2537 H 0.06717 0.0532 0.67356 0.0
H2538 H 0.08133 0.10529 0.53747 0.0
H2539 H 0.06289 0.12778 0.48712 0.0
C2540 C 0.67858 0.14533 0.0873 0.0
C2541 C 0.67449 0.10797 0.10031 0.0
C2542 C 0.67303 0.12383 0.21799 0.0
C2543 C 0.67534 0.16184 0.20417 0.0
N2544 N 0.67592 0.20819 0.1216 0.0
N2545 N 0.66783 0.06167 0.18022 0.0
C2546 C 0.67722 0.17227 0.13778 0.0
C2547 C 0.67161 0.09742 0.16636 0.0
N2548 N 0.68457 0.15531 1.02632 0.0
N2549 N 0.67307 0.11265 0.28112 0.0
H2550 H 0.67365 0.04161 0.14969 0.0
H2551 H 0.66052 0.0523 0.22254 0.0
H2552 H 0.67596 0.13052 0.31962 0.0
H2553 H 0.67163 0.08552 0.29589 0.0
H2554 H 0.6906 0.18117 1.01591 0.0
H2555 H 0.68577 0.13684 0.98786 0.0
H2556 H 0.67223 0.21717 0.07506 0.0
H2557 H 0.67723 0.22846 0.15603 0.0
C2558 C 0.02704 0.64241 0.11866 0.0
C2559 C 0.04682 0.6593 0.09753 0.0
C2560 C 0.06408 0.63849 0.19928 0.0
C2561 C 0.04504 0.61894 0.21845 0.0
N2562 N 0.00628 0.6139 0.20579 0.0
N2563 N 0.08562 0.66669 0.11584 0.0
C2564 C 0.02592 0.6238 0.18045 0.0
C2565 C 0.06576 0.65458 0.13662 0.0
N2566 N 0.00963 0.64179 0.07775 0.0
N2567 N 0.08006 0.64517 0.24364 0.0
H2568 H 0.08803 0.68567 0.07925 0.0
H2569 H 0.10021 0.65731 0.13507 0.0
H2570 H 0.07712 0.64434 0.29325 0.0
H2571 H 0.09485 0.65758 0.23308 0.0
H2572 H -0.00427 0.62616 0.08586 0.0
H2573 H 0.00978 0.6541 0.03233 0.0
H2574 H -0.00855 0.6199 0.18418 0.0
H2575 H 0.00453 0.60377 0.25252 0.0
C2576 C 0.77663 0.37943 0.93902 0.0
C2577 C 0.79493 0.40223 0.95262 0.0
C2578 C 0.81061 0.38311 0.84659 0.0
C2579 C 0.79288 0.35884 0.83431 0.0
N2580 N 0.75509 0.34781 0.85766 0.0
N2581 N 0.82655 0.43193 0.90831 0.0
C2582 C 0.77471 0.36101 0.87719 0.0
C2583 C 0.8112 0.40528 0.90361 0.0
N2584 N 0.76139 0.37381 0.98606 0.0
N2585 N 0.82703 0.38631 0.80243 0.0
H2586 H 0.82889 0.44664 0.95004 0.0
H2587 H 0.83575 0.44135 0.86941 0.0
H2588 H 0.82461 0.38225 0.75306 0.0
H2589 H 0.84267 0.3949 0.81462 0.0
H2590 H 0.74914 0.35415 0.98222 0.0
H2591 H 0.76218 0.38637 0.03134 0.0
H2592 H 0.7409 0.35224 0.88387 0.0
H2593 H 0.75249 0.33705 0.81165 0.0
C2594 C 0.45052 0.90494 0.89152 0.0
C2595 C 0.43645 0.89939 0.83777 0.0
C2596 C 0.42684 0.83962 0.88562 0.0
C2597 C 0.43604 0.85009 0.94606 0.0
N2598 N 0.45692 0.89447 1.00595 0.0
N2599 N 0.4167 0.85483 0.77514 0.0
C2600 C 0.4479 0.8834 0.94892 0.0
C2601 C 0.42572 0.86497 0.83291 0.0
N2602 N 0.46805 0.92731 0.8852 0.0
N2603 N 0.42168 0.80384 0.87656 0.0
H2604 H 0.41959 0.86895 0.7322 0.0
H2605 H 0.40789 0.83094 0.76731 0.0
H2606 H 0.42971 0.7848 0.90446 0.0
H2607 H 0.414 0.79269 0.83637 0.0
H2608 H 0.47965 0.93059 0.92143 0.0
H2609 H 0.47287 0.93697 0.84005 0.0
H2610 H 0.46429 0.92003 1.01171 0.0
H2611 H 0.45593 0.87883 0.04812 0.0
C2612 C 0.81644 0.85213 0.38768 0.0
C2613 C 0.79769 0.85052 0.34653 0.0
C2614 C 0.77773 0.88642 0.43098 0.0
C2615 C 0.79717 0.89165 0.46724 0.0
N2616 N 0.83018 0.8601 0.49612 0.0
N2617 N 0.76094 0.87132 0.32795 0.0
C2618 C 0.81528 0.86936 0.44986 0.0
C2619 C 0.77836 0.86859 0.36849 0.0
N2620 N 0.8357 0.83682 0.36895 0.0
N2621 N 0.75826 0.89521 0.45852 0.0
H2622 H 0.76069 0.86016 0.28159 0.0
H2623 H 0.74757 0.88799 0.33765 0.0
H2624 H 0.75695 0.90494 0.50573 0.0
H2625 H 0.74334 0.88861 0.43787 0.0
H2626 H 0.85044 0.84315 0.39107 0.0
H2627 H 0.83753 0.81858 0.33097 0.0
H2628 H 0.8427 0.84131 0.48874 0.0
H2629 H 0.82784 0.86545 0.54511 0.0
C2630 C 0.44578 0.36221 0.42546 0.0
C2631 C 0.4287 0.36265 0.4722 0.0
C2632 C 0.41308 0.41491 0.4123 0.0
C2633 C 0.42651 0.40792 0.35751 0.0
N2634 N 0.45653 0.37345 0.31371 0.0
N2635 N 0.39874 0.3975 0.51616 0.0
C2636 C 0.44326 0.3813 0.36481 0.0
C2637 C 0.41321 0.3914 0.4672 0.0
N2638 N 0.46511 0.34644 0.44076 0.0
N2639 N 0.40138 0.44629 0.4147 0.0
H2640 H 0.40164 0.38938 0.56361 0.0
H2641 H 0.38438 0.41226 0.51016 0.0
H2642 H 0.39963 0.46215 0.37434 0.0
H2643 H 0.39521 0.45773 0.45716 0.0
H2644 H 0.4787 0.34766 0.41072 0.0
H2645 H 0.46836 0.33672 0.48709 0.0
H2646 H 0.46773 0.35198 0.31423 0.0
H2647 H 0.45521 0.38667 0.26918 0.0
C2648 C 0.19256 0.6218 0.12886 0.0
C2649 C 0.17281 0.60541 0.10607 0.0
C2650 C 0.15497 0.62664 0.20744 0.0
C2651 C 0.17345 0.6481 0.2247 0.0
N2652 N 0.21248 0.64899 0.21882 0.0
N2653 N 0.13452 0.5938 0.12688 0.0
C2654 C 0.19308 0.64092 0.19024 0.0
C2655 C 0.15388 0.60856 0.14608 0.0
N2656 N 0.21066 0.62124 0.09046 0.0
N2657 N 0.13955 0.61907 0.25326 0.0
H2658 H 0.13282 0.57499 0.08965 0.0
H2659 H 0.11972 0.60098 0.1478 0.0
H2660 H 0.14171 0.625 0.30209 0.0
H2661 H 0.12658 0.60114 0.246 0.0
H2662 H 0.22472 0.63606 0.1007 0.0
H2663 H 0.21111 0.60915 0.0449 0.0
H2664 H 0.22745 0.64101 0.20007 0.0
H2665 H 0.21361 0.65957 0.26548 0.0
C2666 C 0.56258 0.1377 0.20878 0.0
C2667 C 0.54511 0.11297 0.22226 0.0
C2668 C 0.52756 0.13453 0.12032 0.0
C2669 C 0.54579 0.1572 0.1051 0.0
N2670 N 0.57711 0.18809 0.14803 0.0
N2671 N 0.50685 0.10336 0.20434 0.0
C2672 C 0.5623 0.16054 0.15279 0.0
C2673 C 0.52633 0.11585 0.182 0.0
N2674 N 0.57974 0.14064 0.25027 0.0
N2675 N 0.51165 0.12957 0.07526 0.0
H2676 H 0.50492 0.09287 0.25082 0.0
H2677 H 0.49223 0.10779 0.18026 0.0
H2678 H 0.51193 0.14239 0.03021 0.0
H2679 H 0.49917 0.11051 0.0808 0.0
H2680 H 0.59502 0.14997 0.23578 0.0
H2681 H 0.57827 0.1367 0.29988 0.0
H2682 H 0.58577 0.19806 0.18757 0.0
H2683 H 0.57914 0.20331 0.10661 0.0
C2684 C 0.19485 0.1308 0.61694 0.0
C2685 C 0.17867 0.10284 0.61437 0.0
C2686 C 0.16767 0.12028 0.72613 0.0
C2687 C 0.18269 0.14976 0.72682 0.0
N2688 N 0.21745 0.16892 0.68624 0.0
N2689 N 0.15604 0.06386 0.6792 0.0
C2690 C 0.19832 0.15119 0.67598 0.0
C2691 C 0.1666 0.0961 0.6722 0.0
N2692 N 0.2068 0.13838 0.56292 0.0
N2693 N 0.15483 0.11387 0.77895 0.0
H2694 H 0.15446 0.04664 0.64085 0.0
H2695 H 0.151 0.05293 0.72329 0.0
H2696 H 0.15876 0.12336 0.82508 0.0
H2697 H 0.1407 0.09814 0.77731 0.0
H2698 H 0.2177 0.16016 0.5602 0.0
H2699 H 0.20466 0.12446 0.51927 0.0
H2700 H 0.23032 0.16821 0.65352 0.0
H2701 H 0.22146 0.17978 0.73133 0.0
C2702 C 0.55911 0.60564 0.66026 0.0
C2703 C 0.54108 0.604 0.70403 0.0
C2704 C 0.52007 0.64099 0.62323 0.0
C2705 C 0.53866 0.64294 0.5817 0.0
N2706 N 0.57002 0.60785 0.54863 0.0
N2707 N 0.50422 0.62231 0.72703 0.0
C2708 C 0.55635 0.61951 0.59659 0.0
C2709 C 0.52136 0.62189 0.68485 0.0
N2710 N 0.57946 0.59503 0.67829 0.0
N2711 N 0.50078 0.65474 0.60159 0.0
H2712 H 0.50472 0.60989 0.77233 0.0
H2713 H 0.48983 0.63658 0.71972 0.0
H2714 H 0.49875 0.6644 0.55468 0.0
H2715 H 0.48619 0.65347 0.62679 0.0
H2716 H 0.59313 0.60158 0.65078 0.0
H2717 H 0.58344 0.58314 0.72194 0.0
H2718 H 0.58216 0.58834 0.55621 0.0
H2719 H 0.56694 0.61244 0.49978 0.0
C2720 C 0.29051 0.16538 0.1058 0.0
C2721 C 0.29131 0.16957 0.1739 0.0
C2722 C 0.29627 0.10256 0.18499 0.0
C2723 C 0.29151 0.09791 0.11849 0.0
N2724 N 0.28559 0.12476 1.01357 0.0
N2725 N 0.29518 0.14234 0.27944 0.0
C2726 C 0.2893 0.1294 0.07821 0.0
C2727 C 0.29456 0.13819 0.21377 0.0
N2728 N 0.29096 0.19595 0.06763 0.0
N2729 N 0.30252 0.07284 0.22047 0.0
H2730 H 0.29537 0.16804 0.30182 0.0
H2731 H 0.29454 0.12046 0.31177 0.0
H2732 H 0.30447 0.04701 0.19961 0.0
H2733 H 0.30786 0.07434 0.26813 0.0
H2734 H 0.29197 0.19537 1.01741 0.0
H2735 H 0.29225 0.22229 0.08692 0.0
H2736 H 0.28071 0.14576 0.98276 0.0
H2737 H 0.28694 0.09926 0.99086 0.0
C2738 C 0.93706 0.1311 0.07322 0.0
C2739 C 0.93381 0.16266 0.11292 0.0
C2740 C 0.92926 0.12258 0.20773 0.0
C2741 C 0.93337 0.09117 0.16863 0.0
N2742 N 0.93543 0.06452 0.06263 0.0
N2743 N 0.9197 0.1872 0.21218 0.0
C2744 C 0.93538 0.09519 0.10073 0.0
C2745 C 0.92757 0.15794 0.17836 0.0
N2746 N 0.94192 0.13552 1.0092 0.0
N2747 N 0.9278 0.11884 0.27334 0.0
H2748 H 0.91755 0.21274 0.19069 0.0
H2749 H 0.91311 0.18523 0.25846 0.0
H2750 H 0.9277 0.0933 0.29617 0.0
H2751 H 0.92778 0.14102 0.3052 0.0
H2752 H 0.94754 0.11442 0.97953 0.0
H2753 H 0.94077 0.16082 0.98588 0.0
H2754 H 0.93531 0.06498 1.01233 0.0
H2755 H 0.93356 0.03829 0.08184 0.0
C2756 C 0.65583 0.90294 0.88852 0.0
C2757 C 0.67134 0.91691 0.93283 0.0
C2758 C 0.69404 0.86251 0.9158 0.0
C2759 C 0.67828 0.84697 0.87369 0.0
N2760 N 0.64299 0.85197 0.8228 0.0
N2761 N 0.70389 0.90696 0.99619 0.0
C2762 C 0.65869 0.8669 0.86129 0.0
C2763 C 0.68984 0.89563 0.94898 0.0
N2764 N 0.63868 0.92466 0.87119 0.0
N2765 N 0.71394 0.8467 0.92191 0.0
H2766 H 0.70452 0.93372 1.01331 0.0
H2767 H 0.71512 0.88955 1.01813 0.0
H2768 H 0.71703 0.82016 0.90708 0.0
H2769 H 0.72759 0.861 0.93791 0.0
H2770 H 0.62781 0.91835 0.83436 0.0
H2771 H 0.63602 0.95054 0.89147 0.0
H2772 H 0.6274 0.86268 0.8183 0.0
H2773 H 0.64507 0.82784 0.79686 0.0
C2774 C 0.01794 0.88904 0.85424 0.0
C2775 C 0.03658 0.91249 0.85425 0.0
C2776 C 0.05606 0.86606 0.9199 0.0
C2777 C 0.03681 0.84473 0.92396 0.0
N2778 N -0.0013 0.83828 0.90012 0.0
N2779 N 0.07346 0.92354 0.88903 0.0
C2780 C 0.01773 0.85694 0.89233 0.0
C2781 C 0.05568 0.9011 0.88787 0.0
N2782 N 8e-05 0.89658 0.81709 0.0
N2783 N 0.07469 0.85255 0.94658 0.0
H2784 H 0.07431 0.94798 0.86337 0.0
H2785 H 0.08711 0.91897 0.91746 0.0
H2786 H 0.07502 0.82737 0.97041 0.0
H2787 H 0.08993 0.86458 0.9417 0.0
H2788 H -0.01095 0.87641 0.80268 0.0
H2789 H -0.00422 0.92241 0.80029 0.0
H2790 H 0.98348 0.84925 0.8895 0.0
H2791 H -0.00193 0.81209 0.91914 0.0
C2792 C 0.27625 0.64419 0.69692 0.0
C2793 C 0.29564 0.6653 0.69331 0.0
C2794 C 0.31302 0.61444 0.63375 0.0
C2795 C 0.29263 0.59656 0.62771 0.0
N2796 N 0.25416 0.59615 0.65134 0.0
N2797 N 0.33242 0.67143 0.65501 0.0
C2798 C 0.27409 0.61211 0.65845 0.0
C2799 C 0.31404 0.65065 0.66073 0.0
N2800 N 0.25999 0.65388 0.73868 0.0
N2801 N 0.33144 0.59646 0.61535 0.0
H2802 H 0.33378 0.69757 0.67522 0.0
H2803 H 0.34562 0.66393 0.62636 0.0
H2804 H 0.33106 0.56939 0.59912 0.0
H2805 H 0.34704 0.6067 0.62272 0.0
H2806 H 0.24731 0.63627 0.75116 0.0
H2807 H 0.2595 0.67871 0.76357 0.0
H2808 H 0.23968 0.60849 0.66582 0.0
H2809 H 0.25199 0.57073 0.62958 0.0
C2810 C 0.91454 0.63937 0.61709 0.0
C2811 C 0.93235 0.66434 0.62033 0.0
C2812 C 0.94696 0.62929 0.7104 0.0
C2813 C 0.93196 0.60003 0.70009 0.0
N2814 N 0.89951 0.57948 0.64591 0.0
N2815 N 0.96938 0.67341 0.65651 0.0
C2816 C 0.91512 0.60564 0.65378 0.0
C2817 C 0.94983 0.65604 0.6621 0.0
N2818 N 0.89727 0.64776 0.57856 0.0
N2819 N 0.95753 0.63364 0.76795 0.0
H2820 H 0.97253 0.69326 0.6218 0.0
H2821 H 0.98299 0.66536 0.683 0.0
H2822 H 0.95228 0.62113 0.81046 0.0
H2823 H 0.96857 0.65486 0.77622 0.0
H2824 H 0.88281 0.63293 0.57788 0.0
H2825 H 0.89715 0.67104 0.54926 0.0
H2826 H 0.8883 0.5795 0.60826 0.0
H2827 H 0.89785 0.55751 0.6776 0.0
C2828 C 0.65894 0.40728 0.41316 0.0
C2829 C 0.67737 0.42274 0.44413 0.0
C2830 C 0.69918 0.36974 0.4103 0.0
C2831 C 0.68045 0.3532 0.38243 0.0
N2832 N 0.6416 0.35179 0.37289 0.0
N2833 N 0.71362 0.41374 0.48607 0.0
C2834 C 0.65998 0.37052 0.38915 0.0
C2835 C 0.69702 0.40242 0.4471 0.0
N2836 N 0.64074 0.4281 0.40448 0.0
N2837 N 0.71925 0.35453 0.40106 0.0
H2838 H 0.71373 0.43875 0.51045 0.0
H2839 H 0.72676 0.39699 0.49746 0.0
H2840 H 0.72156 0.32886 0.38009 0.0
H2841 H 0.73373 0.36782 0.41278 0.0
H2842 H 0.62742 0.41941 0.37748 0.0
H2843 H 0.63988 0.45547 0.4191 0.0
H2844 H 0.626 0.36189 0.38079 0.0
H2845 H 0.64211 0.3244 0.35817 0.0
C2846 C 0.04571 0.35854 0.3666 0.0
C2847 C 0.04224 0.3545 0.4339 0.0
C2848 C 0.04191 0.42129 0.44693 0.0
C2849 C 0.04162 0.42548 0.37883 0.0
N2850 N 0.04432 0.3985 0.27257 0.0
N2851 N 0.04073 0.38202 0.54011 0.0
C2852 C 0.04417 0.39417 0.33823 0.0
C2853 C 0.04163 0.38587 0.47445 0.0
N2854 N 0.05065 0.32833 0.33032 0.0
N2855 N 0.04192 0.45074 0.48733 0.0
H2856 H 0.04166 0.35653 0.56283 0.0
H2857 H 0.03971 0.40445 0.57151 0.0
H2858 H 0.04278 0.47781 0.47137 0.0
H2859 H 0.04278 0.47781 0.47137 0.0
H2860 H 0.05477 0.32918 0.28153 0.0
H2861 H 0.05275 0.30254 0.35109 0.0
H2862 H 0.04327 0.37683 0.23985 0.0
H2863 H 0.04479 0.42427 0.2506 0.0
C2864 C 0.7999 0.12193 0.58785 0.0
C2865 C 0.79501 0.089 0.62213 0.0
C2866 C 0.79051 0.12533 0.72189 0.0
C2867 C 0.79358 0.15822 0.68586 0.0
N2868 N 0.80986 0.18624 0.59276 0.0
N2869 N 0.79349 0.05866 0.72541 0.0
C2870 C 0.80112 0.15597 0.62149 0.0
C2871 C 0.79288 0.09042 0.69055 0.0
N2872 N 0.80295 0.12092 0.52247 0.0
N2873 N 0.78567 0.12762 0.78627 0.0
H2874 H 0.79726 0.0336 0.70425 0.0
H2875 H 0.79283 0.05736 0.77561 0.0
H2876 H 0.78612 0.15239 0.81162 0.0
H2877 H 0.78111 0.10535 0.81465 0.0
H2878 H 0.80315 0.14429 0.49343 0.0
H2879 H 0.80454 0.09645 0.49696 0.0
H2880 H 0.81775 0.18562 0.54818 0.0
H2881 H 0.81138 0.21115 0.61694 0.0
C2882 C 0.4108 0.14627 0.62713 0.0
C2883 C 0.43113 0.16472 0.62505 0.0
C2884 C 0.44656 0.1189 0.69803 0.0
C2885 C 0.42734 0.09763 0.69292 0.0
N2886 N 0.39128 0.08958 0.65051 0.0
N2887 N 0.46979 0.16374 0.64806 0.0
C2888 C 0.40939 0.111 0.65713 0.0
C2889 C 0.44941 0.14956 0.65726 0.0
N2890 N 0.393 0.16211 0.59951 0.0
N2891 N 0.46223 0.11019 0.74218 0.0
H2892 H 0.47292 0.18767 0.62237 0.0
H2893 H 0.48388 0.15044 0.66322 0.0
H2894 H 0.46186 0.08664 0.77042 0.0
H2895 H 0.47531 0.12738 0.75267 0.0
H2896 H 0.37726 0.15203 0.60467 0.0
H2897 H 0.39383 0.18685 0.5745 0.0
H2898 H 0.37847 0.09581 0.61964 0.0
H2899 H 0.38963 0.06419 0.67335 0.0
C2900 C 0.16189 0.89934 0.41175 0.0
C2901 C 0.181 0.91521 0.43799 0.0
C2902 C 0.2028 0.86572 0.39112 0.0
C2903 C 0.18363 0.84752 0.36954 0.0
N2904 N 0.14465 0.84734 0.35891 0.0
N2905 N 0.21868 0.90782 0.46761 0.0
C2906 C 0.16303 0.86426 0.38051 0.0
C2907 C 0.20113 0.89674 0.4321 0.0
N2908 N 0.14278 0.91837 0.41514 0.0
N2909 N 0.22286 0.85449 0.37091 0.0
H2910 H 0.21868 0.93073 0.49781 0.0
H2911 H 0.23295 0.89262 0.47061 0.0
H2912 H 0.22572 0.83115 0.34343 0.0
H2913 H 0.23695 0.86969 0.37857 0.0
H2914 H 0.12849 0.91037 0.3923 0.0
H2915 H 0.14151 0.94378 0.43802 0.0
H2916 H 0.12898 0.85509 0.37198 0.0
H2917 H 0.14518 0.82481 0.32826 0.0
C2918 C 0.55289 0.8479 0.37418 0.0
C2919 C 0.54386 0.84402 0.43623 0.0
C2920 C 0.54052 0.91153 0.44294 0.0
C2921 C 0.54392 0.91382 0.37493 0.0
N2922 N 0.55285 0.88228 0.27489 0.0
N2923 N 0.53536 0.87237 0.53788 0.0
C2924 C 0.55025 0.88155 0.34048 0.0
C2925 C 0.53954 0.87611 0.47329 0.0
N2926 N 0.56491 0.82011 0.34855 0.0
N2927 N 0.53769 0.94297 0.47774 0.0
H2928 H 0.53657 0.84709 0.56127 0.0
H2929 H 0.53181 0.89382 0.56929 0.0
H2930 H 0.53984 0.96878 0.45753 0.0
H2931 H 0.53432 0.94399 0.5269 0.0
H2932 H 0.57399 0.8233 0.30637 0.0
H2933 H 0.56855 0.79658 0.37502 0.0
H2934 H 0.55495 0.85853 0.24731 0.0
H2935 H 0.55142 0.90608 0.24746 0.0
C2936 C 0.78708 0.65822 0.10634 0.0
C2937 C 0.7882 0.66462 0.17395 0.0
C2938 C 0.79271 0.59794 0.19192 0.0
C2939 C 0.79076 0.59186 0.12458 0.0
N2940 N 0.79221 0.61624 1.0166 0.0
N2941 N 0.79459 0.64132 0.28129 0.0
C2942 C 0.78999 0.62212 0.08156 0.0
C2943 C 0.79196 0.63461 0.21678 0.0
N2944 N 0.78173 0.68626 0.06581 0.0
N2945 N 0.79453 0.56834 0.23194 0.0
H2946 H 0.79328 0.66756 0.30089 0.0
H2947 H 0.79904 0.6216 0.31508 0.0
H2948 H 0.79744 0.5421 0.21383 0.0
H2949 H 0.79311 0.56942 0.28202 0.0
H2950 H 0.77735 0.68263 1.01759 0.0
H2951 H 0.78036 0.71315 0.08167 0.0
H2952 H 0.79425 0.63727 0.98303 0.0
H2953 H 0.79413 0.59006 0.9969 0.0
C2954 C 0.42509 0.59396 0.11372 0.0
C2955 C 0.4271 0.59414 0.18209 0.0
C2956 C 0.42485 0.662 0.18223 0.0
C2957 C 0.42675 0.66153 0.11417 0.0
N2958 N 0.41916 0.6289 1.01554 0.0
N2959 N 0.4254 0.62788 0.2829 0.0
C2960 C 0.42392 0.62795 0.08011 0.0
C2961 C 0.42553 0.62811 0.21672 0.0
N2962 N 0.42562 0.56163 0.08028 0.0
N2963 N 0.42159 0.69454 0.21348 0.0
H2964 H 0.42338 0.60397 0.30987 0.0
H2965 H 0.42767 0.65103 0.31164 0.0
H2966 H 0.41955 0.71909 0.18886 0.0
H2967 H 0.41844 0.69703 0.26267 0.0
H2968 H 0.42849 0.55985 0.03073 0.0
H2969 H 0.42338 0.53632 0.10214 0.0
H2970 H 0.41486 0.60589 0.9885 0.0
H2971 H 0.41717 0.65351 0.99042 0.0
C2972 C 0.19867 0.38127 0.8512 0.0
C2973 C 0.18276 0.35385 0.86269 0.0
C2974 C 0.16442 0.39786 0.93539 0.0
C2975 C 0.18315 0.42072 0.93394 0.0
N2976 N 0.221 0.42645 0.90243 0.0
N2977 N 0.14977 0.33655 0.91904 0.0
C2978 C 0.20123 0.40988 0.89611 0.0
C2979 C 0.16516 0.36234 0.90513 0.0
N2980 N 0.21081 0.38123 0.79583 0.0
N2981 N 0.14619 0.40964 0.96673 0.0
H2982 H 0.14907 0.31109 0.8965 0.0
H2983 H 0.13825 0.3398 0.95551 0.0
H2984 H 0.14555 0.4348 0.99072 0.0
H2985 H 0.13136 0.3959 0.96447 0.0
H2986 H 0.22204 0.40184 0.7852 0.0
H2987 H 0.20725 0.36403 0.75684 0.0
H2988 H 0.23486 0.41659 0.87903 0.0
H2989 H 0.22392 0.44802 0.93415 0.0
C2990 C 0.54765 0.3491 0.86971 0.0
C2991 C 0.54522 0.34737 0.93826 0.0
C2992 C 0.54765 0.41521 0.94102 0.0
C2993 C 0.54441 0.41646 0.87375 0.0
N2994 N 0.54569 0.38466 0.77153 0.0
N2995 N 0.54396 0.38117 0.04005 0.0
C2996 C 0.54576 0.38344 0.8375 0.0
C2997 C 0.54584 0.38112 0.97415 0.0
N2998 N 0.55103 0.31867 0.83291 0.0
N2999 N 0.55315 0.44655 0.97313 0.0
H3000 H 0.54489 0.35768 0.06844 0.0
H3001 H 0.54064 0.40482 0.06674 0.0
H3002 H 0.55566 0.47119 0.94881 0.0
H3003 H 0.55795 0.44706 1.02142 0.0
H3004 H 0.55365 0.29249 0.85149 0.0
H3005 H 0.55365 0.29249 0.85149 0.0
H3006 H 0.54676 0.36107 0.74293 0.0
H3007 H 0.54506 0.40929 0.74591 0.0
loop_
_geom_bond_atom_site_label_1
_geom_bond_atom_site_label_2
_geom_bond_distance
_geom_bond_site_symmetry_2
_ccdc_geom_bond_type
Ho0 C3 2.811 . S
Ho0 O20 2.322 . S
Ho0 O22 2.378 . S
Ho0 O23 2.524 . S
Ho0 O24 2.381 . S
Ho0 O25 2.669 . S
Ho0 O27 2.346 . S
Ho0 O31 2.305 . S
Ho1 C12 2.811 . S
Ho1 O21 2.346 . S
Ho1 O25 2.305 . S
Ho1 O26 2.322 . S
Ho1 O28 2.378 . S
Ho1 O29 2.524 . S
Ho1 O30 2.381 . S
Ho1 O31 2.669 . S
C2 O20 1.259 . S
C2 O21 1.268 . S
C3 Ho0 2.811 . S
C3 C4 1.488 1_554 S
C3 O22 1.215 . S
C3 O23 1.289 . S
C4 C3 1.488 1_556 S
C4 C5 1.348 . S
C4 C9 1.413 . S
C5 C4 1.348 . S
C5 C6 1.442 . S
C5 H32 0.930 . S
C6 C5 1.442 . S
C6 C7 1.381 . S
C6 H33 0.931 . S
C7 C6 1.381 . S
C7 C8 1.321 . S
C8 C7 1.321 . S
C8 C9 1.403 . S
C8 H34 0.934 . S
C9 C4 1.413 . S
C9 C8 1.403 . S
C9 H35 0.930 . S
C10 O24 1.275 . S
C10 O25 1.256 . S
C11 O26 1.259 . S
C11 O27 1.268 . S
C12 Ho1 2.811 . S
C12 C13 1.488 . S
C12 O28 1.215 . S
C12 O29 1.289 . S
C13 C12 1.488 . S
C13 C14 1.348 . S
C13 C18 1.413 . S
C14 C13 1.348 . S
C14 C15 1.442 . S
C14 H36 0.930 . S
C15 C14 1.442 . S
C15 C16 1.381 . S
C15 H37 0.931 . S
C16 C15 1.381 . S
C16 C17 1.321 . S
C17 C16 1.321 . S
C17 C18 1.403 . S
C17 H38 0.934 . S
C18 C13 1.413 . S
C18 C17 1.403 . S
C18 H39 0.930 . S
C19 O30 1.275 . S
C19 O31 1.256 . S
O20 Ho0 2.322 . S
O20 C2 1.259 . S
O21 Ho1 2.346 . S
O21 C2 1.268 . S
O22 Ho0 2.378 . S
O22 C3 1.215 . S
O23 Ho0 2.524 . S
O23 C3 1.289 . S
O24 Ho0 2.381 . S
O24 C10 1.275 . S
O25 Ho0 2.669 . S
O25 Ho1 2.305 . S
O25 C10 1.256 . S
O26 Ho1 2.322 . S
O26 C11 1.259 . S
O27 Ho0 2.346 . S
O27 C11 1.268 . S
O28 Ho1 2.378 . S
O28 C12 1.215 . S
O29 Ho1 2.524 . S
O29 C12 1.289 . S
O30 Ho1 2.381 . S
O30 C19 1.275 . S
O31 Ho0 2.305 . S
O31 Ho1 2.669 . S
O31 C19 1.256 . S
H32 C5 0.930 . S
H33 C6 0.931 . S
H34 C8 0.934 . S
H35 C9 0.930 . S
H36 C14 0.930 . S
H37 C15 0.931 . S
H38 C17 0.934 . S
H39 C18 0.930 . S
Ho40 C43 2.811 . S
Ho40 O60 2.322 . S
Ho40 O62 2.378 . S
Ho40 O63 2.524 1_565 S
Ho40 O64 2.381 . S
Ho40 O65 2.669 . S
Ho40 O67 2.346 . S
Ho40 O71 2.305 1_565 S
Ho41 C52 2.811 . S
Ho41 O61 2.346 . S
Ho41 O65 2.305 1_545 S
Ho41 O66 2.322 . S
Ho41 O68 2.378 . S
Ho41 O69 2.524 1_545 S
Ho41 O70 2.381 . S
Ho41 O71 2.669 . S
C42 O60 1.259 . S
C42 O61 1.268 1_565 S
C43 Ho40 2.811 . S
C43 C44 1.488 1_554 S
C43 O62 1.215 . S
C43 O63 1.289 1_565 S
C44 C43 1.488 1_556 S
C44 C45 1.348 . S
C44 C49 1.413 . S
C45 C44 1.348 . S
C45 C46 1.442 . S
C45 H72 0.930 1_565 S
C46 C45 1.442 . S
C46 C47 1.381 . S
C46 H73 0.931 1_565 S
C47 C46 1.381 . S
C47 C48 1.321 . S
C48 C47 1.321 . S
C48 C49 1.403 . S
C48 H74 0.934 . S
C49 C44 1.413 . S
C49 C48 1.403 . S
C49 H75 0.930 . S
C50 O64 1.275 . S
C50 O65 1.256 . S
C51 O66 1.259 . S
C51 O67 1.268 1_545 S
C52 Ho41 2.811 . S
C52 C53 1.488 . S
C52 O68 1.215 . S
C52 O69 1.289 1_545 S
C53 C52 1.488 . S
C53 C54 1.348 . S
C53 C58 1.413 . S
C54 C53 1.348 . S
C54 C55 1.442 . S
C54 H76 0.930 1_545 S
C55 C54 1.442 . S
C55 C56 1.381 . S
C55 H77 0.931 1_545 S
C56 C55 1.381 . S
C56 C57 1.321 . S
C57 C56 1.321 . S
C57 C58 1.403 . S
C57 H78 0.934 . S
C58 C53 1.413 . S
C58 C57 1.403 . S
C58 H79 0.930 . S
C59 O70 1.275 . S
C59 O71 1.256 . S
O60 Ho40 2.322 . S
O60 C42 1.259 . S
O61 Ho41 2.346 . S
O61 C42 1.268 1_545 S
O62 Ho40 2.378 . S
O62 C43 1.215 . S
O63 Ho40 2.524 1_545 S
O63 C43 1.289 1_545 S
O64 Ho40 2.381 . S
O64 C50 1.275 . S
O65 Ho40 2.669 . S
O65 Ho41 2.305 1_565 S
O65 C50 1.256 . S
O66 Ho41 2.322 . S
O66 C51 1.259 . S
O67 Ho40 2.346 . S
O67 C51 1.268 1_565 S
O68 Ho41 2.378 . S
O68 C52 1.215 . S
O69 Ho41 2.524 1_565 S
O69 C52 1.289 1_565 S
O70 Ho41 2.381 . S
O70 C59 1.275 . S
O71 Ho40 2.305 1_545 S
O71 Ho41 2.669 . S
O71 C59 1.256 . S
H72 C45 0.930 1_545 S
H73 C46 0.931 1_545 S
H74 C48 0.934 . S
H75 C49 0.930 . S
H76 C54 0.930 1_565 S
H77 C55 0.931 1_565 S
H78 C57 0.934 . S
H79 C58 0.930 . S
Ho80 C83 2.811 . S
Ho80 O100 2.322 . S
Ho80 O102 2.378 . S
Ho80 O103 2.524 1_565 S
Ho80 O104 2.381 . S
Ho80 O105 2.669 1_554 S
Ho80 O107 2.346 . S
Ho80 O111 2.305 1_565 S
Ho81 C92 2.811 . S
Ho81 O101 2.346 1_556 S
Ho81 O105 2.305 1_545 S
Ho81 O106 2.322 . S
Ho81 O108 2.378 . S
Ho81 O109 2.524 1_545 S
Ho81 O110 2.381 1_556 S
Ho81 O111 2.669 1_556 S
C82 O100 1.259 . S
C82 O101 1.268 1_565 S
C83 Ho80 2.811 . S
C83 C84 1.488 . S
C83 O102 1.215 . S
C83 O103 1.289 1_565 S
C84 C83 1.488 . S
C84 C85 1.348 . S
C84 C89 1.413 . S
C85 C84 1.348 . S
C85 C86 1.442 . S
C85 H112 0.930 1_565 S
C86 C85 1.442 . S
C86 C87 1.381 . S
C86 H113 0.931 1_565 S
C87 C86 1.381 . S
C87 C88 1.321 . S
C88 C87 1.321 . S
C88 C89 1.403 . S
C88 H114 0.934 . S
C89 C84 1.413 . S
C89 C88 1.403 . S
C89 H115 0.930 . S
C90 O104 1.275 . S
C90 O105 1.256 1_554 S
C91 O106 1.259 . S
C91 O107 1.268 1_546 S
C92 Ho81 2.811 . S
C92 C93 1.488 . S
C92 O108 1.215 . S
C92 O109 1.289 1_545 S
C93 C92 1.488 . S
C93 C94 1.348 . S
C93 C98 1.413 . S
C94 C93 1.348 . S
C94 C95 1.442 . S
C94 H116 0.930 1_545 S
C95 C94 1.442 . S
C95 C96 1.381 . S
C95 H117 0.931 1_545 S
C96 C95 1.381 . S
C96 C97 1.321 . S
C97 C96 1.321 . S
C97 C98 1.403 . S
C97 H118 0.934 . S
C98 C93 1.413 . S
C98 C97 1.403 . S
C98 H119 0.930 . S
C99 O110 1.275 . S
C99 O111 1.256 . S
O100 Ho80 2.322 . S
O100 C82 1.259 . S
O101 Ho81 2.346 1_554 S
O101 C82 1.268 1_545 S
O102 Ho80 2.378 . S
O102 C83 1.215 . S
O103 Ho80 2.524 1_545 S
O103 C83 1.289 1_545 S
O104 Ho80 2.381 . S
O104 C90 1.275 . S
O105 Ho80 2.669 1_556 S
O105 Ho81 2.305 1_565 S
O105 C90 1.256 1_556 S
O106 Ho81 2.322 . S
O106 C91 1.259 . S
O107 Ho80 2.346 . S
O107 C91 1.268 1_564 S
O108 Ho81 2.378 . S
O108 C92 1.215 . S
O109 Ho81 2.524 1_565 S
O109 C92 1.289 1_565 S
O110 Ho81 2.381 1_554 S
O110 C99 1.275 . S
O111 Ho80 2.305 1_545 S
O111 Ho81 2.669 1_554 S
O111 C99 1.256 . S
H112 C85 0.930 1_545 S
H113 C86 0.931 1_545 S
H114 C88 0.934 . S
H115 C89 0.930 . S
H116 C94 0.930 1_565 S
H117 C95 0.931 1_565 S
H118 C97 0.934 . S
H119 C98 0.930 . S
Ho120 C123 2.811 . S
Ho120 O140 2.322 . S
Ho120 O142 2.378 . S
Ho120 O143 2.524 . S
Ho120 O144 2.381 . S
Ho120 O145 2.669 1_554 S
Ho120 O147 2.346 . S
Ho120 O151 2.305 . S
Ho121 C132 2.811 . S
Ho121 O141 2.346 1_556 S
Ho121 O145 2.305 . S
Ho121 O146 2.322 . S
Ho121 O148 2.378 . S
Ho121 O149 2.524 . S
Ho121 O150 2.381 1_556 S
Ho121 O151 2.669 1_556 S
C122 O140 1.259 . S
C122 O141 1.268 . S
C123 Ho120 2.811 . S
C123 C124 1.488 . S
C123 O142 1.215 . S
C123 O143 1.289 . S
C124 C123 1.488 . S
C124 C125 1.348 . S
C124 C129 1.413 . S
C125 C124 1.348 . S
C125 C126 1.442 . S
C125 H152 0.930 . S
C126 C125 1.442 . S
C126 C127 1.381 . S
C126 H153 0.931 . S
C127 C126 1.381 . S
C127 C128 1.321 . S
C128 C127 1.321 . S
C128 C129 1.403 . S
C128 H154 0.934 . S
C129 C124 1.413 . S
C129 C128 1.403 . S
C129 H155 0.930 . S
C130 O144 1.275 . S
C130 O145 1.256 1_554 S
C131 O146 1.259 . S
C131 O147 1.268 1_556 S
C132 Ho121 2.811 . S
C132 C133 1.488 . S
C132 O148 1.215 . S
C132 O149 1.289 . S
C133 C132 1.488 . S
C133 C134 1.348 . S
C133 C138 1.413 . S
C134 C133 1.348 . S
C134 C135 1.442 . S
C134 H156 0.930 . S
C135 C134 1.442 . S
C135 C136 1.381 . S
C135 H157 0.931 . S
C136 C135 1.381 . S
C136 C137 1.321 . S
C137 C136 1.321 . S
C137 C138 1.403 . S
C137 H158 0.934 . S
C138 C133 1.413 . S
C138 C137 1.403 . S
C138 H159 0.930 . S
C139 O150 1.275 . S
C139 O151 1.256 . S
O140 Ho120 2.322 . S
O140 C122 1.259 . S
O141 Ho121 2.346 1_554 S
O141 C122 1.268 . S
O142 Ho120 2.378 . S
O142 C123 1.215 . S
O143 Ho120 2.524 . S
O143 C123 1.289 . S
O144 Ho120 2.381 . S
O144 C130 1.275 . S
O145 Ho120 2.669 1_556 S
O145 Ho121 2.305 . S
O145 C130 1.256 1_556 S
O146 Ho121 2.322 . S
O146 C131 1.259 . S
O147 Ho120 2.346 . S
O147 C131 1.268 1_554 S
O148 Ho121 2.378 . S
O148 C132 1.215 . S
O149 Ho121 2.524 . S
O149 C132 1.289 . S
O150 Ho121 2.381 1_554 S
O150 C139 1.275 . S
O151 Ho120 2.305 . S
O151 Ho121 2.669 1_554 S
O151 C139 1.256 . S
H152 C125 0.930 . S
H153 C126 0.931 . S
H154 C128 0.934 . S
H155 C129 0.930 . S
H156 C134 0.930 . S
H157 C135 0.931 . S
H158 C137 0.934 . S
H159 C138 0.930 . S
Ho160 C163 2.811 . S
Ho160 O180 2.322 . S
Ho160 O182 2.378 . S
Ho160 O183 2.524 . S
Ho160 O184 2.381 . S
Ho160 O185 2.669 . S
Ho160 O187 2.346 . S
Ho160 O191 2.305 . S
Ho161 C172 2.811 . S
Ho161 O181 2.346 . S
Ho161 O185 2.305 . S
Ho161 O186 2.322 . S
Ho161 O188 2.378 . S
Ho161 O189 2.524 . S
Ho161 O190 2.381 . S
Ho161 O191 2.669 . S
C162 O180 1.259 . S
C162 O181 1.268 . S
C163 Ho160 2.811 . S
C163 C164 1.488 . S
C163 O182 1.215 . S
C163 O183 1.289 . S
C164 C163 1.488 . S
C164 C165 1.348 . S
C164 C169 1.413 . S
C165 C164 1.348 . S
C165 C166 1.442 . S
C165 H192 0.930 . S
C166 C165 1.442 . S
C166 C167 1.381 . S
C166 H193 0.931 . S
C167 C166 1.381 . S
C167 C168 1.321 . S
C168 C167 1.321 . S
C168 C169 1.403 . S
C168 H194 0.934 . S
C169 C164 1.413 . S
C169 C168 1.403 . S
C169 H195 0.930 . S
C170 O184 1.275 . S
C170 O185 1.256 . S
C171 O186 1.259 . S
C171 O187 1.268 . S
C172 Ho161 2.811 . S
C172 C173 1.488 1_556 S
C172 O188 1.215 . S
C172 O189 1.289 . S
C173 C172 1.488 1_554 S
C173 C174 1.348 . S
C173 C178 1.413 . S
C174 C173 1.348 . S
C174 C175 1.442 . S
C174 H196 0.930 . S
C175 C174 1.442 . S
C175 C176 1.381 . S
C175 H197 0.931 . S
C176 C175 1.381 . S
C176 C177 1.321 . S
C177 C176 1.321 . S
C177 C178 1.403 . S
C177 H198 0.934 . S
C178 C173 1.413 . S
C178 C177 1.403 . S
C178 H199 0.930 . S
C179 O190 1.275 . S
C179 O191 1.256 . S
O180 Ho160 2.322 . S
O180 C162 1.259 . S
O181 Ho161 2.346 . S
O181 C162 1.268 . S
O182 Ho160 2.378 . S
O182 C163 1.215 . S
O183 Ho160 2.524 . S
O183 C163 1.289 . S
O184 Ho160 2.381 . S
O184 C170 1.275 . S
O185 Ho160 2.669 . S
O185 Ho161 2.305 . S
O185 C170 1.256 . S
O186 Ho161 2.322 . S
O186 C171 1.259 . S
O187 Ho160 2.346 . S
O187 C171 1.268 . S
O188 Ho161 2.378 . S
O188 C172 1.215 . S
O189 Ho161 2.524 . S
O189 C172 1.289 . S
O190 Ho161 2.381 . S
O190 C179 1.275 . S
O191 Ho160 2.305 . S
O191 Ho161 2.669 . S
O191 C179 1.256 . S
H192 C165 0.930 . S
H193 C166 0.931 . S
H194 C168 0.934 . S
H195 C169 0.930 . S
H196 C174 0.930 . S
H197 C175 0.931 . S
H198 C177 0.934 . S
H199 C178 0.930 . S
Ho200 C203 2.811 . S
Ho200 O220 2.322 . S
Ho200 O222 2.378 . S
Ho200 O223 2.524 1_565 S
Ho200 O224 2.381 . S
Ho200 O225 2.669 . S
Ho200 O227 2.346 . S
Ho200 O231 2.305 1_565 S
Ho201 C212 2.811 . S
Ho201 O221 2.346 . S
Ho201 O225 2.305 1_545 S
Ho201 O226 2.322 . S
Ho201 O228 2.378 . S
Ho201 O229 2.524 1_545 S
Ho201 O230 2.381 . S
Ho201 O231 2.669 . S
C202 O220 1.259 . S
C202 O221 1.268 1_565 S
C203 Ho200 2.811 . S
C203 C204 1.488 . S
C203 O222 1.215 . S
C203 O223 1.289 1_565 S
C204 C203 1.488 . S
C204 C205 1.348 . S
C204 C209 1.413 . S
C205 C204 1.348 . S
C205 C206 1.442 . S
C205 H232 0.930 1_565 S
C206 C205 1.442 . S
C206 C207 1.381 . S
C206 H233 0.931 1_565 S
C207 C206 1.381 . S
C207 C208 1.321 . S
C208 C207 1.321 . S
C208 C209 1.403 . S
C208 H234 0.934 . S
C209 C204 1.413 . S
C209 C208 1.403 . S
C209 H235 0.930 . S
C210 O224 1.275 . S
C210 O225 1.256 . S
C211 O226 1.259 . S
C211 O227 1.268 1_545 S
C212 Ho201 2.811 . S
C212 C213 1.488 1_556 S
C212 O228 1.215 . S
C212 O229 1.289 1_545 S
C213 C212 1.488 1_554 S
C213 C214 1.348 . S
C213 C218 1.413 . S
C214 C213 1.348 . S
C214 C215 1.442 . S
C214 H236 0.930 1_545 S
C215 C214 1.442 . S
C215 C216 1.381 . S
C215 H237 0.931 1_545 S
C216 C215 1.381 . S
C216 C217 1.321 . S
C217 C216 1.321 . S
C217 C218 1.403 . S
C217 H238 0.934 . S
C218 C213 1.413 . S
C218 C217 1.403 . S
C218 H239 0.930 . S
C219 O230 1.275 . S
C219 O231 1.256 . S
O220 Ho200 2.322 . S
O220 C202 1.259 . S
O221 Ho201 2.346 . S
O221 C202 1.268 1_545 S
O222 Ho200 2.378 . S
O222 C203 1.215 . S
O223 Ho200 2.524 1_545 S
O223 C203 1.289 1_545 S
O224 Ho200 2.381 . S
O224 C210 1.275 . S
O225 Ho200 2.669 . S
O225 Ho201 2.305 1_565 S
O225 C210 1.256 . S
O226 Ho201 2.322 . S
O226 C211 1.259 . S
O227 Ho200 2.346 . S
O227 C211 1.268 1_565 S
O228 Ho201 2.378 . S
O228 C212 1.215 . S
O229 Ho201 2.524 1_565 S
O229 C212 1.289 1_565 S
O230 Ho201 2.381 . S
O230 C219 1.275 . S
O231 Ho200 2.305 1_545 S
O231 Ho201 2.669 . S
O231 C219 1.256 . S
H232 C205 0.930 1_545 S
H233 C206 0.931 1_545 S
H234 C208 0.934 . S
H235 C209 0.930 . S
H236 C214 0.930 1_565 S
H237 C215 0.931 1_565 S
H238 C217 0.934 . S
H239 C218 0.930 . S
Ho240 C243 2.811 . S
Ho240 O260 2.322 . S
Ho240 O262 2.378 . S
Ho240 O263 2.524 1_565 S
Ho240 O264 2.381 1_554 S
Ho240 O265 2.669 1_554 S
Ho240 O267 2.346 1_554 S
Ho240 O271 2.305 1_565 S
Ho241 C252 2.811 . S
Ho241 O261 2.346 . S
Ho241 O265 2.305 1_545 S
Ho241 O266 2.322 . S
Ho241 O268 2.378 . S
Ho241 O269 2.524 1_545 S
Ho241 O270 2.381 . S
Ho241 O271 2.669 1_556 S
C242 O260 1.259 . S
C242 O261 1.268 1_564 S
C243 Ho240 2.811 . S
C243 C244 1.488 . S
C243 O262 1.215 . S
C243 O263 1.289 1_565 S
C244 C243 1.488 . S
C244 C245 1.348 . S
C244 C249 1.413 . S
C245 C244 1.348 . S
C245 C246 1.442 . S
C245 H272 0.930 1_565 S
C246 C245 1.442 . S
C246 C247 1.381 . S
C246 H273 0.931 1_565 S
C247 C246 1.381 . S
C247 C248 1.321 . S
C248 C247 1.321 . S
C248 C249 1.403 . S
C248 H274 0.934 . S
C249 C244 1.413 . S
C249 C248 1.403 . S
C249 H275 0.930 . S
C250 O264 1.275 . S
C250 O265 1.256 . S
C251 O266 1.259 . S
C251 O267 1.268 1_545 S
C252 Ho241 2.811 . S
C252 C253 1.488 . S
C252 O268 1.215 . S
C252 O269 1.289 1_545 S
C253 C252 1.488 . S
C253 C254 1.348 . S
C253 C258 1.413 . S
C254 C253 1.348 . S
C254 C255 1.442 . S
C254 H276 0.930 1_545 S
C255 C254 1.442 . S
C255 C256 1.381 . S
C255 H277 0.931 1_545 S
C256 C255 1.381 . S
C256 C257 1.321 . S
C257 C256 1.321 . S
C257 C258 1.403 . S
C257 H278 0.934 . S
C258 C253 1.413 . S
C258 C257 1.403 . S
C258 H279 0.930 . S
C259 O270 1.275 . S
C259 O271 1.256 1_556 S
O260 Ho240 2.322 . S
O260 C242 1.259 . S
O261 Ho241 2.346 . S
O261 C242 1.268 1_546 S
O262 Ho240 2.378 . S
O262 C243 1.215 . S
O263 Ho240 2.524 1_545 S
O263 C243 1.289 1_545 S
O264 Ho240 2.381 1_556 S
O264 C250 1.275 . S
O265 Ho240 2.669 1_556 S
O265 Ho241 2.305 1_565 S
O265 C250 1.256 . S
O266 Ho241 2.322 . S
O266 C251 1.259 . S
O267 Ho240 2.346 1_556 S
O267 C251 1.268 1_565 S
O268 Ho241 2.378 . S
O268 C252 1.215 . S
O269 Ho241 2.524 1_565 S
O269 C252 1.289 1_565 S
O270 Ho241 2.381 . S
O270 C259 1.275 . S
O271 Ho240 2.305 1_545 S
O271 Ho241 2.669 1_554 S
O271 C259 1.256 1_554 S
H272 C245 0.930 1_545 S
H273 C246 0.931 1_545 S
H274 C248 0.934 . S
H275 C249 0.930 . S
H276 C254 0.930 1_565 S
H277 C255 0.931 1_565 S
H278 C257 0.934 . S
H279 C258 0.930 . S
Ho280 C283 2.811 . S
Ho280 O300 2.322 . S
Ho280 O302 2.378 . S
Ho280 O303 2.524 . S
Ho280 O304 2.381 1_554 S
Ho280 O305 2.669 1_554 S
Ho280 O307 2.346 1_554 S
Ho280 O311 2.305 . S
Ho281 C292 2.811 . S
Ho281 O301 2.346 . S
Ho281 O305 2.305 . S
Ho281 O306 2.322 . S
Ho281 O308 2.378 . S
Ho281 O309 2.524 . S
Ho281 O310 2.381 . S
Ho281 O311 2.669 1_556 S
C282 O300 1.259 . S
C282 O301 1.268 1_554 S
C283 Ho280 2.811 . S
C283 C284 1.488 . S
C283 O302 1.215 . S
C283 O303 1.289 . S
C284 C283 1.488 . S
C284 C285 1.348 . S
C284 C289 1.413 . S
C285 C284 1.348 . S
C285 C286 1.442 . S
C285 H312 0.930 . S
C286 C285 1.442 . S
C286 C287 1.381 . S
C286 H313 0.931 . S
C287 C286 1.381 . S
C287 C288 1.321 . S
C288 C287 1.321 . S
C288 C289 1.403 . S
C288 H314 0.934 . S
C289 C284 1.413 . S
C289 C288 1.403 . S
C289 H315 0.930 . S
C290 O304 1.275 . S
C290 O305 1.256 . S
C291 O306 1.259 . S
C291 O307 1.268 . S
C292 Ho281 2.811 . S
C292 C293 1.488 . S
C292 O308 1.215 . S
C292 O309 1.289 . S
C293 C292 1.488 . S
C293 C294 1.348 . S
C293 C298 1.413 . S
C294 C293 1.348 . S
C294 C295 1.442 . S
C294 H316 0.930 . S
C295 C294 1.442 . S
C295 C296 1.381 . S
C295 H317 0.931 . S
C296 C295 1.381 . S
C296 C297 1.321 . S
C297 C296 1.321 . S
C297 C298 1.403 . S
C297 H318 0.934 . S
C298 C293 1.413 . S
C298 C297 1.403 . S
C298 H319 0.930 . S
C299 O310 1.275 . S
C299 O311 1.256 1_556 S
O300 Ho280 2.322 . S
O300 C282 1.259 . S
O301 Ho281 2.346 . S
O301 C282 1.268 1_556 S
O302 Ho280 2.378 . S
O302 C283 1.215 . S
O303 Ho280 2.524 . S
O303 C283 1.289 . S
O304 Ho280 2.381 1_556 S
O304 C290 1.275 . S
O305 Ho280 2.669 1_556 S
O305 Ho281 2.305 . S
O305 C290 1.256 . S
O306 Ho281 2.322 . S
O306 C291 1.259 . S
O307 Ho280 2.346 1_556 S
O307 C291 1.268 . S
O308 Ho281 2.378 . S
O308 C292 1.215 . S
O309 Ho281 2.524 . S
O309 C292 1.289 . S
O310 Ho281 2.381 . S
O310 C299 1.275 . S
O311 Ho280 2.305 . S
O311 Ho281 2.669 1_554 S
O311 C299 1.256 1_554 S
H312 C285 0.930 . S
H313 C286 0.931 . S
H314 C288 0.934 . S
H315 C289 0.930 . S
H316 C294 0.930 . S
H317 C295 0.931 . S
H318 C297 0.934 . S
H319 C298 0.930 . S
Ho320 C323 2.811 . S
Ho320 O340 2.322 . S
Ho320 O342 2.378 . S
Ho320 O343 2.524 . S
Ho320 O344 2.381 . S
Ho320 O345 2.669 . S
Ho320 O347 2.346 . S
Ho320 O351 2.305 . S
Ho321 C332 2.811 . S
Ho321 O341 2.346 . S
Ho321 O345 2.305 . S
Ho321 O346 2.322 . S
Ho321 O348 2.378 . S
Ho321 O349 2.524 . S
Ho321 O350 2.381 . S
Ho321 O351 2.669 . S
C322 O340 1.259 . S
C322 O341 1.268 . S
C323 Ho320 2.811 . S
C323 C324 1.488 . S
C323 O342 1.215 . S
C323 O343 1.289 . S
C324 C323 1.488 . S
C324 C325 1.348 . S
C324 C329 1.413 . S
C325 C324 1.348 . S
C325 C326 1.442 . S
C325 H352 0.930 . S
C326 C325 1.442 . S
C326 C327 1.381 . S
C326 H353 0.931 . S
C327 C326 1.381 . S
C327 C328 1.321 . S
C328 C327 1.321 . S
C328 C329 1.403 . S
C328 H354 0.934 . S
C329 C324 1.413 . S
C329 C328 1.403 . S
C329 H355 0.930 . S
C330 O344 1.275 . S
C330 O345 1.256 . S
C331 O346 1.259 . S
C331 O347 1.268 . S
C332 Ho321 2.811 . S
C332 C333 1.488 . S
C332 O348 1.215 . S
C332 O349 1.289 . S
C333 C332 1.488 . S
C333 C334 1.348 1_556 S
C333 C338 1.413 1_556 S
C334 C333 1.348 1_554 S
C334 C335 1.442 . S
C334 H356 0.930 . S
C335 C334 1.442 . S
C335 C336 1.381 . S
C335 H357 0.931 . S
C336 C335 1.381 . S
C336 C337 1.321 . S
C337 C336 1.321 . S
C337 C338 1.403 . S
C337 H358 0.934 . S
C338 C333 1.413 1_554 S
C338 C337 1.403 . S
C338 H359 0.930 1_554 S
C339 O350 1.275 . S
C339 O351 1.256 . S
O340 Ho320 2.322 . S
O340 C322 1.259 . S
O341 Ho321 2.346 . S
O341 C322 1.268 . S
O342 Ho320 2.378 . S
O342 C323 1.215 . S
O343 Ho320 2.524 . S
O343 C323 1.289 . S
O344 Ho320 2.381 . S
O344 C330 1.275 . S
O345 Ho320 2.669 . S
O345 Ho321 2.305 . S
O345 C330 1.256 . S
O346 Ho321 2.322 . S
O346 C331 1.259 . S
O347 Ho320 2.346 . S
O347 C331 1.268 . S
O348 Ho321 2.378 . S
O348 C332 1.215 . S
O349 Ho321 2.524 . S
O349 C332 1.289 . S
O350 Ho321 2.381 . S
O350 C339 1.275 . S
O351 Ho320 2.305 . S
O351 Ho321 2.669 . S
O351 C339 1.256 . S
H352 C325 0.930 . S
H353 C326 0.931 . S
H354 C328 0.934 . S
H355 C329 0.930 . S
H356 C334 0.930 . S
H357 C335 0.931 . S
H358 C337 0.934 . S
H359 C338 0.930 1_556 S
Ho360 C363 2.811 . S
Ho360 O380 2.322 . S
Ho360 O382 2.378 . S
Ho360 O383 2.524 . S
Ho360 O384 2.381 . S
Ho360 O385 2.669 . S
Ho360 O387 2.346 . S
Ho360 O391 2.305 . S
Ho361 C372 2.811 . S
Ho361 O381 2.346 . S
Ho361 O385 2.305 . S
Ho361 O386 2.322 . S
Ho361 O388 2.378 . S
Ho361 O389 2.524 . S
Ho361 O390 2.381 . S
Ho361 O391 2.669 . S
C362 O380 1.259 . S
C362 O381 1.268 . S
C363 Ho360 2.811 . S
C363 C364 1.488 . S
C363 O382 1.215 . S
C363 O383 1.289 . S
C364 C363 1.488 . S
C364 C365 1.348 . S
C364 C369 1.413 . S
C365 C364 1.348 . S
C365 C366 1.442 . S
C365 H392 0.930 . S
C366 C365 1.442 . S
C366 C367 1.381 . S
C366 H393 0.931 . S
C367 C366 1.381 . S
C367 C368 1.321 . S
C368 C367 1.321 . S
C368 C369 1.403 . S
C368 H394 0.934 . S
C369 C364 1.413 . S
C369 C368 1.403 . S
C369 H395 0.930 . S
C370 O384 1.275 . S
C370 O385 1.256 . S
C371 O386 1.259 . S
C371 O387 1.268 . S
C372 Ho361 2.811 . S
C372 C373 1.488 . S
C372 O388 1.215 . S
C372 O389 1.289 . S
C373 C372 1.488 . S
C373 C374 1.348 1_556 S
C373 C378 1.413 1_556 S
C374 C373 1.348 1_554 S
C374 C375 1.442 . S
C374 H396 0.930 . S
C375 C374 1.442 . S
C375 C376 1.381 . S
C375 H397 0.931 . S
C376 C375 1.381 . S
C376 C377 1.321 . S
C377 C376 1.321 . S
C377 C378 1.403 . S
C377 H398 0.934 . S
C378 C373 1.413 1_554 S
C378 C377 1.403 . S
C378 H399 0.930 1_554 S
C379 O390 1.275 . S
C379 O391 1.256 . S
O380 Ho360 2.322 . S
O380 C362 1.259 . S
O381 Ho361 2.346 . S
O381 C362 1.268 . S
O382 Ho360 2.378 . S
O382 C363 1.215 . S
O383 Ho360 2.524 . S
O383 C363 1.289 . S
O384 Ho360 2.381 . S
O384 C370 1.275 . S
O385 Ho360 2.669 . S
O385 Ho361 2.305 . S
O385 C370 1.256 . S
O386 Ho361 2.322 . S
O386 C371 1.259 . S
O387 Ho360 2.346 . S
O387 C371 1.268 . S
O388 Ho361 2.378 . S
O388 C372 1.215 . S
O389 Ho361 2.524 . S
O389 C372 1.289 . S
O390 Ho361 2.381 . S
O390 C379 1.275 . S
O391 Ho360 2.305 . S
O391 Ho361 2.669 . S
O391 C379 1.256 . S
H392 C365 0.930 . S
H393 C366 0.931 . S
H394 C368 0.934 . S
H395 C369 0.930 . S
H396 C374 0.930 . S
H397 C375 0.931 . S
H398 C377 0.934 . S
H399 C378 0.930 1_556 S
Ho400 C403 2.811 . S
Ho400 O420 2.322 . S
Ho400 O422 2.378 . S
Ho400 O423 2.524 . S
Ho400 O424 2.381 . S
Ho400 O425 2.669 . S
Ho400 O427 2.346 . S
Ho400 O431 2.305 . S
Ho401 C412 2.811 . S
Ho401 O421 2.346 . S
Ho401 O425 2.305 . S
Ho401 O426 2.322 . S
Ho401 O428 2.378 . S
Ho401 O429 2.524 . S
Ho401 O430 2.381 . S
Ho401 O431 2.669 . S
C402 O420 1.259 . S
C402 O421 1.268 . S
C403 Ho400 2.811 . S
C403 C404 1.488 . S
C403 O422 1.215 . S
C403 O423 1.289 . S
C404 C403 1.488 . S
C404 C405 1.348 . S
C404 C409 1.413 . S
C405 C404 1.348 . S
C405 C406 1.442 . S
C405 H432 0.930 . S
C406 C405 1.442 . S
C406 C407 1.381 . S
C406 H433 0.931 . S
C407 C406 1.381 . S
C407 C408 1.321 . S
C408 C407 1.321 . S
C408 C409 1.403 . S
C408 H434 0.934 . S
C409 C404 1.413 . S
C409 C408 1.403 . S
C409 H435 0.930 . S
C410 O424 1.275 . S
C410 O425 1.256 . S
C411 O426 1.259 . S
C411 O427 1.268 . S
C412 Ho401 2.811 . S
C412 C413 1.488 . S
C412 O428 1.215 . S
C412 O429 1.289 . S
C413 C412 1.488 . S
C413 C414 1.348 . S
C413 C418 1.413 . S
C414 C413 1.348 . S
C414 C415 1.442 . S
C414 H436 0.930 . S
C415 C414 1.442 . S
C415 C416 1.381 . S
C415 H437 0.931 . S
C416 C415 1.381 . S
C416 C417 1.321 . S
C417 C416 1.321 . S
C417 C418 1.403 . S
C417 H438 0.934 . S
C418 C413 1.413 . S
C418 C417 1.403 . S
C418 H439 0.930 . S
C419 O430 1.275 . S
C419 O431 1.256 . S
O420 Ho400 2.322 . S
O420 C402 1.259 . S
O421 Ho401 2.346 . S
O421 C402 1.268 . S
O422 Ho400 2.378 . S
O422 C403 1.215 . S
O423 Ho400 2.524 . S
O423 C403 1.289 . S
O424 Ho400 2.381 . S
O424 C410 1.275 . S
O425 Ho400 2.669 . S
O425 Ho401 2.305 . S
O425 C410 1.256 . S
O426 Ho401 2.322 . S
O426 C411 1.259 . S
O427 Ho400 2.346 . S
O427 C411 1.268 . S
O428 Ho401 2.378 . S
O428 C412 1.215 . S
O429 Ho401 2.524 . S
O429 C412 1.289 . S
O430 Ho401 2.381 . S
O430 C419 1.275 . S
O431 Ho400 2.305 . S
O431 Ho401 2.669 . S
O431 C419 1.256 . S
H432 C405 0.930 . S
H433 C406 0.931 . S
H434 C408 0.934 . S
H435 C409 0.930 . S
H436 C414 0.930 . S
H437 C415 0.931 . S
H438 C417 0.934 . S
H439 C418 0.930 . S
Ho440 C443 2.811 . S
Ho440 O460 2.322 . S
Ho440 O462 2.378 . S
Ho440 O463 2.524 . S
Ho440 O464 2.381 . S
Ho440 O465 2.669 . S
Ho440 O467 2.346 . S
Ho440 O471 2.305 . S
Ho441 C452 2.811 . S
Ho441 O461 2.346 . S
Ho441 O465 2.305 . S
Ho441 O466 2.322 . S
Ho441 O468 2.378 . S
Ho441 O469 2.524 . S
Ho441 O470 2.381 . S
Ho441 O471 2.669 . S
C442 O460 1.259 . S
C442 O461 1.268 . S
C443 Ho440 2.811 . S
C443 C444 1.488 . S
C443 O462 1.215 . S
C443 O463 1.289 . S
C444 C443 1.488 . S
C444 C445 1.348 . S
C444 C449 1.413 . S
C445 C444 1.348 . S
C445 C446 1.442 . S
C445 H472 0.930 . S
C446 C445 1.442 . S
C446 C447 1.381 . S
C446 H473 0.931 . S
C447 C446 1.381 . S
C447 C448 1.321 . S
C448 C447 1.321 . S
C448 C449 1.403 . S
C448 H474 0.934 . S
C449 C444 1.413 . S
C449 C448 1.403 . S
C449 H475 0.930 . S
C450 O464 1.275 . S
C450 O465 1.256 . S
C451 O466 1.259 . S
C451 O467 1.268 . S
C452 Ho441 2.811 . S
C452 C453 1.488 . S
C452 O468 1.215 . S
C452 O469 1.289 . S
C453 C452 1.488 . S
C453 C454 1.348 . S
C453 C458 1.413 . S
C454 C453 1.348 . S
C454 C455 1.442 . S
C454 H476 0.930 . S
C455 C454 1.442 . S
C455 C456 1.381 . S
C455 H477 0.931 . S
C456 C455 1.381 . S
C456 C457 1.321 . S
C457 C456 1.321 . S
C457 C458 1.403 . S
C457 H478 0.934 . S
C458 C453 1.413 . S
C458 C457 1.403 . S
C458 H479 0.930 . S
C459 O470 1.275 . S
C459 O471 1.256 . S
O460 Ho440 2.322 . S
O460 C442 1.259 . S
O461 Ho441 2.346 . S
O461 C442 1.268 . S
O462 Ho440 2.378 . S
O462 C443 1.215 . S
O463 Ho440 2.524 . S
O463 C443 1.289 . S
O464 Ho440 2.381 . S
O464 C450 1.275 . S
O465 Ho440 2.669 . S
O465 Ho441 2.305 . S
O465 C450 1.256 . S
O466 Ho441 2.322 . S
O466 C451 1.259 . S
O467 Ho440 2.346 . S
O467 C451 1.268 . S
O468 Ho441 2.378 . S
O468 C452 1.215 . S
O469 Ho441 2.524 . S
O469 C452 1.289 . S
O470 Ho441 2.381 . S
O470 C459 1.275 . S
O471 Ho440 2.305 . S
O471 Ho441 2.669 . S
O471 C459 1.256 . S
H472 C445 0.930 . S
H473 C446 0.931 . S
H474 C448 0.934 . S
H475 C449 0.930 . S
H476 C454 0.930 . S
H477 C455 0.931 . S
H478 C457 0.934 . S
H479 C458 0.930 . S
Ho480 C483 2.811 . S
Ho480 O500 2.322 . S
Ho480 O502 2.378 . S
Ho480 O503 2.524 . S
Ho480 O504 2.381 . S
Ho480 O505 2.669 . S
Ho480 O507 2.346 . S
Ho480 O511 2.305 . S
Ho481 C492 2.811 . S
Ho481 O501 2.346 . S
Ho481 O505 2.305 . S
Ho481 O506 2.322 . S
Ho481 O508 2.378 . S
Ho481 O509 2.524 . S
Ho481 O510 2.381 . S
Ho481 O511 2.669 . S
C482 O500 1.259 . S
C482 O501 1.268 . S
C483 Ho480 2.811 . S
C483 C484 1.488 . S
C483 O502 1.215 . S
C483 O503 1.289 . S
C484 C483 1.488 . S
C484 C485 1.348 1_554 S
C484 C489 1.413 1_554 S
C485 C484 1.348 1_556 S
C485 C486 1.442 . S
C485 H512 0.930 . S
C486 C485 1.442 . S
C486 C487 1.381 . S
C486 H513 0.931 . S
C487 C486 1.381 . S
C487 C488 1.321 . S
C488 C487 1.321 . S
C488 C489 1.403 . S
C488 H514 0.934 . S
C489 C484 1.413 1_556 S
C489 C488 1.403 . S
C489 H515 0.930 1_556 S
C490 O504 1.275 . S
C490 O505 1.256 . S
C491 O506 1.259 . S
C491 O507 1.268 . S
C492 Ho481 2.811 . S
C492 C493 1.488 . S
C492 O508 1.215 . S
C492 O509 1.289 . S
C493 C492 1.488 . S
C493 C494 1.348 . S
C493 C498 1.413 . S
C494 C493 1.348 . S
C494 C495 1.442 . S
C494 H516 0.930 . S
C495 C494 1.442 . S
C495 C496 1.381 . S
C495 H517 0.931 . S
C496 C495 1.381 . S
C496 C497 1.321 . S
C497 C496 1.321 . S
C497 C498 1.403 . S
C497 H518 0.934 . S
C498 C493 1.413 . S
C498 C497 1.403 . S
C498 H519 0.930 . S
C499 O510 1.275 . S
C499 O511 1.256 . S
O500 Ho480 2.322 . S
O500 C482 1.259 . S
O501 Ho481 2.346 . S
O501 C482 1.268 . S
O502 Ho480 2.378 . S
O502 C483 1.215 . S
O503 Ho480 2.524 . S
O503 C483 1.289 . S
O504 Ho480 2.381 . S
O504 C490 1.275 . S
O505 Ho480 2.669 . S
O505 Ho481 2.305 . S
O505 C490 1.256 . S
O506 Ho481 2.322 . S
O506 C491 1.259 . S
O507 Ho480 2.346 . S
O507 C491 1.268 . S
O508 Ho481 2.378 . S
O508 C492 1.215 . S
O509 Ho481 2.524 . S
O509 C492 1.289 . S
O510 Ho481 2.381 . S
O510 C499 1.275 . S
O511 Ho480 2.305 . S
O511 Ho481 2.669 . S
O511 C499 1.256 . S
H512 C485 0.930 . S
H513 C486 0.931 . S
H514 C488 0.934 . S
H515 C489 0.930 1_554 S
H516 C494 0.930 . S
H517 C495 0.931 . S
H518 C497 0.934 . S
H519 C498 0.930 . S
Ho520 C523 2.811 . S
Ho520 O540 2.322 . S
Ho520 O542 2.378 . S
Ho520 O543 2.524 . S
Ho520 O544 2.381 . S
Ho520 O545 2.669 . S
Ho520 O547 2.346 . S
Ho520 O551 2.305 . S
Ho521 C532 2.811 . S
Ho521 O541 2.346 . S
Ho521 O545 2.305 . S
Ho521 O546 2.322 . S
Ho521 O548 2.378 . S
Ho521 O549 2.524 . S
Ho521 O550 2.381 . S
Ho521 O551 2.669 . S
C522 O540 1.259 . S
C522 O541 1.268 . S
C523 Ho520 2.811 . S
C523 C524 1.488 . S
C523 O542 1.215 . S
C523 O543 1.289 . S
C524 C523 1.488 . S
C524 C525 1.348 1_554 S
C524 C529 1.413 1_554 S
C525 C524 1.348 1_556 S
C525 C526 1.442 . S
C525 H552 0.930 . S
C526 C525 1.442 . S
C526 C527 1.381 . S
C526 H553 0.931 . S
C527 C526 1.381 . S
C527 C528 1.321 . S
C528 C527 1.321 . S
C528 C529 1.403 . S
C528 H554 0.934 . S
C529 C524 1.413 1_556 S
C529 C528 1.403 . S
C529 H555 0.930 1_556 S
C530 O544 1.275 . S
C530 O545 1.256 . S
C531 O546 1.259 . S
C531 O547 1.268 . S
C532 Ho521 2.811 . S
C532 C533 1.488 . S
C532 O548 1.215 . S
C532 O549 1.289 . S
C533 C532 1.488 . S
C533 C534 1.348 . S
C533 C538 1.413 . S
C534 C533 1.348 . S
C534 C535 1.442 . S
C534 H556 0.930 . S
C535 C534 1.442 . S
C535 C536 1.381 . S
C535 H557 0.931 . S
C536 C535 1.381 . S
C536 C537 1.321 . S
C537 C536 1.321 . S
C537 C538 1.403 . S
C537 H558 0.934 . S
C538 C533 1.413 . S
C538 C537 1.403 . S
C538 H559 0.930 . S
C539 O550 1.275 . S
C539 O551 1.256 . S
O540 Ho520 2.322 . S
O540 C522 1.259 . S
O541 Ho521 2.346 . S
O541 C522 1.268 . S
O542 Ho520 2.378 . S
O542 C523 1.215 . S
O543 Ho520 2.524 . S
O543 C523 1.289 . S
O544 Ho520 2.381 . S
O544 C530 1.275 . S
O545 Ho520 2.669 . S
O545 Ho521 2.305 . S
O545 C530 1.256 . S
O546 Ho521 2.322 . S
O546 C531 1.259 . S
O547 Ho520 2.346 . S
O547 C531 1.268 . S
O548 Ho521 2.378 . S
O548 C532 1.215 . S
O549 Ho521 2.524 . S
O549 C532 1.289 . S
O550 Ho521 2.381 . S
O550 C539 1.275 . S
O551 Ho520 2.305 . S
O551 Ho521 2.669 . S
O551 C539 1.256 . S
H552 C525 0.930 . S
H553 C526 0.931 . S
H554 C528 0.934 . S
H555 C529 0.930 1_554 S
H556 C534 0.930 . S
H557 C535 0.931 . S
H558 C537 0.934 . S
H559 C538 0.930 . S
Ho560 C563 2.811 . S
Ho560 O580 2.322 . S
Ho560 O582 2.378 . S
Ho560 O583 2.524 . S
Ho560 O584 2.381 . S
Ho560 O585 2.669 . S
Ho560 O587 2.346 . S
Ho560 O591 2.305 . S
Ho561 C572 2.811 . S
Ho561 O581 2.346 . S
Ho561 O585 2.305 . S
Ho561 O586 2.322 . S
Ho561 O588 2.378 . S
Ho561 O589 2.524 . S
Ho561 O590 2.381 . S
Ho561 O591 2.669 . S
C562 O580 1.259 . S
C562 O581 1.268 . S
C563 Ho560 2.811 . S
C563 C564 1.488 . S
C563 O582 1.215 . S
C563 O583 1.289 . S
C564 C563 1.488 . S
C564 C565 1.348 . S
C564 C569 1.413 . S
C565 C564 1.348 . S
C565 C566 1.442 . S
C565 H592 0.930 . S
C566 C565 1.442 . S
C566 C567 1.381 . S
C566 H593 0.931 . S
C567 C566 1.381 . S
C567 C568 1.321 . S
C568 C567 1.321 . S
C568 C569 1.403 . S
C568 H594 0.934 . S
C569 C564 1.413 . S
C569 C568 1.403 . S
C569 H595 0.930 . S
C570 O584 1.275 . S
C570 O585 1.256 . S
C571 O586 1.259 . S
C571 O587 1.268 . S
C572 Ho561 2.811 . S
C572 C573 1.488 . S
C572 O588 1.215 . S
C572 O589 1.289 . S
C573 C572 1.488 . S
C573 C574 1.348 . S
C573 C578 1.413 . S
C574 C573 1.348 . S
C574 C575 1.442 . S
C574 H596 0.930 . S
C575 C574 1.442 . S
C575 C576 1.381 . S
C575 H597 0.931 . S
C576 C575 1.381 . S
C576 C577 1.321 . S
C577 C576 1.321 . S
C577 C578 1.403 . S
C577 H598 0.934 . S
C578 C573 1.413 . S
C578 C577 1.403 . S
C578 H599 0.930 . S
C579 O590 1.275 . S
C579 O591 1.256 . S
O580 Ho560 2.322 . S
O580 C562 1.259 . S
O581 Ho561 2.346 . S
O581 C562 1.268 . S
O582 Ho560 2.378 . S
O582 C563 1.215 . S
O583 Ho560 2.524 . S
O583 C563 1.289 . S
O584 Ho560 2.381 . S
O584 C570 1.275 . S
O585 Ho560 2.669 . S
O585 Ho561 2.305 . S
O585 C570 1.256 . S
O586 Ho561 2.322 . S
O586 C571 1.259 . S
O587 Ho560 2.346 . S
O587 C571 1.268 . S
O588 Ho561 2.378 . S
O588 C572 1.215 . S
O589 Ho561 2.524 . S
O589 C572 1.289 . S
O590 Ho561 2.381 . S
O590 C579 1.275 . S
O591 Ho560 2.305 . S
O591 Ho561 2.669 . S
O591 C579 1.256 . S
H592 C565 0.930 . S
H593 C566 0.931 . S
H594 C568 0.934 . S
H595 C569 0.930 . S
H596 C574 0.930 . S
H597 C575 0.931 . S
H598 C577 0.934 . S
H599 C578 0.930 . S
Ho600 C603 2.811 . S
Ho600 O620 2.322 . S
Ho600 O622 2.378 . S
Ho600 O623 2.524 . S
Ho600 O624 2.381 . S
Ho600 O625 2.669 . S
Ho600 O627 2.346 . S
Ho600 O631 2.305 . S
Ho601 C612 2.811 . S
Ho601 O621 2.346 . S
Ho601 O625 2.305 . S
Ho601 O626 2.322 . S
Ho601 O628 2.378 . S
Ho601 O629 2.524 . S
Ho601 O630 2.381 . S
Ho601 O631 2.669 . S
C602 O620 1.259 . S
C602 O621 1.268 . S
C603 Ho600 2.811 . S
C603 C604 1.488 . S
C603 O622 1.215 . S
C603 O623 1.289 . S
C604 C603 1.488 . S
C604 C605 1.348 . S
C604 C609 1.413 . S
C605 C604 1.348 . S
C605 C606 1.442 . S
C605 H632 0.930 . S
C606 C605 1.442 . S
C606 C607 1.381 . S
C606 H633 0.931 . S
C607 C606 1.381 . S
C607 C608 1.321 . S
C608 C607 1.321 . S
C608 C609 1.403 . S
C608 H634 0.934 . S
C609 C604 1.413 . S
C609 C608 1.403 . S
C609 H635 0.930 . S
C610 O624 1.275 . S
C610 O625 1.256 . S
C611 O626 1.259 . S
C611 O627 1.268 . S
C612 Ho601 2.811 . S
C612 C613 1.488 . S
C612 O628 1.215 . S
C612 O629 1.289 . S
C613 C612 1.488 . S
C613 C614 1.348 . S
C613 C618 1.413 . S
C614 C613 1.348 . S
C614 C615 1.442 . S
C614 H636 0.930 . S
C615 C614 1.442 . S
C615 C616 1.381 . S
C615 H637 0.931 . S
C616 C615 1.381 . S
C616 C617 1.321 . S
C617 C616 1.321 . S
C617 C618 1.403 . S
C617 H638 0.934 . S
C618 C613 1.413 . S
C618 C617 1.403 . S
C618 H639 0.930 . S
C619 O630 1.275 . S
C619 O631 1.256 . S
O620 Ho600 2.322 . S
O620 C602 1.259 . S
O621 Ho601 2.346 . S
O621 C602 1.268 . S
O622 Ho600 2.378 . S
O622 C603 1.215 . S
O623 Ho600 2.524 . S
O623 C603 1.289 . S
O624 Ho600 2.381 . S
O624 C610 1.275 . S
O625 Ho600 2.669 . S
O625 Ho601 2.305 . S
O625 C610 1.256 . S
O626 Ho601 2.322 . S
O626 C611 1.259 . S
O627 Ho600 2.346 . S
O627 C611 1.268 . S
O628 Ho601 2.378 . S
O628 C612 1.215 . S
O629 Ho601 2.524 . S
O629 C612 1.289 . S
O630 Ho601 2.381 . S
O630 C619 1.275 . S
O631 Ho600 2.305 . S
O631 Ho601 2.669 . S
O631 C619 1.256 . S
H632 C605 0.930 . S
H633 C606 0.931 . S
H634 C608 0.934 . S
H635 C609 0.930 . S
H636 C614 0.930 . S
H637 C615 0.931 . S
H638 C617 0.934 . S
H639 C618 0.930 . S
Ho640 C643 2.811 . S
Ho640 O660 2.322 . S
Ho640 O662 2.378 . S
Ho640 O663 2.524 . S
Ho640 O664 2.381 . S
Ho640 O665 2.669 . S
Ho640 O667 2.346 . S
Ho640 O671 2.305 . S
Ho641 C652 2.811 . S
Ho641 O661 2.346 . S
Ho641 O665 2.305 . S
Ho641 O666 2.322 . S
Ho641 O668 2.378 . S
Ho641 O669 2.524 . S
Ho641 O670 2.381 . S
Ho641 O671 2.669 . S
C642 O660 1.259 . S
C642 O661 1.268 . S
C643 Ho640 2.811 . S
C643 C644 1.488 . S
C643 O662 1.215 . S
C643 O663 1.289 . S
C644 C643 1.488 . S
C644 C645 1.348 . S
C644 C649 1.413 . S
C645 C644 1.348 . S
C645 C646 1.442 . S
C645 H672 0.930 . S
C646 C645 1.442 . S
C646 C647 1.381 . S
C646 H673 0.931 . S
C647 C646 1.381 . S
C647 C648 1.321 . S
C648 C647 1.321 . S
C648 C649 1.403 . S
C648 H674 0.934 . S
C649 C644 1.413 . S
C649 C648 1.403 . S
C649 H675 0.930 . S
C650 O664 1.275 . S
C650 O665 1.256 . S
C651 O666 1.259 . S
C651 O667 1.268 . S
C652 Ho641 2.811 . S
C652 C653 1.488 . S
C652 O668 1.215 . S
C652 O669 1.289 . S
C653 C652 1.488 . S
C653 C654 1.348 1_556 S
C653 C658 1.413 1_556 S
C654 C653 1.348 1_554 S
C654 C655 1.442 . S
C654 H676 0.930 . S
C655 C654 1.442 . S
C655 C656 1.381 . S
C655 H677 0.931 . S
C656 C655 1.381 . S
C656 C657 1.321 . S
C657 C656 1.321 . S
C657 C658 1.403 . S
C657 H678 0.934 . S
C658 C653 1.413 1_554 S
C658 C657 1.403 . S
C658 H679 0.930 1_554 S
C659 O670 1.275 . S
C659 O671 1.256 . S
O660 Ho640 2.322 . S
O660 C642 1.259 . S
O661 Ho641 2.346 . S
O661 C642 1.268 . S
O662 Ho640 2.378 . S
O662 C643 1.215 . S
O663 Ho640 2.524 . S
O663 C643 1.289 . S
O664 Ho640 2.381 . S
O664 C650 1.275 . S
O665 Ho640 2.669 . S
O665 Ho641 2.305 . S
O665 C650 1.256 . S
O666 Ho641 2.322 . S
O666 C651 1.259 . S
O667 Ho640 2.346 . S
O667 C651 1.268 . S
O668 Ho641 2.378 . S
O668 C652 1.215 . S
O669 Ho641 2.524 . S
O669 C652 1.289 . S
O670 Ho641 2.381 . S
O670 C659 1.275 . S
O671 Ho640 2.305 . S
O671 Ho641 2.669 . S
O671 C659 1.256 . S
H672 C645 0.930 . S
H673 C646 0.931 . S
H674 C648 0.934 . S
H675 C649 0.930 . S
H676 C654 0.930 . S
H677 C655 0.931 . S
H678 C657 0.934 . S
H679 C658 0.930 1_556 S
Ho680 C683 2.811 . S
Ho680 O700 2.322 . S
Ho680 O702 2.378 . S
Ho680 O703 2.524 1_565 S
Ho680 O704 2.381 . S
Ho680 O705 2.669 . S
Ho680 O707 2.346 . S
Ho680 O711 2.305 1_565 S
Ho681 C692 2.811 . S
Ho681 O701 2.346 . S
Ho681 O705 2.305 1_545 S
Ho681 O706 2.322 . S
Ho681 O708 2.378 . S
Ho681 O709 2.524 1_545 S
Ho681 O710 2.381 . S
Ho681 O711 2.669 . S
C682 O700 1.259 . S
C682 O701 1.268 1_565 S
C683 Ho680 2.811 . S
C683 C684 1.488 . S
C683 O702 1.215 . S
C683 O703 1.289 1_565 S
C684 C683 1.488 . S
C684 C685 1.348 . S
C684 C689 1.413 . S
C685 C684 1.348 . S
C685 C686 1.442 . S
C685 H712 0.930 1_565 S
C686 C685 1.442 . S
C686 C687 1.381 . S
C686 H713 0.931 1_565 S
C687 C686 1.381 . S
C687 C688 1.321 . S
C688 C687 1.321 . S
C688 C689 1.403 . S
C688 H714 0.934 . S
C689 C684 1.413 . S
C689 C688 1.403 . S
C689 H715 0.930 . S
C690 O704 1.275 . S
C690 O705 1.256 . S
C691 O706 1.259 . S
C691 O707 1.268 1_545 S
C692 Ho681 2.811 . S
C692 C693 1.488 . S
C692 O708 1.215 . S
C692 O709 1.289 1_545 S
C693 C692 1.488 . S
C693 C694 1.348 1_556 S
C693 C698 1.413 1_556 S
C694 C693 1.348 1_554 S
C694 C695 1.442 . S
C694 H716 0.930 1_545 S
C695 C694 1.442 . S
C695 C696 1.381 . S
C695 H717 0.931 1_545 S
C696 C695 1.381 . S
C696 C697 1.321 . S
C697 C696 1.321 . S
C697 C698 1.403 . S
C697 H718 0.934 . S
C698 C693 1.413 1_554 S
C698 C697 1.403 . S
C698 H719 0.930 1_554 S
C699 O710 1.275 . S
C699 O711 1.256 . S
O700 Ho680 2.322 . S
O700 C682 1.259 . S
O701 Ho681 2.346 . S
O701 C682 1.268 1_545 S
O702 Ho680 2.378 . S
O702 C683 1.215 . S
O703 Ho680 2.524 1_545 S
O703 C683 1.289 1_545 S
O704 Ho680 2.381 . S
O704 C690 1.275 . S
O705 Ho680 2.669 . S
O705 Ho681 2.305 1_565 S
O705 C690 1.256 . S
O706 Ho681 2.322 . S
O706 C691 1.259 . S
O707 Ho680 2.346 . S
O707 C691 1.268 1_565 S
O708 Ho681 2.378 . S
O708 C692 1.215 . S
O709 Ho681 2.524 1_565 S
O709 C692 1.289 1_565 S
O710 Ho681 2.381 . S
O710 C699 1.275 . S
O711 Ho680 2.305 1_545 S
O711 Ho681 2.669 . S
O711 C699 1.256 . S
H712 C685 0.930 1_545 S
H713 C686 0.931 1_545 S
H714 C688 0.934 . S
H715 C689 0.930 . S
H716 C694 0.930 1_565 S
H717 C695 0.931 1_565 S
H718 C697 0.934 . S
H719 C698 0.930 1_556 S
Ho720 C723 2.811 . S
Ho720 O740 2.322 . S
Ho720 O742 2.378 . S
Ho720 O743 2.524 1_565 S
Ho720 O744 2.381 . S
Ho720 O745 2.669 . S
Ho720 O747 2.346 . S
Ho720 O751 2.305 1_565 S
Ho721 C732 2.811 . S
Ho721 O741 2.346 . S
Ho721 O745 2.305 1_545 S
Ho721 O746 2.322 . S
Ho721 O748 2.378 . S
Ho721 O749 2.524 1_545 S
Ho721 O750 2.381 . S
Ho721 O751 2.669 . S
C722 O740 1.259 . S
C722 O741 1.268 1_565 S
C723 Ho720 2.811 . S
C723 C724 1.488 . S
C723 O742 1.215 . S
C723 O743 1.289 1_565 S
C724 C723 1.488 . S
C724 C725 1.348 . S
C724 C729 1.413 . S
C725 C724 1.348 . S
C725 C726 1.442 . S
C725 H752 0.930 1_565 S
C726 C725 1.442 . S
C726 C727 1.381 . S
C726 H753 0.931 1_565 S
C727 C726 1.381 . S
C727 C728 1.321 . S
C728 C727 1.321 . S
C728 C729 1.403 . S
C728 H754 0.934 . S
C729 C724 1.413 . S
C729 C728 1.403 . S
C729 H755 0.930 . S
C730 O744 1.275 . S
C730 O745 1.256 . S
C731 O746 1.259 . S
C731 O747 1.268 1_545 S
C732 Ho721 2.811 . S
C732 C733 1.488 . S
C732 O748 1.215 . S
C732 O749 1.289 1_545 S
C733 C732 1.488 . S
C733 C734 1.348 . S
C733 C738 1.413 . S
C734 C733 1.348 . S
C734 C735 1.442 . S
C734 H756 0.930 1_545 S
C735 C734 1.442 . S
C735 C736 1.381 . S
C735 H757 0.931 1_545 S
C736 C735 1.381 . S
C736 C737 1.321 . S
C737 C736 1.321 . S
C737 C738 1.403 . S
C737 H758 0.934 . S
C738 C733 1.413 . S
C738 C737 1.403 . S
C738 H759 0.930 . S
C739 O750 1.275 . S
C739 O751 1.256 . S
O740 Ho720 2.322 . S
O740 C722 1.259 . S
O741 Ho721 2.346 . S
O741 C722 1.268 1_545 S
O742 Ho720 2.378 . S
O742 C723 1.215 . S
O743 Ho720 2.524 1_545 S
O743 C723 1.289 1_545 S
O744 Ho720 2.381 . S
O744 C730 1.275 . S
O745 Ho720 2.669 . S
O745 Ho721 2.305 1_565 S
O745 C730 1.256 . S
O746 Ho721 2.322 . S
O746 C731 1.259 . S
O747 Ho720 2.346 . S
O747 C731 1.268 1_565 S
O748 Ho721 2.378 . S
O748 C732 1.215 . S
O749 Ho721 2.524 1_565 S
O749 C732 1.289 1_565 S
O750 Ho721 2.381 . S
O750 C739 1.275 . S
O751 Ho720 2.305 1_545 S
O751 Ho721 2.669 . S
O751 C739 1.256 . S
H752 C725 0.930 1_545 S
H753 C726 0.931 1_545 S
H754 C728 0.934 . S
H755 C729 0.930 . S
H756 C734 0.930 1_565 S
H757 C735 0.931 1_565 S
H758 C737 0.934 . S
H759 C738 0.930 . S
Ho760 C763 2.811 . S
Ho760 O780 2.322 . S
Ho760 O782 2.378 . S
Ho760 O783 2.524 . S
Ho760 O784 2.381 . S
Ho760 O785 2.669 . S
Ho760 O787 2.346 . S
Ho760 O791 2.305 . S
Ho761 C772 2.811 . S
Ho761 O781 2.346 . S
Ho761 O785 2.305 . S
Ho761 O786 2.322 . S
Ho761 O788 2.378 . S
Ho761 O789 2.524 . S
Ho761 O790 2.381 . S
Ho761 O791 2.669 . S
C762 O780 1.259 . S
C762 O781 1.268 . S
C763 Ho760 2.811 . S
C763 C764 1.488 . S
C763 O782 1.215 . S
C763 O783 1.289 . S
C764 C763 1.488 . S
C764 C765 1.348 . S
C764 C769 1.413 . S
C765 C764 1.348 . S
C765 C766 1.442 . S
C765 H792 0.930 . S
C766 C765 1.442 . S
C766 C767 1.381 . S
C766 H793 0.931 . S
C767 C766 1.381 . S
C767 C768 1.321 . S
C768 C767 1.321 . S
C768 C769 1.403 . S
C768 H794 0.934 . S
C769 C764 1.413 . S
C769 C768 1.403 . S
C769 H795 0.930 . S
C770 O784 1.275 . S
C770 O785 1.256 . S
C771 O786 1.259 . S
C771 O787 1.268 . S
C772 Ho761 2.811 . S
C772 C773 1.488 . S
C772 O788 1.215 . S
C772 O789 1.289 . S
C773 C772 1.488 . S
C773 C774 1.348 . S
C773 C778 1.413 . S
C774 C773 1.348 . S
C774 C775 1.442 . S
C774 H796 0.930 . S
C775 C774 1.442 . S
C775 C776 1.381 . S
C775 H797 0.931 . S
C776 C775 1.381 . S
C776 C777 1.321 . S
C777 C776 1.321 . S
C777 C778 1.403 . S
C777 H798 0.934 . S
C778 C773 1.413 . S
C778 C777 1.403 . S
C778 H799 0.930 . S
C779 O790 1.275 . S
C779 O791 1.256 . S
O780 Ho760 2.322 . S
O780 C762 1.259 . S
O781 Ho761 2.346 . S
O781 C762 1.268 . S
O782 Ho760 2.378 . S
O782 C763 1.215 . S
O783 Ho760 2.524 . S
O783 C763 1.289 . S
O784 Ho760 2.381 . S
O784 C770 1.275 . S
O785 Ho760 2.669 . S
O785 Ho761 2.305 . S
O785 C770 1.256 . S
O786 Ho761 2.322 . S
O786 C771 1.259 . S
O787 Ho760 2.346 . S
O787 C771 1.268 . S
O788 Ho761 2.378 . S
O788 C772 1.215 . S
O789 Ho761 2.524 . S
O789 C772 1.289 . S
O790 Ho761 2.381 . S
O790 C779 1.275 . S
O791 Ho760 2.305 . S
O791 Ho761 2.669 . S
O791 C779 1.256 . S
H792 C765 0.930 . S
H793 C766 0.931 . S
H794 C768 0.934 . S
H795 C769 0.930 . S
H796 C774 0.930 . S
H797 C775 0.931 . S
H798 C777 0.934 . S
H799 C778 0.930 . S
Ho800 C803 2.811 . S
Ho800 O820 2.322 . S
Ho800 O822 2.378 . S
Ho800 O823 2.524 . S
Ho800 O824 2.381 . S
Ho800 O825 2.669 . S
Ho800 O827 2.346 . S
Ho800 O831 2.305 . S
Ho801 C812 2.811 . S
Ho801 O821 2.346 . S
Ho801 O825 2.305 . S
Ho801 O826 2.322 . S
Ho801 O828 2.378 . S
Ho801 O829 2.524 . S
Ho801 O830 2.381 . S
Ho801 O831 2.669 . S
C802 O820 1.259 . S
C802 O821 1.268 . S
C803 Ho800 2.811 . S
C803 C804 1.488 . S
C803 O822 1.215 . S
C803 O823 1.289 . S
C804 C803 1.488 . S
C804 C805 1.348 1_554 S
C804 C809 1.413 1_554 S
C805 C804 1.348 1_556 S
C805 C806 1.442 . S
C805 H832 0.930 . S
C806 C805 1.442 . S
C806 C807 1.381 . S
C806 H833 0.931 . S
C807 C806 1.381 . S
C807 C808 1.321 . S
C808 C807 1.321 . S
C808 C809 1.403 . S
C808 H834 0.934 . S
C809 C804 1.413 1_556 S
C809 C808 1.403 . S
C809 H835 0.930 1_556 S
C810 O824 1.275 . S
C810 O825 1.256 . S
C811 O826 1.259 . S
C811 O827 1.268 . S
C812 Ho801 2.811 . S
C812 C813 1.488 . S
C812 O828 1.215 . S
C812 O829 1.289 . S
C813 C812 1.488 . S
C813 C814 1.348 . S
C813 C818 1.413 . S
C814 C813 1.348 . S
C814 C815 1.442 . S
C814 H836 0.930 . S
C815 C814 1.442 . S
C815 C816 1.381 . S
C815 H837 0.931 . S
C816 C815 1.381 . S
C816 C817 1.321 . S
C817 C816 1.321 . S
C817 C818 1.403 . S
C817 H838 0.934 . S
C818 C813 1.413 . S
C818 C817 1.403 . S
C818 H839 0.930 . S
C819 O830 1.275 . S
C819 O831 1.256 . S
O820 Ho800 2.322 . S
O820 C802 1.259 . S
O821 Ho801 2.346 . S
O821 C802 1.268 . S
O822 Ho800 2.378 . S
O822 C803 1.215 . S
O823 Ho800 2.524 . S
O823 C803 1.289 . S
O824 Ho800 2.381 . S
O824 C810 1.275 . S
O825 Ho800 2.669 . S
O825 Ho801 2.305 . S
O825 C810 1.256 . S
O826 Ho801 2.322 . S
O826 C811 1.259 . S
O827 Ho800 2.346 . S
O827 C811 1.268 . S
O828 Ho801 2.378 . S
O828 C812 1.215 . S
O829 Ho801 2.524 . S
O829 C812 1.289 . S
O830 Ho801 2.381 . S
O830 C819 1.275 . S
O831 Ho800 2.305 . S
O831 Ho801 2.669 . S
O831 C819 1.256 . S
H832 C805 0.930 . S
H833 C806 0.931 . S
H834 C808 0.934 . S
H835 C809 0.930 1_554 S
H836 C814 0.930 . S
H837 C815 0.931 . S
H838 C817 0.934 . S
H839 C818 0.930 . S
Ho840 C843 2.811 . S
Ho840 O860 2.322 . S
Ho840 O862 2.378 . S
Ho840 O863 2.524 1_565 S
Ho840 O864 2.381 . S
Ho840 O865 2.669 . S
Ho840 O867 2.346 . S
Ho840 O871 2.305 1_565 S
Ho841 C852 2.811 . S
Ho841 O861 2.346 . S
Ho841 O865 2.305 1_545 S
Ho841 O866 2.322 . S
Ho841 O868 2.378 . S
Ho841 O869 2.524 1_545 S
Ho841 O870 2.381 . S
Ho841 O871 2.669 . S
C842 O860 1.259 . S
C842 O861 1.268 1_565 S
C843 Ho840 2.811 . S
C843 C844 1.488 . S
C843 O862 1.215 . S
C843 O863 1.289 1_565 S
C844 C843 1.488 . S
C844 C845 1.348 1_554 S
C844 C849 1.413 1_554 S
C845 C844 1.348 1_556 S
C845 C846 1.442 . S
C845 H872 0.930 1_565 S
C846 C845 1.442 . S
C846 C847 1.381 . S
C846 H873 0.931 1_565 S
C847 C846 1.381 . S
C847 C848 1.321 . S
C848 C847 1.321 . S
C848 C849 1.403 . S
C848 H874 0.934 . S
C849 C844 1.413 1_556 S
C849 C848 1.403 . S
C849 H875 0.930 1_556 S
C850 O864 1.275 . S
C850 O865 1.256 . S
C851 O866 1.259 . S
C851 O867 1.268 1_545 S
C852 Ho841 2.811 . S
C852 C853 1.488 . S
C852 O868 1.215 . S
C852 O869 1.289 1_545 S
C853 C852 1.488 . S
C853 C854 1.348 . S
C853 C858 1.413 . S
C854 C853 1.348 . S
C854 C855 1.442 . S
C854 H876 0.930 1_545 S
C855 C854 1.442 . S
C855 C856 1.381 . S
C855 H877 0.931 1_545 S
C856 C855 1.381 . S
C856 C857 1.321 . S
C857 C856 1.321 . S
C857 C858 1.403 . S
C857 H878 0.934 . S
C858 C853 1.413 . S
C858 C857 1.403 . S
C858 H879 0.930 . S
C859 O870 1.275 . S
C859 O871 1.256 . S
O860 Ho840 2.322 . S
O860 C842 1.259 . S
O861 Ho841 2.346 . S
O861 C842 1.268 1_545 S
O862 Ho840 2.378 . S
O862 C843 1.215 . S
O863 Ho840 2.524 1_545 S
O863 C843 1.289 1_545 S
O864 Ho840 2.381 . S
O864 C850 1.275 . S
O865 Ho840 2.669 . S
O865 Ho841 2.305 1_565 S
O865 C850 1.256 . S
O866 Ho841 2.322 . S
O866 C851 1.259 . S
O867 Ho840 2.346 . S
O867 C851 1.268 1_565 S
O868 Ho841 2.378 . S
O868 C852 1.215 . S
O869 Ho841 2.524 1_565 S
O869 C852 1.289 1_565 S
O870 Ho841 2.381 . S
O870 C859 1.275 . S
O871 Ho840 2.305 1_545 S
O871 Ho841 2.669 . S
O871 C859 1.256 . S
H872 C845 0.930 1_545 S
H873 C846 0.931 1_545 S
H874 C848 0.934 . S
H875 C849 0.930 1_554 S
H876 C854 0.930 1_565 S
H877 C855 0.931 1_565 S
H878 C857 0.934 . S
H879 C858 0.930 . S
Ho880 C883 2.811 . S
Ho880 O900 2.322 . S
Ho880 O902 2.378 . S
Ho880 O903 2.524 1_565 S
Ho880 O904 2.381 . S
Ho880 O905 2.669 . S
Ho880 O907 2.346 . S
Ho880 O911 2.305 1_565 S
Ho881 C892 2.811 . S
Ho881 O901 2.346 . S
Ho881 O905 2.305 1_545 S
Ho881 O906 2.322 . S
Ho881 O908 2.378 . S
Ho881 O909 2.524 1_545 S
Ho881 O910 2.381 . S
Ho881 O911 2.669 . S
C882 O900 1.259 . S
C882 O901 1.268 1_565 S
C883 Ho880 2.811 . S
C883 C884 1.488 . S
C883 O902 1.215 . S
C883 O903 1.289 1_565 S
C884 C883 1.488 . S
C884 C885 1.348 . S
C884 C889 1.413 . S
C885 C884 1.348 . S
C885 C886 1.442 . S
C885 H912 0.930 1_565 S
C886 C885 1.442 . S
C886 C887 1.381 . S
C886 H913 0.931 1_565 S
C887 C886 1.381 . S
C887 C888 1.321 . S
C888 C887 1.321 . S
C888 C889 1.403 . S
C888 H914 0.934 . S
C889 C884 1.413 . S
C889 C888 1.403 . S
C889 H915 0.930 . S
C890 O904 1.275 . S
C890 O905 1.256 . S
C891 O906 1.259 . S
C891 O907 1.268 1_545 S
C892 Ho881 2.811 . S
C892 C893 1.488 . S
C892 O908 1.215 . S
C892 O909 1.289 1_545 S
C893 C892 1.488 . S
C893 C894 1.348 . S
C893 C898 1.413 . S
C894 C893 1.348 . S
C894 C895 1.442 . S
C894 H916 0.930 1_545 S
C895 C894 1.442 . S
C895 C896 1.381 . S
C895 H917 0.931 1_545 S
C896 C895 1.381 . S
C896 C897 1.321 . S
C897 C896 1.321 . S
C897 C898 1.403 . S
C897 H918 0.934 . S
C898 C893 1.413 . S
C898 C897 1.403 . S
C898 H919 0.930 . S
C899 O910 1.275 . S
C899 O911 1.256 . S
O900 Ho880 2.322 . S
O900 C882 1.259 . S
O901 Ho881 2.346 . S
O901 C882 1.268 1_545 S
O902 Ho880 2.378 . S
O902 C883 1.215 . S
O903 Ho880 2.524 1_545 S
O903 C883 1.289 1_545 S
O904 Ho880 2.381 . S
O904 C890 1.275 . S
O905 Ho880 2.669 . S
O905 Ho881 2.305 1_565 S
O905 C890 1.256 . S
O906 Ho881 2.322 . S
O906 C891 1.259 . S
O907 Ho880 2.346 . S
O907 C891 1.268 1_565 S
O908 Ho881 2.378 . S
O908 C892 1.215 . S
O909 Ho881 2.524 1_565 S
O909 C892 1.289 1_565 S
O910 Ho881 2.381 . S
O910 C899 1.275 . S
O911 Ho880 2.305 1_545 S
O911 Ho881 2.669 . S
O911 C899 1.256 . S
H912 C885 0.930 1_545 S
H913 C886 0.931 1_545 S
H914 C888 0.934 . S
H915 C889 0.930 . S
H916 C894 0.930 1_565 S
H917 C895 0.931 1_565 S
H918 C897 0.934 . S
H919 C898 0.930 . S
Ho920 C923 2.811 . S
Ho920 O940 2.322 . S
Ho920 O942 2.378 . S
Ho920 O943 2.524 . S
Ho920 O944 2.381 . S
Ho920 O945 2.669 . S
Ho920 O947 2.346 . S
Ho920 O951 2.305 . S
Ho921 C932 2.811 . S
Ho921 O941 2.346 . S
Ho921 O945 2.305 . S
Ho921 O946 2.322 . S
Ho921 O948 2.378 . S
Ho921 O949 2.524 . S
Ho921 O950 2.381 . S
Ho921 O951 2.669 . S
C922 O940 1.259 . S
C922 O941 1.268 . S
C923 Ho920 2.811 . S
C923 C924 1.488 . S
C923 O942 1.215 . S
C923 O943 1.289 . S
C924 C923 1.488 . S
C924 C925 1.348 . S
C924 C929 1.413 . S
C925 C924 1.348 . S
C925 C926 1.442 . S
C925 H952 0.930 . S
C926 C925 1.442 . S
C926 C927 1.381 . S
C926 H953 0.931 . S
C927 C926 1.381 . S
C927 C928 1.321 . S
C928 C927 1.321 . S
C928 C929 1.403 . S
C928 H954 0.934 . S
C929 C924 1.413 . S
C929 C928 1.403 . S
C929 H955 0.930 . S
C930 O944 1.275 . S
C930 O945 1.256 . S
C931 O946 1.259 . S
C931 O947 1.268 . S
C932 Ho921 2.811 . S
C932 C933 1.488 . S
C932 O948 1.215 . S
C932 O949 1.289 . S
C933 C932 1.488 . S
C933 C934 1.348 . S
C933 C938 1.413 . S
C934 C933 1.348 . S
C934 C935 1.442 . S
C934 H956 0.930 . S
C935 C934 1.442 . S
C935 C936 1.381 . S
C935 H957 0.931 . S
C936 C935 1.381 . S
C936 C937 1.321 . S
C937 C936 1.321 . S
C937 C938 1.403 . S
C937 H958 0.934 . S
C938 C933 1.413 . S
C938 C937 1.403 . S
C938 H959 0.930 . S
C939 O950 1.275 . S
C939 O951 1.256 . S
O940 Ho920 2.322 . S
O940 C922 1.259 . S
O941 Ho921 2.346 . S
O941 C922 1.268 . S
O942 Ho920 2.378 . S
O942 C923 1.215 . S
O943 Ho920 2.524 . S
O943 C923 1.289 . S
O944 Ho920 2.381 . S
O944 C930 1.275 . S
O945 Ho920 2.669 . S
O945 Ho921 2.305 . S
O945 C930 1.256 . S
O946 Ho921 2.322 . S
O946 C931 1.259 . S
O947 Ho920 2.346 . S
O947 C931 1.268 . S
O948 Ho921 2.378 . S
O948 C932 1.215 . S
O949 Ho921 2.524 . S
O949 C932 1.289 . S
O950 Ho921 2.381 . S
O950 C939 1.275 . S
O951 Ho920 2.305 . S
O951 Ho921 2.669 . S
O951 C939 1.256 . S
H952 C925 0.930 . S
H953 C926 0.931 . S
H954 C928 0.934 . S
H955 C929 0.930 . S
H956 C934 0.930 . S
H957 C935 0.931 . S
H958 C937 0.934 . S
H959 C938 0.930 . S
Ho960 C963 2.811 . S
Ho960 O980 2.322 . S
Ho960 O982 2.378 . S
Ho960 O983 2.524 . S
Ho960 O984 2.381 . S
Ho960 O985 2.669 . S
Ho960 O987 2.346 . S
Ho960 O991 2.305 . S
Ho961 C972 2.811 . S
Ho961 O981 2.346 . S
Ho961 O985 2.305 . S
Ho961 O986 2.322 . S
Ho961 O988 2.378 . S
Ho961 O989 2.524 . S
Ho961 O990 2.381 . S
Ho961 O991 2.669 . S
C962 O980 1.259 . S
C962 O981 1.268 . S
C963 Ho960 2.811 . S
C963 C964 1.488 1_554 S
C963 O982 1.215 . S
C963 O983 1.289 . S
C964 C963 1.488 1_556 S
C964 C965 1.348 . S
C964 C969 1.413 . S
C965 C964 1.348 . S
C965 C966 1.442 . S
C965 H992 0.930 . S
C966 C965 1.442 . S
C966 C967 1.381 . S
C966 H993 0.931 . S
C967 C966 1.381 . S
C967 C968 1.321 . S
C968 C967 1.321 . S
C968 C969 1.403 . S
C968 H994 0.934 . S
C969 C964 1.413 . S
C969 C968 1.403 . S
C969 H995 0.930 . S
C970 O984 1.275 . S
C970 O985 1.256 . S
C971 O986 1.259 . S
C971 O987 1.268 . S
C972 Ho961 2.811 . S
C972 C973 1.488 . S
C972 O988 1.215 . S
C972 O989 1.289 . S
C973 C972 1.488 . S
C973 C974 1.348 . S
C973 C978 1.413 . S
C974 C973 1.348 . S
C974 C975 1.442 . S
C974 H996 0.930 . S
C975 C974 1.442 . S
C975 C976 1.381 . S
C975 H997 0.931 . S
C976 C975 1.381 . S
C976 C977 1.321 . S
C977 C976 1.321 . S
C977 C978 1.403 . S
C977 H998 0.934 . S
C978 C973 1.413 . S
C978 C977 1.403 . S
C978 H999 0.930 . S
C979 O990 1.275 . S
C979 O991 1.256 . S
O980 Ho960 2.322 . S
O980 C962 1.259 . S
O981 Ho961 2.346 . S
O981 C962 1.268 . S
O982 Ho960 2.378 . S
O982 C963 1.215 . S
O983 Ho960 2.524 . S
O983 C963 1.289 . S
O984 Ho960 2.381 . S
O984 C970 1.275 . S
O985 Ho960 2.669 . S
O985 Ho961 2.305 . S
O985 C970 1.256 . S
O986 Ho961 2.322 . S
O986 C971 1.259 . S
O987 Ho960 2.346 . S
O987 C971 1.268 . S
O988 Ho961 2.378 . S
O988 C972 1.215 . S
O989 Ho961 2.524 . S
O989 C972 1.289 . S
O990 Ho961 2.381 . S
O990 C979 1.275 . S
O991 Ho960 2.305 . S
O991 Ho961 2.669 . S
O991 C979 1.256 . S
H992 C965 0.930 . S
H993 C966 0.931 . S
H994 C968 0.934 . S
H995 C969 0.930 . S
H996 C974 0.930 . S
H997 C975 0.931 . S
H998 C977 0.934 . S
H999 C978 0.930 . S
Ho1000 C1003 2.811 . S
Ho1000 O1020 2.322 . S
Ho1000 O1022 2.378 . S
Ho1000 O1023 2.524 . S
Ho1000 O1024 2.381 . S
Ho1000 O1025 2.669 . S
Ho1000 O1027 2.346 . S
Ho1000 O1031 2.305 . S
Ho1001 C1012 2.811 . S
Ho1001 O1021 2.346 . S
Ho1001 O1025 2.305 . S
Ho1001 O1026 2.322 . S
Ho1001 O1028 2.378 . S
Ho1001 O1029 2.524 . S
Ho1001 O1030 2.381 . S
Ho1001 O1031 2.669 . S
C1002 O1020 1.259 . S
C1002 O1021 1.268 . S
C1003 Ho1000 2.811 . S
C1003 C1004 1.488 1_554 S
C1003 O1022 1.215 . S
C1003 O1023 1.289 . S
C1004 C1003 1.488 1_556 S
C1004 C1005 1.348 . S
C1004 C1009 1.413 . S
C1005 C1004 1.348 . S
C1005 C1006 1.442 . S
C1005 H1032 0.930 . S
C1006 C1005 1.442 . S
C1006 C1007 1.381 . S
C1006 H1033 0.931 . S
C1007 C1006 1.381 . S
C1007 C1008 1.321 . S
C1008 C1007 1.321 . S
C1008 C1009 1.403 . S
C1008 H1034 0.934 . S
C1009 C1004 1.413 . S
C1009 C1008 1.403 . S
C1009 H1035 0.930 . S
C1010 O1024 1.275 . S
C1010 O1025 1.256 . S
C1011 O1026 1.259 . S
C1011 O1027 1.268 . S
C1012 Ho1001 2.811 . S
C1012 C1013 1.488 . S
C1012 O1028 1.215 . S
C1012 O1029 1.289 . S
C1013 C1012 1.488 . S
C1013 C1014 1.348 . S
C1013 C1018 1.413 . S
C1014 C1013 1.348 . S
C1014 C1015 1.442 . S
C1014 H1036 0.930 . S
C1015 C1014 1.442 . S
C1015 C1016 1.381 . S
C1015 H1037 0.931 . S
C1016 C1015 1.381 . S
C1016 C1017 1.321 . S
C1017 C1016 1.321 . S
C1017 C1018 1.403 . S
C1017 H1038 0.934 . S
C1018 C1013 1.413 . S
C1018 C1017 1.403 . S
C1018 H1039 0.930 . S
C1019 O1030 1.275 . S
C1019 O1031 1.256 . S
O1020 Ho1000 2.322 . S
O1020 C1002 1.259 . S
O1021 Ho1001 2.346 . S
O1021 C1002 1.268 . S
O1022 Ho1000 2.378 . S
O1022 C1003 1.215 . S
O1023 Ho1000 2.524 . S
O1023 C1003 1.289 . S
O1024 Ho1000 2.381 . S
O1024 C1010 1.275 . S
O1025 Ho1000 2.669 . S
O1025 Ho1001 2.305 . S
O1025 C1010 1.256 . S
O1026 Ho1001 2.322 . S
O1026 C1011 1.259 . S
O1027 Ho1000 2.346 . S
O1027 C1011 1.268 . S
O1028 Ho1001 2.378 . S
O1028 C1012 1.215 . S
O1029 Ho1001 2.524 . S
O1029 C1012 1.289 . S
O1030 Ho1001 2.381 . S
O1030 C1019 1.275 . S
O1031 Ho1000 2.305 . S
O1031 Ho1001 2.669 . S
O1031 C1019 1.256 . S
H1032 C1005 0.930 . S
H1033 C1006 0.931 . S
H1034 C1008 0.934 . S
H1035 C1009 0.930 . S
H1036 C1014 0.930 . S
H1037 C1015 0.931 . S
H1038 C1017 0.934 . S
H1039 C1018 0.930 . S
Ho1040 C1043 2.811 . S
Ho1040 O1060 2.322 . S
Ho1040 O1062 2.378 . S
Ho1040 O1063 2.524 . S
Ho1040 O1064 2.381 . S
Ho1040 O1065 2.669 1_554 S
Ho1040 O1067 2.346 . S
Ho1040 O1071 2.305 . S
Ho1041 C1052 2.811 . S
Ho1041 O1061 2.346 1_556 S
Ho1041 O1065 2.305 . S
Ho1041 O1066 2.322 . S
Ho1041 O1068 2.378 . S
Ho1041 O1069 2.524 . S
Ho1041 O1070 2.381 1_556 S
Ho1041 O1071 2.669 1_556 S
C1042 O1060 1.259 . S
C1042 O1061 1.268 . S
C1043 Ho1040 2.811 . S
C1043 C1044 1.488 . S
C1043 O1062 1.215 . S
C1043 O1063 1.289 . S
C1044 C1043 1.488 . S
C1044 C1045 1.348 . S
C1044 C1049 1.413 . S
C1045 C1044 1.348 . S
C1045 C1046 1.442 . S
C1045 H1072 0.930 . S
C1046 C1045 1.442 . S
C1046 C1047 1.381 . S
C1046 H1073 0.931 . S
C1047 C1046 1.381 . S
C1047 C1048 1.321 . S
C1048 C1047 1.321 . S
C1048 C1049 1.403 . S
C1048 H1074 0.934 . S
C1049 C1044 1.413 . S
C1049 C1048 1.403 . S
C1049 H1075 0.930 . S
C1050 O1064 1.275 . S
C1050 O1065 1.256 1_554 S
C1051 O1066 1.259 . S
C1051 O1067 1.268 1_556 S
C1052 Ho1041 2.811 . S
C1052 C1053 1.488 . S
C1052 O1068 1.215 . S
C1052 O1069 1.289 . S
C1053 C1052 1.488 . S
C1053 C1054 1.348 . S
C1053 C1058 1.413 . S
C1054 C1053 1.348 . S
C1054 C1055 1.442 . S
C1054 H1076 0.930 . S
C1055 C1054 1.442 . S
C1055 C1056 1.381 . S
C1055 H1077 0.931 . S
C1056 C1055 1.381 . S
C1056 C1057 1.321 . S
C1057 C1056 1.321 . S
C1057 C1058 1.403 . S
C1057 H1078 0.934 . S
C1058 C1053 1.413 . S
C1058 C1057 1.403 . S
C1058 H1079 0.930 . S
C1059 O1070 1.275 . S
C1059 O1071 1.256 . S
O1060 Ho1040 2.322 . S
O1060 C1042 1.259 . S
O1061 Ho1041 2.346 1_554 S
O1061 C1042 1.268 . S
O1062 Ho1040 2.378 . S
O1062 C1043 1.215 . S
O1063 Ho1040 2.524 . S
O1063 C1043 1.289 . S
O1064 Ho1040 2.381 . S
O1064 C1050 1.275 . S
O1065 Ho1040 2.669 1_556 S
O1065 Ho1041 2.305 . S
O1065 C1050 1.256 1_556 S
O1066 Ho1041 2.322 . S
O1066 C1051 1.259 . S
O1067 Ho1040 2.346 . S
O1067 C1051 1.268 1_554 S
O1068 Ho1041 2.378 . S
O1068 C1052 1.215 . S
O1069 Ho1041 2.524 . S
O1069 C1052 1.289 . S
O1070 Ho1041 2.381 1_554 S
O1070 C1059 1.275 . S
O1071 Ho1040 2.305 . S
O1071 Ho1041 2.669 1_554 S
O1071 C1059 1.256 . S
H1072 C1045 0.930 . S
H1073 C1046 0.931 . S
H1074 C1048 0.934 . S
H1075 C1049 0.930 . S
H1076 C1054 0.930 . S
H1077 C1055 0.931 . S
H1078 C1057 0.934 . S
H1079 C1058 0.930 . S
Ho1080 C1083 2.811 . S
Ho1080 O1100 2.322 . S
Ho1080 O1102 2.378 . S
Ho1080 O1103 2.524 . S
Ho1080 O1104 2.381 . S
Ho1080 O1105 2.669 1_554 S
Ho1080 O1107 2.346 . S
Ho1080 O1111 2.305 . S
Ho1081 C1092 2.811 . S
Ho1081 O1101 2.346 1_556 S
Ho1081 O1105 2.305 . S
Ho1081 O1106 2.322 . S
Ho1081 O1108 2.378 . S
Ho1081 O1109 2.524 . S
Ho1081 O1110 2.381 1_556 S
Ho1081 O1111 2.669 1_556 S
C1082 O1100 1.259 . S
C1082 O1101 1.268 . S
C1083 Ho1080 2.811 . S
C1083 C1084 1.488 . S
C1083 O1102 1.215 . S
C1083 O1103 1.289 . S
C1084 C1083 1.488 . S
C1084 C1085 1.348 . S
C1084 C1089 1.413 . S
C1085 C1084 1.348 . S
C1085 C1086 1.442 . S
C1085 H1112 0.930 . S
C1086 C1085 1.442 . S
C1086 C1087 1.381 . S
C1086 H1113 0.931 . S
C1087 C1086 1.381 . S
C1087 C1088 1.321 . S
C1088 C1087 1.321 . S
C1088 C1089 1.403 . S
C1088 H1114 0.934 . S
C1089 C1084 1.413 . S
C1089 C1088 1.403 . S
C1089 H1115 0.930 . S
C1090 O1104 1.275 . S
C1090 O1105 1.256 1_554 S
C1091 O1106 1.259 . S
C1091 O1107 1.268 1_556 S
C1092 Ho1081 2.811 . S
C1092 C1093 1.488 . S
C1092 O1108 1.215 . S
C1092 O1109 1.289 . S
C1093 C1092 1.488 . S
C1093 C1094 1.348 . S
C1093 C1098 1.413 . S
C1094 C1093 1.348 . S
C1094 C1095 1.442 . S
C1094 H1116 0.930 . S
C1095 C1094 1.442 . S
C1095 C1096 1.381 . S
C1095 H1117 0.931 . S
C1096 C1095 1.381 . S
C1096 C1097 1.321 . S
C1097 C1096 1.321 . S
C1097 C1098 1.403 . S
C1097 H1118 0.934 . S
C1098 C1093 1.413 . S
C1098 C1097 1.403 . S
C1098 H1119 0.930 . S
C1099 O1110 1.275 . S
C1099 O1111 1.256 . S
O1100 Ho1080 2.322 . S
O1100 C1082 1.259 . S
O1101 Ho1081 2.346 1_554 S
O1101 C1082 1.268 . S
O1102 Ho1080 2.378 . S
O1102 C1083 1.215 . S
O1103 Ho1080 2.524 . S
O1103 C1083 1.289 . S
O1104 Ho1080 2.381 . S
O1104 C1090 1.275 . S
O1105 Ho1080 2.669 1_556 S
O1105 Ho1081 2.305 . S
O1105 C1090 1.256 1_556 S
O1106 Ho1081 2.322 . S
O1106 C1091 1.259 . S
O1107 Ho1080 2.346 . S
O1107 C1091 1.268 1_554 S
O1108 Ho1081 2.378 . S
O1108 C1092 1.215 . S
O1109 Ho1081 2.524 . S
O1109 C1092 1.289 . S
O1110 Ho1081 2.381 1_554 S
O1110 C1099 1.275 . S
O1111 Ho1080 2.305 . S
O1111 Ho1081 2.669 1_554 S
O1111 C1099 1.256 . S
H1112 C1085 0.930 . S
H1113 C1086 0.931 . S
H1114 C1088 0.934 . S
H1115 C1089 0.930 . S
H1116 C1094 0.930 . S
H1117 C1095 0.931 . S
H1118 C1097 0.934 . S
H1119 C1098 0.930 . S
Ho1120 C1123 2.811 . S
Ho1120 O1140 2.322 . S
Ho1120 O1142 2.378 . S
Ho1120 O1143 2.524 . S
Ho1120 O1144 2.381 . S
Ho1120 O1145 2.669 . S
Ho1120 O1147 2.346 . S
Ho1120 O1151 2.305 . S
Ho1121 C1132 2.811 . S
Ho1121 O1141 2.346 . S
Ho1121 O1145 2.305 . S
Ho1121 O1146 2.322 . S
Ho1121 O1148 2.378 . S
Ho1121 O1149 2.524 . S
Ho1121 O1150 2.381 . S
Ho1121 O1151 2.669 . S
C1122 O1140 1.259 . S
C1122 O1141 1.268 . S
C1123 Ho1120 2.811 . S
C1123 C1124 1.488 . S
C1123 O1142 1.215 . S
C1123 O1143 1.289 . S
C1124 C1123 1.488 . S
C1124 C1125 1.348 . S
C1124 C1129 1.413 . S
C1125 C1124 1.348 . S
C1125 C1126 1.442 . S
C1125 H1152 0.930 . S
C1126 C1125 1.442 . S
C1126 C1127 1.381 . S
C1126 H1153 0.931 . S
C1127 C1126 1.381 . S
C1127 C1128 1.321 . S
C1128 C1127 1.321 . S
C1128 C1129 1.403 . S
C1128 H1154 0.934 . S
C1129 C1124 1.413 . S
C1129 C1128 1.403 . S
C1129 H1155 0.930 . S
C1130 O1144 1.275 . S
C1130 O1145 1.256 . S
C1131 O1146 1.259 . S
C1131 O1147 1.268 . S
C1132 Ho1121 2.811 . S
C1132 C1133 1.488 1_556 S
C1132 O1148 1.215 . S
C1132 O1149 1.289 . S
C1133 C1132 1.488 1_554 S
C1133 C1134 1.348 . S
C1133 C1138 1.413 . S
C1134 C1133 1.348 . S
C1134 C1135 1.442 . S
C1134 H1156 0.930 . S
C1135 C1134 1.442 . S
C1135 C1136 1.381 . S
C1135 H1157 0.931 . S
C1136 C1135 1.381 . S
C1136 C1137 1.321 . S
C1137 C1136 1.321 . S
C1137 C1138 1.403 . S
C1137 H1158 0.934 . S
C1138 C1133 1.413 . S
C1138 C1137 1.403 . S
C1138 H1159 0.930 . S
C1139 O1150 1.275 . S
C1139 O1151 1.256 . S
O1140 Ho1120 2.322 . S
O1140 C1122 1.259 . S
O1141 Ho1121 2.346 . S
O1141 C1122 1.268 . S
O1142 Ho1120 2.378 . S
O1142 C1123 1.215 . S
O1143 Ho1120 2.524 . S
O1143 C1123 1.289 . S
O1144 Ho1120 2.381 . S
O1144 C1130 1.275 . S
O1145 Ho1120 2.669 . S
O1145 Ho1121 2.305 . S
O1145 C1130 1.256 . S
O1146 Ho1121 2.322 . S
O1146 C1131 1.259 . S
O1147 Ho1120 2.346 . S
O1147 C1131 1.268 . S
O1148 Ho1121 2.378 . S
O1148 C1132 1.215 . S
O1149 Ho1121 2.524 . S
O1149 C1132 1.289 . S
O1150 Ho1121 2.381 . S
O1150 C1139 1.275 . S
O1151 Ho1120 2.305 . S
O1151 Ho1121 2.669 . S
O1151 C1139 1.256 . S
H1152 C1125 0.930 . S
H1153 C1126 0.931 . S
H1154 C1128 0.934 . S
H1155 C1129 0.930 . S
H1156 C1134 0.930 . S
H1157 C1135 0.931 . S
H1158 C1137 0.934 . S
H1159 C1138 0.930 . S
Ho1160 C1163 2.811 . S
Ho1160 O1180 2.322 . S
Ho1160 O1182 2.378 . S
Ho1160 O1183 2.524 . S
Ho1160 O1184 2.381 . S
Ho1160 O1185 2.669 . S
Ho1160 O1187 2.346 . S
Ho1160 O1191 2.305 . S
Ho1161 C1172 2.811 . S
Ho1161 O1181 2.346 . S
Ho1161 O1185 2.305 . S
Ho1161 O1186 2.322 . S
Ho1161 O1188 2.378 . S
Ho1161 O1189 2.524 . S
Ho1161 O1190 2.381 . S
Ho1161 O1191 2.669 . S
C1162 O1180 1.259 . S
C1162 O1181 1.268 . S
C1163 Ho1160 2.811 . S
C1163 C1164 1.488 . S
C1163 O1182 1.215 . S
C1163 O1183 1.289 . S
C1164 C1163 1.488 . S
C1164 C1165 1.348 . S
C1164 C1169 1.413 . S
C1165 C1164 1.348 . S
C1165 C1166 1.442 . S
C1165 H1192 0.930 . S
C1166 C1165 1.442 . S
C1166 C1167 1.381 . S
C1166 H1193 0.931 . S
C1167 C1166 1.381 . S
C1167 C1168 1.321 . S
C1168 C1167 1.321 . S
C1168 C1169 1.403 . S
C1168 H1194 0.934 . S
C1169 C1164 1.413 . S
C1169 C1168 1.403 . S
C1169 H1195 0.930 . S
C1170 O1184 1.275 . S
C1170 O1185 1.256 . S
C1171 O1186 1.259 . S
C1171 O1187 1.268 . S
C1172 Ho1161 2.811 . S
C1172 C1173 1.488 1_556 S
C1172 O1188 1.215 . S
C1172 O1189 1.289 . S
C1173 C1172 1.488 1_554 S
C1173 C1174 1.348 . S
C1173 C1178 1.413 . S
C1174 C1173 1.348 . S
C1174 C1175 1.442 . S
C1174 H1196 0.930 . S
C1175 C1174 1.442 . S
C1175 C1176 1.381 . S
C1175 H1197 0.931 . S
C1176 C1175 1.381 . S
C1176 C1177 1.321 . S
C1177 C1176 1.321 . S
C1177 C1178 1.403 . S
C1177 H1198 0.934 . S
C1178 C1173 1.413 . S
C1178 C1177 1.403 . S
C1178 H1199 0.930 . S
C1179 O1190 1.275 . S
C1179 O1191 1.256 . S
O1180 Ho1160 2.322 . S
O1180 C1162 1.259 . S
O1181 Ho1161 2.346 . S
O1181 C1162 1.268 . S
O1182 Ho1160 2.378 . S
O1182 C1163 1.215 . S
O1183 Ho1160 2.524 . S
O1183 C1163 1.289 . S
O1184 Ho1160 2.381 . S
O1184 C1170 1.275 . S
O1185 Ho1160 2.669 . S
O1185 Ho1161 2.305 . S
O1185 C1170 1.256 . S
O1186 Ho1161 2.322 . S
O1186 C1171 1.259 . S
O1187 Ho1160 2.346 . S
O1187 C1171 1.268 . S
O1188 Ho1161 2.378 . S
O1188 C1172 1.215 . S
O1189 Ho1161 2.524 . S
O1189 C1172 1.289 . S
O1190 Ho1161 2.381 . S
O1190 C1179 1.275 . S
O1191 Ho1160 2.305 . S
O1191 Ho1161 2.669 . S
O1191 C1179 1.256 . S
H1192 C1165 0.930 . S
H1193 C1166 0.931 . S
H1194 C1168 0.934 . S
H1195 C1169 0.930 . S
H1196 C1174 0.930 . S
H1197 C1175 0.931 . S
H1198 C1177 0.934 . S
H1199 C1178 0.930 . S
Ho1200 C1203 2.811 . S
Ho1200 O1220 2.322 . S
Ho1200 O1222 2.378 . S
Ho1200 O1223 2.524 . S
Ho1200 O1224 2.381 1_554 S
Ho1200 O1225 2.669 1_554 S
Ho1200 O1227 2.346 1_554 S
Ho1200 O1231 2.305 . S
Ho1201 C1212 2.811 . S
Ho1201 O1221 2.346 . S
Ho1201 O1225 2.305 . S
Ho1201 O1226 2.322 . S
Ho1201 O1228 2.378 . S
Ho1201 O1229 2.524 . S
Ho1201 O1230 2.381 . S
Ho1201 O1231 2.669 1_556 S
C1202 O1220 1.259 . S
C1202 O1221 1.268 1_554 S
C1203 Ho1200 2.811 . S
C1203 C1204 1.488 . S
C1203 O1222 1.215 . S
C1203 O1223 1.289 . S
C1204 C1203 1.488 . S
C1204 C1205 1.348 . S
C1204 C1209 1.413 . S
C1205 C1204 1.348 . S
C1205 C1206 1.442 . S
C1205 H1232 0.930 . S
C1206 C1205 1.442 . S
C1206 C1207 1.381 . S
C1206 H1233 0.931 . S
C1207 C1206 1.381 . S
C1207 C1208 1.321 . S
C1208 C1207 1.321 . S
C1208 C1209 1.403 . S
C1208 H1234 0.934 . S
C1209 C1204 1.413 . S
C1209 C1208 1.403 . S
C1209 H1235 0.930 . S
C1210 O1224 1.275 . S
C1210 O1225 1.256 . S
C1211 O1226 1.259 . S
C1211 O1227 1.268 . S
C1212 Ho1201 2.811 . S
C1212 C1213 1.488 . S
C1212 O1228 1.215 . S
C1212 O1229 1.289 . S
C1213 C1212 1.488 . S
C1213 C1214 1.348 . S
C1213 C1218 1.413 . S
C1214 C1213 1.348 . S
C1214 C1215 1.442 . S
C1214 H1236 0.930 . S
C1215 C1214 1.442 . S
C1215 C1216 1.381 . S
C1215 H1237 0.931 . S
C1216 C1215 1.381 . S
C1216 C1217 1.321 . S
C1217 C1216 1.321 . S
C1217 C1218 1.403 . S
C1217 H1238 0.934 . S
C1218 C1213 1.413 . S
C1218 C1217 1.403 . S
C1218 H1239 0.930 . S
C1219 O1230 1.275 . S
C1219 O1231 1.256 1_556 S
O1220 Ho1200 2.322 . S
O1220 C1202 1.259 . S
O1221 Ho1201 2.346 . S
O1221 C1202 1.268 1_556 S
O1222 Ho1200 2.378 . S
O1222 C1203 1.215 . S
O1223 Ho1200 2.524 . S
O1223 C1203 1.289 . S
O1224 Ho1200 2.381 1_556 S
O1224 C1210 1.275 . S
O1225 Ho1200 2.669 1_556 S
O1225 Ho1201 2.305 . S
O1225 C1210 1.256 . S
O1226 Ho1201 2.322 . S
O1226 C1211 1.259 . S
O1227 Ho1200 2.346 1_556 S
O1227 C1211 1.268 . S
O1228 Ho1201 2.378 . S
O1228 C1212 1.215 . S
O1229 Ho1201 2.524 . S
O1229 C1212 1.289 . S
O1230 Ho1201 2.381 . S
O1230 C1219 1.275 . S
O1231 Ho1200 2.305 . S
O1231 Ho1201 2.669 1_554 S
O1231 C1219 1.256 1_554 S
H1232 C1205 0.930 . S
H1233 C1206 0.931 . S
H1234 C1208 0.934 . S
H1235 C1209 0.930 . S
H1236 C1214 0.930 . S
H1237 C1215 0.931 . S
H1238 C1217 0.934 . S
H1239 C1218 0.930 . S
Ho1240 C1243 2.811 . S
Ho1240 O1260 2.322 . S
Ho1240 O1262 2.378 . S
Ho1240 O1263 2.524 . S
Ho1240 O1264 2.381 1_554 S
Ho1240 O1265 2.669 1_554 S
Ho1240 O1267 2.346 1_554 S
Ho1240 O1271 2.305 . S
Ho1241 C1252 2.811 . S
Ho1241 O1261 2.346 . S
Ho1241 O1265 2.305 . S
Ho1241 O1266 2.322 . S
Ho1241 O1268 2.378 . S
Ho1241 O1269 2.524 . S
Ho1241 O1270 2.381 . S
Ho1241 O1271 2.669 1_556 S
C1242 O1260 1.259 . S
C1242 O1261 1.268 1_554 S
C1243 Ho1240 2.811 . S
C1243 C1244 1.488 . S
C1243 O1262 1.215 . S
C1243 O1263 1.289 . S
C1244 C1243 1.488 . S
C1244 C1245 1.348 . S
C1244 C1249 1.413 . S
C1245 C1244 1.348 . S
C1245 C1246 1.442 . S
C1245 H1272 0.930 . S
C1246 C1245 1.442 . S
C1246 C1247 1.381 . S
C1246 H1273 0.931 . S
C1247 C1246 1.381 . S
C1247 C1248 1.321 . S
C1248 C1247 1.321 . S
C1248 C1249 1.403 . S
C1248 H1274 0.934 . S
C1249 C1244 1.413 . S
C1249 C1248 1.403 . S
C1249 H1275 0.930 . S
C1250 O1264 1.275 . S
C1250 O1265 1.256 . S
C1251 O1266 1.259 . S
C1251 O1267 1.268 . S
C1252 Ho1241 2.811 . S
C1252 C1253 1.488 . S
C1252 O1268 1.215 . S
C1252 O1269 1.289 . S
C1253 C1252 1.488 . S
C1253 C1254 1.348 . S
C1253 C1258 1.413 . S
C1254 C1253 1.348 . S
C1254 C1255 1.442 . S
C1254 H1276 0.930 . S
C1255 C1254 1.442 . S
C1255 C1256 1.381 . S
C1255 H1277 0.931 . S
C1256 C1255 1.381 . S
C1256 C1257 1.321 . S
C1257 C1256 1.321 . S
C1257 C1258 1.403 . S
C1257 H1278 0.934 . S
C1258 C1253 1.413 . S
C1258 C1257 1.403 . S
C1258 H1279 0.930 . S
C1259 O1270 1.275 . S
C1259 O1271 1.256 1_556 S
O1260 Ho1240 2.322 . S
O1260 C1242 1.259 . S
O1261 Ho1241 2.346 . S
O1261 C1242 1.268 1_556 S
O1262 Ho1240 2.378 . S
O1262 C1243 1.215 . S
O1263 Ho1240 2.524 . S
O1263 C1243 1.289 . S
O1264 Ho1240 2.381 1_556 S
O1264 C1250 1.275 . S
O1265 Ho1240 2.669 1_556 S
O1265 Ho1241 2.305 . S
O1265 C1250 1.256 . S
O1266 Ho1241 2.322 . S
O1266 C1251 1.259 . S
O1267 Ho1240 2.346 1_556 S
O1267 C1251 1.268 . S
O1268 Ho1241 2.378 . S
O1268 C1252 1.215 . S
O1269 Ho1241 2.524 . S
O1269 C1252 1.289 . S
O1270 Ho1241 2.381 . S
O1270 C1259 1.275 . S
O1271 Ho1240 2.305 . S
O1271 Ho1241 2.669 1_554 S
O1271 C1259 1.256 1_554 S
H1272 C1245 0.930 . S
H1273 C1246 0.931 . S
H1274 C1248 0.934 . S
H1275 C1249 0.930 . S
H1276 C1254 0.930 . S
H1277 C1255 0.931 . S
H1278 C1257 0.934 . S
H1279 C1258 0.930 . S
C1280 C1281 1.363 . S
C1280 C1286 1.379 1_556 S
C1280 N1288 1.356 . S
C1281 C1280 1.363 . S
C1281 C1287 1.363 . S
C1282 C1283 1.363 . S
C1282 C1287 1.379 1_554 S
C1282 N1289 1.356 . S
C1283 C1282 1.363 . S
C1283 C1286 1.363 . S
N1284 C1286 1.356 . S
N1284 H1296 0.984 . S
N1284 H1297 0.985 . S
N1285 C1287 1.356 . S
N1285 H1290 0.984 . S
N1285 H1291 0.985 . S
C1286 C1280 1.379 1_554 S
C1286 C1283 1.363 . S
C1286 N1284 1.356 . S
C1287 C1281 1.363 . S
C1287 C1282 1.379 1_556 S
C1287 N1285 1.356 . S
N1288 C1280 1.356 . S
N1288 H1294 0.984 . S
N1288 H1295 0.984 . S
N1289 C1282 1.356 . S
N1289 H1292 0.984 . S
N1289 H1293 0.985 . S
H1290 N1285 0.984 . S
H1291 N1285 0.985 . S
H1292 N1289 0.984 . S
H1293 N1289 0.985 . S
H1294 N1288 0.984 . S
H1295 N1288 0.984 . S
H1296 N1284 0.984 . S
H1297 N1284 0.985 . S
C1298 C1299 1.363 . S
C1298 C1304 1.379 1_556 S
C1298 N1306 1.356 . S
C1299 C1298 1.363 . S
C1299 C1305 1.363 1_445 S
C1300 C1301 1.363 . S
C1300 C1305 1.379 1_554 S
C1300 N1307 1.356 . S
C1301 C1300 1.363 . S
C1301 C1304 1.363 1_665 S
N1302 C1304 1.356 . S
N1302 H1314 0.984 . S
N1302 H1315 0.985 . S
N1303 C1305 1.356 . S
N1303 H1308 0.984 . S
N1303 H1309 0.985 . S
C1304 C1298 1.379 1_554 S
C1304 C1301 1.363 1_445 S
C1304 N1302 1.356 . S
C1305 C1299 1.363 1_665 S
C1305 C1300 1.379 1_556 S
C1305 N1303 1.356 . S
N1306 C1298 1.356 . S
N1306 H1312 0.984 . S
N1306 H1313 0.984 . S
N1307 C1300 1.356 . S
N1307 H1310 0.984 . S
N1307 H1311 0.985 . S
H1308 N1303 0.984 . S
H1309 N1303 0.985 . S
H1310 N1307 0.984 . S
H1311 N1307 0.985 . S
H1312 N1306 0.984 . S
H1313 N1306 0.984 . S
H1314 N1302 0.984 . S
H1315 N1302 0.985 . S
C1316 C1317 1.363 1_565 S
C1316 C1322 1.379 . S
C1316 N1324 1.356 . S
C1317 C1316 1.363 1_545 S
C1317 C1323 1.363 . S
C1318 C1319 1.363 1_545 S
C1318 C1323 1.379 . S
C1318 N1325 1.356 . S
C1319 C1318 1.363 1_565 S
C1319 C1322 1.363 . S
N1320 C1322 1.356 . S
N1320 H1332 0.984 . S
N1320 H1333 0.985 . S
N1321 C1323 1.356 . S
N1321 H1326 0.984 . S
N1321 H1327 0.985 . S
C1322 C1316 1.379 . S
C1322 C1319 1.363 . S
C1322 N1320 1.356 . S
C1323 C1317 1.363 . S
C1323 C1318 1.379 . S
C1323 N1321 1.356 . S
N1324 C1316 1.356 . S
N1324 H1330 0.984 . S
N1324 H1331 0.984 . S
N1325 C1318 1.356 . S
N1325 H1328 0.984 . S
N1325 H1329 0.985 . S
H1326 N1321 0.984 . S
H1327 N1321 0.985 . S
H1328 N1325 0.984 . S
H1329 N1325 0.985 . S
H1330 N1324 0.984 . S
H1331 N1324 0.984 . S
H1332 N1320 0.984 . S
H1333 N1320 0.985 . S
C1334 C1335 1.363 . S
C1334 C1340 1.379 . S
C1334 N1342 1.356 . S
C1335 C1334 1.363 . S
C1335 C1341 1.363 1_455 S
C1336 C1337 1.363 . S
C1336 C1341 1.379 . S
C1336 N1343 1.356 . S
C1337 C1336 1.363 . S
C1337 C1340 1.363 1_655 S
N1338 C1340 1.356 . S
N1338 H1350 0.984 . S
N1338 H1351 0.985 . S
N1339 C1341 1.356 . S
N1339 H1344 0.984 . S
N1339 H1345 0.985 . S
C1340 C1334 1.379 . S
C1340 C1337 1.363 1_455 S
C1340 N1338 1.356 . S
C1341 C1335 1.363 1_655 S
C1341 C1336 1.379 . S
C1341 N1339 1.356 . S
N1342 C1334 1.356 . S
N1342 H1348 0.984 . S
N1342 H1349 0.984 . S
N1343 C1336 1.356 . S
N1343 H1346 0.984 . S
N1343 H1347 0.985 . S
H1344 N1339 0.984 . S
H1345 N1339 0.985 . S
H1346 N1343 0.984 . S
H1347 N1343 0.985 . S
H1348 N1342 0.984 . S
H1349 N1342 0.984 . S
H1350 N1338 0.984 . S
H1351 N1338 0.985 . S
C1352 C1353 1.363 . S
C1352 C1358 1.379 1_556 S
C1352 N1360 1.356 . S
C1353 C1352 1.363 . S
C1353 C1359 1.363 . S
C1354 C1355 1.363 . S
C1354 C1359 1.379 1_554 S
C1354 N1361 1.356 . S
C1355 C1354 1.363 . S
C1355 C1358 1.363 . S
N1356 C1358 1.356 . S
N1356 H1368 0.984 . S
N1356 H1369 0.985 . S
N1357 C1359 1.356 . S
N1357 H1362 0.984 . S
N1357 H1363 0.985 . S
C1358 C1352 1.379 1_554 S
C1358 C1355 1.363 . S
C1358 N1356 1.356 . S
C1359 C1353 1.363 . S
C1359 C1354 1.379 1_556 S
C1359 N1357 1.356 . S
N1360 C1352 1.356 . S
N1360 H1366 0.984 . S
N1360 H1367 0.984 . S
N1361 C1354 1.356 . S
N1361 H1364 0.984 . S
N1361 H1365 0.985 . S
H1362 N1357 0.984 . S
H1363 N1357 0.985 . S
H1364 N1361 0.984 . S
H1365 N1361 0.985 . S
H1366 N1360 0.984 . S
H1367 N1360 0.984 . S
H1368 N1356 0.984 . S
H1369 N1356 0.985 . S
C1370 C1371 1.363 . S
C1370 C1376 1.379 . S
C1370 N1378 1.356 . S
C1371 C1370 1.363 . S
C1371 C1377 1.363 1_565 S
C1372 C1373 1.363 . S
C1372 C1377 1.379 . S
C1372 N1379 1.356 . S
C1373 C1372 1.363 . S
C1373 C1376 1.363 1_545 S
N1374 C1376 1.356 . S
N1374 H1386 0.984 . S
N1374 H1387 0.985 . S
N1375 C1377 1.356 . S
N1375 H1380 0.984 . S
N1375 H1381 0.985 . S
C1376 C1370 1.379 . S
C1376 C1373 1.363 1_565 S
C1376 N1374 1.356 . S
C1377 C1371 1.363 1_545 S
C1377 C1372 1.379 . S
C1377 N1375 1.356 . S
N1378 C1370 1.356 . S
N1378 H1384 0.984 . S
N1378 H1385 0.984 . S
N1379 C1372 1.356 . S
N1379 H1382 0.984 . S
N1379 H1383 0.985 . S
H1380 N1375 0.984 . S
H1381 N1375 0.985 . S
H1382 N1379 0.984 . S
H1383 N1379 0.985 . S
H1384 N1378 0.984 . S
H1385 N1378 0.984 . S
H1386 N1374 0.984 . S
H1387 N1374 0.985 . S
C1388 C1389 1.363 1_455 S
C1388 C1394 1.379 . S
C1388 N1396 1.356 . S
C1389 C1388 1.363 1_655 S
C1389 C1395 1.363 . S
C1390 C1391 1.363 1_655 S
C1390 C1395 1.379 . S
C1390 N1397 1.356 . S
C1391 C1390 1.363 1_455 S
C1391 C1394 1.363 . S
N1392 C1394 1.356 . S
N1392 H1404 0.984 . S
N1392 H1405 0.985 . S
N1393 C1395 1.356 . S
N1393 H1398 0.984 . S
N1393 H1399 0.985 . S
C1394 C1388 1.379 . S
C1394 C1391 1.363 . S
C1394 N1392 1.356 . S
C1395 C1389 1.363 . S
C1395 C1390 1.379 . S
C1395 N1393 1.356 . S
N1396 C1388 1.356 . S
N1396 H1402 0.984 . S
N1396 H1403 0.984 . S
N1397 C1390 1.356 . S
N1397 H1400 0.984 . S
N1397 H1401 0.985 . S
H1398 N1393 0.984 . S
H1399 N1393 0.985 . S
H1400 N1397 0.984 . S
H1401 N1397 0.985 . S
H1402 N1396 0.984 . S
H1403 N1396 0.984 . S
H1404 N1392 0.984 . S
H1405 N1392 0.985 . S
C1406 C1407 1.363 . S
C1406 C1412 1.379 . S
C1406 N1414 1.356 . S
C1407 C1406 1.363 . S
C1407 C1413 1.363 . S
C1408 C1409 1.363 . S
C1408 C1413 1.379 . S
C1408 N1415 1.356 . S
C1409 C1408 1.363 . S
C1409 C1412 1.363 . S
N1410 C1412 1.356 . S
N1410 H1422 0.984 . S
N1410 H1423 0.985 . S
N1411 C1413 1.356 . S
N1411 H1416 0.984 . S
N1411 H1417 0.985 . S
C1412 C1406 1.379 . S
C1412 C1409 1.363 . S
C1412 N1410 1.356 . S
C1413 C1407 1.363 . S
C1413 C1408 1.379 . S
C1413 N1411 1.356 . S
N1414 C1406 1.356 . S
N1414 H1420 0.984 . S
N1414 H1421 0.984 . S
N1415 C1408 1.356 . S
N1415 H1418 0.984 . S
N1415 H1419 0.985 . S
H1416 N1411 0.984 . S
H1417 N1411 0.985 . S
H1418 N1415 0.984 . S
H1419 N1415 0.985 . S
H1420 N1414 0.984 . S
H1421 N1414 0.984 . S
H1422 N1410 0.984 . S
H1423 N1410 0.985 . S
C1424 C1425 1.363 1_455 S
C1424 C1430 1.379 . S
C1424 N1432 1.356 . S
C1425 C1424 1.363 1_655 S
C1425 C1431 1.363 . S
C1426 C1427 1.363 1_655 S
C1426 C1431 1.379 . S
C1426 N1433 1.356 . S
C1427 C1426 1.363 1_455 S
C1427 C1430 1.363 . S
N1428 C1430 1.356 . S
N1428 H1440 0.984 . S
N1428 H1441 0.985 . S
N1429 C1431 1.356 . S
N1429 H1434 0.984 . S
N1429 H1435 0.985 . S
C1430 C1424 1.379 . S
C1430 C1427 1.363 . S
C1430 N1428 1.356 . S
C1431 C1425 1.363 . S
C1431 C1426 1.379 . S
C1431 N1429 1.356 . S
N1432 C1424 1.356 . S
N1432 H1438 0.984 . S
N1432 H1439 0.984 . S
N1433 C1426 1.356 . S
N1433 H1436 0.984 . S
N1433 H1437 0.985 . S
H1434 N1429 0.984 . S
H1435 N1429 0.985 . S
H1436 N1433 0.984 . S
H1437 N1433 0.985 . S
H1438 N1432 0.984 . S
H1439 N1432 0.984 . S
H1440 N1428 0.984 . S
H1441 N1428 0.985 . S
C1442 C1443 1.363 . S
C1442 C1448 1.379 . S
C1442 N1450 1.356 . S
C1443 C1442 1.363 . S
C1443 C1449 1.363 . S
C1444 C1445 1.363 . S
C1444 C1449 1.379 . S
C1444 N1451 1.356 . S
C1445 C1444 1.363 . S
C1445 C1448 1.363 . S
N1446 C1448 1.356 . S
N1446 H1458 0.984 . S
N1446 H1459 0.985 . S
N1447 C1449 1.356 . S
N1447 H1452 0.984 . S
N1447 H1453 0.985 . S
C1448 C1442 1.379 . S
C1448 C1445 1.363 . S
C1448 N1446 1.356 . S
C1449 C1443 1.363 . S
C1449 C1444 1.379 . S
C1449 N1447 1.356 . S
N1450 C1442 1.356 . S
N1450 H1456 0.984 . S
N1450 H1457 0.984 . S
N1451 C1444 1.356 . S
N1451 H1454 0.984 . S
N1451 H1455 0.985 . S
H1452 N1447 0.984 . S
H1453 N1447 0.985 . S
H1454 N1451 0.984 . S
H1455 N1451 0.985 . S
H1456 N1450 0.984 . S
H1457 N1450 0.984 . S
H1458 N1446 0.984 . S
H1459 N1446 0.985 . S
C1460 C1461 1.363 . S
C1460 C1466 1.379 . S
C1460 N1468 1.356 . S
C1461 C1460 1.363 . S
C1461 C1467 1.363 . S
C1462 C1463 1.363 . S
C1462 C1467 1.379 . S
C1462 N1469 1.356 . S
C1463 C1462 1.363 . S
C1463 C1466 1.363 . S
N1464 C1466 1.356 . S
N1464 H1476 0.984 . S
N1464 H1477 0.985 . S
N1465 C1467 1.356 . S
N1465 H1470 0.984 . S
N1465 H1471 0.985 . S
C1466 C1460 1.379 . S
C1466 C1463 1.363 . S
C1466 N1464 1.356 . S
C1467 C1461 1.363 . S
C1467 C1462 1.379 . S
C1467 N1465 1.356 . S
N1468 C1460 1.356 . S
N1468 H1474 0.984 . S
N1468 H1475 0.984 . S
N1469 C1462 1.356 . S
N1469 H1472 0.984 . S
N1469 H1473 0.985 . S
H1470 N1465 0.984 . S
H1471 N1465 0.985 . S
H1472 N1469 0.984 . S
H1473 N1469 0.985 . S
H1474 N1468 0.984 . S
H1475 N1468 0.984 . S
H1476 N1464 0.984 . S
H1477 N1464 0.985 . S
C1478 C1479 1.363 . S
C1478 C1484 1.379 . S
C1478 N1486 1.356 . S
C1479 C1478 1.363 . S
C1479 C1485 1.363 . S
C1480 C1481 1.363 . S
C1480 C1485 1.379 . S
C1480 N1487 1.356 . S
C1481 C1480 1.363 . S
C1481 C1484 1.363 . S
N1482 C1484 1.356 . S
N1482 H1494 0.984 . S
N1482 H1495 0.985 . S
N1483 C1485 1.356 . S
N1483 H1488 0.984 . S
N1483 H1489 0.985 . S
C1484 C1478 1.379 . S
C1484 C1481 1.363 . S
C1484 N1482 1.356 . S
C1485 C1479 1.363 . S
C1485 C1480 1.379 . S
C1485 N1483 1.356 . S
N1486 C1478 1.356 . S
N1486 H1492 0.984 . S
N1486 H1493 0.984 . S
N1487 C1480 1.356 . S
N1487 H1490 0.984 . S
N1487 H1491 0.985 . S
H1488 N1483 0.984 . S
H1489 N1483 0.985 . S
H1490 N1487 0.984 . S
H1491 N1487 0.985 . S
H1492 N1486 0.984 . S
H1493 N1486 0.984 . S
H1494 N1482 0.984 . S
H1495 N1482 0.985 . S
C1496 C1497 1.363 1_545 S
C1496 C1502 1.379 . S
C1496 N1504 1.356 . S
C1497 C1496 1.363 1_565 S
C1497 C1503 1.363 . S
C1498 C1499 1.363 1_565 S
C1498 C1503 1.379 . S
C1498 N1505 1.356 . S
C1499 C1498 1.363 1_545 S
C1499 C1502 1.363 . S
N1500 C1502 1.356 . S
N1500 H1512 0.984 . S
N1500 H1513 0.985 . S
N1501 C1503 1.356 . S
N1501 H1506 0.984 . S
N1501 H1507 0.985 . S
C1502 C1496 1.379 . S
C1502 C1499 1.363 . S
C1502 N1500 1.356 . S
C1503 C1497 1.363 . S
C1503 C1498 1.379 . S
C1503 N1501 1.356 . S
N1504 C1496 1.356 . S
N1504 H1510 0.984 . S
N1504 H1511 0.984 . S
N1505 C1498 1.356 . S
N1505 H1508 0.984 . S
N1505 H1509 0.985 . S
H1506 N1501 0.984 . S
H1507 N1501 0.985 . S
H1508 N1505 0.984 . S
H1509 N1505 0.985 . S
H1510 N1504 0.984 . S
H1511 N1504 0.984 . S
H1512 N1500 0.984 . S
H1513 N1500 0.985 . S
C1514 C1515 1.363 . S
C1514 C1520 1.379 . S
C1514 N1522 1.356 . S
C1515 C1514 1.363 . S
C1515 C1521 1.363 . S
C1516 C1517 1.363 . S
C1516 C1521 1.379 . S
C1516 N1523 1.356 . S
C1517 C1516 1.363 . S
C1517 C1520 1.363 . S
N1518 C1520 1.356 . S
N1518 H1530 0.984 . S
N1518 H1531 0.985 . S
N1519 C1521 1.356 . S
N1519 H1524 0.984 . S
N1519 H1525 0.985 . S
C1520 C1514 1.379 . S
C1520 C1517 1.363 . S
C1520 N1518 1.356 . S
C1521 C1515 1.363 . S
C1521 C1516 1.379 . S
C1521 N1519 1.356 . S
N1522 C1514 1.356 . S
N1522 H1528 0.984 . S
N1522 H1529 0.984 . S
N1523 C1516 1.356 . S
N1523 H1526 0.984 . S
N1523 H1527 0.985 . S
H1524 N1519 0.984 . S
H1525 N1519 0.985 . S
H1526 N1523 0.984 . S
H1527 N1523 0.985 . S
H1528 N1522 0.984 . S
H1529 N1522 0.984 . S
H1530 N1518 0.984 . S
H1531 N1518 0.985 . S
C1532 C1533 1.363 . S
C1532 C1538 1.379 . S
C1532 N1540 1.356 . S
C1533 C1532 1.363 . S
C1533 C1539 1.363 . S
C1534 C1535 1.363 . S
C1534 C1539 1.379 . S
C1534 N1541 1.356 . S
C1535 C1534 1.363 . S
C1535 C1538 1.363 . S
N1536 C1538 1.356 . S
N1536 H1548 0.984 . S
N1536 H1549 0.985 . S
N1537 C1539 1.356 . S
N1537 H1542 0.984 . S
N1537 H1543 0.985 . S
C1538 C1532 1.379 . S
C1538 C1535 1.363 . S
C1538 N1536 1.356 . S
C1539 C1533 1.363 . S
C1539 C1534 1.379 . S
C1539 N1537 1.356 . S
N1540 C1532 1.356 . S
N1540 H1546 0.984 . S
N1540 H1547 0.984 . S
N1541 C1534 1.356 . S
N1541 H1544 0.984 . S
N1541 H1545 0.985 . S
H1542 N1537 0.984 . S
H1543 N1537 0.985 . S
H1544 N1541 0.984 . S
H1545 N1541 0.985 . S
H1546 N1540 0.984 . S
H1547 N1540 0.984 . S
H1548 N1536 0.984 . S
H1549 N1536 0.985 . S
C1550 C1551 1.363 . S
C1550 C1556 1.379 1_556 S
C1550 N1558 1.356 . S
C1551 C1550 1.363 . S
C1551 C1557 1.363 . S
C1552 C1553 1.363 . S
C1552 C1557 1.379 1_554 S
C1552 N1559 1.356 . S
C1553 C1552 1.363 . S
C1553 C1556 1.363 . S
N1554 C1556 1.356 . S
N1554 H1566 0.984 . S
N1554 H1567 0.985 . S
N1555 C1557 1.356 . S
N1555 H1560 0.984 . S
N1555 H1561 0.985 . S
C1556 C1550 1.379 1_554 S
C1556 C1553 1.363 . S
C1556 N1554 1.356 . S
C1557 C1551 1.363 . S
C1557 C1552 1.379 1_556 S
C1557 N1555 1.356 . S
N1558 C1550 1.356 . S
N1558 H1564 0.984 . S
N1558 H1565 0.984 . S
N1559 C1552 1.356 . S
N1559 H1562 0.984 . S
N1559 H1563 0.985 . S
H1560 N1555 0.984 . S
H1561 N1555 0.985 . S
H1562 N1559 0.984 . S
H1563 N1559 0.985 . S
H1564 N1558 0.984 . S
H1565 N1558 0.984 . S
H1566 N1554 0.984 . S
H1567 N1554 0.985 . S
C1568 C1569 1.363 . S
C1568 C1574 1.379 . S
C1568 N1576 1.356 . S
C1569 C1568 1.363 . S
C1569 C1575 1.363 . S
C1570 C1571 1.363 . S
C1570 C1575 1.379 . S
C1570 N1577 1.356 . S
C1571 C1570 1.363 . S
C1571 C1574 1.363 . S
N1572 C1574 1.356 . S
N1572 H1584 0.984 . S
N1572 H1585 0.985 . S
N1573 C1575 1.356 . S
N1573 H1578 0.984 . S
N1573 H1579 0.985 . S
C1574 C1568 1.379 . S
C1574 C1571 1.363 . S
C1574 N1572 1.356 . S
C1575 C1569 1.363 . S
C1575 C1570 1.379 . S
C1575 N1573 1.356 . S
N1576 C1568 1.356 . S
N1576 H1582 0.984 . S
N1576 H1583 0.984 . S
N1577 C1570 1.356 . S
N1577 H1580 0.984 . S
N1577 H1581 0.985 . S
H1578 N1573 0.984 . S
H1579 N1573 0.985 . S
H1580 N1577 0.984 . S
H1581 N1577 0.985 . S
H1582 N1576 0.984 . S
H1583 N1576 0.984 . S
H1584 N1572 0.984 . S
H1585 N1572 0.985 . S
C1586 C1587 1.363 1_565 S
C1586 C1592 1.379 . S
C1586 N1594 1.356 . S
C1587 C1586 1.363 1_545 S
C1587 C1593 1.363 . S
C1588 C1589 1.363 . S
C1588 C1593 1.379 . S
C1588 N1595 1.356 . S
C1589 C1588 1.363 . S
C1589 C1592 1.363 1_545 S
N1590 C1592 1.356 . S
N1590 H1602 0.984 . S
N1590 H1603 0.985 . S
N1591 C1593 1.356 . S
N1591 H1596 0.984 . S
N1591 H1597 0.985 . S
C1592 C1586 1.379 . S
C1592 C1589 1.363 1_565 S
C1592 N1590 1.356 . S
C1593 C1587 1.363 . S
C1593 C1588 1.379 . S
C1593 N1591 1.356 . S
N1594 C1586 1.356 . S
N1594 H1600 0.984 . S
N1594 H1601 0.984 . S
N1595 C1588 1.356 . S
N1595 H1598 0.984 . S
N1595 H1599 0.985 . S
H1596 N1591 0.984 . S
H1597 N1591 0.985 . S
H1598 N1595 0.984 . S
H1599 N1595 0.985 . S
H1600 N1594 0.984 . S
H1601 N1594 0.984 . S
H1602 N1590 0.984 . S
H1603 N1590 0.985 . S
C1604 C1605 1.363 . S
C1604 C1610 1.379 . S
C1604 N1612 1.356 . S
C1605 C1604 1.363 . S
C1605 C1611 1.363 1_545 S
C1606 C1607 1.363 1_565 S
C1606 C1611 1.379 . S
C1606 N1613 1.356 . S
C1607 C1606 1.363 1_545 S
C1607 C1610 1.363 . S
N1608 C1610 1.356 . S
N1608 H1620 0.984 . S
N1608 H1621 0.985 . S
N1609 C1611 1.356 . S
N1609 H1614 0.984 . S
N1609 H1615 0.985 . S
C1610 C1604 1.379 . S
C1610 C1607 1.363 . S
C1610 N1608 1.356 . S
C1611 C1605 1.363 1_565 S
C1611 C1606 1.379 . S
C1611 N1609 1.356 . S
N1612 C1604 1.356 . S
N1612 H1618 0.984 . S
N1612 H1619 0.984 . S
N1613 C1606 1.356 . S
N1613 H1616 0.984 . S
N1613 H1617 0.985 . S
H1614 N1609 0.984 . S
H1615 N1609 0.985 . S
H1616 N1613 0.984 . S
H1617 N1613 0.985 . S
H1618 N1612 0.984 . S
H1619 N1612 0.984 . S
H1620 N1608 0.984 . S
H1621 N1608 0.985 . S
C1622 C1623 1.363 . S
C1622 C1628 1.379 . S
C1622 N1630 1.356 . S
C1623 C1622 1.363 . S
C1623 C1629 1.363 . S
C1624 C1625 1.363 . S
C1624 C1629 1.379 . S
C1624 N1631 1.356 . S
C1625 C1624 1.363 . S
C1625 C1628 1.363 . S
N1626 C1628 1.356 . S
N1626 H1638 0.984 . S
N1626 H1639 0.985 . S
N1627 C1629 1.356 . S
N1627 H1632 0.984 . S
N1627 H1633 0.985 . S
C1628 C1622 1.379 . S
C1628 C1625 1.363 . S
C1628 N1626 1.356 . S
C1629 C1623 1.363 . S
C1629 C1624 1.379 . S
C1629 N1627 1.356 . S
N1630 C1622 1.356 . S
N1630 H1636 0.984 . S
N1630 H1637 0.984 . S
N1631 C1624 1.356 . S
N1631 H1634 0.984 . S
N1631 H1635 0.985 . S
H1632 N1627 0.984 . S
H1633 N1627 0.985 . S
H1634 N1631 0.984 . S
H1635 N1631 0.985 . S
H1636 N1630 0.984 . S
H1637 N1630 0.984 . S
H1638 N1626 0.984 . S
H1639 N1626 0.985 . S
C1640 C1641 1.363 . S
C1640 C1646 1.379 . S
C1640 N1648 1.356 . S
C1641 C1640 1.363 . S
C1641 C1647 1.363 . S
C1642 C1643 1.363 . S
C1642 C1647 1.379 . S
C1642 N1649 1.356 . S
C1643 C1642 1.363 . S
C1643 C1646 1.363 . S
N1644 C1646 1.356 . S
N1644 H1656 0.984 . S
N1644 H1657 0.985 . S
N1645 C1647 1.356 . S
N1645 H1650 0.984 . S
N1645 H1651 0.985 . S
C1646 C1640 1.379 . S
C1646 C1643 1.363 . S
C1646 N1644 1.356 . S
C1647 C1641 1.363 . S
C1647 C1642 1.379 . S
C1647 N1645 1.356 . S
N1648 C1640 1.356 . S
N1648 H1654 0.984 . S
N1648 H1655 0.984 . S
N1649 C1642 1.356 . S
N1649 H1652 0.984 . S
N1649 H1653 0.985 . S
H1650 N1645 0.984 . S
H1651 N1645 0.985 . S
H1652 N1649 0.984 . S
H1653 N1649 0.985 . S
H1654 N1648 0.984 . S
H1655 N1648 0.984 . S
H1656 N1644 0.984 . S
H1657 N1644 0.985 . S
C1658 C1659 1.363 1_545 S
C1658 C1664 1.379 . S
C1658 N1666 1.356 . S
C1659 C1658 1.363 1_565 S
C1659 C1665 1.363 . S
C1660 C1661 1.363 . S
C1660 C1665 1.379 . S
C1660 N1667 1.356 . S
C1661 C1660 1.363 . S
C1661 C1664 1.363 1_565 S
N1662 C1664 1.356 . S
N1662 H1674 0.984 . S
N1662 H1675 0.985 . S
N1663 C1665 1.356 . S
N1663 H1668 0.984 . S
N1663 H1669 0.985 . S
C1664 C1658 1.379 . S
C1664 C1661 1.363 1_545 S
C1664 N1662 1.356 . S
C1665 C1659 1.363 . S
C1665 C1660 1.379 . S
C1665 N1663 1.356 . S
N1666 C1658 1.356 . S
N1666 H1672 0.984 . S
N1666 H1673 0.984 . S
N1667 C1660 1.356 . S
N1667 H1670 0.984 . S
N1667 H1671 0.985 . S
H1668 N1663 0.984 . S
H1669 N1663 0.985 . S
H1670 N1667 0.984 . S
H1671 N1667 0.985 . S
H1672 N1666 0.984 . S
H1673 N1666 0.984 . S
H1674 N1662 0.984 . S
H1675 N1662 0.985 . S
C1676 C1677 1.363 1_545 S
C1676 C1682 1.379 . S
C1676 N1684 1.356 . S
C1677 C1676 1.363 1_565 S
C1677 C1683 1.363 . S
C1678 C1679 1.363 . S
C1678 C1683 1.379 . S
C1678 N1685 1.356 . S
C1679 C1678 1.363 . S
C1679 C1682 1.363 1_565 S
N1680 C1682 1.356 . S
N1680 H1692 0.984 . S
N1680 H1693 0.985 . S
N1681 C1683 1.356 . S
N1681 H1686 0.984 . S
N1681 H1687 0.985 . S
C1682 C1676 1.379 . S
C1682 C1679 1.363 1_545 S
C1682 N1680 1.356 . S
C1683 C1677 1.363 . S
C1683 C1678 1.379 . S
C1683 N1681 1.356 . S
N1684 C1676 1.356 . S
N1684 H1690 0.984 . S
N1684 H1691 0.984 . S
N1685 C1678 1.356 . S
N1685 H1688 0.984 . S
N1685 H1689 0.985 . S
H1686 N1681 0.984 . S
H1687 N1681 0.985 . S
H1688 N1685 0.984 . S
H1689 N1685 0.985 . S
H1690 N1684 0.984 . S
H1691 N1684 0.984 . S
H1692 N1680 0.984 . S
H1693 N1680 0.985 . S
C1694 C1695 1.363 . S
C1694 C1700 1.379 . S
C1694 N1702 1.356 . S
C1695 C1694 1.363 . S
C1695 C1701 1.363 . S
C1696 C1697 1.363 . S
C1696 C1701 1.379 . S
C1696 N1703 1.356 . S
C1697 C1696 1.363 . S
C1697 C1700 1.363 . S
N1698 C1700 1.356 . S
N1698 H1710 0.984 . S
N1698 H1711 0.985 . S
N1699 C1701 1.356 . S
N1699 H1704 0.984 . S
N1699 H1705 0.985 . S
C1700 C1694 1.379 . S
C1700 C1697 1.363 . S
C1700 N1698 1.356 . S
C1701 C1695 1.363 . S
C1701 C1696 1.379 . S
C1701 N1699 1.356 . S
N1702 C1694 1.356 . S
N1702 H1708 0.984 . S
N1702 H1709 0.984 . S
N1703 C1696 1.356 . S
N1703 H1706 0.984 . S
N1703 H1707 0.985 . S
H1704 N1699 0.984 . S
H1705 N1699 0.985 . S
H1706 N1703 0.984 . S
H1707 N1703 0.985 . S
H1708 N1702 0.984 . S
H1709 N1702 0.984 . S
H1710 N1698 0.984 . S
H1711 N1698 0.985 . S
C1712 C1713 1.363 . S
C1712 C1718 1.379 . S
C1712 N1720 1.356 . S
C1713 C1712 1.363 . S
C1713 C1719 1.363 . S
C1714 C1715 1.363 . S
C1714 C1719 1.379 . S
C1714 N1721 1.356 . S
C1715 C1714 1.363 . S
C1715 C1718 1.363 . S
N1716 C1718 1.356 . S
N1716 H1728 0.984 . S
N1716 H1729 0.985 . S
N1717 C1719 1.356 . S
N1717 H1722 0.984 . S
N1717 H1723 0.985 . S
C1718 C1712 1.379 . S
C1718 C1715 1.363 . S
C1718 N1716 1.356 . S
C1719 C1713 1.363 . S
C1719 C1714 1.379 . S
C1719 N1717 1.356 . S
N1720 C1712 1.356 . S
N1720 H1726 0.984 . S
N1720 H1727 0.984 . S
N1721 C1714 1.356 . S
N1721 H1724 0.984 . S
N1721 H1725 0.985 . S
H1722 N1717 0.984 . S
H1723 N1717 0.985 . S
H1724 N1721 0.984 . S
H1725 N1721 0.985 . S
H1726 N1720 0.984 . S
H1727 N1720 0.984 . S
H1728 N1716 0.984 . S
H1729 N1716 0.985 . S
C1730 C1731 1.363 . S
C1730 C1736 1.379 . S
C1730 N1738 1.356 . S
C1731 C1730 1.363 . S
C1731 C1737 1.363 . S
C1732 C1733 1.363 . S
C1732 C1737 1.379 . S
C1732 N1739 1.356 . S
C1733 C1732 1.363 . S
C1733 C1736 1.363 . S
N1734 C1736 1.356 . S
N1734 H1746 0.984 . S
N1734 H1747 0.985 . S
N1735 C1737 1.356 . S
N1735 H1740 0.984 . S
N1735 H1741 0.985 . S
C1736 C1730 1.379 . S
C1736 C1733 1.363 . S
C1736 N1734 1.356 . S
C1737 C1731 1.363 . S
C1737 C1732 1.379 . S
C1737 N1735 1.356 . S
N1738 C1730 1.356 . S
N1738 H1744 0.984 . S
N1738 H1745 0.984 . S
N1739 C1732 1.356 . S
N1739 H1742 0.984 . S
N1739 H1743 0.985 . S
H1740 N1735 0.984 . S
H1741 N1735 0.985 . S
H1742 N1739 0.984 . S
H1743 N1739 0.985 . S
H1744 N1738 0.984 . S
H1745 N1738 0.984 . S
H1746 N1734 0.984 . S
H1747 N1734 0.985 . S
C1748 C1749 1.363 . S
C1748 C1754 1.379 . S
C1748 N1756 1.356 . S
C1749 C1748 1.363 . S
C1749 C1755 1.363 . S
C1750 C1751 1.363 . S
C1750 C1755 1.379 . S
C1750 N1757 1.356 . S
C1751 C1750 1.363 . S
C1751 C1754 1.363 . S
N1752 C1754 1.356 . S
N1752 H1764 0.984 . S
N1752 H1765 0.985 . S
N1753 C1755 1.356 . S
N1753 H1758 0.984 . S
N1753 H1759 0.985 . S
C1754 C1748 1.379 . S
C1754 C1751 1.363 . S
C1754 N1752 1.356 . S
C1755 C1749 1.363 . S
C1755 C1750 1.379 . S
C1755 N1753 1.356 . S
N1756 C1748 1.356 . S
N1756 H1762 0.984 . S
N1756 H1763 0.984 . S
N1757 C1750 1.356 . S
N1757 H1760 0.984 . S
N1757 H1761 0.985 . S
H1758 N1753 0.984 . S
H1759 N1753 0.985 . S
H1760 N1757 0.984 . S
H1761 N1757 0.985 . S
H1762 N1756 0.984 . S
H1763 N1756 0.984 . S
H1764 N1752 0.984 . S
H1765 N1752 0.985 . S
C1766 C1767 1.363 . S
C1766 C1772 1.379 . S
C1766 N1774 1.356 . S
C1767 C1766 1.363 . S
C1767 C1773 1.363 . S
C1768 C1769 1.363 . S
C1768 C1773 1.379 . S
C1768 N1775 1.356 . S
C1769 C1768 1.363 . S
C1769 C1772 1.363 . S
N1770 C1772 1.356 . S
N1770 H1782 0.984 . S
N1770 H1783 0.985 . S
N1771 C1773 1.356 . S
N1771 H1776 0.984 . S
N1771 H1777 0.985 . S
C1772 C1766 1.379 . S
C1772 C1769 1.363 . S
C1772 N1770 1.356 . S
C1773 C1767 1.363 . S
C1773 C1768 1.379 . S
C1773 N1771 1.356 . S
N1774 C1766 1.356 . S
N1774 H1780 0.984 . S
N1774 H1781 0.984 . S
N1775 C1768 1.356 . S
N1775 H1778 0.984 . S
N1775 H1779 0.985 . S
H1776 N1771 0.984 . S
H1777 N1771 0.985 . S
H1778 N1775 0.984 . S
H1779 N1775 0.985 . S
H1780 N1774 0.984 . S
H1781 N1774 0.984 . S
H1782 N1770 0.984 . S
H1783 N1770 0.985 . S
C1784 C1785 1.363 . S
C1784 C1790 1.379 . S
C1784 N1792 1.356 . S
C1785 C1784 1.363 . S
C1785 C1791 1.363 . S
C1786 C1787 1.363 . S
C1786 C1791 1.379 . S
C1786 N1793 1.356 . S
C1787 C1786 1.363 . S
C1787 C1790 1.363 . S
N1788 C1790 1.356 . S
N1788 H1800 0.984 . S
N1788 H1801 0.985 . S
N1789 C1791 1.356 . S
N1789 H1794 0.984 . S
N1789 H1795 0.985 . S
C1790 C1784 1.379 . S
C1790 C1787 1.363 . S
C1790 N1788 1.356 . S
C1791 C1785 1.363 . S
C1791 C1786 1.379 . S
C1791 N1789 1.356 . S
N1792 C1784 1.356 . S
N1792 H1798 0.984 . S
N1792 H1799 0.984 . S
N1793 C1786 1.356 . S
N1793 H1796 0.984 . S
N1793 H1797 0.985 . S
H1794 N1789 0.984 . S
H1795 N1789 0.985 . S
H1796 N1793 0.984 . S
H1797 N1793 0.985 . S
H1798 N1792 0.984 . S
H1799 N1792 0.984 . S
H1800 N1788 0.984 . S
H1801 N1788 0.985 . S
C1802 C1803 1.363 . S
C1802 C1808 1.379 . S
C1802 N1810 1.356 . S
C1803 C1802 1.363 . S
C1803 C1809 1.363 . S
C1804 C1805 1.363 . S
C1804 C1809 1.379 . S
C1804 N1811 1.356 . S
C1805 C1804 1.363 . S
C1805 C1808 1.363 . S
N1806 C1808 1.356 . S
N1806 H1818 0.984 . S
N1806 H1819 0.985 . S
N1807 C1809 1.356 . S
N1807 H1812 0.984 . S
N1807 H1813 0.985 . S
C1808 C1802 1.379 . S
C1808 C1805 1.363 . S
C1808 N1806 1.356 . S
C1809 C1803 1.363 . S
C1809 C1804 1.379 . S
C1809 N1807 1.356 . S
N1810 C1802 1.356 . S
N1810 H1816 0.984 . S
N1810 H1817 0.984 . S
N1811 C1804 1.356 . S
N1811 H1814 0.984 . S
N1811 H1815 0.985 . S
H1812 N1807 0.984 . S
H1813 N1807 0.985 . S
H1814 N1811 0.984 . S
H1815 N1811 0.985 . S
H1816 N1810 0.984 . S
H1817 N1810 0.984 . S
H1818 N1806 0.984 . S
H1819 N1806 0.985 . S
C1820 C1821 1.363 . S
C1820 C1826 1.379 . S
C1820 N1828 1.356 . S
C1821 C1820 1.363 . S
C1821 C1827 1.363 . S
C1822 C1823 1.363 . S
C1822 C1827 1.379 . S
C1822 N1829 1.356 . S
C1823 C1822 1.363 . S
C1823 C1826 1.363 . S
N1824 C1826 1.356 . S
N1824 H1836 0.984 . S
N1824 H1837 0.985 . S
N1825 C1827 1.356 . S
N1825 H1830 0.984 . S
N1825 H1831 0.985 . S
C1826 C1820 1.379 . S
C1826 C1823 1.363 . S
C1826 N1824 1.356 . S
C1827 C1821 1.363 . S
C1827 C1822 1.379 . S
C1827 N1825 1.356 . S
N1828 C1820 1.356 . S
N1828 H1834 0.984 . S
N1828 H1835 0.984 . S
N1829 C1822 1.356 . S
N1829 H1832 0.984 . S
N1829 H1833 0.985 . S
H1830 N1825 0.984 . S
H1831 N1825 0.985 . S
H1832 N1829 0.984 . S
H1833 N1829 0.985 . S
H1834 N1828 0.984 . S
H1835 N1828 0.984 . S
H1836 N1824 0.984 . S
H1837 N1824 0.985 . S
C1838 C1839 1.363 . S
C1838 C1844 1.379 . S
C1838 N1846 1.356 . S
C1839 C1838 1.363 . S
C1839 C1845 1.363 . S
C1840 C1841 1.363 . S
C1840 C1845 1.379 . S
C1840 N1847 1.356 . S
C1841 C1840 1.363 . S
C1841 C1844 1.363 . S
N1842 C1844 1.356 . S
N1842 H1854 0.984 . S
N1842 H1855 0.985 . S
N1843 C1845 1.356 . S
N1843 H1848 0.984 . S
N1843 H1849 0.985 . S
C1844 C1838 1.379 . S
C1844 C1841 1.363 . S
C1844 N1842 1.356 . S
C1845 C1839 1.363 . S
C1845 C1840 1.379 . S
C1845 N1843 1.356 . S
N1846 C1838 1.356 . S
N1846 H1852 0.984 . S
N1846 H1853 0.984 . S
N1847 C1840 1.356 . S
N1847 H1850 0.984 . S
N1847 H1851 0.985 . S
H1848 N1843 0.984 . S
H1849 N1843 0.985 . S
H1850 N1847 0.984 . S
H1851 N1847 0.985 . S
H1852 N1846 0.984 . S
H1853 N1846 0.984 . S
H1854 N1842 0.984 . S
H1855 N1842 0.985 . S
C1856 C1857 1.363 . S
C1856 C1862 1.379 . S
C1856 N1864 1.356 . S
C1857 C1856 1.363 . S
C1857 C1863 1.363 . S
C1858 C1859 1.363 . S
C1858 C1863 1.379 . S
C1858 N1865 1.356 . S
C1859 C1858 1.363 . S
C1859 C1862 1.363 . S
N1860 C1862 1.356 . S
N1860 H1872 0.984 . S
N1860 H1873 0.985 . S
N1861 C1863 1.356 . S
N1861 H1866 0.984 . S
N1861 H1867 0.985 . S
C1862 C1856 1.379 . S
C1862 C1859 1.363 . S
C1862 N1860 1.356 . S
C1863 C1857 1.363 . S
C1863 C1858 1.379 . S
C1863 N1861 1.356 . S
N1864 C1856 1.356 . S
N1864 H1870 0.984 . S
N1864 H1871 0.984 . S
N1865 C1858 1.356 . S
N1865 H1868 0.984 . S
N1865 H1869 0.985 . S
H1866 N1861 0.984 . S
H1867 N1861 0.985 . S
H1868 N1865 0.984 . S
H1869 N1865 0.985 . S
H1870 N1864 0.984 . S
H1871 N1864 0.984 . S
H1872 N1860 0.984 . S
H1873 N1860 0.985 . S
C1874 C1875 1.363 . S
C1874 C1880 1.379 1_545 S
C1874 N1882 1.356 . S
C1875 C1874 1.363 . S
C1875 C1881 1.363 . S
C1876 C1877 1.363 . S
C1876 C1881 1.379 1_565 S
C1876 N1883 1.356 . S
C1877 C1876 1.363 . S
C1877 C1880 1.363 . S
N1878 C1880 1.356 . S
N1878 H1890 0.984 . S
N1878 H1891 0.985 . S
N1879 C1881 1.356 . S
N1879 H1884 0.984 . S
N1879 H1885 0.985 . S
C1880 C1874 1.379 1_565 S
C1880 C1877 1.363 . S
C1880 N1878 1.356 . S
C1881 C1875 1.363 . S
C1881 C1876 1.379 1_545 S
C1881 N1879 1.356 . S
N1882 C1874 1.356 . S
N1882 H1888 0.982 . S
N1882 H1889 0.984 . S
N1883 C1876 1.356 . S
N1883 H1886 0.984 . S
N1883 H1887 0.985 . S
H1884 N1879 0.984 . S
H1885 N1879 0.985 . S
H1886 N1883 0.984 . S
H1887 N1883 0.985 . S
H1888 N1882 0.982 . S
H1889 N1882 0.984 . S
H1890 N1878 0.984 . S
H1891 N1878 0.985 . S
C1892 C1893 1.363 . S
C1892 C1898 1.379 . S
C1892 N1900 1.356 . S
C1893 C1892 1.363 . S
C1893 C1899 1.363 1_565 S
C1894 C1895 1.363 . S
C1894 C1899 1.379 . S
C1894 N1901 1.356 . S
C1895 C1894 1.363 . S
C1895 C1898 1.363 1_545 S
N1896 C1898 1.356 . S
N1896 H1908 0.984 . S
N1896 H1909 0.985 1_565 S
N1897 C1899 1.356 . S
N1897 H1902 0.984 1_545 S
N1897 H1903 0.985 . S
C1898 C1892 1.379 . S
C1898 C1895 1.363 1_565 S
C1898 N1896 1.356 . S
C1899 C1893 1.363 1_545 S
C1899 C1894 1.379 . S
C1899 N1897 1.356 . S
N1900 C1892 1.356 . S
N1900 H1906 0.984 . S
N1900 H1907 0.984 . S
N1901 C1894 1.356 . S
N1901 H1904 0.984 . S
N1901 H1905 0.985 . S
H1902 N1897 0.984 1_565 S
H1903 N1897 0.985 . S
H1904 N1901 0.984 . S
H1905 N1901 0.985 . S
H1906 N1900 0.984 . S
H1907 N1900 0.984 . S
H1908 N1896 0.984 . S
H1909 N1896 0.985 1_545 S
C1910 C1911 1.363 . S
C1910 C1916 1.379 . S
C1910 N1918 1.356 . S
C1911 C1910 1.363 . S
C1911 C1917 1.363 . S
C1912 C1913 1.363 . S
C1912 C1917 1.379 . S
C1912 N1919 1.356 . S
C1913 C1912 1.363 . S
C1913 C1916 1.363 . S
N1914 C1916 1.356 . S
N1914 H1926 0.984 . S
N1914 H1927 0.985 . S
N1915 C1917 1.356 . S
N1915 H1920 0.984 . S
N1915 H1921 0.985 . S
C1916 C1910 1.379 . S
C1916 C1913 1.363 . S
C1916 N1914 1.356 . S
C1917 C1911 1.363 . S
C1917 C1912 1.379 . S
C1917 N1915 1.356 . S
N1918 C1910 1.356 . S
N1918 H1924 0.984 . S
N1918 H1925 0.984 . S
N1919 C1912 1.356 . S
N1919 H1922 0.984 . S
N1919 H1923 0.985 . S
H1920 N1915 0.984 . S
H1921 N1915 0.985 . S
H1922 N1919 0.984 . S
H1923 N1919 0.985 . S
H1924 N1918 0.984 . S
H1925 N1918 0.984 . S
H1926 N1914 0.984 . S
H1927 N1914 0.985 . S
C1928 C1929 1.363 . S
C1928 C1934 1.379 . S
C1928 N1936 1.356 . S
C1929 C1928 1.363 . S
C1929 C1935 1.363 . S
C1930 C1931 1.363 . S
C1930 C1935 1.379 . S
C1930 N1937 1.356 . S
C1931 C1930 1.363 . S
C1931 C1934 1.363 . S
N1932 C1934 1.356 . S
N1932 H1944 0.984 . S
N1932 H1945 0.985 . S
N1933 C1935 1.356 . S
N1933 H1938 0.984 . S
N1933 H1939 0.985 . S
C1934 C1928 1.379 . S
C1934 C1931 1.363 . S
C1934 N1932 1.356 . S
C1935 C1929 1.363 . S
C1935 C1930 1.379 . S
C1935 N1933 1.356 . S
N1936 C1928 1.356 . S
N1936 H1942 0.984 . S
N1936 H1943 0.984 . S
N1937 C1930 1.356 . S
N1937 H1940 0.984 . S
N1937 H1941 0.985 . S
H1938 N1933 0.984 . S
H1939 N1933 0.985 . S
H1940 N1937 0.984 . S
H1941 N1937 0.985 . S
H1942 N1936 0.984 . S
H1943 N1936 0.984 . S
H1944 N1932 0.984 . S
H1945 N1932 0.985 . S
C1946 C1947 1.363 1_565 S
C1946 C1952 1.379 . S
C1946 N1954 1.356 . S
C1947 C1946 1.363 1_545 S
C1947 C1953 1.363 . S
C1948 C1949 1.363 1_545 S
C1948 C1953 1.379 . S
C1948 N1955 1.356 . S
C1949 C1948 1.363 1_565 S
C1949 C1952 1.363 . S
N1950 C1952 1.356 . S
N1950 H1962 0.984 . S
N1950 H1963 0.985 . S
N1951 C1953 1.356 . S
N1951 H1956 0.984 . S
N1951 H1957 0.985 . S
C1952 C1946 1.379 . S
C1952 C1949 1.363 . S
C1952 N1950 1.356 . S
C1953 C1947 1.363 . S
C1953 C1948 1.379 . S
C1953 N1951 1.356 . S
N1954 C1946 1.356 . S
N1954 H1960 0.984 . S
N1954 H1961 0.984 1_565 S
N1955 C1948 1.356 . S
N1955 H1958 0.984 1_545 S
N1955 H1959 0.985 . S
H1956 N1951 0.984 . S
H1957 N1951 0.985 . S
H1958 N1955 0.984 1_565 S
H1959 N1955 0.985 . S
H1960 N1954 0.984 . S
H1961 N1954 0.984 1_545 S
H1962 N1950 0.984 . S
H1963 N1950 0.985 . S
C1964 C1965 1.363 . S
C1964 C1970 1.379 1_545 S
C1964 N1972 1.356 . S
C1965 C1964 1.363 . S
C1965 C1971 1.363 . S
C1966 C1967 1.363 . S
C1966 C1971 1.379 1_565 S
C1966 N1973 1.356 . S
C1967 C1966 1.363 . S
C1967 C1970 1.363 . S
N1968 C1970 1.356 . S
N1968 H1980 0.984 . S
N1968 H1981 0.985 . S
N1969 C1971 1.356 . S
N1969 H1974 0.984 . S
N1969 H1975 0.985 . S
C1970 C1964 1.379 1_565 S
C1970 C1967 1.363 . S
C1970 N1968 1.356 . S
C1971 C1965 1.363 . S
C1971 C1966 1.379 1_545 S
C1971 N1969 1.356 . S
N1972 C1964 1.356 . S
N1972 H1978 0.984 . S
N1972 H1979 0.984 . S
N1973 C1966 1.356 . S
N1973 H1976 0.984 . S
N1973 H1977 0.985 . S
H1974 N1969 0.984 . S
H1975 N1969 0.985 . S
H1976 N1973 0.984 . S
H1977 N1973 0.985 . S
H1978 N1972 0.984 . S
H1979 N1972 0.984 . S
H1980 N1968 0.984 . S
H1981 N1968 0.985 . S
C1982 C1983 1.363 . S
C1982 C1988 1.379 . S
C1982 N1990 1.356 . S
C1983 C1982 1.363 . S
C1983 C1989 1.363 . S
C1984 C1985 1.363 . S
C1984 C1989 1.379 . S
C1984 N1991 1.356 . S
C1985 C1984 1.363 . S
C1985 C1988 1.363 . S
N1986 C1988 1.356 . S
N1986 H1998 0.984 . S
N1986 H1999 0.985 . S
N1987 C1989 1.356 . S
N1987 H1992 0.984 . S
N1987 H1993 0.985 . S
C1988 C1982 1.379 . S
C1988 C1985 1.363 . S
C1988 N1986 1.356 . S
C1989 C1983 1.363 . S
C1989 C1984 1.379 . S
C1989 N1987 1.356 . S
N1990 C1982 1.356 . S
N1990 H1996 0.984 1_455 S
N1990 H1997 0.984 . S
N1991 C1984 1.356 . S
N1991 H1994 0.984 . S
N1991 H1995 0.985 . S
H1992 N1987 0.984 . S
H1993 N1987 0.985 . S
H1994 N1991 0.984 . S
H1995 N1991 0.985 . S
H1996 N1990 0.984 1_655 S
H1997 N1990 0.984 . S
H1998 N1986 0.984 . S
H1999 N1986 0.985 . S
C2000 C2001 1.363 . S
C2000 C2006 1.379 . S
C2000 N2008 1.356 . S
C2001 C2000 1.363 . S
C2001 C2007 1.363 . S
C2002 C2003 1.363 . S
C2002 C2007 1.379 . S
C2002 N2009 1.356 . S
C2003 C2002 1.363 . S
C2003 C2006 1.363 . S
N2004 C2006 1.356 . S
N2004 H2016 0.984 . S
N2004 H2017 0.985 . S
N2005 C2007 1.356 . S
N2005 H2010 0.984 . S
N2005 H2011 0.985 . S
C2006 C2000 1.379 . S
C2006 C2003 1.363 . S
C2006 N2004 1.356 . S
C2007 C2001 1.363 . S
C2007 C2002 1.379 . S
C2007 N2005 1.356 . S
N2008 C2000 1.356 . S
N2008 H2014 0.984 . S
N2008 H2015 0.984 . S
N2009 C2002 1.356 . S
N2009 H2012 0.984 . S
N2009 H2013 0.985 . S
H2010 N2005 0.984 . S
H2011 N2005 0.985 . S
H2012 N2009 0.984 . S
H2013 N2009 0.985 . S
H2014 N2008 0.984 . S
H2015 N2008 0.984 . S
H2016 N2004 0.984 . S
H2017 N2004 0.985 . S
C2018 C2019 1.363 . S
C2018 C2024 1.379 . S
C2018 N2026 1.356 . S
C2019 C2018 1.363 . S
C2019 C2025 1.363 . S
C2020 C2021 1.363 . S
C2020 C2025 1.379 . S
C2020 N2027 1.356 . S
C2021 C2020 1.363 . S
C2021 C2024 1.363 . S
N2022 C2024 1.356 . S
N2022 H2034 0.984 . S
N2022 H2035 0.985 . S
N2023 C2025 1.356 . S
N2023 H2028 0.984 . S
N2023 H2029 0.985 . S
C2024 C2018 1.379 . S
C2024 C2021 1.363 . S
C2024 N2022 1.356 . S
C2025 C2019 1.363 . S
C2025 C2020 1.379 . S
C2025 N2023 1.356 . S
N2026 C2018 1.356 . S
N2026 H2032 0.984 . S
N2026 H2033 0.984 . S
N2027 C2020 1.356 . S
N2027 H2030 0.984 . S
N2027 H2031 0.985 1_655 S
H2028 N2023 0.984 . S
H2029 N2023 0.985 . S
H2030 N2027 0.984 . S
H2031 N2027 0.985 1_455 S
H2032 N2026 0.984 . S
H2033 N2026 0.984 . S
H2034 N2022 0.984 . S
H2035 N2022 0.985 . S
C2036 C2037 1.363 . S
C2036 C2042 1.379 1_556 S
C2036 N2044 1.356 . S
C2037 C2036 1.363 . S
C2037 C2043 1.363 1_556 S
C2038 C2039 1.363 . S
C2038 C2043 1.379 . S
C2038 N2045 1.356 . S
C2039 C2038 1.363 . S
C2039 C2042 1.363 . S
N2040 C2042 1.356 . S
N2040 H2052 0.984 1_554 S
N2040 H2053 0.985 . S
N2041 C2043 1.356 . S
N2041 H2046 0.984 . S
N2041 H2047 0.985 . S
C2042 C2036 1.379 1_554 S
C2042 C2039 1.363 . S
C2042 N2040 1.356 . S
C2043 C2037 1.363 1_554 S
C2043 C2038 1.379 . S
C2043 N2041 1.356 . S
N2044 C2036 1.356 . S
N2044 H2050 0.984 . S
N2044 H2051 0.984 . S
N2045 C2038 1.356 . S
N2045 H2048 0.984 . S
N2045 H2049 0.985 . S
H2046 N2041 0.984 . S
H2047 N2041 0.985 . S
H2048 N2045 0.984 . S
H2049 N2045 0.985 . S
H2050 N2044 0.984 . S
H2051 N2044 0.984 . S
H2052 N2040 0.984 1_556 S
H2053 N2040 0.985 . S
C2054 C2055 1.363 . S
C2054 C2060 1.379 1_556 S
C2054 N2062 1.356 . S
C2055 C2054 1.363 . S
C2055 C2061 1.363 1_556 S
C2056 C2057 1.363 . S
C2056 C2061 1.379 . S
C2056 N2063 1.356 . S
C2057 C2056 1.363 . S
C2057 C2060 1.363 . S
N2058 C2060 1.356 . S
N2058 H2070 0.984 . S
N2058 H2071 0.985 . S
N2059 C2061 1.356 . S
N2059 H2064 0.984 1_554 S
N2059 H2065 0.985 . S
C2060 C2054 1.379 1_554 S
C2060 C2057 1.363 . S
C2060 N2058 1.356 . S
C2061 C2055 1.363 1_554 S
C2061 C2056 1.379 . S
C2061 N2059 1.356 . S
N2062 C2054 1.356 . S
N2062 H2068 0.984 . S
N2062 H2069 0.984 . S
N2063 C2056 1.356 . S
N2063 H2066 0.984 . S
N2063 H2067 0.985 . S
H2064 N2059 0.984 1_556 S
H2065 N2059 0.985 . S
H2066 N2063 0.984 . S
H2067 N2063 0.985 . S
H2068 N2062 0.984 . S
H2069 N2062 0.984 . S
H2070 N2058 0.984 . S
H2071 N2058 0.985 . S
C2072 C2073 1.363 . S
C2072 C2078 1.379 . S
C2072 N2080 1.356 . S
C2073 C2072 1.363 . S
C2073 C2079 1.363 . S
C2074 C2075 1.363 . S
C2074 C2079 1.379 . S
C2074 N2081 1.356 . S
C2075 C2074 1.363 . S
C2075 C2078 1.363 . S
N2076 C2078 1.356 . S
N2076 H2088 0.984 . S
N2076 H2089 0.985 . S
N2077 C2079 1.356 . S
N2077 H2082 0.984 . S
N2077 H2083 0.985 . S
C2078 C2072 1.379 . S
C2078 C2075 1.363 . S
C2078 N2076 1.356 . S
C2079 C2073 1.363 . S
C2079 C2074 1.379 . S
C2079 N2077 1.356 . S
N2080 C2072 1.356 . S
N2080 H2086 0.984 . S
N2080 H2087 0.984 . S
N2081 C2074 1.356 . S
N2081 H2084 0.984 . S
N2081 H2085 0.985 . S
H2082 N2077 0.984 . S
H2083 N2077 0.985 . S
H2084 N2081 0.984 . S
H2085 N2081 0.985 . S
H2086 N2080 0.984 . S
H2087 N2080 0.984 . S
H2088 N2076 0.984 . S
H2089 N2076 0.985 . S
C2090 C2091 1.363 . S
C2090 C2096 1.379 . S
C2090 N2098 1.356 . S
C2091 C2090 1.363 . S
C2091 C2097 1.363 . S
C2092 C2093 1.363 . S
C2092 C2097 1.379 . S
C2092 N2099 1.356 . S
C2093 C2092 1.363 . S
C2093 C2096 1.363 . S
N2094 C2096 1.356 . S
N2094 H2106 0.984 . S
N2094 H2107 0.985 . S
N2095 C2097 1.356 . S
N2095 H2100 0.984 . S
N2095 H2101 0.985 . S
C2096 C2090 1.379 . S
C2096 C2093 1.363 . S
C2096 N2094 1.356 . S
C2097 C2091 1.363 . S
C2097 C2092 1.379 . S
C2097 N2095 1.356 . S
N2098 C2090 1.356 . S
N2098 H2104 0.984 . S
N2098 H2105 0.984 . S
N2099 C2092 1.356 . S
N2099 H2102 0.984 . S
N2099 H2103 0.985 . S
H2100 N2095 0.984 . S
H2101 N2095 0.985 . S
H2102 N2099 0.984 . S
H2103 N2099 0.985 . S
H2104 N2098 0.984 . S
H2105 N2098 0.984 . S
H2106 N2094 0.984 . S
H2107 N2094 0.985 . S
C2108 C2109 1.363 . S
C2108 C2114 1.379 1_554 S
C2108 N2116 1.356 . S
C2109 C2108 1.363 . S
C2109 C2115 1.363 1_554 S
C2110 C2111 1.363 . S
C2110 C2115 1.379 . S
C2110 N2117 1.356 . S
C2111 C2110 1.363 . S
C2111 C2114 1.363 . S
N2112 C2114 1.356 . S
N2112 H2124 0.984 1_556 S
N2112 H2125 0.985 . S
N2113 C2115 1.356 . S
N2113 H2118 0.984 . S
N2113 H2119 0.985 . S
C2114 C2108 1.379 1_556 S
C2114 C2111 1.363 . S
C2114 N2112 1.356 . S
C2115 C2109 1.363 1_556 S
C2115 C2110 1.379 . S
C2115 N2113 1.356 . S
N2116 C2108 1.356 . S
N2116 H2122 0.984 . S
N2116 H2123 0.984 . S
N2117 C2110 1.356 . S
N2117 H2120 0.984 . S
N2117 H2121 0.985 . S
H2118 N2113 0.984 . S
H2119 N2113 0.985 . S
H2120 N2117 0.984 . S
H2121 N2117 0.985 . S
H2122 N2116 0.984 . S
H2123 N2116 0.984 . S
H2124 N2112 0.984 1_554 S
H2125 N2112 0.985 . S
C2126 C2127 1.363 . S
C2126 C2132 1.379 . S
C2126 N2134 1.356 . S
C2127 C2126 1.363 . S
C2127 C2133 1.363 . S
C2128 C2129 1.363 . S
C2128 C2133 1.379 1_554 S
C2128 N2135 1.356 . S
C2129 C2128 1.363 . S
C2129 C2132 1.363 1_554 S
N2130 C2132 1.356 . S
N2130 H2142 0.984 . S
N2130 H2143 0.985 . S
N2131 C2133 1.356 . S
N2131 H2136 0.984 . S
N2131 H2137 0.985 1_556 S
C2132 C2126 1.379 . S
C2132 C2129 1.363 1_556 S
C2132 N2130 1.356 . S
C2133 C2127 1.363 . S
C2133 C2128 1.379 1_556 S
C2133 N2131 1.356 . S
N2134 C2126 1.356 . S
N2134 H2140 0.984 . S
N2134 H2141 0.984 . S
N2135 C2128 1.356 . S
N2135 H2138 0.984 . S
N2135 H2139 0.985 . S
H2136 N2131 0.984 . S
H2137 N2131 0.985 1_554 S
H2138 N2135 0.984 . S
H2139 N2135 0.985 . S
H2140 N2134 0.984 . S
H2141 N2134 0.984 . S
H2142 N2130 0.984 . S
H2143 N2130 0.985 . S
C2144 C2145 1.363 . S
C2144 C2150 1.379 . S
C2144 N2152 1.356 . S
C2145 C2144 1.363 . S
C2145 C2151 1.363 . S
C2146 C2147 1.363 . S
C2146 C2151 1.379 . S
C2146 N2153 1.356 . S
C2147 C2146 1.363 . S
C2147 C2150 1.363 . S
N2148 C2150 1.356 . S
N2148 H2160 0.984 . S
N2148 H2161 0.985 . S
N2149 C2151 1.356 . S
N2149 H2154 0.984 . S
N2149 H2155 0.985 . S
C2150 C2144 1.379 . S
C2150 C2147 1.363 . S
C2150 N2148 1.356 . S
C2151 C2145 1.363 . S
C2151 C2146 1.379 . S
C2151 N2149 1.356 . S
N2152 C2144 1.356 . S
N2152 H2158 0.984 . S
N2152 H2159 0.984 . S
N2153 C2146 1.356 . S
N2153 H2156 0.984 . S
N2153 H2157 0.985 . S
H2154 N2149 0.984 . S
H2155 N2149 0.985 . S
H2156 N2153 0.984 . S
H2157 N2153 0.985 . S
H2158 N2152 0.984 . S
H2159 N2152 0.984 . S
H2160 N2148 0.984 . S
H2161 N2148 0.985 . S
C2162 C2163 1.363 . S
C2162 C2168 1.379 . S
C2162 N2170 1.356 . S
C2163 C2162 1.363 . S
C2163 C2169 1.363 1_565 S
C2164 C2165 1.363 . S
C2164 C2169 1.379 . S
C2164 N2171 1.356 . S
C2165 C2164 1.363 . S
C2165 C2168 1.363 1_545 S
N2166 C2168 1.356 . S
N2166 H2178 0.984 . S
N2166 H2179 0.985 1_565 S
N2167 C2169 1.356 . S
N2167 H2172 0.984 1_545 S
N2167 H2173 0.985 . S
C2168 C2162 1.379 . S
C2168 C2165 1.363 1_565 S
C2168 N2166 1.356 . S
C2169 C2163 1.363 1_545 S
C2169 C2164 1.379 . S
C2169 N2167 1.356 . S
N2170 C2162 1.356 . S
N2170 H2176 0.984 . S
N2170 H2177 0.984 . S
N2171 C2164 1.356 . S
N2171 H2174 0.984 . S
N2171 H2175 0.985 . S
H2172 N2167 0.984 1_565 S
H2173 N2167 0.985 . S
H2174 N2171 0.984 . S
H2175 N2171 0.985 . S
H2176 N2170 0.984 . S
H2177 N2170 0.984 . S
H2178 N2166 0.984 . S
H2179 N2166 0.985 1_545 S
C2180 C2181 1.363 1_554 S
C2180 C2186 1.379 . S
C2180 N2188 1.356 . S
C2181 C2180 1.363 1_556 S
C2181 C2187 1.363 1_565 S
C2182 C2183 1.363 . S
C2182 C2187 1.379 1_554 S
C2182 N2189 1.356 . S
C2183 C2182 1.363 . S
C2183 C2186 1.363 1_545 S
N2184 C2186 1.356 . S
N2184 H2196 0.984 . S
N2184 H2197 0.985 1_565 S
N2185 C2187 1.356 . S
N2185 H2190 0.984 1_545 S
N2185 H2191 0.985 . S
C2186 C2180 1.379 . S
C2186 C2183 1.363 1_565 S
C2186 N2184 1.356 . S
C2187 C2181 1.363 1_545 S
C2187 C2182 1.379 1_556 S
C2187 N2185 1.356 . S
N2188 C2180 1.356 . S
N2188 H2194 0.984 . S
N2188 H2195 0.978 1_554 S
N2189 C2182 1.356 . S
N2189 H2192 0.984 . S
N2189 H2193 0.985 1_554 S
H2190 N2185 0.984 1_565 S
H2191 N2185 0.985 . S
H2192 N2189 0.984 . S
H2193 N2189 0.985 1_556 S
H2194 N2188 0.984 . S
H2195 N2188 0.978 1_556 S
H2196 N2184 0.984 . S
H2197 N2184 0.985 1_545 S
C2198 C2199 1.363 . S
C2198 C2204 1.379 1_556 S
C2198 N2206 1.356 . S
C2199 C2198 1.363 . S
C2199 C2205 1.363 1_556 S
C2200 C2201 1.363 . S
C2200 C2205 1.379 . S
C2200 N2207 1.356 . S
C2201 C2200 1.363 . S
C2201 C2204 1.363 . S
N2202 C2204 1.356 . S
N2202 H2214 0.984 . S
N2202 H2215 0.985 . S
N2203 C2205 1.356 . S
N2203 H2208 0.984 1_554 S
N2203 H2209 0.985 . S
C2204 C2198 1.379 1_554 S
C2204 C2201 1.363 . S
C2204 N2202 1.356 . S
C2205 C2199 1.363 1_554 S
C2205 C2200 1.379 . S
C2205 N2203 1.356 . S
N2206 C2198 1.356 . S
N2206 H2212 0.984 . S
N2206 H2213 0.984 . S
N2207 C2200 1.356 . S
N2207 H2210 0.984 . S
N2207 H2211 0.985 . S
H2208 N2203 0.984 1_556 S
H2209 N2203 0.985 . S
H2210 N2207 0.984 . S
H2211 N2207 0.985 . S
H2212 N2206 0.984 . S
H2213 N2206 0.984 . S
H2214 N2202 0.984 . S
H2215 N2202 0.985 . S
C2216 C2217 1.363 . S
C2216 C2222 1.379 . S
C2216 N2224 1.356 . S
C2217 C2216 1.363 . S
C2217 C2223 1.363 . S
C2218 C2219 1.363 . S
C2218 C2223 1.379 . S
C2218 N2225 1.356 . S
C2219 C2218 1.363 . S
C2219 C2222 1.363 . S
N2220 C2222 1.356 . S
N2220 H2232 0.984 . S
N2220 H2233 0.985 . S
N2221 C2223 1.356 . S
N2221 H2226 0.984 . S
N2221 H2227 0.985 . S
C2222 C2216 1.379 . S
C2222 C2219 1.363 . S
C2222 N2220 1.356 . S
C2223 C2217 1.363 . S
C2223 C2218 1.379 . S
C2223 N2221 1.356 . S
N2224 C2216 1.356 . S
N2224 H2230 0.984 . S
N2224 H2231 0.984 . S
N2225 C2218 1.356 . S
N2225 H2228 0.984 . S
N2225 H2229 0.985 . S
H2226 N2221 0.984 . S
H2227 N2221 0.985 . S
H2228 N2225 0.984 . S
H2229 N2225 0.985 . S
H2230 N2224 0.984 . S
H2231 N2224 0.984 . S
H2232 N2220 0.984 . S
H2233 N2220 0.985 . S
C2234 C2235 1.363 . S
C2234 C2240 1.379 . S
C2234 N2242 1.356 . S
C2235 C2234 1.363 . S
C2235 C2241 1.363 1_545 S
C2236 C2237 1.363 . S
C2236 C2241 1.379 . S
C2236 N2243 1.356 . S
C2237 C2236 1.363 . S
C2237 C2240 1.363 1_565 S
N2238 C2240 1.356 1_565 S
N2238 H2250 0.984 1_565 S
N2238 H2251 0.985 . S
N2239 C2241 1.356 1_545 S
N2239 H2244 0.984 . S
N2239 H2245 0.985 1_545 S
C2240 C2234 1.379 . S
C2240 C2237 1.363 1_545 S
C2240 N2238 1.356 1_545 S
C2241 C2235 1.363 1_565 S
C2241 C2236 1.379 . S
C2241 N2239 1.356 1_565 S
N2242 C2234 1.356 . S
N2242 H2248 0.984 . S
N2242 H2249 0.984 . S
N2243 C2236 1.356 . S
N2243 H2246 0.984 . S
N2243 H2247 0.985 . S
H2244 N2239 0.984 . S
H2245 N2239 0.985 1_565 S
H2246 N2243 0.984 . S
H2247 N2243 0.985 . S
H2248 N2242 0.984 . S
H2249 N2242 0.984 . S
H2250 N2238 0.984 1_545 S
H2251 N2238 0.985 . S
C2252 C2253 1.363 1_545 S
C2252 C2258 1.379 . S
C2252 N2260 1.356 . S
C2253 C2252 1.363 1_565 S
C2253 C2259 1.363 . S
C2254 C2255 1.363 1_565 S
C2254 C2259 1.379 1_554 S
C2254 N2261 1.356 . S
C2255 C2254 1.363 1_545 S
C2255 C2258 1.363 1_554 S
N2256 C2258 1.356 . S
N2256 H2268 0.984 . S
N2256 H2269 0.985 1_556 S
N2257 C2259 1.356 . S
N2257 H2262 0.984 . S
N2257 H2263 0.985 . S
C2258 C2252 1.379 . S
C2258 C2255 1.363 1_556 S
C2258 N2256 1.356 . S
C2259 C2253 1.363 . S
C2259 C2254 1.379 1_556 S
C2259 N2257 1.356 . S
N2260 C2252 1.356 . S
N2260 H2266 0.984 . S
N2260 H2267 0.984 1_545 S
N2261 C2254 1.356 . S
N2261 H2264 0.984 1_565 S
N2261 H2265 0.985 . S
H2262 N2257 0.984 . S
H2263 N2257 0.985 . S
H2264 N2261 0.984 1_545 S
H2265 N2261 0.985 . S
H2266 N2260 0.984 . S
H2267 N2260 0.984 1_565 S
H2268 N2256 0.984 . S
H2269 N2256 0.985 1_554 S
C2270 C2271 1.363 . S
C2270 C2276 1.379 . S
C2270 N2278 1.356 . S
C2271 C2270 1.363 . S
C2271 C2277 1.363 . S
C2272 C2273 1.363 . S
C2272 C2277 1.379 1_554 S
C2272 N2279 1.356 . S
C2273 C2272 1.363 . S
C2273 C2276 1.363 1_554 S
N2274 C2276 1.356 . S
N2274 H2286 0.984 . S
N2274 H2287 0.985 . S
N2275 C2277 1.356 . S
N2275 H2280 0.984 . S
N2275 H2281 0.985 1_556 S
C2276 C2270 1.379 . S
C2276 C2273 1.363 1_556 S
C2276 N2274 1.356 . S
C2277 C2271 1.363 . S
C2277 C2272 1.379 1_556 S
C2277 N2275 1.356 . S
N2278 C2270 1.356 . S
N2278 H2284 0.984 . S
N2278 H2285 0.984 . S
N2279 C2272 1.356 . S
N2279 H2282 0.984 . S
N2279 H2283 0.985 . S
H2280 N2275 0.984 . S
H2281 N2275 0.985 1_554 S
H2282 N2279 0.984 . S
H2283 N2279 0.985 . S
H2284 N2278 0.984 . S
H2285 N2278 0.984 . S
H2286 N2274 0.984 . S
H2287 N2274 0.985 . S
C2288 C2289 1.363 . S
C2288 C2294 1.379 . S
C2288 N2296 1.356 . S
C2289 C2288 1.363 . S
C2289 C2295 1.363 . S
C2290 C2291 1.363 . S
C2290 C2295 1.379 . S
C2290 N2297 1.356 . S
C2291 C2290 1.363 . S
C2291 C2294 1.363 . S
N2292 C2294 1.356 . S
N2292 H2304 0.984 . S
N2292 H2305 0.985 . S
N2293 C2295 1.356 . S
N2293 H2298 0.984 . S
N2293 H2299 0.985 . S
C2294 C2288 1.379 . S
C2294 C2291 1.363 . S
C2294 N2292 1.356 . S
C2295 C2289 1.363 . S
C2295 C2290 1.379 . S
C2295 N2293 1.356 . S
N2296 C2288 1.356 . S
N2296 H2302 0.984 . S
N2296 H2303 0.984 . S
N2297 C2290 1.356 . S
N2297 H2300 0.984 . S
N2297 H2301 0.985 . S
H2298 N2293 0.984 . S
H2299 N2293 0.985 . S
H2300 N2297 0.984 . S
H2301 N2297 0.985 . S
H2302 N2296 0.984 . S
H2303 N2296 0.984 . S
H2304 N2292 0.984 . S
H2305 N2292 0.985 . S
C2306 C2307 1.363 . S
C2306 C2312 1.379 . S
C2306 N2314 1.356 . S
C2307 C2306 1.363 . S
C2307 C2313 1.363 . S
C2308 C2309 1.363 . S
C2308 C2313 1.379 . S
C2308 N2315 1.356 . S
C2309 C2308 1.363 . S
C2309 C2312 1.363 . S
N2310 C2312 1.356 . S
N2310 H2322 0.984 . S
N2310 H2323 0.985 . S
N2311 C2313 1.356 . S
N2311 H2316 0.984 . S
N2311 H2317 0.985 . S
C2312 C2306 1.379 . S
C2312 C2309 1.363 . S
C2312 N2310 1.356 . S
C2313 C2307 1.363 . S
C2313 C2308 1.379 . S
C2313 N2311 1.356 . S
N2314 C2306 1.356 . S
N2314 H2320 0.984 . S
N2314 H2321 0.984 . S
N2315 C2308 1.356 . S
N2315 H2318 0.984 . S
N2315 H2319 0.985 . S
H2316 N2311 0.984 . S
H2317 N2311 0.985 . S
H2318 N2315 0.984 . S
H2319 N2315 0.985 . S
H2320 N2314 0.984 . S
H2321 N2314 0.984 . S
H2322 N2310 0.984 . S
H2323 N2310 0.985 . S
C2324 C2325 1.363 . S
C2324 C2330 1.379 . S
C2324 N2332 1.356 . S
C2325 C2324 1.363 . S
C2325 C2331 1.363 . S
C2326 C2327 1.363 . S
C2326 C2331 1.379 . S
C2326 N2333 1.356 . S
C2327 C2326 1.363 . S
C2327 C2330 1.363 . S
N2328 C2330 1.356 . S
N2328 H2340 0.984 . S
N2328 H2341 0.985 . S
N2329 C2331 1.356 . S
N2329 H2334 0.984 . S
N2329 H2335 0.985 . S
C2330 C2324 1.379 . S
C2330 C2327 1.363 . S
C2330 N2328 1.356 . S
C2331 C2325 1.363 . S
C2331 C2326 1.379 . S
C2331 N2329 1.356 . S
N2332 C2324 1.356 . S
N2332 H2338 0.984 . S
N2332 H2339 0.984 . S
N2333 C2326 1.356 . S
N2333 H2336 0.984 . S
N2333 H2337 0.985 . S
H2334 N2329 0.984 . S
H2335 N2329 0.985 . S
H2336 N2333 0.984 . S
H2337 N2333 0.985 . S
H2338 N2332 0.984 . S
H2339 N2332 0.984 . S
H2340 N2328 0.984 . S
H2341 N2328 0.985 . S
C2342 C2343 1.363 . S
C2342 C2348 1.379 . S
C2342 N2350 1.356 . S
C2343 C2342 1.363 . S
C2343 C2349 1.363 . S
C2344 C2345 1.363 . S
C2344 C2349 1.379 . S
C2344 N2351 1.356 . S
C2345 C2344 1.363 . S
C2345 C2348 1.363 . S
N2346 C2348 1.356 . S
N2346 H2358 0.984 . S
N2346 H2359 0.985 . S
N2347 C2349 1.356 . S
N2347 H2352 0.984 . S
N2347 H2353 0.985 . S
C2348 C2342 1.379 . S
C2348 C2345 1.363 . S
C2348 N2346 1.356 . S
C2349 C2343 1.363 . S
C2349 C2344 1.379 . S
C2349 N2347 1.356 . S
N2350 C2342 1.356 . S
N2350 H2356 0.984 . S
N2350 H2357 0.984 . S
N2351 C2344 1.356 . S
N2351 H2354 0.984 . S
N2351 H2355 0.985 . S
H2352 N2347 0.984 . S
H2353 N2347 0.985 . S
H2354 N2351 0.984 . S
H2355 N2351 0.985 . S
H2356 N2350 0.984 . S
H2357 N2350 0.984 . S
H2358 N2346 0.984 . S
H2359 N2346 0.985 . S
C2360 C2361 1.363 . S
C2360 C2366 1.379 . S
C2360 N2368 1.356 . S
C2361 C2360 1.363 . S
C2361 C2367 1.363 . S
C2362 C2363 1.363 . S
C2362 C2367 1.379 . S
C2362 N2369 1.356 . S
C2363 C2362 1.363 . S
C2363 C2366 1.363 . S
N2364 C2366 1.356 . S
N2364 H2376 0.984 . S
N2364 H2377 0.985 . S
N2365 C2367 1.356 . S
N2365 H2370 0.984 . S
N2365 H2371 0.985 . S
C2366 C2360 1.379 . S
C2366 C2363 1.363 . S
C2366 N2364 1.356 . S
C2367 C2361 1.363 . S
C2367 C2362 1.379 . S
C2367 N2365 1.356 . S
N2368 C2360 1.356 . S
N2368 H2374 0.984 . S
N2368 H2375 0.984 . S
N2369 C2362 1.356 . S
N2369 H2372 0.984 . S
N2369 H2373 0.985 . S
H2370 N2365 0.984 . S
H2371 N2365 0.985 . S
H2372 N2369 0.984 . S
H2373 N2369 0.985 . S
H2374 N2368 0.984 . S
H2375 N2368 0.984 . S
H2376 N2364 0.984 . S
H2377 N2364 0.985 . S
C2378 C2379 1.363 . S
C2378 C2384 1.379 . S
C2378 N2386 1.356 . S
C2379 C2378 1.363 . S
C2379 C2385 1.363 . S
C2380 C2381 1.363 . S
C2380 C2385 1.379 . S
C2380 N2387 1.356 . S
C2381 C2380 1.363 . S
C2381 C2384 1.363 . S
N2382 C2384 1.356 . S
N2382 H2394 0.984 . S
N2382 H2395 0.985 . S
N2383 C2385 1.356 . S
N2383 H2388 0.984 . S
N2383 H2389 0.985 . S
C2384 C2378 1.379 . S
C2384 C2381 1.363 . S
C2384 N2382 1.356 . S
C2385 C2379 1.363 . S
C2385 C2380 1.379 . S
C2385 N2383 1.356 . S
N2386 C2378 1.356 . S
N2386 H2392 0.984 . S
N2386 H2393 0.984 . S
N2387 C2380 1.356 . S
N2387 H2390 0.984 . S
N2387 H2391 0.985 . S
H2388 N2383 0.984 . S
H2389 N2383 0.985 . S
H2390 N2387 0.984 . S
H2391 N2387 0.985 . S
H2392 N2386 0.984 . S
H2393 N2386 0.984 . S
H2394 N2382 0.984 . S
H2395 N2382 0.985 . S
C2396 C2397 1.363 . S
C2396 C2402 1.379 . S
C2396 N2404 1.356 . S
C2397 C2396 1.363 . S
C2397 C2403 1.363 . S
C2398 C2399 1.363 . S
C2398 C2403 1.379 . S
C2398 N2405 1.356 . S
C2399 C2398 1.363 . S
C2399 C2402 1.363 . S
N2400 C2402 1.356 . S
N2400 H2412 0.984 . S
N2400 H2413 0.985 . S
N2401 C2403 1.356 . S
N2401 H2406 0.984 . S
N2401 H2407 0.985 . S
C2402 C2396 1.379 . S
C2402 C2399 1.363 . S
C2402 N2400 1.356 . S
C2403 C2397 1.363 . S
C2403 C2398 1.379 . S
C2403 N2401 1.356 . S
N2404 C2396 1.356 . S
N2404 H2410 0.984 . S
N2404 H2411 0.984 . S
N2405 C2398 1.356 . S
N2405 H2408 0.984 . S
N2405 H2409 0.985 . S
H2406 N2401 0.984 . S
H2407 N2401 0.985 . S
H2408 N2405 0.984 . S
H2409 N2405 0.985 . S
H2410 N2404 0.984 . S
H2411 N2404 0.984 . S
H2412 N2400 0.984 . S
H2413 N2400 0.985 . S
C2414 C2415 1.363 . S
C2414 C2420 1.379 . S
C2414 N2422 1.356 . S
C2415 C2414 1.363 . S
C2415 C2421 1.363 . S
C2416 C2417 1.363 . S
C2416 C2421 1.379 . S
C2416 N2423 1.356 . S
C2417 C2416 1.363 . S
C2417 C2420 1.363 . S
N2418 C2420 1.356 . S
N2418 H2430 0.984 . S
N2418 H2431 0.985 . S
N2419 C2421 1.356 . S
N2419 H2424 0.984 . S
N2419 H2425 0.985 . S
C2420 C2414 1.379 . S
C2420 C2417 1.363 . S
C2420 N2418 1.356 . S
C2421 C2415 1.363 . S
C2421 C2416 1.379 . S
C2421 N2419 1.356 . S
N2422 C2414 1.356 . S
N2422 H2428 0.984 . S
N2422 H2429 0.984 . S
N2423 C2416 1.356 . S
N2423 H2426 0.984 . S
N2423 H2427 0.985 . S
H2424 N2419 0.984 . S
H2425 N2419 0.985 . S
H2426 N2423 0.984 . S
H2427 N2423 0.985 . S
H2428 N2422 0.984 . S
H2429 N2422 0.984 . S
H2430 N2418 0.984 . S
H2431 N2418 0.985 . S
C2432 C2433 1.363 . S
C2432 C2438 1.379 . S
C2432 N2440 1.356 . S
C2433 C2432 1.363 . S
C2433 C2439 1.363 . S
C2434 C2435 1.363 . S
C2434 C2439 1.379 . S
C2434 N2441 1.356 . S
C2435 C2434 1.363 . S
C2435 C2438 1.363 . S
N2436 C2438 1.356 . S
N2436 H2448 0.984 . S
N2436 H2449 0.985 . S
N2437 C2439 1.356 . S
N2437 H2442 0.984 . S
N2437 H2443 0.985 . S
C2438 C2432 1.379 . S
C2438 C2435 1.363 . S
C2438 N2436 1.356 . S
C2439 C2433 1.363 . S
C2439 C2434 1.379 . S
C2439 N2437 1.356 . S
N2440 C2432 1.356 . S
N2440 H2446 0.984 . S
N2440 H2447 0.984 . S
N2441 C2434 1.356 . S
N2441 H2444 0.984 . S
N2441 H2445 0.985 . S
H2442 N2437 0.984 . S
H2443 N2437 0.985 . S
H2444 N2441 0.984 . S
H2445 N2441 0.985 . S
H2446 N2440 0.984 . S
H2447 N2440 0.984 . S
H2448 N2436 0.984 . S
H2449 N2436 0.985 . S
C2450 C2451 1.363 . S
C2450 C2456 1.379 . S
C2450 N2458 1.356 . S
C2451 C2450 1.363 . S
C2451 C2457 1.363 . S
C2452 C2453 1.363 . S
C2452 C2457 1.379 . S
C2452 N2459 1.356 . S
C2453 C2452 1.363 . S
C2453 C2456 1.363 . S
N2454 C2456 1.356 . S
N2454 H2466 0.984 . S
N2454 H2467 0.985 . S
N2455 C2457 1.356 . S
N2455 H2460 0.984 . S
N2455 H2461 0.985 . S
C2456 C2450 1.379 . S
C2456 C2453 1.363 . S
C2456 N2454 1.356 . S
C2457 C2451 1.363 . S
C2457 C2452 1.379 . S
C2457 N2455 1.356 . S
N2458 C2450 1.356 . S
N2458 H2464 0.984 . S
N2458 H2465 0.984 . S
N2459 C2452 1.356 . S
N2459 H2462 0.984 . S
N2459 H2463 0.985 . S
H2460 N2455 0.984 . S
H2461 N2455 0.985 . S
H2462 N2459 0.984 . S
H2463 N2459 0.985 . S
H2464 N2458 0.984 . S
H2465 N2458 0.984 . S
H2466 N2454 0.984 . S
H2467 N2454 0.985 . S
C2468 C2469 1.363 . S
C2468 C2474 1.379 . S
C2468 N2476 1.356 . S
C2469 C2468 1.363 . S
C2469 C2475 1.363 . S
C2470 C2471 1.363 . S
C2470 C2475 1.379 . S
C2470 N2477 1.356 . S
C2471 C2470 1.363 . S
C2471 C2474 1.363 . S
N2472 C2474 1.356 . S
N2472 H2484 0.984 . S
N2472 H2485 0.985 . S
N2473 C2475 1.356 . S
N2473 H2478 0.984 . S
N2473 H2479 0.985 . S
C2474 C2468 1.379 . S
C2474 C2471 1.363 . S
C2474 N2472 1.356 . S
C2475 C2469 1.363 . S
C2475 C2470 1.379 . S
C2475 N2473 1.356 . S
N2476 C2468 1.356 . S
N2476 H2482 0.984 . S
N2476 H2483 0.990 . S
N2477 C2470 1.356 . S
N2477 H2480 0.984 . S
N2477 H2481 0.985 . S
H2478 N2473 0.984 . S
H2479 N2473 0.985 . S
H2480 N2477 0.984 . S
H2481 N2477 0.985 . S
H2482 N2476 0.984 . S
H2483 N2476 0.990 . S
H2484 N2472 0.984 . S
H2485 N2472 0.985 . S
C2486 C2487 1.363 . S
C2486 C2492 1.379 . S
C2486 N2494 1.356 . S
C2487 C2486 1.363 . S
C2487 C2493 1.363 . S
C2488 C2489 1.363 . S
C2488 C2493 1.379 . S
C2488 N2495 1.356 . S
C2489 C2488 1.363 . S
C2489 C2492 1.363 . S
N2490 C2492 1.356 . S
N2490 H2502 0.984 . S
N2490 H2503 0.985 . S
N2491 C2493 1.356 . S
N2491 H2496 0.984 . S
N2491 H2497 0.985 . S
C2492 C2486 1.379 . S
C2492 C2489 1.363 . S
C2492 N2490 1.356 . S
C2493 C2487 1.363 . S
C2493 C2488 1.379 . S
C2493 N2491 1.356 . S
N2494 C2486 1.356 . S
N2494 H2500 0.984 . S
N2494 H2501 0.984 . S
N2495 C2488 1.356 . S
N2495 H2498 0.984 1_556 S
N2495 H2499 0.985 . S
H2496 N2491 0.984 . S
H2497 N2491 0.985 . S
H2498 N2495 0.984 1_554 S
H2499 N2495 0.985 . S
H2500 N2494 0.984 . S
H2501 N2494 0.984 . S
H2502 N2490 0.984 . S
H2503 N2490 0.985 . S
C2504 C2505 1.363 . S
C2504 C2510 1.379 . S
C2504 N2512 1.356 . S
C2505 C2504 1.363 . S
C2505 C2511 1.363 . S
C2506 C2507 1.363 . S
C2506 C2511 1.379 . S
C2506 N2513 1.356 . S
C2507 C2506 1.363 . S
C2507 C2510 1.363 . S
N2508 C2510 1.356 . S
N2508 H2520 0.984 . S
N2508 H2521 0.985 . S
N2509 C2511 1.356 . S
N2509 H2514 0.984 . S
N2509 H2515 0.985 . S
C2510 C2504 1.379 . S
C2510 C2507 1.363 . S
C2510 N2508 1.356 . S
C2511 C2505 1.363 . S
C2511 C2506 1.379 . S
C2511 N2509 1.356 . S
N2512 C2504 1.356 . S
N2512 H2518 0.984 . S
N2512 H2519 0.984 . S
N2513 C2506 1.356 . S
N2513 H2516 0.984 . S
N2513 H2517 0.985 . S
H2514 N2509 0.984 . S
H2515 N2509 0.985 . S
H2516 N2513 0.984 . S
H2517 N2513 0.985 . S
H2518 N2512 0.984 . S
H2519 N2512 0.984 . S
H2520 N2508 0.984 . S
H2521 N2508 0.985 . S
C2522 C2523 1.363 . S
C2522 C2528 1.379 . S
C2522 N2530 1.356 . S
C2523 C2522 1.363 . S
C2523 C2529 1.363 . S
C2524 C2525 1.363 . S
C2524 C2529 1.379 . S
C2524 N2531 1.356 . S
C2525 C2524 1.363 . S
C2525 C2528 1.363 . S
N2526 C2528 1.356 . S
N2526 H2538 0.984 . S
N2526 H2539 0.985 . S
N2527 C2529 1.356 . S
N2527 H2532 0.984 . S
N2527 H2533 0.985 . S
C2528 C2522 1.379 . S
C2528 C2525 1.363 . S
C2528 N2526 1.356 . S
C2529 C2523 1.363 . S
C2529 C2524 1.379 . S
C2529 N2527 1.356 . S
N2530 C2522 1.356 . S
N2530 H2536 0.984 . S
N2530 H2537 0.984 . S
N2531 C2524 1.356 . S
N2531 H2534 0.984 . S
N2531 H2535 0.985 . S
H2532 N2527 0.984 . S
H2533 N2527 0.985 . S
H2534 N2531 0.984 . S
H2535 N2531 0.985 . S
H2536 N2530 0.984 . S
H2537 N2530 0.984 . S
H2538 N2526 0.984 . S
H2539 N2526 0.985 . S
C2540 C2541 1.363 . S
C2540 C2546 1.379 . S
C2540 N2548 1.356 . S
C2541 C2540 1.363 . S
C2541 C2547 1.363 . S
C2542 C2543 1.363 . S
C2542 C2547 1.379 . S
C2542 N2549 1.356 . S
C2543 C2542 1.363 . S
C2543 C2546 1.363 . S
N2544 C2546 1.356 . S
N2544 H2556 0.984 . S
N2544 H2557 0.985 . S
N2545 C2547 1.356 . S
N2545 H2550 0.984 . S
N2545 H2551 0.985 . S
C2546 C2540 1.379 . S
C2546 C2543 1.363 . S
C2546 N2544 1.356 . S
C2547 C2541 1.363 . S
C2547 C2542 1.379 . S
C2547 N2545 1.356 . S
N2548 C2540 1.356 . S
N2548 H2554 0.984 1_554 S
N2548 H2555 0.984 1_554 S
N2549 C2542 1.356 . S
N2549 H2552 0.984 . S
N2549 H2553 0.985 . S
H2550 N2545 0.984 . S
H2551 N2545 0.985 . S
H2552 N2549 0.984 . S
H2553 N2549 0.985 . S
H2554 N2548 0.984 1_556 S
H2555 N2548 0.984 1_556 S
H2556 N2544 0.984 . S
H2557 N2544 0.985 . S
C2558 C2559 1.363 . S
C2558 C2564 1.379 . S
C2558 N2566 1.356 . S
C2559 C2558 1.363 . S
C2559 C2565 1.363 . S
C2560 C2561 1.363 . S
C2560 C2565 1.379 . S
C2560 N2567 1.356 . S
C2561 C2560 1.363 . S
C2561 C2564 1.363 . S
N2562 C2564 1.356 . S
N2562 H2574 0.984 . S
N2562 H2575 0.985 . S
N2563 C2565 1.356 . S
N2563 H2568 0.984 . S
N2563 H2569 0.985 . S
C2564 C2558 1.379 . S
C2564 C2561 1.363 . S
C2564 N2562 1.356 . S
C2565 C2559 1.363 . S
C2565 C2560 1.379 . S
C2565 N2563 1.356 . S
N2566 C2558 1.356 . S
N2566 H2572 0.984 . S
N2566 H2573 0.984 1_554 S
N2567 C2560 1.356 . S
N2567 H2570 0.984 . S
N2567 H2571 0.985 . S
H2568 N2563 0.984 . S
H2569 N2563 0.985 . S
H2570 N2567 0.984 . S
H2571 N2567 0.985 . S
H2572 N2566 0.984 . S
H2573 N2566 0.984 1_556 S
H2574 N2562 0.984 . S
H2575 N2562 0.985 . S
C2576 C2577 1.363 . S
C2576 C2582 1.379 . S
C2576 N2584 1.356 . S
C2577 C2576 1.363 . S
C2577 C2583 1.363 . S
C2578 C2579 1.363 . S
C2578 C2583 1.379 . S
C2578 N2585 1.356 . S
C2579 C2578 1.363 . S
C2579 C2582 1.363 . S
N2580 C2582 1.356 . S
N2580 H2592 0.984 . S
N2580 H2593 0.985 . S
N2581 C2583 1.356 . S
N2581 H2586 0.984 . S
N2581 H2587 0.985 . S
C2582 C2576 1.379 . S
C2582 C2579 1.363 . S
C2582 N2580 1.356 . S
C2583 C2577 1.363 . S
C2583 C2578 1.379 . S
C2583 N2581 1.356 . S
N2584 C2576 1.356 . S
N2584 H2590 0.984 1_556 S
N2584 H2591 0.984 1_556 S
N2585 C2578 1.356 . S
N2585 H2588 0.984 . S
N2585 H2589 0.985 . S
H2586 N2581 0.984 . S
H2587 N2581 0.985 . S
H2588 N2585 0.984 . S
H2589 N2585 0.985 . S
H2590 N2584 0.984 1_554 S
H2591 N2584 0.984 1_554 S
H2592 N2580 0.984 . S
H2593 N2580 0.985 . S
C2594 C2595 1.363 . S
C2594 C2600 1.379 . S
C2594 N2602 1.356 . S
C2595 C2594 1.363 . S
C2595 C2601 1.363 . S
C2596 C2597 1.363 . S
C2596 C2601 1.379 . S
C2596 N2603 1.356 . S
C2597 C2596 1.363 . S
C2597 C2600 1.363 . S
N2598 C2600 1.356 . S
N2598 H2610 0.987 . S
N2598 H2611 0.985 1_556 S
N2599 C2601 1.356 . S
N2599 H2604 0.984 . S
N2599 H2605 0.985 . S
C2600 C2594 1.379 . S
C2600 C2597 1.363 . S
C2600 N2598 1.356 . S
C2601 C2595 1.363 . S
C2601 C2596 1.379 . S
C2601 N2599 1.356 . S
N2602 C2594 1.356 . S
N2602 H2608 0.984 . S
N2602 H2609 0.984 . S
N2603 C2596 1.356 . S
N2603 H2606 0.984 . S
N2603 H2607 0.985 . S
H2604 N2599 0.984 . S
H2605 N2599 0.985 . S
H2606 N2603 0.984 . S
H2607 N2603 0.985 . S
H2608 N2602 0.984 . S
H2609 N2602 0.984 . S
H2610 N2598 0.987 . S
H2611 N2598 0.985 1_554 S
C2612 C2613 1.363 . S
C2612 C2618 1.379 . S
C2612 N2620 1.356 . S
C2613 C2612 1.363 . S
C2613 C2619 1.363 . S
C2614 C2615 1.363 . S
C2614 C2619 1.379 . S
C2614 N2621 1.356 . S
C2615 C2614 1.363 . S
C2615 C2618 1.363 . S
N2616 C2618 1.356 . S
N2616 H2628 0.984 . S
N2616 H2629 0.985 . S
N2617 C2619 1.356 . S
N2617 H2622 0.984 . S
N2617 H2623 0.985 . S
C2618 C2612 1.379 . S
C2618 C2615 1.363 . S
C2618 N2616 1.356 . S
C2619 C2613 1.363 . S
C2619 C2614 1.379 . S
C2619 N2617 1.356 . S
N2620 C2612 1.356 . S
N2620 H2626 0.984 . S
N2620 H2627 0.984 . S
N2621 C2614 1.356 . S
N2621 H2624 0.984 . S
N2621 H2625 0.985 . S
H2622 N2617 0.984 . S
H2623 N2617 0.985 . S
H2624 N2621 0.984 . S
H2625 N2621 0.985 . S
H2626 N2620 0.984 . S
H2627 N2620 0.984 . S
H2628 N2616 0.984 . S
H2629 N2616 0.985 . S
C2630 C2631 1.363 . S
C2630 C2636 1.379 . S
C2630 N2638 1.356 . S
C2631 C2630 1.363 . S
C2631 C2637 1.363 . S
C2632 C2633 1.363 . S
C2632 C2637 1.379 . S
C2632 N2639 1.356 . S
C2633 C2632 1.363 . S
C2633 C2636 1.363 . S
N2634 C2636 1.356 . S
N2634 H2646 0.984 . S
N2634 H2647 0.985 . S
N2635 C2637 1.356 . S
N2635 H2640 0.984 . S
N2635 H2641 0.985 . S
C2636 C2630 1.379 . S
C2636 C2633 1.363 . S
C2636 N2634 1.356 . S
C2637 C2631 1.363 . S
C2637 C2632 1.379 . S
C2637 N2635 1.356 . S
N2638 C2630 1.356 . S
N2638 H2644 0.984 . S
N2638 H2645 0.984 . S
N2639 C2632 1.356 . S
N2639 H2642 0.984 . S
N2639 H2643 0.985 . S
H2640 N2635 0.984 . S
H2641 N2635 0.985 . S
H2642 N2639 0.984 . S
H2643 N2639 0.985 . S
H2644 N2638 0.984 . S
H2645 N2638 0.984 . S
H2646 N2634 0.984 . S
H2647 N2634 0.985 . S
C2648 C2649 1.363 . S
C2648 C2654 1.379 . S
C2648 N2656 1.356 . S
C2649 C2648 1.363 . S
C2649 C2655 1.363 . S
C2650 C2651 1.363 . S
C2650 C2655 1.379 . S
C2650 N2657 1.356 . S
C2651 C2650 1.363 . S
C2651 C2654 1.363 . S
N2652 C2654 1.356 . S
N2652 H2664 0.984 . S
N2652 H2665 0.985 . S
N2653 C2655 1.356 . S
N2653 H2658 0.984 . S
N2653 H2659 0.985 . S
C2654 C2648 1.379 . S
C2654 C2651 1.363 . S
C2654 N2652 1.356 . S
C2655 C2649 1.363 . S
C2655 C2650 1.379 . S
C2655 N2653 1.356 . S
N2656 C2648 1.356 . S
N2656 H2662 0.984 1_554 S
N2656 H2663 0.984 1_554 S
N2657 C2650 1.356 . S
N2657 H2660 0.984 . S
N2657 H2661 0.985 . S
H2658 N2653 0.984 . S
H2659 N2653 0.985 . S
H2660 N2657 0.984 . S
H2661 N2657 0.985 . S
H2662 N2656 0.984 1_556 S
H2663 N2656 0.984 1_556 S
H2664 N2652 0.984 . S
H2665 N2652 0.985 . S
C2666 C2667 1.363 . S
C2666 C2672 1.379 . S
C2666 N2674 1.356 . S
C2667 C2666 1.363 . S
C2667 C2673 1.363 . S
C2668 C2669 1.363 . S
C2668 C2673 1.379 . S
C2668 N2675 1.356 . S
C2669 C2668 1.363 . S
C2669 C2672 1.363 . S
N2670 C2672 1.356 . S
N2670 H2682 0.984 . S
N2670 H2683 0.985 . S
N2671 C2673 1.356 . S
N2671 H2676 0.984 . S
N2671 H2677 0.985 . S
C2672 C2666 1.379 . S
C2672 C2669 1.363 . S
C2672 N2670 1.356 . S
C2673 C2667 1.363 . S
C2673 C2668 1.379 . S
C2673 N2671 1.356 . S
N2674 C2666 1.356 . S
N2674 H2680 0.984 . S
N2674 H2681 0.984 . S
N2675 C2668 1.356 . S
N2675 H2678 0.984 . S
N2675 H2679 0.985 . S
H2676 N2671 0.984 . S
H2677 N2671 0.985 . S
H2678 N2675 0.984 . S
H2679 N2675 0.985 . S
H2680 N2674 0.984 . S
H2681 N2674 0.984 . S
H2682 N2670 0.984 . S
H2683 N2670 0.985 . S
C2684 C2685 1.363 . S
C2684 C2690 1.379 . S
C2684 N2692 1.356 . S
C2685 C2684 1.363 . S
C2685 C2691 1.363 . S
C2686 C2687 1.363 . S
C2686 C2691 1.379 . S
C2686 N2693 1.356 . S
C2687 C2686 1.363 . S
C2687 C2690 1.363 . S
N2688 C2690 1.356 . S
N2688 H2700 0.984 . S
N2688 H2701 0.985 . S
N2689 C2691 1.356 . S
N2689 H2694 0.984 . S
N2689 H2695 0.985 . S
C2690 C2684 1.379 . S
C2690 C2687 1.363 . S
C2690 N2688 1.356 . S
C2691 C2685 1.363 . S
C2691 C2686 1.379 . S
C2691 N2689 1.356 . S
N2692 C2684 1.356 . S
N2692 H2698 0.984 . S
N2692 H2699 0.984 . S
N2693 C2686 1.356 . S
N2693 H2696 0.984 . S
N2693 H2697 0.985 . S
H2694 N2689 0.984 . S
H2695 N2689 0.985 . S
H2696 N2693 0.984 . S
H2697 N2693 0.985 . S
H2698 N2692 0.984 . S
H2699 N2692 0.984 . S
H2700 N2688 0.984 . S
H2701 N2688 0.985 . S
C2702 C2703 1.363 . S
C2702 C2708 1.379 . S
C2702 N2710 1.356 . S
C2703 C2702 1.363 . S
C2703 C2709 1.363 . S
C2704 C2705 1.363 . S
C2704 C2709 1.379 . S
C2704 N2711 1.356 . S
C2705 C2704 1.363 . S
C2705 C2708 1.363 . S
N2706 C2708 1.356 . S
N2706 H2718 0.984 . S
N2706 H2719 0.985 . S
N2707 C2709 1.356 . S
N2707 H2712 0.984 . S
N2707 H2713 0.985 . S
C2708 C2702 1.379 . S
C2708 C2705 1.363 . S
C2708 N2706 1.356 . S
C2709 C2703 1.363 . S
C2709 C2704 1.379 . S
C2709 N2707 1.356 . S
N2710 C2702 1.356 . S
N2710 H2716 0.984 . S
N2710 H2717 0.984 . S
N2711 C2704 1.356 . S
N2711 H2714 0.984 . S
N2711 H2715 0.985 . S
H2712 N2707 0.984 . S
H2713 N2707 0.985 . S
H2714 N2711 0.984 . S
H2715 N2711 0.985 . S
H2716 N2710 0.984 . S
H2717 N2710 0.984 . S
H2718 N2706 0.984 . S
H2719 N2706 0.985 . S
C2720 C2721 1.363 . S
C2720 C2726 1.379 . S
C2720 N2728 1.356 . S
C2721 C2720 1.363 . S
C2721 C2727 1.363 . S
C2722 C2723 1.363 . S
C2722 C2727 1.379 . S
C2722 N2729 1.356 . S
C2723 C2722 1.363 . S
C2723 C2726 1.363 . S
N2724 C2726 1.356 . S
N2724 H2736 0.984 1_554 S
N2724 H2737 0.985 1_554 S
N2725 C2727 1.356 . S
N2725 H2730 0.984 . S
N2725 H2731 0.985 . S
C2726 C2720 1.379 . S
C2726 C2723 1.363 . S
C2726 N2724 1.356 . S
C2727 C2721 1.363 . S
C2727 C2722 1.379 . S
C2727 N2725 1.356 . S
N2728 C2720 1.356 . S
N2728 H2734 0.984 . S
N2728 H2735 0.984 . S
N2729 C2722 1.356 . S
N2729 H2732 0.984 . S
N2729 H2733 0.985 . S
H2730 N2725 0.984 . S
H2731 N2725 0.985 . S
H2732 N2729 0.984 . S
H2733 N2729 0.985 . S
H2734 N2728 0.984 . S
H2735 N2728 0.984 . S
H2736 N2724 0.984 1_556 S
H2737 N2724 0.985 1_556 S
C2738 C2739 1.363 . S
C2738 C2744 1.379 . S
C2738 N2746 1.356 . S
C2739 C2738 1.363 . S
C2739 C2745 1.363 . S
C2740 C2741 1.363 . S
C2740 C2745 1.379 . S
C2740 N2747 1.356 . S
C2741 C2740 1.363 . S
C2741 C2744 1.363 . S
N2742 C2744 1.356 . S
N2742 H2754 0.984 . S
N2742 H2755 0.985 . S
N2743 C2745 1.356 . S
N2743 H2748 0.984 . S
N2743 H2749 0.985 . S
C2744 C2738 1.379 . S
C2744 C2741 1.363 . S
C2744 N2742 1.356 . S
C2745 C2739 1.363 . S
C2745 C2740 1.379 . S
C2745 N2743 1.356 . S
N2746 C2738 1.356 . S
N2746 H2752 0.984 1_554 S
N2746 H2753 0.984 1_554 S
N2747 C2740 1.356 . S
N2747 H2750 0.984 . S
N2747 H2751 0.985 . S
H2748 N2743 0.984 . S
H2749 N2743 0.985 . S
H2750 N2747 0.984 . S
H2751 N2747 0.985 . S
H2752 N2746 0.984 1_556 S
H2753 N2746 0.984 1_556 S
H2754 N2742 0.984 . S
H2755 N2742 0.985 . S
C2756 C2757 1.363 . S
C2756 C2762 1.379 . S
C2756 N2764 1.356 . S
C2757 C2756 1.363 . S
C2757 C2763 1.363 . S
C2758 C2759 1.363 . S
C2758 C2763 1.379 . S
C2758 N2765 1.356 . S
C2759 C2758 1.363 . S
C2759 C2762 1.363 . S
N2760 C2762 1.356 . S
N2760 H2772 0.984 . S
N2760 H2773 0.985 . S
N2761 C2763 1.356 . S
N2761 H2766 0.984 . S
N2761 H2767 0.985 . S
C2762 C2756 1.379 . S
C2762 C2759 1.363 . S
C2762 N2760 1.356 . S
C2763 C2757 1.363 . S
C2763 C2758 1.379 . S
C2763 N2761 1.356 . S
N2764 C2756 1.356 . S
N2764 H2770 0.984 . S
N2764 H2771 0.984 . S
N2765 C2758 1.356 . S
N2765 H2768 0.984 . S
N2765 H2769 0.985 . S
H2766 N2761 0.984 . S
H2767 N2761 0.985 . S
H2768 N2765 0.984 . S
H2769 N2765 0.985 . S
H2770 N2764 0.984 . S
H2771 N2764 0.984 . S
H2772 N2760 0.984 . S
H2773 N2760 0.985 . S
C2774 C2775 1.363 . S
C2774 C2780 1.379 . S
C2774 N2782 1.356 . S
C2775 C2774 1.363 . S
C2775 C2781 1.363 . S
C2776 C2777 1.363 . S
C2776 C2781 1.379 . S
C2776 N2783 1.356 . S
C2777 C2776 1.363 . S
C2777 C2780 1.363 . S
N2778 C2780 1.356 . S
N2778 H2790 0.984 . S
N2778 H2791 0.985 . S
N2779 C2781 1.356 . S
N2779 H2784 0.984 . S
N2779 H2785 0.985 . S
C2780 C2774 1.379 . S
C2780 C2777 1.363 . S
C2780 N2778 1.356 . S
C2781 C2775 1.363 . S
C2781 C2776 1.379 . S
C2781 N2779 1.356 . S
N2782 C2774 1.356 . S
N2782 H2788 0.984 . S
N2782 H2789 0.984 . S
N2783 C2776 1.356 . S
N2783 H2786 0.984 . S
N2783 H2787 0.985 . S
H2784 N2779 0.984 . S
H2785 N2779 0.985 . S
H2786 N2783 0.984 . S
H2787 N2783 0.985 . S
H2788 N2782 0.984 . S
H2789 N2782 0.984 . S
H2790 N2778 0.984 . S
H2791 N2778 0.985 . S
C2792 C2793 1.363 . S
C2792 C2798 1.379 . S
C2792 N2800 1.356 . S
C2793 C2792 1.363 . S
C2793 C2799 1.363 . S
C2794 C2795 1.363 . S
C2794 C2799 1.379 . S
C2794 N2801 1.356 . S
C2795 C2794 1.363 . S
C2795 C2798 1.363 . S
N2796 C2798 1.356 . S
N2796 H2808 0.984 . S
N2796 H2809 0.985 . S
N2797 C2799 1.356 . S
N2797 H2802 0.984 . S
N2797 H2803 0.985 . S
C2798 C2792 1.379 . S
C2798 C2795 1.363 . S
C2798 N2796 1.356 . S
C2799 C2793 1.363 . S
C2799 C2794 1.379 . S
C2799 N2797 1.356 . S
N2800 C2792 1.356 . S
N2800 H2806 0.984 . S
N2800 H2807 0.984 . S
N2801 C2794 1.356 . S
N2801 H2804 0.984 . S
N2801 H2805 0.985 . S
H2802 N2797 0.984 . S
H2803 N2797 0.985 . S
H2804 N2801 0.984 . S
H2805 N2801 0.985 . S
H2806 N2800 0.984 . S
H2807 N2800 0.984 . S
H2808 N2796 0.984 . S
H2809 N2796 0.985 . S
C2810 C2811 1.363 . S
C2810 C2816 1.379 . S
C2810 N2818 1.356 . S
C2811 C2810 1.363 . S
C2811 C2817 1.363 . S
C2812 C2813 1.363 . S
C2812 C2817 1.379 . S
C2812 N2819 1.356 . S
C2813 C2812 1.363 . S
C2813 C2816 1.363 . S
N2814 C2816 1.356 . S
N2814 H2826 0.984 . S
N2814 H2827 0.985 . S
N2815 C2817 1.356 . S
N2815 H2820 0.984 . S
N2815 H2821 0.985 . S
C2816 C2810 1.379 . S
C2816 C2813 1.363 . S
C2816 N2814 1.356 . S
C2817 C2811 1.363 . S
C2817 C2812 1.379 . S
C2817 N2815 1.356 . S
N2818 C2810 1.356 . S
N2818 H2824 0.984 . S
N2818 H2825 0.984 . S
N2819 C2812 1.356 . S
N2819 H2822 0.984 . S
N2819 H2823 0.985 . S
H2820 N2815 0.984 . S
H2821 N2815 0.985 . S
H2822 N2819 0.984 . S
H2823 N2819 0.985 . S
H2824 N2818 0.984 . S
H2825 N2818 0.984 . S
H2826 N2814 0.984 . S
H2827 N2814 0.985 . S
C2828 C2829 1.363 . S
C2828 C2834 1.379 . S
C2828 N2836 1.356 . S
C2829 C2828 1.363 . S
C2829 C2835 1.363 . S
C2830 C2831 1.363 . S
C2830 C2835 1.379 . S
C2830 N2837 1.356 . S
C2831 C2830 1.363 . S
C2831 C2834 1.363 . S
N2832 C2834 1.356 . S
N2832 H2844 0.984 . S
N2832 H2845 0.985 . S
N2833 C2835 1.356 . S
N2833 H2838 0.984 . S
N2833 H2839 0.985 . S
C2834 C2828 1.379 . S
C2834 C2831 1.363 . S
C2834 N2832 1.356 . S
C2835 C2829 1.363 . S
C2835 C2830 1.379 . S
C2835 N2833 1.356 . S
N2836 C2828 1.356 . S
N2836 H2842 0.984 . S
N2836 H2843 0.984 . S
N2837 C2830 1.356 . S
N2837 H2840 0.984 . S
N2837 H2841 0.985 . S
H2838 N2833 0.984 . S
H2839 N2833 0.985 . S
H2840 N2837 0.984 . S
H2841 N2837 0.985 . S
H2842 N2836 0.984 . S
H2843 N2836 0.984 . S
H2844 N2832 0.984 . S
H2845 N2832 0.985 . S
C2846 C2847 1.363 . S
C2846 C2852 1.379 . S
C2846 N2854 1.356 . S
C2847 C2846 1.363 . S
C2847 C2853 1.363 . S
C2848 C2849 1.363 . S
C2848 C2853 1.379 . S
C2848 N2855 1.356 . S
C2849 C2848 1.363 . S
C2849 C2852 1.363 . S
N2850 C2852 1.356 . S
N2850 H2862 0.984 . S
N2850 H2863 0.985 . S
N2851 C2853 1.356 . S
N2851 H2856 0.984 . S
N2851 H2857 0.985 . S
C2852 C2846 1.379 . S
C2852 C2849 1.363 . S
C2852 N2850 1.356 . S
C2853 C2847 1.363 . S
C2853 C2848 1.379 . S
C2853 N2851 1.356 . S
N2854 C2846 1.356 . S
N2854 H2860 0.984 . S
N2854 H2861 0.984 . S
N2855 C2848 1.356 . S
N2855 H2858 0.984 . S
N2855 H2859 0.985 . S
H2856 N2851 0.984 . S
H2857 N2851 0.985 . S
H2858 N2855 0.984 . S
H2859 N2855 0.985 . S
H2860 N2854 0.984 . S
H2861 N2854 0.984 . S
H2862 N2850 0.984 . S
H2863 N2850 0.985 . S
C2864 C2865 1.363 . S
C2864 C2870 1.379 . S
C2864 N2872 1.356 . S
C2865 C2864 1.363 . S
C2865 C2871 1.363 . S
C2866 C2867 1.363 . S
C2866 C2871 1.379 . S
C2866 N2873 1.356 . S
C2867 C2866 1.363 . S
C2867 C2870 1.363 . S
N2868 C2870 1.356 . S
N2868 H2880 0.984 . S
N2868 H2881 0.985 . S
N2869 C2871 1.356 . S
N2869 H2874 0.984 . S
N2869 H2875 0.985 . S
C2870 C2864 1.379 . S
C2870 C2867 1.363 . S
C2870 N2868 1.356 . S
C2871 C2865 1.363 . S
C2871 C2866 1.379 . S
C2871 N2869 1.356 . S
N2872 C2864 1.356 . S
N2872 H2878 0.984 . S
N2872 H2879 0.984 . S
N2873 C2866 1.356 . S
N2873 H2876 0.984 . S
N2873 H2877 0.985 . S
H2874 N2869 0.984 . S
H2875 N2869 0.985 . S
H2876 N2873 0.984 . S
H2877 N2873 0.985 . S
H2878 N2872 0.984 . S
H2879 N2872 0.984 . S
H2880 N2868 0.984 . S
H2881 N2868 0.985 . S
C2882 C2883 1.363 . S
C2882 C2888 1.379 . S
C2882 N2890 1.356 . S
C2883 C2882 1.363 . S
C2883 C2889 1.363 . S
C2884 C2885 1.363 . S
C2884 C2889 1.379 . S
C2884 N2891 1.356 . S
C2885 C2884 1.363 . S
C2885 C2888 1.363 . S
N2886 C2888 1.356 . S
N2886 H2898 0.984 . S
N2886 H2899 0.985 . S
N2887 C2889 1.356 . S
N2887 H2892 0.984 . S
N2887 H2893 0.985 . S
C2888 C2882 1.379 . S
C2888 C2885 1.363 . S
C2888 N2886 1.356 . S
C2889 C2883 1.363 . S
C2889 C2884 1.379 . S
C2889 N2887 1.356 . S
N2890 C2882 1.356 . S
N2890 H2896 0.984 . S
N2890 H2897 0.984 . S
N2891 C2884 1.356 . S
N2891 H2894 0.984 . S
N2891 H2895 0.985 . S
H2892 N2887 0.984 . S
H2893 N2887 0.985 . S
H2894 N2891 0.984 . S
H2895 N2891 0.985 . S
H2896 N2890 0.984 . S
H2897 N2890 0.984 . S
H2898 N2886 0.984 . S
H2899 N2886 0.985 . S
C2900 C2901 1.363 . S
C2900 C2906 1.379 . S
C2900 N2908 1.356 . S
C2901 C2900 1.363 . S
C2901 C2907 1.363 . S
C2902 C2903 1.363 . S
C2902 C2907 1.379 . S
C2902 N2909 1.356 . S
C2903 C2902 1.363 . S
C2903 C2906 1.363 . S
N2904 C2906 1.356 . S
N2904 H2916 0.984 . S
N2904 H2917 0.985 . S
N2905 C2907 1.356 . S
N2905 H2910 0.984 . S
N2905 H2911 0.985 . S
C2906 C2900 1.379 . S
C2906 C2903 1.363 . S
C2906 N2904 1.356 . S
C2907 C2901 1.363 . S
C2907 C2902 1.379 . S
C2907 N2905 1.356 . S
N2908 C2900 1.356 . S
N2908 H2914 0.984 . S
N2908 H2915 0.984 . S
N2909 C2902 1.356 . S
N2909 H2912 0.984 . S
N2909 H2913 0.985 . S
H2910 N2905 0.984 . S
H2911 N2905 0.985 . S
H2912 N2909 0.984 . S
H2913 N2909 0.985 . S
H2914 N2908 0.984 . S
H2915 N2908 0.984 . S
H2916 N2904 0.984 . S
H2917 N2904 0.985 . S
C2918 C2919 1.363 . S
C2918 C2924 1.379 . S
C2918 N2926 1.356 . S
C2919 C2918 1.363 . S
C2919 C2925 1.363 . S
C2920 C2921 1.363 . S
C2920 C2925 1.379 . S
C2920 N2927 1.356 . S
C2921 C2920 1.363 . S
C2921 C2924 1.363 . S
N2922 C2924 1.356 . S
N2922 H2934 0.984 . S
N2922 H2935 0.985 . S
N2923 C2925 1.356 . S
N2923 H2928 0.984 . S
N2923 H2929 0.985 . S
C2924 C2918 1.379 . S
C2924 C2921 1.363 . S
C2924 N2922 1.356 . S
C2925 C2919 1.363 . S
C2925 C2920 1.379 . S
C2925 N2923 1.356 . S
N2926 C2918 1.356 . S
N2926 H2932 0.984 . S
N2926 H2933 0.984 . S
N2927 C2920 1.356 . S
N2927 H2930 0.984 . S
N2927 H2931 0.985 . S
H2928 N2923 0.984 . S
H2929 N2923 0.985 . S
H2930 N2927 0.984 . S
H2931 N2927 0.985 . S
H2932 N2926 0.984 . S
H2933 N2926 0.984 . S
H2934 N2922 0.984 . S
H2935 N2922 0.985 . S
C2936 C2937 1.363 . S
C2936 C2942 1.379 . S
C2936 N2944 1.356 . S
C2937 C2936 1.363 . S
C2937 C2943 1.363 . S
C2938 C2939 1.363 . S
C2938 C2943 1.379 . S
C2938 N2945 1.356 . S
C2939 C2938 1.363 . S
C2939 C2942 1.363 . S
N2940 C2942 1.356 . S
N2940 H2952 0.984 1_554 S
N2940 H2953 0.985 1_554 S
N2941 C2943 1.356 . S
N2941 H2946 0.984 . S
N2941 H2947 0.985 . S
C2942 C2936 1.379 . S
C2942 C2939 1.363 . S
C2942 N2940 1.356 . S
C2943 C2937 1.363 . S
C2943 C2938 1.379 . S
C2943 N2941 1.356 . S
N2944 C2936 1.356 . S
N2944 H2950 0.984 . S
N2944 H2951 0.984 . S
N2945 C2938 1.356 . S
N2945 H2948 0.984 . S
N2945 H2949 0.985 . S
H2946 N2941 0.984 . S
H2947 N2941 0.985 . S
H2948 N2945 0.984 . S
H2949 N2945 0.985 . S
H2950 N2944 0.984 . S
H2951 N2944 0.984 . S
H2952 N2940 0.984 1_556 S
H2953 N2940 0.985 1_556 S
C2954 C2955 1.363 . S
C2954 C2960 1.379 . S
C2954 N2962 1.356 . S
C2955 C2954 1.363 . S
C2955 C2961 1.363 . S
C2956 C2957 1.363 . S
C2956 C2961 1.379 . S
C2956 N2963 1.356 . S
C2957 C2956 1.363 . S
C2957 C2960 1.363 . S
N2958 C2960 1.356 . S
N2958 H2970 0.984 1_554 S
N2958 H2971 0.985 1_554 S
N2959 C2961 1.356 . S
N2959 H2964 0.984 . S
N2959 H2965 0.985 . S
C2960 C2954 1.379 . S
C2960 C2957 1.363 . S
C2960 N2958 1.356 . S
C2961 C2955 1.363 . S
C2961 C2956 1.379 . S
C2961 N2959 1.356 . S
N2962 C2954 1.356 . S
N2962 H2968 0.984 . S
N2962 H2969 0.984 . S
N2963 C2956 1.356 . S
N2963 H2966 0.984 . S
N2963 H2967 0.985 . S
H2964 N2959 0.984 . S
H2965 N2959 0.985 . S
H2966 N2963 0.984 . S
H2967 N2963 0.985 . S
H2968 N2962 0.984 . S
H2969 N2962 0.984 . S
H2970 N2958 0.984 1_556 S
H2971 N2958 0.985 1_556 S
C2972 C2973 1.363 . S
C2972 C2978 1.379 . S
C2972 N2980 1.356 . S
C2973 C2972 1.363 . S
C2973 C2979 1.363 . S
C2974 C2975 1.363 . S
C2974 C2979 1.379 . S
C2974 N2981 1.356 . S
C2975 C2974 1.363 . S
C2975 C2978 1.363 . S
N2976 C2978 1.356 . S
N2976 H2988 0.984 . S
N2976 H2989 0.985 . S
N2977 C2979 1.356 . S
N2977 H2982 0.984 . S
N2977 H2983 0.985 . S
C2978 C2972 1.379 . S
C2978 C2975 1.363 . S
C2978 N2976 1.356 . S
C2979 C2973 1.363 . S
C2979 C2974 1.379 . S
C2979 N2977 1.356 . S
N2980 C2972 1.356 . S
N2980 H2986 0.984 . S
N2980 H2987 0.984 . S
N2981 C2974 1.356 . S
N2981 H2984 0.984 . S
N2981 H2985 0.985 . S
H2982 N2977 0.984 . S
H2983 N2977 0.985 . S
H2984 N2981 0.984 . S
H2985 N2981 0.985 . S
H2986 N2980 0.984 . S
H2987 N2980 0.984 . S
H2988 N2976 0.984 . S
H2989 N2976 0.985 . S
C2990 C2991 1.363 . S
C2990 C2996 1.379 . S
C2990 N2998 1.356 . S
C2991 C2990 1.363 . S
C2991 C2997 1.363 . S
C2992 C2993 1.363 . S
C2992 C2997 1.379 . S
C2992 N2999 1.356 . S
C2993 C2992 1.363 . S
C2993 C2996 1.363 . S
N2994 C2996 1.356 . S
N2994 H3006 0.984 . S
N2994 H3007 0.985 . S
N2995 C2997 1.356 . S
N2995 H3000 0.984 1_556 S
N2995 H3001 0.985 1_556 S
C2996 C2990 1.379 . S
C2996 C2993 1.363 . S
C2996 N2994 1.356 . S
C2997 C2991 1.363 . S
C2997 C2992 1.379 . S
C2997 N2995 1.356 . S
N2998 C2990 1.356 . S
N2998 H3004 0.984 . S
N2998 H3005 0.984 . S
N2999 C2992 1.356 . S
N2999 H3002 0.984 . S
N2999 H3003 0.985 . S
H3000 N2995 0.984 1_554 S
H3001 N2995 0.985 1_554 S
H3002 N2999 0.984 . S
H3003 N2999 0.985 . S
H3004 N2998 0.984 . S
H3005 N2998 0.984 . S
H3006 N2994 0.984 . S
H3007 N2994 0.985 . S
C1281 C1131 1.902 . S
C1283 C2 1.902 . S
C1299 C211 1.900 . S
C1301 C42 1.901 . S
C1317 C891 1.900 . S
C1319 C82 1.901 . S
C1335 C611 1.902 . S
C1337 C122 1.902 . S
C1353 C171 1.902 . S
C1355 C962 1.902 . S
C1371 C722 1.900 . S
C1373 C251 1.901 . S
C1389 C442 1.902 . S
C1391 C291 1.902 . S
C1407 C811 1.902 . S
C1409 C322 1.902 . S
C1425 C362 1.901 . S
C1427 C531 1.901 . S
C1443 C402 1.901 . S
C1445 C1211 1.901 . S
C1461 C642 1.902 . S
C1463 C491 1.902 . S
C1479 C571 1.901 . S
C1481 C1042 1.901 . S
C1497 C682 1.900 . S
C1499 C851 1.901 . S
C1515 C762 1.902 . S
C1517 C1251 1.902 . S
C1533 C1082 1.902 . S
C1535 C931 1.902 . S
C1551 C1171 1.901 . S
C1553 C1002 1.901 . S
C1569 C771 1.559 . S
C1571 C11 1.559 . S
C1587 C731 1.554 . S
C1589 C51 1.554 . S
C1605 C691 1.554 . S
C1607 C91 1.554 . S
C1623 C651 1.559 . S
C1625 C131 1.559 . S
C1641 C922 1.559 . S
C1643 C162 1.559 . S
C1659 C202 1.554 . S
C1661 C882 1.554 . S
C1677 C242 1.554 . S
C1679 C842 1.554 . S
C1695 C282 1.559 . S
C1697 C802 1.559 . S
C1713 C331 1.570 . S
C1715 C1091 1.570 . S
C1731 C371 1.557 . S
C1733 C1051 1.557 . S
C1749 C411 1.557 . S
C1751 C1011 1.557 . S
C1767 C971 1.570 . S
C1769 C451 1.570 . S
C1785 C482 1.570 . S
C1787 C1242 1.570 . S
C1803 C522 1.557 . S
C1805 C1202 1.557 . S
C1821 C562 1.557 . S
C1823 C1162 1.557 . S
C1839 C1122 1.570 . S
C1841 C602 1.570 . S
C1857 C16 1.721 . S
C1859 C7 1.721 . S
C1875 C56 1.699 . S
C1877 C47 1.699 . S
C1893 C87 1.699 . S
C1895 C96 1.699 . S
C1911 C127 1.721 . S
C1913 C136 1.721 . S
C1929 C176 1.721 . S
C1931 C167 1.721 . S
C1947 C216 1.699 . S
C1949 C207 1.699 . S
C1965 C256 1.699 . S
C1967 C247 1.699 . S
C1983 C287 1.721 . S
C1985 C296 1.721 . S
C2001 C336 1.735 . S
C2003 C327 1.735 . S
C2019 C367 1.712 . S
C2021 C376 1.712 . S
C2037 C407 1.712 . S
C2039 C416 1.712 . S
C2055 C447 1.735 . S
C2057 C456 1.735 . S
C2073 C496 1.735 . S
C2075 C487 1.735 . S
C2091 C527 1.712 . S
C2093 C536 1.712 . S
C2109 C576 1.712 . S
C2111 C567 1.712 . S
C2127 C607 1.735 . S
C2129 C616 1.735 . S
C2145 C656 1.721 . S
C2147 C647 1.721 . S
C2163 C687 1.699 . S
C2165 C696 1.699 . S
C2181 C727 1.699 . S
C2183 C736 1.699 . S
C2199 C767 1.721 . S
C2201 C776 1.721 . S
C2217 C807 1.721 . S
C2219 C816 1.721 . S
C2235 C856 1.699 . S
C2237 C847 1.699 . S
C2253 C887 1.699 . S
C2255 C896 1.699 . S
C2271 C927 1.721 . S
C2273 C936 1.721 . S
C2289 C976 1.735 . S
C2291 C967 1.735 . S
C2307 C1007 1.712 . S
C2309 C1016 1.712 . S
C2325 C1047 1.712 . S
C2327 C1056 1.712 . S
C2343 C1096 1.735 . S
C2345 C1087 1.735 . S
C2361 C1136 1.735 . S
C2363 C1127 1.735 . S
C2379 C1167 1.712 . S
C2381 C1176 1.712 . S
C2397 C1207 1.712 . S
C2399 C1216 1.712 . S
C2415 C1247 1.735 . S
C2417 C1256 1.735 . S
C2433 C410 2.278 . S
C2435 C10 2.280 . S
C2451 C450 2.244 . S
C2453 C50 2.239 . S
C2469 C90 2.242 1_556 S
C2471 C330 2.242 . S
C2487 C370 2.278 . S
C2489 C130 2.280 1_556 S
C2505 C179 2.280 . S
C2507 C579 2.278 . S
C2523 C219 2.242 . S
C2525 C619 2.242 . S
C2541 C259 2.242 1_554 S
C2543 C499 2.242 . S
C2559 C299 2.280 1_554 S
C2561 C539 2.278 . S
C2577 C1050 2.278 1_556 S
C2579 C650 2.280 . S
C2595 C690 2.242 . S
C2597 C1090 2.242 1_556 S
C2613 C970 2.244 . S
C2615 C730 2.239 . S
C2631 C770 2.280 . S
C2633 C1010 2.278 . S
C2649 C1219 2.278 1_554 S
C2651 C819 2.280 . S
C2667 C859 2.242 . S
C2669 C1259 2.242 1_554 S
C2685 C899 2.242 . S
C2687 C1139 2.242 . S
C2703 C1179 2.278 . S
C2705 C939 2.280 . S
C2721 C19 1.176 . S
C2723 C99 1.176 . S
C2739 C139 1.176 . S
C2741 C59 1.176 . S
C2757 C250 1.173 . S
C2759 C170 1.179 . S
C2775 C210 1.173 . S
C2777 C290 1.179 . S
C2793 C339 1.126 . S
C2795 C419 1.125 . S
C2811 C459 1.126 . S
C2813 C379 1.125 . S
C2829 C570 1.125 . S
C2831 C490 1.126 . S
C2847 C610 1.126 . S
C2849 C530 1.125 . S
C2865 C739 1.173 . S
C2867 C659 1.179 . S
C2883 C779 1.176 . S
C2885 C699 1.176 . S
C2901 C890 1.173 . S
C2903 C810 1.179 . S
C2919 C930 1.176 . S
C2921 C850 1.176 . S
C2937 C979 1.126 . S
C2939 C1059 1.125 . S
C2955 C1019 1.125 . S
C2957 C1099 1.126 . S
C2973 C1130 1.126 . S
C2975 C1210 1.125 . S
C2991 C1250 1.126 . S
C2993 C1170 1.125 . S
