# Generated by pormake.
# Topology sml, (6)-cn, num edge types: 1
# Building blocks:
#     Node 0, Type 0, BuildingBlock: BETDEL_clean_sbu_0, # of connection points: 6
#     Node 1, Type 0, BuildingBlock: BETDEL_clean_sbu_0, # of connection points: 6
#     Node 2, Type 0, BuildingBlock: BETDEL_clean_sbu_0, # of connection points: 6
#     Node 3, Type 0, BuildingBlock: BETDEL_clean_sbu_0, # of connection points: 6
#     Node 4, Type 0, BuildingBlock: BETDEL_clean_sbu_0, # of connection points: 6
#     Node 5, Type 0, BuildingBlock: BETDEL_clean_sbu_0, # of connection points: 6
#     Edge 6, Type (0, 0), BuildingBlock: FUNLAD_clean_linker_0, # of connection points: 2
#     Edge 7, Type (0, 0), BuildingBlock: FUNLAD_clean_linker_0, # of connection points: 2
#     Edge 8, Type (0, 0), BuildingBlock: FUNLAD_clean_linker_0, # of connection points: 2
#     Edge 9, Type (0, 0), BuildingBlock: FUNLAD_clean_linker_0, # of connection points: 2
#     Edge 10, Type (0, 0), BuildingBlock: FUNLAD_clean_linker_0, # of connection points: 2
#     Edge 11, Type (0, 0), BuildingBlock: FUNLAD_clean_linker_0, # of connection points: 2
#     Edge 12, Type (0, 0), BuildingBlock: FUNLAD_clean_linker_0, # of connection points: 2
#     Edge 13, Type (0, 0), BuildingBlock: FUNLAD_clean_linker_0, # of connection points: 2
#     Edge 14, Type (0, 0), BuildingBlock: FUNLAD_clean_linker_0, # of connection points: 2
#     Edge 15, Type (0, 0), BuildingBlock: FUNLAD_clean_linker_0, # of connection points: 2
#     Edge 16, Type (0, 0), BuildingBlock: FUNLAD_clean_linker_0, # of connection points: 2
#     Edge 17, Type (0, 0), BuildingBlock: FUNLAD_clean_linker_0, # of connection points: 2
#     Edge 18, Type (0, 0), BuildingBlock: FUNLAD_clean_linker_0, # of connection points: 2
#     Edge 19, Type (0, 0), BuildingBlock: FUNLAD_clean_linker_0, # of connection points: 2
#     Edge 20, Type (0, 0), BuildingBlock: FUNLAD_clean_linker_0, # of connection points: 2
#     Edge 21, Type (0, 0), BuildingBlock: FUNLAD_clean_linker_0, # of connection points: 2
#     Edge 22, Type (0, 0), BuildingBlock: FUNLAD_clean_linker_0, # of connection points: 2
#     Edge 23, Type (0, 0), BuildingBlock: FUNLAD_clean_linker_0, # of connection points: 2
# Relax obj value: 0.136
# Max RMSD: 0.173
# Mean RMSD: 0.173
data_MOF--net-sml--node1-BETDEL_clean_sbu_0--edge1-FUNLAD_clean_linker_0
_symmetry_space_group_name_H-M    P1
_symmetry_Int_Tables_number       1
_symmetry_cell_setting            triclinic
loop_
_symmetry_equiv_pos_as_xyz
'x, y, z'
_cell_length_a     42.004694
_cell_length_b     41.931236
_cell_length_c     20.520903
_cell_angle_alpha  90.161282
_cell_angle_beta   89.869848
_cell_angle_gamma 119.90251
loop_
_atom_site_label
_atom_site_type_symbol
_atom_site_fract_x
_atom_site_fract_y
_atom_site_fract_z
_atom_type_partial_charge
Dy0 Dy 0.18896 0.42799 0.05912 0.0
C1 C 0.2121 0.41466 0.33285 0.0
C2 C 0.18997 0.4375 0.92776 0.0
Dy3 Dy 0.20936 0.42058 0.20103 0.0
O4 O 0.16455 0.40962 0.9594 0.0
O5 O 0.21453 0.46053 0.96801 0.0
O6 O 0.12997 0.40501 0.08771 0.0
O7 O 0.16304 0.38817 0.13705 0.0
C8 C 0.13204 0.38616 0.13615 0.0
C9 C 0.26575 0.46242 0.12246 0.0
O10 O 0.21193 0.37316 0.15838 0.0
O11 O 0.21305 0.39051 0.05035 0.0
O12 O 0.23379 0.44364 0.29914 0.0
O13 O 0.18935 0.38864 0.29444 0.0
O14 O 0.26814 0.44337 0.17015 0.0
O15 O 0.23491 0.46058 0.12326 0.0
O16 O 0.18661 0.47554 0.10381 0.0
O17 O 0.18262 0.45526 0.21047 0.0
C18 C 0.21671 0.36981 0.09539 0.0
C19 C 0.1805 0.47742 0.16684 0.0
Dy20 Dy 0.82736 0.25215 0.62218 0.0
C21 C 0.79419 0.21206 0.35076 0.0
C22 C 0.8237 0.25707 0.75413 0.0
Dy23 Dy 0.80293 0.22158 0.4824 0.0
O24 O 0.85319 0.27628 0.71948 0.0
O25 O 0.79644 0.23593 0.71655 0.0
O26 O 0.88601 0.28709 0.59071 0.0
O27 O 0.85131 0.23727 0.54208 0.0
C28 C 0.88238 0.26611 0.54108 0.0
C29 C 0.74944 0.20796 0.56778 0.0
O30 O 0.80475 0.1733 0.52222 0.0
O31 O 0.81227 0.19245 0.6307 0.0
O32 O 0.77186 0.21562 0.38991 0.0
O33 O 0.82095 0.21291 0.38367 0.0
O34 O 0.74602 0.18499 0.52196 0.0
O35 O 0.77966 0.23735 0.56247 0.0
O36 O 0.82343 0.2989 0.57784 0.0
O37 O 0.82893 0.28272 0.47185 0.0
C38 C 0.80606 0.16726 0.58531 0.0
C39 C 0.82967 0.30673 0.51483 0.0
Dy40 Dy 0.58457 0.7745 0.73915 0.0
C41 C 0.60195 0.80934 0.01584 0.0
C42 C 0.57093 0.76133 0.60903 0.0
Dy43 Dy 0.58852 0.79591 0.88574 0.0
O44 O 0.58567 0.7469 0.64549 0.0
O45 O 0.56276 0.78205 0.6441 0.0
O46 O 0.63664 0.77206 0.75148 0.0
O47 O 0.59993 0.75895 0.8295 0.0
C48 C 0.63086 0.76379 0.81298 0.0
C49 C 0.54041 0.80416 0.81336 0.0
O50 O 0.64011 0.84417 0.84697 0.0
O51 O 0.6281 0.83362 0.73578 0.0
O52 O 0.58436 0.82101 0.98016 0.0
O53 O 0.61307 0.79123 0.98001 0.0
O54 O 0.5354 0.79578 0.87487 0.0
O55 O 0.57178 0.81054 0.79555 0.0
O56 O 0.5316 0.72747 0.77849 0.0
O57 O 0.54639 0.73646 0.88892 0.0
C58 C 0.648 0.85449 0.78514 0.0
C59 C 0.52475 0.71659 0.84034 0.0
Dy60 Dy 0.7456 0.57849 0.29191 0.0
C61 C 0.78193 0.588 0.01317 0.0
C62 C 0.72913 0.56914 0.4215 0.0
Dy63 Dy 0.77339 0.57935 0.14425 0.0
O64 O 0.74124 0.59978 0.38988 0.0
O65 O 0.72495 0.54309 0.38185 0.0
O66 O 0.74537 0.6312 0.27164 0.0
O67 O 0.73792 0.59504 0.19556 0.0
C68 C 0.74313 0.62652 0.20889 0.0
C69 C 0.7916 0.54044 0.22593 0.0
O70 O 0.82044 0.62969 0.188 0.0
O71 O 0.80703 0.61153 0.29684 0.0
O72 O 0.77042 0.55712 0.044 0.0
O73 O 0.78986 0.6147 0.05429 0.0
O74 O 0.80073 0.54512 0.16457 0.0
O75 O 0.77398 0.55674 0.23704 0.0
O76 O 0.69443 0.53091 0.24942 0.0
O77 O 0.7132 0.53847 0.13988 0.0
C78 C 0.82974 0.63316 0.2506 0.0
C79 C 0.68822 0.52198 0.1865 0.0
Dy80 Dy 0.22139 0.79544 0.43871 0.0
C81 C 0.18242 0.77506 0.71026 0.0
C82 C 0.22823 0.79389 0.3066 0.0
Dy83 Dy 0.18916 0.77347 0.57816 0.0
O84 O 0.2464 0.82289 0.34298 0.0
O85 O 0.20696 0.7658 0.34256 0.0
O86 O 0.25998 0.8529 0.47241 0.0
O87 O 0.20832 0.82201 0.51745 0.0
C88 C 0.23879 0.85147 0.52001 0.0
C89 C 0.17247 0.71769 0.49592 0.0
O90 O 0.14496 0.78146 0.53551 0.0
O91 O 0.16285 0.78304 0.42753 0.0
O92 O 0.16336 0.74633 0.67371 0.0
O93 O 0.20453 0.80286 0.67447 0.0
O94 O 0.15086 0.71561 0.5433 0.0
O95 O 0.20251 0.74736 0.49974 0.0
O96 O 0.26562 0.78688 0.48173 0.0
O97 O 0.24674 0.78379 0.58956 0.0
C98 C 0.13873 0.78071 0.47205 0.0
C99 C 0.27083 0.78585 0.54535 0.0
Dy100 Dy 0.42564 0.17779 0.94751 0.0
C101 C 0.43213 0.20879 0.67237 0.0
C102 C 0.43494 0.18344 0.0779 0.0
Dy103 Dy 0.42882 0.20394 0.80381 0.0
O104 O 0.43152 0.15553 0.04384 0.0
O105 O 0.43395 0.2078 0.04052 0.0
O106 O 0.3711 0.12596 0.92917 0.0
O107 O 0.40811 0.1519 0.85336 0.0
C108 C 0.37604 0.12705 0.86636 0.0
C109 C 0.46181 0.25703 0.89353 0.0
O110 O 0.37537 0.19814 0.83543 0.0
O111 O 0.38772 0.20096 0.94608 0.0
O112 O 0.45998 0.22673 0.71106 0.0
O113 O 0.40218 0.18927 0.70562 0.0
O114 O 0.44726 0.26141 0.8409 0.0
O115 O 0.46077 0.22661 0.89155 0.0
O116 O 0.47455 0.17403 0.91329 0.0
O117 O 0.4672 0.18133 0.8023 0.0
C118 C 0.36829 0.20248 0.89666 0.0
C119 C 0.48332 0.17395 0.85096 0.0
C120 C 0.32738 0.21064 0.97517 0.0
C121 C 0.34004 0.21277 0.91101 0.0
C122 C 0.30436 0.22461 0.99118 0.0
C123 C 0.29393 0.2417 0.94348 0.0
C124 C 0.3048 0.24183 0.8786 0.0
C125 C 0.32764 0.22753 0.86244 0.0
C126 C 0.27287 0.26063 0.95978 0.0
C127 C 0.27288 0.27394 0.01976 0.0
C128 C 0.2553 0.29618 0.03638 0.0
C129 C 0.24833 0.29957 0.10225 0.0
C130 C 0.23484 0.32263 0.12121 0.0
C131 C 0.22829 0.34321 0.07468 0.0
H132 H 0.25382 0.31517 0.93843 0.0
C133 C 0.23458 0.33934 0.00852 0.0
C134 C 0.248 0.31615 0.98951 0.0
H135 H 0.22998 0.35488 0.97134 0.0
H136 H 0.33582 0.19874 0.01354 0.0
H137 H 0.29524 0.22218 0.04114 0.0
H138 H 0.29676 0.2543 0.84063 0.0
H139 H 0.33679 0.22947 0.81248 0.0
H140 H 0.25868 0.26536 0.92013 0.0
H141 H 0.28732 0.2694 0.05916 0.0
H142 H 0.25387 0.2847 0.13948 0.0
H143 H 0.23035 0.32488 0.1726 0.0
C144 C 0.07154 0.37089 0.1845 0.0
C145 C 0.10324 0.36769 0.18598 0.0
C146 C 0.04525 0.35541 0.2339 0.0
C147 C 0.05054 0.33693 0.28611 0.0
C148 C 0.08197 0.33332 0.28715 0.0
C149 C 0.10771 0.34787 0.23669 0.0
C150 C 0.02467 0.3233 0.34168 0.0
C151 C 0.9881 0.30625 0.33339 0.0
C152 C 0.96239 0.29506 0.38911 0.0
C153 C 0.9296 0.26117 0.38737 0.0
C154 C 0.90422 0.25103 0.43828 0.0
C155 C 0.91048 0.2753 0.49024 0.0
H156 H 0.99421 0.34536 0.44436 0.0
C157 C 0.94345 0.30909 0.49225 0.0
C158 C 0.96934 0.31879 0.44236 0.0
H159 H 0.94903 0.3283 0.53187 0.0
H160 H 0.06734 0.38594 0.14582 0.0
H161 H 0.02147 0.35904 0.23245 0.0
H162 H 0.0865 0.31906 0.32685 0.0
H163 H 0.1312 0.34386 0.23761 0.0
H164 H 0.03598 0.32667 0.39046 0.0
H165 H 0.97663 0.29952 0.28454 0.0
H166 H 0.92376 0.24245 0.34683 0.0
H167 H 0.87961 0.22433 0.43675 0.0
C168 C 0.80022 0.12312 0.67296 0.0
C169 C 0.79954 0.13074 0.60644 0.0
C170 C 0.7909 0.08776 0.69346 0.0
C171 C 0.7804 0.05914 0.6478 0.0
C172 C 0.78167 0.06728 0.5812 0.0
C173 C 0.79099 0.10262 0.56068 0.0
C174 C 0.76614 0.02021 0.66723 0.0
C175 C 0.74971 0.00644 0.72504 0.0
C176 C 0.72811 0.96641 0.73958 0.0
C177 C 0.71957 0.95513 0.80477 0.0
C178 C 0.69495 0.91836 0.82007 0.0
C179 C 0.67803 0.89215 0.7703 0.0
H180 H 0.71732 0.94712 0.63901 0.0
C181 C 0.68781 0.90311 0.70523 0.0
C182 C 0.71242 0.93976 0.68996 0.0
H183 H 0.67538 0.88365 0.66559 0.0
H184 H 0.80726 0.14427 0.70954 0.0
H185 H 0.79169 0.08308 0.74508 0.0
H186 H 0.77409 0.04587 0.54488 0.0
H187 H 0.79051 0.10755 0.50901 0.0
H188 H 0.76639 0.00182 0.63019 0.0
H189 H 0.74968 0.0248 0.76235 0.0
H190 H 0.73107 0.97506 0.84397 0.0
H191 H 0.68806 0.91089 0.87074 0.0
C192 C 0.63985 0.73798 0.91566 0.0
C193 C 0.65282 0.75309 0.85378 0.0
C194 C 0.65943 0.72635 0.95403 0.0
C195 C 0.69231 0.7292 0.93104 0.0
C196 C 0.70513 0.74391 0.8688 0.0
C197 C 0.68571 0.75613 0.83064 0.0
C198 C 0.71169 0.71418 0.96947 0.0
C199 C 0.71198 0.71486 0.03505 0.0
C200 C 0.72484 0.69438 0.07583 0.0
C201 C 0.73484 0.70551 0.1407 0.0
C202 C 0.74221 0.68411 0.18336 0.0
C203 C 0.73918 0.65088 0.16211 0.0
H204 H 0.71449 0.65167 0.00482 0.0
C205 C 0.73009 0.6401 0.09684 0.0
C206 C 0.7231 0.6617 0.05393 0.0
H207 H 0.72698 0.61428 0.07952 0.0
H208 H 0.61399 0.73415 0.93389 0.0
H209 H 0.64799 0.71385 0.0007 0.0
H210 H 0.7301 0.74586 0.84968 0.0
H211 H 0.69609 0.76736 0.78275 0.0
H212 H 0.72542 0.70195 0.94314 0.0
H213 H 0.70136 0.7304 0.06043 0.0
H214 H 0.73605 0.73037 0.15891 0.0
H215 H 0.74914 0.69301 0.2335 0.0
C216 C 0.09656 0.77707 0.38268 0.0
C217 C 0.10306 0.77566 0.4495 0.0
C218 C 0.06169 0.76818 0.36045 0.0
C219 C 0.0324 0.75728 0.40463 0.0
C220 C 0.03949 0.75807 0.47164 0.0
C221 C 0.07441 0.76708 0.49391 0.0
C222 C 0.99384 0.74301 0.38313 0.0
C223 C 0.98128 0.72785 0.32399 0.0
C224 C 0.94169 0.70705 0.30669 0.0
C225 C 0.93165 0.70189 0.24063 0.0
C226 C 0.89508 0.67895 0.22219 0.0
C227 C 0.86782 0.6603 0.26959 0.0
H228 H 0.92072 0.69144 0.4055 0.0
C229 C 0.87771 0.66621 0.33576 0.0
C230 C 0.91418 0.68921 0.35416 0.0
H231 H 0.85744 0.65229 0.37362 0.0
H232 H 0.1182 0.78425 0.34717 0.0
H233 H 0.05791 0.76951 0.30863 0.0
H234 H 0.01758 0.75023 0.50686 0.0
H235 H 0.0785 0.76599 0.54577 0.0
H236 H 0.97465 0.74234 0.41938 0.0
H237 H 0.00027 0.72869 0.28722 0.0
H238 H 0.95232 0.71502 0.20305 0.0
H239 H 0.88845 0.67499 0.17077 0.0
C240 C 0.32179 0.06505 0.84059 0.0
C241 C 0.35353 0.0971 0.82029 0.0
C242 C 0.30322 0.03535 0.79749 0.0
C243 C 0.31618 0.03742 0.73327 0.0
C244 C 0.34696 0.07023 0.71271 0.0
C245 C 0.36553 0.09955 0.75569 0.0
C246 C 0.30018 0.0061 0.6864 0.0
C247 C 0.27688 0.97071 0.70211 0.0
C248 C 0.26693 0.94039 0.65449 0.0
C249 C 0.23209 0.90869 0.65717 0.0
C250 C 0.22259 0.87976 0.61305 0.0
C251 C 0.24813 0.88176 0.56654 0.0
H252 H 0.32007 0.96547 0.60614 0.0
C253 C 0.28314 0.91314 0.56464 0.0
C254 C 0.29249 0.9421 0.60814 0.0
H255 H 0.30349 0.91527 0.52972 0.0
H256 H 0.3119 0.06255 0.89016 0.0
H257 H 0.27918 0.01096 0.81514 0.0
H258 H 0.35758 0.07282 0.66365 0.0
H259 H 0.3901 0.12373 0.73873 0.0
H260 H 0.30997 0.01241 0.63643 0.0
H261 H 0.26525 0.9633 0.75063 0.0
H262 H 0.21207 0.9065 0.6929 0.0
H263 H 0.19532 0.8559 0.61534 0.0
C264 C 0.16682 0.41163 0.81738 0.0
C265 C 0.19288 0.44027 0.85634 0.0
C266 C 0.17131 0.41246 0.74988 0.0
C267 C 0.20211 0.44197 0.72017 0.0
C268 C 0.22729 0.47133 0.75904 0.0
C269 C 0.22288 0.4704 0.82664 0.0
C270 C 0.20858 0.44315 0.64892 0.0
C271 C 0.19715 0.41259 0.6124 0.0
C272 C 0.20304 0.41325 0.54094 0.0
C273 C 0.17924 0.38214 0.50402 0.0
C274 C 0.18281 0.38215 0.43633 0.0
C275 C 0.21049 0.4132 0.40444 0.0
H276 H 0.25151 0.46777 0.53577 0.0
C277 C 0.23523 0.44378 0.44133 0.0
C278 C 0.23169 0.44381 0.509 0.0
H279 H 0.25703 0.46796 0.41781 0.0
H280 H 0.14327 0.38822 0.83915 0.0
H281 H 0.15056 0.39002 0.72129 0.0
H282 H 0.25097 0.4946 0.73723 0.0
H283 H 0.24332 0.49289 0.85571 0.0
H284 H 0.22395 0.47013 0.62675 0.0
H285 H 0.18199 0.38573 0.63519 0.0
H286 H 0.15723 0.35808 0.52743 0.0
H287 H 0.16338 0.35818 0.40889 0.0
C288 C 0.82066 0.21419 0.24079 0.0
C289 C 0.79201 0.21212 0.27918 0.0
C290 C 0.82023 0.21785 0.17316 0.0
C291 C 0.79113 0.21968 0.14282 0.0
C292 C 0.76184 0.21611 0.18123 0.0
C293 C 0.76236 0.21259 0.24882 0.0
C294 C 0.79004 0.22468 0.0714 0.0
C295 C 0.82044 0.2417 0.03401 0.0
C296 C 0.81977 0.24689 0.9624 0.0
C297 C 0.85232 0.27268 0.93109 0.0
C298 C 0.85347 0.27699 0.86341 0.0
C299 C 0.82205 0.25549 0.82578 0.0
H300 H 0.76276 0.20479 0.94569 0.0
C301 C 0.78932 0.23019 0.85687 0.0
C302 C 0.78818 0.22571 0.92436 0.0
H303 H 0.76475 0.213 0.82883 0.0
H304 H 0.84376 0.21368 0.26311 0.0
H305 H 0.84265 0.21912 0.14502 0.0
H306 H 0.73886 0.21691 0.15907 0.0
H307 H 0.73986 0.21094 0.27737 0.0
H308 H 0.76328 0.21581 0.05017 0.0
H309 H 0.84725 0.25348 0.05689 0.0
H310 H 0.87712 0.28924 0.95899 0.0
H311 H 0.87912 0.29655 0.84047 0.0
C312 C 0.55851 0.78139 0.50255 0.0
C313 C 0.57 0.76013 0.53728 0.0
C314 C 0.56227 0.78442 0.43484 0.0
C315 C 0.57779 0.76632 0.4006 0.0
C316 C 0.5874 0.7435 0.43518 0.0
C317 C 0.58376 0.74058 0.50297 0.0
C318 C 0.58425 0.77047 0.32911 0.0
C319 C 0.58993 0.80058 0.29587 0.0
C320 C 0.59603 0.80459 0.22433 0.0
C321 C 0.58544 0.82668 0.18987 0.0
C322 C 0.58867 0.82941 0.12205 0.0
C323 C 0.60312 0.81055 0.08757 0.0
H324 H 0.62189 0.77095 0.215 0.0
C325 C 0.61558 0.79004 0.12215 0.0
C326 C 0.61209 0.78706 0.18994 0.0
H327 H 0.62704 0.77539 0.09667 0.0
H328 H 0.54752 0.79651 0.52787 0.0
H329 H 0.55309 0.80105 0.40978 0.0
H330 H 0.59887 0.7288 0.40992 0.0
H331 H 0.59274 0.72392 0.52864 0.0
H332 H 0.58517 0.74822 0.30364 0.0
H333 H 0.58903 0.82286 0.32125 0.0
H334 H 0.57349 0.8409 0.21527 0.0
H335 H 0.57896 0.8455 0.0965 0.0
C336 C 0.77096 0.55951 0.90315 0.0
C337 C 0.78067 0.59069 0.9418 0.0
C338 C 0.76563 0.5603 0.83623 0.0
C339 C 0.76959 0.59232 0.80662 0.0
C340 C 0.78085 0.62398 0.84498 0.0
C341 C 0.78618 0.62316 0.91211 0.0
C342 C 0.76282 0.59377 0.73595 0.0
C343 C 0.73985 0.56384 0.70065 0.0
C344 C 0.73407 0.565 0.62951 0.0
C345 C 0.7237 0.53321 0.59204 0.0
C346 C 0.72047 0.53394 0.52432 0.0
C347 C 0.72717 0.56642 0.49307 0.0
H348 H 0.74541 0.62156 0.62567 0.0
C349 C 0.73557 0.59764 0.53074 0.0
C350 C 0.73888 0.59695 0.59833 0.0
H351 H 0.74055 0.62297 0.50781 0.0
H352 H 0.76686 0.53419 0.9248 0.0
H353 H 0.75853 0.5358 0.8081 0.0
H354 H 0.78461 0.64915 0.82325 0.0
H355 H 0.79361 0.64756 0.94094 0.0
H356 H 0.77709 0.6206 0.71287 0.0
H357 H 0.72554 0.53705 0.72382 0.0
H358 H 0.71933 0.50808 0.61495 0.0
H359 H 0.71395 0.50949 0.49632 0.0
C360 C 0.2062 0.8076 0.8161 0.0
C361 C 0.18239 0.77529 0.78209 0.0
C362 C 0.20873 0.80734 0.88397 0.0
C363 C 0.18757 0.7746 0.91918 0.0
C364 C 0.16273 0.74267 0.88512 0.0
C365 C 0.16027 0.74293 0.81717 0.0
C366 C 0.19025 0.77274 0.99121 0.0
C367 C 0.22039 0.79592 0.02568 0.0
C368 C 0.22303 0.79414 0.09771 0.0
C369 C 0.24757 0.82621 0.13173 0.0
C370 C 0.25001 0.82602 0.19967 0.0
C371 C 0.22822 0.79359 0.23479 0.0
H372 H 0.18399 0.73571 0.10852 0.0
C373 C 0.20472 0.76114 0.20081 0.0
C374 C 0.20217 0.76134 0.13294 0.0
H375 H 0.18785 0.73566 0.22676 0.0
H376 H 0.22332 0.83304 0.79019 0.0
H377 H 0.22713 0.83291 0.90835 0.0
H378 H 0.14575 0.71719 0.91103 0.0
H379 H 0.1416 0.71766 0.79207 0.0
H380 H 0.16663 0.75092 0.01611 0.0
H381 H 0.24402 0.81774 0.00083 0.0
H382 H 0.26431 0.85173 0.1058 0.0
H383 H 0.26844 0.8514 0.22474 0.0
C384 C 0.40342 0.18589 0.56409 0.0
C385 C 0.43518 0.20546 0.60188 0.0
C386 C 0.40626 0.17971 0.49814 0.0
C387 C 0.44095 0.19286 0.46917 0.0
C388 C 0.47266 0.21214 0.50713 0.0
C389 C 0.46983 0.21875 0.57296 0.0
C390 C 0.44458 0.1872 0.39922 0.0
C391 C 0.4227 0.19016 0.35518 0.0
C392 C 0.42801 0.18865 0.28464 0.0
C393 C 0.42352 0.21302 0.24458 0.0
C394 C 0.42726 0.21195 0.17749 0.0
C395 C 0.43451 0.18572 0.1491 0.0
H396 H 0.43925 0.14345 0.28694 0.0
C397 C 0.43906 0.16119 0.18899 0.0
C398 C 0.43617 0.16287 0.25671 0.0
H399 H 0.44447 0.14064 0.1679 0.0
H400 H 0.37641 0.1749 0.58568 0.0
H401 H 0.38132 0.1641 0.47015 0.0
H402 H 0.49962 0.22241 0.48567 0.0
H403 H 0.49471 0.23346 0.60152 0.0
H404 H 0.46753 0.18401 0.38325 0.0
H405 H 0.40245 0.1975 0.37097 0.0
H406 H 0.41719 0.23303 0.26528 0.0
H407 H 0.42344 0.23109 0.14774 0.0
C408 C 0.15933 0.50359 0.2551 0.0
C409 C 0.17274 0.50611 0.19137 0.0
C410 C 0.15602 0.53235 0.2822 0.0
C411 C 0.1659 0.56445 0.2461 0.0
C412 C 0.1782 0.56651 0.18163 0.0
C413 C 0.18134 0.53752 0.15428 0.0
C414 C 0.1673 0.59741 0.27655 0.0
C415 C 0.1477 0.59576 0.32992 0.0
C416 C 0.15353 0.62865 0.36753 0.0
C417 C 0.12573 0.62548 0.40982 0.0
C418 C 0.13153 0.65468 0.45068 0.0
C419 C 0.16543 0.68751 0.4505 0.0
H420 H 0.20992 0.66512 0.33667 0.0
C421 C 0.19316 0.6909 0.40789 0.0
C422 C 0.18733 0.66185 0.36682 0.0
H423 H 0.21976 0.71574 0.40737 0.0
H424 H 0.15237 0.47976 0.28509 0.0
H425 H 0.14739 0.52986 0.33252 0.0
H426 H 0.18629 0.59101 0.15285 0.0
H427 H 0.19192 0.54039 0.10517 0.0
H428 H 0.18574 0.62393 0.25474 0.0
H429 H 0.12666 0.56915 0.34783 0.0
H430 H 0.09959 0.60012 0.41197 0.0
H431 H 0.10971 0.65131 0.48317 0.0
C432 C 0.69158 0.16559 0.62711 0.0
C433 C 0.72164 0.20104 0.61817 0.0
C434 C 0.66456 0.15928 0.67338 0.0
C435 C 0.66682 0.18856 0.71096 0.0
C436 C 0.69774 0.2237 0.7035 0.0
C437 C 0.72482 0.22993 0.65748 0.0
C438 C 0.63693 0.18421 0.75578 0.0
C439 C 0.60176 0.15711 0.7494 0.0
C440 C 0.57057 0.15774 0.78244 0.0
C441 C 0.53691 0.14223 0.74947 0.0
C442 C 0.50809 0.14618 0.77377 0.0
C443 C 0.51193 0.16503 0.83249 0.0
H444 H 0.59912 0.18623 0.87085 0.0
C445 C 0.54455 0.17826 0.86832 0.0
C446 C 0.57385 0.17486 0.84327 0.0
H447 H 0.54809 0.19283 0.9138 0.0
H448 H 0.68886 0.14272 0.59817 0.0
H449 H 0.64202 0.13148 0.67908 0.0
H450 H 0.70047 0.24673 0.732 0.0
H451 H 0.74789 0.25753 0.65185 0.0
H452 H 0.64334 0.20654 0.78971 0.0
H453 H 0.59465 0.1364 0.71182 0.0
H454 H 0.53344 0.12856 0.70296 0.0
H455 H 0.48304 0.13536 0.7455 0.0
C456 C 0.29411 0.51209 0.03858 0.0
C457 C 0.29627 0.48611 0.07852 0.0
C458 C 0.32403 0.53606 -3e-05 0.0
C459 C 0.3567 0.53435 0.00051 0.0
C460 C 0.35831 0.50768 0.03947 0.0
C461 C 0.32843 0.48379 0.078 0.0
C462 C 0.39084 0.56208 0.9672 0.0
C463 C 0.3922 0.58522 0.92031 0.0
C464 C 0.42744 0.61687 0.8974 0.0
C465 C 0.42965 0.63185 0.8352 0.0
C466 C 0.46174 0.66356 0.81508 0.0
C467 C 0.49192 0.68116 0.85743 0.0
H468 H 0.45716 0.6245 0.9881 0.0
C469 C 0.48977 0.66582 0.9192 0.0
C470 C 0.45801 0.63424 0.93901 0.0
H471 H 0.51246 0.67866 0.95318 0.0
H472 H 0.26976 0.51475 0.03879 0.0
H473 H 0.3218 0.55672 0.97216 0.0
H474 H 0.38313 0.50586 0.04131 0.0
H475 H 0.33076 0.46392 0.10825 0.0
H476 H 0.41631 0.56401 0.98363 0.0
H477 H 0.36704 0.58154 0.89866 0.0
H478 H 0.40634 0.61928 0.80248 0.0
H479 H 0.46245 0.6749 0.7674 0.0
C480 C 0.82068 0.36173 0.51915 0.0
C481 C 0.83581 0.34221 0.48895 0.0
C482 C 0.82153 0.39183 0.48759 0.0
C483 C 0.83794 0.40301 0.42553 0.0
C484 C 0.8549 0.38465 0.39775 0.0
C485 C 0.85383 0.35468 0.42888 0.0
C486 C 0.83557 0.43112 0.3848 0.0
C487 C 0.82395 0.45416 0.40547 0.0
C488 C 0.81832 0.47877 0.36031 0.0
C489 C 0.79414 0.49124 0.37873 0.0
C490 C 0.78597 0.512 0.33569 0.0
C491 C 0.80175 0.52067 0.27339 0.0
H492 H 0.85575 0.48194 0.28342 0.0
C493 C 0.82704 0.50959 0.25576 0.0
C494 C 0.8356 0.48925 0.29888 0.0
H495 H 0.84019 0.51654 0.20838 0.0
H496 H 0.80645 0.35256 0.56533 0.0
H497 H 0.80787 0.40489 0.51083 0.0
H498 H 0.86799 0.39266 0.35039 0.0
H499 H 0.86617 0.34049 0.40465 0.0
H500 H 0.84234 0.43128 0.33374 0.0
H501 H 0.81622 0.45373 0.45604 0.0
H502 H 0.78074 0.48408 0.42589 0.0
H503 H 0.76666 0.52043 0.35053 0.0
C504 C 0.33596 0.79855 0.53514 0.0
C505 C 0.30256 0.78325 0.56942 0.0
C506 C 0.36595 0.79676 0.56107 0.0
C507 C 0.36252 0.77899 0.62099 0.0
C508 C 0.32875 0.76277 0.6537 0.0
C509 C 0.2993 0.7652 0.6287 0.0
C510 C 0.39305 0.7766 0.65214 0.0
C511 C 0.42867 0.80267 0.64725 0.0
C512 C 0.45728 0.80253 0.68964 0.0
C513 C 0.49387 0.81925 0.66811 0.0
C514 C 0.5212 0.81996 0.70817 0.0
C515 C 0.51232 0.80416 0.77054 0.0
H516 H 0.42137 0.77596 0.7727 0.0
C517 C 0.476 0.78827 0.79265 0.0
C518 C 0.44882 0.78758 0.7529 0.0
H519 H 0.4685 0.77631 0.84088 0.0
H520 H 0.33909 0.81244 0.48916 0.0
H521 H 0.39147 0.80891 0.53402 0.0
H522 H 0.32531 0.74876 0.6997 0.0
H523 H 0.27378 0.75267 0.65591 0.0
H524 H 0.38525 0.75366 0.68515 0.0
H525 H 0.43703 0.82538 0.61348 0.0
H526 H 0.50129 0.83163 0.62019 0.0
H527 H 0.54925 0.8332 0.6907 0.0
C528 C 0.62971 0.46153 0.20041 0.0
C529 C 0.65135 0.49372 0.16449 0.0
C530 C 0.59739 0.43281 0.17329 0.0
C531 C 0.58618 0.43626 0.11019 0.0
C532 C 0.60662 0.46955 0.07676 0.0
C533 C 0.63897 0.49776 0.10322 0.0
C534 C 0.55482 0.40558 0.07536 0.0
C535 C 0.54427 0.36988 0.08493 0.0
C536 C 0.51981 0.34002 0.03906 0.0
C537 C 0.52186 0.3076 0.0377 0.0
C538 C 0.50252 0.28041 0.99104 0.0
C539 C 0.48047 0.28492 0.94488 0.0
H540 H 0.49266 0.36747 0.99527 0.0
C541 C 0.47702 0.31648 0.94766 0.0
C542 C 0.49626 0.34368 0.99459 0.0
H543 H 0.45966 0.32027 0.91327 0.0
H544 H 0.63862 0.45788 0.24792 0.0
H545 H 0.5817 0.4079 0.20127 0.0
H546 H 0.59849 0.47318 0.0285 0.0
H547 H 0.65484 0.52254 0.07481 0.0
H548 H 0.54384 0.41325 0.03431 0.0
H549 H 0.55754 0.3627 0.12293 0.0
H550 H 0.53945 0.30377 0.07149 0.0
H551 H 0.50553 0.25621 0.99018 0.0
loop_
_geom_bond_atom_site_label_1
_geom_bond_atom_site_label_2
_geom_bond_distance
_geom_bond_site_symmetry_2
_ccdc_geom_bond_type
Dy0 O4 2.398 . S
Dy0 O5 2.491 . S
Dy0 O6 2.403 . S
Dy0 O7 2.664 . S
Dy0 O11 2.326 . S
Dy0 O15 2.310 . S
Dy0 O16 2.351 . S
C1 O12 1.185 . S
C1 O13 1.355 . S
C2 O4 1.185 . S
C2 O5 1.355 . S
Dy3 O7 2.310 . S
Dy3 O10 2.351 . S
Dy3 O12 2.398 . S
Dy3 O13 2.491 . S
Dy3 O14 2.403 . S
Dy3 O15 2.664 . S
Dy3 O17 2.326 . S
O4 Dy0 2.398 . S
O4 C2 1.185 . S
O5 Dy0 2.491 . S
O5 C2 1.355 . S
O6 Dy0 2.403 . S
O6 C8 1.254 . S
O7 Dy0 2.664 . S
O7 Dy3 2.310 . S
O7 C8 1.268 . S
C8 O6 1.254 . S
C8 O7 1.268 . S
C9 O14 1.254 . S
C9 O15 1.268 . S
O10 Dy3 2.351 . S
O10 C18 1.249 . S
O11 Dy0 2.326 . S
O11 C18 1.267 . S
O12 C1 1.185 . S
O12 Dy3 2.398 . S
O13 C1 1.355 . S
O13 Dy3 2.491 . S
O14 Dy3 2.403 . S
O14 C9 1.254 . S
O15 Dy0 2.310 . S
O15 Dy3 2.664 . S
O15 C9 1.268 . S
O16 Dy0 2.351 . S
O16 C19 1.249 . S
O17 Dy3 2.326 . S
O17 C19 1.267 . S
C18 O10 1.249 . S
C18 O11 1.267 . S
C19 O16 1.249 . S
C19 O17 1.267 . S
Dy20 O24 2.398 . S
Dy20 O25 2.491 . S
Dy20 O26 2.403 . S
Dy20 O27 2.664 . S
Dy20 O31 2.326 . S
Dy20 O35 2.310 . S
Dy20 O36 2.351 . S
C21 O32 1.185 . S
C21 O33 1.355 . S
C22 O24 1.185 . S
C22 O25 1.355 . S
Dy23 O27 2.310 . S
Dy23 O30 2.351 . S
Dy23 O32 2.398 . S
Dy23 O33 2.491 . S
Dy23 O34 2.403 . S
Dy23 O35 2.664 . S
Dy23 O37 2.326 . S
O24 Dy20 2.398 . S
O24 C22 1.185 . S
O25 Dy20 2.491 . S
O25 C22 1.355 . S
O26 Dy20 2.403 . S
O26 C28 1.254 . S
O27 Dy20 2.664 . S
O27 Dy23 2.310 . S
O27 C28 1.268 . S
C28 O26 1.254 . S
C28 O27 1.268 . S
C29 O34 1.254 . S
C29 O35 1.268 . S
O30 Dy23 2.351 . S
O30 C38 1.249 . S
O31 Dy20 2.326 . S
O31 C38 1.267 . S
O32 C21 1.185 . S
O32 Dy23 2.398 . S
O33 C21 1.355 . S
O33 Dy23 2.491 . S
O34 Dy23 2.403 . S
O34 C29 1.254 . S
O35 Dy20 2.310 . S
O35 Dy23 2.664 . S
O35 C29 1.268 . S
O36 Dy20 2.351 . S
O36 C39 1.249 . S
O37 Dy23 2.326 . S
O37 C39 1.267 . S
C38 O30 1.249 . S
C38 O31 1.267 . S
C39 O36 1.249 . S
C39 O37 1.267 . S
Dy40 O44 2.398 . S
Dy40 O45 2.491 . S
Dy40 O46 2.403 . S
Dy40 O47 2.664 . S
Dy40 O51 2.326 . S
Dy40 O55 2.310 . S
Dy40 O56 2.351 . S
C41 O52 1.185 . S
C41 O53 1.355 . S
C42 O44 1.185 . S
C42 O45 1.355 . S
Dy43 O47 2.310 1_554 S
Dy43 O50 2.351 1_554 S
Dy43 O52 2.398 . S
Dy43 O53 2.491 . S
Dy43 O54 2.403 . S
Dy43 O55 2.664 1_554 S
Dy43 O57 2.326 . S
O44 Dy40 2.398 . S
O44 C42 1.185 . S
O45 Dy40 2.491 . S
O45 C42 1.355 . S
O46 Dy40 2.403 . S
O46 C48 1.254 . S
O47 Dy40 2.664 . S
O47 Dy43 2.310 1_556 S
O47 C48 1.268 . S
C48 O46 1.254 . S
C48 O47 1.268 . S
C49 O54 1.254 1_556 S
C49 O55 1.268 . S
O50 Dy43 2.351 1_556 S
O50 C58 1.249 . S
O51 Dy40 2.326 . S
O51 C58 1.267 . S
O52 C41 1.185 . S
O52 Dy43 2.398 . S
O53 C41 1.355 . S
O53 Dy43 2.491 . S
O54 Dy43 2.403 . S
O54 C49 1.254 1_554 S
O55 Dy40 2.310 . S
O55 Dy43 2.664 1_556 S
O55 C49 1.268 . S
O56 Dy40 2.351 . S
O56 C59 1.249 1_556 S
O57 Dy43 2.326 . S
O57 C59 1.267 . S
C58 O50 1.249 . S
C58 O51 1.267 . S
C59 O56 1.249 1_554 S
C59 O57 1.267 . S
Dy60 O64 2.398 . S
Dy60 O65 2.491 . S
Dy60 O66 2.403 . S
Dy60 O67 2.664 . S
Dy60 O71 2.326 . S
Dy60 O75 2.310 . S
Dy60 O76 2.351 . S
C61 O72 1.185 . S
C61 O73 1.355 . S
C62 O64 1.185 . S
C62 O65 1.355 . S
Dy63 O67 2.310 1_556 S
Dy63 O70 2.351 1_556 S
Dy63 O72 2.398 . S
Dy63 O73 2.491 . S
Dy63 O74 2.403 1_556 S
Dy63 O75 2.664 1_556 S
Dy63 O77 2.326 . S
O64 Dy60 2.398 . S
O64 C62 1.185 . S
O65 Dy60 2.491 . S
O65 C62 1.355 . S
O66 Dy60 2.403 . S
O66 C68 1.254 . S
O67 Dy60 2.664 . S
O67 Dy63 2.310 1_554 S
O67 C68 1.268 . S
C68 O66 1.254 . S
C68 O67 1.268 . S
C69 O74 1.254 . S
C69 O75 1.268 . S
O70 Dy63 2.351 1_554 S
O70 C78 1.249 . S
O71 Dy60 2.326 . S
O71 C78 1.267 . S
O72 C61 1.185 . S
O72 Dy63 2.398 . S
O73 C61 1.355 . S
O73 Dy63 2.491 . S
O74 Dy63 2.403 1_554 S
O74 C69 1.254 . S
O75 Dy60 2.310 . S
O75 Dy63 2.664 1_554 S
O75 C69 1.268 . S
O76 Dy60 2.351 . S
O76 C79 1.249 . S
O77 Dy63 2.326 . S
O77 C79 1.267 1_556 S
C78 O70 1.249 . S
C78 O71 1.267 . S
C79 O76 1.249 . S
C79 O77 1.267 1_554 S
Dy80 O84 2.398 . S
Dy80 O85 2.491 . S
Dy80 O86 2.403 . S
Dy80 O87 2.664 . S
Dy80 O91 2.326 . S
Dy80 O95 2.310 . S
Dy80 O96 2.351 . S
C81 O92 1.185 . S
C81 O93 1.355 . S
C82 O84 1.185 . S
C82 O85 1.355 . S
Dy83 O87 2.310 . S
Dy83 O90 2.351 . S
Dy83 O92 2.398 . S
Dy83 O93 2.491 . S
Dy83 O94 2.403 . S
Dy83 O95 2.664 . S
Dy83 O97 2.326 . S
O84 Dy80 2.398 . S
O84 C82 1.185 . S
O85 Dy80 2.491 . S
O85 C82 1.355 . S
O86 Dy80 2.403 . S
O86 C88 1.254 . S
O87 Dy80 2.664 . S
O87 Dy83 2.310 . S
O87 C88 1.268 . S
C88 O86 1.254 . S
C88 O87 1.268 . S
C89 O94 1.254 . S
C89 O95 1.268 . S
O90 Dy83 2.351 . S
O90 C98 1.249 . S
O91 Dy80 2.326 . S
O91 C98 1.267 . S
O92 C81 1.185 . S
O92 Dy83 2.398 . S
O93 C81 1.355 . S
O93 Dy83 2.491 . S
O94 Dy83 2.403 . S
O94 C89 1.254 . S
O95 Dy80 2.310 . S
O95 Dy83 2.664 . S
O95 C89 1.268 . S
O96 Dy80 2.351 . S
O96 C99 1.249 . S
O97 Dy83 2.326 . S
O97 C99 1.267 . S
C98 O90 1.249 . S
C98 O91 1.267 . S
C99 O96 1.249 . S
C99 O97 1.267 . S
Dy100 O104 2.398 . S
Dy100 O105 2.491 . S
Dy100 O106 2.403 . S
Dy100 O107 2.664 . S
Dy100 O111 2.326 . S
Dy100 O115 2.310 . S
Dy100 O116 2.351 . S
C101 O112 1.185 . S
C101 O113 1.355 . S
C102 O104 1.185 . S
C102 O105 1.355 . S
Dy103 O107 2.310 . S
Dy103 O110 2.351 . S
Dy103 O112 2.398 . S
Dy103 O113 2.491 . S
Dy103 O114 2.403 . S
Dy103 O115 2.664 . S
Dy103 O117 2.326 . S
O104 Dy100 2.398 . S
O104 C102 1.185 . S
O105 Dy100 2.491 . S
O105 C102 1.355 . S
O106 Dy100 2.403 . S
O106 C108 1.254 . S
O107 Dy100 2.664 . S
O107 Dy103 2.310 . S
O107 C108 1.268 . S
C108 O106 1.254 . S
C108 O107 1.268 . S
C109 O114 1.254 . S
C109 O115 1.268 . S
O110 Dy103 2.351 . S
O110 C118 1.249 . S
O111 Dy100 2.326 . S
O111 C118 1.267 . S
O112 C101 1.185 . S
O112 Dy103 2.398 . S
O113 C101 1.355 . S
O113 Dy103 2.491 . S
O114 Dy103 2.403 . S
O114 C109 1.254 . S
O115 Dy100 2.310 . S
O115 Dy103 2.664 . S
O115 C109 1.268 . S
O116 Dy100 2.351 . S
O116 C119 1.249 . S
O117 Dy103 2.326 . S
O117 C119 1.267 . S
C118 O110 1.249 . S
C118 O111 1.267 . S
C119 O116 1.249 . S
C119 O117 1.267 . S
C120 C121 1.386 . S
C120 C122 1.383 . S
C120 H136 0.951 . S
C121 C120 1.386 . S
C121 C125 1.383 . S
C122 C120 1.383 . S
C122 C123 1.402 . S
C122 H137 0.951 1_556 S
C123 C122 1.402 . S
C123 C124 1.375 . S
C123 C126 1.481 . S
C124 C123 1.375 . S
C124 C125 1.367 . S
C124 H138 0.951 . S
C125 C121 1.383 . S
C125 C124 1.367 . S
C125 H139 0.950 . S
C126 C123 1.481 . S
C126 C127 1.297 1_556 S
C126 H140 0.950 . S
C127 C126 1.297 1_554 S
C127 C128 1.479 . S
C127 H141 0.950 . S
C128 C127 1.479 . S
C128 C129 1.375 . S
C128 C134 1.404 . S
C129 C128 1.375 . S
C129 C130 1.369 . S
C129 H142 0.950 . S
C130 C129 1.369 . S
C130 C131 1.392 . S
C130 H143 0.951 . S
C131 C130 1.392 . S
C131 C133 1.384 . S
H132 C134 0.949 . S
C133 C131 1.384 . S
C133 C134 1.385 . S
C133 H135 0.950 . S
C134 C128 1.404 . S
C134 H132 0.949 . S
C134 C133 1.385 . S
H135 C133 0.950 . S
H136 C120 0.951 . S
H137 C122 0.951 1_554 S
H138 C124 0.951 . S
H139 C125 0.950 . S
H140 C126 0.950 . S
H141 C127 0.950 . S
H142 C129 0.950 . S
H143 C130 0.951 . S
C144 C145 1.386 . S
C144 C146 1.383 . S
C144 H160 0.951 . S
C145 C144 1.386 . S
C145 C149 1.383 . S
C146 C144 1.383 . S
C146 C147 1.402 . S
C146 H161 0.951 . S
C147 C146 1.402 . S
C147 C148 1.375 . S
C147 C150 1.481 . S
C148 C147 1.375 . S
C148 C149 1.367 . S
C148 H162 0.951 . S
C149 C145 1.383 . S
C149 C148 1.367 . S
C149 H163 0.950 . S
C150 C147 1.481 . S
C150 C151 1.297 1_455 S
C150 H164 0.950 . S
C151 C150 1.297 1_655 S
C151 C152 1.479 . S
C151 H165 0.950 . S
C152 C151 1.479 . S
C152 C153 1.375 . S
C152 C158 1.404 . S
C153 C152 1.375 . S
C153 C154 1.369 . S
C153 H166 0.950 . S
C154 C153 1.369 . S
C154 C155 1.392 . S
C154 H167 0.951 . S
C155 C154 1.392 . S
C155 C157 1.384 . S
H156 C158 0.949 . S
C157 C155 1.384 . S
C157 C158 1.385 . S
C157 H159 0.950 . S
C158 C152 1.404 . S
C158 H156 0.949 . S
C158 C157 1.385 . S
H159 C157 0.950 . S
H160 C144 0.951 . S
H161 C146 0.951 . S
H162 C148 0.951 . S
H163 C149 0.950 . S
H164 C150 0.950 . S
H165 C151 0.950 . S
H166 C153 0.950 . S
H167 C154 0.951 . S
C168 C169 1.386 . S
C168 C170 1.383 . S
C168 H184 0.951 . S
C169 C168 1.386 . S
C169 C173 1.383 . S
C170 C168 1.383 . S
C170 C171 1.402 . S
C170 H185 0.951 . S
C171 C170 1.402 . S
C171 C172 1.375 . S
C171 C174 1.481 . S
C172 C171 1.375 . S
C172 C173 1.367 . S
C172 H186 0.951 . S
C173 C169 1.383 . S
C173 C172 1.367 . S
C173 H187 0.950 . S
C174 C171 1.481 . S
C174 C175 1.297 . S
C174 H188 0.950 . S
C175 C174 1.297 . S
C175 C176 1.479 1_545 S
C175 H189 0.950 . S
C176 C175 1.479 1_565 S
C176 C177 1.375 . S
C176 C182 1.404 . S
C177 C176 1.375 . S
C177 C178 1.369 . S
C177 H190 0.950 . S
C178 C177 1.369 . S
C178 C179 1.392 . S
C178 H191 0.951 . S
C179 C178 1.392 . S
C179 C181 1.384 . S
H180 C182 0.949 . S
C181 C179 1.384 . S
C181 C182 1.385 . S
C181 H183 0.950 . S
C182 C176 1.404 . S
C182 H180 0.949 . S
C182 C181 1.385 . S
H183 C181 0.950 . S
H184 C168 0.951 . S
H185 C170 0.951 . S
H186 C172 0.951 . S
H187 C173 0.950 . S
H188 C174 0.950 . S
H189 C175 0.950 . S
H190 C177 0.950 . S
H191 C178 0.951 . S
C192 C193 1.386 1_554 S
C192 C194 1.383 . S
C192 H208 0.951 . S
C193 C192 1.386 1_556 S
C193 C197 1.383 . S
C194 C192 1.383 . S
C194 C195 1.402 1_554 S
C194 H209 0.951 . S
C195 C194 1.402 1_556 S
C195 C196 1.375 . S
C195 C198 1.481 . S
C196 C195 1.375 . S
C196 C197 1.367 . S
C196 H210 0.951 . S
C197 C193 1.383 . S
C197 C196 1.367 . S
C197 H211 0.950 . S
C198 C195 1.481 . S
C198 C199 1.297 1_556 S
C198 H212 0.950 . S
C199 C198 1.297 1_554 S
C199 C200 1.479 . S
C199 H213 0.950 . S
C200 C199 1.479 . S
C200 C201 1.375 . S
C200 C206 1.404 1_554 S
C201 C200 1.375 . S
C201 C202 1.369 . S
C201 H214 0.950 . S
C202 C201 1.369 . S
C202 C203 1.392 . S
C202 H215 0.951 . S
C203 C202 1.392 . S
C203 C205 1.384 1_554 S
H204 C206 0.949 . S
C205 C203 1.384 1_556 S
C205 C206 1.385 . S
C205 H207 0.950 . S
C206 C200 1.404 1_556 S
C206 H204 0.949 . S
C206 C205 1.385 . S
H207 C205 0.950 . S
H208 C192 0.951 . S
H209 C194 0.951 . S
H210 C196 0.951 . S
H211 C197 0.950 . S
H212 C198 0.950 . S
H213 C199 0.950 . S
H214 C201 0.950 . S
H215 C202 0.951 . S
C216 C217 1.386 . S
C216 C218 1.383 . S
C216 H232 0.951 . S
C217 C216 1.386 . S
C217 C221 1.383 . S
C218 C216 1.383 . S
C218 C219 1.402 . S
C218 H233 0.951 . S
C219 C218 1.402 . S
C219 C220 1.375 . S
C219 C222 1.481 . S
C220 C219 1.375 . S
C220 C221 1.367 . S
C220 H234 0.951 . S
C221 C217 1.383 . S
C221 C220 1.367 . S
C221 H235 0.950 . S
C222 C219 1.481 . S
C222 C223 1.297 . S
C222 H236 0.950 . S
C223 C222 1.297 . S
C223 C224 1.479 1_455 S
C223 H237 0.950 . S
C224 C223 1.479 1_655 S
C224 C225 1.375 . S
C224 C230 1.404 . S
C225 C224 1.375 . S
C225 C226 1.369 . S
C225 H238 0.950 . S
C226 C225 1.369 . S
C226 C227 1.392 . S
C226 H239 0.951 . S
C227 C226 1.392 . S
C227 C229 1.384 . S
H228 C230 0.949 . S
C229 C227 1.384 . S
C229 C230 1.385 . S
C229 H231 0.950 . S
C230 C224 1.404 . S
C230 H228 0.949 . S
C230 C229 1.385 . S
H231 C229 0.950 . S
H232 C216 0.951 . S
H233 C218 0.951 . S
H234 C220 0.951 . S
H235 C221 0.950 . S
H236 C222 0.950 . S
H237 C223 0.950 . S
H238 C225 0.950 . S
H239 C226 0.951 . S
C240 C241 1.386 . S
C240 C242 1.383 . S
C240 H256 0.951 . S
C241 C240 1.386 . S
C241 C245 1.383 . S
C242 C240 1.383 . S
C242 C243 1.402 . S
C242 H257 0.951 . S
C243 C242 1.402 . S
C243 C244 1.375 . S
C243 C246 1.481 . S
C244 C243 1.375 . S
C244 C245 1.367 . S
C244 H258 0.951 . S
C245 C241 1.383 . S
C245 C244 1.367 . S
C245 H259 0.950 . S
C246 C243 1.481 . S
C246 C247 1.297 1_545 S
C246 H260 0.967 . S
C247 C246 1.297 1_565 S
C247 C248 1.479 . S
C247 H261 0.950 1_565 S
C248 C247 1.479 . S
C248 C249 1.375 . S
C248 C254 1.404 . S
C249 C248 1.375 . S
C249 C250 1.369 . S
C249 H262 0.950 . S
C250 C249 1.369 . S
C250 C251 1.392 . S
C250 H263 0.951 . S
C251 C250 1.392 . S
C251 C253 1.384 . S
H252 C254 0.949 . S
C253 C251 1.384 . S
C253 C254 1.385 . S
C253 H255 0.950 . S
C254 C248 1.404 . S
C254 H252 0.949 . S
C254 C253 1.385 . S
H255 C253 0.950 . S
H256 C240 0.951 . S
H257 C242 0.951 . S
H258 C244 0.951 . S
H259 C245 0.950 . S
H260 C246 0.967 . S
H261 C247 0.950 1_545 S
H262 C249 0.950 . S
H263 C250 0.951 . S
C264 C265 1.386 1_556 S
C264 C266 1.383 . S
C264 H280 0.951 . S
C265 C264 1.386 1_554 S
C265 C269 1.383 1_554 S
C266 C264 1.383 . S
C266 C267 1.402 . S
C266 H281 0.951 . S
C267 C266 1.402 . S
C267 C268 1.375 . S
C267 C270 1.481 . S
C268 C267 1.375 . S
C268 C269 1.367 . S
C268 H282 0.951 . S
C269 C265 1.383 1_556 S
C269 C268 1.367 . S
C269 H283 0.950 1_556 S
C270 C267 1.481 . S
C270 C271 1.297 . S
C270 H284 0.950 . S
C271 C270 1.297 . S
C271 C272 1.479 . S
C271 H285 0.950 . S
C272 C271 1.479 . S
C272 C273 1.375 . S
C272 C278 1.404 . S
C273 C272 1.375 . S
C273 C274 1.369 . S
C273 H286 0.950 . S
C274 C273 1.369 . S
C274 C275 1.392 . S
C274 H287 0.951 . S
C275 C274 1.392 . S
C275 C277 1.384 . S
H276 C278 0.949 . S
C277 C275 1.384 . S
C277 C278 1.385 . S
C277 H279 0.950 . S
C278 C272 1.404 . S
C278 H276 0.949 . S
C278 C277 1.385 . S
H279 C277 0.950 . S
H280 C264 0.951 . S
H281 C266 0.951 . S
H282 C268 0.951 . S
H283 C269 0.950 1_554 S
H284 C270 0.950 . S
H285 C271 0.950 . S
H286 C273 0.950 . S
H287 C274 0.951 . S
C288 C289 1.386 . S
C288 C290 1.383 . S
C288 H304 0.951 . S
C289 C288 1.386 . S
C289 C293 1.383 . S
C290 C288 1.383 . S
C290 C291 1.402 1_554 S
C290 H305 0.951 . S
C291 C290 1.402 1_556 S
C291 C292 1.375 1_556 S
C291 C294 1.481 . S
C292 C291 1.375 1_554 S
C292 C293 1.367 . S
C292 H306 0.951 . S
C293 C289 1.383 . S
C293 C292 1.367 . S
C293 H307 0.950 . S
C294 C291 1.481 . S
C294 C295 1.297 . S
C294 H308 0.950 . S
C295 C294 1.297 . S
C295 C296 1.479 . S
C295 H309 0.950 . S
C296 C295 1.479 . S
C296 C297 1.375 . S
C296 C302 1.404 . S
C297 C296 1.375 . S
C297 C298 1.369 . S
C297 H310 0.950 . S
C298 C297 1.369 . S
C298 C299 1.392 . S
C298 H311 0.951 . S
C299 C298 1.392 . S
C299 C301 1.384 . S
H300 C302 0.949 . S
C301 C299 1.384 . S
C301 C302 1.385 . S
C301 H303 0.950 . S
C302 C296 1.404 . S
C302 H300 0.949 . S
C302 C301 1.385 . S
H303 C301 0.950 . S
H304 C288 0.951 . S
H305 C290 0.951 . S
H306 C292 0.951 . S
H307 C293 0.950 . S
H308 C294 0.950 . S
H309 C295 0.950 . S
H310 C297 0.950 . S
H311 C298 0.951 . S
C312 C313 1.386 . S
C312 C314 1.383 . S
C312 H328 0.951 . S
C313 C312 1.386 . S
C313 C317 1.383 . S
C314 C312 1.383 . S
C314 C315 1.402 . S
C314 H329 0.951 . S
C315 C314 1.402 . S
C315 C316 1.375 . S
C315 C318 1.481 . S
C316 C315 1.375 . S
C316 C317 1.367 . S
C316 H330 0.951 . S
C317 C313 1.383 . S
C317 C316 1.367 . S
C317 H331 0.950 . S
C318 C315 1.481 . S
C318 C319 1.297 . S
C318 H332 0.950 . S
C319 C318 1.297 . S
C319 C320 1.479 . S
C319 H333 0.950 . S
C320 C319 1.479 . S
C320 C321 1.375 . S
C320 C326 1.404 . S
C321 C320 1.375 . S
C321 C322 1.369 . S
C321 H334 0.950 . S
C322 C321 1.369 . S
C322 C323 1.392 . S
C322 H335 0.951 . S
C323 C322 1.392 . S
C323 C325 1.384 . S
H324 C326 0.949 . S
C325 C323 1.384 . S
C325 C326 1.385 . S
C325 H327 0.950 . S
C326 C320 1.404 . S
C326 H324 0.949 . S
C326 C325 1.385 . S
H327 C325 0.950 . S
H328 C312 0.951 . S
H329 C314 0.951 . S
H330 C316 0.951 . S
H331 C317 0.950 . S
H332 C318 0.950 . S
H333 C319 0.950 . S
H334 C321 0.950 . S
H335 C322 0.951 . S
C336 C337 1.386 . S
C336 C338 1.383 . S
C336 H352 0.951 . S
C337 C336 1.386 . S
C337 C341 1.383 . S
C338 C336 1.383 . S
C338 C339 1.402 . S
C338 H353 0.951 . S
C339 C338 1.402 . S
C339 C340 1.375 . S
C339 C342 1.481 . S
C340 C339 1.375 . S
C340 C341 1.367 . S
C340 H354 0.951 . S
C341 C337 1.383 . S
C341 C340 1.367 . S
C341 H355 0.950 . S
C342 C339 1.481 . S
C342 C343 1.297 . S
C342 H356 0.950 . S
C343 C342 1.297 . S
C343 C344 1.479 . S
C343 H357 0.950 . S
C344 C343 1.479 . S
C344 C345 1.375 . S
C344 C350 1.404 . S
C345 C344 1.375 . S
C345 C346 1.369 . S
C345 H358 0.950 . S
C346 C345 1.369 . S
C346 C347 1.392 . S
C346 H359 0.951 . S
C347 C346 1.392 . S
C347 C349 1.384 . S
H348 C350 0.949 . S
C349 C347 1.384 . S
C349 C350 1.385 . S
C349 H351 0.950 . S
C350 C344 1.404 . S
C350 H348 0.949 . S
C350 C349 1.385 . S
H351 C349 0.950 . S
H352 C336 0.951 . S
H353 C338 0.951 . S
H354 C340 0.951 . S
H355 C341 0.950 . S
H356 C342 0.950 . S
H357 C343 0.950 . S
H358 C345 0.950 . S
H359 C346 0.951 . S
C360 C361 1.386 . S
C360 C362 1.383 1_556 S
C360 H376 0.951 . S
C361 C360 1.386 . S
C361 C365 1.383 . S
C362 C360 1.383 1_554 S
C362 C363 1.402 . S
C362 H377 0.951 . S
C363 C362 1.402 . S
C363 C364 1.378 . S
C363 C366 1.481 . S
C364 C363 1.378 . S
C364 C365 1.362 1_554 S
C364 H378 0.953 . S
C365 C361 1.383 . S
C365 C364 1.362 1_556 S
C365 H379 0.950 . S
C366 C363 1.481 . S
C366 C367 1.297 . S
C366 H380 0.950 . S
C367 C366 1.297 . S
C367 C368 1.479 . S
C367 H381 0.950 . S
C368 C367 1.479 . S
C368 C369 1.375 . S
C368 C374 1.404 . S
C369 C368 1.375 . S
C369 C370 1.369 . S
C369 H382 0.950 . S
C370 C369 1.369 . S
C370 C371 1.392 . S
C370 H383 0.951 . S
C371 C370 1.392 . S
C371 C373 1.384 . S
H372 C374 0.949 . S
C373 C371 1.384 . S
C373 C374 1.385 . S
C373 H375 0.950 . S
C374 C368 1.404 . S
C374 H372 0.949 . S
C374 C373 1.385 . S
H375 C373 0.950 . S
H376 C360 0.951 . S
H377 C362 0.951 . S
H378 C364 0.953 . S
H379 C365 0.950 . S
H380 C366 0.950 . S
H381 C367 0.950 . S
H382 C369 0.950 . S
H383 C370 0.951 . S
C384 C385 1.386 . S
C384 C386 1.383 . S
C384 H400 0.951 . S
C385 C384 1.386 . S
C385 C389 1.383 . S
C386 C384 1.383 . S
C386 C387 1.402 . S
C386 H401 0.951 . S
C387 C386 1.402 . S
C387 C388 1.375 . S
C387 C390 1.481 . S
C388 C387 1.375 . S
C388 C389 1.367 . S
C388 H402 0.951 . S
C389 C385 1.383 . S
C389 C388 1.367 . S
C389 H403 0.950 . S
C390 C387 1.481 . S
C390 C391 1.297 . S
C390 H404 0.950 . S
C391 C390 1.297 . S
C391 C392 1.479 . S
C391 H405 0.950 . S
C392 C391 1.479 . S
C392 C393 1.375 . S
C392 C398 1.404 . S
C393 C392 1.375 . S
C393 C394 1.369 . S
C393 H406 0.950 . S
C394 C393 1.369 . S
C394 C395 1.392 . S
C394 H407 0.951 . S
C395 C394 1.392 . S
C395 C397 1.384 . S
H396 C398 0.949 . S
C397 C395 1.384 . S
C397 C398 1.385 . S
C397 H399 0.950 . S
C398 C392 1.404 . S
C398 H396 0.949 . S
C398 C397 1.385 . S
H399 C397 0.950 . S
H400 C384 0.951 . S
H401 C386 0.951 . S
H402 C388 0.951 . S
H403 C389 0.950 . S
H404 C390 0.950 . S
H405 C391 0.950 . S
H406 C393 0.950 . S
H407 C394 0.951 . S
C408 C409 1.386 . S
C408 C410 1.383 . S
C408 H424 0.951 . S
C409 C408 1.386 . S
C409 C413 1.383 . S
C410 C408 1.383 . S
C410 C411 1.402 . S
C410 H425 0.951 . S
C411 C410 1.402 . S
C411 C412 1.375 . S
C411 C414 1.481 . S
C412 C411 1.375 . S
C412 C413 1.367 . S
C412 H426 0.951 . S
C413 C409 1.383 . S
C413 C412 1.367 . S
C413 H427 0.950 . S
C414 C411 1.481 . S
C414 C415 1.297 . S
C414 H428 0.950 . S
C415 C414 1.297 . S
C415 C416 1.479 . S
C415 H429 0.950 . S
C416 C415 1.479 . S
C416 C417 1.375 . S
C416 C422 1.404 . S
C417 C416 1.375 . S
C417 C418 1.369 . S
C417 H430 0.950 . S
C418 C417 1.369 . S
C418 C419 1.392 . S
C418 H431 0.951 . S
C419 C418 1.392 . S
C419 C421 1.384 . S
H420 C422 0.949 . S
C421 C419 1.384 . S
C421 C422 1.385 . S
C421 H423 0.950 . S
C422 C416 1.404 . S
C422 H420 0.949 . S
C422 C421 1.385 . S
H423 C421 0.950 . S
H424 C408 0.951 . S
H425 C410 0.951 . S
H426 C412 0.951 . S
H427 C413 0.950 . S
H428 C414 0.950 . S
H429 C415 0.950 . S
H430 C417 0.950 . S
H431 C418 0.951 . S
C432 C433 1.386 . S
C432 C434 1.383 . S
C432 H448 0.951 . S
C433 C432 1.386 . S
C433 C437 1.383 . S
C434 C432 1.383 . S
C434 C435 1.402 . S
C434 H449 0.951 . S
C435 C434 1.402 . S
C435 C436 1.375 . S
C435 C438 1.481 . S
C436 C435 1.375 . S
C436 C437 1.367 . S
C436 H450 0.951 . S
C437 C433 1.383 . S
C437 C436 1.367 . S
C437 H451 0.950 . S
C438 C435 1.481 . S
C438 C439 1.297 . S
C438 H452 0.950 . S
C439 C438 1.297 . S
C439 C440 1.479 . S
C439 H453 0.950 . S
C440 C439 1.479 . S
C440 C441 1.375 . S
C440 C446 1.404 . S
C441 C440 1.375 . S
C441 C442 1.369 . S
C441 H454 0.950 . S
C442 C441 1.369 . S
C442 C443 1.392 . S
C442 H455 0.951 . S
C443 C442 1.392 . S
C443 C445 1.384 . S
H444 C446 0.949 . S
C445 C443 1.384 . S
C445 C446 1.385 . S
C445 H447 0.950 . S
C446 C440 1.404 . S
C446 H444 0.949 . S
C446 C445 1.385 . S
H447 C445 0.950 . S
H448 C432 0.951 . S
H449 C434 0.951 . S
H450 C436 0.951 . S
H451 C437 0.950 . S
H452 C438 0.950 . S
H453 C439 0.950 . S
H454 C441 0.950 . S
H455 C442 0.951 . S
C456 C457 1.386 . S
C456 C458 1.383 . S
C456 H472 0.951 . S
C457 C456 1.386 . S
C457 C461 1.383 . S
C458 C456 1.383 . S
C458 C459 1.402 . S
C458 H473 0.951 . S
C459 C458 1.402 . S
C459 C460 1.375 . S
C459 C462 1.481 . S
C460 C459 1.375 . S
C460 C461 1.367 . S
C460 H474 0.951 . S
C461 C457 1.383 . S
C461 C460 1.367 . S
C461 H475 0.950 . S
C462 C459 1.481 . S
C462 C463 1.297 . S
C462 H476 0.950 . S
C463 C462 1.297 . S
C463 C464 1.479 . S
C463 H477 0.950 . S
C464 C463 1.479 . S
C464 C465 1.375 . S
C464 C470 1.404 . S
C465 C464 1.375 . S
C465 C466 1.369 . S
C465 H478 0.950 . S
C466 C465 1.369 . S
C466 C467 1.392 . S
C466 H479 0.951 . S
C467 C466 1.392 . S
C467 C469 1.384 . S
H468 C470 0.949 . S
C469 C467 1.384 . S
C469 C470 1.385 . S
C469 H471 0.950 . S
C470 C464 1.404 . S
C470 H468 0.949 . S
C470 C469 1.385 . S
H471 C469 0.950 . S
H472 C456 0.951 . S
H473 C458 0.951 . S
H474 C460 0.951 . S
H475 C461 0.950 . S
H476 C462 0.950 . S
H477 C463 0.950 . S
H478 C465 0.950 . S
H479 C466 0.951 . S
C480 C481 1.386 . S
C480 C482 1.383 . S
C480 H496 0.951 . S
C481 C480 1.386 . S
C481 C485 1.383 . S
C482 C480 1.383 . S
C482 C483 1.402 . S
C482 H497 0.951 . S
C483 C482 1.402 . S
C483 C484 1.375 . S
C483 C486 1.481 . S
C484 C483 1.375 . S
C484 C485 1.367 . S
C484 H498 0.951 . S
C485 C481 1.383 . S
C485 C484 1.367 . S
C485 H499 0.950 . S
C486 C483 1.481 . S
C486 C487 1.297 . S
C486 H500 0.950 . S
C487 C486 1.297 . S
C487 C488 1.479 . S
C487 H501 0.950 . S
C488 C487 1.479 . S
C488 C489 1.375 . S
C488 C494 1.404 . S
C489 C488 1.375 . S
C489 C490 1.369 . S
C489 H502 0.950 . S
C490 C489 1.369 . S
C490 C491 1.392 . S
C490 H503 0.951 . S
C491 C490 1.392 . S
C491 C493 1.384 . S
H492 C494 0.949 . S
C493 C491 1.384 . S
C493 C494 1.385 . S
C493 H495 0.950 . S
C494 C488 1.404 . S
C494 H492 0.949 . S
C494 C493 1.385 . S
H495 C493 0.950 . S
H496 C480 0.951 . S
H497 C482 0.951 . S
H498 C484 0.951 . S
H499 C485 0.950 . S
H500 C486 0.950 . S
H501 C487 0.950 . S
H502 C489 0.950 . S
H503 C490 0.951 . S
C504 C505 1.386 . S
C504 C506 1.383 . S
C504 H520 0.951 . S
C505 C504 1.386 . S
C505 C509 1.383 . S
C506 C504 1.383 . S
C506 C507 1.402 . S
C506 H521 0.951 . S
C507 C506 1.402 . S
C507 C508 1.375 . S
C507 C510 1.481 . S
C508 C507 1.375 . S
C508 C509 1.367 . S
C508 H522 0.951 . S
C509 C505 1.383 . S
C509 C508 1.367 . S
C509 H523 0.950 . S
C510 C507 1.481 . S
C510 C511 1.297 . S
C510 H524 0.950 . S
C511 C510 1.297 . S
C511 C512 1.479 . S
C511 H525 0.950 . S
C512 C511 1.479 . S
C512 C513 1.375 . S
C512 C518 1.404 . S
C513 C512 1.375 . S
C513 C514 1.369 . S
C513 H526 0.950 . S
C514 C513 1.369 . S
C514 C515 1.392 . S
C514 H527 0.951 . S
C515 C514 1.392 . S
C515 C517 1.384 . S
H516 C518 0.949 . S
C517 C515 1.384 . S
C517 C518 1.385 . S
C517 H519 0.950 . S
C518 C512 1.404 . S
C518 H516 0.949 . S
C518 C517 1.385 . S
H519 C517 0.950 . S
H520 C504 0.951 . S
H521 C506 0.951 . S
H522 C508 0.951 . S
H523 C509 0.950 . S
H524 C510 0.950 . S
H525 C511 0.950 . S
H526 C513 0.950 . S
H527 C514 0.951 . S
C528 C529 1.386 . S
C528 C530 1.383 . S
C528 H544 0.951 . S
C529 C528 1.386 . S
C529 C533 1.383 . S
C530 C528 1.383 . S
C530 C531 1.402 . S
C530 H545 0.951 . S
C531 C530 1.402 . S
C531 C532 1.375 . S
C531 C534 1.481 . S
C532 C531 1.375 . S
C532 C533 1.367 . S
C532 H546 0.951 . S
C533 C529 1.383 . S
C533 C532 1.367 . S
C533 H547 0.950 . S
C534 C531 1.481 . S
C534 C535 1.297 . S
C534 H548 0.950 . S
C535 C534 1.297 . S
C535 C536 1.479 . S
C535 H549 0.950 . S
C536 C535 1.479 . S
C536 C537 1.375 . S
C536 C542 1.404 . S
C537 C536 1.375 . S
C537 C538 1.369 . S
C537 H550 0.950 . S
C538 C537 1.369 . S
C538 C539 1.392 . S
C538 H551 0.951 . S
C539 C538 1.392 . S
C539 C541 1.384 . S
H540 C542 0.949 . S
C541 C539 1.384 . S
C541 C542 1.385 . S
C541 H543 0.950 . S
C542 C536 1.404 . S
C542 H540 0.949 . S
C542 C541 1.385 . S
H543 C541 0.950 . S
H544 C528 0.951 . S
H545 C530 0.951 . S
H546 C532 0.951 . S
H547 C533 0.950 . S
H548 C534 0.950 . S
H549 C535 0.950 . S
H550 C537 0.950 . S
H551 C538 0.951 . S
C121 C118 1.531 . S
C131 C18 1.524 . S
C145 C8 1.475 . S
C155 C28 1.457 . S
C169 C38 1.520 . S
C179 C58 1.534 . S
C193 C48 1.415 . S
C203 C68 1.400 . S
C217 C98 1.521 . S
C227 C78 1.534 . S
C241 C108 1.420 . S
C251 C88 1.378 . S
C265 C2 1.164 . S
C275 C1 1.176 . S
C289 C21 1.168 . S
C299 C22 1.210 . S
C313 C42 1.198 . S
C323 C41 1.177 . S
C337 C61 1.166 . S
C347 C62 1.171 . S
C361 C81 1.175 . S
C371 C82 1.209 . S
C385 C101 1.201 . S
C395 C102 1.162 1_554 S
C409 C19 1.566 . S
C419 C89 1.588 . S
C433 C29 1.613 . S
C443 C119 1.569 . S
C457 C9 1.601 . S
C467 C59 1.570 . S
C481 C39 1.589 . S
C491 C69 1.591 . S
C505 C99 1.596 . S
C515 C49 1.595 . S
C529 C79 1.590 1_556 S
C539 C109 1.612 . S
