# Generated by pormake.
# Topology sne, (6)-cn, num edge types: 1
# Building blocks:
#     Node 0, Type 0, BuildingBlock: KUMBOL_clean_sbu_1, # of connection points: 6
#     Node 1, Type 0, BuildingBlock: KUMBOL_clean_sbu_1, # of connection points: 6
#     Node 2, Type 0, BuildingBlock: KUMBOL_clean_sbu_1, # of connection points: 6
#     Node 3, Type 0, BuildingBlock: KUMBOL_clean_sbu_1, # of connection points: 6
#     Node 4, Type 0, BuildingBlock: KUMBOL_clean_sbu_1, # of connection points: 6
#     Node 5, Type 0, BuildingBlock: KUMBOL_clean_sbu_1, # of connection points: 6
#     Node 6, Type 0, BuildingBlock: KUMBOL_clean_sbu_1, # of connection points: 6
#     Node 7, Type 0, BuildingBlock: KUMBOL_clean_sbu_1, # of connection points: 6
#     Edge 8, Type (0, 0), BuildingBlock: CIFDUS_clean_linker_0, # of connection points: 2
#     Edge 9, Type (0, 0), BuildingBlock: CIFDUS_clean_linker_0, # of connection points: 2
#     Edge 10, Type (0, 0), BuildingBlock: CIFDUS_clean_linker_0, # of connection points: 2
#     Edge 11, Type (0, 0), BuildingBlock: CIFDUS_clean_linker_0, # of connection points: 2
#     Edge 12, Type (0, 0), BuildingBlock: CIFDUS_clean_linker_0, # of connection points: 2
#     Edge 13, Type (0, 0), BuildingBlock: CIFDUS_clean_linker_0, # of connection points: 2
#     Edge 14, Type (0, 0), BuildingBlock: CIFDUS_clean_linker_0, # of connection points: 2
#     Edge 15, Type (0, 0), BuildingBlock: CIFDUS_clean_linker_0, # of connection points: 2
#     Edge 16, Type (0, 0), BuildingBlock: CIFDUS_clean_linker_0, # of connection points: 2
#     Edge 17, Type (0, 0), BuildingBlock: CIFDUS_clean_linker_0, # of connection points: 2
#     Edge 18, Type (0, 0), BuildingBlock: CIFDUS_clean_linker_0, # of connection points: 2
#     Edge 19, Type (0, 0), BuildingBlock: CIFDUS_clean_linker_0, # of connection points: 2
#     Edge 20, Type (0, 0), BuildingBlock: CIFDUS_clean_linker_0, # of connection points: 2
#     Edge 21, Type (0, 0), BuildingBlock: CIFDUS_clean_linker_0, # of connection points: 2
#     Edge 22, Type (0, 0), BuildingBlock: CIFDUS_clean_linker_0, # of connection points: 2
#     Edge 23, Type (0, 0), BuildingBlock: CIFDUS_clean_linker_0, # of connection points: 2
#     Edge 24, Type (0, 0), BuildingBlock: CIFDUS_clean_linker_0, # of connection points: 2
#     Edge 25, Type (0, 0), BuildingBlock: CIFDUS_clean_linker_0, # of connection points: 2
#     Edge 26, Type (0, 0), BuildingBlock: CIFDUS_clean_linker_0, # of connection points: 2
#     Edge 27, Type (0, 0), BuildingBlock: CIFDUS_clean_linker_0, # of connection points: 2
#     Edge 28, Type (0, 0), BuildingBlock: CIFDUS_clean_linker_0, # of connection points: 2
#     Edge 29, Type (0, 0), BuildingBlock: CIFDUS_clean_linker_0, # of connection points: 2
#     Edge 30, Type (0, 0), BuildingBlock: CIFDUS_clean_linker_0, # of connection points: 2
#     Edge 31, Type (0, 0), BuildingBlock: CIFDUS_clean_linker_0, # of connection points: 2
# Relax obj value: 0.242
# Max RMSD: 0.301
# Mean RMSD: 0.300
data_MOF--net-sne--node1-KUMBOL_clean_sbu_1--edge1-CIFDUS_clean_linker_0
_symmetry_space_group_name_H-M    P1
_symmetry_Int_Tables_number       1
_symmetry_cell_setting            triclinic
loop_
_symmetry_equiv_pos_as_xyz
'x, y, z'
_cell_length_a     38.174205
_cell_length_b     38.061922
_cell_length_c     25.212361
_cell_angle_alpha  89.872394
_cell_angle_beta   90.454546
_cell_angle_gamma 90.956759
loop_
_atom_site_label
_atom_site_type_symbol
_atom_site_fract_x
_atom_site_fract_y
_atom_site_fract_z
_atom_type_partial_charge
C0 C 0.18003 0.26718 0.3669 0.0
C1 C 0.15273 0.24683 0.28466 0.0
C2 C 0.17235 0.24023 0.33118 0.0
C3 C 0.14029 0.2807 0.27481 0.0
C4 C 0.16704 0.30117 0.35717 0.0
C5 C 0.14734 0.30775 0.31101 0.0
N6 N 0.20003 0.26026 0.4108 0.0
C7 C 0.20502 0.28585 0.44836 0.0
C8 C 0.17384 0.3276 0.39434 0.0
C9 C 0.19248 0.31976 0.44038 0.0
Gd10 Gd 0.32028 0.20735 0.4198 0.0
Gd11 Gd 0.21609 0.20054 0.42106 0.0
N12 N 0.18547 0.2078 0.34082 0.0
C13 C 0.14642 0.21922 0.24908 0.0
C14 C 0.17903 0.18068 0.30654 0.0
C15 C 0.15971 0.18604 0.26 0.0
H16 H 0.18738 0.15456 0.31632 0.0
H17 H 0.1545 0.16441 0.23312 0.0
H18 H 0.27196 0.27908 0.37448 0.0
H19 H 0.21839 0.28099 0.48509 0.0
H20 H 0.26376 0.3396 0.39936 0.0
H21 H 0.13105 0.22315 0.21335 0.0
H22 H 0.12524 0.28627 0.23924 0.0
H23 H 0.3731 0.17562 0.51171 0.0
H24 H 0.16427 0.35397 0.38834 0.0
H25 H 0.19717 0.33985 0.47003 0.0
H26 H 0.32867 0.35363 0.56082 0.0
H27 H 0.13738 0.33374 0.30298 0.0
H28 H 0.39513 0.25672 0.62502 0.0
H29 H 0.40338 0.19606 0.59358 0.0
N30 N 0.34848 0.22443 0.49782 0.0
C31 C 0.34384 0.25804 0.51376 0.0
C32 C 0.36975 0.20228 0.52526 0.0
C33 C 0.38192 0.24798 0.58923 0.0
C34 C 0.38672 0.21369 0.57153 0.0
C35 C 0.36025 0.2706 0.5605 0.0
H36 H 0.36668 0.31513 0.61324 0.0
N37 N 0.30538 0.26634 0.43976 0.0
C38 C 0.32172 0.2795 0.4842 0.0
C39 C 0.29528 0.3361 0.47001 0.0
C40 C 0.31646 0.31445 0.50087 0.0
C41 C 0.28495 0.28789 0.40955 0.0
C42 C 0.27994 0.3229 0.42384 0.0
O43 O 0.23938 0.1559 0.37438 0.0
O44 O 0.2998 0.16562 0.36283 0.0
O45 O 0.36816 0.23299 0.39217 0.0
O46 O 0.36813 0.17775 0.40831 0.0
O47 O 0.24183 0.15356 0.46315 0.0
O48 O 0.30312 0.15436 0.45349 0.0
O49 O 0.29694 0.20067 0.50174 0.0
O50 O 0.2448 0.2281 0.48945 0.0
O51 O 0.17131 0.16441 0.42539 0.0
O52 O 0.17268 0.20973 0.47546 0.0
O53 O 0.29946 0.22574 0.34019 0.0
O54 O 0.23871 0.22083 0.34287 0.0
C55 C 0.26997 0.14859 0.35294 0.0
C56 C 0.27322 0.13907 0.4688 0.0
C57 C 0.40476 0.19897 0.33928 0.0
C58 C 0.45612 0.20964 0.28329 0.0
C59 C 0.40405 0.18028 0.24726 0.0
C60 C 0.38737 0.18309 0.29608 0.0
C61 C 0.43804 0.19363 0.24073 0.0
C62 C 0.4394 0.21195 0.3329 0.0
C63 C 0.38592 0.20433 0.38955 0.0
C64 C 0.33269 0.32696 0.54751 0.0
C65 C 0.35443 0.30509 0.5773 0.0
H66 H 0.29083 0.36311 0.48124 0.0
C67 C 0.26953 0.2164 0.52114 0.0
C68 C 0.26827 0.22757 0.31772 0.0
C69 C 0.11654 0.19128 0.44303 0.0
C70 C 0.05711 0.20966 0.46629 0.0
C71 C 0.07138 0.19672 0.37483 0.0
C72 C 0.10524 0.18796 0.39006 0.0
C73 C 0.04755 0.20773 0.41247 0.0
C74 C 0.0919 0.20157 0.48154 0.0
C75 C 0.15362 0.18366 0.4578 0.0
H76 H 0.39038 0.16814 0.21409 0.0
H77 H 0.36068 0.17334 0.2999 0.0
H78 H 0.45025 0.1916 0.20223 0.0
H79 H 0.45278 0.22485 0.36575 0.0
H80 H 0.06338 0.19434 0.33368 0.0
H81 H 0.12226 0.17808 0.36014 0.0
H82 H 0.02108 0.21347 0.39972 0.0
H83 H 0.09965 0.20318 0.52292 0.0
C84 C 0.27926 0.69224 0.59905 0.0
C85 C 0.32846 0.73065 0.62198 0.0
C86 C 0.29312 0.72013 0.62891 0.0
C87 C 0.34977 0.71208 0.58697 0.0
C88 C 0.30018 0.67482 0.56181 0.0
C89 C 0.33568 0.68428 0.55697 0.0
N90 N 0.24441 0.68473 0.60237 0.0
C91 C 0.22862 0.66076 0.56947 0.0
C92 C 0.28438 0.64955 0.52868 0.0
C93 C 0.24838 0.64278 0.53214 0.0
Gd94 Gd 0.18253 0.81216 0.66925 0.0
Gd95 Gd 0.21528 0.71227 0.67131 0.0
N96 N 0.27151 0.73849 0.6614 0.0
C97 C 0.34115 0.76026 0.64908 0.0
C98 C 0.28379 0.76799 0.6865 0.0
C99 C 0.31861 0.77921 0.68093 0.0
H100 H 0.26732 0.78337 0.71081 0.0
H101 H 0.32803 0.80258 0.70126 0.0
H102 H 0.1662 0.8397 0.54649 0.0
H103 H 0.20076 0.6555 0.57225 0.0
H104 H 0.11691 0.86417 0.49456 0.0
H105 H 0.36808 0.7692 0.6447 0.0
H106 H 0.37699 0.71972 0.58161 0.0
H107 H 0.16949 0.83617 0.79637 0.0
H108 H 0.29955 0.63579 0.49939 0.0
H109 H 0.23588 0.62373 0.50607 0.0
H110 H 0.03002 0.88785 0.62634 0.0
H111 H 0.3522 0.67104 0.52883 0.0
H112 H 0.06609 0.87685 0.80833 0.0
H113 H 0.12179 0.85919 0.8508 0.0
N114 N 0.14087 0.83943 0.72376 0.0
C115 C 0.11118 0.85052 0.69971 0.0
C116 C 0.1454 0.84366 0.77723 0.0
C117 C 0.0869 0.86652 0.78424 0.0
C118 C 0.11835 0.85671 0.80831 0.0
C119 C 0.0833 0.86424 0.72908 0.0
H120 H 0.03154 0.88673 0.72409 0.0
N121 N 0.13883 0.84 0.61919 0.0
C122 C 0.11016 0.85086 0.64523 0.0
C123 C 0.08359 0.86913 0.5627 0.0
C124 C 0.08149 0.86536 0.61783 0.0
C125 C 0.14221 0.84609 0.56617 0.0
C126 C 0.11447 0.86021 0.5369 0.0
O127 O 0.22325 0.73602 0.58979 0.0
O128 O 0.20544 0.79421 0.5903 0.0
O129 O 0.19317 0.86857 0.66556 0.0
O130 O 0.23608 0.8318 0.66762 0.0
O131 O 0.2253 0.73772 0.75052 0.0
O132 O 0.20661 0.79563 0.74872 0.0
O133 O 0.15362 0.77847 0.72991 0.0
O134 O 0.16117 0.71987 0.7065 0.0
O135 O 0.24308 0.67452 0.72004 0.0
O136 O 0.19879 0.65706 0.67388 0.0
O137 O 0.15364 0.7772 0.61021 0.0
O138 O 0.16303 0.7176 0.62907 0.0
C139 C 0.21965 0.76687 0.56693 0.0
C140 C 0.21998 0.76813 0.77347 0.0
C141 C 0.24297 0.88309 0.61337 0.0
C142 C 0.25542 0.93747 0.5631 0.0
C143 C 0.2764 0.88115 0.53173 0.0
C144 C 0.26147 0.86411 0.57518 0.0
C145 C 0.2735 0.9174 0.5257 0.0
C146 C 0.2398 0.91995 0.60686 0.0
C147 C 0.22676 0.86438 0.65929 0.0
C148 C 0.05257 0.87708 0.64661 0.0
C149 C 0.05346 0.87648 0.70225 0.0
H150 H 0.06216 0.88016 0.54007 0.0
C151 C 0.14382 0.74508 0.73034 0.0
C152 C 0.14565 0.74336 0.60574 0.0
C153 C 0.20994 0.62726 0.75438 0.0
C154 C 0.20495 0.57114 0.80183 0.0
C155 C 0.17952 0.62408 0.83838 0.0
C156 C 0.19113 0.64353 0.79481 0.0
C157 C 0.18621 0.58819 0.84185 0.0
C158 C 0.21716 0.59105 0.75819 0.0
C159 C 0.22229 0.64822 0.70871 0.0
H160 H 0.29033 0.86614 0.50246 0.0
H161 H 0.26443 0.83596 0.57862 0.0
H162 H 0.28516 0.92974 0.49118 0.0
H163 H 0.22569 0.93491 0.63603 0.0
H164 H 0.16509 0.63683 0.8695 0.0
H165 H 0.18549 0.67131 0.79265 0.0
H166 H 0.17672 0.57365 0.87598 0.0
H167 H 0.2315 0.57832 0.72688 0.0
C168 C 0.85715 0.755 0.34751 0.0
C169 C 0.89713 0.79245 0.2974 0.0
C170 C 0.8704 0.78837 0.33531 0.0
C171 C 0.91048 0.76269 0.27224 0.0
C172 C 0.8707 0.72508 0.32251 0.0
C173 C 0.89741 0.72912 0.28491 0.0
N174 N 0.83027 0.75193 0.38257 0.0
C175 C 0.81665 0.7197 0.3957 0.0
C176 C 0.85667 0.69198 0.33559 0.0
C177 C 0.82957 0.68931 0.37235 0.0
Gd178 Gd 0.71182 0.81512 0.41812 0.0
Gd179 Gd 0.81454 0.80428 0.42437 0.0
N180 N 0.85728 0.81678 0.36062 0.0
C181 C 0.90982 0.82635 0.28606 0.0
C182 C 0.87003 0.84983 0.35053 0.0
C183 C 0.89626 0.85512 0.31282 0.0
H184 H 0.86066 0.87206 0.37247 0.0
H185 H 0.9063 0.88135 0.30487 0.0
H186 H 0.73949 0.73372 0.3683 0.0
H187 H 0.79631 0.7172 0.42491 0.0
H188 H 0.73128 0.67238 0.38934 0.0
H189 H 0.93031 0.83055 0.25711 0.0
H190 H 0.93102 0.76534 0.24301 0.0
H191 H 0.67099 0.85703 0.51264 0.0
H192 H 0.86647 0.66837 0.31738 0.0
H193 H 0.81872 0.66381 0.38291 0.0
H194 H 0.65688 0.67094 0.54058 0.0
H195 H 0.90803 0.70644 0.26516 0.0
H196 H 0.62052 0.78059 0.61243 0.0
H197 H 0.63331 0.84268 0.58978 0.0
N198 N 0.68009 0.80363 0.49437 0.0
C199 C 0.67358 0.76927 0.50586 0.0
C200 C 0.66596 0.82991 0.52342 0.0
C201 C 0.63757 0.78672 0.57946 0.0
C202 C 0.64462 0.82185 0.56669 0.0
C203 C 0.65228 0.75993 0.54929 0.0
H204 H 0.62938 0.71657 0.5936 0.0
N205 N 0.70876 0.75311 0.43201 0.0
C206 C 0.68852 0.7434 0.4744 0.0
C207 C 0.69854 0.68195 0.45646 0.0
C208 C 0.68286 0.7076 0.48735 0.0
C209 C 0.72362 0.72769 0.4016 0.0
C210 C 0.71901 0.69208 0.41355 0.0
O211 O 0.7989 0.85673 0.38974 0.0
O212 O 0.74186 0.84857 0.35819 0.0
O213 O 0.65898 0.79995 0.39567 0.0
O214 O 0.67298 0.8548 0.39782 0.0
O215 O 0.79563 0.85339 0.46777 0.0
O216 O 0.73493 0.86305 0.46123 0.0
O217 O 0.73748 0.80871 0.49882 0.0
O218 O 0.77625 0.76997 0.469 0.0
O219 O 0.86906 0.81207 0.44959 0.0
O220 O 0.83222 0.78669 0.5019 0.0
O221 O 0.73169 0.79428 0.33955 0.0
O222 O 0.79144 0.7835 0.34717 0.0
C223 C 0.77134 0.86714 0.36195 0.0
C224 C 0.76701 0.87166 0.47836 0.0
C225 C 0.63061 0.83472 0.33401 0.0
C226 C 0.57765 0.82251 0.28158 0.0
C227 C 0.63259 0.83709 0.23788 0.0
C228 C 0.64947 0.84022 0.28709 0.0
C229 C 0.59699 0.82793 0.23503 0.0
C230 C 0.59459 0.82637 0.33106 0.0
C231 C 0.64893 0.83152 0.38534 0.0
C232 C 0.66164 0.6983 0.53056 0.0
C233 C 0.64613 0.72434 0.56104 0.0
H234 H 0.69494 0.65426 0.46533 0.0
C235 C 0.7591 0.78327 0.50877 0.0
C236 C 0.76187 0.78407 0.31987 0.0
C237 C 0.88868 0.7626 0.49728 0.0
C238 C 0.94795 0.73888 0.5027 0.0
C239 C 0.8973 0.69965 0.49207 0.0
C240 C 0.87503 0.72816 0.49397 0.0
C241 C 0.93342 0.7049 0.49544 0.0
C242 C 0.92509 0.7678 0.50276 0.0
C243 C 0.86511 0.79291 0.49192 0.0
H244 H 0.64733 0.84107 0.20179 0.0
H245 H 0.67738 0.84581 0.28849 0.0
H246 H 0.58449 0.8252 0.19649 0.0
H247 H 0.58013 0.82122 0.36718 0.0
H248 H 0.88649 0.67333 0.48777 0.0
H249 H 0.8471 0.72318 0.49208 0.0
H250 H 0.94984 0.6821 0.49253 0.0
H251 H 0.93523 0.79433 0.50768 0.0
C252 C 0.76701 0.17249 0.75539 0.0
C253 C 0.70832 0.19291 0.73647 0.0
C254 C 0.74454 0.19338 0.72532 0.0
C255 C 0.69511 0.17105 0.77686 0.0
C256 C 0.75385 0.15117 0.79682 0.0
C257 C 0.71777 0.15027 0.80691 0.0
N258 N 0.80203 0.17483 0.74668 0.0
C259 C 0.82535 0.15671 0.77685 0.0
C260 C 0.77756 0.13239 0.82822 0.0
C261 C 0.81347 0.13531 0.81833 0.0
Gd262 Gd 0.81845 0.31191 0.65945 0.0
Gd263 Gd 0.81877 0.20648 0.67241 0.0
N264 N 0.75812 0.21489 0.68682 0.0
C265 C 0.68633 0.21473 0.70718 0.0
C266 C 0.73657 0.23689 0.65929 0.0
C267 C 0.70053 0.23682 0.6686 0.0
H268 H 0.74653 0.25499 0.63032 0.0
H269 H 0.68369 0.254 0.64603 0.0
H270 H 0.86367 0.34307 0.55693 0.0
H271 H 0.85305 0.1587 0.76845 0.0
H272 H 0.85237 0.36961 0.46875 0.0
H273 H 0.65839 0.21502 0.71446 0.0
H274 H 0.66737 0.1704 0.78569 0.0
H275 H 0.73955 0.31528 0.72457 0.0
H276 H 0.76846 0.11598 0.86065 0.0
H277 H 0.83196 0.12098 0.8425 0.0
H278 H 0.72702 0.37509 0.45792 0.0
H279 H 0.7072 0.13409 0.83858 0.0
H280 H 0.66134 0.34351 0.61179 0.0
H281 H 0.67833 0.32585 0.70256 0.0
N282 N 0.75797 0.32226 0.64506 0.0
C283 C 0.74951 0.33522 0.59619 0.0
C284 C 0.73301 0.32096 0.68384 0.0
C285 C 0.6885 0.33794 0.62072 0.0
C286 C 0.69797 0.32787 0.67193 0.0
C287 C 0.71446 0.34274 0.58251 0.0
H288 H 0.67975 0.36181 0.52075 0.0
N289 N 0.80979 0.33686 0.57536 0.0
C290 C 0.77615 0.34327 0.56071 0.0
C291 C 0.79624 0.36741 0.47725 0.0
C292 C 0.76847 0.3582 0.51078 0.0
C293 C 0.83708 0.34665 0.54352 0.0
C294 C 0.83072 0.36204 0.494 0.0
O295 O 0.81633 0.23287 0.75232 0.0
O296 O 0.78847 0.28118 0.72218 0.0
O297 O 0.85005 0.36022 0.66039 0.0
O298 O 0.80585 0.35563 0.71176 0.0
O299 O 0.79454 0.22408 0.59589 0.0
O300 O 0.80967 0.28278 0.58121 0.0
O301 O 0.86801 0.28976 0.62387 0.0
O302 O 0.86108 0.22829 0.61777 0.0
O303 O 0.79787 0.15569 0.64771 0.0
O304 O 0.85324 0.16193 0.65906 0.0
O305 O 0.86154 0.29134 0.71337 0.0
O306 O 0.86803 0.22977 0.71159 0.0
C307 C 0.80104 0.26279 0.76194 0.0
C308 C 0.79748 0.2519 0.56521 0.0
C309 C 0.81872 0.41261 0.67792 0.0
C310 C 0.80072 0.47223 0.70203 0.0
C311 C 0.80362 0.45497 0.6094 0.0
C312 C 0.81467 0.42171 0.62425 0.0
C313 C 0.79669 0.48003 0.64778 0.0
C314 C 0.81191 0.43825 0.71695 0.0
C315 C 0.82988 0.37661 0.69305 0.0
C316 C 0.73349 0.36396 0.49625 0.0
C317 C 0.70656 0.35626 0.532 0.0
H318 H 0.79137 0.37905 0.43868 0.0
C319 C 0.87796 0.25828 0.60769 0.0
C320 C 0.87809 0.26206 0.72591 0.0
C321 C 0.83242 0.12213 0.59213 0.0
C322 C 0.81652 0.07216 0.53492 0.0
C323 C 0.84855 0.12263 0.49919 0.0
C324 C 0.84831 0.13895 0.54873 0.0
C325 C 0.83254 0.08966 0.49214 0.0
C326 C 0.81689 0.08844 0.58519 0.0
C327 C 0.82801 0.14114 0.64268 0.0
H328 H 0.80073 0.46147 0.56778 0.0
H329 H 0.82032 0.40341 0.59337 0.0
H330 H 0.78888 0.50592 0.63482 0.0
H331 H 0.81507 0.43172 0.75855 0.0
H332 H 0.8607 0.13585 0.46584 0.0
H333 H 0.85982 0.16502 0.55282 0.0
H334 H 0.8327 0.07774 0.45316 0.0
H335 H 0.80391 0.07559 0.61822 0.0
C336 C 0.35134 0.26925 0.82221 0.0
C337 C 0.38109 0.31232 0.76647 0.0
C338 C 0.35942 0.30416 0.80998 0.0
C339 C 0.39367 0.28516 0.73466 0.0
C340 C 0.36473 0.24189 0.79106 0.0
C341 C 0.3855 0.25005 0.74685 0.0
N342 N 0.33072 0.26204 0.86486 0.0
C343 C 0.32383 0.22805 0.87985 0.0
C344 C 0.357 0.20706 0.80544 0.0
C345 C 0.3366 0.20014 0.85014 0.0
Gd346 Gd 0.20935 0.31206 0.92467 0.0
Gd347 Gd 0.31294 0.31136 0.9132 0.0
N348 N 0.34779 0.32997 0.84228 0.0
C349 C 0.39047 0.34752 0.75721 0.0
C350 C 0.35874 0.36398 0.83555 0.0
C351 C 0.3796 0.3734 0.79232 0.0
H352 H 0.35204 0.38365 0.86441 0.0
H353 H 0.38781 0.4005 0.78666 0.0
H354 H 0.22213 0.23959 0.84333 0.0
H355 H 0.30772 0.22255 0.91402 0.0
H356 H 0.23355 0.17727 0.85496 0.0
H357 H 0.40703 0.35482 0.72412 0.0
H358 H 0.41047 0.29106 0.70127 0.0
H359 H 0.16953 0.3381 1.03325 0.0
H360 H 0.36678 0.18536 0.78245 0.0
H361 H 0.33064 0.17331 0.86165 0.0
H362 H 0.20516 0.15487 0.03641 0.0
H363 H 0.3958 0.22938 0.72228 0.0
H364 H 0.15889 0.24955 0.13758 0.0
H365 H 0.14988 0.31258 0.11899 0.0
N366 N 0.18845 0.28969 1.00457 0.0
C367 C 0.19215 0.25466 1.01269 0.0
C368 C 0.1727 0.31039 0.04111 0.0
C369 C 0.16682 0.26041 0.09978 0.0
C370 C 0.16175 0.29607 0.08946 0.0
C371 C 0.18201 0.23919 0.06118 0.0
H372 H 0.18028 0.19101 0.10702 0.0
N373 N 0.21583 0.25008 0.92575 0.0
C374 C 0.20688 0.23448 0.97278 0.0
C375 C 0.22243 0.17764 0.93844 0.0
C376 C 0.21082 0.198 0.98066 0.0
C377 C 0.22239 0.22936 0.88287 0.0
C378 C 0.22721 0.19324 0.88893 0.0
O379 O 0.29043 0.36202 0.87797 0.0
O380 O 0.22963 0.35421 0.86823 0.0
O381 O 0.15835 0.29088 0.90237 0.0
O382 O 0.1633 0.34544 0.92314 0.0
O383 O 0.29238 0.35898 0.95763 0.0
O384 O 0.23092 0.36072 0.96733 0.0
O385 O 0.24174 0.30858 1.00062 0.0
O386 O 0.28392 0.27395 0.96806 0.0
O387 O 0.36944 0.31802 0.92555 0.0
O388 O 0.33672 0.30307 0.9908 0.0
O389 O 0.22839 0.30567 0.84024 0.0
O390 O 0.28109 0.27987 0.85283 0.0
C391 C 0.25921 0.37217 0.86028 0.0
C392 C 0.26324 0.37337 0.97563 0.0
C393 C 0.12319 0.3289 0.85443 0.0
C394 C 0.0738 0.31523 0.79532 0.0
C395 C 0.12247 0.35153 0.76428 0.0
C396 C 0.13915 0.34821 0.81344 0.0
C397 C 0.09014 0.33491 0.75504 0.0
C398 C 0.09021 0.31274 0.84536 0.0
C399 C 0.14294 0.32092 0.90334 0.0
C400 C 0.20186 0.18274 1.02962 0.0
C401 C 0.1875 0.20327 0.06975 0.0
H402 H 0.22577 0.14957 0.94284 0.0
C403 C 0.26668 0.28591 1.00898 0.0
C404 C 0.25689 0.29198 0.82067 0.0
C405 C 0.3921 0.27695 0.98628 0.0
C406 C 0.45014 0.25424 1.00839 0.0
C407 C 0.40084 0.21406 0.99239 0.0
C408 C 0.37888 0.24238 0.98441 0.0
C409 C 0.43621 0.21982 1.00363 0.0
C410 C 0.42774 0.28287 0.9988 0.0
C411 C 0.36866 0.3064 0.97393 0.0
H412 H 0.13505 0.36634 0.73283 0.0
H413 H 0.16499 0.35974 0.81881 0.0
H414 H 0.07791 0.33725 0.71629 0.0
H415 H 0.07819 0.29687 0.87624 0.0
H416 H 0.3904 0.1875 0.98974 0.0
H417 H 0.35149 0.23723 0.97662 0.0
H418 H 0.45262 0.1971 1.00841 0.0
H419 H 0.43768 0.30962 1.00173 0.0
C420 C 0.27704 0.67378 0.27957 0.0
C421 C 0.21593 0.6898 0.27282 0.0
C422 C 0.25006 0.68995 0.25148 0.0
C423 C 0.20953 0.67392 0.32225 0.0
C424 C 0.2706 0.65767 0.32908 0.0
C425 C 0.23677 0.65795 0.35029 0.0
N426 N 0.30992 0.67489 0.25945 0.0
C427 C 0.3372 0.65937 0.28498 0.0
C428 C 0.29855 0.6421 0.35618 0.0
C429 C 0.33196 0.64281 0.3339 0.0
Gd430 Gd 0.3146 0.80643 0.17532 0.0
Gd431 Gd 0.31678 0.70268 0.17809 0.0
N432 N 0.25718 0.70614 0.20412 0.0
C433 C 0.18906 0.70559 0.24396 0.0
C434 C 0.23049 0.72058 0.17534 0.0
C435 C 0.19633 0.7207 0.19488 0.0
H436 H 0.23458 0.73248 0.13749 0.0
H437 H 0.17558 0.73266 0.17197 0.0
H438 H 0.37417 0.84737 0.09864 0.0
H439 H 0.36303 0.6602 0.26767 0.0
H440 H 0.37473 0.88955 1.02401 0.0
H441 H 0.16256 0.70599 0.259 0.0
H442 H 0.18352 0.67382 0.33915 0.0
H443 H 0.22838 0.79063 0.20284 0.0
H444 H 0.29461 0.62951 0.39431 0.0
H445 H 0.35366 0.63076 0.35449 0.0
H446 H 0.25347 0.91401 0.99281 0.0
H447 H 0.23139 0.64591 0.38843 0.0
H448 H 0.16769 0.85372 0.09805 0.0
H449 H 0.17126 0.81018 0.17065 0.0
N450 N 0.25773 0.82134 0.14751 0.0
C451 C 0.25639 0.84635 0.10866 0.0
C452 C 0.22765 0.80883 0.17023 0.0
C453 C 0.19309 0.84504 0.11176 0.0
C454 C 0.19499 0.8203 0.15253 0.0
C455 C 0.22395 0.85839 0.08927 0.0
H456 H 0.19853 0.89251 1.0324 0.0
N457 N 0.31861 0.84634 0.10489 0.0
C458 C 0.2876 0.85882 0.0864 0.0
C459 C 0.31857 0.89425 1.02165 0.0
C460 C 0.28683 0.88316 0.04415 0.0
C461 C 0.34966 0.85693 0.08301 0.0
C462 C 0.35009 0.88105 0.04112 0.0
O463 O 0.32177 0.73188 0.25597 0.0
O464 O 0.28354 0.774 0.23462 0.0
O465 O 0.32852 0.86171 0.18934 0.0
O466 O 0.31126 0.8291 0.25399 0.0
O467 O 0.29107 0.72235 0.10287 0.0
O468 O 0.28921 0.78337 0.10076 0.0
O469 O 0.36131 0.78644 0.12927 0.0
O470 O 0.34765 0.72749 0.11047 0.0
O471 O 0.29477 0.65146 0.15785 0.0
O472 O 0.35063 0.65894 0.15843 0.0
O473 O 0.36638 0.78481 0.20671 0.0
O474 O 0.37001 0.72311 0.20682 0.0
C475 C 0.29954 0.75556 0.27119 0.0
C476 C 0.28362 0.75229 0.07907 0.0
C477 C 0.29142 0.88739 0.25262 0.0
C478 C 0.27539 0.94784 0.27329 0.0
C479 C 0.23078 0.90147 0.27056 0.0
C480 C 0.25614 0.87699 0.25833 0.0
C481 C 0.24023 0.93662 0.27789 0.0
C482 C 0.30104 0.92293 0.2606 0.0
C483 C 0.31771 0.86105 0.238 0.0
C484 C 0.25453 0.8953 1.0252 0.0
C485 C 0.22323 0.88302 0.04775 0.0
H486 H 0.31902 0.91288 0.9891 0.0
C487 C 0.36577 0.75695 0.1024 0.0
C488 C 0.38308 0.75504 0.2167 0.0
C489 C 0.3251 0.6219 0.09218 0.0
C490 C 0.30612 0.57455 1.03224 0.0
C491 C 0.33308 0.62804 0.99712 0.0
C492 C 0.33657 0.64159 0.04829 0.0
C493 C 0.31779 0.59489 0.98902 0.0
C494 C 0.31016 0.58817 0.08401 0.0
C495 C 0.32457 0.63811 0.14536 0.0
H496 H 0.20371 0.8931 0.27484 0.0
H497 H 0.24811 0.8498 0.25379 0.0
H498 H 0.22005 0.95497 0.28843 0.0
H499 H 0.32821 0.93116 0.25664 0.0
H500 H 0.34186 0.6435 0.96352 0.0
H501 H 0.34756 0.66776 0.05343 0.0
H502 H 0.3153 0.58501 0.94888 0.0
H503 H 0.30056 0.57313 0.11761 0.0
C504 C 0.68415 0.78236 0.83588 0.0
C505 C 0.6607 0.76268 0.75098 0.0
C506 C 0.67563 0.75519 0.80098 0.0
C507 C 0.65426 0.79766 0.73664 0.0
C508 C 0.67835 0.81758 0.82104 0.0
C509 C 0.66303 0.82501 0.77155 0.0
N510 N 0.70036 0.77448 0.88265 0.0
C511 C 0.71119 0.80068 0.91634 0.0
C512 C 0.68916 0.84439 0.85562 0.0
C513 C 0.70581 0.83589 0.90328 0.0
Gd514 Gd 0.81072 0.70845 0.9191 0.0
Gd515 Gd 0.70406 0.71401 0.90166 0.0
N516 N 0.68237 0.72151 0.81552 0.0
C517 C 0.65264 0.73474 0.71684 0.0
C518 C 0.67346 0.69415 0.78313 0.0
C519 C 0.65894 0.70032 0.733 0.0
H520 H 0.67595 0.66757 0.79699 0.0
H521 H 0.65191 0.67852 0.70734 0.0
H522 H 0.81458 0.77483 0.82589 0.0
H523 H 0.72439 0.79496 0.95313 0.0
H524 H 0.80267 0.83799 0.82201 0.0
H525 H 0.64099 0.73945 0.67839 0.0
H526 H 0.64277 0.8039 0.69845 0.0
H527 H 0.85109 0.69356 0.03482 0.0
H528 H 0.6853 0.87175 0.84552 0.0
H529 H 0.71464 0.85649 0.92998 0.0
H530 H 0.80588 0.87316 1.00391 0.0
H531 H 0.65838 0.85189 0.75954 0.0
H532 H 0.85067 0.78828 0.12636 0.0
H533 H 0.86601 0.72567 0.11748 0.0
N534 N 0.82855 0.73792 0.99713 0.0
C535 C 0.82201 0.7728 0.99997 0.0
C536 C 0.84542 0.72121 0.03779 0.0
C537 C 0.84472 0.77452 0.08971 0.0
C538 C 0.85357 0.73921 0.08476 0.0
C539 C 0.82917 0.7919 0.04678 0.0
H540 H 0.82628 0.84287 0.08449 0.0
N541 N 0.8066 0.77059 0.90933 0.0
C542 C 0.80966 0.78948 0.95497 0.0
C543 C 0.80013 0.84345 0.90684 0.0
C544 C 0.80547 0.82627 0.9552 0.0
C545 C 0.80839 0.78825 0.86209 0.0
C546 C 0.80319 0.82453 0.85987 0.0
O547 O 0.72565 0.66496 0.86149 0.0
O548 O 0.78744 0.66417 0.86884 0.0
O549 O 0.86206 0.72046 0.88445 0.0
O550 O 0.85615 0.67663 0.93688 0.0
O551 O 0.72359 0.66859 0.95207 0.0
O552 O 0.78472 0.66073 0.95924 0.0
O553 O 0.77959 0.71425 0.99636 0.0
O554 O 0.72382 0.7358 0.97906 0.0
O555 O 0.65286 0.68828 0.89478 0.0
O556 O 0.66065 0.72928 0.95241 0.0
O557 O 0.79146 0.7145 0.83367 0.0
O558 O 0.74449 0.74504 0.85664 0.0
C559 C 0.75681 0.65098 0.85221 0.0
C560 C 0.75156 0.65133 0.96886 0.0
C561 C 0.90081 0.67282 0.87172 0.0
C562 C 0.95571 0.66667 0.82145 0.0
C563 C 0.91554 0.61659 0.8335 0.0
C564 C 0.89256 0.63738 0.86159 0.0
C565 C 0.94685 0.63081 0.81431 0.0
C566 C 0.93244 0.68752 0.85124 0.0
C567 C 0.87737 0.69376 0.90583 0.0
C568 C 0.80973 0.84503 1.00282 0.0
C569 C 0.8216 0.82784 0.0486 0.0
H570 H 0.79682 0.87165 0.90515 0.0
C571 C 0.75048 0.72999 1.01094 0.0
C572 C 0.76315 0.73109 0.81907 0.0
C573 C 0.60344 0.7233 0.91456 0.0
C574 C 0.54408 0.74187 0.93829 0.0
C575 C 0.56324 0.74401 0.84649 0.0
C576 C 0.59556 0.7305 0.86118 0.0
C577 C 0.53773 0.74967 0.88454 0.0
C578 C 0.57748 0.72923 0.95329 0.0
C579 C 0.63796 0.70834 0.92945 0.0
H580 H 0.9092 0.58911 0.82692 0.0
H581 H 0.86857 0.62544 0.87628 0.0
H582 H 0.96428 0.61328 0.79401 0.0
H583 H 0.93863 0.715 0.85823 0.0
H584 H 0.55776 0.74969 0.80519 0.0
H585 H 0.61407 0.72523 0.83039 0.0
H586 H 0.51281 0.76009 0.87177 0.0
H587 H 0.58288 0.72303 0.99449 0.0
C588 C 0.76913 0.17676 0.07532 0.0
C589 C 0.82461 0.20838 0.08241 0.0
C590 C 0.78984 0.20264 0.09973 0.0
C591 C 0.8381 0.18787 0.04132 0.0
C592 C 0.78256 0.15631 1.03374 0.0
C593 C 0.81715 0.16195 1.01705 0.0
N594 N 0.73541 0.17237 0.09085 0.0
C595 C 0.71381 0.14783 0.06778 0.0
C596 C 0.76061 0.13105 1.00962 0.0
C597 C 0.72608 0.12678 1.02678 0.0
Gd598 Gd 0.7071 0.30949 0.15678 0.0
Gd599 Gd 0.71789 0.20546 0.16283 0.0
N600 N 0.77586 0.2227 0.13898 0.0
C601 C 0.84489 0.23479 0.10653 0.0
C602 C 0.79559 0.24916 0.16125 0.0
C603 C 0.8303 0.25521 0.14605 0.0
H604 H 0.78518 0.26648 0.18997 0.0
H605 H 0.84569 0.27602 0.16453 0.0
H606 H 0.66192 0.32852 0.26683 0.0
H607 H 0.68707 0.1447 0.081 0.0
H608 H 0.67075 0.36288 0.34878 0.0
H609 H 0.87169 0.2399 0.09451 0.0
H610 H 0.86471 0.19204 1.02773 0.0
H611 H 0.78505 0.31695 0.08928 0.0
H612 H 0.76997 0.11492 0.97751 0.0
H613 H 0.70891 0.1074 1.00829 0.0
H614 H 0.78763 0.40953 0.33485 0.0
H615 H 0.82787 0.14656 0.98511 0.0
H616 H 0.85477 0.37974 0.18284 0.0
H617 H 0.84203 0.34533 0.10194 0.0
N618 N 0.76497 0.33215 0.16483 0.0
C619 C 0.77089 0.35276 0.20843 0.0
C620 C 0.7898 0.33055 0.12602 0.0
C621 C 0.82945 0.36678 0.17811 0.0
C622 C 0.82241 0.34727 0.13251 0.0
C623 C 0.8035 0.37012 0.21645 0.0
H624 H 0.83413 0.40393 0.2688 0.0
N625 N 0.71328 0.33918 0.23784 0.0
C626 C 0.7443 0.3567 0.24553 0.0
C627 C 0.72337 0.37907 0.32903 0.0
C628 C 0.75018 0.37693 0.29169 0.0
C629 C 0.68689 0.34142 0.27398 0.0
C630 C 0.69167 0.36117 0.32022 0.0
O631 O 0.71194 0.22709 0.08003 0.0
O632 O 0.73513 0.28291 0.08859 0.0
O633 O 0.66908 0.35137 0.15281 0.0
O634 O 0.71401 0.35418 0.10259 0.0
O635 O 0.74111 0.22845 0.23696 0.0
O636 O 0.72962 0.28828 0.23462 0.0
O637 O 0.66166 0.28267 0.1986 0.0
O638 O 0.67974 0.22654 0.22396 0.0
O639 O 0.74326 0.15793 0.18939 0.0
O640 O 0.68718 0.15832 0.18303 0.0
O641 O 0.66293 0.27963 0.1128 0.0
O642 O 0.66497 0.21857 0.12748 0.0
C643 C 0.72612 0.25561 0.05924 0.0
C644 C 0.74075 0.25972 0.25874 0.0
C645 C 0.69465 0.40821 0.13877 0.0
C646 C 0.71428 0.46913 0.12118 0.0
C647 C 0.69564 0.45156 0.20959 0.0
C648 C 0.68775 0.4179 0.1914 0.0
C649 C 0.70901 0.47685 0.17509 0.0
C650 C 0.7079 0.4342 0.10342 0.0
C651 C 0.68771 0.37122 0.12143 0.0
C652 C 0.78268 0.39389 0.29963 0.0
C653 C 0.80921 0.39056 0.26211 0.0
H654 H 0.72691 0.39451 0.36476 0.0
C655 C 0.65758 0.25296 0.22547 0.0
C656 C 0.64943 0.24721 0.10938 0.0
C657 C 0.71283 0.12042 0.2471 0.0
C658 C 0.72178 0.06539 0.29534 0.0
C659 C 0.71143 0.11962 0.34328 0.0
C660 C 0.70882 0.13801 0.29541 0.0
C661 C 0.7182 0.08362 0.34335 0.0
C662 C 0.71881 0.08398 0.24715 0.0
C663 C 0.7144 0.14027 0.19692 0.0
H664 H 0.69091 0.45822 0.25061 0.0
H665 H 0.67608 0.39955 0.21893 0.0
H666 H 0.71475 0.50284 0.19065 0.0
H667 H 0.71226 0.42753 0.06227 0.0
H668 H 0.70859 0.1334 0.38047 0.0
H669 H 0.70432 0.16601 0.29602 0.0
H670 H 0.72031 0.06989 0.38091 0.0
H671 H 0.72228 0.07034 0.2099 0.0
H672 H 0.31555 0.096 0.36976 0.0
H673 H 0.22902 0.12644 0.27007 0.0
H674 H 0.22522 0.06728 0.23286 0.0
H675 H 0.24275 1.00554 0.23518 0.0
H676 H 0.32815 0.9741 0.33662 0.0
H677 H 0.33678 0.03502 0.36585 0.0
C678 C 0.29632 0.08975 0.33916 0.0
C679 C 0.27199 0.11522 0.3235 0.0
C680 C 0.29409 0.05546 0.31846 0.0
C681 C 0.2472 0.10694 0.28395 0.0
C682 C 0.24523 0.07318 0.26241 0.0
C683 C 0.26352 0.01212 0.26324 0.0
C684 C 0.28459 0.98531 0.28406 0.0
C685 C 0.26783 0.04697 0.28055 0.0
C686 C 0.31172 0.99427 0.31978 0.0
C687 C 0.31647 0.02905 0.3368 0.0
H688 H 0.09734 0.69525 0.69782 0.0
H689 H 0.11294 0.77366 0.81871 0.0
H690 H 0.05609 0.75737 0.85781 0.0
H691 H 1.00198 0.71915 0.85818 0.0
H692 H 0.9847 0.64778 0.72702 0.0
H693 H 0.04153 0.66334 0.69136 0.0
C694 C 0.08831 0.70896 0.73251 0.0
C695 C 0.10965 0.73538 0.75542 0.0
C696 C 0.05502 0.7006 0.75312 0.0
C697 C 0.0972 0.75305 0.80031 0.0
C698 C 0.0646 0.74376 0.82262 0.0
C699 C 0.01034 0.7073 0.82146 0.0
C700 C 0.98904 0.68103 0.79695 0.0
C701 C 0.04315 0.71742 0.79938 0.0
C702 C 1.0007 0.66667 0.74874 0.0
C703 C 0.03331 0.6758 0.72773 0.0
H704 H 0.72241 0.89932 0.2989 0.0
H705 H 0.81838 0.91981 0.38622 0.0
H706 H 0.81208 0.98256 0.37189 0.0
H707 H 0.77668 0.03242 0.34155 0.0
H708 H 0.68218 0.01268 0.25125 0.0
H709 H 0.69043 0.94912 0.25987 0.0
C710 C 0.74232 0.91741 0.31398 0.0
C711 C 0.77076 0.90449 0.34386 0.0
C712 C 0.73855 0.95382 0.30568 0.0
C713 C 0.79634 0.92858 0.36269 0.0
C714 C 0.79263 0.96471 0.35494 0.0
C715 C 0.75817 0.01411 0.32327 0.0
C716 C 0.72874 0.02708 0.29613 0.0
C717 C 0.76342 0.97769 0.32766 0.0
C718 C 0.70503 1.00322 0.27227 0.0
C719 C 0.70972 0.96692 0.27733 0.0
H720 H 0.01092 0.32436 0.84243 0.0
H721 H 0.06189 0.26479 0.72114 0.0
H722 H 1.00567 0.23798 0.69464 0.0
H723 H 0.94129 0.23615 0.70026 0.0
H724 H 0.88975 0.30134 0.81393 0.0
H725 H 0.94654 0.32051 0.85042 0.0
C726 C 0.00963 0.30503 0.81089 0.0
C727 C 0.0403 0.29643 0.78377 0.0
C728 C 0.97704 0.29069 0.79472 0.0
C729 C 0.03846 0.27176 0.74242 0.0
C730 C 1.00638 0.25645 0.72732 0.0
C731 C 0.94262 0.25389 0.73373 0.0
C732 C 0.91156 0.26714 0.75469 0.0
C733 C 0.97538 0.26629 0.7524 0.0
C734 C 0.91346 0.29064 0.79753 0.0
C735 C 0.94589 0.3018 0.81808 0.0
H736 H 0.32231 0.51239 0.07921 0.0
H737 H 0.2536 0.55778 0.96216 0.0
H738 H 0.23034 0.4994 0.93943 0.0
H739 H 0.23294 0.43482 0.94798 0.0
H740 H 0.30629 0.38942 0.05799 0.0
H741 H 0.32352 0.44803 0.08964 0.0
C742 C 0.3018 0.50947 0.04945 0.0
C743 C 0.2897 0.53935 1.0225 0.0
C744 C 0.28923 0.47569 0.03557 0.0
C745 C 0.26349 0.53515 0.98332 0.0
C746 C 0.25012 0.50178 0.97036 0.0
C747 C 0.25211 0.43788 0.97963 0.0
C748 C 0.26805 0.40798 1.0012 0.0
C749 C 0.26321 0.47177 0.99558 0.0
C750 C 0.29344 0.41216 0.04138 0.0
C751 C 0.30347 0.44564 0.05914 0.0
H752 H 0.47614 0.72102 0.92682 0.0
H753 H 0.54655 0.77298 0.03699 0.0
H754 H 0.49724 0.78468 0.09613 0.0
H755 H 0.43333 0.78103 0.11536 0.0
H756 H 0.36453 0.72618 1.00597 0.0
H757 H 0.41365 0.71584 0.94678 0.0
C758 C 0.48076 0.73506 0.96368 0.0
C759 C 0.51504 0.7464 0.97712 0.0
C760 C 0.45236 0.74174 0.99715 0.0
C761 C 0.52054 0.76382 1.02569 0.0
C762 C 0.49226 0.77081 0.05926 0.0
C763 C 0.42916 0.76718 0.07826 0.0
C764 C 0.39526 0.75467 0.06472 0.0
C765 C 0.45793 0.76022 0.04513 0.0
C766 C 0.3903 0.73619 1.01705 0.0
C767 C 0.41842 0.73013 0.98334 0.0
H768 H 0.68874 0.53494 0.11944 0.0
H769 H 0.76363 0.46987 0.04093 0.0
H770 H 0.78354 0.52071 0.98797 0.0
H771 H 0.78003 0.58493 0.96544 0.0
H772 H 0.70456 0.64785 0.04709 0.0
H773 H 0.68548 0.59699 0.09855 0.0
C774 C 0.7097 0.53176 0.09112 0.0
C775 C 0.72493 0.49859 0.08483 0.0
C776 C 0.72131 0.56105 0.06185 0.0
C777 C 0.7513 0.49499 0.04661 0.0
C778 C 0.76292 0.52419 1.01669 0.0
C779 C 0.75981 0.58743 0.99508 0.0
C780 C 0.74386 0.62023 1.00269 0.0
C781 C 0.74836 0.55756 1.02435 0.0
C782 C 0.71721 0.62297 0.04048 0.0
C783 C 0.70618 0.59385 0.06984 0.0
H784 H 0.61167 0.29083 0.04468 0.0
H785 H 0.60354 0.19539 0.13709 0.0
H786 H 0.54121 0.19107 0.11752 0.0
H787 H 0.48896 0.21438 0.07593 0.0
H788 H 0.49659 0.30624 0.97553 0.0
H789 H 0.55877 0.31262 0.99814 0.0
C790 C 0.59628 0.26889 0.05993 0.0
C791 C 0.61245 0.24329 0.09182 0.0
C792 C 0.56023 0.26616 0.04784 0.0
C793 C 0.59208 0.2151 0.11154 0.0
C794 C 0.55627 0.21275 0.10083 0.0
C795 C 0.50415 0.23547 0.05788 0.0
C796 C 0.48783 0.25951 1.02347 0.0
C797 C 0.54011 0.23809 0.06907 0.0
C798 C 0.50809 0.28744 1.00253 0.0
C799 C 0.54384 0.29092 1.015 0.0
H800 H 0.80532 0.59955 0.86306 0.0
H801 H 0.71147 0.62533 0.77609 0.0
H802 H 0.71479 0.57074 0.7267 0.0
H803 H 0.74618 0.51725 0.70398 0.0
H804 H 0.84116 0.49151 0.7881 0.0
H805 H 0.83524 0.54396 0.84343 0.0
C806 C 0.78557 0.59325 0.83328 0.0
C807 C 0.75809 0.61688 0.82341 0.0
C808 C 0.7878 0.5616 0.80463 0.0
C809 C 0.73254 0.60783 0.78524 0.0
C810 C 0.73458 0.57653 0.75662 0.0
C811 C 0.76551 0.52297 0.73466 0.0
C812 C 0.79427 0.50058 0.74149 0.0
C813 C 0.76229 0.55345 0.76551 0.0
C814 C 0.81867 0.50809 0.78213 0.0
C815 C 0.81547 0.5383 0.81343 0.0
H816 H 0.59506 0.28113 0.19811 0.0
H817 H 0.64173 0.20741 0.30671 0.0
H818 H 0.58345 0.18978 0.33822 0.0
H819 H 0.51856 0.19187 0.3295 0.0
H820 H 0.47302 0.26148 0.21398 0.0
H821 H 0.53123 0.28393 0.19033 0.0
C822 C 0.59262 0.26171 0.22948 0.0
C823 C 0.62288 0.24588 0.25033 0.0
C824 C 0.55899 0.25063 0.2457 0.0
C825 C 0.61896 0.22016 0.2901 0.0
C826 C 0.58558 0.20995 0.30796 0.0
C827 C 0.52151 0.21241 0.29991 0.0
C828 C 0.49154 0.22531 0.27391 0.0
C829 C 0.55531 0.22449 0.28533 0.0
C830 C 0.49568 0.25136 0.23475 0.0
C831 C 0.52896 0.26417 0.2212 0.0
H832 H 0.26619 0.53417 0.79687 0.0
H833 H 0.15461 0.52126 0.81643 0.0
H834 H 0.16143 0.4584 0.8314 0.0
H835 H 0.1989 0.40825 0.84545 0.0
H836 H 0.31083 0.41987 0.82923 0.0
H837 H 0.30411 0.48178 0.80656 0.0
C838 C 0.24341 0.51741 0.80361 0.0
C839 C 0.2099 0.53242 0.80558 0.0
C840 C 0.24759 0.48107 0.8132 0.0
C841 C 0.18065 0.51043 0.81502 0.0
C842 C 0.18454 0.47446 0.82357 0.0
C843 C 0.22195 0.42379 0.83566 0.0
C844 C 0.25544 0.40873 0.83895 0.0
C845 C 0.21788 0.45958 0.82354 0.0
C846 C 0.28476 0.43024 0.82734 0.0
C847 C 0.2809 0.4659 0.81437 0.0
H848 H 0.54806 0.76596 0.23143 0.0
H849 H 0.52295 0.85653 0.32516 0.0
H850 H 0.46035 0.84234 0.31635 0.0
H851 H 0.41275 0.80605 0.27774 0.0
H852 H 0.43751 0.71364 0.18781 0.0
H853 H 0.5002 0.72627 0.19985 0.0
C854 C 0.52878 0.78242 0.25004 0.0
C855 C 0.53994 0.81246 0.27844 0.0
C856 C 0.49287 0.77366 0.24566 0.0
C857 C 0.51488 0.83335 0.30307 0.0
C858 C 0.47915 0.82525 0.29798 0.0
C859 C 0.43191 0.78837 0.26152 0.0
C860 C 0.42052 0.75897 0.2319 0.0
C861 C 0.46783 0.79571 0.2689 0.0
C862 C 0.44559 0.73617 0.21135 0.0
C863 C 0.48144 0.74361 0.21776 0.0
H864 H 0.83063 1.00945 0.58235 0.0
H865 H 0.76358 0.05702 0.4653 0.0
H866 H 0.73818 0.9994 0.44283 0.0
H867 H 0.73902 0.93465 0.45054 0.0
H868 H 0.81086 0.88681 0.56062 0.0
H869 H 0.82989 0.94482 0.59232 0.0
C870 C 0.81004 1.00714 0.55259 0.0
C871 C 0.79884 0.03744 0.52576 0.0
C872 C 0.79646 0.97368 0.5385 0.0
C873 C 0.77258 0.03406 0.48656 0.0
C874 C 0.75808 1.0011 0.47366 0.0
C875 C 0.75819 0.93699 0.48237 0.0
C876 C 0.77327 0.90645 0.50358 0.0
C877 C 0.77029 0.97058 0.49859 0.0
C878 C 0.79874 0.90992 0.54388 0.0
C879 C 0.80979 0.94311 0.56179 0.0
H880 H 0.01479 0.26635 0.46741 0.0
H881 H 0.03583 0.1699 0.55058 0.0
H882 H 0.98181 0.17613 0.60148 0.0
H883 H 0.92591 0.20638 0.61625 0.0
H884 H 0.90681 0.30461 0.5366 0.0
H885 H 0.96226 0.30007 0.48969 0.0
C886 C 1.00786 0.24711 0.49753 0.0
C887 C 0.02926 0.21769 0.50527 0.0
C888 C 0.9767 0.25081 0.52635 0.0
C889 C 0.02003 0.19295 0.54435 0.0
C890 C 0.9889 0.19629 0.57293 0.0
C891 C 0.93399 0.22692 0.58885 0.0
C892 C 0.91201 0.25578 0.57978 0.0
C893 C 0.96656 0.22462 0.56321 0.0
C894 C 0.9231 0.28226 0.54454 0.0
C895 C 0.95489 0.27964 0.51766 0.0
H896 H 0.308 0.98295 0.53593 0.0
H897 H 0.19771 0.97964 0.57104 0.0
H898 H 0.19328 0.04198 0.54703 0.0
H899 H 0.2204 0.09674 0.51037 0.0
H900 H 0.3312 0.09832 0.47623 0.0
H901 H 0.33546 0.03764 0.5048 0.0
C902 C 0.28295 0.99585 0.53853 0.0
C903 C 0.25317 0.97641 0.55492 0.0
C904 C 0.28059 0.03153 0.52428 0.0
C905 C 0.22111 0.99388 0.55889 0.0
C906 C 0.21854 0.02952 0.54473 0.0
C907 C 0.24555 0.08395 0.50959 0.0
C908 C 0.27537 0.10253 0.49073 0.0
C909 C 0.24803 0.04855 0.52651 0.0
C910 C 0.30768 0.08517 0.49035 0.0
C911 C 0.31023 0.05022 0.50669 0.0
H912 H 0.10605 0.78503 0.54147 0.0
H913 H 0.10966 0.68056 0.60779 0.0
H914 H 0.04879 0.67017 0.58185 0.0
H915 H 0.99322 0.69313 0.5502 0.0
H916 H 0.99057 0.79553 0.47554 0.0
H917 H 0.05228 0.80482 0.49727 0.0
C918 C 0.09367 0.75994 0.55002 0.0
C919 C 0.11209 0.73425 0.57863 0.0
C920 C 0.05865 0.75403 0.53467 0.0
C921 C 0.09598 0.70126 0.58713 0.0
C922 C 0.06105 0.69529 0.57246 0.0
C923 C 1.00601 0.71717 0.53698 0.0
C924 C 0.98655 0.7437 0.51169 0.0
C925 C 0.04187 0.7219 0.5477 0.0
C926 C 1.00416 0.77492 0.49647 0.0
C927 C 0.03972 0.78016 0.50829 0.0
H928 H 0.23839 0.30854 0.10206 0.0
H929 H 0.30675 0.22977 0.04037 0.0
H930 H 0.31493 0.20586 0.12979 0.0
H931 H 0.3015 0.20646 0.22673 0.0
H932 H 0.22921 0.28261 0.28536 0.0
H933 H 0.22277 0.30742 0.1965 0.0
C934 C 0.25485 0.28592 0.10785 0.0
C935 C 0.27203 0.27123 0.0639 0.0
C936 C 0.2584 0.27147 0.1593 0.0
C937 C 0.29355 0.24212 0.07303 0.0
C938 C 0.29803 0.2282 0.12437 0.0
C939 C 0.28446 0.22856 0.21992 0.0
C940 C 0.26563 0.24249 0.26288 0.0
C941 C 0.28054 0.24259 0.16798 0.0
C942 C 0.24347 0.27094 0.25316 0.0
C943 C 0.24002 0.28537 0.20225 0.0
H944 H 0.26673 0.80633 1.01004 0.0
H945 H 0.26877 0.6931 1.02117 0.0
H946 H 0.24961 0.68829 0.92929 0.0
H947 H 0.23341 0.71559 0.84454 0.0
H948 H 0.23064 0.82859 0.832 0.0
H949 H 0.24857 0.83389 0.92516 0.0
C950 C 0.26268 0.78058 0.99274 0.0
C951 C 0.26928 0.7502 1.02345 0.0
C952 C 0.25157 0.77784 0.93912 0.0
C953 C 0.26397 0.71712 0.99935 0.0
C954 C 0.25303 0.71424 0.94639 0.0
C955 C 0.23676 0.74148 0.86193 0.0
C956 C 0.23066 0.77164 0.83066 0.0
C957 C 0.24701 0.74436 0.91571 0.0
C958 C 0.23489 0.80483 0.8547 0.0
C959 C 0.24528 0.80791 0.90814 0.0
H960 H 0.72242 0.8033 0.23315 0.0
H961 H 0.80139 0.7306 0.2829 0.0
H962 H 0.80479 0.70718 0.19342 0.0
H963 H 0.78503 0.70678 0.10009 0.0
H964 H 0.70766 0.78101 0.04869 0.0
H965 H 0.70305 0.80327 0.13899 0.0
C966 C 0.74023 0.78222 0.22442 0.0
C967 C 0.7621 0.76915 0.26502 0.0
C968 C 0.74211 0.76882 0.17217 0.0
C969 C 0.78502 0.74187 0.2526 0.0
C970 C 0.7867 0.72816 0.20126 0.0
C971 C 0.7676 0.72821 0.10838 0.0
C972 C 0.74727 0.74246 0.06698 0.0
C973 C 0.76554 0.74153 0.16052 0.0
C974 C 0.72383 0.76943 0.07934 0.0
C975 C 0.72122 0.78237 0.13116 0.0
H976 H 0.77828 0.2144 0.83256 0.0
H977 H 0.79578 0.32552 0.8159 0.0
H978 H 0.77588 0.33414 0.90779 0.0
H979 H 0.75313 0.30849 0.99364 0.0
H980 H 0.72094 0.19926 0.99356 0.0
H981 H 0.74609 0.19122 0.90729 0.0
C982 C 0.77684 0.24057 0.84783 0.0
C983 C 0.78819 0.26906 0.81678 0.0
C984 C 0.76292 0.24544 0.89842 0.0
C985 C 0.78703 0.30297 0.83878 0.0
C986 C 0.77561 0.30787 0.89132 0.0
C987 C 0.7515 0.28301 0.9746 0.0
C988 C 0.73719 0.25382 1.00245 0.0
C989 C 0.76337 0.27912 0.92173 0.0
C990 C 0.73389 0.22157 0.97559 0.0
C991 C 0.74782 0.217 0.92541 0.0
H992 H 0.74306 0.81435 0.60254 0.0
H993 H 0.78074 0.71752 0.53763 0.0
H994 H 0.78476 0.69235 0.62704 0.0
H995 H 0.7778 0.69803 0.72499 0.0
H996 H 0.74617 0.79744 0.78845 0.0
H997 H 0.73918 0.82106 0.69933 0.0
C998 C 0.75209 0.78769 0.60791 0.0
C999 C 0.76152 0.76789 0.56325 0.0
C1000 C 0.75516 0.77367 0.65961 0.0
C1001 C 0.77345 0.73348 0.57118 0.0
C1002 C 0.77571 0.71902 0.62242 0.0
C1003 C 0.76942 0.72485 0.71917 0.0
C1004 C 0.761 0.74539 0.76371 0.0
C1005 C 0.76676 0.73889 0.66714 0.0
C1006 C 0.75097 0.78036 0.75523 0.0
C1007 C 0.74748 0.79413 0.70404 0.0
H1008 H 0.81469 0.29203 0.4789 0.0
H1009 H 0.75167 0.20244 0.52566 0.0
H1010 H 0.72927 0.19656 0.43515 0.0
H1011 H 0.72628 0.21781 0.3428 0.0
H1012 H 0.78787 0.30839 0.2966 0.0
H1013 H 0.81086 0.3142 0.38703 0.0
C1014 C 0.79538 0.2719 0.46972 0.0
C1015 C 0.78444 0.24834 0.5096 0.0
C1016 C 0.78201 0.26911 0.41766 0.0
C1017 C 0.76063 0.22111 0.49603 0.0
C1018 C 0.74762 0.21778 0.44423 0.0
C1019 C 0.74481 0.23873 0.35264 0.0
C1020 C 0.75491 0.26305 0.31335 0.0
C1021 C 0.75799 0.24172 0.40476 0.0
C1022 C 0.77883 0.29011 0.32653 0.0
C1023 C 0.7923 0.29313 0.37814 0.0
H1024 H 0.29241 0.23931 0.76946 0.0
H1025 H 0.21783 0.32109 0.74145 0.0
H1026 H 0.21418 0.30489 0.64784 0.0
H1027 H 0.23228 0.26757 0.57304 0.0
H1028 H 0.30909 0.18758 0.60035 0.0
H1029 H 0.31261 0.20368 0.69394 0.0
C1030 C 0.27616 0.25426 0.74277 0.0
C1031 C 0.25597 0.28186 0.76301 0.0
C1032 C 0.27451 0.24505 0.68836 0.0
C1033 C 0.23376 0.29974 0.72754 0.0
C1034 C 0.23168 0.29052 0.67371 0.0
C1035 C 0.24971 0.25352 0.59929 0.0
C1036 C 0.27033 0.22624 0.57892 0.0
C1037 C 0.25187 0.26314 0.65353 0.0
C1038 C 0.29292 0.20871 0.61428 0.0
C1039 C 0.29493 0.21788 0.66812 0.0
H1040 H 0.24365 0.78912 0.31814 0.0
H1041 H 0.33246 0.72432 0.35442 0.0
H1042 H 0.31576 0.72212 0.44723 0.0
H1043 H 0.27646 0.73867 0.51901 0.0
H1044 H 0.18711 0.80244 0.48529 0.0
H1045 H 0.20406 0.80618 0.39196 0.0
C1046 C 0.25947 0.77473 0.34641 0.0
C1047 C 0.28924 0.75665 0.32857 0.0
C1048 C 0.24981 0.77372 0.40072 0.0
C1049 C 0.30929 0.73822 0.36627 0.0
C1050 C 0.2998 0.73698 0.41973 0.0
C1051 C 0.26035 0.75292 0.49137 0.0
C1052 C 0.23042 0.77013 0.50988 0.0
C1053 C 0.27008 0.75448 0.43746 0.0
C1054 C 0.21063 0.78949 0.47301 0.0
C1055 C 0.22016 0.79129 0.41921 0.0
loop_
_geom_bond_atom_site_label_1
_geom_bond_atom_site_label_2
_geom_bond_distance
_geom_bond_site_symmetry_2
_ccdc_geom_bond_type
C0 C2 1.422 . S
C0 C4 1.415 . S
C0 N6 1.369 . S
C1 C2 1.421 . S
C1 C3 1.417 . S
C1 C13 1.422 . S
C2 C0 1.422 . S
C2 C1 1.421 . S
C2 N12 1.359 . S
C3 C1 1.417 . S
C3 C5 1.329 . S
C3 H22 0.930 . S
C4 C0 1.415 . S
C4 C5 1.437 . S
C4 C8 1.413 . S
C5 C3 1.329 . S
C5 C4 1.437 . S
C5 H27 0.929 . S
N6 C0 1.369 . S
N6 C7 1.338 . S
N6 Gd11 2.622 . S
C7 N6 1.338 . S
C7 C9 1.378 . S
C7 H19 0.929 . S
C8 C4 1.413 . S
C8 C9 1.348 . S
C8 H24 0.931 . S
C9 C7 1.378 . S
C9 C8 1.348 . S
C9 H25 0.930 . S
Gd10 N30 2.622 . S
Gd10 N37 2.570 . S
Gd10 O44 2.353 . S
Gd10 O45 2.468 . S
Gd10 O46 2.427 . S
Gd10 O48 2.388 . S
Gd10 O49 2.386 . S
Gd10 O53 2.307 . S
Gd10 C63 2.805 . S
Gd11 N6 2.622 . S
Gd11 N12 2.570 . S
Gd11 O43 2.386 . S
Gd11 O47 2.307 . S
Gd11 O50 2.353 . S
Gd11 O51 2.468 . S
Gd11 O52 2.427 . S
Gd11 O54 2.388 . S
Gd11 C75 2.805 . S
N12 C2 1.359 . S
N12 Gd11 2.570 . S
N12 C14 1.343 . S
C13 C1 1.422 . S
C13 C15 1.321 . S
C13 H21 0.931 . S
C14 N12 1.343 . S
C14 C15 1.390 . S
C14 H16 0.931 . S
C15 C13 1.321 . S
C15 C14 1.390 . S
C15 H17 0.930 . S
H16 C14 0.931 . S
H17 C15 0.930 . S
H18 C41 0.931 . S
H19 C7 0.929 . S
H20 C42 0.930 . S
H21 C13 0.931 . S
H22 C3 0.930 . S
H23 C32 0.929 . S
H24 C8 0.931 . S
H25 C9 0.930 . S
H26 C64 0.930 . S
H27 C5 0.929 . S
H28 C33 0.931 . S
H29 C34 0.930 . S
N30 Gd10 2.622 . S
N30 C31 1.369 . S
N30 C32 1.338 . S
C31 N30 1.369 . S
C31 C35 1.415 . S
C31 C38 1.422 . S
C32 H23 0.929 . S
C32 N30 1.338 . S
C32 C34 1.378 . S
C33 H28 0.931 . S
C33 C34 1.348 . S
C33 C35 1.413 . S
C34 H29 0.930 . S
C34 C32 1.378 . S
C34 C33 1.348 . S
C35 C31 1.415 . S
C35 C33 1.413 . S
C35 C65 1.437 . S
H36 C65 0.929 . S
N37 Gd10 2.570 . S
N37 C38 1.359 . S
N37 C41 1.343 . S
C38 C31 1.422 . S
C38 N37 1.359 . S
C38 C40 1.421 . S
C39 C40 1.422 . S
C39 C42 1.321 . S
C39 H66 0.931 . S
C40 C38 1.421 . S
C40 C39 1.422 . S
C40 C64 1.417 . S
C41 H18 0.931 . S
C41 N37 1.343 . S
C41 C42 1.390 . S
C42 H20 0.930 . S
C42 C39 1.321 . S
C42 C41 1.390 . S
O43 Gd11 2.386 . S
O43 C55 1.265 . S
O44 Gd10 2.353 . S
O44 C55 1.242 . S
O45 Gd10 2.468 . S
O45 C63 1.263 . S
O46 Gd10 2.427 . S
O46 C63 1.252 . S
O47 Gd11 2.307 . S
O47 C56 1.261 . S
O48 Gd10 2.388 . S
O48 C56 1.252 . S
O49 Gd10 2.386 . S
O49 C67 1.265 . S
O50 Gd11 2.353 . S
O50 C67 1.242 . S
O51 Gd11 2.468 . S
O51 C75 1.263 . S
O52 Gd11 2.427 . S
O52 C75 1.252 . S
O53 Gd10 2.307 . S
O53 C68 1.261 . S
O54 Gd11 2.388 . S
O54 C68 1.252 . S
C55 O43 1.265 . S
C55 O44 1.242 . S
C56 O47 1.261 . S
C56 O48 1.252 . S
C57 C60 1.394 . S
C57 C62 1.370 . S
C57 C63 1.500 . S
C58 C61 1.383 . S
C58 C62 1.395 . S
C59 C60 1.396 . S
C59 C61 1.365 . S
C59 H76 0.929 . S
C60 C57 1.394 . S
C60 C59 1.396 . S
C60 H77 0.930 . S
C61 C58 1.383 . S
C61 C59 1.365 . S
C61 H78 0.931 . S
C62 C57 1.370 . S
C62 C58 1.395 . S
C62 H79 0.930 . S
C63 Gd10 2.805 . S
C63 O45 1.263 . S
C63 O46 1.252 . S
C63 C57 1.500 . S
C64 H26 0.930 . S
C64 C40 1.417 . S
C64 C65 1.329 . S
C65 C35 1.437 . S
C65 H36 0.929 . S
C65 C64 1.329 . S
H66 C39 0.931 . S
C67 O49 1.265 . S
C67 O50 1.242 . S
C68 O53 1.261 . S
C68 O54 1.252 . S
C69 C72 1.394 . S
C69 C74 1.370 . S
C69 C75 1.500 . S
C70 C73 1.383 . S
C70 C74 1.395 . S
C71 C72 1.396 . S
C71 C73 1.365 . S
C71 H80 0.929 . S
C72 C69 1.394 . S
C72 C71 1.396 . S
C72 H81 0.930 . S
C73 C70 1.383 . S
C73 C71 1.365 . S
C73 H82 0.931 . S
C74 C69 1.370 . S
C74 C70 1.395 . S
C74 H83 0.930 . S
C75 Gd11 2.805 . S
C75 O51 1.263 . S
C75 O52 1.252 . S
C75 C69 1.500 . S
H76 C59 0.929 . S
H77 C60 0.930 . S
H78 C61 0.931 . S
H79 C62 0.930 . S
H80 C71 0.929 . S
H81 C72 0.930 . S
H82 C73 0.931 . S
H83 C74 0.930 . S
C84 C86 1.422 . S
C84 C88 1.415 . S
C84 N90 1.369 . S
C85 C86 1.421 . S
C85 C87 1.417 . S
C85 C97 1.422 . S
C86 C84 1.422 . S
C86 C85 1.421 . S
C86 N96 1.359 . S
C87 C85 1.417 . S
C87 C89 1.329 . S
C87 H106 0.930 . S
C88 C84 1.415 . S
C88 C89 1.437 . S
C88 C92 1.413 . S
C89 C87 1.329 . S
C89 C88 1.437 . S
C89 H111 0.929 . S
N90 C84 1.369 . S
N90 C91 1.338 . S
N90 Gd95 2.622 . S
C91 N90 1.338 . S
C91 C93 1.378 . S
C91 H103 0.929 . S
C92 C88 1.413 . S
C92 C93 1.348 . S
C92 H108 0.931 . S
C93 C91 1.378 . S
C93 C92 1.348 . S
C93 H109 0.930 . S
Gd94 N114 2.622 . S
Gd94 N121 2.570 . S
Gd94 O128 2.353 . S
Gd94 O129 2.468 . S
Gd94 O130 2.427 . S
Gd94 O132 2.388 . S
Gd94 O133 2.386 . S
Gd94 O137 2.307 . S
Gd94 C147 2.805 . S
Gd95 N90 2.622 . S
Gd95 N96 2.570 . S
Gd95 O127 2.386 . S
Gd95 O131 2.307 . S
Gd95 O134 2.353 . S
Gd95 O135 2.468 . S
Gd95 O136 2.427 . S
Gd95 O138 2.388 . S
Gd95 C159 2.805 . S
N96 C86 1.359 . S
N96 Gd95 2.570 . S
N96 C98 1.343 . S
C97 C85 1.422 . S
C97 C99 1.321 . S
C97 H105 0.931 . S
C98 N96 1.343 . S
C98 C99 1.390 . S
C98 H100 0.931 . S
C99 C97 1.321 . S
C99 C98 1.390 . S
C99 H101 0.930 . S
H100 C98 0.931 . S
H101 C99 0.930 . S
H102 C125 0.931 . S
H103 C91 0.929 . S
H104 C126 0.930 . S
H105 C97 0.931 . S
H106 C87 0.930 . S
H107 C116 0.929 . S
H108 C92 0.931 . S
H109 C93 0.930 . S
H110 C148 0.930 . S
H111 C89 0.929 . S
H112 C117 0.931 . S
H113 C118 0.930 . S
N114 Gd94 2.622 . S
N114 C115 1.369 . S
N114 C116 1.338 . S
C115 N114 1.369 . S
C115 C119 1.415 . S
C115 C122 1.422 . S
C116 H107 0.929 . S
C116 N114 1.338 . S
C116 C118 1.378 . S
C117 H112 0.931 . S
C117 C118 1.348 . S
C117 C119 1.413 . S
C118 H113 0.930 . S
C118 C116 1.378 . S
C118 C117 1.348 . S
C119 C115 1.415 . S
C119 C117 1.413 . S
C119 C149 1.437 . S
H120 C149 0.929 . S
N121 Gd94 2.570 . S
N121 C122 1.359 . S
N121 C125 1.343 . S
C122 C115 1.422 . S
C122 N121 1.359 . S
C122 C124 1.421 . S
C123 C124 1.422 . S
C123 C126 1.321 . S
C123 H150 0.931 . S
C124 C122 1.421 . S
C124 C123 1.422 . S
C124 C148 1.417 . S
C125 H102 0.931 . S
C125 N121 1.343 . S
C125 C126 1.390 . S
C126 H104 0.930 . S
C126 C123 1.321 . S
C126 C125 1.390 . S
O127 Gd95 2.386 . S
O127 C139 1.265 . S
O128 Gd94 2.353 . S
O128 C139 1.242 . S
O129 Gd94 2.468 . S
O129 C147 1.263 . S
O130 Gd94 2.427 . S
O130 C147 1.252 . S
O131 Gd95 2.307 . S
O131 C140 1.261 . S
O132 Gd94 2.388 . S
O132 C140 1.252 . S
O133 Gd94 2.386 . S
O133 C151 1.265 . S
O134 Gd95 2.353 . S
O134 C151 1.242 . S
O135 Gd95 2.468 . S
O135 C159 1.263 . S
O136 Gd95 2.427 . S
O136 C159 1.252 . S
O137 Gd94 2.307 . S
O137 C152 1.261 . S
O138 Gd95 2.388 . S
O138 C152 1.252 . S
C139 O127 1.265 . S
C139 O128 1.242 . S
C140 O131 1.261 . S
C140 O132 1.252 . S
C141 C144 1.394 . S
C141 C146 1.370 . S
C141 C147 1.500 . S
C142 C145 1.383 . S
C142 C146 1.395 . S
C143 C144 1.396 . S
C143 C145 1.365 . S
C143 H160 0.929 . S
C144 C141 1.394 . S
C144 C143 1.396 . S
C144 H161 0.930 . S
C145 C142 1.383 . S
C145 C143 1.365 . S
C145 H162 0.931 . S
C146 C141 1.370 . S
C146 C142 1.395 . S
C146 H163 0.930 . S
C147 Gd94 2.805 . S
C147 O129 1.263 . S
C147 O130 1.252 . S
C147 C141 1.500 . S
C148 H110 0.930 . S
C148 C124 1.417 . S
C148 C149 1.329 . S
C149 C119 1.437 . S
C149 H120 0.929 . S
C149 C148 1.329 . S
H150 C123 0.931 . S
C151 O133 1.265 . S
C151 O134 1.242 . S
C152 O137 1.261 . S
C152 O138 1.252 . S
C153 C156 1.394 . S
C153 C158 1.370 . S
C153 C159 1.500 . S
C154 C157 1.383 . S
C154 C158 1.395 . S
C155 C156 1.396 . S
C155 C157 1.365 . S
C155 H164 0.929 . S
C156 C153 1.394 . S
C156 C155 1.396 . S
C156 H165 0.930 . S
C157 C154 1.383 . S
C157 C155 1.365 . S
C157 H166 0.931 . S
C158 C153 1.370 . S
C158 C154 1.395 . S
C158 H167 0.930 . S
C159 Gd95 2.805 . S
C159 O135 1.263 . S
C159 O136 1.252 . S
C159 C153 1.500 . S
H160 C143 0.929 . S
H161 C144 0.930 . S
H162 C145 0.931 . S
H163 C146 0.930 . S
H164 C155 0.929 . S
H165 C156 0.930 . S
H166 C157 0.931 . S
H167 C158 0.930 . S
C168 C170 1.422 . S
C168 C172 1.415 . S
C168 N174 1.369 . S
C169 C170 1.421 . S
C169 C171 1.417 . S
C169 C181 1.422 . S
C170 C168 1.422 . S
C170 C169 1.421 . S
C170 N180 1.359 . S
C171 C169 1.417 . S
C171 C173 1.329 . S
C171 H190 0.930 . S
C172 C168 1.415 . S
C172 C173 1.437 . S
C172 C176 1.413 . S
C173 C171 1.329 . S
C173 C172 1.437 . S
C173 H195 0.929 . S
N174 C168 1.369 . S
N174 C175 1.338 . S
N174 Gd179 2.622 . S
C175 N174 1.338 . S
C175 C177 1.378 . S
C175 H187 0.929 . S
C176 C172 1.413 . S
C176 C177 1.348 . S
C176 H192 0.931 . S
C177 C175 1.378 . S
C177 C176 1.348 . S
C177 H193 0.930 . S
Gd178 N198 2.622 . S
Gd178 N205 2.570 . S
Gd178 O212 2.353 . S
Gd178 O213 2.468 . S
Gd178 O214 2.427 . S
Gd178 O216 2.388 . S
Gd178 O217 2.386 . S
Gd178 O221 2.307 . S
Gd178 C231 2.805 . S
Gd179 N174 2.622 . S
Gd179 N180 2.570 . S
Gd179 O211 2.386 . S
Gd179 O215 2.307 . S
Gd179 O218 2.353 . S
Gd179 O219 2.468 . S
Gd179 O220 2.427 . S
Gd179 O222 2.388 . S
Gd179 C243 2.805 . S
N180 C170 1.359 . S
N180 Gd179 2.570 . S
N180 C182 1.343 . S
C181 C169 1.422 . S
C181 C183 1.321 . S
C181 H189 0.931 . S
C182 N180 1.343 . S
C182 C183 1.390 . S
C182 H184 0.931 . S
C183 C181 1.321 . S
C183 C182 1.390 . S
C183 H185 0.930 . S
H184 C182 0.931 . S
H185 C183 0.930 . S
H186 C209 0.931 . S
H187 C175 0.929 . S
H188 C210 0.930 . S
H189 C181 0.931 . S
H190 C171 0.930 . S
H191 C200 0.929 . S
H192 C176 0.931 . S
H193 C177 0.930 . S
H194 C232 0.930 . S
H195 C173 0.929 . S
H196 C201 0.931 . S
H197 C202 0.930 . S
N198 Gd178 2.622 . S
N198 C199 1.369 . S
N198 C200 1.338 . S
C199 N198 1.369 . S
C199 C203 1.415 . S
C199 C206 1.422 . S
C200 H191 0.929 . S
C200 N198 1.338 . S
C200 C202 1.378 . S
C201 H196 0.931 . S
C201 C202 1.348 . S
C201 C203 1.413 . S
C202 H197 0.930 . S
C202 C200 1.378 . S
C202 C201 1.348 . S
C203 C199 1.415 . S
C203 C201 1.413 . S
C203 C233 1.437 . S
H204 C233 0.929 . S
N205 Gd178 2.570 . S
N205 C206 1.359 . S
N205 C209 1.343 . S
C206 C199 1.422 . S
C206 N205 1.359 . S
C206 C208 1.421 . S
C207 C208 1.422 . S
C207 C210 1.321 . S
C207 H234 0.931 . S
C208 C206 1.421 . S
C208 C207 1.422 . S
C208 C232 1.417 . S
C209 H186 0.931 . S
C209 N205 1.343 . S
C209 C210 1.390 . S
C210 H188 0.930 . S
C210 C207 1.321 . S
C210 C209 1.390 . S
O211 Gd179 2.386 . S
O211 C223 1.265 . S
O212 Gd178 2.353 . S
O212 C223 1.242 . S
O213 Gd178 2.468 . S
O213 C231 1.263 . S
O214 Gd178 2.427 . S
O214 C231 1.252 . S
O215 Gd179 2.307 . S
O215 C224 1.261 . S
O216 Gd178 2.388 . S
O216 C224 1.252 . S
O217 Gd178 2.386 . S
O217 C235 1.265 . S
O218 Gd179 2.353 . S
O218 C235 1.242 . S
O219 Gd179 2.468 . S
O219 C243 1.263 . S
O220 Gd179 2.427 . S
O220 C243 1.252 . S
O221 Gd178 2.307 . S
O221 C236 1.261 . S
O222 Gd179 2.388 . S
O222 C236 1.252 . S
C223 O211 1.265 . S
C223 O212 1.242 . S
C224 O215 1.261 . S
C224 O216 1.252 . S
C225 C228 1.394 . S
C225 C230 1.370 . S
C225 C231 1.500 . S
C226 C229 1.383 . S
C226 C230 1.395 . S
C227 C228 1.396 . S
C227 C229 1.365 . S
C227 H244 0.929 . S
C228 C225 1.394 . S
C228 C227 1.396 . S
C228 H245 0.930 . S
C229 C226 1.383 . S
C229 C227 1.365 . S
C229 H246 0.931 . S
C230 C225 1.370 . S
C230 C226 1.395 . S
C230 H247 0.930 . S
C231 Gd178 2.805 . S
C231 O213 1.263 . S
C231 O214 1.252 . S
C231 C225 1.500 . S
C232 H194 0.930 . S
C232 C208 1.417 . S
C232 C233 1.329 . S
C233 C203 1.437 . S
C233 H204 0.929 . S
C233 C232 1.329 . S
H234 C207 0.931 . S
C235 O217 1.265 . S
C235 O218 1.242 . S
C236 O221 1.261 . S
C236 O222 1.252 . S
C237 C240 1.394 . S
C237 C242 1.370 . S
C237 C243 1.500 . S
C238 C241 1.383 . S
C238 C242 1.395 . S
C239 C240 1.396 . S
C239 C241 1.365 . S
C239 H248 0.929 . S
C240 C237 1.394 . S
C240 C239 1.396 . S
C240 H249 0.930 . S
C241 C238 1.383 . S
C241 C239 1.365 . S
C241 H250 0.931 . S
C242 C237 1.370 . S
C242 C238 1.395 . S
C242 H251 0.930 . S
C243 Gd179 2.805 . S
C243 O219 1.263 . S
C243 O220 1.252 . S
C243 C237 1.500 . S
H244 C227 0.929 . S
H245 C228 0.930 . S
H246 C229 0.931 . S
H247 C230 0.930 . S
H248 C239 0.929 . S
H249 C240 0.930 . S
H250 C241 0.931 . S
H251 C242 0.930 . S
C252 C254 1.422 . S
C252 C256 1.415 . S
C252 N258 1.369 . S
C253 C254 1.421 . S
C253 C255 1.417 . S
C253 C265 1.422 . S
C254 C252 1.422 . S
C254 C253 1.421 . S
C254 N264 1.359 . S
C255 C253 1.417 . S
C255 C257 1.329 . S
C255 H274 0.930 . S
C256 C252 1.415 . S
C256 C257 1.437 . S
C256 C260 1.413 . S
C257 C255 1.329 . S
C257 C256 1.437 . S
C257 H279 0.929 . S
N258 C252 1.369 . S
N258 C259 1.338 . S
N258 Gd263 2.622 . S
C259 N258 1.338 . S
C259 C261 1.378 . S
C259 H271 0.929 . S
C260 C256 1.413 . S
C260 C261 1.348 . S
C260 H276 0.931 . S
C261 C259 1.378 . S
C261 C260 1.348 . S
C261 H277 0.930 . S
Gd262 N282 2.622 . S
Gd262 N289 2.570 . S
Gd262 O296 2.353 . S
Gd262 O297 2.468 . S
Gd262 O298 2.427 . S
Gd262 O300 2.388 . S
Gd262 O301 2.386 . S
Gd262 O305 2.307 . S
Gd262 C315 2.805 . S
Gd263 N258 2.622 . S
Gd263 N264 2.570 . S
Gd263 O295 2.386 . S
Gd263 O299 2.307 . S
Gd263 O302 2.353 . S
Gd263 O303 2.468 . S
Gd263 O304 2.427 . S
Gd263 O306 2.388 . S
Gd263 C327 2.805 . S
N264 C254 1.359 . S
N264 Gd263 2.570 . S
N264 C266 1.343 . S
C265 C253 1.422 . S
C265 C267 1.321 . S
C265 H273 0.931 . S
C266 N264 1.343 . S
C266 C267 1.390 . S
C266 H268 0.931 . S
C267 C265 1.321 . S
C267 C266 1.390 . S
C267 H269 0.930 . S
H268 C266 0.931 . S
H269 C267 0.930 . S
H270 C293 0.931 . S
H271 C259 0.929 . S
H272 C294 0.930 . S
H273 C265 0.931 . S
H274 C255 0.930 . S
H275 C284 0.929 . S
H276 C260 0.931 . S
H277 C261 0.930 . S
H278 C316 0.930 . S
H279 C257 0.929 . S
H280 C285 0.931 . S
H281 C286 0.930 . S
N282 Gd262 2.622 . S
N282 C283 1.369 . S
N282 C284 1.338 . S
C283 N282 1.369 . S
C283 C287 1.415 . S
C283 C290 1.422 . S
C284 H275 0.929 . S
C284 N282 1.338 . S
C284 C286 1.378 . S
C285 H280 0.931 . S
C285 C286 1.348 . S
C285 C287 1.413 . S
C286 H281 0.930 . S
C286 C284 1.378 . S
C286 C285 1.348 . S
C287 C283 1.415 . S
C287 C285 1.413 . S
C287 C317 1.437 . S
H288 C317 0.929 . S
N289 Gd262 2.570 . S
N289 C290 1.359 . S
N289 C293 1.343 . S
C290 C283 1.422 . S
C290 N289 1.359 . S
C290 C292 1.421 . S
C291 C292 1.422 . S
C291 C294 1.321 . S
C291 H318 0.931 . S
C292 C290 1.421 . S
C292 C291 1.422 . S
C292 C316 1.417 . S
C293 H270 0.931 . S
C293 N289 1.343 . S
C293 C294 1.390 . S
C294 H272 0.930 . S
C294 C291 1.321 . S
C294 C293 1.390 . S
O295 Gd263 2.386 . S
O295 C307 1.265 . S
O296 Gd262 2.353 . S
O296 C307 1.242 . S
O297 Gd262 2.468 . S
O297 C315 1.263 . S
O298 Gd262 2.427 . S
O298 C315 1.252 . S
O299 Gd263 2.307 . S
O299 C308 1.261 . S
O300 Gd262 2.388 . S
O300 C308 1.252 . S
O301 Gd262 2.386 . S
O301 C319 1.265 . S
O302 Gd263 2.353 . S
O302 C319 1.242 . S
O303 Gd263 2.468 . S
O303 C327 1.263 . S
O304 Gd263 2.427 . S
O304 C327 1.252 . S
O305 Gd262 2.307 . S
O305 C320 1.261 . S
O306 Gd263 2.388 . S
O306 C320 1.252 . S
C307 O295 1.265 . S
C307 O296 1.242 . S
C308 O299 1.261 . S
C308 O300 1.252 . S
C309 C312 1.394 . S
C309 C314 1.370 . S
C309 C315 1.500 . S
C310 C313 1.383 . S
C310 C314 1.395 . S
C311 C312 1.396 . S
C311 C313 1.365 . S
C311 H328 0.929 . S
C312 C309 1.394 . S
C312 C311 1.396 . S
C312 H329 0.930 . S
C313 C310 1.383 . S
C313 C311 1.365 . S
C313 H330 0.931 . S
C314 C309 1.370 . S
C314 C310 1.395 . S
C314 H331 0.930 . S
C315 Gd262 2.805 . S
C315 O297 1.263 . S
C315 O298 1.252 . S
C315 C309 1.500 . S
C316 H278 0.930 . S
C316 C292 1.417 . S
C316 C317 1.329 . S
C317 C287 1.437 . S
C317 H288 0.929 . S
C317 C316 1.329 . S
H318 C291 0.931 . S
C319 O301 1.265 . S
C319 O302 1.242 . S
C320 O305 1.261 . S
C320 O306 1.252 . S
C321 C324 1.394 . S
C321 C326 1.370 . S
C321 C327 1.500 . S
C322 C325 1.383 . S
C322 C326 1.395 . S
C323 C324 1.396 . S
C323 C325 1.365 . S
C323 H332 0.929 . S
C324 C321 1.394 . S
C324 C323 1.396 . S
C324 H333 0.930 . S
C325 C322 1.383 . S
C325 C323 1.365 . S
C325 H334 0.931 . S
C326 C321 1.370 . S
C326 C322 1.395 . S
C326 H335 0.930 . S
C327 Gd263 2.805 . S
C327 O303 1.263 . S
C327 O304 1.252 . S
C327 C321 1.500 . S
H328 C311 0.929 . S
H329 C312 0.930 . S
H330 C313 0.931 . S
H331 C314 0.930 . S
H332 C323 0.929 . S
H333 C324 0.930 . S
H334 C325 0.931 . S
H335 C326 0.930 . S
C336 C338 1.422 . S
C336 C340 1.415 . S
C336 N342 1.369 . S
C337 C338 1.421 . S
C337 C339 1.417 . S
C337 C349 1.422 . S
C338 C336 1.422 . S
C338 C337 1.421 . S
C338 N348 1.359 . S
C339 C337 1.417 . S
C339 C341 1.329 . S
C339 H358 0.930 . S
C340 C336 1.415 . S
C340 C341 1.437 . S
C340 C344 1.413 . S
C341 C339 1.329 . S
C341 C340 1.437 . S
C341 H363 0.929 . S
N342 C336 1.369 . S
N342 C343 1.338 . S
N342 Gd347 2.622 . S
C343 N342 1.338 . S
C343 C345 1.378 . S
C343 H355 0.929 . S
C344 C340 1.413 . S
C344 C345 1.348 . S
C344 H360 0.931 . S
C345 C343 1.378 . S
C345 C344 1.348 . S
C345 H361 0.930 . S
Gd346 N366 2.622 . S
Gd346 N373 2.570 . S
Gd346 O380 2.353 . S
Gd346 O381 2.468 . S
Gd346 O382 2.427 . S
Gd346 O384 2.388 . S
Gd346 O385 2.386 . S
Gd346 O389 2.307 . S
Gd346 C399 2.805 . S
Gd347 N342 2.622 . S
Gd347 N348 2.570 . S
Gd347 O379 2.386 . S
Gd347 O383 2.307 . S
Gd347 O386 2.353 . S
Gd347 O387 2.468 . S
Gd347 O388 2.427 . S
Gd347 O390 2.388 . S
Gd347 C411 2.805 . S
N348 C338 1.359 . S
N348 Gd347 2.570 . S
N348 C350 1.343 . S
C349 C337 1.422 . S
C349 C351 1.321 . S
C349 H357 0.931 . S
C350 N348 1.343 . S
C350 C351 1.390 . S
C350 H352 0.931 . S
C351 C349 1.321 . S
C351 C350 1.390 . S
C351 H353 0.930 . S
H352 C350 0.931 . S
H353 C351 0.930 . S
H354 C377 0.931 . S
H355 C343 0.929 . S
H356 C378 0.930 . S
H357 C349 0.931 . S
H358 C339 0.930 . S
H359 C368 0.929 1_556 S
H360 C344 0.931 . S
H361 C345 0.930 . S
H362 C400 0.930 . S
H363 C341 0.929 . S
H364 C369 0.931 . S
H365 C370 0.930 . S
N366 Gd346 2.622 . S
N366 C367 1.369 1_556 S
N366 C368 1.338 1_556 S
C367 N366 1.369 1_554 S
C367 C371 1.414 . S
C367 C374 1.423 1_554 S
C368 H359 0.929 1_554 S
C368 N366 1.338 1_554 S
C368 C370 1.378 . S
C369 H364 0.931 . S
C369 C370 1.348 . S
C369 C371 1.413 . S
C370 H365 0.930 . S
C370 C368 1.378 . S
C370 C369 1.348 . S
C371 C367 1.414 . S
C371 C369 1.413 . S
C371 C401 1.437 . S
H372 C401 0.929 . S
N373 Gd346 2.570 . S
N373 C374 1.359 . S
N373 C377 1.343 . S
C374 C367 1.423 1_556 S
C374 N373 1.359 . S
C374 C376 1.421 . S
C375 C376 1.422 . S
C375 C378 1.321 . S
C375 H402 0.931 . S
C376 C374 1.421 . S
C376 C375 1.422 . S
C376 C400 1.417 1_556 S
C377 H354 0.931 . S
C377 N373 1.343 . S
C377 C378 1.390 . S
C378 H356 0.930 . S
C378 C375 1.321 . S
C378 C377 1.390 . S
O379 Gd347 2.386 . S
O379 C391 1.265 . S
O380 Gd346 2.353 . S
O380 C391 1.242 . S
O381 Gd346 2.468 . S
O381 C399 1.263 . S
O382 Gd346 2.427 . S
O382 C399 1.252 . S
O383 Gd347 2.307 . S
O383 C392 1.261 . S
O384 Gd346 2.388 . S
O384 C392 1.252 . S
O385 Gd346 2.386 . S
O385 C403 1.265 . S
O386 Gd347 2.353 . S
O386 C403 1.242 . S
O387 Gd347 2.468 . S
O387 C411 1.263 . S
O388 Gd347 2.427 . S
O388 C411 1.252 . S
O389 Gd346 2.307 . S
O389 C404 1.261 . S
O390 Gd347 2.388 . S
O390 C404 1.252 . S
C391 O379 1.265 . S
C391 O380 1.242 . S
C392 O383 1.261 . S
C392 O384 1.252 . S
C393 C396 1.394 . S
C393 C398 1.370 . S
C393 C399 1.500 . S
C394 C397 1.383 . S
C394 C398 1.395 . S
C395 C396 1.396 . S
C395 C397 1.365 . S
C395 H412 0.929 . S
C396 C393 1.394 . S
C396 C395 1.396 . S
C396 H413 0.930 . S
C397 C394 1.383 . S
C397 C395 1.365 . S
C397 H414 0.931 . S
C398 C393 1.370 . S
C398 C394 1.395 . S
C398 H415 0.930 . S
C399 Gd346 2.805 . S
C399 O381 1.263 . S
C399 O382 1.252 . S
C399 C393 1.500 . S
C400 H362 0.930 . S
C400 C376 1.417 1_554 S
C400 C401 1.329 . S
C401 C371 1.437 . S
C401 H372 0.929 . S
C401 C400 1.329 . S
H402 C375 0.931 . S
C403 O385 1.265 . S
C403 O386 1.242 . S
C404 O389 1.261 . S
C404 O390 1.252 . S
C405 C408 1.394 . S
C405 C410 1.370 . S
C405 C411 1.500 . S
C406 C409 1.383 . S
C406 C410 1.395 . S
C407 C408 1.396 . S
C407 C409 1.365 . S
C407 H416 0.929 . S
C408 C405 1.394 . S
C408 C407 1.396 . S
C408 H417 0.930 . S
C409 C406 1.383 . S
C409 C407 1.365 . S
C409 H418 0.931 . S
C410 C405 1.370 . S
C410 C406 1.395 . S
C410 H419 0.930 . S
C411 Gd347 2.805 . S
C411 O387 1.263 . S
C411 O388 1.252 . S
C411 C405 1.500 . S
H412 C395 0.929 . S
H413 C396 0.930 . S
H414 C397 0.931 . S
H415 C398 0.930 . S
H416 C407 0.929 . S
H417 C408 0.930 . S
H418 C409 0.931 . S
H419 C410 0.930 . S
C420 C422 1.422 . S
C420 C424 1.415 . S
C420 N426 1.369 . S
C421 C422 1.421 . S
C421 C423 1.417 . S
C421 C433 1.422 . S
C422 C420 1.422 . S
C422 C421 1.421 . S
C422 N432 1.359 . S
C423 C421 1.417 . S
C423 C425 1.329 . S
C423 H442 0.930 . S
C424 C420 1.415 . S
C424 C425 1.437 . S
C424 C428 1.413 . S
C425 C423 1.329 . S
C425 C424 1.437 . S
C425 H447 0.929 . S
N426 C420 1.369 . S
N426 C427 1.338 . S
N426 Gd431 2.622 . S
C427 N426 1.338 . S
C427 C429 1.378 . S
C427 H439 0.929 . S
C428 C424 1.413 . S
C428 C429 1.348 . S
C428 H444 0.931 . S
C429 C427 1.378 . S
C429 C428 1.348 . S
C429 H445 0.930 . S
Gd430 N450 2.622 . S
Gd430 N457 2.570 . S
Gd430 O464 2.353 . S
Gd430 O465 2.468 . S
Gd430 O466 2.427 . S
Gd430 O468 2.388 . S
Gd430 O469 2.386 . S
Gd430 O473 2.307 . S
Gd430 C483 2.805 . S
Gd431 N426 2.622 . S
Gd431 N432 2.570 . S
Gd431 O463 2.386 . S
Gd431 O467 2.307 . S
Gd431 O470 2.353 . S
Gd431 O471 2.468 . S
Gd431 O472 2.427 . S
Gd431 O474 2.388 . S
Gd431 C495 2.805 . S
N432 C422 1.359 . S
N432 Gd431 2.570 . S
N432 C434 1.343 . S
C433 C421 1.422 . S
C433 C435 1.321 . S
C433 H441 0.931 . S
C434 N432 1.343 . S
C434 C435 1.390 . S
C434 H436 0.931 . S
C435 C433 1.321 . S
C435 C434 1.390 . S
C435 H437 0.930 . S
H436 C434 0.931 . S
H437 C435 0.930 . S
H438 C461 0.931 . S
H439 C427 0.929 . S
H440 C462 0.930 . S
H441 C433 0.931 . S
H442 C423 0.930 . S
H443 C452 0.927 1_554 S
H444 C428 0.931 . S
H445 C429 0.930 . S
H446 C484 0.930 . S
H447 C425 0.929 . S
H448 C453 0.931 . S
H449 C454 0.930 . S
N450 Gd430 2.622 . S
N450 C451 1.369 1_554 S
N450 C452 1.338 1_554 S
C451 N450 1.369 1_556 S
C451 C455 1.415 . S
C451 C458 1.422 1_556 S
C452 H443 0.927 1_556 S
C452 N450 1.338 1_556 S
C452 C454 1.378 . S
C453 H448 0.931 . S
C453 C454 1.348 . S
C453 C455 1.413 . S
C454 H449 0.930 . S
C454 C452 1.378 . S
C454 C453 1.348 . S
C455 C451 1.415 . S
C455 C453 1.413 . S
C455 C485 1.437 . S
H456 C485 0.929 . S
N457 Gd430 2.570 . S
N457 C458 1.359 . S
N457 C461 1.343 . S
C458 C451 1.422 1_554 S
C458 N457 1.359 . S
C458 C460 1.421 . S
C459 C460 1.422 . S
C459 C462 1.321 . S
C459 H486 0.931 . S
C460 C458 1.421 . S
C460 C459 1.422 . S
C460 C484 1.417 1_554 S
C461 H438 0.931 . S
C461 N457 1.343 . S
C461 C462 1.390 . S
C462 H440 0.930 . S
C462 C459 1.321 . S
C462 C461 1.390 . S
O463 Gd431 2.386 . S
O463 C475 1.265 . S
O464 Gd430 2.353 . S
O464 C475 1.242 . S
O465 Gd430 2.468 . S
O465 C483 1.263 . S
O466 Gd430 2.427 . S
O466 C483 1.252 . S
O467 Gd431 2.307 . S
O467 C476 1.261 . S
O468 Gd430 2.388 . S
O468 C476 1.252 . S
O469 Gd430 2.386 . S
O469 C487 1.265 . S
O470 Gd431 2.353 . S
O470 C487 1.242 . S
O471 Gd431 2.468 . S
O471 C495 1.263 . S
O472 Gd431 2.427 . S
O472 C495 1.252 . S
O473 Gd430 2.307 . S
O473 C488 1.261 . S
O474 Gd431 2.388 . S
O474 C488 1.252 . S
C475 O463 1.265 . S
C475 O464 1.242 . S
C476 O467 1.261 . S
C476 O468 1.252 . S
C477 C480 1.394 . S
C477 C482 1.370 . S
C477 C483 1.500 . S
C478 C481 1.383 . S
C478 C482 1.395 . S
C479 C480 1.396 . S
C479 C481 1.365 . S
C479 H496 0.929 . S
C480 C477 1.394 . S
C480 C479 1.396 . S
C480 H497 0.930 . S
C481 C478 1.383 . S
C481 C479 1.365 . S
C481 H498 0.931 . S
C482 C477 1.370 . S
C482 C478 1.395 . S
C482 H499 0.930 . S
C483 Gd430 2.805 . S
C483 O465 1.263 . S
C483 O466 1.252 . S
C483 C477 1.500 . S
C484 H446 0.930 . S
C484 C460 1.417 1_556 S
C484 C485 1.329 . S
C485 C455 1.437 . S
C485 H456 0.929 . S
C485 C484 1.329 . S
H486 C459 0.931 . S
C487 O469 1.265 . S
C487 O470 1.242 . S
C488 O473 1.261 . S
C488 O474 1.252 . S
C489 C492 1.394 . S
C489 C494 1.370 . S
C489 C495 1.500 . S
C490 C493 1.383 . S
C490 C494 1.395 . S
C491 C492 1.396 . S
C491 C493 1.365 . S
C491 H500 0.929 . S
C492 C489 1.394 . S
C492 C491 1.396 . S
C492 H501 0.930 . S
C493 C490 1.383 . S
C493 C491 1.365 . S
C493 H502 0.931 . S
C494 C489 1.370 . S
C494 C490 1.395 . S
C494 H503 0.930 . S
C495 Gd431 2.805 . S
C495 O471 1.263 . S
C495 O472 1.252 . S
C495 C489 1.500 . S
H496 C479 0.929 . S
H497 C480 0.930 . S
H498 C481 0.931 . S
H499 C482 0.930 . S
H500 C491 0.929 . S
H501 C492 0.930 . S
H502 C493 0.931 . S
H503 C494 0.930 . S
C504 C506 1.422 . S
C504 C508 1.415 . S
C504 N510 1.369 . S
C505 C506 1.421 . S
C505 C507 1.417 . S
C505 C517 1.422 . S
C506 C504 1.422 . S
C506 C505 1.421 . S
C506 N516 1.359 . S
C507 C505 1.417 . S
C507 C509 1.329 . S
C507 H526 0.930 . S
C508 C504 1.415 . S
C508 C509 1.437 . S
C508 C512 1.413 . S
C509 C507 1.329 . S
C509 C508 1.437 . S
C509 H531 0.929 . S
N510 C504 1.369 . S
N510 C511 1.338 . S
N510 Gd515 2.622 . S
C511 N510 1.338 . S
C511 C513 1.378 . S
C511 H523 0.929 . S
C512 C508 1.413 . S
C512 C513 1.348 . S
C512 H528 0.931 . S
C513 C511 1.378 . S
C513 C512 1.348 . S
C513 H529 0.930 . S
Gd514 N534 2.622 . S
Gd514 N541 2.570 . S
Gd514 O548 2.353 . S
Gd514 O549 2.468 . S
Gd514 O550 2.427 . S
Gd514 O552 2.388 . S
Gd514 O553 2.386 . S
Gd514 O557 2.307 . S
Gd514 C567 2.805 . S
Gd515 N510 2.622 . S
Gd515 N516 2.570 . S
Gd515 O547 2.386 . S
Gd515 O551 2.307 . S
Gd515 O554 2.353 . S
Gd515 O555 2.468 . S
Gd515 O556 2.427 . S
Gd515 O558 2.388 . S
Gd515 C579 2.805 . S
N516 C506 1.359 . S
N516 Gd515 2.570 . S
N516 C518 1.343 . S
C517 C505 1.422 . S
C517 C519 1.321 . S
C517 H525 0.931 . S
C518 N516 1.343 . S
C518 C519 1.390 . S
C518 H520 0.931 . S
C519 C517 1.321 . S
C519 C518 1.390 . S
C519 H521 0.930 . S
H520 C518 0.931 . S
H521 C519 0.930 . S
H522 C545 0.931 . S
H523 C511 0.929 . S
H524 C546 0.930 . S
H525 C517 0.931 . S
H526 C507 0.930 . S
H527 C536 0.929 1_556 S
H528 C512 0.931 . S
H529 C513 0.930 . S
H530 C568 0.930 . S
H531 C509 0.929 . S
H532 C537 0.931 . S
H533 C538 0.930 . S
N534 Gd514 2.622 . S
N534 C535 1.369 1_556 S
N534 C536 1.338 1_556 S
C535 N534 1.369 1_554 S
C535 C539 1.415 . S
C535 C542 1.422 1_554 S
C536 H527 0.929 1_554 S
C536 N534 1.338 1_554 S
C536 C538 1.378 . S
C537 H532 0.931 . S
C537 C538 1.348 . S
C537 C539 1.413 . S
C538 H533 0.930 . S
C538 C536 1.378 . S
C538 C537 1.348 . S
C539 C535 1.415 . S
C539 C537 1.413 . S
C539 C569 1.437 . S
H540 C569 0.929 . S
N541 Gd514 2.570 . S
N541 C542 1.359 . S
N541 C545 1.343 . S
C542 C535 1.422 1_556 S
C542 N541 1.359 . S
C542 C544 1.421 . S
C543 C544 1.422 . S
C543 C546 1.321 . S
C543 H570 0.931 . S
C544 C542 1.421 . S
C544 C543 1.422 . S
C544 C568 1.417 1_556 S
C545 H522 0.931 . S
C545 N541 1.343 . S
C545 C546 1.390 . S
C546 H524 0.930 . S
C546 C543 1.321 . S
C546 C545 1.390 . S
O547 Gd515 2.386 . S
O547 C559 1.265 . S
O548 Gd514 2.353 . S
O548 C559 1.242 . S
O549 Gd514 2.468 . S
O549 C567 1.263 . S
O550 Gd514 2.427 . S
O550 C567 1.252 . S
O551 Gd515 2.307 . S
O551 C560 1.261 . S
O552 Gd514 2.388 . S
O552 C560 1.252 . S
O553 Gd514 2.386 . S
O553 C571 1.265 . S
O554 Gd515 2.353 . S
O554 C571 1.242 . S
O555 Gd515 2.468 . S
O555 C579 1.263 . S
O556 Gd515 2.427 . S
O556 C579 1.252 . S
O557 Gd514 2.307 . S
O557 C572 1.261 . S
O558 Gd515 2.388 . S
O558 C572 1.252 . S
C559 O547 1.265 . S
C559 O548 1.242 . S
C560 O551 1.261 . S
C560 O552 1.252 . S
C561 C564 1.394 . S
C561 C566 1.370 . S
C561 C567 1.500 . S
C562 C565 1.383 . S
C562 C566 1.395 . S
C563 C564 1.396 . S
C563 C565 1.365 . S
C563 H580 0.929 . S
C564 C561 1.394 . S
C564 C563 1.396 . S
C564 H581 0.930 . S
C565 C562 1.383 . S
C565 C563 1.365 . S
C565 H582 0.931 . S
C566 C561 1.370 . S
C566 C562 1.395 . S
C566 H583 0.930 . S
C567 Gd514 2.805 . S
C567 O549 1.263 . S
C567 O550 1.252 . S
C567 C561 1.500 . S
C568 H530 0.930 . S
C568 C544 1.417 1_554 S
C568 C569 1.329 . S
C569 C539 1.437 . S
C569 H540 0.929 . S
C569 C568 1.329 . S
H570 C543 0.931 . S
C571 O553 1.265 . S
C571 O554 1.242 . S
C572 O557 1.261 . S
C572 O558 1.252 . S
C573 C576 1.394 . S
C573 C578 1.370 . S
C573 C579 1.500 . S
C574 C577 1.383 . S
C574 C578 1.395 . S
C575 C576 1.396 . S
C575 C577 1.365 . S
C575 H584 0.929 . S
C576 C573 1.394 . S
C576 C575 1.396 . S
C576 H585 0.930 . S
C577 C574 1.383 . S
C577 C575 1.365 . S
C577 H586 0.931 . S
C578 C573 1.370 . S
C578 C574 1.395 . S
C578 H587 0.930 . S
C579 Gd515 2.805 . S
C579 O555 1.263 . S
C579 O556 1.252 . S
C579 C573 1.500 . S
H580 C563 0.929 . S
H581 C564 0.930 . S
H582 C565 0.931 . S
H583 C566 0.930 . S
H584 C575 0.929 . S
H585 C576 0.930 . S
H586 C577 0.931 . S
H587 C578 0.930 . S
C588 C590 1.426 . S
C588 C592 1.408 1_554 S
C588 N594 1.372 . S
C589 C590 1.421 . S
C589 C591 1.417 1_554 S
C589 C601 1.422 . S
C590 C588 1.426 . S
C590 C589 1.421 . S
C590 N600 1.359 . S
C591 C589 1.417 1_556 S
C591 C593 1.329 . S
C591 H610 0.930 . S
C592 C588 1.408 1_556 S
C592 C593 1.437 . S
C592 C596 1.413 . S
C593 C591 1.329 . S
C593 C592 1.437 . S
C593 H615 0.929 . S
N594 C588 1.372 . S
N594 C595 1.338 1_554 S
N594 Gd599 2.622 . S
C595 N594 1.338 1_556 S
C595 C597 1.378 . S
C595 H607 0.929 1_556 S
C596 C592 1.413 . S
C596 C597 1.348 . S
C596 H612 0.931 . S
C597 C595 1.378 . S
C597 C596 1.348 . S
C597 H613 0.930 . S
Gd598 N618 2.622 . S
Gd598 N625 2.570 . S
Gd598 O632 2.353 . S
Gd598 O633 2.468 . S
Gd598 O634 2.427 . S
Gd598 O636 2.388 . S
Gd598 O637 2.386 . S
Gd598 O641 2.307 . S
Gd598 C651 2.805 . S
Gd599 N594 2.622 . S
Gd599 N600 2.570 . S
Gd599 O631 2.386 . S
Gd599 O635 2.307 . S
Gd599 O638 2.353 . S
Gd599 O639 2.468 . S
Gd599 O640 2.427 . S
Gd599 O642 2.388 . S
Gd599 C663 2.805 . S
N600 C590 1.359 . S
N600 Gd599 2.570 . S
N600 C602 1.343 . S
C601 C589 1.422 . S
C601 C603 1.321 . S
C601 H609 0.931 . S
C602 N600 1.343 . S
C602 C603 1.390 . S
C602 H604 0.931 . S
C603 C601 1.321 . S
C603 C602 1.390 . S
C603 H605 0.930 . S
H604 C602 0.931 . S
H605 C603 0.930 . S
H606 C629 0.931 . S
H607 C595 0.929 1_554 S
H608 C630 0.930 . S
H609 C601 0.931 . S
H610 C591 0.930 . S
H611 C620 0.929 . S
H612 C596 0.931 . S
H613 C597 0.930 . S
H614 C652 0.930 . S
H615 C593 0.929 . S
H616 C621 0.931 . S
H617 C622 0.930 . S
N618 Gd598 2.622 . S
N618 C619 1.369 . S
N618 C620 1.338 . S
C619 N618 1.369 . S
C619 C623 1.415 . S
C619 C626 1.422 . S
C620 H611 0.929 . S
C620 N618 1.338 . S
C620 C622 1.378 . S
C621 H616 0.931 . S
C621 C622 1.348 . S
C621 C623 1.413 . S
C622 H617 0.930 . S
C622 C620 1.378 . S
C622 C621 1.348 . S
C623 C619 1.415 . S
C623 C621 1.413 . S
C623 C653 1.437 . S
H624 C653 0.929 . S
N625 Gd598 2.570 . S
N625 C626 1.359 . S
N625 C629 1.343 . S
C626 C619 1.422 . S
C626 N625 1.359 . S
C626 C628 1.421 . S
C627 C628 1.422 . S
C627 C630 1.321 . S
C627 H654 0.931 . S
C628 C626 1.421 . S
C628 C627 1.422 . S
C628 C652 1.417 . S
C629 H606 0.931 . S
C629 N625 1.343 . S
C629 C630 1.390 . S
C630 H608 0.930 . S
C630 C627 1.321 . S
C630 C629 1.390 . S
O631 Gd599 2.386 . S
O631 C643 1.265 . S
O632 Gd598 2.353 . S
O632 C643 1.242 . S
O633 Gd598 2.468 . S
O633 C651 1.263 . S
O634 Gd598 2.427 . S
O634 C651 1.252 . S
O635 Gd599 2.307 . S
O635 C644 1.261 . S
O636 Gd598 2.388 . S
O636 C644 1.252 . S
O637 Gd598 2.386 . S
O637 C655 1.265 . S
O638 Gd599 2.353 . S
O638 C655 1.242 . S
O639 Gd599 2.468 . S
O639 C663 1.263 . S
O640 Gd599 2.427 . S
O640 C663 1.252 . S
O641 Gd598 2.307 . S
O641 C656 1.261 . S
O642 Gd599 2.388 . S
O642 C656 1.252 . S
C643 O631 1.265 . S
C643 O632 1.242 . S
C644 O635 1.261 . S
C644 O636 1.252 . S
C645 C648 1.394 . S
C645 C650 1.370 . S
C645 C651 1.500 . S
C646 C649 1.383 . S
C646 C650 1.395 . S
C647 C648 1.396 . S
C647 C649 1.365 . S
C647 H664 0.929 . S
C648 C645 1.394 . S
C648 C647 1.396 . S
C648 H665 0.930 . S
C649 C646 1.383 . S
C649 C647 1.365 . S
C649 H666 0.931 . S
C650 C645 1.370 . S
C650 C646 1.395 . S
C650 H667 0.930 . S
C651 Gd598 2.805 . S
C651 O633 1.263 . S
C651 O634 1.252 . S
C651 C645 1.500 . S
C652 H614 0.930 . S
C652 C628 1.417 . S
C652 C653 1.329 . S
C653 C623 1.437 . S
C653 H624 0.929 . S
C653 C652 1.329 . S
H654 C627 0.931 . S
C655 O637 1.265 . S
C655 O638 1.242 . S
C656 O641 1.261 . S
C656 O642 1.252 . S
C657 C660 1.394 . S
C657 C662 1.370 . S
C657 C663 1.500 . S
C658 C661 1.383 . S
C658 C662 1.395 . S
C659 C660 1.396 . S
C659 C661 1.365 . S
C659 H668 0.929 . S
C660 C657 1.394 . S
C660 C659 1.396 . S
C660 H669 0.930 . S
C661 C658 1.383 . S
C661 C659 1.365 . S
C661 H670 0.931 . S
C662 C657 1.370 . S
C662 C658 1.395 . S
C662 H671 0.930 . S
C663 Gd599 2.805 . S
C663 O639 1.263 . S
C663 O640 1.252 . S
C663 C657 1.500 . S
H664 C647 0.929 . S
H665 C648 0.930 . S
H666 C649 0.931 . S
H667 C650 0.930 . S
H668 C659 0.929 . S
H669 C660 0.930 . S
H670 C661 0.931 . S
H671 C662 0.930 . S
H672 C678 0.930 . S
H673 C681 0.930 . S
H674 C682 0.930 . S
H675 C683 0.930 . S
H676 C686 0.930 . S
H677 C687 0.930 . S
C678 H672 0.930 . S
C678 C679 1.355 . S
C678 C680 1.415 . S
C679 C678 1.355 . S
C679 C681 1.419 . S
C680 C678 1.415 . S
C680 C685 1.425 . S
C680 C687 1.409 1_545 S
C681 H673 0.930 . S
C681 C679 1.419 . S
C681 C682 1.362 . S
C682 H674 0.930 . S
C682 C681 1.362 . S
C682 C685 1.409 . S
C683 H675 0.930 . S
C683 C684 1.355 . S
C683 C685 1.415 1_565 S
C684 C683 1.355 . S
C684 C686 1.419 . S
C685 C680 1.425 . S
C685 C682 1.409 . S
C685 C683 1.415 1_545 S
C686 H676 0.930 . S
C686 C684 1.419 . S
C686 C687 1.362 . S
C687 H677 0.930 . S
C687 C680 1.409 1_565 S
C687 C686 1.362 . S
H688 C694 0.930 . S
H689 C697 0.930 . S
H690 C698 0.930 . S
H691 C699 0.930 . S
H692 C702 0.930 . S
H693 C703 0.930 . S
C694 H688 0.930 . S
C694 C695 1.355 . S
C694 C696 1.415 . S
C695 C694 1.355 . S
C695 C697 1.419 . S
C696 C694 1.415 . S
C696 C701 1.425 . S
C696 C703 1.409 . S
C697 H689 0.930 . S
C697 C695 1.419 . S
C697 C698 1.362 . S
C698 H690 0.930 . S
C698 C697 1.362 . S
C698 C701 1.409 . S
C699 H691 0.930 . S
C699 C700 1.355 . S
C699 C701 1.415 1_655 S
C700 C699 1.355 . S
C700 C702 1.419 . S
C701 C696 1.425 . S
C701 C698 1.409 . S
C701 C699 1.415 1_455 S
C702 H692 0.930 . S
C702 C700 1.419 . S
C702 C703 1.362 1_655 S
C703 H693 0.930 . S
C703 C696 1.409 . S
C703 C702 1.362 1_455 S
H704 C710 0.930 . S
H705 C713 0.930 . S
H706 C714 0.930 . S
H707 C715 0.930 . S
H708 C718 0.930 . S
H709 C719 0.930 . S
C710 H704 0.930 . S
C710 C711 1.355 . S
C710 C712 1.415 . S
C711 C710 1.355 . S
C711 C713 1.419 . S
C712 C710 1.415 . S
C712 C717 1.425 . S
C712 C719 1.409 . S
C713 H705 0.930 . S
C713 C711 1.419 . S
C713 C714 1.362 . S
C714 H706 0.930 . S
C714 C713 1.362 . S
C714 C717 1.409 . S
C715 H707 0.930 . S
C715 C716 1.355 . S
C715 C717 1.415 1_545 S
C716 C715 1.355 . S
C716 C718 1.419 . S
C717 C712 1.425 . S
C717 C714 1.409 . S
C717 C715 1.415 1_565 S
C718 H708 0.930 . S
C718 C716 1.419 . S
C718 C719 1.362 1_545 S
C719 H709 0.930 . S
C719 C712 1.409 . S
C719 C718 1.362 1_565 S
H720 C726 0.930 . S
H721 C729 0.930 . S
H722 C730 0.930 . S
H723 C731 0.930 . S
H724 C734 0.930 . S
H725 C735 0.930 . S
C726 H720 0.930 . S
C726 C727 1.355 . S
C726 C728 1.415 1_455 S
C727 C726 1.355 . S
C727 C729 1.419 . S
C728 C726 1.415 1_655 S
C728 C733 1.425 . S
C728 C735 1.409 . S
C729 H721 0.930 . S
C729 C727 1.419 . S
C729 C730 1.362 1_455 S
C730 H722 0.930 . S
C730 C729 1.362 1_655 S
C730 C733 1.409 . S
C731 H723 0.930 . S
C731 C732 1.355 . S
C731 C733 1.415 . S
C732 C731 1.355 . S
C732 C734 1.419 . S
C733 C728 1.425 . S
C733 C730 1.409 . S
C733 C731 1.415 . S
C734 H724 0.930 . S
C734 C732 1.419 . S
C734 C735 1.362 . S
C735 H725 0.930 . S
C735 C728 1.409 . S
C735 C734 1.362 . S
H736 C742 0.930 . S
H737 C745 0.930 . S
H738 C746 0.930 . S
H739 C747 0.930 . S
H740 C750 0.930 . S
H741 C751 0.930 . S
C742 H736 0.930 . S
C742 C743 1.355 . S
C742 C744 1.415 . S
C743 C742 1.355 . S
C743 C745 1.419 . S
C744 C742 1.415 . S
C744 C749 1.425 . S
C744 C751 1.409 . S
C745 H737 0.930 . S
C745 C743 1.419 . S
C745 C746 1.362 . S
C746 H738 0.930 . S
C746 C745 1.362 . S
C746 C749 1.409 . S
C747 H739 0.930 . S
C747 C748 1.355 . S
C747 C749 1.415 . S
C748 C747 1.355 . S
C748 C750 1.419 . S
C749 C744 1.425 . S
C749 C746 1.409 . S
C749 C747 1.415 . S
C750 H740 0.930 . S
C750 C748 1.419 . S
C750 C751 1.362 . S
C751 H741 0.930 . S
C751 C744 1.409 . S
C751 C750 1.362 . S
H752 C758 0.930 . S
H753 C761 0.930 . S
H754 C762 0.930 . S
H755 C763 0.930 . S
H756 C766 0.930 . S
H757 C767 0.930 . S
C758 H752 0.930 . S
C758 C759 1.355 . S
C758 C760 1.415 . S
C759 C758 1.355 . S
C759 C761 1.419 . S
C760 C758 1.415 . S
C760 C765 1.425 . S
C760 C767 1.409 . S
C761 H753 0.930 . S
C761 C759 1.419 . S
C761 C762 1.362 . S
C762 H754 0.930 . S
C762 C761 1.362 . S
C762 C765 1.409 . S
C763 H755 0.930 . S
C763 C764 1.355 . S
C763 C765 1.415 . S
C764 C763 1.355 . S
C764 C766 1.419 . S
C765 C760 1.425 . S
C765 C762 1.409 . S
C765 C763 1.415 . S
C766 H756 0.930 . S
C766 C764 1.419 . S
C766 C767 1.362 . S
C767 H757 0.930 . S
C767 C760 1.409 . S
C767 C766 1.362 . S
H768 C774 0.930 . S
H769 C777 0.930 . S
H770 C778 0.930 . S
H771 C779 0.920 1_554 S
H772 C782 0.930 . S
H773 C783 0.930 . S
C774 H768 0.930 . S
C774 C775 1.355 . S
C774 C776 1.415 . S
C775 C774 1.355 . S
C775 C777 1.419 1_556 S
C776 C774 1.415 . S
C776 C781 1.425 . S
C776 C783 1.409 . S
C777 H769 0.930 . S
C777 C775 1.419 1_554 S
C777 C778 1.362 . S
C778 H770 0.930 . S
C778 C777 1.362 . S
C778 C781 1.409 1_554 S
C779 H771 0.920 1_556 S
C779 C780 1.355 . S
C779 C781 1.415 . S
C780 C779 1.355 . S
C780 C782 1.419 . S
C781 C776 1.425 . S
C781 C778 1.409 1_556 S
C781 C779 1.415 . S
C782 H772 0.930 . S
C782 C780 1.419 . S
C782 C783 1.362 . S
C783 H773 0.930 . S
C783 C776 1.409 . S
C783 C782 1.362 . S
H784 C790 0.923 1_556 S
H785 C793 0.930 . S
H786 C794 0.930 . S
H787 C795 0.930 . S
H788 C798 0.930 . S
H789 C799 0.930 . S
C790 H784 0.923 1_554 S
C790 C791 1.361 . S
C790 C792 1.415 . S
C791 C790 1.361 . S
C791 C793 1.419 . S
C792 C790 1.415 . S
C792 C797 1.425 . S
C792 C799 1.409 1_554 S
C793 H785 0.930 . S
C793 C791 1.419 . S
C793 C794 1.362 . S
C794 H786 0.930 . S
C794 C793 1.362 . S
C794 C797 1.409 . S
C795 H787 0.930 . S
C795 C796 1.355 . S
C795 C797 1.415 . S
C796 C795 1.355 . S
C796 C798 1.419 1_554 S
C797 C792 1.425 . S
C797 C794 1.409 . S
C797 C795 1.415 . S
C798 H788 0.930 . S
C798 C796 1.419 1_556 S
C798 C799 1.362 . S
C799 H789 0.930 . S
C799 C792 1.409 1_556 S
C799 C798 1.362 . S
H800 C806 0.930 . S
H801 C809 0.930 . S
H802 C810 0.930 . S
H803 C811 0.930 . S
H804 C814 0.930 . S
H805 C815 0.930 . S
C806 H800 0.930 . S
C806 C807 1.355 . S
C806 C808 1.415 . S
C807 C806 1.355 . S
C807 C809 1.419 . S
C808 C806 1.415 . S
C808 C813 1.425 . S
C808 C815 1.409 . S
C809 H801 0.930 . S
C809 C807 1.419 . S
C809 C810 1.362 . S
C810 H802 0.930 . S
C810 C809 1.362 . S
C810 C813 1.409 . S
C811 H803 0.930 . S
C811 C812 1.355 . S
C811 C813 1.415 . S
C812 C811 1.355 . S
C812 C814 1.419 . S
C813 C808 1.425 . S
C813 C810 1.409 . S
C813 C811 1.415 . S
C814 H804 0.930 . S
C814 C812 1.419 . S
C814 C815 1.362 . S
C815 H805 0.930 . S
C815 C808 1.409 . S
C815 C814 1.362 . S
H816 C822 0.930 . S
H817 C825 0.930 . S
H818 C826 0.930 . S
H819 C827 0.930 . S
H820 C830 0.930 . S
H821 C831 0.930 . S
C822 H816 0.930 . S
C822 C823 1.355 . S
C822 C824 1.415 . S
C823 C822 1.355 . S
C823 C825 1.419 . S
C824 C822 1.415 . S
C824 C829 1.425 . S
C824 C831 1.409 . S
C825 H817 0.930 . S
C825 C823 1.419 . S
C825 C826 1.362 . S
C826 H818 0.930 . S
C826 C825 1.362 . S
C826 C829 1.409 . S
C827 H819 0.930 . S
C827 C828 1.355 . S
C827 C829 1.415 . S
C828 C827 1.355 . S
C828 C830 1.419 . S
C829 C824 1.425 . S
C829 C826 1.409 . S
C829 C827 1.415 . S
C830 H820 0.930 . S
C830 C828 1.419 . S
C830 C831 1.362 . S
C831 H821 0.930 . S
C831 C824 1.409 . S
C831 C830 1.362 . S
H832 C838 0.930 . S
H833 C841 0.930 . S
H834 C842 0.930 . S
H835 C843 0.930 . S
H836 C846 0.930 . S
H837 C847 0.930 . S
C838 H832 0.930 . S
C838 C839 1.355 . S
C838 C840 1.415 . S
C839 C838 1.355 . S
C839 C841 1.419 . S
C840 C838 1.415 . S
C840 C845 1.425 . S
C840 C847 1.409 . S
C841 H833 0.930 . S
C841 C839 1.419 . S
C841 C842 1.362 . S
C842 H834 0.930 . S
C842 C841 1.362 . S
C842 C845 1.409 . S
C843 H835 0.930 . S
C843 C844 1.355 . S
C843 C845 1.415 . S
C844 C843 1.355 . S
C844 C846 1.419 . S
C845 C840 1.425 . S
C845 C842 1.409 . S
C845 C843 1.415 . S
C846 H836 0.930 . S
C846 C844 1.419 . S
C846 C847 1.362 . S
C847 H837 0.930 . S
C847 C840 1.409 . S
C847 C846 1.362 . S
H848 C854 0.930 . S
H849 C857 0.930 . S
H850 C858 0.930 . S
H851 C859 0.930 . S
H852 C862 0.930 . S
H853 C863 0.930 . S
C854 H848 0.930 . S
C854 C855 1.355 . S
C854 C856 1.415 . S
C855 C854 1.355 . S
C855 C857 1.419 . S
C856 C854 1.415 . S
C856 C861 1.425 . S
C856 C863 1.409 . S
C857 H849 0.930 . S
C857 C855 1.419 . S
C857 C858 1.362 . S
C858 H850 0.930 . S
C858 C857 1.362 . S
C858 C861 1.409 . S
C859 H851 0.930 . S
C859 C860 1.355 . S
C859 C861 1.415 . S
C860 C859 1.355 . S
C860 C862 1.419 . S
C861 C856 1.425 . S
C861 C858 1.409 . S
C861 C859 1.415 . S
C862 H852 0.930 . S
C862 C860 1.419 . S
C862 C863 1.362 . S
C863 H853 0.930 . S
C863 C856 1.409 . S
C863 C862 1.362 . S
H864 C870 0.930 1_565 S
H865 C873 0.930 . S
H866 C874 0.930 . S
H867 C875 0.930 . S
H868 C878 0.930 . S
H869 C879 0.930 . S
C870 H864 0.930 1_545 S
C870 C871 1.355 . S
C870 C872 1.415 1_545 S
C871 C870 1.355 . S
C871 C873 1.419 . S
C872 C870 1.415 1_565 S
C872 C877 1.425 . S
C872 C879 1.409 . S
C873 H865 0.930 . S
C873 C871 1.419 . S
C873 C874 1.362 . S
C874 H866 0.930 . S
C874 C873 1.362 . S
C874 C877 1.409 1_545 S
C875 H867 0.930 . S
C875 C876 1.355 . S
C875 C877 1.415 . S
C876 C875 1.355 . S
C876 C878 1.419 . S
C877 C872 1.425 . S
C877 C874 1.409 1_565 S
C877 C875 1.415 . S
C878 H868 0.930 . S
C878 C876 1.419 . S
C878 C879 1.362 . S
C879 H869 0.930 . S
C879 C872 1.409 . S
C879 C878 1.362 . S
H880 C886 0.930 . S
H881 C889 0.930 . S
H882 C890 0.930 . S
H883 C891 0.930 . S
H884 C894 0.930 . S
H885 C895 0.930 1_455 S
C886 H880 0.930 . S
C886 C887 1.355 . S
C886 C888 1.415 1_455 S
C887 C886 1.355 . S
C887 C889 1.419 . S
C888 C886 1.415 1_655 S
C888 C893 1.425 . S
C888 C895 1.409 . S
C889 H881 0.930 . S
C889 C887 1.419 . S
C889 C890 1.362 1_455 S
C890 H882 0.930 . S
C890 C889 1.362 1_655 S
C890 C893 1.409 . S
C891 H883 0.930 . S
C891 C892 1.355 . S
C891 C893 1.415 . S
C892 C891 1.355 . S
C892 C894 1.419 . S
C893 C888 1.425 . S
C893 C890 1.409 . S
C893 C891 1.415 . S
C894 H884 0.930 . S
C894 C892 1.419 . S
C894 C895 1.362 . S
C895 H885 0.930 1_655 S
C895 C888 1.409 . S
C895 C894 1.362 . S
H896 C902 0.930 . S
H897 C905 0.930 . S
H898 C906 0.928 1_545 S
H899 C907 0.930 . S
H900 C910 0.930 . S
H901 C911 0.930 . S
C902 H896 0.930 . S
C902 C903 1.355 . S
C902 C904 1.415 1_565 S
C903 C902 1.355 . S
C903 C905 1.419 . S
C904 C902 1.415 1_545 S
C904 C909 1.425 . S
C904 C911 1.409 . S
C905 H897 0.930 . S
C905 C903 1.419 . S
C905 C906 1.382 . S
C906 H898 0.928 1_565 S
C906 C905 1.382 . S
C906 C909 1.392 1_565 S
C907 H899 0.930 . S
C907 C908 1.355 . S
C907 C909 1.415 . S
C908 C907 1.355 . S
C908 C910 1.419 . S
C909 C904 1.425 . S
C909 C906 1.392 1_545 S
C909 C907 1.415 . S
C910 H900 0.930 . S
C910 C908 1.419 . S
C910 C911 1.362 . S
C911 H901 0.930 . S
C911 C904 1.409 . S
C911 C910 1.362 . S
H912 C918 0.930 . S
H913 C921 0.930 . S
H914 C922 0.930 1_655 S
H915 C923 0.930 . S
H916 C926 0.930 . S
H917 C927 0.930 . S
C918 H912 0.930 . S
C918 C919 1.355 . S
C918 C920 1.415 . S
C919 C918 1.355 . S
C919 C921 1.419 . S
C920 C918 1.415 . S
C920 C925 1.425 . S
C920 C927 1.409 . S
C921 H913 0.930 . S
C921 C919 1.419 . S
C921 C922 1.362 . S
C922 H914 0.930 1_455 S
C922 C921 1.362 . S
C922 C925 1.409 . S
C923 H915 0.930 . S
C923 C924 1.355 . S
C923 C925 1.415 1_655 S
C924 C923 1.355 . S
C924 C926 1.419 . S
C925 C920 1.425 . S
C925 C922 1.409 . S
C925 C923 1.415 1_455 S
C926 H916 0.930 . S
C926 C924 1.419 . S
C926 C927 1.362 1_655 S
C927 H917 0.930 . S
C927 C920 1.409 . S
C927 C926 1.362 1_455 S
H928 C934 0.930 . S
H929 C937 0.930 . S
H930 C938 0.930 . S
H931 C939 0.930 . S
H932 C942 0.930 . S
H933 C943 0.930 . S
C934 H928 0.930 . S
C934 C935 1.355 . S
C934 C936 1.415 . S
C935 C934 1.355 . S
C935 C937 1.419 . S
C936 C934 1.415 . S
C936 C941 1.425 . S
C936 C943 1.409 . S
C937 H929 0.930 . S
C937 C935 1.419 . S
C937 C938 1.362 . S
C938 H930 0.930 . S
C938 C937 1.362 . S
C938 C941 1.409 . S
C939 H931 0.930 . S
C939 C940 1.355 . S
C939 C941 1.415 . S
C940 C939 1.355 . S
C940 C942 1.419 . S
C941 C936 1.425 . S
C941 C938 1.409 . S
C941 C939 1.415 . S
C942 H932 0.930 . S
C942 C940 1.419 . S
C942 C943 1.362 . S
C943 H933 0.930 . S
C943 C936 1.409 . S
C943 C942 1.362 . S
H944 C950 0.930 . S
H945 C953 0.930 . S
H946 C954 0.930 . S
H947 C955 0.930 . S
H948 C958 0.930 . S
H949 C959 0.930 . S
C950 H944 0.930 . S
C950 C951 1.355 . S
C950 C952 1.415 . S
C951 C950 1.355 . S
C951 C953 1.419 . S
C952 C950 1.415 . S
C952 C957 1.425 . S
C952 C959 1.409 . S
C953 H945 0.930 . S
C953 C951 1.419 . S
C953 C954 1.362 . S
C954 H946 0.930 . S
C954 C953 1.362 . S
C954 C957 1.409 . S
C955 H947 0.930 . S
C955 C956 1.355 . S
C955 C957 1.415 . S
C956 C955 1.355 . S
C956 C958 1.419 . S
C957 C952 1.425 . S
C957 C954 1.409 . S
C957 C955 1.415 . S
C958 H948 0.930 . S
C958 C956 1.419 . S
C958 C959 1.362 . S
C959 H949 0.930 . S
C959 C952 1.409 . S
C959 C958 1.362 . S
H960 C966 0.930 . S
H961 C969 0.930 . S
H962 C970 0.930 . S
H963 C971 0.930 . S
H964 C974 0.930 . S
H965 C975 0.930 . S
C966 H960 0.930 . S
C966 C967 1.355 . S
C966 C968 1.415 . S
C967 C966 1.355 . S
C967 C969 1.419 . S
C968 C966 1.415 . S
C968 C973 1.425 . S
C968 C975 1.409 . S
C969 H961 0.930 . S
C969 C967 1.419 . S
C969 C970 1.362 . S
C970 H962 0.930 . S
C970 C969 1.362 . S
C970 C973 1.409 . S
C971 H963 0.930 . S
C971 C972 1.355 . S
C971 C973 1.415 . S
C972 C971 1.355 . S
C972 C974 1.419 . S
C973 C968 1.425 . S
C973 C970 1.409 . S
C973 C971 1.415 . S
C974 H964 0.930 . S
C974 C972 1.419 . S
C974 C975 1.362 . S
C975 H965 0.930 . S
C975 C968 1.409 . S
C975 C974 1.362 . S
H976 C982 0.930 . S
H977 C985 0.930 . S
H978 C986 0.930 . S
H979 C987 0.930 . S
H980 C990 0.930 . S
H981 C991 0.930 . S
C982 H976 0.930 . S
C982 C983 1.355 . S
C982 C984 1.415 . S
C983 C982 1.355 . S
C983 C985 1.419 . S
C984 C982 1.415 . S
C984 C989 1.425 . S
C984 C991 1.409 . S
C985 H977 0.930 . S
C985 C983 1.419 . S
C985 C986 1.362 . S
C986 H978 0.930 . S
C986 C985 1.362 . S
C986 C989 1.409 . S
C987 H979 0.930 . S
C987 C988 1.355 . S
C987 C989 1.415 . S
C988 C987 1.355 . S
C988 C990 1.419 . S
C989 C984 1.425 . S
C989 C986 1.409 . S
C989 C987 1.415 . S
C990 H980 0.930 . S
C990 C988 1.419 . S
C990 C991 1.362 . S
C991 H981 0.930 . S
C991 C984 1.409 . S
C991 C990 1.362 . S
H992 C998 0.930 . S
H993 C1001 0.930 . S
H994 C1002 0.930 . S
H995 C1003 0.930 . S
H996 C1006 0.930 . S
H997 C1007 0.930 . S
C998 H992 0.930 . S
C998 C999 1.355 . S
C998 C1000 1.415 . S
C999 C998 1.355 . S
C999 C1001 1.419 . S
C1000 C998 1.415 . S
C1000 C1005 1.425 . S
C1000 C1007 1.409 . S
C1001 H993 0.930 . S
C1001 C999 1.419 . S
C1001 C1002 1.362 . S
C1002 H994 0.930 . S
C1002 C1001 1.362 . S
C1002 C1005 1.409 . S
C1003 H995 0.930 . S
C1003 C1004 1.355 . S
C1003 C1005 1.415 . S
C1004 C1003 1.355 . S
C1004 C1006 1.419 . S
C1005 C1000 1.425 . S
C1005 C1002 1.409 . S
C1005 C1003 1.415 . S
C1006 H996 0.930 . S
C1006 C1004 1.419 . S
C1006 C1007 1.362 . S
C1007 H997 0.930 . S
C1007 C1000 1.409 . S
C1007 C1006 1.362 . S
H1008 C1014 0.930 . S
H1009 C1017 0.930 . S
H1010 C1018 0.930 . S
H1011 C1019 0.930 . S
H1012 C1022 0.930 . S
H1013 C1023 0.930 . S
C1014 H1008 0.930 . S
C1014 C1015 1.355 . S
C1014 C1016 1.415 . S
C1015 C1014 1.355 . S
C1015 C1017 1.419 . S
C1016 C1014 1.415 . S
C1016 C1021 1.425 . S
C1016 C1023 1.409 . S
C1017 H1009 0.930 . S
C1017 C1015 1.419 . S
C1017 C1018 1.362 . S
C1018 H1010 0.930 . S
C1018 C1017 1.362 . S
C1018 C1021 1.409 . S
C1019 H1011 0.930 . S
C1019 C1020 1.355 . S
C1019 C1021 1.415 . S
C1020 C1019 1.355 . S
C1020 C1022 1.419 . S
C1021 C1016 1.425 . S
C1021 C1018 1.409 . S
C1021 C1019 1.415 . S
C1022 H1012 0.930 . S
C1022 C1020 1.419 . S
C1022 C1023 1.362 . S
C1023 H1013 0.930 . S
C1023 C1016 1.409 . S
C1023 C1022 1.362 . S
H1024 C1030 0.930 . S
H1025 C1033 0.930 . S
H1026 C1034 0.930 . S
H1027 C1035 0.930 . S
H1028 C1038 0.930 . S
H1029 C1039 0.930 . S
C1030 H1024 0.930 . S
C1030 C1031 1.355 . S
C1030 C1032 1.415 . S
C1031 C1030 1.355 . S
C1031 C1033 1.419 . S
C1032 C1030 1.415 . S
C1032 C1037 1.425 . S
C1032 C1039 1.409 . S
C1033 H1025 0.930 . S
C1033 C1031 1.419 . S
C1033 C1034 1.362 . S
C1034 H1026 0.930 . S
C1034 C1033 1.362 . S
C1034 C1037 1.409 . S
C1035 H1027 0.930 . S
C1035 C1036 1.355 . S
C1035 C1037 1.415 . S
C1036 C1035 1.355 . S
C1036 C1038 1.419 . S
C1037 C1032 1.425 . S
C1037 C1034 1.409 . S
C1037 C1035 1.415 . S
C1038 H1028 0.930 . S
C1038 C1036 1.419 . S
C1038 C1039 1.362 . S
C1039 H1029 0.930 . S
C1039 C1032 1.409 . S
C1039 C1038 1.362 . S
H1040 C1046 0.930 . S
H1041 C1049 0.930 . S
H1042 C1050 0.930 . S
H1043 C1051 0.930 . S
H1044 C1054 0.930 . S
H1045 C1055 0.930 . S
C1046 H1040 0.930 . S
C1046 C1047 1.355 . S
C1046 C1048 1.415 . S
C1047 C1046 1.355 . S
C1047 C1049 1.419 . S
C1048 C1046 1.415 . S
C1048 C1053 1.425 . S
C1048 C1055 1.409 . S
C1049 H1041 0.930 . S
C1049 C1047 1.419 . S
C1049 C1050 1.362 . S
C1050 H1042 0.930 . S
C1050 C1049 1.362 . S
C1050 C1053 1.409 . S
C1051 H1043 0.930 . S
C1051 C1052 1.355 . S
C1051 C1053 1.415 . S
C1052 C1051 1.355 . S
C1052 C1054 1.419 . S
C1053 C1048 1.425 . S
C1053 C1050 1.409 . S
C1053 C1051 1.415 . S
C1054 H1044 0.930 . S
C1054 C1052 1.419 . S
C1054 C1055 1.362 . S
C1055 H1045 0.930 . S
C1055 C1048 1.409 . S
C1055 C1054 1.362 . S
C679 C55 1.331 . S
C684 C478 0.995 . S
C695 C151 1.443 . S
C700 C562 1.362 . S
C711 C223 1.452 . S
C716 C658 1.334 . S
C727 C394 1.371 . S
C732 C320 1.397 . S
C743 C490 1.407 1_556 S
C748 C392 1.427 . S
C759 C574 1.054 1_554 S
C764 C487 1.402 . S
C775 C646 1.024 1_556 S
C780 C560 1.333 . S
C791 C656 1.321 . S
C796 C406 1.040 1_554 S
C807 C559 1.388 . S
C812 C310 1.135 . S
C823 C655 1.424 . S
C828 C58 1.389 . S
C839 C154 1.317 . S
C844 C391 1.433 . S
C855 C226 1.278 . S
C860 C488 1.325 . S
C871 C322 1.413 . S
C876 C224 1.433 . S
C887 C70 1.185 . S
C892 C319 1.454 . S
C903 C142 0.999 . S
C908 C56 1.305 . S
C919 C152 1.347 . S
C924 C238 1.143 . S
C935 C403 2.692 1_554 S
C940 C68 2.736 . S
C951 C476 2.747 1_556 S
C956 C140 2.754 . S
C967 C236 2.757 . S
C972 C571 2.725 1_554 S
C983 C307 2.703 . S
C988 C643 2.698 1_556 S
C999 C235 2.698 . S
C1004 C572 2.737 . S
C1015 C308 2.753 . S
C1020 C644 2.749 . S
C1031 C404 2.766 . S
C1036 C67 2.720 . S
C1047 C475 2.692 . S
C1052 C139 2.692 . S
