# Generated by pormake.
# Topology yff, (5)-cn, num edge types: 1
# Building blocks:
#     Node 0, Type 0, BuildingBlock: XOMCOT_clean_sbu_1, # of connection points: 5
#     Node 1, Type 0, BuildingBlock: XOMCOT_clean_sbu_1, # of connection points: 5
#     Node 2, Type 0, BuildingBlock: XOMCOT_clean_sbu_1, # of connection points: 5
#     Node 3, Type 0, BuildingBlock: XOMCOT_clean_sbu_1, # of connection points: 5
#     Node 4, Type 0, BuildingBlock: XOMCOT_clean_sbu_1, # of connection points: 5
#     Node 5, Type 0, BuildingBlock: XOMCOT_clean_sbu_1, # of connection points: 5
#     Node 6, Type 0, BuildingBlock: XOMCOT_clean_sbu_1, # of connection points: 5
#     Node 7, Type 0, BuildingBlock: XOMCOT_clean_sbu_1, # of connection points: 5
#     Node 8, Type 0, BuildingBlock: XOMCOT_clean_sbu_1, # of connection points: 5
#     Node 9, Type 0, BuildingBlock: XOMCOT_clean_sbu_1, # of connection points: 5
#     Node 10, Type 0, BuildingBlock: XOMCOT_clean_sbu_1, # of connection points: 5
#     Node 11, Type 0, BuildingBlock: XOMCOT_clean_sbu_1, # of connection points: 5
#     Node 12, Type 0, BuildingBlock: XOMCOT_clean_sbu_1, # of connection points: 5
#     Node 13, Type 0, BuildingBlock: XOMCOT_clean_sbu_1, # of connection points: 5
#     Node 14, Type 0, BuildingBlock: XOMCOT_clean_sbu_1, # of connection points: 5
#     Node 15, Type 0, BuildingBlock: XOMCOT_clean_sbu_1, # of connection points: 5
#     Edge 16, Type (0, 0), BuildingBlock: EZIPEK_clean_linker_0, # of connection points: 2
#     Edge 17, Type (0, 0), BuildingBlock: EZIPEK_clean_linker_0, # of connection points: 2
#     Edge 18, Type (0, 0), BuildingBlock: EZIPEK_clean_linker_0, # of connection points: 2
#     Edge 19, Type (0, 0), BuildingBlock: EZIPEK_clean_linker_0, # of connection points: 2
#     Edge 20, Type (0, 0), BuildingBlock: EZIPEK_clean_linker_0, # of connection points: 2
#     Edge 21, Type (0, 0), BuildingBlock: EZIPEK_clean_linker_0, # of connection points: 2
#     Edge 22, Type (0, 0), BuildingBlock: EZIPEK_clean_linker_0, # of connection points: 2
#     Edge 23, Type (0, 0), BuildingBlock: EZIPEK_clean_linker_0, # of connection points: 2
#     Edge 24, Type (0, 0), BuildingBlock: EZIPEK_clean_linker_0, # of connection points: 2
#     Edge 25, Type (0, 0), BuildingBlock: EZIPEK_clean_linker_0, # of connection points: 2
#     Edge 26, Type (0, 0), BuildingBlock: EZIPEK_clean_linker_0, # of connection points: 2
#     Edge 27, Type (0, 0), BuildingBlock: EZIPEK_clean_linker_0, # of connection points: 2
#     Edge 28, Type (0, 0), BuildingBlock: EZIPEK_clean_linker_0, # of connection points: 2
#     Edge 29, Type (0, 0), BuildingBlock: EZIPEK_clean_linker_0, # of connection points: 2
#     Edge 30, Type (0, 0), BuildingBlock: EZIPEK_clean_linker_0, # of connection points: 2
#     Edge 31, Type (0, 0), BuildingBlock: EZIPEK_clean_linker_0, # of connection points: 2
#     Edge 32, Type (0, 0), BuildingBlock: EZIPEK_clean_linker_0, # of connection points: 2
#     Edge 33, Type (0, 0), BuildingBlock: EZIPEK_clean_linker_0, # of connection points: 2
#     Edge 34, Type (0, 0), BuildingBlock: EZIPEK_clean_linker_0, # of connection points: 2
#     Edge 35, Type (0, 0), BuildingBlock: EZIPEK_clean_linker_0, # of connection points: 2
#     Edge 36, Type (0, 0), BuildingBlock: EZIPEK_clean_linker_0, # of connection points: 2
#     Edge 37, Type (0, 0), BuildingBlock: EZIPEK_clean_linker_0, # of connection points: 2
#     Edge 38, Type (0, 0), BuildingBlock: EZIPEK_clean_linker_0, # of connection points: 2
#     Edge 39, Type (0, 0), BuildingBlock: EZIPEK_clean_linker_0, # of connection points: 2
#     Edge 40, Type (0, 0), BuildingBlock: EZIPEK_clean_linker_0, # of connection points: 2
#     Edge 41, Type (0, 0), BuildingBlock: EZIPEK_clean_linker_0, # of connection points: 2
#     Edge 42, Type (0, 0), BuildingBlock: EZIPEK_clean_linker_0, # of connection points: 2
#     Edge 43, Type (0, 0), BuildingBlock: EZIPEK_clean_linker_0, # of connection points: 2
#     Edge 44, Type (0, 0), BuildingBlock: EZIPEK_clean_linker_0, # of connection points: 2
#     Edge 45, Type (0, 0), BuildingBlock: EZIPEK_clean_linker_0, # of connection points: 2
#     Edge 46, Type (0, 0), BuildingBlock: EZIPEK_clean_linker_0, # of connection points: 2
#     Edge 47, Type (0, 0), BuildingBlock: EZIPEK_clean_linker_0, # of connection points: 2
#     Edge 48, Type (0, 0), BuildingBlock: EZIPEK_clean_linker_0, # of connection points: 2
#     Edge 49, Type (0, 0), BuildingBlock: EZIPEK_clean_linker_0, # of connection points: 2
#     Edge 50, Type (0, 0), BuildingBlock: EZIPEK_clean_linker_0, # of connection points: 2
#     Edge 51, Type (0, 0), BuildingBlock: EZIPEK_clean_linker_0, # of connection points: 2
#     Edge 52, Type (0, 0), BuildingBlock: EZIPEK_clean_linker_0, # of connection points: 2
#     Edge 53, Type (0, 0), BuildingBlock: EZIPEK_clean_linker_0, # of connection points: 2
#     Edge 54, Type (0, 0), BuildingBlock: EZIPEK_clean_linker_0, # of connection points: 2
#     Edge 55, Type (0, 0), BuildingBlock: EZIPEK_clean_linker_0, # of connection points: 2
# Relax obj value: 0.475
# Max RMSD: 0.406
# Mean RMSD: 0.312
data_MOF--net-yff--node1-XOMCOT_clean_sbu_1--edge1-EZIPEK_clean_linker_0
_symmetry_space_group_name_H-M    P1
_symmetry_Int_Tables_number       1
_symmetry_cell_setting            triclinic
loop_
_symmetry_equiv_pos_as_xyz
'x, y, z'
_cell_length_a     46.195457
_cell_length_b     46.095711
_cell_length_c     21.855368
_cell_angle_alpha  90.75927
_cell_angle_beta   89.836642
_cell_angle_gamma 111.07521
loop_
_atom_site_label
_atom_site_type_symbol
_atom_site_fract_x
_atom_site_fract_y
_atom_site_fract_z
_atom_type_partial_charge
C0 C 0.11954 0.01167 0.42306 0.0
C1 C 0.10817 0.98994 0.37685 0.0
N2 N 0.0866 -0.00285 0.34615 0.0
N3 N 0.10472 0.03227 0.42257 0.0
C4 C 0.08521 0.02287 0.37388 0.0
H5 H 0.13654 0.01119 0.45624 0.0
Co6 Co 0.10456 0.06315 0.48185 0.0
C7 C 0.11106 0.10149 0.38717 0.0
O8 O 0.13951 0.11151 0.4088 0.0
N9 N 0.10324 0.09264 0.54105 0.0
C10 C 0.11314 0.13468 0.59953 0.0
C11 C 0.11938 0.12331 0.54446 0.0
C12 C 0.0878 0.08602 0.59488 0.0
N13 N 0.09204 0.11143 0.6312 0.0
O14 O 0.06196 0.03766 0.50355 0.0
H15 H 0.13615 0.13637 0.51115 0.0
H16 H 0.07582 0.06236 0.60859 0.0
O17 O 0.08934 0.08288 0.41946 0.0
C18 C 0.04671 0.00845 0.50539 0.0
O19 O 0.06094 0.98863 0.49739 0.0
N20 N 0.12377 0.0466 0.53911 0.0
C21 C 0.16618 0.02282 0.58532 0.0
C22 C 0.17622 0.04997 0.55098 0.0
C23 C 0.15459 0.06163 0.52876 0.0
C24 C 0.11384 0.02295 0.58004 0.0
C25 C 0.13496 0.01032 0.60361 0.0
H26 H 0.16202 0.08102 0.49777 0.0
H27 H 0.08978 0.01287 0.59236 0.0
H28 H 0.06942 0.03393 0.35958 0.0
H29 H 0.11488 0.97016 0.36698 0.0
H30 H 0.12552 0.15804 0.61608 0.0
H31 H 0.20028 0.06065 0.53733 0.0
H32 H 0.12678 0.98996 0.63217 0.0
C33 C 0.52559 0.1476 0.95854 0.0
C34 C 0.54906 0.14769 0.91942 0.0
N35 N 0.54083 0.1194 0.89299 0.0
N36 N 0.50227 0.11955 0.95577 0.0
C37 C 0.51245 0.10292 0.91514 0.0
H38 H 0.52616 0.16667 0.98842 0.0
Co39 Co 0.46593 0.10513 1.004 0.0
C40 C 0.41834 0.0994 0.89978 0.0
O41 O 0.40493 0.11756 0.92412 0.0
N42 N 0.43045 0.09017 0.05485 0.0
C43 C 0.38363 0.06937 0.09749 0.0
C44 C 0.39965 0.07751 0.04319 0.0
C45 C 0.43239 0.08836 0.11649 0.0
N46 N 0.40438 0.07626 0.14342 0.0
O47 O 0.46592 0.06495 0.99866 0.0
H48 H 0.3891 0.07304 0.99855 0.0
H49 H 0.45403 0.09524 0.14149 0.0
O50 O 0.44104 0.09606 0.92827 0.0
C51 C 0.48151 0.05833 0.04001 0.0
O52 O 0.49683 0.07963 0.08042 0.0
N53 N 0.46665 0.14532 1.01375 0.0
C54 C 0.46598 0.20284 0.04856 0.0
C55 C 0.46047 0.1928 0.98738 0.0
C56 C 0.46169 0.164 0.97043 0.0
C57 C 0.47535 0.15635 0.07164 0.0
C58 C 0.47502 0.18512 0.09031 0.0
H59 H 0.45885 0.1569 0.92293 0.0
H60 H 0.48253 0.14264 0.10364 0.0
H61 H 0.49989 0.07879 0.90338 0.0
H62 H 0.57095 0.16658 0.91259 0.0
H63 H 0.35876 0.05843 0.10279 0.0
H64 H 0.45498 0.20696 0.95343 0.0
H65 H 0.48082 0.19306 0.13713 0.0
C66 C 0.35651 0.49926 0.39356 0.0
C67 C 0.37206 0.52083 0.35073 0.0
N68 N 0.39451 0.51211 0.32664 0.0
N69 N 0.36803 0.47615 0.39455 0.0
C70 C 0.39129 0.48485 0.35308 0.0
H71 H 0.33869 0.50114 0.42332 0.0
Co72 Co 0.35568 0.43989 0.4423 0.0
C73 C 0.33644 0.39072 0.33678 0.0
O74 O 0.32097 0.36555 0.36717 0.0
N75 N 0.34347 0.40446 0.49145 0.0
C76 C 0.31335 0.3649 0.54747 0.0
C77 C 0.31594 0.38042 0.49313 0.0
C78 C 0.35673 0.4034 0.54604 0.0
N79 N 0.33899 0.3797 0.58052 0.0
O80 O 0.39688 0.44162 0.44258 0.0
H81 H 0.29729 0.37646 0.46066 0.0
H82 H 0.3776 0.42117 0.56303 0.0
O83 O 0.34873 0.41667 0.36491 0.0
C84 C 0.4131 0.4621 0.48059 0.0
O85 O 0.3993 0.47575 0.51762 0.0
N86 N 0.31619 0.44011 0.44696 0.0
C87 C 0.26929 0.46278 0.46046 0.0
C88 C 0.26907 0.44355 0.41018 0.0
C89 C 0.29304 0.43202 0.40441 0.0
C90 C 0.31404 0.45496 0.50001 0.0
C91 C 0.29071 0.46686 0.50759 0.0
H92 H 0.29367 0.41814 0.36489 0.0
H93 H 0.33246 0.46039 0.53356 0.0
H94 H 0.40605 0.47174 0.34289 0.0
H95 H 0.36834 0.54214 0.34044 0.0
H96 H 0.29322 0.34604 0.56369 0.0
H97 H 0.25193 0.43937 0.37418 0.0
H98 H 0.2908 0.48113 0.54746 0.0
C99 C 0.97907 0.36864 0.95627 0.0
C100 C 0.95416 0.36262 0.91747 0.0
N101 N 0.96473 0.37537 0.86289 0.0
N102 N 0.0052 0.38561 0.92676 0.0
C103 C -0.00421 0.38849 0.86948 0.0
H104 H 0.9779 0.36303 1.00431 0.0
Co105 Co 0.04213 0.40777 0.96704 0.0
C106 C 0.08607 0.42852 0.85214 0.0
O107 O 0.11032 0.42363 0.87426 0.0
N108 N 0.07793 0.43016 1.01259 0.0
C109 C 0.11956 0.46689 0.05319 0.0
C110 C 0.10474 0.45354 0.99942 0.0
C111 C 0.07683 0.4303 0.07456 0.0
N112 N 0.10154 0.45254 0.10039 0.0
O113 O 0.02941 0.44243 0.97362 0.0
H114 H 0.11175 0.46276 0.95458 0.0
H115 H 0.05698 0.41604 0.10051 0.0
O116 O 0.0617 0.42311 0.88527 0.0
C117 C 0.0128 0.44203 1.02056 0.0
O118 O 0.00524 0.4183 0.05769 0.0
N119 N 0.05242 0.37223 0.96637 0.0
C120 C 0.0492 0.3112 0.97612 0.0
C121 C 0.06117 0.32801 0.92322 0.0
C122 C 0.06246 0.35866 0.91909 0.0
C123 C 0.04217 0.35645 1.01919 0.0
C124 C 0.04046 0.32587 0.02522 0.0
H125 H 0.06987 0.37029 0.87679 0.0
H126 H 0.03304 0.36689 0.05528 0.0
H127 H 0.01082 0.40243 0.83483 0.0
H128 H 0.92997 0.35109 0.92925 0.0
H129 H 0.14041 0.48739 0.05721 0.0
H130 H 0.06788 0.31701 0.88439 0.0
H131 H 0.0308 0.31325 0.06644 0.0
C132 C 0.63747 0.06501 0.65303 0.0
C133 C 0.63345 0.08606 0.69451 0.0
N134 N 0.61012 0.07053 0.73221 0.0
N135 N 0.61675 0.03637 0.66484 0.0
C136 C 0.60084 0.04051 0.71412 0.0
H137 H 0.6525 0.07085 0.61358 0.0
Co138 Co 0.60404 0.00141 0.61303 0.0
C139 C 0.59518 0.9488 0.70595 0.0
O140 O 0.59995 0.92849 0.66839 0.0
N141 N 0.59024 0.96698 0.55907 0.0
C142 C 0.55982 0.92391 0.51043 0.0
C143 C 0.56661 0.93947 0.56599 0.0
C144 C 0.5964 0.96807 0.49838 0.0
N145 N 0.5785 0.94221 0.46808 0.0
O146 O 0.5626 -0.00018 0.61757 0.0
H147 H 0.55329 0.93223 0.60744 0.0
H148 H 0.61188 0.98839 0.47554 0.0
O149 O 0.59692 0.97545 0.68655 0.0
C150 C 0.55624 0.01985 0.58645 0.0
O151 O 0.57882 0.04236 0.5602 0.0
N152 N 0.64528 0.00395 0.60333 0.0
C153 C 0.70079 0.00149 0.55891 0.0
C154 C 0.6888 0.98784 0.6149 0.0
C155 C 0.6611 0.98979 0.63698 0.0
C156 C 0.6584 0.02006 0.55223 0.0
C157 C 0.68625 0.0192 0.52909 0.0
H158 H 0.65233 0.97925 0.67994 0.0
H159 H 0.64619 0.03227 0.52731 0.0
H160 H 0.58096 0.02232 0.73304 0.0
H161 H 0.6448 0.11109 0.69367 0.0
H162 H 0.54109 0.90212 0.50092 0.0
H163 H 0.70018 0.97489 0.64018 0.0
H164 H 0.69539 0.0307 0.48656 0.0
C165 C 0.50646 0.61205 0.08231 0.0
C166 C 0.48192 0.60145 0.12191 0.0
N167 N 0.48768 0.58171 0.1604 0.0
N168 N 0.52757 0.59912 0.09613 0.0
C169 C 0.51554 0.58076 0.14443 0.0
H170 H 0.50814 0.62698 0.04368 0.0
Co171 Co 0.56146 0.6036 0.04628 0.0
C172 C 0.60473 0.58684 0.13363 0.0
O173 O 0.61735 0.57417 0.0923 0.0
N174 N 0.59401 0.60825 0.99119 0.0
C175 C 0.6341 0.62985 0.929 0.0
C176 C 0.62352 0.62859 0.98874 0.0
C177 C 0.58756 0.59719 0.93317 0.0
N178 N 0.61127 0.61004 0.89409 0.0
O179 O 0.54589 0.55992 0.03076 0.0
H180 H 0.63542 0.6437 0.02621 0.0
H181 H 0.56477 0.58226 0.91829 0.0
O182 O 0.58441 0.59806 0.11777 0.0
C183 C 0.52014 0.54909 1.00238 0.0
O184 O 0.5078 0.56858 0.9812 0.0
N185 N 0.57533 0.64631 0.0611 0.0
C186 C 0.57483 0.70519 0.08426 0.0
C187 C 0.5794 0.6876 0.1321 0.0
C188 C 0.57919 0.65792 0.11965 0.0
C189 C 0.5734 0.66425 1.01337 0.0
C190 C 0.5732 0.69408 0.02399 0.0
H191 H 0.57841 0.64325 0.15808 0.0
H192 H 0.56902 0.65432 0.96775 0.0
H193 H 0.52622 0.56611 0.16587 0.0
H194 H 0.46083 0.60659 0.12088 0.0
H195 H 0.6561 0.64551 0.91184 0.0
H196 H 0.57999 0.69549 0.17917 0.0
H197 H 0.5691 0.70718 0.98636 0.0
C198 C 0.86125 0.38294 0.58561 0.0
C199 C 0.87473 0.36761 0.62308 0.0
N200 N 0.88101 0.38286 0.67719 0.0
N201 N 0.85979 0.40814 0.61553 0.0
C202 C 0.87043 0.40646 0.67226 0.0
H203 H 0.85632 0.37814 0.53745 0.0
Co204 Co 0.85848 0.44259 0.57413 0.0
C205 C 0.8572 0.48587 0.68368 0.0
O206 O 0.83203 0.48939 0.66307 0.0
N207 N 0.85815 0.4771 0.52705 0.0
C208 C 0.86532 0.52383 0.48852 0.0
C209 C 0.86437 0.50742 0.54113 0.0
C210 C 0.85685 0.47627 0.4649 0.0
N211 N 0.86115 0.50429 0.44036 0.0
O212 O 0.90092 0.45484 0.55846 0.0
H213 H 0.87055 0.51809 0.58557 0.0
H214 H 0.85432 0.45572 0.43774 0.0
O215 O 0.86844 0.46835 0.65296 0.0
C216 C 0.90998 0.44555 0.50956 0.0
O217 O 0.88995 0.42562 0.47268 0.0
N218 N 0.81612 0.42918 0.5863 0.0
C219 C 0.75886 0.43301 0.59357 0.0
C220 C 0.77365 0.42954 0.64727 0.0
C221 C 0.80244 0.42638 0.64232 0.0
C222 C 0.79863 0.42431 0.5345 0.0
C223 C 0.76936 0.42629 0.53699 0.0
H224 H 0.81543 0.42646 0.68339 0.0
H225 H 0.80876 0.42281 0.49055 0.0
H226 H 0.87432 0.42429 0.70682 0.0
H227 H 0.88226 0.34877 0.60963 0.0
H228 H 0.87121 0.54872 0.48551 0.0
H229 H 0.76522 0.43337 0.69182 0.0
H230 H 0.75761 0.42765 0.49489 0.0
C231 C -0.001 0.89679 0.06698 0.0
C232 C 0.02196 0.90979 0.10933 0.0
N233 N 0.0137 0.92968 0.14442 0.0
N234 N 0.97563 0.90747 0.07649 0.0
C235 C -0.01444 0.92802 0.12351 0.0
H236 H -0.00082 0.88015 0.03174 0.0
Co237 Co 0.93889 0.89494 0.03032 0.0
C238 C 0.89062 0.86731 0.12839 0.0
O239 O 0.87868 0.84186 0.09508 0.0
N240 N 0.902 0.88262 0.98025 0.0
C241 C 0.85391 0.86974 0.94269 0.0
C242 C 0.87238 0.8792 0.99406 0.0
C243 C 0.9008 0.87695 0.91886 0.0
N244 N 0.87207 0.86889 0.89503 0.0
O245 O 0.96384 0.90323 0.95768 0.0
H246 H 0.86447 0.88443 0.03785 0.0
H247 H 0.92082 0.87988 0.89052 0.0
O248 O 0.91432 0.88912 0.10713 0.0
C249 C 0.98025 0.93028 0.93899 0.0
O250 O -0.00456 0.93284 0.88724 0.0
N251 N 0.93734 0.85276 0.03261 0.0
C252 C 0.92848 0.7899 0.04071 0.0
C253 C 0.93384 0.80849 0.0934 0.0
C254 C 0.93901 0.84002 0.08822 0.0
C255 C 0.93487 0.83523 0.98053 0.0
C256 C 0.93003 0.8036 0.98359 0.0
H257 H 0.94341 0.85405 0.12958 0.0
H258 H 0.93666 0.84534 0.93606 0.0
H259 H 0.97236 0.94121 0.1425 0.0
H260 H 0.04327 0.90524 0.11391 0.0
H261 H 0.82933 0.86553 0.93989 0.0
H262 H 0.93389 0.79866 0.13814 0.0
H263 H 0.9272 0.78989 0.94187 0.0
C264 C 0.83239 0.93993 0.63926 0.0
C265 C 0.84511 0.95899 0.68897 0.0
N266 N 0.87445 0.96015 0.69618 0.0
N267 N 0.85366 0.9291 0.6155 0.0
C268 C 0.87859 0.94139 0.65234 0.0
H269 H 0.80913 0.93451 0.6221 0.0
Co270 Co 0.85289 0.90296 0.54837 0.0
C271 C 0.84895 0.85874 0.63427 0.0
O272 O 0.82111 0.84471 0.61131 0.0
N273 N 0.85259 0.87703 0.48121 0.0
C274 C 0.83792 0.83886 0.41252 0.0
C275 C 0.83214 0.84837 0.46959 0.0
C276 C 0.87001 0.88461 0.42975 0.0
N277 N 0.86286 0.86112 0.38746 0.0
O278 O 0.89562 0.92965 0.52635 0.0
H279 H 0.81273 0.83601 0.49844 0.0
H280 H 0.88554 0.90805 0.42187 0.0
O281 O 0.869 0.87972 0.60274 0.0
C282 C 0.91284 0.95837 0.53158 0.0
O283 O 0.90123 0.97881 0.55214 0.0
N284 N 0.83362 0.92371 0.50038 0.0
C285 C 0.79474 0.95628 0.48151 0.0
C286 C 0.78264 0.92546 0.50082 0.0
C287 C 0.8026 0.90944 0.50951 0.0
C288 C 0.84496 0.95151 0.47119 0.0
C289 C 0.82569 0.96863 0.46184 0.0
H290 H 0.794 0.88702 0.53137 0.0
H291 H 0.86894 0.96139 0.45846 0.0
H292 H 0.90009 0.93753 0.6461 0.0
H293 H 0.83417 0.97194 0.71618 0.0
H294 H 0.82278 0.81795 0.38996 0.0
H295 H 0.75864 0.91499 0.51492 0.0
H296 H 0.83534 -0.00797 0.44431 0.0
C297 C 0.45724 0.85935 0.16129 0.0
C298 C 0.43463 0.861 0.20117 0.0
N299 N 0.44469 0.88953 0.22716 0.0
N300 N 0.48147 0.88665 0.16286 0.0
C301 C 0.47298 0.90456 0.20333 0.0
H302 H 0.45564 0.83993 0.13144 0.0
Co303 Co 0.51621 0.89974 0.11189 0.0
C304 C 0.56697 0.91901 0.20942 0.0
O305 O 0.58217 0.90266 0.18442 0.0
N306 N 0.55044 0.9139 0.05709 0.0
C307 C 0.59358 0.94262 1.00816 0.0
C308 C 0.57963 0.93476 0.06451 0.0
C309 C 0.54732 0.90998 0.99544 0.0
N310 N 0.57308 0.92712 0.96483 0.0
O311 O 0.51022 0.93712 0.10107 0.0
H312 H 0.58947 0.94621 0.10689 0.0
H313 H 0.52581 0.8965 0.97281 0.0
O314 O 0.54182 0.91828 0.18396 0.0
C315 C 0.4949 0.94006 0.05517 0.0
O316 O 0.48357 0.91695 1.01586 0.0
N317 N 0.52146 0.8618 0.12121 0.0
C318 C 0.53556 0.80853 0.12332 0.0
C319 C 0.53395 0.82385 0.17814 0.0
C320 C 0.52585 0.85019 0.17618 0.0
C321 C 0.51942 0.84492 0.06874 0.0
C322 C 0.52695 0.81837 0.06853 0.0
H323 H 0.52407 0.86178 0.21855 0.0
H324 H 0.51234 0.85222 0.02658 0.0
H325 H 0.48657 0.92867 0.21307 0.0
H326 H 0.41217 0.84314 0.20897 0.0
H327 H 0.61631 0.95981 0.99941 0.0
H328 H 0.53927 0.81577 0.22148 0.0
H329 H 0.52674 0.80601 0.0259 0.0
C330 C 0.58691 0.46972 0.57998 0.0
C331 C 0.5693 0.44742 0.61952 0.0
N332 N 0.55578 0.46099 0.65941 0.0
N333 N 0.58455 0.49724 0.59505 0.0
C334 C 0.5655 0.49129 0.6441 0.0
H335 H 0.59927 0.46584 0.54049 0.0
Co336 Co 0.59961 0.53191 0.54542 0.0
C337 C 0.59949 0.58431 0.63306 0.0
O338 O 0.59282 0.60149 0.59196 0.0
N339 N 0.61447 0.56583 0.49061 0.0
C340 C 0.64741 0.60282 0.43294 0.0
C341 C 0.64148 0.59045 0.49114 0.0
C342 C 0.60422 0.56446 0.43208 0.0
N343 N 0.62387 0.58622 0.39578 0.0
O344 O 0.55861 0.52789 0.53018 0.0
H345 H 0.65731 0.59711 0.52956 0.0
H346 H 0.5841 0.54618 0.41407 0.0
O347 O 0.60219 0.55869 0.61715 0.0
C348 C 0.54618 0.50639 0.49081 0.0
O349 O 0.56386 0.49453 0.45998 0.0
N350 N 0.63923 0.53307 0.55951 0.0
C351 C 0.68456 0.50865 0.5788 0.0
C352 C 0.67293 0.52045 0.62821 0.0
C353 C 0.64989 0.5325 0.61759 0.0
C354 C 0.65232 0.52406 0.51051 0.0
C355 C 0.67539 0.5118 0.51918 0.0
H356 H 0.63812 0.53745 0.65675 0.0
H357 H 0.64254 0.52326 0.46541 0.0
H358 H 0.55709 0.50812 0.66519 0.0
H359 H 0.56539 0.42282 0.61735 0.0
H360 H 0.6683 0.62123 0.41821 0.0
H361 H 0.67963 0.51788 0.6747 0.0
H362 H 0.68415 0.50258 0.48042 0.0
C363 C 0.9768 0.62356 0.10754 0.0
C364 C 0.00194 0.63418 0.14643 0.0
N365 N -0.00183 0.61258 0.18951 0.0
N366 N 0.95724 0.59567 0.1267 0.0
C367 C 0.97087 0.58971 0.17702 0.0
H368 H 0.97419 0.63418 0.06517 0.0
Co369 Co 0.92448 0.56867 0.08097 0.0
C370 C 0.87762 0.54552 0.18815 0.0
O371 O 0.8552 0.55262 0.16331 0.0
N372 N 0.89314 0.5416 0.03017 0.0
C373 C 0.85415 0.50428 0.98318 0.0
C374 C 0.8656 0.51836 0.03894 0.0
C375 C 0.8981 0.54059 0.96916 0.0
N376 N 0.87483 0.51841 0.93956 0.0
O377 O 0.94346 0.53838 0.08197 0.0
H378 H 0.85485 0.51116 0.0827 0.0
H379 H 0.9188 0.55576 0.94668 0.0
O380 O 0.90307 0.55073 0.15888 0.0
C381 C 0.96853 0.54308 0.05272 0.0
O382 O 0.98148 0.56908 1.02282 0.0
N383 N 0.907 0.59983 0.07684 0.0
C384 C 0.90344 0.65843 0.06419 0.0
C385 C 0.90017 0.6448 0.12174 0.0
C386 C 0.90207 0.61539 0.12711 0.0
C387 C 0.90823 0.61225 1.02007 0.0
C388 C 0.90608 0.64139 1.01261 0.0
H389 H 0.90268 0.60686 0.1722 0.0
H390 H 0.91419 0.60129 0.98074 0.0
H391 H 0.96212 0.56801 0.20143 0.0
H392 H 0.02247 0.65479 0.14082 0.0
H393 H 0.83264 0.48493 0.9754 0.0
H394 H 0.89862 0.65775 0.16256 0.0
H395 H 0.9093 0.65168 0.96765 0.0
C396 C 0.34976 0.94276 0.47146 0.0
C397 C 0.35584 0.92226 0.43148 0.0
N398 N 0.37706 0.93888 0.39089 0.0
N399 N 0.36721 0.97215 0.4561 0.0
C400 C 0.38329 0.96893 0.40624 0.0
H401 H 0.33553 0.93647 0.51201 0.0
Co402 Co 0.37562 0.00824 0.50409 0.0
C403 C 0.37695 0.05446 0.40097 0.0
O404 O 0.3643 0.0718 0.43089 0.0
N405 N 0.38507 0.04385 0.55418 0.0
C406 C 0.40934 0.09032 0.59796 0.0
C407 C 0.403 0.07377 0.54338 0.0
C408 C 0.38172 0.0427 0.61573 0.0
N409 N 0.3959 0.07056 0.6432 0.0
O410 O 0.41844 0.01494 0.5027 0.0
H411 H 0.41341 0.08249 0.49991 0.0
H412 H 0.37139 0.02138 0.64073 0.0
O413 O 0.38097 0.03165 0.42754 0.0
C414 C 0.42736 -0.00346 0.53363 0.0
O415 O 0.40655 0.97215 0.55883 0.0
N416 N 0.33295 0.00079 0.51126 0.0
C417 C 0.27379 -0.00495 0.55027 0.0
C418 C 0.28448 0.00716 0.49258 0.0
C419 C 0.31414 0.00953 0.47349 0.0
C420 C 0.32163 0.98632 0.56496 0.0
C421 C 0.29209 0.9833 0.58564 0.0
H422 H 0.32172 0.01893 0.4292 0.0
H423 H 0.33618 0.97806 0.59313 0.0
H424 H 0.40092 0.98813 0.38422 0.0
H425 H 0.34711 0.89716 0.43458 0.0
H426 H 0.42458 0.11426 0.60448 0.0
H427 H 0.27035 0.01554 0.46336 0.0
H428 H 0.28411 0.97306 0.62975 0.0
C429 C 0.43714 0.3401 0.87035 0.0
C430 C 0.46104 0.35083 0.82876 0.0
N431 N 0.46285 0.37926 0.81126 0.0
N432 N 0.42411 0.36186 0.87925 0.0
C433 C 0.4399 0.38495 0.84097 0.0
H434 H 0.43046 0.31805 0.8931 0.0
Co435 Co 0.39262 0.36343 0.9333 0.0
C436 C 0.35829 0.35844 0.83295 0.0
O437 O 0.34881 0.32942 0.85094 0.0
N438 N 0.36174 0.36505 0.98679 0.0
C439 C 0.31832 0.3515 0.04167 0.0
C440 C 0.33103 0.34821 0.98587 0.0
C441 C 0.36704 0.37855 0.04294 0.0
N442 N 0.34123 0.37047 0.07718 0.0
O443 O 0.4182 0.40611 0.95856 0.0
H444 H 0.31903 0.3327 0.9491 0.0
H445 H 0.38977 0.39211 0.06052 0.0
O446 O 0.37597 0.37966 0.86815 0.0
C447 C 0.44734 0.42014 0.9663 0.0
O448 O 0.4665 0.40506 0.96016 0.0
N449 N 0.40706 0.34427 0.99426 0.0
C450 C 0.42897 0.30486 0.05659 0.0
C451 C 0.4043 0.29279 1.0155 0.0
C452 C 0.39329 0.31305 0.98549 0.0
C453 C 0.42778 0.35587 0.04091 0.0
C454 C 0.43929 0.33634 0.07292 0.0
H455 H 0.37569 0.30417 0.95047 0.0
H456 H 0.43655 0.38004 0.05235 0.0
H457 H 0.43536 0.40612 0.83609 0.0
H458 H 0.47657 0.33923 0.81419 0.0
H459 H 0.2947 0.33934 0.05644 0.0
H460 H 0.39528 0.26829 1.00327 0.0
H461 H 0.4576 0.34598 0.10641 0.0
C462 C 0.11222 0.59243 0.43608 0.0
C463 C 0.1024 0.61086 0.39848 0.0
N464 N 0.08099 0.59201 0.36001 0.0
N465 N 0.0973 0.56227 0.42042 0.0
C466 C 0.07852 0.56283 0.37368 0.0
H467 H 0.12813 0.6004 0.47417 0.0
Co468 Co 0.09739 0.52781 0.46333 0.0
C469 C 0.11392 0.49133 0.35614 0.0
O470 O 0.13605 0.48599 0.38618 0.0
N471 N 0.09612 0.49314 0.51111 0.0
C472 C 0.09094 0.44669 0.54849 0.0
C473 C 0.09236 0.4635 0.49605 0.0
C474 C 0.09496 0.49304 0.57324 0.0
N475 N 0.09238 0.46532 0.59721 0.0
O476 O 0.0544 0.51076 0.4587 0.0
H477 H 0.08921 0.45399 0.4504 0.0
H478 H 0.09508 0.51279 0.60069 0.0
O479 O 0.0984 0.50608 0.38286 0.0
C480 C 0.03756 0.51838 0.4965 0.0
O481 O 0.05016 0.53978 0.53859 0.0
N482 N 0.14062 0.54511 0.46961 0.0
C483 C 0.19761 0.54115 0.4796 0.0
C484 C 0.18786 0.54787 0.42279 0.0
C485 C 0.15906 0.55076 0.41918 0.0
C486 C 0.15375 0.54828 0.52629 0.0
C487 C 0.18284 0.54597 0.53269 0.0
H488 H 0.15004 0.5529 0.37498 0.0
H489 H 0.14034 0.54851 0.5666 0.0
H490 H 0.06219 0.54219 0.35202 0.0
H491 H 0.10922 0.6359 0.40101 0.0
H492 H 0.08781 0.4223 0.55071 0.0
H493 H 0.19992 0.54629 0.381 0.0
H494 H 0.19101 0.54282 0.57763 0.0
C495 C 0.96079 0.06067 0.96317 0.0
C496 C 0.93981 0.04487 0.91908 0.0
N497 N 0.95538 0.03715 0.87351 0.0
N498 N -0.01055 0.06225 0.94619 0.0
C499 C -0.01452 0.04837 0.89051 0.0
H500 H 0.95535 0.07007 1.0054 0.0
Co501 Co 0.02554 0.07894 0.99268 0.0
C502 C 0.07069 0.11306 0.89228 0.0
O503 O 0.0795 0.13938 0.92336 0.0
N504 N 0.06216 0.09532 0.04232 0.0
C505 C 0.11043 0.11272 0.08037 0.0
C506 C 0.09263 0.10411 0.02792 0.0
C507 C 0.06247 0.09774 0.10434 0.0
N508 N 0.09112 0.10821 0.12837 0.0
O509 O 0.00095 0.06627 0.06607 0.0
H510 H 0.10173 0.10262 0.98301 0.0
H511 H 0.04209 0.09063 0.13298 0.0
O512 O 0.05008 0.0893 0.91613 0.0
C513 C -0.01303 0.03867 0.08519 0.0
O514 O 0.97322 0.03477 0.13875 0.0
N515 N 0.02027 0.11817 0.99345 0.0
C516 C 0.02293 0.17929 0.98913 0.0
C517 C 0.01709 0.16101 0.93594 0.0
C518 C 0.01529 0.13025 0.93926 0.0
C519 C 0.02226 0.13483 0.04653 0.0
C520 C 0.0242 0.16571 0.04528 0.0
H521 H 0.01182 0.11678 0.89729 0.0
H522 H 0.0231 0.12484 0.09029 0.0
H523 H 0.00416 0.04631 0.86313 0.0
H524 H 0.91498 0.03943 0.92014 0.0
H525 H 0.13537 0.11941 0.08347 0.0
H526 H 0.01525 0.17081 0.89198 0.0
H527 H 0.02766 0.17915 0.08747 0.0
C528 C 0.96067 -0.00611 0.47929 0.0
C529 C 0.94678 0.96887 0.51983 0.0
C530 C -0.00161 0.97325 0.55636 0.0
C531 C 0.01237 -0.00357 0.51242 0.0
N532 N 0.00643 0.02505 0.42423 0.0
N533 N 0.95319 0.93008 0.58707 0.0
C534 C -0.00656 0.00587 0.47191 0.0
C535 C 0.96581 0.95697 0.55502 0.0
N536 N 0.94258 0.00632 0.44746 0.0
N537 N 0.01603 0.96785 0.6018 0.0
H538 H 0.92965 0.917 0.5884 0.0
H539 H 0.96653 0.91884 0.60753 0.0
H540 H 0.03979 0.97998 0.60586 0.0
H541 H 0.00663 0.95393 0.63936 0.0
H542 H 0.95143 0.02741 0.4247 0.0
H543 H 0.91849 -0.00364 0.44598 0.0
H544 H -0.00639 0.02908 0.38838 0.0
H545 H 0.03015 0.03523 0.41746 0.0
C546 C 0.45768 0.00073 0.04853 0.0
C547 C 0.48435 0.02777 0.0397 0.0
C548 C 0.51771 -0.00278 0.03936 0.0
C549 C 0.49099 0.96985 0.04566 0.0
N550 N 0.43519 0.9445 0.04829 0.0
N551 N 0.53826 0.05142 1.01231 0.0
C552 C 0.4608 0.97124 0.04715 0.0
C553 C 0.51396 0.02594 0.03109 0.0
N554 N 0.42976 0.00342 0.06155 0.0
N555 N 0.54679 -0.00405 0.04213 0.0
H556 H 0.53637 0.07299 1.00559 0.0
H557 H 0.55943 0.05053 0.99792 0.0
H558 H 0.55089 0.97526 0.04311 0.0
H559 H 0.56692 0.01554 0.04676 0.0
H560 H 0.41025 0.985 0.07563 0.0
H561 H 0.42655 0.02466 0.06281 0.0
H562 H 0.41266 0.9439 0.04192 0.0
H563 H 0.43633 0.92244 0.05205 0.0
C564 C 0.49503 0.46198 0.48432 0.0
C565 C 0.51234 0.4945 0.48101 0.0
C566 C 0.46439 0.50506 0.4697 0.0
C567 C 0.44716 0.47298 0.47883 0.0
N568 N 0.44534 0.42153 0.50354 0.0
N569 N 0.51445 0.54706 0.46711 0.0
C570 C 0.46222 0.45148 0.48728 0.0
C571 C 0.49724 0.51606 0.47284 0.0
N572 N 0.5097 0.441 0.48736 0.0
N573 N 0.44936 0.52482 0.4556 0.0
H574 H 0.53828 0.55554 0.45936 0.0
H575 H 0.50557 0.56477 0.47114 0.0
H576 H 0.42541 0.51786 0.45124 0.0
H577 H 0.46048 0.54803 0.44474 0.0
H578 H 0.49846 0.41726 0.47939 0.0
H579 H 0.53322 0.44689 0.4961 0.0
H580 H 0.45517 0.40584 0.51877 0.0
H581 H 0.42126 0.41284 0.50724 0.0
C582 C 0.9739 0.49956 0.9909 0.0
C583 C 0.98056 0.51768 0.04547 0.0
C584 C 0.00785 0.48518 0.08627 0.0
C585 C 0.00041 0.46696 0.03169 0.0
N586 N 0.96799 0.45104 0.94221 0.0
N587 N -0.00052 0.52514 0.14938 0.0
C588 C 0.98108 0.4725 0.98711 0.0
C589 C -0.00387 0.50961 0.09469 0.0
N590 N 0.96004 0.50695 0.94172 0.0
N591 N 0.02662 0.4796 0.12918 0.0
H592 H -0.00736 0.54409 0.15566 0.0
H593 H 0.00742 0.51849 0.18936 0.0
H594 H 0.03562 0.46196 0.12458 0.0
H595 H 0.03485 0.4934 0.16797 0.0
H596 H 0.95401 0.52666 0.93927 0.0
H597 H 0.95401 0.52666 0.93927 0.0
H598 H 0.95283 0.45404 0.90971 0.0
H599 H 0.97018 0.42932 0.94118 0.0
C600 C 0.51342 0.01228 0.51098 0.0
C601 C 0.52358 0.01536 0.57289 0.0
C602 C 0.47083 0.00666 0.60858 0.0
C603 C 0.4607 0.00411 0.54666 0.0
N604 N 0.47236 0.00783 0.43859 0.0
N605 N 0.51382 0.02107 0.67992 0.0
C606 C 0.48211 0.00835 0.49776 0.0
C607 C 0.50275 0.01385 0.62155 0.0
N608 N 0.53325 0.01123 0.46499 0.0
N609 N 0.44995 0.00247 0.65525 0.0
H610 H 0.53703 0.02655 0.69119 0.0
H611 H 0.50081 0.02433 0.71651 0.0
H612 H 0.42739 0.00187 0.64903 0.0
H613 H 0.4547 -0.00107 0.70049 0.0
H614 H 0.5272 0.00767 0.41902 0.0
H615 H 0.55555 0.01138 0.47256 0.0
H616 H 0.48715 0.01496 0.40131 0.0
H617 H 0.4492 0.00158 0.42631 0.0
C618 C 0.49613 0.49471 0.04449 0.0
C619 C 0.50307 0.51525 0.99379 0.0
C620 C 0.46593 0.47472 0.9301 0.0
C621 C 0.46051 0.45393 0.97922 0.0
N622 N 0.46098 0.44667 0.08735 0.0
N623 N 0.50019 0.52217 0.88486 0.0
C624 C 0.47315 0.46455 0.03763 0.0
C625 C 0.4894 0.50453 0.93563 0.0
N626 N 0.51174 0.50342 0.09871 0.0
N627 N 0.44727 0.46663 0.87963 0.0
H628 H 0.51855 0.54348 0.88633 0.0
H629 H 0.49342 0.5142 0.84045 0.0
H630 H 0.42766 0.44639 0.87795 0.0
H631 H 0.44841 0.4817 0.84387 0.0
H632 H 0.51014 0.48811 0.13423 0.0
H633 H 0.52863 0.52504 0.1072 0.0
H634 H 0.4667 0.4539 0.13248 0.0
H635 H 0.4417 0.42627 0.08359 0.0
C636 C 0.9533 0.48231 0.44957 0.0
C637 C 0.94291 0.4588 0.49402 0.0
C638 C -0.00585 0.47443 0.53942 0.0
C639 C 0.00451 0.49939 0.49789 0.0
N640 N -0.00491 0.5282 0.41392 0.0
N641 N 0.95528 0.42416 0.5607 0.0
C642 C -0.01547 0.50335 0.45217 0.0
C643 C 0.96392 0.45233 0.53289 0.0
N644 N 0.93352 0.48376 0.40436 0.0
N645 N 0.01262 0.47254 0.58671 0.0
H646 H 0.93324 0.40723 0.55441 0.0
H647 H 0.97066 0.41665 0.58481 0.0
H648 H 0.03493 0.48856 0.59383 0.0
H649 H 0.00459 0.45684 0.62224 0.0
H650 H 0.94023 0.49815 0.36666 0.0
H651 H 0.91058 0.46851 0.40167 0.0
H652 H 0.98148 0.53395 0.38197 0.0
H653 H 0.01756 0.54451 0.41664 0.0
C654 C 0.01153 0.97899 0.99757 0.0
C655 C 0.98238 0.95876 0.97472 0.0
C656 C 0.95647 0.99092 0.02435 0.0
C657 C -0.01452 0.011 0.04777 0.0
N658 N 0.03944 0.02125 0.06721 0.0
N659 N 0.92964 0.95167 0.94927 0.0
C660 C 0.01285 0.00457 0.03635 0.0
C661 C 0.95541 0.96615 0.98411 0.0
N662 N 0.03794 0.97366 0.98235 0.0
N663 N 0.92977 -0.00456 0.04057 0.0
H664 H 0.9296 0.9363 0.91403 0.0
H665 H 0.91012 0.95792 0.94894 0.0
H666 H 0.92944 0.01461 0.06596 0.0
H667 H 0.90771 0.97914 0.03203 0.0
H668 H 0.06022 0.98976 0.98928 0.0
H669 H 0.03781 0.95351 0.96006 0.0
H670 H 0.06054 0.01823 0.06218 0.0
H671 H 0.03971 0.03663 0.10267 0.0
C672 C 0.08916 0.12174 0.29873 0.0
C673 C 0.10651 0.10406 0.32035 0.0
C674 C 0.11299 0.08848 0.21469 0.0
C675 C 0.09805 0.10824 0.1928 0.0
N676 N 0.07667 0.14785 0.21235 0.0
N677 N 0.13999 0.07502 0.29759 0.0
C678 C 0.08742 0.12605 0.2345 0.0
C679 C 0.12026 0.08908 0.2779 0.0
N680 N 0.07438 0.13438 0.33945 0.0
N681 N 0.11826 0.06748 0.17577 0.0
H682 H 0.14432 0.07229 0.34341 0.0
H683 H 0.1539 0.06783 0.26806 0.0
H684 H 0.11018 0.06378 0.13086 0.0
H685 H 0.12794 0.05145 0.18927 0.0
H686 H 0.05874 0.14474 0.32643 0.0
H687 H 0.07619 0.13269 0.38674 0.0
H688 H 0.07105 0.16362 0.23998 0.0
H689 H 0.07612 0.15206 0.16565 0.0
C690 C 0.42817 0.07295 0.80203 0.0
C691 C 0.40893 0.08534 0.83649 0.0
C692 C 0.37839 0.0836 0.74317 0.0
C693 C 0.40058 0.07614 0.70816 0.0
N694 N 0.44795 0.06598 0.70216 0.0
N695 N 0.35717 0.08636 0.84367 0.0
C696 C 0.42588 0.0715 0.73708 0.0
C697 C 0.38153 0.08631 0.80813 0.0
N698 N 0.44587 0.05913 0.83108 0.0
N699 N 0.35463 0.08867 0.71374 0.0
H700 H 0.35672 0.08306 0.89082 0.0
H701 H 0.33577 0.08503 0.82631 0.0
H702 H 0.35156 0.08601 0.66642 0.0
H703 H 0.3394 0.09755 0.73521 0.0
H704 H 0.45902 0.04822 0.80818 0.0
H705 H 0.44311 0.05351 0.87723 0.0
H706 H 0.46866 0.06551 0.7199 0.0
H707 H 0.44654 0.06413 0.65456 0.0
C708 C 0.35051 0.36405 0.24682 0.0
C709 C 0.34092 0.38826 0.26932 0.0
C710 C 0.33495 0.40266 0.16315 0.0
C711 C 0.34034 0.37602 0.14194 0.0
N712 N 0.35177 0.33016 0.16163 0.0
N713 N 0.32407 0.43127 0.24779 0.0
C714 C 0.34769 0.35636 0.18333 0.0
C715 C 0.33345 0.40799 0.22721 0.0
N716 N 0.36403 0.34965 0.28574 0.0
N717 N 0.33228 0.42342 0.12153 0.0
H718 H 0.3268 0.43941 0.2926 0.0
H719 H 0.31336 0.44266 0.22009 0.0
H720 H 0.33238 0.41949 0.0744 0.0
H721 H 0.33221 0.44536 0.13325 0.0
H722 H 0.37415 0.33387 0.27136 0.0
H723 H 0.36827 0.356 0.33177 0.0
H724 H 0.3539 0.31296 0.1897 0.0
H725 H 0.35083 0.3245 0.11512 0.0
C726 C 0.11416 0.47334 0.70307 0.0
C727 C 0.09019 0.45687 0.66141 0.0
C728 C 0.06506 0.42005 0.7428 0.0
C729 C 0.08675 0.43875 0.78671 0.0
N730 N 0.12937 0.4866 0.80888 0.0
N731 N 0.03921 0.41828 0.64598 0.0
C732 C 0.11056 0.46643 0.76685 0.0
C733 C 0.06456 0.43137 0.68266 0.0
N734 N 0.14115 0.49445 0.68134 0.0
N735 N 0.04623 0.39052 0.75663 0.0
H736 H 0.03767 0.42621 0.60213 0.0
H737 H 0.01854 0.40183 0.66158 0.0
H738 H 0.0463 0.38075 0.79911 0.0
H739 H 0.03255 0.37482 0.72416 0.0
H740 H 0.16069 0.50502 0.70857 0.0
H741 H 0.14513 0.49889 0.63483 0.0
H742 H 0.145 0.50855 0.7976 0.0
H743 H 0.1273 0.48267 0.85579 0.0
C744 C 0.56307 0.94686 0.80047 0.0
C745 C 0.58836 0.94126 0.77205 0.0
C746 C 0.59956 0.92124 0.86957 0.0
C747 C 0.57713 0.93073 0.8993 0.0
N748 N 0.5407 0.9571 0.89489 0.0
N749 N 0.63404 0.92761 0.78321 0.0
C750 C 0.55968 0.94473 0.86521 0.0
C751 C 0.60744 0.92946 0.80746 0.0
N752 N 0.54145 0.95291 0.76548 0.0
N753 N 0.61282 0.90368 0.9006 0.0
H754 H 0.64139 0.93402 0.73871 0.0
H755 H 0.65042 0.92245 0.80912 0.0
H756 H 0.60715 0.89706 0.94586 0.0
H757 H 0.62699 0.89323 0.87987 0.0
H758 H 0.52102 0.95426 0.78325 0.0
H759 H 0.54217 0.95327 0.7178 0.0
H760 H 0.53015 0.97078 0.87347 0.0
H761 H 0.53768 0.95598 0.94207 0.0
C762 C 0.6096 0.5591 0.23063 0.0
C763 C 0.6129 0.58715 0.20018 0.0
C764 C 0.62318 0.61483 0.29969 0.0
C765 C 0.62222 0.58731 0.32933 0.0
N766 N 0.62416 0.53597 0.31859 0.0
N767 N 0.63211 0.64318 0.2046 0.0
C768 C 0.61831 0.56023 0.2934 0.0
C769 C 0.62244 0.6155 0.23443 0.0
N770 N 0.59681 0.53113 0.20086 0.0
N771 N 0.62342 0.63994 0.33371 0.0
H772 H 0.63349 0.64449 0.15699 0.0
H773 H 0.64179 0.66459 0.22706 0.0
H774 H 0.62297 0.63991 0.3814 0.0
H775 H 0.62105 0.65954 0.31451 0.0
H776 H 0.591 0.50992 0.22305 0.0
H777 H 0.58918 0.52901 0.15561 0.0
H778 H 0.62424 0.5167 0.29321 0.0
H779 H 0.63266 0.53694 0.36299 0.0
C780 C 0.86038 0.52891 0.83539 0.0
C781 C 0.8728 0.51201 0.87434 0.0
C782 C 0.88659 0.4872 0.78428 0.0
C783 C 0.86939 0.49983 0.74603 0.0
N784 N 0.8541 0.54403 0.73171 0.0
N785 N 0.89529 0.47298 0.88719 0.0
C786 C 0.86021 0.524 0.77068 0.0
C787 C 0.88533 0.49065 0.84907 0.0
N788 N 0.84791 0.54899 0.86079 0.0
N789 N 0.90696 0.47521 0.75913 0.0
H790 H 0.89492 0.47528 0.93473 0.0
H791 H 0.90141 0.45449 0.87166 0.0
H792 H 0.91237 0.47712 0.71272 0.0
H793 H 0.92186 0.46791 0.78518 0.0
H794 H 0.83527 0.55961 0.83622 0.0
H795 H 0.84844 0.55343 0.9078 0.0
H796 H 0.8494 0.56351 0.74594 0.0
H797 H 0.85775 0.54346 0.68465 0.0
C798 C 0.89642 0.8935 0.23412 0.0
C799 C 0.88087 0.86778 0.19456 0.0
C800 C 0.8615 0.83564 0.28495 0.0
C801 C 0.87444 0.86168 0.32447 0.0
N802 N 0.91962 0.90844 0.33391 0.0
N803 N 0.83736 0.8188 0.18739 0.0
C804 C 0.89619 0.88902 0.29864 0.0
C805 C 0.86015 0.84008 0.22127 0.0
N806 N 0.90956 0.92271 0.21108 0.0
N807 N 0.85396 0.80632 0.30691 0.0
H808 H 0.8315 0.82345 0.14355 0.0
H809 H 0.82102 0.7991 0.20676 0.0
H810 H 0.85988 0.80241 0.35129 0.0
H811 H 0.84655 0.78661 0.27856 0.0
H812 H 0.91922 0.94241 0.23879 0.0
H813 H 0.90643 0.92784 0.16584 0.0
H814 H 0.93707 0.928 0.31691 0.0
H815 H 0.9245 0.9018 0.37698 0.0
C816 C 0.84619 0.87969 0.80281 0.0
C817 C 0.86396 0.86398 0.83057 0.0
C818 C 0.87295 0.84526 0.72869 0.0
C819 C 0.85284 0.85869 0.70212 0.0
N820 N 0.81304 0.88094 0.71901 0.0
N821 N 0.88684 0.8247 0.82113 0.0
C822 C 0.83681 0.873 0.74084 0.0
C823 C 0.87526 0.84468 0.79377 0.0
N824 N 0.84113 0.90359 0.8329 0.0
N825 N 0.88972 0.83294 0.69206 0.0
H826 H 0.8866 0.82207 0.86847 0.0
H827 H 0.89321 0.80831 0.79693 0.0
H828 H 0.88764 0.83191 0.64448 0.0
H829 H 0.90711 0.82574 0.70877 0.0
H830 H 0.83096 0.91778 0.81198 0.0
H831 H 0.85103 0.91222 0.8752 0.0
H832 H 0.79899 0.88848 0.74764 0.0
H833 H 0.80561 0.87784 0.67372 0.0
C834 C 0.59956 0.92971 0.37155 0.0
C835 C 0.57667 0.93796 0.40251 0.0
C836 C 0.5551 0.94524 0.30414 0.0
C837 C 0.57496 0.93248 0.2732 0.0
N838 N 0.6257 0.92871 0.27576 0.0
N839 N 0.53026 0.95013 0.39922 0.0
C840 C 0.60004 0.92916 0.30634 0.0
C841 C 0.55378 0.94479 0.36904 0.0
N842 N 0.62007 0.92118 0.40487 0.0
N843 N 0.54009 0.96082 0.27202 0.0
H844 H 0.52889 0.95067 0.44679 0.0
H845 H 0.51093 0.95164 0.377 0.0
H846 H 0.54453 0.966 0.22584 0.0
H847 H 0.5271 0.97261 0.29265 0.0
H848 H 0.63498 0.91123 0.38552 0.0
H849 H 0.62023 0.92162 0.45264 0.0
H850 H 0.64565 0.9285 0.29747 0.0
H851 H 0.62891 0.93342 0.2292 0.0
C852 C 0.58558 0.61097 0.79425 0.0
C853 C 0.61005 0.60665 0.8277 0.0
C854 C 0.63131 0.59571 0.73053 0.0
C855 C 0.60391 0.59431 0.69911 0.0
N856 N 0.55241 0.5963 0.70483 0.0
N857 N 0.65386 0.59001 0.82749 0.0
C858 C 0.58035 0.6009 0.73192 0.0
C859 C 0.6324 0.59782 0.79572 0.0
N860 N 0.5681 0.62591 0.82127 0.0
N861 N 0.65681 0.59638 0.69806 0.0
H862 H 0.65462 0.59012 0.87515 0.0
H863 H 0.66879 0.58051 0.80658 0.0
H864 H 0.65735 0.59659 0.65034 0.0
H865 H 0.67825 0.60006 0.71839 0.0
H866 H 0.55165 0.63203 0.79758 0.0
H867 H 0.57276 0.63551 0.8652 0.0
H868 H 0.53342 0.59766 0.72891 0.0
H869 H 0.54722 0.58824 0.65992 0.0
C870 C 0.89636 0.54893 0.2985 0.0
C871 C 0.87404 0.53356 0.25269 0.0
C872 C 0.84195 0.49951 0.33276 0.0
C873 C 0.86584 0.51291 0.37643 0.0
N874 N 0.919 0.54526 0.39632 0.0
N875 N 0.82787 0.48995 0.22553 0.0
C876 C 0.894 0.53603 0.35782 0.0
C877 C 0.84745 0.50757 0.26967 0.0
N878 N 0.91876 0.57708 0.28738 0.0
N879 N 0.81349 0.48014 0.35195 0.0
H880 H 0.83134 0.49463 0.17903 0.0
H881 H 0.80993 0.46903 0.23457 0.0
H882 H 0.80857 0.47443 0.3978 0.0
H883 H 0.79412 0.47211 0.32345 0.0
H884 H 0.93249 0.59104 0.32198 0.0
H885 H 0.92125 0.5881 0.24566 0.0
H886 H 0.941 0.55998 0.38292 0.0
H887 H 0.91873 0.53533 0.43899 0.0
C888 C 0.38427 0.04004 0.22933 0.0
C889 C 0.39807 0.07079 0.20793 0.0
C890 C 0.40188 0.0905 0.31371 0.0
C891 C 0.38458 0.05999 0.33445 0.0
N892 N 0.35367 0.00654 0.30787 0.0
N893 N 0.41531 0.12579 0.22792 0.0
C894 C 0.37433 0.03491 0.2912 0.0
C895 C 0.40558 0.09619 0.24968 0.0
N896 N 0.38145 0.01561 0.19083 0.0
N897 N 0.41603 0.11381 0.35497 0.0
H898 H 0.41772 0.13062 0.18129 0.0
H899 H 0.41814 0.14521 0.25554 0.0
H900 H 0.41503 0.11046 0.4021 0.0
H901 H 0.4314 0.13563 0.34231 0.0
H902 H 0.37482 -0.00728 0.20553 0.0
H903 H 0.38868 0.01863 0.14541 0.0
H904 H 0.34293 0.98874 0.27645 0.0
H905 H 0.34468 0.00162 0.35176 0.0
C906 C 0.36566 0.35039 0.7209 0.0
C907 C 0.35407 0.36503 0.76792 0.0
C908 C 0.33191 0.38905 0.69016 0.0
C909 C 0.34406 0.37489 0.64383 0.0
N910 N 0.37599 0.34645 0.61256 0.0
N911 N 0.32851 0.4002 0.79854 0.0
C912 C 0.36185 0.35671 0.65861 0.0
C913 C 0.33799 0.38509 0.75287 0.0
N914 N 0.38042 0.33046 0.73565 0.0
N915 N 0.31414 0.40583 0.67363 0.0
H916 H 0.33099 0.39648 0.84487 0.0
H917 H 0.31932 0.4174 0.79117 0.0
H918 H 0.3104 0.40997 0.62806 0.0
H919 H 0.30196 0.41457 0.70424 0.0
H920 H 0.38537 0.31577 0.70416 0.0
H921 H 0.38731 0.32787 0.77988 0.0
H922 H 0.39246 0.33626 0.61961 0.0
H923 H 0.37276 0.35008 0.56645 0.0
C924 C 0.10677 0.44205 0.20997 0.0
C925 C 0.10442 0.46244 0.16408 0.0
C926 C 0.10843 0.50226 0.24306 0.0
C927 C 0.10822 0.48095 0.29003 0.0
N928 N 0.10078 0.42802 0.31683 0.0
N929 N 0.09684 0.50974 0.13766 0.0
C930 C 0.10562 0.45011 0.273 0.0
C931 C 0.10359 0.49194 0.18085 0.0
N932 N 0.11121 0.41533 0.1931 0.0
N933 N 0.11476 0.53286 0.25675 0.0
H934 H 0.09181 0.50253 0.09229 0.0
H935 H 0.09262 0.52998 0.14811 0.0
H936 H 0.11669 0.54166 0.30098 0.0
H937 H 0.12055 0.55 0.22356 0.0
H938 H 0.11649 0.40094 0.22398 0.0
H939 H 0.1125 0.40909 0.14738 0.0
H940 H 0.0955 0.40452 0.30684 0.0
H941 H 0.09887 0.4325 0.36313 0.0
C942 C 0.06482 0.08495 0.72666 0.0
C943 C 0.08183 0.11247 0.69481 0.0
C944 C 0.09495 0.14027 0.79344 0.0
C945 C 0.07973 0.11221 0.82571 0.0
N946 N 0.06169 0.05602 0.81883 0.0
N947 N 0.09365 0.16768 0.70112 0.0
C948 C 0.06793 0.08397 0.79117 0.0
C949 C 0.09158 0.14072 0.72892 0.0
N950 N 0.04213 0.06141 0.69728 0.0
N951 N 0.11476 0.16603 0.82284 0.0
H952 H 0.08567 0.16774 0.6565 0.0
H953 H 0.09827 0.18858 0.72513 0.0
H954 H 0.12263 0.16544 0.86724 0.0
H955 H 0.12747 0.18627 0.79969 0.0
H956 H 0.02749 0.0418 0.71986 0.0
H957 H 0.03461 0.06425 0.65353 0.0
H958 H 0.05487 0.03508 0.79422 0.0
H959 H 0.06771 0.05422 0.86419 0.0
C960 C 0.01888 0.94326 0.25483 0.0
C961 C 0.03146 0.94776 0.19508 0.0
C962 C 0.08165 0.98174 0.23697 0.0
C963 C 0.06797 0.98026 0.29533 0.0
N964 N 0.02257 0.96208 0.35923 0.0
N965 N 0.07367 0.97462 0.12773 0.0
C966 C 0.03618 0.96194 0.30392 0.0
C967 C 0.06261 0.9679 0.18578 0.0
N968 N -0.00853 0.9195 0.26559 0.0
N969 N 0.11297 -0.00405 0.23065 0.0
H970 H 0.06013 0.96535 0.08928 0.0
H971 H 0.09508 -0.00843 0.11762 0.0
H972 H 0.1274 0.00797 0.26635 0.0
H973 H 0.12486 -0.00569 0.19097 0.0
H974 H 0.98315 0.91261 0.30943 0.0
H975 H 0.97874 0.90441 0.23131 0.0
H976 H -0.00129 0.95224 0.36632 0.0
H977 H 0.03508 0.9738 0.39703 0.0
C978 C 0.60078 0.08789 0.83486 0.0
C979 C 0.59325 0.08393 0.77208 0.0
C980 C 0.55156 0.10464 0.78862 0.0
C981 C 0.55916 0.1084 0.85176 0.0
N982 N 0.59292 0.10535 0.93433 0.0
N983 N 0.564 0.09083 0.68639 0.0
C984 C 0.58425 0.10076 0.8745 0.0
C985 C 0.56928 0.09301 0.74807 0.0
N986 N 0.62407 0.07934 0.85709 0.0
N987 N 0.52741 0.11238 0.76803 0.0
H988 H 0.57649 0.08215 0.65621 0.0
H989 H 0.54802 0.09818 0.66427 0.0
H990 H 0.515 0.12199 0.79664 0.0
H991 H 0.51914 0.10909 0.72335 0.0
H992 H 0.63033 0.08171 0.90328 0.0
H993 H 0.63685 0.06982 0.8292 0.0
H994 H 0.58226 0.11482 0.96703 0.0
H995 H 0.58226 0.11482 0.96703 0.0
C996 C 0.44049 0.55892 0.30298 0.0
C997 C 0.41862 0.52939 0.28493 0.0
C998 C 0.44409 0.53374 0.18485 0.0
C999 C 0.46612 0.5627 0.20391 0.0
N1000 N 0.48898 0.60117 0.28147 0.0
N1001 N 0.3993 0.48813 0.21012 0.0
C1002 C 0.46533 0.57476 0.26319 0.0
C1003 C 0.42057 0.5165 0.22632 0.0
N1004 N 0.43716 0.57214 0.35757 0.0
N1005 N 0.44528 0.52355 0.12619 0.0
H1006 H 0.38002 0.47658 0.23689 0.0
H1007 H 0.40068 0.47562 0.17099 0.0
H1008 H 0.46258 0.53575 0.09554 0.0
H1009 H 0.42894 0.50374 0.10671 0.0
H1010 H 0.4497 0.59513 0.36979 0.0
H1011 H 0.42096 0.56061 0.39046 0.0
H1012 H 0.49202 0.60981 0.32617 0.0
H1013 H 0.50716 0.61331 0.25243 0.0
C1014 C 0.93093 0.40649 0.73253 0.0
C1015 C 0.90315 0.38072 0.72165 0.0
C1016 C 0.92116 0.34993 0.79185 0.0
C1017 C 0.94583 0.37716 0.81136 0.0
N1018 N 0.97128 0.43334 0.80399 0.0
N1019 N 0.86992 0.32873 0.74639 0.0
C1020 C 0.95012 0.40599 0.78258 0.0
C1021 C 0.89776 0.35258 0.75276 0.0
N1022 N 0.93975 0.43116 0.69387 0.0
N1023 N 0.92082 0.32141 0.80874 0.0
H1024 H 0.8521 0.33033 0.71902 0.0
H1025 H 0.8636 0.30867 0.77253 0.0
H1026 H 0.93881 0.31864 0.83386 0.0
H1027 H 0.90475 0.30062 0.79188 0.0
H1028 H 0.96143 0.44892 0.69588 0.0
H1029 H 0.92692 0.43249 0.65579 0.0
H1030 H 0.97207 0.45501 0.78917 0.0
H1031 H -0.01386 0.43527 0.84039 0.0
C1032 C 0.92412 0.03255 0.78044 0.0
C1033 C 0.94147 0.0203 0.81873 0.0
C1034 C 0.91707 0.96901 0.77156 0.0
C1035 C 0.89841 0.98077 0.73519 0.0
N1036 N 0.89312 0.02565 0.68841 0.0
N1037 N 0.96314 0.98046 0.83317 0.0
C1038 C 0.90453 0.01321 0.73467 0.0
C1039 C 0.94091 0.98977 0.80845 0.0
N1040 N 0.92655 0.06277 0.78806 0.0
N1041 N 0.91108 0.93783 0.7737 0.0
H1042 H 0.98022 -0.00595 0.863 0.0
H1043 H 0.96625 0.96007 0.81937 0.0
H1044 H 0.89393 0.92163 0.74776 0.0
H1045 H 0.92154 0.92768 0.80469 0.0
H1046 H 0.91174 0.07217 0.76715 0.0
H1047 H 0.94301 0.07817 0.81719 0.0
H1048 H 0.89877 0.04945 0.68281 0.0
H1049 H 0.88084 0.01239 0.65148 0.0
C1050 C 0.43588 0.90622 0.33107 0.0
C1051 C 0.42783 0.90238 0.26827 0.0
C1052 C 0.3858 0.92221 0.28686 0.0
C1053 C 0.39456 0.92707 0.3492 0.0
N1054 N 0.43029 0.9284 0.42985 0.0
N1055 N 0.39879 0.91071 0.18371 0.0
C1056 C 0.42036 0.92044 0.37108 0.0
C1057 C 0.40373 0.9115 0.24538 0.0
N1058 N 0.45772 0.89528 0.35246 0.0
N1059 N 0.3599 0.92733 0.26802 0.0
H1060 H 0.41157 0.90279 0.1527 0.0
H1061 H 0.38372 0.91979 0.16291 0.0
H1062 H 0.34681 0.93559 0.29772 0.0
H1063 H 0.35033 0.92175 0.22445 0.0
H1064 H 0.4628 0.89452 0.39863 0.0
H1065 H 0.46949 0.88497 0.32385 0.0
H1066 H 0.4509 0.92746 0.44714 0.0
H1067 H 0.41887 0.93813 0.46042 0.0
C1068 C 0.50054 0.43493 0.68573 0.0
C1069 C 0.53222 0.44461 0.70262 0.0
C1070 C 0.51763 0.41348 0.79558 0.0
C1071 C 0.48646 0.40108 0.77448 0.0
N1072 N 0.4481 0.3999 0.69899 0.0
N1073 N 0.5717 0.44251 0.77145 0.0
C1074 C 0.47796 0.41191 0.71965 0.0
C1075 C 0.54095 0.43377 0.75723 0.0
N1076 N 0.4912 0.44684 0.63631 0.0
N1077 N 0.52457 0.40704 0.85333 0.0
H1078 H 0.58896 0.45863 0.74559 0.0
H1079 H 0.58016 0.43279 0.80671 0.0
H1080 H 0.50788 0.393 0.88307 0.0
H1081 H 0.54622 0.41764 0.87374 0.0
H1082 H 0.50616 0.46457 0.60978 0.0
H1083 H 0.50616 0.46457 0.60978 0.0
H1084 H 0.44089 0.4073 0.65878 0.0
H1085 H 0.43103 0.38182 0.72096 0.0
C1086 C 0.01718 0.61502 0.29499 0.0
C1087 C 0.02116 0.61076 0.23191 0.0
C1088 C 0.06804 0.59952 0.25381 0.0
C1089 C 0.06204 0.60054 0.31709 0.0
N1090 N 0.03035 0.60962 0.39843 0.0
N1091 N 0.04827 0.59586 0.15019 0.0
C1092 C 0.03671 0.60848 0.33783 0.0
C1093 C 0.04623 0.60242 0.21082 0.0
N1094 N -0.0057 0.62511 0.31436 0.0
N1095 N 0.09513 0.59664 0.23532 0.0
H1096 H 0.03249 0.5975 0.11767 0.0
H1097 H 0.06398 0.58639 0.13279 0.0
H1098 H 0.11165 0.59533 0.26653 0.0
H1099 H 0.10246 0.59834 0.18998 0.0
H1100 H -0.00965 0.62826 0.36062 0.0
H1101 H 0.98013 0.63115 0.28383 0.0
H1102 H 0.04314 0.60457 0.43327 0.0
H1103 H 0.04314 0.60457 0.43327 0.0
C1104 C 0.21505 0.02246 0.63155 0.0
C1105 C 0.18864 0.00696 0.59504 0.0
C1106 C 0.21579 0.97553 0.54743 0.0
C1107 C 0.24386 -0.00419 0.57371 0.0
N1108 N 0.27089 0.03879 0.64162 0.0
N1109 N 0.16282 0.96763 0.51925 0.0
C1110 C 0.24364 0.01891 0.61723 0.0
C1111 C 0.18841 0.98256 0.55438 0.0
N1112 N 0.21268 0.0412 0.67872 0.0
N1113 N 0.21548 0.94969 0.51563 0.0
H1114 H 0.14184 0.97095 0.52496 0.0
H1115 H 0.1627 0.95287 0.48269 0.0
H1116 H 0.23534 0.94413 0.50991 0.0
H1117 H 0.19527 0.93241 0.49995 0.0
H1118 H 0.2303 0.05145 0.71043 0.0
H1119 H 0.19174 0.04394 0.68928 0.0
H1120 H 0.27259 0.05827 0.6681 0.0
H1121 H 0.29235 0.03701 0.63236 0.0
C1122 C 0.43604 0.23104 0.10357 0.0
C1123 C 0.46219 0.23197 0.06817 0.0
C1124 C 0.47292 0.28607 0.04263 0.0
C1125 C 0.44573 0.28458 0.07503 0.0
N1126 N 0.40795 0.26065 0.15212 0.0
N1127 N 0.5111 0.26227 1.02298 0.0
C1128 C 0.42978 0.25875 0.11162 0.0
C1129 C 0.48267 0.26031 0.0445 0.0
N1130 N 0.41597 0.20345 0.12536 0.0
N1131 N 0.48788 0.3108 1.00608 0.0
H1132 H 0.51867 0.24349 0.02403 0.0
H1133 H 0.52816 0.28309 1.00994 0.0
H1134 H 0.48189 0.33048 1.00374 0.0
H1135 H 0.50521 0.31106 0.97527 0.0
H1136 H 0.39476 0.20095 0.14544 0.0
H1137 H 0.41943 0.18244 0.11989 0.0
H1138 H 0.39703 0.24344 0.1837 0.0
H1139 H 0.40313 0.28099 0.15781 0.0
C1140 C 0.26135 0.51206 0.43839 0.0
C1141 C 0.24954 0.48153 0.46201 0.0
C1142 C 0.203 0.48963 0.49655 0.0
C1143 C 0.21678 0.52161 0.48049 0.0
N1144 N 0.26135 0.56445 0.44641 0.0
N1145 N 0.21159 0.44244 0.5218 0.0
C1146 C 0.24679 0.53323 0.45478 0.0
C1147 C 0.22119 0.47072 0.49401 0.0
N1148 N 0.28572 0.52044 0.39857 0.0
N1149 N 0.17211 0.47659 0.50992 0.0
H1150 H 0.22362 0.42718 0.51814 0.0
H1151 H 0.19287 0.43514 0.55188 0.0
H1152 H 0.15708 0.48875 0.50926 0.0
H1153 H 0.16061 0.45277 0.5153 0.0
H1154 H 0.29369 0.54169 0.37626 0.0
H1155 H 0.29542 0.50469 0.38212 0.0
H1156 H 0.28444 0.57446 0.43287 0.0
H1157 H 0.25123 0.58059 0.45882 0.0
C1158 C 0.06712 0.2665 0.99048 0.0
C1159 C 0.04277 0.27742 0.97801 0.0
C1160 C 0.00498 0.2241 0.97741 0.0
C1161 C 0.02962 0.21307 0.9855 0.0
N1162 N 0.08457 0.22282 0.98931 0.0
N1163 N -0.01045 0.2671 0.94911 0.0
C1164 C 0.06086 0.23401 0.98912 0.0
C1165 C 0.01194 0.25634 0.96844 0.0
N1166 N 0.09597 0.28716 1.00528 0.0
N1167 N 0.97493 0.20386 0.98007 0.0
H1168 H -0.0063 0.29061 0.94221 0.0
H1169 H 0.96752 0.25263 0.935 0.0
H1170 H 0.969 0.18 0.98604 0.0
H1171 H 0.9559 0.21091 0.98125 0.0
H1172 H 0.11379 0.28052 1.0216 0.0
H1173 H 0.1015 0.31119 1.00569 0.0
H1174 H 0.10783 0.23689 0.98509 0.0
H1175 H 0.08096 0.19914 0.98867 0.0
C1176 C 0.75696 0.00767 0.55938 0.0
C1177 C 0.72755 -0.00427 0.5305 0.0
C1178 C 0.74834 0.96888 0.45434 0.0
C1179 C 0.77542 0.97569 0.49031 0.0
N1180 N 0.80535 0.00046 0.57971 0.0
N1181 N 0.69416 0.96293 0.45231 0.0
C1182 C 0.78002 -0.0047 0.54299 0.0
C1183 C 0.72303 0.97622 0.47769 0.0
N1184 N 0.76281 0.0309 0.60234 0.0
N1185 N 0.7468 0.95489 0.39833 0.0
H1186 H 0.67472 0.96698 0.46857 0.0
H1187 H 0.68893 0.94589 0.4181 0.0
H1188 H 0.76521 0.94933 0.38067 0.0
H1189 H 0.72882 0.95171 0.36726 0.0
H1190 H 0.78473 0.04262 0.62088 0.0
H1191 H 0.74633 0.04049 0.61501 0.0
H1192 H 0.80774 0.01103 0.62277 0.0
H1193 H 0.82322 -0.0075 0.56911 0.0
C1194 C 0.58807 0.76237 0.09988 0.0
C1195 C 0.56554 0.73192 0.09866 0.0
C1196 C 0.52483 0.75178 0.12772 0.0
C1197 C 0.54663 0.78234 0.12197 0.0
N1198 N 0.59844 0.81784 0.10071 0.0
N1199 N 0.51226 0.69692 0.10708 0.0
C1200 C 0.57821 0.78799 0.10799 0.0
C1201 C 0.53386 0.72638 0.11186 0.0
N1202 N 0.61881 0.7666 0.09423 0.0
N1203 N 0.4956 0.74717 0.14876 0.0
H1204 H 0.51797 0.67747 0.09726 0.0
H1205 H 0.48842 0.6918 0.10883 0.0
H1206 H 0.48805 0.7654 0.15951 0.0
H1207 H 0.47958 0.7255 0.16032 0.0
H1208 H 0.63673 0.7879 0.10095 0.0
H1209 H 0.62662 0.74823 0.08688 0.0
H1210 H 0.62079 0.8235 0.08343 0.0
H1211 H 0.59236 0.83724 0.10918 0.0
C1212 C 0.75409 0.48483 0.583 0.0
C1213 C 0.73967 0.45245 0.59494 0.0
C1214 C 0.68897 0.4574 0.60039 0.0
C1215 C 0.70361 0.48977 0.58968 0.0
N1216 N 0.74971 0.53563 0.5845 0.0
N1217 N 0.69504 0.40872 0.62523 0.0
C1218 C 0.7361 0.50391 0.58534 0.0
C1219 C 0.70756 0.43897 0.60709 0.0
N1220 N 0.78476 0.49719 0.56736 0.0
N1221 N 0.65731 0.44426 0.60209 0.0
H1222 H 0.70806 0.39441 0.62868 0.0
H1223 H 0.67239 0.39836 0.64091 0.0
H1224 H 0.64297 0.45723 0.59964 0.0
H1225 H 0.64508 0.42039 0.60261 0.0
H1226 H 0.79538 0.51952 0.55034 0.0
H1227 H 0.79941 0.48459 0.56719 0.0
H1228 H 0.77353 0.54752 0.5885 0.0
H1229 H 0.73701 0.55032 0.58525 0.0
C1230 C 0.94077 0.7133 0.059 0.0
C1231 C 0.90953 0.69213 0.05895 0.0
C1232 C 0.8908 0.73492 0.04315 0.0
C1233 C 0.92197 0.75615 0.04565 0.0
N1234 N 0.9765 0.76687 0.06115 0.0
N1235 N 0.85469 0.68203 0.05754 0.0
C1236 C 0.94694 0.74569 0.05499 0.0
C1237 C 0.88447 0.70273 0.05278 0.0
N1238 N 0.96456 0.70227 0.06167 0.0
N1239 N 0.86739 0.74561 0.03086 0.0
H1240 H 0.84936 0.65822 0.06299 0.0
H1241 H 0.83525 0.68836 0.05979 0.0
H1242 H 0.871 0.76915 0.02631 0.0
H1243 H 0.84459 0.73128 1.02187 0.0
H1244 H -0.01227 0.71575 0.05417 0.0
H1245 H 0.9611 0.67895 0.06841 0.0
H1246 H -0.00472 0.76134 0.07571 0.0
H1247 H 0.98223 0.79067 0.05478 0.0
loop_
_geom_bond_atom_site_label_1
_geom_bond_atom_site_label_2
_geom_bond_distance
_geom_bond_site_symmetry_2
_ccdc_geom_bond_type
C0 C1 1.351 . S
C0 N3 1.368 1_565 S
C0 H5 0.931 . S
C1 C0 1.351 . S
C1 N2 1.373 . S
C1 H29 0.930 . S
N2 C1 1.373 . S
N2 C4 1.340 1_565 S
N3 C0 1.368 1_545 S
N3 C4 1.321 . S
N3 Co6 2.135 . S
C4 N2 1.340 1_545 S
C4 N3 1.321 . S
C4 H28 0.930 . S
H5 C0 0.931 . S
Co6 N3 2.135 . S
Co6 N9 2.121 . S
Co6 O14 2.055 . S
Co6 O17 2.039 . S
Co6 N20 2.140 . S
C7 O8 1.227 . S
C7 O17 1.265 . S
O8 C7 1.227 . S
N9 Co6 2.121 . S
N9 C11 1.375 . S
N9 C12 1.313 . S
C10 C11 1.338 . S
C10 N13 1.377 . S
C10 H30 0.930 . S
C11 N9 1.375 . S
C11 C10 1.338 . S
C11 H15 0.931 . S
C12 N9 1.313 . S
C12 N13 1.344 . S
C12 H16 0.930 . S
N13 C10 1.377 . S
N13 C12 1.344 . S
O14 Co6 2.055 . S
O14 C18 1.253 . S
H15 C11 0.931 . S
H16 C12 0.930 . S
O17 Co6 2.039 . S
O17 C7 1.265 . S
C18 O14 1.253 . S
C18 O19 1.227 . S
O19 C18 1.227 . S
N20 Co6 2.140 . S
N20 C23 1.346 . S
N20 C24 1.345 . S
C21 C22 1.387 . S
C21 C25 1.391 . S
C22 C21 1.387 . S
C22 C23 1.369 . S
C22 H31 0.929 . S
C23 N20 1.346 . S
C23 C22 1.369 . S
C23 H26 0.928 . S
C24 N20 1.345 . S
C24 C25 1.371 . S
C24 H27 0.931 . S
C25 C21 1.391 . S
C25 C24 1.371 . S
C25 H32 0.930 . S
H26 C23 0.928 . S
H27 C24 0.931 . S
H28 C4 0.930 . S
H29 C1 0.930 . S
H30 C10 0.930 . S
H31 C22 0.929 . S
H32 C25 0.930 . S
C33 C34 1.351 . S
C33 N36 1.368 . S
C33 H38 0.931 . S
C34 C33 1.351 . S
C34 N35 1.373 . S
C34 H62 0.930 . S
N35 C34 1.373 . S
N35 C37 1.340 . S
N36 C33 1.368 . S
N36 C37 1.321 . S
N36 Co39 2.135 . S
C37 N35 1.340 . S
C37 N36 1.321 . S
C37 H61 0.930 . S
H38 C33 0.931 . S
Co39 N36 2.135 . S
Co39 N42 2.121 1_556 S
Co39 O47 2.055 . S
Co39 O50 2.039 . S
Co39 N53 2.140 . S
C40 O41 1.227 . S
C40 O50 1.265 . S
O41 C40 1.227 . S
N42 Co39 2.121 1_554 S
N42 C44 1.375 1_554 S
N42 C45 1.313 . S
C43 C44 1.338 1_554 S
C43 N46 1.377 . S
C43 H63 0.930 . S
C44 N42 1.375 1_556 S
C44 C43 1.338 1_556 S
C44 H48 0.931 . S
C45 N42 1.313 . S
C45 N46 1.344 . S
C45 H49 0.930 . S
N46 C43 1.377 . S
N46 C45 1.344 . S
O47 Co39 2.055 . S
O47 C51 1.253 1_556 S
H48 C44 0.931 . S
H49 C45 0.930 . S
O50 Co39 2.039 . S
O50 C40 1.265 . S
C51 O47 1.253 1_554 S
C51 O52 1.227 . S
O52 C51 1.227 . S
N53 Co39 2.140 . S
N53 C56 1.346 . S
N53 C57 1.345 1_556 S
C54 C55 1.387 . S
C54 C58 1.391 1_556 S
C55 C54 1.387 . S
C55 C56 1.369 . S
C55 H64 0.929 . S
C56 N53 1.346 . S
C56 C55 1.369 . S
C56 H59 0.928 . S
C57 N53 1.345 1_554 S
C57 C58 1.371 . S
C57 H60 0.931 . S
C58 C54 1.391 1_554 S
C58 C57 1.371 . S
C58 H65 0.930 . S
H59 C56 0.928 . S
H60 C57 0.931 . S
H61 C37 0.930 . S
H62 C34 0.930 . S
H63 C43 0.930 . S
H64 C55 0.929 . S
H65 C58 0.930 . S
C66 C67 1.351 . S
C66 N69 1.368 . S
C66 H71 0.931 . S
C67 C66 1.351 . S
C67 N68 1.373 . S
C67 H95 0.930 . S
N68 C67 1.373 . S
N68 C70 1.340 . S
N69 C66 1.368 . S
N69 C70 1.321 . S
N69 Co72 2.135 . S
C70 N68 1.340 . S
C70 N69 1.321 . S
C70 H94 0.930 . S
H71 C66 0.931 . S
Co72 N69 2.135 . S
Co72 N75 2.121 . S
Co72 O80 2.055 . S
Co72 O83 2.039 . S
Co72 N86 2.140 . S
C73 O74 1.227 . S
C73 O83 1.265 . S
O74 C73 1.227 . S
N75 Co72 2.121 . S
N75 C77 1.375 . S
N75 C78 1.313 . S
C76 C77 1.338 . S
C76 N79 1.377 . S
C76 H96 0.930 . S
C77 N75 1.375 . S
C77 C76 1.338 . S
C77 H81 0.931 . S
C78 N75 1.313 . S
C78 N79 1.344 . S
C78 H82 0.930 . S
N79 C76 1.377 . S
N79 C78 1.344 . S
O80 Co72 2.055 . S
O80 C84 1.253 . S
H81 C77 0.931 . S
H82 C78 0.930 . S
O83 Co72 2.039 . S
O83 C73 1.265 . S
C84 O80 1.253 . S
C84 O85 1.227 . S
O85 C84 1.227 . S
N86 Co72 2.140 . S
N86 C89 1.346 . S
N86 C90 1.345 . S
C87 C88 1.387 . S
C87 C91 1.391 . S
C88 C87 1.387 . S
C88 C89 1.369 . S
C88 H97 0.929 . S
C89 N86 1.346 . S
C89 C88 1.369 . S
C89 H92 0.928 . S
C90 N86 1.345 . S
C90 C91 1.371 . S
C90 H93 0.931 . S
C91 C87 1.391 . S
C91 C90 1.371 . S
C91 H98 0.930 . S
H92 C89 0.928 . S
H93 C90 0.931 . S
H94 C70 0.930 . S
H95 C67 0.930 . S
H96 C76 0.930 . S
H97 C88 0.929 . S
H98 C91 0.930 . S
C99 C100 1.351 . S
C99 N102 1.368 . S
C99 H104 0.931 . S
C100 C99 1.351 . S
C100 N101 1.373 . S
C100 H128 0.930 . S
N101 C100 1.373 . S
N101 C103 1.340 . S
N102 C99 1.368 . S
N102 C103 1.321 . S
N102 Co105 2.135 1_655 S
C103 N101 1.340 . S
C103 N102 1.321 . S
C103 H127 0.930 . S
H104 C99 0.931 . S
Co105 N102 2.135 1_455 S
Co105 N108 2.121 1_556 S
Co105 O113 2.055 1_455 S
Co105 O116 2.039 . S
Co105 N119 2.140 1_455 S
C106 O107 1.227 . S
C106 O116 1.265 . S
O107 C106 1.227 . S
N108 Co105 2.121 1_554 S
N108 C110 1.375 1_554 S
N108 C111 1.313 . S
C109 C110 1.338 1_554 S
C109 N112 1.377 . S
C109 H129 0.930 . S
C110 N108 1.375 1_556 S
C110 C109 1.338 1_556 S
C110 H114 0.931 . S
C111 N108 1.313 . S
C111 N112 1.344 . S
C111 H115 0.930 . S
N112 C109 1.377 . S
N112 C111 1.344 . S
O113 Co105 2.055 1_655 S
O113 C117 1.253 1_556 S
H114 C110 0.931 . S
H115 C111 0.930 . S
O116 Co105 2.039 . S
O116 C106 1.265 . S
C117 O113 1.253 1_554 S
C117 O118 1.227 . S
O118 C117 1.227 . S
N119 Co105 2.140 1_655 S
N119 C122 1.346 . S
N119 C123 1.345 1_556 S
C120 C121 1.387 . S
C120 C124 1.391 1_556 S
C121 C120 1.387 . S
C121 C122 1.369 . S
C121 H130 0.929 . S
C122 N119 1.346 . S
C122 C121 1.369 . S
C122 H125 0.928 . S
C123 N119 1.345 1_554 S
C123 C124 1.371 . S
C123 H126 0.931 1_655 S
C124 C120 1.391 1_554 S
C124 C123 1.371 . S
C124 H131 0.930 . S
H125 C122 0.928 . S
H126 C123 0.931 1_455 S
H127 C103 0.930 . S
H128 C100 0.930 . S
H129 C109 0.930 . S
H130 C121 0.929 . S
H131 C124 0.930 . S
C132 C133 1.351 . S
C132 N135 1.368 . S
C132 H137 0.931 . S
C133 C132 1.351 . S
C133 N134 1.373 . S
C133 H161 0.930 . S
N134 C133 1.373 . S
N134 C136 1.340 . S
N135 C132 1.368 . S
N135 C136 1.321 . S
N135 Co138 2.135 1_545 S
C136 N134 1.340 . S
C136 N135 1.321 . S
C136 H160 0.930 . S
H137 C132 0.931 . S
Co138 N135 2.135 1_565 S
Co138 N141 2.121 . S
Co138 O146 2.055 1_565 S
Co138 O149 2.039 . S
Co138 N152 2.140 1_565 S
C139 O140 1.227 . S
C139 O149 1.265 . S
O140 C139 1.227 . S
N141 Co138 2.121 . S
N141 C143 1.375 . S
N141 C144 1.313 . S
C142 C143 1.338 . S
C142 N145 1.377 . S
C142 H162 0.930 . S
C143 N141 1.375 . S
C143 C142 1.338 . S
C143 H147 0.931 . S
C144 N141 1.313 . S
C144 N145 1.344 . S
C144 H148 0.930 . S
N145 C142 1.377 . S
N145 C144 1.344 . S
O146 Co138 2.055 1_545 S
O146 C150 1.253 . S
H147 C143 0.931 . S
H148 C144 0.930 . S
O149 Co138 2.039 . S
O149 C139 1.265 . S
C150 O146 1.253 . S
C150 O151 1.227 . S
O151 C150 1.227 . S
N152 Co138 2.140 1_545 S
N152 C155 1.346 . S
N152 C156 1.345 . S
C153 C154 1.387 . S
C153 C157 1.391 . S
C154 C153 1.387 . S
C154 C155 1.369 . S
C154 H163 0.929 . S
C155 N152 1.346 . S
C155 C154 1.369 . S
C155 H158 0.928 . S
C156 N152 1.345 . S
C156 C157 1.371 . S
C156 H159 0.931 1_545 S
C157 C153 1.391 . S
C157 C156 1.371 . S
C157 H164 0.930 . S
H158 C155 0.928 . S
H159 C156 0.931 1_565 S
H160 C136 0.930 . S
H161 C133 0.930 . S
H162 C142 0.930 . S
H163 C154 0.929 . S
H164 C157 0.930 . S
C165 C166 1.351 . S
C165 N168 1.368 . S
C165 H170 0.931 . S
C166 C165 1.351 . S
C166 N167 1.373 . S
C166 H194 0.930 . S
N167 C166 1.373 . S
N167 C169 1.340 . S
N168 C165 1.368 . S
N168 C169 1.321 . S
N168 Co171 2.135 . S
C169 N167 1.340 . S
C169 N168 1.321 . S
C169 H193 0.930 . S
H170 C165 0.931 . S
Co171 N168 2.135 . S
Co171 N174 2.121 . S
Co171 O179 2.055 . S
Co171 O182 2.039 . S
Co171 N185 2.140 . S
C172 O173 1.227 . S
C172 O182 1.265 . S
O173 C172 1.227 . S
N174 Co171 2.121 . S
N174 C176 1.375 . S
N174 C177 1.313 1_554 S
C175 C176 1.338 1_556 S
C175 N178 1.377 . S
C175 H195 0.930 . S
C176 N174 1.375 . S
C176 C175 1.338 1_554 S
C176 H180 0.931 . S
C177 N174 1.313 1_556 S
C177 N178 1.344 . S
C177 H181 0.930 . S
N178 C175 1.377 . S
N178 C177 1.344 . S
O179 Co171 2.055 . S
O179 C183 1.253 1_554 S
H180 C176 0.931 . S
H181 C177 0.930 . S
O182 Co171 2.039 . S
O182 C172 1.265 . S
C183 O179 1.253 1_556 S
C183 O184 1.227 . S
O184 C183 1.227 . S
N185 Co171 2.140 . S
N185 C188 1.346 . S
N185 C189 1.345 . S
C186 C187 1.387 . S
C186 C190 1.396 . S
C187 C186 1.387 . S
C187 C188 1.369 . S
C187 H196 0.929 . S
C188 N185 1.346 . S
C188 C187 1.369 . S
C188 H191 0.928 . S
C189 N185 1.345 . S
C189 C190 1.372 . S
C189 H192 0.931 1_554 S
C190 C186 1.396 . S
C190 C189 1.372 . S
C190 H197 0.924 1_554 S
H191 C188 0.928 . S
H192 C189 0.931 1_556 S
H193 C169 0.930 . S
H194 C166 0.930 . S
H195 C175 0.930 . S
H196 C187 0.929 . S
H197 C190 0.924 1_556 S
C198 C199 1.351 . S
C198 N201 1.368 . S
C198 H203 0.931 . S
C199 C198 1.351 . S
C199 N200 1.373 . S
C199 H227 0.930 . S
N200 C199 1.373 . S
N200 C202 1.340 . S
N201 C198 1.368 . S
N201 C202 1.321 . S
N201 Co204 2.135 . S
C202 N200 1.340 . S
C202 N201 1.321 . S
C202 H226 0.930 . S
H203 C198 0.931 . S
Co204 N201 2.135 . S
Co204 N207 2.121 . S
Co204 O212 2.055 . S
Co204 O215 2.039 . S
Co204 N218 2.140 . S
C205 O206 1.227 . S
C205 O215 1.265 . S
O206 C205 1.227 . S
N207 Co204 2.121 . S
N207 C209 1.375 . S
N207 C210 1.313 . S
C208 C209 1.338 . S
C208 N211 1.377 . S
C208 H228 0.930 . S
C209 N207 1.375 . S
C209 C208 1.338 . S
C209 H213 0.931 . S
C210 N207 1.313 . S
C210 N211 1.344 . S
C210 H214 0.930 . S
N211 C208 1.377 . S
N211 C210 1.344 . S
O212 Co204 2.055 . S
O212 C216 1.253 . S
H213 C209 0.931 . S
H214 C210 0.930 . S
O215 Co204 2.039 . S
O215 C205 1.265 . S
C216 O212 1.253 . S
C216 O217 1.227 . S
O217 C216 1.227 . S
N218 Co204 2.140 . S
N218 C221 1.346 . S
N218 C222 1.345 . S
C219 C220 1.387 . S
C219 C223 1.391 . S
C220 C219 1.387 . S
C220 C221 1.369 . S
C220 H229 0.929 . S
C221 N218 1.346 . S
C221 C220 1.369 . S
C221 H224 0.928 . S
C222 N218 1.345 . S
C222 C223 1.371 . S
C222 H225 0.931 . S
C223 C219 1.391 . S
C223 C222 1.371 . S
C223 H230 0.930 . S
H224 C221 0.928 . S
H225 C222 0.931 . S
H226 C202 0.930 . S
H227 C199 0.930 . S
H228 C208 0.930 . S
H229 C220 0.929 . S
H230 C223 0.930 . S
C231 C232 1.351 . S
C231 N234 1.368 1_455 S
C231 H236 0.931 . S
C232 C231 1.351 . S
C232 N233 1.373 . S
C232 H260 0.930 . S
N233 C232 1.373 . S
N233 C235 1.340 1_455 S
N234 C231 1.368 1_655 S
N234 C235 1.321 . S
N234 Co237 2.135 . S
C235 N233 1.340 1_655 S
C235 N234 1.321 . S
C235 H259 0.930 . S
H236 C231 0.931 . S
Co237 N234 2.135 . S
Co237 N240 2.121 . S
Co237 O245 2.055 . S
Co237 O248 2.039 . S
Co237 N251 2.140 . S
C238 O239 1.227 . S
C238 O248 1.265 . S
O239 C238 1.227 . S
N240 Co237 2.121 . S
N240 C242 1.375 . S
N240 C243 1.313 1_554 S
C241 C242 1.338 1_556 S
C241 N244 1.377 . S
C241 H261 0.930 . S
C242 N240 1.375 . S
C242 C241 1.338 1_554 S
C242 H246 0.931 . S
C243 N240 1.313 1_556 S
C243 N244 1.344 . S
C243 H247 0.930 . S
N244 C241 1.377 . S
N244 C243 1.344 . S
O245 Co237 2.055 . S
O245 C249 1.253 1_554 S
H246 C242 0.931 . S
H247 C243 0.930 . S
O248 Co237 2.039 . S
O248 C238 1.265 . S
C249 O245 1.253 1_556 S
C249 O250 1.227 . S
O250 C249 1.227 . S
N251 Co237 2.140 . S
N251 C254 1.346 . S
N251 C255 1.345 . S
C252 C253 1.387 . S
C252 C256 1.391 1_554 S
C253 C252 1.387 . S
C253 C254 1.369 . S
C253 H262 0.929 . S
C254 N251 1.346 . S
C254 C253 1.369 . S
C254 H257 0.928 . S
C255 N251 1.345 . S
C255 C256 1.371 1_554 S
C255 H258 0.931 1_554 S
C256 C252 1.391 1_556 S
C256 C255 1.371 1_556 S
C256 H263 0.930 . S
H257 C254 0.928 . S
H258 C255 0.931 1_556 S
H259 C235 0.930 . S
H260 C232 0.930 . S
H261 C241 0.930 . S
H262 C253 0.929 . S
H263 C256 0.930 . S
C264 C265 1.351 . S
C264 N267 1.368 1_545 S
C264 H269 0.931 . S
C265 C264 1.351 . S
C265 N266 1.373 . S
C265 H293 0.930 . S
N266 C265 1.373 . S
N266 C268 1.340 1_545 S
N267 C264 1.368 1_565 S
N267 C268 1.321 . S
N267 Co270 2.135 . S
C268 N266 1.340 1_565 S
C268 N267 1.321 . S
C268 H292 0.930 . S
H269 C264 0.931 . S
Co270 N267 2.135 . S
Co270 N273 2.121 . S
Co270 O278 2.055 . S
Co270 O281 2.039 . S
Co270 N284 2.140 . S
C271 O272 1.227 . S
C271 O281 1.265 . S
O272 C271 1.227 . S
N273 Co270 2.121 . S
N273 C275 1.375 . S
N273 C276 1.313 . S
C274 C275 1.338 . S
C274 N277 1.377 . S
C274 H294 0.930 . S
C275 N273 1.375 . S
C275 C274 1.338 . S
C275 H279 0.931 . S
C276 N273 1.313 . S
C276 N277 1.344 . S
C276 H280 0.930 . S
N277 C274 1.377 . S
N277 C276 1.344 . S
O278 Co270 2.055 . S
O278 C282 1.253 . S
H279 C275 0.931 . S
H280 C276 0.930 . S
O281 Co270 2.039 . S
O281 C271 1.265 . S
C282 O278 1.253 . S
C282 O283 1.227 . S
O283 C282 1.227 . S
N284 Co270 2.140 . S
N284 C287 1.346 . S
N284 C288 1.345 . S
C285 C286 1.387 . S
C285 C289 1.391 . S
C286 C285 1.387 . S
C286 C287 1.369 . S
C286 H295 0.929 . S
C287 N284 1.346 . S
C287 C286 1.369 . S
C287 H290 0.928 . S
C288 N284 1.345 . S
C288 C289 1.371 . S
C288 H291 0.931 . S
C289 C285 1.391 . S
C289 C288 1.371 . S
C289 H296 0.930 . S
H290 C287 0.928 . S
H291 C288 0.931 . S
H292 C268 0.930 . S
H293 C265 0.930 . S
H294 C274 0.930 . S
H295 C286 0.929 . S
H296 C289 0.930 . S
C297 C298 1.351 . S
C297 N300 1.368 . S
C297 H302 0.931 . S
C298 C297 1.351 . S
C298 N299 1.373 . S
C298 H326 0.930 . S
N299 C298 1.373 . S
N299 C301 1.340 . S
N300 C297 1.368 . S
N300 C301 1.321 . S
N300 Co303 2.135 . S
C301 N299 1.340 . S
C301 N300 1.321 . S
C301 H325 0.930 . S
H302 C297 0.931 . S
Co303 N300 2.135 . S
Co303 N306 2.121 1_554 S
Co303 O311 2.055 . S
Co303 O314 2.039 . S
Co303 N317 2.140 . S
C304 O305 1.227 . S
C304 O314 1.265 . S
O305 C304 1.227 . S
N306 Co303 2.121 1_556 S
N306 C308 1.375 1_556 S
N306 C309 1.313 . S
C307 C308 1.338 1_556 S
C307 N310 1.377 . S
C307 H327 0.930 . S
C308 N306 1.375 1_554 S
C308 C307 1.338 1_554 S
C308 H312 0.931 . S
C309 N306 1.313 . S
C309 N310 1.344 . S
C309 H313 0.930 . S
N310 C307 1.377 . S
N310 C309 1.344 . S
O311 Co303 2.055 . S
O311 C315 1.253 1_554 S
H312 C308 0.931 . S
H313 C309 0.930 . S
O314 Co303 2.039 . S
O314 C304 1.265 . S
C315 O311 1.253 1_556 S
C315 O316 1.227 . S
O316 C315 1.227 . S
N317 Co303 2.140 . S
N317 C320 1.346 . S
N317 C321 1.345 1_554 S
C318 C319 1.387 . S
C318 C322 1.391 1_554 S
C319 C318 1.387 . S
C319 C320 1.369 . S
C319 H328 0.929 . S
C320 N317 1.346 . S
C320 C319 1.369 . S
C320 H323 0.928 . S
C321 N317 1.345 1_556 S
C321 C322 1.371 . S
C321 H324 0.931 . S
C322 C318 1.391 1_556 S
C322 C321 1.371 . S
C322 H329 0.930 . S
H323 C320 0.928 . S
H324 C321 0.931 . S
H325 C301 0.930 . S
H326 C298 0.930 . S
H327 C307 0.930 . S
H328 C319 0.929 . S
H329 C322 0.930 . S
C330 C331 1.351 . S
C330 N333 1.368 . S
C330 H335 0.931 . S
C331 C330 1.351 . S
C331 N332 1.373 . S
C331 H359 0.930 . S
N332 C331 1.373 . S
N332 C334 1.340 . S
N333 C330 1.368 . S
N333 C334 1.321 . S
N333 Co336 2.135 . S
C334 N332 1.340 . S
C334 N333 1.321 . S
C334 H358 0.930 . S
H335 C330 0.931 . S
Co336 N333 2.135 . S
Co336 N339 2.121 . S
Co336 O344 2.055 . S
Co336 O347 2.039 . S
Co336 N350 2.140 . S
C337 O338 1.227 . S
C337 O347 1.265 . S
O338 C337 1.227 . S
N339 Co336 2.121 . S
N339 C341 1.375 . S
N339 C342 1.313 . S
C340 C341 1.338 . S
C340 N343 1.377 . S
C340 H360 0.930 . S
C341 N339 1.375 . S
C341 C340 1.338 . S
C341 H345 0.931 . S
C342 N339 1.313 . S
C342 N343 1.344 . S
C342 H346 0.930 . S
N343 C340 1.377 . S
N343 C342 1.344 . S
O344 Co336 2.055 . S
O344 C348 1.253 . S
H345 C341 0.931 . S
H346 C342 0.930 . S
O347 Co336 2.039 . S
O347 C337 1.265 . S
C348 O344 1.253 . S
C348 O349 1.227 . S
O349 C348 1.227 . S
N350 Co336 2.140 . S
N350 C353 1.346 . S
N350 C354 1.345 . S
C351 C352 1.387 . S
C351 C355 1.391 . S
C352 C351 1.387 . S
C352 C353 1.369 . S
C352 H361 0.929 . S
C353 N350 1.346 . S
C353 C352 1.369 . S
C353 H356 0.928 . S
C354 N350 1.345 . S
C354 C355 1.371 . S
C354 H357 0.931 . S
C355 C351 1.391 . S
C355 C354 1.371 . S
C355 H362 0.930 . S
H356 C353 0.928 . S
H357 C354 0.931 . S
H358 C334 0.930 . S
H359 C331 0.930 . S
H360 C340 0.930 . S
H361 C352 0.929 . S
H362 C355 0.930 . S
C363 C364 1.351 . S
C363 N366 1.368 . S
C363 H368 0.931 . S
C364 C363 1.351 . S
C364 N365 1.373 . S
C364 H392 0.930 . S
N365 C364 1.373 . S
N365 C367 1.340 . S
N366 C363 1.368 . S
N366 C367 1.321 . S
N366 Co369 2.135 1_455 S
C367 N365 1.340 . S
C367 N366 1.321 . S
C367 H391 0.930 . S
H368 C363 0.931 . S
Co369 N366 2.135 1_655 S
Co369 N372 2.121 1_554 S
Co369 O377 2.055 1_655 S
Co369 O380 2.039 . S
Co369 N383 2.140 1_655 S
C370 O371 1.227 . S
C370 O380 1.265 . S
O371 C370 1.227 . S
N372 Co369 2.121 1_556 S
N372 C374 1.375 1_556 S
N372 C375 1.313 . S
C373 C374 1.338 1_556 S
C373 N376 1.377 . S
C373 H393 0.930 . S
C374 N372 1.375 1_554 S
C374 C373 1.338 1_554 S
C374 H378 0.931 . S
C375 N372 1.313 . S
C375 N376 1.344 . S
C375 H379 0.930 . S
N376 C373 1.377 . S
N376 C375 1.344 . S
O377 Co369 2.055 1_455 S
O377 C381 1.253 1_554 S
H378 C374 0.931 . S
H379 C375 0.930 . S
O380 Co369 2.039 . S
O380 C370 1.265 . S
C381 O377 1.253 1_556 S
C381 O382 1.227 . S
O382 C381 1.227 . S
N383 Co369 2.140 1_455 S
N383 C386 1.346 . S
N383 C387 1.345 1_554 S
C384 C385 1.387 . S
C384 C388 1.391 1_554 S
C385 C384 1.387 . S
C385 C386 1.369 . S
C385 H394 0.929 . S
C386 N383 1.346 . S
C386 C385 1.369 . S
C386 H389 0.928 . S
C387 N383 1.345 1_556 S
C387 C388 1.371 . S
C387 H390 0.931 1_455 S
C388 C384 1.391 1_556 S
C388 C387 1.371 . S
C388 H395 0.930 . S
H389 C386 0.928 . S
H390 C387 0.931 1_655 S
H391 C367 0.930 . S
H392 C364 0.930 . S
H393 C373 0.930 . S
H394 C385 0.929 . S
H395 C388 0.930 . S
C396 C397 1.351 . S
C396 N399 1.368 . S
C396 H401 0.931 . S
C397 C396 1.351 . S
C397 N398 1.373 . S
C397 H425 0.930 . S
N398 C397 1.373 . S
N398 C400 1.340 . S
N399 C396 1.368 . S
N399 C400 1.321 . S
N399 Co402 2.135 1_565 S
C400 N398 1.340 . S
C400 N399 1.321 . S
C400 H424 0.930 . S
H401 C396 0.931 . S
Co402 N399 2.135 1_545 S
Co402 N405 2.121 . S
Co402 O410 2.055 1_545 S
Co402 O413 2.039 . S
Co402 N416 2.140 1_545 S
C403 O404 1.227 . S
C403 O413 1.265 . S
O404 C403 1.227 . S
N405 Co402 2.121 . S
N405 C407 1.375 . S
N405 C408 1.313 . S
C406 C407 1.338 . S
C406 N409 1.377 . S
C406 H426 0.930 . S
C407 N405 1.375 . S
C407 C406 1.338 . S
C407 H411 0.931 . S
C408 N405 1.313 . S
C408 N409 1.344 . S
C408 H412 0.930 . S
N409 C406 1.377 . S
N409 C408 1.344 . S
O410 Co402 2.055 1_565 S
O410 C414 1.253 . S
H411 C407 0.931 . S
H412 C408 0.930 . S
O413 Co402 2.039 . S
O413 C403 1.265 . S
C414 O410 1.253 . S
C414 O415 1.227 . S
O415 C414 1.227 . S
N416 Co402 2.140 1_565 S
N416 C419 1.346 . S
N416 C420 1.345 . S
C417 C418 1.387 . S
C417 C421 1.391 . S
C418 C417 1.387 . S
C418 C419 1.369 . S
C418 H427 0.929 . S
C419 N416 1.346 . S
C419 C418 1.369 . S
C419 H422 0.928 . S
C420 N416 1.345 . S
C420 C421 1.371 . S
C420 H423 0.931 1_565 S
C421 C417 1.391 . S
C421 C420 1.371 . S
C421 H428 0.930 . S
H422 C419 0.928 . S
H423 C420 0.931 1_545 S
H424 C400 0.930 . S
H425 C397 0.930 . S
H426 C406 0.930 . S
H427 C418 0.929 . S
H428 C421 0.930 . S
C429 C430 1.351 . S
C429 N432 1.368 . S
C429 H434 0.931 . S
C430 C429 1.351 . S
C430 N431 1.373 . S
C430 H458 0.930 . S
N431 C430 1.373 . S
N431 C433 1.340 . S
N432 C429 1.368 . S
N432 C433 1.321 . S
N432 Co435 2.135 . S
C433 N431 1.340 . S
C433 N432 1.321 . S
C433 H457 0.930 . S
H434 C429 0.931 . S
Co435 N432 2.135 . S
Co435 N438 2.121 . S
Co435 O443 2.055 . S
Co435 O446 2.039 . S
Co435 N449 2.140 . S
C436 O437 1.227 . S
C436 O446 1.265 . S
O437 C436 1.227 . S
N438 Co435 2.121 . S
N438 C440 1.375 . S
N438 C441 1.313 1_556 S
C439 C440 1.338 1_554 S
C439 N442 1.377 . S
C439 H459 0.930 . S
C440 N438 1.375 . S
C440 C439 1.338 1_556 S
C440 H444 0.931 . S
C441 N438 1.313 1_554 S
C441 N442 1.344 . S
C441 H445 0.930 . S
N442 C439 1.377 . S
N442 C441 1.344 . S
O443 Co435 2.055 . S
O443 C447 1.253 1_556 S
H444 C440 0.931 . S
H445 C441 0.930 . S
O446 Co435 2.039 . S
O446 C436 1.265 . S
C447 O443 1.253 1_554 S
C447 O448 1.227 . S
O448 C447 1.227 . S
N449 Co435 2.140 . S
N449 C452 1.346 . S
N449 C453 1.345 . S
C450 C451 1.387 . S
C450 C454 1.396 . S
C451 C450 1.387 . S
C451 C452 1.369 . S
C451 H460 0.929 . S
C452 N449 1.346 . S
C452 C451 1.369 . S
C452 H455 0.928 . S
C453 N449 1.345 . S
C453 C454 1.372 . S
C453 H456 0.931 1_556 S
C454 C450 1.396 . S
C454 C453 1.372 . S
C454 H461 0.924 1_556 S
H455 C452 0.928 . S
H456 C453 0.931 1_554 S
H457 C433 0.930 . S
H458 C430 0.930 . S
H459 C439 0.930 . S
H460 C451 0.929 . S
H461 C454 0.924 1_554 S
C462 C463 1.351 . S
C462 N465 1.368 . S
C462 H467 0.931 . S
C463 C462 1.351 . S
C463 N464 1.373 . S
C463 H491 0.930 . S
N464 C463 1.373 . S
N464 C466 1.340 . S
N465 C462 1.368 . S
N465 C466 1.321 . S
N465 Co468 2.135 . S
C466 N464 1.340 . S
C466 N465 1.321 . S
C466 H490 0.930 . S
H467 C462 0.931 . S
Co468 N465 2.135 . S
Co468 N471 2.121 . S
Co468 O476 2.055 . S
Co468 O479 2.039 . S
Co468 N482 2.140 . S
C469 O470 1.227 . S
C469 O479 1.265 . S
O470 C469 1.227 . S
N471 Co468 2.121 . S
N471 C473 1.375 . S
N471 C474 1.313 . S
C472 C473 1.338 . S
C472 N475 1.377 . S
C472 H492 0.930 . S
C473 N471 1.375 . S
C473 C472 1.338 . S
C473 H477 0.931 . S
C474 N471 1.313 . S
C474 N475 1.344 . S
C474 H478 0.930 . S
N475 C472 1.377 . S
N475 C474 1.344 . S
O476 Co468 2.055 . S
O476 C480 1.253 . S
H477 C473 0.931 . S
H478 C474 0.930 . S
O479 Co468 2.039 . S
O479 C469 1.265 . S
C480 O476 1.253 . S
C480 O481 1.227 . S
O481 C480 1.227 . S
N482 Co468 2.140 . S
N482 C485 1.346 . S
N482 C486 1.345 . S
C483 C484 1.387 . S
C483 C487 1.391 . S
C484 C483 1.387 . S
C484 C485 1.369 . S
C484 H493 0.929 . S
C485 N482 1.346 . S
C485 C484 1.369 . S
C485 H488 0.928 . S
C486 N482 1.345 . S
C486 C487 1.371 . S
C486 H489 0.931 . S
C487 C483 1.391 . S
C487 C486 1.371 . S
C487 H494 0.930 . S
H488 C485 0.928 . S
H489 C486 0.931 . S
H490 C466 0.930 . S
H491 C463 0.930 . S
H492 C472 0.930 . S
H493 C484 0.929 . S
H494 C487 0.930 . S
C495 C496 1.351 . S
C495 N498 1.368 1_655 S
C495 H500 0.931 . S
C496 C495 1.351 . S
C496 N497 1.373 . S
C496 H524 0.930 . S
N497 C496 1.373 . S
N497 C499 1.340 1_655 S
N498 C495 1.368 1_455 S
N498 C499 1.321 . S
N498 Co501 2.135 . S
C499 N497 1.340 1_455 S
C499 N498 1.321 . S
C499 H523 0.930 . S
H500 C495 0.931 . S
Co501 N498 2.135 . S
Co501 N504 2.121 . S
Co501 O509 2.055 . S
Co501 O512 2.039 . S
Co501 N515 2.140 . S
C502 O503 1.227 . S
C502 O512 1.265 . S
O503 C502 1.227 . S
N504 Co501 2.121 . S
N504 C506 1.375 . S
N504 C507 1.313 1_556 S
C505 C506 1.338 1_554 S
C505 N508 1.377 . S
C505 H525 0.930 . S
C506 N504 1.375 . S
C506 C505 1.338 1_556 S
C506 H510 0.931 . S
C507 N504 1.313 1_554 S
C507 N508 1.344 . S
C507 H511 0.930 . S
N508 C505 1.377 . S
N508 C507 1.344 . S
O509 Co501 2.055 . S
O509 C513 1.253 1_556 S
H510 C506 0.931 . S
H511 C507 0.930 . S
O512 Co501 2.039 . S
O512 C502 1.265 . S
C513 O509 1.253 1_554 S
C513 O514 1.227 . S
O514 C513 1.227 . S
N515 Co501 2.140 . S
N515 C518 1.346 . S
N515 C519 1.345 . S
C516 C517 1.387 . S
C516 C520 1.391 1_556 S
C517 C516 1.387 . S
C517 C518 1.369 . S
C517 H526 0.929 . S
C518 N515 1.346 . S
C518 C517 1.369 . S
C518 H521 0.928 . S
C519 N515 1.345 . S
C519 C520 1.371 1_556 S
C519 H522 0.931 1_556 S
C520 C516 1.391 1_554 S
C520 C519 1.371 1_554 S
C520 H527 0.930 . S
H521 C518 0.928 . S
H522 C519 0.931 1_554 S
H523 C499 0.930 . S
H524 C496 0.930 . S
H525 C505 0.930 . S
H526 C517 0.929 . S
H527 C520 0.930 . S
C528 C529 1.363 1_545 S
C528 C534 1.379 1_655 S
C528 N536 1.356 . S
C529 C528 1.363 1_565 S
C529 C535 1.363 . S
C530 C531 1.363 1_565 S
C530 C535 1.379 1_455 S
C530 N537 1.356 . S
C531 C530 1.363 1_545 S
C531 C534 1.363 . S
N532 C534 1.356 . S
N532 H544 0.984 . S
N532 H545 0.985 . S
N533 C535 1.356 . S
N533 H538 0.984 . S
N533 H539 0.985 . S
C534 C528 1.379 1_455 S
C534 C531 1.363 . S
C534 N532 1.356 . S
C535 C529 1.363 . S
C535 C530 1.379 1_655 S
C535 N533 1.356 . S
N536 C528 1.356 . S
N536 H542 0.984 . S
N536 H543 0.984 . S
N537 C530 1.356 . S
N537 H540 0.984 . S
N537 H541 0.985 . S
H538 N533 0.984 . S
H539 N533 0.985 . S
H540 N537 0.984 . S
H541 N537 0.985 . S
H542 N536 0.984 . S
H543 N536 0.984 . S
H544 N532 0.984 . S
H545 N532 0.985 . S
C546 C547 1.363 . S
C546 C552 1.379 1_554 S
C546 N554 1.356 . S
C547 C546 1.363 . S
C547 C553 1.363 1_545 S
C548 C549 1.363 . S
C548 C553 1.379 1_556 S
C548 N555 1.356 . S
C549 C548 1.363 . S
C549 C552 1.363 1_565 S
N550 C552 1.356 1_565 S
N550 H562 0.984 1_565 S
N550 H563 0.985 . S
N551 C553 1.356 1_545 S
N551 H556 0.984 . S
N551 H557 0.985 1_545 S
C552 C546 1.379 1_556 S
C552 C549 1.363 1_545 S
C552 N550 1.356 1_545 S
C553 C547 1.363 1_565 S
C553 C548 1.379 1_554 S
C553 N551 1.356 1_565 S
N554 C546 1.356 . S
N554 H560 0.984 . S
N554 H561 0.984 . S
N555 C548 1.356 . S
N555 H558 0.984 . S
N555 H559 0.985 . S
H556 N551 0.984 . S
H557 N551 0.985 1_565 S
H558 N555 0.984 . S
H559 N555 0.985 . S
H560 N554 0.984 . S
H561 N554 0.984 . S
H562 N550 0.984 1_545 S
H563 N550 0.985 . S
C564 C565 1.363 . S
C564 C570 1.379 . S
C564 N572 1.356 . S
C565 C564 1.363 . S
C565 C571 1.363 . S
C566 C567 1.363 . S
C566 C571 1.379 . S
C566 N573 1.356 . S
C567 C566 1.363 . S
C567 C570 1.363 . S
N568 C570 1.356 . S
N568 H580 0.984 . S
N568 H581 0.985 . S
N569 C571 1.356 . S
N569 H574 0.984 . S
N569 H575 0.985 . S
C570 C564 1.379 . S
C570 C567 1.363 . S
C570 N568 1.356 . S
C571 C565 1.363 . S
C571 C566 1.379 . S
C571 N569 1.356 . S
N572 C564 1.356 . S
N572 H578 0.984 . S
N572 H579 0.984 . S
N573 C566 1.356 . S
N573 H576 0.984 . S
N573 H577 0.985 . S
H574 N569 0.984 . S
H575 N569 0.985 . S
H576 N573 0.984 . S
H577 N573 0.985 . S
H578 N572 0.984 . S
H579 N572 0.984 . S
H580 N568 0.984 . S
H581 N568 0.985 . S
C582 C583 1.363 1_655 S
C582 C588 1.379 . S
C582 N590 1.356 . S
C583 C582 1.363 1_455 S
C583 C589 1.363 1_556 S
C584 C585 1.363 1_455 S
C584 C589 1.379 . S
C584 N591 1.356 . S
C585 C584 1.363 1_655 S
C585 C588 1.363 1_554 S
N586 C588 1.356 . S
N586 H598 0.984 . S
N586 H599 0.985 1_556 S
N587 C589 1.356 . S
N587 H592 0.984 1_554 S
N587 H593 0.985 . S
C588 C582 1.379 . S
C588 C585 1.363 1_556 S
C588 N586 1.356 . S
C589 C583 1.363 1_554 S
C589 C584 1.379 . S
C589 N587 1.356 . S
N590 C582 1.356 . S
N590 H596 0.984 . S
N590 H597 0.984 1_655 S
N591 C584 1.356 . S
N591 H594 0.984 1_455 S
N591 H595 0.985 . S
H592 N587 0.984 1_556 S
H593 N587 0.985 . S
H594 N591 0.984 1_655 S
H595 N591 0.985 . S
H596 N590 0.984 . S
H597 N590 0.984 1_455 S
H598 N586 0.984 . S
H599 N586 0.985 1_554 S
C600 C601 1.363 . S
C600 C606 1.379 1_545 S
C600 N608 1.356 . S
C601 C600 1.363 . S
C601 C607 1.363 . S
C602 C603 1.363 . S
C602 C607 1.379 1_565 S
C602 N609 1.356 . S
C603 C602 1.363 . S
C603 C606 1.363 . S
N604 C606 1.356 . S
N604 H616 0.984 . S
N604 H617 0.985 . S
N605 C607 1.356 . S
N605 H610 0.984 . S
N605 H611 0.985 . S
C606 C600 1.379 1_565 S
C606 C603 1.363 . S
C606 N604 1.356 . S
C607 C601 1.363 . S
C607 C602 1.379 1_545 S
C607 N605 1.356 . S
N608 C600 1.356 . S
N608 H614 0.984 . S
N608 H615 0.984 . S
N609 C602 1.356 . S
N609 H612 0.984 . S
N609 H613 0.985 . S
H610 N605 0.984 . S
H611 N605 0.985 . S
H612 N609 0.984 . S
H613 N609 0.985 . S
H614 N608 0.984 . S
H615 N608 0.984 . S
H616 N604 0.984 . S
H617 N604 0.985 . S
C618 C619 1.363 1_554 S
C618 C624 1.379 . S
C618 N626 1.356 . S
C619 C618 1.363 1_556 S
C619 C625 1.363 . S
C620 C621 1.363 1_556 S
C620 C625 1.379 . S
C620 N627 1.356 . S
C621 C620 1.363 1_554 S
C621 C624 1.363 . S
N622 C624 1.356 . S
N622 H634 0.984 . S
N622 H635 0.985 . S
N623 C625 1.356 . S
N623 H628 0.984 . S
N623 H629 0.985 . S
C624 C618 1.379 . S
C624 C621 1.363 . S
C624 N622 1.356 . S
C625 C619 1.363 . S
C625 C620 1.379 . S
C625 N623 1.356 . S
N626 C618 1.356 . S
N626 H632 0.984 . S
N626 H633 0.984 . S
N627 C620 1.356 . S
N627 H630 0.984 . S
N627 H631 0.985 . S
H628 N623 0.984 . S
H629 N623 0.985 . S
H630 N627 0.984 . S
H631 N627 0.985 . S
H632 N626 0.984 . S
H633 N626 0.984 . S
H634 N622 0.984 . S
H635 N622 0.985 . S
C636 C637 1.363 . S
C636 C642 1.373 1_655 S
C636 N644 1.356 . S
C637 C636 1.363 . S
C637 C643 1.372 . S
C638 C639 1.363 . S
C638 C643 1.373 1_455 S
C638 N645 1.356 . S
C639 C638 1.363 . S
C639 C642 1.372 . S
N640 C642 1.356 . S
N640 H652 0.984 1_455 S
N640 H653 0.985 . S
N641 C643 1.356 . S
N641 H646 0.984 . S
N641 H647 0.985 1_655 S
C642 C636 1.373 1_455 S
C642 C639 1.372 . S
C642 N640 1.356 . S
C643 C637 1.372 . S
C643 C638 1.373 1_655 S
C643 N641 1.356 . S
N644 C636 1.356 . S
N644 H650 0.984 . S
N644 H651 0.984 . S
N645 C638 1.356 . S
N645 H648 0.984 . S
N645 H649 0.985 . S
H646 N641 0.984 . S
H647 N641 0.985 1_455 S
H648 N645 0.984 . S
H649 N645 0.985 . S
H650 N644 0.984 . S
H651 N644 0.984 . S
H652 N640 0.984 1_655 S
H653 N640 0.985 . S
C654 C655 1.363 1_455 S
C654 C660 1.379 1_565 S
C654 N662 1.356 . S
C655 C654 1.363 1_655 S
C655 C661 1.363 1_556 S
C656 C657 1.363 1_655 S
C656 C661 1.379 1_545 S
C656 N663 1.356 . S
C657 C656 1.363 1_455 S
C657 C660 1.363 1_554 S
N658 C660 1.356 . S
N658 H670 0.984 . S
N658 H671 0.985 . S
N659 C661 1.356 . S
N659 H664 0.984 . S
N659 H665 0.985 . S
C660 C654 1.379 1_545 S
C660 C657 1.363 1_556 S
C660 N658 1.356 . S
C661 C655 1.363 1_554 S
C661 C656 1.379 1_565 S
C661 N659 1.356 . S
N662 C654 1.356 . S
N662 H668 0.984 . S
N662 H669 0.984 . S
N663 C656 1.356 . S
N663 H666 0.984 . S
N663 H667 0.985 . S
H664 N659 0.984 . S
H665 N659 0.985 . S
H666 N663 0.984 . S
H667 N663 0.985 . S
H668 N662 0.984 . S
H669 N662 0.984 . S
H670 N658 0.984 . S
H671 N658 0.985 . S
C672 C673 1.363 . S
C672 C678 1.379 . S
C672 N680 1.356 . S
C673 C672 1.363 . S
C673 C679 1.363 . S
C674 C675 1.363 . S
C674 C679 1.379 . S
C674 N681 1.356 . S
C675 C674 1.363 . S
C675 C678 1.363 . S
N676 C678 1.356 . S
N676 H688 0.984 . S
N676 H689 0.985 . S
N677 C679 1.356 . S
N677 H682 0.984 . S
N677 H683 0.985 . S
C678 C672 1.379 . S
C678 C675 1.363 . S
C678 N676 1.356 . S
C679 C673 1.363 . S
C679 C674 1.379 . S
C679 N677 1.356 . S
N680 C672 1.356 . S
N680 H686 0.984 . S
N680 H687 0.984 . S
N681 C674 1.356 . S
N681 H684 0.984 . S
N681 H685 0.985 . S
H682 N677 0.984 . S
H683 N677 0.985 . S
H684 N681 0.984 . S
H685 N681 0.985 . S
H686 N680 0.984 . S
H687 N680 0.984 . S
H688 N676 0.984 . S
H689 N676 0.985 . S
C690 C691 1.363 . S
C690 C696 1.379 . S
C690 N698 1.356 . S
C691 C690 1.363 . S
C691 C697 1.363 . S
C692 C693 1.363 . S
C692 C697 1.379 . S
C692 N699 1.356 . S
C693 C692 1.363 . S
C693 C696 1.363 . S
N694 C696 1.356 . S
N694 H706 0.984 . S
N694 H707 0.985 . S
N695 C697 1.356 . S
N695 H700 0.984 . S
N695 H701 0.985 . S
C696 C690 1.379 . S
C696 C693 1.363 . S
C696 N694 1.356 . S
C697 C691 1.363 . S
C697 C692 1.379 . S
C697 N695 1.356 . S
N698 C690 1.356 . S
N698 H704 0.984 . S
N698 H705 0.984 . S
N699 C692 1.356 . S
N699 H702 0.984 . S
N699 H703 0.985 . S
H700 N695 0.984 . S
H701 N695 0.985 . S
H702 N699 0.984 . S
H703 N699 0.985 . S
H704 N698 0.984 . S
H705 N698 0.984 . S
H706 N694 0.984 . S
H707 N694 0.985 . S
C708 C709 1.363 . S
C708 C714 1.379 . S
C708 N716 1.356 . S
C709 C708 1.363 . S
C709 C715 1.363 . S
C710 C711 1.363 . S
C710 C715 1.379 . S
C710 N717 1.356 . S
C711 C710 1.363 . S
C711 C714 1.363 . S
N712 C714 1.356 . S
N712 H724 0.984 . S
N712 H725 0.985 . S
N713 C715 1.356 . S
N713 H718 0.984 . S
N713 H719 0.985 . S
C714 C708 1.379 . S
C714 C711 1.363 . S
C714 N712 1.356 . S
C715 C709 1.363 . S
C715 C710 1.379 . S
C715 N713 1.356 . S
N716 C708 1.356 . S
N716 H722 0.984 . S
N716 H723 0.984 . S
N717 C710 1.356 . S
N717 H720 0.984 . S
N717 H721 0.985 . S
H718 N713 0.984 . S
H719 N713 0.985 . S
H720 N717 0.984 . S
H721 N717 0.985 . S
H722 N716 0.984 . S
H723 N716 0.984 . S
H724 N712 0.984 . S
H725 N712 0.985 . S
C726 C727 1.363 . S
C726 C732 1.379 . S
C726 N734 1.356 . S
C727 C726 1.363 . S
C727 C733 1.363 . S
C728 C729 1.363 . S
C728 C733 1.379 . S
C728 N735 1.356 . S
C729 C728 1.363 . S
C729 C732 1.363 . S
N730 C732 1.356 . S
N730 H742 0.984 . S
N730 H743 0.985 . S
N731 C733 1.356 . S
N731 H736 0.984 . S
N731 H737 0.985 . S
C732 C726 1.379 . S
C732 C729 1.363 . S
C732 N730 1.356 . S
C733 C727 1.363 . S
C733 C728 1.379 . S
C733 N731 1.356 . S
N734 C726 1.356 . S
N734 H740 0.984 . S
N734 H741 0.984 . S
N735 C728 1.356 . S
N735 H738 0.984 . S
N735 H739 0.985 . S
H736 N731 0.984 . S
H737 N731 0.985 . S
H738 N735 0.984 . S
H739 N735 0.985 . S
H740 N734 0.984 . S
H741 N734 0.984 . S
H742 N730 0.984 . S
H743 N730 0.985 . S
C744 C745 1.363 . S
C744 C750 1.379 . S
C744 N752 1.356 . S
C745 C744 1.363 . S
C745 C751 1.363 . S
C746 C747 1.363 . S
C746 C751 1.379 . S
C746 N753 1.356 . S
C747 C746 1.363 . S
C747 C750 1.363 . S
N748 C750 1.356 . S
N748 H760 0.984 . S
N748 H761 0.985 . S
N749 C751 1.356 . S
N749 H754 0.984 . S
N749 H755 0.985 . S
C750 C744 1.379 . S
C750 C747 1.363 . S
C750 N748 1.356 . S
C751 C745 1.363 . S
C751 C746 1.379 . S
C751 N749 1.356 . S
N752 C744 1.356 . S
N752 H758 0.984 1_565 S
N752 H759 0.984 . S
N753 C746 1.356 . S
N753 H756 0.984 . S
N753 H757 0.985 . S
H754 N749 0.984 . S
H755 N749 0.985 . S
H756 N753 0.984 . S
H757 N753 0.985 . S
H758 N752 0.984 1_545 S
H759 N752 0.984 . S
H760 N748 0.984 . S
H761 N748 0.985 . S
C762 C763 1.363 . S
C762 C768 1.379 . S
C762 N770 1.356 . S
C763 C762 1.363 . S
C763 C769 1.363 . S
C764 C765 1.363 . S
C764 C769 1.379 . S
C764 N771 1.356 . S
C765 C764 1.363 . S
C765 C768 1.363 . S
N766 C768 1.356 . S
N766 H778 0.984 . S
N766 H779 0.985 . S
N767 C769 1.356 . S
N767 H772 0.984 . S
N767 H773 0.985 . S
C768 C762 1.379 . S
C768 C765 1.363 . S
C768 N766 1.356 . S
C769 C763 1.363 . S
C769 C764 1.379 . S
C769 N767 1.356 . S
N770 C762 1.356 . S
N770 H776 0.984 . S
N770 H777 0.984 . S
N771 C764 1.356 . S
N771 H774 0.984 . S
N771 H775 0.985 . S
H772 N767 0.984 . S
H773 N767 0.985 . S
H774 N771 0.984 . S
H775 N771 0.985 . S
H776 N770 0.984 . S
H777 N770 0.984 . S
H778 N766 0.984 . S
H779 N766 0.985 . S
C780 C781 1.363 . S
C780 C786 1.379 . S
C780 N788 1.356 . S
C781 C780 1.363 . S
C781 C787 1.363 . S
C782 C783 1.363 . S
C782 C787 1.379 . S
C782 N789 1.356 . S
C783 C782 1.363 . S
C783 C786 1.363 . S
N784 C786 1.356 . S
N784 H796 0.984 . S
N784 H797 0.985 . S
N785 C787 1.356 . S
N785 H790 0.984 . S
N785 H791 0.985 . S
C786 C780 1.379 . S
C786 C783 1.363 . S
C786 N784 1.356 . S
C787 C781 1.363 . S
C787 C782 1.379 . S
C787 N785 1.356 . S
N788 C780 1.356 . S
N788 H794 0.984 . S
N788 H795 0.984 . S
N789 C782 1.356 . S
N789 H792 0.984 . S
N789 H793 0.985 . S
H790 N785 0.984 . S
H791 N785 0.985 . S
H792 N789 0.984 . S
H793 N789 0.985 . S
H794 N788 0.984 . S
H795 N788 0.984 . S
H796 N784 0.984 . S
H797 N784 0.985 . S
C798 C799 1.363 . S
C798 C804 1.379 . S
C798 N806 1.356 . S
C799 C798 1.363 . S
C799 C805 1.363 . S
C800 C801 1.363 . S
C800 C805 1.379 . S
C800 N807 1.356 . S
C801 C800 1.363 . S
C801 C804 1.363 . S
N802 C804 1.356 . S
N802 H814 0.984 . S
N802 H815 0.985 . S
N803 C805 1.356 . S
N803 H808 0.984 . S
N803 H809 0.985 . S
C804 C798 1.379 . S
C804 C801 1.363 . S
C804 N802 1.356 . S
C805 C799 1.363 . S
C805 C800 1.379 . S
C805 N803 1.356 . S
N806 C798 1.356 . S
N806 H812 0.984 . S
N806 H813 0.984 . S
N807 C800 1.356 . S
N807 H810 0.984 . S
N807 H811 0.985 . S
H808 N803 0.984 . S
H809 N803 0.985 . S
H810 N807 0.984 . S
H811 N807 0.985 . S
H812 N806 0.984 . S
H813 N806 0.984 . S
H814 N802 0.984 . S
H815 N802 0.985 . S
C816 C817 1.363 . S
C816 C822 1.379 . S
C816 N824 1.356 . S
C817 C816 1.363 . S
C817 C823 1.363 . S
C818 C819 1.363 . S
C818 C823 1.379 . S
C818 N825 1.356 . S
C819 C818 1.363 . S
C819 C822 1.363 . S
N820 C822 1.356 . S
N820 H832 0.984 . S
N820 H833 0.985 . S
N821 C823 1.356 . S
N821 H826 0.984 . S
N821 H827 0.985 . S
C822 C816 1.379 . S
C822 C819 1.363 . S
C822 N820 1.356 . S
C823 C817 1.363 . S
C823 C818 1.379 . S
C823 N821 1.356 . S
N824 C816 1.356 . S
N824 H830 0.984 . S
N824 H831 0.984 . S
N825 C818 1.356 . S
N825 H828 0.984 . S
N825 H829 0.985 . S
H826 N821 0.984 . S
H827 N821 0.985 . S
H828 N825 0.984 . S
H829 N825 0.985 . S
H830 N824 0.984 . S
H831 N824 0.984 . S
H832 N820 0.984 . S
H833 N820 0.985 . S
C834 C835 1.363 . S
C834 C840 1.379 . S
C834 N842 1.356 . S
C835 C834 1.363 . S
C835 C841 1.363 . S
C836 C837 1.363 . S
C836 C841 1.379 . S
C836 N843 1.356 . S
C837 C836 1.363 . S
C837 C840 1.363 . S
N838 C840 1.356 . S
N838 H850 0.984 . S
N838 H851 0.985 . S
N839 C841 1.356 . S
N839 H844 0.984 . S
N839 H845 0.985 . S
C840 C834 1.379 . S
C840 C837 1.363 . S
C840 N838 1.356 . S
C841 C835 1.363 . S
C841 C836 1.379 . S
C841 N839 1.356 . S
N842 C834 1.356 . S
N842 H848 0.984 . S
N842 H849 0.984 . S
N843 C836 1.356 . S
N843 H846 0.984 . S
N843 H847 0.985 . S
H844 N839 0.984 . S
H845 N839 0.985 . S
H846 N843 0.984 . S
H847 N843 0.985 . S
H848 N842 0.984 . S
H849 N842 0.984 . S
H850 N838 0.984 . S
H851 N838 0.985 . S
C852 C853 1.363 . S
C852 C858 1.379 . S
C852 N860 1.356 . S
C853 C852 1.363 . S
C853 C859 1.363 . S
C854 C855 1.363 . S
C854 C859 1.379 . S
C854 N861 1.356 . S
C855 C854 1.363 . S
C855 C858 1.363 . S
N856 C858 1.356 . S
N856 H868 0.984 . S
N856 H869 0.985 . S
N857 C859 1.356 . S
N857 H862 0.984 . S
N857 H863 0.985 . S
C858 C852 1.379 . S
C858 C855 1.363 . S
C858 N856 1.356 . S
C859 C853 1.363 . S
C859 C854 1.379 . S
C859 N857 1.356 . S
N860 C852 1.356 . S
N860 H866 0.984 . S
N860 H867 0.984 . S
N861 C854 1.356 . S
N861 H864 0.984 . S
N861 H865 0.985 . S
H862 N857 0.984 . S
H863 N857 0.985 . S
H864 N861 0.984 . S
H865 N861 0.985 . S
H866 N860 0.984 . S
H867 N860 0.984 . S
H868 N856 0.984 . S
H869 N856 0.985 . S
C870 C871 1.363 . S
C870 C876 1.379 . S
C870 N878 1.356 . S
C871 C870 1.363 . S
C871 C877 1.363 . S
C872 C873 1.363 . S
C872 C877 1.379 . S
C872 N879 1.356 . S
C873 C872 1.363 . S
C873 C876 1.363 . S
N874 C876 1.356 . S
N874 H886 0.984 . S
N874 H887 0.985 . S
N875 C877 1.356 . S
N875 H880 0.984 . S
N875 H881 0.985 . S
C876 C870 1.379 . S
C876 C873 1.363 . S
C876 N874 1.356 . S
C877 C871 1.363 . S
C877 C872 1.379 . S
C877 N875 1.356 . S
N878 C870 1.356 . S
N878 H884 0.984 . S
N878 H885 0.984 . S
N879 C872 1.356 . S
N879 H882 0.984 . S
N879 H883 0.985 . S
H880 N875 0.984 . S
H881 N875 0.985 . S
H882 N879 0.984 . S
H883 N879 0.985 . S
H884 N878 0.984 . S
H885 N878 0.984 . S
H886 N874 0.984 . S
H887 N874 0.985 . S
C888 C889 1.363 . S
C888 C894 1.379 . S
C888 N896 1.356 . S
C889 C888 1.363 . S
C889 C895 1.363 . S
C890 C891 1.363 . S
C890 C895 1.379 . S
C890 N897 1.356 . S
C891 C890 1.363 . S
C891 C894 1.363 . S
N892 C894 1.356 . S
N892 H904 0.984 1_545 S
N892 H905 0.985 . S
N893 C895 1.356 . S
N893 H898 0.984 . S
N893 H899 0.985 . S
C894 C888 1.379 . S
C894 C891 1.363 . S
C894 N892 1.356 . S
C895 C889 1.363 . S
C895 C890 1.379 . S
C895 N893 1.356 . S
N896 C888 1.356 . S
N896 H902 0.984 . S
N896 H903 0.984 . S
N897 C890 1.356 . S
N897 H900 0.984 . S
N897 H901 0.985 . S
H898 N893 0.984 . S
H899 N893 0.985 . S
H900 N897 0.984 . S
H901 N897 0.985 . S
H902 N896 0.984 . S
H903 N896 0.984 . S
H904 N892 0.984 1_565 S
H905 N892 0.985 . S
C906 C907 1.363 . S
C906 C912 1.379 . S
C906 N914 1.356 . S
C907 C906 1.363 . S
C907 C913 1.363 . S
C908 C909 1.363 . S
C908 C913 1.379 . S
C908 N915 1.356 . S
C909 C908 1.363 . S
C909 C912 1.363 . S
N910 C912 1.356 . S
N910 H922 0.984 . S
N910 H923 0.985 . S
N911 C913 1.356 . S
N911 H916 0.984 . S
N911 H917 0.985 . S
C912 C906 1.379 . S
C912 C909 1.363 . S
C912 N910 1.356 . S
C913 C907 1.363 . S
C913 C908 1.379 . S
C913 N911 1.356 . S
N914 C906 1.356 . S
N914 H920 0.984 . S
N914 H921 0.984 . S
N915 C908 1.356 . S
N915 H918 0.984 . S
N915 H919 0.985 . S
H916 N911 0.984 . S
H917 N911 0.985 . S
H918 N915 0.984 . S
H919 N915 0.985 . S
H920 N914 0.984 . S
H921 N914 0.984 . S
H922 N910 0.984 . S
H923 N910 0.985 . S
C924 C925 1.363 . S
C924 C930 1.379 . S
C924 N932 1.356 . S
C925 C924 1.363 . S
C925 C931 1.363 . S
C926 C927 1.363 . S
C926 C931 1.379 . S
C926 N933 1.356 . S
C927 C926 1.363 . S
C927 C930 1.363 . S
N928 C930 1.356 . S
N928 H940 0.984 . S
N928 H941 0.985 . S
N929 C931 1.356 . S
N929 H934 0.984 . S
N929 H935 0.985 . S
C930 C924 1.379 . S
C930 C927 1.363 . S
C930 N928 1.356 . S
C931 C925 1.363 . S
C931 C926 1.379 . S
C931 N929 1.356 . S
N932 C924 1.356 . S
N932 H938 0.984 . S
N932 H939 0.984 . S
N933 C926 1.356 . S
N933 H936 0.984 . S
N933 H937 0.985 . S
H934 N929 0.984 . S
H935 N929 0.985 . S
H936 N933 0.984 . S
H937 N933 0.985 . S
H938 N932 0.984 . S
H939 N932 0.984 . S
H940 N928 0.984 . S
H941 N928 0.985 . S
C942 C943 1.363 . S
C942 C948 1.379 . S
C942 N950 1.356 . S
C943 C942 1.363 . S
C943 C949 1.363 . S
C944 C945 1.363 . S
C944 C949 1.379 . S
C944 N951 1.356 . S
C945 C944 1.363 . S
C945 C948 1.363 . S
N946 C948 1.356 . S
N946 H958 0.984 . S
N946 H959 0.985 . S
N947 C949 1.356 . S
N947 H952 0.984 . S
N947 H953 0.985 . S
C948 C942 1.379 . S
C948 C945 1.363 . S
C948 N946 1.356 . S
C949 C943 1.363 . S
C949 C944 1.379 . S
C949 N947 1.356 . S
N950 C942 1.356 . S
N950 H956 0.984 . S
N950 H957 0.984 . S
N951 C944 1.356 . S
N951 H954 0.984 . S
N951 H955 0.985 . S
H952 N947 0.984 . S
H953 N947 0.985 . S
H954 N951 0.984 . S
H955 N951 0.985 . S
H956 N950 0.984 . S
H957 N950 0.984 . S
H958 N946 0.984 . S
H959 N946 0.985 . S
C960 C961 1.363 . S
C960 C966 1.379 . S
C960 N968 1.356 1_455 S
C961 C960 1.363 . S
C961 C967 1.363 . S
C962 C963 1.363 . S
C962 C967 1.379 . S
C962 N969 1.356 . S
C963 C962 1.363 . S
C963 C966 1.363 . S
N964 C966 1.356 . S
N964 H976 0.984 . S
N964 H977 0.985 1_565 S
N965 C967 1.356 . S
N965 H970 0.984 . S
N965 H971 0.985 . S
C966 C960 1.379 . S
C966 C963 1.363 . S
C966 N964 1.356 . S
C967 C961 1.363 . S
C967 C962 1.379 . S
C967 N965 1.356 . S
N968 C960 1.356 1_655 S
N968 H974 0.984 . S
N968 H975 0.984 . S
N969 C962 1.356 . S
N969 H972 0.984 . S
N969 H973 0.985 . S
H970 N965 0.984 . S
H971 N965 0.985 . S
H972 N969 0.984 . S
H973 N969 0.985 . S
H974 N968 0.984 . S
H975 N968 0.984 . S
H976 N964 0.984 . S
H977 N964 0.985 1_545 S
C978 C979 1.363 . S
C978 C984 1.379 . S
C978 N986 1.356 . S
C979 C978 1.363 . S
C979 C985 1.363 . S
C980 C981 1.363 . S
C980 C985 1.379 . S
C980 N987 1.356 . S
C981 C980 1.363 . S
C981 C984 1.363 . S
N982 C984 1.356 . S
N982 H994 0.984 . S
N982 H995 0.985 . S
N983 C985 1.356 . S
N983 H988 0.984 . S
N983 H989 0.985 . S
C984 C978 1.379 . S
C984 C981 1.363 . S
C984 N982 1.356 . S
C985 C979 1.363 . S
C985 C980 1.379 . S
C985 N983 1.356 . S
N986 C978 1.356 . S
N986 H992 0.984 . S
N986 H993 0.984 . S
N987 C980 1.356 . S
N987 H990 0.984 . S
N987 H991 0.985 . S
H988 N983 0.984 . S
H989 N983 0.985 . S
H990 N987 0.984 . S
H991 N987 0.985 . S
H992 N986 0.984 . S
H993 N986 0.984 . S
H994 N982 0.984 . S
H995 N982 0.985 . S
C996 C997 1.363 . S
C996 C1002 1.379 . S
C996 N1004 1.356 . S
C997 C996 1.363 . S
C997 C1003 1.363 . S
C998 C999 1.363 . S
C998 C1003 1.379 . S
C998 N1005 1.356 . S
C999 C998 1.363 . S
C999 C1002 1.363 . S
N1000 C1002 1.356 . S
N1000 H1012 0.984 . S
N1000 H1013 0.985 . S
N1001 C1003 1.356 . S
N1001 H1006 0.984 . S
N1001 H1007 0.985 . S
C1002 C996 1.379 . S
C1002 C999 1.363 . S
C1002 N1000 1.356 . S
C1003 C997 1.363 . S
C1003 C998 1.379 . S
C1003 N1001 1.356 . S
N1004 C996 1.356 . S
N1004 H1010 0.984 . S
N1004 H1011 0.984 . S
N1005 C998 1.356 . S
N1005 H1008 0.984 . S
N1005 H1009 0.985 . S
H1006 N1001 0.984 . S
H1007 N1001 0.985 . S
H1008 N1005 0.984 . S
H1009 N1005 0.985 . S
H1010 N1004 0.984 . S
H1011 N1004 0.984 . S
H1012 N1000 0.984 . S
H1013 N1000 0.985 . S
C1014 C1015 1.363 . S
C1014 C1020 1.379 . S
C1014 N1022 1.356 . S
C1015 C1014 1.363 . S
C1015 C1021 1.363 . S
C1016 C1017 1.363 . S
C1016 C1021 1.379 . S
C1016 N1023 1.356 . S
C1017 C1016 1.363 . S
C1017 C1020 1.363 . S
N1018 C1020 1.356 . S
N1018 H1030 0.984 . S
N1018 H1031 0.985 . S
N1019 C1021 1.356 . S
N1019 H1024 0.984 . S
N1019 H1025 0.985 . S
C1020 C1014 1.379 . S
C1020 C1017 1.363 . S
C1020 N1018 1.356 . S
C1021 C1015 1.363 . S
C1021 C1016 1.379 . S
C1021 N1019 1.356 . S
N1022 C1014 1.356 . S
N1022 H1028 0.984 . S
N1022 H1029 0.984 . S
N1023 C1016 1.356 . S
N1023 H1026 0.984 . S
N1023 H1027 0.985 . S
H1024 N1019 0.984 . S
H1025 N1019 0.985 . S
H1026 N1023 0.984 . S
H1027 N1023 0.985 . S
H1028 N1022 0.984 . S
H1029 N1022 0.984 . S
H1030 N1018 0.984 . S
H1031 N1018 0.985 . S
C1032 C1033 1.363 . S
C1032 C1038 1.379 . S
C1032 N1040 1.356 . S
C1033 C1032 1.363 . S
C1033 C1039 1.363 . S
C1034 C1035 1.363 . S
C1034 C1039 1.379 . S
C1034 N1041 1.356 1_545 S
C1035 C1034 1.363 . S
C1035 C1038 1.363 . S
N1036 C1038 1.356 . S
N1036 H1048 0.984 . S
N1036 H1049 0.985 . S
N1037 C1039 1.356 . S
N1037 H1042 0.984 1_655 S
N1037 H1043 0.985 . S
C1038 C1032 1.379 . S
C1038 C1035 1.363 . S
C1038 N1036 1.356 . S
C1039 C1033 1.363 . S
C1039 C1034 1.379 . S
C1039 N1037 1.356 . S
N1040 C1032 1.356 . S
N1040 H1046 0.984 . S
N1040 H1047 0.984 . S
N1041 C1034 1.356 1_565 S
N1041 H1044 0.984 . S
N1041 H1045 0.985 . S
H1042 N1037 0.984 1_455 S
H1043 N1037 0.985 . S
H1044 N1041 0.984 . S
H1045 N1041 0.985 . S
H1046 N1040 0.984 . S
H1047 N1040 0.984 . S
H1048 N1036 0.984 . S
H1049 N1036 0.985 . S
C1050 C1051 1.363 . S
C1050 C1056 1.379 . S
C1050 N1058 1.356 . S
C1051 C1050 1.363 . S
C1051 C1057 1.363 . S
C1052 C1053 1.363 . S
C1052 C1057 1.379 . S
C1052 N1059 1.356 . S
C1053 C1052 1.363 . S
C1053 C1056 1.363 . S
N1054 C1056 1.356 . S
N1054 H1066 0.984 . S
N1054 H1067 0.985 . S
N1055 C1057 1.356 . S
N1055 H1060 0.984 . S
N1055 H1061 0.985 . S
C1056 C1050 1.379 . S
C1056 C1053 1.363 . S
C1056 N1054 1.356 . S
C1057 C1051 1.363 . S
C1057 C1052 1.379 . S
C1057 N1055 1.356 . S
N1058 C1050 1.356 . S
N1058 H1064 0.984 . S
N1058 H1065 0.984 . S
N1059 C1052 1.356 . S
N1059 H1062 0.984 . S
N1059 H1063 0.985 . S
H1060 N1055 0.984 . S
H1061 N1055 0.985 . S
H1062 N1059 0.984 . S
H1063 N1059 0.985 . S
H1064 N1058 0.984 . S
H1065 N1058 0.984 . S
H1066 N1054 0.984 . S
H1067 N1054 0.985 . S
C1068 C1069 1.363 . S
C1068 C1074 1.379 . S
C1068 N1076 1.356 . S
C1069 C1068 1.363 . S
C1069 C1075 1.363 . S
C1070 C1071 1.363 . S
C1070 C1075 1.379 . S
C1070 N1077 1.356 . S
C1071 C1070 1.363 . S
C1071 C1074 1.363 . S
N1072 C1074 1.356 . S
N1072 H1084 0.984 . S
N1072 H1085 0.985 . S
N1073 C1075 1.356 . S
N1073 H1078 0.984 . S
N1073 H1079 0.985 . S
C1074 C1068 1.379 . S
C1074 C1071 1.363 . S
C1074 N1072 1.356 . S
C1075 C1069 1.363 . S
C1075 C1070 1.379 . S
C1075 N1073 1.356 . S
N1076 C1068 1.356 . S
N1076 H1082 0.984 . S
N1076 H1083 0.984 . S
N1077 C1070 1.356 . S
N1077 H1080 0.984 . S
N1077 H1081 0.985 . S
H1078 N1073 0.984 . S
H1079 N1073 0.985 . S
H1080 N1077 0.984 . S
H1081 N1077 0.985 . S
H1082 N1076 0.984 . S
H1083 N1076 0.984 . S
H1084 N1072 0.984 . S
H1085 N1072 0.985 . S
C1086 C1087 1.363 . S
C1086 C1092 1.379 . S
C1086 N1094 1.356 . S
C1087 C1086 1.363 . S
C1087 C1093 1.363 . S
C1088 C1089 1.363 . S
C1088 C1093 1.379 . S
C1088 N1095 1.356 . S
C1089 C1088 1.363 . S
C1089 C1092 1.363 . S
N1090 C1092 1.356 . S
N1090 H1102 0.984 . S
N1090 H1103 0.985 . S
N1091 C1093 1.356 . S
N1091 H1096 0.984 . S
N1091 H1097 0.985 . S
C1092 C1086 1.379 . S
C1092 C1089 1.363 . S
C1092 N1090 1.356 . S
C1093 C1087 1.363 . S
C1093 C1088 1.379 . S
C1093 N1091 1.356 . S
N1094 C1086 1.356 . S
N1094 H1100 0.984 . S
N1094 H1101 0.984 . S
N1095 C1088 1.356 . S
N1095 H1098 0.984 . S
N1095 H1099 0.985 . S
H1096 N1091 0.984 . S
H1097 N1091 0.985 . S
H1098 N1095 0.984 . S
H1099 N1095 0.985 . S
H1100 N1094 0.984 . S
H1101 N1094 0.984 . S
H1102 N1090 0.984 . S
H1103 N1090 0.985 . S
C1104 C1105 1.363 . S
C1104 C1110 1.379 . S
C1104 N1112 1.356 . S
C1105 C1104 1.363 . S
C1105 C1111 1.363 1_545 S
C1106 C1107 1.363 . S
C1106 C1111 1.379 . S
C1106 N1113 1.356 . S
C1107 C1106 1.363 . S
C1107 C1110 1.363 1_565 S
N1108 C1110 1.356 . S
N1108 H1120 0.984 . S
N1108 H1121 0.985 1_545 S
N1109 C1111 1.356 . S
N1109 H1114 0.984 1_565 S
N1109 H1115 0.985 . S
C1110 C1104 1.379 . S
C1110 C1107 1.363 1_545 S
C1110 N1108 1.356 . S
C1111 C1105 1.363 1_565 S
C1111 C1106 1.379 . S
C1111 N1109 1.356 . S
N1112 C1104 1.356 . S
N1112 H1118 0.984 . S
N1112 H1119 0.984 . S
N1113 C1106 1.356 . S
N1113 H1116 0.984 . S
N1113 H1117 0.985 . S
H1114 N1109 0.984 1_545 S
H1115 N1109 0.985 . S
H1116 N1113 0.984 . S
H1117 N1113 0.985 . S
H1118 N1112 0.984 . S
H1119 N1112 0.984 . S
H1120 N1108 0.984 . S
H1121 N1108 0.985 1_565 S
C1122 C1123 1.363 1_554 S
C1122 C1128 1.379 . S
C1122 N1130 1.356 . S
C1123 C1122 1.363 1_556 S
C1123 C1129 1.363 . S
C1124 C1125 1.363 . S
C1124 C1129 1.379 . S
C1124 N1131 1.356 . S
C1125 C1124 1.363 . S
C1125 C1128 1.363 1_556 S
N1126 C1128 1.356 . S
N1126 H1138 0.984 . S
N1126 H1139 0.985 . S
N1127 C1129 1.356 . S
N1127 H1132 0.984 . S
N1127 H1133 0.985 . S
C1128 C1122 1.379 . S
C1128 C1125 1.363 1_554 S
C1128 N1126 1.356 . S
C1129 C1123 1.363 . S
C1129 C1124 1.379 . S
C1129 N1127 1.356 . S
N1130 C1122 1.356 . S
N1130 H1136 0.984 . S
N1130 H1137 0.984 . S
N1131 C1124 1.356 . S
N1131 H1134 0.984 . S
N1131 H1135 0.985 . S
H1132 N1127 0.984 . S
H1133 N1127 0.985 . S
H1134 N1131 0.984 . S
H1135 N1131 0.985 . S
H1136 N1130 0.984 . S
H1137 N1130 0.984 . S
H1138 N1126 0.984 . S
H1139 N1126 0.985 . S
C1140 C1141 1.363 . S
C1140 C1146 1.379 . S
C1140 N1148 1.356 . S
C1141 C1140 1.363 . S
C1141 C1147 1.363 . S
C1142 C1143 1.363 . S
C1142 C1147 1.379 . S
C1142 N1149 1.356 . S
C1143 C1142 1.363 . S
C1143 C1146 1.363 . S
N1144 C1146 1.356 . S
N1144 H1156 0.984 . S
N1144 H1157 0.985 . S
N1145 C1147 1.356 . S
N1145 H1150 0.984 . S
N1145 H1151 0.985 . S
C1146 C1140 1.379 . S
C1146 C1143 1.363 . S
C1146 N1144 1.356 . S
C1147 C1141 1.363 . S
C1147 C1142 1.379 . S
C1147 N1145 1.356 . S
N1148 C1140 1.356 . S
N1148 H1154 0.984 . S
N1148 H1155 0.984 . S
N1149 C1142 1.356 . S
N1149 H1152 0.984 . S
N1149 H1153 0.985 . S
H1150 N1145 0.984 . S
H1151 N1145 0.985 . S
H1152 N1149 0.984 . S
H1153 N1149 0.985 . S
H1154 N1148 0.984 . S
H1155 N1148 0.984 . S
H1156 N1144 0.984 . S
H1157 N1144 0.985 . S
C1158 C1159 1.363 1_454 S
C1158 C1164 1.379 . S
C1158 N1166 1.356 . S
C1159 C1158 1.363 1_656 S
C1159 C1165 1.363 . S
C1160 C1161 1.363 1_655 S
C1160 C1165 1.379 . S
C1160 N1167 1.351 1_655 S
C1161 C1160 1.363 1_455 S
C1161 C1164 1.363 1_556 S
N1162 C1164 1.356 . S
N1162 H1174 0.984 . S
N1162 H1175 0.985 . S
N1163 C1165 1.356 . S
N1163 H1168 0.984 . S
N1163 H1169 0.985 . S
C1164 C1158 1.379 . S
C1164 C1161 1.363 1_554 S
C1164 N1162 1.356 . S
C1165 C1159 1.363 . S
C1165 C1160 1.379 . S
C1165 N1163 1.356 . S
N1166 C1158 1.356 . S
N1166 H1172 0.984 . S
N1166 H1173 0.984 1_455 S
N1167 C1160 1.351 1_455 S
N1167 H1170 0.998 . S
N1167 H1171 0.976 1_455 S
H1168 N1163 0.984 . S
H1169 N1163 0.985 . S
H1170 N1167 0.998 . S
H1171 N1167 0.976 1_655 S
H1172 N1166 0.984 . S
H1173 N1166 0.984 1_655 S
H1174 N1162 0.984 . S
H1175 N1162 0.985 . S
C1176 C1177 1.363 . S
C1176 C1182 1.379 . S
C1176 N1184 1.356 . S
C1177 C1176 1.363 . S
C1177 C1183 1.363 1_545 S
C1178 C1179 1.363 . S
C1178 C1183 1.379 . S
C1178 N1185 1.356 . S
C1179 C1178 1.363 . S
C1179 C1182 1.363 1_565 S
N1180 C1182 1.356 . S
N1180 H1192 0.984 . S
N1180 H1193 0.985 1_545 S
N1181 C1183 1.356 . S
N1181 H1186 0.984 . S
N1181 H1187 0.985 . S
C1182 C1176 1.379 . S
C1182 C1179 1.363 1_545 S
C1182 N1180 1.356 . S
C1183 C1177 1.363 1_565 S
C1183 C1178 1.379 . S
C1183 N1181 1.356 . S
N1184 C1176 1.356 . S
N1184 H1190 0.984 . S
N1184 H1191 0.984 . S
N1185 C1178 1.356 . S
N1185 H1188 0.984 . S
N1185 H1189 0.985 . S
H1186 N1181 0.984 . S
H1187 N1181 0.985 . S
H1188 N1185 0.984 . S
H1189 N1185 0.985 . S
H1190 N1184 0.984 . S
H1191 N1184 0.984 . S
H1192 N1180 0.984 . S
H1193 N1180 0.985 1_565 S
C1194 C1195 1.363 1_556 S
C1194 C1200 1.379 . S
C1194 N1202 1.356 . S
C1195 C1194 1.363 1_554 S
C1195 C1201 1.363 . S
C1196 C1197 1.363 . S
C1196 C1201 1.379 . S
C1196 N1203 1.356 . S
C1197 C1196 1.363 . S
C1197 C1200 1.363 1_554 S
N1198 C1200 1.356 . S
N1198 H1210 0.984 . S
N1198 H1211 0.985 . S
N1199 C1201 1.356 . S
N1199 H1204 0.984 . S
N1199 H1205 0.985 . S
C1200 C1194 1.379 . S
C1200 C1197 1.363 1_556 S
C1200 N1198 1.356 . S
C1201 C1195 1.363 . S
C1201 C1196 1.379 . S
C1201 N1199 1.356 . S
N1202 C1194 1.356 . S
N1202 H1208 0.984 . S
N1202 H1209 0.984 . S
N1203 C1196 1.356 . S
N1203 H1206 0.984 . S
N1203 H1207 0.985 . S
H1204 N1199 0.984 . S
H1205 N1199 0.985 . S
H1206 N1203 0.984 . S
H1207 N1203 0.985 . S
H1208 N1202 0.984 . S
H1209 N1202 0.984 . S
H1210 N1198 0.984 . S
H1211 N1198 0.985 . S
C1212 C1213 1.363 . S
C1212 C1218 1.379 . S
C1212 N1220 1.356 . S
C1213 C1212 1.363 . S
C1213 C1219 1.363 . S
C1214 C1215 1.363 . S
C1214 C1219 1.379 . S
C1214 N1221 1.356 . S
C1215 C1214 1.363 . S
C1215 C1218 1.363 . S
N1216 C1218 1.356 . S
N1216 H1228 0.984 . S
N1216 H1229 0.985 . S
N1217 C1219 1.356 . S
N1217 H1222 0.984 . S
N1217 H1223 0.985 . S
C1218 C1212 1.379 . S
C1218 C1215 1.363 . S
C1218 N1216 1.356 . S
C1219 C1213 1.363 . S
C1219 C1214 1.379 . S
C1219 N1217 1.356 . S
N1220 C1212 1.356 . S
N1220 H1226 0.984 . S
N1220 H1227 0.984 . S
N1221 C1214 1.356 . S
N1221 H1224 0.984 . S
N1221 H1225 0.985 . S
H1222 N1217 0.984 . S
H1223 N1217 0.985 . S
H1224 N1221 0.984 . S
H1225 N1221 0.985 . S
H1226 N1220 0.984 . S
H1227 N1220 0.984 . S
H1228 N1216 0.984 . S
H1229 N1216 0.985 . S
C1230 C1231 1.363 1_556 S
C1230 C1236 1.379 . S
C1230 N1238 1.356 . S
C1231 C1230 1.363 1_554 S
C1231 C1237 1.363 1_455 S
C1232 C1233 1.363 . S
C1232 C1237 1.379 . S
C1232 N1239 1.356 . S
C1233 C1232 1.363 . S
C1233 C1236 1.363 1_654 S
N1234 C1236 1.356 . S
N1234 H1246 0.984 . S
N1234 H1247 0.985 1_455 S
N1235 C1237 1.356 . S
N1235 H1240 0.984 1_655 S
N1235 H1241 0.985 . S
C1236 C1230 1.379 . S
C1236 C1233 1.363 1_456 S
C1236 N1234 1.356 . S
C1237 C1231 1.363 1_655 S
C1237 C1232 1.379 . S
C1237 N1235 1.356 . S
N1238 C1230 1.356 . S
N1238 H1244 0.984 . S
N1238 H1245 0.984 . S
N1239 C1232 1.356 . S
N1239 H1242 0.984 . S
N1239 H1243 0.985 . S
H1240 N1235 0.984 1_455 S
H1241 N1235 0.985 . S
H1242 N1239 0.984 . S
H1243 N1239 0.985 . S
H1244 N1238 0.984 . S
H1245 N1238 0.984 . S
H1246 N1234 0.984 . S
H1247 N1234 0.985 1_655 S
C529 C282 1.302 . S
C531 C18 1.302 . S
C547 C51 2.080 . S
C549 C315 2.080 . S
C565 C348 1.301 . S
C567 C84 1.301 . S
C583 C381 1.411 . S
C585 C117 1.411 . S
C601 C150 1.411 . S
C603 C414 1.411 . S
C619 C183 1.301 . S
C621 C447 1.301 . S
C637 C216 2.080 . S
C639 C480 2.080 . S
C655 C249 1.302 . S
C657 C513 1.302 . S
C673 C7 1.757 . S
C675 N508 1.862 . S
C691 C40 1.782 . S
C693 N409 1.872 . S
C709 C73 1.771 . S
C711 N442 1.872 . S
C727 N475 1.932 . S
C729 C106 1.827 . S
C745 C139 1.829 . S
C747 N310 1.932 . S
C763 C172 1.771 . S
C765 N343 1.872 . S
C781 N376 1.873 . S
C783 C205 1.782 . S
C799 C238 1.757 . S
C801 N277 1.862 . S
C817 N244 1.862 . S
C819 C271 1.757 . S
C835 N145 1.873 . S
C837 C304 1.782 . S
C853 N178 1.872 . S
C855 C337 1.771 . S
C871 C370 1.829 . S
C873 N211 1.932 . S
C889 N46 1.932 . S
C891 C403 1.827 . S
C907 C436 1.771 . S
C909 N79 1.872 . S
C925 N112 1.873 . S
C927 C469 1.782 . S
C943 N13 1.862 . S
C945 C502 1.757 . S
C961 N233 0.818 . S
C963 N2 0.818 . S
C979 N134 0.739 . S
C981 N35 0.742 . S
C997 N68 0.828 . S
C999 N167 0.828 . S
C1015 N200 0.743 . S
C1017 N101 0.740 . S
C1033 N497 0.818 . S
C1035 N266 0.818 . S
C1051 N299 0.743 . S
C1053 N398 0.740 . S
C1069 N332 0.828 . S
C1071 N431 0.828 . S
C1087 N365 0.739 . S
C1089 N464 0.742 . S
C1105 C21 1.521 . S
C1107 C417 1.437 . S
C1123 C54 1.717 . S
C1125 C450 1.932 . S
C1141 C87 1.933 . S
C1143 C483 1.717 . S
C1159 C120 1.439 . S
C1161 C516 1.518 . S
C1177 C153 1.439 . S
C1179 C285 1.518 . S
C1195 C186 1.932 . S
C1197 C318 1.717 . S
C1213 C219 1.717 . S
C1215 C351 1.933 . S
C1231 C384 1.439 . S
C1233 C252 1.518 . S
