# Generated by pormake.
# Topology uot, (4)-cn, num edge types: 1
# Building blocks:
#     Node 0, Type 0, BuildingBlock: NAHDIM_clean_sbu_0, # of connection points: 4
#     Node 1, Type 0, BuildingBlock: NAHDIM_clean_sbu_0, # of connection points: 4
#     Node 2, Type 0, BuildingBlock: NAHDIM_clean_sbu_0, # of connection points: 4
#     Node 3, Type 0, BuildingBlock: NAHDIM_clean_sbu_0, # of connection points: 4
#     Node 4, Type 0, BuildingBlock: NAHDIM_clean_sbu_0, # of connection points: 4
#     Node 5, Type 0, BuildingBlock: NAHDIM_clean_sbu_0, # of connection points: 4
#     Node 6, Type 0, BuildingBlock: NAHDIM_clean_sbu_0, # of connection points: 4
#     Node 7, Type 0, BuildingBlock: NAHDIM_clean_sbu_0, # of connection points: 4
#     Node 8, Type 0, BuildingBlock: NAHDIM_clean_sbu_0, # of connection points: 4
#     Node 9, Type 0, BuildingBlock: NAHDIM_clean_sbu_0, # of connection points: 4
#     Node 10, Type 0, BuildingBlock: NAHDIM_clean_sbu_0, # of connection points: 4
#     Node 11, Type 0, BuildingBlock: NAHDIM_clean_sbu_0, # of connection points: 4
#     Node 12, Type 0, BuildingBlock: NAHDIM_clean_sbu_0, # of connection points: 4
#     Node 13, Type 0, BuildingBlock: NAHDIM_clean_sbu_0, # of connection points: 4
#     Node 14, Type 0, BuildingBlock: NAHDIM_clean_sbu_0, # of connection points: 4
#     Node 15, Type 0, BuildingBlock: NAHDIM_clean_sbu_0, # of connection points: 4
#     Edge 16, Type (0, 0), BuildingBlock: TEMPAE_clean_linker_10, # of connection points: 2
#     Edge 17, Type (0, 0), BuildingBlock: TEMPAE_clean_linker_10, # of connection points: 2
#     Edge 18, Type (0, 0), BuildingBlock: TEMPAE_clean_linker_10, # of connection points: 2
#     Edge 19, Type (0, 0), BuildingBlock: TEMPAE_clean_linker_10, # of connection points: 2
#     Edge 20, Type (0, 0), BuildingBlock: TEMPAE_clean_linker_10, # of connection points: 2
#     Edge 21, Type (0, 0), BuildingBlock: TEMPAE_clean_linker_10, # of connection points: 2
#     Edge 22, Type (0, 0), BuildingBlock: TEMPAE_clean_linker_10, # of connection points: 2
#     Edge 23, Type (0, 0), BuildingBlock: TEMPAE_clean_linker_10, # of connection points: 2
#     Edge 24, Type (0, 0), BuildingBlock: TEMPAE_clean_linker_10, # of connection points: 2
#     Edge 25, Type (0, 0), BuildingBlock: TEMPAE_clean_linker_10, # of connection points: 2
#     Edge 26, Type (0, 0), BuildingBlock: TEMPAE_clean_linker_10, # of connection points: 2
#     Edge 27, Type (0, 0), BuildingBlock: TEMPAE_clean_linker_10, # of connection points: 2
#     Edge 28, Type (0, 0), BuildingBlock: TEMPAE_clean_linker_10, # of connection points: 2
#     Edge 29, Type (0, 0), BuildingBlock: TEMPAE_clean_linker_10, # of connection points: 2
#     Edge 30, Type (0, 0), BuildingBlock: TEMPAE_clean_linker_10, # of connection points: 2
#     Edge 31, Type (0, 0), BuildingBlock: TEMPAE_clean_linker_10, # of connection points: 2
#     Edge 32, Type (0, 0), BuildingBlock: TEMPAE_clean_linker_10, # of connection points: 2
#     Edge 33, Type (0, 0), BuildingBlock: TEMPAE_clean_linker_10, # of connection points: 2
#     Edge 34, Type (0, 0), BuildingBlock: TEMPAE_clean_linker_10, # of connection points: 2
#     Edge 35, Type (0, 0), BuildingBlock: TEMPAE_clean_linker_10, # of connection points: 2
#     Edge 36, Type (0, 0), BuildingBlock: TEMPAE_clean_linker_10, # of connection points: 2
#     Edge 37, Type (0, 0), BuildingBlock: TEMPAE_clean_linker_10, # of connection points: 2
#     Edge 38, Type (0, 0), BuildingBlock: TEMPAE_clean_linker_10, # of connection points: 2
#     Edge 39, Type (0, 0), BuildingBlock: TEMPAE_clean_linker_10, # of connection points: 2
#     Edge 40, Type (0, 0), BuildingBlock: TEMPAE_clean_linker_10, # of connection points: 2
#     Edge 41, Type (0, 0), BuildingBlock: TEMPAE_clean_linker_10, # of connection points: 2
#     Edge 42, Type (0, 0), BuildingBlock: TEMPAE_clean_linker_10, # of connection points: 2
#     Edge 43, Type (0, 0), BuildingBlock: TEMPAE_clean_linker_10, # of connection points: 2
#     Edge 44, Type (0, 0), BuildingBlock: TEMPAE_clean_linker_10, # of connection points: 2
#     Edge 45, Type (0, 0), BuildingBlock: TEMPAE_clean_linker_10, # of connection points: 2
#     Edge 46, Type (0, 0), BuildingBlock: TEMPAE_clean_linker_10, # of connection points: 2
#     Edge 47, Type (0, 0), BuildingBlock: TEMPAE_clean_linker_10, # of connection points: 2
# Relax obj value: 0.173
# Max RMSD: 0.206
# Mean RMSD: 0.206
data_MOF--net-uot--node1-NAHDIM_clean_sbu_0--edge1-TEMPAE_clean_linker_10
_symmetry_space_group_name_H-M    P1
_symmetry_Int_Tables_number       1
_symmetry_cell_setting            triclinic
loop_
_symmetry_equiv_pos_as_xyz
'x, y, z'
_cell_length_a     44.449466
_cell_length_b     44.48029
_cell_length_c     39.606646
_cell_angle_alpha  89.990818
_cell_angle_beta   89.990677
_cell_angle_gamma 90.017452
loop_
_atom_site_label
_atom_site_type_symbol
_atom_site_fract_x
_atom_site_fract_y
_atom_site_fract_z
_atom_type_partial_charge
C0 C 0.28606 0.44996 0.29889 0.0
O1 O 0.28776 0.47187 0.32105 0.0
O2 O 0.18942 0.43241 0.29716 0.0
Zn3 Zn 0.22239 0.46315 0.30107 0.0
O4 O 0.22538 0.47428 0.35012 0.0
C5 C 0.19812 0.49754 0.24559 0.0
O6 O 0.19189 0.47075 0.23349 0.0
O7 O 0.26069 0.44352 0.28601 0.0
C8 C 0.21146 0.49678 0.36222 0.0
O9 O 0.19552 0.51388 0.34194 0.0
C10 C 0.16183 0.43967 0.29894 0.0
O11 O 0.15452 0.46807 0.30298 0.0
O12 O 0.21227 0.49965 0.27336 0.0
C13 C 0.45623 0.70346 0.71798 0.0
O14 O 0.47911 0.70025 0.69728 0.0
O15 O 0.44387 0.8015 0.7189 0.0
Zn16 Zn 0.47144 0.76621 0.71242 0.0
O17 O 0.47891 0.76175 0.66269 0.0
C18 C 0.51136 0.78983 0.76265 0.0
O19 O 0.48582 0.79776 0.77678 0.0
O20 O 0.45021 0.72946 0.72939 0.0
C21 C 0.48373 0.78511 0.64504 0.0
O22 O 0.48439 0.81148 0.65998 0.0
C23 C 0.41921 0.80309 0.70275 0.0
O24 O 0.41184 0.78117 0.68211 0.0
O25 O 0.51073 0.77452 0.73559 0.0
C26 C 0.71125 0.55063 0.28881 0.0
O27 O 0.71028 0.52668 0.30822 0.0
O28 O 0.80905 0.56511 0.27807 0.0
Zn29 Zn 0.77458 0.53708 0.28708 0.0
O30 O 0.77505 0.5277 0.33682 0.0
C31 C 0.79655 0.49908 0.23371 0.0
O32 O 0.80649 0.52478 0.22174 0.0
O33 O 0.73616 0.55828 0.27565 0.0
C34 C 0.7779 0.50121 0.34839 0.0
O35 O 0.78002 0.47853 0.32728 0.0
C36 C 0.81235 0.58928 0.29476 0.0
O37 O 0.79254 0.5962 0.31812 0.0
O38 O 0.78074 0.49911 0.26043 0.0
C39 C 0.54917 0.2966 0.69999 0.0
O40 O 0.52921 0.29719 0.67554 0.0
O41 O 0.56646 0.20107 0.70911 0.0
Zn42 Zn 0.53516 0.23287 0.70188 0.0
O43 O 0.52605 0.23293 0.65223 0.0
C44 C 0.49762 0.20668 0.75414 0.0
O45 O 0.52352 0.19964 0.76801 0.0
O46 O 0.55357 0.27217 0.71586 0.0
C47 C 0.49993 0.23823 0.64068 0.0
O48 O 0.47813 0.24513 0.6617 0.0
C49 C 0.56072 0.17357 0.70339 0.0
O50 O 0.53359 0.16588 0.69342 0.0
O51 O 0.49742 0.22214 0.72716 0.0
C52 C 0.27482 0.57828 0.68028 0.0
O53 O 0.26003 0.58775 0.65361 0.0
O54 O 0.19065 0.57006 0.69369 0.0
Zn55 Zn 0.22382 0.54147 0.68091 0.0
O56 O 0.22538 0.53748 0.63047 0.0
C57 C 0.20807 0.49794 0.73176 0.0
O58 O 0.21303 0.52059 0.75232 0.0
O59 O 0.26365 0.55705 0.69773 0.0
C60 C 0.20367 0.52551 0.61454 0.0
O61 O 0.18027 0.51568 0.63155 0.0
C62 C 0.18192 0.59178 0.67528 0.0
O63 O 0.19547 0.59689 0.64637 0.0
O64 O 0.21295 0.50134 0.7004 0.0
C65 C 0.57675 0.72498 0.33072 0.0
O66 O 0.58784 0.74252 0.35435 0.0
O67 O 0.57337 0.80417 0.31817 0.0
Zn68 Zn 0.5403 0.77499 0.32894 0.0
O69 O 0.53377 0.77499 0.37914 0.0
C70 C 0.50209 0.7944 0.27407 0.0
O71 O 0.52577 0.78798 0.25557 0.0
O72 O 0.55381 0.73391 0.31441 0.0
C73 C 0.50781 0.77247 0.39225 0.0
O74 O 0.48426 0.76956 0.37248 0.0
C75 C 0.57369 0.82996 0.33191 0.0
O76 O 0.55226 0.83705 0.35334 0.0
O77 O 0.50288 0.78927 0.30561 0.0
C78 C 0.73497 0.41743 0.67233 0.0
O79 O 0.7532 0.40458 0.65053 0.0
O80 O 0.81452 0.42683 0.67694 0.0
Zn81 Zn 0.78222 0.45776 0.66776 0.0
O82 O 0.77814 0.46373 0.61774 0.0
C83 C 0.7957 0.50066 0.72075 0.0
O84 O 0.78661 0.47901 0.74089 0.0
O85 O 0.74266 0.44243 0.68519 0.0
C86 C 0.80077 0.46949 0.59925 0.0
O87 O 0.82747 0.4717 0.61325 0.0
C88 C 0.84123 0.43481 0.68418 0.0
O89 O 0.84783 0.46358 0.68532 0.0
O90 O 0.79423 0.49689 0.68901 0.0
C91 C 0.41954 0.2721 0.31934 0.0
O92 O 0.40879 0.25299 0.3416 0.0
O93 O 0.43154 0.1936 0.31068 0.0
Zn94 Zn 0.46134 0.22666 0.32084 0.0
O95 O 0.46765 0.23037 0.37096 0.0
C96 C 0.50456 0.2143 0.26755 0.0
O97 O 0.48244 0.22189 0.24726 0.0
O98 O 0.44415 0.2658 0.30464 0.0
C99 C 0.46117 0.20972 0.39191 0.0
O100 O 0.45007 0.18422 0.38079 0.0
C101 C 0.44035 0.16695 0.30467 0.0
O102 O 0.46927 0.16089 0.30565 0.0
O103 O 0.50081 0.21638 0.29926 0.0
C104 C 0.77015 0.93447 0.76886 0.0
O105 O 0.74571 0.92812 0.7516 0.0
O106 O 0.69625 0.93736 0.79992 0.0
Zn107 Zn 0.72845 0.96763 0.81015 0.0
O108 O 0.73074 0.97206 0.86037 0.0
C109 C 0.70855 0.01054 0.75983 0.0
O110 O 0.71281 0.98826 0.73859 0.0
O111 O 0.76834 0.95264 0.79353 0.0
C112 C 0.7081 0.98239 0.87611 0.0
O113 O 0.68403 0.99012 0.85891 0.0
C114 C 0.69484 0.91237 0.81538 0.0
O115 O 0.71537 0.9059 0.83811 0.0
O116 O 0.71556 0.00709 0.79066 0.0
C117 C 0.92158 0.21948 0.19016 0.0
O118 O 0.91741 0.23154 0.16026 0.0
O119 O 0.93015 0.30382 0.19873 0.0
Zn120 Zn 0.95926 0.26965 0.19212 0.0
O121 O 0.96822 0.2655 0.14268 0.0
C122 C 0.99795 0.29245 0.24465 0.0
O123 O 0.97291 0.29303 0.26228 0.0
O124 O 0.94053 0.23152 0.21003 0.0
C125 C 0.97664 0.28848 0.12615 0.0
O126 O 0.9796 0.31426 0.142 0.0
C127 C 0.90924 0.31041 0.17812 0.0
O128 O 0.90559 0.29406 0.15081 0.0
O129 O 0.99762 0.28135 0.21511 0.0
C130 C 0.21283 0.04586 0.78949 0.0
O131 O 0.21036 0.02341 0.81088 0.0
O132 O 0.31098 0.05893 0.78669 0.0
Zn133 Zn 0.27574 0.0314 0.79409 0.0
O134 O 0.27169 0.02435 0.84392 0.0
C135 C 0.29936 0.99044 0.74466 0.0
O136 O 0.30764 0.01556 0.72986 0.0
O137 O 0.23854 0.05206 0.77733 0.0
C138 C 0.2949 0.01786 0.86113 0.0
O139 O 0.32099 0.01556 0.84572 0.0
C140 C 0.31357 0.08309 0.80356 0.0
O141 O 0.29268 0.09005 0.82571 0.0
O142 O 0.28392 0.99182 0.77161 0.0
C143 C 0.08094 0.77317 0.18138 0.0
O144 O 0.08537 0.75819 0.15325 0.0
O145 O 0.06448 0.69115 0.19423 0.0
Zn146 Zn 0.03812 0.72731 0.18601 0.0
O147 O 0.02938 0.73017 0.13642 0.0
C148 C 0.99868 0.70611 0.23807 0.0
O149 O 0.02434 0.6979 0.25173 0.0
O150 O 0.06015 0.76457 0.20119 0.0
C151 C 0.016 0.70874 0.12146 0.0
O152 O 0.00744 0.6852 0.13907 0.0
C153 C 0.08345 0.68109 0.17302 0.0
O154 O 0.08666 0.69467 0.1438 0.0
O155 O 0.99908 0.72078 0.21055 0.0
C156 C 0.76287 0.06956 0.23356 0.0
O157 O 0.73841 0.07774 0.24977 0.0
O158 O 0.69123 0.07372 0.19751 0.0
Zn159 Zn 0.71981 0.0391 0.19198 0.0
O160 O 0.72254 0.03 0.14235 0.0
C161 C 0.71181 0.99064 0.24304 0.0
O162 O 0.73683 -0.00024 0.25741 0.0
O163 O 0.76056 0.05142 0.20891 0.0
C164 C 0.71003 0.00716 0.12913 0.0
O165 O 0.69533 0.98821 0.1485 0.0
C166 C 0.66328 0.06896 0.19352 0.0
O167 O 0.65417 0.04178 0.1855 0.0
O168 O 0.70235 0.00379 0.21665 0.0
C169 C 0.08146 0.22499 0.81603 0.0
O170 O 0.09179 0.24306 0.83959 0.0
O171 O 0.07522 0.30466 0.80254 0.0
Zn172 Zn 0.04321 0.27396 0.81227 0.0
O173 O 0.03521 0.27442 0.86228 0.0
C174 C 0.00564 0.29435 0.75687 0.0
O175 O 0.0308 0.29307 0.73949 0.0
O176 O 0.05868 0.23323 0.79902 0.0
C177 C 0.00885 0.27637 0.87449 0.0
O178 O 0.98571 0.27782 0.85393 0.0
C179 C 0.06851 0.33239 0.80383 0.0
O180 O 0.04084 0.34018 0.81158 0.0
O181 O 0.00562 0.28579 0.78746 0.0
C182 C 0.24081 0.92604 0.21577 0.0
O183 O 0.26493 0.91858 0.233 0.0
O184 O 0.31502 0.92827 0.18745 0.0
Zn185 Zn 0.28395 0.95987 0.17726 0.0
O186 O 0.28351 0.96639 0.12699 0.0
C187 C 0.30384 -0.0009 0.23137 0.0
O188 O 0.30183 0.97461 0.24977 0.0
O189 O 0.24328 0.94479 0.19171 0.0
C190 C 0.28331 0.99249 0.1139 0.0
O191 O 0.28305 0.01617 0.1337 0.0
C192 C 0.34275 0.93518 0.18785 0.0
O193 O 0.35073 0.96297 0.18102 0.0
O194 O 0.29599 0.99817 0.20055 0.0
C195 C 0.91584 0.76927 0.80568 0.0
O196 O 0.90591 0.75069 0.82896 0.0
O197 O 0.92801 0.69145 0.79704 0.0
Zn198 Zn 0.95852 0.72396 0.8054 0.0
O199 O 0.96658 0.7255 0.85532 0.0
C200 C 0.99597 0.70074 0.75213 0.0
O201 O 0.9698 0.69432 0.7385 0.0
O202 O 0.94027 0.76302 0.7906 0.0
C203 C 0.98886 0.71211 0.86864 0.0
O204 O 0.00773 0.69736 0.84922 0.0
C205 C 0.93429 0.66387 0.80145 0.0
O206 O 0.96142 0.65641 0.8116 0.0
O207 O 0.99668 0.71458 0.78018 0.0
C208 C 0.3369 0.43069 0.31514 0.0
C209 C 0.31171 0.42922 0.29388 0.0
C210 C 0.35826 0.40747 0.3155 0.0
C211 C 0.35433 0.38235 0.294 0.0
C212 C 0.33052 0.38216 0.27029 0.0
C213 C 0.30945 0.4056 0.27054 0.0
C214 C 0.38349 0.40862 0.34098 0.0
C215 C 0.32572 0.35595 0.24667 0.0
C216 C 0.41447 0.32157 0.2892 0.0
C217 C 0.40328 0.30043 0.31233 0.0
C218 C 0.39894 0.34854 0.28293 0.0
C219 C 0.37168 0.35436 0.30022 0.0
C220 C 0.36036 0.33309 0.32358 0.0
C221 C 0.37628 0.30644 0.32932 0.0
C222 C 0.41159 0.37075 0.25786 0.0
C223 C 0.33132 0.3384 0.34254 0.0
H224 H 0.33899 0.44901 0.33303 0.0
H225 H 0.2903 0.40453 0.25364 0.0
H226 H 0.37846 0.39289 0.36199 0.0
H227 H 0.40503 0.40139 0.32941 0.0
H228 H 0.38643 0.43151 0.35171 0.0
H229 H 0.30942 0.36138 0.2263 0.0
H230 H 0.34727 0.3489 0.23498 0.0
H231 H 0.31689 0.33651 0.26117 0.0
H232 H 0.43536 0.31707 0.27601 0.0
H233 H 0.36745 0.29028 0.34724 0.0
H234 H 0.41537 0.39276 0.27031 0.0
H235 H 0.39521 0.37452 0.23716 0.0
H236 H 0.43317 0.36297 0.24672 0.0
H237 H 0.3329 0.35949 0.35738 0.0
H238 H 0.32579 0.31968 0.36006 0.0
H239 H 0.31247 0.34107 0.32444 0.0
C240 C 0.40749 0.684 0.74054 0.0
C241 C 0.43393 0.67898 0.72201 0.0
C242 C 0.38315 0.66404 0.73845 0.0
C243 C 0.3854 0.63839 0.71747 0.0
C244 C 0.41304 0.63167 0.70139 0.0
C245 C 0.43702 0.65209 0.70382 0.0
C246 C 0.35414 0.67195 0.75619 0.0
C247 C 0.41647 0.60431 0.67918 0.0
C248 C 0.32047 0.58252 0.71744 0.0
C249 C 0.30358 0.59275 0.68978 0.0
C250 C 0.34752 0.59678 0.72661 0.0
C251 C 0.35767 0.62185 0.70777 0.0
C252 C 0.34081 0.63203 0.67968 0.0
C253 C 0.31408 0.61733 0.67102 0.0
C254 C 0.36505 0.58525 0.75656 0.0
C255 C 0.35079 0.65878 0.65895 0.0
H256 H 0.40502 0.70451 0.75506 0.0
H257 H 0.4575 0.64782 0.68977 0.0
H258 H 0.3376 0.68021 0.73736 0.0
H259 H 0.34426 0.65187 0.76853 0.0
H260 H 0.35743 0.68974 0.77553 0.0
H261 H 0.44046 0.5994 0.67355 0.0
H262 H 0.4062 0.58427 0.69122 0.0
H263 H 0.40458 0.6082 0.65493 0.0
H264 H 0.31253 0.56347 0.732 0.0
H265 H 0.30122 0.62539 0.64961 0.0
H266 H 0.36611 0.60283 0.77638 0.0
H267 H 0.38854 0.58015 0.74901 0.0
H268 H 0.35485 0.56467 0.76761 0.0
H269 H 0.35211 0.67906 0.6752 0.0
H270 H 0.33526 0.66359 0.63765 0.0
H271 H 0.37361 0.65475 0.64853 0.0
C272 C 0.61773 0.68786 0.34041 0.0
C273 C 0.5919 0.69629 0.32246 0.0
C274 C 0.63367 0.66178 0.33207 0.0
C275 C 0.62349 0.6435 0.30514 0.0
C276 C 0.59696 0.65134 0.28745 0.0
C277 C 0.58146 0.67776 0.29628 0.0
C278 C 0.66189 0.65422 0.35159 0.0
C279 C 0.58537 0.63223 0.25878 0.0
C280 C 0.68755 0.59826 0.26868 0.0
C281 C 0.68539 0.57157 0.28739 0.0
C282 C 0.66606 0.6211 0.2722 0.0
C283 C 0.6418 0.61709 0.29491 0.0
C284 C 0.63807 0.5892 0.3116 0.0
C285 C 0.65995 0.56672 0.30765 0.0
C286 C 0.67077 0.65045 0.25375 0.0
C287 C 0.61229 0.58394 0.3357 0.0
H288 H 0.62591 0.70194 0.36077 0.0
H289 H 0.56145 0.6841 0.28236 0.0
H290 H 0.66013 0.63129 0.36243 0.0
H291 H 0.68158 0.65438 0.33436 0.0
H292 H 0.66624 0.67034 0.37246 0.0
H293 H 0.56315 0.64007 0.24942 0.0
H294 H 0.60161 0.6328 0.23752 0.0
H295 H 0.5833 0.60846 0.26692 0.0
H296 H 0.70692 0.60206 0.25259 0.0
H297 H 0.65792 0.54603 0.32194 0.0
H298 H 0.67814 0.66791 0.27197 0.0
H299 H 0.64945 0.65829 0.24219 0.0
H300 H 0.68811 0.64853 0.23366 0.0
H301 H 0.61645 0.59653 0.35943 0.0
H302 H 0.60965 0.55975 0.34206 0.0
H303 H 0.59087 0.59233 0.32488 0.0
C304 C 0.59366 0.31975 0.72848 0.0
C305 C 0.571 0.32152 0.70389 0.0
C306 C 0.61847 0.33921 0.72767 0.0
C307 C 0.62062 0.36092 0.70166 0.0
C308 C 0.59643 0.36472 0.67881 0.0
C309 C 0.57183 0.34498 0.68023 0.0
C310 C 0.64361 0.33466 0.75279 0.0
C311 C 0.59773 0.3878 0.6509 0.0
C312 C 0.68506 0.41735 0.70216 0.0
C313 C 0.70583 0.40316 0.68073 0.0
C314 C 0.65712 0.40396 0.70938 0.0
C315 C 0.64995 0.37578 0.69485 0.0
C316 C 0.67094 0.36133 0.67342 0.0
C317 C 0.69856 0.37518 0.66665 0.0
C318 C 0.63526 0.41996 0.73233 0.0
C319 C 0.66422 0.33119 0.65749 0.0
H320 H 0.59298 0.30198 0.7472 0.0
H321 H 0.55426 0.34675 0.66136 0.0
H322 H 0.66271 0.3232 0.74014 0.0
H323 H 0.65198 0.35654 0.76237 0.0
H324 H 0.6364 0.32067 0.77458 0.0
H325 H 0.57539 0.39133 0.63896 0.0
H326 H 0.60609 0.40965 0.66059 0.0
H327 H 0.61368 0.3801 0.63115 0.0
H328 H 0.69053 0.439 0.71311 0.0
H329 H 0.71446 0.36401 0.65013 0.0
H330 H 0.6294 0.40536 0.75408 0.0
H331 H 0.61407 0.42469 0.71853 0.0
H332 H 0.64446 0.44149 0.74208 0.0
H333 H 0.65973 0.31423 0.67741 0.0
H334 H 0.68302 0.32296 0.64149 0.0
H335 H 0.64371 0.33281 0.64163 0.0
C336 C 0.79688 0.89018 0.74428 0.0
C337 C 0.79745 0.91575 0.76498 0.0
C338 C 0.81963 0.8684 0.74637 0.0
C339 C 0.84351 0.87246 0.76957 0.0
C340 C 0.84576 0.89962 0.78797 0.0
C341 C 0.82267 0.92097 0.78548 0.0
C342 C 0.81654 0.83985 0.72606 0.0
C343 C 0.87109 0.905 0.81264 0.0
C344 C 0.87105 0.80212 0.8135 0.0
C345 C 0.89814 0.79626 0.79665 0.0
C346 C 0.85328 0.82693 0.80492 0.0
C347 C 0.86283 0.84651 0.77884 0.0
C348 C 0.89032 0.84099 0.7619 0.0
C349 C 0.90769 0.81585 0.771 0.0
C350 C 0.8241 0.83204 0.82367 0.0
C351 C 0.90119 0.86147 0.73407 0.0
H352 H 0.77766 0.8861 0.72806 0.0
H353 H 0.82354 0.94091 0.80118 0.0
H354 H 0.83847 0.83318 0.71502 0.0
H355 H 0.8091 0.82135 0.74293 0.0
H356 H 0.79983 0.84221 0.70538 0.0
H357 H 0.87254 0.92897 0.82036 0.0
H358 H 0.86733 0.89119 0.8356 0.0
H359 H 0.89298 0.89811 0.80164 0.0
H360 H 0.8635 0.78715 0.83337 0.0
H361 H 0.92863 0.81146 0.75787 0.0
H362 H 0.80496 0.83169 0.8057 0.0
H363 H 0.82432 0.85449 0.83589 0.0
H364 H 0.82001 0.81477 0.84342 0.0
H365 H 0.88479 0.86143 0.71296 0.0
H366 H 0.92352 0.8546 0.72411 0.0
H367 H 0.90277 0.88492 0.74343 0.0
C368 C 0.81787 0.07634 0.22291 0.0
C369 C 0.79133 0.08622 0.23852 0.0
C370 C 0.84309 0.0952 0.22065 0.0
C371 C 0.84144 0.12474 0.23379 0.0
C372 C 0.81578 0.13371 0.25242 0.0
C373 C 0.79108 0.11421 0.2548 0.0
C374 C 0.87037 0.08448 0.20141 0.0
C375 C 0.81304 0.16504 0.26676 0.0
C376 C 0.90815 0.17847 0.23123 0.0
C377 C 0.9025 0.19402 0.20105 0.0
C378 C 0.88897 0.15519 0.242 0.0
C379 C 0.86338 0.14782 0.22239 0.0
C380 C 0.85786 0.16324 0.19175 0.0
C381 C 0.87758 0.18592 0.18137 0.0
C382 C 0.89582 0.13882 0.27447 0.0
C383 C 0.83068 0.15627 0.17015 0.0
H384 H 0.8184 0.05449 0.21079 0.0
H385 H 0.77074 0.12192 0.26717 0.0
H386 H 0.87012 0.09432 0.17567 0.0
H387 H 0.8914 0.09192 0.21396 0.0
H388 H 0.87073 0.0596 0.19897 0.0
H389 H 0.79413 0.16689 0.285 0.0
H390 H 0.83413 0.17188 0.27957 0.0
H391 H 0.80901 0.18117 0.24586 0.0
H392 H 0.92747 0.18456 0.24647 0.0
H393 H 0.87297 0.19784 0.15806 0.0
H394 H 0.89562 0.11416 0.27022 0.0
H395 H 0.87815 0.14382 0.29344 0.0
H396 H 0.91799 0.14534 0.28514 0.0
H397 H 0.83106 0.13234 0.16231 0.0
H398 H 0.82963 0.17047 0.1471 0.0
H399 H 0.80978 0.15988 0.18495 0.0
C400 C 0.12205 0.188 0.82832 0.0
C401 C 0.09682 0.19612 0.80915 0.0
C402 C 0.13774 0.16136 0.82177 0.0
C403 C 0.12798 0.14223 0.79538 0.0
C404 C 0.10223 0.14996 0.77624 0.0
C405 C 0.08693 0.17689 0.78333 0.0
C406 C 0.16512 0.15394 0.84282 0.0
C407 C 0.09116 0.13002 0.74802 0.0
C408 C 0.19163 0.09304 0.76489 0.0
C409 C 0.18775 0.06741 0.78509 0.0
C410 C 0.17089 0.11677 0.76592 0.0
C411 C 0.14566 0.11475 0.7876 0.0
C412 C 0.14021 0.08785 0.8057 0.0
C413 C 0.16135 0.06445 0.80423 0.0
C414 C 0.1774 0.14497 0.74599 0.0
C415 C 0.11338 0.08471 0.82881 0.0
H416 H 0.12982 0.20264 0.84838 0.0
H417 H 0.0674 0.183 0.76845 0.0
H418 H 0.16228 0.13165 0.85497 0.0
H419 H 0.18531 0.15263 0.82641 0.0
H420 H 0.16936 0.17092 0.86283 0.0
H421 H 0.06987 0.13839 0.73674 0.0
H422 H 0.10846 0.12869 0.72789 0.0
H423 H 0.08747 0.10683 0.75747 0.0
H424 H 0.21176 0.09538 0.74966 0.0
H425 H 0.15798 0.0446 0.81964 0.0
H426 H 0.18499 0.16295 0.76346 0.0
H427 H 0.1568 0.15315 0.73315 0.0
H428 H 0.19523 0.14138 0.72674 0.0
H429 H 0.11713 0.09833 0.8519 0.0
H430 H 0.1096 0.06099 0.83652 0.0
H431 H 0.0927 0.09328 0.81645 0.0
C432 C 0.18672 0.9168 0.20175 0.0
C433 C 0.21265 0.90863 0.21974 0.0
C434 C 0.16188 0.8974 0.19993 0.0
C435 C 0.1632 0.86908 0.21616 0.0
C436 C 0.18827 0.86183 0.23665 0.0
C437 C 0.21264 0.88181 0.23836 0.0
C438 C 0.13529 0.90622 0.17839 0.0
C439 C 0.1906 0.83184 0.25431 0.0
C440 C 0.09529 0.81689 0.21824 0.0
C441 C 0.10105 0.79849 0.1902 0.0
C442 C 0.115 0.84042 0.22685 0.0
C443 C 0.14115 0.84529 0.20717 0.0
C444 C 0.14689 0.82686 0.17875 0.0
C445 C 0.12672 0.80386 0.17055 0.0
C446 C 0.10801 0.85991 0.25704 0.0
C447 C 0.17465 0.83114 0.1572 0.0
H448 H 0.18637 0.93772 0.1877 0.0
H449 H 0.23248 0.87541 0.25256 0.0
H450 H 0.13608 0.89361 0.15423 0.0
H451 H 0.11385 0.90038 0.19114 0.0
H452 H 0.13527 0.93065 0.17253 0.0
H453 H 0.20921 0.83142 0.27303 0.0
H454 H 0.16926 0.82625 0.26737 0.0
H455 H 0.19481 0.81398 0.23532 0.0
H456 H 0.07542 0.81291 0.23346 0.0
H457 H 0.13141 0.78972 0.14889 0.0
H458 H 0.10754 0.88392 0.24946 0.0
H459 H 0.12597 0.85744 0.27628 0.0
H460 H 0.08609 0.85406 0.26881 0.0
H461 H 0.175 0.8542 0.14654 0.0
H462 H 0.1758 0.81481 0.13602 0.0
H463 H 0.19515 0.82851 0.17291 0.0
C464 C 0.16218 0.5222 0.20574 0.0
C465 C 0.18504 0.52477 0.22997 0.0
C466 C 0.14681 0.5477 0.19401 0.0
C467 C 0.15475 0.57643 0.20654 0.0
C468 C 0.17885 0.5793 0.22967 0.0
C469 C 0.19361 0.55341 0.24125 0.0
C470 C 0.1211 0.54373 0.16948 0.0
C471 C 0.18823 0.6096 0.24327 0.0
C472 C 0.12613 0.64596 0.16094 0.0
C473 C 0.10165 0.65423 0.18128 0.0
C474 C 0.14371 0.62069 0.16883 0.0
C475 C 0.1364 0.60317 0.19751 0.0
C476 C 0.11156 0.61127 0.21795 0.0
C477 C 0.09459 0.63678 0.20969 0.0
C478 C 0.17023 0.61288 0.14668 0.0
C479 C 0.10289 0.59297 0.24859 0.0
H480 H 0.15538 0.50015 0.19694 0.0
H481 H 0.2114 0.55558 0.25981 0.0
H482 H 0.09964 0.5499 0.182 0.0
H483 H 0.12392 0.55891 0.14749 0.0
H484 H 0.11926 0.52023 0.16019 0.0
H485 H 0.20913 0.60828 0.25858 0.0
H486 H 0.1919 0.62567 0.22224 0.0
H487 H 0.17002 0.61888 0.25934 0.0
H488 H 0.13178 0.6594 0.13901 0.0
H489 H 0.07562 0.64294 0.22544 0.0
H490 H 0.16756 0.58983 0.13643 0.0
H491 H 0.19121 0.61308 0.16186 0.0
H492 H 0.17288 0.62878 0.12525 0.0
H493 H 0.09844 0.56934 0.24112 0.0
H494 H 0.08257 0.60197 0.26143 0.0
H495 H 0.12173 0.59266 0.26695 0.0
C496 C 0.56717 0.79614 0.75797 0.0
C497 C 0.54018 0.80249 0.77493 0.0
C498 C 0.59386 0.81132 0.76619 0.0
C499 C 0.59351 0.83336 0.79195 0.0
C500 C 0.56677 0.83864 0.81043 0.0
C501 C 0.54042 0.8231 0.80173 0.0
C502 C 0.622 0.80492 0.74608 0.0
C503 C 0.56555 0.86191 0.83815 0.0
C504 C 0.66696 0.86441 0.8267 0.0
C505 C 0.66963 0.89145 0.80868 0.0
C506 C 0.64247 0.84502 0.82131 0.0
C507 C 0.6202 0.85291 0.79737 0.0
C508 C 0.62301 0.87996 0.77879 0.0
C509 C 0.64768 0.89887 0.78466 0.0
C510 C 0.64022 0.81631 0.84149 0.0
C511 C 0.59974 0.88914 0.75297 0.0
H512 H 0.56725 0.7801 0.73737 0.0
H513 H 0.51972 0.82804 0.8151 0.0
H514 H 0.62744 0.82463 0.73003 0.0
H515 H 0.6414 0.8012 0.76318 0.0
H516 H 0.61942 0.78493 0.72951 0.0
H517 H 0.54393 0.86128 0.85222 0.0
H518 H 0.58426 0.85848 0.85627 0.0
H519 H 0.56831 0.88467 0.82708 0.0
H520 H 0.68385 0.85849 0.84529 0.0
H521 H 0.64958 0.91967 0.77055 0.0
H522 H 0.63845 0.79673 0.82426 0.0
H523 H 0.61952 0.81665 0.85714 0.0
H524 H 0.65991 0.81296 0.85836 0.0
H525 H 0.59744 0.8714 0.73345 0.0
H526 H 0.60552 0.91065 0.74027 0.0
H527 H 0.57749 0.89169 0.76533 0.0
C528 C 0.89645 0.35645 0.21118 0.0
C529 C 0.88994 0.33693 0.18436 0.0
C530 C 0.879 0.38217 0.21697 0.0
C531 C 0.85428 0.38844 0.19557 0.0
C532 C 0.8473 0.36865 0.16872 0.0
C533 C 0.86531 0.34315 0.16334 0.0
C534 C 0.88726 0.40282 0.24581 0.0
C535 C 0.82095 0.37453 0.14559 0.0
C536 C 0.79809 0.44286 0.23348 0.0
C537 C 0.80787 0.47031 0.21988 0.0
C538 C 0.81193 0.41571 0.22435 0.0
C539 C 0.83621 0.41608 0.20124 0.0
C540 C 0.84504 0.44348 0.18598 0.0
C541 C 0.83067 0.47027 0.19539 0.0
C542 C 0.80166 0.38687 0.24086 0.0
C543 C 0.87086 0.44478 0.16124 0.0
H544 H 0.91547 0.35186 0.22752 0.0
H545 H 0.86007 0.32812 0.14263 0.0
H546 H 0.89236 0.42562 0.23597 0.0
H547 H 0.868 0.40502 0.26344 0.0
H548 H 0.90708 0.39463 0.2602 0.0
H549 H 0.81803 0.35651 0.12645 0.0
H550 H 0.79994 0.37641 0.16056 0.0
H551 H 0.82415 0.39625 0.13229 0.0
H552 H 0.78033 0.44265 0.25224 0.0
H553 H 0.8383 0.49135 0.18465 0.0
H554 H 0.81924 0.37887 0.25859 0.0
H555 H 0.79835 0.36905 0.22163 0.0
H556 H 0.78035 0.38984 0.25515 0.0
H557 H 0.8922 0.43956 0.17455 0.0
H558 H 0.87305 0.46725 0.14924 0.0
H559 H 0.86793 0.42767 0.14114 0.0
C560 C 0.44202 0.1989 0.75003 0.0
C561 C 0.46935 0.1928 0.76639 0.0
C562 C 0.4158 0.18289 0.75814 0.0
C563 C 0.41694 0.16025 0.78321 0.0
C564 C 0.44406 0.15503 0.80101 0.0
C565 C 0.46996 0.17141 0.7924 0.0
C566 C 0.38726 0.18921 0.73871 0.0
C567 C 0.44611 0.13114 0.828 0.0
C568 C 0.34337 0.12925 0.81767 0.0
C569 C 0.33998 0.1029 0.79854 0.0
C570 C 0.36839 0.14812 0.81313 0.0
C571 C 0.39047 0.14045 0.78887 0.0
C572 C 0.38718 0.11388 0.76954 0.0
C573 C 0.36201 0.09543 0.77462 0.0
C574 C 0.37117 0.17627 0.83419 0.0
C575 C 0.41025 0.10495 0.74337 0.0
H576 H 0.44127 0.2155 0.73001 0.0
H577 H 0.49095 0.1666 0.80524 0.0
H578 H 0.38155 0.16949 0.72278 0.0
H579 H 0.3682 0.19283 0.75632 0.0
H580 H 0.38941 0.20923 0.72212 0.0
H581 H 0.46799 0.13174 0.84155 0.0
H582 H 0.4277 0.13392 0.84665 0.0
H583 H 0.44341 0.10862 0.81635 0.0
H584 H 0.32648 0.13517 0.83625 0.0
H585 H 0.35959 0.07513 0.75973 0.0
H586 H 0.3719 0.19631 0.81753 0.0
H587 H 0.39255 0.17585 0.84864 0.0
H588 H 0.3522 0.17888 0.85221 0.0
H589 H 0.41218 0.12281 0.72392 0.0
H590 H 0.40446 0.08346 0.73063 0.0
H591 H 0.43267 0.10253 0.75536 0.0
C592 C 0.18792 0.4659 0.77861 0.0
C593 C 0.19258 0.47054 0.74397 0.0
C594 C 0.17006 0.44197 0.79017 0.0
C595 C 0.15626 0.42252 0.76648 0.0
C596 C 0.1619 0.42636 0.73158 0.0
C597 C 0.18015 0.45019 0.72077 0.0
C598 C 0.16498 0.43823 0.82762 0.0
C599 C 0.14742 0.40622 0.70552 0.0
C600 C 0.1218 0.34801 0.79312 0.0
C601 C 0.09124 0.35558 0.79565 0.0
C602 C 0.14341 0.36974 0.78452 0.0
C603 C 0.13414 0.39959 0.77785 0.0
C604 C 0.10336 0.4074 0.78071 0.0
C605 C 0.08232 0.38534 0.78978 0.0
C606 C 0.17608 0.3607 0.78216 0.0
C607 C 0.09254 0.43894 0.77344 0.0
H608 H 0.19762 0.48141 0.7967 0.0
H609 H 0.18362 0.45358 0.69395 0.0
H610 H 0.14121 0.44352 0.83379 0.0
H611 H 0.16908 0.41459 0.83528 0.0
H612 H 0.17976 0.45317 0.8428 0.0
H613 H 0.15558 0.41103 0.67955 0.0
H614 H 0.15197 0.38228 0.7114 0.0
H615 H 0.12266 0.40935 0.70606 0.0
H616 H 0.12887 0.32507 0.79786 0.0
H617 H 0.05874 0.39134 0.7916 0.0
H618 H 0.19005 0.37556 0.7983 0.0
H619 H 0.18412 0.36344 0.75583 0.0
H620 H 0.17981 0.337 0.78999 0.0
H621 H 0.10437 0.45524 0.78995 0.0
H622 H 0.06792 0.44145 0.77736 0.0
H623 H 0.09788 0.44502 0.74693 0.0
C624 C 0.39494 0.92168 0.20558 0.0
C625 C 0.36562 0.91259 0.19747 0.0
C626 C 0.41649 0.9008 0.21647 0.0
C627 C 0.40864 0.87002 0.21888 0.0
C628 C 0.37932 0.86056 0.20983 0.0
C629 C 0.35808 0.88201 0.19945 0.0
C630 C 0.44743 0.91181 0.22627 0.0
C631 C 0.37027 0.82788 0.21164 0.0
C632 C 0.47442 0.81574 0.22444 0.0
C633 C 0.47636 0.811 0.25938 0.0
C634 C 0.45173 0.83398 0.21068 0.0
C635 C 0.43077 0.84808 0.23245 0.0
C636 C 0.43203 0.84258 0.26762 0.0
C637 C 0.45467 0.82396 0.28063 0.0
C638 C 0.45076 0.83894 0.17299 0.0
C639 C 0.41022 0.85737 0.2917 0.0
H640 H 0.40091 0.94528 0.2042 0.0
H641 H 0.3355 0.87481 0.19301 0.0
H642 H 0.45165 0.90684 0.25332 0.0
H643 H 0.46487 0.89981 0.21144 0.0
H644 H 0.45017 0.93636 0.22217 0.0
H645 H 0.34724 0.82397 0.20167 0.0
H646 H 0.38635 0.81388 0.19708 0.0
H647 H 0.37107 0.82006 0.23822 0.0
H648 H 0.49098 0.80566 0.20785 0.0
H649 H 0.45598 0.82045 0.30767 0.0
H650 H 0.45621 0.86274 0.16723 0.0
H651 H 0.4278 0.83454 0.16319 0.0
H652 H 0.46694 0.82432 0.15931 0.0
H653 H 0.41328 0.88213 0.29091 0.0
H654 H 0.41335 0.84965 0.31815 0.0
H655 H 0.38672 0.8526 0.28397 0.0
C656 C 0.8279 0.54606 0.71261 0.0
C657 C 0.81184 0.52709 0.73446 0.0
C658 C 0.84622 0.56911 0.72519 0.0
C659 C 0.84826 0.57359 0.76048 0.0
C660 C 0.83111 0.55542 0.78265 0.0
C661 C 0.81321 0.53222 0.76937 0.0
C662 C 0.86432 0.58789 0.70073 0.0
C663 C 0.83236 0.5599 0.8204 0.0
C664 C 0.92042 0.61026 0.79076 0.0
C665 C 0.91176 0.64046 0.79341 0.0
C666 C 0.89971 0.58811 0.78095 0.0
C667 C 0.86957 0.59635 0.774 0.0
C668 C 0.86043 0.62662 0.77782 0.0
C669 C 0.88169 0.64837 0.78728 0.0
C670 C 0.91037 0.55607 0.77687 0.0
C671 C 0.8284 0.63617 0.77104 0.0
H672 H 0.82704 0.54226 0.6856 0.0
H673 H 0.80076 0.51774 0.78639 0.0
H674 H 0.85967 0.61212 0.70476 0.0
H675 H 0.8887 0.58433 0.70527 0.0
H676 H 0.85932 0.58227 0.67398 0.0
H677 H 0.81578 0.54562 0.83395 0.0
H678 H 0.85521 0.55434 0.82979 0.0
H679 H 0.82801 0.58379 0.8268 0.0
H680 H 0.9436 0.60399 0.79545 0.0
H681 H 0.87478 0.67165 0.78956 0.0
H682 H 0.90822 0.54917 0.75005 0.0
H683 H 0.89611 0.54067 0.79201 0.0
H684 H 0.93417 0.55313 0.78474 0.0
H685 H 0.82316 0.6332 0.74386 0.0
H686 H 0.82434 0.66004 0.77791 0.0
H687 H 0.81252 0.6218 0.78545 0.0
C688 C 0.65062 0.12304 0.20393 0.0
C689 C 0.64117 0.09315 0.19991 0.0
C690 C 0.62997 0.1458 0.21207 0.0
C691 C 0.5993 0.13836 0.21679 0.0
C692 C 0.58954 0.10837 0.21186 0.0
C693 C 0.61056 0.08618 0.20324 0.0
C694 C 0.6411 0.17762 0.21657 0.0
C695 C 0.55705 0.09946 0.217 0.0
C696 C 0.55074 0.18349 0.27666 0.0
C697 C 0.53138 0.19848 0.25431 0.0
C698 C 0.57367 0.16473 0.2647 0.0
C699 C 0.5777 0.1612 0.22948 0.0
C700 C 0.55944 0.17764 0.20675 0.0
C701 C 0.5363 0.19596 0.21944 0.0
C702 C 0.5925 0.14739 0.28979 0.0
C703 C 0.56351 0.1749 0.16904 0.0
H704 H 0.67423 0.12862 0.2011 0.0
H705 H 0.60309 0.06314 0.20016 0.0
H706 H 0.62702 0.19344 0.20176 0.0
H707 H 0.63918 0.18421 0.24349 0.0
H708 H 0.66494 0.18025 0.20865 0.0
H709 H 0.55289 0.07548 0.21073 0.0
H710 H 0.55057 0.10329 0.24372 0.0
H711 H 0.54214 0.11361 0.20115 0.0
H712 H 0.54716 0.18531 0.30366 0.0
H713 H 0.52158 0.20763 0.20201 0.0
H714 H 0.61679 0.15092 0.28473 0.0
H715 H 0.58795 0.12297 0.28708 0.0
H716 H 0.58773 0.15403 0.3163 0.0
H717 H 0.58756 0.17755 0.16217 0.0
H718 H 0.55009 0.19185 0.15499 0.0
H719 H 0.5564 0.15217 0.16069 0.0
C720 C 0.6856 0.04329 0.71528 0.0
C721 C 0.69114 0.03734 0.74948 0.0
C722 C 0.66627 0.06672 0.70554 0.0
C723 C 0.65177 0.08413 0.73065 0.0
C724 C 0.65802 0.07881 0.76517 0.0
C725 C 0.67785 0.05568 0.77414 0.0
C726 C 0.66064 0.07222 0.66847 0.0
C727 C 0.64275 0.09667 0.79272 0.0
C728 C 0.61454 0.1589 0.71122 0.0
C729 C 0.58419 0.15052 0.70863 0.0
C730 C 0.63698 0.13736 0.71715 0.0
C731 C 0.62877 0.10684 0.72117 0.0
C732 C 0.59823 0.09819 0.71808 0.0
C733 C 0.57632 0.12013 0.71156 0.0
C734 C 0.66938 0.14734 0.71971 0.0
C735 C 0.58856 0.06589 0.72267 0.0
H736 H 0.69595 0.0293 0.69611 0.0
H737 H 0.6819 0.05118 0.80065 0.0
H738 H 0.63702 0.06642 0.66222 0.0
H739 H 0.66382 0.09637 0.6624 0.0
H740 H 0.67579 0.05868 0.65214 0.0
H741 H 0.65091 0.09045 0.81829 0.0
H742 H 0.64657 0.12107 0.78887 0.0
H743 H 0.61809 0.09281 0.7917 0.0
H744 H 0.62079 0.18234 0.70864 0.0
H745 H 0.5529 0.11354 0.70963 0.0
H746 H 0.68366 0.13378 0.70251 0.0
H747 H 0.67775 0.14356 0.74575 0.0
H748 H 0.67226 0.1715 0.71339 0.0
H749 H 0.60096 0.05115 0.70489 0.0
H750 H 0.56404 0.06276 0.71852 0.0
H751 H 0.59414 0.05831 0.74862 0.0
C752 C 0.10909 0.42474 0.28533 0.0
C753 C 0.13827 0.41651 0.29497 0.0
C754 C 0.08696 0.40286 0.27949 0.0
C755 C 0.09406 0.37209 0.28406 0.0
C756 C 0.12319 0.36372 0.29497 0.0
C757 C 0.14507 0.38604 0.29995 0.0
C758 C 0.05627 0.41264 0.26735 0.0
C759 C 0.1314 0.33119 0.30076 0.0
C760 C 0.02653 0.31999 0.28954 0.0
C761 C 0.02468 0.30938 0.25626 0.0
C762 C 0.04988 0.33935 0.29948 0.0
C763 C 0.07147 0.34871 0.27537 0.0
C764 C 0.07035 0.33716 0.24211 0.0
C765 C 0.04714 0.31742 0.23305 0.0
C766 C 0.0508 0.35067 0.33539 0.0
C767 C 0.09276 0.34685 0.21555 0.0
H768 H 0.10376 0.44825 0.28134 0.0
H769 H 0.16755 0.37961 0.30773 0.0
H770 H 0.0519 0.40311 0.24193 0.0
H771 H 0.03857 0.40392 0.2845 0.0
H772 H 0.05414 0.4375 0.2659 0.0
H773 H 0.15419 0.32865 0.3119 0.0
H774 H 0.11478 0.32042 0.31782 0.0
H775 H 0.13075 0.31881 0.27646 0.0
H776 H 0.00935 0.31371 0.30765 0.0
H777 H 0.04586 0.30941 0.20725 0.0
H778 H 0.04553 0.37504 0.33585 0.0
H779 H 0.07369 0.34786 0.34611 0.0
H780 H 0.03443 0.33878 0.35187 0.0
H781 H 0.09039 0.37132 0.21079 0.0
H782 H 0.0896 0.33472 0.19129 0.0
H783 H 0.11606 0.34293 0.22453 0.0
C784 C 0.30561 0.93489 0.75155 0.0
C785 C 0.31188 0.96126 0.7334 0.0
C786 C 0.32075 0.90798 0.74441 0.0
C787 C 0.34265 0.90742 0.71847 0.0
C788 C 0.34779 0.93346 0.69875 0.0
C789 C 0.33233 0.9601 0.70645 0.0
C790 C 0.31452 0.88061 0.76588 0.0
C791 C 0.37083 0.93367 0.67072 0.0
C792 C 0.4075 0.85286 0.72887 0.0
C793 C 0.39941 0.82962 0.70673 0.0
C794 C 0.3892 0.87826 0.73281 0.0
C795 C 0.36213 0.88054 0.71415 0.0
C796 C 0.35379 0.8572 0.69175 0.0
C797 C 0.37255 0.83198 0.68831 0.0
C798 C 0.39885 0.90269 0.757 0.0
C799 C 0.32509 0.8589 0.67145 0.0
H800 H 0.28969 0.93551 0.77227 0.0
H801 H 0.33719 0.9803 0.69215 0.0
H802 H 0.31048 0.86065 0.74971 0.0
H803 H 0.33445 0.87565 0.7818 0.0
H804 H 0.29476 0.88383 0.78267 0.0
H805 H 0.36989 0.95464 0.65553 0.0
H806 H 0.39371 0.93157 0.68167 0.0
H807 H 0.36739 0.91418 0.65368 0.0
H808 H 0.42821 0.85124 0.74319 0.0
H809 H 0.36615 0.81414 0.67111 0.0
H810 H 0.38143 0.90588 0.77674 0.0
H811 H 0.40118 0.92434 0.74333 0.0
H812 H 0.42059 0.89749 0.76955 0.0
H813 H 0.30548 0.86082 0.68864 0.0
H814 H 0.32188 0.8389 0.65504 0.0
H815 H 0.32528 0.87932 0.65535 0.0
C816 C 0.85988 0.601 0.26375 0.0
C817 C 0.83859 0.60899 0.2883 0.0
C818 C 0.88515 0.61904 0.25761 0.0
C819 C 0.88926 0.64578 0.27644 0.0
C820 C 0.8678 0.65412 0.30111 0.0
C821 C 0.84269 0.6356 0.30678 0.0
C822 C 0.90756 0.60935 0.23107 0.0
C823 C 0.87145 0.68251 0.32159 0.0
C824 C 0.96987 0.67355 0.27814 0.0
C825 C 0.96989 0.69425 0.25141 0.0
C826 C 0.94338 0.65863 0.2877 0.0
C827 C 0.91628 0.66468 0.27022 0.0
C828 C 0.91578 0.68687 0.24462 0.0
C829 C 0.94262 0.70137 0.23547 0.0
C830 C 0.9448 0.63516 0.31521 0.0
C831 C 0.88725 0.69414 0.2256 0.0
H832 H 0.85691 0.5805 0.24934 0.0
H833 H 0.82634 0.64194 0.32579 0.0
H834 H 0.90977 0.62706 0.2115 0.0
H835 H 0.93006 0.60628 0.24271 0.0
H836 H 0.90097 0.58799 0.21854 0.0
H837 H 0.85252 0.68605 0.33947 0.0
H838 H 0.89274 0.68157 0.33618 0.0
H839 H 0.87295 0.70226 0.30456 0.0
H840 H 0.99079 0.66799 0.29071 0.0
H841 H 0.94237 0.7175 0.21496 0.0
H842 H 0.94128 0.61254 0.30406 0.0
H843 H 0.92663 0.63885 0.33395 0.0
H844 H 0.96678 0.63524 0.32857 0.0
H845 H 0.8808 0.67466 0.20967 0.0
H846 H 0.88988 0.71414 0.20905 0.0
H847 H 0.86848 0.69829 0.24345 0.0
C848 C 0.70366 0.95022 0.2864 0.0
C849 C 0.69376 0.9659 0.25775 0.0
C850 C 0.6861 0.92716 0.30061 0.0
C851 C 0.65802 0.9198 0.28587 0.0
C852 C 0.64804 0.93546 0.25688 0.0
C853 C 0.66603 0.95822 0.24316 0.0
C854 C 0.69748 0.91078 0.33145 0.0
C855 C 0.61818 0.92835 0.24045 0.0
C856 C 0.61978 0.8446 0.29954 0.0
C857 C 0.59696 0.85225 0.32247 0.0
C858 C 0.6407 0.86608 0.28853 0.0
C859 C 0.63869 0.89594 0.30066 0.0
C860 C 0.61642 0.90354 0.32474 0.0
C861 C 0.59583 0.88158 0.33539 0.0
C862 C 0.6642 0.85712 0.2629 0.0
C863 C 0.61354 0.93517 0.3382 0.0
H864 H 0.72507 0.95598 0.29778 0.0
H865 H 0.65813 0.9702 0.22103 0.0
H866 H 0.68149 0.91382 0.35269 0.0
H867 H 0.69883 0.88631 0.32625 0.0
H868 H 0.72002 0.91883 0.33951 0.0
H869 H 0.61379 0.94256 0.21792 0.0
H870 H 0.61759 0.90441 0.23263 0.0
H871 H 0.59965 0.93178 0.25882 0.0
H872 H 0.62095 0.82192 0.2896 0.0
H873 H 0.57837 0.88765 0.35324 0.0
H874 H 0.68687 0.86425 0.27144 0.0
H875 H 0.65966 0.86866 0.23859 0.0
H876 H 0.66449 0.83248 0.25832 0.0
H877 H 0.63553 0.94322 0.34787 0.0
H878 H 0.59664 0.93684 0.35879 0.0
H879 H 0.60673 0.95052 0.31747 0.0
C880 C 0.89215 0.42114 0.70582 0.0
C881 C 0.86452 0.41211 0.69207 0.0
C882 C 0.9142 0.4 0.71449 0.0
C883 C 0.90865 0.36905 0.70896 0.0
C884 C 0.88105 0.35977 0.69449 0.0
C885 C 0.85921 0.38142 0.68638 0.0
C886 C 0.94325 0.41078 0.73019 0.0
C887 C 0.8745 0.32698 0.68792 0.0
C888 C 0.97876 0.32035 0.70956 0.0
C889 C 0.97893 0.30993 0.74298 0.0
C890 C 0.95519 0.33845 0.69754 0.0
C891 C 0.93145 0.34651 0.71959 0.0
C892 C 0.93082 0.33494 0.75286 0.0
C893 C 0.95448 0.31667 0.76409 0.0
C894 C 0.95639 0.35004 0.66174 0.0
C895 C 0.90599 0.34315 0.77721 0.0
H896 H 0.89641 0.44479 0.71037 0.0
H897 H 0.83796 0.37429 0.6756 0.0
H898 H 0.94581 0.40095 0.75578 0.0
H899 H 0.96269 0.4031 0.71489 0.0
H900 H 0.94423 0.43566 0.73235 0.0
H901 H 0.85256 0.3236 0.67504 0.0
H902 H 0.89254 0.31705 0.6721 0.0
H903 H 0.87421 0.31444 0.71212 0.0
H904 H 0.99746 0.3151 0.69302 0.0
H905 H 0.95435 0.30868 0.78995 0.0
H906 H 0.96046 0.37465 0.66197 0.0
H907 H 0.93456 0.3462 0.64886 0.0
H908 H 0.9745 0.33914 0.64678 0.0
H909 H 0.90708 0.36756 0.7829 0.0
H910 H 0.90761 0.33052 0.80135 0.0
H911 H 0.88367 0.33867 0.76575 0.0
C912 C 0.38742 0.14801 0.30005 0.0
C913 C 0.41842 0.14307 0.29625 0.0
C914 C 0.36646 0.12564 0.29151 0.0
C915 C 0.37678 0.09784 0.27856 0.0
C916 C 0.40804 0.09266 0.27492 0.0
C917 C 0.42847 0.11528 0.28397 0.0
C918 C 0.33331 0.13182 0.29604 0.0
C919 C 0.41991 0.06338 0.26089 0.0
C920 C 0.32853 0.0274 0.2785 0.0
C921 C 0.31924 0.02614 0.24468 0.0
C922 C 0.34622 0.05135 0.29032 0.0
C923 C 0.35502 0.07438 0.2677 0.0
C924 C 0.3447 0.07385 0.2339 0.0
C925 C 0.32682 0.04982 0.22285 0.0
C926 C 0.35648 0.05138 0.32666 0.0
C927 C 0.35371 0.09791 0.20896 0.0
H928 H 0.37949 0.16939 0.30971 0.0
H929 H 0.45238 0.1113 0.28088 0.0
H930 H 0.32181 0.13108 0.2712 0.0
H931 H 0.32298 0.11417 0.31208 0.0
H932 H 0.32904 0.1541 0.30777 0.0
H933 H 0.44488 0.06278 0.26008 0.0
H934 H 0.41188 0.04428 0.2765 0.0
H935 H 0.4112 0.05991 0.23493 0.0
H936 H 0.32263 0.00929 0.29557 0.0
H937 H 0.31972 0.04908 0.19668 0.0
H938 H 0.35174 0.07346 0.33853 0.0
H939 H 0.38117 0.04783 0.32773 0.0
H940 H 0.34537 0.03349 0.34175 0.0
H941 H 0.34844 0.12052 0.21918 0.0
H942 H 0.3422 0.09529 0.18424 0.0
H943 H 0.37837 0.097 0.2047 0.0
C944 C 0.13823 0.60142 0.71346 0.0
C945 C 0.1558 0.61021 0.68574 0.0
C946 C 0.11273 0.61788 0.72299 0.0
C947 C 0.10474 0.64396 0.70458 0.0
C948 C 0.12264 0.65329 0.67694 0.0
C949 C 0.1479 0.63619 0.66772 0.0
C950 C 0.09407 0.60709 0.7525 0.0
C951 C 0.11496 0.68116 0.65697 0.0
C952 C 0.0229 0.66728 0.71144 0.0
C953 C 0.02409 0.68877 0.73731 0.0
C954 C 0.04914 0.65318 0.69977 0.0
C955 C 0.07726 0.66102 0.71406 0.0
C956 C 0.07876 0.68369 0.73908 0.0
C957 C 0.05213 0.69719 0.75054 0.0
C958 C 0.04661 0.62895 0.67321 0.0
C959 C 0.10838 0.69289 0.75462 0.0
H960 H 0.14411 0.58133 0.72747 0.0
H961 H 0.16144 0.64319 0.64636 0.0
H962 H 0.09268 0.62491 0.77202 0.0
H963 H 0.07077 0.60227 0.74401 0.0
H964 H 0.10346 0.58646 0.76428 0.0
H965 H 0.13175 0.68593 0.63689 0.0
H966 H 0.09253 0.67853 0.64506 0.0
H967 H 0.11366 0.70089 0.67405 0.0
H968 H 0.00132 0.66061 0.70111 0.0
H969 H 0.05324 0.71392 0.7704 0.0
H970 H 0.05336 0.60701 0.68417 0.0
H971 H 0.0621 0.63371 0.65191 0.0
H972 H 0.02338 0.62684 0.66314 0.0
H973 H 0.11768 0.67393 0.76953 0.0
H974 H 0.10603 0.71269 0.77152 0.0
H975 H 0.12498 0.69831 0.7346 0.0
C976 C 0.22888 0.53514 0.55911 0.0
C977 C 0.20493 0.52253 0.57737 0.0
C978 C 0.2306 0.53214 0.52391 0.0
C979 C 0.20791 0.51602 0.50659 0.0
C980 C 0.18358 0.50341 0.52481 0.0
C981 C 0.18234 0.50688 0.55999 0.0
C982 C 0.25679 0.54603 0.50528 0.0
C983 C 0.15902 0.48597 0.50718 0.0
C984 C 0.19711 0.52778 0.41242 0.0
C985 C 0.21177 0.50254 0.39902 0.0
C986 C 0.19606 0.53271 0.4474 0.0
C987 C 0.20987 0.51183 0.46945 0.0
C988 C 0.22508 0.48655 0.45607 0.0
C989 C 0.22593 0.48225 0.42101 0.0
C990 C 0.17983 0.56005 0.46078 0.0
C991 C 0.24002 0.46376 0.47882 0.0
H992 H 0.24637 0.54738 0.57233 0.0
H993 H 0.16378 0.49706 0.5739 0.0
H994 H 0.26985 0.52825 0.49221 0.0
H995 H 0.24845 0.56173 0.48563 0.0
H996 H 0.27217 0.55849 0.5224 0.0
H997 H 0.14145 0.47791 0.52497 0.0
H998 H 0.14816 0.50024 0.48771 0.0
H999 H 0.16882 0.46626 0.49402 0.0
H1000 H 0.1862 0.54361 0.39561 0.0
H1001 H 0.23731 0.46268 0.41088 0.0
H1002 H 0.19516 0.57351 0.47691 0.0
H1003 H 0.16064 0.55294 0.47683 0.0
H1004 H 0.17114 0.57466 0.44023 0.0
H1005 H 0.25686 0.47499 0.4952 0.0
H1006 H 0.25146 0.44565 0.46438 0.0
H1007 H 0.223 0.45334 0.49565 0.0
C1008 C 0.52964 0.77441 0.45038 0.0
C1009 C 0.50424 0.77335 0.42938 0.0
C1010 C 0.52666 0.77576 0.48559 0.0
C1011 C 0.49759 0.77619 0.50014 0.0
C1012 C 0.47186 0.77495 0.47913 0.0
C1013 C 0.47549 0.77347 0.44398 0.0
C1014 C 0.55462 0.77691 0.50722 0.0
C1015 C 0.44049 0.77549 0.49378 0.0
C1016 C 0.48912 0.75452 0.59236 0.0
C1017 C 0.48764 0.78276 0.60804 0.0
C1018 C 0.49243 0.75203 0.55724 0.0
C1019 C 0.49412 0.77842 0.53735 0.0
C1020 C 0.49261 0.80698 0.553 0.0
C1021 C 0.48948 0.80881 0.58818 0.0
C1022 C 0.49414 0.72119 0.54142 0.0
C1023 C 0.4942 0.83561 0.53257 0.0
H1024 H 0.55195 0.77424 0.43932 0.0
H1025 H 0.45576 0.77268 0.42793 0.0
H1026 H 0.55492 0.79803 0.52211 0.0
H1027 H 0.55457 0.75797 0.52546 0.0
H1028 H 0.57558 0.77574 0.49199 0.0
H1029 H 0.42283 0.77403 0.474 0.0
H1030 H 0.4375 0.75647 0.51159 0.0
H1031 H 0.43708 0.79653 0.50834 0.0
H1032 H 0.48775 0.73428 0.60754 0.0
H1033 H 0.48825 0.83072 0.60008 0.0
H1034 H 0.51561 0.71874 0.52739 0.0
H1035 H 0.47562 0.71832 0.52292 0.0
H1036 H 0.49263 0.70291 0.56046 0.0
H1037 H 0.5157 0.83649 0.51837 0.0
H1038 H 0.49251 0.85604 0.54859 0.0
H1039 H 0.47572 0.83605 0.51374 0.0
C1040 C 0.78419 0.46707 0.39812 0.0
C1041 C 0.77996 0.49615 0.38526 0.0
C1042 C 0.78717 0.46211 0.43295 0.0
C1043 C 0.78587 0.48682 0.45541 0.0
C1044 C 0.78126 0.51618 0.44264 0.0
C1045 C 0.77836 0.52049 0.40772 0.0
C1046 C 0.79202 0.43048 0.4457 0.0
C1047 C 0.77968 0.54307 0.46586 0.0
C1048 C 0.76829 0.47229 0.54776 0.0
C1049 C 0.797 0.47371 0.56243 0.0
C1050 C 0.76435 0.47643 0.51293 0.0
C1051 C 0.78971 0.48205 0.49228 0.0
C1052 C 0.81875 0.48337 0.50688 0.0
C1053 C 0.82204 0.47921 0.5418 0.0
C1054 C 0.73302 0.47491 0.49824 0.0
C1055 C 0.84633 0.48927 0.48561 0.0
H1056 H 0.78543 0.44813 0.38097 0.0
H1057 H 0.77506 0.54304 0.39801 0.0
H1058 H 0.81383 0.42905 0.45921 0.0
H1059 H 0.77414 0.42443 0.46403 0.0
H1060 H 0.79198 0.41366 0.42496 0.0
H1061 H 0.77546 0.56434 0.45194 0.0
H1062 H 0.76149 0.53988 0.48471 0.0
H1063 H 0.8011 0.54533 0.48002 0.0
H1064 H 0.7488 0.46804 0.56351 0.0
H1065 H 0.8443 0.48029 0.55291 0.0
H1066 H 0.73193 0.45714 0.47863 0.0
H1067 H 0.72741 0.49653 0.48577 0.0
H1068 H 0.71569 0.47012 0.51772 0.0
H1069 H 0.84834 0.47187 0.46567 0.0
H1070 H 0.86734 0.48932 0.5008 0.0
H1071 H 0.84421 0.51132 0.47274 0.0
C1072 C 0.4766 0.24231 0.44036 0.0
C1073 C 0.46609 0.21451 0.42847 0.0
C1074 C 0.48162 0.24712 0.4749 0.0
C1075 C 0.47606 0.22355 0.49806 0.0
C1076 C 0.46525 0.19551 0.48628 0.0
C1077 C 0.46035 0.19134 0.4516 0.0
C1078 C 0.49309 0.27735 0.48656 0.0
C1079 C 0.45915 0.16983 0.51028 0.0
C1080 C 0.51663 0.22512 0.58225 0.0
C1081 C 0.49398 0.23541 0.60406 0.0
C1082 C 0.5111 0.22126 0.54768 0.0
C1083 C 0.48227 0.22798 0.53456 0.0
C1084 C 0.4594 0.23871 0.55631 0.0
C1085 C 0.46551 0.24224 0.59085 0.0
C1086 C 0.53603 0.2097 0.52525 0.0
C1087 C 0.42843 0.24626 0.54313 0.0
H1088 H 0.481 0.26038 0.42268 0.0
H1089 H 0.45219 0.16981 0.44263 0.0
H1090 H 0.47749 0.28704 0.50553 0.0
H1091 H 0.51527 0.27465 0.49903 0.0
H1092 H 0.49555 0.29357 0.46541 0.0
H1093 H 0.45028 0.14963 0.49713 0.0
H1094 H 0.48017 0.16356 0.52364 0.0
H1095 H 0.44264 0.17687 0.52975 0.0
H1096 H 0.53868 0.21974 0.59224 0.0
H1097 H 0.44791 0.25024 0.60752 0.0
H1098 H 0.54058 0.22602 0.5047 0.0
H1099 H 0.52903 0.1883 0.51319 0.0
H1100 H 0.55725 0.20573 0.53938 0.0
H1101 H 0.43011 0.26348 0.52295 0.0
H1102 H 0.4133 0.25486 0.56326 0.0
H1103 H 0.41802 0.22599 0.53174 0.0
C1104 C 0.72372 0.02467 0.07112 0.0
C1105 C 0.71099 0.00268 0.09213 0.0
C1106 C 0.72379 0.02125 0.03592 0.0
C1107 C 0.71097 0.99516 0.02142 0.0
C1108 C 0.69849 0.97266 0.04247 0.0
C1109 C 0.69858 0.97673 0.0776 0.0
C1110 C 0.73722 0.04576 0.01423 0.0
C1111 C 0.6848 0.94444 0.02787 0.0
C1112 C 0.6848 -0.00078 0.93036 0.0
C1113 C 0.7088 0.98555 0.91328 0.0
C1114 C 0.68521 0.00247 0.96558 0.0
C1115 C 0.71017 0.99164 0.98414 0.0
C1116 C 0.73441 0.97769 0.9671 0.0
C1117 C 0.73347 0.97488 0.93185 0.0
C1118 C 0.65901 0.0176 0.98291 0.0
C1119 C 0.76133 0.96577 0.98611 0.0
H1120 H 0.73333 0.04481 0.08213 0.0
H1121 H 0.68879 0.95959 0.09365 0.0
H1122 H 0.75533 0.03638 0.99809 0.0
H1123 H 0.71976 0.05505 0.99715 0.0
H1124 H 0.74671 0.06445 0.02949 0.0
H1125 H 0.67675 0.92876 0.04774 0.0
H1126 H 0.66555 0.95036 0.01134 0.0
H1127 H 0.70157 0.93257 0.01196 0.0
H1128 H 0.66568 0.00756 0.91619 0.0
H1129 H 0.75208 0.9642 0.91885 0.0
H1130 H 0.66697 0.03766 0.99694 0.0
H1131 H 0.64879 0.00207 0.00161 0.0
H1132 H 0.6413 0.02474 0.96481 0.0
H1133 H 0.77241 0.98429 0.00014 0.0
H1134 H 0.77816 0.9552 0.96912 0.0
H1135 H 0.75399 0.94886 0.005 0.0
C1136 C 0.97548 0.2817 0.92499 0.0
C1137 C 0.00435 0.27753 0.91149 0.0
C1138 C 0.97096 0.28333 0.95999 0.0
C1139 C 0.9959 0.28063 0.98199 0.0
C1140 C 0.02507 0.27623 0.96857 0.0
C1141 C 0.02896 0.27477 0.93346 0.0
C1142 C 0.93952 0.28812 0.97343 0.0
C1143 C 0.05217 0.27313 0.9913 0.0
C1144 C 0.98857 0.31231 0.07057 0.0
C1145 C 0.98215 0.28639 0.0894 0.0
C1146 C 0.99318 0.31074 0.03557 0.0
C1147 C 0.99146 0.28256 0.01909 0.0
C1148 C 0.98525 0.25628 0.03798 0.0
C1149 C 0.98059 0.25852 0.07291 0.0
C1150 C -0.00035 0.33927 0.01619 0.0
C1151 C 0.9834 0.22582 0.02126 0.0
H1152 H 0.95635 0.28389 0.9082 0.0
H1153 H 0.05134 0.2715 0.92325 0.0
H1154 H 0.9332 0.26933 0.99044 0.0
H1155 H 0.93868 0.30908 0.98857 0.0
H1156 H 0.92253 0.28969 0.95294 0.0
H1157 H 0.07329 0.26947 0.97685 0.0
H1158 H 0.05479 0.29368 0.00689 0.0
H1159 H 0.04895 0.25399 0.00889 0.0
H1160 H 0.98976 0.33393 0.0831 0.0
H1161 H 0.97568 0.23837 0.0873 0.0
H1162 H 0.98209 0.34284 0.9967 0.0
H1163 H 0.02151 0.33729 0.00286 0.0
H1164 H 0.00043 0.35936 0.03283 0.0
H1165 H 0.96529 0.22584 0.00199 0.0
H1166 H 0.97882 0.20751 0.03964 0.0
H1167 H 0.0048 0.2208 0.00799 0.0
C1168 C 0.2646 0.01432 0.91424 0.0
C1169 C 0.2927 0.01362 0.89811 0.0
C1170 C 0.26225 0.01069 0.94933 0.0
C1171 C 0.28864 0.00642 0.96874 0.0
C1172 C 0.31705 0.00564 0.95261 0.0
C1173 C 0.31873 0.00918 0.91747 0.0
C1174 C 0.23155 0.0115 0.96565 0.0
C1175 C 0.34569 0.00123 0.97252 0.0
C1176 C 0.28655 0.02478 0.0623 0.0
C1177 C 0.28401 0.9961 0.07675 0.0
C1178 C 0.28792 0.02848 0.02715 0.0
C1179 C 0.28658 0.00289 0.00597 0.0
C1180 C 0.2837 0.97391 0.02035 0.0
C1181 C 0.28251 0.97085 0.05558 0.0
C1182 C 0.29109 0.05974 0.01269 0.0
C1183 C 0.28205 0.94611 0.99852 0.0
H1184 H 0.24437 0.01769 0.89945 0.0
H1185 H 0.34053 0.00867 0.90522 0.0
H1186 H 0.22743 0.99025 0.97957 0.0
H1187 H 0.23052 0.03006 0.98432 0.0
H1188 H 0.21322 0.01469 0.94693 0.0
H1189 H 0.36599 0.00112 0.95615 0.0
H1190 H 0.34811 0.01944 0.99147 0.0
H1191 H 0.34474 0.97965 0.98654 0.0
H1192 H 0.28775 0.04441 0.07846 0.0
H1193 H 0.28047 0.9486 0.06652 0.0
H1194 H 0.27217 0.06452 0.99524 0.0
H1195 H 0.31217 0.06134 0.99778 0.0
H1196 H 0.29149 0.07732 0.0326 0.0
H1197 H 0.26294 0.94797 0.98062 0.0
H1198 H 0.2792 0.92526 0.01364 0.0
H1199 H 0.30287 0.94403 0.98325 0.0
C1200 C 0.9711 0.72551 0.92667 0.0
C1201 C 0.99293 0.71238 0.90573 0.0
C1202 C 0.9743 0.72531 0.9619 0.0
C1203 C -1e-05 0.71179 0.97652 0.0
C1204 C 0.02222 0.69872 0.95556 0.0
C1205 C 0.01838 0.69911 0.9204 0.0
C1206 C 0.95009 0.73939 0.98348 0.0
C1207 C 0.05 0.68424 0.97029 0.0
C1208 C 0.02216 0.73417 0.06556 0.0
C1209 C 0.01125 0.70983 0.0845 0.0
C1210 C 0.01855 0.73515 0.0304 0.0
C1211 C 0.00361 0.71126 0.01381 0.0
C1212 C 0.99232 0.68675 0.03278 0.0
C1213 C 0.9963 0.68632 0.06792 0.0
C1214 C 0.03092 0.76164 0.01098 0.0
C1215 C 0.97618 0.66091 0.01592 0.0
H1216 H 0.95132 0.73576 0.91555 0.0
H1217 H 0.03537 0.68897 0.90441 0.0
H1218 H 0.94051 0.72231 0.00085 0.0
H1219 H 0.95987 0.75748 -0.00067 0.0
H1220 H 0.93153 0.74906 0.96815 0.0
H1221 H 0.06531 0.67535 0.95049 0.0
H1222 H 0.06254 0.7008 0.98579 0.0
H1223 H 0.04347 0.66547 0.98723 0.0
H1224 H 0.03378 0.75242 0.07816 0.0
H1225 H 0.98778 0.66745 0.08236 0.0
H1226 H 0.01259 0.77282 0.99671 0.0
H1227 H 0.04775 0.75379 0.99227 0.0
H1228 H 0.04175 0.7785 0.02772 0.0
H1229 H 0.95642 0.66939 0.00171 0.0
H1230 H 0.96838 0.64376 0.03435 0.0
H1231 H 0.99134 0.64988 0.99744 0.0
loop_
_geom_bond_atom_site_label_1
_geom_bond_atom_site_label_2
_geom_bond_distance
_geom_bond_site_symmetry_2
_ccdc_geom_bond_type
C0 O1 1.160 . S
C0 O7 1.185 . S
O1 C0 1.160 . S
O2 Zn3 1.899 . S
O2 C10 1.284 . S
Zn3 O2 1.899 . S
Zn3 O4 2.032 . S
Zn3 O7 2.086 . S
Zn3 O12 1.977 . S
O4 Zn3 2.032 . S
O4 C8 1.278 . S
C5 O6 1.203 . S
C5 O12 1.267 . S
O6 C5 1.203 . S
O7 C0 1.185 . S
O7 Zn3 2.086 . S
C8 O4 1.278 . S
C8 O9 1.211 . S
O9 C8 1.211 . S
C10 O2 1.284 . S
C10 O11 1.273 . S
O11 C10 1.273 . S
O12 Zn3 1.977 . S
O12 C5 1.267 . S
C13 O14 1.160 . S
C13 O20 1.185 . S
O14 C13 1.160 . S
O15 Zn16 1.899 . S
O15 C23 1.284 . S
Zn16 O15 1.899 . S
Zn16 O17 2.032 . S
Zn16 O20 2.086 . S
Zn16 O25 1.977 . S
O17 Zn16 2.032 . S
O17 C21 1.278 . S
C18 O19 1.203 . S
C18 O25 1.267 . S
O19 C18 1.203 . S
O20 C13 1.185 . S
O20 Zn16 2.086 . S
C21 O17 1.278 . S
C21 O22 1.211 . S
O22 C21 1.211 . S
C23 O15 1.284 . S
C23 O24 1.273 . S
O24 C23 1.273 . S
O25 Zn16 1.977 . S
O25 C18 1.267 . S
C26 O27 1.160 . S
C26 O33 1.185 . S
O27 C26 1.160 . S
O28 Zn29 1.899 . S
O28 C36 1.284 . S
Zn29 O28 1.899 . S
Zn29 O30 2.032 . S
Zn29 O33 2.086 . S
Zn29 O38 1.977 . S
O30 Zn29 2.032 . S
O30 C34 1.278 . S
C31 O32 1.203 . S
C31 O38 1.267 . S
O32 C31 1.203 . S
O33 C26 1.185 . S
O33 Zn29 2.086 . S
C34 O30 1.278 . S
C34 O35 1.211 . S
O35 C34 1.211 . S
C36 O28 1.284 . S
C36 O37 1.273 . S
O37 C36 1.273 . S
O38 Zn29 1.977 . S
O38 C31 1.267 . S
C39 O40 1.160 . S
C39 O46 1.185 . S
O40 C39 1.160 . S
O41 Zn42 1.899 . S
O41 C49 1.284 . S
Zn42 O41 1.899 . S
Zn42 O43 2.032 . S
Zn42 O46 2.086 . S
Zn42 O51 1.977 . S
O43 Zn42 2.032 . S
O43 C47 1.278 . S
C44 O45 1.203 . S
C44 O51 1.267 . S
O45 C44 1.203 . S
O46 C39 1.185 . S
O46 Zn42 2.086 . S
C47 O43 1.278 . S
C47 O48 1.211 . S
O48 C47 1.211 . S
C49 O41 1.284 . S
C49 O50 1.273 . S
O50 C49 1.273 . S
O51 Zn42 1.977 . S
O51 C44 1.267 . S
C52 O53 1.160 . S
C52 O59 1.185 . S
O53 C52 1.160 . S
O54 Zn55 1.899 . S
O54 C62 1.284 . S
Zn55 O54 1.899 . S
Zn55 O56 2.032 . S
Zn55 O59 2.086 . S
Zn55 O64 1.977 . S
O56 Zn55 2.032 . S
O56 C60 1.278 . S
C57 O58 1.203 . S
C57 O64 1.267 . S
O58 C57 1.203 . S
O59 C52 1.185 . S
O59 Zn55 2.086 . S
C60 O56 1.278 . S
C60 O61 1.211 . S
O61 C60 1.211 . S
C62 O54 1.284 . S
C62 O63 1.273 . S
O63 C62 1.273 . S
O64 Zn55 1.977 . S
O64 C57 1.267 . S
C65 O66 1.160 . S
C65 O72 1.185 . S
O66 C65 1.160 . S
O67 Zn68 1.899 . S
O67 C75 1.284 . S
Zn68 O67 1.899 . S
Zn68 O69 2.032 . S
Zn68 O72 2.086 . S
Zn68 O77 1.977 . S
O69 Zn68 2.032 . S
O69 C73 1.278 . S
C70 O71 1.203 . S
C70 O77 1.267 . S
O71 C70 1.203 . S
O72 C65 1.185 . S
O72 Zn68 2.086 . S
C73 O69 1.278 . S
C73 O74 1.211 . S
O74 C73 1.211 . S
C75 O67 1.284 . S
C75 O76 1.273 . S
O76 C75 1.273 . S
O77 Zn68 1.977 . S
O77 C70 1.267 . S
C78 O79 1.160 . S
C78 O85 1.185 . S
O79 C78 1.160 . S
O80 Zn81 1.899 . S
O80 C88 1.284 . S
Zn81 O80 1.899 . S
Zn81 O82 2.032 . S
Zn81 O85 2.086 . S
Zn81 O90 1.977 . S
O82 Zn81 2.032 . S
O82 C86 1.278 . S
C83 O84 1.203 . S
C83 O90 1.267 . S
O84 C83 1.203 . S
O85 C78 1.185 . S
O85 Zn81 2.086 . S
C86 O82 1.278 . S
C86 O87 1.211 . S
O87 C86 1.211 . S
C88 O80 1.284 . S
C88 O89 1.273 . S
O89 C88 1.273 . S
O90 Zn81 1.977 . S
O90 C83 1.267 . S
C91 O92 1.160 . S
C91 O98 1.185 . S
O92 C91 1.160 . S
O93 Zn94 1.899 . S
O93 C101 1.284 . S
Zn94 O93 1.899 . S
Zn94 O95 2.032 . S
Zn94 O98 2.086 . S
Zn94 O103 1.977 . S
O95 Zn94 2.032 . S
O95 C99 1.278 . S
C96 O97 1.203 . S
C96 O103 1.267 . S
O97 C96 1.203 . S
O98 C91 1.185 . S
O98 Zn94 2.086 . S
C99 O95 1.278 . S
C99 O100 1.211 . S
O100 C99 1.211 . S
C101 O93 1.284 . S
C101 O102 1.273 . S
O102 C101 1.273 . S
O103 Zn94 1.977 . S
O103 C96 1.267 . S
C104 O105 1.160 . S
C104 O111 1.185 . S
O105 C104 1.160 . S
O106 Zn107 1.899 . S
O106 C114 1.284 . S
Zn107 O106 1.899 . S
Zn107 O108 2.032 . S
Zn107 O111 2.086 . S
Zn107 O116 1.977 . S
O108 Zn107 2.032 . S
O108 C112 1.278 . S
C109 O110 1.203 1_545 S
C109 O116 1.267 1_545 S
O110 C109 1.203 1_565 S
O111 C104 1.185 . S
O111 Zn107 2.086 . S
C112 O108 1.278 . S
C112 O113 1.211 . S
O113 C112 1.211 . S
C114 O106 1.284 . S
C114 O115 1.273 . S
O115 C114 1.273 . S
O116 Zn107 1.977 . S
O116 C109 1.267 1_565 S
C117 O118 1.160 . S
C117 O124 1.185 . S
O118 C117 1.160 . S
O119 Zn120 1.899 . S
O119 C127 1.284 . S
Zn120 O119 1.899 . S
Zn120 O121 2.032 . S
Zn120 O124 2.086 . S
Zn120 O129 1.977 . S
O121 Zn120 2.032 . S
O121 C125 1.278 . S
C122 O123 1.203 1_455 S
C122 O129 1.267 1_455 S
O123 C122 1.203 1_655 S
O124 C117 1.185 . S
O124 Zn120 2.086 . S
C125 O121 1.278 . S
C125 O126 1.211 . S
O126 C125 1.211 . S
C127 O119 1.284 . S
C127 O128 1.273 . S
O128 C127 1.273 . S
O129 Zn120 1.977 . S
O129 C122 1.267 1_655 S
C130 O131 1.160 . S
C130 O137 1.185 . S
O131 C130 1.160 . S
O132 Zn133 1.899 . S
O132 C140 1.284 . S
Zn133 O132 1.899 . S
Zn133 O134 2.032 . S
Zn133 O137 2.086 . S
Zn133 O142 1.977 . S
O134 Zn133 2.032 . S
O134 C138 1.278 . S
C135 O136 1.203 1_565 S
C135 O142 1.267 1_565 S
O136 C135 1.203 1_545 S
O137 C130 1.185 . S
O137 Zn133 2.086 . S
C138 O134 1.278 . S
C138 O139 1.211 . S
O139 C138 1.211 . S
C140 O132 1.284 . S
C140 O141 1.273 . S
O141 C140 1.273 . S
O142 Zn133 1.977 . S
O142 C135 1.267 1_545 S
C143 O144 1.160 . S
C143 O150 1.185 . S
O144 C143 1.160 . S
O145 Zn146 1.899 . S
O145 C153 1.284 . S
Zn146 O145 1.899 . S
Zn146 O147 2.032 . S
Zn146 O150 2.086 . S
Zn146 O155 1.977 . S
O147 Zn146 2.032 . S
O147 C151 1.278 . S
C148 O149 1.203 1_655 S
C148 O155 1.267 1_655 S
O149 C148 1.203 1_455 S
O150 C143 1.185 . S
O150 Zn146 2.086 . S
C151 O147 1.278 . S
C151 O152 1.211 . S
O152 C151 1.211 . S
C153 O145 1.284 . S
C153 O154 1.273 . S
O154 C153 1.273 . S
O155 Zn146 1.977 . S
O155 C148 1.267 1_455 S
C156 O157 1.160 . S
C156 O163 1.185 . S
O157 C156 1.160 . S
O158 Zn159 1.899 . S
O158 C166 1.284 . S
Zn159 O158 1.899 . S
Zn159 O160 2.032 . S
Zn159 O163 2.086 . S
Zn159 O168 1.977 . S
O160 Zn159 2.032 . S
O160 C164 1.278 . S
C161 O162 1.203 1_565 S
C161 O168 1.267 1_565 S
O162 C161 1.203 1_545 S
O163 C156 1.185 . S
O163 Zn159 2.086 . S
C164 O160 1.278 . S
C164 O165 1.211 . S
O165 C164 1.211 . S
C166 O158 1.284 . S
C166 O167 1.273 . S
O167 C166 1.273 . S
O168 Zn159 1.977 . S
O168 C161 1.267 1_545 S
C169 O170 1.160 . S
C169 O176 1.185 . S
O170 C169 1.160 . S
O171 Zn172 1.899 . S
O171 C179 1.284 . S
Zn172 O171 1.899 . S
Zn172 O173 2.032 . S
Zn172 O176 2.086 . S
Zn172 O181 1.977 . S
O173 Zn172 2.032 . S
O173 C177 1.278 . S
C174 O175 1.203 1_655 S
C174 O181 1.267 1_655 S
O175 C174 1.203 1_455 S
O176 C169 1.185 . S
O176 Zn172 2.086 . S
C177 O173 1.278 . S
C177 O178 1.211 . S
O178 C177 1.211 . S
C179 O171 1.284 . S
C179 O180 1.273 . S
O180 C179 1.273 . S
O181 Zn172 1.977 . S
O181 C174 1.267 1_455 S
C182 O183 1.160 . S
C182 O189 1.185 . S
O183 C182 1.160 . S
O184 Zn185 1.899 . S
O184 C192 1.284 . S
Zn185 O184 1.899 . S
Zn185 O186 2.032 . S
Zn185 O189 2.086 . S
Zn185 O194 1.977 . S
O186 Zn185 2.032 . S
O186 C190 1.278 . S
C187 O188 1.203 1_545 S
C187 O194 1.267 1_545 S
O188 C187 1.203 1_565 S
O189 C182 1.185 . S
O189 Zn185 2.086 . S
C190 O186 1.278 . S
C190 O191 1.211 . S
O191 C190 1.211 . S
C192 O184 1.284 . S
C192 O193 1.273 . S
O193 C192 1.273 . S
O194 Zn185 1.977 . S
O194 C187 1.267 1_565 S
C195 O196 1.160 . S
C195 O202 1.185 . S
O196 C195 1.160 . S
O197 Zn198 1.899 . S
O197 C205 1.284 . S
Zn198 O197 1.899 . S
Zn198 O199 2.032 . S
Zn198 O202 2.086 . S
Zn198 O207 1.977 . S
O199 Zn198 2.032 . S
O199 C203 1.278 . S
C200 O201 1.203 1_455 S
C200 O207 1.267 1_455 S
O201 C200 1.203 1_655 S
O202 C195 1.185 . S
O202 Zn198 2.086 . S
C203 O199 1.278 . S
C203 O204 1.211 . S
O204 C203 1.211 . S
C205 O197 1.284 . S
C205 O206 1.273 . S
O206 C205 1.273 . S
O207 Zn198 1.977 . S
O207 C200 1.267 1_655 S
C208 C209 1.391 . S
C208 C210 1.394 . S
C208 H224 0.931 . S
C209 C208 1.391 . S
C209 C213 1.376 . S
C210 C208 1.394 . S
C210 C211 1.369 . S
C210 C214 1.531 . S
C211 C210 1.369 . S
C211 C212 1.410 . S
C211 C219 1.503 . S
C212 C211 1.410 . S
C212 C213 1.392 . S
C212 C215 1.511 . S
C213 C209 1.376 . S
C213 C212 1.392 . S
C213 H225 0.929 . S
C214 C210 1.531 . S
C214 H226 0.960 . S
C214 H227 0.962 . S
C214 H228 0.960 . S
C215 C212 1.511 . S
C215 H229 0.961 . S
C215 H230 0.961 . S
C215 H231 0.961 . S
C216 C217 1.370 . S
C216 C218 1.363 . S
C216 H232 0.931 . S
C217 C216 1.370 . S
C217 C221 1.408 . S
C218 C216 1.363 . S
C218 C219 1.370 . S
C218 C222 1.524 . S
C219 C211 1.503 . S
C219 C218 1.370 . S
C219 C220 1.403 . S
C220 C219 1.403 . S
C220 C221 1.404 . S
C220 C223 1.539 . S
C221 C217 1.408 . S
C221 C220 1.404 . S
C221 H233 0.930 . S
C222 C218 1.524 . S
C222 H234 0.956 . S
C222 H235 0.961 . S
C222 H236 0.961 . S
C223 C220 1.539 . S
C223 H237 0.958 . S
C223 H238 0.961 . S
C223 H239 0.960 . S
H224 C208 0.931 . S
H225 C213 0.929 . S
H226 C214 0.960 . S
H227 C214 0.962 . S
H228 C214 0.960 . S
H229 C215 0.961 . S
H230 C215 0.961 . S
H231 C215 0.961 . S
H232 C216 0.931 . S
H233 C221 0.930 . S
H234 C222 0.956 . S
H235 C222 0.961 . S
H236 C222 0.961 . S
H237 C223 0.958 . S
H238 C223 0.961 . S
H239 C223 0.960 . S
C240 C241 1.391 . S
C240 C242 1.394 . S
C240 H256 0.931 . S
C241 C240 1.391 . S
C241 C245 1.376 . S
C242 C240 1.394 . S
C242 C243 1.369 . S
C242 C246 1.531 . S
C243 C242 1.369 . S
C243 C244 1.410 . S
C243 C251 1.503 . S
C244 C243 1.410 . S
C244 C245 1.392 . S
C244 C247 1.511 . S
C245 C241 1.376 . S
C245 C244 1.392 . S
C245 H257 0.929 . S
C246 C242 1.531 . S
C246 H258 0.960 . S
C246 H259 0.962 . S
C246 H260 0.960 . S
C247 C244 1.511 . S
C247 H261 0.961 . S
C247 H262 0.961 . S
C247 H263 0.961 . S
C248 C249 1.370 . S
C248 C250 1.363 . S
C248 H264 0.931 . S
C249 C248 1.370 . S
C249 C253 1.408 . S
C250 C248 1.363 . S
C250 C251 1.370 . S
C250 C254 1.524 . S
C251 C243 1.503 . S
C251 C250 1.370 . S
C251 C252 1.403 . S
C252 C251 1.403 . S
C252 C253 1.404 . S
C252 C255 1.539 . S
C253 C249 1.408 . S
C253 C252 1.404 . S
C253 H265 0.930 . S
C254 C250 1.524 . S
C254 H266 0.956 . S
C254 H267 0.961 . S
C254 H268 0.961 . S
C255 C252 1.539 . S
C255 H269 0.958 . S
C255 H270 0.961 . S
C255 H271 0.960 . S
H256 C240 0.931 . S
H257 C245 0.929 . S
H258 C246 0.960 . S
H259 C246 0.962 . S
H260 C246 0.960 . S
H261 C247 0.961 . S
H262 C247 0.961 . S
H263 C247 0.961 . S
H264 C248 0.931 . S
H265 C253 0.930 . S
H266 C254 0.956 . S
H267 C254 0.961 . S
H268 C254 0.961 . S
H269 C255 0.958 . S
H270 C255 0.961 . S
H271 C255 0.960 . S
C272 C273 1.391 . S
C272 C274 1.394 . S
C272 H288 0.931 . S
C273 C272 1.391 . S
C273 C277 1.376 . S
C274 C272 1.394 . S
C274 C275 1.369 . S
C274 C278 1.531 . S
C275 C274 1.369 . S
C275 C276 1.410 . S
C275 C283 1.503 . S
C276 C275 1.410 . S
C276 C277 1.392 . S
C276 C279 1.511 . S
C277 C273 1.376 . S
C277 C276 1.392 . S
C277 H289 0.929 . S
C278 C274 1.531 . S
C278 H290 0.960 . S
C278 H291 0.962 . S
C278 H292 0.960 . S
C279 C276 1.511 . S
C279 H293 0.961 . S
C279 H294 0.961 . S
C279 H295 0.961 . S
C280 C281 1.370 . S
C280 C282 1.363 . S
C280 H296 0.931 . S
C281 C280 1.370 . S
C281 C285 1.408 . S
C282 C280 1.363 . S
C282 C283 1.370 . S
C282 C286 1.524 . S
C283 C275 1.503 . S
C283 C282 1.370 . S
C283 C284 1.403 . S
C284 C283 1.403 . S
C284 C285 1.404 . S
C284 C287 1.539 . S
C285 C281 1.408 . S
C285 C284 1.404 . S
C285 H297 0.930 . S
C286 C282 1.524 . S
C286 H298 0.956 . S
C286 H299 0.961 . S
C286 H300 0.961 . S
C287 C284 1.539 . S
C287 H301 0.958 . S
C287 H302 0.961 . S
C287 H303 0.960 . S
H288 C272 0.931 . S
H289 C277 0.929 . S
H290 C278 0.960 . S
H291 C278 0.962 . S
H292 C278 0.960 . S
H293 C279 0.961 . S
H294 C279 0.961 . S
H295 C279 0.961 . S
H296 C280 0.931 . S
H297 C285 0.930 . S
H298 C286 0.956 . S
H299 C286 0.961 . S
H300 C286 0.961 . S
H301 C287 0.958 . S
H302 C287 0.961 . S
H303 C287 0.960 . S
C304 C305 1.391 . S
C304 C306 1.394 . S
C304 H320 0.931 . S
C305 C304 1.391 . S
C305 C309 1.376 . S
C306 C304 1.394 . S
C306 C307 1.369 . S
C306 C310 1.531 . S
C307 C306 1.369 . S
C307 C308 1.410 . S
C307 C315 1.503 . S
C308 C307 1.410 . S
C308 C309 1.392 . S
C308 C311 1.511 . S
C309 C305 1.376 . S
C309 C308 1.392 . S
C309 H321 0.929 . S
C310 C306 1.531 . S
C310 H322 0.960 . S
C310 H323 0.962 . S
C310 H324 0.960 . S
C311 C308 1.511 . S
C311 H325 0.961 . S
C311 H326 0.961 . S
C311 H327 0.961 . S
C312 C313 1.370 . S
C312 C314 1.363 . S
C312 H328 0.931 . S
C313 C312 1.370 . S
C313 C317 1.408 . S
C314 C312 1.363 . S
C314 C315 1.370 . S
C314 C318 1.524 . S
C315 C307 1.503 . S
C315 C314 1.370 . S
C315 C316 1.403 . S
C316 C315 1.403 . S
C316 C317 1.404 . S
C316 C319 1.539 . S
C317 C313 1.408 . S
C317 C316 1.404 . S
C317 H329 0.930 . S
C318 C314 1.524 . S
C318 H330 0.956 . S
C318 H331 0.961 . S
C318 H332 0.961 . S
C319 C316 1.539 . S
C319 H333 0.958 . S
C319 H334 0.961 . S
C319 H335 0.960 . S
H320 C304 0.931 . S
H321 C309 0.929 . S
H322 C310 0.960 . S
H323 C310 0.962 . S
H324 C310 0.960 . S
H325 C311 0.961 . S
H326 C311 0.961 . S
H327 C311 0.961 . S
H328 C312 0.931 . S
H329 C317 0.930 . S
H330 C318 0.956 . S
H331 C318 0.961 . S
H332 C318 0.961 . S
H333 C319 0.958 . S
H334 C319 0.961 . S
H335 C319 0.960 . S
C336 C337 1.391 . S
C336 C338 1.394 . S
C336 H352 0.931 . S
C337 C336 1.391 . S
C337 C341 1.376 . S
C338 C336 1.394 . S
C338 C339 1.369 . S
C338 C342 1.531 . S
C339 C338 1.369 . S
C339 C340 1.410 . S
C339 C347 1.503 . S
C340 C339 1.410 . S
C340 C341 1.392 . S
C340 C343 1.511 . S
C341 C337 1.376 . S
C341 C340 1.392 . S
C341 H353 0.929 . S
C342 C338 1.531 . S
C342 H354 0.960 . S
C342 H355 0.962 . S
C342 H356 0.960 . S
C343 C340 1.511 . S
C343 H357 0.961 . S
C343 H358 0.961 . S
C343 H359 0.961 . S
C344 C345 1.370 . S
C344 C346 1.363 . S
C344 H360 0.931 . S
C345 C344 1.370 . S
C345 C349 1.408 . S
C346 C344 1.363 . S
C346 C347 1.370 . S
C346 C350 1.524 . S
C347 C339 1.503 . S
C347 C346 1.370 . S
C347 C348 1.403 . S
C348 C347 1.403 . S
C348 C349 1.404 . S
C348 C351 1.539 . S
C349 C345 1.408 . S
C349 C348 1.404 . S
C349 H361 0.930 . S
C350 C346 1.524 . S
C350 H362 0.956 . S
C350 H363 0.961 . S
C350 H364 0.961 . S
C351 C348 1.539 . S
C351 H365 0.958 . S
C351 H366 0.961 . S
C351 H367 0.960 . S
H352 C336 0.931 . S
H353 C341 0.929 . S
H354 C342 0.960 . S
H355 C342 0.962 . S
H356 C342 0.960 . S
H357 C343 0.961 . S
H358 C343 0.961 . S
H359 C343 0.961 . S
H360 C344 0.931 . S
H361 C349 0.930 . S
H362 C350 0.956 . S
H363 C350 0.961 . S
H364 C350 0.961 . S
H365 C351 0.958 . S
H366 C351 0.961 . S
H367 C351 0.960 . S
C368 C369 1.391 . S
C368 C370 1.394 . S
C368 H384 0.931 . S
C369 C368 1.391 . S
C369 C373 1.376 . S
C370 C368 1.394 . S
C370 C371 1.369 . S
C370 C374 1.531 . S
C371 C370 1.369 . S
C371 C372 1.410 . S
C371 C379 1.503 . S
C372 C371 1.410 . S
C372 C373 1.392 . S
C372 C375 1.511 . S
C373 C369 1.376 . S
C373 C372 1.392 . S
C373 H385 0.929 . S
C374 C370 1.531 . S
C374 H386 0.960 . S
C374 H387 0.962 . S
C374 H388 0.960 . S
C375 C372 1.511 . S
C375 H389 0.961 . S
C375 H390 0.961 . S
C375 H391 0.961 . S
C376 C377 1.370 . S
C376 C378 1.363 . S
C376 H392 0.931 . S
C377 C376 1.370 . S
C377 C381 1.408 . S
C378 C376 1.363 . S
C378 C379 1.370 . S
C378 C382 1.524 . S
C379 C371 1.503 . S
C379 C378 1.370 . S
C379 C380 1.403 . S
C380 C379 1.403 . S
C380 C381 1.404 . S
C380 C383 1.539 . S
C381 C377 1.408 . S
C381 C380 1.404 . S
C381 H393 0.930 . S
C382 C378 1.524 . S
C382 H394 0.956 . S
C382 H395 0.961 . S
C382 H396 0.961 . S
C383 C380 1.539 . S
C383 H397 0.958 . S
C383 H398 0.961 . S
C383 H399 0.960 . S
H384 C368 0.931 . S
H385 C373 0.929 . S
H386 C374 0.960 . S
H387 C374 0.962 . S
H388 C374 0.960 . S
H389 C375 0.961 . S
H390 C375 0.961 . S
H391 C375 0.961 . S
H392 C376 0.931 . S
H393 C381 0.930 . S
H394 C382 0.956 . S
H395 C382 0.961 . S
H396 C382 0.961 . S
H397 C383 0.958 . S
H398 C383 0.961 . S
H399 C383 0.960 . S
C400 C401 1.391 . S
C400 C402 1.394 . S
C400 H416 0.931 . S
C401 C400 1.391 . S
C401 C405 1.376 . S
C402 C400 1.394 . S
C402 C403 1.369 . S
C402 C406 1.531 . S
C403 C402 1.369 . S
C403 C404 1.410 . S
C403 C411 1.503 . S
C404 C403 1.410 . S
C404 C405 1.392 . S
C404 C407 1.511 . S
C405 C401 1.376 . S
C405 C404 1.392 . S
C405 H417 0.929 . S
C406 C402 1.531 . S
C406 H418 0.960 . S
C406 H419 0.962 . S
C406 H420 0.960 . S
C407 C404 1.511 . S
C407 H421 0.961 . S
C407 H422 0.961 . S
C407 H423 0.961 . S
C408 C409 1.370 . S
C408 C410 1.363 . S
C408 H424 0.931 . S
C409 C408 1.370 . S
C409 C413 1.408 . S
C410 C408 1.363 . S
C410 C411 1.370 . S
C410 C414 1.524 . S
C411 C403 1.503 . S
C411 C410 1.370 . S
C411 C412 1.403 . S
C412 C411 1.403 . S
C412 C413 1.404 . S
C412 C415 1.539 . S
C413 C409 1.408 . S
C413 C412 1.404 . S
C413 H425 0.930 . S
C414 C410 1.524 . S
C414 H426 0.956 . S
C414 H427 0.961 . S
C414 H428 0.961 . S
C415 C412 1.539 . S
C415 H429 0.958 . S
C415 H430 0.961 . S
C415 H431 0.960 . S
H416 C400 0.931 . S
H417 C405 0.929 . S
H418 C406 0.960 . S
H419 C406 0.962 . S
H420 C406 0.960 . S
H421 C407 0.961 . S
H422 C407 0.961 . S
H423 C407 0.961 . S
H424 C408 0.931 . S
H425 C413 0.930 . S
H426 C414 0.956 . S
H427 C414 0.961 . S
H428 C414 0.961 . S
H429 C415 0.958 . S
H430 C415 0.961 . S
H431 C415 0.960 . S
C432 C433 1.391 . S
C432 C434 1.394 . S
C432 H448 0.931 . S
C433 C432 1.391 . S
C433 C437 1.376 . S
C434 C432 1.394 . S
C434 C435 1.369 . S
C434 C438 1.531 . S
C435 C434 1.369 . S
C435 C436 1.410 . S
C435 C443 1.503 . S
C436 C435 1.410 . S
C436 C437 1.392 . S
C436 C439 1.511 . S
C437 C433 1.376 . S
C437 C436 1.392 . S
C437 H449 0.929 . S
C438 C434 1.531 . S
C438 H450 0.960 . S
C438 H451 0.962 . S
C438 H452 0.960 . S
C439 C436 1.511 . S
C439 H453 0.961 . S
C439 H454 0.961 . S
C439 H455 0.961 . S
C440 C441 1.370 . S
C440 C442 1.363 . S
C440 H456 0.931 . S
C441 C440 1.370 . S
C441 C445 1.408 . S
C442 C440 1.363 . S
C442 C443 1.370 . S
C442 C446 1.524 . S
C443 C435 1.503 . S
C443 C442 1.370 . S
C443 C444 1.403 . S
C444 C443 1.403 . S
C444 C445 1.404 . S
C444 C447 1.539 . S
C445 C441 1.408 . S
C445 C444 1.404 . S
C445 H457 0.930 . S
C446 C442 1.524 . S
C446 H458 0.956 . S
C446 H459 0.961 . S
C446 H460 0.961 . S
C447 C444 1.539 . S
C447 H461 0.958 . S
C447 H462 0.961 . S
C447 H463 0.960 . S
H448 C432 0.931 . S
H449 C437 0.929 . S
H450 C438 0.960 . S
H451 C438 0.962 . S
H452 C438 0.960 . S
H453 C439 0.961 . S
H454 C439 0.961 . S
H455 C439 0.961 . S
H456 C440 0.931 . S
H457 C445 0.930 . S
H458 C446 0.956 . S
H459 C446 0.961 . S
H460 C446 0.961 . S
H461 C447 0.958 . S
H462 C447 0.961 . S
H463 C447 0.960 . S
C464 C465 1.391 . S
C464 C466 1.394 . S
C464 H480 0.931 . S
C465 C464 1.391 . S
C465 C469 1.376 . S
C466 C464 1.394 . S
C466 C467 1.369 . S
C466 C470 1.531 . S
C467 C466 1.369 . S
C467 C468 1.410 . S
C467 C475 1.503 . S
C468 C467 1.410 . S
C468 C469 1.392 . S
C468 C471 1.511 . S
C469 C465 1.376 . S
C469 C468 1.392 . S
C469 H481 0.929 . S
C470 C466 1.531 . S
C470 H482 0.960 . S
C470 H483 0.962 . S
C470 H484 0.960 . S
C471 C468 1.511 . S
C471 H485 0.961 . S
C471 H486 0.961 . S
C471 H487 0.961 . S
C472 C473 1.370 . S
C472 C474 1.363 . S
C472 H488 0.931 . S
C473 C472 1.370 . S
C473 C477 1.408 . S
C474 C472 1.363 . S
C474 C475 1.370 . S
C474 C478 1.524 . S
C475 C467 1.503 . S
C475 C474 1.370 . S
C475 C476 1.403 . S
C476 C475 1.403 . S
C476 C477 1.404 . S
C476 C479 1.539 . S
C477 C473 1.408 . S
C477 C476 1.404 . S
C477 H489 0.930 . S
C478 C474 1.524 . S
C478 H490 0.956 . S
C478 H491 0.961 . S
C478 H492 0.961 . S
C479 C476 1.539 . S
C479 H493 0.958 . S
C479 H494 0.961 . S
C479 H495 0.960 . S
H480 C464 0.931 . S
H481 C469 0.929 . S
H482 C470 0.960 . S
H483 C470 0.962 . S
H484 C470 0.960 . S
H485 C471 0.961 . S
H486 C471 0.961 . S
H487 C471 0.961 . S
H488 C472 0.931 . S
H489 C477 0.930 . S
H490 C478 0.956 . S
H491 C478 0.961 . S
H492 C478 0.961 . S
H493 C479 0.958 . S
H494 C479 0.961 . S
H495 C479 0.960 . S
C496 C497 1.391 . S
C496 C498 1.394 . S
C496 H512 0.931 . S
C497 C496 1.391 . S
C497 C501 1.376 . S
C498 C496 1.394 . S
C498 C499 1.369 . S
C498 C502 1.531 . S
C499 C498 1.369 . S
C499 C500 1.410 . S
C499 C507 1.503 . S
C500 C499 1.410 . S
C500 C501 1.392 . S
C500 C503 1.511 . S
C501 C497 1.376 . S
C501 C500 1.392 . S
C501 H513 0.929 . S
C502 C498 1.531 . S
C502 H514 0.960 . S
C502 H515 0.962 . S
C502 H516 0.960 . S
C503 C500 1.511 . S
C503 H517 0.961 . S
C503 H518 0.961 . S
C503 H519 0.961 . S
C504 C505 1.370 . S
C504 C506 1.363 . S
C504 H520 0.931 . S
C505 C504 1.370 . S
C505 C509 1.408 . S
C506 C504 1.363 . S
C506 C507 1.370 . S
C506 C510 1.524 . S
C507 C499 1.503 . S
C507 C506 1.370 . S
C507 C508 1.403 . S
C508 C507 1.403 . S
C508 C509 1.404 . S
C508 C511 1.539 . S
C509 C505 1.408 . S
C509 C508 1.404 . S
C509 H521 0.930 . S
C510 C506 1.524 . S
C510 H522 0.956 . S
C510 H523 0.961 . S
C510 H524 0.961 . S
C511 C508 1.539 . S
C511 H525 0.958 . S
C511 H526 0.961 . S
C511 H527 0.960 . S
H512 C496 0.931 . S
H513 C501 0.929 . S
H514 C502 0.960 . S
H515 C502 0.962 . S
H516 C502 0.960 . S
H517 C503 0.961 . S
H518 C503 0.961 . S
H519 C503 0.961 . S
H520 C504 0.931 . S
H521 C509 0.930 . S
H522 C510 0.956 . S
H523 C510 0.961 . S
H524 C510 0.961 . S
H525 C511 0.958 . S
H526 C511 0.961 . S
H527 C511 0.960 . S
C528 C529 1.391 . S
C528 C530 1.394 . S
C528 H544 0.931 . S
C529 C528 1.391 . S
C529 C533 1.376 . S
C530 C528 1.394 . S
C530 C531 1.369 . S
C530 C534 1.531 . S
C531 C530 1.369 . S
C531 C532 1.410 . S
C531 C539 1.503 . S
C532 C531 1.410 . S
C532 C533 1.392 . S
C532 C535 1.511 . S
C533 C529 1.376 . S
C533 C532 1.392 . S
C533 H545 0.929 . S
C534 C530 1.531 . S
C534 H546 0.960 . S
C534 H547 0.962 . S
C534 H548 0.960 . S
C535 C532 1.511 . S
C535 H549 0.961 . S
C535 H550 0.961 . S
C535 H551 0.961 . S
C536 C537 1.370 . S
C536 C538 1.363 . S
C536 H552 0.931 . S
C537 C536 1.370 . S
C537 C541 1.408 . S
C538 C536 1.363 . S
C538 C539 1.370 . S
C538 C542 1.524 . S
C539 C531 1.503 . S
C539 C538 1.370 . S
C539 C540 1.403 . S
C540 C539 1.403 . S
C540 C541 1.404 . S
C540 C543 1.539 . S
C541 C537 1.408 . S
C541 C540 1.404 . S
C541 H553 0.930 . S
C542 C538 1.524 . S
C542 H554 0.956 . S
C542 H555 0.961 . S
C542 H556 0.961 . S
C543 C540 1.539 . S
C543 H557 0.958 . S
C543 H558 0.961 . S
C543 H559 0.960 . S
H544 C528 0.931 . S
H545 C533 0.929 . S
H546 C534 0.960 . S
H547 C534 0.962 . S
H548 C534 0.960 . S
H549 C535 0.961 . S
H550 C535 0.961 . S
H551 C535 0.961 . S
H552 C536 0.931 . S
H553 C541 0.930 . S
H554 C542 0.956 . S
H555 C542 0.961 . S
H556 C542 0.961 . S
H557 C543 0.958 . S
H558 C543 0.961 . S
H559 C543 0.960 . S
C560 C561 1.391 . S
C560 C562 1.394 . S
C560 H576 0.931 . S
C561 C560 1.391 . S
C561 C565 1.376 . S
C562 C560 1.394 . S
C562 C563 1.369 . S
C562 C566 1.531 . S
C563 C562 1.369 . S
C563 C564 1.410 . S
C563 C571 1.503 . S
C564 C563 1.410 . S
C564 C565 1.392 . S
C564 C567 1.511 . S
C565 C561 1.376 . S
C565 C564 1.392 . S
C565 H577 0.929 . S
C566 C562 1.531 . S
C566 H578 0.960 . S
C566 H579 0.962 . S
C566 H580 0.960 . S
C567 C564 1.511 . S
C567 H581 0.961 . S
C567 H582 0.961 . S
C567 H583 0.961 . S
C568 C569 1.370 . S
C568 C570 1.363 . S
C568 H584 0.931 . S
C569 C568 1.370 . S
C569 C573 1.408 . S
C570 C568 1.363 . S
C570 C571 1.370 . S
C570 C574 1.524 . S
C571 C563 1.503 . S
C571 C570 1.370 . S
C571 C572 1.403 . S
C572 C571 1.403 . S
C572 C573 1.404 . S
C572 C575 1.539 . S
C573 C569 1.408 . S
C573 C572 1.404 . S
C573 H585 0.930 . S
C574 C570 1.524 . S
C574 H586 0.956 . S
C574 H587 0.961 . S
C574 H588 0.961 . S
C575 C572 1.539 . S
C575 H589 0.958 . S
C575 H590 0.961 . S
C575 H591 0.960 . S
H576 C560 0.931 . S
H577 C565 0.929 . S
H578 C566 0.960 . S
H579 C566 0.962 . S
H580 C566 0.960 . S
H581 C567 0.961 . S
H582 C567 0.961 . S
H583 C567 0.961 . S
H584 C568 0.931 . S
H585 C573 0.930 . S
H586 C574 0.956 . S
H587 C574 0.961 . S
H588 C574 0.961 . S
H589 C575 0.958 . S
H590 C575 0.961 . S
H591 C575 0.960 . S
C592 C593 1.391 . S
C592 C594 1.394 . S
C592 H608 0.931 . S
C593 C592 1.391 . S
C593 C597 1.376 . S
C594 C592 1.394 . S
C594 C595 1.369 . S
C594 C598 1.531 . S
C595 C594 1.369 . S
C595 C596 1.410 . S
C595 C603 1.503 . S
C596 C595 1.410 . S
C596 C597 1.392 . S
C596 C599 1.511 . S
C597 C593 1.376 . S
C597 C596 1.392 . S
C597 H609 0.929 . S
C598 C594 1.531 . S
C598 H610 0.960 . S
C598 H611 0.962 . S
C598 H612 0.960 . S
C599 C596 1.511 . S
C599 H613 0.961 . S
C599 H614 0.961 . S
C599 H615 0.961 . S
C600 C601 1.370 . S
C600 C602 1.363 . S
C600 H616 0.931 . S
C601 C600 1.370 . S
C601 C605 1.408 . S
C602 C600 1.363 . S
C602 C603 1.370 . S
C602 C606 1.524 . S
C603 C595 1.503 . S
C603 C602 1.370 . S
C603 C604 1.403 . S
C604 C603 1.403 . S
C604 C605 1.404 . S
C604 C607 1.539 . S
C605 C601 1.408 . S
C605 C604 1.404 . S
C605 H617 0.930 . S
C606 C602 1.524 . S
C606 H618 0.956 . S
C606 H619 0.961 . S
C606 H620 0.961 . S
C607 C604 1.539 . S
C607 H621 0.958 . S
C607 H622 0.961 . S
C607 H623 0.960 . S
H608 C592 0.931 . S
H609 C597 0.929 . S
H610 C598 0.960 . S
H611 C598 0.962 . S
H612 C598 0.960 . S
H613 C599 0.961 . S
H614 C599 0.961 . S
H615 C599 0.961 . S
H616 C600 0.931 . S
H617 C605 0.930 . S
H618 C606 0.956 . S
H619 C606 0.961 . S
H620 C606 0.961 . S
H621 C607 0.958 . S
H622 C607 0.961 . S
H623 C607 0.960 . S
C624 C625 1.391 . S
C624 C626 1.394 . S
C624 H640 0.931 . S
C625 C624 1.391 . S
C625 C629 1.376 . S
C626 C624 1.394 . S
C626 C627 1.369 . S
C626 C630 1.531 . S
C627 C626 1.369 . S
C627 C628 1.410 . S
C627 C635 1.503 . S
C628 C627 1.410 . S
C628 C629 1.392 . S
C628 C631 1.511 . S
C629 C625 1.376 . S
C629 C628 1.392 . S
C629 H641 0.929 . S
C630 C626 1.531 . S
C630 H642 0.960 . S
C630 H643 0.962 . S
C630 H644 0.960 . S
C631 C628 1.511 . S
C631 H645 0.961 . S
C631 H646 0.961 . S
C631 H647 0.961 . S
C632 C633 1.370 . S
C632 C634 1.363 . S
C632 H648 0.931 . S
C633 C632 1.370 . S
C633 C637 1.408 . S
C634 C632 1.363 . S
C634 C635 1.370 . S
C634 C638 1.524 . S
C635 C627 1.503 . S
C635 C634 1.370 . S
C635 C636 1.403 . S
C636 C635 1.403 . S
C636 C637 1.404 . S
C636 C639 1.539 . S
C637 C633 1.408 . S
C637 C636 1.404 . S
C637 H649 0.930 . S
C638 C634 1.524 . S
C638 H650 0.956 . S
C638 H651 0.961 . S
C638 H652 0.961 . S
C639 C636 1.539 . S
C639 H653 0.958 . S
C639 H654 0.961 . S
C639 H655 0.960 . S
H640 C624 0.931 . S
H641 C629 0.929 . S
H642 C630 0.960 . S
H643 C630 0.962 . S
H644 C630 0.960 . S
H645 C631 0.961 . S
H646 C631 0.961 . S
H647 C631 0.961 . S
H648 C632 0.931 . S
H649 C637 0.930 . S
H650 C638 0.956 . S
H651 C638 0.961 . S
H652 C638 0.961 . S
H653 C639 0.958 . S
H654 C639 0.961 . S
H655 C639 0.960 . S
C656 C657 1.391 . S
C656 C658 1.394 . S
C656 H672 0.931 . S
C657 C656 1.391 . S
C657 C661 1.376 . S
C658 C656 1.394 . S
C658 C659 1.369 . S
C658 C662 1.531 . S
C659 C658 1.369 . S
C659 C660 1.410 . S
C659 C667 1.503 . S
C660 C659 1.410 . S
C660 C661 1.392 . S
C660 C663 1.511 . S
C661 C657 1.376 . S
C661 C660 1.392 . S
C661 H673 0.929 . S
C662 C658 1.531 . S
C662 H674 0.960 . S
C662 H675 0.962 . S
C662 H676 0.960 . S
C663 C660 1.511 . S
C663 H677 0.961 . S
C663 H678 0.961 . S
C663 H679 0.961 . S
C664 C665 1.370 . S
C664 C666 1.363 . S
C664 H680 0.931 . S
C665 C664 1.370 . S
C665 C669 1.408 . S
C666 C664 1.363 . S
C666 C667 1.370 . S
C666 C670 1.524 . S
C667 C659 1.503 . S
C667 C666 1.370 . S
C667 C668 1.403 . S
C668 C667 1.403 . S
C668 C669 1.404 . S
C668 C671 1.539 . S
C669 C665 1.408 . S
C669 C668 1.404 . S
C669 H681 0.930 . S
C670 C666 1.524 . S
C670 H682 0.956 . S
C670 H683 0.961 . S
C670 H684 0.961 . S
C671 C668 1.539 . S
C671 H685 0.958 . S
C671 H686 0.961 . S
C671 H687 0.960 . S
H672 C656 0.931 . S
H673 C661 0.929 . S
H674 C662 0.960 . S
H675 C662 0.962 . S
H676 C662 0.960 . S
H677 C663 0.961 . S
H678 C663 0.961 . S
H679 C663 0.961 . S
H680 C664 0.931 . S
H681 C669 0.930 . S
H682 C670 0.956 . S
H683 C670 0.961 . S
H684 C670 0.961 . S
H685 C671 0.958 . S
H686 C671 0.961 . S
H687 C671 0.960 . S
C688 C689 1.391 . S
C688 C690 1.394 . S
C688 H704 0.931 . S
C689 C688 1.391 . S
C689 C693 1.376 . S
C690 C688 1.394 . S
C690 C691 1.369 . S
C690 C694 1.531 . S
C691 C690 1.369 . S
C691 C692 1.410 . S
C691 C699 1.503 . S
C692 C691 1.410 . S
C692 C693 1.392 . S
C692 C695 1.511 . S
C693 C689 1.376 . S
C693 C692 1.392 . S
C693 H705 0.929 . S
C694 C690 1.531 . S
C694 H706 0.960 . S
C694 H707 0.962 . S
C694 H708 0.960 . S
C695 C692 1.511 . S
C695 H709 0.961 . S
C695 H710 0.961 . S
C695 H711 0.961 . S
C696 C697 1.370 . S
C696 C698 1.363 . S
C696 H712 0.931 . S
C697 C696 1.370 . S
C697 C701 1.408 . S
C698 C696 1.363 . S
C698 C699 1.370 . S
C698 C702 1.524 . S
C699 C691 1.503 . S
C699 C698 1.370 . S
C699 C700 1.403 . S
C700 C699 1.403 . S
C700 C701 1.404 . S
C700 C703 1.539 . S
C701 C697 1.408 . S
C701 C700 1.404 . S
C701 H713 0.930 . S
C702 C698 1.524 . S
C702 H714 0.956 . S
C702 H715 0.961 . S
C702 H716 0.961 . S
C703 C700 1.539 . S
C703 H717 0.958 . S
C703 H718 0.961 . S
C703 H719 0.960 . S
H704 C688 0.931 . S
H705 C693 0.929 . S
H706 C694 0.960 . S
H707 C694 0.962 . S
H708 C694 0.960 . S
H709 C695 0.961 . S
H710 C695 0.961 . S
H711 C695 0.961 . S
H712 C696 0.931 . S
H713 C701 0.930 . S
H714 C702 0.956 . S
H715 C702 0.961 . S
H716 C702 0.961 . S
H717 C703 0.958 . S
H718 C703 0.961 . S
H719 C703 0.960 . S
C720 C721 1.391 . S
C720 C722 1.394 . S
C720 H736 0.931 . S
C721 C720 1.391 . S
C721 C725 1.376 . S
C722 C720 1.394 . S
C722 C723 1.369 . S
C722 C726 1.531 . S
C723 C722 1.369 . S
C723 C724 1.410 . S
C723 C731 1.503 . S
C724 C723 1.410 . S
C724 C725 1.392 . S
C724 C727 1.511 . S
C725 C721 1.376 . S
C725 C724 1.392 . S
C725 H737 0.929 . S
C726 C722 1.531 . S
C726 H738 0.960 . S
C726 H739 0.962 . S
C726 H740 0.960 . S
C727 C724 1.511 . S
C727 H741 0.961 . S
C727 H742 0.961 . S
C727 H743 0.961 . S
C728 C729 1.370 . S
C728 C730 1.363 . S
C728 H744 0.931 . S
C729 C728 1.370 . S
C729 C733 1.408 . S
C730 C728 1.363 . S
C730 C731 1.370 . S
C730 C734 1.524 . S
C731 C723 1.503 . S
C731 C730 1.370 . S
C731 C732 1.403 . S
C732 C731 1.403 . S
C732 C733 1.404 . S
C732 C735 1.539 . S
C733 C729 1.408 . S
C733 C732 1.404 . S
C733 H745 0.930 . S
C734 C730 1.524 . S
C734 H746 0.956 . S
C734 H747 0.961 . S
C734 H748 0.961 . S
C735 C732 1.539 . S
C735 H749 0.958 . S
C735 H750 0.961 . S
C735 H751 0.960 . S
H736 C720 0.931 . S
H737 C725 0.929 . S
H738 C726 0.960 . S
H739 C726 0.962 . S
H740 C726 0.960 . S
H741 C727 0.961 . S
H742 C727 0.961 . S
H743 C727 0.961 . S
H744 C728 0.931 . S
H745 C733 0.930 . S
H746 C734 0.956 . S
H747 C734 0.961 . S
H748 C734 0.961 . S
H749 C735 0.958 . S
H750 C735 0.961 . S
H751 C735 0.960 . S
C752 C753 1.391 . S
C752 C754 1.394 . S
C752 H768 0.931 . S
C753 C752 1.391 . S
C753 C757 1.376 . S
C754 C752 1.394 . S
C754 C755 1.369 . S
C754 C758 1.531 . S
C755 C754 1.369 . S
C755 C756 1.410 . S
C755 C763 1.503 . S
C756 C755 1.410 . S
C756 C757 1.392 . S
C756 C759 1.511 . S
C757 C753 1.376 . S
C757 C756 1.392 . S
C757 H769 0.929 . S
C758 C754 1.531 . S
C758 H770 0.960 . S
C758 H771 0.962 . S
C758 H772 0.960 . S
C759 C756 1.511 . S
C759 H773 0.961 . S
C759 H774 0.961 . S
C759 H775 0.961 . S
C760 C761 1.370 . S
C760 C762 1.363 . S
C760 H776 0.931 . S
C761 C760 1.370 . S
C761 C765 1.408 . S
C762 C760 1.363 . S
C762 C763 1.370 . S
C762 C766 1.524 . S
C763 C755 1.503 . S
C763 C762 1.370 . S
C763 C764 1.403 . S
C764 C763 1.403 . S
C764 C765 1.404 . S
C764 C767 1.539 . S
C765 C761 1.408 . S
C765 C764 1.404 . S
C765 H777 0.930 . S
C766 C762 1.524 . S
C766 H778 0.956 . S
C766 H779 0.961 . S
C766 H780 0.961 . S
C767 C764 1.539 . S
C767 H781 0.958 . S
C767 H782 0.961 . S
C767 H783 0.960 . S
H768 C752 0.931 . S
H769 C757 0.929 . S
H770 C758 0.960 . S
H771 C758 0.962 . S
H772 C758 0.960 . S
H773 C759 0.961 . S
H774 C759 0.961 . S
H775 C759 0.961 . S
H776 C760 0.931 . S
H777 C765 0.930 . S
H778 C766 0.956 . S
H779 C766 0.961 . S
H780 C766 0.961 . S
H781 C767 0.958 . S
H782 C767 0.961 . S
H783 C767 0.960 . S
C784 C785 1.391 . S
C784 C786 1.394 . S
C784 H800 0.931 . S
C785 C784 1.391 . S
C785 C789 1.376 . S
C786 C784 1.394 . S
C786 C787 1.369 . S
C786 C790 1.531 . S
C787 C786 1.369 . S
C787 C788 1.410 . S
C787 C795 1.503 . S
C788 C787 1.410 . S
C788 C789 1.392 . S
C788 C791 1.511 . S
C789 C785 1.376 . S
C789 C788 1.392 . S
C789 H801 0.929 1_565 S
C790 C786 1.531 . S
C790 H802 0.960 . S
C790 H803 0.962 . S
C790 H804 0.960 . S
C791 C788 1.511 . S
C791 H805 0.961 . S
C791 H806 0.961 . S
C791 H807 0.961 . S
C792 C793 1.370 . S
C792 C794 1.363 . S
C792 H808 0.931 . S
C793 C792 1.370 . S
C793 C797 1.408 . S
C794 C792 1.363 . S
C794 C795 1.370 . S
C794 C798 1.524 . S
C795 C787 1.503 . S
C795 C794 1.370 . S
C795 C796 1.403 . S
C796 C795 1.403 . S
C796 C797 1.404 . S
C796 C799 1.539 . S
C797 C793 1.408 . S
C797 C796 1.404 . S
C797 H809 0.930 . S
C798 C794 1.524 . S
C798 H810 0.956 . S
C798 H811 0.961 . S
C798 H812 0.961 . S
C799 C796 1.539 . S
C799 H813 0.958 . S
C799 H814 0.961 . S
C799 H815 0.960 . S
H800 C784 0.931 . S
H801 C789 0.929 1_545 S
H802 C790 0.960 . S
H803 C790 0.962 . S
H804 C790 0.960 . S
H805 C791 0.961 . S
H806 C791 0.961 . S
H807 C791 0.961 . S
H808 C792 0.931 . S
H809 C797 0.930 . S
H810 C798 0.956 . S
H811 C798 0.961 . S
H812 C798 0.961 . S
H813 C799 0.958 . S
H814 C799 0.961 . S
H815 C799 0.960 . S
C816 C817 1.391 . S
C816 C818 1.394 . S
C816 H832 0.931 . S
C817 C816 1.391 . S
C817 C821 1.376 . S
C818 C816 1.394 . S
C818 C819 1.369 . S
C818 C822 1.531 . S
C819 C818 1.369 . S
C819 C820 1.410 . S
C819 C827 1.503 . S
C820 C819 1.410 . S
C820 C821 1.392 . S
C820 C823 1.511 . S
C821 C817 1.376 . S
C821 C820 1.392 . S
C821 H833 0.929 . S
C822 C818 1.531 . S
C822 H834 0.960 . S
C822 H835 0.962 . S
C822 H836 0.960 . S
C823 C820 1.511 . S
C823 H837 0.961 . S
C823 H838 0.961 . S
C823 H839 0.961 . S
C824 C825 1.370 . S
C824 C826 1.363 . S
C824 H840 0.931 . S
C825 C824 1.370 . S
C825 C829 1.408 . S
C826 C824 1.363 . S
C826 C827 1.370 . S
C826 C830 1.524 . S
C827 C819 1.503 . S
C827 C826 1.370 . S
C827 C828 1.403 . S
C828 C827 1.403 . S
C828 C829 1.404 . S
C828 C831 1.539 . S
C829 C825 1.408 . S
C829 C828 1.404 . S
C829 H841 0.930 . S
C830 C826 1.524 . S
C830 H842 0.956 . S
C830 H843 0.961 . S
C830 H844 0.961 . S
C831 C828 1.539 . S
C831 H845 0.958 . S
C831 H846 0.961 . S
C831 H847 0.960 . S
H832 C816 0.931 . S
H833 C821 0.929 . S
H834 C822 0.960 . S
H835 C822 0.962 . S
H836 C822 0.960 . S
H837 C823 0.961 . S
H838 C823 0.961 . S
H839 C823 0.961 . S
H840 C824 0.931 . S
H841 C829 0.930 . S
H842 C830 0.956 . S
H843 C830 0.961 . S
H844 C830 0.961 . S
H845 C831 0.958 . S
H846 C831 0.961 . S
H847 C831 0.960 . S
C848 C849 1.391 . S
C848 C850 1.394 . S
C848 H864 0.931 . S
C849 C848 1.391 . S
C849 C853 1.376 . S
C850 C848 1.394 . S
C850 C851 1.369 . S
C850 C854 1.531 . S
C851 C850 1.369 . S
C851 C852 1.410 . S
C851 C859 1.503 . S
C852 C851 1.410 . S
C852 C853 1.392 . S
C852 C855 1.511 . S
C853 C849 1.376 . S
C853 C852 1.392 . S
C853 H865 0.929 . S
C854 C850 1.531 . S
C854 H866 0.960 . S
C854 H867 0.962 . S
C854 H868 0.960 . S
C855 C852 1.511 . S
C855 H869 0.961 . S
C855 H870 0.961 . S
C855 H871 0.961 . S
C856 C857 1.370 . S
C856 C858 1.363 . S
C856 H872 0.931 . S
C857 C856 1.370 . S
C857 C861 1.408 . S
C858 C856 1.363 . S
C858 C859 1.370 . S
C858 C862 1.524 . S
C859 C851 1.503 . S
C859 C858 1.370 . S
C859 C860 1.403 . S
C860 C859 1.403 . S
C860 C861 1.404 . S
C860 C863 1.539 . S
C861 C857 1.408 . S
C861 C860 1.404 . S
C861 H873 0.930 . S
C862 C858 1.524 . S
C862 H874 0.956 . S
C862 H875 0.961 . S
C862 H876 0.961 . S
C863 C860 1.539 . S
C863 H877 0.958 . S
C863 H878 0.961 . S
C863 H879 0.960 . S
H864 C848 0.931 . S
H865 C853 0.929 . S
H866 C854 0.960 . S
H867 C854 0.962 . S
H868 C854 0.960 . S
H869 C855 0.961 . S
H870 C855 0.961 . S
H871 C855 0.961 . S
H872 C856 0.931 . S
H873 C861 0.930 . S
H874 C862 0.956 . S
H875 C862 0.961 . S
H876 C862 0.961 . S
H877 C863 0.958 . S
H878 C863 0.961 . S
H879 C863 0.960 . S
C880 C881 1.391 . S
C880 C882 1.394 . S
C880 H896 0.931 . S
C881 C880 1.391 . S
C881 C885 1.376 . S
C882 C880 1.394 . S
C882 C883 1.369 . S
C882 C886 1.531 . S
C883 C882 1.369 . S
C883 C884 1.410 . S
C883 C891 1.503 . S
C884 C883 1.410 . S
C884 C885 1.392 . S
C884 C887 1.511 . S
C885 C881 1.376 . S
C885 C884 1.392 . S
C885 H897 0.929 . S
C886 C882 1.531 . S
C886 H898 0.960 . S
C886 H899 0.962 . S
C886 H900 0.960 . S
C887 C884 1.511 . S
C887 H901 0.961 . S
C887 H902 0.961 . S
C887 H903 0.961 . S
C888 C889 1.370 . S
C888 C890 1.363 . S
C888 H904 0.931 . S
C889 C888 1.370 . S
C889 C893 1.408 . S
C890 C888 1.363 . S
C890 C891 1.370 . S
C890 C894 1.524 . S
C891 C883 1.503 . S
C891 C890 1.370 . S
C891 C892 1.403 . S
C892 C891 1.403 . S
C892 C893 1.404 . S
C892 C895 1.539 . S
C893 C889 1.408 . S
C893 C892 1.404 . S
C893 H905 0.930 . S
C894 C890 1.524 . S
C894 H906 0.956 . S
C894 H907 0.961 . S
C894 H908 0.961 . S
C895 C892 1.539 . S
C895 H909 0.958 . S
C895 H910 0.961 . S
C895 H911 0.960 . S
H896 C880 0.931 . S
H897 C885 0.929 . S
H898 C886 0.960 . S
H899 C886 0.962 . S
H900 C886 0.960 . S
H901 C887 0.961 . S
H902 C887 0.961 . S
H903 C887 0.961 . S
H904 C888 0.931 . S
H905 C893 0.930 . S
H906 C894 0.956 . S
H907 C894 0.961 . S
H908 C894 0.961 . S
H909 C895 0.958 . S
H910 C895 0.961 . S
H911 C895 0.960 . S
C912 C913 1.391 . S
C912 C914 1.394 . S
C912 H928 0.931 . S
C913 C912 1.391 . S
C913 C917 1.376 . S
C914 C912 1.394 . S
C914 C915 1.369 . S
C914 C918 1.531 . S
C915 C914 1.369 . S
C915 C916 1.410 . S
C915 C923 1.503 . S
C916 C915 1.410 . S
C916 C917 1.392 . S
C916 C919 1.511 . S
C917 C913 1.376 . S
C917 C916 1.392 . S
C917 H929 0.929 . S
C918 C914 1.531 . S
C918 H930 0.960 . S
C918 H931 0.962 . S
C918 H932 0.960 . S
C919 C916 1.511 . S
C919 H933 0.961 . S
C919 H934 0.961 . S
C919 H935 0.961 . S
C920 C921 1.370 . S
C920 C922 1.363 . S
C920 H936 0.931 . S
C921 C920 1.370 . S
C921 C925 1.408 . S
C922 C920 1.363 . S
C922 C923 1.370 . S
C922 C926 1.524 . S
C923 C915 1.503 . S
C923 C922 1.370 . S
C923 C924 1.403 . S
C924 C923 1.403 . S
C924 C925 1.404 . S
C924 C927 1.539 . S
C925 C921 1.408 . S
C925 C924 1.404 . S
C925 H937 0.930 . S
C926 C922 1.524 . S
C926 H938 0.956 . S
C926 H939 0.961 . S
C926 H940 0.961 . S
C927 C924 1.539 . S
C927 H941 0.958 . S
C927 H942 0.961 . S
C927 H943 0.960 . S
H928 C912 0.931 . S
H929 C917 0.929 . S
H930 C918 0.960 . S
H931 C918 0.962 . S
H932 C918 0.960 . S
H933 C919 0.961 . S
H934 C919 0.961 . S
H935 C919 0.961 . S
H936 C920 0.931 . S
H937 C925 0.930 . S
H938 C926 0.956 . S
H939 C926 0.961 . S
H940 C926 0.961 . S
H941 C927 0.958 . S
H942 C927 0.961 . S
H943 C927 0.960 . S
C944 C945 1.391 . S
C944 C946 1.394 . S
C944 H960 0.931 . S
C945 C944 1.391 . S
C945 C949 1.376 . S
C946 C944 1.394 . S
C946 C947 1.369 . S
C946 C950 1.531 . S
C947 C946 1.369 . S
C947 C948 1.410 . S
C947 C955 1.503 . S
C948 C947 1.410 . S
C948 C949 1.392 . S
C948 C951 1.511 . S
C949 C945 1.376 . S
C949 C948 1.392 . S
C949 H961 0.929 . S
C950 C946 1.531 . S
C950 H962 0.960 . S
C950 H963 0.962 . S
C950 H964 0.960 . S
C951 C948 1.511 . S
C951 H965 0.961 . S
C951 H966 0.961 . S
C951 H967 0.961 . S
C952 C953 1.370 . S
C952 C954 1.363 . S
C952 H968 0.948 . S
C953 C952 1.370 . S
C953 C957 1.408 . S
C954 C952 1.363 . S
C954 C955 1.370 . S
C954 C958 1.524 . S
C955 C947 1.503 . S
C955 C954 1.370 . S
C955 C956 1.403 . S
C956 C955 1.403 . S
C956 C957 1.404 . S
C956 C959 1.539 . S
C957 C953 1.408 . S
C957 C956 1.404 . S
C957 H969 0.930 . S
C958 C954 1.524 . S
C958 H970 0.956 . S
C958 H971 0.961 . S
C958 H972 0.961 . S
C959 C956 1.539 . S
C959 H973 0.958 . S
C959 H974 0.961 . S
C959 H975 0.960 . S
H960 C944 0.931 . S
H961 C949 0.929 . S
H962 C950 0.960 . S
H963 C950 0.962 . S
H964 C950 0.960 . S
H965 C951 0.961 . S
H966 C951 0.961 . S
H967 C951 0.961 . S
H968 C952 0.948 . S
H969 C957 0.930 . S
H970 C958 0.956 . S
H971 C958 0.961 . S
H972 C958 0.961 . S
H973 C959 0.958 . S
H974 C959 0.961 . S
H975 C959 0.960 . S
C976 C977 1.391 . S
C976 C978 1.394 . S
C976 H992 0.931 . S
C977 C976 1.391 . S
C977 C981 1.376 . S
C978 C976 1.394 . S
C978 C979 1.369 . S
C978 C982 1.531 . S
C979 C978 1.369 . S
C979 C980 1.410 . S
C979 C987 1.503 . S
C980 C979 1.410 . S
C980 C981 1.392 . S
C980 C983 1.511 . S
C981 C977 1.376 . S
C981 C980 1.392 . S
C981 H993 0.929 . S
C982 C978 1.531 . S
C982 H994 0.960 . S
C982 H995 0.962 . S
C982 H996 0.960 . S
C983 C980 1.511 . S
C983 H997 0.961 . S
C983 H998 0.961 . S
C983 H999 0.961 . S
C984 C985 1.370 . S
C984 C986 1.363 . S
C984 H1000 0.931 . S
C985 C984 1.370 . S
C985 C989 1.408 . S
C986 C984 1.363 . S
C986 C987 1.370 . S
C986 C990 1.524 . S
C987 C979 1.503 . S
C987 C986 1.370 . S
C987 C988 1.403 . S
C988 C987 1.403 . S
C988 C989 1.404 . S
C988 C991 1.539 . S
C989 C985 1.408 . S
C989 C988 1.404 . S
C989 H1001 0.930 . S
C990 C986 1.524 . S
C990 H1002 0.956 . S
C990 H1003 0.961 . S
C990 H1004 0.961 . S
C991 C988 1.539 . S
C991 H1005 0.958 . S
C991 H1006 0.961 . S
C991 H1007 0.960 . S
H992 C976 0.931 . S
H993 C981 0.929 . S
H994 C982 0.960 . S
H995 C982 0.962 . S
H996 C982 0.960 . S
H997 C983 0.961 . S
H998 C983 0.961 . S
H999 C983 0.961 . S
H1000 C984 0.931 . S
H1001 C989 0.930 . S
H1002 C990 0.956 . S
H1003 C990 0.961 . S
H1004 C990 0.961 . S
H1005 C991 0.958 . S
H1006 C991 0.961 . S
H1007 C991 0.960 . S
C1008 C1009 1.391 . S
C1008 C1010 1.394 . S
C1008 H1024 0.931 . S
C1009 C1008 1.391 . S
C1009 C1013 1.376 . S
C1010 C1008 1.394 . S
C1010 C1011 1.369 . S
C1010 C1014 1.531 . S
C1011 C1010 1.369 . S
C1011 C1012 1.410 . S
C1011 C1019 1.503 . S
C1012 C1011 1.410 . S
C1012 C1013 1.392 . S
C1012 C1015 1.511 . S
C1013 C1009 1.376 . S
C1013 C1012 1.392 . S
C1013 H1025 0.929 . S
C1014 C1010 1.531 . S
C1014 H1026 0.960 . S
C1014 H1027 0.962 . S
C1014 H1028 0.960 . S
C1015 C1012 1.511 . S
C1015 H1029 0.961 . S
C1015 H1030 0.961 . S
C1015 H1031 0.961 . S
C1016 C1017 1.370 . S
C1016 C1018 1.363 . S
C1016 H1032 0.931 . S
C1017 C1016 1.370 . S
C1017 C1021 1.408 . S
C1018 C1016 1.363 . S
C1018 C1019 1.370 . S
C1018 C1022 1.524 . S
C1019 C1011 1.503 . S
C1019 C1018 1.370 . S
C1019 C1020 1.403 . S
C1020 C1019 1.403 . S
C1020 C1021 1.404 . S
C1020 C1023 1.539 . S
C1021 C1017 1.408 . S
C1021 C1020 1.404 . S
C1021 H1033 0.930 . S
C1022 C1018 1.524 . S
C1022 H1034 0.956 . S
C1022 H1035 0.961 . S
C1022 H1036 0.961 . S
C1023 C1020 1.539 . S
C1023 H1037 0.958 . S
C1023 H1038 0.961 . S
C1023 H1039 0.960 . S
H1024 C1008 0.931 . S
H1025 C1013 0.929 . S
H1026 C1014 0.960 . S
H1027 C1014 0.962 . S
H1028 C1014 0.960 . S
H1029 C1015 0.961 . S
H1030 C1015 0.961 . S
H1031 C1015 0.961 . S
H1032 C1016 0.931 . S
H1033 C1021 0.930 . S
H1034 C1022 0.956 . S
H1035 C1022 0.961 . S
H1036 C1022 0.961 . S
H1037 C1023 0.958 . S
H1038 C1023 0.961 . S
H1039 C1023 0.960 . S
C1040 C1041 1.391 . S
C1040 C1042 1.394 . S
C1040 H1056 0.931 . S
C1041 C1040 1.391 . S
C1041 C1045 1.376 . S
C1042 C1040 1.394 . S
C1042 C1043 1.369 . S
C1042 C1046 1.531 . S
C1043 C1042 1.369 . S
C1043 C1044 1.410 . S
C1043 C1051 1.503 . S
C1044 C1043 1.410 . S
C1044 C1045 1.392 . S
C1044 C1047 1.511 . S
C1045 C1041 1.376 . S
C1045 C1044 1.392 . S
C1045 H1057 0.929 . S
C1046 C1042 1.531 . S
C1046 H1058 0.960 . S
C1046 H1059 0.962 . S
C1046 H1060 0.960 . S
C1047 C1044 1.511 . S
C1047 H1061 0.961 . S
C1047 H1062 0.961 . S
C1047 H1063 0.961 . S
C1048 C1049 1.370 . S
C1048 C1050 1.363 . S
C1048 H1064 0.931 . S
C1049 C1048 1.370 . S
C1049 C1053 1.408 . S
C1050 C1048 1.363 . S
C1050 C1051 1.370 . S
C1050 C1054 1.524 . S
C1051 C1043 1.503 . S
C1051 C1050 1.370 . S
C1051 C1052 1.403 . S
C1052 C1051 1.403 . S
C1052 C1053 1.404 . S
C1052 C1055 1.539 . S
C1053 C1049 1.408 . S
C1053 C1052 1.404 . S
C1053 H1065 0.930 . S
C1054 C1050 1.524 . S
C1054 H1066 0.956 . S
C1054 H1067 0.961 . S
C1054 H1068 0.961 . S
C1055 C1052 1.539 . S
C1055 H1069 0.958 . S
C1055 H1070 0.961 . S
C1055 H1071 0.960 . S
H1056 C1040 0.931 . S
H1057 C1045 0.929 . S
H1058 C1046 0.960 . S
H1059 C1046 0.962 . S
H1060 C1046 0.960 . S
H1061 C1047 0.961 . S
H1062 C1047 0.961 . S
H1063 C1047 0.961 . S
H1064 C1048 0.931 . S
H1065 C1053 0.930 . S
H1066 C1054 0.956 . S
H1067 C1054 0.961 . S
H1068 C1054 0.961 . S
H1069 C1055 0.958 . S
H1070 C1055 0.961 . S
H1071 C1055 0.960 . S
C1072 C1073 1.391 . S
C1072 C1074 1.394 . S
C1072 H1088 0.931 . S
C1073 C1072 1.391 . S
C1073 C1077 1.376 . S
C1074 C1072 1.394 . S
C1074 C1075 1.369 . S
C1074 C1078 1.531 . S
C1075 C1074 1.369 . S
C1075 C1076 1.410 . S
C1075 C1083 1.503 . S
C1076 C1075 1.410 . S
C1076 C1077 1.392 . S
C1076 C1079 1.511 . S
C1077 C1073 1.376 . S
C1077 C1076 1.392 . S
C1077 H1089 0.929 . S
C1078 C1074 1.531 . S
C1078 H1090 0.960 . S
C1078 H1091 0.962 . S
C1078 H1092 0.960 . S
C1079 C1076 1.511 . S
C1079 H1093 0.961 . S
C1079 H1094 0.961 . S
C1079 H1095 0.961 . S
C1080 C1081 1.370 . S
C1080 C1082 1.363 . S
C1080 H1096 0.931 . S
C1081 C1080 1.370 . S
C1081 C1085 1.408 . S
C1082 C1080 1.363 . S
C1082 C1083 1.370 . S
C1082 C1086 1.524 . S
C1083 C1075 1.503 . S
C1083 C1082 1.370 . S
C1083 C1084 1.403 . S
C1084 C1083 1.403 . S
C1084 C1085 1.404 . S
C1084 C1087 1.539 . S
C1085 C1081 1.408 . S
C1085 C1084 1.404 . S
C1085 H1097 0.930 . S
C1086 C1082 1.524 . S
C1086 H1098 0.956 . S
C1086 H1099 0.961 . S
C1086 H1100 0.961 . S
C1087 C1084 1.539 . S
C1087 H1101 0.958 . S
C1087 H1102 0.961 . S
C1087 H1103 0.960 . S
H1088 C1072 0.931 . S
H1089 C1077 0.929 . S
H1090 C1078 0.960 . S
H1091 C1078 0.962 . S
H1092 C1078 0.960 . S
H1093 C1079 0.961 . S
H1094 C1079 0.961 . S
H1095 C1079 0.961 . S
H1096 C1080 0.931 . S
H1097 C1085 0.930 . S
H1098 C1086 0.956 . S
H1099 C1086 0.961 . S
H1100 C1086 0.961 . S
H1101 C1087 0.958 . S
H1102 C1087 0.961 . S
H1103 C1087 0.960 . S
C1104 C1105 1.391 . S
C1104 C1106 1.394 . S
C1104 H1120 0.931 . S
C1105 C1104 1.391 . S
C1105 C1109 1.360 1_545 S
C1106 C1104 1.394 . S
C1106 C1107 1.369 . S
C1106 C1110 1.531 1_554 S
C1107 C1106 1.369 . S
C1107 C1108 1.410 1_545 S
C1107 C1115 1.503 1_544 S
C1108 C1107 1.410 1_565 S
C1108 C1109 1.399 . S
C1108 C1111 1.511 . S
C1109 C1105 1.360 1_565 S
C1109 C1108 1.399 . S
C1109 H1121 0.938 . S
C1110 C1106 1.531 1_556 S
C1110 H1122 0.960 . S
C1110 H1123 0.962 . S
C1110 H1124 0.960 1_556 S
C1111 C1108 1.511 . S
C1111 H1125 0.961 . S
C1111 H1126 0.961 . S
C1111 H1127 0.961 . S
C1112 C1113 1.370 . S
C1112 C1114 1.363 . S
C1112 H1128 0.931 . S
C1113 C1112 1.370 . S
C1113 C1117 1.408 . S
C1114 C1112 1.363 . S
C1114 C1115 1.370 . S
C1114 C1118 1.524 1_565 S
C1115 C1107 1.503 1_566 S
C1115 C1114 1.370 . S
C1115 C1116 1.403 . S
C1116 C1115 1.403 . S
C1116 C1117 1.404 . S
C1116 C1119 1.539 . S
C1117 C1113 1.408 . S
C1117 C1116 1.404 . S
C1117 H1129 0.930 . S
C1118 C1114 1.524 1_545 S
C1118 H1130 0.956 . S
C1118 H1131 0.961 . S
C1118 H1132 0.961 . S
C1119 C1116 1.539 . S
C1119 H1133 0.958 . S
C1119 H1134 0.961 . S
C1119 H1135 0.960 1_556 S
H1120 C1104 0.931 . S
H1121 C1109 0.938 . S
H1122 C1110 0.960 . S
H1123 C1110 0.962 . S
H1124 C1110 0.960 1_554 S
H1125 C1111 0.961 . S
H1126 C1111 0.961 . S
H1127 C1111 0.961 . S
H1128 C1112 0.931 . S
H1129 C1117 0.930 . S
H1130 C1118 0.956 . S
H1131 C1118 0.961 . S
H1132 C1118 0.961 . S
H1133 C1119 0.958 . S
H1134 C1119 0.961 . S
H1135 C1119 0.960 1_554 S
C1136 C1137 1.391 . S
C1136 C1138 1.394 1_455 S
C1136 H1152 0.931 1_455 S
C1137 C1136 1.391 . S
C1137 C1141 1.376 . S
C1138 C1136 1.394 1_655 S
C1138 C1139 1.369 1_655 S
C1138 C1142 1.531 . S
C1139 C1138 1.369 1_455 S
C1139 C1140 1.410 . S
C1139 C1147 1.503 1_456 S
C1140 C1139 1.410 . S
C1140 C1141 1.392 . S
C1140 C1143 1.511 1_556 S
C1141 C1137 1.376 . S
C1141 C1140 1.392 . S
C1141 H1153 0.929 . S
C1142 C1138 1.531 . S
C1142 H1154 0.960 . S
C1142 H1155 0.962 . S
C1142 H1156 0.960 . S
C1143 C1140 1.511 1_554 S
C1143 H1157 0.961 1_554 S
C1143 H1158 0.961 . S
C1143 H1159 0.961 . S
C1144 C1145 1.370 . S
C1144 C1146 1.363 . S
C1144 H1160 0.931 . S
C1145 C1144 1.370 . S
C1145 C1149 1.408 . S
C1146 C1144 1.363 . S
C1146 C1147 1.370 . S
C1146 C1150 1.504 1_554 S
C1147 C1139 1.503 1_654 S
C1147 C1146 1.370 . S
C1147 C1148 1.403 1_655 S
C1148 C1147 1.403 1_455 S
C1148 C1149 1.404 1_455 S
C1148 C1151 1.539 . S
C1149 C1145 1.408 . S
C1149 C1148 1.404 1_655 S
C1149 H1161 0.932 . S
C1150 C1146 1.504 1_556 S
C1150 H1162 0.977 . S
C1150 H1163 0.972 . S
C1150 H1164 0.949 1_556 S
C1151 C1148 1.539 . S
C1151 H1165 0.958 . S
C1151 H1166 0.961 . S
C1151 H1167 0.960 . S
H1152 C1136 0.931 1_655 S
H1153 C1141 0.929 . S
H1154 C1142 0.960 . S
H1155 C1142 0.962 . S
H1156 C1142 0.960 . S
H1157 C1143 0.961 1_556 S
H1158 C1143 0.961 . S
H1159 C1143 0.961 . S
H1160 C1144 0.931 . S
H1161 C1149 0.932 . S
H1162 C1150 0.977 . S
H1163 C1150 0.972 . S
H1164 C1150 0.949 1_554 S
H1165 C1151 0.958 . S
H1166 C1151 0.961 . S
H1167 C1151 0.960 . S
C1168 C1169 1.391 . S
C1168 C1170 1.394 1_545 S
C1168 H1184 0.938 . S
C1169 C1168 1.391 . S
C1169 C1173 1.376 . S
C1170 C1168 1.394 1_565 S
C1170 C1171 1.365 1_565 S
C1170 C1174 1.531 . S
C1171 C1170 1.365 1_545 S
C1171 C1172 1.421 . S
C1171 C1179 1.498 1_546 S
C1172 C1171 1.421 . S
C1172 C1173 1.392 . S
C1172 C1175 1.511 . S
C1173 C1169 1.376 . S
C1173 C1172 1.392 . S
C1173 H1185 0.929 . S
C1174 C1170 1.531 . S
C1174 H1186 0.960 . S
C1174 H1187 0.962 . S
C1174 H1188 0.960 . S
C1175 C1172 1.511 . S
C1175 H1189 0.961 . S
C1175 H1190 0.961 1_556 S
C1175 H1191 0.961 . S
C1176 C1177 1.370 . S
C1176 C1178 1.363 1_565 S
C1176 H1192 0.931 1_565 S
C1177 C1176 1.370 . S
C1177 C1181 1.408 . S
C1178 C1176 1.363 1_545 S
C1178 C1179 1.370 1_545 S
C1178 C1182 1.524 . S
C1179 C1171 1.498 1_564 S
C1179 C1178 1.370 1_565 S
C1179 C1180 1.403 . S
C1180 C1179 1.403 . S
C1180 C1181 1.404 . S
C1180 C1183 1.518 1_554 S
C1181 C1177 1.408 . S
C1181 C1180 1.404 . S
C1181 H1193 0.930 . S
C1182 C1178 1.524 . S
C1182 H1194 0.956 . S
C1182 H1195 0.961 . S
C1182 H1196 0.961 . S
C1183 C1180 1.518 1_556 S
C1183 H1197 0.972 . S
C1183 H1198 0.947 1_556 S
C1183 H1199 0.983 . S
H1184 C1168 0.938 . S
H1185 C1173 0.929 . S
H1186 C1174 0.960 . S
H1187 C1174 0.962 . S
H1188 C1174 0.960 . S
H1189 C1175 0.961 . S
H1190 C1175 0.961 1_554 S
H1191 C1175 0.961 . S
H1192 C1176 0.931 1_545 S
H1193 C1181 0.930 . S
H1194 C1182 0.956 . S
H1195 C1182 0.961 . S
H1196 C1182 0.961 . S
H1197 C1183 0.972 . S
H1198 C1183 0.947 1_554 S
H1199 C1183 0.983 . S
C1200 C1201 1.391 . S
C1200 C1202 1.394 . S
C1200 H1216 0.931 . S
C1201 C1200 1.391 . S
C1201 C1205 1.350 1_655 S
C1202 C1200 1.394 . S
C1202 C1203 1.369 . S
C1202 C1206 1.531 1_556 S
C1203 C1202 1.369 . S
C1203 C1204 1.410 1_655 S
C1203 C1211 1.503 1_656 S
C1204 C1203 1.410 1_455 S
C1204 C1205 1.404 . S
C1204 C1207 1.511 . S
C1205 C1201 1.350 1_455 S
C1205 C1204 1.404 . S
C1205 H1217 0.944 . S
C1206 C1202 1.531 1_554 S
C1206 H1218 0.960 . S
C1206 H1219 0.962 . S
C1206 H1220 0.960 1_554 S
C1207 C1204 1.511 . S
C1207 H1221 0.961 . S
C1207 H1222 0.961 . S
C1207 H1223 0.961 . S
C1208 C1209 1.370 . S
C1208 C1210 1.363 . S
C1208 H1224 0.931 . S
C1209 C1208 1.370 . S
C1209 C1213 1.408 . S
C1210 C1208 1.363 . S
C1210 C1211 1.370 . S
C1210 C1214 1.524 1_455 S
C1211 C1203 1.503 1_454 S
C1211 C1210 1.370 . S
C1211 C1212 1.403 . S
C1212 C1211 1.403 . S
C1212 C1213 1.404 . S
C1212 C1215 1.539 . S
C1213 C1209 1.408 . S
C1213 C1212 1.404 . S
C1213 H1225 0.930 . S
C1214 C1210 1.524 1_655 S
C1214 H1226 0.956 . S
C1214 H1227 0.961 . S
C1214 H1228 0.961 . S
C1215 C1212 1.539 . S
C1215 H1229 0.958 . S
C1215 H1230 0.961 . S
C1215 H1231 0.960 1_554 S
H1216 C1200 0.931 . S
H1217 C1205 0.944 . S
H1218 C1206 0.960 . S
H1219 C1206 0.962 . S
H1220 C1206 0.960 1_556 S
H1221 C1207 0.961 . S
H1222 C1207 0.961 . S
H1223 C1207 0.961 . S
H1224 C1208 0.931 . S
H1225 C1213 0.930 . S
H1226 C1214 0.956 . S
H1227 C1214 0.961 . S
H1228 C1214 0.961 . S
H1229 C1215 0.958 . S
H1230 C1215 0.961 . S
H1231 C1215 0.960 1_556 S
C209 C0 1.096 . S
C217 C91 1.125 . S
C241 C13 1.117 . S
C249 C52 1.136 . S
C273 C65 1.154 . S
C281 C26 1.151 . S
C305 C39 1.096 . S
C313 C78 1.125 . S
C337 C104 1.166 . S
C345 C195 1.156 . S
C369 C156 1.126 . S
C377 C117 1.134 . S
C401 C169 1.156 . S
C409 C130 1.152 . S
C433 C182 1.109 . S
C441 C143 1.128 . S
C465 C5 1.114 . S
C473 C153 1.207 . S
C497 C18 1.064 . S
C505 C114 1.207 . S
C529 C127 1.197 . S
C537 C31 1.087 . S
C561 C44 1.061 . S
C569 C140 1.207 . S
C593 C57 1.080 . S
C601 C179 1.200 . S
C625 C192 1.212 . S
C633 C70 1.105 . S
C657 C83 1.123 . S
C665 C205 1.207 . S
C689 C166 1.193 . S
C697 C96 1.126 . S
C721 C109 1.081 . S
C729 C49 1.200 . S
C753 C10 1.211 . S
C761 C122 1.096 . S
C785 C135 1.157 . S
C793 C23 1.199 . S
C817 C36 1.197 . S
C825 C148 1.130 . S
C849 C161 1.087 . S
C857 C75 1.200 . S
C881 C88 1.210 . S
C889 C174 1.088 . S
C913 C101 1.212 . S
C921 C187 1.090 . S
C945 C62 1.207 . S
C953 C200 1.124 . S
C977 C60 1.496 . S
C985 C8 1.539 . S
C1009 C73 1.503 . S
C1017 C21 1.536 . S
C1041 C34 1.508 . S
C1049 C86 1.530 . S
C1073 C99 1.552 . S
C1081 C47 1.520 . S
C1105 C164 1.517 . S
C1113 C112 1.539 . S
C1137 C177 1.549 . S
C1145 C125 1.522 . S
C1169 C138 1.498 . S
C1177 C190 1.536 . S
C1201 C203 1.507 . S
C1209 C151 1.534 . S
