# Generated by pormake.
# Topology lcs, (4)-cn, num edge types: 1
# Building blocks:
#     Node 0, Type 0, BuildingBlock: GALJAG_clean_sbu_0, # of connection points: 4
#     Node 1, Type 0, BuildingBlock: GALJAG_clean_sbu_0, # of connection points: 4
#     Node 2, Type 0, BuildingBlock: GALJAG_clean_sbu_0, # of connection points: 4
#     Node 3, Type 0, BuildingBlock: GALJAG_clean_sbu_0, # of connection points: 4
#     Node 4, Type 0, BuildingBlock: GALJAG_clean_sbu_0, # of connection points: 4
#     Node 5, Type 0, BuildingBlock: GALJAG_clean_sbu_0, # of connection points: 4
#     Node 6, Type 0, BuildingBlock: GALJAG_clean_sbu_0, # of connection points: 4
#     Node 7, Type 0, BuildingBlock: GALJAG_clean_sbu_0, # of connection points: 4
#     Node 8, Type 0, BuildingBlock: GALJAG_clean_sbu_0, # of connection points: 4
#     Node 9, Type 0, BuildingBlock: GALJAG_clean_sbu_0, # of connection points: 4
#     Node 10, Type 0, BuildingBlock: GALJAG_clean_sbu_0, # of connection points: 4
#     Node 11, Type 0, BuildingBlock: GALJAG_clean_sbu_0, # of connection points: 4
#     Node 12, Type 0, BuildingBlock: GALJAG_clean_sbu_0, # of connection points: 4
#     Node 13, Type 0, BuildingBlock: GALJAG_clean_sbu_0, # of connection points: 4
#     Node 14, Type 0, BuildingBlock: GALJAG_clean_sbu_0, # of connection points: 4
#     Node 15, Type 0, BuildingBlock: GALJAG_clean_sbu_0, # of connection points: 4
#     Node 16, Type 0, BuildingBlock: GALJAG_clean_sbu_0, # of connection points: 4
#     Node 17, Type 0, BuildingBlock: GALJAG_clean_sbu_0, # of connection points: 4
#     Node 18, Type 0, BuildingBlock: GALJAG_clean_sbu_0, # of connection points: 4
#     Node 19, Type 0, BuildingBlock: GALJAG_clean_sbu_0, # of connection points: 4
#     Node 20, Type 0, BuildingBlock: GALJAG_clean_sbu_0, # of connection points: 4
#     Node 21, Type 0, BuildingBlock: GALJAG_clean_sbu_0, # of connection points: 4
#     Node 22, Type 0, BuildingBlock: GALJAG_clean_sbu_0, # of connection points: 4
#     Node 23, Type 0, BuildingBlock: GALJAG_clean_sbu_0, # of connection points: 4
#     Edge 24, Type (0, 0), BuildingBlock: UVAHIK_clean_linker_0, # of connection points: 2
#     Edge 25, Type (0, 0), BuildingBlock: UVAHIK_clean_linker_0, # of connection points: 2
#     Edge 26, Type (0, 0), BuildingBlock: UVAHIK_clean_linker_0, # of connection points: 2
#     Edge 27, Type (0, 0), BuildingBlock: UVAHIK_clean_linker_0, # of connection points: 2
#     Edge 28, Type (0, 0), BuildingBlock: UVAHIK_clean_linker_0, # of connection points: 2
#     Edge 29, Type (0, 0), BuildingBlock: UVAHIK_clean_linker_0, # of connection points: 2
#     Edge 30, Type (0, 0), BuildingBlock: UVAHIK_clean_linker_0, # of connection points: 2
#     Edge 31, Type (0, 0), BuildingBlock: UVAHIK_clean_linker_0, # of connection points: 2
#     Edge 32, Type (0, 0), BuildingBlock: UVAHIK_clean_linker_0, # of connection points: 2
#     Edge 33, Type (0, 0), BuildingBlock: UVAHIK_clean_linker_0, # of connection points: 2
#     Edge 34, Type (0, 0), BuildingBlock: UVAHIK_clean_linker_0, # of connection points: 2
#     Edge 35, Type (0, 0), BuildingBlock: UVAHIK_clean_linker_0, # of connection points: 2
#     Edge 36, Type (0, 0), BuildingBlock: UVAHIK_clean_linker_0, # of connection points: 2
#     Edge 37, Type (0, 0), BuildingBlock: UVAHIK_clean_linker_0, # of connection points: 2
#     Edge 38, Type (0, 0), BuildingBlock: UVAHIK_clean_linker_0, # of connection points: 2
#     Edge 39, Type (0, 0), BuildingBlock: UVAHIK_clean_linker_0, # of connection points: 2
#     Edge 40, Type (0, 0), BuildingBlock: UVAHIK_clean_linker_0, # of connection points: 2
#     Edge 41, Type (0, 0), BuildingBlock: UVAHIK_clean_linker_0, # of connection points: 2
#     Edge 42, Type (0, 0), BuildingBlock: UVAHIK_clean_linker_0, # of connection points: 2
#     Edge 43, Type (0, 0), BuildingBlock: UVAHIK_clean_linker_0, # of connection points: 2
#     Edge 44, Type (0, 0), BuildingBlock: UVAHIK_clean_linker_0, # of connection points: 2
#     Edge 45, Type (0, 0), BuildingBlock: UVAHIK_clean_linker_0, # of connection points: 2
#     Edge 46, Type (0, 0), BuildingBlock: UVAHIK_clean_linker_0, # of connection points: 2
#     Edge 47, Type (0, 0), BuildingBlock: UVAHIK_clean_linker_0, # of connection points: 2
#     Edge 48, Type (0, 0), BuildingBlock: UVAHIK_clean_linker_0, # of connection points: 2
#     Edge 49, Type (0, 0), BuildingBlock: UVAHIK_clean_linker_0, # of connection points: 2
#     Edge 50, Type (0, 0), BuildingBlock: UVAHIK_clean_linker_0, # of connection points: 2
#     Edge 51, Type (0, 0), BuildingBlock: UVAHIK_clean_linker_0, # of connection points: 2
#     Edge 52, Type (0, 0), BuildingBlock: UVAHIK_clean_linker_0, # of connection points: 2
#     Edge 53, Type (0, 0), BuildingBlock: UVAHIK_clean_linker_0, # of connection points: 2
#     Edge 54, Type (0, 0), BuildingBlock: UVAHIK_clean_linker_0, # of connection points: 2
#     Edge 55, Type (0, 0), BuildingBlock: UVAHIK_clean_linker_0, # of connection points: 2
#     Edge 56, Type (0, 0), BuildingBlock: UVAHIK_clean_linker_0, # of connection points: 2
#     Edge 57, Type (0, 0), BuildingBlock: UVAHIK_clean_linker_0, # of connection points: 2
#     Edge 58, Type (0, 0), BuildingBlock: UVAHIK_clean_linker_0, # of connection points: 2
#     Edge 59, Type (0, 0), BuildingBlock: UVAHIK_clean_linker_0, # of connection points: 2
#     Edge 60, Type (0, 0), BuildingBlock: UVAHIK_clean_linker_0, # of connection points: 2
#     Edge 61, Type (0, 0), BuildingBlock: UVAHIK_clean_linker_0, # of connection points: 2
#     Edge 62, Type (0, 0), BuildingBlock: UVAHIK_clean_linker_0, # of connection points: 2
#     Edge 63, Type (0, 0), BuildingBlock: UVAHIK_clean_linker_0, # of connection points: 2
#     Edge 64, Type (0, 0), BuildingBlock: UVAHIK_clean_linker_0, # of connection points: 2
#     Edge 65, Type (0, 0), BuildingBlock: UVAHIK_clean_linker_0, # of connection points: 2
#     Edge 66, Type (0, 0), BuildingBlock: UVAHIK_clean_linker_0, # of connection points: 2
#     Edge 67, Type (0, 0), BuildingBlock: UVAHIK_clean_linker_0, # of connection points: 2
#     Edge 68, Type (0, 0), BuildingBlock: UVAHIK_clean_linker_0, # of connection points: 2
#     Edge 69, Type (0, 0), BuildingBlock: UVAHIK_clean_linker_0, # of connection points: 2
#     Edge 70, Type (0, 0), BuildingBlock: UVAHIK_clean_linker_0, # of connection points: 2
#     Edge 71, Type (0, 0), BuildingBlock: UVAHIK_clean_linker_0, # of connection points: 2
# Relax obj value: 0.033
# Max RMSD: 0.061
# Mean RMSD: 0.060
data_MOF--net-lcs--node1-GALJAG_clean_sbu_0--edge1-UVAHIK_clean_linker_0
_symmetry_space_group_name_H-M    P1
_symmetry_Int_Tables_number       1
_symmetry_cell_setting            triclinic
loop_
_symmetry_equiv_pos_as_xyz
'x, y, z'
_cell_length_a     64.25041
_cell_length_b     64.28085
_cell_length_c     64.323873
_cell_angle_alpha  90.108709
_cell_angle_beta   90.142243
_cell_angle_gamma 90.12522
loop_
_atom_site_label
_atom_site_type_symbol
_atom_site_fract_x
_atom_site_fract_y
_atom_site_fract_z
_atom_type_partial_charge
In0 In 0.9959 0.24906 0.37338 0.0
O1 O 0.0214 0.25384 0.398 0.0
O2 O 0.01903 0.22433 0.38333 0.0
C3 C 0.96356 0.26141 0.39708 0.0
C4 C 0.00943 0.28063 0.34901 0.0
C5 C 0.98069 0.21586 0.3526 0.0
O6 O 0.98198 0.26099 0.40393 0.0
O7 O 0.9616 0.25577 0.37841 0.0
O8 O 0.98817 0.23145 0.34325 0.0
O9 O 0.98102 0.21714 0.37216 0.0
C10 C 0.02839 0.23557 0.39641 0.0
O11 O 0.01952 0.26399 0.35129 0.0
O12 O 0.99238 0.28113 0.3586 0.0
In13 In 0.00261 0.74913 0.62444 0.0
O14 O 0.01946 0.73822 0.59512 0.0
O15 O 0.03676 0.73958 0.62322 0.0
C16 C 0.96807 0.76383 0.6057 0.0
C17 C 0.9898 0.71371 0.6429 0.0
C18 C 0.01421 0.78405 0.64483 0.0
O19 O 0.98541 0.76275 0.59658 0.0
O20 O 0.96816 0.75753 0.62426 0.0
O21 O 0.0076 0.76814 0.6542 0.0
O22 O 0.01491 0.78231 0.62534 0.0
C23 C 0.03675 0.73557 0.60403 0.0
O24 O -0.00016 0.7276 0.65257 0.0
O25 O 0.98648 0.71762 0.62397 0.0
In26 In 0.50026 0.74848 0.87292 0.0
O27 O 0.51484 0.72805 0.89808 0.0
O28 O 0.53286 0.75305 0.88623 0.0
C29 C 0.46915 0.76004 0.89868 0.0
C30 C 0.51135 0.77974 0.84722 0.0
C31 C 0.489 0.71724 0.84701 0.0
O32 O 0.48645 0.76931 0.89813 0.0
O33 O 0.46771 0.74464 0.8866 0.0
O34 O 0.48042 0.73485 0.84669 0.0
O35 O 0.50347 0.71548 0.86014 0.0
C36 C 0.5319 0.73779 0.89847 0.0
O37 O 0.52133 0.76289 0.84822 0.0
O38 O 0.49563 0.78063 0.85887 0.0
In39 In 0.50091 0.24856 0.12461 0.0
O40 O 0.51661 0.2353 0.09552 0.0
O41 O 0.53514 0.24017 0.12253 0.0
C42 C 0.4671 0.26481 0.10564 0.0
C43 C 0.48959 0.21254 0.14284 0.0
C44 C 0.5138 0.28219 0.14628 0.0
O45 O 0.48491 0.26515 0.09743 0.0
O46 O 0.46643 0.25642 0.12331 0.0
O47 O 0.50193 0.26864 0.15414 0.0
O48 O 0.51881 0.27882 0.12764 0.0
C49 C 0.53437 0.23415 0.10388 0.0
O50 O 0.49933 0.2266 0.15259 0.0
O51 O 0.48568 0.2167 0.1241 0.0
In52 In 0.00131 0.74757 0.12416 0.0
O53 O 0.01617 0.73114 0.15191 0.0
O54 O 0.00554 0.71251 0.12664 0.0
C55 C 0.98939 0.78235 0.14463 0.0
C56 C 0.03531 0.75921 0.1024 0.0
C57 C 0.96639 0.73456 0.10467 0.0
O58 O 0.99063 0.7649 0.15347 0.0
O59 O 0.99434 0.78222 0.12571 0.0
O60 O 0.98361 0.7363 0.09542 0.0
O61 O 0.96682 0.73937 0.12369 0.0
C62 C 0.01406 0.71312 0.14432 0.0
O63 O 0.01706 0.76135 0.0955 0.0
O64 O 0.03643 0.75102 0.12015 0.0
In65 In 0.49996 0.75072 0.37373 0.0
O66 O 0.4771 0.75281 0.40076 0.0
O67 O 0.47718 0.72506 0.38273 0.0
C68 C 0.53091 0.7691 0.39568 0.0
C69 C 0.51662 0.7183 0.35282 0.0
C70 C 0.48207 0.78034 0.34981 0.0
O71 O 0.51969 0.75485 0.40315 0.0
O72 O 0.52638 0.77416 0.37731 0.0
O73 O 0.47373 0.77316 0.36597 0.0
O74 O 0.49942 0.77235 0.34538 0.0
C75 C 0.46929 0.73504 0.39766 0.0
O76 O 0.50019 0.72724 0.34686 0.0
O77 O 0.52457 0.72576 0.36915 0.0
In78 In 0.50013 0.2501 0.62137 0.0
O79 O 0.5137 0.23355 0.64965 0.0
O80 O 0.50335 0.21495 0.62425 0.0
C81 C 0.48877 0.28563 0.64075 0.0
C82 C 0.53511 0.25965 0.6001 0.0
C83 C 0.46468 0.23739 0.60278 0.0
O84 O 0.49172 0.26883 0.6504 0.0
O85 O 0.49174 0.28454 0.62143 0.0
O86 O 0.48173 0.23875 0.59315 0.0
O87 O 0.46555 0.24247 0.62172 0.0
C88 C 0.51141 0.21553 0.64215 0.0
O89 O 0.51723 0.26093 0.59207 0.0
O90 O 0.53528 0.25365 0.61872 0.0
In91 In -0.00073 0.25213 0.87254 0.0
O92 O 0.98173 0.24301 0.9021 0.0
O93 O 0.96768 0.23632 0.87284 0.0
C94 C 0.03273 0.26843 0.89243 0.0
C95 C 0.0127 0.21655 0.85505 0.0
C96 C 0.98461 0.28465 0.85022 0.0
O97 O 0.0145 0.2703 0.89942 0.0
O98 O 0.03394 0.25857 0.87556 0.0
O99 O -0.00093 0.27316 0.84366 0.0
O100 O 0.97777 0.27979 0.86788 0.0
C101 C 0.96637 0.2354 0.89239 0.0
O102 O 0.00514 0.23123 0.84439 0.0
O103 O 0.01335 0.21988 0.87438 0.0
In104 In 0.37404 0.00037 0.24978 0.0
O105 O 0.34483 0.00686 0.26915 0.0
O106 O 0.37323 0.02073 0.2788 0.0
C107 C 0.35138 0.98472 0.21802 0.0
C108 C 0.39762 0.03068 0.23258 0.0
C109 C 0.39303 0.96619 0.26497 0.0
O110 O 0.3461 0.00103 0.22761 0.0
O111 O 0.36796 0.97644 0.22445 0.0
O112 O 0.40159 0.97809 0.25194 0.0
O113 O 0.37502 0.97168 0.27049 0.0
C114 C 0.35408 0.01831 0.28218 0.0
O115 O 0.40323 0.02084 0.24857 0.0
O116 O 0.38027 0.02515 0.22524 0.0
In117 In 0.24608 0.1268 0.49922 0.0
O118 O 0.23489 0.09733 0.51565 0.0
O119 O 0.23574 0.12546 0.53302 0.0
C120 C 0.26079 0.10931 0.464 0.0
C121 C 0.21077 0.14621 0.48747 0.0
C122 C 0.28104 0.14556 0.51314 0.0
O123 O 0.25737 0.09894 0.48027 0.0
O124 O 0.25678 0.12845 0.46551 0.0
O125 O 0.2662 0.15557 0.5051 0.0
O126 O 0.27825 0.12616 0.51405 0.0
C127 C 0.2317 0.10626 0.53284 0.0
O128 O 0.22578 0.15578 0.49584 0.0
O129 O 0.21361 0.12696 0.48505 0.0
In130 In 0.12591 -9e-05 0.75106 0.0
O131 O 0.097 0.01714 0.76255 0.0
O132 O 0.12599 0.03297 0.76391 0.0
C133 C 0.10576 0.96622 0.7362 0.0
C134 C 0.14401 0.01302 0.71553 0.0
C135 C 0.14637 0.98529 0.78474 0.0
O136 O 0.09632 0.9824 0.74209 0.0
O137 O 0.12534 0.96712 0.73771 0.0
O138 O 0.1546 0.99785 0.77215 0.0
O139 O 0.12789 0.98028 0.78043 0.0
C140 C 0.10668 0.03358 0.76726 0.0
O141 O 0.15412 0.00429 0.72989 0.0
O142 O 0.12485 0.0151 0.7191 0.0
In143 In 0.25184 0.87267 -0.00017 0.0
O144 O 0.2355 0.84412 0.01335 0.0
O145 O 0.21732 0.87106 0.00741 0.0
C146 C 0.28629 0.85337 0.98569 0.0
C147 C 0.23984 0.89166 0.96444 0.0
C148 C 0.26279 0.89244 0.03529 0.0
O149 O 0.26907 0.84409 0.98757 0.0
O150 O 0.28603 0.87232 0.99077 0.0
O151 O 0.25304 0.90153 0.02087 0.0
O152 O 0.26689 0.87361 0.03175 0.0
C153 C 0.21779 0.85256 0.01386 0.0
O154 O 0.24992 0.9011 0.97848 0.0
O155 O 0.23606 0.8728 0.96824 0.0
In156 In 0.25112 0.3772 -0.00087 0.0
O157 O 0.24938 0.40632 0.01967 0.0
O158 O 0.23443 0.37872 0.0301 0.0
C159 C 0.26346 0.39648 0.96409 0.0
C160 C 0.28477 0.35716 0.01445 0.0
C161 C 0.21677 0.35828 0.98389 0.0
O162 O 0.25563 0.40629 0.97919 0.0
O163 O 0.26485 0.37709 0.96667 0.0
O164 O 0.23409 0.34914 0.9852 0.0
O165 O 0.21685 0.37687 0.99016 0.0
C166 C 0.2386 0.39759 0.03355 0.0
O167 O 0.2668 0.34921 0.01461 0.0
O168 O 0.2857 0.37508 0.00663 0.0
In169 In 0.75003 0.12276 0.9975 0.0
O170 O 0.75909 0.09295 0.01462 0.0
O171 O 0.7586 0.12112 0.03185 0.0
C172 C 0.73584 0.1035 0.96301 0.0
C173 C 0.71602 0.14344 0.0109 0.0
C174 C 0.78524 0.14131 0.98384 0.0
O175 O 0.73877 0.09403 0.97994 0.0
O176 O 0.74017 0.12267 0.96347 0.0
O177 O 0.76845 0.15112 0.98633 0.0
O178 O 0.78424 0.12224 0.9882 0.0
C179 C 0.76188 0.1018 0.03192 0.0
O180 O 0.73413 0.15097 0.01216 0.0
O181 O 0.71507 0.12556 0.00287 0.0
In182 In 0.12595 0.49762 0.25072 0.0
O183 O 0.15343 0.49946 0.22797 0.0
O184 O 0.12897 0.4782 0.22142 0.0
C185 C 0.14663 0.50833 0.28566 0.0
C186 C 0.10482 0.53103 0.23635 0.0
C187 C 0.10572 0.46405 0.26566 0.0
O188 O 0.15569 0.50033 0.2702 0.0
O189 O 0.12728 0.51081 0.28344 0.0
O190 O 0.09667 0.48116 0.26241 0.0
O191 O 0.12493 0.46401 0.26161 0.0
C192 C 0.14619 0.48574 0.2159 0.0
O193 O 0.09813 0.51269 0.23434 0.0
O194 O 0.12206 0.5325 0.24562 0.0
In195 In 0.75032 0.87463 0.50212 0.0
O196 O 0.74338 0.90537 0.51858 0.0
O197 O 0.7426 0.87765 0.53649 0.0
C198 C 0.76303 0.89238 0.46641 0.0
C199 C 0.7844 0.85402 0.5155 0.0
C200 C 0.71418 0.85651 0.4902 0.0
O201 O 0.76038 0.90267 0.48293 0.0
O202 O 0.75916 0.87318 0.4679 0.0
O203 O 0.73115 0.84669 0.49088 0.0
O204 O 0.71547 0.87532 0.49558 0.0
C205 C 0.74043 0.89714 0.53613 0.0
O206 O 0.76623 0.84688 0.5177 0.0
O207 O 0.78534 0.8714 0.50654 0.0
In208 In 0.87233 0.99654 0.2483 0.0
O209 O 0.84315 0.00283 0.22907 0.0
O210 O 0.87247 0.00969 0.21544 0.0
C211 C 0.85394 0.98163 0.28294 0.0
C212 C 0.89222 0.96233 0.23437 0.0
C213 C 0.88976 0.03248 0.26157 0.0
O214 O 0.84369 0.98836 0.26763 0.0
O215 O 0.87342 0.98251 0.28081 0.0
O216 O 0.90043 0.0175 0.25478 0.0
O217 O 0.8704 0.02928 0.26175 0.0
C218 C 0.85293 0.00957 0.21347 0.0
O219 O 0.90175 0.97746 0.24257 0.0
O220 O 0.87275 0.96449 0.23322 0.0
In221 In 0.25202 0.62462 0.49825 0.0
O222 O 0.26601 0.59519 0.51275 0.0
O223 O 0.25426 0.61852 0.53293 0.0
C224 C 0.23911 0.60143 0.46545 0.0
C225 C 0.21857 0.64593 0.51159 0.0
C226 C 0.28436 0.64934 0.48724 0.0
O227 O 0.25716 0.59972 0.473 0.0
O228 O 0.22787 0.61473 0.47433 0.0
O229 O 0.26832 0.64733 0.47607 0.0
O230 O 0.28383 0.63932 0.50402 0.0
C231 C 0.26285 0.60102 0.53122 0.0
O232 O 0.23469 0.65505 0.50493 0.0
O233 O 0.21951 0.62632 0.51146 0.0
In234 In 0.37555 0.49982 0.74763 0.0
O235 O 0.34684 0.51284 0.73141 0.0
O236 O 0.37251 0.50401 0.71257 0.0
C237 C 0.35601 0.48786 0.78286 0.0
C238 C 0.39543 0.46527 0.73462 0.0
C239 C 0.39631 0.53503 0.75782 0.0
O240 O 0.34678 0.48916 0.7656 0.0
O241 O 0.37502 0.49264 0.78235 0.0
O242 O 0.40449 0.51726 0.75908 0.0
O243 O 0.37776 0.53502 0.75143 0.0
C244 C 0.35431 0.5113 0.71334 0.0
O245 O 0.40459 0.48252 0.73686 0.0
O246 O 0.37632 0.46545 0.73905 0.0
In247 In 0.62122 -0.00121 0.74748 0.0
O248 O 0.65183 0.99513 0.72983 0.0
O249 O 0.62378 0.98746 0.71404 0.0
C250 C 0.63961 0.01092 0.78323 0.0
C251 C 0.60112 0.03272 0.73311 0.0
C252 C 0.60164 0.96376 0.76004 0.0
O253 O 0.64978 0.00397 0.76797 0.0
O254 O 0.62017 0.01155 0.78051 0.0
O255 O 0.59265 0.98114 0.7591 0.0
O256 O 0.62051 0.96405 0.75476 0.0
C257 C 0.64334 0.98873 0.7133 0.0
O258 O 0.59352 0.01466 0.73193 0.0
O259 O 0.61884 0.03368 0.74151 0.0
In260 In 0.74879 0.62528 -0.00185 0.0
O261 O 0.7363 0.5967 0.01516 0.0
O262 O 0.74013 0.62466 0.03245 0.0
C263 C 0.76079 0.60566 0.9629 0.0
C264 C 0.7143 0.64638 0.9872 0.0
C265 C 0.78416 0.64421 0.01102 0.0
O266 O 0.76231 0.59743 0.9806 0.0
O267 O 0.75313 0.62368 0.96295 0.0
O268 O 0.76815 0.65427 0.0058 0.0
O269 O 0.78234 0.62474 0.00959 0.0
C270 C 0.73466 0.6058 0.03248 0.0
O271 O 0.73189 0.65503 0.98893 0.0
O272 O 0.71416 0.62711 0.99094 0.0
In273 In 0.87189 0.49993 0.74655 0.0
O274 O 0.90026 0.52182 0.74687 0.0
O275 O 0.87509 0.52883 0.72666 0.0
C276 C 0.89137 0.46458 0.75801 0.0
C277 C 0.85191 0.51613 0.77976 0.0
C278 C 0.85036 0.48467 0.71387 0.0
O279 O 0.90053 0.47875 0.74796 0.0
O280 O 0.87257 0.46828 0.76213 0.0
O281 O 0.84206 0.48763 0.73139 0.0
O282 O 0.86947 0.4891 0.71301 0.0
C283 C 0.89286 0.53387 0.73327 0.0
O284 O 0.84441 0.51673 0.76163 0.0
O285 O 0.86946 0.50751 0.78108 0.0
In286 In 0.74891 0.37291 0.49848 0.0
O287 O 0.73555 0.3456 0.5168 0.0
O288 O 0.71594 0.3602 0.49462 0.0
C289 C 0.78228 0.34911 0.48946 0.0
C290 C 0.73839 0.39708 0.46575 0.0
C291 C 0.75743 0.39837 0.5309 0.0
O292 O 0.76495 0.34686 0.48045 0.0
O293 O 0.78268 0.36318 0.50313 0.0
O294 O 0.76681 0.39965 0.51374 0.0
O295 O 0.74348 0.38458 0.53154 0.0
C296 C 0.71785 0.34632 0.5083 0.0
O297 O 0.72931 0.39821 0.48307 0.0
O298 O 0.75299 0.38404 0.46505 0.0
In299 In 0.62528 0.49931 0.24947 0.0
O300 O 0.59705 0.52071 0.25284 0.0
O301 O 0.62583 0.53057 0.26598 0.0
C302 C 0.60556 0.46418 0.23711 0.0
C303 C 0.64397 0.51469 0.21527 0.0
C304 C 0.64609 0.48493 0.28298 0.0
O305 O 0.597 0.47742 0.24877 0.0
O306 O 0.62385 0.46871 0.23174 0.0
O307 O 0.6548 0.48779 0.26566 0.0
O308 O 0.62694 0.48917 0.28331 0.0
C309 C 0.60687 0.53453 0.26286 0.0
O310 O 0.65407 0.50892 0.23109 0.0
O311 O 0.62448 0.51275 0.21675 0.0
C312 C 0.10539 0.42637 0.2751 0.0
C313 C 0.09472 0.44532 0.27315 0.0
C314 C 0.09502 0.40851 0.2818 0.0
C315 C 0.04918 0.3912 0.31115 0.0
H316 H 0.06 0.33819 0.28439 0.0
C317 C 0.00546 0.31672 0.33519 0.0
C318 C 0.01753 0.29865 0.33731 0.0
C319 C 0.01371 0.33442 0.32566 0.0
C320 C 0.05694 0.35284 0.29214 0.0
H321 H 0.06481 0.46045 0.27672 0.0
H322 H 0.04664 0.42918 0.28851 0.0
H323 H 0.07672 0.36966 0.27133 0.0
H324 H 0.04748 0.28472 0.33067 0.0
H325 H 0.06201 0.31568 0.31429 0.0
H326 H 0.02972 0.3744 0.3322 0.0
C327 C 0.06308 0.4282 0.28494 0.0
C328 C 0.06651 0.37086 0.28465 0.0
C329 C 0.07345 0.44607 0.27813 0.0
C330 C 0.03779 0.29841 0.32919 0.0
C331 C 0.04607 0.31614 0.31972 0.0
C332 C 0.03967 0.37317 0.31869 0.0
C333 C 0.07375 0.40921 0.28679 0.0
C334 C 0.06287 0.39021 0.29418 0.0
C335 C 0.03423 0.33446 0.31811 0.0
C336 C 0.04355 0.35374 0.30938 0.0
H337 H 0.12179 0.42531 0.27139 0.0
H338 H 0.10373 0.39419 0.28336 0.0
H339 H 0.04627 0.40583 0.31899 0.0
H340 H 0.98974 0.31733 0.34121 0.0
H341 H 0.00404 0.34814 0.32435 0.0
C342 C 0.92951 0.76876 0.60443 0.0
C343 C 0.94918 0.77195 0.59549 0.0
C344 C 0.91164 0.77661 0.59485 0.0
C345 C 0.89402 0.81814 0.56094 0.0
H346 H 0.84543 0.78348 0.55146 0.0
C347 C 0.82292 0.84941 0.51653 0.0
C348 C 0.8031 0.84325 0.52328 0.0
C349 C 0.84074 0.83982 0.52441 0.0
C350 C 0.85873 0.79347 0.55425 0.0
H351 H 0.96565 0.78579 0.56957 0.0
H352 H 0.9344 0.79992 0.55306 0.0
H353 H 0.87649 0.7685 0.56738 0.0
H354 H 0.78627 0.8222 0.54346 0.0
H355 H 0.81737 0.80595 0.55786 0.0
H356 H 0.87628 0.8433 0.5486 0.0
C357 C 0.93284 0.79124 0.5674 0.0
C358 C 0.87654 0.78484 0.56328 0.0
C359 C 0.95067 0.7831 0.5768 0.0
C360 C 0.80139 0.82717 0.53791 0.0
C361 C 0.81924 0.81778 0.54606 0.0
C362 C 0.87615 0.82686 0.55221 0.0
C363 C 0.91317 0.78807 0.57635 0.0
C364 C 0.89434 0.79709 0.56665 0.0
C365 C 0.83918 0.82407 0.53951 0.0
C366 C 0.85826 0.81464 0.54869 0.0
H367 H 0.92792 0.76017 0.61881 0.0
H368 H 0.89666 0.77409 0.60213 0.0
H369 H 0.90747 0.82798 0.56364 0.0
H370 H 0.82468 0.86165 0.50511 0.0
H371 H 0.85576 0.84477 0.5186 0.0
C372 C 0.39803 0.57375 0.76044 0.0
C373 C 0.40731 0.55431 0.76387 0.0
C374 C 0.40794 0.592 0.76694 0.0
C375 C 0.45883 0.61343 0.78432 0.0
H376 H 0.42422 0.6552 0.81059 0.0
C377 C 0.49128 0.68009 0.83564 0.0
C378 C 0.48171 0.69966 0.83408 0.0
C379 C 0.48324 0.663 0.82479 0.0
C380 C 0.43408 0.64384 0.80302 0.0
H381 H 0.43439 0.53866 0.77645 0.0
H382 H 0.45154 0.57049 0.78824 0.0
H383 H 0.40821 0.62409 0.79607 0.0
H384 H 0.45675 0.7169 0.81937 0.0
H385 H 0.44277 0.68707 0.80035 0.0
H386 H 0.48477 0.63311 0.79179 0.0
C387 C 0.43676 0.57171 0.7802 0.0
C388 C 0.4249 0.62599 0.79467 0.0
C389 C 0.42689 0.55346 0.77358 0.0
C390 C 0.46439 0.70198 0.82094 0.0
C391 C 0.45632 0.68488 0.81015 0.0
C392 C 0.46804 0.63128 0.79277 0.0
C393 C 0.4273 0.59119 0.77716 0.0
C394 C 0.43715 0.61051 0.78531 0.0
C395 C 0.46545 0.66514 0.81223 0.0
C396 C 0.45576 0.64664 0.8023 0.0
H397 H 0.38301 0.5749 0.75283 0.0
H398 H 0.40039 0.60675 0.764 0.0
H399 H 0.46869 0.60195 0.77696 0.0
H400 H 0.50466 0.67784 0.84566 0.0
H401 H 0.49052 0.64796 0.82686 0.0
C402 C 0.55094 0.21442 0.0747 0.0
C403 C 0.55291 0.22631 0.09292 0.0
C404 C 0.56861 0.20631 0.06495 0.0
C405 C 0.62442 0.19457 0.07546 0.0
H406 H 0.62697 0.1882 0.01555 0.0
C407 C 0.69954 0.17141 0.03226 0.0
C408 C 0.69744 0.15436 0.01874 0.0
C409 C 0.68192 0.18104 0.04054 0.0
C410 C 0.6264 0.18986 0.03231 0.0
H411 H 0.57482 0.23974 0.11483 0.0
H412 H 0.60561 0.22644 0.09746 0.0
H413 H 0.59622 0.20381 0.03141 0.0
H414 H 0.67536 0.13436 0.00276 0.0
H415 H 0.64452 0.15151 0.01694 0.0
H416 H 0.65485 0.18105 0.07619 0.0
C417 C 0.59049 0.22263 0.09102 0.0
C418 C 0.60875 0.19869 0.04143 0.0
C419 C 0.57284 0.2304 0.10092 0.0
C420 C 0.67742 0.14745 0.01321 0.0
C421 C 0.65979 0.1573 0.02121 0.0
C422 C 0.64215 0.18608 0.0663 0.0
C423 C 0.58863 0.21021 0.07306 0.0
C424 C 0.60749 0.20109 0.06316 0.0
C425 C 0.6619 0.174 0.03516 0.0
C426 C 0.64327 0.18357 0.04467 0.0
H427 H 0.53572 0.21096 0.06826 0.0
H428 H 0.56649 0.19659 0.05134 0.0
H429 H 0.62389 0.19568 0.09224 0.0
H430 H 0.7148 0.17705 0.03679 0.0
H431 H 0.68393 0.19398 0.05118 0.0
C432 C 0.10013 0.5695 0.23368 0.0
C433 C 0.09365 0.54933 0.2282 0.0
C434 C 0.08996 0.58688 0.22557 0.0
C435 C 0.05967 0.60382 0.18075 0.0
H436 H 0.04424 0.65041 0.21582 0.0
C437 C 0.01579 0.67444 0.14754 0.0
C438 C 0.02144 0.6942 0.155 0.0
C439 C 0.02324 0.65649 0.15721 0.0
C440 C 0.04867 0.63766 0.20575 0.0
H441 H 0.0714 0.53149 0.21006 0.0
H442 H 0.05379 0.56195 0.19561 0.0
H443 H 0.0599 0.61957 0.23138 0.0
H444 H 0.03923 0.71075 0.17846 0.0
H445 H 0.0528 0.67948 0.19498 0.0
H446 H 0.04915 0.62199 0.15503 0.0
C447 C 0.06671 0.56426 0.20623 0.0
C448 C 0.05756 0.61997 0.2147 0.0
C449 C 0.07672 0.54686 0.21455 0.0
C450 C 0.03454 0.6957 0.17244 0.0
C451 C 0.0422 0.67775 0.18198 0.0
C452 C 0.05101 0.62158 0.17176 0.0
C453 C 0.07328 0.58443 0.21161 0.0
C454 C 0.06319 0.60291 0.20227 0.0
C455 C 0.03673 0.6579 0.17443 0.0
C456 C 0.04545 0.63877 0.18413 0.0
H457 H 0.11312 0.57187 0.24419 0.0
H458 H 0.09546 0.60225 0.22984 0.0
H459 H 0.06413 0.59099 0.17077 0.0
H460 H 0.00557 0.67283 0.13421 0.0
H461 H 0.01835 0.64151 0.1512 0.0
C462 C 0.55295 0.77268 0.42768 0.0
C463 C 0.54844 0.77864 0.40716 0.0
C464 C 0.57001 0.78128 0.4382 0.0
C465 C 0.6066 0.82591 0.43694 0.0
H466 H 0.64175 0.79001 0.47026 0.0
C467 C 0.67591 0.85851 0.48366 0.0
C468 C 0.69447 0.84702 0.48306 0.0
C469 C 0.65739 0.84999 0.47604 0.0
C470 C 0.63215 0.80022 0.46093 0.0
H471 H 0.55814 0.7983 0.38158 0.0
H472 H 0.58799 0.81306 0.39976 0.0
H473 H 0.61079 0.77571 0.45346 0.0
H474 H 0.70816 0.81748 0.47436 0.0
H475 H 0.67587 0.80269 0.4607 0.0
H476 H 0.6283 0.85024 0.44376 0.0
C477 C 0.57822 0.80202 0.4079 0.0
C478 C 0.61426 0.79208 0.45151 0.0
C479 C 0.56117 0.79347 0.39743 0.0
C480 C 0.69407 0.82669 0.47505 0.0
C481 C 0.67554 0.81818 0.46735 0.0
C482 C 0.62449 0.83403 0.44631 0.0
C483 C 0.5829 0.79599 0.42839 0.0
C484 C 0.60137 0.8048 0.43925 0.0
C485 C 0.65702 0.82982 0.46756 0.0
C486 C 0.63757 0.82126 0.4583 0.0
H487 H 0.54337 0.7613 0.43558 0.0
H488 H 0.57303 0.77649 0.45405 0.0
H489 H 0.59688 0.83621 0.42783 0.0
H490 H 0.67571 0.87418 0.48988 0.0
H491 H 0.64334 0.85925 0.47678 0.0
C492 C 0.47529 0.32199 0.63914 0.0
C493 C 0.48142 0.30477 0.65106 0.0
C494 C 0.46708 0.33965 0.64873 0.0
C495 C 0.46409 0.36796 0.69826 0.0
H496 H 0.41287 0.39009 0.67524 0.0
C497 C 0.42765 0.44655 0.72347 0.0
C498 C 0.40602 0.44655 0.72664 0.0
C499 C 0.43749 0.42907 0.71509 0.0
C500 C 0.42712 0.38402 0.68189 0.0
H501 H 0.48434 0.2927 0.68239 0.0
H502 H 0.47012 0.32372 0.6992 0.0
H503 H 0.42935 0.36013 0.6588 0.0
H504 H 0.37777 0.42823 0.72386 0.0
H505 H 0.39494 0.39778 0.70908 0.0
H506 H 0.46178 0.39191 0.72138 0.0
C507 C 0.47168 0.32351 0.68244 0.0
C508 C 0.43665 0.36702 0.67237 0.0
C509 C 0.47972 0.30575 0.67281 0.0
C510 C 0.39446 0.42868 0.72155 0.0
C511 C 0.40426 0.41131 0.713 0.0
C512 C 0.45465 0.38514 0.70767 0.0
C513 C 0.465 0.34051 0.67046 0.0
C514 C 0.4552 0.35878 0.68048 0.0
C515 C 0.42584 0.41138 0.70954 0.0
C516 C 0.43602 0.39326 0.69962 0.0
H517 H 0.47646 0.32169 0.62234 0.0
H518 H 0.46228 0.35262 0.63915 0.0
H519 H 0.47844 0.36196 0.70476 0.0
H520 H 0.43695 0.46011 0.72727 0.0
H521 H 0.45413 0.42959 0.71245 0.0
C522 C 0.94653 0.2263 0.92466 0.0
C523 C 0.94824 0.22599 0.9029 0.0
C524 C 0.9293 0.21725 0.93442 0.0
C525 C 0.88807 0.17825 0.9259 0.0
H526 H 0.85955 0.20681 0.97066 0.0
C527 C 0.82236 0.1392 0.97255 0.0
C528 C 0.80448 0.15122 0.97611 0.0
C529 C 0.84042 0.14837 0.96469 0.0
C530 C 0.86733 0.19869 0.95813 0.0
H531 H 0.93327 0.21608 0.87427 0.0
H532 H 0.9033 0.20034 0.89126 0.0
H533 H 0.89011 0.22284 0.95465 0.0
H534 H 0.79156 0.18231 0.97456 0.0
H535 H 0.82314 0.19835 0.96074 0.0
H536 H 0.86517 0.15428 0.92909 0.0
C537 C 0.91531 0.20739 0.90082 0.0
C538 C 0.88492 0.20777 0.94912 0.0
C539 C 0.93242 0.21651 0.89108 0.0
C540 C 0.80511 0.17266 0.97196 0.0
C541 C 0.82322 0.18186 0.96417 0.0
C542 C 0.87059 0.16914 0.93498 0.0
C543 C 0.91357 0.20761 0.92259 0.0
C544 C 0.89538 0.19771 0.93278 0.0
C545 C 0.84101 0.16977 0.96029 0.0
C546 C 0.85994 0.1793 0.95111 0.0
H547 H 0.9585 0.2335 0.93416 0.0
H548 H 0.92845 0.21751 0.95124 0.0
H549 H 0.89592 0.17002 0.91348 0.0
H550 H 0.82237 0.12265 0.97569 0.0
H551 H 0.85395 0.1387 0.96211 0.0
C552 C 0.27189 0.11211 0.4269 0.0
C553 C 0.26903 0.0999 0.44475 0.0
C554 C 0.28006 0.10336 0.40878 0.0
C555 C 0.28933 0.05299 0.38235 0.0
H556 H 0.33013 0.08478 0.35137 0.0
C557 C 0.32209 0.02509 0.30332 0.0
C558 C 0.34353 0.02792 0.30016 0.0
C559 C 0.31228 0.03406 0.32053 0.0
C560 C 0.31885 0.07565 0.35991 0.0
H561 H 0.27231 0.06894 0.45763 0.0
H562 H 0.28685 0.0537 0.42609 0.0
H563 H 0.31453 0.09975 0.38242 0.0
H564 H 0.37153 0.04227 0.3125 0.0
H565 H 0.35453 0.05767 0.34259 0.0
H566 H 0.29412 0.02865 0.36012 0.0
C567 C 0.28252 0.06997 0.42597 0.0
C568 C 0.30971 0.08433 0.37757 0.0
C569 C 0.27431 0.07872 0.44409 0.0
C570 C 0.35496 0.03989 0.31448 0.0
C571 C 0.34518 0.04882 0.33166 0.0
C572 C 0.29849 0.04429 0.36467 0.0
C573 C 0.28558 0.08221 0.40813 0.0
C574 C 0.29491 0.07308 0.38906 0.0
C575 C 0.32373 0.04603 0.3349 0.0
C576 C 0.31345 0.05547 0.35331 0.0
H577 H 0.26786 0.12846 0.42691 0.0
H578 H 0.28193 0.11316 0.39523 0.0
H579 H 0.27781 0.044 0.39072 0.0
H580 H 0.31288 0.01596 0.29251 0.0
H581 H 0.29569 0.0318 0.32245 0.0
C582 C 0.17546 0.01935 0.69351 0.0
C583 C 0.1538 0.02053 0.6962 0.0
C584 C 0.18472 0.02706 0.67544 0.0
C585 C 0.17342 0.04161 0.62106 0.0
H586 H 0.22262 0.07624 0.6267 0.0
C587 C 0.21809 0.07412 0.55012 0.0
C588 C 0.22382 0.09519 0.55132 0.0
C589 C 0.21036 0.06382 0.56761 0.0
C590 C 0.20886 0.06663 0.62489 0.0
H591 H 0.12482 0.03038 0.682 0.0
H592 H 0.14097 0.04387 0.6505 0.0
H593 H 0.20734 0.06027 0.6575 0.0
H594 H 0.22611 0.12197 0.57176 0.0
H595 H 0.21261 0.10402 0.60225 0.0
H596 H 0.17467 0.04836 0.5885 0.0
C597 C 0.15079 0.03686 0.66226 0.0
C598 C 0.20024 0.05732 0.64249 0.0
C599 C 0.14155 0.02926 0.68036 0.0
C600 C 0.22184 0.10572 0.57037 0.0
C601 C 0.21423 0.0954 0.58786 0.0
C602 C 0.18211 0.05084 0.60344 0.0
C603 C 0.17248 0.03598 0.65966 0.0
C604 C 0.18229 0.04489 0.6408 0.0
C605 C 0.20835 0.07436 0.58667 0.0
C606 C 0.19979 0.06364 0.6052 0.0
H607 H 0.18528 0.01265 0.70545 0.0
H608 H 0.20145 0.02597 0.67378 0.0
H609 H 0.1597 0.03195 0.61925 0.0
H610 H 0.21948 0.06561 0.53564 0.0
H611 H 0.20612 0.04755 0.56627 0.0
C612 C 0.17618 0.98573 0.80994 0.0
C613 C 0.15757 0.97664 0.8028 0.0
C614 C 0.18675 0.97729 0.82699 0.0
C615 C 0.19462 0.92869 0.8548 0.0
H616 H 0.20854 0.96265 0.90275 0.0
C617 C 0.21787 0.89174 0.93247 0.0
C618 C 0.23245 0.90186 0.94526 0.0
C619 C 0.21035 0.90135 0.91456 0.0
C620 C 0.20515 0.95299 0.88936 0.0
H621 H 0.13548 0.95159 0.80774 0.0
H622 H 0.15419 0.93661 0.8372 0.0
H623 H 0.19269 0.97875 0.87221 0.0
H624 H 0.25085 0.92988 0.94922 0.0
H625 H 0.23822 0.9465 0.91747 0.0
H626 H 0.20729 0.903 0.87153 0.0
C627 C 0.16051 0.95031 0.8297 0.0
C628 C 0.19599 0.96223 0.87192 0.0
C629 C 0.14977 0.95894 0.81293 0.0
C630 C 0.23954 0.92175 0.93966 0.0
C631 C 0.2322 0.93131 0.92154 0.0
C632 C 0.20404 0.91951 0.87205 0.0
C633 C 0.17908 0.95939 0.83688 0.0
C634 C 0.19029 0.95007 0.85467 0.0
C635 C 0.21743 0.92124 0.90878 0.0
C636 C 0.20904 0.93144 0.88975 0.0
H637 H 0.1825 -0.00059 0.80242 0.0
H638 H 0.20107 0.98452 0.83224 0.0
H639 H 0.19064 0.91904 0.84153 0.0
H640 H 0.21198 0.87646 0.93648 0.0
H641 H 0.19865 0.89328 0.90545 0.0
C642 C 0.263 0.92333 0.05922 0.0
C643 C 0.26922 0.90288 0.05475 0.0
C644 C 0.2693 0.93301 0.07772 0.0
C645 C 0.29095 0.92106 0.13004 0.0
H646 H 0.30934 0.97855 0.12909 0.0
C647 C 0.34424 0.95617 0.19269 0.0
C648 C 0.3394 0.97602 0.20041 0.0
C649 C 0.33333 0.94792 0.1758 0.0
C650 C 0.30398 0.96257 0.12964 0.0
H651 H 0.287 0.87655 0.066 0.0
H652 H 0.29837 0.89346 0.09786 0.0
H653 H 0.29459 0.9629 0.09769 0.0
H654 H 0.31934 0.00282 0.19657 0.0
H655 H 0.30037 0.98842 0.16669 0.0
H656 H 0.30105 0.92055 0.16178 0.0
C657 C 0.28822 0.90196 0.08744 0.0
C658 C 0.29549 0.9536 0.11168 0.0
C659 C 0.28184 0.89229 0.06907 0.0
C660 C 0.32337 0.98746 0.19094 0.0
C661 C 0.31259 0.97928 0.17383 0.0
C662 C 0.29959 0.92996 0.1479 0.0
C663 C 0.28201 0.92241 0.09205 0.0
C664 C 0.28925 0.93261 0.11156 0.0
C665 C 0.31747 0.95941 0.16613 0.0
C666 C 0.30652 0.95069 0.14777 0.0
H667 H 0.25321 0.93184 0.04847 0.0
H668 H 0.26408 0.9487 0.08087 0.0
H669 H 0.28583 0.90501 0.13067 0.0
H670 H 0.35652 0.947 0.19967 0.0
H671 H 0.33759 0.93267 0.17004 0.0
C672 C 0.32331 0.35402 0.01828 0.0
C673 C 0.30328 0.34652 0.02287 0.0
C674 C 0.3409 0.34426 0.02648 0.0
C675 C 0.35834 0.31349 0.07046 0.0
H676 H 0.40511 0.29886 0.0354 0.0
C677 C 0.42854 0.26848 0.10305 0.0
C678 C 0.44841 0.27345 0.09549 0.0
C679 C 0.41076 0.27668 0.09365 0.0
C680 C 0.39234 0.30311 0.04549 0.0
H681 H 0.28591 0.32297 0.03957 0.0
H682 H 0.31675 0.30613 0.0543 0.0
H683 H 0.37421 0.31459 0.01996 0.0
H684 H 0.46534 0.29095 0.07226 0.0
H685 H 0.43436 0.30597 0.05629 0.0
H686 H 0.37653 0.30279 0.09611 0.0
C687 C 0.31877 0.31948 0.04425 0.0
C688 C 0.37461 0.31201 0.0366 0.0
C689 C 0.30117 0.32905 0.03577 0.0
C690 C 0.45018 0.28678 0.07834 0.0
C691 C 0.43239 0.29526 0.06911 0.0
C692 C 0.37618 0.30489 0.07942 0.0
C693 C 0.33879 0.32702 0.03968 0.0
C694 C 0.35744 0.31724 0.049 0.0
C695 C 0.41242 0.29034 0.07666 0.0
C696 C 0.39342 0.29953 0.06706 0.0
H697 H 0.32539 0.36744 0.00834 0.0
H698 H 0.35615 0.35046 0.02285 0.0
H699 H 0.34541 0.31765 0.08041 0.0
H700 H 0.4267 0.25807 0.11615 0.0
H701 H 0.39569 0.27214 0.09965 0.0
C702 C 0.97963 0.81989 0.14393 0.0
C703 C 0.98173 0.80128 0.15515 0.0
C704 C 0.9711 0.8375 0.1533 0.0
C705 C 0.95927 0.86191 0.20376 0.0
H706 H 0.91758 0.8916 0.17182 0.0
C707 C 0.92454 0.94128 0.22901 0.0
C708 C 0.90295 0.94365 0.22645 0.0
C709 C 0.93466 0.92374 0.2211 0.0
C710 C 0.92911 0.88342 0.18098 0.0
H711 H 0.97715 0.78667 0.18514 0.0
H712 H 0.96219 0.81756 0.20157 0.0
H713 H 0.93467 0.86139 0.1567 0.0
H714 H 0.87498 0.92942 0.21389 0.0
H715 H 0.89263 0.89886 0.20007 0.0
H716 H 0.95347 0.88392 0.22815 0.0
C717 C 0.96723 0.8185 0.18554 0.0
C718 C 0.93906 0.86625 0.17224 0.0
C719 C 0.9757 0.8008 0.17612 0.0
C720 C 0.89165 0.92807 0.21603 0.0
C721 C 0.90177 0.91061 0.20803 0.0
C722 C 0.94938 0.87921 0.21248 0.0
C723 C 0.96455 0.83693 0.17411 0.0
C724 C 0.95423 0.85529 0.18352 0.0
C725 C 0.92339 0.90831 0.21037 0.0
C726 C 0.93413 0.89008 0.20119 0.0
H727 H 0.98424 0.82077 0.12777 0.0
H728 H 0.96953 0.85157 0.14419 0.0
H729 H 0.97099 0.85383 0.21277 0.0
H730 H 0.93365 0.95305 0.23701 0.0
H731 H 0.95137 0.92246 0.22299 0.0
C732 C 0.18248 0.64569 0.52563 0.0
C733 C 0.19996 0.65705 0.5191 0.0
C734 C 0.16485 0.65588 0.53302 0.0
C735 C 0.14762 0.70488 0.55664 0.0
H736 H 0.0928 0.68364 0.54257 0.0
C737 C 0.05489 0.72458 0.57145 0.0
C738 C 0.05552 0.72845 0.59293 0.0
C739 C 0.07264 0.71763 0.56103 0.0
C740 C 0.10796 0.68995 0.54647 0.0
H741 H 0.2127 0.68803 0.51507 0.0
H742 H 0.1817 0.70596 0.52801 0.0
H743 H 0.12343 0.66857 0.52626 0.0
H744 H 0.07522 0.72831 0.62035 0.0
H745 H 0.1061 0.7159 0.60226 0.0
H746 H 0.1321 0.7263 0.57684 0.0
C747 C 0.18175 0.68912 0.52751 0.0
C748 C 0.12554 0.68115 0.5373 0.0
C749 C 0.19944 0.67888 0.52003 0.0
C750 C 0.07427 0.72546 0.60377 0.0
C751 C 0.09201 0.71851 0.59337 0.0
C752 C 0.13002 0.71368 0.56584 0.0
C753 C 0.16426 0.6777 0.53408 0.0
C754 C 0.14558 0.68829 0.54252 0.0
C755 C 0.09138 0.71442 0.57189 0.0
C756 C 0.11001 0.70611 0.56108 0.0
H757 H 0.18242 0.62884 0.52516 0.0
H758 H 0.1518 0.64661 0.53829 0.0
H759 H 0.16285 0.71064 0.56108 0.0
H760 H 0.04067 0.72686 0.56267 0.0
H761 H 0.0717 0.71485 0.54444 0.0
C762 C 0.96665 0.68253 0.6429 0.0
C763 C 0.98164 0.69483 0.65307 0.0
C764 C 0.95795 0.66531 0.65282 0.0
C765 C 0.96628 0.62639 0.69293 0.0
H766 H 0.90604 0.62264 0.69325 0.0
C767 C 0.92193 0.55998 0.73526 0.0
C768 C 0.90397 0.55233 0.72534 0.0
C769 C 0.93201 0.57776 0.72768 0.0
C770 C 0.92288 0.62325 0.69309 0.0
H771 H -0.00028 0.69846 0.68136 0.0
H772 H 0.9847 0.66793 0.6986 0.0
H773 H 0.92288 0.65251 0.67728 0.0
H774 H 0.88278 0.55689 0.69948 0.0
H775 H 0.90059 0.58725 0.68592 0.0
H776 H 0.96635 0.59677 0.70812 0.0
C777 C 0.97965 0.6718 0.68301 0.0
C778 C 0.9325 0.64044 0.68402 0.0
C779 C 0.98815 0.68926 0.67318 0.0
C780 C 0.89646 0.56255 0.70759 0.0
C781 C 0.90662 0.58009 0.69991 0.0
C782 C 0.95665 0.60899 0.70179 0.0
C783 C 0.96425 0.65987 0.67301 0.0
C784 C 0.95427 0.64207 0.68364 0.0
C785 C 0.9244 0.58808 0.70994 0.0
C786 C 0.93481 0.60708 0.70173 0.0
H787 H 0.96133 0.68644 0.6274 0.0
H788 H 0.94624 0.65623 0.6447 0.0
H789 H 0.98312 0.62729 0.69275 0.0
H790 H 0.92802 0.55241 0.74901 0.0
H791 H 0.94554 0.58357 0.73592 0.0
C792 C 0.1886 0.17807 0.48414 0.0
C793 C 0.19142 0.15665 0.48083 0.0
C794 C 0.17032 0.18787 0.47755 0.0
C795 C 0.11593 0.17665 0.4616 0.0
H796 H 0.11971 0.22964 0.4331 0.0
C797 C 0.05154 0.20666 0.4077 0.0
C798 C 0.0462 0.22781 0.40866 0.0
C799 C 0.06856 0.19913 0.41884 0.0
C800 C 0.11837 0.215 0.44131 0.0
H801 H 0.17738 0.12868 0.4681 0.0
H802 H 0.14573 0.14574 0.45635 0.0
H803 H 0.15095 0.21428 0.44832 0.0
H804 H 0.05439 0.25769 0.42209 0.0
H805 H 0.08442 0.24447 0.44155 0.0
H806 H 0.08347 0.1771 0.45409 0.0
C807 C 0.1574 0.15496 0.46434 0.0
C808 C 0.13625 0.2062 0.45004 0.0
C809 C 0.17562 0.1452 0.47094 0.0
C810 C 0.05817 0.2413 0.42108 0.0
C811 C 0.07537 0.23378 0.43213 0.0
C812 C 0.09811 0.18539 0.45281 0.0
C813 C 0.15453 0.17641 0.46754 0.0
C814 C 0.13529 0.18672 0.45993 0.0
C815 C 0.08071 0.2126 0.43111 0.0
C816 C 0.09921 0.20446 0.44223 0.0
H817 H 0.20052 0.18727 0.49179 0.0
H818 H 0.1685 0.20437 0.48041 0.0
H819 H 0.11457 0.16186 0.46952 0.0
H820 H 0.04261 0.19589 0.39824 0.0
H821 H 0.07247 0.1828 0.4175 0.0
C822 C 0.57602 0.43862 0.23864 0.0
C823 C 0.59517 0.44486 0.23016 0.0
C824 C 0.5665 0.42012 0.23206 0.0
C825 C 0.57812 0.37069 0.20413 0.0
H826 H 0.51844 0.36862 0.19511 0.0
C827 C 0.53904 0.31135 0.15017 0.0
C828 C 0.52195 0.30021 0.15799 0.0
C829 C 0.54733 0.32811 0.16123 0.0
C830 C 0.53509 0.36893 0.19782 0.0
H831 H 0.61921 0.43687 0.20797 0.0
H832 H 0.60243 0.40513 0.19606 0.0
H833 H 0.53424 0.39986 0.21022 0.0
H834 H 0.49989 0.29802 0.18334 0.0
H835 H 0.51419 0.32792 0.20255 0.0
H836 H 0.57902 0.34014 0.19086 0.0
C837 C 0.59496 0.41407 0.20821 0.0
C838 C 0.54415 0.38677 0.20652 0.0
C839 C 0.60452 0.43239 0.21491 0.0
C840 C 0.51311 0.30634 0.17699 0.0
C841 C 0.52121 0.32342 0.18793 0.0
C842 C 0.5691 0.35304 0.19522 0.0
C843 C 0.57589 0.4076 0.21677 0.0
C844 C 0.56586 0.38803 0.20937 0.0
C845 C 0.53852 0.33429 0.1802 0.0
C846 C 0.54757 0.35215 0.19164 0.0
H847 H 0.5685 0.44792 0.25049 0.0
H848 H 0.55192 0.41554 0.23912 0.0
H849 H 0.5948 0.37085 0.20663 0.0
H850 H 0.54621 0.30697 0.13558 0.0
H851 H 0.56055 0.33639 0.15484 0.0
C852 C 0.30463 0.82244 0.97076 0.0
C853 C 0.30534 0.84295 0.97829 0.0
C854 C 0.32272 0.81276 0.96359 0.0
C855 C 0.37559 0.82498 0.94433 0.0
H856 H 0.38578 0.76645 0.95465 0.0
C857 C 0.45305 0.78648 0.92213 0.0
C858 C 0.45143 0.76768 0.91108 0.0
C859 C 0.43568 0.79489 0.93205 0.0
C860 C 0.38307 0.78278 0.95158 0.0
H861 H 0.32554 0.86928 0.98464 0.0
H862 H 0.35712 0.8523 0.97257 0.0
H863 H 0.35441 0.78278 0.96848 0.0
H864 H 0.43062 0.74249 0.90244 0.0
H865 H 0.40024 0.75718 0.91984 0.0
H866 H 0.40424 0.82501 0.92748 0.0
C867 C 0.34257 0.8438 0.97173 0.0
C868 C 0.36508 0.79213 0.95943 0.0
C869 C 0.32449 0.85351 0.97876 0.0
C870 C 0.43232 0.75702 0.91084 0.0
C871 C 0.41495 0.76538 0.92087 0.0
C872 C 0.3936 0.81568 0.93661 0.0
C873 C 0.34191 0.82336 0.96393 0.0
C874 C 0.36111 0.81334 0.95585 0.0
C875 C 0.41636 0.78462 0.93121 0.0
C876 C 0.39752 0.79448 0.9401 0.0
H877 H 0.29006 0.81394 0.97019 0.0
H878 H 0.32159 0.7971 0.95744 0.0
H879 H 0.37285 0.84124 0.9409 0.0
H880 H 0.4676 0.79502 0.92263 0.0
H881 H 0.43729 0.8096 0.94015 0.0
C882 C 0.92193 0.44032 0.75804 0.0
C883 C 0.90177 0.44527 0.76481 0.0
C884 C 0.93162 0.42202 0.76475 0.0
C885 C 0.91995 0.37097 0.78956 0.0
H886 H 0.97846 0.37202 0.80451 0.0
C887 C 0.95711 0.31126 0.84434 0.0
C888 C 0.97601 0.30221 0.83824 0.0
C889 C 0.9487 0.32781 0.83316 0.0
C890 C 0.96217 0.37145 0.80014 0.0
H891 H 0.87601 0.43512 0.78402 0.0
H892 H 0.893 0.4037 0.79616 0.0
H893 H 0.96248 0.40283 0.78908 0.0
H894 H 0.00106 0.30346 0.81576 0.0
H895 H 0.98646 0.3329 0.79636 0.0
H896 H 0.9195 0.33988 0.80145 0.0
C897 C 0.90122 0.41352 0.78524 0.0
C898 C 0.95301 0.38906 0.79125 0.0
C899 C 0.8915 0.43165 0.7784 0.0
C900 C 0.98644 0.31014 0.82077 0.0
C901 C 0.97815 0.32698 0.80973 0.0
C902 C 0.92904 0.35351 0.79866 0.0
C903 C 0.92138 0.4084 0.77848 0.0
C904 C 0.93167 0.38916 0.78621 0.0
C905 C 0.95914 0.33587 0.81579 0.0
C906 C 0.95014 0.3537 0.80435 0.0
H907 H 0.93018 0.45052 0.74749 0.0
H908 H 0.94706 0.41849 0.75906 0.0
H909 H 0.90362 0.37026 0.78539 0.0
H910 H 0.94871 0.30547 0.85773 0.0
H911 H 0.93414 0.33453 0.83829 0.0
C912 C 0.31531 0.14386 0.53142 0.0
C913 C 0.3 0.15571 0.52133 0.0
C914 C 0.33299 0.15344 0.53975 0.0
C915 C 0.36537 0.20059 0.53657 0.0
H916 H 0.38374 0.18376 0.5915 0.0
C917 C 0.44503 0.22428 0.57175 0.0
C918 C 0.44536 0.22976 0.5929 0.0
C919 C 0.42692 0.21626 0.56267 0.0
C920 C 0.37872 0.18875 0.57622 0.0
H921 H 0.29126 0.18682 0.51178 0.0
H922 H 0.32221 0.2036 0.52638 0.0
H923 H 0.35282 0.16779 0.57627 0.0
H924 H 0.42691 0.23158 0.62103 0.0
H925 H 0.39529 0.21765 0.60517 0.0
H926 H 0.39126 0.22167 0.53663 0.0
C927 C 0.32058 0.18689 0.52774 0.0
C928 C 0.36115 0.17944 0.5674 0.0
C929 C 0.30283 0.1773 0.51947 0.0
C930 C 0.42715 0.2274 0.60471 0.0
C931 C 0.40908 0.21933 0.59566 0.0
C932 C 0.38304 0.20984 0.54536 0.0
C933 C 0.33576 0.17506 0.5381 0.0
C934 C 0.35431 0.18521 0.54747 0.0
C935 C 0.40882 0.2135 0.57459 0.0
C936 C 0.3899 0.204 0.56528 0.0
H937 H 0.31359 0.12717 0.53303 0.0
H938 H 0.34455 0.14388 0.5474 0.0
H939 H 0.36054 0.20525 0.52113 0.0
H940 H 0.45885 0.22593 0.56227 0.0
H941 H 0.42724 0.21174 0.54644 0.0
C942 C 0.5451 0.69244 0.34811 0.0
C943 C 0.52557 0.70011 0.34206 0.0
C944 C 0.55334 0.67474 0.33867 0.0
C945 C 0.54841 0.64047 0.29241 0.0
H946 H 0.57833 0.60176 0.32764 0.0
C947 C 0.57644 0.55879 0.26528 0.0
C948 C 0.59698 0.55366 0.2708 0.0
C949 C 0.56712 0.57676 0.27325 0.0
C950 C 0.57013 0.6125 0.31758 0.0
H951 H 0.49943 0.69544 0.3212 0.0
H952 H 0.51362 0.66416 0.30495 0.0
H953 H 0.56307 0.63285 0.34285 0.0
H954 H 0.6239 0.56336 0.2888 0.0
H955 H 0.60758 0.59456 0.30281 0.0
H956 H 0.55534 0.61974 0.26719 0.0
C957 C 0.52274 0.67203 0.31677 0.0
C958 C 0.56144 0.63037 0.32626 0.0
C959 C 0.51455 0.68989 0.32614 0.0
C960 C 0.60804 0.56688 0.2843 0.0
C961 C 0.59867 0.58468 0.29241 0.0
C962 C 0.55698 0.62245 0.28374 0.0
C963 C 0.54216 0.66413 0.32307 0.0
C964 C 0.55069 0.64473 0.31377 0.0
C965 C 0.57809 0.58976 0.28706 0.0
C966 C 0.56814 0.60842 0.29622 0.0
H967 H 0.55403 0.70009 0.36022 0.0
H968 H 0.56855 0.66939 0.34359 0.0
H969 H 0.54041 0.65128 0.28229 0.0
H970 H 0.56757 0.54889 0.25487 0.0
H971 H 0.55119 0.58027 0.26896 0.0
C972 C 0.07387 0.7608 0.09765 0.0
C973 C 0.05384 0.76665 0.09113 0.0
C974 C 0.09147 0.7688 0.08773 0.0
C975 C 0.10912 0.81443 0.05982 0.0
H976 H 0.15513 0.77994 0.04179 0.0
C977 C 0.17921 0.84983 0.01709 0.0
C978 C 0.19902 0.84174 0.02141 0.0
C979 C 0.16137 0.83985 0.02442 0.0
C980 C 0.14256 0.78984 0.047 0.0
H981 H 0.03644 0.78515 0.06897 0.0
H982 H 0.06728 0.79947 0.05189 0.0
H983 H 0.12423 0.76373 0.0568 0.0
H984 H 0.21579 0.81689 0.03673 0.0
H985 H 0.18471 0.79985 0.05028 0.0
H986 H 0.1275 0.84059 0.0509 0.0
C987 C 0.06931 0.78862 0.0646 0.0
C988 C 0.12483 0.78051 0.05547 0.0
C989 C 0.0517 0.78037 0.0743 0.0
C990 C 0.20068 0.82341 0.03311 0.0
C991 C 0.18283 0.81358 0.04074 0.0
C992 C 0.12693 0.82378 0.05166 0.0
C993 C 0.08934 0.78303 0.07134 0.0
C994 C 0.10795 0.79273 0.06191 0.0
C995 C 0.16293 0.82172 0.03654 0.0
C996 C 0.1439 0.81163 0.04509 0.0
H997 H 0.07595 0.75021 0.11057 0.0
H998 H 0.10675 0.76436 0.09329 0.0
H999 H 0.09642 0.82421 0.06497 0.0
H1000 H 0.17747 0.86384 0.00791 0.0
H1001 H 0.14635 0.84634 0.02045 0.0
C1002 C 0.73087 0.89904 0.57367 0.0
C1003 C 0.73403 0.90915 0.5546 0.0
C1004 C 0.7236 0.91007 0.59088 0.0
C1005 C 0.6934 0.9565 0.60422 0.0
H1006 H 0.71225 0.94415 0.66017 0.0
C1007 C 0.64493 0.97574 0.67675 0.0
C1008 C 0.65532 0.98265 0.69472 0.0
C1009 C 0.65617 0.96918 0.6594 0.0
C1010 C 0.70699 0.94799 0.64464 0.0
H1011 H 0.73266 0.93884 0.53872 0.0
H1012 H 0.72002 0.95818 0.56889 0.0
H1013 H 0.72993 0.92845 0.63054 0.0
H1014 H 0.68559 0.98853 0.70852 0.0
H1015 H 0.70528 0.97711 0.67811 0.0
H1016 H 0.6704 0.97596 0.61832 0.0
C1017 C 0.72296 0.94167 0.57044 0.0
C1018 C 0.71697 0.93883 0.62768 0.0
C1019 C 0.73028 0.93062 0.55321 0.0
C1020 C 0.67718 0.98321 0.69489 0.0
C1021 C 0.68844 0.97659 0.67753 0.0
C1022 C 0.6834 0.96564 0.62118 0.0
C1023 C 0.71932 0.93145 0.5894 0.0
C1024 C 0.71006 0.9427 0.6073 0.0
C1025 C 0.67805 0.96937 0.65965 0.0
C1026 C 0.68985 0.9612 0.64159 0.0
H1027 H 0.73362 0.8825 0.57521 0.0
H1028 H 0.7207 0.90168 0.60518 0.0
H1029 H 0.68759 0.95969 0.58874 0.0
H1030 H 0.62809 0.97512 0.67617 0.0
H1031 H 0.64769 0.96343 0.64599 0.0
C1032 C 0.85617 0.96461 0.31776 0.0
C1033 C 0.84397 0.97311 0.30175 0.0
C1034 C 0.84678 0.95612 0.33537 0.0
C1035 C 0.79845 0.95673 0.36597 0.0
H1036 H 0.81912 0.90429 0.38735 0.0
C1037 C 0.77457 0.92339 0.44597 0.0
C1038 C 0.77074 0.9019 0.44702 0.0
C1039 C 0.78264 0.93224 0.42786 0.0
C1040 C 0.81307 0.91886 0.38148 0.0
H1041 H 0.81242 0.97959 0.29169 0.0
H1042 H 0.79599 0.96473 0.32251 0.0
H1043 H 0.83489 0.91943 0.35642 0.0
H1044 H 0.772 0.87285 0.42987 0.0
H1045 H 0.78603 0.88831 0.39824 0.0
H1046 H 0.77651 0.95605 0.391 0.0
C1047 C 0.81281 0.96475 0.32147 0.0
C1048 C 0.82225 0.92764 0.36391 0.0
C1049 C 0.82221 0.97316 0.30379 0.0
C1050 C 0.77485 0.88946 0.42954 0.0
C1051 C 0.783 0.89829 0.41147 0.0
C1052 C 0.78932 0.94799 0.38364 0.0
C1053 C 0.825 0.95603 0.3374 0.0
C1054 C 0.81508 0.94669 0.35598 0.0
C1055 C 0.78712 0.91975 0.41048 0.0
C1056 C 0.79655 0.92896 0.39158 0.0
H1057 H 0.87299 0.9644 0.31664 0.0
H1058 H 0.85659 0.94977 0.34751 0.0
H1059 H 0.79268 0.9715 0.36031 0.0
H1060 H 0.77156 0.93336 0.45922 0.0
H1061 H 0.78584 0.94879 0.42764 0.0
C1062 C 0.77362 0.06929 0.04978 0.0
C1063 C 0.76901 0.09063 0.05064 0.0
C1064 C 0.78118 0.05898 0.06735 0.0
C1065 C 0.78535 0.06321 0.12459 0.0
H1066 H 0.83236 0.02611 0.11768 0.0
C1067 C 0.82053 0.01717 0.19321 0.0
C1068 C 0.84236 0.017 0.19449 0.0
C1069 C 0.81057 0.0247 0.17542 0.0
C1070 C 0.81927 0.03647 0.11986 0.0
H1071 H 0.76836 0.11783 0.07061 0.0
H1072 H 0.78169 0.0999 0.1012 0.0
H1073 H 0.81654 0.04222 0.08722 0.0
H1074 H 0.87089 0.02438 0.17812 0.0
H1075 H 0.85353 0.03767 0.14715 0.0
H1076 H 0.78848 0.05794 0.15728 0.0
C1077 C 0.77927 0.09107 0.08704 0.0
C1078 C 0.81005 0.04551 0.10239 0.0
C1079 C 0.77176 0.10137 0.06948 0.0
C1080 C 0.85404 0.02428 0.17757 0.0
C1081 C 0.84409 0.03177 0.15977 0.0
C1082 C 0.79454 0.05413 0.14205 0.0
C1083 C 0.78422 0.06979 0.08614 0.0
C1084 C 0.79314 0.05917 0.10458 0.0
C1085 C 0.82225 0.03216 0.15854 0.0
C1086 C 0.81175 0.04085 0.1399 0.0
H1087 H 0.77158 0.0606 0.03547 0.0
H1088 H 0.78463 0.04253 0.06623 0.0
H1089 H 0.7722 0.07349 0.12676 0.0
H1090 H 0.81113 0.01159 0.20601 0.0
H1091 H 0.79372 0.02459 0.17484 0.0
C1092 C 0.67143 0.01748 0.8048 0.0
C1093 C 0.64972 0.01856 0.80242 0.0
C1094 C 0.68105 0.02569 0.82253 0.0
C1095 C 0.67293 0.06453 0.86364 0.0
H1096 H 0.71825 0.03606 0.89148 0.0
C1097 C 0.72303 0.10469 0.92632 0.0
C1098 C 0.72728 0.09315 0.94434 0.0
C1099 C 0.71411 0.09511 0.90894 0.0
C1100 C 0.70554 0.04414 0.88392 0.0
H1101 H 0.621 0.02866 0.81689 0.0
H1102 H 0.63779 0.04293 0.84786 0.0
H1103 H 0.70108 0.01965 0.8617 0.0
H1104 H 0.72588 0.06246 0.95822 0.0
H1105 H 0.71023 0.04571 0.92785 0.0
H1106 H 0.6772 0.08891 0.88592 0.0
C1107 C 0.6474 0.03594 0.83593 0.0
C1108 C 0.69584 0.03483 0.86678 0.0
C1109 C 0.63778 0.02766 0.81826 0.0
C1110 C 0.72278 0.07175 0.94453 0.0
C1111 C 0.71392 0.06214 0.92712 0.0
C1112 C 0.68268 0.07387 0.88069 0.0
C1113 C 0.66915 0.03522 0.83817 0.0
C1114 C 0.67941 0.04492 0.85648 0.0
C1115 C 0.70931 0.07376 0.90921 0.0
C1116 C 0.69909 0.06379 0.89102 0.0
H1117 H 0.68103 0.01056 0.79283 0.0
H1118 H 0.69786 0.02506 0.82373 0.0
H1119 H 0.66046 0.0728 0.85589 0.0
H1120 H 0.7264 0.1212 0.92569 0.0
H1121 H 0.711 0.10441 0.89526 0.0
C1122 C 0.54912 0.71229 0.92221 0.0
C1123 C 0.54983 0.7311 0.91118 0.0
C1124 C 0.56672 0.70509 0.93276 0.0
C1125 C 0.6239 0.71027 0.9324 0.0
H1126 H 0.62023 0.67942 0.98401 0.0
C1127 C 0.69668 0.67863 0.97447 0.0
C1128 C 0.6954 0.65779 0.98089 0.0
C1129 C 0.67887 0.68914 0.96776 0.0
C1130 C 0.62146 0.68794 0.96955 0.0
H1131 H 0.56917 0.75758 0.90325 0.0
H1132 H 0.59976 0.74525 0.922 0.0
H1133 H 0.58901 0.6954 0.96942 0.0
H1134 H 0.67449 0.63174 0.98576 0.0
H1135 H 0.64341 0.65009 0.97405 0.0
H1136 H 0.65631 0.7027 0.93247 0.0
C1137 C 0.58578 0.7358 0.92214 0.0
C1138 C 0.60359 0.69706 0.96117 0.0
C1139 C 0.56822 0.74294 0.9115 0.0
C1140 C 0.67595 0.64779 0.98087 0.0
C1141 C 0.65813 0.65834 0.9743 0.0
C1142 C 0.64177 0.70126 0.94083 0.0
C1143 C 0.58536 0.71661 0.93259 0.0
C1144 C 0.60455 0.70812 0.94235 0.0
C1145 C 0.65943 0.67906 0.96749 0.0
C1146 C 0.6407 0.68978 0.95936 0.0
H1147 H 0.53516 0.70281 0.92219 0.0
H1148 H 0.5659 0.69013 0.94044 0.0
H1149 H 0.62517 0.71836 0.9177 0.0
H1150 H 0.71147 0.68674 0.97438 0.0
H1151 H 0.68031 0.70516 0.96277 0.0
C1152 C 0.10802 0.06991 0.78102 0.0
C1153 C 0.09632 0.05214 0.77592 0.0
C1154 C 0.09834 0.08749 0.78927 0.0
C1155 C 0.04751 0.11362 0.79383 0.0
H1156 H 0.0744 0.14257 0.83955 0.0
C1157 C 0.02051 0.19417 0.82409 0.0
C1158 C 0.02075 0.19717 0.84573 0.0
C1159 C 0.02892 0.1761 0.81539 0.0
C1160 C 0.0666 0.13458 0.82689 0.0
H1161 H 0.06528 0.03884 0.77533 0.0
H1162 H 0.04834 0.06956 0.78992 0.0
H1163 H 0.09055 0.11162 0.82491 0.0
H1164 H 0.02952 0.18345 0.87525 0.0
H1165 H 0.04401 0.15192 0.86011 0.0
H1166 H 0.0234 0.1365 0.79605 0.0
C1167 C 0.06498 0.06995 0.78734 0.0
C1168 C 0.07598 0.11698 0.81834 0.0
C1169 C 0.0747 0.05233 0.77912 0.0
C1170 C 0.02922 0.18163 0.85851 0.0
C1171 C 0.03763 0.16362 0.84983 0.0
C1172 C 0.03814 0.1313 0.80236 0.0
C1173 C 0.07672 0.0877 0.79259 0.0
C1174 C 0.06657 0.10631 0.8017 0.0
C1175 C 0.03776 0.16072 0.82817 0.0
C1176 C 0.04758 0.14195 0.81901 0.0
H1177 H 0.12471 0.07026 0.77864 0.0
H1178 H 0.10777 0.10101 0.79287 0.0
H1179 H 0.03996 0.10584 0.78089 0.0
H1180 H 0.01408 0.2059 0.81387 0.0
H1181 H 0.02895 0.17439 0.79864 0.0
C1182 C 0.92533 0.26556 0.40191 0.0
C1183 C 0.94562 0.26804 0.4097 0.0
C1184 C 0.90823 0.27218 0.41346 0.0
C1185 C 0.89328 0.30968 0.45325 0.0
H1186 H 0.84266 0.27678 0.45561 0.0
C1187 C 0.81974 0.33997 0.49449 0.0
C1188 C 0.80092 0.33705 0.48372 0.0
C1189 C 0.83777 0.32965 0.48814 0.0
C1190 C 0.85663 0.28621 0.45499 0.0
H1191 H 0.96398 0.27918 0.43578 0.0
H1192 H 0.93396 0.29102 0.45597 0.0
H1193 H 0.87376 0.26222 0.43954 0.0
H1194 H 0.78602 0.32071 0.45819 0.0
H1195 H 0.8175 0.303 0.44685 0.0
H1196 H 0.87604 0.33394 0.46803 0.0
C1197 C 0.93135 0.28393 0.4409 0.0
C1198 C 0.87444 0.27785 0.44584 0.0
C1199 C 0.94849 0.2771 0.42939 0.0
C1200 C 0.80031 0.32322 0.46682 0.0
C1201 C 0.81834 0.31297 0.46041 0.0
C1202 C 0.87543 0.3181 0.4623 0.0
C1203 C 0.91106 0.28158 0.433 0.0
C1204 C 0.89284 0.28963 0.44456 0.0
C1205 C 0.83735 0.31626 0.47083 0.0
C1206 C 0.85679 0.30659 0.46296 0.0
H1207 H 0.92263 0.25859 0.38679 0.0
H1208 H 0.89281 0.27042 0.40685 0.0
H1209 H 0.90717 0.31921 0.45228 0.0
H1210 H 0.82064 0.35046 0.50766 0.0
H1211 H 0.85207 0.3323 0.4967 0.0
C1212 C 0.60142 0.92545 0.76669 0.0
C1213 C 0.59094 0.9446 0.76683 0.0
C1214 C 0.5914 0.90737 0.77339 0.0
C1215 C 0.54863 0.88981 0.80677 0.0
H1216 H 0.55559 0.83733 0.77778 0.0
C1217 C 0.50636 0.81586 0.83391 0.0
C1218 C 0.51832 0.79761 0.83464 0.0
C1219 C 0.51379 0.83348 0.82363 0.0
C1220 C 0.55362 0.85184 0.78613 0.0
H1221 H 0.56171 0.95985 0.77383 0.0
H1222 H 0.5442 0.92825 0.78555 0.0
H1223 H 0.57146 0.86888 0.76377 0.0
H1224 H 0.5471 0.78323 0.82465 0.0
H1225 H 0.56025 0.81409 0.80695 0.0
H1226 H 0.5312 0.87283 0.82935 0.0
C1227 C 0.5602 0.92724 0.78041 0.0
C1228 C 0.5627 0.86989 0.7781 0.0
C1229 C 0.5702 0.94531 0.77363 0.0
C1230 C 0.53753 0.79708 0.8243 0.0
C1231 C 0.54501 0.81474 0.81408 0.0
C1232 C 0.53963 0.87178 0.81482 0.0
C1233 C 0.57073 0.90809 0.78045 0.0
C1234 C 0.56041 0.88905 0.78841 0.0
C1235 C 0.53338 0.83326 0.81394 0.0
C1236 C 0.54212 0.85255 0.80468 0.0
H1237 H 0.61742 0.92444 0.76152 0.0
H1238 H 0.6 0.89289 0.77347 0.0
H1239 H 0.54685 0.90427 0.81524 0.0
H1240 H 0.49142 0.81668 0.84163 0.0
H1241 H 0.50428 0.84736 0.82348 0.0
C1242 C 0.96446 0.18065 0.35341 0.0
C1243 C 0.97194 0.19753 0.34178 0.0
C1244 C 0.95568 0.16342 0.34352 0.0
C1245 C 0.95283 0.1356 0.29344 0.0
H1246 H 0.90368 0.11097 0.31827 0.0
C1247 C 0.92082 0.05471 0.26961 0.0
C1248 C 0.89911 0.05218 0.26892 0.0
C1249 C 0.92959 0.07319 0.27713 0.0
C1250 C 0.91726 0.11776 0.31099 0.0
H1251 H 0.97633 0.20956 0.31064 0.0
H1252 H 0.96072 0.17937 0.29324 0.0
H1253 H 0.91898 0.142 0.3337 0.0
H1254 H 0.86954 0.06714 0.27506 0.0
H1255 H 0.88479 0.09943 0.28795 0.0
H1256 H 0.95089 0.11141 0.27054 0.0
C1257 C 0.96185 0.17944 0.31004 0.0
C1258 C 0.92619 0.13542 0.31999 0.0
C1259 C 0.97069 0.19674 0.31998 0.0
C1260 C 0.88633 0.06858 0.27555 0.0
C1261 C 0.89508 0.08705 0.28302 0.0
C1262 C 0.94387 0.11789 0.2844 0.0
C1263 C 0.95409 0.16266 0.32174 0.0
C1264 C 0.94419 0.14444 0.31146 0.0
C1265 C 0.91681 0.0895 0.2841 0.0
C1266 C 0.92605 0.1087 0.29316 0.0
H1267 H 0.96533 0.18073 0.37023 0.0
H1268 H 0.95022 0.1506 0.35297 0.0
H1269 H 0.96676 0.14211 0.28657 0.0
H1270 H 0.93105 0.04232 0.2646 0.0
H1271 H 0.94638 0.07448 0.27798 0.0
C1272 C 0.57268 0.04904 0.71225 0.0
C1273 C 0.59026 0.05124 0.72508 0.0
C1274 C 0.56277 0.06658 0.70414 0.0
C1275 C 0.555 0.12236 0.71238 0.0
H1276 H 0.54473 0.12414 0.65299 0.0
C1277 C 0.5317 0.19805 0.6703 0.0
C1278 C 0.51833 0.19661 0.65307 0.0
C1279 C 0.53923 0.18007 0.67986 0.0
C1280 C 0.5471 0.1238 0.66966 0.0
H1281 H 0.61105 0.07341 0.73987 0.0
H1282 H 0.59353 0.1041 0.72591 0.0
H1283 H 0.55985 0.09307 0.66843 0.0
H1284 H 0.50169 0.17535 0.63277 0.0
H1285 H 0.51418 0.14397 0.64987 0.0
H1286 H 0.542 0.15292 0.71377 0.0
C1287 C 0.58747 0.08882 0.7221 0.0
C1288 C 0.55585 0.10601 0.67846 0.0
C1289 C 0.59755 0.07128 0.72998 0.0
C1290 C 0.51215 0.1769 0.64592 0.0
C1291 C 0.51943 0.15892 0.65565 0.0
C1292 C 0.54599 0.14007 0.70363 0.0
C1293 C 0.57011 0.08662 0.70896 0.0
C1294 C 0.56004 0.10519 0.69986 0.0
C1295 C 0.53331 0.16026 0.67257 0.0
C1296 C 0.54208 0.1411 0.68211 0.0
H1297 H 0.56673 0.03377 0.70823 0.0
H1298 H 0.54933 0.06449 0.69415 0.0
H1299 H 0.55789 0.12201 0.72898 0.0
H1300 H 0.5368 0.21308 0.67606 0.0
H1301 H 0.55012 0.18175 0.69263 0.0
C1302 C 0.17824 0.3573 0.97871 0.0
C1303 C 0.19784 0.34816 0.97562 0.0
C1304 C 0.16029 0.34795 0.97067 0.0
C1305 C 0.1424 0.31436 0.92879 0.0
H1306 H 0.09337 0.30585 0.96279 0.0
C1307 C 0.07121 0.27019 0.89705 0.0
C1308 C 0.05132 0.27692 0.90299 0.0
C1309 C 0.08897 0.2783 0.90664 0.0
C1310 C 0.10679 0.30838 0.95297 0.0
H1311 H 0.21407 0.32207 0.96178 0.0
H1312 H 0.18264 0.30593 0.94731 0.0
H1313 H 0.12461 0.3212 0.97819 0.0
H1314 H 0.03434 0.29738 0.92363 0.0
H1315 H 0.06539 0.31221 0.93992 0.0
H1316 H 0.12462 0.30232 0.90339 0.0
C1317 C 0.18122 0.32027 0.95606 0.0
C1318 C 0.12471 0.31707 0.96185 0.0
C1319 C 0.19915 0.32945 0.96439 0.0
C1320 C 0.0495 0.29186 0.91881 0.0
C1321 C 0.06732 0.30025 0.92822 0.0
C1322 C 0.12443 0.30598 0.91983 0.0
C1323 C 0.16163 0.32946 0.95911 0.0
C1324 C 0.14269 0.32006 0.94985 0.0
C1325 C 0.08731 0.29362 0.92219 0.0
C1326 C 0.10639 0.30277 0.93181 0.0
H1327 H 0.17677 0.3717 0.98736 0.0
H1328 H 0.14539 0.35542 0.97311 0.0
H1329 H 0.15597 0.3168 0.91912 0.0
H1330 H 0.07308 0.2585 0.88504 0.0
H1331 H 0.104 0.27241 0.9019 0.0
C1332 C 0.44044 0.74014 0.42321 0.0
C1333 C 0.4515 0.727 0.40972 0.0
C1334 C 0.42272 0.73288 0.43351 0.0
C1335 C 0.39619 0.68513 0.4505 0.0
H1336 H 0.34599 0.71849 0.44811 0.0
C1337 C 0.32116 0.66069 0.49272 0.0
C1338 C 0.30292 0.66118 0.48064 0.0
C1339 C 0.33936 0.67025 0.48569 0.0
C1340 C 0.3599 0.70903 0.4489 0.0
H1341 H 0.45307 0.69586 0.39682 0.0
H1342 H 0.42227 0.68312 0.41499 0.0
H1343 H 0.37824 0.73181 0.43293 0.0
H1344 H 0.28919 0.67269 0.45209 0.0
H1345 H 0.32102 0.68953 0.43982 0.0
H1346 H 0.37784 0.66221 0.46613 0.0
C1347 C 0.42728 0.69902 0.4176 0.0
C1348 C 0.37838 0.71672 0.44039 0.0
C1349 C 0.44484 0.70633 0.40713 0.0
C1350 C 0.30302 0.67207 0.46172 0.0
C1351 C 0.32121 0.68177 0.45475 0.0
C1352 C 0.37779 0.67754 0.45918 0.0
C1353 C 0.4159 0.71228 0.4307 0.0
C1354 C 0.39665 0.70473 0.44089 0.0
C1355 C 0.33966 0.68063 0.46649 0.0
C1356 C 0.3594 0.68931 0.45828 0.0
H1357 H 0.44521 0.75616 0.42547 0.0
H1358 H 0.41434 0.74338 0.44366 0.0
H1359 H 0.41008 0.67563 0.45123 0.0
H1360 H 0.32155 0.65246 0.5074 0.0
H1361 H 0.35327 0.66935 0.49518 0.0
C1362 C 0.82375 0.53781 0.79557 0.0
C1363 C 0.84103 0.52468 0.79804 0.0
C1364 C 0.81369 0.54609 0.81297 0.0
C1365 C 0.80449 0.53728 0.86834 0.0
H1366 H 0.79544 0.59681 0.87137 0.0
C1367 C 0.78088 0.5778 0.94476 0.0
C1368 C 0.76798 0.59535 0.94371 0.0
C1369 C 0.78853 0.56866 0.92659 0.0
C1370 C 0.79746 0.58011 0.87068 0.0
H1371 H 0.86115 0.50965 0.82054 0.0
H1372 H 0.84334 0.52385 0.85092 0.0
H1373 H 0.81073 0.58171 0.84019 0.0
H1374 H 0.75237 0.61674 0.9229 0.0
H1375 H 0.76502 0.60038 0.89116 0.0
H1376 H 0.79094 0.53548 0.8986 0.0
C1377 C 0.83765 0.52778 0.83556 0.0
C1378 C 0.80631 0.5715 0.85282 0.0
C1379 C 0.84789 0.51977 0.81819 0.0
C1380 C 0.76244 0.60331 0.92416 0.0
C1381 C 0.76983 0.594 0.90598 0.0
C1382 C 0.79536 0.54583 0.8861 0.0
C1383 C 0.82053 0.54111 0.83311 0.0
C1384 C 0.81012 0.55005 0.85159 0.0
C1385 C 0.78319 0.5767 0.90694 0.0
C1386 C 0.79194 0.5674 0.88762 0.0
H1387 H 0.81814 0.54185 0.78021 0.0
H1388 H 0.80045 0.55625 0.81069 0.0
H1389 H 0.80705 0.52064 0.86766 0.0
H1390 H 0.7855 0.57142 0.95964 0.0
H1391 H 0.79904 0.5556 0.92803 0.0
C1392 C 0.67589 0.52417 0.19514 0.0
C1393 C 0.6541 0.52301 0.19644 0.0
C1394 C 0.68542 0.53209 0.1773 0.0
C1395 C 0.67559 0.54319 0.12166 0.0
H1396 H 0.7229 0.58028 0.12765 0.0
C1397 C 0.72097 0.57426 0.05073 0.0
C1398 C 0.72665 0.59536 0.05128 0.0
C1399 C 0.71303 0.56455 0.06846 0.0
C1400 C 0.70963 0.57003 0.12571 0.0
H1401 H 0.62519 0.5292 0.18016 0.0
H1402 H 0.64178 0.5433 0.14919 0.0
H1403 H 0.70695 0.56523 0.1585 0.0
H1404 H 0.72859 0.62284 0.07079 0.0
H1405 H 0.71448 0.60603 0.10162 0.0
H1406 H 0.67787 0.5485 0.08892 0.0
C1407 C 0.65155 0.5378 0.16177 0.0
C1408 C 0.70064 0.5612 0.14338 0.0
C1409 C 0.64203 0.52986 0.17958 0.0
C1410 C 0.7244 0.60653 0.06991 0.0
C1411 C 0.71644 0.59685 0.08762 0.0
C1412 C 0.68456 0.55203 0.10399 0.0
C1413 C 0.67336 0.53903 0.16042 0.0
C1414 C 0.68341 0.5478 0.14158 0.0
C1415 C 0.71059 0.57577 0.08709 0.0
C1416 C 0.7016 0.56568 0.10582 0.0
H1417 H 0.6856 0.51892 0.20787 0.0
H1418 H 0.70226 0.53258 0.17666 0.0
H1419 H 0.6625 0.53272 0.1197 0.0
H1420 H 0.72261 0.56524 0.03659 0.0
H1421 H 0.70892 0.54822 0.0676 0.0
C1422 C 0.74288 0.40796 0.42873 0.0
C1423 C 0.73162 0.40904 0.44738 0.0
C1424 C 0.73562 0.41802 0.41089 0.0
C1425 C 0.69784 0.45787 0.39263 0.0
H1426 H 0.70136 0.42746 0.34062 0.0
C1427 C 0.64755 0.47738 0.32101 0.0
C1428 C 0.65737 0.47745 0.30152 0.0
C1429 C 0.65814 0.47039 0.33863 0.0
C1430 C 0.70049 0.43626 0.35497 0.0
H1431 H 0.70419 0.42183 0.46216 0.0
H1432 H 0.69125 0.43899 0.431 0.0
H1433 H 0.71725 0.41308 0.37186 0.0
H1434 H 0.68593 0.47027 0.28515 0.0
H1435 H 0.70439 0.45778 0.31601 0.0
H1436 H 0.68049 0.48074 0.37575 0.0
C1437 C 0.70589 0.43073 0.43016 0.0
C1438 C 0.70965 0.42806 0.37288 0.0
C1439 C 0.71324 0.42079 0.44801 0.0
C1440 C 0.67798 0.47037 0.29998 0.0
C1441 C 0.68851 0.46317 0.3176 0.0
C1442 C 0.68854 0.46598 0.37474 0.0
C1443 C 0.71686 0.42926 0.4113 0.0
C1444 C 0.70826 0.43866 0.39199 0.0
C1445 C 0.67869 0.46314 0.33711 0.0
C1446 C 0.68959 0.45515 0.35579 0.0
H1447 H 0.75717 0.3991 0.42782 0.0
H1448 H 0.74465 0.41686 0.39675 0.0
H1449 H 0.69679 0.46665 0.40697 0.0
H1450 H 0.63168 0.48277 0.32267 0.0
H1451 H 0.6501 0.47031 0.35342 0.0
C1452 C 0.81805 0.47004 0.69749 0.0
C1453 C 0.83863 0.47721 0.69555 0.0
C1454 C 0.80702 0.46319 0.67998 0.0
C1455 C 0.80545 0.46755 0.623 0.0
H1456 H 0.77737 0.41414 0.6247 0.0
C1457 C 0.78142 0.42321 0.54888 0.0
C1458 C 0.76345 0.41078 0.54929 0.0
C1459 C 0.78836 0.43325 0.5669 0.0
C1460 C 0.78476 0.42928 0.62403 0.0
H1461 H 0.86375 0.48299 0.67384 0.0
H1462 H 0.84447 0.47115 0.64333 0.0
H1463 H 0.79361 0.42793 0.65613 0.0
H1464 H 0.73807 0.39983 0.56857 0.0
H1465 H 0.74987 0.41776 0.59992 0.0
H1466 H 0.7967 0.46895 0.59093 0.0
C1467 C 0.83684 0.4709 0.65832 0.0
C1468 C 0.79412 0.43713 0.64204 0.0
C1469 C 0.84792 0.47752 0.67582 0.0
C1470 C 0.75207 0.40922 0.56784 0.0
C1471 C 0.75892 0.41938 0.58583 0.0
C1472 C 0.79594 0.45979 0.60502 0.0
C1473 C 0.8163 0.46364 0.66022 0.0
C1474 C 0.80487 0.45616 0.64161 0.0
C1475 C 0.77737 0.43119 0.58568 0.0
C1476 C 0.7858 0.44038 0.60521 0.0
H1477 H 0.81051 0.46966 0.71253 0.0
H1478 H 0.79117 0.45774 0.68186 0.0
H1479 H 0.81336 0.48242 0.62232 0.0
H1480 H 0.79055 0.42463 0.53482 0.0
H1481 H 0.80278 0.44197 0.56624 0.0
C1482 C 0.40457 0.05589 0.20397 0.0
C1483 C 0.41 0.04771 0.22347 0.0
C1484 C 0.41575 0.07249 0.19557 0.0
C1485 C 0.44711 0.11738 0.21031 0.0
H1486 H 0.46321 0.11733 0.15226 0.0
C1487 C 0.48933 0.18749 0.17269 0.0
C1488 C 0.48288 0.19284 0.15252 0.0
C1489 C 0.48265 0.16885 0.18174 0.0
C1490 C 0.45865 0.1177 0.16845 0.0
H1491 H 0.43144 0.05035 0.24943 0.0
H1492 H 0.45086 0.07969 0.23479 0.0
H1493 H 0.44736 0.08635 0.16727 0.0
H1494 H 0.46436 0.18299 0.12604 0.0
H1495 H 0.45229 0.15092 0.14192 0.0
H1496 H 0.45764 0.14896 0.21137 0.0
C1497 C 0.43798 0.07316 0.22604 0.0
C1498 C 0.44966 0.09991 0.17705 0.0
C1499 C 0.42694 0.05635 0.23435 0.0
C1500 C 0.4697 0.17923 0.14157 0.0
C1501 C 0.46291 0.16074 0.15064 0.0
C1502 C 0.45592 0.13528 0.20166 0.0
C1503 C 0.43244 0.08141 0.20659 0.0
C1504 C 0.44353 0.09967 0.19797 0.0
C1505 C 0.46929 0.15528 0.17083 0.0
C1506 C 0.4615 0.13577 0.18052 0.0
H1507 H 0.39158 0.04954 0.19525 0.0
H1508 H 0.41101 0.07869 0.18064 0.0
H1509 H 0.44235 0.11767 0.22645 0.0
H1510 H 0.49957 0.19767 0.18145 0.0
H1511 H 0.48807 0.16504 0.19722 0.0
C1512 C 0.02218 0.80383 0.67751 0.0
C1513 C 0.02107 0.80312 0.65571 0.0
C1514 C 0.02951 0.82169 0.68762 0.0
C1515 C 0.0387 0.87794 0.68011 0.0
H1516 H 0.08003 0.87121 0.72362 0.0
C1517 C 0.07307 0.94768 0.72572 0.0
C1518 C 0.09479 0.94759 0.72833 0.0
C1519 C 0.06276 0.93005 0.71815 0.0
C1520 C 0.06852 0.87332 0.71148 0.0
H1521 H 0.02636 0.82062 0.6274 0.0
H1522 H 0.03914 0.85171 0.64501 0.0
H1523 H 0.06401 0.84051 0.70785 0.0
H1524 H 0.12272 0.92899 0.72523 0.0
H1525 H 0.10474 0.89825 0.71195 0.0
H1526 H 0.0436 0.91073 0.68336 0.0
C1527 C 0.03424 0.83857 0.65432 0.0
C1528 C 0.05919 0.85576 0.70261 0.0
C1529 C 0.02704 0.82071 0.64423 0.0
C1530 C 0.10597 0.92951 0.72338 0.0
C1531 C 0.09566 0.91186 0.71592 0.0
C1532 C 0.04795 0.8955 0.68906 0.0
C1533 C 0.03571 0.83921 0.67611 0.0
C1534 C 0.0444 0.85787 0.68663 0.0
C1535 C 0.07395 0.91195 0.71316 0.0
C1536 C 0.06317 0.89337 0.70463 0.0
H1537 H 0.01764 0.7905 0.68674 0.0
H1538 H 0.03031 0.82181 0.70444 0.0
H1539 H 0.0272 0.88005 0.66797 0.0
H1540 H 0.06404 0.96139 0.72946 0.0
H1541 H 0.046 0.93052 0.71634 0.0
C1542 C 0.48404 0.80777 0.32225 0.0
C1543 C 0.47273 0.79757 0.33789 0.0
C1544 C 0.47566 0.82515 0.31221 0.0
C1545 C 0.4262 0.85269 0.30206 0.0
H1546 H 0.4613 0.90157 0.29701 0.0
C1547 C 0.39225 0.93385 0.28642 0.0
C1548 C 0.40286 0.94687 0.27249 0.0
C1549 C 0.40115 0.91518 0.29299 0.0
C1550 C 0.45137 0.88798 0.29803 0.0
H1551 H 0.44363 0.79712 0.35488 0.0
H1552 H 0.42904 0.82734 0.3374 0.0
H1553 H 0.47604 0.8692 0.31017 0.0
H1554 H 0.43117 0.95066 0.2546 0.0
H1555 H 0.44671 0.91795 0.266 0.0
H1556 H 0.40148 0.87147 0.29014 0.0
C1557 C 0.4443 0.82192 0.33278 0.0
C1558 C 0.45983 0.86943 0.30555 0.0
C1559 C 0.4527 0.80467 0.34288 0.0
C1560 C 0.42265 0.94095 0.2654 0.0
C1561 C 0.43158 0.92226 0.27198 0.0
C1562 C 0.41776 0.87121 0.29452 0.0
C1563 C 0.45578 0.83251 0.31752 0.0
C1564 C 0.44725 0.85167 0.30792 0.0
C1565 C 0.42087 0.90911 0.28576 0.0
C1566 C 0.43017 0.88915 0.29269 0.0
H1567 H 0.49952 0.80262 0.3181 0.0
H1568 H 0.48479 0.83289 0.30037 0.0
H1569 H 0.4162 0.83917 0.3034 0.0
H1570 H 0.37699 0.93802 0.29219 0.0
H1571 H 0.39265 0.90558 0.30388 0.0
C1572 C 0.80506 0.67605 0.01958 0.0
C1573 C 0.80327 0.65427 0.01896 0.0
C1574 C 0.82287 0.68546 0.02795 0.0
C1575 C 0.86515 0.67549 0.06489 0.0
H1576 H 0.89266 0.72208 0.03822 0.0
C1577 C 0.92929 0.72297 0.10589 0.0
C1578 C 0.94735 0.72691 0.09427 0.0
C1579 C 0.9115 0.71494 0.09627 0.0
C1580 C 0.88515 0.70904 0.04579 0.0
H1581 H 0.8188 0.62525 0.02623 0.0
H1582 H 0.8498 0.64166 0.04088 0.0
H1583 H 0.86216 0.70609 0.02173 0.0
H1584 H 0.96083 0.726 0.06341 0.0
H1585 H 0.92963 0.71202 0.04656 0.0
H1586 H 0.88811 0.6783 0.08887 0.0
C1587 C 0.83741 0.65146 0.03505 0.0
C1588 C 0.86764 0.70001 0.03645 0.0
C1589 C 0.81971 0.64208 0.02656 0.0
C1590 C 0.94714 0.72307 0.07276 0.0
C1591 C 0.92926 0.71519 0.0631 0.0
C1592 C 0.88251 0.68461 0.0743 0.0
C1593 C 0.8391 0.67324 0.03599 0.0
C1594 C 0.85753 0.68307 0.04587 0.0
C1595 C 0.91134 0.71083 0.0748 0.0
C1596 C 0.89273 0.70144 0.06483 0.0
H1597 H 0.79262 0.68583 0.01381 0.0
H1598 H 0.8237 0.70228 0.0286 0.0
H1599 H 0.85755 0.66259 0.07261 0.0
H1600 H 0.92898 0.72583 0.12248 0.0
H1601 H 0.89783 0.71196 0.10563 0.0
C1602 C 0.55349 0.27483 0.56936 0.0
C1603 C 0.55435 0.26514 0.58889 0.0
C1604 C 0.57181 0.28096 0.55936 0.0
C1605 C 0.62658 0.29401 0.57104 0.0
H1606 H 0.63305 0.29147 0.51116 0.0
C1607 C 0.70264 0.31941 0.53181 0.0
C1608 C 0.7003 0.3331 0.51499 0.0
C1609 C 0.6855 0.30854 0.53956 0.0
C1610 C 0.63141 0.29232 0.5279 0.0
H1611 H 0.57498 0.2535 0.6129 0.0
H1612 H 0.60688 0.26374 0.59531 0.0
H1613 H 0.60167 0.27722 0.52721 0.0
H1614 H 0.67844 0.34548 0.49248 0.0
H1615 H 0.64847 0.32654 0.50606 0.0
H1616 H 0.65618 0.30922 0.57176 0.0
C1617 C 0.59211 0.26711 0.5879 0.0
C1618 C 0.61343 0.28422 0.53708 0.0
C1619 C 0.57383 0.26114 0.59795 0.0
C1620 C 0.68069 0.33505 0.50549 0.0
C1621 C 0.66355 0.32412 0.51319 0.0
C1622 C 0.64455 0.30199 0.56188 0.0
C1623 C 0.59133 0.27738 0.56864 0.0
C1624 C 0.61075 0.28511 0.55877 0.0
C1625 C 0.66569 0.3111 0.53059 0.0
C1626 C 0.64711 0.30138 0.54021 0.0
H1627 H 0.53867 0.27812 0.56203 0.0
H1628 H 0.57061 0.28904 0.54465 0.0
H1629 H 0.62488 0.29535 0.58773 0.0
H1630 H 0.7176 0.31752 0.53937 0.0
H1631 H 0.68767 0.29838 0.5528 0.0
C1632 C 0.23791 0.42859 0.05733 0.0
C1633 C 0.23064 0.40863 0.05201 0.0
C1634 C 0.22975 0.43904 0.0746 0.0
C1635 C 0.18283 0.44192 0.10614 0.0
H1636 H 0.2179 0.46356 0.15036 0.0
C1637 C 0.14911 0.46156 0.18581 0.0
C1638 C 0.1568 0.47883 0.19678 0.0
C1639 C 0.15873 0.45491 0.16759 0.0
C1640 C 0.20789 0.45795 0.13798 0.0
H1641 H 0.20929 0.38391 0.06057 0.0
H1642 H 0.19487 0.40226 0.09039 0.0
H1643 H 0.23385 0.44869 0.11917 0.0
H1644 H 0.18065 0.50272 0.19737 0.0
H1645 H 0.19734 0.49133 0.16512 0.0
H1646 H 0.15688 0.45116 0.12461 0.0
C1647 C 0.20686 0.40981 0.08128 0.0
C1648 C 0.21704 0.4494 0.12018 0.0
C1649 C 0.2152 0.39928 0.06428 0.0
C1650 C 0.17442 0.48932 0.18921 0.0
C1651 C 0.18401 0.48274 0.17081 0.0
C1652 C 0.1737 0.45064 0.12375 0.0
C1653 C 0.21396 0.42981 0.08654 0.0
C1654 C 0.20456 0.44087 0.10436 0.0
C1655 C 0.17619 0.4655 0.15973 0.0
C1656 C 0.1861 0.45827 0.14014 0.0
H1657 H 0.24984 0.43612 0.04814 0.0
H1658 H 0.23543 0.45447 0.07837 0.0
H1659 H 0.17287 0.43576 0.09397 0.0
H1660 H 0.13566 0.45304 0.19135 0.0
H1661 H 0.15258 0.44127 0.1598 0.0
C1662 C 0.32433 0.47558 0.80183 0.0
C1663 C 0.3456 0.48069 0.80198 0.0
C1664 C 0.31475 0.46789 0.81974 0.0
C1665 C 0.32711 0.44022 0.86799 0.0
H1666 H 0.27183 0.45719 0.88511 0.0
C1667 C 0.28109 0.3951 0.92962 0.0
C1668 C 0.27122 0.40683 0.94515 0.0
C1669 C 0.28944 0.40483 0.91215 0.0
C1670 C 0.28732 0.4524 0.88056 0.0
H1671 H 0.37341 0.48228 0.82109 0.0
H1672 H 0.35669 0.4689 0.85235 0.0
H1673 H 0.28808 0.47365 0.85492 0.0
H1674 H 0.26189 0.43789 0.95438 0.0
H1675 H 0.27653 0.45496 0.92372 0.0
H1676 H 0.32646 0.41907 0.89359 0.0
C1677 C 0.34747 0.47062 0.83834 0.0
C1678 C 0.29654 0.46168 0.86321 0.0
C1679 C 0.35701 0.47837 0.82048 0.0
C1680 C 0.26944 0.42847 0.94265 0.0
C1681 C 0.27773 0.43821 0.92508 0.0
C1682 C 0.31786 0.43088 0.88522 0.0
C1683 C 0.32629 0.46509 0.83811 0.0
C1684 C 0.31653 0.45566 0.85674 0.0
C1685 C 0.28805 0.4265 0.90978 0.0
C1686 C 0.29785 0.4368 0.89165 0.0
H1687 H 0.31514 0.47723 0.78779 0.0
H1688 H 0.29845 0.46359 0.81904 0.0
H1689 H 0.34243 0.43509 0.86326 0.0
H1690 H 0.28263 0.37839 0.93106 0.0
H1691 H 0.29702 0.39536 0.90047 0.0
C1692 C 0.28398 0.57277 0.54764 0.0
C1693 C 0.26948 0.58896 0.54953 0.0
C1694 C 0.29153 0.56268 0.56536 0.0
C1695 C 0.29733 0.57115 0.62208 0.0
H1696 H 0.31235 0.51276 0.62247 0.0
C1697 C 0.3244 0.5295 0.6965 0.0
C1698 C 0.3429 0.51807 0.69462 0.0
C1699 C 0.31415 0.5368 0.6788 0.0
C1700 C 0.30826 0.5291 0.62251 0.0
H1701 H 0.25066 0.60659 0.5712 0.0
H1702 H 0.26319 0.58856 0.60197 0.0
H1703 H 0.29624 0.52775 0.59147 0.0
H1704 H 0.36488 0.50476 0.67282 0.0
H1705 H 0.34681 0.5174 0.64184 0.0
H1706 H 0.30918 0.57243 0.65317 0.0
C1707 C 0.26934 0.58406 0.58697 0.0
C1708 C 0.29912 0.53772 0.60476 0.0
C1709 C 0.26203 0.59431 0.56932 0.0
C1710 C 0.35067 0.51359 0.67471 0.0
C1711 C 0.34028 0.5207 0.657 0.0
C1712 C 0.30624 0.56249 0.63985 0.0
C1713 C 0.28452 0.56843 0.58528 0.0
C1714 C 0.29362 0.5589 0.6043 0.0
C1715 C 0.32207 0.53261 0.65889 0.0
C1716 C 0.3119 0.54143 0.64022 0.0
H1717 H 0.29002 0.56839 0.53255 0.0
H1718 H 0.30337 0.55086 0.56347 0.0
H1719 H 0.29378 0.58761 0.62218 0.0
H1720 H 0.31804 0.53314 0.71165 0.0
H1721 H 0.30004 0.5458 0.68067 0.0
C1722 C 0.17922 0.51145 0.30703 0.0
C1723 C 0.15771 0.51471 0.30479 0.0
C1724 C 0.1896 0.51798 0.32506 0.0
C1725 C 0.17994 0.53395 0.3797 0.0
H1726 H 0.23267 0.56297 0.37464 0.0
C1727 C 0.21032 0.58978 0.4422 0.0
C1728 C 0.23145 0.58893 0.44773 0.0
C1729 C 0.20277 0.57821 0.42545 0.0
C1730 C 0.21811 0.55461 0.37633 0.0
H1731 H 0.1302 0.52728 0.31964 0.0
H1732 H 0.14824 0.53892 0.35081 0.0
H1733 H 0.21669 0.54719 0.34388 0.0
H1734 H 0.26131 0.57532 0.44008 0.0
H1735 H 0.24806 0.55513 0.41043 0.0
H1736 H 0.18101 0.54198 0.41198 0.0
C1737 C 0.1571 0.531 0.3389 0.0
C1738 C 0.20896 0.54555 0.35873 0.0
C1739 C 0.14677 0.52446 0.32094 0.0
C1740 C 0.24494 0.57624 0.43615 0.0
C1741 C 0.23739 0.56477 0.41918 0.0
C1742 C 0.189 0.54308 0.39722 0.0
C1743 C 0.17864 0.52787 0.34119 0.0
C1744 C 0.18953 0.53553 0.36015 0.0
C1745 C 0.2162 0.56561 0.41374 0.0
C1746 C 0.20794 0.5539 0.39563 0.0
H1747 H 0.18804 0.50392 0.29483 0.0
H1748 H 0.20616 0.51518 0.32642 0.0
H1749 H 0.16521 0.52591 0.38144 0.0
H1750 H 0.19954 0.59943 0.45082 0.0
H1751 H 0.18643 0.57941 0.42143 0.0
loop_
_geom_bond_atom_site_label_1
_geom_bond_atom_site_label_2
_geom_bond_distance
_geom_bond_site_symmetry_2
_ccdc_geom_bond_type
In0 O1 2.294 . S
In0 O2 2.326 . S
In0 O6 2.266 1_455 S
In0 O7 2.326 1_455 S
In0 O8 2.266 1_455 S
In0 O9 2.326 1_455 S
In0 O11 2.294 . S
In0 O12 2.326 . S
O1 In0 2.294 . S
O1 C10 1.240 . S
O2 In0 2.326 . S
O2 C10 1.252 . S
C3 O6 1.252 . S
C3 O7 1.260 . S
C4 O11 1.240 . S
C4 O12 1.252 . S
C5 O8 1.252 . S
C5 O9 1.260 . S
O6 In0 2.266 1_655 S
O6 C3 1.252 . S
O7 In0 2.326 1_655 S
O7 C3 1.260 . S
O8 In0 2.266 1_655 S
O8 C5 1.252 . S
O9 In0 2.326 1_655 S
O9 C5 1.260 . S
C10 O1 1.240 . S
C10 O2 1.252 . S
O11 In0 2.294 . S
O11 C4 1.240 . S
O12 In0 2.326 . S
O12 C4 1.252 . S
In13 O14 2.294 . S
In13 O15 2.326 . S
In13 O19 2.266 1_455 S
In13 O20 2.326 1_455 S
In13 O21 2.266 . S
In13 O22 2.326 . S
In13 O24 2.294 1_455 S
In13 O25 2.326 1_455 S
O14 In13 2.294 . S
O14 C23 1.240 . S
O15 In13 2.326 . S
O15 C23 1.252 . S
C16 O19 1.252 . S
C16 O20 1.260 . S
C17 O24 1.240 . S
C17 O25 1.252 . S
C18 O21 1.252 . S
C18 O22 1.260 . S
O19 In13 2.266 1_655 S
O19 C16 1.252 . S
O20 In13 2.326 1_655 S
O20 C16 1.260 . S
O21 In13 2.266 . S
O21 C18 1.252 . S
O22 In13 2.326 . S
O22 C18 1.260 . S
C23 O14 1.240 . S
C23 O15 1.252 . S
O24 In13 2.294 1_655 S
O24 C17 1.240 . S
O25 In13 2.326 1_655 S
O25 C17 1.252 . S
In26 O27 2.294 . S
In26 O28 2.326 . S
In26 O32 2.266 . S
In26 O33 2.326 . S
In26 O34 2.266 . S
In26 O35 2.326 . S
In26 O37 2.294 . S
In26 O38 2.326 . S
O27 In26 2.294 . S
O27 C36 1.240 . S
O28 In26 2.326 . S
O28 C36 1.252 . S
C29 O32 1.252 . S
C29 O33 1.260 . S
C30 O37 1.240 . S
C30 O38 1.252 . S
C31 O34 1.252 . S
C31 O35 1.260 . S
O32 In26 2.266 . S
O32 C29 1.252 . S
O33 In26 2.326 . S
O33 C29 1.260 . S
O34 In26 2.266 . S
O34 C31 1.252 . S
O35 In26 2.326 . S
O35 C31 1.260 . S
C36 O27 1.240 . S
C36 O28 1.252 . S
O37 In26 2.294 . S
O37 C30 1.240 . S
O38 In26 2.326 . S
O38 C30 1.252 . S
In39 O40 2.294 . S
In39 O41 2.326 . S
In39 O45 2.266 . S
In39 O46 2.326 . S
In39 O47 2.266 . S
In39 O48 2.326 . S
In39 O50 2.294 . S
In39 O51 2.326 . S
O40 In39 2.294 . S
O40 C49 1.240 . S
O41 In39 2.326 . S
O41 C49 1.252 . S
C42 O45 1.252 . S
C42 O46 1.260 . S
C43 O50 1.240 . S
C43 O51 1.252 . S
C44 O47 1.252 . S
C44 O48 1.260 . S
O45 In39 2.266 . S
O45 C42 1.252 . S
O46 In39 2.326 . S
O46 C42 1.260 . S
O47 In39 2.266 . S
O47 C44 1.252 . S
O48 In39 2.326 . S
O48 C44 1.260 . S
C49 O40 1.240 . S
C49 O41 1.252 . S
O50 In39 2.294 . S
O50 C43 1.240 . S
O51 In39 2.326 . S
O51 C43 1.252 . S
In52 O53 2.294 . S
In52 O54 2.326 . S
In52 O58 2.266 1_455 S
In52 O59 2.326 1_455 S
In52 O60 2.266 1_455 S
In52 O61 2.326 1_455 S
In52 O63 2.294 . S
In52 O64 2.326 . S
O53 In52 2.294 . S
O53 C62 1.240 . S
O54 In52 2.326 . S
O54 C62 1.252 . S
C55 O58 1.252 . S
C55 O59 1.260 . S
C56 O63 1.240 . S
C56 O64 1.252 . S
C57 O60 1.252 . S
C57 O61 1.260 . S
O58 In52 2.266 1_655 S
O58 C55 1.252 . S
O59 In52 2.326 1_655 S
O59 C55 1.260 . S
O60 In52 2.266 1_655 S
O60 C57 1.252 . S
O61 In52 2.326 1_655 S
O61 C57 1.260 . S
C62 O53 1.240 . S
C62 O54 1.252 . S
O63 In52 2.294 . S
O63 C56 1.240 . S
O64 In52 2.326 . S
O64 C56 1.252 . S
In65 O66 2.294 . S
In65 O67 2.326 . S
In65 O71 2.266 . S
In65 O72 2.326 . S
In65 O73 2.266 . S
In65 O74 2.326 . S
In65 O76 2.294 . S
In65 O77 2.326 . S
O66 In65 2.294 . S
O66 C75 1.240 . S
O67 In65 2.326 . S
O67 C75 1.252 . S
C68 O71 1.252 . S
C68 O72 1.260 . S
C69 O76 1.240 . S
C69 O77 1.252 . S
C70 O73 1.252 . S
C70 O74 1.260 . S
O71 In65 2.266 . S
O71 C68 1.252 . S
O72 In65 2.326 . S
O72 C68 1.260 . S
O73 In65 2.266 . S
O73 C70 1.252 . S
O74 In65 2.326 . S
O74 C70 1.260 . S
C75 O66 1.240 . S
C75 O67 1.252 . S
O76 In65 2.294 . S
O76 C69 1.240 . S
O77 In65 2.326 . S
O77 C69 1.252 . S
In78 O79 2.294 . S
In78 O80 2.326 . S
In78 O84 2.266 . S
In78 O85 2.326 . S
In78 O86 2.266 . S
In78 O87 2.326 . S
In78 O89 2.294 . S
In78 O90 2.326 . S
O79 In78 2.294 . S
O79 C88 1.240 . S
O80 In78 2.326 . S
O80 C88 1.252 . S
C81 O84 1.252 . S
C81 O85 1.260 . S
C82 O89 1.240 . S
C82 O90 1.252 . S
C83 O86 1.252 . S
C83 O87 1.260 . S
O84 In78 2.266 . S
O84 C81 1.252 . S
O85 In78 2.326 . S
O85 C81 1.260 . S
O86 In78 2.266 . S
O86 C83 1.252 . S
O87 In78 2.326 . S
O87 C83 1.260 . S
C88 O79 1.240 . S
C88 O80 1.252 . S
O89 In78 2.294 . S
O89 C82 1.240 . S
O90 In78 2.326 . S
O90 C82 1.252 . S
In91 O92 2.268 1_455 S
In91 O93 2.284 1_455 S
In91 O97 2.292 . S
In91 O98 2.368 . S
In91 O99 2.258 1_455 S
In91 O100 2.307 1_455 S
In91 O102 2.303 . S
In91 O103 2.345 . S
O92 In91 2.268 1_655 S
O92 C101 1.240 . S
O93 In91 2.284 1_655 S
O93 C101 1.252 . S
C94 O97 1.252 . S
C94 O98 1.260 . S
C95 O102 1.240 . S
C95 O103 1.252 . S
C96 O99 1.252 . S
C96 O100 1.260 . S
O97 In91 2.292 . S
O97 C94 1.252 . S
O98 In91 2.368 . S
O98 C94 1.260 . S
O99 In91 2.258 1_655 S
O99 C96 1.252 . S
O100 In91 2.307 1_655 S
O100 C96 1.260 . S
C101 O92 1.240 . S
C101 O93 1.252 . S
O102 In91 2.303 . S
O102 C95 1.240 . S
O103 In91 2.345 . S
O103 C95 1.252 . S
In104 O105 2.294 . S
In104 O106 2.326 . S
In104 O110 2.266 1_545 S
In104 O111 2.326 1_545 S
In104 O112 2.266 1_545 S
In104 O113 2.326 1_545 S
In104 O115 2.294 . S
In104 O116 2.326 . S
O105 In104 2.294 . S
O105 C114 1.240 . S
O106 In104 2.326 . S
O106 C114 1.252 . S
C107 O110 1.252 . S
C107 O111 1.260 . S
C108 O115 1.240 . S
C108 O116 1.252 . S
C109 O112 1.252 . S
C109 O113 1.260 . S
O110 In104 2.266 1_565 S
O110 C107 1.252 . S
O111 In104 2.326 1_565 S
O111 C107 1.260 . S
O112 In104 2.266 1_565 S
O112 C109 1.252 . S
O113 In104 2.326 1_565 S
O113 C109 1.260 . S
C114 O105 1.240 . S
C114 O106 1.252 . S
O115 In104 2.294 . S
O115 C108 1.240 . S
O116 In104 2.326 . S
O116 C108 1.252 . S
In117 O118 2.294 . S
In117 O119 2.326 . S
In117 O123 2.266 . S
In117 O124 2.326 . S
In117 O125 2.266 . S
In117 O126 2.326 . S
In117 O128 2.294 . S
In117 O129 2.326 . S
O118 In117 2.294 . S
O118 C127 1.240 . S
O119 In117 2.326 . S
O119 C127 1.252 . S
C120 O123 1.252 . S
C120 O124 1.260 . S
C121 O128 1.240 . S
C121 O129 1.252 . S
C122 O125 1.252 . S
C122 O126 1.260 . S
O123 In117 2.266 . S
O123 C120 1.252 . S
O124 In117 2.326 . S
O124 C120 1.260 . S
O125 In117 2.266 . S
O125 C122 1.252 . S
O126 In117 2.326 . S
O126 C122 1.260 . S
C127 O118 1.240 . S
C127 O119 1.252 . S
O128 In117 2.294 . S
O128 C121 1.240 . S
O129 In117 2.326 . S
O129 C121 1.252 . S
In130 O131 2.294 . S
In130 O132 2.326 . S
In130 O136 2.266 1_545 S
In130 O137 2.326 1_545 S
In130 O138 2.266 1_545 S
In130 O139 2.326 1_545 S
In130 O141 2.294 . S
In130 O142 2.326 . S
O131 In130 2.294 . S
O131 C140 1.240 . S
O132 In130 2.326 . S
O132 C140 1.252 . S
C133 O136 1.252 . S
C133 O137 1.260 . S
C134 O141 1.240 . S
C134 O142 1.252 . S
C135 O138 1.252 . S
C135 O139 1.260 . S
O136 In130 2.266 1_565 S
O136 C133 1.252 . S
O137 In130 2.326 1_565 S
O137 C133 1.260 . S
O138 In130 2.266 1_565 S
O138 C135 1.252 . S
O139 In130 2.326 1_565 S
O139 C135 1.260 . S
C140 O131 1.240 . S
C140 O132 1.252 . S
O141 In130 2.294 . S
O141 C134 1.240 . S
O142 In130 2.326 . S
O142 C134 1.252 . S
In143 O144 2.303 . S
In143 O145 2.345 . S
In143 O149 2.258 1_554 S
In143 O150 2.307 1_554 S
In143 O151 2.292 . S
In143 O152 2.368 . S
In143 O154 2.268 1_554 S
In143 O155 2.284 1_554 S
O144 In143 2.303 . S
O144 C153 1.240 . S
O145 In143 2.345 . S
O145 C153 1.252 . S
C146 O149 1.252 . S
C146 O150 1.260 . S
C147 O154 1.240 . S
C147 O155 1.252 . S
C148 O151 1.252 . S
C148 O152 1.260 . S
O149 In143 2.258 1_556 S
O149 C146 1.252 . S
O150 In143 2.307 1_556 S
O150 C146 1.260 . S
O151 In143 2.292 . S
O151 C148 1.252 . S
O152 In143 2.368 . S
O152 C148 1.260 . S
C153 O144 1.240 . S
C153 O145 1.252 . S
O154 In143 2.268 1_556 S
O154 C147 1.240 . S
O155 In143 2.284 1_556 S
O155 C147 1.252 . S
In156 O157 2.294 . S
In156 O158 2.326 . S
In156 O162 2.266 1_554 S
In156 O163 2.326 1_554 S
In156 O164 2.266 1_554 S
In156 O165 2.326 1_554 S
In156 O167 2.294 . S
In156 O168 2.326 . S
O157 In156 2.294 . S
O157 C166 1.240 . S
O158 In156 2.326 . S
O158 C166 1.252 . S
C159 O162 1.252 . S
C159 O163 1.260 . S
C160 O167 1.240 . S
C160 O168 1.252 . S
C161 O164 1.252 . S
C161 O165 1.260 . S
O162 In156 2.266 1_556 S
O162 C159 1.252 . S
O163 In156 2.326 1_556 S
O163 C159 1.260 . S
O164 In156 2.266 1_556 S
O164 C161 1.252 . S
O165 In156 2.326 1_556 S
O165 C161 1.260 . S
C166 O157 1.240 . S
C166 O158 1.252 . S
O167 In156 2.294 . S
O167 C160 1.240 . S
O168 In156 2.326 . S
O168 C160 1.252 . S
In169 O170 2.294 . S
In169 O171 2.326 . S
In169 O175 2.266 1_554 S
In169 O176 2.326 1_554 S
In169 O177 2.266 1_554 S
In169 O178 2.326 1_554 S
In169 O180 2.294 . S
In169 O181 2.326 . S
O170 In169 2.294 . S
O170 C179 1.240 . S
O171 In169 2.326 . S
O171 C179 1.252 . S
C172 O175 1.252 . S
C172 O176 1.260 . S
C173 O180 1.240 . S
C173 O181 1.252 . S
C174 O177 1.252 . S
C174 O178 1.260 . S
O175 In169 2.266 1_556 S
O175 C172 1.252 . S
O176 In169 2.326 1_556 S
O176 C172 1.260 . S
O177 In169 2.266 1_556 S
O177 C174 1.252 . S
O178 In169 2.326 1_556 S
O178 C174 1.260 . S
C179 O170 1.240 . S
C179 O171 1.252 . S
O180 In169 2.294 . S
O180 C173 1.240 . S
O181 In169 2.326 . S
O181 C173 1.252 . S
In182 O183 2.294 . S
In182 O184 2.326 . S
In182 O188 2.266 . S
In182 O189 2.326 . S
In182 O190 2.266 . S
In182 O191 2.326 . S
In182 O193 2.294 . S
In182 O194 2.326 . S
O183 In182 2.294 . S
O183 C192 1.240 . S
O184 In182 2.326 . S
O184 C192 1.252 . S
C185 O188 1.252 . S
C185 O189 1.260 . S
C186 O193 1.240 . S
C186 O194 1.252 . S
C187 O190 1.252 . S
C187 O191 1.260 . S
O188 In182 2.266 . S
O188 C185 1.252 . S
O189 In182 2.326 . S
O189 C185 1.260 . S
O190 In182 2.266 . S
O190 C187 1.252 . S
O191 In182 2.326 . S
O191 C187 1.260 . S
C192 O183 1.240 . S
C192 O184 1.252 . S
O193 In182 2.294 . S
O193 C186 1.240 . S
O194 In182 2.326 . S
O194 C186 1.252 . S
In195 O196 2.294 . S
In195 O197 2.326 . S
In195 O201 2.266 . S
In195 O202 2.326 . S
In195 O203 2.266 . S
In195 O204 2.326 . S
In195 O206 2.294 . S
In195 O207 2.326 . S
O196 In195 2.294 . S
O196 C205 1.240 . S
O197 In195 2.326 . S
O197 C205 1.252 . S
C198 O201 1.252 . S
C198 O202 1.260 . S
C199 O206 1.240 . S
C199 O207 1.252 . S
C200 O203 1.252 . S
C200 O204 1.260 . S
O201 In195 2.266 . S
O201 C198 1.252 . S
O202 In195 2.326 . S
O202 C198 1.260 . S
O203 In195 2.266 . S
O203 C200 1.252 . S
O204 In195 2.326 . S
O204 C200 1.260 . S
C205 O196 1.240 . S
C205 O197 1.252 . S
O206 In195 2.294 . S
O206 C199 1.240 . S
O207 In195 2.326 . S
O207 C199 1.252 . S
In208 O209 2.303 . S
In208 O210 2.345 . S
In208 O214 2.258 1_545 S
In208 O215 2.307 1_545 S
In208 O216 2.292 . S
In208 O217 2.368 . S
In208 O219 2.268 1_545 S
In208 O220 2.284 1_545 S
O209 In208 2.303 . S
O209 C218 1.240 . S
O210 In208 2.345 . S
O210 C218 1.252 . S
C211 O214 1.252 . S
C211 O215 1.260 . S
C212 O219 1.240 . S
C212 O220 1.252 . S
C213 O216 1.252 . S
C213 O217 1.260 . S
O214 In208 2.258 1_565 S
O214 C211 1.252 . S
O215 In208 2.307 1_565 S
O215 C211 1.260 . S
O216 In208 2.292 . S
O216 C213 1.252 . S
O217 In208 2.368 . S
O217 C213 1.260 . S
C218 O209 1.240 . S
C218 O210 1.252 . S
O219 In208 2.268 1_565 S
O219 C212 1.240 . S
O220 In208 2.284 1_565 S
O220 C212 1.252 . S
In221 O222 2.294 . S
In221 O223 2.326 . S
In221 O227 2.266 . S
In221 O228 2.326 . S
In221 O229 2.266 . S
In221 O230 2.326 . S
In221 O232 2.294 . S
In221 O233 2.326 . S
O222 In221 2.294 . S
O222 C231 1.240 . S
O223 In221 2.326 . S
O223 C231 1.252 . S
C224 O227 1.252 . S
C224 O228 1.260 . S
C225 O232 1.240 . S
C225 O233 1.252 . S
C226 O229 1.252 . S
C226 O230 1.260 . S
O227 In221 2.266 . S
O227 C224 1.252 . S
O228 In221 2.326 . S
O228 C224 1.260 . S
O229 In221 2.266 . S
O229 C226 1.252 . S
O230 In221 2.326 . S
O230 C226 1.260 . S
C231 O222 1.240 . S
C231 O223 1.252 . S
O232 In221 2.294 . S
O232 C225 1.240 . S
O233 In221 2.326 . S
O233 C225 1.252 . S
In234 O235 2.294 . S
In234 O236 2.326 . S
In234 O240 2.266 . S
In234 O241 2.326 . S
In234 O242 2.266 . S
In234 O243 2.326 . S
In234 O245 2.294 . S
In234 O246 2.326 . S
O235 In234 2.294 . S
O235 C244 1.240 . S
O236 In234 2.326 . S
O236 C244 1.252 . S
C237 O240 1.252 . S
C237 O241 1.260 . S
C238 O245 1.240 . S
C238 O246 1.252 . S
C239 O242 1.252 . S
C239 O243 1.260 . S
O240 In234 2.266 . S
O240 C237 1.252 . S
O241 In234 2.326 . S
O241 C237 1.260 . S
O242 In234 2.266 . S
O242 C239 1.252 . S
O243 In234 2.326 . S
O243 C239 1.260 . S
C244 O235 1.240 . S
C244 O236 1.252 . S
O245 In234 2.294 . S
O245 C238 1.240 . S
O246 In234 2.326 . S
O246 C238 1.252 . S
In247 O248 2.294 1_545 S
In247 O249 2.326 1_545 S
In247 O253 2.266 . S
In247 O254 2.326 . S
In247 O255 2.266 1_545 S
In247 O256 2.326 1_545 S
In247 O258 2.294 . S
In247 O259 2.326 . S
O248 In247 2.294 1_565 S
O248 C257 1.240 . S
O249 In247 2.326 1_565 S
O249 C257 1.252 . S
C250 O253 1.252 . S
C250 O254 1.260 . S
C251 O258 1.240 . S
C251 O259 1.252 . S
C252 O255 1.252 . S
C252 O256 1.260 . S
O253 In247 2.266 . S
O253 C250 1.252 . S
O254 In247 2.326 . S
O254 C250 1.260 . S
O255 In247 2.266 1_565 S
O255 C252 1.252 . S
O256 In247 2.326 1_565 S
O256 C252 1.260 . S
C257 O248 1.240 . S
C257 O249 1.252 . S
O258 In247 2.294 . S
O258 C251 1.240 . S
O259 In247 2.326 . S
O259 C251 1.252 . S
In260 O261 2.294 . S
In260 O262 2.326 . S
In260 O266 2.266 1_554 S
In260 O267 2.326 1_554 S
In260 O268 2.266 . S
In260 O269 2.326 . S
In260 O271 2.294 1_554 S
In260 O272 2.326 1_554 S
O261 In260 2.294 . S
O261 C270 1.240 . S
O262 In260 2.326 . S
O262 C270 1.252 . S
C263 O266 1.252 . S
C263 O267 1.260 . S
C264 O271 1.240 . S
C264 O272 1.252 . S
C265 O268 1.252 . S
C265 O269 1.260 . S
O266 In260 2.266 1_556 S
O266 C263 1.252 . S
O267 In260 2.326 1_556 S
O267 C263 1.260 . S
O268 In260 2.266 . S
O268 C265 1.252 . S
O269 In260 2.326 . S
O269 C265 1.260 . S
C270 O261 1.240 . S
C270 O262 1.252 . S
O271 In260 2.294 1_556 S
O271 C264 1.240 . S
O272 In260 2.326 1_556 S
O272 C264 1.252 . S
In273 O274 2.294 . S
In273 O275 2.326 . S
In273 O279 2.266 . S
In273 O280 2.326 . S
In273 O281 2.266 . S
In273 O282 2.326 . S
In273 O284 2.294 . S
In273 O285 2.326 . S
O274 In273 2.294 . S
O274 C283 1.240 . S
O275 In273 2.326 . S
O275 C283 1.252 . S
C276 O279 1.252 . S
C276 O280 1.260 . S
C277 O284 1.240 . S
C277 O285 1.252 . S
C278 O281 1.252 . S
C278 O282 1.260 . S
O279 In273 2.266 . S
O279 C276 1.252 . S
O280 In273 2.326 . S
O280 C276 1.260 . S
O281 In273 2.266 . S
O281 C278 1.252 . S
O282 In273 2.326 . S
O282 C278 1.260 . S
C283 O274 1.240 . S
C283 O275 1.252 . S
O284 In273 2.294 . S
O284 C277 1.240 . S
O285 In273 2.326 . S
O285 C277 1.252 . S
In286 O287 2.294 . S
In286 O288 2.326 . S
In286 O292 2.266 . S
In286 O293 2.326 . S
In286 O294 2.266 . S
In286 O295 2.326 . S
In286 O297 2.294 . S
In286 O298 2.326 . S
O287 In286 2.294 . S
O287 C296 1.240 . S
O288 In286 2.326 . S
O288 C296 1.252 . S
C289 O292 1.252 . S
C289 O293 1.260 . S
C290 O297 1.240 . S
C290 O298 1.252 . S
C291 O294 1.252 . S
C291 O295 1.260 . S
O292 In286 2.266 . S
O292 C289 1.252 . S
O293 In286 2.326 . S
O293 C289 1.260 . S
O294 In286 2.266 . S
O294 C291 1.252 . S
O295 In286 2.326 . S
O295 C291 1.260 . S
C296 O287 1.240 . S
C296 O288 1.252 . S
O297 In286 2.294 . S
O297 C290 1.240 . S
O298 In286 2.326 . S
O298 C290 1.252 . S
In299 O300 2.294 . S
In299 O301 2.326 . S
In299 O305 2.266 . S
In299 O306 2.326 . S
In299 O307 2.266 . S
In299 O308 2.326 . S
In299 O310 2.294 . S
In299 O311 2.326 . S
O300 In299 2.294 . S
O300 C309 1.240 . S
O301 In299 2.326 . S
O301 C309 1.252 . S
C302 O305 1.252 . S
C302 O306 1.260 . S
C303 O310 1.240 . S
C303 O311 1.252 . S
C304 O307 1.252 . S
C304 O308 1.260 . S
O305 In299 2.266 . S
O305 C302 1.252 . S
O306 In299 2.326 . S
O306 C302 1.260 . S
O307 In299 2.266 . S
O307 C304 1.252 . S
O308 In299 2.326 . S
O308 C304 1.260 . S
C309 O300 1.240 . S
C309 O301 1.252 . S
O310 In299 2.294 . S
O310 C303 1.240 . S
O311 In299 2.326 . S
O311 C303 1.252 . S
C312 C313 1.349 . S
C312 C314 1.327 . S
C312 H337 0.950 . S
C313 C312 1.349 . S
C313 C329 1.349 . S
C314 C312 1.327 . S
C314 C333 1.429 . S
C314 H338 0.950 . S
C315 C332 1.574 . S
C315 C334 1.368 . S
C315 H339 0.949 . S
H316 C320 0.949 . S
C317 C318 1.349 . S
C317 C319 1.327 . S
C317 H340 0.950 . S
C318 C317 1.349 . S
C318 C330 1.349 . S
C319 C317 1.327 . S
C319 C335 1.429 . S
C319 H341 0.950 . S
C320 H316 0.949 . S
C320 C328 1.574 . S
C320 C336 1.368 . S
H321 C329 0.950 . S
H322 C327 0.950 . S
H323 C328 0.949 . S
H324 C330 0.950 . S
H325 C331 0.950 . S
H326 C332 0.949 . S
C327 H322 0.950 . S
C327 C329 1.327 . S
C327 C333 1.429 . S
C328 C320 1.574 . S
C328 H323 0.949 . S
C328 C334 1.368 . S
C329 C313 1.349 . S
C329 H321 0.950 . S
C329 C327 1.327 . S
C330 C318 1.349 . S
C330 H324 0.950 . S
C330 C331 1.327 . S
C331 H325 0.950 . S
C331 C330 1.327 . S
C331 C335 1.429 . S
C332 C315 1.574 . S
C332 H326 0.949 . S
C332 C336 1.368 . S
C333 C314 1.429 . S
C333 C327 1.429 . S
C333 C334 1.523 . S
C334 C315 1.368 . S
C334 C328 1.368 . S
C334 C333 1.523 . S
C335 C319 1.429 . S
C335 C331 1.429 . S
C335 C336 1.523 . S
C336 C320 1.368 . S
C336 C332 1.368 . S
C336 C335 1.523 . S
H337 C312 0.950 . S
H338 C314 0.950 . S
H339 C315 0.949 . S
H340 C317 0.950 . S
H341 C319 0.950 . S
C342 C343 1.349 . S
C342 C344 1.327 . S
C342 H367 0.950 . S
C343 C342 1.349 . S
C343 C359 1.349 . S
C344 C342 1.327 . S
C344 C363 1.429 . S
C344 H368 0.950 . S
C345 C362 1.574 . S
C345 C364 1.368 . S
C345 H369 0.949 . S
H346 C350 0.949 . S
C347 C348 1.349 . S
C347 C349 1.327 . S
C347 H370 0.950 . S
C348 C347 1.349 . S
C348 C360 1.349 . S
C349 C347 1.327 . S
C349 C365 1.429 . S
C349 H371 0.950 . S
C350 H346 0.949 . S
C350 C358 1.574 . S
C350 C366 1.368 . S
H351 C359 0.950 . S
H352 C357 0.950 . S
H353 C358 0.949 . S
H354 C360 0.950 . S
H355 C361 0.950 . S
H356 C362 0.949 . S
C357 H352 0.950 . S
C357 C359 1.327 . S
C357 C363 1.429 . S
C358 C350 1.574 . S
C358 H353 0.949 . S
C358 C364 1.368 . S
C359 C343 1.349 . S
C359 H351 0.950 . S
C359 C357 1.327 . S
C360 C348 1.349 . S
C360 H354 0.950 . S
C360 C361 1.327 . S
C361 H355 0.950 . S
C361 C360 1.327 . S
C361 C365 1.429 . S
C362 C345 1.574 . S
C362 H356 0.949 . S
C362 C366 1.368 . S
C363 C344 1.429 . S
C363 C357 1.429 . S
C363 C364 1.523 . S
C364 C345 1.368 . S
C364 C358 1.368 . S
C364 C363 1.523 . S
C365 C349 1.429 . S
C365 C361 1.429 . S
C365 C366 1.523 . S
C366 C350 1.368 . S
C366 C362 1.368 . S
C366 C365 1.523 . S
H367 C342 0.950 . S
H368 C344 0.950 . S
H369 C345 0.949 . S
H370 C347 0.950 . S
H371 C349 0.950 . S
C372 C373 1.349 . S
C372 C374 1.327 . S
C372 H397 0.950 . S
C373 C372 1.349 . S
C373 C389 1.349 . S
C374 C372 1.327 . S
C374 C393 1.429 . S
C374 H398 0.950 . S
C375 C392 1.574 . S
C375 C394 1.368 . S
C375 H399 0.949 . S
H376 C380 0.949 . S
C377 C378 1.349 . S
C377 C379 1.327 . S
C377 H400 0.950 . S
C378 C377 1.349 . S
C378 C390 1.349 . S
C379 C377 1.327 . S
C379 C395 1.429 . S
C379 H401 0.950 . S
C380 H376 0.949 . S
C380 C388 1.574 . S
C380 C396 1.368 . S
H381 C389 0.950 . S
H382 C387 0.950 . S
H383 C388 0.949 . S
H384 C390 0.950 . S
H385 C391 0.950 . S
H386 C392 0.949 . S
C387 H382 0.950 . S
C387 C389 1.327 . S
C387 C393 1.429 . S
C388 C380 1.574 . S
C388 H383 0.949 . S
C388 C394 1.368 . S
C389 C373 1.349 . S
C389 H381 0.950 . S
C389 C387 1.327 . S
C390 C378 1.349 . S
C390 H384 0.950 . S
C390 C391 1.327 . S
C391 H385 0.950 . S
C391 C390 1.327 . S
C391 C395 1.429 . S
C392 C375 1.574 . S
C392 H386 0.949 . S
C392 C396 1.368 . S
C393 C374 1.429 . S
C393 C387 1.429 . S
C393 C394 1.523 . S
C394 C375 1.368 . S
C394 C388 1.368 . S
C394 C393 1.523 . S
C395 C379 1.429 . S
C395 C391 1.429 . S
C395 C396 1.523 . S
C396 C380 1.368 . S
C396 C392 1.368 . S
C396 C395 1.523 . S
H397 C372 0.950 . S
H398 C374 0.950 . S
H399 C375 0.949 . S
H400 C377 0.950 . S
H401 C379 0.950 . S
C402 C403 1.349 . S
C402 C404 1.327 . S
C402 H427 0.950 . S
C403 C402 1.349 . S
C403 C419 1.349 . S
C404 C402 1.327 . S
C404 C423 1.429 . S
C404 H428 0.950 . S
C405 C422 1.574 . S
C405 C424 1.368 . S
C405 H429 0.949 . S
H406 C410 0.949 . S
C407 C408 1.349 . S
C407 C409 1.327 . S
C407 H430 0.950 . S
C408 C407 1.349 . S
C408 C420 1.349 . S
C409 C407 1.327 . S
C409 C425 1.429 . S
C409 H431 0.950 . S
C410 H406 0.949 . S
C410 C418 1.574 . S
C410 C426 1.368 . S
H411 C419 0.950 . S
H412 C417 0.950 . S
H413 C418 0.949 . S
H414 C420 0.950 . S
H415 C421 0.950 . S
H416 C422 0.949 . S
C417 H412 0.950 . S
C417 C419 1.327 . S
C417 C423 1.429 . S
C418 C410 1.574 . S
C418 H413 0.949 . S
C418 C424 1.368 . S
C419 C403 1.349 . S
C419 H411 0.950 . S
C419 C417 1.327 . S
C420 C408 1.349 . S
C420 H414 0.950 . S
C420 C421 1.327 . S
C421 H415 0.950 . S
C421 C420 1.327 . S
C421 C425 1.429 . S
C422 C405 1.574 . S
C422 H416 0.949 . S
C422 C426 1.368 . S
C423 C404 1.429 . S
C423 C417 1.429 . S
C423 C424 1.523 . S
C424 C405 1.368 . S
C424 C418 1.368 . S
C424 C423 1.523 . S
C425 C409 1.429 . S
C425 C421 1.429 . S
C425 C426 1.523 . S
C426 C410 1.368 . S
C426 C422 1.368 . S
C426 C425 1.523 . S
H427 C402 0.950 . S
H428 C404 0.950 . S
H429 C405 0.949 . S
H430 C407 0.950 . S
H431 C409 0.950 . S
C432 C433 1.349 . S
C432 C434 1.327 . S
C432 H457 0.950 . S
C433 C432 1.349 . S
C433 C449 1.349 . S
C434 C432 1.327 . S
C434 C453 1.429 . S
C434 H458 0.950 . S
C435 C452 1.574 . S
C435 C454 1.368 . S
C435 H459 0.949 . S
H436 C440 0.949 . S
C437 C438 1.349 . S
C437 C439 1.327 . S
C437 H460 0.950 . S
C438 C437 1.349 . S
C438 C450 1.349 . S
C439 C437 1.327 . S
C439 C455 1.429 . S
C439 H461 0.950 . S
C440 H436 0.949 . S
C440 C448 1.574 . S
C440 C456 1.368 . S
H441 C449 0.950 . S
H442 C447 0.950 . S
H443 C448 0.949 . S
H444 C450 0.950 . S
H445 C451 0.950 . S
H446 C452 0.949 . S
C447 H442 0.950 . S
C447 C449 1.327 . S
C447 C453 1.429 . S
C448 C440 1.574 . S
C448 H443 0.949 . S
C448 C454 1.368 . S
C449 C433 1.349 . S
C449 H441 0.950 . S
C449 C447 1.327 . S
C450 C438 1.349 . S
C450 H444 0.950 . S
C450 C451 1.327 . S
C451 H445 0.950 . S
C451 C450 1.327 . S
C451 C455 1.429 . S
C452 C435 1.574 . S
C452 H446 0.949 . S
C452 C456 1.368 . S
C453 C434 1.429 . S
C453 C447 1.429 . S
C453 C454 1.523 . S
C454 C435 1.368 . S
C454 C448 1.368 . S
C454 C453 1.523 . S
C455 C439 1.429 . S
C455 C451 1.429 . S
C455 C456 1.523 . S
C456 C440 1.368 . S
C456 C452 1.368 . S
C456 C455 1.523 . S
H457 C432 0.950 . S
H458 C434 0.950 . S
H459 C435 0.949 . S
H460 C437 0.950 . S
H461 C439 0.950 . S
C462 C463 1.349 . S
C462 C464 1.327 . S
C462 H487 0.950 . S
C463 C462 1.349 . S
C463 C479 1.349 . S
C464 C462 1.327 . S
C464 C483 1.429 . S
C464 H488 0.950 . S
C465 C482 1.574 . S
C465 C484 1.368 . S
C465 H489 0.949 . S
H466 C470 0.949 . S
C467 C468 1.349 . S
C467 C469 1.327 . S
C467 H490 0.950 . S
C468 C467 1.349 . S
C468 C480 1.349 . S
C469 C467 1.327 . S
C469 C485 1.429 . S
C469 H491 0.950 . S
C470 H466 0.949 . S
C470 C478 1.574 . S
C470 C486 1.368 . S
H471 C479 0.950 . S
H472 C477 0.950 . S
H473 C478 0.949 . S
H474 C480 0.950 . S
H475 C481 0.950 . S
H476 C482 0.949 . S
C477 H472 0.950 . S
C477 C479 1.327 . S
C477 C483 1.429 . S
C478 C470 1.574 . S
C478 H473 0.949 . S
C478 C484 1.368 . S
C479 C463 1.349 . S
C479 H471 0.950 . S
C479 C477 1.327 . S
C480 C468 1.349 . S
C480 H474 0.950 . S
C480 C481 1.327 . S
C481 H475 0.950 . S
C481 C480 1.327 . S
C481 C485 1.429 . S
C482 C465 1.574 . S
C482 H476 0.949 . S
C482 C486 1.368 . S
C483 C464 1.429 . S
C483 C477 1.429 . S
C483 C484 1.523 . S
C484 C465 1.368 . S
C484 C478 1.368 . S
C484 C483 1.523 . S
C485 C469 1.429 . S
C485 C481 1.429 . S
C485 C486 1.523 . S
C486 C470 1.368 . S
C486 C482 1.368 . S
C486 C485 1.523 . S
H487 C462 0.950 . S
H488 C464 0.950 . S
H489 C465 0.949 . S
H490 C467 0.950 . S
H491 C469 0.950 . S
C492 C493 1.349 . S
C492 C494 1.327 . S
C492 H517 0.950 . S
C493 C492 1.349 . S
C493 C509 1.349 . S
C494 C492 1.327 . S
C494 C513 1.429 . S
C494 H518 0.950 . S
C495 C512 1.574 . S
C495 C514 1.368 . S
C495 H519 0.949 . S
H496 C500 0.949 . S
C497 C498 1.349 . S
C497 C499 1.327 . S
C497 H520 0.950 . S
C498 C497 1.349 . S
C498 C510 1.349 . S
C499 C497 1.327 . S
C499 C515 1.429 . S
C499 H521 0.950 . S
C500 H496 0.949 . S
C500 C508 1.574 . S
C500 C516 1.368 . S
H501 C509 0.950 . S
H502 C507 0.950 . S
H503 C508 0.949 . S
H504 C510 0.950 . S
H505 C511 0.950 . S
H506 C512 0.949 . S
C507 H502 0.950 . S
C507 C509 1.327 . S
C507 C513 1.429 . S
C508 C500 1.574 . S
C508 H503 0.949 . S
C508 C514 1.368 . S
C509 C493 1.349 . S
C509 H501 0.950 . S
C509 C507 1.327 . S
C510 C498 1.349 . S
C510 H504 0.950 . S
C510 C511 1.327 . S
C511 H505 0.950 . S
C511 C510 1.327 . S
C511 C515 1.429 . S
C512 C495 1.574 . S
C512 H506 0.949 . S
C512 C516 1.368 . S
C513 C494 1.429 . S
C513 C507 1.429 . S
C513 C514 1.523 . S
C514 C495 1.368 . S
C514 C508 1.368 . S
C514 C513 1.523 . S
C515 C499 1.429 . S
C515 C511 1.429 . S
C515 C516 1.523 . S
C516 C500 1.368 . S
C516 C512 1.368 . S
C516 C515 1.523 . S
H517 C492 0.950 . S
H518 C494 0.950 . S
H519 C495 0.949 . S
H520 C497 0.950 . S
H521 C499 0.950 . S
C522 C523 1.349 . S
C522 C524 1.327 . S
C522 H547 0.950 . S
C523 C522 1.349 . S
C523 C539 1.349 . S
C524 C522 1.327 . S
C524 C543 1.429 . S
C524 H548 0.950 . S
C525 C542 1.574 . S
C525 C544 1.368 . S
C525 H549 0.949 . S
H526 C530 0.949 . S
C527 C528 1.349 . S
C527 C529 1.327 . S
C527 H550 0.950 . S
C528 C527 1.349 . S
C528 C540 1.349 . S
C529 C527 1.327 . S
C529 C545 1.429 . S
C529 H551 0.950 . S
C530 H526 0.949 . S
C530 C538 1.574 . S
C530 C546 1.368 . S
H531 C539 0.950 . S
H532 C537 0.950 . S
H533 C538 0.949 . S
H534 C540 0.950 . S
H535 C541 0.950 . S
H536 C542 0.949 . S
C537 H532 0.950 . S
C537 C539 1.327 . S
C537 C543 1.429 . S
C538 C530 1.574 . S
C538 H533 0.949 . S
C538 C544 1.368 . S
C539 C523 1.349 . S
C539 H531 0.950 . S
C539 C537 1.327 . S
C540 C528 1.349 . S
C540 H534 0.950 . S
C540 C541 1.327 . S
C541 H535 0.950 . S
C541 C540 1.327 . S
C541 C545 1.429 . S
C542 C525 1.574 . S
C542 H536 0.949 . S
C542 C546 1.368 . S
C543 C524 1.429 . S
C543 C537 1.429 . S
C543 C544 1.523 . S
C544 C525 1.368 . S
C544 C538 1.368 . S
C544 C543 1.523 . S
C545 C529 1.429 . S
C545 C541 1.429 . S
C545 C546 1.523 . S
C546 C530 1.368 . S
C546 C542 1.368 . S
C546 C545 1.523 . S
H547 C522 0.950 . S
H548 C524 0.950 . S
H549 C525 0.949 . S
H550 C527 0.950 . S
H551 C529 0.950 . S
C552 C553 1.349 . S
C552 C554 1.327 . S
C552 H577 0.950 . S
C553 C552 1.349 . S
C553 C569 1.349 . S
C554 C552 1.327 . S
C554 C573 1.429 . S
C554 H578 0.950 . S
C555 C572 1.574 . S
C555 C574 1.368 . S
C555 H579 0.949 . S
H556 C560 0.949 . S
C557 C558 1.349 . S
C557 C559 1.327 . S
C557 H580 0.950 . S
C558 C557 1.349 . S
C558 C570 1.349 . S
C559 C557 1.327 . S
C559 C575 1.429 . S
C559 H581 0.950 . S
C560 H556 0.949 . S
C560 C568 1.574 . S
C560 C576 1.368 . S
H561 C569 0.950 . S
H562 C567 0.950 . S
H563 C568 0.949 . S
H564 C570 0.950 . S
H565 C571 0.950 . S
H566 C572 0.949 . S
C567 H562 0.950 . S
C567 C569 1.327 . S
C567 C573 1.429 . S
C568 C560 1.574 . S
C568 H563 0.949 . S
C568 C574 1.368 . S
C569 C553 1.349 . S
C569 H561 0.950 . S
C569 C567 1.327 . S
C570 C558 1.349 . S
C570 H564 0.950 . S
C570 C571 1.327 . S
C571 H565 0.950 . S
C571 C570 1.327 . S
C571 C575 1.429 . S
C572 C555 1.574 . S
C572 H566 0.949 . S
C572 C576 1.368 . S
C573 C554 1.429 . S
C573 C567 1.429 . S
C573 C574 1.523 . S
C574 C555 1.368 . S
C574 C568 1.368 . S
C574 C573 1.523 . S
C575 C559 1.429 . S
C575 C571 1.429 . S
C575 C576 1.523 . S
C576 C560 1.368 . S
C576 C572 1.368 . S
C576 C575 1.523 . S
H577 C552 0.950 . S
H578 C554 0.950 . S
H579 C555 0.949 . S
H580 C557 0.950 . S
H581 C559 0.950 . S
C582 C583 1.349 . S
C582 C584 1.327 . S
C582 H607 0.950 . S
C583 C582 1.349 . S
C583 C599 1.349 . S
C584 C582 1.327 . S
C584 C603 1.429 . S
C584 H608 0.950 . S
C585 C602 1.574 . S
C585 C604 1.368 . S
C585 H609 0.949 . S
H586 C590 0.949 . S
C587 C588 1.349 . S
C587 C589 1.327 . S
C587 H610 0.950 . S
C588 C587 1.349 . S
C588 C600 1.349 . S
C589 C587 1.327 . S
C589 C605 1.429 . S
C589 H611 0.950 . S
C590 H586 0.949 . S
C590 C598 1.574 . S
C590 C606 1.368 . S
H591 C599 0.950 . S
H592 C597 0.950 . S
H593 C598 0.949 . S
H594 C600 0.950 . S
H595 C601 0.950 . S
H596 C602 0.949 . S
C597 H592 0.950 . S
C597 C599 1.327 . S
C597 C603 1.429 . S
C598 C590 1.574 . S
C598 H593 0.949 . S
C598 C604 1.368 . S
C599 C583 1.349 . S
C599 H591 0.950 . S
C599 C597 1.327 . S
C600 C588 1.349 . S
C600 H594 0.950 . S
C600 C601 1.327 . S
C601 H595 0.950 . S
C601 C600 1.327 . S
C601 C605 1.429 . S
C602 C585 1.574 . S
C602 H596 0.949 . S
C602 C606 1.368 . S
C603 C584 1.429 . S
C603 C597 1.429 . S
C603 C604 1.523 . S
C604 C585 1.368 . S
C604 C598 1.368 . S
C604 C603 1.523 . S
C605 C589 1.429 . S
C605 C601 1.429 . S
C605 C606 1.523 . S
C606 C590 1.368 . S
C606 C602 1.368 . S
C606 C605 1.523 . S
H607 C582 0.950 . S
H608 C584 0.950 . S
H609 C585 0.949 . S
H610 C587 0.950 . S
H611 C589 0.950 . S
C612 C613 1.349 . S
C612 C614 1.327 . S
C612 H637 0.950 . S
C613 C612 1.349 . S
C613 C629 1.349 . S
C614 C612 1.327 . S
C614 C633 1.429 . S
C614 H638 0.950 . S
C615 C632 1.574 . S
C615 C634 1.368 . S
C615 H639 0.949 . S
H616 C620 0.949 . S
C617 C618 1.349 . S
C617 C619 1.327 . S
C617 H640 0.950 . S
C618 C617 1.349 . S
C618 C630 1.349 . S
C619 C617 1.327 . S
C619 C635 1.429 . S
C619 H641 0.950 . S
C620 H616 0.949 . S
C620 C628 1.574 . S
C620 C636 1.368 . S
H621 C629 0.950 . S
H622 C627 0.950 . S
H623 C628 0.949 . S
H624 C630 0.950 . S
H625 C631 0.950 . S
H626 C632 0.949 . S
C627 H622 0.950 . S
C627 C629 1.327 . S
C627 C633 1.429 . S
C628 C620 1.574 . S
C628 H623 0.949 . S
C628 C634 1.368 . S
C629 C613 1.349 . S
C629 H621 0.950 . S
C629 C627 1.327 . S
C630 C618 1.349 . S
C630 H624 0.950 . S
C630 C631 1.327 . S
C631 H625 0.950 . S
C631 C630 1.327 . S
C631 C635 1.429 . S
C632 C615 1.574 . S
C632 H626 0.949 . S
C632 C636 1.368 . S
C633 C614 1.429 . S
C633 C627 1.429 . S
C633 C634 1.523 . S
C634 C615 1.368 . S
C634 C628 1.368 . S
C634 C633 1.523 . S
C635 C619 1.429 . S
C635 C631 1.429 . S
C635 C636 1.523 . S
C636 C620 1.368 . S
C636 C632 1.368 . S
C636 C635 1.523 . S
H637 C612 0.950 . S
H638 C614 0.950 . S
H639 C615 0.949 . S
H640 C617 0.950 . S
H641 C619 0.950 . S
C642 C643 1.349 . S
C642 C644 1.327 . S
C642 H667 0.950 . S
C643 C642 1.349 . S
C643 C659 1.349 . S
C644 C642 1.327 . S
C644 C663 1.429 . S
C644 H668 0.950 . S
C645 C662 1.574 . S
C645 C664 1.368 . S
C645 H669 0.949 . S
H646 C650 0.949 . S
C647 C648 1.349 . S
C647 C649 1.327 . S
C647 H670 0.950 . S
C648 C647 1.349 . S
C648 C660 1.349 . S
C649 C647 1.327 . S
C649 C665 1.429 . S
C649 H671 0.950 . S
C650 H646 0.949 . S
C650 C658 1.574 . S
C650 C666 1.368 . S
H651 C659 0.950 . S
H652 C657 0.950 . S
H653 C658 0.949 . S
H654 C660 0.950 . S
H655 C661 0.950 . S
H656 C662 0.949 . S
C657 H652 0.950 . S
C657 C659 1.327 . S
C657 C663 1.429 . S
C658 C650 1.574 . S
C658 H653 0.949 . S
C658 C664 1.368 . S
C659 C643 1.349 . S
C659 H651 0.950 . S
C659 C657 1.327 . S
C660 C648 1.349 . S
C660 H654 0.950 . S
C660 C661 1.327 . S
C661 H655 0.950 . S
C661 C660 1.327 . S
C661 C665 1.429 . S
C662 C645 1.574 . S
C662 H656 0.949 . S
C662 C666 1.368 . S
C663 C644 1.429 . S
C663 C657 1.429 . S
C663 C664 1.523 . S
C664 C645 1.368 . S
C664 C658 1.368 . S
C664 C663 1.523 . S
C665 C649 1.429 . S
C665 C661 1.429 . S
C665 C666 1.523 . S
C666 C650 1.368 . S
C666 C662 1.368 . S
C666 C665 1.523 . S
H667 C642 0.950 . S
H668 C644 0.950 . S
H669 C645 0.949 . S
H670 C647 0.950 . S
H671 C649 0.950 . S
C672 C673 1.349 . S
C672 C674 1.327 . S
C672 H697 0.950 . S
C673 C672 1.349 . S
C673 C689 1.349 . S
C674 C672 1.327 . S
C674 C693 1.429 . S
C674 H698 0.950 . S
C675 C692 1.574 . S
C675 C694 1.368 . S
C675 H699 0.949 . S
H676 C680 0.949 . S
C677 C678 1.349 . S
C677 C679 1.327 . S
C677 H700 0.950 . S
C678 C677 1.349 . S
C678 C690 1.349 . S
C679 C677 1.327 . S
C679 C695 1.429 . S
C679 H701 0.950 . S
C680 H676 0.949 . S
C680 C688 1.574 . S
C680 C696 1.368 . S
H681 C689 0.950 . S
H682 C687 0.950 . S
H683 C688 0.949 . S
H684 C690 0.950 . S
H685 C691 0.950 . S
H686 C692 0.949 . S
C687 H682 0.950 . S
C687 C689 1.327 . S
C687 C693 1.429 . S
C688 C680 1.574 . S
C688 H683 0.949 . S
C688 C694 1.368 . S
C689 C673 1.349 . S
C689 H681 0.950 . S
C689 C687 1.327 . S
C690 C678 1.349 . S
C690 H684 0.950 . S
C690 C691 1.327 . S
C691 H685 0.950 . S
C691 C690 1.327 . S
C691 C695 1.429 . S
C692 C675 1.574 . S
C692 H686 0.949 . S
C692 C696 1.368 . S
C693 C674 1.429 . S
C693 C687 1.429 . S
C693 C694 1.523 . S
C694 C675 1.368 . S
C694 C688 1.368 . S
C694 C693 1.523 . S
C695 C679 1.429 . S
C695 C691 1.429 . S
C695 C696 1.523 . S
C696 C680 1.368 . S
C696 C692 1.368 . S
C696 C695 1.523 . S
H697 C672 0.950 . S
H698 C674 0.950 . S
H699 C675 0.949 . S
H700 C677 0.950 . S
H701 C679 0.950 . S
C702 C703 1.349 . S
C702 C704 1.327 . S
C702 H727 0.950 . S
C703 C702 1.349 . S
C703 C719 1.349 . S
C704 C702 1.327 . S
C704 C723 1.429 . S
C704 H728 0.950 . S
C705 C722 1.574 . S
C705 C724 1.368 . S
C705 H729 0.949 . S
H706 C710 0.949 . S
C707 C708 1.349 . S
C707 C709 1.327 . S
C707 H730 0.950 . S
C708 C707 1.349 . S
C708 C720 1.349 . S
C709 C707 1.327 . S
C709 C725 1.429 . S
C709 H731 0.950 . S
C710 H706 0.949 . S
C710 C718 1.574 . S
C710 C726 1.368 . S
H711 C719 0.950 . S
H712 C717 0.950 . S
H713 C718 0.949 . S
H714 C720 0.950 . S
H715 C721 0.950 . S
H716 C722 0.949 . S
C717 H712 0.950 . S
C717 C719 1.327 . S
C717 C723 1.429 . S
C718 C710 1.574 . S
C718 H713 0.949 . S
C718 C724 1.368 . S
C719 C703 1.349 . S
C719 H711 0.950 . S
C719 C717 1.327 . S
C720 C708 1.349 . S
C720 H714 0.950 . S
C720 C721 1.327 . S
C721 H715 0.950 . S
C721 C720 1.327 . S
C721 C725 1.429 . S
C722 C705 1.574 . S
C722 H716 0.949 . S
C722 C726 1.368 . S
C723 C704 1.429 . S
C723 C717 1.429 . S
C723 C724 1.523 . S
C724 C705 1.368 . S
C724 C718 1.368 . S
C724 C723 1.523 . S
C725 C709 1.429 . S
C725 C721 1.429 . S
C725 C726 1.523 . S
C726 C710 1.368 . S
C726 C722 1.368 . S
C726 C725 1.523 . S
H727 C702 0.950 . S
H728 C704 0.950 . S
H729 C705 0.949 . S
H730 C707 0.950 . S
H731 C709 0.950 . S
C732 C733 1.349 . S
C732 C734 1.327 . S
C732 H757 0.950 . S
C733 C732 1.349 . S
C733 C749 1.349 . S
C734 C732 1.327 . S
C734 C753 1.429 . S
C734 H758 0.950 . S
C735 C752 1.574 . S
C735 C754 1.368 . S
C735 H759 0.949 . S
H736 C740 0.949 . S
C737 C738 1.349 . S
C737 C739 1.327 . S
C737 H760 0.950 . S
C738 C737 1.349 . S
C738 C750 1.349 . S
C739 C737 1.327 . S
C739 C755 1.429 . S
C739 H761 0.950 . S
C740 H736 0.949 . S
C740 C748 1.574 . S
C740 C756 1.368 . S
H741 C749 0.950 . S
H742 C747 0.950 . S
H743 C748 0.949 . S
H744 C750 0.950 . S
H745 C751 0.950 . S
H746 C752 0.949 . S
C747 H742 0.950 . S
C747 C749 1.327 . S
C747 C753 1.429 . S
C748 C740 1.574 . S
C748 H743 0.949 . S
C748 C754 1.368 . S
C749 C733 1.349 . S
C749 H741 0.950 . S
C749 C747 1.327 . S
C750 C738 1.349 . S
C750 H744 0.950 . S
C750 C751 1.327 . S
C751 H745 0.950 . S
C751 C750 1.327 . S
C751 C755 1.429 . S
C752 C735 1.574 . S
C752 H746 0.949 . S
C752 C756 1.368 . S
C753 C734 1.429 . S
C753 C747 1.429 . S
C753 C754 1.523 . S
C754 C735 1.368 . S
C754 C748 1.368 . S
C754 C753 1.523 . S
C755 C739 1.429 . S
C755 C751 1.429 . S
C755 C756 1.523 . S
C756 C740 1.368 . S
C756 C752 1.368 . S
C756 C755 1.523 . S
H757 C732 0.950 . S
H758 C734 0.950 . S
H759 C735 0.949 . S
H760 C737 0.950 . S
H761 C739 0.950 . S
C762 C763 1.349 . S
C762 C764 1.327 . S
C762 H787 0.950 . S
C763 C762 1.349 . S
C763 C779 1.349 . S
C764 C762 1.327 . S
C764 C783 1.429 . S
C764 H788 0.950 . S
C765 C782 1.574 . S
C765 C784 1.368 . S
C765 H789 0.949 . S
H766 C770 0.949 . S
C767 C768 1.349 . S
C767 C769 1.327 . S
C767 H790 0.950 . S
C768 C767 1.349 . S
C768 C780 1.349 . S
C769 C767 1.327 . S
C769 C785 1.429 . S
C769 H791 0.950 . S
C770 H766 0.949 . S
C770 C778 1.574 . S
C770 C786 1.368 . S
H771 C779 0.950 . S
H772 C777 0.950 . S
H773 C778 0.949 . S
H774 C780 0.950 . S
H775 C781 0.950 . S
H776 C782 0.949 . S
C777 H772 0.950 . S
C777 C779 1.327 . S
C777 C783 1.429 . S
C778 C770 1.574 . S
C778 H773 0.949 . S
C778 C784 1.368 . S
C779 C763 1.349 . S
C779 H771 0.950 . S
C779 C777 1.327 . S
C780 C768 1.349 . S
C780 H774 0.950 . S
C780 C781 1.327 . S
C781 H775 0.950 . S
C781 C780 1.327 . S
C781 C785 1.429 . S
C782 C765 1.574 . S
C782 H776 0.949 . S
C782 C786 1.368 . S
C783 C764 1.429 . S
C783 C777 1.429 . S
C783 C784 1.523 . S
C784 C765 1.368 . S
C784 C778 1.368 . S
C784 C783 1.523 . S
C785 C769 1.429 . S
C785 C781 1.429 . S
C785 C786 1.523 . S
C786 C770 1.368 . S
C786 C782 1.368 . S
C786 C785 1.523 . S
H787 C762 0.950 . S
H788 C764 0.950 . S
H789 C765 0.949 . S
H790 C767 0.950 . S
H791 C769 0.950 . S
C792 C793 1.349 . S
C792 C794 1.327 . S
C792 H817 0.950 . S
C793 C792 1.349 . S
C793 C809 1.349 . S
C794 C792 1.327 . S
C794 C813 1.429 . S
C794 H818 0.950 . S
C795 C812 1.574 . S
C795 C814 1.368 . S
C795 H819 0.949 . S
H796 C800 0.949 . S
C797 C798 1.349 . S
C797 C799 1.327 . S
C797 H820 0.950 . S
C798 C797 1.349 . S
C798 C810 1.349 . S
C799 C797 1.327 . S
C799 C815 1.429 . S
C799 H821 0.950 . S
C800 H796 0.949 . S
C800 C808 1.574 . S
C800 C816 1.368 . S
H801 C809 0.950 . S
H802 C807 0.950 . S
H803 C808 0.949 . S
H804 C810 0.950 . S
H805 C811 0.950 . S
H806 C812 0.949 . S
C807 H802 0.950 . S
C807 C809 1.327 . S
C807 C813 1.429 . S
C808 C800 1.574 . S
C808 H803 0.949 . S
C808 C814 1.368 . S
C809 C793 1.349 . S
C809 H801 0.950 . S
C809 C807 1.327 . S
C810 C798 1.349 . S
C810 H804 0.950 . S
C810 C811 1.327 . S
C811 H805 0.950 . S
C811 C810 1.327 . S
C811 C815 1.429 . S
C812 C795 1.574 . S
C812 H806 0.949 . S
C812 C816 1.368 . S
C813 C794 1.429 . S
C813 C807 1.429 . S
C813 C814 1.523 . S
C814 C795 1.368 . S
C814 C808 1.368 . S
C814 C813 1.523 . S
C815 C799 1.429 . S
C815 C811 1.429 . S
C815 C816 1.523 . S
C816 C800 1.368 . S
C816 C812 1.368 . S
C816 C815 1.523 . S
H817 C792 0.950 . S
H818 C794 0.950 . S
H819 C795 0.949 . S
H820 C797 0.950 . S
H821 C799 0.950 . S
C822 C823 1.349 . S
C822 C824 1.327 . S
C822 H847 0.950 . S
C823 C822 1.349 . S
C823 C839 1.349 . S
C824 C822 1.327 . S
C824 C843 1.429 . S
C824 H848 0.950 . S
C825 C842 1.574 . S
C825 C844 1.368 . S
C825 H849 0.949 . S
H826 C830 0.949 . S
C827 C828 1.349 . S
C827 C829 1.327 . S
C827 H850 0.950 . S
C828 C827 1.349 . S
C828 C840 1.349 . S
C829 C827 1.327 . S
C829 C845 1.429 . S
C829 H851 0.950 . S
C830 H826 0.949 . S
C830 C838 1.574 . S
C830 C846 1.368 . S
H831 C839 0.950 . S
H832 C837 0.950 . S
H833 C838 0.949 . S
H834 C840 0.950 . S
H835 C841 0.950 . S
H836 C842 0.949 . S
C837 H832 0.950 . S
C837 C839 1.327 . S
C837 C843 1.429 . S
C838 C830 1.574 . S
C838 H833 0.949 . S
C838 C844 1.368 . S
C839 C823 1.349 . S
C839 H831 0.950 . S
C839 C837 1.327 . S
C840 C828 1.349 . S
C840 H834 0.950 . S
C840 C841 1.327 . S
C841 H835 0.950 . S
C841 C840 1.327 . S
C841 C845 1.429 . S
C842 C825 1.574 . S
C842 H836 0.949 . S
C842 C846 1.368 . S
C843 C824 1.429 . S
C843 C837 1.429 . S
C843 C844 1.523 . S
C844 C825 1.368 . S
C844 C838 1.368 . S
C844 C843 1.523 . S
C845 C829 1.429 . S
C845 C841 1.429 . S
C845 C846 1.523 . S
C846 C830 1.368 . S
C846 C842 1.368 . S
C846 C845 1.523 . S
H847 C822 0.950 . S
H848 C824 0.950 . S
H849 C825 0.949 . S
H850 C827 0.950 . S
H851 C829 0.950 . S
C852 C853 1.349 . S
C852 C854 1.327 . S
C852 H877 0.950 . S
C853 C852 1.349 . S
C853 C869 1.349 . S
C854 C852 1.327 . S
C854 C873 1.429 . S
C854 H878 0.950 . S
C855 C872 1.574 . S
C855 C874 1.368 . S
C855 H879 0.949 . S
H856 C860 0.949 . S
C857 C858 1.349 . S
C857 C859 1.327 . S
C857 H880 0.950 . S
C858 C857 1.349 . S
C858 C870 1.349 . S
C859 C857 1.327 . S
C859 C875 1.429 . S
C859 H881 0.950 . S
C860 H856 0.949 . S
C860 C868 1.574 . S
C860 C876 1.368 . S
H861 C869 0.950 . S
H862 C867 0.950 . S
H863 C868 0.949 . S
H864 C870 0.950 . S
H865 C871 0.950 . S
H866 C872 0.949 . S
C867 H862 0.950 . S
C867 C869 1.327 . S
C867 C873 1.429 . S
C868 C860 1.574 . S
C868 H863 0.949 . S
C868 C874 1.368 . S
C869 C853 1.349 . S
C869 H861 0.950 . S
C869 C867 1.327 . S
C870 C858 1.349 . S
C870 H864 0.950 . S
C870 C871 1.327 . S
C871 H865 0.950 . S
C871 C870 1.327 . S
C871 C875 1.429 . S
C872 C855 1.574 . S
C872 H866 0.949 . S
C872 C876 1.368 . S
C873 C854 1.429 . S
C873 C867 1.429 . S
C873 C874 1.523 . S
C874 C855 1.368 . S
C874 C868 1.368 . S
C874 C873 1.523 . S
C875 C859 1.429 . S
C875 C871 1.429 . S
C875 C876 1.523 . S
C876 C860 1.368 . S
C876 C872 1.368 . S
C876 C875 1.523 . S
H877 C852 0.950 . S
H878 C854 0.950 . S
H879 C855 0.949 . S
H880 C857 0.950 . S
H881 C859 0.950 . S
C882 C883 1.349 . S
C882 C884 1.327 . S
C882 H907 0.950 . S
C883 C882 1.349 . S
C883 C899 1.349 . S
C884 C882 1.327 . S
C884 C903 1.429 . S
C884 H908 0.950 . S
C885 C902 1.574 . S
C885 C904 1.368 . S
C885 H909 0.949 . S
H886 C890 0.949 . S
C887 C888 1.349 . S
C887 C889 1.327 . S
C887 H910 0.950 . S
C888 C887 1.349 . S
C888 C900 1.349 . S
C889 C887 1.327 . S
C889 C905 1.429 . S
C889 H911 0.950 . S
C890 H886 0.949 . S
C890 C898 1.574 . S
C890 C906 1.368 . S
H891 C899 0.950 . S
H892 C897 0.950 . S
H893 C898 0.949 . S
H894 C900 0.950 . S
H895 C901 0.950 . S
H896 C902 0.949 . S
C897 H892 0.950 . S
C897 C899 1.327 . S
C897 C903 1.429 . S
C898 C890 1.574 . S
C898 H893 0.949 . S
C898 C904 1.368 . S
C899 C883 1.349 . S
C899 H891 0.950 . S
C899 C897 1.327 . S
C900 C888 1.349 . S
C900 H894 0.950 . S
C900 C901 1.327 . S
C901 H895 0.950 . S
C901 C900 1.327 . S
C901 C905 1.429 . S
C902 C885 1.574 . S
C902 H896 0.949 . S
C902 C906 1.368 . S
C903 C884 1.429 . S
C903 C897 1.429 . S
C903 C904 1.523 . S
C904 C885 1.368 . S
C904 C898 1.368 . S
C904 C903 1.523 . S
C905 C889 1.429 . S
C905 C901 1.429 . S
C905 C906 1.523 . S
C906 C890 1.368 . S
C906 C902 1.368 . S
C906 C905 1.523 . S
H907 C882 0.950 . S
H908 C884 0.950 . S
H909 C885 0.949 . S
H910 C887 0.950 . S
H911 C889 0.950 . S
C912 C913 1.349 . S
C912 C914 1.327 . S
C912 H937 0.950 . S
C913 C912 1.349 . S
C913 C929 1.349 . S
C914 C912 1.327 . S
C914 C933 1.429 . S
C914 H938 0.950 . S
C915 C932 1.574 . S
C915 C934 1.368 . S
C915 H939 0.949 . S
H916 C920 0.949 . S
C917 C918 1.349 . S
C917 C919 1.327 . S
C917 H940 0.950 . S
C918 C917 1.349 . S
C918 C930 1.349 . S
C919 C917 1.327 . S
C919 C935 1.429 . S
C919 H941 0.950 . S
C920 H916 0.949 . S
C920 C928 1.574 . S
C920 C936 1.368 . S
H921 C929 0.950 . S
H922 C927 0.950 . S
H923 C928 0.949 . S
H924 C930 0.950 . S
H925 C931 0.950 . S
H926 C932 0.949 . S
C927 H922 0.950 . S
C927 C929 1.327 . S
C927 C933 1.429 . S
C928 C920 1.574 . S
C928 H923 0.949 . S
C928 C934 1.368 . S
C929 C913 1.349 . S
C929 H921 0.950 . S
C929 C927 1.327 . S
C930 C918 1.349 . S
C930 H924 0.950 . S
C930 C931 1.327 . S
C931 H925 0.950 . S
C931 C930 1.327 . S
C931 C935 1.429 . S
C932 C915 1.574 . S
C932 H926 0.949 . S
C932 C936 1.368 . S
C933 C914 1.429 . S
C933 C927 1.429 . S
C933 C934 1.523 . S
C934 C915 1.368 . S
C934 C928 1.368 . S
C934 C933 1.523 . S
C935 C919 1.429 . S
C935 C931 1.429 . S
C935 C936 1.523 . S
C936 C920 1.368 . S
C936 C932 1.368 . S
C936 C935 1.523 . S
H937 C912 0.950 . S
H938 C914 0.950 . S
H939 C915 0.949 . S
H940 C917 0.950 . S
H941 C919 0.950 . S
C942 C943 1.349 . S
C942 C944 1.327 . S
C942 H967 0.950 . S
C943 C942 1.349 . S
C943 C959 1.349 . S
C944 C942 1.327 . S
C944 C963 1.429 . S
C944 H968 0.950 . S
C945 C962 1.574 . S
C945 C964 1.368 . S
C945 H969 0.949 . S
H946 C950 0.949 . S
C947 C948 1.349 . S
C947 C949 1.327 . S
C947 H970 0.950 . S
C948 C947 1.349 . S
C948 C960 1.349 . S
C949 C947 1.327 . S
C949 C965 1.429 . S
C949 H971 0.950 . S
C950 H946 0.949 . S
C950 C958 1.574 . S
C950 C966 1.368 . S
H951 C959 0.950 . S
H952 C957 0.950 . S
H953 C958 0.949 . S
H954 C960 0.950 . S
H955 C961 0.950 . S
H956 C962 0.949 . S
C957 H952 0.950 . S
C957 C959 1.327 . S
C957 C963 1.429 . S
C958 C950 1.574 . S
C958 H953 0.949 . S
C958 C964 1.368 . S
C959 C943 1.349 . S
C959 H951 0.950 . S
C959 C957 1.327 . S
C960 C948 1.349 . S
C960 H954 0.950 . S
C960 C961 1.327 . S
C961 H955 0.950 . S
C961 C960 1.327 . S
C961 C965 1.429 . S
C962 C945 1.574 . S
C962 H956 0.949 . S
C962 C966 1.368 . S
C963 C944 1.429 . S
C963 C957 1.429 . S
C963 C964 1.523 . S
C964 C945 1.368 . S
C964 C958 1.368 . S
C964 C963 1.523 . S
C965 C949 1.429 . S
C965 C961 1.429 . S
C965 C966 1.523 . S
C966 C950 1.368 . S
C966 C962 1.368 . S
C966 C965 1.523 . S
H967 C942 0.950 . S
H968 C944 0.950 . S
H969 C945 0.949 . S
H970 C947 0.950 . S
H971 C949 0.950 . S
C972 C973 1.349 . S
C972 C974 1.327 . S
C972 H997 0.950 . S
C973 C972 1.349 . S
C973 C989 1.349 . S
C974 C972 1.327 . S
C974 C993 1.429 . S
C974 H998 0.950 . S
C975 C992 1.574 . S
C975 C994 1.368 . S
C975 H999 0.949 . S
H976 C980 0.949 . S
C977 C978 1.349 . S
C977 C979 1.327 . S
C977 H1000 0.950 . S
C978 C977 1.349 . S
C978 C990 1.349 . S
C979 C977 1.327 . S
C979 C995 1.429 . S
C979 H1001 0.950 . S
C980 H976 0.949 . S
C980 C988 1.574 . S
C980 C996 1.368 . S
H981 C989 0.950 . S
H982 C987 0.950 . S
H983 C988 0.949 . S
H984 C990 0.950 . S
H985 C991 0.950 . S
H986 C992 0.949 . S
C987 H982 0.950 . S
C987 C989 1.327 . S
C987 C993 1.429 . S
C988 C980 1.574 . S
C988 H983 0.949 . S
C988 C994 1.368 . S
C989 C973 1.349 . S
C989 H981 0.950 . S
C989 C987 1.327 . S
C990 C978 1.349 . S
C990 H984 0.950 . S
C990 C991 1.327 . S
C991 H985 0.950 . S
C991 C990 1.327 . S
C991 C995 1.429 . S
C992 C975 1.574 . S
C992 H986 0.949 . S
C992 C996 1.368 . S
C993 C974 1.429 . S
C993 C987 1.429 . S
C993 C994 1.523 . S
C994 C975 1.368 . S
C994 C988 1.368 . S
C994 C993 1.523 . S
C995 C979 1.429 . S
C995 C991 1.429 . S
C995 C996 1.523 . S
C996 C980 1.368 . S
C996 C992 1.368 . S
C996 C995 1.523 . S
H997 C972 0.950 . S
H998 C974 0.950 . S
H999 C975 0.949 . S
H1000 C977 0.950 . S
H1001 C979 0.950 . S
C1002 C1003 1.349 . S
C1002 C1004 1.327 . S
C1002 H1027 0.950 . S
C1003 C1002 1.349 . S
C1003 C1019 1.349 . S
C1004 C1002 1.327 . S
C1004 C1023 1.429 . S
C1004 H1028 0.950 . S
C1005 C1022 1.574 . S
C1005 C1024 1.368 . S
C1005 H1029 0.949 . S
H1006 C1010 0.949 . S
C1007 C1008 1.349 . S
C1007 C1009 1.327 . S
C1007 H1030 0.950 . S
C1008 C1007 1.349 . S
C1008 C1020 1.349 . S
C1009 C1007 1.327 . S
C1009 C1025 1.429 . S
C1009 H1031 0.950 . S
C1010 H1006 0.949 . S
C1010 C1018 1.574 . S
C1010 C1026 1.368 . S
H1011 C1019 0.950 . S
H1012 C1017 0.950 . S
H1013 C1018 0.949 . S
H1014 C1020 0.950 . S
H1015 C1021 0.950 . S
H1016 C1022 0.949 . S
C1017 H1012 0.950 . S
C1017 C1019 1.327 . S
C1017 C1023 1.429 . S
C1018 C1010 1.574 . S
C1018 H1013 0.949 . S
C1018 C1024 1.368 . S
C1019 C1003 1.349 . S
C1019 H1011 0.950 . S
C1019 C1017 1.327 . S
C1020 C1008 1.349 . S
C1020 H1014 0.950 . S
C1020 C1021 1.327 . S
C1021 H1015 0.950 . S
C1021 C1020 1.327 . S
C1021 C1025 1.429 . S
C1022 C1005 1.574 . S
C1022 H1016 0.949 . S
C1022 C1026 1.368 . S
C1023 C1004 1.429 . S
C1023 C1017 1.429 . S
C1023 C1024 1.523 . S
C1024 C1005 1.368 . S
C1024 C1018 1.368 . S
C1024 C1023 1.523 . S
C1025 C1009 1.429 . S
C1025 C1021 1.429 . S
C1025 C1026 1.523 . S
C1026 C1010 1.368 . S
C1026 C1022 1.368 . S
C1026 C1025 1.523 . S
H1027 C1002 0.950 . S
H1028 C1004 0.950 . S
H1029 C1005 0.949 . S
H1030 C1007 0.950 . S
H1031 C1009 0.950 . S
C1032 C1033 1.349 . S
C1032 C1034 1.327 . S
C1032 H1057 0.950 . S
C1033 C1032 1.349 . S
C1033 C1049 1.349 . S
C1034 C1032 1.327 . S
C1034 C1053 1.429 . S
C1034 H1058 0.950 . S
C1035 C1052 1.574 . S
C1035 C1054 1.368 . S
C1035 H1059 0.949 . S
H1036 C1040 0.949 . S
C1037 C1038 1.349 . S
C1037 C1039 1.327 . S
C1037 H1060 0.950 . S
C1038 C1037 1.349 . S
C1038 C1050 1.349 . S
C1039 C1037 1.327 . S
C1039 C1055 1.429 . S
C1039 H1061 0.950 . S
C1040 H1036 0.949 . S
C1040 C1048 1.574 . S
C1040 C1056 1.368 . S
H1041 C1049 0.950 1_545 S
H1042 C1047 0.950 . S
H1043 C1048 0.949 . S
H1044 C1050 0.950 . S
H1045 C1051 0.950 . S
H1046 C1052 0.949 . S
C1047 H1042 0.950 . S
C1047 C1049 1.327 . S
C1047 C1053 1.429 . S
C1048 C1040 1.574 . S
C1048 H1043 0.949 . S
C1048 C1054 1.368 . S
C1049 C1033 1.349 . S
C1049 H1041 0.950 1_565 S
C1049 C1047 1.327 . S
C1050 C1038 1.349 . S
C1050 H1044 0.950 . S
C1050 C1051 1.327 . S
C1051 H1045 0.950 . S
C1051 C1050 1.327 . S
C1051 C1055 1.429 . S
C1052 C1035 1.574 . S
C1052 H1046 0.949 . S
C1052 C1056 1.368 . S
C1053 C1034 1.429 . S
C1053 C1047 1.429 . S
C1053 C1054 1.523 . S
C1054 C1035 1.368 . S
C1054 C1048 1.368 . S
C1054 C1053 1.523 . S
C1055 C1039 1.429 . S
C1055 C1051 1.429 . S
C1055 C1056 1.523 . S
C1056 C1040 1.368 . S
C1056 C1052 1.368 . S
C1056 C1055 1.523 . S
H1057 C1032 0.950 . S
H1058 C1034 0.950 . S
H1059 C1035 0.949 . S
H1060 C1037 0.950 . S
H1061 C1039 0.950 . S
C1062 C1063 1.349 . S
C1062 C1064 1.327 . S
C1062 H1087 0.950 . S
C1063 C1062 1.349 . S
C1063 C1079 1.349 . S
C1064 C1062 1.327 . S
C1064 C1083 1.429 . S
C1064 H1088 0.950 . S
C1065 C1082 1.574 . S
C1065 C1084 1.368 . S
C1065 H1089 0.949 . S
H1066 C1070 0.949 . S
C1067 C1068 1.349 . S
C1067 C1069 1.327 . S
C1067 H1090 0.950 . S
C1068 C1067 1.349 . S
C1068 C1080 1.349 . S
C1069 C1067 1.327 . S
C1069 C1085 1.429 . S
C1069 H1091 0.950 . S
C1070 H1066 0.949 . S
C1070 C1078 1.574 . S
C1070 C1086 1.368 . S
H1071 C1079 0.950 . S
H1072 C1077 0.950 . S
H1073 C1078 0.949 . S
H1074 C1080 0.950 . S
H1075 C1081 0.950 . S
H1076 C1082 0.949 . S
C1077 H1072 0.950 . S
C1077 C1079 1.327 . S
C1077 C1083 1.429 . S
C1078 C1070 1.574 . S
C1078 H1073 0.949 . S
C1078 C1084 1.368 . S
C1079 C1063 1.349 . S
C1079 H1071 0.950 . S
C1079 C1077 1.327 . S
C1080 C1068 1.349 . S
C1080 H1074 0.950 . S
C1080 C1081 1.327 . S
C1081 H1075 0.950 . S
C1081 C1080 1.327 . S
C1081 C1085 1.429 . S
C1082 C1065 1.574 . S
C1082 H1076 0.949 . S
C1082 C1086 1.368 . S
C1083 C1064 1.429 . S
C1083 C1077 1.429 . S
C1083 C1084 1.523 . S
C1084 C1065 1.368 . S
C1084 C1078 1.368 . S
C1084 C1083 1.523 . S
C1085 C1069 1.429 . S
C1085 C1081 1.429 . S
C1085 C1086 1.523 . S
C1086 C1070 1.368 . S
C1086 C1082 1.368 . S
C1086 C1085 1.523 . S
H1087 C1062 0.950 . S
H1088 C1064 0.950 . S
H1089 C1065 0.949 . S
H1090 C1067 0.950 . S
H1091 C1069 0.950 . S
C1092 C1093 1.349 . S
C1092 C1094 1.327 . S
C1092 H1117 0.950 1_545 S
C1093 C1092 1.349 . S
C1093 C1109 1.349 . S
C1094 C1092 1.327 . S
C1094 C1113 1.429 . S
C1094 H1118 0.950 . S
C1095 C1112 1.574 . S
C1095 C1114 1.368 . S
C1095 H1119 0.949 . S
H1096 C1100 0.949 . S
C1097 C1098 1.349 . S
C1097 C1099 1.327 . S
C1097 H1120 0.950 . S
C1098 C1097 1.349 . S
C1098 C1110 1.349 . S
C1099 C1097 1.327 . S
C1099 C1115 1.429 . S
C1099 H1121 0.950 . S
C1100 H1096 0.949 . S
C1100 C1108 1.574 . S
C1100 C1116 1.368 . S
H1101 C1109 0.950 . S
H1102 C1107 0.950 . S
H1103 C1108 0.949 . S
H1104 C1110 0.950 . S
H1105 C1111 0.950 . S
H1106 C1112 0.949 . S
C1107 H1102 0.950 . S
C1107 C1109 1.327 . S
C1107 C1113 1.429 . S
C1108 C1100 1.574 . S
C1108 H1103 0.949 . S
C1108 C1114 1.368 . S
C1109 C1093 1.349 . S
C1109 H1101 0.950 . S
C1109 C1107 1.327 . S
C1110 C1098 1.349 . S
C1110 H1104 0.950 . S
C1110 C1111 1.327 . S
C1111 H1105 0.950 . S
C1111 C1110 1.327 . S
C1111 C1115 1.429 . S
C1112 C1095 1.574 . S
C1112 H1106 0.949 . S
C1112 C1116 1.368 . S
C1113 C1094 1.429 . S
C1113 C1107 1.429 . S
C1113 C1114 1.523 . S
C1114 C1095 1.368 . S
C1114 C1108 1.368 . S
C1114 C1113 1.523 . S
C1115 C1099 1.429 . S
C1115 C1111 1.429 . S
C1115 C1116 1.523 . S
C1116 C1100 1.368 . S
C1116 C1112 1.368 . S
C1116 C1115 1.523 . S
H1117 C1092 0.950 1_565 S
H1118 C1094 0.950 . S
H1119 C1095 0.949 . S
H1120 C1097 0.950 . S
H1121 C1099 0.950 . S
C1122 C1123 1.349 . S
C1122 C1124 1.327 . S
C1122 H1147 0.950 . S
C1123 C1122 1.349 . S
C1123 C1139 1.349 . S
C1124 C1122 1.327 . S
C1124 C1143 1.429 . S
C1124 H1148 0.950 . S
C1125 C1142 1.574 . S
C1125 C1144 1.368 . S
C1125 H1149 0.949 . S
H1126 C1130 0.949 . S
C1127 C1128 1.349 . S
C1127 C1129 1.327 . S
C1127 H1150 0.950 . S
C1128 C1127 1.349 . S
C1128 C1140 1.349 . S
C1129 C1127 1.327 . S
C1129 C1145 1.429 . S
C1129 H1151 0.950 . S
C1130 H1126 0.949 . S
C1130 C1138 1.574 . S
C1130 C1146 1.368 . S
H1131 C1139 0.950 . S
H1132 C1137 0.950 . S
H1133 C1138 0.949 . S
H1134 C1140 0.950 1_554 S
H1135 C1141 0.950 . S
H1136 C1142 0.949 . S
C1137 H1132 0.950 . S
C1137 C1139 1.327 . S
C1137 C1143 1.429 . S
C1138 C1130 1.574 . S
C1138 H1133 0.949 . S
C1138 C1144 1.368 . S
C1139 C1123 1.349 . S
C1139 H1131 0.950 . S
C1139 C1137 1.327 . S
C1140 C1128 1.349 . S
C1140 H1134 0.950 1_556 S
C1140 C1141 1.327 . S
C1141 H1135 0.950 . S
C1141 C1140 1.327 . S
C1141 C1145 1.429 . S
C1142 C1125 1.574 . S
C1142 H1136 0.949 . S
C1142 C1146 1.368 . S
C1143 C1124 1.429 . S
C1143 C1137 1.429 . S
C1143 C1144 1.523 . S
C1144 C1125 1.368 . S
C1144 C1138 1.368 . S
C1144 C1143 1.523 . S
C1145 C1129 1.429 . S
C1145 C1141 1.429 . S
C1145 C1146 1.523 . S
C1146 C1130 1.368 . S
C1146 C1142 1.368 . S
C1146 C1145 1.523 . S
H1147 C1122 0.950 . S
H1148 C1124 0.950 . S
H1149 C1125 0.949 . S
H1150 C1127 0.950 . S
H1151 C1129 0.950 . S
C1152 C1153 1.349 . S
C1152 C1154 1.327 . S
C1152 H1177 0.950 . S
C1153 C1152 1.349 . S
C1153 C1169 1.349 . S
C1154 C1152 1.327 . S
C1154 C1173 1.429 . S
C1154 H1178 0.950 . S
C1155 C1172 1.574 . S
C1155 C1174 1.368 . S
C1155 H1179 0.949 . S
H1156 C1160 0.949 . S
C1157 C1158 1.349 . S
C1157 C1159 1.327 . S
C1157 H1180 0.950 . S
C1158 C1157 1.349 . S
C1158 C1170 1.349 . S
C1159 C1157 1.327 . S
C1159 C1175 1.429 . S
C1159 H1181 0.950 . S
C1160 H1156 0.949 . S
C1160 C1168 1.574 . S
C1160 C1176 1.368 . S
H1161 C1169 0.950 . S
H1162 C1167 0.950 . S
H1163 C1168 0.949 . S
H1164 C1170 0.950 . S
H1165 C1171 0.950 . S
H1166 C1172 0.949 . S
C1167 H1162 0.950 . S
C1167 C1169 1.327 . S
C1167 C1173 1.429 . S
C1168 C1160 1.574 . S
C1168 H1163 0.949 . S
C1168 C1174 1.368 . S
C1169 C1153 1.349 . S
C1169 H1161 0.950 . S
C1169 C1167 1.327 . S
C1170 C1158 1.349 . S
C1170 H1164 0.950 . S
C1170 C1171 1.327 . S
C1171 H1165 0.950 . S
C1171 C1170 1.327 . S
C1171 C1175 1.429 . S
C1172 C1155 1.574 . S
C1172 H1166 0.949 . S
C1172 C1176 1.368 . S
C1173 C1154 1.429 . S
C1173 C1167 1.429 . S
C1173 C1174 1.523 . S
C1174 C1155 1.368 . S
C1174 C1168 1.368 . S
C1174 C1173 1.523 . S
C1175 C1159 1.429 . S
C1175 C1171 1.429 . S
C1175 C1176 1.523 . S
C1176 C1160 1.368 . S
C1176 C1172 1.368 . S
C1176 C1175 1.523 . S
H1177 C1152 0.950 . S
H1178 C1154 0.950 . S
H1179 C1155 0.949 . S
H1180 C1157 0.950 . S
H1181 C1159 0.950 . S
C1182 C1183 1.349 . S
C1182 C1184 1.327 . S
C1182 H1207 0.950 . S
C1183 C1182 1.349 . S
C1183 C1199 1.349 . S
C1184 C1182 1.327 . S
C1184 C1203 1.429 . S
C1184 H1208 0.950 . S
C1185 C1202 1.574 . S
C1185 C1204 1.368 . S
C1185 H1209 0.949 . S
H1186 C1190 0.949 . S
C1187 C1188 1.349 . S
C1187 C1189 1.327 . S
C1187 H1210 0.950 . S
C1188 C1187 1.349 . S
C1188 C1200 1.349 . S
C1189 C1187 1.327 . S
C1189 C1205 1.429 . S
C1189 H1211 0.950 . S
C1190 H1186 0.949 . S
C1190 C1198 1.574 . S
C1190 C1206 1.368 . S
H1191 C1199 0.950 . S
H1192 C1197 0.950 . S
H1193 C1198 0.949 . S
H1194 C1200 0.950 . S
H1195 C1201 0.950 . S
H1196 C1202 0.949 . S
C1197 H1192 0.950 . S
C1197 C1199 1.327 . S
C1197 C1203 1.429 . S
C1198 C1190 1.574 . S
C1198 H1193 0.949 . S
C1198 C1204 1.368 . S
C1199 C1183 1.349 . S
C1199 H1191 0.950 . S
C1199 C1197 1.327 . S
C1200 C1188 1.349 . S
C1200 H1194 0.950 . S
C1200 C1201 1.327 . S
C1201 H1195 0.950 . S
C1201 C1200 1.327 . S
C1201 C1205 1.429 . S
C1202 C1185 1.574 . S
C1202 H1196 0.949 . S
C1202 C1206 1.368 . S
C1203 C1184 1.429 . S
C1203 C1197 1.429 . S
C1203 C1204 1.523 . S
C1204 C1185 1.368 . S
C1204 C1198 1.368 . S
C1204 C1203 1.523 . S
C1205 C1189 1.429 . S
C1205 C1201 1.429 . S
C1205 C1206 1.523 . S
C1206 C1190 1.368 . S
C1206 C1202 1.368 . S
C1206 C1205 1.523 . S
H1207 C1182 0.950 . S
H1208 C1184 0.950 . S
H1209 C1185 0.949 . S
H1210 C1187 0.950 . S
H1211 C1189 0.950 . S
C1212 C1213 1.349 . S
C1212 C1214 1.327 . S
C1212 H1237 0.950 . S
C1213 C1212 1.349 . S
C1213 C1229 1.349 . S
C1214 C1212 1.327 . S
C1214 C1233 1.429 . S
C1214 H1238 0.950 . S
C1215 C1232 1.574 . S
C1215 C1234 1.368 . S
C1215 H1239 0.949 . S
H1216 C1220 0.949 . S
C1217 C1218 1.349 . S
C1217 C1219 1.327 . S
C1217 H1240 0.950 . S
C1218 C1217 1.349 . S
C1218 C1230 1.349 . S
C1219 C1217 1.327 . S
C1219 C1235 1.429 . S
C1219 H1241 0.950 . S
C1220 H1216 0.949 . S
C1220 C1228 1.574 . S
C1220 C1236 1.368 . S
H1221 C1229 0.950 . S
H1222 C1227 0.950 . S
H1223 C1228 0.949 . S
H1224 C1230 0.950 . S
H1225 C1231 0.950 . S
H1226 C1232 0.949 . S
C1227 H1222 0.950 . S
C1227 C1229 1.327 . S
C1227 C1233 1.429 . S
C1228 C1220 1.574 . S
C1228 H1223 0.949 . S
C1228 C1234 1.368 . S
C1229 C1213 1.349 . S
C1229 H1221 0.950 . S
C1229 C1227 1.327 . S
C1230 C1218 1.349 . S
C1230 H1224 0.950 . S
C1230 C1231 1.327 . S
C1231 H1225 0.950 . S
C1231 C1230 1.327 . S
C1231 C1235 1.429 . S
C1232 C1215 1.574 . S
C1232 H1226 0.949 . S
C1232 C1236 1.368 . S
C1233 C1214 1.429 . S
C1233 C1227 1.429 . S
C1233 C1234 1.523 . S
C1234 C1215 1.368 . S
C1234 C1228 1.368 . S
C1234 C1233 1.523 . S
C1235 C1219 1.429 . S
C1235 C1231 1.429 . S
C1235 C1236 1.523 . S
C1236 C1220 1.368 . S
C1236 C1232 1.368 . S
C1236 C1235 1.523 . S
H1237 C1212 0.950 . S
H1238 C1214 0.950 . S
H1239 C1215 0.949 . S
H1240 C1217 0.950 . S
H1241 C1219 0.950 . S
C1242 C1243 1.349 . S
C1242 C1244 1.327 . S
C1242 H1267 0.950 . S
C1243 C1242 1.349 . S
C1243 C1259 1.349 . S
C1244 C1242 1.327 . S
C1244 C1263 1.429 . S
C1244 H1268 0.950 . S
C1245 C1262 1.574 . S
C1245 C1264 1.368 . S
C1245 H1269 0.949 . S
H1246 C1250 0.949 . S
C1247 C1248 1.349 . S
C1247 C1249 1.327 . S
C1247 H1270 0.950 . S
C1248 C1247 1.349 . S
C1248 C1260 1.349 . S
C1249 C1247 1.327 . S
C1249 C1265 1.429 . S
C1249 H1271 0.950 . S
C1250 H1246 0.949 . S
C1250 C1258 1.574 . S
C1250 C1266 1.368 . S
H1251 C1259 0.950 . S
H1252 C1257 0.950 . S
H1253 C1258 0.949 . S
H1254 C1260 0.950 . S
H1255 C1261 0.950 . S
H1256 C1262 0.949 . S
C1257 H1252 0.950 . S
C1257 C1259 1.327 . S
C1257 C1263 1.429 . S
C1258 C1250 1.574 . S
C1258 H1253 0.949 . S
C1258 C1264 1.368 . S
C1259 C1243 1.349 . S
C1259 H1251 0.950 . S
C1259 C1257 1.327 . S
C1260 C1248 1.349 . S
C1260 H1254 0.950 . S
C1260 C1261 1.327 . S
C1261 H1255 0.950 . S
C1261 C1260 1.327 . S
C1261 C1265 1.429 . S
C1262 C1245 1.574 . S
C1262 H1256 0.949 . S
C1262 C1266 1.368 . S
C1263 C1244 1.429 . S
C1263 C1257 1.429 . S
C1263 C1264 1.523 . S
C1264 C1245 1.368 . S
C1264 C1258 1.368 . S
C1264 C1263 1.523 . S
C1265 C1249 1.429 . S
C1265 C1261 1.429 . S
C1265 C1266 1.523 . S
C1266 C1250 1.368 . S
C1266 C1262 1.368 . S
C1266 C1265 1.523 . S
H1267 C1242 0.950 . S
H1268 C1244 0.950 . S
H1269 C1245 0.949 . S
H1270 C1247 0.950 . S
H1271 C1249 0.950 . S
C1272 C1273 1.349 . S
C1272 C1274 1.327 . S
C1272 H1297 0.950 . S
C1273 C1272 1.349 . S
C1273 C1289 1.349 . S
C1274 C1272 1.327 . S
C1274 C1293 1.429 . S
C1274 H1298 0.950 . S
C1275 C1292 1.574 . S
C1275 C1294 1.368 . S
C1275 H1299 0.949 . S
H1276 C1280 0.949 . S
C1277 C1278 1.349 . S
C1277 C1279 1.327 . S
C1277 H1300 0.950 . S
C1278 C1277 1.349 . S
C1278 C1290 1.349 . S
C1279 C1277 1.327 . S
C1279 C1295 1.429 . S
C1279 H1301 0.950 . S
C1280 H1276 0.949 . S
C1280 C1288 1.574 . S
C1280 C1296 1.368 . S
H1281 C1289 0.950 . S
H1282 C1287 0.950 . S
H1283 C1288 0.949 . S
H1284 C1290 0.950 . S
H1285 C1291 0.950 . S
H1286 C1292 0.949 . S
C1287 H1282 0.950 . S
C1287 C1289 1.327 . S
C1287 C1293 1.429 . S
C1288 C1280 1.574 . S
C1288 H1283 0.949 . S
C1288 C1294 1.368 . S
C1289 C1273 1.349 . S
C1289 H1281 0.950 . S
C1289 C1287 1.327 . S
C1290 C1278 1.349 . S
C1290 H1284 0.950 . S
C1290 C1291 1.327 . S
C1291 H1285 0.950 . S
C1291 C1290 1.327 . S
C1291 C1295 1.429 . S
C1292 C1275 1.574 . S
C1292 H1286 0.949 . S
C1292 C1296 1.368 . S
C1293 C1274 1.429 . S
C1293 C1287 1.429 . S
C1293 C1294 1.523 . S
C1294 C1275 1.368 . S
C1294 C1288 1.368 . S
C1294 C1293 1.523 . S
C1295 C1279 1.429 . S
C1295 C1291 1.429 . S
C1295 C1296 1.523 . S
C1296 C1280 1.368 . S
C1296 C1292 1.368 . S
C1296 C1295 1.523 . S
H1297 C1272 0.950 . S
H1298 C1274 0.950 . S
H1299 C1275 0.949 . S
H1300 C1277 0.950 . S
H1301 C1279 0.950 . S
C1302 C1303 1.349 . S
C1302 C1304 1.327 . S
C1302 H1327 0.950 . S
C1303 C1302 1.349 . S
C1303 C1319 1.349 . S
C1304 C1302 1.327 . S
C1304 C1323 1.429 . S
C1304 H1328 0.950 . S
C1305 C1322 1.574 . S
C1305 C1324 1.368 . S
C1305 H1329 0.949 . S
H1306 C1310 0.949 . S
C1307 C1308 1.349 . S
C1307 C1309 1.327 . S
C1307 H1330 0.950 . S
C1308 C1307 1.349 . S
C1308 C1320 1.349 . S
C1309 C1307 1.327 . S
C1309 C1325 1.429 . S
C1309 H1331 0.950 . S
C1310 H1306 0.949 . S
C1310 C1318 1.574 . S
C1310 C1326 1.368 . S
H1311 C1319 0.950 . S
H1312 C1317 0.950 . S
H1313 C1318 0.949 . S
H1314 C1320 0.950 . S
H1315 C1321 0.950 . S
H1316 C1322 0.949 . S
C1317 H1312 0.950 . S
C1317 C1319 1.327 . S
C1317 C1323 1.429 . S
C1318 C1310 1.574 . S
C1318 H1313 0.949 . S
C1318 C1324 1.368 . S
C1319 C1303 1.349 . S
C1319 H1311 0.950 . S
C1319 C1317 1.327 . S
C1320 C1308 1.349 . S
C1320 H1314 0.950 . S
C1320 C1321 1.327 . S
C1321 H1315 0.950 . S
C1321 C1320 1.327 . S
C1321 C1325 1.429 . S
C1322 C1305 1.574 . S
C1322 H1316 0.949 . S
C1322 C1326 1.368 . S
C1323 C1304 1.429 . S
C1323 C1317 1.429 . S
C1323 C1324 1.523 . S
C1324 C1305 1.368 . S
C1324 C1318 1.368 . S
C1324 C1323 1.523 . S
C1325 C1309 1.429 . S
C1325 C1321 1.429 . S
C1325 C1326 1.523 . S
C1326 C1310 1.368 . S
C1326 C1322 1.368 . S
C1326 C1325 1.523 . S
H1327 C1302 0.950 . S
H1328 C1304 0.950 . S
H1329 C1305 0.949 . S
H1330 C1307 0.950 . S
H1331 C1309 0.950 . S
C1332 C1333 1.349 . S
C1332 C1334 1.327 . S
C1332 H1357 0.950 . S
C1333 C1332 1.349 . S
C1333 C1349 1.349 . S
C1334 C1332 1.327 . S
C1334 C1353 1.429 . S
C1334 H1358 0.950 . S
C1335 C1352 1.574 . S
C1335 C1354 1.368 . S
C1335 H1359 0.949 . S
H1336 C1340 0.949 . S
C1337 C1338 1.349 . S
C1337 C1339 1.327 . S
C1337 H1360 0.950 . S
C1338 C1337 1.349 . S
C1338 C1350 1.349 . S
C1339 C1337 1.327 . S
C1339 C1355 1.429 . S
C1339 H1361 0.950 . S
C1340 H1336 0.949 . S
C1340 C1348 1.574 . S
C1340 C1356 1.368 . S
H1341 C1349 0.950 . S
H1342 C1347 0.950 . S
H1343 C1348 0.949 . S
H1344 C1350 0.950 . S
H1345 C1351 0.950 . S
H1346 C1352 0.949 . S
C1347 H1342 0.950 . S
C1347 C1349 1.327 . S
C1347 C1353 1.429 . S
C1348 C1340 1.574 . S
C1348 H1343 0.949 . S
C1348 C1354 1.368 . S
C1349 C1333 1.349 . S
C1349 H1341 0.950 . S
C1349 C1347 1.327 . S
C1350 C1338 1.349 . S
C1350 H1344 0.950 . S
C1350 C1351 1.327 . S
C1351 H1345 0.950 . S
C1351 C1350 1.327 . S
C1351 C1355 1.429 . S
C1352 C1335 1.574 . S
C1352 H1346 0.949 . S
C1352 C1356 1.368 . S
C1353 C1334 1.429 . S
C1353 C1347 1.429 . S
C1353 C1354 1.523 . S
C1354 C1335 1.368 . S
C1354 C1348 1.368 . S
C1354 C1353 1.523 . S
C1355 C1339 1.429 . S
C1355 C1351 1.429 . S
C1355 C1356 1.523 . S
C1356 C1340 1.368 . S
C1356 C1352 1.368 . S
C1356 C1355 1.523 . S
H1357 C1332 0.950 . S
H1358 C1334 0.950 . S
H1359 C1335 0.949 . S
H1360 C1337 0.950 . S
H1361 C1339 0.950 . S
C1362 C1363 1.349 . S
C1362 C1364 1.327 . S
C1362 H1387 0.950 . S
C1363 C1362 1.349 . S
C1363 C1379 1.349 . S
C1364 C1362 1.327 . S
C1364 C1383 1.429 . S
C1364 H1388 0.950 . S
C1365 C1382 1.574 . S
C1365 C1384 1.368 . S
C1365 H1389 0.949 . S
H1366 C1370 0.949 . S
C1367 C1368 1.349 . S
C1367 C1369 1.327 . S
C1367 H1390 0.950 . S
C1368 C1367 1.349 . S
C1368 C1380 1.349 . S
C1369 C1367 1.327 . S
C1369 C1385 1.429 . S
C1369 H1391 0.950 . S
C1370 H1366 0.949 . S
C1370 C1378 1.574 . S
C1370 C1386 1.368 . S
H1371 C1379 0.950 . S
H1372 C1377 0.950 . S
H1373 C1378 0.949 . S
H1374 C1380 0.950 . S
H1375 C1381 0.950 . S
H1376 C1382 0.949 . S
C1377 H1372 0.950 . S
C1377 C1379 1.327 . S
C1377 C1383 1.429 . S
C1378 C1370 1.574 . S
C1378 H1373 0.949 . S
C1378 C1384 1.368 . S
C1379 C1363 1.349 . S
C1379 H1371 0.950 . S
C1379 C1377 1.327 . S
C1380 C1368 1.349 . S
C1380 H1374 0.950 . S
C1380 C1381 1.327 . S
C1381 H1375 0.950 . S
C1381 C1380 1.327 . S
C1381 C1385 1.429 . S
C1382 C1365 1.574 . S
C1382 H1376 0.949 . S
C1382 C1386 1.368 . S
C1383 C1364 1.429 . S
C1383 C1377 1.429 . S
C1383 C1384 1.523 . S
C1384 C1365 1.368 . S
C1384 C1378 1.368 . S
C1384 C1383 1.523 . S
C1385 C1369 1.429 . S
C1385 C1381 1.429 . S
C1385 C1386 1.523 . S
C1386 C1370 1.368 . S
C1386 C1382 1.368 . S
C1386 C1385 1.523 . S
H1387 C1362 0.950 . S
H1388 C1364 0.950 . S
H1389 C1365 0.949 . S
H1390 C1367 0.950 . S
H1391 C1369 0.950 . S
C1392 C1393 1.349 . S
C1392 C1394 1.327 . S
C1392 H1417 0.950 . S
C1393 C1392 1.349 . S
C1393 C1409 1.349 . S
C1394 C1392 1.327 . S
C1394 C1413 1.429 . S
C1394 H1418 0.950 . S
C1395 C1412 1.574 . S
C1395 C1414 1.368 . S
C1395 H1419 0.949 . S
H1396 C1400 0.949 . S
C1397 C1398 1.349 . S
C1397 C1399 1.327 . S
C1397 H1420 0.950 . S
C1398 C1397 1.349 . S
C1398 C1410 1.349 . S
C1399 C1397 1.327 . S
C1399 C1415 1.429 . S
C1399 H1421 0.950 . S
C1400 H1396 0.949 . S
C1400 C1408 1.574 . S
C1400 C1416 1.368 . S
H1401 C1409 0.950 . S
H1402 C1407 0.950 . S
H1403 C1408 0.949 . S
H1404 C1410 0.950 . S
H1405 C1411 0.950 . S
H1406 C1412 0.949 . S
C1407 H1402 0.950 . S
C1407 C1409 1.327 . S
C1407 C1413 1.429 . S
C1408 C1400 1.574 . S
C1408 H1403 0.949 . S
C1408 C1414 1.368 . S
C1409 C1393 1.349 . S
C1409 H1401 0.950 . S
C1409 C1407 1.327 . S
C1410 C1398 1.349 . S
C1410 H1404 0.950 . S
C1410 C1411 1.327 . S
C1411 H1405 0.950 . S
C1411 C1410 1.327 . S
C1411 C1415 1.429 . S
C1412 C1395 1.574 . S
C1412 H1406 0.949 . S
C1412 C1416 1.368 . S
C1413 C1394 1.429 . S
C1413 C1407 1.429 . S
C1413 C1414 1.523 . S
C1414 C1395 1.368 . S
C1414 C1408 1.368 . S
C1414 C1413 1.523 . S
C1415 C1399 1.429 . S
C1415 C1411 1.429 . S
C1415 C1416 1.523 . S
C1416 C1400 1.368 . S
C1416 C1412 1.368 . S
C1416 C1415 1.523 . S
H1417 C1392 0.950 . S
H1418 C1394 0.950 . S
H1419 C1395 0.949 . S
H1420 C1397 0.950 . S
H1421 C1399 0.950 . S
C1422 C1423 1.349 . S
C1422 C1424 1.327 . S
C1422 H1447 0.950 . S
C1423 C1422 1.349 . S
C1423 C1439 1.349 . S
C1424 C1422 1.327 . S
C1424 C1443 1.429 . S
C1424 H1448 0.950 . S
C1425 C1442 1.574 . S
C1425 C1444 1.368 . S
C1425 H1449 0.949 . S
H1426 C1430 0.949 . S
C1427 C1428 1.349 . S
C1427 C1429 1.327 . S
C1427 H1450 0.950 . S
C1428 C1427 1.349 . S
C1428 C1440 1.349 . S
C1429 C1427 1.327 . S
C1429 C1445 1.429 . S
C1429 H1451 0.950 . S
C1430 H1426 0.949 . S
C1430 C1438 1.574 . S
C1430 C1446 1.368 . S
H1431 C1439 0.950 . S
H1432 C1437 0.950 . S
H1433 C1438 0.949 . S
H1434 C1440 0.950 . S
H1435 C1441 0.950 . S
H1436 C1442 0.949 . S
C1437 H1432 0.950 . S
C1437 C1439 1.327 . S
C1437 C1443 1.429 . S
C1438 C1430 1.574 . S
C1438 H1433 0.949 . S
C1438 C1444 1.368 . S
C1439 C1423 1.349 . S
C1439 H1431 0.950 . S
C1439 C1437 1.327 . S
C1440 C1428 1.349 . S
C1440 H1434 0.950 . S
C1440 C1441 1.327 . S
C1441 H1435 0.950 . S
C1441 C1440 1.327 . S
C1441 C1445 1.429 . S
C1442 C1425 1.574 . S
C1442 H1436 0.949 . S
C1442 C1446 1.368 . S
C1443 C1424 1.429 . S
C1443 C1437 1.429 . S
C1443 C1444 1.523 . S
C1444 C1425 1.368 . S
C1444 C1438 1.368 . S
C1444 C1443 1.523 . S
C1445 C1429 1.429 . S
C1445 C1441 1.429 . S
C1445 C1446 1.523 . S
C1446 C1430 1.368 . S
C1446 C1442 1.368 . S
C1446 C1445 1.523 . S
H1447 C1422 0.950 . S
H1448 C1424 0.950 . S
H1449 C1425 0.949 . S
H1450 C1427 0.950 . S
H1451 C1429 0.950 . S
C1452 C1453 1.349 . S
C1452 C1454 1.327 . S
C1452 H1477 0.950 . S
C1453 C1452 1.349 . S
C1453 C1469 1.349 . S
C1454 C1452 1.327 . S
C1454 C1473 1.429 . S
C1454 H1478 0.950 . S
C1455 C1472 1.574 . S
C1455 C1474 1.368 . S
C1455 H1479 0.949 . S
H1456 C1460 0.949 . S
C1457 C1458 1.349 . S
C1457 C1459 1.327 . S
C1457 H1480 0.950 . S
C1458 C1457 1.349 . S
C1458 C1470 1.349 . S
C1459 C1457 1.327 . S
C1459 C1475 1.429 . S
C1459 H1481 0.950 . S
C1460 H1456 0.949 . S
C1460 C1468 1.574 . S
C1460 C1476 1.368 . S
H1461 C1469 0.950 . S
H1462 C1467 0.950 . S
H1463 C1468 0.949 . S
H1464 C1470 0.950 . S
H1465 C1471 0.950 . S
H1466 C1472 0.949 . S
C1467 H1462 0.950 . S
C1467 C1469 1.327 . S
C1467 C1473 1.429 . S
C1468 C1460 1.574 . S
C1468 H1463 0.949 . S
C1468 C1474 1.368 . S
C1469 C1453 1.349 . S
C1469 H1461 0.950 . S
C1469 C1467 1.327 . S
C1470 C1458 1.349 . S
C1470 H1464 0.950 . S
C1470 C1471 1.327 . S
C1471 H1465 0.950 . S
C1471 C1470 1.327 . S
C1471 C1475 1.429 . S
C1472 C1455 1.574 . S
C1472 H1466 0.949 . S
C1472 C1476 1.368 . S
C1473 C1454 1.429 . S
C1473 C1467 1.429 . S
C1473 C1474 1.523 . S
C1474 C1455 1.368 . S
C1474 C1468 1.368 . S
C1474 C1473 1.523 . S
C1475 C1459 1.429 . S
C1475 C1471 1.429 . S
C1475 C1476 1.523 . S
C1476 C1460 1.368 . S
C1476 C1472 1.368 . S
C1476 C1475 1.523 . S
H1477 C1452 0.950 . S
H1478 C1454 0.950 . S
H1479 C1455 0.949 . S
H1480 C1457 0.950 . S
H1481 C1459 0.950 . S
C1482 C1483 1.349 . S
C1482 C1484 1.327 . S
C1482 H1507 0.950 . S
C1483 C1482 1.349 . S
C1483 C1499 1.349 . S
C1484 C1482 1.327 . S
C1484 C1503 1.429 . S
C1484 H1508 0.950 . S
C1485 C1502 1.574 . S
C1485 C1504 1.368 . S
C1485 H1509 0.949 . S
H1486 C1490 0.949 . S
C1487 C1488 1.349 . S
C1487 C1489 1.327 . S
C1487 H1510 0.950 . S
C1488 C1487 1.349 . S
C1488 C1500 1.349 . S
C1489 C1487 1.327 . S
C1489 C1505 1.429 . S
C1489 H1511 0.950 . S
C1490 H1486 0.949 . S
C1490 C1498 1.574 . S
C1490 C1506 1.368 . S
H1491 C1499 0.950 . S
H1492 C1497 0.950 . S
H1493 C1498 0.949 . S
H1494 C1500 0.950 . S
H1495 C1501 0.950 . S
H1496 C1502 0.949 . S
C1497 H1492 0.950 . S
C1497 C1499 1.327 . S
C1497 C1503 1.429 . S
C1498 C1490 1.574 . S
C1498 H1493 0.949 . S
C1498 C1504 1.368 . S
C1499 C1483 1.349 . S
C1499 H1491 0.950 . S
C1499 C1497 1.327 . S
C1500 C1488 1.349 . S
C1500 H1494 0.950 . S
C1500 C1501 1.327 . S
C1501 H1495 0.950 . S
C1501 C1500 1.327 . S
C1501 C1505 1.429 . S
C1502 C1485 1.574 . S
C1502 H1496 0.949 . S
C1502 C1506 1.368 . S
C1503 C1484 1.429 . S
C1503 C1497 1.429 . S
C1503 C1504 1.523 . S
C1504 C1485 1.368 . S
C1504 C1498 1.368 . S
C1504 C1503 1.523 . S
C1505 C1489 1.429 . S
C1505 C1501 1.429 . S
C1505 C1506 1.523 . S
C1506 C1490 1.368 . S
C1506 C1502 1.368 . S
C1506 C1505 1.523 . S
H1507 C1482 0.950 . S
H1508 C1484 0.950 . S
H1509 C1485 0.949 . S
H1510 C1487 0.950 . S
H1511 C1489 0.950 . S
C1512 C1513 1.349 . S
C1512 C1514 1.327 . S
C1512 H1537 0.950 . S
C1513 C1512 1.349 . S
C1513 C1529 1.349 . S
C1514 C1512 1.327 . S
C1514 C1533 1.429 . S
C1514 H1538 0.950 . S
C1515 C1532 1.574 . S
C1515 C1534 1.368 . S
C1515 H1539 0.949 . S
H1516 C1520 0.949 . S
C1517 C1518 1.349 . S
C1517 C1519 1.327 . S
C1517 H1540 0.950 . S
C1518 C1517 1.349 . S
C1518 C1530 1.349 . S
C1519 C1517 1.327 . S
C1519 C1535 1.429 . S
C1519 H1541 0.950 . S
C1520 H1516 0.949 . S
C1520 C1528 1.574 . S
C1520 C1536 1.368 . S
H1521 C1529 0.950 . S
H1522 C1527 0.950 . S
H1523 C1528 0.949 . S
H1524 C1530 0.950 . S
H1525 C1531 0.950 . S
H1526 C1532 0.949 . S
C1527 H1522 0.950 . S
C1527 C1529 1.327 . S
C1527 C1533 1.429 . S
C1528 C1520 1.574 . S
C1528 H1523 0.949 . S
C1528 C1534 1.368 . S
C1529 C1513 1.349 . S
C1529 H1521 0.950 . S
C1529 C1527 1.327 . S
C1530 C1518 1.349 . S
C1530 H1524 0.950 . S
C1530 C1531 1.327 . S
C1531 H1525 0.950 . S
C1531 C1530 1.327 . S
C1531 C1535 1.429 . S
C1532 C1515 1.574 . S
C1532 H1526 0.949 . S
C1532 C1536 1.368 . S
C1533 C1514 1.429 . S
C1533 C1527 1.429 . S
C1533 C1534 1.523 . S
C1534 C1515 1.368 . S
C1534 C1528 1.368 . S
C1534 C1533 1.523 . S
C1535 C1519 1.429 . S
C1535 C1531 1.429 . S
C1535 C1536 1.523 . S
C1536 C1520 1.368 . S
C1536 C1532 1.368 . S
C1536 C1535 1.523 . S
H1537 C1512 0.950 . S
H1538 C1514 0.950 . S
H1539 C1515 0.949 . S
H1540 C1517 0.950 . S
H1541 C1519 0.950 . S
C1542 C1543 1.349 . S
C1542 C1544 1.327 . S
C1542 H1567 0.950 . S
C1543 C1542 1.349 . S
C1543 C1559 1.349 . S
C1544 C1542 1.327 . S
C1544 C1563 1.429 . S
C1544 H1568 0.950 . S
C1545 C1562 1.574 . S
C1545 C1564 1.368 . S
C1545 H1569 0.949 . S
H1546 C1550 0.949 . S
C1547 C1548 1.349 . S
C1547 C1549 1.327 . S
C1547 H1570 0.950 . S
C1548 C1547 1.349 . S
C1548 C1560 1.349 . S
C1549 C1547 1.327 . S
C1549 C1565 1.429 . S
C1549 H1571 0.950 . S
C1550 H1546 0.949 . S
C1550 C1558 1.574 . S
C1550 C1566 1.368 . S
H1551 C1559 0.950 . S
H1552 C1557 0.950 . S
H1553 C1558 0.949 . S
H1554 C1560 0.950 . S
H1555 C1561 0.950 . S
H1556 C1562 0.949 . S
C1557 H1552 0.950 . S
C1557 C1559 1.327 . S
C1557 C1563 1.429 . S
C1558 C1550 1.574 . S
C1558 H1553 0.949 . S
C1558 C1564 1.368 . S
C1559 C1543 1.349 . S
C1559 H1551 0.950 . S
C1559 C1557 1.327 . S
C1560 C1548 1.349 . S
C1560 H1554 0.950 . S
C1560 C1561 1.327 . S
C1561 H1555 0.950 . S
C1561 C1560 1.327 . S
C1561 C1565 1.429 . S
C1562 C1545 1.574 . S
C1562 H1556 0.949 . S
C1562 C1566 1.368 . S
C1563 C1544 1.429 . S
C1563 C1557 1.429 . S
C1563 C1564 1.523 . S
C1564 C1545 1.368 . S
C1564 C1558 1.368 . S
C1564 C1563 1.523 . S
C1565 C1549 1.429 . S
C1565 C1561 1.429 . S
C1565 C1566 1.523 . S
C1566 C1550 1.368 . S
C1566 C1562 1.368 . S
C1566 C1565 1.523 . S
H1567 C1542 0.950 . S
H1568 C1544 0.950 . S
H1569 C1545 0.949 . S
H1570 C1547 0.950 . S
H1571 C1549 0.950 . S
C1572 C1573 1.349 . S
C1572 C1574 1.327 . S
C1572 H1597 0.950 . S
C1573 C1572 1.349 . S
C1573 C1589 1.349 . S
C1574 C1572 1.327 . S
C1574 C1593 1.429 . S
C1574 H1598 0.950 . S
C1575 C1592 1.574 . S
C1575 C1594 1.368 . S
C1575 H1599 0.949 . S
H1576 C1580 0.949 . S
C1577 C1578 1.349 . S
C1577 C1579 1.327 . S
C1577 H1600 0.950 . S
C1578 C1577 1.349 . S
C1578 C1590 1.349 . S
C1579 C1577 1.327 . S
C1579 C1595 1.429 . S
C1579 H1601 0.950 . S
C1580 H1576 0.949 . S
C1580 C1588 1.574 . S
C1580 C1596 1.368 . S
H1581 C1589 0.950 . S
H1582 C1587 0.950 . S
H1583 C1588 0.949 . S
H1584 C1590 0.950 . S
H1585 C1591 0.950 . S
H1586 C1592 0.949 . S
C1587 H1582 0.950 . S
C1587 C1589 1.327 . S
C1587 C1593 1.429 . S
C1588 C1580 1.574 . S
C1588 H1583 0.949 . S
C1588 C1594 1.368 . S
C1589 C1573 1.349 . S
C1589 H1581 0.950 . S
C1589 C1587 1.327 . S
C1590 C1578 1.349 . S
C1590 H1584 0.950 . S
C1590 C1591 1.327 . S
C1591 H1585 0.950 . S
C1591 C1590 1.327 . S
C1591 C1595 1.429 . S
C1592 C1575 1.574 . S
C1592 H1586 0.949 . S
C1592 C1596 1.368 . S
C1593 C1574 1.429 . S
C1593 C1587 1.429 . S
C1593 C1594 1.523 . S
C1594 C1575 1.368 . S
C1594 C1588 1.368 . S
C1594 C1593 1.523 . S
C1595 C1579 1.429 . S
C1595 C1591 1.429 . S
C1595 C1596 1.523 . S
C1596 C1580 1.368 . S
C1596 C1592 1.368 . S
C1596 C1595 1.523 . S
H1597 C1572 0.950 . S
H1598 C1574 0.950 . S
H1599 C1575 0.949 . S
H1600 C1577 0.950 . S
H1601 C1579 0.950 . S
C1602 C1603 1.349 . S
C1602 C1604 1.327 . S
C1602 H1627 0.950 . S
C1603 C1602 1.349 . S
C1603 C1619 1.349 . S
C1604 C1602 1.327 . S
C1604 C1623 1.429 . S
C1604 H1628 0.950 . S
C1605 C1622 1.574 . S
C1605 C1624 1.368 . S
C1605 H1629 0.949 . S
H1606 C1610 0.949 . S
C1607 C1608 1.349 . S
C1607 C1609 1.327 . S
C1607 H1630 0.950 . S
C1608 C1607 1.349 . S
C1608 C1620 1.349 . S
C1609 C1607 1.327 . S
C1609 C1625 1.429 . S
C1609 H1631 0.950 . S
C1610 H1606 0.949 . S
C1610 C1618 1.574 . S
C1610 C1626 1.368 . S
H1611 C1619 0.950 . S
H1612 C1617 0.950 . S
H1613 C1618 0.949 . S
H1614 C1620 0.950 . S
H1615 C1621 0.950 . S
H1616 C1622 0.949 . S
C1617 H1612 0.950 . S
C1617 C1619 1.327 . S
C1617 C1623 1.429 . S
C1618 C1610 1.574 . S
C1618 H1613 0.949 . S
C1618 C1624 1.368 . S
C1619 C1603 1.349 . S
C1619 H1611 0.950 . S
C1619 C1617 1.327 . S
C1620 C1608 1.349 . S
C1620 H1614 0.950 . S
C1620 C1621 1.327 . S
C1621 H1615 0.950 . S
C1621 C1620 1.327 . S
C1621 C1625 1.429 . S
C1622 C1605 1.574 . S
C1622 H1616 0.949 . S
C1622 C1626 1.368 . S
C1623 C1604 1.429 . S
C1623 C1617 1.429 . S
C1623 C1624 1.523 . S
C1624 C1605 1.368 . S
C1624 C1618 1.368 . S
C1624 C1623 1.523 . S
C1625 C1609 1.429 . S
C1625 C1621 1.429 . S
C1625 C1626 1.523 . S
C1626 C1610 1.368 . S
C1626 C1622 1.368 . S
C1626 C1625 1.523 . S
H1627 C1602 0.950 . S
H1628 C1604 0.950 . S
H1629 C1605 0.949 . S
H1630 C1607 0.950 . S
H1631 C1609 0.950 . S
C1632 C1633 1.349 . S
C1632 C1634 1.327 . S
C1632 H1657 0.950 . S
C1633 C1632 1.349 . S
C1633 C1649 1.349 . S
C1634 C1632 1.327 . S
C1634 C1653 1.429 . S
C1634 H1658 0.950 . S
C1635 C1652 1.574 . S
C1635 C1654 1.368 . S
C1635 H1659 0.949 . S
H1636 C1640 0.949 . S
C1637 C1638 1.349 . S
C1637 C1639 1.327 . S
C1637 H1660 0.950 . S
C1638 C1637 1.349 . S
C1638 C1650 1.349 . S
C1639 C1637 1.327 . S
C1639 C1655 1.429 . S
C1639 H1661 0.950 . S
C1640 H1636 0.949 . S
C1640 C1648 1.574 . S
C1640 C1656 1.368 . S
H1641 C1649 0.950 . S
H1642 C1647 0.950 . S
H1643 C1648 0.949 . S
H1644 C1650 0.950 . S
H1645 C1651 0.950 . S
H1646 C1652 0.949 . S
C1647 H1642 0.950 . S
C1647 C1649 1.327 . S
C1647 C1653 1.429 . S
C1648 C1640 1.574 . S
C1648 H1643 0.949 . S
C1648 C1654 1.368 . S
C1649 C1633 1.349 . S
C1649 H1641 0.950 . S
C1649 C1647 1.327 . S
C1650 C1638 1.349 . S
C1650 H1644 0.950 . S
C1650 C1651 1.327 . S
C1651 H1645 0.950 . S
C1651 C1650 1.327 . S
C1651 C1655 1.429 . S
C1652 C1635 1.574 . S
C1652 H1646 0.949 . S
C1652 C1656 1.368 . S
C1653 C1634 1.429 . S
C1653 C1647 1.429 . S
C1653 C1654 1.523 . S
C1654 C1635 1.368 . S
C1654 C1648 1.368 . S
C1654 C1653 1.523 . S
C1655 C1639 1.429 . S
C1655 C1651 1.429 . S
C1655 C1656 1.523 . S
C1656 C1640 1.368 . S
C1656 C1652 1.368 . S
C1656 C1655 1.523 . S
H1657 C1632 0.950 . S
H1658 C1634 0.950 . S
H1659 C1635 0.949 . S
H1660 C1637 0.950 . S
H1661 C1639 0.950 . S
C1662 C1663 1.349 . S
C1662 C1664 1.327 . S
C1662 H1687 0.950 . S
C1663 C1662 1.349 . S
C1663 C1679 1.349 . S
C1664 C1662 1.327 . S
C1664 C1683 1.429 . S
C1664 H1688 0.950 . S
C1665 C1682 1.574 . S
C1665 C1684 1.368 . S
C1665 H1689 0.949 . S
H1666 C1670 0.949 . S
C1667 C1668 1.349 . S
C1667 C1669 1.327 . S
C1667 H1690 0.950 . S
C1668 C1667 1.349 . S
C1668 C1680 1.349 . S
C1669 C1667 1.327 . S
C1669 C1685 1.429 . S
C1669 H1691 0.950 . S
C1670 H1666 0.949 . S
C1670 C1678 1.574 . S
C1670 C1686 1.368 . S
H1671 C1679 0.950 . S
H1672 C1677 0.950 . S
H1673 C1678 0.949 . S
H1674 C1680 0.950 . S
H1675 C1681 0.950 . S
H1676 C1682 0.949 . S
C1677 H1672 0.950 . S
C1677 C1679 1.327 . S
C1677 C1683 1.429 . S
C1678 C1670 1.574 . S
C1678 H1673 0.949 . S
C1678 C1684 1.368 . S
C1679 C1663 1.349 . S
C1679 H1671 0.950 . S
C1679 C1677 1.327 . S
C1680 C1668 1.349 . S
C1680 H1674 0.950 . S
C1680 C1681 1.327 . S
C1681 H1675 0.950 . S
C1681 C1680 1.327 . S
C1681 C1685 1.429 . S
C1682 C1665 1.574 . S
C1682 H1676 0.949 . S
C1682 C1686 1.368 . S
C1683 C1664 1.429 . S
C1683 C1677 1.429 . S
C1683 C1684 1.523 . S
C1684 C1665 1.368 . S
C1684 C1678 1.368 . S
C1684 C1683 1.523 . S
C1685 C1669 1.429 . S
C1685 C1681 1.429 . S
C1685 C1686 1.523 . S
C1686 C1670 1.368 . S
C1686 C1682 1.368 . S
C1686 C1685 1.523 . S
H1687 C1662 0.950 . S
H1688 C1664 0.950 . S
H1689 C1665 0.949 . S
H1690 C1667 0.950 . S
H1691 C1669 0.950 . S
C1692 C1693 1.349 . S
C1692 C1694 1.327 . S
C1692 H1717 0.950 . S
C1693 C1692 1.349 . S
C1693 C1709 1.349 . S
C1694 C1692 1.327 . S
C1694 C1713 1.429 . S
C1694 H1718 0.950 . S
C1695 C1712 1.574 . S
C1695 C1714 1.368 . S
C1695 H1719 0.949 . S
H1696 C1700 0.949 . S
C1697 C1698 1.349 . S
C1697 C1699 1.327 . S
C1697 H1720 0.950 . S
C1698 C1697 1.349 . S
C1698 C1710 1.349 . S
C1699 C1697 1.327 . S
C1699 C1715 1.429 . S
C1699 H1721 0.950 . S
C1700 H1696 0.949 . S
C1700 C1708 1.574 . S
C1700 C1716 1.368 . S
H1701 C1709 0.950 . S
H1702 C1707 0.950 . S
H1703 C1708 0.949 . S
H1704 C1710 0.950 . S
H1705 C1711 0.950 . S
H1706 C1712 0.949 . S
C1707 H1702 0.950 . S
C1707 C1709 1.327 . S
C1707 C1713 1.429 . S
C1708 C1700 1.574 . S
C1708 H1703 0.949 . S
C1708 C1714 1.368 . S
C1709 C1693 1.349 . S
C1709 H1701 0.950 . S
C1709 C1707 1.327 . S
C1710 C1698 1.349 . S
C1710 H1704 0.950 . S
C1710 C1711 1.327 . S
C1711 H1705 0.950 . S
C1711 C1710 1.327 . S
C1711 C1715 1.429 . S
C1712 C1695 1.574 . S
C1712 H1706 0.949 . S
C1712 C1716 1.368 . S
C1713 C1694 1.429 . S
C1713 C1707 1.429 . S
C1713 C1714 1.523 . S
C1714 C1695 1.368 . S
C1714 C1708 1.368 . S
C1714 C1713 1.523 . S
C1715 C1699 1.429 . S
C1715 C1711 1.429 . S
C1715 C1716 1.523 . S
C1716 C1700 1.368 . S
C1716 C1712 1.368 . S
C1716 C1715 1.523 . S
H1717 C1692 0.950 . S
H1718 C1694 0.950 . S
H1719 C1695 0.949 . S
H1720 C1697 0.950 . S
H1721 C1699 0.950 . S
C1722 C1723 1.349 . S
C1722 C1724 1.327 . S
C1722 H1747 0.950 . S
C1723 C1722 1.349 . S
C1723 C1739 1.349 . S
C1724 C1722 1.327 . S
C1724 C1743 1.429 . S
C1724 H1748 0.950 . S
C1725 C1742 1.574 . S
C1725 C1744 1.368 . S
C1725 H1749 0.949 . S
H1726 C1730 0.949 . S
C1727 C1728 1.349 . S
C1727 C1729 1.327 . S
C1727 H1750 0.950 . S
C1728 C1727 1.349 . S
C1728 C1740 1.349 . S
C1729 C1727 1.327 . S
C1729 C1745 1.429 . S
C1729 H1751 0.950 . S
C1730 H1726 0.949 . S
C1730 C1738 1.574 . S
C1730 C1746 1.368 . S
H1731 C1739 0.950 . S
H1732 C1737 0.950 . S
H1733 C1738 0.949 . S
H1734 C1740 0.950 . S
H1735 C1741 0.950 . S
H1736 C1742 0.949 . S
C1737 H1732 0.950 . S
C1737 C1739 1.327 . S
C1737 C1743 1.429 . S
C1738 C1730 1.574 . S
C1738 H1733 0.949 . S
C1738 C1744 1.368 . S
C1739 C1723 1.349 . S
C1739 H1731 0.950 . S
C1739 C1737 1.327 . S
C1740 C1728 1.349 . S
C1740 H1734 0.950 . S
C1740 C1741 1.327 . S
C1741 H1735 0.950 . S
C1741 C1740 1.327 . S
C1741 C1745 1.429 . S
C1742 C1725 1.574 . S
C1742 H1736 0.949 . S
C1742 C1746 1.368 . S
C1743 C1724 1.429 . S
C1743 C1737 1.429 . S
C1743 C1744 1.523 . S
C1744 C1725 1.368 . S
C1744 C1738 1.368 . S
C1744 C1743 1.523 . S
C1745 C1729 1.429 . S
C1745 C1741 1.429 . S
C1745 C1746 1.523 . S
C1746 C1730 1.368 . S
C1746 C1742 1.368 . S
C1746 C1745 1.523 . S
H1747 C1722 0.950 . S
H1748 C1724 0.950 . S
H1749 C1725 0.949 . S
H1750 C1727 0.950 . S
H1751 C1729 0.950 . S
C313 C187 1.994 . S
C318 C4 1.994 . S
C343 C16 1.994 . S
C348 C199 1.994 . S
C373 C239 2.001 . S
C378 C31 2.001 . S
C403 C49 1.975 . S
C408 C173 1.975 . S
C433 C186 1.975 . S
C438 C62 1.975 . S
C463 C68 2.001 . S
C468 C200 2.001 . S
C493 C81 1.994 . S
C498 C238 1.994 . S
C523 C101 1.994 . S
C528 C174 1.994 . S
C553 C120 1.994 . S
C558 C114 1.994 . S
C583 C134 1.975 . S
C588 C127 1.975 . S
C613 C135 1.994 . S
C618 C147 1.994 . S
C643 C148 2.001 . S
C648 C107 2.001 . S
C673 C160 1.994 . S
C678 C42 1.994 . S
C703 C55 1.994 . S
C708 C212 1.994 . S
C733 C225 1.975 . S
C738 C23 1.975 . S
C763 C17 1.122 . S
C768 C283 1.122 . S
C793 C121 1.122 . S
C798 C10 1.122 . S
C823 C302 1.126 . S
C828 C44 1.126 . S
C853 C146 1.140 . S
C858 C29 1.140 . S
C883 C276 1.140 . S
C888 C96 1.140 . S
C913 C122 1.126 . S
C918 C83 1.126 . S
C943 C69 1.122 . S
C948 C309 1.122 . S
C973 C56 1.122 . S
C978 C153 1.122 . S
C1003 C205 1.122 . S
C1008 C257 1.122 . S
C1033 C211 1.140 . S
C1038 C198 1.140 . S
C1063 C179 1.122 . S
C1068 C218 1.122 . S
C1093 C250 1.127 . S
C1098 C172 1.127 . S
C1123 C36 1.122 . S
C1128 C264 1.122 . S
C1153 C140 1.122 . S
C1158 C95 1.122 . S
C1183 C3 1.140 . S
C1188 C289 1.140 . S
C1213 C252 1.994 . S
C1218 C30 1.994 . S
C1243 C5 2.001 . S
C1248 C213 2.001 . S
C1273 C251 1.975 . S
C1278 C88 1.975 . S
C1303 C161 2.001 . S
C1308 C94 2.001 . S
C1333 C75 1.994 . S
C1338 C226 1.994 . S
C1363 C277 1.994 . S
C1368 C263 1.994 . S
C1393 C303 1.975 . S
C1398 C270 1.975 . S
C1423 C290 1.994 . S
C1428 C304 1.994 . S
C1453 C278 2.001 . S
C1458 C291 2.001 . S
C1483 C108 1.122 . S
C1488 C43 1.122 . S
C1513 C18 1.127 . S
C1518 C133 1.127 . S
C1543 C70 1.140 . S
C1548 C109 1.140 . S
C1573 C265 1.127 . S
C1578 C57 1.127 . S
C1603 C82 1.122 . S
C1608 C296 1.122 . S
C1633 C166 1.122 . S
C1638 C192 1.122 . S
C1663 C237 1.140 . S
C1668 C159 1.140 . S
C1693 C231 1.122 . S
C1698 C244 1.122 . S
C1723 C185 1.126 . S
C1728 C224 1.126 . S
