# Generated by pormake.
# Topology wip, (6)-cn, num edge types: 1
# Building blocks:
#     Node 0, Type 0, BuildingBlock: BETFAJ_clean_sbu_0, # of connection points: 6
#     Node 1, Type 0, BuildingBlock: BETFAJ_clean_sbu_0, # of connection points: 6
#     Node 2, Type 0, BuildingBlock: BETFAJ_clean_sbu_0, # of connection points: 6
#     Node 3, Type 0, BuildingBlock: BETFAJ_clean_sbu_0, # of connection points: 6
#     Node 4, Type 0, BuildingBlock: BETFAJ_clean_sbu_0, # of connection points: 6
#     Node 5, Type 0, BuildingBlock: BETFAJ_clean_sbu_0, # of connection points: 6
#     Node 6, Type 0, BuildingBlock: BETFAJ_clean_sbu_0, # of connection points: 6
#     Node 7, Type 0, BuildingBlock: BETFAJ_clean_sbu_0, # of connection points: 6
#     Node 8, Type 0, BuildingBlock: BETFAJ_clean_sbu_0, # of connection points: 6
#     Node 9, Type 0, BuildingBlock: BETFAJ_clean_sbu_0, # of connection points: 6
#     Node 10, Type 0, BuildingBlock: BETFAJ_clean_sbu_0, # of connection points: 6
#     Node 11, Type 0, BuildingBlock: BETFAJ_clean_sbu_0, # of connection points: 6
#     Node 12, Type 0, BuildingBlock: BETFAJ_clean_sbu_0, # of connection points: 6
#     Node 13, Type 0, BuildingBlock: BETFAJ_clean_sbu_0, # of connection points: 6
#     Node 14, Type 0, BuildingBlock: BETFAJ_clean_sbu_0, # of connection points: 6
#     Node 15, Type 0, BuildingBlock: BETFAJ_clean_sbu_0, # of connection points: 6
#     Node 16, Type 0, BuildingBlock: BETFAJ_clean_sbu_0, # of connection points: 6
#     Node 17, Type 0, BuildingBlock: BETFAJ_clean_sbu_0, # of connection points: 6
#     Node 18, Type 0, BuildingBlock: BETFAJ_clean_sbu_0, # of connection points: 6
#     Node 19, Type 0, BuildingBlock: BETFAJ_clean_sbu_0, # of connection points: 6
#     Node 20, Type 0, BuildingBlock: BETFAJ_clean_sbu_0, # of connection points: 6
#     Node 21, Type 0, BuildingBlock: BETFAJ_clean_sbu_0, # of connection points: 6
#     Node 22, Type 0, BuildingBlock: BETFAJ_clean_sbu_0, # of connection points: 6
#     Node 23, Type 0, BuildingBlock: BETFAJ_clean_sbu_0, # of connection points: 6
#     Node 24, Type 0, BuildingBlock: BETFAJ_clean_sbu_0, # of connection points: 6
#     Node 25, Type 0, BuildingBlock: BETFAJ_clean_sbu_0, # of connection points: 6
#     Node 26, Type 0, BuildingBlock: BETFAJ_clean_sbu_0, # of connection points: 6
#     Node 27, Type 0, BuildingBlock: BETFAJ_clean_sbu_0, # of connection points: 6
#     Node 28, Type 0, BuildingBlock: BETFAJ_clean_sbu_0, # of connection points: 6
#     Node 29, Type 0, BuildingBlock: BETFAJ_clean_sbu_0, # of connection points: 6
#     Node 30, Type 0, BuildingBlock: BETFAJ_clean_sbu_0, # of connection points: 6
#     Node 31, Type 0, BuildingBlock: BETFAJ_clean_sbu_0, # of connection points: 6
#     Edge 32, Type (0, 0), BuildingBlock: KIFKEQ_clean_linker_1, # of connection points: 2
#     Edge 33, Type (0, 0), BuildingBlock: KIFKEQ_clean_linker_1, # of connection points: 2
#     Edge 34, Type (0, 0), BuildingBlock: KIFKEQ_clean_linker_1, # of connection points: 2
#     Edge 35, Type (0, 0), BuildingBlock: KIFKEQ_clean_linker_1, # of connection points: 2
#     Edge 36, Type (0, 0), BuildingBlock: KIFKEQ_clean_linker_1, # of connection points: 2
#     Edge 37, Type (0, 0), BuildingBlock: KIFKEQ_clean_linker_1, # of connection points: 2
#     Edge 38, Type (0, 0), BuildingBlock: KIFKEQ_clean_linker_1, # of connection points: 2
#     Edge 39, Type (0, 0), BuildingBlock: KIFKEQ_clean_linker_1, # of connection points: 2
#     Edge 40, Type (0, 0), BuildingBlock: KIFKEQ_clean_linker_1, # of connection points: 2
#     Edge 41, Type (0, 0), BuildingBlock: KIFKEQ_clean_linker_1, # of connection points: 2
#     Edge 42, Type (0, 0), BuildingBlock: KIFKEQ_clean_linker_1, # of connection points: 2
#     Edge 43, Type (0, 0), BuildingBlock: KIFKEQ_clean_linker_1, # of connection points: 2
#     Edge 44, Type (0, 0), BuildingBlock: KIFKEQ_clean_linker_1, # of connection points: 2
#     Edge 45, Type (0, 0), BuildingBlock: KIFKEQ_clean_linker_1, # of connection points: 2
#     Edge 46, Type (0, 0), BuildingBlock: KIFKEQ_clean_linker_1, # of connection points: 2
#     Edge 47, Type (0, 0), BuildingBlock: KIFKEQ_clean_linker_1, # of connection points: 2
#     Edge 48, Type (0, 0), BuildingBlock: KIFKEQ_clean_linker_1, # of connection points: 2
#     Edge 49, Type (0, 0), BuildingBlock: KIFKEQ_clean_linker_1, # of connection points: 2
#     Edge 50, Type (0, 0), BuildingBlock: KIFKEQ_clean_linker_1, # of connection points: 2
#     Edge 51, Type (0, 0), BuildingBlock: KIFKEQ_clean_linker_1, # of connection points: 2
#     Edge 52, Type (0, 0), BuildingBlock: KIFKEQ_clean_linker_1, # of connection points: 2
#     Edge 53, Type (0, 0), BuildingBlock: KIFKEQ_clean_linker_1, # of connection points: 2
#     Edge 54, Type (0, 0), BuildingBlock: KIFKEQ_clean_linker_1, # of connection points: 2
#     Edge 55, Type (0, 0), BuildingBlock: KIFKEQ_clean_linker_1, # of connection points: 2
#     Edge 56, Type (0, 0), BuildingBlock: KIFKEQ_clean_linker_1, # of connection points: 2
#     Edge 57, Type (0, 0), BuildingBlock: KIFKEQ_clean_linker_1, # of connection points: 2
#     Edge 58, Type (0, 0), BuildingBlock: KIFKEQ_clean_linker_1, # of connection points: 2
#     Edge 59, Type (0, 0), BuildingBlock: KIFKEQ_clean_linker_1, # of connection points: 2
#     Edge 60, Type (0, 0), BuildingBlock: KIFKEQ_clean_linker_1, # of connection points: 2
#     Edge 61, Type (0, 0), BuildingBlock: KIFKEQ_clean_linker_1, # of connection points: 2
#     Edge 62, Type (0, 0), BuildingBlock: KIFKEQ_clean_linker_1, # of connection points: 2
#     Edge 63, Type (0, 0), BuildingBlock: KIFKEQ_clean_linker_1, # of connection points: 2
#     Edge 64, Type (0, 0), BuildingBlock: KIFKEQ_clean_linker_1, # of connection points: 2
#     Edge 65, Type (0, 0), BuildingBlock: KIFKEQ_clean_linker_1, # of connection points: 2
#     Edge 66, Type (0, 0), BuildingBlock: KIFKEQ_clean_linker_1, # of connection points: 2
#     Edge 67, Type (0, 0), BuildingBlock: KIFKEQ_clean_linker_1, # of connection points: 2
#     Edge 68, Type (0, 0), BuildingBlock: KIFKEQ_clean_linker_1, # of connection points: 2
#     Edge 69, Type (0, 0), BuildingBlock: KIFKEQ_clean_linker_1, # of connection points: 2
#     Edge 70, Type (0, 0), BuildingBlock: KIFKEQ_clean_linker_1, # of connection points: 2
#     Edge 71, Type (0, 0), BuildingBlock: KIFKEQ_clean_linker_1, # of connection points: 2
#     Edge 72, Type (0, 0), BuildingBlock: KIFKEQ_clean_linker_1, # of connection points: 2
#     Edge 73, Type (0, 0), BuildingBlock: KIFKEQ_clean_linker_1, # of connection points: 2
#     Edge 74, Type (0, 0), BuildingBlock: KIFKEQ_clean_linker_1, # of connection points: 2
#     Edge 75, Type (0, 0), BuildingBlock: KIFKEQ_clean_linker_1, # of connection points: 2
#     Edge 76, Type (0, 0), BuildingBlock: KIFKEQ_clean_linker_1, # of connection points: 2
#     Edge 77, Type (0, 0), BuildingBlock: KIFKEQ_clean_linker_1, # of connection points: 2
#     Edge 78, Type (0, 0), BuildingBlock: KIFKEQ_clean_linker_1, # of connection points: 2
#     Edge 79, Type (0, 0), BuildingBlock: KIFKEQ_clean_linker_1, # of connection points: 2
#     Edge 80, Type (0, 0), BuildingBlock: KIFKEQ_clean_linker_1, # of connection points: 2
#     Edge 81, Type (0, 0), BuildingBlock: KIFKEQ_clean_linker_1, # of connection points: 2
#     Edge 82, Type (0, 0), BuildingBlock: KIFKEQ_clean_linker_1, # of connection points: 2
#     Edge 83, Type (0, 0), BuildingBlock: KIFKEQ_clean_linker_1, # of connection points: 2
#     Edge 84, Type (0, 0), BuildingBlock: KIFKEQ_clean_linker_1, # of connection points: 2
#     Edge 85, Type (0, 0), BuildingBlock: KIFKEQ_clean_linker_1, # of connection points: 2
#     Edge 86, Type (0, 0), BuildingBlock: KIFKEQ_clean_linker_1, # of connection points: 2
#     Edge 87, Type (0, 0), BuildingBlock: KIFKEQ_clean_linker_1, # of connection points: 2
#     Edge 88, Type (0, 0), BuildingBlock: KIFKEQ_clean_linker_1, # of connection points: 2
#     Edge 89, Type (0, 0), BuildingBlock: KIFKEQ_clean_linker_1, # of connection points: 2
#     Edge 90, Type (0, 0), BuildingBlock: KIFKEQ_clean_linker_1, # of connection points: 2
#     Edge 91, Type (0, 0), BuildingBlock: KIFKEQ_clean_linker_1, # of connection points: 2
#     Edge 92, Type (0, 0), BuildingBlock: KIFKEQ_clean_linker_1, # of connection points: 2
#     Edge 93, Type (0, 0), BuildingBlock: KIFKEQ_clean_linker_1, # of connection points: 2
#     Edge 94, Type (0, 0), BuildingBlock: KIFKEQ_clean_linker_1, # of connection points: 2
#     Edge 95, Type (0, 0), BuildingBlock: KIFKEQ_clean_linker_1, # of connection points: 2
#     Edge 96, Type (0, 0), BuildingBlock: KIFKEQ_clean_linker_1, # of connection points: 2
#     Edge 97, Type (0, 0), BuildingBlock: KIFKEQ_clean_linker_1, # of connection points: 2
#     Edge 98, Type (0, 0), BuildingBlock: KIFKEQ_clean_linker_1, # of connection points: 2
#     Edge 99, Type (0, 0), BuildingBlock: KIFKEQ_clean_linker_1, # of connection points: 2
#     Edge 100, Type (0, 0), BuildingBlock: KIFKEQ_clean_linker_1, # of connection points: 2
#     Edge 101, Type (0, 0), BuildingBlock: KIFKEQ_clean_linker_1, # of connection points: 2
#     Edge 102, Type (0, 0), BuildingBlock: KIFKEQ_clean_linker_1, # of connection points: 2
#     Edge 103, Type (0, 0), BuildingBlock: KIFKEQ_clean_linker_1, # of connection points: 2
#     Edge 104, Type (0, 0), BuildingBlock: KIFKEQ_clean_linker_1, # of connection points: 2
#     Edge 105, Type (0, 0), BuildingBlock: KIFKEQ_clean_linker_1, # of connection points: 2
#     Edge 106, Type (0, 0), BuildingBlock: KIFKEQ_clean_linker_1, # of connection points: 2
#     Edge 107, Type (0, 0), BuildingBlock: KIFKEQ_clean_linker_1, # of connection points: 2
#     Edge 108, Type (0, 0), BuildingBlock: KIFKEQ_clean_linker_1, # of connection points: 2
#     Edge 109, Type (0, 0), BuildingBlock: KIFKEQ_clean_linker_1, # of connection points: 2
#     Edge 110, Type (0, 0), BuildingBlock: KIFKEQ_clean_linker_1, # of connection points: 2
#     Edge 111, Type (0, 0), BuildingBlock: KIFKEQ_clean_linker_1, # of connection points: 2
#     Edge 112, Type (0, 0), BuildingBlock: KIFKEQ_clean_linker_1, # of connection points: 2
#     Edge 113, Type (0, 0), BuildingBlock: KIFKEQ_clean_linker_1, # of connection points: 2
#     Edge 114, Type (0, 0), BuildingBlock: KIFKEQ_clean_linker_1, # of connection points: 2
#     Edge 115, Type (0, 0), BuildingBlock: KIFKEQ_clean_linker_1, # of connection points: 2
#     Edge 116, Type (0, 0), BuildingBlock: KIFKEQ_clean_linker_1, # of connection points: 2
#     Edge 117, Type (0, 0), BuildingBlock: KIFKEQ_clean_linker_1, # of connection points: 2
#     Edge 118, Type (0, 0), BuildingBlock: KIFKEQ_clean_linker_1, # of connection points: 2
#     Edge 119, Type (0, 0), BuildingBlock: KIFKEQ_clean_linker_1, # of connection points: 2
#     Edge 120, Type (0, 0), BuildingBlock: KIFKEQ_clean_linker_1, # of connection points: 2
#     Edge 121, Type (0, 0), BuildingBlock: KIFKEQ_clean_linker_1, # of connection points: 2
#     Edge 122, Type (0, 0), BuildingBlock: KIFKEQ_clean_linker_1, # of connection points: 2
#     Edge 123, Type (0, 0), BuildingBlock: KIFKEQ_clean_linker_1, # of connection points: 2
#     Edge 124, Type (0, 0), BuildingBlock: KIFKEQ_clean_linker_1, # of connection points: 2
#     Edge 125, Type (0, 0), BuildingBlock: KIFKEQ_clean_linker_1, # of connection points: 2
#     Edge 126, Type (0, 0), BuildingBlock: KIFKEQ_clean_linker_1, # of connection points: 2
#     Edge 127, Type (0, 0), BuildingBlock: KIFKEQ_clean_linker_1, # of connection points: 2
# Relax obj value: 0.345
# Max RMSD: 0.292
# Mean RMSD: 0.230
data_MOF--net-wip--node1-BETFAJ_clean_sbu_0--edge1-KIFKEQ_clean_linker_1
_symmetry_space_group_name_H-M    P1
_symmetry_Int_Tables_number       1
_symmetry_cell_setting            triclinic
loop_
_symmetry_equiv_pos_as_xyz
'x, y, z'
_cell_length_a     67.22491
_cell_length_b     63.656046
_cell_length_c     35.644708
_cell_angle_alpha  94.423504
_cell_angle_beta   85.964265
_cell_angle_gamma 88.835825
loop_
_atom_site_label
_atom_site_type_symbol
_atom_site_fract_x
_atom_site_fract_y
_atom_site_fract_z
_atom_type_partial_charge
Sm0 Sm 0.05738 0.40071 0.12631 0.0
Sm1 Sm 0.081 0.43199 0.07951 0.0
C2 C 0.04255 0.37072 0.16641 0.0
C3 C 0.03553 0.37116 0.20684 0.0
C4 C 0.04239 0.35581 0.2294 0.0
C5 C 0.03691 0.35702 0.26823 0.0
C6 C 0.02445 0.37365 0.28535 0.0
C7 C 0.01747 0.38887 0.2625 0.0
C8 C 0.02299 0.38769 0.22382 0.0
C9 C 0.04261 0.44076 0.1386 0.0
C10 C 0.08409 0.43678 0.16939 0.0
C11 C 0.09499 0.45829 0.02976 0.0
C12 C 0.0911 0.46751 0.99337 0.0
C13 C 0.08454 0.48864 0.9932 0.0
C14 C 0.08276 0.49806 0.95911 0.0
C15 C 0.08768 0.48672 0.92398 0.0
C16 C 0.09399 0.46548 0.92419 0.0
C17 C 0.09567 0.45603 0.95827 0.0
C18 C 0.10381 0.40001 0.10668 0.0
C19 C 0.04683 0.4034 0.03811 0.0
O20 O 0.06174 0.37285 0.15929 0.0
O21 O 0.03182 0.38159 0.14504 0.0
O22 O 0.049 0.43274 0.10609 0.0
O23 O 0.04274 0.42734 0.16402 0.0
O24 O 0.07723 0.41738 0.16919 0.0
O25 O 0.08439 0.44762 0.13906 0.0
O26 O 0.08376 0.46458 0.06038 0.0
O27 O 0.10011 0.43825 0.02838 0.0
O28 O 0.0869 0.39786 0.09311 0.0
O29 O 0.10985 0.41884 0.10135 0.0
O30 O 0.06112 0.41717 0.03536 0.0
O31 O 0.04273 0.39409 0.0696 0.0
H32 H 0.05229 0.34308 0.2171 0.0
H33 H 0.04281 0.34516 0.28495 0.0
H34 H 0.00763 0.40172 0.27445 0.0
H35 H 0.01758 0.39992 0.20733 0.0
H36 H 0.08118 0.4981 1.01956 0.0
H37 H 0.07809 0.5145 0.96038 0.0
H38 H 0.09766 0.45606 0.89791 0.0
H39 H 0.10092 0.43978 0.95701 0.0
Sm40 Sm 0.8238 0.81157 0.38535 0.0
Sm41 Sm 0.79553 0.84106 0.34686 0.0
C42 C 0.84784 0.79483 0.43187 0.0
C43 C 0.84677 0.78935 0.47188 0.0
C44 C 0.85375 0.80326 0.50037 0.0
C45 C 0.85324 0.79787 0.53785 0.0
C46 C 0.84581 0.77838 0.54787 0.0
C47 C 0.8388 0.76451 0.51934 0.0
C48 C 0.83932 0.76989 0.48189 0.0
C49 C 0.78745 0.79442 0.37113 0.0
C50 C 0.79122 0.844 0.43759 0.0
C51 C 0.77023 0.85896 0.30375 0.0
C52 C 0.76245 0.85797 0.26573 0.0
C53 C 0.76771 0.8415 0.23804 0.0
C54 C 0.75972 0.84103 0.2025 0.0
C55 C 0.7462 0.85697 0.19403 0.0
C56 C 0.74127 0.87353 0.22189 0.0
C57 C 0.74929 0.874 0.25717 0.0
C58 C 0.82919 0.85907 0.37389 0.0
C59 C 0.82533 0.80585 0.29615 0.0
O60 O 0.84755 0.81484 0.42582 0.0
O61 O 0.83748 0.78361 0.40832 0.0
O62 O 0.79037 0.81332 0.38202 0.0
O63 O 0.80441 0.78417 0.36582 0.0
O64 O 0.80773 0.83212 0.43511 0.0
O65 O 0.78181 0.8481 0.40747 0.0
O66 O 0.76528 0.84401 0.32564 0.0
O67 O 0.78863 0.86486 0.30663 0.0
O68 O 0.82844 0.8411 0.35637 0.0
O69 O 0.81211 0.86898 0.37368 0.0
O70 O 0.80815 0.81651 0.29997 0.0
O71 O 0.83671 0.80441 0.32461 0.0
H72 H 0.85969 0.81833 0.49369 0.0
H73 H 0.85858 0.80908 0.55903 0.0
H74 H 0.83327 0.74924 0.52575 0.0
H75 H 0.83402 0.75865 0.46073 0.0
H76 H 0.77784 0.82893 0.244 0.0
H77 H 0.76377 0.82794 0.18199 0.0
H78 H 0.73124 0.88628 0.2164 0.0
H79 H 0.74511 0.88694 0.27797 0.0
Sm80 Sm 0.44035 0.58579 0.66317 0.0
Sm81 Sm 0.41348 0.55935 0.61635 0.0
C82 C 0.45796 0.6089 0.71579 0.0
C83 C 0.45911 0.61021 0.75687 0.0
C84 C 0.44334 0.60403 0.7812 0.0
C85 C 0.44587 0.60313 0.81974 0.0
C86 C 0.46428 0.60817 0.83439 0.0
C87 C 0.47985 0.61461 0.80972 0.0
C88 C 0.47725 0.61569 0.77147 0.0
C89 C 0.4605 0.55116 0.62652 0.0
C90 C 0.41642 0.54637 0.70044 0.0
C91 C 0.39599 0.53673 0.56215 0.0
C92 C 0.39891 0.52696 0.52253 0.0
C93 C 0.40855 0.5373 0.49308 0.0
C94 C 0.41031 0.52783 0.45581 0.0
C95 C 0.4025 0.50775 0.44692 0.0
C96 C 0.39286 0.49757 0.47668 0.0
C97 C 0.39114 0.507 0.51376 0.0
C98 C 0.39308 0.58826 0.66941 0.0
C99 C 0.44616 0.5903 0.57466 0.0
O100 O 0.44124 0.61469 0.7025 0.0
O101 O 0.46593 0.59182 0.69795 0.0
O102 O 0.44278 0.55126 0.64117 0.0
O103 O 0.46684 0.57026 0.62735 0.0
O104 O 0.42524 0.56464 0.70626 0.0
O105 O 0.41243 0.53886 0.66627 0.0
O106 O 0.40577 0.52831 0.58799 0.0
O107 O 0.39439 0.55732 0.56754 0.0
O108 O 0.40885 0.59192 0.64913 0.0
O109 O 0.38643 0.57018 0.6574 0.0
O110 O 0.43552 0.57314 0.57242 0.0
O111 O 0.44763 0.6011 0.60746 0.0
H112 H 0.42929 0.59944 0.77031 0.0
H113 H 0.43349 0.59829 0.83792 0.0
H114 H 0.49437 0.61815 0.81963 0.0
H115 H 0.48968 0.62014 0.75296 0.0
H116 H 0.41469 0.5527 0.49881 0.0
H117 H 0.41805 0.53618 0.43407 0.0
H118 H 0.38629 0.48235 0.47132 0.0
H119 H 0.38346 0.49872 0.53571 0.0
Sm120 Sm 0.67569 0.18462 0.84826 0.0
Sm121 Sm 0.70705 0.15424 0.87643 0.0
C122 C 0.65434 0.21062 0.81145 0.0
C123 C 0.65583 0.22044 0.77541 0.0
C124 C 0.67394 0.22026 0.75325 0.0
C125 C 0.67489 0.22916 0.71846 0.0
C126 C 0.65775 0.2384 0.70532 0.0
C127 C 0.63966 0.23846 0.72776 0.0
C128 C 0.63873 0.22955 0.76245 0.0
C129 C 0.66002 0.14976 0.87807 0.0
C130 C 0.7072 0.15594 0.787 0.0
C131 C 0.72566 0.12502 0.91092 0.0
C132 C 0.73179 0.12259 0.94907 0.0
C133 C 0.73402 0.10238 0.96147 0.0
C134 C 0.74045 0.09984 0.99733 0.0
C135 C 0.74487 0.1175 1.02117 0.0
C136 C 0.74229 0.13777 1.00882 0.0
C137 C 0.7357 0.1403 0.97313 0.0
C138 C 0.72167 0.19146 0.85319 0.0
C139 C 0.68345 0.19083 0.93834 0.0
O140 O 0.66663 0.21709 0.83655 0.0
O141 O 0.65225 0.19018 0.8091 0.0
O142 O 0.67614 0.14968 0.85735 0.0
O143 O 0.65119 0.16812 0.88128 0.0
O144 O 0.69661 0.17373 0.79501 0.0
O145 O 0.71007 0.14292 0.81336 0.0
O146 O 0.70648 0.125 0.9069 0.0
O147 O 0.73492 0.13928 0.89231 0.0
O148 O 0.70531 0.18893 0.87121 0.0
O149 O 0.73225 0.17401 0.85016 0.0
O150 O 0.69484 0.17335 0.93252 0.0
O151 O 0.67544 0.19949 0.90993 0.0
H152 H 0.6873 0.21325 0.76286 0.0
H153 H 0.6891 0.22905 0.70211 0.0
H154 H 0.62613 0.24516 0.7183 0.0
H155 H 0.62459 0.22965 0.77908 0.0
H156 H 0.73099 0.08857 0.94326 0.0
H157 H 0.74238 0.08405 1.00609 0.0
H158 H 0.74528 0.15166 0.02687 0.0
H159 H 0.73381 0.15607 0.96419 0.0
Sm160 Sm 0.04989 0.59461 0.63788 0.0
Sm161 Sm 0.07177 0.55807 0.58742 0.0
C162 C 0.0309 0.62027 0.69109 0.0
C163 C 0.02453 0.61975 0.73134 0.0
C164 C 0.02578 0.60101 0.74944 0.0
C165 C 0.0198 0.60079 0.78783 0.0
C166 C 0.01248 0.61934 0.80883 0.0
C167 C 0.01136 0.63808 0.79041 0.0
C168 C 0.01732 0.63826 0.75205 0.0
C169 C 0.08127 0.60566 0.59003 0.0
C170 C 0.07627 0.55915 0.67937 0.0
C171 C 0.09723 0.53369 0.54284 0.0
C172 C 0.09711 0.52368 0.50436 0.0
C173 C 0.07906 0.5207 0.48746 0.0
C174 C 0.07902 0.51167 0.45049 0.0
C175 C 0.09706 0.50565 0.42967 0.0
C176 C 0.11514 0.50894 0.44657 0.0
C177 C 0.11515 0.51787 0.48369 0.0
C178 C 0.03378 0.54967 0.61412 0.0
C179 C 0.03693 0.58591 0.55186 0.0
O180 O 0.0217 0.60761 0.6676 0.0
O181 O 0.0502 0.6207 0.68284 0.0
O182 O 0.08093 0.58999 0.60945 0.0
O183 O 0.06483 0.61673 0.59659 0.0
O184 O 0.0642 0.57601 0.68289 0.0
O185 O 0.08231 0.54989 0.64569 0.0
O186 O 0.09774 0.55429 0.54531 0.0
O187 O 0.08471 0.52639 0.56825 0.0
O188 O 0.04655 0.55975 0.63165 0.0
O189 O 0.04134 0.54244 0.58086 0.0
O190 O 0.05428 0.57549 0.54445 0.0
O191 O 0.03036 0.59219 0.58696 0.0
H192 H 0.03135 0.58656 0.73391 0.0
H193 H 0.02069 0.58603 0.80092 0.0
H194 H 0.00614 0.65273 0.80576 0.0
H195 H 0.01638 0.6529 0.73857 0.0
H196 H 0.06499 0.52545 0.5028 0.0
H197 H 0.06488 0.50962 0.43804 0.0
H198 H 0.12925 0.50433 0.4313 0.0
H199 H 0.12922 0.52027 0.49625 0.0
Sm200 Sm 0.65176 0.80422 0.90211 0.0
Sm201 Sm 0.68137 0.83253 0.85386 0.0
C202 C 0.6324 0.78236 0.95281 0.0
C203 C 0.63452 0.77541 0.99094 0.0
C204 C 0.65185 0.77919 1.00996 0.0
C205 C 0.65345 0.77236 0.04619 0.0
C206 C 0.63775 0.7616 0.06406 0.0
C207 C 0.6204 0.75803 0.04474 0.0
C208 C 0.61884 0.76484 1.00864 0.0
C209 C 0.63429 0.83213 0.85695 0.0
C210 C 0.68038 0.83878 0.94599 0.0
C211 C 0.69356 0.86116 0.80785 0.0
C212 C 0.70535 0.86278 0.7718 0.0
C213 C 0.69584 0.8701 0.74134 0.0
C214 C 0.70616 0.87071 0.70612 0.0
C215 C 0.72633 0.86418 0.70066 0.0
C216 C 0.736 0.85741 0.73155 0.0
C217 C 0.7256 0.85664 0.76678 0.0
C218 C 0.70229 0.79865 0.87665 0.0
C219 C 0.66335 0.78833 0.81538 0.0
O220 O 0.64475 0.77369 0.92557 0.0
O221 O 0.62926 0.8026 0.95044 0.0
O222 O 0.64918 0.83583 0.87633 0.0
O223 O 0.62723 0.81392 0.86405 0.0
O224 O 0.66934 0.8219 0.94694 0.0
O225 O 0.68488 0.84788 0.91427 0.0
O226 O 0.67685 0.8512 0.80538 0.0
O227 O 0.70291 0.85696 0.83756 0.0
O228 O 0.68399 0.80312 0.88313 0.0
O229 O 0.71034 0.812 0.85463 0.0
O230 O 0.67001 0.80746 0.81005 0.0
O231 O 0.65844 0.78193 0.84916 0.0
H232 H 0.66414 0.78735 0.99678 0.0
H233 H 0.66709 0.77525 0.05996 0.0
H234 H 0.60786 0.75019 0.05772 0.0
H235 H 0.6053 0.76188 0.99452 0.0
H236 H 0.68021 0.87494 0.74459 0.0
H237 H 0.69814 0.87572 0.68292 0.0
H238 H 0.75161 0.85258 0.72849 0.0
H239 H 0.73334 0.85099 0.78983 0.0
Sm240 Sm 0.45377 0.40616 0.11981 0.0
Sm241 Sm 0.42576 0.43839 0.08658 0.0
C242 C 0.47715 0.38381 0.15928 0.0
C243 C 0.48518 0.38529 0.19659 0.0
C244 C 0.48379 0.4042 0.21973 0.0
C245 C 0.49113 0.4051 0.25559 0.0
C246 C 0.49982 0.38704 0.26888 0.0
C247 C 0.50122 0.3682 0.24537 0.0
C248 C 0.49397 0.36736 0.20954 0.0
C249 C 0.42477 0.38842 0.07736 0.0
C250 C 0.42259 0.43655 0.17835 0.0
C251 C 0.40054 0.4588 0.04754 0.0
C252 C 0.39658 0.45893 1.00761 0.0
C253 C 0.41014 0.44896 0.97983 0.0
C254 C 0.40904 0.45276 0.9421 0.0
C255 C 0.39471 0.46712 0.93155 0.0
C256 C 0.3802 0.47589 0.95903 0.0
C257 C 0.38115 0.47179 0.99689 0.0
C258 C 0.45493 0.45664 0.12518 0.0
C259 C 0.46549 0.41646 0.03374 0.0
O260 O 0.48393 0.39715 0.13558 0.0
O261 O 0.4579 0.3812 0.15889 0.0
O262 O 0.42252 0.40476 0.09991 0.0
O263 O 0.44233 0.37998 0.07891 0.0
O264 O 0.43905 0.42467 0.1732 0.0
O265 O 0.41267 0.44179 0.14929 0.0
O266 O 0.39544 0.44216 0.0651 0.0
O267 O 0.4181 0.46561 0.05534 0.0
O268 O 0.45723 0.43966 0.10439 0.0
O269 O 0.43749 0.46541 0.12331 0.0
O270 O 0.44762 0.42599 0.03455 0.0
O271 O 0.47237 0.40952 0.06448 0.0
H272 H 0.47688 0.41817 0.21023 0.0
H273 H 0.48965 0.41978 0.27318 0.0
H274 H 0.50805 0.35411 0.2546 0.0
H275 H 0.49515 0.35265 0.19199 0.0
H276 H 0.4224 0.43931 0.98744 0.0
H277 H 0.42024 0.44553 0.9215 0.0
H278 H 0.36907 0.48714 0.95182 0.0
H279 H 0.37069 0.47979 1.01803 0.0
Sm280 Sm 0.82732 0.17832 0.49338 0.0
Sm281 Sm 0.80001 0.14733 0.45269 0.0
C282 C 0.84256 0.20544 0.54368 0.0
C283 C 0.83743 0.21561 0.58257 0.0
C284 C 0.83759 0.23767 0.58902 0.0
C285 C 0.83365 0.2476 0.62549 0.0
C286 C 0.82947 0.23577 0.65688 0.0
C287 C 0.82908 0.21363 0.65022 0.0
C288 C 0.833 0.20371 0.61368 0.0
C289 C 0.84804 0.14791 0.44437 0.0
C290 C 0.7958 0.14903 0.54296 0.0
C291 C 0.78368 0.11947 0.40579 0.0
C292 C 0.78581 0.11338 0.3652 0.0
C293 C 0.80002 0.12294 0.34187 0.0
C294 C 0.79956 0.12023 0.30271 0.0
C295 C 0.78479 0.10798 0.28632 0.0
C296 C 0.77131 0.09744 0.30985 0.0
C297 C 0.77179 0.10019 0.34904 0.0
C298 C 0.78058 0.18423 0.48325 0.0
C299 C 0.82254 0.18458 0.40613 0.0
O300 O 0.83204 0.21134 0.51652 0.0
O301 O 0.84704 0.18519 0.54019 0.0
O302 O 0.83232 0.14466 0.46534 0.0
O303 O 0.85471 0.1663 0.45476 0.0
O304 O 0.80646 0.16611 0.54083 0.0
O305 O 0.7936 0.13631 0.51255 0.0
O306 O 0.79854 0.11471 0.42564 0.0
O307 O 0.77644 0.13853 0.41466 0.0
O308 O 0.798 0.18235 0.46794 0.0
O309 O 0.77284 0.16569 0.48333 0.0
O310 O 0.81491 0.16549 0.40459 0.0
O311 O 0.82615 0.19487 0.4386 0.0
H312 H 0.84092 0.24731 0.56573 0.0
H313 H 0.83377 0.26464 0.62896 0.0
H314 H 0.82617 0.20382 0.67339 0.0
H315 H 0.83274 0.18667 0.60991 0.0
H316 H 0.81086 0.13326 0.35395 0.0
H317 H 0.81029 0.12835 0.28531 0.0
H318 H 0.75963 0.08808 0.29811 0.0
H319 H 0.76059 0.09287 0.36672 0.0
Sm320 Sm 0.91066 0.56714 0.29822 0.0
Sm321 Sm 0.93578 0.59521 0.24832 0.0
C322 C 0.89532 0.5427 0.35007 0.0
C323 C 0.89877 0.53343 0.38672 0.0
C324 C 0.90659 0.51276 0.38721 0.0
C325 C 0.90799 0.50328 0.42138 0.0
C326 C 0.90148 0.51405 0.45633 0.0
C327 C 0.89386 0.53483 0.4558 0.0
C328 C 0.89251 0.54433 0.42164 0.0
C329 C 0.88937 0.59896 0.26706 0.0
C330 C 0.94573 0.59517 0.33751 0.0
C331 C 0.95298 0.62358 0.20711 0.0
C332 C 0.95986 0.62383 0.16668 0.0
C333 C 0.94962 0.63634 0.14316 0.0
C334 C 0.95532 0.63592 0.10457 0.0
C335 C 0.97147 0.62302 0.0886 0.0
C336 C 0.9819 0.61075 0.11232 0.0
C337 C 0.97616 0.61112 0.15085 0.0
C338 C 0.94912 0.55442 0.24249 0.0
C339 C 0.90784 0.55957 0.20815 0.0
O340 O 0.90585 0.53529 0.31928 0.0
O341 O 0.89162 0.56304 0.35073 0.0
O342 O 0.90625 0.60081 0.28081 0.0
O343 O 0.88254 0.58064 0.27389 0.0
O344 O 0.93078 0.58231 0.34173 0.0
O345 O 0.95036 0.60304 0.30483 0.0
O346 O 0.9337 0.6231 0.2148 0.0
O347 O 0.9629 0.61133 0.22747 0.0
O348 O 0.94306 0.56437 0.27357 0.0
O349 O 0.94905 0.56624 0.21455 0.0
O350 O 0.91545 0.57855 0.20625 0.0
O351 O 0.90714 0.54985 0.23982 0.0
H352 H 0.91125 0.50366 0.36102 0.0
H353 H 0.91368 0.48719 0.4202 0.0
H354 H 0.88891 0.54386 0.48189 0.0
H355 H 0.88619 0.56017 0.42262 0.0
H356 H 0.93697 0.64624 0.15454 0.0
H357 H 0.94679 0.64539 0.08713 0.0
H358 H 0.9946 0.6009 0.10116 0.0
H359 H 0.98444 0.60129 0.1681 0.0
Sm360 Sm 0.19972 0.16176 0.03008 0.0
Sm361 Sm 0.16993 0.18779 0.98911 0.0
C362 C 0.22433 0.14513 0.07594 0.0
C363 C 0.23211 0.1462 0.11424 0.0
C364 C 0.25196 0.15192 0.11852 0.0
C365 C 0.2605 0.15061 0.15305 0.0
C366 C 0.2495 0.14339 0.18442 0.0
C367 C 0.22942 0.13822 0.18046 0.0
C368 C 0.22086 0.13952 0.14579 0.0
C369 C 0.17108 0.13972 0.99268 0.0
C370 C 0.16382 0.19077 0.07843 0.0
C371 C 0.14623 0.20207 0.9394 0.0
C372 C 0.14764 0.20711 0.89923 0.0
C373 C 0.13417 0.19832 0.87441 0.0
C374 C 0.1345 0.20382 0.83699 0.0
C375 C 0.14831 0.2183 0.82338 0.0
C376 C 0.1621 0.2267 0.84813 0.0
C377 C 0.16179 0.22117 0.88551 0.0
C378 C 0.20012 0.21116 1.01793 0.0
C379 C 0.21024 0.16435 0.94182 0.0
O380 O 0.22954 0.15971 0.05345 0.0
O381 O 0.20615 0.13873 0.07192 0.0
O382 O 0.1683 0.15664 1.01329 0.0
O383 O 0.18944 0.13308 0.99324 0.0
O384 O 0.18218 0.18278 0.0769 0.0
O385 O 0.15369 0.19135 0.04802 0.0
O386 O 0.14754 0.18221 0.94614 0.0
O387 O 0.1555 0.21429 0.96325 0.0
O388 O 0.20199 0.19263 1.00237 0.0
O389 O 0.18154 0.21733 1.01971 0.0
O390 O 0.19201 0.17256 0.94101 0.0
O391 O 0.21809 0.16089 0.97373 0.0
H392 H 0.26111 0.15694 0.09477 0.0
H393 H 0.27585 0.15514 0.15502 0.0
H394 H 0.22048 0.13246 0.20378 0.0
H395 H 0.20559 0.13478 0.14352 0.0
H396 H 0.1232 0.18734 0.88409 0.0
H397 H 0.12389 0.19667 0.81872 0.0
H398 H 0.17285 0.23802 0.83897 0.0
H399 H 0.17246 0.22818 0.90381 0.0
Sm400 Sm 0.59558 0.43733 0.75509 0.0
Sm401 Sm 0.56592 0.41422 0.70714 0.0
C402 C 0.61391 0.45832 0.81025 0.0
C403 C 0.611 0.46698 0.85061 0.0
C404 C 0.59295 0.46522 0.87249 0.0
C405 C 0.59066 0.47386 0.91032 0.0
C406 C 0.60636 0.48455 0.92743 0.0
C407 C 0.62442 0.48612 0.90519 0.0
C408 C 0.62666 0.47748 0.86752 0.0
C409 C 0.61319 0.40651 0.70207 0.0
C410 C 0.55931 0.40977 0.79585 0.0
C411 C 0.54658 0.39373 0.65384 0.0
C412 C 0.54774 0.39073 0.61244 0.0
C413 C 0.55669 0.4058 0.5904 0.0
C414 C 0.55495 0.40461 0.55147 0.0
C415 C 0.54426 0.38831 0.53391 0.0
C416 C 0.53625 0.37264 0.55586 0.0
C417 C 0.53794 0.37389 0.59484 0.0
C418 C 0.55034 0.45168 0.74281 0.0
C419 C 0.59564 0.44941 0.66971 0.0
O420 O 0.60399 0.46751 0.78543 0.0
O421 O 0.61515 0.43779 0.80331 0.0
O422 O 0.59669 0.40485 0.72164 0.0
O423 O 0.62201 0.42314 0.71544 0.0
O424 O 0.57213 0.42514 0.79843 0.0
O425 O 0.55626 0.39994 0.76284 0.0
O426 O 0.56052 0.38477 0.67139 0.0
O427 O 0.54185 0.41283 0.66807 0.0
O428 O 0.56795 0.44843 0.72849 0.0
O429 O 0.54119 0.43392 0.7421 0.0
O430 O 0.58502 0.43227 0.66416 0.0
O431 O 0.59954 0.45699 0.70398 0.0
H432 H 0.58058 0.4572 0.86032 0.0
H433 H 0.57659 0.47195 0.92622 0.0
H434 H 0.63681 0.49444 0.91659 0.0
H435 H 0.64073 0.47918 0.85138 0.0
H436 H 0.56429 0.41895 0.60351 0.0
H437 H 0.56151 0.41676 0.53524 0.0
H438 H 0.52779 0.35999 0.54324 0.0
H439 H 0.53086 0.36219 0.61144 0.0
Sm440 Sm 0.29105 0.84601 0.48514 0.0
Sm441 Sm 0.30494 0.80346 0.51239 0.0
C442 C 0.28695 0.88042 0.44909 0.0
C443 C 0.27774 0.88257 0.41345 0.0
C444 C 0.27818 0.90156 0.39604 0.0
C445 C 0.26985 0.90288 0.36131 0.0
C446 C 0.2611 0.88518 0.3436 0.0
C447 C 0.26052 0.8663 0.36162 0.0
C448 C 0.26879 0.86501 0.39614 0.0
C449 C 0.26202 0.81626 0.48832 0.0
C450 C 0.30637 0.80587 0.42158 0.0
C451 C 0.3085 0.76769 0.54464 0.0
C452 C 0.31208 0.76125 0.5826 0.0
C453 C 0.29657 0.76184 0.61127 0.0
C454 C 0.30014 0.7556 0.64694 0.0
C455 C 0.3193 0.74864 0.65473 0.0
C456 C 0.33481 0.74817 0.62608 0.0
C457 C 0.33121 0.7543 0.59036 0.0
C458 C 0.33521 0.83099 0.5002 0.0
C459 C 0.2835 0.83989 0.57508 0.0
O460 O 0.30335 0.86886 0.44612 0.0
O461 O 0.27467 0.8758 0.47718 0.0
O462 O 0.28018 0.81325 0.47884 0.0
O463 O 0.25808 0.83634 0.49263 0.0
O464 O 0.3035 0.82659 0.42894 0.0
O465 O 0.30495 0.79304 0.44911 0.0
O466 O 0.29126 0.77682 0.54041 0.0
O467 O 0.3234 0.77629 0.52638 0.0
O468 O 0.31788 0.8364 0.51461 0.0
O469 O 0.33731 0.81064 0.49692 0.0
O470 O 0.28916 0.82006 0.56612 0.0
O471 O 0.2852 0.85425 0.54996 0.0
H472 H 0.28513 0.91522 0.40903 0.0
H473 H 0.27066 0.91758 0.34794 0.0
H474 H 0.25362 0.85248 0.34907 0.0
H475 H 0.26831 0.85021 0.40928 0.0
H476 H 0.2816 0.76698 0.60618 0.0
H477 H 0.28777 0.75579 0.66815 0.0
H478 H 0.34979 0.74311 0.63124 0.0
H479 H 0.34345 0.75358 0.56879 0.0
Sm480 Sm 0.91725 0.43935 0.7914 0.0
Sm481 Sm 0.9433 0.40737 0.73869 0.0
C482 C 0.88961 0.45943 0.83826 0.0
C483 C 0.88942 0.46875 0.87733 0.0
C484 C 0.87171 0.47728 0.89597 0.0
C485 C 0.87155 0.48606 0.93325 0.0
C486 C 0.88914 0.48642 0.95253 0.0
C487 C 0.90686 0.4777 0.9336 0.0
C488 C 0.90698 0.46893 0.8964 0.0
C489 C 0.95341 0.45427 0.7675 0.0
C490 C 0.95566 0.41576 0.82472 0.0
C491 C 0.9646 0.38455 0.68433 0.0
C492 C 0.9708 0.38464 0.6438 0.0
C493 C 0.97348 0.40348 0.62622 0.0
C494 C 0.97956 0.40296 0.58768 0.0
C495 C 0.98299 0.38359 0.56597 0.0
C496 C 0.97996 0.36481 0.58382 0.0
C497 C 0.97398 0.36536 0.62226 0.0
C498 C 0.91519 0.39056 0.78746 0.0
C499 C 0.91293 0.43978 0.69931 0.0
O500 O 0.89157 0.43887 0.83399 0.0
O501 O 0.90065 0.46881 0.81318 0.0
O502 O 0.94253 0.44265 0.74787 0.0
O503 O 0.94488 0.45899 0.8011 0.0
O504 O 0.93728 0.4237 0.83283 0.0
O505 O 0.96282 0.41144 0.78929 0.0
O506 O 0.97238 0.39866 0.70746 0.0
O507 O 0.94566 0.38152 0.69294 0.0
O508 O 0.91247 0.40628 0.7688 0.0
O509 O 0.9329 0.38249 0.77879 0.0
O510 O 0.92663 0.42442 0.69491 0.0
O511 O 0.90595 0.44766 0.73347 0.0
H512 H 0.85799 0.47713 0.88171 0.0
H513 H 0.85761 0.49239 0.94708 0.0
H514 H 0.92074 0.47797 0.9473 0.0
H515 H 0.92081 0.46237 0.88242 0.0
H516 H 0.97097 0.41857 0.64229 0.0
H517 H 0.98187 0.41774 0.57506 0.0
H518 H 0.98201 0.34961 0.56801 0.0
H519 H 0.97182 0.35065 0.63521 0.0
Sm520 Sm 0.3127 0.15848 0.51885 0.0
Sm521 Sm 0.34325 0.18366 0.47622 0.0
C522 C 0.29144 0.1364 0.56649 0.0
C523 C 0.28871 0.13355 0.60687 0.0
C524 C 0.30249 0.14107 0.63215 0.0
C525 C 0.29801 0.14085 0.67109 0.0
C526 C 0.27961 0.13331 0.6852 0.0
C527 C 0.26626 0.12514 0.6594 0.0
C528 C 0.27081 0.12523 0.62068 0.0
C529 C 0.29586 0.18808 0.4779 0.0
C530 C 0.33249 0.20039 0.56197 0.0
C531 C 0.3634 0.20494 0.42525 0.0
C532 C 0.36103 0.21096 0.38639 0.0
C533 C 0.34263 0.20939 0.37007 0.0
C534 C 0.34053 0.21583 0.33366 0.0
C535 C 0.3568 0.224 0.31271 0.0
C536 C 0.37526 0.2252 0.32917 0.0
C537 C 0.37732 0.21878 0.36551 0.0
C538 C 0.35965 0.15714 0.52509 0.0
C539 C 0.31739 0.14797 0.42887 0.0
O540 O 0.30808 0.1292 0.5483 0.0
O541 O 0.28576 0.15483 0.55679 0.0
O542 O 0.311 0.19094 0.49662 0.0
O543 O 0.28874 0.16955 0.48169 0.0
O544 O 0.32409 0.18191 0.56554 0.0
O545 O 0.33868 0.20645 0.52865 0.0
O546 O 0.35086 0.21381 0.45183 0.0
O547 O 0.36683 0.18493 0.42924 0.0
O548 O 0.34554 0.15251 0.5042 0.0
O549 O 0.36693 0.17506 0.51676 0.0
O550 O 0.32796 0.16513 0.42886 0.0
O551 O 0.31169 0.13979 0.46077 0.0
H552 H 0.31635 0.14772 0.62184 0.0
H553 H 0.30873 0.14704 0.6901 0.0
H554 H 0.25179 0.11962 0.66898 0.0
H555 H 0.25992 0.11961 0.60149 0.0
H556 H 0.32981 0.20339 0.38563 0.0
H557 H 0.32604 0.2148 0.3223 0.0
H558 H 0.38825 0.23097 0.31387 0.0
H559 H 0.39168 0.22004 0.37741 0.0
Sm560 Sm 0.58385 0.56156 0.28808 0.0
Sm561 Sm 0.5496 0.58345 0.25137 0.0
C562 C 0.61344 0.55372 0.33089 0.0
C563 C 0.61622 0.5431 0.36557 0.0
C564 C 0.62193 0.55491 0.39781 0.0
C565 C 0.62346 0.54547 0.43165 0.0
C566 C 0.61949 0.52398 0.43374 0.0
C567 C 0.61429 0.51207 0.40119 0.0
C568 C 0.61261 0.52153 0.36746 0.0
C569 C 0.55552 0.53464 0.26715 0.0
C570 C 0.54266 0.58097 0.34148 0.0
C571 C 0.52018 0.59656 0.21248 0.0
C572 C 0.51306 0.59401 0.17448 0.0
C573 C 0.52343 0.58101 0.14575 0.0
C574 C 0.51718 0.57996 0.10905 0.0
C575 C 0.50033 0.59173 0.10072 0.0
C576 C 0.48965 0.60421 0.12997 0.0
C577 C 0.49602 0.60539 0.16651 0.0
C578 C 0.57893 0.60912 0.2791 0.0
C579 C 0.58388 0.55636 0.1957 0.0
O580 O 0.60246 0.571 0.33519 0.0
O581 O 0.60993 0.54192 0.30049 0.0
O582 O 0.55211 0.55335 0.28076 0.0
O583 O 0.57401 0.52875 0.2685 0.0
O584 O 0.56121 0.57288 0.34036 0.0
O585 O 0.53428 0.58483 0.31032 0.0
O586 O 0.51897 0.58015 0.23243 0.0
O587 O 0.53686 0.60658 0.21566 0.0
O588 O 0.58164 0.59157 0.26031 0.0
O589 O 0.56005 0.61418 0.28209 0.0
O590 O 0.56534 0.5638 0.20067 0.0
O591 O 0.59562 0.55656 0.22432 0.0
H592 H 0.62488 0.57155 0.39697 0.0
H593 H 0.62765 0.55499 0.45621 0.0
H594 H 0.61089 0.49554 0.40208 0.0
H595 H 0.60811 0.51201 0.34314 0.0
H596 H 0.53647 0.57194 0.15162 0.0
H597 H 0.52559 0.57006 0.08714 0.0
H598 H 0.47675 0.61362 0.12432 0.0
H599 H 0.48786 0.61551 0.18843 0.0
Sm600 Sm 0.19698 0.84279 0.91437 0.0
Sm601 Sm 0.16745 0.81499 0.87079 0.0
C602 C 0.21478 0.86866 0.96251 0.0
C603 C 0.2132 0.87542 1.00286 0.0
C604 C 0.19886 0.867 0.02757 0.0
C605 C 0.19944 0.87123 0.06656 0.0
C606 C 0.2145 0.88378 0.08136 0.0
C607 C 0.22822 0.89295 0.05621 0.0
C608 C 0.22755 0.88879 1.01731 0.0
C609 C 0.21337 0.80473 0.88171 0.0
C610 C 0.171 0.80686 0.9582 0.0
C611 C 0.15153 0.78985 0.81818 0.0
C612 C 0.1565 0.78049 0.77846 0.0
C613 C 0.16901 0.7624 0.77073 0.0
C614 C 0.1727 0.75306 0.73368 0.0
C615 C 0.16396 0.76141 0.70297 0.0
C616 C 0.15157 0.77962 0.71078 0.0
C617 C 0.14788 0.78894 0.74782 0.0
C618 C 0.14894 0.84597 0.9217 0.0
C619 C 0.20073 0.8441 0.82429 0.0
O620 O 0.20052 0.87484 0.94241 0.0
O621 O 0.22039 0.84899 0.95406 0.0
O622 O 0.19604 0.80823 0.89661 0.0
O623 O 0.22298 0.82226 0.8835 0.0
O624 O 0.1802 0.82512 0.96107 0.0
O625 O 0.16676 0.79764 0.92514 0.0
O626 O 0.16159 0.78287 0.84513 0.0
O627 O 0.14761 0.81021 0.8233 0.0
O628 O 0.16503 0.84813 0.90108 0.0
O629 O 0.14067 0.82866 0.90968 0.0
O630 O 0.18896 0.82776 0.82468 0.0
O631 O 0.20414 0.85524 0.85588 0.0
H632 H 0.18771 0.85657 1.01679 0.0
H633 H 0.18849 0.86415 0.08512 0.0
H634 H 0.24018 0.90242 0.06654 0.0
H635 H 0.23882 0.89527 0.99855 0.0
H636 H 0.1758 0.7552 0.79342 0.0
H637 H 0.18208 0.73894 0.72933 0.0
H638 H 0.14473 0.78683 0.68817 0.0
H639 H 0.13807 0.80274 0.75251 0.0
Sm640 Sm 0.55354 0.89967 0.62891 0.0
Sm641 Sm 0.57938 0.93451 0.58615 0.0
C642 C 0.54482 0.86843 0.67139 0.0
C643 C 0.53687 0.86789 0.71095 0.0
C644 C 0.54686 0.85571 0.73526 0.0
C645 C 0.54098 0.85684 0.77381 0.0
C646 C 0.52493 0.87017 0.78878 0.0
C647 C 0.5147 0.88205 0.76421 0.0
C648 C 0.52068 0.88102 0.72572 0.0
C649 C 0.53093 0.93612 0.62668 0.0
C650 C 0.5722 0.94116 0.67702 0.0
C651 C 0.5948 0.96102 0.53835 0.0
C652 C 0.59219 0.97002 0.50155 0.0
C653 C 0.57353 0.9714 0.48623 0.0
C654 C 0.57169 0.98033 0.4516 0.0
C655 C 0.58848 0.98803 0.4313 0.0
C656 C 0.60712 0.98639 0.44682 0.0
C657 C 0.60891 0.97753 0.48135 0.0
C658 C 0.60039 0.90386 0.62006 0.0
C659 C 0.54884 0.90215 0.53964 0.0
O660 O 0.56269 0.87597 0.66708 0.0
O661 O 0.53272 0.8751 0.64728 0.0
O662 O 0.54846 0.93238 0.61238 0.0
O663 O 0.52438 0.91943 0.64178 0.0
O664 O 0.5653 0.92173 0.67667 0.0
O665 O 0.57675 0.95079 0.64592 0.0
O666 O 0.58204 0.96693 0.56706 0.0
O667 O 0.60024 0.94106 0.53731 0.0
O668 O 0.58477 0.901 0.60225 0.0
O669 O 0.60651 0.92279 0.6156 0.0
O670 O 0.55947 0.91943 0.54173 0.0
O671 O 0.54663 0.88977 0.5678 0.0
H672 H 0.55956 0.84569 0.72456 0.0
H673 H 0.54906 0.84735 0.79193 0.0
H674 H 0.50247 0.89268 0.77492 0.0
H675 H 0.51294 0.89092 0.70775 0.0
H676 H 0.56039 0.96559 0.50103 0.0
H677 H 0.55712 0.98101 0.44056 0.0
H678 H 0.62037 0.99235 0.43266 0.0
H679 H 0.62347 0.9767 0.49248 0.0
Sm680 Sm 0.3283 0.30937 0.88303 0.0
Sm681 Sm 0.30361 0.33828 0.83672 0.0
C682 C 0.34988 0.29259 0.93377 0.0
C683 C 0.34815 0.2866 0.97353 0.0
C684 C 0.3597 0.2968 1.00048 0.0
C685 C 0.35931 0.29056 0.03744 0.0
C686 C 0.34743 0.2738 0.04851 0.0
C687 C 0.33568 0.26375 1.02158 0.0
C688 C 0.33602 0.27007 0.98463 0.0
C689 C 0.29183 0.29362 0.86596 0.0
C690 C 0.29554 0.34494 0.92693 0.0
C691 C 0.28076 0.35615 0.78931 0.0
C692 C 0.27399 0.35512 0.75051 0.0
C693 C 0.27207 0.33589 0.72907 0.0
C694 C 0.26403 0.33547 0.69366 0.0
C695 C 0.25773 0.35426 0.6789 0.0
C696 C 0.2602 0.37347 0.70022 0.0
C697 C 0.26821 0.37386 0.73552 0.0
C698 C 0.33807 0.3548 0.86302 0.0
C699 C 0.33239 0.2999 0.79365 0.0
O700 O 0.34959 0.31268 0.92839 0.0
O701 O 0.34037 0.28145 0.90872 0.0
O702 O 0.29537 0.3126 0.87507 0.0
O703 O 0.30832 0.28253 0.86396 0.0
O704 O 0.31171 0.33285 0.92863 0.0
O705 O 0.28779 0.34782 0.89462 0.0
O706 O 0.27457 0.34174 0.81137 0.0
O707 O 0.29914 0.36155 0.79405 0.0
O708 O 0.33621 0.33626 0.84873 0.0
O709 O 0.32169 0.36574 0.86117 0.0
O710 O 0.31587 0.31152 0.79397 0.0
O711 O 0.3426 0.29904 0.82392 0.0
H712 H 0.36934 0.30944 0.99275 0.0
H713 H 0.36876 0.29854 0.05707 0.0
H714 H 0.32614 0.251 0.02905 0.0
H715 H 0.3269 0.26181 0.96471 0.0
H716 H 0.2765 0.3212 0.73992 0.0
H717 H 0.26268 0.32039 0.67792 0.0
H718 H 0.25533 0.38824 0.69026 0.0
H719 H 0.26945 0.38888 0.7516 0.0
Sm720 Sm 0.94433 0.09428 0.16477 0.0
Sm721 Sm 0.91739 0.05903 0.12008 0.0
C722 C 0.95532 0.1251 0.21239 0.0
C723 C 0.9593 0.1255 0.25295 0.0
C724 C 0.94591 0.13571 0.28095 0.0
C725 C 0.9492 0.13503 0.3193 0.0
C726 C 0.96596 0.12412 0.33043 0.0
C727 C 0.97948 0.11425 0.30233 0.0
C728 C 0.97621 0.11492 0.26419 0.0
C729 C 0.96718 0.05897 0.13861 0.0
C730 C 0.92966 0.05032 0.20401 0.0
C731 C 0.9033 0.032 0.06784 0.0
C732 C 0.90655 0.02312 0.02744 0.0
C733 C 0.92561 0.02082 1.00824 0.0
C734 C 0.92813 0.01151 0.97081 0.0
C735 C 0.91168 0.00416 0.95125 0.0
C736 C 0.89263 0.00678 0.97067 0.0
C737 C 0.89015 0.01607 1.00797 0.0
C738 C 0.89671 0.08605 0.17611 0.0
C739 C 0.94528 0.09385 0.07352 0.0
O740 O 0.93682 0.12306 0.20381 0.0
O741 O 0.96785 0.11396 0.18871 0.0
O742 O 0.94917 0.06288 0.13293 0.0
O743 O 0.97412 0.07541 0.15671 0.0
O744 O 0.93657 0.06976 0.20801 0.0
O745 O 0.92318 0.0417 0.17216 0.0
O746 O 0.91609 0.0266 0.09191 0.0
O747 O 0.89683 0.05166 0.07438 0.0
O748 O 0.91167 0.09074 0.15436 0.0
O749 O 0.89037 0.06786 0.16349 0.0
O750 O 0.93429 0.07681 0.07372 0.0
O751 O 0.94905 0.10522 0.10482 0.0
H752 H 0.93274 0.14396 0.27321 0.0
H753 H 0.93841 0.14269 0.34021 0.0
H754 H 0.99274 0.10606 0.30978 0.0
H755 H 0.98694 0.10693 0.24356 0.0
H756 H 0.9386 0.02615 1.02224 0.0
H757 H 0.94305 0.01021 0.95713 0.0
H758 H 0.87953 0.00118 0.95742 0.0
H759 H 0.87528 0.01747 1.02189 0.0
Sm760 Sm 0.18069 0.68157 0.34472 0.0
Sm761 Sm 0.21233 0.65243 0.37515 0.0
C762 C 0.15953 0.70737 0.30734 0.0
C763 C 0.16082 0.71692 0.27085 0.0
C764 C 0.1577 0.73872 0.27021 0.0
C765 C 0.15817 0.74805 0.23593 0.0
C766 C 0.16163 0.73572 0.20147 0.0
C767 C 0.16499 0.71386 0.20228 0.0
C768 C 0.16468 0.70457 0.23659 0.0
C769 C 0.16544 0.64671 0.37496 0.0
C770 C 0.21303 0.65285 0.28518 0.0
C771 C 0.23149 0.62393 0.41039 0.0
C772 C 0.23844 0.62213 0.44808 0.0
C773 C 0.24259 0.60218 0.46008 0.0
C774 C 0.24991 0.60027 0.49541 0.0
C775 C 0.25328 0.61833 0.51925 0.0
C776 C 0.24882 0.63832 0.50715 0.0
C777 C 0.24138 0.64019 0.47193 0.0
C778 C 0.22628 0.68993 0.35165 0.0
C779 C 0.18733 0.68849 0.43546 0.0
O780 O 0.17196 0.71404 0.33202 0.0
O781 O 0.15688 0.68702 0.30648 0.0
O782 O 0.18178 0.64675 0.35489 0.0
O783 O 0.1562 0.66483 0.37708 0.0
O784 O 0.2016 0.67017 0.29156 0.0
O785 O 0.21634 0.64067 0.31257 0.0
O786 O 0.21218 0.62403 0.40787 0.0
O787 O 0.24047 0.63776 0.39035 0.0
O788 O 0.20982 0.687 0.36899 0.0
O789 O 0.23729 0.67281 0.3497 0.0
O790 O 0.1993 0.67145 0.4305 0.0
O791 O 0.17937 0.69661 0.40647 0.0
H792 H 0.1548 0.74855 0.2963 0.0
H793 H 0.15593 0.76497 0.23651 0.0
H794 H 0.1675 0.70382 0.17637 0.0
H795 H 0.16723 0.68769 0.23622 0.0
H796 H 0.24027 0.58809 0.44203 0.0
H797 H 0.25281 0.58464 0.50412 0.0
H798 H 0.25142 0.65256 0.52455 0.0
H799 H 0.23818 0.65574 0.46309 0.0
Sm800 Sm 0.54914 0.09732 0.14692 0.0
Sm801 Sm 0.56998 0.06073 0.09614 0.0
C802 C 0.53045 0.12346 0.19962 0.0
C803 C 0.52318 0.12251 0.23922 0.0
C804 C 0.52366 0.1034 0.25629 0.0
C805 C 0.51653 0.10257 0.29392 0.0
C806 C 0.50882 0.12086 0.31514 0.0
C807 C 0.50848 0.14 0.29782 0.0
C808 C 0.5156 0.14079 0.26016 0.0
C809 C 0.58007 0.1082 0.09778 0.0
C810 C 0.57487 0.06123 0.18796 0.0
C811 C 0.59427 0.03563 0.05053 0.0
C812 C 0.59428 0.02718 1.01078 0.0
C813 C 0.59193 0.04058 0.98174 0.0
C814 C 0.59104 0.03223 0.94448 0.0
C815 C 0.59232 0.01031 0.93548 0.0
C816 C 0.59488 0.99699 0.96462 0.0
C817 C 0.59591 0.00536 1.00183 0.0
C818 C 0.53201 0.05277 0.12376 0.0
C819 C 0.53541 0.08901 0.06171 0.0
O820 O 0.52115 0.11165 0.175 0.0
O821 O 0.54989 0.12288 0.19275 0.0
O822 O 0.57989 0.09253 0.11721 0.0
O823 O 0.56377 0.11938 0.10522 0.0
O824 O 0.56317 0.07837 0.19178 0.0
O825 O 0.58056 0.05196 0.1541 0.0
O826 O 0.59684 0.05592 0.05654 0.0
O827 O 0.58062 0.02851 0.074 0.0
O828 O 0.54504 0.06251 0.14119 0.0
O829 O 0.53915 0.0461 0.08993 0.0
O830 O 0.5528 0.07881 0.05364 0.0
O831 O 0.52903 0.09486 0.09705 0.0
H832 H 0.52945 0.08912 0.24046 0.0
H833 H 0.51681 0.08753 0.3062 0.0
H834 H 0.50294 0.15444 0.31349 0.0
H835 H 0.51521 0.15569 0.24739 0.0
H836 H 0.59057 0.05752 0.98775 0.0
H837 H 0.58936 0.04299 0.92274 0.0
H838 H 0.5956 0.98003 0.95889 0.0
H839 H 0.59764 0.99473 1.02378 0.0
Sm840 Sm 0.15958 0.30677 0.39344 0.0
Sm841 Sm 0.19022 0.33009 0.34762 0.0
C842 C 0.13886 0.28681 0.44551 0.0
C843 C 0.14071 0.28077 0.48447 0.0
C844 C 0.15939 0.27889 0.4995 0.0
C845 C 0.16079 0.27231 0.53599 0.0
C846 C 0.14354 0.26749 0.55826 0.0
C847 C 0.12488 0.26982 0.54313 0.0
C848 C 0.12351 0.27634 0.50672 0.0
C849 C 0.14314 0.3331 0.34435 0.0
C850 C 0.18657 0.34242 0.43746 0.0
C851 C 0.21253 0.35091 0.2995 0.0
C852 C 0.21619 0.35633 0.26043 0.0
C853 C 0.20238 0.35234 0.23321 0.0
C854 C 0.20746 0.35588 0.1954 0.0
C855 C 0.22647 0.36327 0.18438 0.0
C856 C 0.23995 0.36763 0.21227 0.0
C857 C 0.23481 0.36426 0.24981 0.0
C858 C 0.20717 0.30138 0.39043 0.0
C859 C 0.1684 0.28863 0.30803 0.0
O860 O 0.15106 0.27725 0.41907 0.0
O861 O 0.13625 0.30689 0.44119 0.0
O862 O 0.15781 0.33748 0.36389 0.0
O863 O 0.1355 0.31557 0.35383 0.0
O864 O 0.17563 0.32559 0.43923 0.0
O865 O 0.19216 0.34969 0.40468 0.0
O866 O 0.19698 0.35947 0.31959 0.0
O867 O 0.21603 0.33128 0.30582 0.0
O868 O 0.19166 0.2982 0.37281 0.0
O869 O 0.21444 0.31954 0.38419 0.0
O870 O 0.17693 0.30688 0.30284 0.0
O871 O 0.16302 0.28313 0.34211 0.0
H872 H 0.1729 0.28226 0.48287 0.0
H873 H 0.17543 0.27058 0.54639 0.0
H874 H 0.11123 0.2667 0.55951 0.0
H875 H 0.10894 0.2778 0.4958 0.0
H876 H 0.18793 0.34607 0.24101 0.0
H877 H 0.19663 0.35253 0.17479 0.0
H878 H 0.25487 0.37283 0.20499 0.0
H879 H 0.24572 0.36721 0.27048 0.0
Sm880 Sm 0.953 0.89126 0.62447 0.0
Sm881 Sm 0.93856 0.93172 0.59071 0.0
C882 C 0.97251 0.86164 0.65634 0.0
C883 C 0.98086 0.86106 0.69357 0.0
C884 C 0.98731 0.87957 0.71258 0.0
C885 C 0.99404 0.87923 0.74883 0.0
C886 C 0.99434 0.86038 0.76706 0.0
C887 C 0.98794 0.84185 0.74779 0.0
C888 C 0.98127 0.84221 0.71143 0.0
C889 C 0.91834 0.88793 0.58625 0.0
C890 C 0.93059 0.92847 0.68357 0.0
C891 C 0.91824 0.96106 0.56032 0.0
C892 C 0.91811 0.96868 0.52216 0.0
C893 C 0.9047 0.96069 0.49637 0.0
C894 C 0.90549 0.96713 0.45964 0.0
C895 C 0.91971 0.98165 0.4481 0.0
C896 C 0.93269 0.99004 0.47424 0.0
C897 C 0.93186 0.9837 0.51083 0.0
C898 C 0.976 0.93294 0.61439 0.0
C899 C 0.96912 0.9004 0.53601 0.0
O900 O 0.98122 0.87401 0.63276 0.0
O901 O 0.95302 0.86282 0.65701 0.0
O902 O 0.93368 0.8977 0.57811 0.0
O903 O 0.92107 0.87773 0.61574 0.0
O904 O 0.94275 0.9117 0.67952 0.0
O905 O 0.92463 0.93715 0.65334 0.0
O906 O 0.91129 0.94221 0.5648 0.0
O907 O 0.9343 0.96487 0.57827 0.0
O908 O 0.96117 0.92517 0.63155 0.0
O909 O 0.97083 0.94194 0.58483 0.0
O910 O 0.95518 0.91552 0.53713 0.0
O911 O 0.97223 0.89 0.5663 0.0
H912 H 0.98686 0.89438 0.69961 0.0
H913 H 0.99856 0.89386 0.76293 0.0
H914 H 0.98814 0.82702 0.76075 0.0
H915 H 0.97623 0.82778 0.69741 0.0
H916 H 0.89382 0.94922 0.50435 0.0
H917 H 0.89528 0.96042 0.44008 0.0
H918 H 0.94348 0.00165 0.46646 0.0
H919 H 0.9422 0.99046 0.53009 0.0
Sm920 Sm 0.32852 0.67889 0.99026 0.0
Sm921 Sm 0.3037 0.64526 0.94832 0.0
C922 C 0.34255 0.70767 0.03917 0.0
C923 C 0.3378 0.71752 0.07808 0.0
C924 C 0.3191 0.71539 0.09751 0.0
C925 C 0.31491 0.7252 0.13407 0.0
C926 C 0.32931 0.73742 0.15213 0.0
C927 C 0.34806 0.73928 0.13244 0.0
C928 C 0.35221 0.72949 0.09599 0.0
C929 C 0.35099 0.64974 0.94147 0.0
C930 C 0.29881 0.64717 0.03885 0.0
C931 C 0.29224 0.6148 0.90043 0.0
C932 C 0.29558 0.60961 0.8597 0.0
C933 C 0.31002 0.62015 0.83849 0.0
C934 C 0.31068 0.61823 0.79915 0.0
C935 C 0.29679 0.60579 0.78049 0.0
C936 C 0.28317 0.5942 0.80189 0.0
C937 C 0.28254 0.59616 0.84125 0.0
C938 C 0.28157 0.68066 0.9778 0.0
C939 C 0.3231 0.68462 0.90257 0.0
O940 O 0.33045 0.71219 1.01348 0.0
O941 O 0.34858 0.68785 0.0358 0.0
O942 O 0.33569 0.64566 0.96277 0.0
O943 O 0.35643 0.66871 0.95131 0.0
O944 O 0.30897 0.66468 0.03782 0.0
O945 O 0.29688 0.63466 1.00805 0.0
O946 O 0.30764 0.6128 0.92054 0.0
O947 O 0.28179 0.63216 0.90993 0.0
O948 O 0.29926 0.68003 0.96373 0.0
O949 O 0.27478 0.66163 0.97615 0.0
O950 O 0.31635 0.66515 0.90087 0.0
O951 O 0.3265 0.69504 0.93508 0.0
H952 H 0.3077 0.70623 0.08434 0.0
H953 H 0.30024 0.72348 0.1479 0.0
H954 H 0.35972 0.74812 0.14536 0.0
H955 H 0.36677 0.7313 0.08171 0.0
H956 H 0.32014 0.63064 0.85237 0.0
H957 H 0.32148 0.62715 0.78339 0.0
H958 H 0.27215 0.58468 0.78835 0.0
H959 H 0.2712 0.58806 0.85726 0.0
Sm960 Sm 0.41526 0.06122 0.80166 0.0
Sm961 Sm 0.44029 0.09324 0.76005 0.0
C962 C 0.39921 0.03453 0.84878 0.0
C963 C 0.40096 0.02512 0.88543 0.0
C964 C 0.41537 0.03139 0.9105 0.0
C965 C 0.41623 0.02227 0.94523 0.0
C966 C 0.40275 0.00661 0.95565 0.0
C967 C 0.38834 0.00057 0.93029 0.0
C968 C 0.38749 0.00967 0.8958 0.0
C969 C 0.39349 0.0914 0.76817 0.0
C970 C 0.44423 0.09422 0.84868 0.0
C971 C 0.45331 0.12065 0.71228 0.0
C972 C 0.45723 0.12008 0.67083 0.0
C973 C 0.44517 0.13205 0.64938 0.0
C974 C 0.44879 0.13152 0.61015 0.0
C975 C 0.46456 0.11902 0.59162 0.0
C976 C 0.47655 0.10701 0.61317 0.0
C977 C 0.47293 0.10751 0.65225 0.0
C978 C 0.46225 0.05815 0.77525 0.0
C979 C 0.41973 0.05333 0.71101 0.0
O980 O 0.41244 0.02876 0.82091 0.0
O981 O 0.39403 0.05452 0.84986 0.0
O982 O 0.40902 0.09478 0.78603 0.0
O983 O 0.38774 0.0724 0.77303 0.0
O984 O 0.43559 0.07579 0.84588 0.0
O985 O 0.44488 0.1066 0.82054 0.0
O986 O 0.43468 0.12004 0.72518 0.0
O987 O 0.46511 0.10912 0.73037 0.0
O988 O 0.44451 0.05835 0.76589 0.0
O989 O 0.46871 0.07725 0.7775 0.0
O990 O 0.42796 0.0721 0.71143 0.0
O991 O 0.41543 0.04398 0.74245 0.0
H992 H 0.42595 0.04328 0.90321 0.0
H993 H 0.42768 0.02727 0.96362 0.0
H994 H 0.37743 0.98894 0.93726 0.0
H995 H 0.37613 0.00466 0.87716 0.0
H996 H 0.43292 0.1418 0.66295 0.0
H997 H 0.43915 0.14078 0.59432 0.0
H998 H 0.48901 0.09748 0.59991 0.0
H999 H 0.48254 0.09807 0.66783 0.0
Sm1000 Sm 0.69178 0.65977 0.53477 0.0
Sm1001 Sm 0.66133 0.6855 0.4953 0.0
C1002 C 0.71774 0.64338 0.57839 0.0
C1003 C 0.72527 0.64321 0.6165 0.0
C1004 C 0.721 0.65962 0.6448 0.0
C1005 C 0.7292 0.65911 0.68004 0.0
C1006 C 0.74192 0.64224 0.68756 0.0
C1007 C 0.74575 0.62573 0.65918 0.0
C1008 C 0.73754 0.62623 0.62422 0.0
C1009 C 0.66197 0.63736 0.50129 0.0
C1010 C 0.65698 0.6897 0.5847 0.0
C1011 C 0.6366 0.69903 0.44685 0.0
C1012 C 0.63805 0.70451 0.4069 0.0
C1013 C 0.62951 0.69152 0.37898 0.0
C1014 C 0.63038 0.69678 0.34141 0.0
C1015 C 0.63976 0.71524 0.33078 0.0
C1016 C 0.64841 0.72814 0.35878 0.0
C1017 C 0.64756 0.72286 0.39628 0.0
C1018 C 0.6931 0.70864 0.51812 0.0
C1019 C 0.70004 0.66082 0.44502 0.0
O1020 O 0.7214 0.65976 0.55915 0.0
O1021 O 0.70018 0.63558 0.57332 0.0
O1022 O 0.65977 0.65473 0.52093 0.0
O1023 O 0.68028 0.63053 0.50155 0.0
O1024 O 0.67514 0.68116 0.58251 0.0
O1025 O 0.64638 0.69023 0.55497 0.0
O1026 O 0.63895 0.67915 0.4528 0.0
O1027 O 0.64509 0.71154 0.47146 0.0
O1028 O 0.69408 0.68975 0.5042 0.0
O1029 O 0.67465 0.71532 0.52169 0.0
O1030 O 0.68218 0.67007 0.44594 0.0
O1031 O 0.7085 0.65692 0.47621 0.0
H1032 H 0.71154 0.6729 0.63952 0.0
H1033 H 0.72599 0.67218 0.70103 0.0
H1034 H 0.75512 0.6123 0.66398 0.0
H1035 H 0.74097 0.61334 0.60292 0.0
H1036 H 0.62207 0.67729 0.38623 0.0
H1037 H 0.62379 0.68628 0.32066 0.0
H1038 H 0.6555 0.74261 0.35193 0.0
H1039 H 0.65426 0.73332 0.41698 0.0
Sm1040 Sm 0.08145 0.93065 0.24628 0.0
Sm1041 Sm 0.06136 0.89622 0.19718 0.0
C1042 C 0.0934 0.95798 0.30064 0.0
C1043 C 0.09018 0.96662 0.34136 0.0
C1044 C 0.08331 0.98758 0.35029 0.0
C1045 C 0.08237 0.99682 0.38767 0.0
C1046 C 0.08839 0.98552 0.41773 0.0
C1047 C 0.09484 0.96434 0.40885 0.0
C1048 C 0.09578 0.95509 0.37139 0.0
C1049 C 0.10725 0.90542 0.19493 0.0
C1050 C 0.05447 0.89513 0.28934 0.0
C1051 C 0.05218 0.86375 0.15125 0.0
C1052 C 0.04773 0.86199 0.11103 0.0
C1053 C 0.05848 0.87342 0.08448 0.0
C1054 C 0.05336 0.8727 0.047 0.0
C1055 C 0.03728 0.86063 0.03516 0.0
C1056 C 0.0267 0.84904 0.0618 0.0
C1057 C 0.03187 0.84973 0.09929 0.0
C1058 C 0.03875 0.93207 0.2079 0.0
C1059 C 0.07769 0.93904 0.15944 0.0
O1060 O 0.08049 0.96294 0.27655 0.0
O1061 O 0.10095 0.93882 0.29312 0.0
O1062 O 0.09247 0.89912 0.21506 0.0
O1063 O 0.10987 0.92507 0.20548 0.0
O1064 O 0.06688 0.91087 0.29179 0.0
O1065 O 0.05013 0.88615 0.25623 0.0
O1066 O 0.07051 0.86819 0.15845 0.0
O1067 O 0.03894 0.87419 0.17457 0.0
O1068 O 0.04881 0.92531 0.23384 0.0
O1069 O 0.03991 0.9195 0.17741 0.0
O1070 O 0.07427 0.9186 0.1538 0.0
O1071 O 0.07814 0.94862 0.1937 0.0
H1072 H 0.07902 0.99709 0.32812 0.0
H1073 H 0.07693 0.01298 0.39287 0.0
H1074 H 0.09981 0.95499 0.43068 0.0
H1075 H 0.10138 0.93899 0.3659 0.0
H1076 H 0.07073 0.88314 0.09275 0.0
H1077 H 0.06204 0.8816 0.02729 0.0
H1078 H 0.01407 0.83981 0.05394 0.0
H1079 H 0.02324 0.84095 0.1193 0.0
Sm1080 Sm 0.79063 0.34681 0.98653 0.0
Sm1081 Sm 0.80553 0.30539 1.01735 0.0
C1082 C 0.78559 0.3807 0.9494 0.0
C1083 C 0.77556 0.38278 0.91463 0.0
C1084 C 0.77518 0.4019 0.89769 0.0
C1085 C 0.76578 0.40335 0.8641 0.0
C1086 C 0.75671 0.38565 0.84706 0.0
C1087 C 0.75698 0.36662 0.86459 0.0
C1088 C 0.76635 0.36519 0.89798 0.0
C1089 C 0.76245 0.31613 0.99063 0.0
C1090 C 0.80724 0.30624 0.92558 0.0
C1091 C 0.80955 0.26958 0.04956 0.0
C1092 C 0.8129 0.26264 0.08689 0.0
C1093 C 0.81555 0.24112 0.09113 0.0
C1094 C 0.81884 0.23419 0.12644 0.0
C1095 C 0.81953 0.24871 0.15813 0.0
C1096 C 0.81681 0.27033 0.1537 0.0
C1097 C 0.81356 0.27725 0.11828 0.0
C1098 C 0.83504 0.33348 1.0024 0.0
C1099 C 0.78312 0.34249 0.07746 0.0
O1100 O 0.80194 0.36904 0.94542 0.0
O1101 O 0.7739 0.37636 0.97849 0.0
O1102 O 0.78077 0.3136 0.98235 0.0
O1103 O 0.75798 0.33611 0.99348 0.0
O1104 O 0.80388 0.32696 0.9316 0.0
O1105 O 0.80598 0.29397 0.95404 0.0
O1106 O 0.79226 0.27878 0.04611 0.0
O1107 O 0.82445 0.27886 0.03265 0.0
O1108 O 0.81761 0.33861 1.0166 0.0
O1109 O 0.83777 0.31321 1.00142 0.0
O1110 O 0.78991 0.32284 0.07091 0.0
O1111 O 0.78388 0.35592 0.0507 0.0
H1112 H 0.78228 0.41559 0.91022 0.0
H1113 H 0.76599 0.41817 0.85106 0.0
H1114 H 0.74989 0.35279 0.85256 0.0
H1115 H 0.76648 0.3503 0.91081 0.0
H1116 H 0.81502 0.22966 0.06713 0.0
H1117 H 0.82053 0.21742 0.12902 0.0
H1118 H 0.81742 0.28191 0.17748 0.0
H1119 H 0.8116 0.29397 0.11535 0.0
Sm1120 Sm 0.42016 0.93505 0.2926 0.0
Sm1121 Sm 0.44592 0.90319 0.24061 0.0
C1122 C 0.39319 0.95566 0.33999 0.0
C1123 C 0.39337 0.96531 0.37919 0.0
C1124 C 0.39341 0.95278 0.41007 0.0
C1125 C 0.39509 0.962 0.44659 0.0
C1126 C 0.39684 0.98392 0.45306 0.0
C1127 C 0.39621 0.99648 0.42237 0.0
C1128 C 0.39441 0.98729 0.3859 0.0
C1129 C 0.4563 0.95017 0.26911 0.0
C1130 C 0.45855 0.91167 0.32586 0.0
C1131 C 0.46726 0.87989 0.18708 0.0
C1132 C 0.47353 0.88032 0.14683 0.0
C1133 C 0.47199 0.89887 0.12825 0.0
C1134 C 0.47786 0.8988 0.08975 0.0
C1135 C 0.48531 0.88015 0.06922 0.0
C1136 C 0.48665 0.86161 0.08814 0.0
C1137 C 0.48083 0.86173 0.12655 0.0
C1138 C 0.4177 0.88654 0.28936 0.0
C1139 C 0.41579 0.93533 0.20066 0.0
O1140 O 0.39451 0.93505 0.33528 0.0
O1141 O 0.40389 0.96479 0.31406 0.0
O1142 O 0.44553 0.93861 0.2491 0.0
O1143 O 0.44789 0.95424 0.30294 0.0
O1144 O 0.44008 0.91929 0.33409 0.0
O1145 O 0.46569 0.90762 0.29045 0.0
O1146 O 0.47507 0.89391 0.21028 0.0
O1147 O 0.44821 0.87721 0.19523 0.0
O1148 O 0.41504 0.90208 0.27032 0.0
O1149 O 0.43551 0.87862 0.28135 0.0
O1150 O 0.42949 0.92 0.19643 0.0
O1151 O 0.40881 0.9433 0.23474 0.0
H1152 H 0.39256 0.93578 0.40602 0.0
H1153 H 0.39563 0.95189 0.46961 0.0
H1154 H 0.39719 0.01346 0.42653 0.0
H1155 H 0.3942 -0.00262 0.36279 0.0
H1156 H 0.46629 0.91338 0.14351 0.0
H1157 H 0.47677 0.91339 0.07619 0.0
H1158 H 0.49194 0.84689 0.07315 0.0
H1159 H 0.48195 0.84723 0.14042 0.0
Sm1160 Sm 0.80795 0.66121 1.02514 0.0
Sm1161 Sm 0.83668 0.69089 0.97774 0.0
C1162 C 0.79703 0.63277 0.07243 0.0
C1163 C 0.78705 0.63262 0.1107 0.0
C1164 C 0.79814 0.62713 0.14063 0.0
C1165 C 0.7893 0.62787 0.17739 0.0
C1166 C 0.76911 0.63394 0.18493 0.0
C1167 C 0.75792 0.63902 0.15484 0.0
C1168 C 0.76679 0.6384 0.11811 0.0
C1169 C 0.78572 0.69363 1.00054 0.0
C1170 C 0.82334 0.70683 0.06402 0.0
C1171 C 0.8555 0.71325 0.92712 0.0
C1172 C 0.85333 0.71973 0.88866 0.0
C1173 C 0.83639 0.71478 0.86913 0.0
C1174 C 0.83467 0.72125 0.83267 0.0
C1175 C 0.84984 0.73286 0.8151 0.0
C1176 C 0.86679 0.73763 0.83493 0.0
C1177 C 0.86849 0.73114 0.87124 0.0
C1178 C 0.85457 0.66452 1.02503 0.0
C1179 C 0.80965 0.65477 0.93328 0.0
O1180 O 0.81471 0.64096 0.0706 0.0
O1181 O 0.78626 0.63783 0.04505 0.0
O1182 O 0.80429 0.69039 0.99522 0.0
O1183 O 0.77811 0.67962 1.02172 0.0
O1184 O 0.81669 0.68764 0.06913 0.0
O1185 O 0.82895 0.713 0.03033 0.0
O1186 O 0.84262 0.72153 0.95383 0.0
O1187 O 0.8595 0.6932 0.93011 0.0
O1188 O 0.84039 0.65982 1.00442 0.0
O1189 O 0.86084 0.68305 1.01791 0.0
O1190 O 0.82014 0.67207 0.9326 0.0
O1191 O 0.80528 0.6455 0.96484 0.0
H1192 H 0.81377 0.62248 0.13564 0.0
H1193 H 0.79825 0.62364 0.1999 0.0
H1194 H 0.74239 0.644 0.15982 0.0
H1195 H 0.75782 0.64276 0.0957 0.0
H1196 H 0.82448 0.706 0.88212 0.0
H1197 H 0.82133 0.71743 0.81851 0.0
H1198 H 0.87893 0.74619 0.8222 0.0
H1199 H 0.88172 0.73504 0.88575 0.0
Sm1200 Sm 0.07066 0.05896 0.78049 0.0
Sm1201 Sm 0.04923 0.09256 0.74303 0.0
C1202 C 0.09682 0.03663 0.8139 0.0
C1203 C 0.0986 0.03197 0.85321 0.0
C1204 C 0.08472 0.04082 0.88156 0.0
C1205 C 0.08412 0.03377 0.91772 0.0
C1206 C 0.09749 0.01785 0.92616 0.0
C1207 C 0.11215 0.0099 0.8983 0.0
C1208 C 0.11261 0.01684 0.86194 0.0
C1209 C 0.03585 0.04496 0.75655 0.0
C1210 C 0.03406 0.0842 0.83119 0.0
C1211 C 0.0251 0.11812 0.71089 0.0
C1212 C 0.0171 0.11798 0.67344 0.0
C1213 C 0.01917 0.09989 0.64822 0.0
C1214 C 0.01243 0.10014 0.61198 0.0
C1215 C 0.00354 0.11851 0.60018 0.0
C1216 C 0.00133 0.13652 0.62582 0.0
C1217 C 0.00807 0.13625 0.66209 0.0
C1218 C 0.08204 0.10503 0.78231 0.0
C1219 C 0.07676 0.05951 0.68585 0.0
O1220 O 0.09977 0.05617 0.80602 0.0
O1221 O 0.08128 0.02851 0.79864 0.0
O1222 O 0.04745 0.05658 0.73802 0.0
O1223 O 0.04177 0.04261 0.78997 0.0
O1224 O 0.05066 0.07276 0.83238 0.0
O1225 O 0.02933 0.09197 0.79937 0.0
O1226 O 0.01869 0.10352 0.73237 0.0
O1227 O 0.04433 0.12074 0.71144 0.0
O1228 O 0.06835 0.09331 0.79126 0.0
O1229 O 0.07895 0.11193 0.74984 0.0
O1230 O 0.06236 0.07401 0.68888 0.0
O1231 O 0.08397 0.05274 0.71683 0.0
H1232 H 0.07378 0.05252 0.87531 0.0
H1233 H 0.07279 0.04029 0.93878 0.0
H1234 H 0.12253 -0.00249 0.90402 0.0
H1235 H 0.12333 0.00976 0.84028 0.0
H1236 H 0.02614 0.08562 0.65645 0.0
H1237 H 0.01415 0.08589 0.59326 0.0
H1238 H 0.99482 0.15102 0.6176 0.0
H1239 H 0.00649 0.1504 0.68109 0.0
Sm1240 Sm 0.69722 0.34651 0.41838 0.0
Sm1241 Sm 0.6684 0.31785 0.37351 0.0
C1242 C 0.7127 0.37373 0.46743 0.0
C1243 C 0.71018 0.38005 0.50791 0.0
C1244 C 0.69515 0.37153 0.531 0.0
C1245 C 0.69466 0.37542 0.57021 0.0
C1246 C 0.70934 0.38775 0.58686 0.0
C1247 C 0.72378 0.39703 0.5633 0.0
C1248 C 0.72418 0.39319 0.52418 0.0
C1249 C 0.71458 0.30902 0.3855 0.0
C1250 C 0.67242 0.3093 0.46125 0.0
C1251 C 0.65243 0.29181 0.32212 0.0
C1252 C 0.65652 0.28204 0.28269 0.0
C1253 C 0.66963 0.2909 0.25606 0.0
C1254 C 0.67298 0.28137 0.21897 0.0
C1255 C 0.66338 0.26264 0.20746 0.0
C1256 C 0.6503 0.25389 0.23446 0.0
C1257 C 0.64696 0.26342 0.27138 0.0
C1258 C 0.64944 0.34837 0.42505 0.0
C1259 C 0.70151 0.34783 0.32789 0.0
O1260 O 0.69815 0.37874 0.44697 0.0
O1261 O 0.71996 0.35464 0.45865 0.0
O1262 O 0.69706 0.31209 0.39972 0.0
O1263 O 0.72401 0.32667 0.38879 0.0
O1264 O 0.68156 0.32758 0.4644 0.0
O1265 O 0.66791 0.30039 0.42806 0.0
O1266 O 0.66356 0.28537 0.34795 0.0
O1267 O 0.64836 0.31214 0.32667 0.0
O1268 O 0.66536 0.35081 0.40421 0.0
O1269 O 0.6415 0.33087 0.41303 0.0
O1270 O 0.68918 0.33189 0.32719 0.0
O1271 O 0.70533 0.3583 0.35992 0.0
H1272 H 0.68426 0.3613 0.51878 0.0
H1273 H 0.68319 0.36825 0.5875 0.0
H1274 H 0.73549 0.40631 0.57508 0.0
H1275 H 0.73596 0.39976 0.5067 0.0
H1276 H 0.67733 0.30516 0.26392 0.0
H1277 H 0.68334 0.28858 0.19949 0.0
H1278 H 0.64231 0.23975 0.22697 0.0
H1279 H 0.63673 0.25624 0.29117 0.0
H1280 H 0.08896 0.41778 0.2341 0.0
H1281 H 0.09201 0.4784 0.18726 0.0
H1282 H 0.094 0.43449 0.29616 0.0
H1283 H 0.09694 0.49518 0.24995 0.0
H1284 H 0.1208 0.51403 0.3671 0.0
H1285 H 0.12023 0.49728 0.30292 0.0
H1286 H 0.07214 0.45822 0.34044 0.0
H1287 H 0.07293 0.4746 0.40434 0.0
C1288 C 0.09088 0.43468 0.23693 0.0
C1289 C 0.08985 0.44681 0.20575 0.0
C1290 C 0.09368 0.44424 0.27259 0.0
C1291 C 0.09555 0.46617 0.27801 0.0
C1292 C 0.09559 0.47823 0.24656 0.0
C1293 C 0.09275 0.46862 0.2107 0.0
C1294 C 0.11023 0.50174 0.36158 0.0
C1295 C 0.0969 0.49561 0.39071 0.0
C1296 C 0.10981 0.4923 0.32485 0.0
C1297 C 0.09622 0.47638 0.31673 0.0
C1298 C 0.08296 0.47026 0.34592 0.0
C1299 C 0.08327 0.47978 0.38244 0.0
H1300 H 0.75287 0.83406 0.66756 0.0
H1301 H 0.72349 0.89271 0.64706 0.0
H1302 H 0.76918 0.8321 0.60429 0.0
H1303 H 0.73958 0.89041 0.58317 0.0
H1304 H 0.75339 0.85971 0.45857 0.0
H1305 H 0.73831 0.8668 0.52297 0.0
H1306 H 0.79454 0.85129 0.56701 0.0
H1307 H 0.80955 0.84416 0.50318 0.0
C1308 C 0.7501 0.84671 0.64981 0.0
C1309 C 0.73691 0.86358 0.66253 0.0
C1310 C 0.75941 0.84554 0.61347 0.0
C1311 C 0.75568 0.86115 0.58885 0.0
C1312 C 0.74258 0.87808 0.60146 0.0
C1313 C 0.73336 0.87934 0.638 0.0
C1314 C 0.76258 0.85816 0.48201 0.0
C1315 C 0.78256 0.8511 0.4758 0.0
C1316 C 0.75397 0.86224 0.51884 0.0
C1317 C 0.7652 0.8593 0.54994 0.0
C1318 C 0.78543 0.85329 0.54358 0.0
C1319 C 0.79401 0.84926 0.50696 0.0
H1320 H 0.39457 0.51049 0.70286 0.0
H1321 H 0.42765 0.55424 0.7719 0.0
H1322 H 0.38817 0.48944 0.75702 0.0
H1323 H 0.4213 0.53324 0.82533 0.0
H1324 H 0.42915 0.47807 0.89468 0.0
H1325 H 0.43324 0.49585 0.83694 0.0
H1326 H 0.36975 0.49423 0.82593 0.0
H1327 H 0.36553 0.4759 0.88407 0.0
C1328 C 0.40043 0.51562 0.72949 0.0
C1329 C 0.41177 0.53391 0.73301 0.0
C1330 C 0.39667 0.50365 0.76041 0.0
C1331 C 0.40442 0.50966 0.79506 0.0
C1332 C 0.4154 0.52814 0.79871 0.0
C1333 C 0.41896 0.54018 0.7681 0.0
C1334 C 0.41606 0.48095 0.87957 0.0
C1335 C 0.397 0.4755 0.89389 0.0
C1336 C 0.41841 0.49137 0.84673 0.0
C1337 C 0.40179 0.49657 0.82736 0.0
C1338 C 0.38278 0.49033 0.84048 0.0
C1339 C 0.38038 0.47998 0.87372 0.0
H1340 H 0.77663 0.07462 0.23689 0.0
H1341 H 0.78606 0.14168 0.24373 0.0
H1342 H 0.76863 0.07578 0.17126 0.0
H1343 H 0.77782 0.14294 0.17869 0.0
H1344 H 0.77632 0.1368 0.05217 0.0
H1345 H 0.78831 0.13307 0.11436 0.0
H1346 H 0.74194 0.08875 0.13717 0.0
H1347 H 0.73031 0.09216 0.07456 0.0
C1348 C 0.77709 0.08957 0.22429 0.0
C1349 C 0.78201 0.10804 0.24543 0.0
C1350 C 0.77243 0.09026 0.18678 0.0
C1351 C 0.77248 0.10947 0.16972 0.0
C1352 C 0.77794 0.12782 0.19065 0.0
C1353 C 0.78269 0.1271 0.228 0.0
C1354 C 0.76871 0.12628 0.07056 0.0
C1355 C 0.75233 0.11485 0.05867 0.0
C1356 C 0.77555 0.12415 0.10618 0.0
C1357 C 0.76606 0.11066 0.13086 0.0
C1358 C 0.74982 0.09901 0.11869 0.0
C1359 C 0.74308 0.10102 0.08291 0.0
H1360 H 0.89984 0.51767 0.19441 0.0
H1361 H 0.90188 0.57661 0.14185 0.0
H1362 H 0.89277 0.49933 0.1342 0.0
H1363 H 0.89531 0.55831 0.08183 0.0
H1364 H 0.8696 0.52261 0.98337 0.0
H1365 H 0.87101 0.53945 0.04686 0.0
H1366 H 0.91094 0.48968 0.07391 0.0
H1367 H 0.90885 0.47237 1.01099 0.0
C1368 C 0.89859 0.52675 0.17014 0.0
C1369 C 0.90157 0.54858 0.1729 0.0
C1370 C 0.8947 0.51621 0.13556 0.0
C1371 C 0.8936 0.5273 0.10305 0.0
C1372 C 0.89585 0.54926 0.10627 0.0
C1373 C 0.89979 0.55976 0.14072 0.0
C1374 C 0.8784 0.51504 1.00305 0.0
C1375 C 0.8892 0.49617 0.99192 0.0
C1376 C 0.87938 0.52483 0.03937 0.0
C1377 C 0.89118 0.51601 0.0655 0.0
C1378 C 0.90155 0.49684 0.05469 0.0
C1379 C 0.90057 0.48705 1.01839 0.0
H1380 H 0.19624 0.15429 0.87319 0.0
H1381 H 0.25083 0.16229 0.92929 0.0
H1382 H 0.21565 0.14485 0.81352 0.0
H1383 H 0.27025 0.15334 0.86905 0.0
H1384 H 0.28693 0.16586 0.73717 0.0
H1385 H 0.27206 0.17204 0.8017 0.0
H1386 H 0.24218 0.11283 0.79014 0.0
H1387 H 0.25776 0.10596 0.72635 0.0
C1388 C 0.21238 0.15409 0.87273 0.0
C1389 C 0.22205 0.15895 0.90583 0.0
C1390 C 0.22345 0.14858 0.83869 0.0
C1391 C 0.24438 0.14827 0.83695 0.0
C1392 C 0.25411 0.15343 0.86986 0.0
C1393 C 0.24302 0.15848 0.90419 0.0
C1394 C 0.27775 0.15379 0.74868 0.0
C1395 C 0.27334 0.13552 0.72624 0.0
C1396 C 0.26916 0.15743 0.78556 0.0
C1397 C 0.25582 0.14302 0.80044 0.0
C1398 C 0.25223 0.12428 0.77894 0.0
C1399 C 0.26108 0.12045 0.74239 0.0
H1400 H 0.63588 0.48578 0.44653 0.0
H1401 H 0.60352 0.5399 0.50286 0.0
H1402 H 0.63339 0.46813 0.50501 0.0
H1403 H 0.60073 0.5222 0.56117 0.0
H1404 H 0.60881 0.48981 0.66789 0.0
H1405 H 0.61799 0.50845 0.61199 0.0
H1406 H 0.60678 0.45247 0.54081 0.0
H1407 H 0.59835 0.43378 0.59631 0.0
C1408 C 0.6283 0.49392 0.47148 0.0
C1409 C 0.61977 0.51414 0.47008 0.0
C1410 C 0.62684 0.48382 0.50495 0.0
C1411 C 0.61671 0.49368 0.53769 0.0
C1412 C 0.60886 0.51425 0.53663 0.0
C1413 C 0.61042 0.52439 0.50319 0.0
C1414 C 0.60858 0.48146 0.64028 0.0
C1415 C 0.6026 0.46043 0.63647 0.0
C1416 C 0.61369 0.49216 0.60828 0.0
C1417 C 0.61302 0.482 0.57192 0.0
C1418 C 0.60768 0.46074 0.56833 0.0
C1419 C 0.60257 0.45009 0.6002 0.0
H1420 H 0.23828 0.91669 0.31827 0.0
H1421 H 0.26566 0.8556 0.28399 0.0
H1422 H 0.2243 0.91728 0.25677 0.0
H1423 H 0.2518 0.85618 0.22294 0.0
H1424 H 0.21076 0.85286 0.13022 0.0
H1425 H 0.21988 0.85415 0.19515 0.0
H1426 H 0.23513 0.91952 0.18999 0.0
H1427 H 0.22513 0.91851 0.12538 0.0
C1428 C 0.24141 0.90347 0.29755 0.0
C1429 C 0.25295 0.88603 0.30608 0.0
C1430 C 0.23337 0.90378 0.2624 0.0
C1431 C 0.23673 0.88666 0.23514 0.0
C1432 C 0.24849 0.86938 0.24362 0.0
C1433 C 0.25649 0.86907 0.27861 0.0
C1434 C 0.21552 0.86769 0.14318 0.0
C1435 C 0.21734 0.88555 0.12246 0.0
C1436 C 0.22103 0.86834 0.18027 0.0
C1437 C 0.22856 0.88683 0.19751 0.0
C1438 C 0.22937 0.90503 0.17755 0.0
C1439 C 0.22381 0.90439 0.14041 0.0
H1440 H 0.61282 0.97638 0.89804 0.0
H1441 H 0.56763 0.02381 0.88356 0.0
H1442 H 0.60835 0.96039 0.83492 0.0
H1443 H 0.56361 0.00804 0.82004 0.0
H1444 H 0.57701 0.98344 0.69419 0.0
H1445 H 0.58274 0.00107 0.75588 0.0
H1446 H 0.58043 0.94117 0.80501 0.0
H1447 H 0.57469 0.9236 0.74386 0.0
C1448 C 0.60192 0.9834 0.88149 0.0
C1449 C 0.59049 0.00132 0.89609 0.0
C1450 C 0.59943 0.97427 0.84528 0.0
C1451 C 0.58558 0.98294 0.82267 0.0
C1452 C 0.57454 0.00116 0.83672 0.0
C1453 C 0.5769 0.0102 0.8731 0.0
C1454 C 0.57777 0.97406 0.71817 0.0
C1455 C 0.57544 0.95213 0.7141 0.0
C1456 C 0.58095 0.98416 0.75346 0.0
C1457 C 0.58215 0.97246 0.78515 0.0
C1458 C 0.57983 0.95056 0.781 0.0
C1459 C 0.57639 0.94053 0.74597 0.0
H1460 H 0.25551 0.35307 0.93895 0.0
H1461 H 0.31025 0.35352 0.99563 0.0
H1462 H 0.23643 0.36069 0.99972 0.0
H1463 H 0.29115 0.36165 0.05618 0.0
H1464 H 0.25055 0.39293 0.15395 0.0
H1465 H 0.26632 0.39173 0.09002 0.0
H1466 H 0.23282 0.33686 0.05855 0.0
H1467 H 0.21771 0.33727 0.12289 0.0
C1468 C 0.26349 0.35529 0.96426 0.0
C1469 C 0.28437 0.35267 0.96263 0.0
C1470 C 0.25255 0.35952 0.99896 0.0
C1471 C 0.26235 0.36174 0.03248 0.0
C1472 C 0.28328 0.36016 0.03065 0.0
C1473 C 0.29418 0.35545 0.99608 0.0
C1474 C 0.24648 0.38059 0.13349 0.0
C1475 C 0.23309 0.36495 0.14392 0.0
C1476 C 0.25545 0.38002 0.09685 0.0
C1477 C 0.25088 0.36413 0.0696 0.0
C1478 C 0.23649 0.34937 0.07909 0.0
C1479 C 0.22777 0.34969 0.11595 0.0
H1480 H 0.95085 0.0564 0.26605 0.0
H1481 H 0.90675 0.01627 0.2172 0.0
H1482 H 0.94852 0.03716 0.32255 0.0
H1483 H 0.90443 0.997 0.27413 0.0
H1484 H 0.88925 0.99212 0.40529 0.0
H1485 H 0.89211 0.00638 0.34336 0.0
H1486 H 0.95628 0.00052 0.34129 0.0
H1487 H 0.95348 0.98607 0.40278 0.0
C1488 C 0.94073 0.0434 0.2673 0.0
C1489 C 0.92895 0.03786 0.23724 0.0
C1490 C 0.9395 0.0323 0.29955 0.0
C1491 C 0.92632 0.01559 0.30261 0.0
C1492 C 0.91464 0.0099 0.27247 0.0
C1493 C 0.91607 0.02083 0.23989 0.0
C1494 C 0.90393 0.99351 0.39125 0.0
C1495 C 0.92115 0.98826 0.40907 0.0
C1496 C 0.90556 0.00165 0.35586 0.0
C1497 C 0.92442 0.00472 0.33783 0.0
C1498 C 0.94158 -0.00137 0.35492 0.0
C1499 C 0.93996 0.99042 0.39011 0.0
H1500 H 0.2429 0.64161 0.5858 0.0
H1501 H 0.2822 0.59052 0.53716 0.0
H1502 H 0.2564 0.63851 0.64679 0.0
H1503 H 0.29532 0.58714 0.59864 0.0
H1504 H 0.29095 0.57346 0.72737 0.0
H1505 H 0.28211 0.5765 0.66255 0.0
H1506 H 0.28878 0.64391 0.67687 0.0
H1507 H 0.29724 0.64096 0.74165 0.0
C1508 C 0.25455 0.62986 0.58798 0.0
C1509 C 0.26147 0.61634 0.55651 0.0
C1510 C 0.26226 0.62808 0.62295 0.0
C1511 C 0.27698 0.61265 0.62735 0.0
C1512 C 0.28389 0.59907 0.59605 0.0
C1513 C 0.27629 0.60096 0.56093 0.0
C1514 C 0.29076 0.58887 0.71644 0.0
C1515 C 0.2947 0.60697 0.7396 0.0
C1516 C 0.28582 0.5906 0.67934 0.0
C1517 C 0.28456 0.61047 0.6649 0.0
C1518 C 0.2894 0.62843 0.68749 0.0
C1519 C 0.29447 0.6267 0.72442 0.0
H1520 H 0.41904 0.07099 0.64398 0.0
H1521 H 0.41122 0.01176 0.69412 0.0
H1522 H 0.41296 0.05404 0.58271 0.0
H1523 H 0.40571 0.99451 0.63214 0.0
H1524 H 0.3776 0.97555 0.52052 0.0
H1525 H 0.38268 0.99192 0.5833 0.0
H1526 H 0.42873 0.03012 0.53482 0.0
H1527 H 0.42335 0.01407 0.4723 0.0
C1528 C 0.41619 0.05426 0.64188 0.0
C1529 C 0.41574 0.04269 0.67396 0.0
C1530 C 0.41278 0.0445 0.6066 0.0
C1531 C 0.40903 0.02283 0.60227 0.0
C1532 C 0.40836 0.01127 0.63446 0.0
C1533 C 0.41161 0.02112 0.66997 0.0
C1534 C 0.38885 0.9874 0.52339 0.0
C1535 C 0.39995 0.99365 0.49142 0.0
C1536 C 0.39181 0.99674 0.55938 0.0
C1537 C 0.40604 0.01246 0.5642 0.0
C1538 C 0.41733 0.01843 0.53218 0.0
C1539 C 0.41427 0.00921 0.49627 0.0
H1540 H 0.78483 0.65095 0.24884 0.0
H1541 H 0.73243 0.62062 0.20954 0.0
H1542 H 0.76866 0.65577 0.3125 0.0
H1543 H 0.71631 0.62528 0.27318 0.0
H1544 H 0.68536 0.66284 0.37607 0.0
H1545 H 0.70265 0.65478 0.31447 0.0
H1546 H 0.75596 0.63759 0.36714 0.0
H1547 H 0.73869 0.64613 0.42933 0.0
C1548 C 0.76998 0.64501 0.25394 0.0
C1549 C 0.75984 0.63555 0.22412 0.0
C1550 C 0.76073 0.64775 0.29042 0.0
C1551 C 0.74115 0.64104 0.29786 0.0
C1552 C 0.73126 0.63099 0.26824 0.0
C1553 C 0.74049 0.62831 0.23179 0.0
C1554 C 0.70078 0.65735 0.37469 0.0
C1555 C 0.71068 0.65523 0.40771 0.0
C1556 C 0.71064 0.65254 0.33926 0.0
C1557 C 0.73066 0.64546 0.33585 0.0
C1558 C 0.74057 0.64318 0.36884 0.0
C1559 C 0.73066 0.64797 0.40445 0.0
H1560 H 0.09526 0.97732 0.15576 0.0
H1561 H 0.0676 0.92845 0.08791 0.0
H1562 H 0.10062 -0.00256 0.10014 0.0
H1563 H 0.0727 0.94872 0.03283 0.0
H1564 H 0.06307 0.004 0.95902 0.0
H1565 H 0.05862 0.98562 1.01656 0.0
H1566 H 0.12139 0.99097 0.0328 0.0
H1567 H 0.12593 0.00931 0.97473 0.0
C1568 C 0.09026 0.97093 0.12908 0.0
C1569 C 0.08094 0.95136 0.12621 0.0
C1570 C 0.09344 0.98238 0.09732 0.0
C1571 C 0.08699 0.97462 0.0624 0.0
C1572 C 0.07766 0.95509 0.05956 0.0
C1573 C 0.07482 0.94349 0.09106 0.0
C1574 C 0.07587 0.0015 0.97512 0.0
C1575 C 0.09484 0.00811 0.96254 0.0
C1576 C 0.07335 0.99086 1.00783 0.0
C1577 C 0.08968 0.98687 0.0289 0.0
C1578 C 0.10857 0.99397 1.01702 0.0
C1579 C 0.11117 0.00434 0.98384 0.0
H1580 H 0.70416 0.35628 0.63431 0.0
H1581 H 0.71908 0.42195 0.63306 0.0
H1582 H 0.7126 0.35655 0.69959 0.0
H1583 H 0.72839 0.42194 0.69797 0.0
H1584 H 0.73297 0.41734 0.82473 0.0
H1585 H 0.71786 0.4187 0.76445 0.0
H1586 H 0.74463 0.35771 0.72702 0.0
H1587 H 0.75963 0.35638 0.78683 0.0
C1588 C 0.70884 0.37091 0.64816 0.0
C1589 C 0.71115 0.38905 0.62829 0.0
C1590 C 0.71395 0.37098 0.68545 0.0
C1591 C 0.72154 0.38915 0.70373 0.0
C1592 C 0.72259 0.40768 0.68472 0.0
C1593 C 0.71744 0.40763 0.6474 0.0
C1594 C 0.73565 0.40428 0.80352 0.0
C1595 C 0.74743 0.38671 0.81063 0.0
C1596 C 0.72696 0.40504 0.76907 0.0
C1597 C 0.72987 0.38822 0.74109 0.0
C1598 C 0.74166 0.3707 0.74829 0.0
C1599 C 0.75033 0.36996 0.78258 0.0
H1600 H 0.11186 0.32407 0.3015 0.0
H1601 H 0.1613 0.36569 0.30934 0.0
H1602 H 0.10297 0.33922 0.24423 0.0
H1603 H 0.15385 0.37959 0.2501 0.0
H1604 H 0.12633 0.4159 0.16207 0.0
H1605 H 0.1351 0.40057 0.21854 0.0
H1606 H 0.10772 0.34246 0.18106 0.0
H1607 H 0.0977 0.35877 0.125 0.0
C1608 C 0.12102 0.33639 0.29076 0.0
C1609 C 0.13747 0.34352 0.31013 0.0
C1610 C 0.11607 0.34495 0.2573 0.0
C1611 C 0.12764 0.36072 0.24141 0.0
C1612 C 0.14415 0.36782 0.26107 0.0
C1613 C 0.14874 0.3596 0.29509 0.0
C1614 C 0.12222 0.39976 0.16558 0.0
C1615 C 0.11099 0.38872 0.13891 0.0
C1616 C 0.12746 0.39078 0.19829 0.0
C1617 C 0.12228 0.37003 0.20534 0.0
C1618 C 0.1117 0.35862 0.17773 0.0
C1619 C 0.10605 0.36788 0.14515 0.0
H1620 H 0.91869 0.90281 0.51745 0.0
H1621 H 0.88506 0.86277 0.58987 0.0
H1622 H 0.89717 0.89414 0.4671 0.0
H1623 H 0.86274 0.85462 0.53869 0.0
H1624 H 0.81901 0.8796 0.44257 0.0
H1625 H 0.83942 0.88417 0.49657 0.0
H1626 H 0.88931 0.85346 0.43006 0.0
H1627 H 0.86856 0.84795 0.37611 0.0
C1628 C 0.90661 0.89221 0.52281 0.0
C1629 C 0.90367 0.88337 0.55776 0.0
C1630 C 0.89436 0.8872 0.49374 0.0
C1631 C 0.87856 0.87356 0.49895 0.0
C1632 C 0.87502 0.8651 0.53411 0.0
C1633 C 0.88767 0.86981 0.56331 0.0
C1634 C 0.83432 0.87376 0.4394 0.0
C1635 C 0.84226 0.86342 0.40509 0.0
C1636 C 0.84587 0.87617 0.47047 0.0
C1637 C 0.86574 0.86886 0.4675 0.0
C1638 C 0.87388 0.85896 0.43302 0.0
C1639 C 0.86215 0.85603 0.40215 0.0
H1640 H 0.36639 0.66951 0.88131 0.0
H1641 H 0.34908 0.60785 0.91121 0.0
H1642 H 0.37532 0.65578 0.8172 0.0
H1643 H 0.35937 0.59341 0.84678 0.0
H1644 H 0.36511 0.57415 0.72033 0.0
H1645 H 0.35472 0.58824 0.78405 0.0
H1646 H 0.39628 0.63868 0.77262 0.0
H1647 H 0.40517 0.62539 0.70738 0.0
C1648 C 0.36469 0.65281 0.87437 0.0
C1649 C 0.35679 0.63992 0.902 0.0
C1650 C 0.3701 0.64477 0.83708 0.0
C1651 C 0.36845 0.62321 0.82558 0.0
C1652 C 0.36074 0.61015 0.8535 0.0
C1653 C 0.35486 0.6184 0.8909 0.0
C1654 C 0.37197 0.5884 0.73119 0.0
C1655 C 0.38642 0.59831 0.70836 0.0
C1656 C 0.36614 0.59642 0.76844 0.0
C1657 C 0.37465 0.61466 0.78496 0.0
C1658 C 0.38898 0.62475 0.76175 0.0
C1659 C 0.39452 0.61688 0.72411 0.0
H1660 H 0.62826 0.12509 0.871 0.0
H1661 H 0.67526 0.14063 0.94361 0.0
H1662 H 0.60964 0.10959 0.923 0.0
H1663 H 0.65692 0.12524 0.99541 0.0
H1664 H 0.61812 0.0922 0.08264 0.0
H1665 H 0.63987 0.09499 1.02496 0.0
H1666 H 0.59346 0.1308 0.97871 0.0
H1667 H 0.57194 0.12794 0.03578 0.0
C1668 C 0.63509 0.12415 0.89748 0.0
C1669 C 0.65347 0.13351 0.90295 0.0
C1670 C 0.62435 0.11556 0.92738 0.0
C1671 C 0.63171 0.11646 0.96343 0.0
C1672 C 0.65094 0.12407 0.96791 0.0
C1673 C 0.66163 0.1327 0.93799 0.0
C1674 C 0.61264 0.10057 0.05994 0.0
C1675 C 0.59345 0.10995 0.06363 0.0
C1676 C 0.62503 0.10212 0.02701 0.0
C1677 C 0.61828 0.11288 0.9971 0.0
C1678 C 0.59896 0.12202 1.00085 0.0
C1679 C 0.58674 0.12067 0.0338 0.0
H1680 H 0.11951 0.58988 0.57786 0.0
H1681 H 0.07472 0.62589 0.5277 0.0
H1682 H 0.14251 0.59287 0.52192 0.0
H1683 H 0.09747 0.62886 0.47222 0.0
H1684 H 0.17955 0.63828 0.4418 0.0
H1685 H 0.16024 0.6234 0.49309 0.0
H1686 H 0.11454 0.60671 0.41771 0.0
H1687 H 0.13415 0.62158 0.36624 0.0
C1688 C 0.11462 0.59838 0.55484 0.0
C1689 C 0.09542 0.60773 0.55705 0.0
C1690 C 0.12771 0.60003 0.52289 0.0
C1691 C 0.12169 0.61083 0.49247 0.0
C1692 C 0.10241 0.62005 0.49481 0.0
C1693 C 0.08947 0.61862 0.52681 0.0
C1694 C 0.16609 0.63018 0.4355 0.0
C1695 C 0.15866 0.63051 0.39972 0.0
C1696 C 0.15483 0.62188 0.46511 0.0
C1697 C 0.13574 0.61416 0.45954 0.0
C1698 C 0.12912 0.61277 0.4229 0.0
C1699 C 0.14046 0.62098 0.39331 0.0
H1700 H 0.60186 0.86101 0.63018 0.0
H1701 H 0.61127 0.92182 0.68694 0.0
H1702 H 0.6102 0.84411 0.6867 0.0
H1703 H 0.61797 0.90554 0.74392 0.0
H1704 H 0.64475 0.8718 0.8367 0.0
H1705 H 0.63798 0.88806 0.77905 0.0
H1706 H 0.6019 0.83518 0.74605 0.0
H1707 H 0.61035 0.81833 0.80184 0.0
C1708 C 0.6055 0.87079 0.65486 0.0
C1709 C 0.60558 0.89281 0.65397 0.0
C1710 C 0.61013 0.86114 0.68771 0.0
C1711 C 0.61478 0.87323 0.72092 0.0
C1712 C 0.61497 0.89531 0.71943 0.0
C1713 C 0.61083 0.90481 0.6865 0.0
C1714 C 0.63559 0.86357 0.81682 0.0
C1715 C 0.62861 0.84348 0.82366 0.0
C1716 C 0.63139 0.87304 0.78366 0.0
C1717 C 0.61938 0.86308 0.75674 0.0
C1718 C 0.61168 0.84333 0.76479 0.0
C1719 C 0.61631 0.8337 0.79743 0.0
H1720 H 0.41141 0.34973 0.05319 0.0
H1721 H 0.41237 0.4144 0.02769 0.0
H1722 H 0.39162 0.34134 0.99864 0.0
H1723 H 0.3922 0.40676 0.97445 0.0
H1724 H 0.33599 0.38858 0.91461 0.0
H1725 H 0.35743 0.39595 0.96598 0.0
H1726 H 0.39443 0.34131 0.92664 0.0
H1727 H 0.37287 0.33398 0.87462 0.0
C1728 C 0.40704 0.36225 0.03629 0.0
C1729 C 0.4123 0.38312 0.04575 0.0
C1730 C 0.3959 0.35746 1.00501 0.0
C1731 C 0.39004 0.37351 0.9827 0.0
C1732 C 0.39593 0.39418 0.99174 0.0
C1733 C 0.40707 0.39877 1.02267 0.0
C1734 C 0.34887 0.37831 0.91649 0.0
C1735 C 0.3527 0.36062 0.89078 0.0
C1736 C 0.36112 0.38249 0.94601 0.0
C1737 C 0.3775 0.36908 0.95054 0.0
C1738 C 0.38173 0.35173 0.92414 0.0
C1739 C 0.36954 0.34766 0.89425 0.0
H1740 H 0.87787 0.15985 0.39562 0.0
H1741 H 0.83439 0.11143 0.40505 0.0
H1742 H 0.88858 0.14546 0.3322 0.0
H1743 H 0.84469 0.09728 0.34008 0.0
H1744 H 0.85801 0.0927 0.2058 0.0
H1745 H 0.84557 0.10601 0.27007 0.0
H1746 H 0.90611 0.11381 0.29991 0.0
H1747 H 0.91812 0.09962 0.23749 0.0
C1748 C 0.87046 0.14605 0.3843 0.0
C1749 C 0.8549 0.1371 0.40601 0.0
C1750 C 0.87669 0.13776 0.34751 0.0
C1751 C 0.86753 0.12018 0.33029 0.0
C1752 C 0.85201 0.11101 0.35189 0.0
C1753 C 0.84599 0.11916 0.38932 0.0
C1754 C 0.86869 0.09763 0.22587 0.0
C1755 C 0.88932 0.09634 0.2147 0.0
C1756 C 0.86151 0.10509 0.26302 0.0
C1757 C 0.87474 0.11152 0.29054 0.0
C1758 C 0.8953 0.1098 0.27955 0.0
C1759 C 0.90236 0.10209 0.24278 0.0
H1760 H 0.90002 0.638 0.24351 0.0
H1761 H 0.86287 0.58545 0.21624 0.0
H1762 H 0.89241 0.65311 0.18498 0.0
H1763 H 0.85392 0.6011 0.1596 0.0
H1764 H 0.85533 0.62246 0.03994 0.0
H1765 H 0.86339 0.60744 0.09841 0.0
H1766 H 0.87076 0.67022 0.15019 0.0
H1767 H 0.86377 0.68481 0.09134 0.0
C1768 C 0.89018 0.62971 0.22512 0.0
C1769 C 0.88262 0.6102 0.23433 0.0
C1770 C 0.88549 0.63851 0.19153 0.0
C1771 C 0.87262 0.62835 0.16648 0.0
C1772 C 0.86432 0.60931 0.17696 0.0
C1773 C 0.86925 0.60043 0.21012 0.0
C1774 C 0.85872 0.63296 0.06385 0.0
C1775 C 0.85889 0.65483 0.06076 0.0
C1776 C 0.86323 0.62439 0.09776 0.0
C1777 C 0.86783 0.63745 0.12985 0.0
C1778 C 0.86781 0.65938 0.12644 0.0
C1779 C 0.86362 0.66785 0.0925 0.0
H1780 H 0.11492 0.13124 0.77504 0.0
H1781 H 0.08246 0.09311 0.85264 0.0
H1782 H 0.13787 0.14088 0.82479 0.0
H1783 H 0.10468 0.10258 0.90063 0.0
H1784 H 0.18376 0.12406 0.92113 0.0
H1785 H 0.16348 0.11842 0.8667 0.0
H1786 H 0.11079 0.13857 0.93753 0.0
H1787 H 0.13101 0.14443 0.99163 0.0
C1788 C 0.11268 0.12495 0.80235 0.0
C1789 C 0.0968 0.11149 0.80978 0.0
C1790 C 0.12576 0.13038 0.83066 0.0
C1791 C 0.12283 0.1226 0.86662 0.0
C1792 C 0.10713 0.10907 0.87348 0.0
C1793 C 0.0944 0.10359 0.84563 0.0
C1794 C 0.16782 0.12714 0.92501 0.0
C1795 C 0.15884 0.13442 0.96064 0.0
C1796 C 0.15632 0.12427 0.89377 0.0
C1797 C 0.13564 0.12826 0.89788 0.0
C1798 C 0.12673 0.13545 0.93359 0.0
C1799 C 0.13822 0.13857 0.9646 0.0
H1800 H 0.65819 0.38784 0.46013 0.0
H1801 H 0.62921 0.3299 0.48222 0.0
H1802 H 0.64936 0.40152 0.52552 0.0
H1803 H 0.62147 0.34266 0.54728 0.0
H1804 H 0.59588 0.37373 0.6599 0.0
H1805 H 0.60345 0.36159 0.59376 0.0
H1806 H 0.65304 0.4037 0.58852 0.0
H1807 H 0.64409 0.41698 0.65329 0.0
C1808 C 0.65012 0.3779 0.47892 0.0
C1809 C 0.6445 0.35769 0.46527 0.0
C1810 C 0.64504 0.3857 0.51693 0.0
C1811 C 0.63443 0.37345 0.54302 0.0
C1812 C 0.62907 0.35316 0.52896 0.0
C1813 C 0.63375 0.34564 0.49108 0.0
C1814 C 0.60806 0.38074 0.6444 0.0
C1815 C 0.61888 0.3968 0.66232 0.0
C1816 C 0.61282 0.37345 0.60615 0.0
C1817 C 0.62904 0.3815 0.58433 0.0
C1818 C 0.64018 0.39718 0.60295 0.0
C1819 C 0.63515 0.4047 0.64084 0.0
H1820 H 0.36993 0.81756 0.46357 0.0
H1821 H 0.33231 0.87345 0.487 0.0
H1822 H 0.38993 0.83473 0.41694 0.0
H1823 H 0.35252 0.89095 0.43847 0.0
H1824 H 0.43168 0.87106 0.35117 0.0
H1825 H 0.41303 0.86297 0.40888 0.0
H1826 H 0.3586 0.88526 0.36592 0.0
H1827 H 0.37766 0.89411 0.308 0.0
C1828 C 0.36602 0.83372 0.45905 0.0
C1829 C 0.34904 0.8439 0.47802 0.0
C1830 C 0.37762 0.84363 0.43224 0.0
C1831 C 0.37273 0.86415 0.4236 0.0
C1832 C 0.35643 0.87497 0.44409 0.0
C1833 C 0.34485 0.86499 0.47166 0.0
C1834 C 0.41575 0.87435 0.35402 0.0
C1835 C 0.40602 0.88278 0.32479 0.0
C1836 C 0.40507 0.86982 0.38721 0.0
C1837 C 0.38428 0.87319 0.3918 0.0
C1838 C 0.37462 0.8826 0.36332 0.0
C1839 C 0.38544 0.88742 0.33004 0.0
H1840 H 0.92913 0.37353 0.84781 0.0
H1841 H 0.87512 0.39816 0.80697 0.0
H1842 H 0.91058 0.36426 0.90481 0.0
H1843 H 0.85614 0.38817 0.86427 0.0
H1844 H 0.83126 0.37554 0.987 0.0
H1845 H 0.85048 0.39281 0.93689 0.0
H1846 H 0.88725 0.3363 0.91269 0.0
H1847 H 0.86835 0.3194 0.9612 0.0
C1848 C 0.91321 0.37691 0.851 0.0
C1849 C 0.90349 0.38619 0.82261 0.0
C1850 C 0.90258 0.37166 0.88379 0.0
C1851 C 0.88182 0.37516 0.88889 0.0
C1852 C 0.87214 0.38535 0.86127 0.0
C1853 C 0.88292 0.39087 0.82837 0.0
C1854 C 0.84346 0.36695 0.9708 0.0
C1855 C 0.84791 0.34595 0.97741 0.0
C1856 C 0.85445 0.37679 0.94222 0.0
C1857 C 0.87037 0.3659 0.92067 0.0
C1858 C 0.87528 0.3453 0.92886 0.0
C1859 C 0.86431 0.33554 0.95679 0.0
H1860 H 0.3874 0.1692 0.57425 0.0
H1861 H 0.34427 0.12125 0.55456 0.0
H1862 H 0.39555 0.15399 0.63192 0.0
H1863 H 0.351 0.10691 0.61403 0.0
H1864 H 0.37865 0.07281 0.7051 0.0
H1865 H 0.37142 0.0878 0.64717 0.0
H1866 H 0.38766 0.14913 0.69443 0.0
H1867 H 0.39604 0.13349 0.75227 0.0
C1868 C 0.37944 0.15545 0.58241 0.0
C1869 C 0.36491 0.14667 0.55966 0.0
C1870 C 0.38396 0.14682 0.61608 0.0
C1871 C 0.37391 0.12917 0.62876 0.0
C1872 C 0.35942 0.12029 0.60566 0.0
C1873 C 0.35521 0.12873 0.57152 0.0
C1874 C 0.38072 0.08955 0.70334 0.0
C1875 C 0.3882 0.10184 0.73357 0.0
C1876 C 0.37634 0.09829 0.66981 0.0
C1877 C 0.37873 0.11991 0.66526 0.0
C1878 C 0.38587 0.13237 0.69596 0.0
C1879 C 0.39059 0.12345 0.7295 0.0
H1880 H 0.61835 0.59888 0.28144 0.0
H1881 H 0.57099 0.63818 0.33912 0.0
H1882 H 0.63853 0.60513 0.33458 0.0
H1883 H 0.59179 0.64638 0.39101 0.0
H1884 H 0.62145 0.63882 0.4988 0.0
H1885 H 0.60241 0.63374 0.44324 0.0
H1886 H 0.65765 0.6224 0.37359 0.0
H1887 H 0.67596 0.62483 0.42955 0.0
C1888 C 0.61253 0.60947 0.30511 0.0
C1889 C 0.59287 0.61743 0.30668 0.0
C1890 C 0.62419 0.61323 0.33584 0.0
C1891 C 0.61677 0.62582 0.36837 0.0
C1892 C 0.59782 0.63569 0.36774 0.0
C1893 C 0.58595 0.63136 0.33749 0.0
C1894 C 0.62932 0.63473 0.47156 0.0
C1895 C 0.65013 0.63224 0.46851 0.0
C1896 C 0.61849 0.63224 0.43936 0.0
C1897 C 0.6283 0.62796 0.40307 0.0
C1898 C 0.64923 0.62527 0.40053 0.0
C1899 C 0.65989 0.62685 0.43284 0.0
H1900 H 0.12102 0.8328 0.97337 0.0
H1901 H 0.16382 0.88164 0.96084 0.0
H1902 H 0.11208 0.8464 0.03786 0.0
H1903 H 0.15562 0.89488 0.02671 0.0
H1904 H 0.12292 0.92627 0.13572 0.0
H1905 H 0.13313 0.91284 0.07141 0.0
H1906 H 0.11993 0.84974 0.10039 0.0
H1907 H 0.10924 0.86352 0.16495 0.0
C1908 C 0.12871 0.84648 0.98436 0.0
C1909 C 0.14342 0.85588 0.96131 0.0
C1910 C 0.12369 0.85419 1.02202 0.0
C1911 C 0.13314 0.87176 0.03872 0.0
C1912 C 0.14773 0.88142 1.01548 0.0
C1913 C 0.15271 0.87366 0.97748 0.0
C1914 C 0.12224 0.90947 0.12859 0.0
C1915 C 0.11481 0.89611 0.15591 0.0
C1916 C 0.12826 0.90167 0.0913 0.0
C1917 C 0.12739 0.88004 0.07958 0.0
C1918 C 0.12049 0.86655 0.10735 0.0
C1919 C 0.11434 0.87444 0.14474 0.0
H1920 H 0.98628 0.55106 0.26543 0.0
H1921 H 0.94176 0.51764 0.20514 0.0
H1922 H 0.01207 0.52654 0.2355 0.0
H1923 H 0.96719 0.49235 0.17645 0.0
H1924 H 0.01656 0.46302 0.09972 0.0
H1925 H 0.99402 0.49154 0.12856 0.0
H1926 H 0.02518 0.49208 0.23078 0.0
H1927 H 0.04775 0.46461 0.20155 0.0
C1928 C 0.98194 0.5377 0.24736 0.0
C1929 C 0.96212 0.53574 0.23823 0.0
C1930 C 0.9967 0.52386 0.22967 0.0
C1931 C 0.99176 0.50775 0.20283 0.0
C1932 C 0.9716 0.50496 0.19602 0.0
C1933 C 0.95695 0.51899 0.21329 0.0
C1934 C 0.01902 0.47003 0.12762 0.0
C1935 C 0.03377 0.46179 0.14851 0.0
C1936 C 0.00592 0.48597 0.14453 0.0
C1937 C 0.00746 0.49366 0.18242 0.0
C1938 C 0.02349 0.48663 0.20168 0.0
C1939 C 0.03651 0.47091 0.18483 0.0
H1940 H 0.77787 0.75331 0.35779 0.0
H1941 H 0.75895 0.81097 0.4237 0.0
H1942 H 0.75529 0.73358 0.39761 0.0
H1943 H 0.73772 0.79132 0.46504 0.0
H1944 H 0.68864 0.75093 0.5137 0.0
H1945 H 0.70965 0.77231 0.4751 0.0
H1946 H 0.75393 0.72152 0.45806 0.0
H1947 H 0.73199 0.69948 0.49464 0.0
C1948 C 0.76863 0.76177 0.38039 0.0
C1949 C 0.77026 0.78359 0.38778 0.0
C1950 C 0.75603 0.75046 0.40376 0.0
C1951 C 0.74513 0.76073 0.43537 0.0
C1952 C 0.7458 0.7828 0.44105 0.0
C1953 C 0.758 0.79413 0.41717 0.0
C1954 C 0.70305 0.74445 0.50241 0.0
C1955 C 0.70852 0.72338 0.50653 0.0
C1956 C 0.71515 0.75676 0.48012 0.0
C1957 C 0.73328 0.74847 0.46241 0.0
C1958 C 0.73969 0.72812 0.46996 0.0
C1959 C 0.72735 0.71562 0.49161 0.0
H1960 H 0.56278 0.48115 0.69547 0.0
H1961 H 0.51165 0.46305 0.76476 0.0
H1962 H 0.54168 0.5031 0.6621 0.0
H1963 H 0.49043 0.48678 0.73354 0.0
H1964 H 0.4526 0.51157 0.64793 0.0
H1965 H 0.47521 0.48878 0.67795 0.0
H1966 H 0.52288 0.53216 0.6579 0.0
H1967 H 0.50088 0.55357 0.62525 0.0
C1968 C 0.54708 0.48254 0.7047 0.0
C1969 C 0.53885 0.47015 0.73257 0.0
C1970 C 0.53485 0.49523 0.68537 0.0
C1971 C 0.5141 0.4965 0.69428 0.0
C1972 C 0.50618 0.48562 0.72471 0.0
C1973 C 0.51839 0.4724 0.74335 0.0
C1974 C 0.46811 0.51574 0.6488 0.0
C1975 C 0.47487 0.53448 0.63454 0.0
C1976 C 0.48101 0.50296 0.66685 0.0
C1977 C 0.50085 0.50884 0.67164 0.0
C1978 C 0.50784 0.52686 0.65489 0.0
C1979 C 0.49513 0.53927 0.63603 0.0
H1980 H 0.7597 0.20194 0.86679 0.0
H1981 H 0.70243 0.22796 0.84411 0.0
H1982 H 0.76804 0.23583 0.89782 0.0
H1983 H 0.71035 0.26155 0.87619 0.0
H1984 H 0.73931 0.32151 0.93289 0.0
H1985 H 0.73161 0.29294 0.88671 0.0
H1986 H 0.75096 0.24743 0.96132 0.0
H1987 H 0.75896 0.27595 1.00685 0.0
C1988 C 0.74929 0.21517 0.86688 0.0
C1989 C 0.73019 0.21237 0.85433 0.0
C1990 C 0.75389 0.23441 0.88516 0.0
C1991 C 0.73939 0.25082 0.89084 0.0
C1992 C 0.72161 0.249 0.87277 0.0
C1993 C 0.7171 0.22982 0.85437 0.0
C1994 C 0.74096 0.30536 0.94006 0.0
C1995 C 0.74957 0.30073 0.97333 0.0
C1996 C 0.73698 0.28908 0.91335 0.0
C1997 C 0.74155 0.26814 0.91992 0.0
C1998 C 0.7481 0.26355 0.95501 0.0
C1999 C 0.75214 0.27976 0.9815 0.0
H2000 H 0.97827 0.44521 0.70543 0.0
H2001 H 0.95713 0.49595 0.78669 0.0
H2002 H 0.99532 0.4704 0.66715 0.0
H2003 H 0.97283 0.52135 0.74747 0.0
H2004 H 0.02209 0.55735 0.68782 0.0
H2005 H 0.0028 0.53459 0.72654 0.0
H2006 H 0.98877 0.4965 0.62635 0.0
H2007 H 0.00954 0.51873 0.58764 0.0
C2008 C 0.97756 0.46177 0.71522 0.0
C2009 C 0.96674 0.46872 0.74904 0.0
C2010 C 0.9869 0.47625 0.69299 0.0
C2011 C 0.98512 0.49797 0.70384 0.0
C2012 C 0.97471 0.50476 0.7384 0.0
C2013 C 0.9658 0.49022 0.76104 0.0
C2014 C 0.0146 0.54432 0.67399 0.0
C2015 C 0.01763 0.53944 0.63491 0.0
C2016 C 0.00343 0.53127 0.69623 0.0
C2017 C 0.99461 0.51338 0.67968 0.0
C2018 C 0.99599 0.50974 0.64007 0.0
C2019 C 0.00758 0.52262 0.61781 0.0
H2020 H 0.74557 0.69545 0.9994 0.0
H2021 H 0.7987 0.72689 0.96154 0.0
H2022 H 0.72518 0.71969 0.96828 0.0
H2023 H 0.77821 0.75219 0.93194 0.0
H2024 H 0.7388 0.78218 0.85207 0.0
H2025 H 0.75888 0.7567 0.8815 0.0
H2026 H 0.71186 0.75352 0.97014 0.0
H2027 H 0.69143 0.77809 0.93908 0.0
C2028 C 0.75287 0.70783 0.98482 0.0
C2029 C 0.77371 0.70935 0.98296 0.0
C2030 C 0.74113 0.72187 0.96712 0.0
C2031 C 0.74989 0.7381 0.94754 0.0
C2032 C 0.77085 0.73973 0.94612 0.0
C2033 C 0.78265 0.72539 0.96338 0.0
C2034 C 0.73271 0.77577 0.8776 0.0
C2035 C 0.71355 0.78196 0.89321 0.0
C2036 C 0.74432 0.76135 0.89481 0.0
C2037 C 0.73721 0.75306 0.92856 0.0
C2038 C 0.71784 0.7592 0.94391 0.0
C2039 C 0.70607 0.77334 0.92622 0.0
H2040 H 0.45536 0.49722 0.15127 0.0
H2041 H 0.48799 0.43799 0.14971 0.0
H2042 H 0.47946 0.51422 0.18982 0.0
H2043 H 0.51175 0.45471 0.19081 0.0
H2044 H 0.56237 0.50026 0.21873 0.0
H2045 H 0.53769 0.47936 0.18718 0.0
H2046 H 0.4905 0.51679 0.25096 0.0
H2047 H 0.51537 0.5385 0.28068 0.0
C2048 C 0.46766 0.4878 0.15965 0.0
C2049 C 0.47 0.46638 0.14763 0.0
C2050 C 0.48131 0.49746 0.18218 0.0
C2051 C 0.49735 0.48574 0.19383 0.0
C2052 C 0.49961 0.46417 0.18197 0.0
C2053 C 0.48609 0.45459 0.1586 0.0
C2054 C 0.54668 0.50381 0.22615 0.0
C2055 C 0.54058 0.52099 0.25158 0.0
C2056 C 0.53257 0.49176 0.20838 0.0
C2057 C 0.51217 0.49655 0.21636 0.0
C2058 C 0.50614 0.51306 0.24358 0.0
C2059 C 0.52029 0.52541 0.2607 0.0
H2060 H 0.74482 0.18396 0.45222 0.0
H2061 H 0.78997 0.22544 0.49258 0.0
H2062 H 0.72995 0.21246 0.42185 0.0
H2063 H 0.77414 0.25477 0.4648 0.0
H2064 H 0.69699 0.27219 0.39868 0.0
H2065 H 0.71168 0.24264 0.42594 0.0
H2066 H 0.77012 0.26906 0.40821 0.0
H2067 H 0.75483 0.2999 0.38401 0.0
C2068 C 0.75104 0.19948 0.45604 0.0
C2069 C 0.76841 0.20258 0.47518 0.0
C2070 C 0.74254 0.21593 0.43838 0.0
C2071 C 0.75089 0.23608 0.44026 0.0
C2072 C 0.76758 0.23941 0.46158 0.0
C2073 C 0.7764 0.22276 0.47839 0.0
C2074 C 0.71303 0.27161 0.4001 0.0
C2075 C 0.72469 0.28863 0.38993 0.0
C2076 C 0.72155 0.25448 0.4157 0.0
C2077 C 0.74215 0.25348 0.4203 0.0
C2078 C 0.75411 0.26959 0.40658 0.0
C2079 C 0.74543 0.2871 0.39187 0.0
H2080 H 0.26365 0.31254 0.91674 0.0
H2081 H 0.28036 0.25316 0.85446 0.0
H2082 H 0.243 0.29441 0.9616 0.0
H2083 H 0.25843 0.23497 0.89787 0.0
H2084 H 0.23956 0.20338 0.99828 0.0
H2085 H 0.26059 0.22557 0.96039 0.0
H2086 H 0.21509 0.27514 0.97638 0.0
H2087 H 0.19486 0.25359 1.01618 0.0
C2088 C 0.26225 0.29567 0.91174 0.0
C2089 C 0.27394 0.28414 0.88264 0.0
C2090 C 0.25046 0.28523 0.93766 0.0
C2091 C 0.2497 0.26314 0.9342 0.0
C2092 C 0.25948 0.25193 0.90235 0.0
C2093 C 0.27163 0.26234 0.87692 0.0
C2094 C 0.23449 0.21936 0.99496 0.0
C2095 C 0.21538 0.22655 1.00915 0.0
C2096 C 0.24629 0.2319 0.97256 0.0
C2097 C 0.23904 0.2517 0.96378 0.0
C2098 C 0.22103 0.25987 0.98204 0.0
C2099 C 0.20943 0.24749 1.00505 0.0
H2100 H 0.20726 0.72575 0.33744 0.0
H2101 H 0.2629 0.70159 0.37213 0.0
H2102 H 0.21286 0.7599 0.37028 0.0
H2103 H 0.26894 0.73596 0.40395 0.0
H2104 H 0.25502 0.77743 0.50902 0.0
H2105 H 0.24791 0.74811 0.46431 0.0
H2106 H 0.23417 0.79194 0.3825 0.0
H2107 H 0.24101 0.82133 0.42777 0.0
C2108 C 0.2211 0.72811 0.35063 0.0
C2109 C 0.23432 0.71106 0.35351 0.0
C2110 C 0.22429 0.74759 0.36945 0.0
C2111 C 0.24084 0.75008 0.39093 0.0
C2112 C 0.25567 0.73402 0.38856 0.0
C2113 C 0.25243 0.71452 0.3698 0.0
C2114 C 0.24947 0.78076 0.48223 0.0
C2115 C 0.24843 0.80142 0.47169 0.0
C2116 C 0.24595 0.76406 0.45631 0.0
C2117 C 0.24142 0.76791 0.41954 0.0
C2118 C 0.23799 0.78867 0.41053 0.0
C2119 C 0.24145 0.80543 0.43665 0.0
H2120 H 0.29715 0.23041 0.49643 0.0
H2121 H 0.26754 0.18363 0.4278 0.0
H2122 H 0.27465 0.2577 0.47805 0.0
H2123 H 0.24568 0.21094 0.40758 0.0
H2124 H 0.19679 0.26111 0.4052 0.0
H2125 H 0.21835 0.23382 0.4273 0.0
H2126 H 0.26697 0.27731 0.42879 0.0
H2127 H 0.2453 0.30448 0.40909 0.0
C2128 C 0.28605 0.22608 0.47679 0.0
C2129 C 0.28401 0.205 0.46354 0.0
C2130 C 0.27314 0.24169 0.46614 0.0
C2131 C 0.25817 0.23658 0.44138 0.0
C2132 C 0.25662 0.21546 0.42736 0.0
C2133 C 0.26931 0.19983 0.43856 0.0
C2134 C 0.21205 0.26474 0.41066 0.0
C2135 C 0.21938 0.28484 0.40531 0.0
C2136 C 0.22448 0.24912 0.42299 0.0
C2137 C 0.24452 0.25326 0.42973 0.0
C2138 C 0.25161 0.27353 0.42466 0.0
C2139 C 0.23917 0.28913 0.413 0.0
H2140 H 0.24531 0.67969 0.94814 0.0
H2141 H 0.28986 0.72208 0.98808 0.0
H2142 H 0.22942 0.70819 0.91898 0.0
H2143 H 0.27323 0.75118 0.96111 0.0
H2144 H 0.25357 0.79529 0.87879 0.0
H2145 H 0.26906 0.76464 0.90324 0.0
H2146 H 0.21071 0.73871 0.92465 0.0
H2147 H 0.19567 0.76826 0.89758 0.0
C2148 C 0.25121 0.69536 0.95206 0.0
C2149 C 0.26873 0.69874 0.97064 0.0
C2150 C 0.24215 0.71177 0.93508 0.0
C2151 C 0.25017 0.73207 0.93694 0.0
C2152 C 0.26695 0.73568 0.9579 0.0
C2153 C 0.27624 0.71914 0.97419 0.0
C2154 C 0.24419 0.78267 0.8876 0.0
C2155 C 0.22339 0.78434 0.88671 0.0
C2156 C 0.253 0.76527 0.9024 0.0
C2157 C 0.24115 0.74937 0.91713 0.0
C2158 C 0.22045 0.75046 0.91365 0.0
C2159 C 0.21175 0.76755 0.89813 0.0
H2160 H 0.45695 0.01625 0.77865 0.0
H2161 H 0.49698 0.06135 0.7324 0.0
H2162 H 0.47456 0.98798 0.73884 0.0
H2163 H 0.51356 0.03364 0.69041 0.0
H2164 H 0.54851 0.9746 0.63776 0.0
H2165 H 0.53386 0.00425 0.67803 0.0
H2166 H 0.4763 0.97501 0.67678 0.0
H2167 H 0.49165 0.94444 0.64027 0.0
C2168 C 0.46977 0.01999 0.76042 0.0
C2169 C 0.47572 0.04085 0.75887 0.0
C2170 C 0.4796 0.00393 0.73688 0.0
C2171 C 0.49516 0.00853 0.71032 0.0
C2172 C 0.50177 0.02934 0.71041 0.0
C2173 C 0.49228 0.04529 0.73472 0.0
C2174 C 0.53276 0.97459 0.64599 0.0
C2175 C 0.52138 0.95692 0.63716 0.0
C2176 C 0.52424 0.9917 0.669 0.0
C2177 C 0.50397 0.99174 0.6822 0.0
C2178 C 0.49216 0.97512 0.66903 0.0
C2179 C 0.50083 0.95779 0.64726 0.0
H2180 H 0.00244 0.93139 0.18234 0.0
H2181 H 0.04323 0.97274 0.23762 0.0
H2182 H 0.98439 0.96116 0.16261 0.0
H2183 H 0.02404 0.00326 0.22053 0.0
H2184 H 0.00632 0.05104 0.1428 0.0
H2185 H 0.02142 0.02026 0.16639 0.0
H2186 H 0.9643 0.98998 0.16775 0.0
H2187 H 0.95009 0.01985 0.13958 0.0
C2188 C 0.00695 0.94705 0.19183 0.0
C2189 C 0.02431 0.94983 0.21118 0.0
C2190 C 0.99653 0.96426 0.18045 0.0
C2191 C 0.00298 0.98481 0.18884 0.0
C2192 C 0.01906 0.98764 0.21217 0.0
C2193 C 0.02979 0.97023 0.22297 0.0
C2194 C 0.99718 0.03747 0.14701 0.0
C2195 C 0.97682 0.03813 0.14056 0.0
C2196 C 0.0057 0.02 0.16163 0.0
C2197 C 0.99398 0.00286 0.17092 0.0
C2198 C 0.97391 0.00288 0.16154 0.0
C2199 C 0.96559 0.02014 0.1456 0.0
H2200 H 0.47922 0.94392 0.20369 0.0
H2201 H 0.46074 0.99105 0.29375 0.0
H2202 H 0.49512 0.97095 0.168 0.0
H2203 H 0.47522 0.01828 0.25732 0.0
H2204 H 0.52274 0.05693 0.19885 0.0
H2205 H 0.50466 0.03229 0.23552 0.0
H2206 H 0.48718 -0.00073 0.1327 0.0
H2207 H 0.50672 0.02337 0.09575 0.0
C2208 C 0.47883 0.96006 0.21592 0.0
C2209 C 0.46904 0.96546 0.25144 0.0
C2210 C 0.48751 0.97561 0.19525 0.0
C2211 C 0.48611 0.99687 0.20946 0.0
C2212 C 0.47678 0.00207 0.24563 0.0
C2213 C 0.46855 0.98645 0.26664 0.0
C2214 C 0.51472 0.04465 0.18405 0.0
C2215 C 0.51644 0.0417 0.14452 0.0
C2216 C 0.50426 0.03051 0.20514 0.0
C2217 C 0.49485 0.01346 0.18707 0.0
C2218 C 0.49489 0.01181 0.14743 0.0
C2219 C 0.50577 0.02577 0.12625 0.0
H2220 H 0.98114 0.93133 0.68855 0.0
H2221 H 0.00915 0.95095 0.58459 0.0
H2222 H 4e-05 0.95631 0.72415 0.0
H2223 H 0.02931 0.97551 0.62055 0.0
H2224 H 0.02394 0.04096 0.68504 0.0
H2225 H 0.01666 0.00811 0.64946 0.0
H2226 H 0.02614 0.97391 0.7474 0.0
H2227 H 0.03119 0.00657 0.78351 0.0
C2228 C 0.99222 0.94019 0.67338 0.0
C2229 C 0.99317 0.94004 0.63403 0.0
C2230 C 0.00316 0.95462 0.69386 0.0
C2231 C 0.01548 0.96863 0.675 0.0
C2232 C 0.01917 0.96557 0.63565 0.0
C2233 C 0.00787 0.95138 0.61512 0.0
C2234 C 0.02384 0.02643 0.69901 0.0
C2235 C 0.02778 0.02637 0.73702 0.0
C2236 C 0.02031 0.00754 0.67848 0.0
C2237 C 0.02119 0.9883 0.69548 0.0
C2238 C 0.02513 0.9884 0.73354 0.0
C2239 C 0.02789 0.00725 0.75432 0.0
H2240 H 0.00841 0.38869 0.03713 0.0
H2241 H 0.0557 0.41276 0.9655 0.0
H2242 H 0.98602 0.38977 0.98576 0.0
H2243 H 0.0335 0.41414 0.9149 0.0
H2244 H 0.9942 0.40019 0.81902 0.0
H2245 H 0.01571 0.39402 0.86941 0.0
H2246 H 0.96837 0.41585 0.95223 0.0
H2247 H 0.94663 0.42171 0.90161 0.0
C2248 C 0.01417 0.39381 1.01029 0.0
C2249 C 0.03395 0.40055 1.0056 0.0
C2250 C 0.00124 0.39471 0.98093 0.0
C2251 C 0.00782 0.40215 0.94599 0.0
C2252 C 0.02783 0.40808 0.94103 0.0
C2253 C 0.04063 0.40734 0.9703 0.0
C2254 C 0.98828 0.40364 0.84793 0.0
C2255 C 0.96863 0.41162 0.856 0.0
C2256 C 0.00071 0.40016 0.87698 0.0
C2257 C 0.99393 0.40451 0.91515 0.0
C2258 C 0.97412 0.41209 0.9233 0.0
C2259 C 0.96167 0.41562 0.89416 0.0
H2260 H 0.81942 0.6989 0.13869 0.0
H2261 H 0.83286 0.7484 0.06501 0.0
H2262 H 0.82361 0.7235 0.19341 0.0
H2263 H 0.83734 0.77276 0.11962 0.0
H2264 H 0.8136 0.81395 0.2274 0.0
H2265 H 0.8152 0.79005 0.17065 0.0
H2266 H 0.84893 0.74473 0.22639 0.0
H2267 H 0.84708 0.76874 0.28378 0.0
C2268 C 0.82324 0.715 0.13412 0.0
C2269 C 0.82555 0.72172 0.09743 0.0
C2270 C 0.8259 0.72902 0.16548 0.0
C2271 C 0.83084 0.75007 0.16083 0.0
C2272 C 0.83337 0.75669 0.12414 0.0
C2273 C 0.8308 0.74269 0.09283 0.0
C2274 C 0.82168 0.79905 0.22737 0.0
C2275 C 0.83013 0.79316 0.26007 0.0
C2276 C 0.82267 0.78537 0.19477 0.0
C2277 C 0.83203 0.76541 0.19414 0.0
C2278 C 0.84139 0.75991 0.22624 0.0
C2279 C 0.84056 0.77375 0.25889 0.0
H2280 H 0.50533 0.59891 0.35082 0.0
H2281 H 0.55071 0.57256 0.41475 0.0
H2282 H 0.48303 0.60396 0.40715 0.0
H2283 H 0.52786 0.57768 0.47208 0.0
H2284 H 0.48412 0.60601 0.57303 0.0
H2285 H 0.50869 0.60511 0.51838 0.0
H2286 H 0.4642 0.58041 0.44651 0.0
H2287 H 0.43992 0.58134 0.50064 0.0
C2288 C 0.51068 0.59416 0.37693 0.0
C2289 C 0.52993 0.58502 0.37777 0.0
C2290 C 0.49772 0.59706 0.40943 0.0
C2291 C 0.50344 0.59103 0.44426 0.0
C2292 C 0.52294 0.58258 0.44574 0.0
C2293 C 0.53603 0.57955 0.41284 0.0
C2294 C 0.47948 0.60094 0.54535 0.0
C2295 C 0.45991 0.59402 0.54119 0.0
C2296 C 0.49366 0.60008 0.51413 0.0
C2297 C 0.48853 0.59261 0.47791 0.0
C2298 C 0.46874 0.58644 0.47376 0.0
C2299 C 0.45474 0.58702 0.50487 0.0
H2300 H 0.67775 0.22364 0.63836 0.0
H2301 H 0.63987 0.27528 0.68916 0.0
H2302 H 0.67986 0.24027 0.5787 0.0
H2303 H 0.64142 0.29147 0.62936 0.0
H2304 H 0.67087 0.32664 0.53357 0.0
H2305 H 0.66646 0.30896 0.59138 0.0
H2306 H 0.65984 0.24969 0.52638 0.0
H2307 H 0.66462 0.26749 0.46796 0.0
C2308 C 0.66985 0.23851 0.6368 0.0
C2309 C 0.6587 0.24816 0.66861 0.0
C2310 C 0.67085 0.2479 0.60248 0.0
C2311 C 0.66081 0.2672 0.59925 0.0
C2312 C 0.64949 0.2767 0.63096 0.0
C2313 C 0.64844 0.26731 0.66517 0.0
C2314 C 0.66842 0.30984 0.53146 0.0
C2315 C 0.66817 0.29845 0.4961 0.0
C2316 C 0.66573 0.29972 0.56471 0.0
C2317 C 0.66281 0.2779 0.56355 0.0
C2318 C 0.66226 0.2665 0.5282 0.0
C2319 C 0.66481 0.2767 0.49477 0.0
H2320 H 0.98352 0.5885 0.0409 0.0
H2321 H 0.97274 0.65573 0.04273 0.0
H2322 H 0.99327 0.58724 0.97356 0.0
H2323 H 0.98232 0.6544 0.97533 0.0
H2324 H 0.98038 0.64016 0.84775 0.0
H2325 H 0.97046 0.64085 0.91491 0.0
H2326 H 0.02002 0.59883 0.92991 0.0
H2327 H 0.0301 0.59828 0.86273 0.0
C2328 C 0.98338 0.60305 0.02705 0.0
C2329 C 0.97735 0.62223 0.04736 0.0
C2330 C 0.98895 0.60231 0.98839 0.0
C2331 C 0.98856 0.62071 0.96901 0.0
C2332 C 0.9825 0.63988 0.98926 0.0
C2333 C 0.97699 0.64064 0.02794 0.0
C2334 C 0.98929 0.63121 0.86538 0.0
C2335 C 0.00611 0.61925 0.84975 0.0
C2336 C 0.98358 0.63159 0.90391 0.0
C2337 C 0.99448 0.61996 0.92785 0.0
C2338 C 0.01115 0.60778 0.9122 0.0
C2339 C 0.01691 0.60744 0.87364 0.0
H2340 H 0.67023 0.7332 0.28966 0.0
H2341 H 0.61023 0.71116 0.28138 0.0
H2342 H 0.67049 0.74399 0.22543 0.0
H2343 H 0.61056 0.72182 0.21717 0.0
H2344 H 0.62463 0.72458 0.09064 0.0
H2345 H 0.62568 0.71305 0.15405 0.0
H2346 H 0.65546 0.77004 0.18867 0.0
H2347 H 0.65432 0.78167 0.12516 0.0
C2348 C 0.65704 0.73075 0.27429 0.0
C2349 C 0.6402 0.72128 0.29094 0.0
C2350 C 0.65719 0.73695 0.23736 0.0
C2351 C 0.64055 0.73381 0.21595 0.0
C2352 C 0.62378 0.7242 0.23249 0.0
C2353 C 0.6236 0.71804 0.26942 0.0
C2354 C 0.63128 0.73477 0.11178 0.0
C2355 C 0.63926 0.75417 0.10264 0.0
C2356 C 0.63189 0.72813 0.14824 0.0
C2357 C 0.64054 0.74064 0.1767 0.0
C2358 C 0.64887 0.75986 0.16743 0.0
C2359 C 0.64823 0.76654 0.13092 0.0
H2360 H 0.54599 0.35509 0.48007 0.0
H2361 H 0.53271 0.42195 0.49684 0.0
H2362 H 0.53641 0.35505 0.41529 0.0
H2363 H 0.52285 0.42192 0.43239 0.0
H2364 H 0.52182 0.41749 0.30392 0.0
H2365 H 0.53428 0.41794 0.36672 0.0
H2366 H 0.50639 0.35847 0.38345 0.0
H2367 H 0.49424 0.35793 0.32067 0.0
C2368 C 0.54105 0.36978 0.46987 0.0
C2369 C 0.54009 0.38851 0.49357 0.0
C2370 C 0.53548 0.36976 0.43281 0.0
C2371 C 0.5287 0.38846 0.41866 0.0
C2372 C 0.52823 0.40729 0.44213 0.0
C2373 C 0.5339 0.40731 0.47911 0.0
C2374 C 0.5183 0.40458 0.32115 0.0
C2375 C 0.50713 0.38763 0.30729 0.0
C2376 C 0.52543 0.40483 0.35713 0.0
C2377 C 0.52146 0.38817 0.38011 0.0
C2378 C 0.51013 0.37133 0.36625 0.0
C2379 C 0.5031 0.37104 0.33029 0.0
H2380 H 0.80874 0.2641 0.90194 0.0
H2381 H 0.81298 0.32557 0.85906 0.0
H2382 H 0.81375 0.24759 0.83792 0.0
H2383 H 0.81776 0.30901 0.79471 0.0
H2384 H 0.84693 0.27135 0.68813 0.0
H2385 H 0.84131 0.28843 0.75163 0.0
H2386 H 0.79828 0.24163 0.7794 0.0
H2387 H 0.80373 0.22462 0.71574 0.0
C2388 C 0.81077 0.27416 0.87889 0.0
C2389 C 0.81057 0.29626 0.88601 0.0
C2390 C 0.81349 0.26463 0.84193 0.0
C2391 C 0.8162 0.27684 0.8107 0.0
C2392 C 0.816 0.29897 0.81784 0.0
C2393 C 0.81315 0.30853 0.85488 0.0
C2394 C 0.83605 0.26477 0.70747 0.0
C2395 C 0.82583 0.24645 0.69623 0.0
C2396 C 0.83283 0.27463 0.74416 0.0
C2397 C 0.81933 0.26651 0.7711 0.0
C2398 C 0.80905 0.24825 0.75988 0.0
C2399 C 0.81222 0.23842 0.72314 0.0
H2400 H 0.0454 0.57695 0.4753 0.0
H2401 H -0.00062 0.60415 0.55621 0.0
H2402 H 0.02373 0.58207 0.42426 0.0
H2403 H 0.9779 0.60945 0.50532 0.0
H2404 H 0.9366 0.58869 0.41161 0.0
H2405 H 0.95891 0.5883 0.46237 0.0
H2406 H 0.00724 0.60785 0.38779 0.0
H2407 H 0.98478 0.60806 0.33648 0.0
C2408 C 0.03073 0.58418 0.4823 0.0
C2409 C 0.02419 0.59 0.52016 0.0
C2410 C 0.01832 0.58725 0.45287 0.0
C2411 C -0.00108 0.59613 0.46043 0.0
C2412 C 0.99258 0.60231 0.49825 0.0
C2413 C 0.00499 0.59935 0.5276 0.0
C2414 C 0.95191 0.59328 0.40601 0.0
C2415 C 0.95879 0.59849 0.36974 0.0
C2416 C 0.96475 0.59309 0.43534 0.0
C2417 C 0.98502 0.59795 0.42943 0.0
C2418 C 0.99182 0.60378 0.39342 0.0
C2419 C 0.97886 0.60417 0.36403 0.0
H2420 H 0.17358 0.29551 0.23292 0.0
H2421 H 0.15297 0.24926 0.3084 0.0
H2422 H 0.16701 0.27128 0.17893 0.0
H2423 H 0.1462 0.22528 0.25454 0.0
H2424 H 0.17015 0.18095 0.14915 0.0
H2425 H 0.16772 0.20496 0.20586 0.0
H2426 H 0.14042 0.25258 0.14472 0.0
H2427 H 0.14295 0.22834 0.08758 0.0
C2428 C 0.16756 0.28025 0.23804 0.0
C2429 C 0.16406 0.27425 0.27502 0.0
C2430 C 0.16357 0.26646 0.20709 0.0
C2431 C 0.15606 0.24635 0.21246 0.0
C2432 C 0.15212 0.24059 0.24945 0.0
C2433 C 0.15604 0.25436 0.28033 0.0
C2434 C 0.16298 0.19629 0.14816 0.0
C2435 C 0.15669 0.20277 0.11405 0.0
C2436 C 0.16161 0.21008 0.18066 0.0
C2437 C 0.15411 0.23078 0.17968 0.0
C2438 C 0.1465 0.2368 0.14618 0.0
C2439 C 0.14765 0.22284 0.11365 0.0
H2440 H 0.50398 0.40113 1.02415 0.0
H2441 H 0.45702 0.42522 0.96139 0.0
H2442 H 0.52598 0.39695 0.96692 0.0
H2443 H 0.47935 0.42113 0.90365 0.0
H2444 H 0.52112 0.39443 0.80052 0.0
H2445 H 0.49785 0.39489 0.85692 0.0
H2446 H 0.54388 0.41958 0.92518 0.0
H2447 H 0.56694 0.41899 0.86934 0.0
C2448 C 0.49826 0.40555 0.99815 0.0
C2449 C 0.47862 0.41367 0.99777 0.0
C2450 C 0.51101 0.40321 0.96516 0.0
C2451 C 0.5046 0.40879 0.93045 0.0
C2452 C 0.48481 0.41651 0.92974 0.0
C2453 C 0.47202 0.419 0.96298 0.0
C2454 C 0.52638 0.39949 0.82771 0.0
C2455 C 0.54602 0.4065 0.83028 0.0
C2456 C 0.51294 0.40005 0.86002 0.0
C2457 C 0.51888 0.40735 0.89581 0.0
C2458 C 0.53873 0.41365 0.89835 0.0
C2459 C 0.55201 0.41333 0.86617 0.0
H2460 H 0.34231 0.71478 0.6695 0.0
H2461 H 0.3043 0.76525 0.72454 0.0
H2462 H 0.34657 0.70095 0.73018 0.0
H2463 H 0.30771 0.75069 0.78513 0.0
H2464 H 0.32845 0.7266 0.89322 0.0
H2465 H 0.33037 0.74352 0.83373 0.0
H2466 H 0.32496 0.68279 0.77263 0.0
H2467 H 0.32361 0.66602 0.83131 0.0
C2468 C 0.33504 0.72308 0.69458 0.0
C2469 C 0.32286 0.74106 0.6921 0.0
C2470 C 0.3373 0.715 0.72933 0.0
C2471 C 0.32733 0.7246 0.76242 0.0
C2472 C 0.31571 0.74301 0.7602 0.0
C2473 C 0.31353 0.75117 0.7254 0.0
C2474 C 0.32795 0.71689 0.867 0.0
C2475 C 0.32574 0.695 0.867 0.0
C2476 C 0.3289 0.72658 0.83299 0.0
C2477 C 0.32779 0.7145 0.79848 0.0
C2478 C 0.32614 0.69255 0.7986 0.0
C2479 C 0.32516 0.68294 0.8324 0.0
H2480 H 0.01526 0.34172 0.33081 0.0
H2481 H 0.02091 0.40933 0.33416 0.0
H2482 H 0.00573 0.34453 0.39834 0.0
H2483 H 0.01113 0.4121 0.40156 0.0
H2484 H 0.97142 0.40954 0.51267 0.0
H2485 H 0.9818 0.40742 0.44544 0.0
H2486 H 0.01997 0.35357 0.45893 0.0
H2487 H 0.00989 0.35583 0.52609 0.0
C2488 C 0.01465 0.35717 0.34593 0.0
C2489 C 0.01884 0.37529 0.32683 0.0
C2490 C 0.00915 0.35878 0.3847 0.0
C2491 C 0.00762 0.37855 0.40542 0.0
C2492 C 0.01185 0.39666 0.38639 0.0
C2493 C 0.01744 0.39505 0.34766 0.0
C2494 C 0.98222 0.3974 0.50145 0.0
C2495 C 0.9897 0.38279 0.52498 0.0
C2496 C 0.98815 0.39617 0.46283 0.0
C2497 C 0.00164 0.38024 0.44669 0.0
C2498 C 0.00928 0.36579 0.47025 0.0
C2499 C 0.00345 0.36709 0.50884 0.0
H2500 H 0.34851 0.29793 0.11583 0.0
H2501 H 0.34696 0.23321 0.07024 0.0
H2502 H 0.34988 0.28618 0.17909 0.0
H2503 H 0.34851 0.22142 0.13345 0.0
H2504 H 0.33447 0.20706 0.25616 0.0
H2505 H 0.33106 0.2193 0.19368 0.0
H2506 H 0.3714 0.26963 0.21849 0.0
H2507 H 0.37404 0.25804 0.28139 0.0
C2508 C 0.34859 0.28117 0.11919 0.0
C2509 C 0.34767 0.26658 0.08763 0.0
C2510 C 0.34941 0.27439 0.15562 0.0
C2511 C 0.3494 0.25277 0.16174 0.0
C2512 C 0.34824 0.23819 0.1302 0.0
C2513 C 0.34737 0.24498 0.09377 0.0
C2514 C 0.34244 0.2209 0.24853 0.0
C2515 C 0.35459 0.23146 0.27415 0.0
C2516 C 0.34067 0.2278 0.21236 0.0
C2517 C 0.35097 0.2455 0.20063 0.0
C2518 C 0.36301 0.25611 0.22637 0.0
C2519 C 0.36476 0.24924 0.26248 0.0
H2520 H 0.52459 0.5961 0.03744 0.0
H2521 H 0.46292 0.58842 0.07537 0.0
H2522 H 0.51486 0.59958 0.97342 0.0
H2523 H 0.45317 0.59201 1.01117 0.0
H2524 H 0.45041 0.57773 0.87969 0.0
H2525 H 0.45843 0.57275 0.94431 0.0
H2526 H 0.49463 0.62796 0.94452 0.0
H2527 H 0.48611 0.63351 0.88073 0.0
C2528 C 0.50899 0.59487 0.03197 0.0
C2529 C 0.4945 0.59204 0.06139 0.0
C2530 C 0.50341 0.59706 0.99545 0.0
C2531 C 0.48325 0.59624 0.98748 0.0
C2532 C 0.46881 0.59267 1.01657 0.0
C2533 C 0.47437 0.59074 0.05326 0.0
C2534 C 0.45975 0.58907 0.89373 0.0
C2535 C 0.46774 0.60594 0.87475 0.0
C2536 C 0.46443 0.58612 0.93065 0.0
C2537 C 0.47736 0.5998 0.94914 0.0
C2538 C 0.48494 0.61692 0.93061 0.0
C2539 C 0.48007 0.62005 0.89401 0.0
H2540 H 0.1377 0.7575 0.64654 0.0
H2541 H 0.19826 0.74149 0.66856 0.0
H2542 H 0.14321 0.74042 0.58299 0.0
H2543 H 0.20374 0.72434 0.60503 0.0
H2544 H 0.20145 0.6769 0.50176 0.0
H2545 H 0.19587 0.69433 0.56504 0.0
H2546 H 0.15962 0.74238 0.52169 0.0
H2547 H 0.16493 0.72468 0.45838 0.0
C2548 C 0.1523 0.75057 0.63787 0.0
C2549 C 0.16748 0.75103 0.66329 0.0
C2550 C 0.15547 0.74068 0.60113 0.0
C2551 C 0.17395 0.73082 0.58834 0.0
C2552 C 0.18917 0.73135 0.61369 0.0
C2553 C 0.186 0.74126 0.65042 0.0
C2554 C 0.19224 0.69117 0.50557 0.0
C2555 C 0.18364 0.69925 0.47454 0.0
C2556 C 0.18914 0.70132 0.54209 0.0
C2557 C 0.17728 0.71995 0.54902 0.0
C2558 C 0.16862 0.72799 0.51794 0.0
C2559 C 0.17177 0.71784 0.48137 0.0
H2560 H 0.49827 0.9006 0.31928 0.0
H2561 H 0.44882 0.9136 0.40252 0.0
H2562 H 0.52024 0.89494 0.36919 0.0
H2563 H 0.47101 0.90808 0.45271 0.0
H2564 H 0.51377 0.88094 0.53309 0.0
H2565 H 0.49175 0.88121 0.48107 0.0
H2566 H 0.53489 0.91685 0.41872 0.0
H2567 H 0.55676 0.91651 0.47018 0.0
C2568 C 0.49202 0.90222 0.34823 0.0
C2569 C 0.47173 0.90774 0.35674 0.0
C2570 C 0.5047 0.89902 0.37694 0.0
C2571 C 0.49748 0.9011 0.41509 0.0
C2572 C 0.47707 0.90614 0.42365 0.0
C2573 C 0.46437 0.90949 0.39486 0.0
C2574 C 0.51875 0.88836 0.50787 0.0
C2575 C 0.53711 0.89861 0.50584 0.0
C2576 C 0.506 0.88877 0.47825 0.0
C2577 C 0.51144 0.89918 0.4457 0.0
C2578 C 0.53022 0.90854 0.44309 0.0
C2579 C 0.5428 0.90834 0.47273 0.0
H2580 H 0.34754 0.23996 0.56497 0.0
H2581 H 0.32456 0.19276 0.63631 0.0
H2582 H 0.35183 0.26365 0.62051 0.0
H2583 H 0.32864 0.21675 0.69203 0.0
H2584 H 0.35092 0.26079 0.78699 0.0
H2585 H 0.35379 0.23592 0.7305 0.0
H2586 H 0.32809 0.2832 0.66645 0.0
H2587 H 0.32534 0.30778 0.72227 0.0
C2588 C 0.34342 0.23459 0.59248 0.0
C2589 C 0.33546 0.21452 0.59609 0.0
C2590 C 0.34589 0.24821 0.62434 0.0
C2591 C 0.34052 0.24212 0.66067 0.0
C2592 C 0.33311 0.22183 0.66444 0.0
C2593 C 0.33057 0.20817 0.63248 0.0
C2594 C 0.34641 0.26596 0.76054 0.0
C2595 C 0.33793 0.2862 0.75897 0.0
C2596 C 0.34782 0.25168 0.72837 0.0
C2597 C 0.34106 0.25756 0.69407 0.0
C2598 C 0.3336 0.2782 0.69226 0.0
C2599 C 0.33198 0.29229 0.72432 0.0
H2600 H 0.98062 0.1142 0.06204 0.0
H2601 H 0.93546 0.08142 1.00198 0.0
H2602 H 0.0018 0.11401 1.00324 0.0
H2603 H 0.95654 0.08142 0.94333 0.0
H2604 H 0.99501 0.09863 0.83814 0.0
H2605 H 0.97279 0.10425 0.89568 0.0
H2606 H 0.02044 0.08504 0.96157 0.0
H2607 H 0.04258 0.07924 0.90419 0.0
C2608 C 0.97494 0.10749 0.03619 0.0
C2609 C 0.95623 0.09791 0.0369 0.0
C2610 C 0.98721 0.10714 1.00251 0.0
C2611 C 0.98099 0.09753 0.9685 0.0
C2612 C 0.96181 0.08905 0.96884 0.0
C2613 C 0.94969 0.08908 1.00258 0.0
C2614 C 0.0008 0.09571 0.8649 0.0
C2615 C 0.02062 0.08841 0.86635 0.0
C2616 C 0.98801 0.09887 0.89791 0.0
C2617 C 0.99479 0.09518 0.93339 0.0
C2618 C 0.01474 0.08829 0.93487 0.0
C2619 C 0.02742 0.08481 0.90184 0.0
H2620 H 0.1676 0.76459 0.96498 0.0
H2621 H 0.16526 0.82487 0.02996 0.0
H2622 H 0.16395 0.74677 1.02346 0.0
H2623 H 0.16167 0.8071 0.08819 0.0
H2624 H 0.13727 0.76788 0.18302 0.0
H2625 H 0.13777 0.78466 0.12376 0.0
H2626 H 0.18588 0.74243 0.07735 0.0
H2627 H 0.18584 0.72597 0.13688 0.0
C2628 C 0.16602 0.77402 0.99171 0.0
C2629 C 0.16678 0.79609 0.99298 0.0
C2630 C 0.16411 0.76383 1.02514 0.0
C2631 C 0.16263 0.77555 0.06036 0.0
C2632 C 0.16266 0.79766 0.06148 0.0
C2633 C 0.16484 0.80782 0.02815 0.0
C2634 C 0.14811 0.76229 0.16038 0.0
C2635 C 0.16159 0.74561 0.16492 0.0
C2636 C 0.1483 0.77184 0.12636 0.0
C2637 C 0.16182 0.76482 0.09593 0.0
C2638 C 0.17509 0.74797 0.10015 0.0
C2639 C 0.17503 0.73853 0.13429 0.0
H2640 H 0.52485 0.09894 0.36941 0.0
H2641 H 0.47567 0.14093 0.35164 0.0
H2642 H 0.51274 0.09799 0.43529 0.0
H2643 H 0.46365 0.14008 0.41769 0.0
H2644 H 0.46416 0.15244 0.54767 0.0
H2645 H 0.4738 0.15242 0.48039 0.0
H2646 H 0.48481 0.08511 0.47452 0.0
H2647 H 0.47507 0.0851 0.54172 0.0
C2648 C 0.51134 0.10779 0.37944 0.0
C2649 C 0.50125 0.12004 0.35522 0.0
C2650 C 0.50439 0.10724 0.41722 0.0
C2651 C 0.48722 0.11896 0.43172 0.0
C2652 C 0.47707 0.13111 0.40749 0.0
C2653 C 0.48398 0.13162 0.36967 0.0
C2654 C 0.46833 0.13759 0.53191 0.0
C2655 C 0.46898 0.1188 0.55013 0.0
C2656 C 0.47388 0.13758 0.49335 0.0
C2657 C 0.48022 0.11879 0.47218 0.0
C2658 C 0.48036 0.09992 0.4902 0.0
C2659 C 0.47478 0.09992 0.52869 0.0
H2660 H 0.12132 0.23724 0.59142 0.0
H2661 H 0.16891 0.28015 0.61283 0.0
H2662 H 0.1228 0.22526 0.65438 0.0
H2663 H 0.17046 0.26802 0.67593 0.0
H2664 H 0.18014 0.22644 0.77388 0.0
H2665 H 0.17945 0.23806 0.7103 0.0
H2666 H 0.11509 0.23717 0.71974 0.0
H2667 H 0.11576 0.2257 0.78323 0.0
C2668 C 0.132 0.2443 0.60961 0.0
C2669 C 0.14489 0.25983 0.59683 0.0
C2670 C 0.13287 0.23738 0.64586 0.0
C2671 C 0.14668 0.2457 0.67055 0.0
C2672 C 0.15978 0.26103 0.65765 0.0
C2673 C 0.15889 0.268 0.62135 0.0
C2674 C 0.16582 0.22886 0.76256 0.0
C2675 C 0.14801 0.22503 0.78396 0.0
C2676 C 0.16542 0.23555 0.72598 0.0
C2677 C 0.14721 0.23856 0.70963 0.0
C2678 C 0.12943 0.23469 0.73099 0.0
C2679 C 0.12982 0.22805 0.76755 0.0
H2680 H 0.0247 0.82717 0.99018 0.0
H2681 H 0.03633 0.89365 0.98995 0.0
H2682 H 0.01461 0.82699 0.9258 0.0
H2683 H 0.02627 0.89346 0.92559 0.0
H2684 H 0.02577 0.8809 0.79729 0.0
H2685 H 0.03633 0.88083 0.86136 0.0
H2686 H 0.98834 0.83948 0.88981 0.0
H2687 H 0.97786 0.83948 0.82572 0.0
C2688 C 0.02497 0.8418 0.97655 0.0
C2689 C 0.03136 0.86042 0.99545 0.0
C2690 C 0.01917 0.8417 0.93954 0.0
C2691 C 0.01959 0.86021 0.92033 0.0
C2692 C 0.02605 0.87881 0.93917 0.0
C2693 C 0.03184 0.87892 0.97618 0.0
C2694 C 0.01739 0.87189 0.81727 0.0
C2695 C 0.00096 0.86016 0.8062 0.0
C2696 C 0.02344 0.87186 0.85409 0.0
C2697 C 0.01322 0.86014 0.88093 0.0
C2698 C 0.9968 0.84841 0.86983 0.0
C2699 C 0.99078 0.84841 0.83299 0.0
H2700 H 0.31145 0.76415 0.3968 0.0
H2701 H 0.30807 0.82603 0.35548 0.0
H2702 H 0.31627 0.74837 0.33248 0.0
H2703 H 0.31248 0.81012 0.29064 0.0
H2704 H 0.34167 0.77614 0.18084 0.0
H2705 H 0.33602 0.79267 0.24472 0.0
H2706 H 0.3005 0.74017 0.27607 0.0
H2707 H 0.30695 0.72315 0.21266 0.0
C2708 C 0.31169 0.77446 0.374 0.0
C2709 C 0.30948 0.79647 0.38167 0.0
C2710 C 0.31429 0.76532 0.33683 0.0
C2711 C 0.31475 0.77783 0.30587 0.0
C2712 C 0.3125 0.79989 0.31353 0.0
C2713 C 0.30988 0.80906 0.35084 0.0
C2714 C 0.33281 0.76795 0.20136 0.0
C2715 C 0.32495 0.74809 0.19121 0.0
C2716 C 0.32932 0.77764 0.23809 0.0
C2717 C 0.31783 0.76785 0.26605 0.0
C2718 C 0.30968 0.74816 0.25573 0.0
C2719 C 0.31319 0.73846 0.219 0.0
H2720 H 0.47927 0.11563 0.85274 0.0
H2721 H 0.43649 0.08201 0.91965 0.0
H2722 H 0.50164 0.1167 0.90443 0.0
H2723 H 0.45862 0.08315 0.97105 0.0
H2724 H 0.54453 0.08468 0.98481 0.0
H2725 H 0.52213 0.08949 0.93464 0.0
H2726 H 0.47401 0.10719 1.01837 0.0
H2727 H 0.49626 0.10246 0.06837 0.0
C2728 C 0.4744 0.10899 0.87882 0.0
C2729 C 0.45601 0.09886 0.88212 0.0
C2730 C 0.48733 0.10934 0.90825 0.0
C2731 C 0.48202 0.09991 0.94192 0.0
C2732 C 0.4632 0.09072 0.94576 0.0
C2733 C 0.45047 0.09006 0.91622 0.0
C2734 C 0.52921 0.08975 0.99254 0.0
C2735 C 0.52225 0.09306 0.03078 0.0
C2736 C 0.51639 0.09265 0.96372 0.0
C2737 C 0.49621 0.09869 0.97238 0.0
C2738 C 0.48939 0.10236 1.0106 0.0
C2739 C 0.50222 0.09971 0.03934 0.0
H2740 H 0.65431 0.67824 0.65676 0.0
H2741 H 0.64779 0.73128 0.59019 0.0
H2742 H 0.65232 0.70182 0.71411 0.0
H2743 H 0.64792 0.75522 0.64643 0.0
H2744 H 0.64335 0.79647 0.75443 0.0
H2745 H 0.63651 0.77204 0.70122 0.0
H2746 H 0.6712 0.72348 0.74783 0.0
H2747 H 0.67607 0.74754 0.8025 0.0
C2748 C 0.65208 0.69501 0.65465 0.0
C2749 C 0.65087 0.70298 0.61933 0.0
C2750 C 0.65141 0.70867 0.68743 0.0
C2751 C 0.65051 0.73074 0.68543 0.0
C2752 C 0.64834 0.73849 0.64986 0.0
C2753 C 0.64824 0.72474 0.61732 0.0
C2754 C 0.64939 0.78049 0.75305 0.0
C2755 C 0.6603 0.77382 0.78223 0.0
C2756 C 0.64559 0.76641 0.7224 0.0
C2757 C 0.65326 0.74549 0.71953 0.0
C2758 C 0.66444 0.73909 0.74898 0.0
C2759 C 0.66756 0.75297 0.78023 0.0
H2760 H 0.01719 0.87818 0.29887 0.0
H2761 H 0.06588 0.90144 0.36157 0.0
H2762 H 0.99663 0.87647 0.35812 0.0
H2763 H 0.04546 0.89954 0.42056 0.0
H2764 H 0.00652 0.88111 0.52415 0.0
H2765 H 0.02757 0.8761 0.46481 0.0
H2766 H 0.98089 0.9038 0.40606 0.0
H2767 H 0.96006 0.90895 0.46502 0.0
C2768 C 0.02373 0.88237 0.32526 0.0
C2769 C 0.04329 0.88987 0.3252 0.0
C2770 C 0.01184 0.88163 0.3593 0.0
C2771 C 0.01927 0.888 0.39435 0.0
C2772 C 0.0392 0.89436 0.39433 0.0
C2773 C 0.05094 0.89546 0.36034 0.0
C2774 C 0.00066 0.8859 0.4985 0.0
C2775 C 0.98154 0.89549 0.49961 0.0
C2776 C 0.01279 0.88314 0.46445 0.0
C2777 C 0.00599 0.8895 0.43039 0.0
C2778 C 0.98662 0.89847 0.43143 0.0
C2779 C 0.97468 0.90156 0.46546 0.0
H2780 H 0.8458 0.21801 0.17475 0.0
H2781 H 0.80047 0.26226 0.22637 0.0
H2782 H 0.84925 0.20365 0.23549 0.0
H2783 H 0.80396 0.24791 0.28716 0.0
H2784 H 0.82504 0.22678 0.39713 0.0
H2785 H 0.82679 0.24374 0.33771 0.0
H2786 H 0.82813 0.18254 0.27586 0.0
H2787 H 0.82682 0.16569 0.33487 0.0
C2788 C 0.83658 0.22468 0.19908 0.0
C2789 C 0.82272 0.24114 0.19567 0.0
C2790 C 0.83859 0.21648 0.23386 0.0
C2791 C 0.8268 0.22457 0.26606 0.0
C2792 C 0.81343 0.24152 0.26297 0.0
C2793 C 0.81141 0.24972 0.22813 0.0
C2794 C 0.82603 0.21699 0.37079 0.0
C2795 C 0.82563 0.19493 0.37062 0.0
C2796 C 0.82687 0.22669 0.33682 0.0
C2797 C 0.82751 0.21448 0.30212 0.0
C2798 C 0.82784 0.1924 0.30207 0.0
C2799 C 0.82689 0.18274 0.33593 0.0
H2800 H 0.54962 0.87352 0.84661 0.0
H2801 H 0.48737 0.87153 0.82416 0.0
H2802 H 0.54037 0.87709 0.91419 0.0
H2803 H 0.47807 0.87482 0.89179 0.0
H2804 H 0.46738 0.90031 1.01459 0.0
H2805 H 0.47731 0.89897 0.94729 0.0
H2806 H 0.52682 0.85708 0.96356 0.0
H2807 H 0.5175 0.85927 0.03093 0.0
C2808 C 0.53396 0.87362 0.85614 0.0
C2809 C 0.51923 0.87214 0.83001 0.0
C2810 C 0.52864 0.87568 0.8949 0.0
C2811 C 0.50846 0.87621 0.90854 0.0
C2812 C 0.49374 0.87481 0.88235 0.0
C2813 C 0.49906 0.87285 0.84356 0.0
C2814 C 0.48056 0.89107 1.0039 0.0
C2815 C 0.49159 0.87985 0.02824 0.0
C2816 C 0.48611 0.89008 0.96519 0.0
C2817 C 0.50282 0.87783 0.94987 0.0
C2818 C 0.51399 0.86684 0.97433 0.0
C2819 C 0.50848 0.86788 1.01298 0.0
H2820 H 0.87448 0.78543 0.59835 0.0
H2821 H 0.81697 0.75741 0.5878 0.0
H2822 H 0.87476 0.7748 0.66251 0.0
H2823 H 0.81723 0.74679 0.65208 0.0
H2824 H 0.83502 0.71136 0.7535 0.0
H2825 H 0.83351 0.72262 0.68982 0.0
H2826 H 0.85924 0.78189 0.72511 0.0
H2827 H 0.86077 0.77064 0.78862 0.0
C2828 C 0.86176 0.77723 0.60982 0.0
C2829 C 0.84571 0.77231 0.58767 0.0
C2830 C 0.86192 0.7711 0.64674 0.0
C2831 C 0.84602 0.75989 0.66271 0.0
C2832 C 0.8299 0.75508 0.64065 0.0
C2833 C 0.82975 0.76121 0.6037 0.0
C2834 C 0.84016 0.72689 0.74782 0.0
C2835 C 0.84814 0.74 0.77634 0.0
C2836 C 0.83929 0.73337 0.7112 0.0
C2837 C 0.84636 0.75316 0.70205 0.0
C2838 C 0.85403 0.76638 0.73076 0.0
C2839 C 0.85491 0.75991 0.76731 0.0
H2840 H 0.96989 0.13751 0.57706 0.0
H2841 H 0.02255 0.1008 0.53442 0.0
H2842 H 0.95966 0.13866 0.51285 0.0
H2843 H 0.0123 0.10188 0.47046 0.0
H2844 H 0.97901 0.08997 0.36488 0.0
H2845 H 0.98715 0.0884 0.43011 0.0
H2846 H 0.96922 0.15391 0.45352 0.0
H2847 H 0.96106 0.15548 0.38804 0.0
C2848 C 0.97935 0.12978 0.55402 0.0
C2849 C 0.99704 0.11901 0.56105 0.0
C2850 C 0.97347 0.13044 0.51718 0.0
C2851 C 0.9851 0.12031 0.48642 0.0
C2852 C 0.00277 0.10953 0.49348 0.0
C2853 C 0.00866 0.1089 0.53025 0.0
C2854 C 0.97688 0.10409 0.38387 0.0
C2855 C 0.96957 0.12292 0.37104 0.0
C2856 C 0.98156 0.10318 0.42132 0.0
C2857 C 0.97904 0.12107 0.44706 0.0
C2858 C 0.97119 0.13977 0.43457 0.0
C2859 C 0.9665 0.14068 0.39701 0.0
H2860 H 0.6971 0.17774 1.00406 0.0
H2861 H 0.66318 0.2282 0.9625 0.0
H2862 H 0.69291 0.19506 0.06761 0.0
H2863 H 0.65863 0.24537 0.02632 0.0
H2864 H 0.66928 0.28129 0.13989 0.0
H2865 H 0.67446 0.26438 0.076 0.0
H2866 H 0.66979 0.20332 0.12031 0.0
H2867 H 0.66542 0.22015 0.18411 0.0
C2868 C 0.68864 0.19249 1.00837 0.0
C2869 C 0.68047 0.20143 0.9777 0.0
C2870 C 0.68611 0.20244 0.04514 0.0
C2871 C 0.67535 0.22175 0.05272 0.0
C2872 C 0.66723 0.23071 1.02196 0.0
C2873 C 0.66972 0.22072 0.98515 0.0
C2874 C 0.66958 0.26424 0.13619 0.0
C2875 C 0.66684 0.25225 0.16775 0.0
C2876 C 0.67231 0.25448 0.09923 0.0
C2877 C 0.67253 0.23233 0.09239 0.0
C2878 C 0.66996 0.22036 0.12399 0.0
C2879 C 0.66717 0.2301 0.16087 0.0
H2880 H 0.09276 0.51964 0.68691 0.0
H2881 H 0.06921 0.57558 0.75259 0.0
H2882 H 0.09572 0.50204 0.74495 0.0
H2883 H 0.07261 0.55833 0.81031 0.0
H2884 H 0.05954 0.5154 0.90487 0.0
H2885 H 0.05804 0.53259 0.84642 0.0
H2886 H 0.11208 0.49914 0.80136 0.0
H2887 H 0.11341 0.48174 0.8598 0.0
C2888 C 0.08856 0.52836 0.71368 0.0
C2889 C 0.08073 0.54911 0.71472 0.0
C2890 C 0.09026 0.51824 0.74717 0.0
C2891 C 0.08421 0.52855 0.78279 0.0
C2892 C 0.07701 0.54954 0.7837 0.0
C2893 C 0.07525 0.55959 0.75035 0.0
C2894 C 0.07121 0.51177 0.88267 0.0
C2895 C 0.08661 0.4971 0.88749 0.0
C2896 C 0.07039 0.52173 0.84893 0.0
C2897 C 0.08502 0.51751 0.81874 0.0
C2898 C 0.10036 0.50271 0.82346 0.0
C2899 C 0.10113 0.49267 0.8572 0.0
H2900 H 0.66537 0.83335 1.01726 0.0
H2901 H 0.71571 0.85929 0.95644 0.0
H2902 H 0.68156 0.83903 0.0758 0.0
H2903 H 0.73206 0.86522 1.01581 0.0
H2904 H 0.7634 0.84527 0.12249 0.0
H2905 H 0.74754 0.84369 0.06253 0.0
H2906 H 0.69192 0.86594 0.12152 0.0
H2907 H 0.70751 0.86698 0.18117 0.0
C2908 C 0.67978 0.84069 1.01646 0.0
C2909 C 0.68914 0.84599 0.98199 0.0
C2910 C 0.68909 0.84399 0.05023 0.0
C2911 C 0.7082 0.85256 0.05077 0.0
C2912 C 0.71742 0.85842 1.01646 0.0
C2913 C 0.70794 0.8553 0.98248 0.0
C2914 C 0.74777 0.84974 0.12269 0.0
C2915 C 0.7368 0.85623 0.15693 0.0
C2916 C 0.73872 0.84909 0.08819 0.0
C2917 C 0.7184 0.85469 0.08699 0.0
C2918 C 0.70753 0.86133 0.1212 0.0
C2919 C 0.71657 0.86211 0.15553 0.0
H2920 H 0.40089 0.52599 0.37884 0.0
H2921 H 0.40845 0.46557 0.42401 0.0
H2922 H 0.40428 0.50882 0.31485 0.0
H2923 H 0.41088 0.44843 0.36057 0.0
H2924 H 0.43818 0.42629 0.24348 0.0
H2925 H 0.4329 0.44355 0.30638 0.0
H2926 H 0.38946 0.4861 0.26728 0.0
H2927 H 0.39524 0.46895 0.2032 0.0
C2928 C 0.40327 0.50907 0.37532 0.0
C2929 C 0.40441 0.49732 0.40716 0.0
C2930 C 0.40494 0.49913 0.33841 0.0
C2931 C 0.40791 0.4771 0.332 0.0
C2932 C 0.4089 0.4654 0.36388 0.0
C2933 C 0.40723 0.4753 0.40064 0.0
C2934 C 0.42731 0.43919 0.24804 0.0
C2935 C 0.41707 0.44603 0.2178 0.0
C2936 C 0.42419 0.44912 0.28456 0.0
C2937 C 0.41066 0.46633 0.29255 0.0
C2938 C 0.40015 0.47307 0.26245 0.0
C2939 C 0.40328 0.46304 0.22564 0.0
H2940 H 0.76941 0.11767 0.562 0.0
H2941 H 0.79451 0.1754 0.60724 0.0
H2942 H 0.74719 0.11723 0.62 0.0
H2943 H 0.77231 0.17507 0.66378 0.0
H2944 H 0.71234 0.1837 0.73237 0.0
H2945 H 0.73366 0.1797 0.67402 0.0
H2946 H 0.74909 0.11598 0.69609 0.0
H2947 H 0.72788 0.12003 0.75542 0.0
C2948 C 0.77043 0.13008 0.58428 0.0
C2949 C 0.78384 0.14657 0.57953 0.0
C2950 C 0.75766 0.12984 0.61749 0.0
C2951 C 0.75777 0.1463 0.64634 0.0
C2952 C 0.77159 0.16233 0.64198 0.0
C2953 C 0.78447 0.16239 0.60939 0.0
C2954 C 0.72001 0.16869 0.72481 0.0
C2955 C 0.71833 0.15222 0.74899 0.0
C2956 C 0.73237 0.16645 0.69129 0.0
C2957 C 0.74323 0.14757 0.68042 0.0
C2958 C 0.7409 0.13071 0.70357 0.0
C2959 C 0.72876 0.13307 0.73762 0.0
H2960 H 0.89454 0.47868 0.69296 0.0
H2961 H 0.92048 0.42435 0.62579 0.0
H2962 H 0.89133 0.49686 0.63541 0.0
H2963 H 0.91694 0.44214 0.56875 0.0
H2964 H 0.93037 0.48665 0.47709 0.0
H2965 H 0.93149 0.46908 0.53515 0.0
H2966 H 0.87563 0.49976 0.57743 0.0
H2967 H 0.87457 0.51746 0.51919 0.0
C2968 C 0.89917 0.4704 0.66598 0.0
C2969 C 0.90778 0.44996 0.66439 0.0
C2970 C 0.89737 0.48088 0.63278 0.0
C2971 C 0.90415 0.47123 0.59698 0.0
C2972 C 0.912 0.45047 0.59552 0.0
C2973 C 0.91382 0.44009 0.6285 0.0
C2974 C 0.91819 0.48958 0.49851 0.0
C2975 C 0.90233 0.50354 0.49287 0.0
C2976 C 0.91881 0.4794 0.53208 0.0
C2977 C 0.90355 0.48269 0.56138 0.0
C2978 C 0.8878 0.49687 0.55599 0.0
C2979 C 0.8872 0.5071 0.52236 0.0
H2980 H 0.28751 0.1289 0.19334 0.0
H2981 H 0.23354 0.15169 0.25781 0.0
H2982 H 0.30393 0.12602 0.25148 0.0
H2983 H 0.25005 0.14875 0.31621 0.0
H2984 H 0.28158 0.12884 0.41788 0.0
H2985 H 0.26479 0.12515 0.35885 0.0
H2986 H 0.3165 0.14957 0.29961 0.0
H2987 H 0.33317 0.15293 0.35795 0.0
C2988 C 0.27913 0.13344 0.21989 0.0
C2989 C 0.2592 0.14081 0.22058 0.0
C2990 C 0.28858 0.1317 0.25338 0.0
C2991 C 0.27843 0.13725 0.28877 0.0
C2992 C 0.25831 0.14407 0.2896 0.0
C2993 C 0.24883 0.14582 0.256 0.0
C2994 C 0.28957 0.13275 0.39199 0.0
C2995 C 0.30882 0.14098 0.39267 0.0
C2996 C 0.27982 0.13097 0.35822 0.0
C2997 C 0.28918 0.13718 0.32429 0.0
C2998 C 0.30882 0.14439 0.32486 0.0
C2999 C 0.31843 0.14632 0.35847 0.0
H3000 H 0.63438 0.48832 0.98117 0.0
H3001 H 0.57269 0.5034 0.9662 0.0
H3002 H 0.63074 0.5058 0.04479 0.0
H3003 H 0.56885 0.51997 0.03014 0.0
H3004 H 0.57121 0.56791 0.12933 0.0
H3005 H 0.57708 0.5505 0.06649 0.0
H3006 H 0.61694 0.50547 0.10916 0.0
H3007 H 0.61104 0.52335 0.17282 0.0
C3008 C 0.62 0.49532 0.99124 0.0
C3009 C 0.60389 0.4944 0.96774 0.0
C3010 C 0.61785 0.5052 0.02821 0.0
C3011 C 0.59953 0.51464 0.04313 0.0
C3012 C 0.58335 0.51335 1.01987 0.0
C3013 C 0.58549 0.50348 0.98301 0.0
C3014 C 0.5813 0.55433 0.12551 0.0
C3015 C 0.5905 0.54705 0.15658 0.0
C3016 C 0.58459 0.54416 0.08919 0.0
C3017 C 0.59721 0.52613 0.0822 0.0
C3018 C 0.60714 0.51928 0.11301 0.0
C3019 C 0.60384 0.5296 0.14967 0.0
H3020 H 0.19893 0.8215 0.75636 0.0
H3021 H 0.22832 0.87488 0.80817 0.0
H3022 H 0.21967 0.82391 0.69837 0.0
H3023 H 0.24901 0.87745 0.74877 0.0
H3024 H 0.26284 0.87643 0.60627 0.0
H3025 H 0.24277 0.88095 0.6673 0.0
H3026 H 0.26095 0.8185 0.69196 0.0
H3027 H 0.28106 0.81407 0.63267 0.0
C3028 C 0.20958 0.83403 0.7554 0.0
C3029 C 0.21191 0.84792 0.78749 0.0
C3030 C 0.22151 0.83537 0.7219 0.0
C3031 C 0.23602 0.85082 0.7189 0.0
C3032 C 0.23786 0.86544 0.75015 0.0
C3033 C 0.22602 0.86392 0.78419 0.0
C3034 C 0.2629 0.86387 0.6251 0.0
C3035 C 0.27356 0.84482 0.614 0.0
C3036 C 0.25139 0.86646 0.66004 0.0
C3037 C 0.25014 0.84998 0.6843 0.0
C3038 C 0.26145 0.83142 0.67385 0.0
C3039 C 0.27303 0.82894 0.63958 0.0
H3040 H 0.61472 0.98514 0.36771 0.0
H3041 H 0.55814 0.01379 0.411 0.0
H3042 H 0.61266 0.0028 0.30972 0.0
H3043 H 0.55571 0.03078 0.35246 0.0
H3044 H 0.56596 0.07631 0.26151 0.0
H3045 H 0.56944 0.05852 0.31864 0.0
H3046 H 0.59617 0.00427 0.25226 0.0
H3047 H 0.59294 0.02234 0.19473 0.0
C3048 C 0.6018 0.99519 0.36499 0.0
C3049 C 0.58667 -0.00197 0.39458 0.0
C3050 C 0.60051 0.00518 0.33133 0.0
C3051 C 0.58407 0.01845 0.32605 0.0
C3052 C 0.5688 0.02102 0.35542 0.0
C3053 C 0.57006 0.01099 0.38902 0.0
C3054 C 0.57278 0.06066 0.25888 0.0
C3055 C 0.5792 0.05088 0.22311 0.0
C3056 C 0.57459 0.0503 0.29189 0.0
C3057 C 0.58289 0.02973 0.29048 0.0
C3058 C 0.58982 0.02012 0.25479 0.0
C3059 C 0.58798 0.03052 0.22162 0.0
H3060 H 0.17104 0.33996 0.50936 0.0
H3061 H 0.22294 0.36081 0.44574 0.0
H3062 H 0.18827 0.34429 0.56705 0.0
H3063 H 0.24053 0.36476 0.50373 0.0
H3064 H 0.26151 0.38213 0.62327 0.0
H3065 H 0.24371 0.38254 0.56587 0.0
H3066 H 0.21423 0.32552 0.59356 0.0
H3067 H 0.2313 0.32559 0.65146 0.0
C3068 C 0.18605 0.34588 0.5078 0.0
C3069 C 0.19557 0.35008 0.47284 0.0
C3070 C 0.19607 0.34809 0.54091 0.0
C3071 C 0.21602 0.3544 0.54016 0.0
C3072 C 0.22518 0.35989 0.50554 0.0
C3073 C 0.21505 0.35777 0.47224 0.0
C3074 C 0.25111 0.36975 0.61728 0.0
C3075 C 0.24785 0.35387 0.64236 0.0
C3076 C 0.24102 0.36989 0.58407 0.0
C3077 C 0.2273 0.35421 0.57503 0.0
C3078 C 0.22434 0.33813 0.59977 0.0
C3079 C 0.23442 0.33798 0.63287 0.0
H3080 H 0.88636 0.00541 0.89296 0.0
H3081 H 0.94295 0.97853 0.91772 0.0
H3082 H 0.88983 0.98719 0.83008 0.0
H3083 H 0.94685 0.96111 0.8543 0.0
H3084 H 0.94105 0.91523 0.75137 0.0
H3085 H 0.93629 0.93326 0.81414 0.0
H3086 H 0.90583 0.98482 0.76846 0.0
H3087 H 0.91025 0.9664 0.70545 0.0
C3088 C 0.89959 0.99563 0.88524 0.0
C3089 C 0.91428 0.99356 0.91131 0.0
C3090 C 0.90172 0.98529 0.84859 0.0
C3091 C 0.91862 0.97237 0.83635 0.0
C3092 C 0.93341 0.97051 0.86228 0.0
C3093 C 0.93129 0.98086 0.89889 0.0
C3094 C 0.93313 0.93033 0.75453 0.0
C3095 C 0.92597 0.93914 0.72277 0.0
C3096 C 0.93058 0.94089 0.79086 0.0
C3097 C 0.92079 0.96081 0.79714 0.0
C3098 C 0.91328 0.96949 0.76542 0.0
C3099 C 0.91585 0.95887 0.72896 0.0
H3100 H 0.24831 0.63061 0.26934 0.0
H3101 H 0.20419 0.66598 0.21619 0.0
H3102 H 0.26914 0.62692 0.20991 0.0
H3103 H 0.22485 0.6616 0.1563 0.0
H3104 H 0.26225 0.62898 0.04823 0.0
H3105 H 0.2407 0.62856 0.10682 0.0
H3106 H 0.28693 0.6573 0.16953 0.0
H3107 H 0.30817 0.65844 0.11101 0.0
C3108 C 0.24282 0.63723 0.24482 0.0
C3109 C 0.22446 0.64853 0.24768 0.0
C3110 C 0.25485 0.63519 0.2108 0.0
C3111 C 0.24866 0.64392 0.17835 0.0
C3112 C 0.22998 0.65456 0.18072 0.0
C3113 C 0.21816 0.65709 0.21507 0.0
C3114 C 0.26797 0.63482 0.07461 0.0
C3115 C 0.28707 0.64352 0.07488 0.0
C3116 C 0.25554 0.63478 0.1081 0.0
C3117 C 0.26209 0.64291 0.14284 0.0
C3118 C 0.28147 0.65081 0.14331 0.0
C3119 C 0.29367 0.6514 0.10975 0.0
H3120 H 0.39737 0.97413 0.19376 0.0
H3121 H 0.42341 0.9195 0.12753 0.0
H3122 H 0.39338 0.9916 0.13559 0.0
H3123 H 0.41985 0.9369 0.07017 0.0
H3124 H 0.39632 0.9652 0.9692 0.0
H3125 H 0.39692 0.94856 0.0282 0.0
H3126 H 0.41267 0.00759 0.08502 0.0
H3127 H 0.41128 0.02456 0.02591 0.0
C3128 C 0.40195 0.96569 0.1669 0.0
C3129 C 0.41058 0.94527 0.16564 0.0
C3130 C 0.39991 0.97583 0.13346 0.0
C3131 C 0.40631 0.96578 0.09779 0.0
C3132 C 0.41445 0.94517 0.09673 0.0
C3133 C 0.41655 0.93514 0.12994 0.0
C3134 C 0.39968 0.97481 0.99424 0.0
C3135 C 0.40368 0.99637 0.99235 0.0
C3136 C 0.40025 0.96513 0.02826 0.0
C3137 C 0.4049 0.9766 0.06179 0.0
C3138 C 0.40882 -0.0018 0.06007 0.0
C3139 C 0.40828 0.00791 0.02589 0.0
H3140 H 0.82505 0.65946 0.862 0.0
H3141 H 0.77384 0.6354 0.92313 0.0
H3142 H 0.80843 0.65494 0.80366 0.0
H3143 H 0.75705 0.63067 0.86409 0.0
H3144 H 0.72587 0.65401 0.75986 0.0
H3145 H 0.74231 0.65385 0.81905 0.0
H3146 H 0.79641 0.62919 0.75741 0.0
H3147 H 0.78026 0.62985 0.69851 0.0
C3148 C 0.81038 0.6527 0.86284 0.0
C3149 C 0.80088 0.64762 0.89732 0.0
C3150 C 0.80081 0.6501 0.82924 0.0
C3151 C 0.78131 0.64251 0.82897 0.0
C3152 C 0.77199 0.63674 0.86326 0.0
C3153 C 0.78173 0.63913 0.89702 0.0
C3154 C 0.7413 0.64864 0.75892 0.0
C3155 C 0.75167 0.64196 0.72418 0.0
C3156 C 0.75066 0.64829 0.79296 0.0
C3157 C 0.77073 0.64147 0.79318 0.0
C3158 C 0.78101 0.63468 0.75846 0.0
C3159 C 0.77165 0.6349 0.72458 0.0
H3160 H 0.08065 0.96818 0.48658 0.0
H3161 H 0.09641 0.02685 0.44056 0.0
H3162 H 0.08012 0.98545 0.55037 0.0
H3163 H 0.09582 0.04401 0.50395 0.0
H3164 H 0.07012 0.07462 0.61807 0.0
H3165 H 0.07371 0.05664 0.55539 0.0
H3166 H 0.09839 0.00175 0.60103 0.0
H3167 H 0.0944 0.01991 0.66467 0.0
C3168 C 0.08419 0.9847 0.48981 0.0
C3169 C 0.08836 0.99598 0.45764 0.0
C3170 C 0.08391 0.99468 0.52673 0.0
C3171 C 0.08778 0.01634 0.53298 0.0
C3172 C 0.0923 0.02747 0.50082 0.0
C3173 C 0.09259 0.01753 0.46405 0.0
C3174 C 0.07662 0.05881 0.61496 0.0
C3175 C 0.08213 0.04893 0.64693 0.0
C3176 C 0.07875 0.04841 0.57859 0.0
C3177 C 0.08641 0.02755 0.57239 0.0
C3178 C 0.09227 0.01769 0.60429 0.0
C3179 C 0.09025 0.02824 0.64093 0.0
H3180 H 0.73962 0.36232 0.31806 0.0
H3181 H 0.68982 0.34211 0.25561 0.0
H3182 H 0.76007 0.36414 0.2586 0.0
H3183 H 0.7101 0.34448 0.19625 0.0
H3184 H 0.7498 0.36812 0.09568 0.0
H3185 H 0.7298 0.37241 0.15642 0.0
H3186 H 0.77295 0.33415 0.20612 0.0
H3187 H 0.79252 0.32932 0.1454 0.0
C3188 C 0.73286 0.35876 0.29168 0.0
C3189 C 0.713 0.35212 0.29178 0.0
C3190 C 0.74465 0.35966 0.25757 0.0
C3191 C 0.73676 0.35447 0.22253 0.0
C3192 C 0.71664 0.34874 0.22261 0.0
C3193 C 0.70502 0.34733 0.25671 0.0
C3194 C 0.75524 0.36102 0.11978 0.0
C3195 C 0.77289 0.34851 0.1156 0.0
C3196 C 0.74367 0.36331 0.15452 0.0
C3197 C 0.74973 0.35362 0.18626 0.0
C3198 C 0.76788 0.34197 0.18246 0.0
C3199 C 0.77912 0.33921 0.14758 0.0
loop_
_geom_bond_atom_site_label_1
_geom_bond_atom_site_label_2
_geom_bond_distance
_geom_bond_site_symmetry_2
_ccdc_geom_bond_type
Sm0 C2 2.846 . S
Sm0 O20 2.543 . S
Sm0 O21 2.450 . S
Sm0 O22 2.681 . S
Sm0 O23 2.464 . S
Sm0 O24 2.396 . S
Sm0 O28 2.386 . S
Sm0 O31 2.408 . S
Sm1 C11 2.846 . S
Sm1 O22 2.386 . S
Sm1 O25 2.408 . S
Sm1 O26 2.543 . S
Sm1 O27 2.450 . S
Sm1 O28 2.681 . S
Sm1 O29 2.464 . S
Sm1 O30 2.396 . S
C2 Sm0 2.846 . S
C2 C3 1.506 . S
C2 O20 1.261 . S
C2 O21 1.242 . S
C3 C2 1.506 . S
C3 C4 1.358 . S
C3 C8 1.382 . S
C4 C3 1.358 . S
C4 C5 1.385 . S
C4 H32 0.930 . S
C5 C4 1.385 . S
C5 C6 1.395 . S
C5 H33 0.929 . S
C6 C5 1.395 . S
C6 C7 1.335 . S
C7 C6 1.335 . S
C7 C8 1.398 . S
C7 H34 0.930 1_455 S
C8 C3 1.382 . S
C8 C7 1.398 . S
C8 H35 0.931 . S
C9 O22 1.271 . S
C9 O23 1.251 . S
C10 O24 1.252 . S
C10 O25 1.272 . S
C11 Sm1 2.846 . S
C11 C12 1.506 1_554 S
C11 O26 1.261 . S
C11 O27 1.242 . S
C12 C11 1.506 1_556 S
C12 C13 1.358 . S
C12 C17 1.382 . S
C13 C12 1.358 . S
C13 C14 1.385 . S
C13 H36 0.930 . S
C14 C13 1.385 . S
C14 C15 1.395 . S
C14 H37 0.929 . S
C15 C14 1.395 . S
C15 C16 1.335 . S
C16 C15 1.335 . S
C16 C17 1.398 . S
C16 H38 0.930 . S
C17 C12 1.382 . S
C17 C16 1.398 . S
C17 H39 0.929 . S
C18 O28 1.271 . S
C18 O29 1.251 . S
C19 O30 1.252 . S
C19 O31 1.272 . S
O20 Sm0 2.543 . S
O20 C2 1.261 . S
O21 Sm0 2.450 . S
O21 C2 1.242 . S
O22 Sm0 2.681 . S
O22 Sm1 2.386 . S
O22 C9 1.271 . S
O23 Sm0 2.464 . S
O23 C9 1.251 . S
O24 Sm0 2.396 . S
O24 C10 1.252 . S
O25 Sm1 2.408 . S
O25 C10 1.272 . S
O26 Sm1 2.543 . S
O26 C11 1.261 . S
O27 Sm1 2.450 . S
O27 C11 1.242 . S
O28 Sm0 2.386 . S
O28 Sm1 2.681 . S
O28 C18 1.271 . S
O29 Sm1 2.464 . S
O29 C18 1.251 . S
O30 Sm1 2.396 . S
O30 C19 1.252 . S
O31 Sm0 2.408 . S
O31 C19 1.272 . S
H32 C4 0.930 . S
H33 C5 0.929 . S
H34 C7 0.930 1_655 S
H35 C8 0.931 . S
H36 C13 0.930 . S
H37 C14 0.929 . S
H38 C16 0.930 . S
H39 C17 0.929 . S
Sm40 C42 2.846 . S
Sm40 O60 2.543 . S
Sm40 O61 2.450 . S
Sm40 O62 2.681 . S
Sm40 O63 2.464 . S
Sm40 O64 2.396 . S
Sm40 O68 2.386 . S
Sm40 O71 2.408 . S
Sm41 C51 2.846 . S
Sm41 O62 2.386 . S
Sm41 O65 2.408 . S
Sm41 O66 2.543 . S
Sm41 O67 2.450 . S
Sm41 O68 2.681 . S
Sm41 O69 2.464 . S
Sm41 O70 2.396 . S
C42 Sm40 2.846 . S
C42 C43 1.506 . S
C42 O60 1.261 . S
C42 O61 1.242 . S
C43 C42 1.506 . S
C43 C44 1.358 . S
C43 C48 1.382 . S
C44 C43 1.358 . S
C44 C45 1.385 . S
C44 H72 0.930 . S
C45 C44 1.385 . S
C45 C46 1.395 . S
C45 H73 0.929 . S
C46 C45 1.395 . S
C46 C47 1.335 . S
C47 C46 1.335 . S
C47 C48 1.398 . S
C47 H74 0.930 . S
C48 C43 1.382 . S
C48 C47 1.398 . S
C48 H75 0.929 . S
C49 O62 1.271 . S
C49 O63 1.251 . S
C50 O64 1.252 . S
C50 O65 1.272 . S
C51 Sm41 2.846 . S
C51 C52 1.506 . S
C51 O66 1.261 . S
C51 O67 1.242 . S
C52 C51 1.506 . S
C52 C53 1.358 . S
C52 C57 1.382 . S
C53 C52 1.358 . S
C53 C54 1.385 . S
C53 H76 0.930 . S
C54 C53 1.385 . S
C54 C55 1.395 . S
C54 H77 0.929 . S
C55 C54 1.395 . S
C55 C56 1.335 . S
C56 C55 1.335 . S
C56 C57 1.398 . S
C56 H78 0.930 . S
C57 C52 1.382 . S
C57 C56 1.398 . S
C57 H79 0.929 . S
C58 O68 1.271 . S
C58 O69 1.251 . S
C59 O70 1.252 . S
C59 O71 1.272 . S
O60 Sm40 2.543 . S
O60 C42 1.261 . S
O61 Sm40 2.450 . S
O61 C42 1.242 . S
O62 Sm40 2.681 . S
O62 Sm41 2.386 . S
O62 C49 1.271 . S
O63 Sm40 2.464 . S
O63 C49 1.251 . S
O64 Sm40 2.396 . S
O64 C50 1.252 . S
O65 Sm41 2.408 . S
O65 C50 1.272 . S
O66 Sm41 2.543 . S
O66 C51 1.261 . S
O67 Sm41 2.450 . S
O67 C51 1.242 . S
O68 Sm40 2.386 . S
O68 Sm41 2.681 . S
O68 C58 1.271 . S
O69 Sm41 2.464 . S
O69 C58 1.251 . S
O70 Sm41 2.396 . S
O70 C59 1.252 . S
O71 Sm40 2.408 . S
O71 C59 1.272 . S
H72 C44 0.930 . S
H73 C45 0.929 . S
H74 C47 0.930 . S
H75 C48 0.929 . S
H76 C53 0.930 . S
H77 C54 0.929 . S
H78 C56 0.930 . S
H79 C57 0.929 . S
Sm80 C82 2.846 . S
Sm80 O100 2.543 . S
Sm80 O101 2.450 . S
Sm80 O102 2.681 . S
Sm80 O103 2.464 . S
Sm80 O104 2.396 . S
Sm80 O108 2.386 . S
Sm80 O111 2.408 . S
Sm81 C91 2.846 . S
Sm81 O102 2.386 . S
Sm81 O105 2.408 . S
Sm81 O106 2.543 . S
Sm81 O107 2.450 . S
Sm81 O108 2.681 . S
Sm81 O109 2.464 . S
Sm81 O110 2.396 . S
C82 Sm80 2.846 . S
C82 C83 1.506 . S
C82 O100 1.261 . S
C82 O101 1.242 . S
C83 C82 1.506 . S
C83 C84 1.358 . S
C83 C88 1.382 . S
C84 C83 1.358 . S
C84 C85 1.385 . S
C84 H112 0.930 . S
C85 C84 1.385 . S
C85 C86 1.395 . S
C85 H113 0.929 . S
C86 C85 1.395 . S
C86 C87 1.335 . S
C87 C86 1.335 . S
C87 C88 1.398 . S
C87 H114 0.930 . S
C88 C83 1.382 . S
C88 C87 1.398 . S
C88 H115 0.929 . S
C89 O102 1.271 . S
C89 O103 1.251 . S
C90 O104 1.252 . S
C90 O105 1.272 . S
C91 Sm81 2.846 . S
C91 C92 1.506 . S
C91 O106 1.261 . S
C91 O107 1.242 . S
C92 C91 1.506 . S
C92 C93 1.358 . S
C92 C97 1.382 . S
C93 C92 1.358 . S
C93 C94 1.385 . S
C93 H116 0.930 . S
C94 C93 1.385 . S
C94 C95 1.395 . S
C94 H117 0.929 . S
C95 C94 1.395 . S
C95 C96 1.335 . S
C96 C95 1.335 . S
C96 C97 1.398 . S
C96 H118 0.930 . S
C97 C92 1.382 . S
C97 C96 1.398 . S
C97 H119 0.929 . S
C98 O108 1.271 . S
C98 O109 1.251 . S
C99 O110 1.252 . S
C99 O111 1.272 . S
O100 Sm80 2.543 . S
O100 C82 1.261 . S
O101 Sm80 2.450 . S
O101 C82 1.242 . S
O102 Sm80 2.681 . S
O102 Sm81 2.386 . S
O102 C89 1.271 . S
O103 Sm80 2.464 . S
O103 C89 1.251 . S
O104 Sm80 2.396 . S
O104 C90 1.252 . S
O105 Sm81 2.408 . S
O105 C90 1.272 . S
O106 Sm81 2.543 . S
O106 C91 1.261 . S
O107 Sm81 2.450 . S
O107 C91 1.242 . S
O108 Sm80 2.386 . S
O108 Sm81 2.681 . S
O108 C98 1.271 . S
O109 Sm81 2.464 . S
O109 C98 1.251 . S
O110 Sm81 2.396 . S
O110 C99 1.252 . S
O111 Sm80 2.408 . S
O111 C99 1.272 . S
H112 C84 0.930 . S
H113 C85 0.929 . S
H114 C87 0.930 . S
H115 C88 0.929 . S
H116 C93 0.930 . S
H117 C94 0.929 . S
H118 C96 0.930 . S
H119 C97 0.929 . S
Sm120 C122 2.846 . S
Sm120 O140 2.543 . S
Sm120 O141 2.450 . S
Sm120 O142 2.681 . S
Sm120 O143 2.464 . S
Sm120 O144 2.396 . S
Sm120 O148 2.386 . S
Sm120 O151 2.408 . S
Sm121 C131 2.846 . S
Sm121 O142 2.386 . S
Sm121 O145 2.408 . S
Sm121 O146 2.543 . S
Sm121 O147 2.450 . S
Sm121 O148 2.681 . S
Sm121 O149 2.464 . S
Sm121 O150 2.396 . S
C122 Sm120 2.846 . S
C122 C123 1.506 . S
C122 O140 1.261 . S
C122 O141 1.242 . S
C123 C122 1.506 . S
C123 C124 1.358 . S
C123 C128 1.382 . S
C124 C123 1.358 . S
C124 C125 1.385 . S
C124 H152 0.930 . S
C125 C124 1.385 . S
C125 C126 1.395 . S
C125 H153 0.929 . S
C126 C125 1.395 . S
C126 C127 1.335 . S
C127 C126 1.335 . S
C127 C128 1.398 . S
C127 H154 0.930 . S
C128 C123 1.382 . S
C128 C127 1.398 . S
C128 H155 0.929 . S
C129 O142 1.271 . S
C129 O143 1.251 . S
C130 O144 1.252 . S
C130 O145 1.272 . S
C131 Sm121 2.846 . S
C131 C132 1.495 1_556 S
C131 O146 1.261 . S
C131 O147 1.242 . S
C132 C131 1.495 1_554 S
C132 C133 1.365 . S
C132 C137 1.386 . S
C133 C132 1.365 . S
C133 C134 1.385 . S
C133 H156 0.930 . S
C134 C133 1.385 . S
C134 C135 1.395 . S
C134 H157 0.929 . S
C135 C134 1.395 . S
C135 C136 1.335 . S
C136 C135 1.335 . S
C136 C137 1.398 . S
C136 H158 0.930 . S
C137 C132 1.386 . S
C137 C136 1.398 . S
C137 H159 0.916 1_554 S
C138 O148 1.271 . S
C138 O149 1.251 . S
C139 O150 1.252 . S
C139 O151 1.272 . S
O140 Sm120 2.543 . S
O140 C122 1.261 . S
O141 Sm120 2.450 . S
O141 C122 1.242 . S
O142 Sm120 2.681 . S
O142 Sm121 2.386 . S
O142 C129 1.271 . S
O143 Sm120 2.464 . S
O143 C129 1.251 . S
O144 Sm120 2.396 . S
O144 C130 1.252 . S
O145 Sm121 2.408 . S
O145 C130 1.272 . S
O146 Sm121 2.543 . S
O146 C131 1.261 . S
O147 Sm121 2.450 . S
O147 C131 1.242 . S
O148 Sm120 2.386 . S
O148 Sm121 2.681 . S
O148 C138 1.271 . S
O149 Sm121 2.464 . S
O149 C138 1.251 . S
O150 Sm121 2.396 . S
O150 C139 1.252 . S
O151 Sm120 2.408 . S
O151 C139 1.272 . S
H152 C124 0.930 . S
H153 C125 0.929 . S
H154 C127 0.930 . S
H155 C128 0.929 . S
H156 C133 0.930 . S
H157 C134 0.929 . S
H158 C136 0.930 . S
H159 C137 0.916 1_556 S
Sm160 C162 2.846 . S
Sm160 O180 2.543 . S
Sm160 O181 2.450 . S
Sm160 O182 2.681 . S
Sm160 O183 2.464 . S
Sm160 O184 2.396 . S
Sm160 O188 2.386 . S
Sm160 O191 2.408 . S
Sm161 C171 2.846 . S
Sm161 O182 2.386 . S
Sm161 O185 2.408 . S
Sm161 O186 2.543 . S
Sm161 O187 2.450 . S
Sm161 O188 2.681 . S
Sm161 O189 2.464 . S
Sm161 O190 2.396 . S
C162 Sm160 2.846 . S
C162 C163 1.506 . S
C162 O180 1.261 . S
C162 O181 1.242 . S
C163 C162 1.506 . S
C163 C164 1.358 . S
C163 C168 1.382 . S
C164 C163 1.358 . S
C164 C165 1.385 . S
C164 H192 0.930 . S
C165 C164 1.385 . S
C165 C166 1.395 . S
C165 H193 0.929 . S
C166 C165 1.395 . S
C166 C167 1.335 . S
C167 C166 1.335 . S
C167 C168 1.398 . S
C167 H194 0.930 . S
C168 C163 1.382 . S
C168 C167 1.398 . S
C168 H195 0.929 . S
C169 O182 1.271 . S
C169 O183 1.251 . S
C170 O184 1.252 . S
C170 O185 1.272 . S
C171 Sm161 2.846 . S
C171 C172 1.506 . S
C171 O186 1.261 . S
C171 O187 1.242 . S
C172 C171 1.506 . S
C172 C173 1.358 . S
C172 C177 1.382 . S
C173 C172 1.358 . S
C173 C174 1.385 . S
C173 H196 0.930 . S
C174 C173 1.385 . S
C174 C175 1.395 . S
C174 H197 0.929 . S
C175 C174 1.395 . S
C175 C176 1.335 . S
C176 C175 1.335 . S
C176 C177 1.398 . S
C176 H198 0.930 . S
C177 C172 1.382 . S
C177 C176 1.398 . S
C177 H199 0.929 . S
C178 O188 1.271 . S
C178 O189 1.251 . S
C179 O190 1.252 . S
C179 O191 1.272 . S
O180 Sm160 2.543 . S
O180 C162 1.261 . S
O181 Sm160 2.450 . S
O181 C162 1.242 . S
O182 Sm160 2.681 . S
O182 Sm161 2.386 . S
O182 C169 1.271 . S
O183 Sm160 2.464 . S
O183 C169 1.251 . S
O184 Sm160 2.396 . S
O184 C170 1.252 . S
O185 Sm161 2.408 . S
O185 C170 1.272 . S
O186 Sm161 2.543 . S
O186 C171 1.261 . S
O187 Sm161 2.450 . S
O187 C171 1.242 . S
O188 Sm160 2.386 . S
O188 Sm161 2.681 . S
O188 C178 1.271 . S
O189 Sm161 2.464 . S
O189 C178 1.251 . S
O190 Sm161 2.396 . S
O190 C179 1.252 . S
O191 Sm160 2.408 . S
O191 C179 1.272 . S
H192 C164 0.930 . S
H193 C165 0.929 . S
H194 C167 0.930 . S
H195 C168 0.929 . S
H196 C173 0.930 . S
H197 C174 0.929 . S
H198 C176 0.930 . S
H199 C177 0.929 . S
Sm200 C202 2.846 . S
Sm200 O220 2.543 . S
Sm200 O221 2.450 . S
Sm200 O222 2.681 . S
Sm200 O223 2.464 . S
Sm200 O224 2.396 . S
Sm200 O228 2.386 . S
Sm200 O231 2.408 . S
Sm201 C211 2.846 . S
Sm201 O222 2.386 . S
Sm201 O225 2.408 . S
Sm201 O226 2.543 . S
Sm201 O227 2.450 . S
Sm201 O228 2.681 . S
Sm201 O229 2.464 . S
Sm201 O230 2.396 . S
C202 Sm200 2.846 . S
C202 C203 1.506 . S
C202 O220 1.261 . S
C202 O221 1.242 . S
C203 C202 1.506 . S
C203 C204 1.358 . S
C203 C208 1.382 . S
C204 C203 1.358 . S
C204 C205 1.385 1_556 S
C204 H232 0.930 . S
C205 C204 1.385 1_554 S
C205 C206 1.395 . S
C205 H233 0.929 . S
C206 C205 1.395 . S
C206 C207 1.335 . S
C207 C206 1.335 . S
C207 C208 1.398 1_554 S
C207 H234 0.930 . S
C208 C203 1.382 . S
C208 C207 1.398 1_556 S
C208 H235 0.929 . S
C209 O222 1.271 . S
C209 O223 1.251 . S
C210 O224 1.252 . S
C210 O225 1.272 . S
C211 Sm201 2.846 . S
C211 C212 1.506 . S
C211 O226 1.261 . S
C211 O227 1.242 . S
C212 C211 1.506 . S
C212 C213 1.358 . S
C212 C217 1.382 . S
C213 C212 1.358 . S
C213 C214 1.385 . S
C213 H236 0.930 . S
C214 C213 1.385 . S
C214 C215 1.395 . S
C214 H237 0.929 . S
C215 C214 1.395 . S
C215 C216 1.335 . S
C216 C215 1.335 . S
C216 C217 1.398 . S
C216 H238 0.930 . S
C217 C212 1.382 . S
C217 C216 1.398 . S
C217 H239 0.929 . S
C218 O228 1.271 . S
C218 O229 1.251 . S
C219 O230 1.252 . S
C219 O231 1.272 . S
O220 Sm200 2.543 . S
O220 C202 1.261 . S
O221 Sm200 2.450 . S
O221 C202 1.242 . S
O222 Sm200 2.681 . S
O222 Sm201 2.386 . S
O222 C209 1.271 . S
O223 Sm200 2.464 . S
O223 C209 1.251 . S
O224 Sm200 2.396 . S
O224 C210 1.252 . S
O225 Sm201 2.408 . S
O225 C210 1.272 . S
O226 Sm201 2.543 . S
O226 C211 1.261 . S
O227 Sm201 2.450 . S
O227 C211 1.242 . S
O228 Sm200 2.386 . S
O228 Sm201 2.681 . S
O228 C218 1.271 . S
O229 Sm201 2.464 . S
O229 C218 1.251 . S
O230 Sm201 2.396 . S
O230 C219 1.252 . S
O231 Sm200 2.408 . S
O231 C219 1.272 . S
H232 C204 0.930 . S
H233 C205 0.929 . S
H234 C207 0.930 . S
H235 C208 0.929 . S
H236 C213 0.930 . S
H237 C214 0.929 . S
H238 C216 0.930 . S
H239 C217 0.929 . S
Sm240 C242 2.846 . S
Sm240 O260 2.543 . S
Sm240 O261 2.450 . S
Sm240 O262 2.681 . S
Sm240 O263 2.464 . S
Sm240 O264 2.396 . S
Sm240 O268 2.386 . S
Sm240 O271 2.408 . S
Sm241 C251 2.846 1_554 S
Sm241 O262 2.386 . S
Sm241 O265 2.408 . S
Sm241 O266 2.543 1_554 S
Sm241 O267 2.450 . S
Sm241 O268 2.681 . S
Sm241 O269 2.464 . S
Sm241 O270 2.396 . S
C242 Sm240 2.846 . S
C242 C243 1.506 . S
C242 O260 1.261 . S
C242 O261 1.242 . S
C243 C242 1.506 . S
C243 C244 1.358 . S
C243 C248 1.382 . S
C244 C243 1.358 . S
C244 C245 1.385 . S
C244 H272 0.930 . S
C245 C244 1.385 . S
C245 C246 1.395 . S
C245 H273 0.929 . S
C246 C245 1.395 . S
C246 C247 1.335 . S
C247 C246 1.335 . S
C247 C248 1.398 . S
C247 H274 0.930 . S
C248 C243 1.382 . S
C248 C247 1.398 . S
C248 H275 0.929 . S
C249 O262 1.271 . S
C249 O263 1.251 . S
C250 O264 1.252 . S
C250 O265 1.272 . S
C251 Sm241 2.846 1_556 S
C251 C252 1.506 . S
C251 O266 1.261 . S
C251 O267 1.242 1_556 S
C252 C251 1.506 . S
C252 C253 1.358 . S
C252 C257 1.382 . S
C253 C252 1.358 . S
C253 C254 1.385 . S
C253 H276 0.930 . S
C254 C253 1.385 . S
C254 C255 1.395 . S
C254 H277 0.929 . S
C255 C254 1.395 . S
C255 C256 1.335 . S
C256 C255 1.335 . S
C256 C257 1.398 . S
C256 H278 0.930 . S
C257 C252 1.382 . S
C257 C256 1.398 . S
C257 H279 0.929 . S
C258 O268 1.271 . S
C258 O269 1.251 . S
C259 O270 1.252 . S
C259 O271 1.272 . S
O260 Sm240 2.543 . S
O260 C242 1.261 . S
O261 Sm240 2.450 . S
O261 C242 1.242 . S
O262 Sm240 2.681 . S
O262 Sm241 2.386 . S
O262 C249 1.271 . S
O263 Sm240 2.464 . S
O263 C249 1.251 . S
O264 Sm240 2.396 . S
O264 C250 1.252 . S
O265 Sm241 2.408 . S
O265 C250 1.272 . S
O266 Sm241 2.543 1_556 S
O266 C251 1.261 . S
O267 Sm241 2.450 . S
O267 C251 1.242 1_554 S
O268 Sm240 2.386 . S
O268 Sm241 2.681 . S
O268 C258 1.271 . S
O269 Sm241 2.464 . S
O269 C258 1.251 . S
O270 Sm241 2.396 . S
O270 C259 1.252 . S
O271 Sm240 2.408 . S
O271 C259 1.272 . S
H272 C244 0.930 . S
H273 C245 0.929 . S
H274 C247 0.930 . S
H275 C248 0.929 . S
H276 C253 0.930 . S
H277 C254 0.929 . S
H278 C256 0.930 . S
H279 C257 0.929 . S
Sm280 C282 2.846 . S
Sm280 O300 2.543 . S
Sm280 O301 2.450 . S
Sm280 O302 2.681 . S
Sm280 O303 2.464 . S
Sm280 O304 2.396 . S
Sm280 O308 2.386 . S
Sm280 O311 2.408 . S
Sm281 C291 2.846 . S
Sm281 O302 2.386 . S
Sm281 O305 2.408 . S
Sm281 O306 2.543 . S
Sm281 O307 2.450 . S
Sm281 O308 2.681 . S
Sm281 O309 2.464 . S
Sm281 O310 2.396 . S
C282 Sm280 2.846 . S
C282 C283 1.506 . S
C282 O300 1.261 . S
C282 O301 1.242 . S
C283 C282 1.506 . S
C283 C284 1.358 . S
C283 C288 1.382 . S
C284 C283 1.358 . S
C284 C285 1.385 . S
C284 H312 0.930 . S
C285 C284 1.385 . S
C285 C286 1.395 . S
C285 H313 0.929 . S
C286 C285 1.395 . S
C286 C287 1.335 . S
C287 C286 1.335 . S
C287 C288 1.398 . S
C287 H314 0.930 . S
C288 C283 1.382 . S
C288 C287 1.398 . S
C288 H315 0.929 . S
C289 O302 1.271 . S
C289 O303 1.251 . S
C290 O304 1.252 . S
C290 O305 1.272 . S
C291 Sm281 2.846 . S
C291 C292 1.506 . S
C291 O306 1.261 . S
C291 O307 1.242 . S
C292 C291 1.506 . S
C292 C293 1.358 . S
C292 C297 1.382 . S
C293 C292 1.358 . S
C293 C294 1.385 . S
C293 H316 0.930 . S
C294 C293 1.385 . S
C294 C295 1.395 . S
C294 H317 0.929 . S
C295 C294 1.395 . S
C295 C296 1.335 . S
C296 C295 1.335 . S
C296 C297 1.398 . S
C296 H318 0.930 . S
C297 C292 1.382 . S
C297 C296 1.398 . S
C297 H319 0.929 . S
C298 O308 1.271 . S
C298 O309 1.251 . S
C299 O310 1.252 . S
C299 O311 1.272 . S
O300 Sm280 2.543 . S
O300 C282 1.261 . S
O301 Sm280 2.450 . S
O301 C282 1.242 . S
O302 Sm280 2.681 . S
O302 Sm281 2.386 . S
O302 C289 1.271 . S
O303 Sm280 2.464 . S
O303 C289 1.251 . S
O304 Sm280 2.396 . S
O304 C290 1.252 . S
O305 Sm281 2.408 . S
O305 C290 1.272 . S
O306 Sm281 2.543 . S
O306 C291 1.261 . S
O307 Sm281 2.450 . S
O307 C291 1.242 . S
O308 Sm280 2.386 . S
O308 Sm281 2.681 . S
O308 C298 1.271 . S
O309 Sm281 2.464 . S
O309 C298 1.251 . S
O310 Sm281 2.396 . S
O310 C299 1.252 . S
O311 Sm280 2.408 . S
O311 C299 1.272 . S
H312 C284 0.930 . S
H313 C285 0.929 . S
H314 C287 0.930 . S
H315 C288 0.929 . S
H316 C293 0.930 . S
H317 C294 0.929 . S
H318 C296 0.930 . S
H319 C297 0.929 . S
Sm320 C322 2.846 . S
Sm320 O340 2.543 . S
Sm320 O341 2.450 . S
Sm320 O342 2.681 . S
Sm320 O343 2.464 . S
Sm320 O344 2.396 . S
Sm320 O348 2.386 . S
Sm320 O351 2.408 . S
Sm321 C331 2.846 . S
Sm321 O342 2.386 . S
Sm321 O345 2.408 . S
Sm321 O346 2.543 . S
Sm321 O347 2.450 . S
Sm321 O348 2.681 . S
Sm321 O349 2.464 . S
Sm321 O350 2.396 . S
C322 Sm320 2.846 . S
C322 C323 1.506 . S
C322 O340 1.261 . S
C322 O341 1.242 . S
C323 C322 1.506 . S
C323 C324 1.358 . S
C323 C328 1.382 . S
C324 C323 1.358 . S
C324 C325 1.385 . S
C324 H352 0.930 . S
C325 C324 1.385 . S
C325 C326 1.395 . S
C325 H353 0.929 . S
C326 C325 1.395 . S
C326 C327 1.335 . S
C327 C326 1.335 . S
C327 C328 1.398 . S
C327 H354 0.930 . S
C328 C323 1.382 . S
C328 C327 1.398 . S
C328 H355 0.929 . S
C329 O342 1.271 . S
C329 O343 1.251 . S
C330 O344 1.252 . S
C330 O345 1.272 . S
C331 Sm321 2.846 . S
C331 C332 1.506 . S
C331 O346 1.261 . S
C331 O347 1.242 . S
C332 C331 1.506 . S
C332 C333 1.358 . S
C332 C337 1.382 . S
C333 C332 1.358 . S
C333 C334 1.385 . S
C333 H356 0.930 . S
C334 C333 1.385 . S
C334 C335 1.395 1_554 S
C334 H357 0.929 . S
C335 C334 1.395 1_556 S
C335 C336 1.335 1_556 S
C336 C335 1.335 1_554 S
C336 C337 1.398 . S
C336 H358 0.930 1_655 S
C337 C332 1.382 . S
C337 C336 1.398 . S
C337 H359 0.929 . S
C338 O348 1.271 . S
C338 O349 1.251 . S
C339 O350 1.252 . S
C339 O351 1.272 . S
O340 Sm320 2.543 . S
O340 C322 1.261 . S
O341 Sm320 2.450 . S
O341 C322 1.242 . S
O342 Sm320 2.681 . S
O342 Sm321 2.386 . S
O342 C329 1.271 . S
O343 Sm320 2.464 . S
O343 C329 1.251 . S
O344 Sm320 2.396 . S
O344 C330 1.252 . S
O345 Sm321 2.408 . S
O345 C330 1.272 . S
O346 Sm321 2.543 . S
O346 C331 1.261 . S
O347 Sm321 2.450 . S
O347 C331 1.242 . S
O348 Sm320 2.386 . S
O348 Sm321 2.681 . S
O348 C338 1.271 . S
O349 Sm321 2.464 . S
O349 C338 1.251 . S
O350 Sm321 2.396 . S
O350 C339 1.252 . S
O351 Sm320 2.408 . S
O351 C339 1.272 . S
H352 C324 0.930 . S
H353 C325 0.929 . S
H354 C327 0.930 . S
H355 C328 0.929 . S
H356 C333 0.930 . S
H357 C334 0.929 . S
H358 C336 0.930 1_455 S
H359 C337 0.929 . S
Sm360 C362 2.846 1_556 S
Sm360 O380 2.543 1_556 S
Sm360 O381 2.450 1_556 S
Sm360 O382 2.681 . S
Sm360 O383 2.464 . S
Sm360 O384 2.396 1_556 S
Sm360 O388 2.386 . S
Sm360 O391 2.408 . S
Sm361 C371 2.846 . S
Sm361 O382 2.386 . S
Sm361 O385 2.408 . S
Sm361 O386 2.543 . S
Sm361 O387 2.450 . S
Sm361 O388 2.681 . S
Sm361 O389 2.464 . S
Sm361 O390 2.396 . S
C362 Sm360 2.846 1_554 S
C362 C363 1.506 . S
C362 O380 1.261 . S
C362 O381 1.242 . S
C363 C362 1.506 . S
C363 C364 1.358 . S
C363 C368 1.382 . S
C364 C363 1.358 . S
C364 C365 1.385 . S
C364 H392 0.930 . S
C365 C364 1.385 . S
C365 C366 1.395 . S
C365 H393 0.929 . S
C366 C365 1.395 . S
C366 C367 1.335 . S
C367 C366 1.335 . S
C367 C368 1.398 . S
C367 H394 0.930 . S
C368 C363 1.382 . S
C368 C367 1.398 . S
C368 H395 0.929 . S
C369 O382 1.271 . S
C369 O383 1.251 . S
C370 O384 1.252 . S
C370 O385 1.272 1_554 S
C371 Sm361 2.846 . S
C371 C372 1.506 . S
C371 O386 1.261 . S
C371 O387 1.242 . S
C372 C371 1.506 . S
C372 C373 1.358 . S
C372 C377 1.382 . S
C373 C372 1.358 . S
C373 C374 1.385 . S
C373 H396 0.930 . S
C374 C373 1.385 . S
C374 C375 1.395 . S
C374 H397 0.929 . S
C375 C374 1.395 . S
C375 C376 1.335 . S
C376 C375 1.335 . S
C376 C377 1.398 . S
C376 H398 0.930 . S
C377 C372 1.382 . S
C377 C376 1.398 . S
C377 H399 0.929 . S
C378 O388 1.271 . S
C378 O389 1.251 . S
C379 O390 1.252 . S
C379 O391 1.272 . S
O380 Sm360 2.543 1_554 S
O380 C362 1.261 . S
O381 Sm360 2.450 1_554 S
O381 C362 1.242 . S
O382 Sm360 2.681 . S
O382 Sm361 2.386 . S
O382 C369 1.271 . S
O383 Sm360 2.464 . S
O383 C369 1.251 . S
O384 Sm360 2.396 1_554 S
O384 C370 1.252 . S
O385 Sm361 2.408 . S
O385 C370 1.272 1_556 S
O386 Sm361 2.543 . S
O386 C371 1.261 . S
O387 Sm361 2.450 . S
O387 C371 1.242 . S
O388 Sm360 2.386 . S
O388 Sm361 2.681 . S
O388 C378 1.271 . S
O389 Sm361 2.464 . S
O389 C378 1.251 . S
O390 Sm361 2.396 . S
O390 C379 1.252 . S
O391 Sm360 2.408 . S
O391 C379 1.272 . S
H392 C364 0.930 . S
H393 C365 0.929 . S
H394 C367 0.930 . S
H395 C368 0.929 . S
H396 C373 0.930 . S
H397 C374 0.929 . S
H398 C376 0.930 . S
H399 C377 0.929 . S
Sm400 C402 2.846 . S
Sm400 O420 2.543 . S
Sm400 O421 2.450 . S
Sm400 O422 2.681 . S
Sm400 O423 2.464 . S
Sm400 O424 2.396 . S
Sm400 O428 2.386 . S
Sm400 O431 2.408 . S
Sm401 C411 2.846 . S
Sm401 O422 2.386 . S
Sm401 O425 2.408 . S
Sm401 O426 2.543 . S
Sm401 O427 2.450 . S
Sm401 O428 2.681 . S
Sm401 O429 2.464 . S
Sm401 O430 2.396 . S
C402 Sm400 2.846 . S
C402 C403 1.506 . S
C402 O420 1.261 . S
C402 O421 1.242 . S
C403 C402 1.506 . S
C403 C404 1.358 . S
C403 C408 1.382 . S
C404 C403 1.358 . S
C404 C405 1.385 . S
C404 H432 0.930 . S
C405 C404 1.385 . S
C405 C406 1.395 . S
C405 H433 0.929 . S
C406 C405 1.395 . S
C406 C407 1.335 . S
C407 C406 1.335 . S
C407 C408 1.398 . S
C407 H434 0.930 . S
C408 C403 1.382 . S
C408 C407 1.398 . S
C408 H435 0.929 . S
C409 O422 1.271 . S
C409 O423 1.251 . S
C410 O424 1.252 . S
C410 O425 1.272 . S
C411 Sm401 2.846 . S
C411 C412 1.506 . S
C411 O426 1.261 . S
C411 O427 1.242 . S
C412 C411 1.506 . S
C412 C413 1.358 . S
C412 C417 1.382 . S
C413 C412 1.358 . S
C413 C414 1.385 . S
C413 H436 0.930 . S
C414 C413 1.385 . S
C414 C415 1.395 . S
C414 H437 0.929 . S
C415 C414 1.395 . S
C415 C416 1.335 . S
C416 C415 1.335 . S
C416 C417 1.398 . S
C416 H438 0.930 . S
C417 C412 1.382 . S
C417 C416 1.398 . S
C417 H439 0.929 . S
C418 O428 1.271 . S
C418 O429 1.251 . S
C419 O430 1.252 . S
C419 O431 1.272 . S
O420 Sm400 2.543 . S
O420 C402 1.261 . S
O421 Sm400 2.450 . S
O421 C402 1.242 . S
O422 Sm400 2.681 . S
O422 Sm401 2.386 . S
O422 C409 1.271 . S
O423 Sm400 2.464 . S
O423 C409 1.251 . S
O424 Sm400 2.396 . S
O424 C410 1.252 . S
O425 Sm401 2.408 . S
O425 C410 1.272 . S
O426 Sm401 2.543 . S
O426 C411 1.261 . S
O427 Sm401 2.450 . S
O427 C411 1.242 . S
O428 Sm400 2.386 . S
O428 Sm401 2.681 . S
O428 C418 1.271 . S
O429 Sm401 2.464 . S
O429 C418 1.251 . S
O430 Sm401 2.396 . S
O430 C419 1.252 . S
O431 Sm400 2.408 . S
O431 C419 1.272 . S
H432 C404 0.930 . S
H433 C405 0.929 . S
H434 C407 0.930 . S
H435 C408 0.929 . S
H436 C413 0.930 . S
H437 C414 0.929 . S
H438 C416 0.930 . S
H439 C417 0.929 . S
Sm440 C442 2.846 . S
Sm440 O460 2.543 . S
Sm440 O461 2.450 . S
Sm440 O462 2.681 . S
Sm440 O463 2.464 . S
Sm440 O464 2.396 . S
Sm440 O468 2.386 . S
Sm440 O471 2.408 . S
Sm441 C451 2.846 . S
Sm441 O462 2.386 . S
Sm441 O465 2.408 . S
Sm441 O466 2.543 . S
Sm441 O467 2.450 . S
Sm441 O468 2.681 . S
Sm441 O469 2.464 . S
Sm441 O470 2.396 . S
C442 Sm440 2.846 . S
C442 C443 1.506 . S
C442 O460 1.261 . S
C442 O461 1.242 . S
C443 C442 1.506 . S
C443 C444 1.358 . S
C443 C448 1.382 . S
C444 C443 1.358 . S
C444 C445 1.385 . S
C444 H472 0.930 . S
C445 C444 1.385 . S
C445 C446 1.395 . S
C445 H473 0.929 . S
C446 C445 1.395 . S
C446 C447 1.335 . S
C447 C446 1.335 . S
C447 C448 1.398 . S
C447 H474 0.930 . S
C448 C443 1.382 . S
C448 C447 1.398 . S
C448 H475 0.929 . S
C449 O462 1.271 . S
C449 O463 1.251 . S
C450 O464 1.252 . S
C450 O465 1.272 . S
C451 Sm441 2.846 . S
C451 C452 1.506 . S
C451 O466 1.261 . S
C451 O467 1.242 . S
C452 C451 1.506 . S
C452 C453 1.358 . S
C452 C457 1.382 . S
C453 C452 1.358 . S
C453 C454 1.385 . S
C453 H476 0.930 . S
C454 C453 1.385 . S
C454 C455 1.395 . S
C454 H477 0.929 . S
C455 C454 1.395 . S
C455 C456 1.335 . S
C456 C455 1.335 . S
C456 C457 1.398 . S
C456 H478 0.930 . S
C457 C452 1.382 . S
C457 C456 1.398 . S
C457 H479 0.929 . S
C458 O468 1.271 . S
C458 O469 1.251 . S
C459 O470 1.252 . S
C459 O471 1.272 . S
O460 Sm440 2.543 . S
O460 C442 1.261 . S
O461 Sm440 2.450 . S
O461 C442 1.242 . S
O462 Sm440 2.681 . S
O462 Sm441 2.386 . S
O462 C449 1.271 . S
O463 Sm440 2.464 . S
O463 C449 1.251 . S
O464 Sm440 2.396 . S
O464 C450 1.252 . S
O465 Sm441 2.408 . S
O465 C450 1.272 . S
O466 Sm441 2.543 . S
O466 C451 1.261 . S
O467 Sm441 2.450 . S
O467 C451 1.242 . S
O468 Sm440 2.386 . S
O468 Sm441 2.681 . S
O468 C458 1.271 . S
O469 Sm441 2.464 . S
O469 C458 1.251 . S
O470 Sm441 2.396 . S
O470 C459 1.252 . S
O471 Sm440 2.408 . S
O471 C459 1.272 . S
H472 C444 0.930 . S
H473 C445 0.929 . S
H474 C447 0.930 . S
H475 C448 0.929 . S
H476 C453 0.930 . S
H477 C454 0.929 . S
H478 C456 0.930 . S
H479 C457 0.929 . S
Sm480 C482 2.846 . S
Sm480 O500 2.543 . S
Sm480 O501 2.450 . S
Sm480 O502 2.681 . S
Sm480 O503 2.464 . S
Sm480 O504 2.396 . S
Sm480 O508 2.386 . S
Sm480 O511 2.408 . S
Sm481 C491 2.846 . S
Sm481 O502 2.386 . S
Sm481 O505 2.408 . S
Sm481 O506 2.543 . S
Sm481 O507 2.450 . S
Sm481 O508 2.681 . S
Sm481 O509 2.464 . S
Sm481 O510 2.396 . S
C482 Sm480 2.846 . S
C482 C483 1.506 . S
C482 O500 1.261 . S
C482 O501 1.242 . S
C483 C482 1.506 . S
C483 C484 1.358 . S
C483 C488 1.382 . S
C484 C483 1.358 . S
C484 C485 1.385 . S
C484 H512 0.930 . S
C485 C484 1.385 . S
C485 C486 1.395 . S
C485 H513 0.929 . S
C486 C485 1.395 . S
C486 C487 1.335 . S
C487 C486 1.335 . S
C487 C488 1.398 . S
C487 H514 0.930 . S
C488 C483 1.382 . S
C488 C487 1.398 . S
C488 H515 0.929 . S
C489 O502 1.271 . S
C489 O503 1.251 . S
C490 O504 1.252 . S
C490 O505 1.272 . S
C491 Sm481 2.846 . S
C491 C492 1.506 . S
C491 O506 1.261 . S
C491 O507 1.242 . S
C492 C491 1.506 . S
C492 C493 1.358 . S
C492 C497 1.382 . S
C493 C492 1.358 . S
C493 C494 1.385 . S
C493 H516 0.930 . S
C494 C493 1.385 . S
C494 C495 1.395 . S
C494 H517 0.929 . S
C495 C494 1.395 . S
C495 C496 1.335 . S
C496 C495 1.335 . S
C496 C497 1.398 . S
C496 H518 0.930 . S
C497 C492 1.382 . S
C497 C496 1.398 . S
C497 H519 0.929 . S
C498 O508 1.271 . S
C498 O509 1.251 . S
C499 O510 1.252 . S
C499 O511 1.272 . S
O500 Sm480 2.543 . S
O500 C482 1.261 . S
O501 Sm480 2.450 . S
O501 C482 1.242 . S
O502 Sm480 2.681 . S
O502 Sm481 2.386 . S
O502 C489 1.271 . S
O503 Sm480 2.464 . S
O503 C489 1.251 . S
O504 Sm480 2.396 . S
O504 C490 1.252 . S
O505 Sm481 2.408 . S
O505 C490 1.272 . S
O506 Sm481 2.543 . S
O506 C491 1.261 . S
O507 Sm481 2.450 . S
O507 C491 1.242 . S
O508 Sm480 2.386 . S
O508 Sm481 2.681 . S
O508 C498 1.271 . S
O509 Sm481 2.464 . S
O509 C498 1.251 . S
O510 Sm481 2.396 . S
O510 C499 1.252 . S
O511 Sm480 2.408 . S
O511 C499 1.272 . S
H512 C484 0.930 . S
H513 C485 0.929 . S
H514 C487 0.930 . S
H515 C488 0.929 . S
H516 C493 0.930 . S
H517 C494 0.929 . S
H518 C496 0.930 . S
H519 C497 0.929 . S
Sm520 C522 2.846 . S
Sm520 O540 2.543 . S
Sm520 O541 2.450 . S
Sm520 O542 2.681 . S
Sm520 O543 2.464 . S
Sm520 O544 2.396 . S
Sm520 O548 2.386 . S
Sm520 O551 2.408 . S
Sm521 C531 2.846 . S
Sm521 O542 2.386 . S
Sm521 O545 2.408 . S
Sm521 O546 2.543 . S
Sm521 O547 2.450 . S
Sm521 O548 2.681 . S
Sm521 O549 2.464 . S
Sm521 O550 2.396 . S
C522 Sm520 2.846 . S
C522 C523 1.506 . S
C522 O540 1.261 . S
C522 O541 1.242 . S
C523 C522 1.506 . S
C523 C524 1.358 . S
C523 C528 1.382 . S
C524 C523 1.358 . S
C524 C525 1.385 . S
C524 H552 0.930 . S
C525 C524 1.385 . S
C525 C526 1.395 . S
C525 H553 0.929 . S
C526 C525 1.395 . S
C526 C527 1.335 . S
C527 C526 1.335 . S
C527 C528 1.398 . S
C527 H554 0.930 . S
C528 C523 1.382 . S
C528 C527 1.398 . S
C528 H555 0.929 . S
C529 O542 1.271 . S
C529 O543 1.251 . S
C530 O544 1.252 . S
C530 O545 1.272 . S
C531 Sm521 2.846 . S
C531 C532 1.506 . S
C531 O546 1.261 . S
C531 O547 1.242 . S
C532 C531 1.506 . S
C532 C533 1.358 . S
C532 C537 1.382 . S
C533 C532 1.358 . S
C533 C534 1.385 . S
C533 H556 0.930 . S
C534 C533 1.385 . S
C534 C535 1.395 . S
C534 H557 0.929 . S
C535 C534 1.395 . S
C535 C536 1.335 . S
C536 C535 1.335 . S
C536 C537 1.398 . S
C536 H558 0.930 . S
C537 C532 1.382 . S
C537 C536 1.398 . S
C537 H559 0.929 . S
C538 O548 1.271 . S
C538 O549 1.251 . S
C539 O550 1.252 . S
C539 O551 1.272 . S
O540 Sm520 2.543 . S
O540 C522 1.261 . S
O541 Sm520 2.450 . S
O541 C522 1.242 . S
O542 Sm520 2.681 . S
O542 Sm521 2.386 . S
O542 C529 1.271 . S
O543 Sm520 2.464 . S
O543 C529 1.251 . S
O544 Sm520 2.396 . S
O544 C530 1.252 . S
O545 Sm521 2.408 . S
O545 C530 1.272 . S
O546 Sm521 2.543 . S
O546 C531 1.261 . S
O547 Sm521 2.450 . S
O547 C531 1.242 . S
O548 Sm520 2.386 . S
O548 Sm521 2.681 . S
O548 C538 1.271 . S
O549 Sm521 2.464 . S
O549 C538 1.251 . S
O550 Sm521 2.396 . S
O550 C539 1.252 . S
O551 Sm520 2.408 . S
O551 C539 1.272 . S
H552 C524 0.930 . S
H553 C525 0.929 . S
H554 C527 0.930 . S
H555 C528 0.929 . S
H556 C533 0.930 . S
H557 C534 0.929 . S
H558 C536 0.930 . S
H559 C537 0.929 . S
Sm560 C562 2.846 . S
Sm560 O580 2.543 . S
Sm560 O581 2.450 . S
Sm560 O582 2.681 . S
Sm560 O583 2.464 . S
Sm560 O584 2.396 . S
Sm560 O588 2.386 . S
Sm560 O591 2.408 . S
Sm561 C571 2.846 . S
Sm561 O582 2.386 . S
Sm561 O585 2.408 . S
Sm561 O586 2.543 . S
Sm561 O587 2.450 . S
Sm561 O588 2.681 . S
Sm561 O589 2.464 . S
Sm561 O590 2.396 . S
C562 Sm560 2.846 . S
C562 C563 1.506 . S
C562 O580 1.261 . S
C562 O581 1.242 . S
C563 C562 1.506 . S
C563 C564 1.358 . S
C563 C568 1.382 . S
C564 C563 1.358 . S
C564 C565 1.385 . S
C564 H592 0.930 . S
C565 C564 1.385 . S
C565 C566 1.395 . S
C565 H593 0.929 . S
C566 C565 1.395 . S
C566 C567 1.335 . S
C567 C566 1.335 . S
C567 C568 1.398 . S
C567 H594 0.930 . S
C568 C563 1.382 . S
C568 C567 1.398 . S
C568 H595 0.929 . S
C569 O582 1.271 . S
C569 O583 1.251 . S
C570 O584 1.252 . S
C570 O585 1.272 . S
C571 Sm561 2.846 . S
C571 C572 1.506 . S
C571 O586 1.261 . S
C571 O587 1.242 . S
C572 C571 1.506 . S
C572 C573 1.358 . S
C572 C577 1.382 . S
C573 C572 1.358 . S
C573 C574 1.385 . S
C573 H596 0.930 . S
C574 C573 1.385 . S
C574 C575 1.395 . S
C574 H597 0.929 . S
C575 C574 1.395 . S
C575 C576 1.335 . S
C576 C575 1.335 . S
C576 C577 1.398 . S
C576 H598 0.930 . S
C577 C572 1.382 . S
C577 C576 1.398 . S
C577 H599 0.929 . S
C578 O588 1.271 . S
C578 O589 1.251 . S
C579 O590 1.252 . S
C579 O591 1.272 . S
O580 Sm560 2.543 . S
O580 C562 1.261 . S
O581 Sm560 2.450 . S
O581 C562 1.242 . S
O582 Sm560 2.681 . S
O582 Sm561 2.386 . S
O582 C569 1.271 . S
O583 Sm560 2.464 . S
O583 C569 1.251 . S
O584 Sm560 2.396 . S
O584 C570 1.252 . S
O585 Sm561 2.408 . S
O585 C570 1.272 . S
O586 Sm561 2.543 . S
O586 C571 1.261 . S
O587 Sm561 2.450 . S
O587 C571 1.242 . S
O588 Sm560 2.386 . S
O588 Sm561 2.681 . S
O588 C578 1.271 . S
O589 Sm561 2.464 . S
O589 C578 1.251 . S
O590 Sm561 2.396 . S
O590 C579 1.252 . S
O591 Sm560 2.408 . S
O591 C579 1.272 . S
H592 C564 0.930 . S
H593 C565 0.929 . S
H594 C567 0.930 . S
H595 C568 0.929 . S
H596 C573 0.930 . S
H597 C574 0.929 . S
H598 C576 0.930 . S
H599 C577 0.929 . S
Sm600 C602 2.846 . S
Sm600 O620 2.543 . S
Sm600 O621 2.450 . S
Sm600 O622 2.681 . S
Sm600 O623 2.464 . S
Sm600 O624 2.396 . S
Sm600 O628 2.386 . S
Sm600 O631 2.408 . S
Sm601 C611 2.846 . S
Sm601 O622 2.386 . S
Sm601 O625 2.408 . S
Sm601 O626 2.543 . S
Sm601 O627 2.450 . S
Sm601 O628 2.681 . S
Sm601 O629 2.464 . S
Sm601 O630 2.396 . S
C602 Sm600 2.846 . S
C602 C603 1.506 1_556 S
C602 O620 1.261 . S
C602 O621 1.242 . S
C603 C602 1.506 1_554 S
C603 C604 1.358 . S
C603 C608 1.382 . S
C604 C603 1.358 . S
C604 C605 1.385 . S
C604 H632 0.930 . S
C605 C604 1.385 . S
C605 C606 1.395 . S
C605 H633 0.929 . S
C606 C605 1.395 . S
C606 C607 1.335 . S
C607 C606 1.335 . S
C607 C608 1.398 . S
C607 H634 0.930 . S
C608 C603 1.382 . S
C608 C607 1.398 . S
C608 H635 0.929 . S
C609 O622 1.271 . S
C609 O623 1.251 . S
C610 O624 1.252 . S
C610 O625 1.272 . S
C611 Sm601 2.846 . S
C611 C612 1.506 . S
C611 O626 1.261 . S
C611 O627 1.242 . S
C612 C611 1.506 . S
C612 C613 1.358 . S
C612 C617 1.382 . S
C613 C612 1.358 . S
C613 C614 1.385 . S
C613 H636 0.930 . S
C614 C613 1.385 . S
C614 C615 1.395 . S
C614 H637 0.929 . S
C615 C614 1.395 . S
C615 C616 1.335 . S
C616 C615 1.335 . S
C616 C617 1.398 . S
C616 H638 0.930 . S
C617 C612 1.382 . S
C617 C616 1.398 . S
C617 H639 0.929 . S
C618 O628 1.271 . S
C618 O629 1.251 . S
C619 O630 1.252 . S
C619 O631 1.272 . S
O620 Sm600 2.543 . S
O620 C602 1.261 . S
O621 Sm600 2.450 . S
O621 C602 1.242 . S
O622 Sm600 2.681 . S
O622 Sm601 2.386 . S
O622 C609 1.271 . S
O623 Sm600 2.464 . S
O623 C609 1.251 . S
O624 Sm600 2.396 . S
O624 C610 1.252 . S
O625 Sm601 2.408 . S
O625 C610 1.272 . S
O626 Sm601 2.543 . S
O626 C611 1.261 . S
O627 Sm601 2.450 . S
O627 C611 1.242 . S
O628 Sm600 2.386 . S
O628 Sm601 2.681 . S
O628 C618 1.271 . S
O629 Sm601 2.464 . S
O629 C618 1.251 . S
O630 Sm601 2.396 . S
O630 C619 1.252 . S
O631 Sm600 2.408 . S
O631 C619 1.272 . S
H632 C604 0.930 . S
H633 C605 0.929 . S
H634 C607 0.930 . S
H635 C608 0.929 . S
H636 C613 0.930 . S
H637 C614 0.929 . S
H638 C616 0.930 . S
H639 C617 0.929 . S
Sm640 C642 2.846 . S
Sm640 O660 2.543 . S
Sm640 O661 2.450 . S
Sm640 O662 2.681 . S
Sm640 O663 2.464 . S
Sm640 O664 2.396 . S
Sm640 O668 2.386 . S
Sm640 O671 2.408 . S
Sm641 C651 2.846 . S
Sm641 O662 2.386 . S
Sm641 O665 2.408 . S
Sm641 O666 2.543 . S
Sm641 O667 2.450 . S
Sm641 O668 2.681 . S
Sm641 O669 2.464 . S
Sm641 O670 2.396 . S
C642 Sm640 2.846 . S
C642 C643 1.506 . S
C642 O660 1.261 . S
C642 O661 1.242 . S
C643 C642 1.506 . S
C643 C644 1.358 . S
C643 C648 1.382 . S
C644 C643 1.358 . S
C644 C645 1.385 . S
C644 H672 0.930 . S
C645 C644 1.385 . S
C645 C646 1.395 . S
C645 H673 0.929 . S
C646 C645 1.395 . S
C646 C647 1.335 . S
C647 C646 1.335 . S
C647 C648 1.398 . S
C647 H674 0.930 . S
C648 C643 1.382 . S
C648 C647 1.398 . S
C648 H675 0.929 . S
C649 O662 1.271 . S
C649 O663 1.251 . S
C650 O664 1.252 . S
C650 O665 1.272 . S
C651 Sm641 2.846 . S
C651 C652 1.506 . S
C651 O666 1.261 . S
C651 O667 1.242 . S
C652 C651 1.506 . S
C652 C653 1.358 . S
C652 C657 1.382 . S
C653 C652 1.358 . S
C653 C654 1.385 . S
C653 H676 0.930 . S
C654 C653 1.385 . S
C654 C655 1.395 . S
C654 H677 0.929 . S
C655 C654 1.395 . S
C655 C656 1.335 . S
C656 C655 1.335 . S
C656 C657 1.398 . S
C656 H678 0.930 . S
C657 C652 1.382 . S
C657 C656 1.398 . S
C657 H679 0.929 . S
C658 O668 1.271 . S
C658 O669 1.251 . S
C659 O670 1.252 . S
C659 O671 1.272 . S
O660 Sm640 2.543 . S
O660 C642 1.261 . S
O661 Sm640 2.450 . S
O661 C642 1.242 . S
O662 Sm640 2.681 . S
O662 Sm641 2.386 . S
O662 C649 1.271 . S
O663 Sm640 2.464 . S
O663 C649 1.251 . S
O664 Sm640 2.396 . S
O664 C650 1.252 . S
O665 Sm641 2.408 . S
O665 C650 1.272 . S
O666 Sm641 2.543 . S
O666 C651 1.261 . S
O667 Sm641 2.450 . S
O667 C651 1.242 . S
O668 Sm640 2.386 . S
O668 Sm641 2.681 . S
O668 C658 1.271 . S
O669 Sm641 2.464 . S
O669 C658 1.251 . S
O670 Sm641 2.396 . S
O670 C659 1.252 . S
O671 Sm640 2.408 . S
O671 C659 1.272 . S
H672 C644 0.930 . S
H673 C645 0.929 . S
H674 C647 0.930 . S
H675 C648 0.929 . S
H676 C653 0.930 . S
H677 C654 0.929 . S
H678 C656 0.930 . S
H679 C657 0.929 . S
Sm680 C682 2.846 . S
Sm680 O700 2.543 . S
Sm680 O701 2.450 . S
Sm680 O702 2.681 . S
Sm680 O703 2.464 . S
Sm680 O704 2.396 . S
Sm680 O708 2.386 . S
Sm680 O711 2.408 . S
Sm681 C691 2.846 . S
Sm681 O702 2.386 . S
Sm681 O705 2.408 . S
Sm681 O706 2.543 . S
Sm681 O707 2.450 . S
Sm681 O708 2.681 . S
Sm681 O709 2.464 . S
Sm681 O710 2.396 . S
C682 Sm680 2.846 . S
C682 C683 1.506 1_556 S
C682 O700 1.261 . S
C682 O701 1.242 . S
C683 C682 1.506 1_554 S
C683 C684 1.358 . S
C683 C688 1.382 . S
C684 C683 1.358 . S
C684 C685 1.385 . S
C684 H712 0.930 . S
C685 C684 1.385 . S
C685 C686 1.395 . S
C685 H713 0.929 . S
C686 C685 1.395 . S
C686 C687 1.335 . S
C687 C686 1.335 . S
C687 C688 1.398 . S
C687 H714 0.930 . S
C688 C683 1.382 . S
C688 C687 1.398 . S
C688 H715 0.929 . S
C689 O702 1.271 . S
C689 O703 1.251 . S
C690 O704 1.252 . S
C690 O705 1.272 . S
C691 Sm681 2.846 . S
C691 C692 1.506 . S
C691 O706 1.261 . S
C691 O707 1.242 . S
C692 C691 1.506 . S
C692 C693 1.358 . S
C692 C697 1.382 . S
C693 C692 1.358 . S
C693 C694 1.385 . S
C693 H716 0.930 . S
C694 C693 1.385 . S
C694 C695 1.395 . S
C694 H717 0.929 . S
C695 C694 1.395 . S
C695 C696 1.335 . S
C696 C695 1.335 . S
C696 C697 1.398 . S
C696 H718 0.930 . S
C697 C692 1.382 . S
C697 C696 1.398 . S
C697 H719 0.929 . S
C698 O708 1.271 . S
C698 O709 1.251 . S
C699 O710 1.252 . S
C699 O711 1.272 . S
O700 Sm680 2.543 . S
O700 C682 1.261 . S
O701 Sm680 2.450 . S
O701 C682 1.242 . S
O702 Sm680 2.681 . S
O702 Sm681 2.386 . S
O702 C689 1.271 . S
O703 Sm680 2.464 . S
O703 C689 1.251 . S
O704 Sm680 2.396 . S
O704 C690 1.252 . S
O705 Sm681 2.408 . S
O705 C690 1.272 . S
O706 Sm681 2.543 . S
O706 C691 1.261 . S
O707 Sm681 2.450 . S
O707 C691 1.242 . S
O708 Sm680 2.386 . S
O708 Sm681 2.681 . S
O708 C698 1.271 . S
O709 Sm681 2.464 . S
O709 C698 1.251 . S
O710 Sm681 2.396 . S
O710 C699 1.252 . S
O711 Sm680 2.408 . S
O711 C699 1.272 . S
H712 C684 0.930 . S
H713 C685 0.929 . S
H714 C687 0.930 . S
H715 C688 0.929 . S
H716 C693 0.930 . S
H717 C694 0.929 . S
H718 C696 0.930 . S
H719 C697 0.929 . S
Sm720 C722 2.846 . S
Sm720 O740 2.543 . S
Sm720 O741 2.450 . S
Sm720 O742 2.681 . S
Sm720 O743 2.464 . S
Sm720 O744 2.396 . S
Sm720 O748 2.386 . S
Sm720 O751 2.408 . S
Sm721 C731 2.846 . S
Sm721 O742 2.386 . S
Sm721 O745 2.408 . S
Sm721 O746 2.543 . S
Sm721 O747 2.450 . S
Sm721 O748 2.681 . S
Sm721 O749 2.464 . S
Sm721 O750 2.396 . S
C722 Sm720 2.846 . S
C722 C723 1.506 . S
C722 O740 1.261 . S
C722 O741 1.242 . S
C723 C722 1.506 . S
C723 C724 1.358 . S
C723 C728 1.382 . S
C724 C723 1.358 . S
C724 C725 1.385 . S
C724 H752 0.930 . S
C725 C724 1.385 . S
C725 C726 1.395 . S
C725 H753 0.929 . S
C726 C725 1.395 . S
C726 C727 1.335 1_655 S
C727 C726 1.335 1_455 S
C727 C728 1.398 1_455 S
C727 H754 0.930 . S
C728 C723 1.382 . S
C728 C727 1.398 1_655 S
C728 H755 0.929 1_655 S
C729 O742 1.271 . S
C729 O743 1.251 . S
C730 O744 1.252 . S
C730 O745 1.272 . S
C731 Sm721 2.846 . S
C731 C732 1.506 . S
C731 O746 1.261 . S
C731 O747 1.242 . S
C732 C731 1.506 . S
C732 C733 1.358 1_554 S
C732 C737 1.382 1_554 S
C733 C732 1.358 1_556 S
C733 C734 1.385 . S
C733 H756 0.930 . S
C734 C733 1.385 . S
C734 C735 1.395 . S
C734 H757 0.929 . S
C735 C734 1.395 . S
C735 C736 1.335 . S
C736 C735 1.335 . S
C736 C737 1.398 . S
C736 H758 0.930 . S
C737 C732 1.382 1_556 S
C737 C736 1.398 . S
C737 H759 0.929 1_556 S
C738 O748 1.271 . S
C738 O749 1.251 . S
C739 O750 1.252 . S
C739 O751 1.272 . S
O740 Sm720 2.543 . S
O740 C722 1.261 . S
O741 Sm720 2.450 . S
O741 C722 1.242 . S
O742 Sm720 2.681 . S
O742 Sm721 2.386 . S
O742 C729 1.271 . S
O743 Sm720 2.464 . S
O743 C729 1.251 . S
O744 Sm720 2.396 . S
O744 C730 1.252 . S
O745 Sm721 2.408 . S
O745 C730 1.272 . S
O746 Sm721 2.543 . S
O746 C731 1.261 . S
O747 Sm721 2.450 . S
O747 C731 1.242 . S
O748 Sm720 2.386 . S
O748 Sm721 2.681 . S
O748 C738 1.271 . S
O749 Sm721 2.464 . S
O749 C738 1.251 . S
O750 Sm721 2.396 . S
O750 C739 1.252 . S
O751 Sm720 2.408 . S
O751 C739 1.272 . S
H752 C724 0.930 . S
H753 C725 0.929 . S
H754 C727 0.930 . S
H755 C728 0.929 1_455 S
H756 C733 0.930 . S
H757 C734 0.929 . S
H758 C736 0.930 . S
H759 C737 0.929 1_554 S
Sm760 C762 2.846 . S
Sm760 O780 2.543 . S
Sm760 O781 2.450 . S
Sm760 O782 2.681 . S
Sm760 O783 2.464 . S
Sm760 O784 2.396 . S
Sm760 O788 2.386 . S
Sm760 O791 2.408 . S
Sm761 C771 2.846 . S
Sm761 O782 2.386 . S
Sm761 O785 2.408 . S
Sm761 O786 2.543 . S
Sm761 O787 2.450 . S
Sm761 O788 2.681 . S
Sm761 O789 2.464 . S
Sm761 O790 2.396 . S
C762 Sm760 2.846 . S
C762 C763 1.506 . S
C762 O780 1.261 . S
C762 O781 1.242 . S
C763 C762 1.506 . S
C763 C764 1.358 . S
C763 C768 1.382 . S
C764 C763 1.358 . S
C764 C765 1.385 . S
C764 H792 0.930 . S
C765 C764 1.385 . S
C765 C766 1.395 . S
C765 H793 0.929 . S
C766 C765 1.395 . S
C766 C767 1.335 . S
C767 C766 1.335 . S
C767 C768 1.398 . S
C767 H794 0.930 . S
C768 C763 1.382 . S
C768 C767 1.398 . S
C768 H795 0.929 . S
C769 O782 1.271 . S
C769 O783 1.251 . S
C770 O784 1.252 . S
C770 O785 1.272 . S
C771 Sm761 2.846 . S
C771 C772 1.506 . S
C771 O786 1.261 . S
C771 O787 1.242 . S
C772 C771 1.506 . S
C772 C773 1.358 . S
C772 C777 1.382 . S
C773 C772 1.358 . S
C773 C774 1.385 . S
C773 H796 0.930 . S
C774 C773 1.385 . S
C774 C775 1.395 . S
C774 H797 0.929 . S
C775 C774 1.395 . S
C775 C776 1.335 . S
C776 C775 1.335 . S
C776 C777 1.398 . S
C776 H798 0.930 . S
C777 C772 1.382 . S
C777 C776 1.398 . S
C777 H799 0.929 . S
C778 O788 1.271 . S
C778 O789 1.251 . S
C779 O790 1.252 . S
C779 O791 1.272 . S
O780 Sm760 2.543 . S
O780 C762 1.261 . S
O781 Sm760 2.450 . S
O781 C762 1.242 . S
O782 Sm760 2.681 . S
O782 Sm761 2.386 . S
O782 C769 1.271 . S
O783 Sm760 2.464 . S
O783 C769 1.251 . S
O784 Sm760 2.396 . S
O784 C770 1.252 . S
O785 Sm761 2.408 . S
O785 C770 1.272 . S
O786 Sm761 2.543 . S
O786 C771 1.261 . S
O787 Sm761 2.450 . S
O787 C771 1.242 . S
O788 Sm760 2.386 . S
O788 Sm761 2.681 . S
O788 C778 1.271 . S
O789 Sm761 2.464 . S
O789 C778 1.251 . S
O790 Sm761 2.396 . S
O790 C779 1.252 . S
O791 Sm760 2.408 . S
O791 C779 1.272 . S
H792 C764 0.930 . S
H793 C765 0.929 . S
H794 C767 0.930 . S
H795 C768 0.929 . S
H796 C773 0.930 . S
H797 C774 0.929 . S
H798 C776 0.930 . S
H799 C777 0.929 . S
Sm800 C802 2.846 . S
Sm800 O820 2.543 . S
Sm800 O821 2.450 . S
Sm800 O822 2.681 . S
Sm800 O823 2.464 . S
Sm800 O824 2.396 . S
Sm800 O828 2.386 . S
Sm800 O831 2.408 . S
Sm801 C811 2.846 1_554 S
Sm801 O822 2.386 . S
Sm801 O825 2.408 . S
Sm801 O826 2.543 1_554 S
Sm801 O827 2.450 1_544 S
Sm801 O828 2.681 . S
Sm801 O829 2.464 . S
Sm801 O830 2.396 . S
C802 Sm800 2.846 . S
C802 C803 1.506 . S
C802 O820 1.261 . S
C802 O821 1.242 . S
C803 C802 1.506 . S
C803 C804 1.358 . S
C803 C808 1.382 . S
C804 C803 1.358 . S
C804 C805 1.385 . S
C804 H832 0.930 . S
C805 C804 1.385 . S
C805 C806 1.395 . S
C805 H833 0.929 . S
C806 C805 1.395 . S
C806 C807 1.335 . S
C807 C806 1.335 . S
C807 C808 1.398 . S
C807 H834 0.930 . S
C808 C803 1.382 . S
C808 C807 1.398 . S
C808 H835 0.929 . S
C809 O822 1.271 . S
C809 O823 1.251 . S
C810 O824 1.252 . S
C810 O825 1.272 . S
C811 Sm801 2.846 1_556 S
C811 C812 1.506 . S
C811 O826 1.261 . S
C811 O827 1.242 1_545 S
C812 C811 1.506 . S
C812 C813 1.358 . S
C812 C817 1.382 1_545 S
C813 C812 1.358 . S
C813 C814 1.385 . S
C813 H836 0.930 . S
C814 C813 1.385 . S
C814 C815 1.395 1_545 S
C814 H837 0.929 . S
C815 C814 1.395 1_565 S
C815 C816 1.335 . S
C816 C815 1.335 . S
C816 C817 1.398 . S
C816 H838 0.930 . S
C817 C812 1.382 1_565 S
C817 C816 1.398 . S
C817 H839 0.929 . S
C818 O828 1.271 . S
C818 O829 1.251 . S
C819 O830 1.252 . S
C819 O831 1.272 . S
O820 Sm800 2.543 . S
O820 C802 1.261 . S
O821 Sm800 2.450 . S
O821 C802 1.242 . S
O822 Sm800 2.681 . S
O822 Sm801 2.386 . S
O822 C809 1.271 . S
O823 Sm800 2.464 . S
O823 C809 1.251 . S
O824 Sm800 2.396 . S
O824 C810 1.252 . S
O825 Sm801 2.408 . S
O825 C810 1.272 . S
O826 Sm801 2.543 1_556 S
O826 C811 1.261 . S
O827 Sm801 2.450 1_566 S
O827 C811 1.242 1_565 S
O828 Sm800 2.386 . S
O828 Sm801 2.681 . S
O828 C818 1.271 . S
O829 Sm801 2.464 . S
O829 C818 1.251 . S
O830 Sm801 2.396 . S
O830 C819 1.252 . S
O831 Sm800 2.408 . S
O831 C819 1.272 . S
H832 C804 0.930 . S
H833 C805 0.929 . S
H834 C807 0.930 . S
H835 C808 0.929 . S
H836 C813 0.930 . S
H837 C814 0.929 . S
H838 C816 0.930 . S
H839 C817 0.929 . S
Sm840 C842 2.846 . S
Sm840 O860 2.543 . S
Sm840 O861 2.450 . S
Sm840 O862 2.681 . S
Sm840 O863 2.464 . S
Sm840 O864 2.396 . S
Sm840 O868 2.386 . S
Sm840 O871 2.408 . S
Sm841 C851 2.846 . S
Sm841 O862 2.386 . S
Sm841 O865 2.408 . S
Sm841 O866 2.543 . S
Sm841 O867 2.450 . S
Sm841 O868 2.681 . S
Sm841 O869 2.464 . S
Sm841 O870 2.396 . S
C842 Sm840 2.846 . S
C842 C843 1.506 . S
C842 O860 1.261 . S
C842 O861 1.242 . S
C843 C842 1.506 . S
C843 C844 1.358 . S
C843 C848 1.382 . S
C844 C843 1.358 . S
C844 C845 1.385 . S
C844 H872 0.930 . S
C845 C844 1.385 . S
C845 C846 1.395 . S
C845 H873 0.929 . S
C846 C845 1.395 . S
C846 C847 1.335 . S
C847 C846 1.335 . S
C847 C848 1.398 . S
C847 H874 0.930 . S
C848 C843 1.382 . S
C848 C847 1.398 . S
C848 H875 0.929 . S
C849 O862 1.271 . S
C849 O863 1.251 . S
C850 O864 1.252 . S
C850 O865 1.272 . S
C851 Sm841 2.846 . S
C851 C852 1.506 . S
C851 O866 1.261 . S
C851 O867 1.242 . S
C852 C851 1.506 . S
C852 C853 1.358 . S
C852 C857 1.382 . S
C853 C852 1.358 . S
C853 C854 1.385 . S
C853 H876 0.930 . S
C854 C853 1.385 . S
C854 C855 1.395 . S
C854 H877 0.929 . S
C855 C854 1.395 . S
C855 C856 1.335 . S
C856 C855 1.335 . S
C856 C857 1.398 . S
C856 H878 0.930 . S
C857 C852 1.382 . S
C857 C856 1.398 . S
C857 H879 0.929 . S
C858 O868 1.271 . S
C858 O869 1.251 . S
C859 O870 1.252 . S
C859 O871 1.272 . S
O860 Sm840 2.543 . S
O860 C842 1.261 . S
O861 Sm840 2.450 . S
O861 C842 1.242 . S
O862 Sm840 2.681 . S
O862 Sm841 2.386 . S
O862 C849 1.271 . S
O863 Sm840 2.464 . S
O863 C849 1.251 . S
O864 Sm840 2.396 . S
O864 C850 1.252 . S
O865 Sm841 2.408 . S
O865 C850 1.272 . S
O866 Sm841 2.543 . S
O866 C851 1.261 . S
O867 Sm841 2.450 . S
O867 C851 1.242 . S
O868 Sm840 2.386 . S
O868 Sm841 2.681 . S
O868 C858 1.271 . S
O869 Sm841 2.464 . S
O869 C858 1.251 . S
O870 Sm841 2.396 . S
O870 C859 1.252 . S
O871 Sm840 2.408 . S
O871 C859 1.272 . S
H872 C844 0.930 . S
H873 C845 0.929 . S
H874 C847 0.930 . S
H875 C848 0.929 . S
H876 C853 0.930 . S
H877 C854 0.929 . S
H878 C856 0.930 . S
H879 C857 0.929 . S
Sm880 C882 2.846 . S
Sm880 O900 2.543 . S
Sm880 O901 2.450 . S
Sm880 O902 2.681 . S
Sm880 O903 2.464 . S
Sm880 O904 2.396 . S
Sm880 O908 2.386 . S
Sm880 O911 2.408 . S
Sm881 C891 2.846 . S
Sm881 O902 2.386 . S
Sm881 O905 2.408 . S
Sm881 O906 2.543 . S
Sm881 O907 2.450 1_565 S
Sm881 O908 2.681 . S
Sm881 O909 2.452 1_565 S
Sm881 O910 2.396 . S
C882 Sm880 2.846 . S
C882 C883 1.506 . S
C882 O900 1.261 . S
C882 O901 1.242 . S
C883 C882 1.506 . S
C883 C884 1.358 . S
C883 C888 1.382 . S
C884 C883 1.358 . S
C884 C885 1.385 . S
C884 H912 0.930 . S
C885 C884 1.385 . S
C885 C886 1.395 . S
C885 H913 0.929 . S
C886 C885 1.395 . S
C886 C887 1.335 . S
C887 C886 1.335 . S
C887 C888 1.398 . S
C887 H914 0.930 . S
C888 C883 1.382 . S
C888 C887 1.398 . S
C888 H915 0.929 . S
C889 O902 1.271 . S
C889 O903 1.251 . S
C890 O904 1.252 . S
C890 O905 1.272 . S
C891 Sm881 2.846 . S
C891 C892 1.506 1_565 S
C891 O906 1.261 . S
C891 O907 1.242 1_565 S
C892 C891 1.506 1_545 S
C892 C893 1.358 1_545 S
C892 C897 1.382 . S
C893 C892 1.358 1_565 S
C893 C894 1.385 . S
C893 H916 0.930 . S
C894 C893 1.385 . S
C894 C895 1.395 1_565 S
C894 H917 0.929 . S
C895 C894 1.395 1_545 S
C895 C896 1.335 . S
C896 C895 1.335 . S
C896 C897 1.398 . S
C896 H918 0.930 . S
C897 C892 1.382 . S
C897 C896 1.398 . S
C897 H919 0.929 . S
C898 O908 1.271 . S
C898 O909 1.232 1_565 S
C899 O910 1.252 . S
C899 O911 1.272 . S
O900 Sm880 2.543 . S
O900 C882 1.261 . S
O901 Sm880 2.450 . S
O901 C882 1.242 . S
O902 Sm880 2.681 . S
O902 Sm881 2.386 . S
O902 C889 1.271 . S
O903 Sm880 2.464 . S
O903 C889 1.251 . S
O904 Sm880 2.396 . S
O904 C890 1.252 . S
O905 Sm881 2.408 . S
O905 C890 1.272 . S
O906 Sm881 2.543 . S
O906 C891 1.261 . S
O907 Sm881 2.450 1_545 S
O907 C891 1.242 1_545 S
O908 Sm880 2.386 . S
O908 Sm881 2.681 . S
O908 C898 1.271 . S
O909 Sm881 2.452 1_545 S
O909 C898 1.232 1_545 S
O910 Sm881 2.396 . S
O910 C899 1.252 . S
O911 Sm880 2.408 . S
O911 C899 1.272 . S
H912 C884 0.930 . S
H913 C885 0.929 . S
H914 C887 0.930 . S
H915 C888 0.929 . S
H916 C893 0.930 . S
H917 C894 0.929 . S
H918 C896 0.930 . S
H919 C897 0.929 . S
Sm920 C922 2.846 1_556 S
Sm920 O940 2.543 1_556 S
Sm920 O941 2.450 1_556 S
Sm920 O942 2.681 . S
Sm920 O943 2.464 . S
Sm920 O944 2.396 . S
Sm920 O948 2.386 . S
Sm920 O951 2.408 . S
Sm921 C931 2.846 . S
Sm921 O942 2.386 . S
Sm921 O945 2.408 . S
Sm921 O946 2.543 . S
Sm921 O947 2.450 . S
Sm921 O948 2.681 . S
Sm921 O949 2.464 . S
Sm921 O950 2.396 . S
C922 Sm920 2.846 1_554 S
C922 C923 1.506 . S
C922 O940 1.261 . S
C922 O941 1.242 . S
C923 C922 1.506 . S
C923 C924 1.358 . S
C923 C928 1.382 . S
C924 C923 1.358 . S
C924 C925 1.385 . S
C924 H952 0.930 . S
C925 C924 1.385 . S
C925 C926 1.395 . S
C925 H953 0.929 . S
C926 C925 1.395 . S
C926 C927 1.335 . S
C927 C926 1.335 . S
C927 C928 1.398 . S
C927 H954 0.930 . S
C928 C923 1.382 . S
C928 C927 1.398 . S
C928 H955 0.929 . S
C929 O942 1.271 . S
C929 O943 1.251 . S
C930 O944 1.252 . S
C930 O945 1.272 . S
C931 Sm921 2.846 . S
C931 C932 1.506 . S
C931 O946 1.261 . S
C931 O947 1.242 . S
C932 C931 1.506 . S
C932 C933 1.358 . S
C932 C937 1.382 . S
C933 C932 1.358 . S
C933 C934 1.385 . S
C933 H956 0.930 . S
C934 C933 1.385 . S
C934 C935 1.395 . S
C934 H957 0.929 . S
C935 C934 1.395 . S
C935 C936 1.335 . S
C936 C935 1.335 . S
C936 C937 1.398 . S
C936 H958 0.930 . S
C937 C932 1.382 . S
C937 C936 1.398 . S
C937 H959 0.929 . S
C938 O948 1.271 . S
C938 O949 1.251 . S
C939 O950 1.252 . S
C939 O951 1.272 . S
O940 Sm920 2.543 1_554 S
O940 C922 1.261 . S
O941 Sm920 2.450 1_554 S
O941 C922 1.242 . S
O942 Sm920 2.681 . S
O942 Sm921 2.386 . S
O942 C929 1.271 . S
O943 Sm920 2.464 . S
O943 C929 1.251 . S
O944 Sm920 2.396 . S
O944 C930 1.252 . S
O945 Sm921 2.408 . S
O945 C930 1.272 . S
O946 Sm921 2.543 . S
O946 C931 1.261 . S
O947 Sm921 2.450 . S
O947 C931 1.242 . S
O948 Sm920 2.386 . S
O948 Sm921 2.681 . S
O948 C938 1.271 . S
O949 Sm921 2.464 . S
O949 C938 1.251 . S
O950 Sm921 2.396 . S
O950 C939 1.252 . S
O951 Sm920 2.408 . S
O951 C939 1.272 . S
H952 C924 0.930 . S
H953 C925 0.929 . S
H954 C927 0.930 . S
H955 C928 0.929 . S
H956 C933 0.930 . S
H957 C934 0.929 . S
H958 C936 0.930 . S
H959 C937 0.929 . S
Sm960 C962 2.846 . S
Sm960 O980 2.543 . S
Sm960 O981 2.450 . S
Sm960 O982 2.681 . S
Sm960 O983 2.464 . S
Sm960 O984 2.396 . S
Sm960 O988 2.386 . S
Sm960 O991 2.408 . S
Sm961 C971 2.846 . S
Sm961 O982 2.386 . S
Sm961 O985 2.408 . S
Sm961 O986 2.543 . S
Sm961 O987 2.450 . S
Sm961 O988 2.681 . S
Sm961 O989 2.464 . S
Sm961 O990 2.396 . S
C962 Sm960 2.846 . S
C962 C963 1.506 . S
C962 O980 1.261 . S
C962 O981 1.242 . S
C963 C962 1.506 . S
C963 C964 1.358 . S
C963 C968 1.382 . S
C964 C963 1.358 . S
C964 C965 1.385 . S
C964 H992 0.930 . S
C965 C964 1.385 . S
C965 C966 1.395 . S
C965 H993 0.929 . S
C966 C965 1.395 . S
C966 C967 1.335 . S
C967 C966 1.335 . S
C967 C968 1.398 . S
C967 H994 0.930 . S
C968 C963 1.382 . S
C968 C967 1.398 . S
C968 H995 0.929 . S
C969 O982 1.271 . S
C969 O983 1.251 . S
C970 O984 1.252 . S
C970 O985 1.272 . S
C971 Sm961 2.846 . S
C971 C972 1.506 . S
C971 O986 1.261 . S
C971 O987 1.242 . S
C972 C971 1.506 . S
C972 C973 1.358 . S
C972 C977 1.382 . S
C973 C972 1.358 . S
C973 C974 1.385 . S
C973 H996 0.930 . S
C974 C973 1.385 . S
C974 C975 1.395 . S
C974 H997 0.929 . S
C975 C974 1.395 . S
C975 C976 1.335 . S
C976 C975 1.335 . S
C976 C977 1.398 . S
C976 H998 0.930 . S
C977 C972 1.382 . S
C977 C976 1.398 . S
C977 H999 0.929 . S
C978 O988 1.271 . S
C978 O989 1.251 . S
C979 O990 1.252 . S
C979 O991 1.272 . S
O980 Sm960 2.543 . S
O980 C962 1.261 . S
O981 Sm960 2.450 . S
O981 C962 1.242 . S
O982 Sm960 2.681 . S
O982 Sm961 2.386 . S
O982 C969 1.271 . S
O983 Sm960 2.464 . S
O983 C969 1.251 . S
O984 Sm960 2.396 . S
O984 C970 1.252 . S
O985 Sm961 2.408 . S
O985 C970 1.272 . S
O986 Sm961 2.543 . S
O986 C971 1.261 . S
O987 Sm961 2.450 . S
O987 C971 1.242 . S
O988 Sm960 2.386 . S
O988 Sm961 2.681 . S
O988 C978 1.271 . S
O989 Sm961 2.464 . S
O989 C978 1.251 . S
O990 Sm961 2.396 . S
O990 C979 1.252 . S
O991 Sm960 2.408 . S
O991 C979 1.272 . S
H992 C964 0.930 . S
H993 C965 0.929 . S
H994 C967 0.930 . S
H995 C968 0.929 . S
H996 C973 0.930 . S
H997 C974 0.929 . S
H998 C976 0.930 . S
H999 C977 0.929 . S
Sm1000 C1002 2.846 . S
Sm1000 O1020 2.543 . S
Sm1000 O1021 2.450 . S
Sm1000 O1022 2.681 . S
Sm1000 O1023 2.464 . S
Sm1000 O1024 2.396 . S
Sm1000 O1028 2.386 . S
Sm1000 O1031 2.408 . S
Sm1001 C1011 2.846 . S
Sm1001 O1022 2.386 . S
Sm1001 O1025 2.408 . S
Sm1001 O1026 2.543 . S
Sm1001 O1027 2.450 . S
Sm1001 O1028 2.681 . S
Sm1001 O1029 2.464 . S
Sm1001 O1030 2.396 . S
C1002 Sm1000 2.846 . S
C1002 C1003 1.506 . S
C1002 O1020 1.261 . S
C1002 O1021 1.242 . S
C1003 C1002 1.506 . S
C1003 C1004 1.358 . S
C1003 C1008 1.382 . S
C1004 C1003 1.358 . S
C1004 C1005 1.385 . S
C1004 H1032 0.930 . S
C1005 C1004 1.385 . S
C1005 C1006 1.395 . S
C1005 H1033 0.929 . S
C1006 C1005 1.395 . S
C1006 C1007 1.335 . S
C1007 C1006 1.335 . S
C1007 C1008 1.398 . S
C1007 H1034 0.930 . S
C1008 C1003 1.382 . S
C1008 C1007 1.398 . S
C1008 H1035 0.929 . S
C1009 O1022 1.271 . S
C1009 O1023 1.251 . S
C1010 O1024 1.252 . S
C1010 O1025 1.272 . S
C1011 Sm1001 2.846 . S
C1011 C1012 1.506 . S
C1011 O1026 1.261 . S
C1011 O1027 1.242 . S
C1012 C1011 1.506 . S
C1012 C1013 1.358 . S
C1012 C1017 1.382 . S
C1013 C1012 1.358 . S
C1013 C1014 1.385 . S
C1013 H1036 0.930 . S
C1014 C1013 1.385 . S
C1014 C1015 1.395 . S
C1014 H1037 0.929 . S
C1015 C1014 1.395 . S
C1015 C1016 1.335 . S
C1016 C1015 1.335 . S
C1016 C1017 1.398 . S
C1016 H1038 0.930 . S
C1017 C1012 1.382 . S
C1017 C1016 1.398 . S
C1017 H1039 0.929 . S
C1018 O1028 1.271 . S
C1018 O1029 1.251 . S
C1019 O1030 1.252 . S
C1019 O1031 1.272 . S
O1020 Sm1000 2.543 . S
O1020 C1002 1.261 . S
O1021 Sm1000 2.450 . S
O1021 C1002 1.242 . S
O1022 Sm1000 2.681 . S
O1022 Sm1001 2.386 . S
O1022 C1009 1.271 . S
O1023 Sm1000 2.464 . S
O1023 C1009 1.251 . S
O1024 Sm1000 2.396 . S
O1024 C1010 1.252 . S
O1025 Sm1001 2.408 . S
O1025 C1010 1.272 . S
O1026 Sm1001 2.543 . S
O1026 C1011 1.261 . S
O1027 Sm1001 2.450 . S
O1027 C1011 1.242 . S
O1028 Sm1000 2.386 . S
O1028 Sm1001 2.681 . S
O1028 C1018 1.271 . S
O1029 Sm1001 2.464 . S
O1029 C1018 1.251 . S
O1030 Sm1001 2.396 . S
O1030 C1019 1.252 . S
O1031 Sm1000 2.408 . S
O1031 C1019 1.272 . S
H1032 C1004 0.930 . S
H1033 C1005 0.929 . S
H1034 C1007 0.930 . S
H1035 C1008 0.929 . S
H1036 C1013 0.930 . S
H1037 C1014 0.929 . S
H1038 C1016 0.930 . S
H1039 C1017 0.929 . S
Sm1040 C1042 2.846 . S
Sm1040 O1060 2.543 . S
Sm1040 O1061 2.450 . S
Sm1040 O1062 2.681 . S
Sm1040 O1063 2.464 . S
Sm1040 O1064 2.396 . S
Sm1040 O1068 2.386 . S
Sm1040 O1071 2.408 . S
Sm1041 C1051 2.846 . S
Sm1041 O1062 2.386 . S
Sm1041 O1065 2.408 . S
Sm1041 O1066 2.543 . S
Sm1041 O1067 2.450 . S
Sm1041 O1068 2.681 . S
Sm1041 O1069 2.464 . S
Sm1041 O1070 2.396 . S
C1042 Sm1040 2.846 . S
C1042 C1043 1.506 . S
C1042 O1060 1.261 . S
C1042 O1061 1.242 . S
C1043 C1042 1.506 . S
C1043 C1044 1.358 . S
C1043 C1048 1.382 . S
C1044 C1043 1.358 . S
C1044 C1045 1.385 . S
C1044 H1072 0.930 . S
C1045 C1044 1.385 . S
C1045 C1046 1.395 . S
C1045 H1073 0.929 . S
C1046 C1045 1.395 . S
C1046 C1047 1.335 . S
C1047 C1046 1.335 . S
C1047 C1048 1.398 . S
C1047 H1074 0.930 . S
C1048 C1043 1.382 . S
C1048 C1047 1.398 . S
C1048 H1075 0.929 . S
C1049 O1062 1.271 . S
C1049 O1063 1.251 . S
C1050 O1064 1.252 . S
C1050 O1065 1.272 . S
C1051 Sm1041 2.846 . S
C1051 C1052 1.506 . S
C1051 O1066 1.261 . S
C1051 O1067 1.242 . S
C1052 C1051 1.506 . S
C1052 C1053 1.358 . S
C1052 C1057 1.382 . S
C1053 C1052 1.358 . S
C1053 C1054 1.385 1_554 S
C1053 H1076 0.930 . S
C1054 C1053 1.385 1_556 S
C1054 C1055 1.395 . S
C1054 H1077 0.929 . S
C1055 C1054 1.395 . S
C1055 C1056 1.335 1_455 S
C1056 C1055 1.335 1_655 S
C1056 C1057 1.398 1_656 S
C1056 H1078 0.930 . S
C1057 C1052 1.382 . S
C1057 C1056 1.398 1_454 S
C1057 H1079 0.929 1_455 S
C1058 O1068 1.271 . S
C1058 O1069 1.251 . S
C1059 O1070 1.252 . S
C1059 O1071 1.272 . S
O1060 Sm1040 2.543 . S
O1060 C1042 1.261 . S
O1061 Sm1040 2.450 . S
O1061 C1042 1.242 . S
O1062 Sm1040 2.681 . S
O1062 Sm1041 2.386 . S
O1062 C1049 1.271 . S
O1063 Sm1040 2.464 . S
O1063 C1049 1.251 . S
O1064 Sm1040 2.396 . S
O1064 C1050 1.252 . S
O1065 Sm1041 2.408 . S
O1065 C1050 1.272 . S
O1066 Sm1041 2.543 . S
O1066 C1051 1.261 . S
O1067 Sm1041 2.450 . S
O1067 C1051 1.242 . S
O1068 Sm1040 2.386 . S
O1068 Sm1041 2.681 . S
O1068 C1058 1.271 . S
O1069 Sm1041 2.464 . S
O1069 C1058 1.251 . S
O1070 Sm1041 2.396 . S
O1070 C1059 1.252 . S
O1071 Sm1040 2.408 . S
O1071 C1059 1.272 . S
H1072 C1044 0.930 . S
H1073 C1045 0.929 . S
H1074 C1047 0.930 . S
H1075 C1048 0.929 . S
H1076 C1053 0.930 . S
H1077 C1054 0.929 . S
H1078 C1056 0.930 . S
H1079 C1057 0.929 1_655 S
Sm1080 C1082 2.846 . S
Sm1080 O1100 2.543 . S
Sm1080 O1101 2.450 . S
Sm1080 O1102 2.681 . S
Sm1080 O1103 2.464 . S
Sm1080 O1104 2.396 . S
Sm1080 O1108 2.386 . S
Sm1080 O1111 2.408 . S
Sm1081 C1091 2.846 1_556 S
Sm1081 O1102 2.386 . S
Sm1081 O1105 2.408 . S
Sm1081 O1106 2.543 1_556 S
Sm1081 O1107 2.450 1_556 S
Sm1081 O1108 2.681 . S
Sm1081 O1109 2.464 . S
Sm1081 O1110 2.396 1_556 S
C1082 Sm1080 2.846 . S
C1082 C1083 1.506 . S
C1082 O1100 1.261 . S
C1082 O1101 1.242 . S
C1083 C1082 1.506 . S
C1083 C1084 1.358 . S
C1083 C1088 1.382 . S
C1084 C1083 1.358 . S
C1084 C1085 1.385 . S
C1084 H1112 0.930 . S
C1085 C1084 1.385 . S
C1085 C1086 1.395 . S
C1085 H1113 0.929 . S
C1086 C1085 1.395 . S
C1086 C1087 1.335 . S
C1087 C1086 1.335 . S
C1087 C1088 1.398 . S
C1087 H1114 0.930 . S
C1088 C1083 1.382 . S
C1088 C1087 1.398 . S
C1088 H1115 0.929 . S
C1089 O1102 1.271 . S
C1089 O1103 1.251 . S
C1090 O1104 1.252 . S
C1090 O1105 1.272 . S
C1091 Sm1081 2.846 1_554 S
C1091 C1092 1.506 . S
C1091 O1106 1.261 . S
C1091 O1107 1.242 . S
C1092 C1091 1.506 . S
C1092 C1093 1.358 . S
C1092 C1097 1.382 . S
C1093 C1092 1.358 . S
C1093 C1094 1.385 . S
C1093 H1116 0.930 . S
C1094 C1093 1.385 . S
C1094 C1095 1.395 . S
C1094 H1117 0.929 . S
C1095 C1094 1.395 . S
C1095 C1096 1.335 . S
C1096 C1095 1.335 . S
C1096 C1097 1.398 . S
C1096 H1118 0.930 . S
C1097 C1092 1.382 . S
C1097 C1096 1.398 . S
C1097 H1119 0.929 . S
C1098 O1108 1.271 . S
C1098 O1109 1.251 . S
C1099 O1110 1.252 . S
C1099 O1111 1.272 1_554 S
O1100 Sm1080 2.543 . S
O1100 C1082 1.261 . S
O1101 Sm1080 2.450 . S
O1101 C1082 1.242 . S
O1102 Sm1080 2.681 . S
O1102 Sm1081 2.386 . S
O1102 C1089 1.271 . S
O1103 Sm1080 2.464 . S
O1103 C1089 1.251 . S
O1104 Sm1080 2.396 . S
O1104 C1090 1.252 . S
O1105 Sm1081 2.408 . S
O1105 C1090 1.272 . S
O1106 Sm1081 2.543 1_554 S
O1106 C1091 1.261 . S
O1107 Sm1081 2.450 1_554 S
O1107 C1091 1.242 . S
O1108 Sm1080 2.386 . S
O1108 Sm1081 2.681 . S
O1108 C1098 1.271 . S
O1109 Sm1081 2.464 . S
O1109 C1098 1.251 . S
O1110 Sm1081 2.396 1_554 S
O1110 C1099 1.252 . S
O1111 Sm1080 2.408 . S
O1111 C1099 1.272 1_556 S
H1112 C1084 0.930 . S
H1113 C1085 0.929 . S
H1114 C1087 0.930 . S
H1115 C1088 0.929 . S
H1116 C1093 0.930 . S
H1117 C1094 0.929 . S
H1118 C1096 0.930 . S
H1119 C1097 0.929 . S
Sm1120 C1122 2.846 . S
Sm1120 O1140 2.543 . S
Sm1120 O1141 2.450 1_565 S
Sm1120 O1142 2.681 . S
Sm1120 O1143 2.464 . S
Sm1120 O1144 2.396 . S
Sm1120 O1148 2.386 . S
Sm1120 O1151 2.408 . S
Sm1121 C1131 2.846 . S
Sm1121 O1142 2.386 . S
Sm1121 O1145 2.408 . S
Sm1121 O1146 2.543 . S
Sm1121 O1147 2.450 . S
Sm1121 O1148 2.681 . S
Sm1121 O1149 2.464 . S
Sm1121 O1150 2.396 . S
C1122 Sm1120 2.846 . S
C1122 C1123 1.506 . S
C1122 O1140 1.261 . S
C1122 O1141 1.242 1_565 S
C1123 C1122 1.506 . S
C1123 C1124 1.358 . S
C1123 C1128 1.382 1_565 S
C1124 C1123 1.358 . S
C1124 C1125 1.385 . S
C1124 H1152 0.930 . S
C1125 C1124 1.385 . S
C1125 C1126 1.395 1_565 S
C1125 H1153 0.929 . S
C1126 C1125 1.395 1_545 S
C1126 C1127 1.335 . S
C1127 C1126 1.335 . S
C1127 C1128 1.398 . S
C1127 H1154 0.930 . S
C1128 C1123 1.382 1_545 S
C1128 C1127 1.398 . S
C1128 H1155 0.929 . S
C1129 O1142 1.271 . S
C1129 O1143 1.251 . S
C1130 O1144 1.252 . S
C1130 O1145 1.272 . S
C1131 Sm1121 2.846 . S
C1131 C1132 1.506 . S
C1131 O1146 1.261 . S
C1131 O1147 1.242 . S
C1132 C1131 1.506 . S
C1132 C1133 1.358 . S
C1132 C1137 1.382 . S
C1133 C1132 1.358 . S
C1133 C1134 1.385 . S
C1133 H1156 0.930 . S
C1134 C1133 1.385 . S
C1134 C1135 1.395 . S
C1134 H1157 0.929 . S
C1135 C1134 1.395 . S
C1135 C1136 1.335 . S
C1136 C1135 1.335 . S
C1136 C1137 1.398 . S
C1136 H1158 0.930 . S
C1137 C1132 1.382 . S
C1137 C1136 1.398 . S
C1137 H1159 0.929 . S
C1138 O1148 1.271 . S
C1138 O1149 1.251 . S
C1139 O1150 1.252 . S
C1139 O1151 1.272 . S
O1140 Sm1120 2.543 . S
O1140 C1122 1.261 . S
O1141 Sm1120 2.450 1_545 S
O1141 C1122 1.242 1_545 S
O1142 Sm1120 2.681 . S
O1142 Sm1121 2.386 . S
O1142 C1129 1.271 . S
O1143 Sm1120 2.464 . S
O1143 C1129 1.251 . S
O1144 Sm1120 2.396 . S
O1144 C1130 1.252 . S
O1145 Sm1121 2.408 . S
O1145 C1130 1.272 . S
O1146 Sm1121 2.543 . S
O1146 C1131 1.261 . S
O1147 Sm1121 2.450 . S
O1147 C1131 1.242 . S
O1148 Sm1120 2.386 . S
O1148 Sm1121 2.681 . S
O1148 C1138 1.271 . S
O1149 Sm1121 2.464 . S
O1149 C1138 1.251 . S
O1150 Sm1121 2.396 . S
O1150 C1139 1.252 . S
O1151 Sm1120 2.408 . S
O1151 C1139 1.272 . S
H1152 C1124 0.930 . S
H1153 C1125 0.929 . S
H1154 C1127 0.930 . S
H1155 C1128 0.929 . S
H1156 C1133 0.930 . S
H1157 C1134 0.929 . S
H1158 C1136 0.930 . S
H1159 C1137 0.929 . S
Sm1160 C1162 2.846 . S
Sm1160 O1180 2.543 . S
Sm1160 O1181 2.450 . S
Sm1160 O1182 2.681 1_554 S
Sm1160 O1183 2.464 . S
Sm1160 O1184 2.396 . S
Sm1160 O1188 2.386 . S
Sm1160 O1191 2.408 1_554 S
Sm1161 C1171 2.846 . S
Sm1161 O1182 2.386 . S
Sm1161 O1185 2.408 1_556 S
Sm1161 O1186 2.543 . S
Sm1161 O1187 2.450 . S
Sm1161 O1188 2.681 1_556 S
Sm1161 O1189 2.464 . S
Sm1161 O1190 2.396 . S
C1162 Sm1160 2.846 . S
C1162 C1163 1.506 . S
C1162 O1180 1.261 . S
C1162 O1181 1.242 . S
C1163 C1162 1.506 . S
C1163 C1164 1.358 . S
C1163 C1168 1.382 . S
C1164 C1163 1.358 . S
C1164 C1165 1.385 . S
C1164 H1192 0.930 . S
C1165 C1164 1.385 . S
C1165 C1166 1.395 . S
C1165 H1193 0.929 . S
C1166 C1165 1.395 . S
C1166 C1167 1.335 . S
C1167 C1166 1.335 . S
C1167 C1168 1.398 . S
C1167 H1194 0.930 . S
C1168 C1163 1.382 . S
C1168 C1167 1.398 . S
C1168 H1195 0.929 . S
C1169 O1182 1.271 . S
C1169 O1183 1.251 1_556 S
C1170 O1184 1.252 . S
C1170 O1185 1.272 . S
C1171 Sm1161 2.846 . S
C1171 C1172 1.506 . S
C1171 O1186 1.261 . S
C1171 O1187 1.242 . S
C1172 C1171 1.506 . S
C1172 C1173 1.358 . S
C1172 C1177 1.382 . S
C1173 C1172 1.358 . S
C1173 C1174 1.385 . S
C1173 H1196 0.930 . S
C1174 C1173 1.385 . S
C1174 C1175 1.395 . S
C1174 H1197 0.929 . S
C1175 C1174 1.395 . S
C1175 C1176 1.335 . S
C1176 C1175 1.335 . S
C1176 C1177 1.398 . S
C1176 H1198 0.930 . S
C1177 C1172 1.382 . S
C1177 C1176 1.398 . S
C1177 H1199 0.929 . S
C1178 O1188 1.272 . S
C1178 O1189 1.249 1_554 S
C1179 O1190 1.252 . S
C1179 O1191 1.272 . S
O1180 Sm1160 2.543 . S
O1180 C1162 1.261 . S
O1181 Sm1160 2.450 . S
O1181 C1162 1.242 . S
O1182 Sm1160 2.681 1_556 S
O1182 Sm1161 2.386 . S
O1182 C1169 1.271 . S
O1183 Sm1160 2.464 . S
O1183 C1169 1.251 1_554 S
O1184 Sm1160 2.396 . S
O1184 C1170 1.252 . S
O1185 Sm1161 2.408 1_554 S
O1185 C1170 1.272 . S
O1186 Sm1161 2.543 . S
O1186 C1171 1.261 . S
O1187 Sm1161 2.450 . S
O1187 C1171 1.242 . S
O1188 Sm1160 2.386 . S
O1188 Sm1161 2.681 1_554 S
O1188 C1178 1.272 . S
O1189 Sm1161 2.464 . S
O1189 C1178 1.249 1_556 S
O1190 Sm1161 2.396 . S
O1190 C1179 1.252 . S
O1191 Sm1160 2.408 1_556 S
O1191 C1179 1.272 . S
H1192 C1164 0.930 . S
H1193 C1165 0.929 . S
H1194 C1167 0.930 . S
H1195 C1168 0.929 . S
H1196 C1173 0.930 . S
H1197 C1174 0.929 . S
H1198 C1176 0.930 . S
H1199 C1177 0.929 . S
Sm1200 C1202 2.846 . S
Sm1200 O1220 2.543 . S
Sm1200 O1221 2.450 1_545 S
Sm1200 O1222 2.681 . S
Sm1200 O1223 2.453 1_545 S
Sm1200 O1224 2.396 . S
Sm1200 O1228 2.386 . S
Sm1200 O1231 2.408 . S
Sm1201 C1211 2.846 . S
Sm1201 O1222 2.386 . S
Sm1201 O1225 2.408 . S
Sm1201 O1226 2.543 . S
Sm1201 O1227 2.450 . S
Sm1201 O1228 2.681 . S
Sm1201 O1229 2.464 . S
Sm1201 O1230 2.396 . S
C1202 Sm1200 2.846 . S
C1202 C1203 1.506 1_545 S
C1202 O1220 1.261 . S
C1202 O1221 1.242 1_545 S
C1203 C1202 1.506 1_565 S
C1203 C1204 1.358 1_565 S
C1203 C1208 1.382 . S
C1204 C1203 1.358 1_545 S
C1204 C1205 1.385 . S
C1204 H1232 0.930 . S
C1205 C1204 1.385 . S
C1205 C1206 1.395 1_545 S
C1205 H1233 0.929 . S
C1206 C1205 1.395 1_565 S
C1206 C1207 1.335 . S
C1207 C1206 1.335 . S
C1207 C1208 1.398 . S
C1207 H1234 0.930 . S
C1208 C1203 1.382 . S
C1208 C1207 1.398 . S
C1208 H1235 0.929 . S
C1209 O1222 1.271 . S
C1209 O1223 1.232 1_545 S
C1210 O1224 1.252 . S
C1210 O1225 1.272 . S
C1211 Sm1201 2.846 . S
C1211 C1212 1.506 . S
C1211 O1226 1.261 . S
C1211 O1227 1.242 . S
C1212 C1211 1.506 . S
C1212 C1213 1.358 . S
C1212 C1217 1.382 . S
C1213 C1212 1.358 . S
C1213 C1214 1.385 . S
C1213 H1236 0.930 . S
C1214 C1213 1.385 . S
C1214 C1215 1.395 . S
C1214 H1237 0.929 . S
C1215 C1214 1.395 . S
C1215 C1216 1.335 . S
C1216 C1215 1.335 . S
C1216 C1217 1.398 . S
C1216 H1238 0.930 . S
C1217 C1212 1.382 . S
C1217 C1216 1.398 . S
C1217 H1239 0.929 . S
C1218 O1228 1.271 . S
C1218 O1229 1.251 . S
C1219 O1230 1.252 . S
C1219 O1231 1.272 . S
O1220 Sm1200 2.543 . S
O1220 C1202 1.261 . S
O1221 Sm1200 2.450 1_565 S
O1221 C1202 1.242 1_565 S
O1222 Sm1200 2.681 . S
O1222 Sm1201 2.386 . S
O1222 C1209 1.271 . S
O1223 Sm1200 2.453 1_565 S
O1223 C1209 1.232 1_565 S
O1224 Sm1200 2.396 . S
O1224 C1210 1.252 . S
O1225 Sm1201 2.408 . S
O1225 C1210 1.272 . S
O1226 Sm1201 2.543 . S
O1226 C1211 1.261 . S
O1227 Sm1201 2.450 . S
O1227 C1211 1.242 . S
O1228 Sm1200 2.386 . S
O1228 Sm1201 2.681 . S
O1228 C1218 1.271 . S
O1229 Sm1201 2.464 . S
O1229 C1218 1.251 . S
O1230 Sm1201 2.396 . S
O1230 C1219 1.252 . S
O1231 Sm1200 2.408 . S
O1231 C1219 1.272 . S
H1232 C1204 0.930 . S
H1233 C1205 0.929 . S
H1234 C1207 0.930 . S
H1235 C1208 0.929 . S
H1236 C1213 0.930 . S
H1237 C1214 0.929 . S
H1238 C1216 0.930 . S
H1239 C1217 0.929 . S
Sm1240 C1242 2.846 . S
Sm1240 O1260 2.543 . S
Sm1240 O1261 2.450 . S
Sm1240 O1262 2.681 . S
Sm1240 O1263 2.464 . S
Sm1240 O1264 2.396 . S
Sm1240 O1268 2.386 . S
Sm1240 O1271 2.408 . S
Sm1241 C1251 2.846 . S
Sm1241 O1262 2.386 . S
Sm1241 O1265 2.408 . S
Sm1241 O1266 2.543 . S
Sm1241 O1267 2.450 . S
Sm1241 O1268 2.681 . S
Sm1241 O1269 2.464 . S
Sm1241 O1270 2.396 . S
C1242 Sm1240 2.846 . S
C1242 C1243 1.506 . S
C1242 O1260 1.261 . S
C1242 O1261 1.242 . S
C1243 C1242 1.506 . S
C1243 C1244 1.358 . S
C1243 C1248 1.382 . S
C1244 C1243 1.358 . S
C1244 C1245 1.385 . S
C1244 H1272 0.930 . S
C1245 C1244 1.385 . S
C1245 C1246 1.395 . S
C1245 H1273 0.929 . S
C1246 C1245 1.395 . S
C1246 C1247 1.335 . S
C1247 C1246 1.335 . S
C1247 C1248 1.398 . S
C1247 H1274 0.930 . S
C1248 C1243 1.382 . S
C1248 C1247 1.398 . S
C1248 H1275 0.929 . S
C1249 O1262 1.271 . S
C1249 O1263 1.251 . S
C1250 O1264 1.252 . S
C1250 O1265 1.272 . S
C1251 Sm1241 2.846 . S
C1251 C1252 1.506 . S
C1251 O1266 1.261 . S
C1251 O1267 1.242 . S
C1252 C1251 1.506 . S
C1252 C1253 1.358 . S
C1252 C1257 1.382 . S
C1253 C1252 1.358 . S
C1253 C1254 1.385 . S
C1253 H1276 0.930 . S
C1254 C1253 1.385 . S
C1254 C1255 1.395 . S
C1254 H1277 0.929 . S
C1255 C1254 1.395 . S
C1255 C1256 1.335 . S
C1256 C1255 1.335 . S
C1256 C1257 1.398 . S
C1256 H1278 0.930 . S
C1257 C1252 1.382 . S
C1257 C1256 1.398 . S
C1257 H1279 0.929 . S
C1258 O1268 1.271 . S
C1258 O1269 1.251 . S
C1259 O1270 1.252 . S
C1259 O1271 1.272 . S
O1260 Sm1240 2.543 . S
O1260 C1242 1.261 . S
O1261 Sm1240 2.450 . S
O1261 C1242 1.242 . S
O1262 Sm1240 2.681 . S
O1262 Sm1241 2.386 . S
O1262 C1249 1.271 . S
O1263 Sm1240 2.464 . S
O1263 C1249 1.251 . S
O1264 Sm1240 2.396 . S
O1264 C1250 1.252 . S
O1265 Sm1241 2.408 . S
O1265 C1250 1.272 . S
O1266 Sm1241 2.543 . S
O1266 C1251 1.261 . S
O1267 Sm1241 2.450 . S
O1267 C1251 1.242 . S
O1268 Sm1240 2.386 . S
O1268 Sm1241 2.681 . S
O1268 C1258 1.271 . S
O1269 Sm1241 2.464 . S
O1269 C1258 1.251 . S
O1270 Sm1241 2.396 . S
O1270 C1259 1.252 . S
O1271 Sm1240 2.408 . S
O1271 C1259 1.272 . S
H1272 C1244 0.930 . S
H1273 C1245 0.929 . S
H1274 C1247 0.930 . S
H1275 C1248 0.929 . S
H1276 C1253 0.930 . S
H1277 C1254 0.929 . S
H1278 C1256 0.930 . S
H1279 C1257 0.929 . S
H1280 C1288 0.950 . S
H1281 C1293 0.950 . S
H1282 C1290 0.950 . S
H1283 C1292 0.950 . S
H1284 C1294 0.950 . S
H1285 C1296 0.950 . S
H1286 C1298 0.950 . S
H1287 C1299 0.950 . S
C1288 H1280 0.950 . S
C1288 C1289 1.386 . S
C1288 C1290 1.391 . S
C1289 C1288 1.386 . S
C1289 C1293 1.393 . S
C1290 H1282 0.950 . S
C1290 C1288 1.391 . S
C1290 C1291 1.400 . S
C1291 C1290 1.400 . S
C1291 C1292 1.398 . S
C1291 C1297 1.491 . S
C1292 H1283 0.950 . S
C1292 C1291 1.398 . S
C1292 C1293 1.391 . S
C1293 H1281 0.950 . S
C1293 C1289 1.393 . S
C1293 C1292 1.391 . S
C1294 H1284 0.950 . S
C1294 C1295 1.386 . S
C1294 C1296 1.391 . S
C1295 C1294 1.386 . S
C1295 C1299 1.393 . S
C1296 H1285 0.950 . S
C1296 C1294 1.391 . S
C1296 C1297 1.400 . S
C1297 C1291 1.491 . S
C1297 C1296 1.400 . S
C1297 C1298 1.398 . S
C1298 H1286 0.950 . S
C1298 C1297 1.398 . S
C1298 C1299 1.391 . S
C1299 H1287 0.950 . S
C1299 C1295 1.393 . S
C1299 C1298 1.391 . S
H1300 C1308 0.950 . S
H1301 C1313 0.950 . S
H1302 C1310 0.950 . S
H1303 C1312 0.950 . S
H1304 C1314 0.950 . S
H1305 C1316 0.950 . S
H1306 C1318 0.950 . S
H1307 C1319 0.950 . S
C1308 H1300 0.950 . S
C1308 C1309 1.386 . S
C1308 C1310 1.391 . S
C1309 C1308 1.386 . S
C1309 C1313 1.393 . S
C1310 H1302 0.950 . S
C1310 C1308 1.391 . S
C1310 C1311 1.400 . S
C1311 C1310 1.400 . S
C1311 C1312 1.398 . S
C1311 C1317 1.491 . S
C1312 H1303 0.950 . S
C1312 C1311 1.398 . S
C1312 C1313 1.391 . S
C1313 H1301 0.950 . S
C1313 C1309 1.393 . S
C1313 C1312 1.391 . S
C1314 H1304 0.950 . S
C1314 C1315 1.386 . S
C1314 C1316 1.391 . S
C1315 C1314 1.386 . S
C1315 C1319 1.393 . S
C1316 H1305 0.950 . S
C1316 C1314 1.391 . S
C1316 C1317 1.400 . S
C1317 C1311 1.491 . S
C1317 C1316 1.400 . S
C1317 C1318 1.398 . S
C1318 H1306 0.950 . S
C1318 C1317 1.398 . S
C1318 C1319 1.391 . S
C1319 H1307 0.950 . S
C1319 C1315 1.393 . S
C1319 C1318 1.391 . S
H1320 C1328 0.950 . S
H1321 C1333 0.950 . S
H1322 C1330 0.950 . S
H1323 C1332 0.950 . S
H1324 C1334 0.950 . S
H1325 C1336 0.950 . S
H1326 C1338 0.950 . S
H1327 C1339 0.950 . S
C1328 H1320 0.950 . S
C1328 C1329 1.386 . S
C1328 C1330 1.391 . S
C1329 C1328 1.386 . S
C1329 C1333 1.393 . S
C1330 H1322 0.950 . S
C1330 C1328 1.391 . S
C1330 C1331 1.400 . S
C1331 C1330 1.400 . S
C1331 C1332 1.398 . S
C1331 C1337 1.491 . S
C1332 H1323 0.950 . S
C1332 C1331 1.398 . S
C1332 C1333 1.391 . S
C1333 H1321 0.950 . S
C1333 C1329 1.393 . S
C1333 C1332 1.391 . S
C1334 H1324 0.950 . S
C1334 C1335 1.386 . S
C1334 C1336 1.391 . S
C1335 C1334 1.386 . S
C1335 C1339 1.393 . S
C1336 H1325 0.950 . S
C1336 C1334 1.391 . S
C1336 C1337 1.400 . S
C1337 C1331 1.491 . S
C1337 C1336 1.400 . S
C1337 C1338 1.398 . S
C1338 H1326 0.950 . S
C1338 C1337 1.398 . S
C1338 C1339 1.391 . S
C1339 H1327 0.950 . S
C1339 C1335 1.393 . S
C1339 C1338 1.391 . S
H1340 C1348 0.950 . S
H1341 C1353 0.950 . S
H1342 C1350 0.950 . S
H1343 C1352 0.950 . S
H1344 C1354 0.950 . S
H1345 C1356 0.950 . S
H1346 C1358 0.950 . S
H1347 C1359 0.950 . S
C1348 H1340 0.950 . S
C1348 C1349 1.386 . S
C1348 C1350 1.391 . S
C1349 C1348 1.386 . S
C1349 C1353 1.393 . S
C1350 H1342 0.950 . S
C1350 C1348 1.391 . S
C1350 C1351 1.400 . S
C1351 C1350 1.400 . S
C1351 C1352 1.398 . S
C1351 C1357 1.491 . S
C1352 H1343 0.950 . S
C1352 C1351 1.398 . S
C1352 C1353 1.391 . S
C1353 H1341 0.950 . S
C1353 C1349 1.393 . S
C1353 C1352 1.391 . S
C1354 H1344 0.950 . S
C1354 C1355 1.386 . S
C1354 C1356 1.391 . S
C1355 C1354 1.386 . S
C1355 C1359 1.393 . S
C1356 H1345 0.950 . S
C1356 C1354 1.391 . S
C1356 C1357 1.400 . S
C1357 C1351 1.491 . S
C1357 C1356 1.400 . S
C1357 C1358 1.398 . S
C1358 H1346 0.950 . S
C1358 C1357 1.398 . S
C1358 C1359 1.391 . S
C1359 H1347 0.950 . S
C1359 C1355 1.393 . S
C1359 C1358 1.391 . S
H1360 C1368 0.950 . S
H1361 C1373 0.950 . S
H1362 C1370 0.950 . S
H1363 C1372 0.950 . S
H1364 C1374 0.950 . S
H1365 C1376 0.950 . S
H1366 C1378 0.950 . S
H1367 C1379 0.950 . S
C1368 H1360 0.950 . S
C1368 C1369 1.386 . S
C1368 C1370 1.391 . S
C1369 C1368 1.386 . S
C1369 C1373 1.393 . S
C1370 H1362 0.950 . S
C1370 C1368 1.391 . S
C1370 C1371 1.400 . S
C1371 C1370 1.400 . S
C1371 C1372 1.398 . S
C1371 C1377 1.491 . S
C1372 H1363 0.950 . S
C1372 C1371 1.398 . S
C1372 C1373 1.391 . S
C1373 H1361 0.950 . S
C1373 C1369 1.393 . S
C1373 C1372 1.391 . S
C1374 H1364 0.950 . S
C1374 C1375 1.386 . S
C1374 C1376 1.391 1_556 S
C1375 C1374 1.386 . S
C1375 C1379 1.393 . S
C1376 H1365 0.950 . S
C1376 C1374 1.391 1_554 S
C1376 C1377 1.400 . S
C1377 C1371 1.491 . S
C1377 C1376 1.400 . S
C1377 C1378 1.398 . S
C1378 H1366 0.950 . S
C1378 C1377 1.398 . S
C1378 C1379 1.391 1_554 S
C1379 H1367 0.950 . S
C1379 C1375 1.393 . S
C1379 C1378 1.391 1_556 S
H1380 C1388 0.950 . S
H1381 C1393 0.950 . S
H1382 C1390 0.950 . S
H1383 C1392 0.950 . S
H1384 C1394 0.950 . S
H1385 C1396 0.950 . S
H1386 C1398 0.950 . S
H1387 C1399 0.950 . S
C1388 H1380 0.950 . S
C1388 C1389 1.386 . S
C1388 C1390 1.391 . S
C1389 C1388 1.386 . S
C1389 C1393 1.393 . S
C1390 H1382 0.950 . S
C1390 C1388 1.391 . S
C1390 C1391 1.400 . S
C1391 C1390 1.400 . S
C1391 C1392 1.398 . S
C1391 C1397 1.491 . S
C1392 H1383 0.950 . S
C1392 C1391 1.398 . S
C1392 C1393 1.391 . S
C1393 H1381 0.950 . S
C1393 C1389 1.393 . S
C1393 C1392 1.391 . S
C1394 H1384 0.950 . S
C1394 C1395 1.386 . S
C1394 C1396 1.391 . S
C1395 C1394 1.386 . S
C1395 C1399 1.393 . S
C1396 H1385 0.950 . S
C1396 C1394 1.391 . S
C1396 C1397 1.400 . S
C1397 C1391 1.491 . S
C1397 C1396 1.400 . S
C1397 C1398 1.398 . S
C1398 H1386 0.950 . S
C1398 C1397 1.398 . S
C1398 C1399 1.391 . S
C1399 H1387 0.950 . S
C1399 C1395 1.393 . S
C1399 C1398 1.391 . S
H1400 C1408 0.950 . S
H1401 C1413 0.950 . S
H1402 C1410 0.950 . S
H1403 C1412 0.950 . S
H1404 C1414 0.950 . S
H1405 C1416 0.950 . S
H1406 C1418 0.950 . S
H1407 C1419 0.950 . S
C1408 H1400 0.950 . S
C1408 C1409 1.386 . S
C1408 C1410 1.391 . S
C1409 C1408 1.386 . S
C1409 C1413 1.393 . S
C1410 H1402 0.950 . S
C1410 C1408 1.391 . S
C1410 C1411 1.400 . S
C1411 C1410 1.400 . S
C1411 C1412 1.398 . S
C1411 C1417 1.491 . S
C1412 H1403 0.950 . S
C1412 C1411 1.398 . S
C1412 C1413 1.391 . S
C1413 H1401 0.950 . S
C1413 C1409 1.393 . S
C1413 C1412 1.391 . S
C1414 H1404 0.950 . S
C1414 C1415 1.386 . S
C1414 C1416 1.391 . S
C1415 C1414 1.386 . S
C1415 C1419 1.393 . S
C1416 H1405 0.950 . S
C1416 C1414 1.391 . S
C1416 C1417 1.400 . S
C1417 C1411 1.491 . S
C1417 C1416 1.400 . S
C1417 C1418 1.398 . S
C1418 H1406 0.950 . S
C1418 C1417 1.398 . S
C1418 C1419 1.391 . S
C1419 H1407 0.950 . S
C1419 C1415 1.393 . S
C1419 C1418 1.391 . S
H1420 C1428 0.950 . S
H1421 C1433 0.950 . S
H1422 C1430 0.950 . S
H1423 C1432 0.950 . S
H1424 C1434 0.950 . S
H1425 C1436 0.950 . S
H1426 C1438 0.950 . S
H1427 C1439 0.950 . S
C1428 H1420 0.950 . S
C1428 C1429 1.386 . S
C1428 C1430 1.391 . S
C1429 C1428 1.386 . S
C1429 C1433 1.393 . S
C1430 H1422 0.950 . S
C1430 C1428 1.391 . S
C1430 C1431 1.400 . S
C1431 C1430 1.400 . S
C1431 C1432 1.398 . S
C1431 C1437 1.491 . S
C1432 H1423 0.950 . S
C1432 C1431 1.398 . S
C1432 C1433 1.391 . S
C1433 H1421 0.950 . S
C1433 C1429 1.393 . S
C1433 C1432 1.391 . S
C1434 H1424 0.950 . S
C1434 C1435 1.386 . S
C1434 C1436 1.391 . S
C1435 C1434 1.386 . S
C1435 C1439 1.393 . S
C1436 H1425 0.950 . S
C1436 C1434 1.391 . S
C1436 C1437 1.400 . S
C1437 C1431 1.491 . S
C1437 C1436 1.400 . S
C1437 C1438 1.398 . S
C1438 H1426 0.950 . S
C1438 C1437 1.398 . S
C1438 C1439 1.391 . S
C1439 H1427 0.950 . S
C1439 C1435 1.393 . S
C1439 C1438 1.391 . S
H1440 C1448 0.950 . S
H1441 C1453 0.942 1_545 S
H1442 C1450 0.950 . S
H1443 C1452 0.950 . S
H1444 C1454 0.950 . S
H1445 C1456 0.950 . S
H1446 C1458 0.950 . S
H1447 C1459 0.950 . S
C1448 H1440 0.950 . S
C1448 C1449 1.386 . S
C1448 C1450 1.391 . S
C1449 C1448 1.386 . S
C1449 C1453 1.398 . S
C1450 H1442 0.950 . S
C1450 C1448 1.391 . S
C1450 C1451 1.400 . S
C1451 C1450 1.400 . S
C1451 C1452 1.398 . S
C1451 C1457 1.491 . S
C1452 H1443 0.950 . S
C1452 C1451 1.398 . S
C1452 C1453 1.394 . S
C1453 H1441 0.942 1_565 S
C1453 C1449 1.398 . S
C1453 C1452 1.394 . S
C1454 H1444 0.950 . S
C1454 C1455 1.386 . S
C1454 C1456 1.391 . S
C1455 C1454 1.386 . S
C1455 C1459 1.393 . S
C1456 H1445 0.950 . S
C1456 C1454 1.391 . S
C1456 C1457 1.400 . S
C1457 C1451 1.491 . S
C1457 C1456 1.400 . S
C1457 C1458 1.398 . S
C1458 H1446 0.950 . S
C1458 C1457 1.398 . S
C1458 C1459 1.391 . S
C1459 H1447 0.950 . S
C1459 C1455 1.393 . S
C1459 C1458 1.391 . S
H1460 C1468 0.950 . S
H1461 C1473 0.950 . S
H1462 C1470 0.950 . S
H1463 C1472 0.950 . S
H1464 C1474 0.950 . S
H1465 C1476 0.950 . S
H1466 C1478 0.950 . S
H1467 C1479 0.950 . S
C1468 H1460 0.950 . S
C1468 C1469 1.386 . S
C1468 C1470 1.391 . S
C1469 C1468 1.386 . S
C1469 C1473 1.393 . S
C1470 H1462 0.950 . S
C1470 C1468 1.391 . S
C1470 C1471 1.400 1_556 S
C1471 C1470 1.400 1_554 S
C1471 C1472 1.398 . S
C1471 C1477 1.491 . S
C1472 H1463 0.950 . S
C1472 C1471 1.398 . S
C1472 C1473 1.391 1_554 S
C1473 H1461 0.950 . S
C1473 C1469 1.393 . S
C1473 C1472 1.391 1_556 S
C1474 H1464 0.950 . S
C1474 C1475 1.386 . S
C1474 C1476 1.391 . S
C1475 C1474 1.386 . S
C1475 C1479 1.393 . S
C1476 H1465 0.950 . S
C1476 C1474 1.391 . S
C1476 C1477 1.400 . S
C1477 C1471 1.491 . S
C1477 C1476 1.400 . S
C1477 C1478 1.398 . S
C1478 H1466 0.950 . S
C1478 C1477 1.398 . S
C1478 C1479 1.391 . S
C1479 H1467 0.950 . S
C1479 C1475 1.393 . S
C1479 C1478 1.391 . S
H1480 C1488 0.950 . S
H1481 C1493 0.950 . S
H1482 C1490 0.950 . S
H1483 C1492 0.950 . S
H1484 C1494 0.950 . S
H1485 C1496 0.950 . S
H1486 C1498 0.950 . S
H1487 C1499 0.950 . S
C1488 H1480 0.950 . S
C1488 C1489 1.386 . S
C1488 C1490 1.391 . S
C1489 C1488 1.386 . S
C1489 C1493 1.393 . S
C1490 H1482 0.950 . S
C1490 C1488 1.391 . S
C1490 C1491 1.400 . S
C1491 C1490 1.400 . S
C1491 C1492 1.398 . S
C1491 C1497 1.491 . S
C1492 H1483 0.950 . S
C1492 C1491 1.398 . S
C1492 C1493 1.391 . S
C1493 H1481 0.950 . S
C1493 C1489 1.393 . S
C1493 C1492 1.391 . S
C1494 H1484 0.950 . S
C1494 C1495 1.386 . S
C1494 C1496 1.391 . S
C1495 C1494 1.386 . S
C1495 C1499 1.393 . S
C1496 H1485 0.950 . S
C1496 C1494 1.391 . S
C1496 C1497 1.400 . S
C1497 C1491 1.491 . S
C1497 C1496 1.400 . S
C1497 C1498 1.398 . S
C1498 H1486 0.950 . S
C1498 C1497 1.398 . S
C1498 C1499 1.391 . S
C1499 H1487 0.950 . S
C1499 C1495 1.393 . S
C1499 C1498 1.391 . S
H1500 C1508 0.950 . S
H1501 C1513 0.950 . S
H1502 C1510 0.950 . S
H1503 C1512 0.950 . S
H1504 C1514 0.950 . S
H1505 C1516 0.950 . S
H1506 C1518 0.950 . S
H1507 C1519 0.950 . S
C1508 H1500 0.950 . S
C1508 C1509 1.386 . S
C1508 C1510 1.391 . S
C1509 C1508 1.386 . S
C1509 C1513 1.393 . S
C1510 H1502 0.950 . S
C1510 C1508 1.391 . S
C1510 C1511 1.400 . S
C1511 C1510 1.400 . S
C1511 C1512 1.398 . S
C1511 C1517 1.491 . S
C1512 H1503 0.950 . S
C1512 C1511 1.398 . S
C1512 C1513 1.391 . S
C1513 H1501 0.950 . S
C1513 C1509 1.393 . S
C1513 C1512 1.391 . S
C1514 H1504 0.950 . S
C1514 C1515 1.386 . S
C1514 C1516 1.391 . S
C1515 C1514 1.386 . S
C1515 C1519 1.393 . S
C1516 H1505 0.950 . S
C1516 C1514 1.391 . S
C1516 C1517 1.400 . S
C1517 C1511 1.491 . S
C1517 C1516 1.400 . S
C1517 C1518 1.398 . S
C1518 H1506 0.950 . S
C1518 C1517 1.398 . S
C1518 C1519 1.391 . S
C1519 H1507 0.950 . S
C1519 C1515 1.393 . S
C1519 C1518 1.391 . S
H1520 C1528 0.950 . S
H1521 C1533 0.950 . S
H1522 C1530 0.950 . S
H1523 C1532 0.950 . S
H1524 C1534 0.971 . S
H1525 C1536 0.950 . S
H1526 C1538 0.950 . S
H1527 C1539 0.950 . S
C1528 H1520 0.950 . S
C1528 C1529 1.386 . S
C1528 C1530 1.391 . S
C1529 C1528 1.386 . S
C1529 C1533 1.393 . S
C1530 H1522 0.950 . S
C1530 C1528 1.391 . S
C1530 C1531 1.400 . S
C1531 C1530 1.400 . S
C1531 C1532 1.398 . S
C1531 C1537 1.491 . S
C1532 H1523 0.950 . S
C1532 C1531 1.398 . S
C1532 C1533 1.391 . S
C1533 H1521 0.950 . S
C1533 C1529 1.393 . S
C1533 C1532 1.391 . S
C1534 H1524 0.971 . S
C1534 C1535 1.386 . S
C1534 C1536 1.391 . S
C1535 C1534 1.386 . S
C1535 C1539 1.393 . S
C1536 H1525 0.950 . S
C1536 C1534 1.391 . S
C1536 C1537 1.400 . S
C1537 C1531 1.491 . S
C1537 C1536 1.400 . S
C1537 C1538 1.398 . S
C1538 H1526 0.950 . S
C1538 C1537 1.398 . S
C1538 C1539 1.391 . S
C1539 H1527 0.950 . S
C1539 C1535 1.393 . S
C1539 C1538 1.391 . S
H1540 C1548 0.950 . S
H1541 C1553 0.950 . S
H1542 C1550 0.950 . S
H1543 C1552 0.950 . S
H1544 C1554 0.950 . S
H1545 C1556 0.950 . S
H1546 C1558 0.950 . S
H1547 C1559 0.950 . S
C1548 H1540 0.950 . S
C1548 C1549 1.386 . S
C1548 C1550 1.391 . S
C1549 C1548 1.386 . S
C1549 C1553 1.393 . S
C1550 H1542 0.950 . S
C1550 C1548 1.391 . S
C1550 C1551 1.400 . S
C1551 C1550 1.400 . S
C1551 C1552 1.398 . S
C1551 C1557 1.491 . S
C1552 H1543 0.950 . S
C1552 C1551 1.398 . S
C1552 C1553 1.391 . S
C1553 H1541 0.950 . S
C1553 C1549 1.393 . S
C1553 C1552 1.391 . S
C1554 H1544 0.950 . S
C1554 C1555 1.386 . S
C1554 C1556 1.391 . S
C1555 C1554 1.386 . S
C1555 C1559 1.393 . S
C1556 H1545 0.950 . S
C1556 C1554 1.391 . S
C1556 C1557 1.400 . S
C1557 C1551 1.491 . S
C1557 C1556 1.400 . S
C1557 C1558 1.398 . S
C1558 H1546 0.950 . S
C1558 C1557 1.398 . S
C1558 C1559 1.391 . S
C1559 H1547 0.950 . S
C1559 C1555 1.393 . S
C1559 C1558 1.391 . S
H1560 C1568 0.950 . S
H1561 C1573 0.950 . S
H1562 C1570 0.950 . S
H1563 C1572 0.950 . S
H1564 C1574 0.950 . S
H1565 C1576 0.950 1_554 S
H1566 C1578 0.950 1_554 S
H1567 C1579 0.950 . S
C1568 H1560 0.950 . S
C1568 C1569 1.386 . S
C1568 C1570 1.391 . S
C1569 C1568 1.386 . S
C1569 C1573 1.393 . S
C1570 H1562 0.950 . S
C1570 C1568 1.391 . S
C1570 C1571 1.400 . S
C1571 C1570 1.400 . S
C1571 C1572 1.398 . S
C1571 C1577 1.491 . S
C1572 H1563 0.950 . S
C1572 C1571 1.398 . S
C1572 C1573 1.391 . S
C1573 H1561 0.950 . S
C1573 C1569 1.393 . S
C1573 C1572 1.391 . S
C1574 H1564 0.950 . S
C1574 C1575 1.386 . S
C1574 C1576 1.391 . S
C1575 C1574 1.386 . S
C1575 C1579 1.393 . S
C1576 H1565 0.950 1_556 S
C1576 C1574 1.391 . S
C1576 C1577 1.400 1_556 S
C1577 C1571 1.491 . S
C1577 C1576 1.400 1_554 S
C1577 C1578 1.398 1_554 S
C1578 H1566 0.950 1_556 S
C1578 C1577 1.398 1_556 S
C1578 C1579 1.391 . S
C1579 H1567 0.950 . S
C1579 C1575 1.393 . S
C1579 C1578 1.391 . S
H1580 C1588 0.950 . S
H1581 C1593 0.950 . S
H1582 C1590 0.950 . S
H1583 C1592 0.950 . S
H1584 C1594 0.950 . S
H1585 C1596 0.950 . S
H1586 C1598 0.950 . S
H1587 C1599 0.950 . S
C1588 H1580 0.950 . S
C1588 C1589 1.386 . S
C1588 C1590 1.391 . S
C1589 C1588 1.386 . S
C1589 C1593 1.393 . S
C1590 H1582 0.950 . S
C1590 C1588 1.391 . S
C1590 C1591 1.400 . S
C1591 C1590 1.400 . S
C1591 C1592 1.398 . S
C1591 C1597 1.491 . S
C1592 H1583 0.950 . S
C1592 C1591 1.398 . S
C1592 C1593 1.391 . S
C1593 H1581 0.950 . S
C1593 C1589 1.393 . S
C1593 C1592 1.391 . S
C1594 H1584 0.950 . S
C1594 C1595 1.386 . S
C1594 C1596 1.391 . S
C1595 C1594 1.386 . S
C1595 C1599 1.393 . S
C1596 H1585 0.950 . S
C1596 C1594 1.391 . S
C1596 C1597 1.400 . S
C1597 C1591 1.491 . S
C1597 C1596 1.400 . S
C1597 C1598 1.398 . S
C1598 H1586 0.950 . S
C1598 C1597 1.398 . S
C1598 C1599 1.391 . S
C1599 H1587 0.950 . S
C1599 C1595 1.393 . S
C1599 C1598 1.391 . S
H1600 C1608 0.950 . S
H1601 C1613 0.950 . S
H1602 C1610 0.950 . S
H1603 C1612 0.950 . S
H1604 C1614 0.950 . S
H1605 C1616 0.950 . S
H1606 C1618 0.950 . S
H1607 C1619 0.950 . S
C1608 H1600 0.950 . S
C1608 C1609 1.386 . S
C1608 C1610 1.391 . S
C1609 C1608 1.386 . S
C1609 C1613 1.393 . S
C1610 H1602 0.950 . S
C1610 C1608 1.391 . S
C1610 C1611 1.400 . S
C1611 C1610 1.400 . S
C1611 C1612 1.398 . S
C1611 C1617 1.491 . S
C1612 H1603 0.950 . S
C1612 C1611 1.398 . S
C1612 C1613 1.391 . S
C1613 H1601 0.950 . S
C1613 C1609 1.393 . S
C1613 C1612 1.391 . S
C1614 H1604 0.950 . S
C1614 C1615 1.386 . S
C1614 C1616 1.391 . S
C1615 C1614 1.386 . S
C1615 C1619 1.393 . S
C1616 H1605 0.950 . S
C1616 C1614 1.391 . S
C1616 C1617 1.400 . S
C1617 C1611 1.491 . S
C1617 C1616 1.400 . S
C1617 C1618 1.398 . S
C1618 H1606 0.950 . S
C1618 C1617 1.398 . S
C1618 C1619 1.391 . S
C1619 H1607 0.950 . S
C1619 C1615 1.393 . S
C1619 C1618 1.391 . S
H1620 C1628 0.950 . S
H1621 C1633 0.950 . S
H1622 C1630 0.950 . S
H1623 C1632 0.950 . S
H1624 C1634 0.950 . S
H1625 C1636 0.950 . S
H1626 C1638 0.950 . S
H1627 C1639 0.950 . S
C1628 H1620 0.950 . S
C1628 C1629 1.386 . S
C1628 C1630 1.391 . S
C1629 C1628 1.386 . S
C1629 C1633 1.393 . S
C1630 H1622 0.950 . S
C1630 C1628 1.391 . S
C1630 C1631 1.400 . S
C1631 C1630 1.400 . S
C1631 C1632 1.398 . S
C1631 C1637 1.491 . S
C1632 H1623 0.950 . S
C1632 C1631 1.398 . S
C1632 C1633 1.391 . S
C1633 H1621 0.950 . S
C1633 C1629 1.393 . S
C1633 C1632 1.391 . S
C1634 H1624 0.950 . S
C1634 C1635 1.386 . S
C1634 C1636 1.391 . S
C1635 C1634 1.386 . S
C1635 C1639 1.393 . S
C1636 H1625 0.950 . S
C1636 C1634 1.391 . S
C1636 C1637 1.400 . S
C1637 C1631 1.491 . S
C1637 C1636 1.400 . S
C1637 C1638 1.398 . S
C1638 H1626 0.950 . S
C1638 C1637 1.398 . S
C1638 C1639 1.391 . S
C1639 H1627 0.950 . S
C1639 C1635 1.393 . S
C1639 C1638 1.391 . S
H1640 C1648 0.950 . S
H1641 C1653 0.950 . S
H1642 C1650 0.950 . S
H1643 C1652 0.950 . S
H1644 C1654 0.950 . S
H1645 C1656 0.950 . S
H1646 C1658 0.950 . S
H1647 C1659 0.950 . S
C1648 H1640 0.950 . S
C1648 C1649 1.386 . S
C1648 C1650 1.391 . S
C1649 C1648 1.386 . S
C1649 C1653 1.393 . S
C1650 H1642 0.950 . S
C1650 C1648 1.391 . S
C1650 C1651 1.400 . S
C1651 C1650 1.400 . S
C1651 C1652 1.398 . S
C1651 C1657 1.491 . S
C1652 H1643 0.950 . S
C1652 C1651 1.398 . S
C1652 C1653 1.391 . S
C1653 H1641 0.950 . S
C1653 C1649 1.393 . S
C1653 C1652 1.391 . S
C1654 H1644 0.950 . S
C1654 C1655 1.386 . S
C1654 C1656 1.391 . S
C1655 C1654 1.386 . S
C1655 C1659 1.393 . S
C1656 H1645 0.950 . S
C1656 C1654 1.391 . S
C1656 C1657 1.400 . S
C1657 C1651 1.491 . S
C1657 C1656 1.400 . S
C1657 C1658 1.398 . S
C1658 H1646 0.950 . S
C1658 C1657 1.398 . S
C1658 C1659 1.391 . S
C1659 H1647 0.950 . S
C1659 C1655 1.393 . S
C1659 C1658 1.391 . S
H1660 C1668 0.950 . S
H1661 C1673 0.950 . S
H1662 C1670 0.950 . S
H1663 C1672 0.950 . S
H1664 C1674 0.950 . S
H1665 C1676 0.950 . S
H1666 C1678 0.950 . S
H1667 C1679 0.948 1_556 S
C1668 H1660 0.950 . S
C1668 C1669 1.386 . S
C1668 C1670 1.391 . S
C1669 C1668 1.386 . S
C1669 C1673 1.393 . S
C1670 H1662 0.950 . S
C1670 C1668 1.391 . S
C1670 C1671 1.400 . S
C1671 C1670 1.400 . S
C1671 C1672 1.398 . S
C1671 C1677 1.491 . S
C1672 H1663 0.950 . S
C1672 C1671 1.398 . S
C1672 C1673 1.391 . S
C1673 H1661 0.950 . S
C1673 C1669 1.393 . S
C1673 C1672 1.391 . S
C1674 H1664 0.950 . S
C1674 C1675 1.386 . S
C1674 C1676 1.391 . S
C1675 C1674 1.386 . S
C1675 C1679 1.400 . S
C1676 H1665 0.950 . S
C1676 C1674 1.391 . S
C1676 C1677 1.400 1_554 S
C1677 C1671 1.491 . S
C1677 C1676 1.400 1_556 S
C1677 C1678 1.398 . S
C1678 H1666 0.950 . S
C1678 C1677 1.398 . S
C1678 C1679 1.385 1_556 S
C1679 H1667 0.948 1_554 S
C1679 C1675 1.400 . S
C1679 C1678 1.385 1_554 S
H1680 C1688 0.950 . S
H1681 C1693 0.950 . S
H1682 C1690 0.950 . S
H1683 C1692 0.950 . S
H1684 C1694 0.950 . S
H1685 C1696 0.950 . S
H1686 C1698 0.950 . S
H1687 C1699 0.950 . S
C1688 H1680 0.950 . S
C1688 C1689 1.386 . S
C1688 C1690 1.391 . S
C1689 C1688 1.386 . S
C1689 C1693 1.393 . S
C1690 H1682 0.950 . S
C1690 C1688 1.391 . S
C1690 C1691 1.400 . S
C1691 C1690 1.400 . S
C1691 C1692 1.398 . S
C1691 C1697 1.491 . S
C1692 H1683 0.950 . S
C1692 C1691 1.398 . S
C1692 C1693 1.391 . S
C1693 H1681 0.950 . S
C1693 C1689 1.393 . S
C1693 C1692 1.391 . S
C1694 H1684 0.950 . S
C1694 C1695 1.386 . S
C1694 C1696 1.391 . S
C1695 C1694 1.386 . S
C1695 C1699 1.393 . S
C1696 H1685 0.950 . S
C1696 C1694 1.391 . S
C1696 C1697 1.400 . S
C1697 C1691 1.491 . S
C1697 C1696 1.400 . S
C1697 C1698 1.398 . S
C1698 H1686 0.950 . S
C1698 C1697 1.398 . S
C1698 C1699 1.391 . S
C1699 H1687 0.950 . S
C1699 C1695 1.393 . S
C1699 C1698 1.391 . S
H1700 C1708 0.950 . S
H1701 C1713 0.950 . S
H1702 C1710 0.950 . S
H1703 C1712 0.950 . S
H1704 C1714 0.950 . S
H1705 C1716 0.950 . S
H1706 C1718 0.950 . S
H1707 C1719 0.950 . S
C1708 H1700 0.950 . S
C1708 C1709 1.386 . S
C1708 C1710 1.391 . S
C1709 C1708 1.386 . S
C1709 C1713 1.393 . S
C1710 H1702 0.950 . S
C1710 C1708 1.391 . S
C1710 C1711 1.400 . S
C1711 C1710 1.400 . S
C1711 C1712 1.398 . S
C1711 C1717 1.491 . S
C1712 H1703 0.950 . S
C1712 C1711 1.398 . S
C1712 C1713 1.391 . S
C1713 H1701 0.950 . S
C1713 C1709 1.393 . S
C1713 C1712 1.391 . S
C1714 H1704 0.950 . S
C1714 C1715 1.386 . S
C1714 C1716 1.391 . S
C1715 C1714 1.386 . S
C1715 C1719 1.393 . S
C1716 H1705 0.950 . S
C1716 C1714 1.391 . S
C1716 C1717 1.400 . S
C1717 C1711 1.491 . S
C1717 C1716 1.400 . S
C1717 C1718 1.398 . S
C1718 H1706 0.950 . S
C1718 C1717 1.398 . S
C1718 C1719 1.391 . S
C1719 H1707 0.950 . S
C1719 C1715 1.393 . S
C1719 C1718 1.391 . S
H1720 C1728 0.950 . S
H1721 C1733 0.950 1_556 S
H1722 C1730 0.950 . S
H1723 C1732 0.950 . S
H1724 C1734 0.950 . S
H1725 C1736 0.950 . S
H1726 C1738 0.950 . S
H1727 C1739 0.950 . S
C1728 H1720 0.950 . S
C1728 C1729 1.386 . S
C1728 C1730 1.391 . S
C1729 C1728 1.386 . S
C1729 C1733 1.393 . S
C1730 H1722 0.950 . S
C1730 C1728 1.391 . S
C1730 C1731 1.400 1_554 S
C1731 C1730 1.400 1_556 S
C1731 C1732 1.398 . S
C1731 C1737 1.491 . S
C1732 H1723 0.950 . S
C1732 C1731 1.398 . S
C1732 C1733 1.391 1_556 S
C1733 H1721 0.950 1_554 S
C1733 C1729 1.393 . S
C1733 C1732 1.391 1_554 S
C1734 H1724 0.950 . S
C1734 C1735 1.386 . S
C1734 C1736 1.391 . S
C1735 C1734 1.386 . S
C1735 C1739 1.393 . S
C1736 H1725 0.950 . S
C1736 C1734 1.391 . S
C1736 C1737 1.400 . S
C1737 C1731 1.491 . S
C1737 C1736 1.400 . S
C1737 C1738 1.398 . S
C1738 H1726 0.950 . S
C1738 C1737 1.398 . S
C1738 C1739 1.391 . S
C1739 H1727 0.950 . S
C1739 C1735 1.393 . S
C1739 C1738 1.391 . S
H1740 C1748 0.950 . S
H1741 C1753 0.950 . S
H1742 C1750 0.950 . S
H1743 C1752 0.950 . S
H1744 C1754 0.950 . S
H1745 C1756 0.950 . S
H1746 C1758 0.950 . S
H1747 C1759 0.950 . S
C1748 H1740 0.950 . S
C1748 C1749 1.386 . S
C1748 C1750 1.391 . S
C1749 C1748 1.386 . S
C1749 C1753 1.393 . S
C1750 H1742 0.950 . S
C1750 C1748 1.391 . S
C1750 C1751 1.400 . S
C1751 C1750 1.400 . S
C1751 C1752 1.398 . S
C1751 C1757 1.491 . S
C1752 H1743 0.950 . S
C1752 C1751 1.398 . S
C1752 C1753 1.391 . S
C1753 H1741 0.950 . S
C1753 C1749 1.393 . S
C1753 C1752 1.391 . S
C1754 H1744 0.950 . S
C1754 C1755 1.386 . S
C1754 C1756 1.391 . S
C1755 C1754 1.386 . S
C1755 C1759 1.393 . S
C1756 H1745 0.950 . S
C1756 C1754 1.391 . S
C1756 C1757 1.400 . S
C1757 C1751 1.491 . S
C1757 C1756 1.400 . S
C1757 C1758 1.398 . S
C1758 H1746 0.950 . S
C1758 C1757 1.398 . S
C1758 C1759 1.391 . S
C1759 H1747 0.950 . S
C1759 C1755 1.393 . S
C1759 C1758 1.391 . S
H1760 C1768 0.950 . S
H1761 C1773 0.950 . S
H1762 C1770 0.950 . S
H1763 C1772 0.950 . S
H1764 C1774 0.950 . S
H1765 C1776 0.950 . S
H1766 C1778 0.950 . S
H1767 C1779 0.950 . S
C1768 H1760 0.950 . S
C1768 C1769 1.386 . S
C1768 C1770 1.391 . S
C1769 C1768 1.386 . S
C1769 C1773 1.393 . S
C1770 H1762 0.950 . S
C1770 C1768 1.391 . S
C1770 C1771 1.400 . S
C1771 C1770 1.400 . S
C1771 C1772 1.398 . S
C1771 C1777 1.491 . S
C1772 H1763 0.950 . S
C1772 C1771 1.398 . S
C1772 C1773 1.391 . S
C1773 H1761 0.950 . S
C1773 C1769 1.393 . S
C1773 C1772 1.391 . S
C1774 H1764 0.950 . S
C1774 C1775 1.386 . S
C1774 C1776 1.391 . S
C1775 C1774 1.386 . S
C1775 C1779 1.393 . S
C1776 H1765 0.950 . S
C1776 C1774 1.391 . S
C1776 C1777 1.400 . S
C1777 C1771 1.491 . S
C1777 C1776 1.400 . S
C1777 C1778 1.398 . S
C1778 H1766 0.950 . S
C1778 C1777 1.398 . S
C1778 C1779 1.391 . S
C1779 H1767 0.950 . S
C1779 C1775 1.393 . S
C1779 C1778 1.391 . S
H1780 C1788 0.950 . S
H1781 C1793 0.950 . S
H1782 C1790 0.950 . S
H1783 C1792 0.950 . S
H1784 C1794 0.950 . S
H1785 C1796 0.950 . S
H1786 C1798 0.950 . S
H1787 C1799 0.950 . S
C1788 H1780 0.950 . S
C1788 C1789 1.386 . S
C1788 C1790 1.391 . S
C1789 C1788 1.386 . S
C1789 C1793 1.393 . S
C1790 H1782 0.950 . S
C1790 C1788 1.391 . S
C1790 C1791 1.400 . S
C1791 C1790 1.400 . S
C1791 C1792 1.398 . S
C1791 C1797 1.491 . S
C1792 H1783 0.950 . S
C1792 C1791 1.398 . S
C1792 C1793 1.391 . S
C1793 H1781 0.950 . S
C1793 C1789 1.393 . S
C1793 C1792 1.391 . S
C1794 H1784 0.950 . S
C1794 C1795 1.386 . S
C1794 C1796 1.391 . S
C1795 C1794 1.386 . S
C1795 C1799 1.393 . S
C1796 H1785 0.950 . S
C1796 C1794 1.391 . S
C1796 C1797 1.400 . S
C1797 C1791 1.491 . S
C1797 C1796 1.400 . S
C1797 C1798 1.398 . S
C1798 H1786 0.950 . S
C1798 C1797 1.398 . S
C1798 C1799 1.391 . S
C1799 H1787 0.950 . S
C1799 C1795 1.393 . S
C1799 C1798 1.391 . S
H1800 C1808 0.950 . S
H1801 C1813 0.950 . S
H1802 C1810 0.950 . S
H1803 C1812 0.950 . S
H1804 C1814 0.950 . S
H1805 C1816 0.950 . S
H1806 C1818 0.950 . S
H1807 C1819 0.950 . S
C1808 H1800 0.950 . S
C1808 C1809 1.386 . S
C1808 C1810 1.391 . S
C1809 C1808 1.386 . S
C1809 C1813 1.393 . S
C1810 H1802 0.950 . S
C1810 C1808 1.391 . S
C1810 C1811 1.400 . S
C1811 C1810 1.400 . S
C1811 C1812 1.398 . S
C1811 C1817 1.491 . S
C1812 H1803 0.950 . S
C1812 C1811 1.398 . S
C1812 C1813 1.391 . S
C1813 H1801 0.950 . S
C1813 C1809 1.393 . S
C1813 C1812 1.391 . S
C1814 H1804 0.950 . S
C1814 C1815 1.386 . S
C1814 C1816 1.391 . S
C1815 C1814 1.386 . S
C1815 C1819 1.393 . S
C1816 H1805 0.950 . S
C1816 C1814 1.391 . S
C1816 C1817 1.400 . S
C1817 C1811 1.491 . S
C1817 C1816 1.400 . S
C1817 C1818 1.398 . S
C1818 H1806 0.950 . S
C1818 C1817 1.398 . S
C1818 C1819 1.391 . S
C1819 H1807 0.950 . S
C1819 C1815 1.393 . S
C1819 C1818 1.391 . S
H1820 C1828 0.950 . S
H1821 C1833 0.950 . S
H1822 C1830 0.950 . S
H1823 C1832 0.950 . S
H1824 C1834 0.950 . S
H1825 C1836 0.950 . S
H1826 C1838 0.950 . S
H1827 C1839 0.950 . S
C1828 H1820 0.950 . S
C1828 C1829 1.386 . S
C1828 C1830 1.391 . S
C1829 C1828 1.386 . S
C1829 C1833 1.393 . S
C1830 H1822 0.950 . S
C1830 C1828 1.391 . S
C1830 C1831 1.400 . S
C1831 C1830 1.400 . S
C1831 C1832 1.398 . S
C1831 C1837 1.491 . S
C1832 H1823 0.950 . S
C1832 C1831 1.398 . S
C1832 C1833 1.391 . S
C1833 H1821 0.950 . S
C1833 C1829 1.393 . S
C1833 C1832 1.391 . S
C1834 H1824 0.950 . S
C1834 C1835 1.386 . S
C1834 C1836 1.391 . S
C1835 C1834 1.386 . S
C1835 C1839 1.393 . S
C1836 H1825 0.950 . S
C1836 C1834 1.391 . S
C1836 C1837 1.400 . S
C1837 C1831 1.491 . S
C1837 C1836 1.400 . S
C1837 C1838 1.398 . S
C1838 H1826 0.950 . S
C1838 C1837 1.398 . S
C1838 C1839 1.391 . S
C1839 H1827 0.950 . S
C1839 C1835 1.393 . S
C1839 C1838 1.391 . S
H1840 C1848 0.950 . S
H1841 C1853 0.950 . S
H1842 C1850 0.950 . S
H1843 C1852 0.950 . S
H1844 C1854 0.950 . S
H1845 C1856 0.950 . S
H1846 C1858 0.950 . S
H1847 C1859 0.950 . S
C1848 H1840 0.950 . S
C1848 C1849 1.386 . S
C1848 C1850 1.391 . S
C1849 C1848 1.386 . S
C1849 C1853 1.393 . S
C1850 H1842 0.950 . S
C1850 C1848 1.391 . S
C1850 C1851 1.400 . S
C1851 C1850 1.400 . S
C1851 C1852 1.398 . S
C1851 C1857 1.491 . S
C1852 H1843 0.950 . S
C1852 C1851 1.398 . S
C1852 C1853 1.391 . S
C1853 H1841 0.950 . S
C1853 C1849 1.393 . S
C1853 C1852 1.391 . S
C1854 H1844 0.950 . S
C1854 C1855 1.386 . S
C1854 C1856 1.391 . S
C1855 C1854 1.386 . S
C1855 C1859 1.393 . S
C1856 H1845 0.950 . S
C1856 C1854 1.391 . S
C1856 C1857 1.400 . S
C1857 C1851 1.491 . S
C1857 C1856 1.400 . S
C1857 C1858 1.398 . S
C1858 H1846 0.950 . S
C1858 C1857 1.398 . S
C1858 C1859 1.391 . S
C1859 H1847 0.950 . S
C1859 C1855 1.393 . S
C1859 C1858 1.391 . S
H1860 C1868 0.950 . S
H1861 C1873 0.950 . S
H1862 C1870 0.950 . S
H1863 C1872 0.950 . S
H1864 C1874 0.950 . S
H1865 C1876 0.950 . S
H1866 C1878 0.950 . S
H1867 C1879 0.950 . S
C1868 H1860 0.950 . S
C1868 C1869 1.386 . S
C1868 C1870 1.391 . S
C1869 C1868 1.386 . S
C1869 C1873 1.393 . S
C1870 H1862 0.950 . S
C1870 C1868 1.391 . S
C1870 C1871 1.400 . S
C1871 C1870 1.400 . S
C1871 C1872 1.398 . S
C1871 C1877 1.491 . S
C1872 H1863 0.950 . S
C1872 C1871 1.398 . S
C1872 C1873 1.391 . S
C1873 H1861 0.950 . S
C1873 C1869 1.393 . S
C1873 C1872 1.391 . S
C1874 H1864 0.950 . S
C1874 C1875 1.386 . S
C1874 C1876 1.391 . S
C1875 C1874 1.386 . S
C1875 C1879 1.393 . S
C1876 H1865 0.950 . S
C1876 C1874 1.391 . S
C1876 C1877 1.400 . S
C1877 C1871 1.491 . S
C1877 C1876 1.400 . S
C1877 C1878 1.398 . S
C1878 H1866 0.950 . S
C1878 C1877 1.398 . S
C1878 C1879 1.391 . S
C1879 H1867 0.950 . S
C1879 C1875 1.393 . S
C1879 C1878 1.391 . S
H1880 C1888 0.950 . S
H1881 C1893 0.950 . S
H1882 C1890 0.950 . S
H1883 C1892 0.950 . S
H1884 C1894 0.950 . S
H1885 C1896 0.950 . S
H1886 C1898 0.950 . S
H1887 C1899 0.950 . S
C1888 H1880 0.950 . S
C1888 C1889 1.386 . S
C1888 C1890 1.391 . S
C1889 C1888 1.386 . S
C1889 C1893 1.393 . S
C1890 H1882 0.950 . S
C1890 C1888 1.391 . S
C1890 C1891 1.400 . S
C1891 C1890 1.400 . S
C1891 C1892 1.398 . S
C1891 C1897 1.491 . S
C1892 H1883 0.950 . S
C1892 C1891 1.398 . S
C1892 C1893 1.391 . S
C1893 H1881 0.950 . S
C1893 C1889 1.393 . S
C1893 C1892 1.391 . S
C1894 H1884 0.950 . S
C1894 C1895 1.386 . S
C1894 C1896 1.391 . S
C1895 C1894 1.386 . S
C1895 C1899 1.393 . S
C1896 H1885 0.950 . S
C1896 C1894 1.391 . S
C1896 C1897 1.400 . S
C1897 C1891 1.491 . S
C1897 C1896 1.400 . S
C1897 C1898 1.398 . S
C1898 H1886 0.950 . S
C1898 C1897 1.398 . S
C1898 C1899 1.391 . S
C1899 H1887 0.950 . S
C1899 C1895 1.393 . S
C1899 C1898 1.391 . S
H1900 C1908 0.950 . S
H1901 C1913 0.950 . S
H1902 C1910 0.950 . S
H1903 C1912 0.950 . S
H1904 C1914 0.950 . S
H1905 C1916 0.950 . S
H1906 C1918 0.950 . S
H1907 C1919 0.950 . S
C1908 H1900 0.950 . S
C1908 C1909 1.386 . S
C1908 C1910 1.391 . S
C1909 C1908 1.386 . S
C1909 C1913 1.393 . S
C1910 H1902 0.950 . S
C1910 C1908 1.391 . S
C1910 C1911 1.400 1_556 S
C1911 C1910 1.400 1_554 S
C1911 C1912 1.398 . S
C1911 C1917 1.491 . S
C1912 H1903 0.950 . S
C1912 C1911 1.398 . S
C1912 C1913 1.391 1_554 S
C1913 H1901 0.950 . S
C1913 C1909 1.393 . S
C1913 C1912 1.391 1_556 S
C1914 H1904 0.950 . S
C1914 C1915 1.386 . S
C1914 C1916 1.391 . S
C1915 C1914 1.386 . S
C1915 C1919 1.393 . S
C1916 H1905 0.950 . S
C1916 C1914 1.391 . S
C1916 C1917 1.400 . S
C1917 C1911 1.491 . S
C1917 C1916 1.400 . S
C1917 C1918 1.398 . S
C1918 H1906 0.950 . S
C1918 C1917 1.398 . S
C1918 C1919 1.391 . S
C1919 H1907 0.950 . S
C1919 C1915 1.393 . S
C1919 C1918 1.391 . S
H1920 C1928 0.950 . S
H1921 C1933 0.950 . S
H1922 C1930 0.922 1_455 S
H1923 C1932 0.950 . S
H1924 C1934 0.950 . S
H1925 C1936 0.921 1_655 S
H1926 C1938 0.950 . S
H1927 C1939 0.950 . S
C1928 H1920 0.950 . S
C1928 C1929 1.386 . S
C1928 C1930 1.410 . S
C1929 C1928 1.386 . S
C1929 C1933 1.393 . S
C1930 H1922 0.922 1_655 S
C1930 C1928 1.410 . S
C1930 C1931 1.410 . S
C1931 C1930 1.410 . S
C1931 C1932 1.398 . S
C1931 C1937 1.491 1_655 S
C1932 H1923 0.950 . S
C1932 C1931 1.398 . S
C1932 C1933 1.391 . S
C1933 H1921 0.950 . S
C1933 C1929 1.393 . S
C1933 C1932 1.391 . S
C1934 H1924 0.950 . S
C1934 C1935 1.386 . S
C1934 C1936 1.411 . S
C1935 C1934 1.386 . S
C1935 C1939 1.393 . S
C1936 H1925 0.921 1_455 S
C1936 C1934 1.411 . S
C1936 C1937 1.410 . S
C1937 C1931 1.491 1_455 S
C1937 C1936 1.410 . S
C1937 C1938 1.398 . S
C1938 H1926 0.950 . S
C1938 C1937 1.398 . S
C1938 C1939 1.391 . S
C1939 H1927 0.950 . S
C1939 C1935 1.393 . S
C1939 C1938 1.391 . S
H1940 C1948 0.950 . S
H1941 C1953 0.950 . S
H1942 C1950 0.950 . S
H1943 C1952 0.950 . S
H1944 C1954 0.950 . S
H1945 C1956 0.950 . S
H1946 C1958 0.950 . S
H1947 C1959 0.950 . S
C1948 H1940 0.950 . S
C1948 C1949 1.386 . S
C1948 C1950 1.391 . S
C1949 C1948 1.386 . S
C1949 C1953 1.393 . S
C1950 H1942 0.950 . S
C1950 C1948 1.391 . S
C1950 C1951 1.400 . S
C1951 C1950 1.400 . S
C1951 C1952 1.398 . S
C1951 C1957 1.491 . S
C1952 H1943 0.950 . S
C1952 C1951 1.398 . S
C1952 C1953 1.391 . S
C1953 H1941 0.950 . S
C1953 C1949 1.393 . S
C1953 C1952 1.391 . S
C1954 H1944 0.950 . S
C1954 C1955 1.386 . S
C1954 C1956 1.391 . S
C1955 C1954 1.386 . S
C1955 C1959 1.393 . S
C1956 H1945 0.950 . S
C1956 C1954 1.391 . S
C1956 C1957 1.400 . S
C1957 C1951 1.491 . S
C1957 C1956 1.400 . S
C1957 C1958 1.398 . S
C1958 H1946 0.950 . S
C1958 C1957 1.398 . S
C1958 C1959 1.391 . S
C1959 H1947 0.950 . S
C1959 C1955 1.393 . S
C1959 C1958 1.391 . S
H1960 C1968 0.950 . S
H1961 C1973 0.950 . S
H1962 C1970 0.950 . S
H1963 C1972 0.950 . S
H1964 C1974 0.950 . S
H1965 C1976 0.950 . S
H1966 C1978 0.950 . S
H1967 C1979 0.950 . S
C1968 H1960 0.950 . S
C1968 C1969 1.386 . S
C1968 C1970 1.391 . S
C1969 C1968 1.386 . S
C1969 C1973 1.393 . S
C1970 H1962 0.950 . S
C1970 C1968 1.391 . S
C1970 C1971 1.400 . S
C1971 C1970 1.400 . S
C1971 C1972 1.398 . S
C1971 C1977 1.491 . S
C1972 H1963 0.950 . S
C1972 C1971 1.398 . S
C1972 C1973 1.391 . S
C1973 H1961 0.950 . S
C1973 C1969 1.393 . S
C1973 C1972 1.391 . S
C1974 H1964 0.950 . S
C1974 C1975 1.386 . S
C1974 C1976 1.391 . S
C1975 C1974 1.386 . S
C1975 C1979 1.393 . S
C1976 H1965 0.950 . S
C1976 C1974 1.391 . S
C1976 C1977 1.400 . S
C1977 C1971 1.491 . S
C1977 C1976 1.400 . S
C1977 C1978 1.398 . S
C1978 H1966 0.950 . S
C1978 C1977 1.398 . S
C1978 C1979 1.391 . S
C1979 H1967 0.950 . S
C1979 C1975 1.393 . S
C1979 C1978 1.391 . S
H1980 C1988 0.950 . S
H1981 C1993 0.950 . S
H1982 C1990 0.950 . S
H1983 C1992 0.950 . S
H1984 C1994 0.950 . S
H1985 C1996 0.950 . S
H1986 C1998 0.950 . S
H1987 C1999 0.950 . S
C1988 H1980 0.950 . S
C1988 C1989 1.386 . S
C1988 C1990 1.391 . S
C1989 C1988 1.386 . S
C1989 C1993 1.393 . S
C1990 H1982 0.950 . S
C1990 C1988 1.391 . S
C1990 C1991 1.400 . S
C1991 C1990 1.400 . S
C1991 C1992 1.398 . S
C1991 C1997 1.491 . S
C1992 H1983 0.950 . S
C1992 C1991 1.398 . S
C1992 C1993 1.391 . S
C1993 H1981 0.950 . S
C1993 C1989 1.393 . S
C1993 C1992 1.391 . S
C1994 H1984 0.950 . S
C1994 C1995 1.386 . S
C1994 C1996 1.391 . S
C1995 C1994 1.386 . S
C1995 C1999 1.393 . S
C1996 H1985 0.950 . S
C1996 C1994 1.391 . S
C1996 C1997 1.400 . S
C1997 C1991 1.491 . S
C1997 C1996 1.400 . S
C1997 C1998 1.398 . S
C1998 H1986 0.950 . S
C1998 C1997 1.398 . S
C1998 C1999 1.391 . S
C1999 H1987 0.950 . S
C1999 C1995 1.393 . S
C1999 C1998 1.391 . S
H2000 C2008 0.950 . S
H2001 C2013 0.950 . S
H2002 C2010 0.950 . S
H2003 C2012 0.950 . S
H2004 C2014 0.950 . S
H2005 C2016 0.950 . S
H2006 C2018 0.950 . S
H2007 C2019 0.950 . S
C2008 H2000 0.950 . S
C2008 C2009 1.386 . S
C2008 C2010 1.391 1_655 S
C2009 C2008 1.386 . S
C2009 C2013 1.393 . S
C2010 H2002 0.950 . S
C2010 C2008 1.391 1_455 S
C2010 C2011 1.400 1_455 S
C2011 C2010 1.400 1_655 S
C2011 C2012 1.398 . S
C2011 C2017 1.491 1_655 S
C2012 H2003 0.950 . S
C2012 C2011 1.398 . S
C2012 C2013 1.391 . S
C2013 H2001 0.950 . S
C2013 C2009 1.393 . S
C2013 C2012 1.391 . S
C2014 H2004 0.950 . S
C2014 C2015 1.386 . S
C2014 C2016 1.391 1_455 S
C2015 C2014 1.386 . S
C2015 C2019 1.393 . S
C2016 H2005 0.950 . S
C2016 C2014 1.391 1_655 S
C2016 C2017 1.400 1_655 S
C2017 C2011 1.491 1_455 S
C2017 C2016 1.400 1_455 S
C2017 C2018 1.398 . S
C2018 H2006 0.950 . S
C2018 C2017 1.398 . S
C2018 C2019 1.391 . S
C2019 H2007 0.950 . S
C2019 C2015 1.393 . S
C2019 C2018 1.391 . S
H2020 C2028 0.950 . S
H2021 C2033 0.950 . S
H2022 C2030 0.950 . S
H2023 C2032 0.950 . S
H2024 C2034 0.950 . S
H2025 C2036 0.950 . S
H2026 C2038 0.950 . S
H2027 C2039 0.950 . S
C2028 H2020 0.950 . S
C2028 C2029 1.386 . S
C2028 C2030 1.391 . S
C2029 C2028 1.386 . S
C2029 C2033 1.393 . S
C2030 H2022 0.950 . S
C2030 C2028 1.391 . S
C2030 C2031 1.400 . S
C2031 C2030 1.400 . S
C2031 C2032 1.398 . S
C2031 C2037 1.491 . S
C2032 H2023 0.950 . S
C2032 C2031 1.398 . S
C2032 C2033 1.391 . S
C2033 H2021 0.950 . S
C2033 C2029 1.393 . S
C2033 C2032 1.391 . S
C2034 H2024 0.950 . S
C2034 C2035 1.386 . S
C2034 C2036 1.391 . S
C2035 C2034 1.386 . S
C2035 C2039 1.393 . S
C2036 H2025 0.950 . S
C2036 C2034 1.391 . S
C2036 C2037 1.400 . S
C2037 C2031 1.491 . S
C2037 C2036 1.400 . S
C2037 C2038 1.398 . S
C2038 H2026 0.950 . S
C2038 C2037 1.398 . S
C2038 C2039 1.391 . S
C2039 H2027 0.950 . S
C2039 C2035 1.393 . S
C2039 C2038 1.391 . S
H2040 C2048 0.950 . S
H2041 C2053 0.950 . S
H2042 C2050 0.950 . S
H2043 C2052 0.950 . S
H2044 C2054 0.950 . S
H2045 C2056 0.950 . S
H2046 C2058 0.950 . S
H2047 C2059 0.950 . S
C2048 H2040 0.950 . S
C2048 C2049 1.386 . S
C2048 C2050 1.391 . S
C2049 C2048 1.386 . S
C2049 C2053 1.393 . S
C2050 H2042 0.950 . S
C2050 C2048 1.391 . S
C2050 C2051 1.400 . S
C2051 C2050 1.400 . S
C2051 C2052 1.398 . S
C2051 C2057 1.491 . S
C2052 H2043 0.950 . S
C2052 C2051 1.398 . S
C2052 C2053 1.391 . S
C2053 H2041 0.950 . S
C2053 C2049 1.393 . S
C2053 C2052 1.391 . S
C2054 H2044 0.950 . S
C2054 C2055 1.386 . S
C2054 C2056 1.391 . S
C2055 C2054 1.386 . S
C2055 C2059 1.393 . S
C2056 H2045 0.950 . S
C2056 C2054 1.391 . S
C2056 C2057 1.400 . S
C2057 C2051 1.491 . S
C2057 C2056 1.400 . S
C2057 C2058 1.398 . S
C2058 H2046 0.950 . S
C2058 C2057 1.398 . S
C2058 C2059 1.391 . S
C2059 H2047 0.950 . S
C2059 C2055 1.393 . S
C2059 C2058 1.391 . S
H2060 C2068 0.950 . S
H2061 C2073 0.950 . S
H2062 C2070 0.950 . S
H2063 C2072 0.950 . S
H2064 C2074 0.950 . S
H2065 C2076 0.950 . S
H2066 C2078 0.950 . S
H2067 C2079 0.950 . S
C2068 H2060 0.950 . S
C2068 C2069 1.386 . S
C2068 C2070 1.391 . S
C2069 C2068 1.386 . S
C2069 C2073 1.393 . S
C2070 H2062 0.950 . S
C2070 C2068 1.391 . S
C2070 C2071 1.400 . S
C2071 C2070 1.400 . S
C2071 C2072 1.398 . S
C2071 C2077 1.491 . S
C2072 H2063 0.950 . S
C2072 C2071 1.398 . S
C2072 C2073 1.391 . S
C2073 H2061 0.950 . S
C2073 C2069 1.393 . S
C2073 C2072 1.391 . S
C2074 H2064 0.950 . S
C2074 C2075 1.386 . S
C2074 C2076 1.391 . S
C2075 C2074 1.386 . S
C2075 C2079 1.393 . S
C2076 H2065 0.950 . S
C2076 C2074 1.391 . S
C2076 C2077 1.400 . S
C2077 C2071 1.491 . S
C2077 C2076 1.400 . S
C2077 C2078 1.398 . S
C2078 H2066 0.950 . S
C2078 C2077 1.398 . S
C2078 C2079 1.391 . S
C2079 H2067 0.950 . S
C2079 C2075 1.393 . S
C2079 C2078 1.391 . S
H2080 C2088 0.950 . S
H2081 C2093 0.950 . S
H2082 C2090 0.950 . S
H2083 C2092 0.950 . S
H2084 C2094 0.950 . S
H2085 C2096 0.950 . S
H2086 C2098 0.950 . S
H2087 C2099 0.950 1_554 S
C2088 H2080 0.950 . S
C2088 C2089 1.386 . S
C2088 C2090 1.391 . S
C2089 C2088 1.386 . S
C2089 C2093 1.393 . S
C2090 H2082 0.950 . S
C2090 C2088 1.391 . S
C2090 C2091 1.400 . S
C2091 C2090 1.400 . S
C2091 C2092 1.398 . S
C2091 C2097 1.491 . S
C2092 H2083 0.950 . S
C2092 C2091 1.398 . S
C2092 C2093 1.391 . S
C2093 H2081 0.950 . S
C2093 C2089 1.393 . S
C2093 C2092 1.391 . S
C2094 H2084 0.950 . S
C2094 C2095 1.386 . S
C2094 C2096 1.391 . S
C2095 C2094 1.386 . S
C2095 C2099 1.393 . S
C2096 H2085 0.950 . S
C2096 C2094 1.391 . S
C2096 C2097 1.400 . S
C2097 C2091 1.491 . S
C2097 C2096 1.400 . S
C2097 C2098 1.398 . S
C2098 H2086 0.950 . S
C2098 C2097 1.398 . S
C2098 C2099 1.391 . S
C2099 H2087 0.950 1_556 S
C2099 C2095 1.393 . S
C2099 C2098 1.391 . S
H2100 C2108 0.950 . S
H2101 C2113 0.950 . S
H2102 C2110 0.950 . S
H2103 C2112 0.950 . S
H2104 C2114 0.950 . S
H2105 C2116 0.950 . S
H2106 C2118 0.950 . S
H2107 C2119 0.950 . S
C2108 H2100 0.950 . S
C2108 C2109 1.386 . S
C2108 C2110 1.391 . S
C2109 C2108 1.386 . S
C2109 C2113 1.393 . S
C2110 H2102 0.950 . S
C2110 C2108 1.391 . S
C2110 C2111 1.400 . S
C2111 C2110 1.400 . S
C2111 C2112 1.398 . S
C2111 C2117 1.491 . S
C2112 H2103 0.950 . S
C2112 C2111 1.398 . S
C2112 C2113 1.391 . S
C2113 H2101 0.950 . S
C2113 C2109 1.393 . S
C2113 C2112 1.391 . S
C2114 H2104 0.950 . S
C2114 C2115 1.386 . S
C2114 C2116 1.391 . S
C2115 C2114 1.386 . S
C2115 C2119 1.393 . S
C2116 H2105 0.950 . S
C2116 C2114 1.391 . S
C2116 C2117 1.400 . S
C2117 C2111 1.491 . S
C2117 C2116 1.400 . S
C2117 C2118 1.398 . S
C2118 H2106 0.950 . S
C2118 C2117 1.398 . S
C2118 C2119 1.391 . S
C2119 H2107 0.950 . S
C2119 C2115 1.393 . S
C2119 C2118 1.391 . S
H2120 C2128 0.950 . S
H2121 C2133 0.950 . S
H2122 C2130 0.950 . S
H2123 C2132 0.950 . S
H2124 C2134 0.950 . S
H2125 C2136 0.950 . S
H2126 C2138 0.950 . S
H2127 C2139 0.950 . S
C2128 H2120 0.950 . S
C2128 C2129 1.386 . S
C2128 C2130 1.391 . S
C2129 C2128 1.386 . S
C2129 C2133 1.393 . S
C2130 H2122 0.950 . S
C2130 C2128 1.391 . S
C2130 C2131 1.400 . S
C2131 C2130 1.400 . S
C2131 C2132 1.398 . S
C2131 C2137 1.491 . S
C2132 H2123 0.950 . S
C2132 C2131 1.398 . S
C2132 C2133 1.391 . S
C2133 H2121 0.950 . S
C2133 C2129 1.393 . S
C2133 C2132 1.391 . S
C2134 H2124 0.950 . S
C2134 C2135 1.386 . S
C2134 C2136 1.391 . S
C2135 C2134 1.386 . S
C2135 C2139 1.393 . S
C2136 H2125 0.950 . S
C2136 C2134 1.391 . S
C2136 C2137 1.400 . S
C2137 C2131 1.491 . S
C2137 C2136 1.400 . S
C2137 C2138 1.398 . S
C2138 H2126 0.950 . S
C2138 C2137 1.398 . S
C2138 C2139 1.391 . S
C2139 H2127 0.950 . S
C2139 C2135 1.393 . S
C2139 C2138 1.391 . S
H2140 C2148 0.950 . S
H2141 C2153 0.950 . S
H2142 C2150 0.950 . S
H2143 C2152 0.950 . S
H2144 C2154 0.950 . S
H2145 C2156 0.950 . S
H2146 C2158 0.950 . S
H2147 C2159 0.950 . S
C2148 H2140 0.950 . S
C2148 C2149 1.386 . S
C2148 C2150 1.391 . S
C2149 C2148 1.386 . S
C2149 C2153 1.393 . S
C2150 H2142 0.950 . S
C2150 C2148 1.391 . S
C2150 C2151 1.400 . S
C2151 C2150 1.400 . S
C2151 C2152 1.398 . S
C2151 C2157 1.491 . S
C2152 H2143 0.950 . S
C2152 C2151 1.398 . S
C2152 C2153 1.391 . S
C2153 H2141 0.950 . S
C2153 C2149 1.393 . S
C2153 C2152 1.391 . S
C2154 H2144 0.950 . S
C2154 C2155 1.386 . S
C2154 C2156 1.391 . S
C2155 C2154 1.386 . S
C2155 C2159 1.393 . S
C2156 H2145 0.950 . S
C2156 C2154 1.391 . S
C2156 C2157 1.400 . S
C2157 C2151 1.491 . S
C2157 C2156 1.400 . S
C2157 C2158 1.398 . S
C2158 H2146 0.950 . S
C2158 C2157 1.398 . S
C2158 C2159 1.391 . S
C2159 H2147 0.950 . S
C2159 C2155 1.393 . S
C2159 C2158 1.391 . S
H2160 C2168 0.950 . S
H2161 C2173 0.950 . S
H2162 C2170 0.950 1_565 S
H2163 C2172 0.950 . S
H2164 C2174 0.950 . S
H2165 C2176 0.950 1_545 S
H2166 C2178 0.950 . S
H2167 C2179 0.950 . S
C2168 H2160 0.950 . S
C2168 C2169 1.386 . S
C2168 C2170 1.391 . S
C2169 C2168 1.386 . S
C2169 C2173 1.393 . S
C2170 H2162 0.950 1_545 S
C2170 C2168 1.391 . S
C2170 C2171 1.400 . S
C2171 C2170 1.400 . S
C2171 C2172 1.398 . S
C2171 C2177 1.491 1_545 S
C2172 H2163 0.950 . S
C2172 C2171 1.398 . S
C2172 C2173 1.391 . S
C2173 H2161 0.950 . S
C2173 C2169 1.393 . S
C2173 C2172 1.391 . S
C2174 H2164 0.950 . S
C2174 C2175 1.386 . S
C2174 C2176 1.391 . S
C2175 C2174 1.386 . S
C2175 C2179 1.393 . S
C2176 H2165 0.950 1_565 S
C2176 C2174 1.391 . S
C2176 C2177 1.400 . S
C2177 C2171 1.491 1_565 S
C2177 C2176 1.400 . S
C2177 C2178 1.398 . S
C2178 H2166 0.950 . S
C2178 C2177 1.398 . S
C2178 C2179 1.391 . S
C2179 H2167 0.950 . S
C2179 C2175 1.393 . S
C2179 C2178 1.391 . S
H2180 C2188 0.950 . S
H2181 C2193 0.950 . S
H2182 C2190 0.950 . S
H2183 C2192 0.950 1_545 S
H2184 C2194 0.950 . S
H2185 C2196 0.950 . S
H2186 C2198 0.950 1_565 S
H2187 C2199 0.950 . S
C2188 H2180 0.950 . S
C2188 C2189 1.386 . S
C2188 C2190 1.391 1_455 S
C2189 C2188 1.386 . S
C2189 C2193 1.393 . S
C2190 H2182 0.950 . S
C2190 C2188 1.391 1_655 S
C2190 C2191 1.400 1_655 S
C2191 C2190 1.400 1_455 S
C2191 C2192 1.398 . S
C2191 C2197 1.491 1_465 S
C2192 H2183 0.950 1_565 S
C2192 C2191 1.398 . S
C2192 C2193 1.391 . S
C2193 H2181 0.950 . S
C2193 C2189 1.393 . S
C2193 C2192 1.391 . S
C2194 H2184 0.950 . S
C2194 C2195 1.386 . S
C2194 C2196 1.391 1_655 S
C2195 C2194 1.386 . S
C2195 C2199 1.393 . S
C2196 H2185 0.950 . S
C2196 C2194 1.391 1_455 S
C2196 C2197 1.400 1_455 S
C2197 C2191 1.491 1_645 S
C2197 C2196 1.400 1_655 S
C2197 C2198 1.398 . S
C2198 H2186 0.950 1_545 S
C2198 C2197 1.398 . S
C2198 C2199 1.391 . S
C2199 H2187 0.950 . S
C2199 C2195 1.393 . S
C2199 C2198 1.391 . S
H2200 C2208 0.950 . S
H2201 C2213 0.947 1_545 S
H2202 C2210 0.950 . S
H2203 C2212 0.950 . S
H2204 C2214 0.950 . S
H2205 C2216 0.950 . S
H2206 C2218 0.950 . S
H2207 C2219 0.946 1_565 S
C2208 H2200 0.950 . S
C2208 C2209 1.386 . S
C2208 C2210 1.391 . S
C2209 C2208 1.386 . S
C2209 C2213 1.398 . S
C2210 H2202 0.950 . S
C2210 C2208 1.391 . S
C2210 C2211 1.400 . S
C2211 C2210 1.400 . S
C2211 C2212 1.398 1_565 S
C2211 C2217 1.491 1_565 S
C2212 H2203 0.950 . S
C2212 C2211 1.398 1_545 S
C2212 C2213 1.388 1_545 S
C2213 H2201 0.947 1_565 S
C2213 C2209 1.398 . S
C2213 C2212 1.388 1_565 S
C2214 H2204 0.950 . S
C2214 C2215 1.386 . S
C2214 C2216 1.391 . S
C2215 C2214 1.386 . S
C2215 C2219 1.399 . S
C2216 H2205 0.950 . S
C2216 C2214 1.391 . S
C2216 C2217 1.400 . S
C2217 C2211 1.491 1_545 S
C2217 C2216 1.400 . S
C2217 C2218 1.398 1_545 S
C2218 H2206 0.950 . S
C2218 C2217 1.398 1_565 S
C2218 C2219 1.388 1_565 S
C2219 H2207 0.946 1_545 S
C2219 C2215 1.399 . S
C2219 C2218 1.388 1_545 S
H2220 C2228 0.950 . S
H2221 C2233 0.950 . S
H2222 C2230 0.950 1_455 S
H2223 C2232 0.950 . S
H2224 C2234 0.950 . S
H2225 C2236 0.950 1_655 S
H2226 C2238 0.950 . S
H2227 C2239 0.950 . S
C2228 H2220 0.950 . S
C2228 C2229 1.386 . S
C2228 C2230 1.391 . S
C2229 C2228 1.386 . S
C2229 C2233 1.393 1_565 S
C2230 H2222 0.950 1_655 S
C2230 C2228 1.391 . S
C2230 C2231 1.400 . S
C2231 C2230 1.400 . S
C2231 C2232 1.398 1_565 S
C2231 C2237 1.491 1_665 S
C2232 H2223 0.950 . S
C2232 C2231 1.398 1_545 S
C2232 C2233 1.391 . S
C2233 H2221 0.950 . S
C2233 C2229 1.393 1_545 S
C2233 C2232 1.391 . S
C2234 H2224 0.950 . S
C2234 C2235 1.386 . S
C2234 C2236 1.391 . S
C2235 C2234 1.386 . S
C2235 C2239 1.393 1_545 S
C2236 H2225 0.950 1_455 S
C2236 C2234 1.391 . S
C2236 C2237 1.400 . S
C2237 C2231 1.491 1_445 S
C2237 C2236 1.400 . S
C2237 C2238 1.398 1_545 S
C2238 H2226 0.950 . S
C2238 C2237 1.398 1_565 S
C2238 C2239 1.391 . S
C2239 H2227 0.950 . S
C2239 C2235 1.393 1_565 S
C2239 C2238 1.391 . S
H2240 C2248 0.950 . S
H2241 C2253 0.950 . S
H2242 C2250 0.951 . S
H2243 C2252 0.950 . S
H2244 C2254 0.939 1_455 S
H2245 C2256 0.950 . S
H2246 C2258 0.950 . S
H2247 C2259 0.950 . S
C2248 H2240 0.950 . S
C2248 C2249 1.386 . S
C2248 C2250 1.391 1_454 S
C2249 C2248 1.386 . S
C2249 C2253 1.393 1_554 S
C2250 H2242 0.951 . S
C2250 C2248 1.391 1_656 S
C2250 C2251 1.400 1_655 S
C2251 C2250 1.400 1_455 S
C2251 C2252 1.398 . S
C2251 C2257 1.491 1_455 S
C2252 H2243 0.950 . S
C2252 C2251 1.398 . S
C2252 C2253 1.391 . S
C2253 H2241 0.950 . S
C2253 C2249 1.393 1_556 S
C2253 C2252 1.391 . S
C2254 H2244 0.939 1_655 S
C2254 C2255 1.386 . S
C2254 C2256 1.391 1_655 S
C2255 C2254 1.386 . S
C2255 C2259 1.393 . S
C2256 H2245 0.950 . S
C2256 C2254 1.391 1_455 S
C2256 C2257 1.400 1_455 S
C2257 C2251 1.491 1_655 S
C2257 C2256 1.400 1_655 S
C2257 C2258 1.398 . S
C2258 H2246 0.950 . S
C2258 C2257 1.398 . S
C2258 C2259 1.391 . S
C2259 H2247 0.950 . S
C2259 C2255 1.393 . S
C2259 C2258 1.391 . S
H2260 C2268 0.950 . S
H2261 C2273 0.950 . S
H2262 C2270 0.950 . S
H2263 C2272 0.950 . S
H2264 C2274 0.950 . S
H2265 C2276 0.950 . S
H2266 C2278 0.950 . S
H2267 C2279 0.950 . S
C2268 H2260 0.950 . S
C2268 C2269 1.386 . S
C2268 C2270 1.391 . S
C2269 C2268 1.386 . S
C2269 C2273 1.393 . S
C2270 H2262 0.950 . S
C2270 C2268 1.391 . S
C2270 C2271 1.400 . S
C2271 C2270 1.400 . S
C2271 C2272 1.398 . S
C2271 C2277 1.491 . S
C2272 H2263 0.950 . S
C2272 C2271 1.398 . S
C2272 C2273 1.391 . S
C2273 H2261 0.950 . S
C2273 C2269 1.393 . S
C2273 C2272 1.391 . S
C2274 H2264 0.950 . S
C2274 C2275 1.386 . S
C2274 C2276 1.391 . S
C2275 C2274 1.386 . S
C2275 C2279 1.393 . S
C2276 H2265 0.950 . S
C2276 C2274 1.391 . S
C2276 C2277 1.400 . S
C2277 C2271 1.491 . S
C2277 C2276 1.400 . S
C2277 C2278 1.398 . S
C2278 H2266 0.950 . S
C2278 C2277 1.398 . S
C2278 C2279 1.391 . S
C2279 H2267 0.950 . S
C2279 C2275 1.393 . S
C2279 C2278 1.391 . S
H2280 C2288 0.950 . S
H2281 C2293 0.950 . S
H2282 C2290 0.950 . S
H2283 C2292 0.950 . S
H2284 C2294 0.950 . S
H2285 C2296 0.950 . S
H2286 C2298 0.950 . S
H2287 C2299 0.950 . S
C2288 H2280 0.950 . S
C2288 C2289 1.386 . S
C2288 C2290 1.391 . S
C2289 C2288 1.386 . S
C2289 C2293 1.393 . S
C2290 H2282 0.950 . S
C2290 C2288 1.391 . S
C2290 C2291 1.400 . S
C2291 C2290 1.400 . S
C2291 C2292 1.398 . S
C2291 C2297 1.491 . S
C2292 H2283 0.950 . S
C2292 C2291 1.398 . S
C2292 C2293 1.391 . S
C2293 H2281 0.950 . S
C2293 C2289 1.393 . S
C2293 C2292 1.391 . S
C2294 H2284 0.950 . S
C2294 C2295 1.386 . S
C2294 C2296 1.391 . S
C2295 C2294 1.386 . S
C2295 C2299 1.393 . S
C2296 H2285 0.950 . S
C2296 C2294 1.391 . S
C2296 C2297 1.400 . S
C2297 C2291 1.491 . S
C2297 C2296 1.400 . S
C2297 C2298 1.398 . S
C2298 H2286 0.950 . S
C2298 C2297 1.398 . S
C2298 C2299 1.391 . S
C2299 H2287 0.950 . S
C2299 C2295 1.393 . S
C2299 C2298 1.391 . S
H2300 C2308 0.950 . S
H2301 C2313 0.950 . S
H2302 C2310 0.950 . S
H2303 C2312 0.950 . S
H2304 C2314 0.950 . S
H2305 C2316 0.950 . S
H2306 C2318 0.950 . S
H2307 C2319 0.950 . S
C2308 H2300 0.950 . S
C2308 C2309 1.386 . S
C2308 C2310 1.391 . S
C2309 C2308 1.386 . S
C2309 C2313 1.393 . S
C2310 H2302 0.950 . S
C2310 C2308 1.391 . S
C2310 C2311 1.400 . S
C2311 C2310 1.400 . S
C2311 C2312 1.398 . S
C2311 C2317 1.491 . S
C2312 H2303 0.950 . S
C2312 C2311 1.398 . S
C2312 C2313 1.391 . S
C2313 H2301 0.950 . S
C2313 C2309 1.393 . S
C2313 C2312 1.391 . S
C2314 H2304 0.950 . S
C2314 C2315 1.386 . S
C2314 C2316 1.391 . S
C2315 C2314 1.386 . S
C2315 C2319 1.393 . S
C2316 H2305 0.950 . S
C2316 C2314 1.391 . S
C2316 C2317 1.400 . S
C2317 C2311 1.491 . S
C2317 C2316 1.400 . S
C2317 C2318 1.398 . S
C2318 H2306 0.950 . S
C2318 C2317 1.398 . S
C2318 C2319 1.391 . S
C2319 H2307 0.950 . S
C2319 C2315 1.393 . S
C2319 C2318 1.391 . S
H2320 C2328 0.942 1_455 S
H2321 C2333 0.950 . S
H2322 C2330 0.950 . S
H2323 C2332 0.950 . S
H2324 C2334 0.950 . S
H2325 C2336 0.950 . S
H2326 C2338 0.950 . S
H2327 C2339 0.950 . S
C2328 H2320 0.942 1_655 S
C2328 C2329 1.407 . S
C2328 C2330 1.378 1_655 S
C2329 C2328 1.407 . S
C2329 C2333 1.393 . S
C2330 H2322 0.950 . S
C2330 C2328 1.378 1_455 S
C2330 C2331 1.400 . S
C2331 C2330 1.400 . S
C2331 C2332 1.398 1_455 S
C2331 C2337 1.491 . S
C2332 H2323 0.950 . S
C2332 C2331 1.398 1_655 S
C2332 C2333 1.391 . S
C2333 H2321 0.950 . S
C2333 C2329 1.393 . S
C2333 C2332 1.391 . S
C2334 H2324 0.950 . S
C2334 C2335 1.386 . S
C2334 C2336 1.391 . S
C2335 C2334 1.386 . S
C2335 C2339 1.393 . S
C2336 H2325 0.950 . S
C2336 C2334 1.391 . S
C2336 C2337 1.400 . S
C2337 C2331 1.491 . S
C2337 C2336 1.400 . S
C2337 C2338 1.398 . S
C2338 H2326 0.950 . S
C2338 C2337 1.398 . S
C2338 C2339 1.391 . S
C2339 H2327 0.950 . S
C2339 C2335 1.393 . S
C2339 C2338 1.391 . S
H2340 C2348 0.950 . S
H2341 C2353 0.950 . S
H2342 C2350 0.950 . S
H2343 C2352 0.950 . S
H2344 C2354 0.950 . S
H2345 C2356 0.950 . S
H2346 C2358 0.950 . S
H2347 C2359 0.950 . S
C2348 H2340 0.950 . S
C2348 C2349 1.386 . S
C2348 C2350 1.391 . S
C2349 C2348 1.386 . S
C2349 C2353 1.393 . S
C2350 H2342 0.950 . S
C2350 C2348 1.391 . S
C2350 C2351 1.400 . S
C2351 C2350 1.400 . S
C2351 C2352 1.398 . S
C2351 C2357 1.491 . S
C2352 H2343 0.950 . S
C2352 C2351 1.398 . S
C2352 C2353 1.391 . S
C2353 H2341 0.950 . S
C2353 C2349 1.393 . S
C2353 C2352 1.391 . S
C2354 H2344 0.950 . S
C2354 C2355 1.386 . S
C2354 C2356 1.391 . S
C2355 C2354 1.386 . S
C2355 C2359 1.393 . S
C2356 H2345 0.950 . S
C2356 C2354 1.391 . S
C2356 C2357 1.400 . S
C2357 C2351 1.491 . S
C2357 C2356 1.400 . S
C2357 C2358 1.398 . S
C2358 H2346 0.950 . S
C2358 C2357 1.398 . S
C2358 C2359 1.391 . S
C2359 H2347 0.950 . S
C2359 C2355 1.393 . S
C2359 C2358 1.391 . S
H2360 C2368 0.950 . S
H2361 C2373 0.950 . S
H2362 C2370 0.950 . S
H2363 C2372 0.950 . S
H2364 C2374 0.950 . S
H2365 C2376 0.950 . S
H2366 C2378 0.950 . S
H2367 C2379 0.950 . S
C2368 H2360 0.950 . S
C2368 C2369 1.386 . S
C2368 C2370 1.391 . S
C2369 C2368 1.386 . S
C2369 C2373 1.393 . S
C2370 H2362 0.950 . S
C2370 C2368 1.391 . S
C2370 C2371 1.400 . S
C2371 C2370 1.400 . S
C2371 C2372 1.398 . S
C2371 C2377 1.491 . S
C2372 H2363 0.950 . S
C2372 C2371 1.398 . S
C2372 C2373 1.391 . S
C2373 H2361 0.950 . S
C2373 C2369 1.393 . S
C2373 C2372 1.391 . S
C2374 H2364 0.950 . S
C2374 C2375 1.386 . S
C2374 C2376 1.391 . S
C2375 C2374 1.386 . S
C2375 C2379 1.393 . S
C2376 H2365 0.950 . S
C2376 C2374 1.391 . S
C2376 C2377 1.400 . S
C2377 C2371 1.491 . S
C2377 C2376 1.400 . S
C2377 C2378 1.398 . S
C2378 H2366 0.950 . S
C2378 C2377 1.398 . S
C2378 C2379 1.391 . S
C2379 H2367 0.950 . S
C2379 C2375 1.393 . S
C2379 C2378 1.391 . S
H2380 C2388 0.950 . S
H2381 C2393 0.950 . S
H2382 C2390 0.950 . S
H2383 C2392 0.950 . S
H2384 C2394 0.950 . S
H2385 C2396 0.950 . S
H2386 C2398 0.950 . S
H2387 C2399 0.950 . S
C2388 H2380 0.950 . S
C2388 C2389 1.386 . S
C2388 C2390 1.391 . S
C2389 C2388 1.386 . S
C2389 C2393 1.393 . S
C2390 H2382 0.950 . S
C2390 C2388 1.391 . S
C2390 C2391 1.400 . S
C2391 C2390 1.400 . S
C2391 C2392 1.398 . S
C2391 C2397 1.491 . S
C2392 H2383 0.950 . S
C2392 C2391 1.398 . S
C2392 C2393 1.391 . S
C2393 H2381 0.950 . S
C2393 C2389 1.393 . S
C2393 C2392 1.391 . S
C2394 H2384 0.950 . S
C2394 C2395 1.386 . S
C2394 C2396 1.391 . S
C2395 C2394 1.386 . S
C2395 C2399 1.393 . S
C2396 H2385 0.950 . S
C2396 C2394 1.391 . S
C2396 C2397 1.400 . S
C2397 C2391 1.491 . S
C2397 C2396 1.400 . S
C2397 C2398 1.398 . S
C2398 H2386 0.950 . S
C2398 C2397 1.398 . S
C2398 C2399 1.391 . S
C2399 H2387 0.950 . S
C2399 C2395 1.393 . S
C2399 C2398 1.391 . S
H2400 C2408 0.950 . S
H2401 C2413 0.950 . S
H2402 C2410 0.950 . S
H2403 C2412 0.950 . S
H2404 C2414 0.950 . S
H2405 C2416 0.950 . S
H2406 C2418 0.900 1_455 S
H2407 C2419 0.950 . S
C2408 H2400 0.950 . S
C2408 C2409 1.386 . S
C2408 C2410 1.391 . S
C2409 C2408 1.386 . S
C2409 C2413 1.393 . S
C2410 H2402 0.950 . S
C2410 C2408 1.391 . S
C2410 C2411 1.400 . S
C2411 C2410 1.400 . S
C2411 C2412 1.398 1_455 S
C2411 C2417 1.491 1_455 S
C2412 H2403 0.950 . S
C2412 C2411 1.398 1_655 S
C2412 C2413 1.391 1_655 S
C2413 H2401 0.950 . S
C2413 C2409 1.393 . S
C2413 C2412 1.391 1_455 S
C2414 H2404 0.950 . S
C2414 C2415 1.386 . S
C2414 C2416 1.391 . S
C2415 C2414 1.386 . S
C2415 C2419 1.393 . S
C2416 H2405 0.950 . S
C2416 C2414 1.391 . S
C2416 C2417 1.400 . S
C2417 C2411 1.491 1_655 S
C2417 C2416 1.400 . S
C2417 C2418 1.416 . S
C2418 H2406 0.900 1_655 S
C2418 C2417 1.416 . S
C2418 C2419 1.424 . S
C2419 H2407 0.950 . S
C2419 C2415 1.393 . S
C2419 C2418 1.424 . S
H2420 C2428 0.950 . S
H2421 C2433 0.950 . S
H2422 C2430 0.950 . S
H2423 C2432 0.950 . S
H2424 C2434 0.950 . S
H2425 C2436 0.950 . S
H2426 C2438 0.950 . S
H2427 C2439 0.950 . S
C2428 H2420 0.950 . S
C2428 C2429 1.386 . S
C2428 C2430 1.391 . S
C2429 C2428 1.386 . S
C2429 C2433 1.393 . S
C2430 H2422 0.950 . S
C2430 C2428 1.391 . S
C2430 C2431 1.400 . S
C2431 C2430 1.400 . S
C2431 C2432 1.398 . S
C2431 C2437 1.491 . S
C2432 H2423 0.950 . S
C2432 C2431 1.398 . S
C2432 C2433 1.391 . S
C2433 H2421 0.950 . S
C2433 C2429 1.393 . S
C2433 C2432 1.391 . S
C2434 H2424 0.950 . S
C2434 C2435 1.386 . S
C2434 C2436 1.391 . S
C2435 C2434 1.386 . S
C2435 C2439 1.393 . S
C2436 H2425 0.950 . S
C2436 C2434 1.391 . S
C2436 C2437 1.400 . S
C2437 C2431 1.491 . S
C2437 C2436 1.400 . S
C2437 C2438 1.398 . S
C2438 H2426 0.950 . S
C2438 C2437 1.398 . S
C2438 C2439 1.391 . S
C2439 H2427 0.950 . S
C2439 C2435 1.393 . S
C2439 C2438 1.391 . S
H2440 C2448 0.950 . S
H2441 C2453 0.950 . S
H2442 C2450 0.950 . S
H2443 C2452 0.950 . S
H2444 C2454 0.950 . S
H2445 C2456 0.950 . S
H2446 C2458 0.950 . S
H2447 C2459 0.950 . S
C2448 H2440 0.950 . S
C2448 C2449 1.386 . S
C2448 C2450 1.391 . S
C2449 C2448 1.386 . S
C2449 C2453 1.393 . S
C2450 H2442 0.950 . S
C2450 C2448 1.391 . S
C2450 C2451 1.400 . S
C2451 C2450 1.400 . S
C2451 C2452 1.398 . S
C2451 C2457 1.491 . S
C2452 H2443 0.950 . S
C2452 C2451 1.398 . S
C2452 C2453 1.391 . S
C2453 H2441 0.950 . S
C2453 C2449 1.393 . S
C2453 C2452 1.391 . S
C2454 H2444 0.950 . S
C2454 C2455 1.386 . S
C2454 C2456 1.391 . S
C2455 C2454 1.386 . S
C2455 C2459 1.393 . S
C2456 H2445 0.950 . S
C2456 C2454 1.391 . S
C2456 C2457 1.400 . S
C2457 C2451 1.491 . S
C2457 C2456 1.400 . S
C2457 C2458 1.398 . S
C2458 H2446 0.950 . S
C2458 C2457 1.398 . S
C2458 C2459 1.391 . S
C2459 H2447 0.950 . S
C2459 C2455 1.393 . S
C2459 C2458 1.391 . S
H2460 C2468 0.950 . S
H2461 C2473 0.950 . S
H2462 C2470 0.950 . S
H2463 C2472 0.950 . S
H2464 C2474 0.950 . S
H2465 C2476 0.950 . S
H2466 C2478 0.950 . S
H2467 C2479 0.950 . S
C2468 H2460 0.950 . S
C2468 C2469 1.386 . S
C2468 C2470 1.391 . S
C2469 C2468 1.386 . S
C2469 C2473 1.393 . S
C2470 H2462 0.950 . S
C2470 C2468 1.391 . S
C2470 C2471 1.400 . S
C2471 C2470 1.400 . S
C2471 C2472 1.398 . S
C2471 C2477 1.491 . S
C2472 H2463 0.950 . S
C2472 C2471 1.398 . S
C2472 C2473 1.391 . S
C2473 H2461 0.950 . S
C2473 C2469 1.393 . S
C2473 C2472 1.391 . S
C2474 H2464 0.950 . S
C2474 C2475 1.386 . S
C2474 C2476 1.391 . S
C2475 C2474 1.386 . S
C2475 C2479 1.393 . S
C2476 H2465 0.950 . S
C2476 C2474 1.391 . S
C2476 C2477 1.400 . S
C2477 C2471 1.491 . S
C2477 C2476 1.400 . S
C2477 C2478 1.398 . S
C2478 H2466 0.950 . S
C2478 C2477 1.398 . S
C2478 C2479 1.391 . S
C2479 H2467 0.950 . S
C2479 C2475 1.393 . S
C2479 C2478 1.391 . S
H2480 C2488 0.950 . S
H2481 C2493 0.950 . S
H2482 C2490 0.950 . S
H2483 C2492 0.950 . S
H2484 C2494 0.950 . S
H2485 C2496 0.950 . S
H2486 C2498 0.950 . S
H2487 C2499 0.950 . S
C2488 H2480 0.950 . S
C2488 C2489 1.386 . S
C2488 C2490 1.391 1_455 S
C2489 C2488 1.386 . S
C2489 C2493 1.393 . S
C2490 H2482 0.950 . S
C2490 C2488 1.391 1_655 S
C2490 C2491 1.400 . S
C2491 C2490 1.400 . S
C2491 C2492 1.398 1_655 S
C2491 C2497 1.491 . S
C2492 H2483 0.950 . S
C2492 C2491 1.398 1_455 S
C2492 C2493 1.391 . S
C2493 H2481 0.950 . S
C2493 C2489 1.393 . S
C2493 C2492 1.391 . S
C2494 H2484 0.950 . S
C2494 C2495 1.386 . S
C2494 C2496 1.391 . S
C2495 C2494 1.386 . S
C2495 C2499 1.393 . S
C2496 H2485 0.950 . S
C2496 C2494 1.391 . S
C2496 C2497 1.400 . S
C2497 C2491 1.491 . S
C2497 C2496 1.400 . S
C2497 C2498 1.398 . S
C2498 H2486 0.950 . S
C2498 C2497 1.398 . S
C2498 C2499 1.391 . S
C2499 H2487 0.950 . S
C2499 C2495 1.393 . S
C2499 C2498 1.391 . S
H2500 C2508 0.950 . S
H2501 C2513 0.950 . S
H2502 C2510 0.950 . S
H2503 C2512 0.950 . S
H2504 C2514 0.950 . S
H2505 C2516 0.950 . S
H2506 C2518 0.950 . S
H2507 C2519 0.950 . S
C2508 H2500 0.950 . S
C2508 C2509 1.386 . S
C2508 C2510 1.391 . S
C2509 C2508 1.386 . S
C2509 C2513 1.393 . S
C2510 H2502 0.950 . S
C2510 C2508 1.391 . S
C2510 C2511 1.400 . S
C2511 C2510 1.400 . S
C2511 C2512 1.398 . S
C2511 C2517 1.491 . S
C2512 H2503 0.950 . S
C2512 C2511 1.398 . S
C2512 C2513 1.391 . S
C2513 H2501 0.950 . S
C2513 C2509 1.393 . S
C2513 C2512 1.391 . S
C2514 H2504 0.950 . S
C2514 C2515 1.386 . S
C2514 C2516 1.391 . S
C2515 C2514 1.386 . S
C2515 C2519 1.393 . S
C2516 H2505 0.950 . S
C2516 C2514 1.391 . S
C2516 C2517 1.400 . S
C2517 C2511 1.491 . S
C2517 C2516 1.400 . S
C2517 C2518 1.398 . S
C2518 H2506 0.950 . S
C2518 C2517 1.398 . S
C2518 C2519 1.391 . S
C2519 H2507 0.950 . S
C2519 C2515 1.393 . S
C2519 C2518 1.391 . S
H2520 C2528 0.949 . S
H2521 C2533 0.950 . S
H2522 C2530 0.950 . S
H2523 C2532 0.950 . S
H2524 C2534 0.950 . S
H2525 C2536 0.950 . S
H2526 C2538 0.950 . S
H2527 C2539 0.950 . S
C2528 H2520 0.949 . S
C2528 C2529 1.384 1_556 S
C2528 C2530 1.393 . S
C2529 C2528 1.384 1_554 S
C2529 C2533 1.393 . S
C2530 H2522 0.950 . S
C2530 C2528 1.393 . S
C2530 C2531 1.400 . S
C2531 C2530 1.400 . S
C2531 C2532 1.398 1_556 S
C2531 C2537 1.491 . S
C2532 H2523 0.950 . S
C2532 C2531 1.398 1_554 S
C2532 C2533 1.391 . S
C2533 H2521 0.950 . S
C2533 C2529 1.393 . S
C2533 C2532 1.391 . S
C2534 H2524 0.950 . S
C2534 C2535 1.386 . S
C2534 C2536 1.391 . S
C2535 C2534 1.386 . S
C2535 C2539 1.393 . S
C2536 H2525 0.950 . S
C2536 C2534 1.391 . S
C2536 C2537 1.400 . S
C2537 C2531 1.491 . S
C2537 C2536 1.400 . S
C2537 C2538 1.398 . S
C2538 H2526 0.950 . S
C2538 C2537 1.398 . S
C2538 C2539 1.391 . S
C2539 H2527 0.950 . S
C2539 C2535 1.393 . S
C2539 C2538 1.391 . S
H2540 C2548 0.950 . S
H2541 C2553 0.950 . S
H2542 C2550 0.950 . S
H2543 C2552 0.950 . S
H2544 C2554 0.950 . S
H2545 C2556 0.950 . S
H2546 C2558 0.950 . S
H2547 C2559 0.950 . S
C2548 H2540 0.950 . S
C2548 C2549 1.386 . S
C2548 C2550 1.391 . S
C2549 C2548 1.386 . S
C2549 C2553 1.393 . S
C2550 H2542 0.950 . S
C2550 C2548 1.391 . S
C2550 C2551 1.400 . S
C2551 C2550 1.400 . S
C2551 C2552 1.398 . S
C2551 C2557 1.491 . S
C2552 H2543 0.950 . S
C2552 C2551 1.398 . S
C2552 C2553 1.391 . S
C2553 H2541 0.950 . S
C2553 C2549 1.393 . S
C2553 C2552 1.391 . S
C2554 H2544 0.950 . S
C2554 C2555 1.386 . S
C2554 C2556 1.391 . S
C2555 C2554 1.386 . S
C2555 C2559 1.393 . S
C2556 H2545 0.950 . S
C2556 C2554 1.391 . S
C2556 C2557 1.400 . S
C2557 C2551 1.491 . S
C2557 C2556 1.400 . S
C2557 C2558 1.398 . S
C2558 H2546 0.950 . S
C2558 C2557 1.398 . S
C2558 C2559 1.391 . S
C2559 H2547 0.950 . S
C2559 C2555 1.393 . S
C2559 C2558 1.391 . S
H2560 C2568 0.950 . S
H2561 C2573 0.950 . S
H2562 C2570 0.950 . S
H2563 C2572 0.950 . S
H2564 C2574 0.950 . S
H2565 C2576 0.950 . S
H2566 C2578 0.950 . S
H2567 C2579 0.950 . S
C2568 H2560 0.950 . S
C2568 C2569 1.386 . S
C2568 C2570 1.391 . S
C2569 C2568 1.386 . S
C2569 C2573 1.393 . S
C2570 H2562 0.950 . S
C2570 C2568 1.391 . S
C2570 C2571 1.400 . S
C2571 C2570 1.400 . S
C2571 C2572 1.398 . S
C2571 C2577 1.491 . S
C2572 H2563 0.950 . S
C2572 C2571 1.398 . S
C2572 C2573 1.391 . S
C2573 H2561 0.950 . S
C2573 C2569 1.393 . S
C2573 C2572 1.391 . S
C2574 H2564 0.950 . S
C2574 C2575 1.386 . S
C2574 C2576 1.391 . S
C2575 C2574 1.386 . S
C2575 C2579 1.393 . S
C2576 H2565 0.950 . S
C2576 C2574 1.391 . S
C2576 C2577 1.400 . S
C2577 C2571 1.491 . S
C2577 C2576 1.400 . S
C2577 C2578 1.398 . S
C2578 H2566 0.950 . S
C2578 C2577 1.398 . S
C2578 C2579 1.391 . S
C2579 H2567 0.950 . S
C2579 C2575 1.393 . S
C2579 C2578 1.391 . S
H2580 C2588 0.950 . S
H2581 C2593 0.950 . S
H2582 C2590 0.950 . S
H2583 C2592 0.950 . S
H2584 C2594 0.950 . S
H2585 C2596 0.950 . S
H2586 C2598 0.950 . S
H2587 C2599 0.950 . S
C2588 H2580 0.950 . S
C2588 C2589 1.386 . S
C2588 C2590 1.391 . S
C2589 C2588 1.386 . S
C2589 C2593 1.393 . S
C2590 H2582 0.950 . S
C2590 C2588 1.391 . S
C2590 C2591 1.400 . S
C2591 C2590 1.400 . S
C2591 C2592 1.398 . S
C2591 C2597 1.491 . S
C2592 H2583 0.950 . S
C2592 C2591 1.398 . S
C2592 C2593 1.391 . S
C2593 H2581 0.950 . S
C2593 C2589 1.393 . S
C2593 C2592 1.391 . S
C2594 H2584 0.950 . S
C2594 C2595 1.386 . S
C2594 C2596 1.391 . S
C2595 C2594 1.386 . S
C2595 C2599 1.393 . S
C2596 H2585 0.950 . S
C2596 C2594 1.391 . S
C2596 C2597 1.400 . S
C2597 C2591 1.491 . S
C2597 C2596 1.400 . S
C2597 C2598 1.398 . S
C2598 H2586 0.950 . S
C2598 C2597 1.398 . S
C2598 C2599 1.391 . S
C2599 H2587 0.950 . S
C2599 C2595 1.393 . S
C2599 C2598 1.391 . S
H2600 C2608 0.950 . S
H2601 C2613 0.950 . S
H2602 C2610 0.950 . S
H2603 C2612 0.950 . S
H2604 C2614 0.950 . S
H2605 C2616 0.950 1_655 S
H2606 C2618 0.950 . S
H2607 C2619 0.950 . S
C2608 H2600 0.950 . S
C2608 C2609 1.386 . S
C2608 C2610 1.391 1_654 S
C2609 C2608 1.386 . S
C2609 C2613 1.393 1_554 S
C2610 H2602 0.950 . S
C2610 C2608 1.391 1_456 S
C2610 C2611 1.400 1_455 S
C2611 C2610 1.400 1_655 S
C2611 C2612 1.398 . S
C2611 C2617 1.491 1_655 S
C2612 H2603 0.950 . S
C2612 C2611 1.398 . S
C2612 C2613 1.391 . S
C2613 H2601 0.950 . S
C2613 C2609 1.393 1_556 S
C2613 C2612 1.391 . S
C2614 H2604 0.950 . S
C2614 C2615 1.386 . S
C2614 C2616 1.391 . S
C2615 C2614 1.386 . S
C2615 C2619 1.393 . S
C2616 H2605 0.950 1_455 S
C2616 C2614 1.391 . S
C2616 C2617 1.400 . S
C2617 C2611 1.491 1_455 S
C2617 C2616 1.400 . S
C2617 C2618 1.398 . S
C2618 H2606 0.950 . S
C2618 C2617 1.398 . S
C2618 C2619 1.391 . S
C2619 H2607 0.950 . S
C2619 C2615 1.393 . S
C2619 C2618 1.391 . S
H2620 C2628 0.950 . S
H2621 C2633 0.950 . S
H2622 C2630 0.950 . S
H2623 C2632 0.950 . S
H2624 C2634 0.950 . S
H2625 C2636 0.950 . S
H2626 C2638 0.950 . S
H2627 C2639 0.950 . S
C2628 H2620 0.950 . S
C2628 C2629 1.386 . S
C2628 C2630 1.391 1_556 S
C2629 C2628 1.386 . S
C2629 C2633 1.393 1_556 S
C2630 H2622 0.950 . S
C2630 C2628 1.391 1_554 S
C2630 C2631 1.400 . S
C2631 C2630 1.400 . S
C2631 C2632 1.398 . S
C2631 C2637 1.491 . S
C2632 H2623 0.950 . S
C2632 C2631 1.398 . S
C2632 C2633 1.391 . S
C2633 H2621 0.950 . S
C2633 C2629 1.393 1_554 S
C2633 C2632 1.391 . S
C2634 H2624 0.950 . S
C2634 C2635 1.386 . S
C2634 C2636 1.391 . S
C2635 C2634 1.386 . S
C2635 C2639 1.393 . S
C2636 H2625 0.950 . S
C2636 C2634 1.391 . S
C2636 C2637 1.400 . S
C2637 C2631 1.491 . S
C2637 C2636 1.400 . S
C2637 C2638 1.398 . S
C2638 H2626 0.950 . S
C2638 C2637 1.398 . S
C2638 C2639 1.391 . S
C2639 H2627 0.950 . S
C2639 C2635 1.393 . S
C2639 C2638 1.391 . S
H2640 C2648 0.950 . S
H2641 C2653 0.950 . S
H2642 C2650 0.950 . S
H2643 C2652 0.950 . S
H2644 C2654 0.950 . S
H2645 C2656 0.950 . S
H2646 C2658 0.950 . S
H2647 C2659 0.950 . S
C2648 H2640 0.950 . S
C2648 C2649 1.386 . S
C2648 C2650 1.391 . S
C2649 C2648 1.386 . S
C2649 C2653 1.393 . S
C2650 H2642 0.950 . S
C2650 C2648 1.391 . S
C2650 C2651 1.400 . S
C2651 C2650 1.400 . S
C2651 C2652 1.398 . S
C2651 C2657 1.491 . S
C2652 H2643 0.950 . S
C2652 C2651 1.398 . S
C2652 C2653 1.391 . S
C2653 H2641 0.950 . S
C2653 C2649 1.393 . S
C2653 C2652 1.391 . S
C2654 H2644 0.950 . S
C2654 C2655 1.386 . S
C2654 C2656 1.391 . S
C2655 C2654 1.386 . S
C2655 C2659 1.393 . S
C2656 H2645 0.950 . S
C2656 C2654 1.391 . S
C2656 C2657 1.400 . S
C2657 C2651 1.491 . S
C2657 C2656 1.400 . S
C2657 C2658 1.398 . S
C2658 H2646 0.950 . S
C2658 C2657 1.398 . S
C2658 C2659 1.391 . S
C2659 H2647 0.950 . S
C2659 C2655 1.393 . S
C2659 C2658 1.391 . S
H2660 C2668 0.950 . S
H2661 C2673 0.950 . S
H2662 C2670 0.950 . S
H2663 C2672 0.950 . S
H2664 C2674 0.950 . S
H2665 C2676 0.950 . S
H2666 C2678 0.950 . S
H2667 C2679 0.950 . S
C2668 H2660 0.950 . S
C2668 C2669 1.386 . S
C2668 C2670 1.391 . S
C2669 C2668 1.386 . S
C2669 C2673 1.393 . S
C2670 H2662 0.950 . S
C2670 C2668 1.391 . S
C2670 C2671 1.400 . S
C2671 C2670 1.400 . S
C2671 C2672 1.398 . S
C2671 C2677 1.491 . S
C2672 H2663 0.950 . S
C2672 C2671 1.398 . S
C2672 C2673 1.391 . S
C2673 H2661 0.950 . S
C2673 C2669 1.393 . S
C2673 C2672 1.391 . S
C2674 H2664 0.950 . S
C2674 C2675 1.386 . S
C2674 C2676 1.391 . S
C2675 C2674 1.386 . S
C2675 C2679 1.393 . S
C2676 H2665 0.950 . S
C2676 C2674 1.391 . S
C2676 C2677 1.400 . S
C2677 C2671 1.491 . S
C2677 C2676 1.400 . S
C2677 C2678 1.398 . S
C2678 H2666 0.950 . S
C2678 C2677 1.398 . S
C2678 C2679 1.391 . S
C2679 H2667 0.950 . S
C2679 C2675 1.393 . S
C2679 C2678 1.391 . S
H2680 C2688 0.950 . S
H2681 C2693 0.950 . S
H2682 C2690 0.950 . S
H2683 C2692 0.950 . S
H2684 C2694 0.950 . S
H2685 C2696 0.950 . S
H2686 C2698 0.950 . S
H2687 C2699 0.950 . S
C2688 H2680 0.950 . S
C2688 C2689 1.386 1_655 S
C2688 C2690 1.391 . S
C2689 C2688 1.386 1_455 S
C2689 C2693 1.393 . S
C2690 H2682 0.950 . S
C2690 C2688 1.391 . S
C2690 C2691 1.400 . S
C2691 C2690 1.400 . S
C2691 C2692 1.398 1_655 S
C2691 C2697 1.491 . S
C2692 H2683 0.950 . S
C2692 C2691 1.398 1_455 S
C2692 C2693 1.391 . S
C2693 H2681 0.950 . S
C2693 C2689 1.393 . S
C2693 C2692 1.391 . S
C2694 H2684 0.950 . S
C2694 C2695 1.386 . S
C2694 C2696 1.391 . S
C2695 C2694 1.386 . S
C2695 C2699 1.393 . S
C2696 H2685 0.950 . S
C2696 C2694 1.391 . S
C2696 C2697 1.400 . S
C2697 C2691 1.491 . S
C2697 C2696 1.400 . S
C2697 C2698 1.398 . S
C2698 H2686 0.950 . S
C2698 C2697 1.398 . S
C2698 C2699 1.391 . S
C2699 H2687 0.950 . S
C2699 C2695 1.393 . S
C2699 C2698 1.391 . S
H2700 C2708 0.950 . S
H2701 C2713 0.950 . S
H2702 C2710 0.950 . S
H2703 C2712 0.950 . S
H2704 C2714 0.950 . S
H2705 C2716 0.950 . S
H2706 C2718 0.950 . S
H2707 C2719 0.950 . S
C2708 H2700 0.950 . S
C2708 C2709 1.386 . S
C2708 C2710 1.391 . S
C2709 C2708 1.386 . S
C2709 C2713 1.393 . S
C2710 H2702 0.950 . S
C2710 C2708 1.391 . S
C2710 C2711 1.400 . S
C2711 C2710 1.400 . S
C2711 C2712 1.398 . S
C2711 C2717 1.491 . S
C2712 H2703 0.950 . S
C2712 C2711 1.398 . S
C2712 C2713 1.391 . S
C2713 H2701 0.950 . S
C2713 C2709 1.393 . S
C2713 C2712 1.391 . S
C2714 H2704 0.950 . S
C2714 C2715 1.386 . S
C2714 C2716 1.391 . S
C2715 C2714 1.386 . S
C2715 C2719 1.393 . S
C2716 H2705 0.950 . S
C2716 C2714 1.391 . S
C2716 C2717 1.400 . S
C2717 C2711 1.491 . S
C2717 C2716 1.400 . S
C2717 C2718 1.398 . S
C2718 H2706 0.950 . S
C2718 C2717 1.398 . S
C2718 C2719 1.391 . S
C2719 H2707 0.950 . S
C2719 C2715 1.393 . S
C2719 C2718 1.391 . S
H2720 C2728 0.950 . S
H2721 C2733 0.950 . S
H2722 C2730 0.950 . S
H2723 C2732 0.950 . S
H2724 C2734 0.950 . S
H2725 C2736 0.950 . S
H2726 C2738 0.950 . S
H2727 C2739 0.950 . S
C2728 H2720 0.950 . S
C2728 C2729 1.386 . S
C2728 C2730 1.391 . S
C2729 C2728 1.386 . S
C2729 C2733 1.393 . S
C2730 H2722 0.950 . S
C2730 C2728 1.391 . S
C2730 C2731 1.400 . S
C2731 C2730 1.400 . S
C2731 C2732 1.398 . S
C2731 C2737 1.491 . S
C2732 H2723 0.950 . S
C2732 C2731 1.398 . S
C2732 C2733 1.391 . S
C2733 H2721 0.950 . S
C2733 C2729 1.393 . S
C2733 C2732 1.391 . S
C2734 H2724 0.950 . S
C2734 C2735 1.386 . S
C2734 C2736 1.391 . S
C2735 C2734 1.386 . S
C2735 C2739 1.393 . S
C2736 H2725 0.950 . S
C2736 C2734 1.391 . S
C2736 C2737 1.400 . S
C2737 C2731 1.491 . S
C2737 C2736 1.400 . S
C2737 C2738 1.398 . S
C2738 H2726 0.950 . S
C2738 C2737 1.398 . S
C2738 C2739 1.391 . S
C2739 H2727 0.950 . S
C2739 C2735 1.393 . S
C2739 C2738 1.391 . S
H2740 C2748 0.950 . S
H2741 C2753 0.950 . S
H2742 C2750 0.950 . S
H2743 C2752 0.950 . S
H2744 C2754 0.950 . S
H2745 C2756 0.950 . S
H2746 C2758 0.950 . S
H2747 C2759 0.950 . S
C2748 H2740 0.950 . S
C2748 C2749 1.386 . S
C2748 C2750 1.391 . S
C2749 C2748 1.386 . S
C2749 C2753 1.393 . S
C2750 H2742 0.950 . S
C2750 C2748 1.391 . S
C2750 C2751 1.400 . S
C2751 C2750 1.400 . S
C2751 C2752 1.398 . S
C2751 C2757 1.491 . S
C2752 H2743 0.950 . S
C2752 C2751 1.398 . S
C2752 C2753 1.391 . S
C2753 H2741 0.950 . S
C2753 C2749 1.393 . S
C2753 C2752 1.391 . S
C2754 H2744 0.950 . S
C2754 C2755 1.386 . S
C2754 C2756 1.391 . S
C2755 C2754 1.386 . S
C2755 C2759 1.393 . S
C2756 H2745 0.950 . S
C2756 C2754 1.391 . S
C2756 C2757 1.400 . S
C2757 C2751 1.491 . S
C2757 C2756 1.400 . S
C2757 C2758 1.398 . S
C2758 H2746 0.950 . S
C2758 C2757 1.398 . S
C2758 C2759 1.391 . S
C2759 H2747 0.950 . S
C2759 C2755 1.393 . S
C2759 C2758 1.391 . S
H2760 C2768 0.950 1_655 S
H2761 C2773 0.950 . S
H2762 C2770 0.950 . S
H2763 C2772 0.950 . S
H2764 C2774 0.950 . S
H2765 C2776 0.946 1_455 S
H2766 C2778 0.950 . S
H2767 C2779 0.950 . S
C2768 H2760 0.950 1_455 S
C2768 C2769 1.386 . S
C2768 C2770 1.391 1_455 S
C2769 C2768 1.386 . S
C2769 C2773 1.393 . S
C2770 H2762 0.950 . S
C2770 C2768 1.391 1_655 S
C2770 C2771 1.400 1_655 S
C2771 C2770 1.400 1_455 S
C2771 C2772 1.398 . S
C2771 C2777 1.491 1_455 S
C2772 H2763 0.950 . S
C2772 C2771 1.398 . S
C2772 C2773 1.391 . S
C2773 H2761 0.950 . S
C2773 C2769 1.393 . S
C2773 C2772 1.391 . S
C2774 H2764 0.950 . S
C2774 C2775 1.386 . S
C2774 C2776 1.393 . S
C2775 C2774 1.386 . S
C2775 C2779 1.393 . S
C2776 H2765 0.946 1_655 S
C2776 C2774 1.393 . S
C2776 C2777 1.402 . S
C2777 C2771 1.491 1_655 S
C2777 C2776 1.402 . S
C2777 C2778 1.398 . S
C2778 H2766 0.950 . S
C2778 C2777 1.398 . S
C2778 C2779 1.391 . S
C2779 H2767 0.950 . S
C2779 C2775 1.393 . S
C2779 C2778 1.391 . S
H2780 C2788 0.950 . S
H2781 C2793 0.950 . S
H2782 C2790 0.950 . S
H2783 C2792 0.950 . S
H2784 C2794 0.950 . S
H2785 C2796 0.950 . S
H2786 C2798 0.950 . S
H2787 C2799 0.950 . S
C2788 H2780 0.950 . S
C2788 C2789 1.386 . S
C2788 C2790 1.391 . S
C2789 C2788 1.386 . S
C2789 C2793 1.393 . S
C2790 H2782 0.950 . S
C2790 C2788 1.391 . S
C2790 C2791 1.400 . S
C2791 C2790 1.400 . S
C2791 C2792 1.398 . S
C2791 C2797 1.491 . S
C2792 H2783 0.950 . S
C2792 C2791 1.398 . S
C2792 C2793 1.391 . S
C2793 H2781 0.950 . S
C2793 C2789 1.393 . S
C2793 C2792 1.391 . S
C2794 H2784 0.950 . S
C2794 C2795 1.386 . S
C2794 C2796 1.391 . S
C2795 C2794 1.386 . S
C2795 C2799 1.393 . S
C2796 H2785 0.950 . S
C2796 C2794 1.391 . S
C2796 C2797 1.400 . S
C2797 C2791 1.491 . S
C2797 C2796 1.400 . S
C2797 C2798 1.398 . S
C2798 H2786 0.950 . S
C2798 C2797 1.398 . S
C2798 C2799 1.391 . S
C2799 H2787 0.950 . S
C2799 C2795 1.393 . S
C2799 C2798 1.391 . S
H2800 C2808 0.950 . S
H2801 C2813 0.950 . S
H2802 C2810 0.950 . S
H2803 C2812 0.950 . S
H2804 C2814 0.950 . S
H2805 C2816 0.950 . S
H2806 C2818 0.950 . S
H2807 C2819 0.950 . S
C2808 H2800 0.950 . S
C2808 C2809 1.386 . S
C2808 C2810 1.391 . S
C2809 C2808 1.386 . S
C2809 C2813 1.393 . S
C2810 H2802 0.950 . S
C2810 C2808 1.391 . S
C2810 C2811 1.400 . S
C2811 C2810 1.400 . S
C2811 C2812 1.398 . S
C2811 C2817 1.491 . S
C2812 H2803 0.950 . S
C2812 C2811 1.398 . S
C2812 C2813 1.391 . S
C2813 H2801 0.950 . S
C2813 C2809 1.393 . S
C2813 C2812 1.391 . S
C2814 H2804 0.950 . S
C2814 C2815 1.386 1_556 S
C2814 C2816 1.391 . S
C2815 C2814 1.386 1_554 S
C2815 C2819 1.393 . S
C2816 H2805 0.950 . S
C2816 C2814 1.391 . S
C2816 C2817 1.400 . S
C2817 C2811 1.491 . S
C2817 C2816 1.400 . S
C2817 C2818 1.398 . S
C2818 H2806 0.950 . S
C2818 C2817 1.398 . S
C2818 C2819 1.391 1_556 S
C2819 H2807 0.950 . S
C2819 C2815 1.393 . S
C2819 C2818 1.391 1_554 S
H2820 C2828 0.950 . S
H2821 C2833 0.950 . S
H2822 C2830 0.950 . S
H2823 C2832 0.950 . S
H2824 C2834 0.950 . S
H2825 C2836 0.950 . S
H2826 C2838 0.950 . S
H2827 C2839 0.950 . S
C2828 H2820 0.950 . S
C2828 C2829 1.386 . S
C2828 C2830 1.391 . S
C2829 C2828 1.386 . S
C2829 C2833 1.393 . S
C2830 H2822 0.950 . S
C2830 C2828 1.391 . S
C2830 C2831 1.400 . S
C2831 C2830 1.400 . S
C2831 C2832 1.398 . S
C2831 C2837 1.491 . S
C2832 H2823 0.950 . S
C2832 C2831 1.398 . S
C2832 C2833 1.391 . S
C2833 H2821 0.950 . S
C2833 C2829 1.393 . S
C2833 C2832 1.391 . S
C2834 H2824 0.950 . S
C2834 C2835 1.386 . S
C2834 C2836 1.391 . S
C2835 C2834 1.386 . S
C2835 C2839 1.393 . S
C2836 H2825 0.950 . S
C2836 C2834 1.391 . S
C2836 C2837 1.400 . S
C2837 C2831 1.491 . S
C2837 C2836 1.400 . S
C2837 C2838 1.398 . S
C2838 H2826 0.950 . S
C2838 C2837 1.398 . S
C2838 C2839 1.391 . S
C2839 H2827 0.950 . S
C2839 C2835 1.393 . S
C2839 C2838 1.391 . S
H2840 C2848 0.950 . S
H2841 C2853 0.950 . S
H2842 C2850 0.950 . S
H2843 C2852 0.950 . S
H2844 C2854 0.950 . S
H2845 C2856 0.950 . S
H2846 C2858 0.950 . S
H2847 C2859 0.950 . S
C2848 H2840 0.950 . S
C2848 C2849 1.386 . S
C2848 C2850 1.391 . S
C2849 C2848 1.386 . S
C2849 C2853 1.393 . S
C2850 H2842 0.950 . S
C2850 C2848 1.391 . S
C2850 C2851 1.400 . S
C2851 C2850 1.400 . S
C2851 C2852 1.398 . S
C2851 C2857 1.491 . S
C2852 H2843 0.950 . S
C2852 C2851 1.398 . S
C2852 C2853 1.391 . S
C2853 H2841 0.950 . S
C2853 C2849 1.393 . S
C2853 C2852 1.391 . S
C2854 H2844 0.950 . S
C2854 C2855 1.386 1_455 S
C2854 C2856 1.391 . S
C2855 C2854 1.386 1_655 S
C2855 C2859 1.393 . S
C2856 H2845 0.950 . S
C2856 C2854 1.391 . S
C2856 C2857 1.400 . S
C2857 C2851 1.491 . S
C2857 C2856 1.400 . S
C2857 C2858 1.398 1_455 S
C2858 H2846 0.950 . S
C2858 C2857 1.398 1_655 S
C2858 C2859 1.391 . S
C2859 H2847 0.950 . S
C2859 C2855 1.393 . S
C2859 C2858 1.391 . S
H2860 C2868 0.950 . S
H2861 C2873 0.950 . S
H2862 C2870 0.950 . S
H2863 C2872 0.950 . S
H2864 C2874 0.950 . S
H2865 C2876 0.950 . S
H2866 C2878 0.950 . S
H2867 C2879 0.950 . S
C2868 H2860 0.950 . S
C2868 C2869 1.386 1_554 S
C2868 C2870 1.391 . S
C2869 C2868 1.386 1_556 S
C2869 C2873 1.393 . S
C2870 H2862 0.950 . S
C2870 C2868 1.391 . S
C2870 C2871 1.400 . S
C2871 C2870 1.400 . S
C2871 C2872 1.398 . S
C2871 C2877 1.491 . S
C2872 H2863 0.950 . S
C2872 C2871 1.398 . S
C2872 C2873 1.391 1_554 S
C2873 H2861 0.950 . S
C2873 C2869 1.393 . S
C2873 C2872 1.391 1_556 S
C2874 H2864 0.950 . S
C2874 C2875 1.386 . S
C2874 C2876 1.391 . S
C2875 C2874 1.386 . S
C2875 C2879 1.393 . S
C2876 H2865 0.950 . S
C2876 C2874 1.391 . S
C2876 C2877 1.400 . S
C2877 C2871 1.491 . S
C2877 C2876 1.400 . S
C2877 C2878 1.398 . S
C2878 H2866 0.950 . S
C2878 C2877 1.398 . S
C2878 C2879 1.391 . S
C2879 H2867 0.950 . S
C2879 C2875 1.393 . S
C2879 C2878 1.391 . S
H2880 C2888 0.950 . S
H2881 C2893 0.950 . S
H2882 C2890 0.950 . S
H2883 C2892 0.950 . S
H2884 C2894 0.950 . S
H2885 C2896 0.950 . S
H2886 C2898 0.950 . S
H2887 C2899 0.950 . S
C2888 H2880 0.950 . S
C2888 C2889 1.386 . S
C2888 C2890 1.391 . S
C2889 C2888 1.386 . S
C2889 C2893 1.393 . S
C2890 H2882 0.950 . S
C2890 C2888 1.391 . S
C2890 C2891 1.400 . S
C2891 C2890 1.400 . S
C2891 C2892 1.398 . S
C2891 C2897 1.491 . S
C2892 H2883 0.950 . S
C2892 C2891 1.398 . S
C2892 C2893 1.391 . S
C2893 H2881 0.950 . S
C2893 C2889 1.393 . S
C2893 C2892 1.391 . S
C2894 H2884 0.950 . S
C2894 C2895 1.386 . S
C2894 C2896 1.391 . S
C2895 C2894 1.386 . S
C2895 C2899 1.393 . S
C2896 H2885 0.950 . S
C2896 C2894 1.391 . S
C2896 C2897 1.400 . S
C2897 C2891 1.491 . S
C2897 C2896 1.400 . S
C2897 C2898 1.398 . S
C2898 H2886 0.950 . S
C2898 C2897 1.398 . S
C2898 C2899 1.391 . S
C2899 H2887 0.950 . S
C2899 C2895 1.393 . S
C2899 C2898 1.391 . S
H2900 C2908 0.950 . S
H2901 C2913 0.950 . S
H2902 C2910 0.950 . S
H2903 C2912 0.950 . S
H2904 C2914 0.950 . S
H2905 C2916 0.950 . S
H2906 C2918 0.950 . S
H2907 C2919 0.950 . S
C2908 H2900 0.950 . S
C2908 C2909 1.386 . S
C2908 C2910 1.391 1_556 S
C2909 C2908 1.386 . S
C2909 C2913 1.393 . S
C2910 H2902 0.950 . S
C2910 C2908 1.391 1_554 S
C2910 C2911 1.400 . S
C2911 C2910 1.400 . S
C2911 C2912 1.398 1_554 S
C2911 C2917 1.491 . S
C2912 H2903 0.950 . S
C2912 C2911 1.398 1_556 S
C2912 C2913 1.391 . S
C2913 H2901 0.950 . S
C2913 C2909 1.393 . S
C2913 C2912 1.391 . S
C2914 H2904 0.950 . S
C2914 C2915 1.386 . S
C2914 C2916 1.391 . S
C2915 C2914 1.386 . S
C2915 C2919 1.393 . S
C2916 H2905 0.950 . S
C2916 C2914 1.391 . S
C2916 C2917 1.400 . S
C2917 C2911 1.491 . S
C2917 C2916 1.400 . S
C2917 C2918 1.398 . S
C2918 H2906 0.950 . S
C2918 C2917 1.398 . S
C2918 C2919 1.391 . S
C2919 H2907 0.950 . S
C2919 C2915 1.393 . S
C2919 C2918 1.391 . S
H2920 C2928 0.950 . S
H2921 C2933 0.950 . S
H2922 C2930 0.950 . S
H2923 C2932 0.950 . S
H2924 C2934 0.950 . S
H2925 C2936 0.950 . S
H2926 C2938 0.950 . S
H2927 C2939 0.950 . S
C2928 H2920 0.950 . S
C2928 C2929 1.386 . S
C2928 C2930 1.391 . S
C2929 C2928 1.386 . S
C2929 C2933 1.393 . S
C2930 H2922 0.950 . S
C2930 C2928 1.391 . S
C2930 C2931 1.400 . S
C2931 C2930 1.400 . S
C2931 C2932 1.398 . S
C2931 C2937 1.491 . S
C2932 H2923 0.950 . S
C2932 C2931 1.398 . S
C2932 C2933 1.391 . S
C2933 H2921 0.950 . S
C2933 C2929 1.393 . S
C2933 C2932 1.391 . S
C2934 H2924 0.950 . S
C2934 C2935 1.386 . S
C2934 C2936 1.391 . S
C2935 C2934 1.386 . S
C2935 C2939 1.393 . S
C2936 H2925 0.950 . S
C2936 C2934 1.391 . S
C2936 C2937 1.400 . S
C2937 C2931 1.491 . S
C2937 C2936 1.400 . S
C2937 C2938 1.398 . S
C2938 H2926 0.950 . S
C2938 C2937 1.398 . S
C2938 C2939 1.391 . S
C2939 H2927 0.950 . S
C2939 C2935 1.393 . S
C2939 C2938 1.391 . S
H2940 C2948 0.950 . S
H2941 C2953 0.950 . S
H2942 C2950 0.950 . S
H2943 C2952 0.950 . S
H2944 C2954 0.950 . S
H2945 C2956 0.950 . S
H2946 C2958 0.950 . S
H2947 C2959 0.950 . S
C2948 H2940 0.950 . S
C2948 C2949 1.386 . S
C2948 C2950 1.391 . S
C2949 C2948 1.386 . S
C2949 C2953 1.393 . S
C2950 H2942 0.950 . S
C2950 C2948 1.391 . S
C2950 C2951 1.400 . S
C2951 C2950 1.400 . S
C2951 C2952 1.398 . S
C2951 C2957 1.491 . S
C2952 H2943 0.950 . S
C2952 C2951 1.398 . S
C2952 C2953 1.391 . S
C2953 H2941 0.950 . S
C2953 C2949 1.393 . S
C2953 C2952 1.391 . S
C2954 H2944 0.950 . S
C2954 C2955 1.386 . S
C2954 C2956 1.391 . S
C2955 C2954 1.386 . S
C2955 C2959 1.393 . S
C2956 H2945 0.950 . S
C2956 C2954 1.391 . S
C2956 C2957 1.400 . S
C2957 C2951 1.491 . S
C2957 C2956 1.400 . S
C2957 C2958 1.398 . S
C2958 H2946 0.950 . S
C2958 C2957 1.398 . S
C2958 C2959 1.391 . S
C2959 H2947 0.950 . S
C2959 C2955 1.393 . S
C2959 C2958 1.391 . S
H2960 C2968 0.950 . S
H2961 C2973 0.950 . S
H2962 C2970 0.950 . S
H2963 C2972 0.950 . S
H2964 C2974 0.950 . S
H2965 C2976 0.950 . S
H2966 C2978 0.950 . S
H2967 C2979 0.950 . S
C2968 H2960 0.950 . S
C2968 C2969 1.386 . S
C2968 C2970 1.391 . S
C2969 C2968 1.386 . S
C2969 C2973 1.393 . S
C2970 H2962 0.950 . S
C2970 C2968 1.391 . S
C2970 C2971 1.400 . S
C2971 C2970 1.400 . S
C2971 C2972 1.398 . S
C2971 C2977 1.491 . S
C2972 H2963 0.950 . S
C2972 C2971 1.398 . S
C2972 C2973 1.391 . S
C2973 H2961 0.950 . S
C2973 C2969 1.393 . S
C2973 C2972 1.391 . S
C2974 H2964 0.950 . S
C2974 C2975 1.386 . S
C2974 C2976 1.391 . S
C2975 C2974 1.386 . S
C2975 C2979 1.393 . S
C2976 H2965 0.950 . S
C2976 C2974 1.391 . S
C2976 C2977 1.400 . S
C2977 C2971 1.491 . S
C2977 C2976 1.400 . S
C2977 C2978 1.398 . S
C2978 H2966 0.950 . S
C2978 C2977 1.398 . S
C2978 C2979 1.391 . S
C2979 H2967 0.950 . S
C2979 C2975 1.393 . S
C2979 C2978 1.391 . S
H2980 C2988 0.950 . S
H2981 C2993 0.950 . S
H2982 C2990 0.950 . S
H2983 C2992 0.950 . S
H2984 C2994 0.950 . S
H2985 C2996 0.950 . S
H2986 C2998 0.950 . S
H2987 C2999 0.950 . S
C2988 H2980 0.950 . S
C2988 C2989 1.386 . S
C2988 C2990 1.391 . S
C2989 C2988 1.386 . S
C2989 C2993 1.393 . S
C2990 H2982 0.950 . S
C2990 C2988 1.391 . S
C2990 C2991 1.400 . S
C2991 C2990 1.400 . S
C2991 C2992 1.398 . S
C2991 C2997 1.491 . S
C2992 H2983 0.950 . S
C2992 C2991 1.398 . S
C2992 C2993 1.391 . S
C2993 H2981 0.950 . S
C2993 C2989 1.393 . S
C2993 C2992 1.391 . S
C2994 H2984 0.950 . S
C2994 C2995 1.386 . S
C2994 C2996 1.391 . S
C2995 C2994 1.386 . S
C2995 C2999 1.393 . S
C2996 H2985 0.950 . S
C2996 C2994 1.391 . S
C2996 C2997 1.400 . S
C2997 C2991 1.491 . S
C2997 C2996 1.400 . S
C2997 C2998 1.398 . S
C2998 H2986 0.950 . S
C2998 C2997 1.398 . S
C2998 C2999 1.391 . S
C2999 H2987 0.950 . S
C2999 C2995 1.393 . S
C2999 C2998 1.391 . S
H3000 C3008 0.950 . S
H3001 C3013 0.950 . S
H3002 C3010 0.950 . S
H3003 C3012 0.950 . S
H3004 C3014 0.950 . S
H3005 C3016 0.950 . S
H3006 C3018 0.950 . S
H3007 C3019 0.950 . S
C3008 H3000 0.950 . S
C3008 C3009 1.386 . S
C3008 C3010 1.391 1_556 S
C3009 C3008 1.386 . S
C3009 C3013 1.393 . S
C3010 H3002 0.950 . S
C3010 C3008 1.391 1_554 S
C3010 C3011 1.400 . S
C3011 C3010 1.400 . S
C3011 C3012 1.398 1_554 S
C3011 C3017 1.491 . S
C3012 H3003 0.950 . S
C3012 C3011 1.398 1_556 S
C3012 C3013 1.391 . S
C3013 H3001 0.950 . S
C3013 C3009 1.393 . S
C3013 C3012 1.391 . S
C3014 H3004 0.950 . S
C3014 C3015 1.386 . S
C3014 C3016 1.391 . S
C3015 C3014 1.386 . S
C3015 C3019 1.393 . S
C3016 H3005 0.950 . S
C3016 C3014 1.391 . S
C3016 C3017 1.400 . S
C3017 C3011 1.491 . S
C3017 C3016 1.400 . S
C3017 C3018 1.398 . S
C3018 H3006 0.950 . S
C3018 C3017 1.398 . S
C3018 C3019 1.391 . S
C3019 H3007 0.950 . S
C3019 C3015 1.393 . S
C3019 C3018 1.391 . S
H3020 C3028 0.950 . S
H3021 C3033 0.950 . S
H3022 C3030 0.950 . S
H3023 C3032 0.950 . S
H3024 C3034 0.950 . S
H3025 C3036 0.950 . S
H3026 C3038 0.950 . S
H3027 C3039 0.950 . S
C3028 H3020 0.950 . S
C3028 C3029 1.386 . S
C3028 C3030 1.391 . S
C3029 C3028 1.386 . S
C3029 C3033 1.393 . S
C3030 H3022 0.950 . S
C3030 C3028 1.391 . S
C3030 C3031 1.400 . S
C3031 C3030 1.400 . S
C3031 C3032 1.398 . S
C3031 C3037 1.491 . S
C3032 H3023 0.950 . S
C3032 C3031 1.398 . S
C3032 C3033 1.391 . S
C3033 H3021 0.950 . S
C3033 C3029 1.393 . S
C3033 C3032 1.391 . S
C3034 H3024 0.950 . S
C3034 C3035 1.386 . S
C3034 C3036 1.391 . S
C3035 C3034 1.386 . S
C3035 C3039 1.393 . S
C3036 H3025 0.950 . S
C3036 C3034 1.391 . S
C3036 C3037 1.400 . S
C3037 C3031 1.491 . S
C3037 C3036 1.400 . S
C3037 C3038 1.398 . S
C3038 H3026 0.950 . S
C3038 C3037 1.398 . S
C3038 C3039 1.391 . S
C3039 H3027 0.950 . S
C3039 C3035 1.393 . S
C3039 C3038 1.391 . S
H3040 C3048 0.950 . S
H3041 C3053 0.950 . S
H3042 C3050 0.950 . S
H3043 C3052 0.950 1_545 S
H3044 C3054 0.950 . S
H3045 C3056 0.950 . S
H3046 C3058 0.981 . S
H3047 C3059 0.950 . S
C3048 H3040 0.950 . S
C3048 C3049 1.386 . S
C3048 C3050 1.391 . S
C3049 C3048 1.386 . S
C3049 C3053 1.393 . S
C3050 H3042 0.950 . S
C3050 C3048 1.391 . S
C3050 C3051 1.400 . S
C3051 C3050 1.400 . S
C3051 C3052 1.398 . S
C3051 C3057 1.491 1_565 S
C3052 H3043 0.950 1_565 S
C3052 C3051 1.398 . S
C3052 C3053 1.391 . S
C3053 H3041 0.950 . S
C3053 C3049 1.393 . S
C3053 C3052 1.391 . S
C3054 H3044 0.950 . S
C3054 C3055 1.386 . S
C3054 C3056 1.391 . S
C3055 C3054 1.386 . S
C3055 C3059 1.393 . S
C3056 H3045 0.950 . S
C3056 C3054 1.391 . S
C3056 C3057 1.400 . S
C3057 C3051 1.491 1_545 S
C3057 C3056 1.400 . S
C3057 C3058 1.394 1_545 S
C3058 H3046 0.981 . S
C3058 C3057 1.394 1_565 S
C3058 C3059 1.367 1_565 S
C3059 H3047 0.950 . S
C3059 C3055 1.393 . S
C3059 C3058 1.367 1_545 S
H3060 C3068 0.950 . S
H3061 C3073 0.950 . S
H3062 C3070 0.950 . S
H3063 C3072 0.950 . S
H3064 C3074 0.950 . S
H3065 C3076 0.950 . S
H3066 C3078 0.950 . S
H3067 C3079 0.950 . S
C3068 H3060 0.950 . S
C3068 C3069 1.386 . S
C3068 C3070 1.391 . S
C3069 C3068 1.386 . S
C3069 C3073 1.393 . S
C3070 H3062 0.950 . S
C3070 C3068 1.391 . S
C3070 C3071 1.400 . S
C3071 C3070 1.400 . S
C3071 C3072 1.398 . S
C3071 C3077 1.491 . S
C3072 H3063 0.950 . S
C3072 C3071 1.398 . S
C3072 C3073 1.391 . S
C3073 H3061 0.950 . S
C3073 C3069 1.393 . S
C3073 C3072 1.391 . S
C3074 H3064 0.950 . S
C3074 C3075 1.386 . S
C3074 C3076 1.391 . S
C3075 C3074 1.386 . S
C3075 C3079 1.393 . S
C3076 H3065 0.950 . S
C3076 C3074 1.391 . S
C3076 C3077 1.400 . S
C3077 C3071 1.491 . S
C3077 C3076 1.400 . S
C3077 C3078 1.398 . S
C3078 H3066 0.950 . S
C3078 C3077 1.398 . S
C3078 C3079 1.391 . S
C3079 H3067 0.950 . S
C3079 C3075 1.393 . S
C3079 C3078 1.391 . S
H3080 C3088 0.950 . S
H3081 C3093 0.950 . S
H3082 C3090 0.950 . S
H3083 C3092 0.950 1_565 S
H3084 C3094 0.950 . S
H3085 C3096 0.950 . S
H3086 C3098 0.950 . S
H3087 C3099 0.950 . S
C3088 H3080 0.950 . S
C3088 C3089 1.386 . S
C3088 C3090 1.391 . S
C3089 C3088 1.386 . S
C3089 C3093 1.393 . S
C3090 H3082 0.950 . S
C3090 C3088 1.391 . S
C3090 C3091 1.400 . S
C3091 C3090 1.400 . S
C3091 C3092 1.398 . S
C3091 C3097 1.491 . S
C3092 H3083 0.950 1_545 S
C3092 C3091 1.398 . S
C3092 C3093 1.391 . S
C3093 H3081 0.950 . S
C3093 C3089 1.393 . S
C3093 C3092 1.391 . S
C3094 H3084 0.950 . S
C3094 C3095 1.386 . S
C3094 C3096 1.391 . S
C3095 C3094 1.386 . S
C3095 C3099 1.393 1_565 S
C3096 H3085 0.950 . S
C3096 C3094 1.391 . S
C3096 C3097 1.400 1_565 S
C3097 C3091 1.491 . S
C3097 C3096 1.400 1_545 S
C3097 C3098 1.398 . S
C3098 H3086 0.950 . S
C3098 C3097 1.398 . S
C3098 C3099 1.391 . S
C3099 H3087 0.950 . S
C3099 C3095 1.393 1_545 S
C3099 C3098 1.391 . S
H3100 C3108 0.950 . S
H3101 C3113 0.950 . S
H3102 C3110 0.950 . S
H3103 C3112 0.950 . S
H3104 C3114 0.950 . S
H3105 C3116 0.950 . S
H3106 C3118 0.950 . S
H3107 C3119 0.950 . S
C3108 H3100 0.950 . S
C3108 C3109 1.386 . S
C3108 C3110 1.391 . S
C3109 C3108 1.386 . S
C3109 C3113 1.393 . S
C3110 H3102 0.950 . S
C3110 C3108 1.391 . S
C3110 C3111 1.400 . S
C3111 C3110 1.400 . S
C3111 C3112 1.398 . S
C3111 C3117 1.491 . S
C3112 H3103 0.950 . S
C3112 C3111 1.398 . S
C3112 C3113 1.391 . S
C3113 H3101 0.950 . S
C3113 C3109 1.393 . S
C3113 C3112 1.391 . S
C3114 H3104 0.950 . S
C3114 C3115 1.386 . S
C3114 C3116 1.391 . S
C3115 C3114 1.386 . S
C3115 C3119 1.393 . S
C3116 H3105 0.950 . S
C3116 C3114 1.391 . S
C3116 C3117 1.400 . S
C3117 C3111 1.491 . S
C3117 C3116 1.400 . S
C3117 C3118 1.398 . S
C3118 H3106 0.950 . S
C3118 C3117 1.398 . S
C3118 C3119 1.391 . S
C3119 H3107 0.950 . S
C3119 C3115 1.393 . S
C3119 C3118 1.391 . S
H3120 C3128 0.950 1_545 S
H3121 C3133 0.950 . S
H3122 C3130 0.950 . S
H3123 C3132 0.950 . S
H3124 C3134 0.950 . S
H3125 C3136 0.927 1_565 S
H3126 C3138 0.950 . S
H3127 C3139 0.950 1_556 S
C3128 H3120 0.950 1_565 S
C3128 C3129 1.386 . S
C3128 C3130 1.391 1_565 S
C3129 C3128 1.386 . S
C3129 C3133 1.393 . S
C3130 H3122 0.950 . S
C3130 C3128 1.391 1_545 S
C3130 C3131 1.400 1_545 S
C3131 C3130 1.400 1_565 S
C3131 C3132 1.398 . S
C3131 C3137 1.491 1_565 S
C3132 H3123 0.950 . S
C3132 C3131 1.398 . S
C3132 C3133 1.391 . S
C3133 H3121 0.950 . S
C3133 C3129 1.393 . S
C3133 C3132 1.391 . S
C3134 H3124 0.950 . S
C3134 C3135 1.386 . S
C3134 C3136 1.405 1_556 S
C3135 C3134 1.386 . S
C3135 C3139 1.393 1_556 S
C3136 H3125 0.927 1_545 S
C3136 C3134 1.405 1_554 S
C3136 C3137 1.409 . S
C3137 C3131 1.491 1_545 S
C3137 C3136 1.409 . S
C3137 C3138 1.398 . S
C3138 H3126 0.950 . S
C3138 C3137 1.398 . S
C3138 C3139 1.391 . S
C3139 H3127 0.950 1_554 S
C3139 C3135 1.393 1_554 S
C3139 C3138 1.391 . S
H3140 C3148 0.950 . S
H3141 C3153 0.950 . S
H3142 C3150 0.950 . S
H3143 C3152 0.950 . S
H3144 C3154 0.950 . S
H3145 C3156 0.950 . S
H3146 C3158 0.950 . S
H3147 C3159 0.950 . S
C3148 H3140 0.950 . S
C3148 C3149 1.386 . S
C3148 C3150 1.391 . S
C3149 C3148 1.386 . S
C3149 C3153 1.393 . S
C3150 H3142 0.950 . S
C3150 C3148 1.391 . S
C3150 C3151 1.400 . S
C3151 C3150 1.400 . S
C3151 C3152 1.398 . S
C3151 C3157 1.491 . S
C3152 H3143 0.950 . S
C3152 C3151 1.398 . S
C3152 C3153 1.391 . S
C3153 H3141 0.950 . S
C3153 C3149 1.393 . S
C3153 C3152 1.391 . S
C3154 H3144 0.950 . S
C3154 C3155 1.386 . S
C3154 C3156 1.391 . S
C3155 C3154 1.386 . S
C3155 C3159 1.393 . S
C3156 H3145 0.950 . S
C3156 C3154 1.391 . S
C3156 C3157 1.400 . S
C3157 C3151 1.491 . S
C3157 C3156 1.400 . S
C3157 C3158 1.398 . S
C3158 H3146 0.950 . S
C3158 C3157 1.398 . S
C3158 C3159 1.391 . S
C3159 H3147 0.950 . S
C3159 C3155 1.393 . S
C3159 C3158 1.391 . S
H3160 C3168 0.950 . S
H3161 C3173 0.950 . S
H3162 C3170 0.950 . S
H3163 C3172 0.950 1_545 S
H3164 C3174 0.950 . S
H3165 C3176 0.950 . S
H3166 C3178 0.950 . S
H3167 C3179 0.950 . S
C3168 H3160 0.950 . S
C3168 C3169 1.386 . S
C3168 C3170 1.391 . S
C3169 C3168 1.386 . S
C3169 C3173 1.393 . S
C3170 H3162 0.950 . S
C3170 C3168 1.391 . S
C3170 C3171 1.400 . S
C3171 C3170 1.400 . S
C3171 C3172 1.398 . S
C3171 C3177 1.491 . S
C3172 H3163 0.950 1_565 S
C3172 C3171 1.398 . S
C3172 C3173 1.391 . S
C3173 H3161 0.950 . S
C3173 C3169 1.393 . S
C3173 C3172 1.391 . S
C3174 H3164 0.950 . S
C3174 C3175 1.386 . S
C3174 C3176 1.391 . S
C3175 C3174 1.386 . S
C3175 C3179 1.393 1_545 S
C3176 H3165 0.950 . S
C3176 C3174 1.391 . S
C3176 C3177 1.400 1_545 S
C3177 C3171 1.491 . S
C3177 C3176 1.400 1_565 S
C3177 C3178 1.398 . S
C3178 H3166 0.950 . S
C3178 C3177 1.398 . S
C3178 C3179 1.391 . S
C3179 H3167 0.950 . S
C3179 C3175 1.393 1_565 S
C3179 C3178 1.391 . S
H3180 C3188 0.950 . S
H3181 C3193 0.950 . S
H3182 C3190 0.950 . S
H3183 C3192 0.950 . S
H3184 C3194 0.950 . S
H3185 C3196 0.950 . S
H3186 C3198 0.950 . S
H3187 C3199 0.950 . S
C3188 H3180 0.950 . S
C3188 C3189 1.386 . S
C3188 C3190 1.391 . S
C3189 C3188 1.386 . S
C3189 C3193 1.393 . S
C3190 H3182 0.950 . S
C3190 C3188 1.391 . S
C3190 C3191 1.400 . S
C3191 C3190 1.400 . S
C3191 C3192 1.398 . S
C3191 C3197 1.491 . S
C3192 H3183 0.950 . S
C3192 C3191 1.398 . S
C3192 C3193 1.391 . S
C3193 H3181 0.950 . S
C3193 C3189 1.393 . S
C3193 C3192 1.391 . S
C3194 H3184 0.950 . S
C3194 C3195 1.386 . S
C3194 C3196 1.391 . S
C3195 C3194 1.386 . S
C3195 C3199 1.393 . S
C3196 H3185 0.950 . S
C3196 C3194 1.391 . S
C3196 C3197 1.400 . S
C3197 C3191 1.491 . S
C3197 C3196 1.400 . S
C3197 C3198 1.398 . S
C3198 H3186 0.950 . S
C3198 C3197 1.398 . S
C3198 C3199 1.391 . S
C3199 H3187 0.950 . S
C3199 C3195 1.393 . S
C3199 C3198 1.391 . S
C1289 C10 0.318 . S
C1295 C175 0.242 . S
C1309 C215 0.254 . S
C1315 C50 0.370 . S
C1329 C90 0.233 . S
C1335 C255 0.252 . S
C1349 C295 0.345 . S
C1355 C135 0.442 . S
C1369 C339 0.311 . S
C1375 C486 0.175 . S
C1389 C379 0.302 . S
C1395 C526 0.293 . S
C1409 C566 0.300 . S
C1415 C419 0.262 . S
C1429 C446 0.409 . S
C1435 C606 0.396 . S
C1449 C815 0.164 . S
C1455 C650 0.350 . S
C1469 C690 0.311 . S
C1475 C855 0.293 . S
C1489 C730 0.302 . S
C1495 C895 0.255 . S
C1509 C775 0.427 . S
C1515 C935 0.391 . S
C1529 C979 0.271 . S
C1535 C1126 0.214 . S
C1549 C1166 0.228 . S
C1555 C1019 0.323 . S
C1569 C1059 0.288 . S
C1575 C1206 0.279 . S
C1589 C1246 0.322 . S
C1595 C1086 0.400 . S
C1609 C849 1.870 . S
C1615 C18 1.843 . S
C1629 C889 1.407 . S
C1635 C58 1.402 . S
C1649 C929 1.919 . S
C1655 C98 1.899 . S
C1669 C129 1.345 . S
C1675 C809 1.322 . S
C1689 C169 1.324 . S
C1695 C769 1.328 . S
C1709 C658 1.843 . S
C1715 C209 1.867 . S
C1729 C249 1.422 . S
C1735 C698 1.413 . S
C1749 C289 1.919 . S
C1755 C738 1.900 . S
C1769 C329 1.817 . S
C1775 C1178 1.850 . S
C1789 C1218 1.391 . S
C1795 C369 1.379 . S
C1809 C1258 1.910 . S
C1815 C409 1.888 . S
C1829 C458 1.343 . S
C1835 C1138 1.321 . S
C1849 C498 1.338 . S
C1855 C1098 1.317 . S
C1869 C538 1.848 . S
C1875 C969 1.819 . S
C1889 C578 1.388 . S
C1895 C1009 1.381 . S
C1909 C618 1.894 . S
C1915 C1049 1.872 . S
C1929 C338 0.786 . S
C1935 C9 0.786 . S
C1949 C49 0.691 . S
C1955 C1018 0.691 . S
C1969 C418 0.638 . S
C1975 C89 0.638 . S
C1989 C138 0.730 . S
C1995 C1089 0.730 . S
C2009 C489 0.408 . S
C2015 C178 0.408 . S
C2029 C1169 0.559 . S
C2035 C218 0.559 . S
C2049 C258 0.427 . S
C2055 C569 0.427 . S
C2069 C298 0.672 . S
C2075 C1249 0.672 . S
C2089 C689 0.718 . S
C2095 C378 0.718 . S
C2109 C778 0.646 . S
C2115 C449 0.646 . S
C2129 C529 0.505 . S
C2135 C858 0.505 . S
C2149 C938 0.713 . S
C2155 C609 0.713 . S
C2169 C978 0.720 . S
C2175 C649 0.720 . S
C2189 C1058 0.703 . S
C2195 C729 0.703 . S
C2209 C1129 0.398 . S
C2215 C818 0.398 . S
C2229 C898 0.473 . S
C2235 C1209 0.473 . S
C2249 C19 2.191 . S
C2255 C490 2.215 . S
C2269 C1170 1.926 . S
C2275 C59 1.906 . S
C2289 C570 2.211 . S
C2295 C99 2.199 . S
C2309 C126 1.344 . S
C2315 C1250 1.354 . S
C2329 C335 0.819 . S
C2335 C166 0.835 . S
C2349 C1015 0.981 . S
C2355 C206 0.991 . S
C2369 C415 0.734 . S
C2375 C246 0.757 . S
C2389 C1090 1.627 . S
C2395 C286 1.615 . S
C2409 C179 2.209 . S
C2415 C330 2.202 . S
C2429 C859 1.923 . S
C2435 C370 1.917 . S
C2449 C259 2.218 1_556 S
C2455 C410 2.190 . S
C2469 C455 1.345 . S
C2475 C939 1.358 . S
C2489 C6 0.829 . S
C2495 C495 0.830 . S
C2509 C686 0.970 . S
C2515 C535 0.986 . S
C2529 C575 0.734 . S
C2535 C86 0.764 . S
C2549 C615 1.615 . S
C2555 C779 1.641 . S
C2569 C1130 2.211 . S
C2575 C659 2.204 . S
C2589 C530 1.922 . S
C2595 C699 1.915 . S
C2609 C739 2.192 . S
C2615 C1210 2.219 . S
C2629 C610 1.349 . S
C2635 C766 1.338 . S
C2649 C806 0.835 . S
C2655 C975 0.811 . S
C2669 C846 0.963 . S
C2675 C375 0.973 . S
C2689 C1055 0.734 . S
C2695 C886 0.753 . S
C2709 C450 1.637 . S
C2715 C926 1.618 . S
C2729 C970 2.201 . S
C2735 C819 2.218 1_556 S
C2749 C1010 1.908 . S
C2755 C219 1.923 . S
C2769 C1050 2.203 . S
C2775 C899 2.216 . S
C2789 C1095 1.332 . S
C2795 C299 1.347 . S
C2809 C646 0.804 . S
C2815 C1135 0.829 . S
C2829 C46 0.978 . S
C2835 C1175 0.991 . S
C2849 C1215 0.773 . S
C2855 C726 0.747 . S
C2869 C139 1.632 . S
C2875 C1255 1.619 . S
C2889 C170 2.381 . S
C2895 C15 2.342 . S
C2909 C210 2.300 . S
C2915 C55 2.285 . S
C2929 C95 2.296 . S
C2935 C250 2.340 . S
C2949 C290 3.144 . S
C2955 C130 3.152 . S
C2969 C499 2.379 . S
C2975 C326 2.333 . S
C2989 C366 2.274 . S
C2995 C539 2.304 . S
C3009 C406 2.306 . S
C3015 C579 2.337 . S
C3029 C619 3.145 . S
C3035 C459 3.152 . S
C3049 C655 2.335 . S
C3055 C810 2.383 . S
C3069 C850 2.299 . S
C3075 C695 2.278 . S
C3089 C735 2.297 . S
C3095 C890 2.342 . S
C3109 C770 3.153 . S
C3115 C930 3.142 1_554 S
C3129 C1139 2.381 . S
C3135 C966 2.343 . S
C3149 C1179 2.303 . S
C3155 C1006 2.273 . S
C3169 C1046 2.309 . S
C3175 C1219 2.339 . S
C3189 C1259 3.141 . S
C3195 C1099 3.153 . S
