# Generated by pormake.
# Topology rob, (6)-cn, num edge types: 1
# Building blocks:
#     Node 0, Type 0, BuildingBlock: BETFEN_clean_sbu_0, # of connection points: 6
#     Node 1, Type 0, BuildingBlock: BETFEN_clean_sbu_0, # of connection points: 6
#     Node 2, Type 0, BuildingBlock: BETFEN_clean_sbu_0, # of connection points: 6
#     Node 3, Type 0, BuildingBlock: BETFEN_clean_sbu_0, # of connection points: 6
#     Edge 4, Type (0, 0), BuildingBlock: UVAHIK_clean_linker_0, # of connection points: 2
#     Edge 5, Type (0, 0), BuildingBlock: UVAHIK_clean_linker_0, # of connection points: 2
#     Edge 6, Type (0, 0), BuildingBlock: UVAHIK_clean_linker_0, # of connection points: 2
#     Edge 7, Type (0, 0), BuildingBlock: UVAHIK_clean_linker_0, # of connection points: 2
#     Edge 8, Type (0, 0), BuildingBlock: UVAHIK_clean_linker_0, # of connection points: 2
#     Edge 9, Type (0, 0), BuildingBlock: UVAHIK_clean_linker_0, # of connection points: 2
#     Edge 10, Type (0, 0), BuildingBlock: UVAHIK_clean_linker_0, # of connection points: 2
#     Edge 11, Type (0, 0), BuildingBlock: UVAHIK_clean_linker_0, # of connection points: 2
#     Edge 12, Type (0, 0), BuildingBlock: UVAHIK_clean_linker_0, # of connection points: 2
#     Edge 13, Type (0, 0), BuildingBlock: UVAHIK_clean_linker_0, # of connection points: 2
#     Edge 14, Type (0, 0), BuildingBlock: UVAHIK_clean_linker_0, # of connection points: 2
#     Edge 15, Type (0, 0), BuildingBlock: UVAHIK_clean_linker_0, # of connection points: 2
# Relax obj value: 0.048
# Max RMSD: 0.154
# Mean RMSD: 0.154
data_MOF--net-rob--node1-BETFEN_clean_sbu_0--edge1-UVAHIK_clean_linker_0
_symmetry_space_group_name_H-M    P1
_symmetry_Int_Tables_number       1
_symmetry_cell_setting            triclinic
loop_
_symmetry_equiv_pos_as_xyz
'x, y, z'
_cell_length_a     18.001299
_cell_length_b     33.321841
_cell_length_c     45.806051
_cell_angle_alpha  96.46838
_cell_angle_beta   90.168933
_cell_angle_gamma 90.370642
loop_
_atom_site_label
_atom_site_type_symbol
_atom_site_fract_x
_atom_site_fract_y
_atom_site_fract_z
_atom_type_partial_charge
Pr0 Pr 0.15627 0.27375 0.02138 0.0
Pr1 Pr 0.32845 0.25065 0.9918 0.0
C2 C 0.0268 0.26931 0.05 0.0
C3 C 0.00838 0.27544 0.08144 0.0
C4 C 0.06232 0.2907 0.10202 0.0
C5 C 0.04745 0.29341 0.13211 0.0
C6 C 0.97827 0.28088 0.14223 0.0
C7 C 0.92396 0.26619 0.12143 0.0
C8 C 0.93903 0.2634 0.0913 0.0
C9 C 0.25024 0.34126 0.01969 0.0
C10 C 0.30424 0.25514 0.06423 0.0
C11 C 0.45811 0.25526 0.96344 0.0
C12 C 0.47664 0.25697 0.93222 0.0
C13 C 0.5333 0.23259 0.91911 0.0
C14 C 0.54734 0.23147 0.88899 0.0
C15 C 0.50487 0.25474 0.87134 0.0
C16 C 0.44874 0.27958 0.8847 0.0
C17 C 0.43472 0.28063 0.91478 0.0
C18 C 0.23461 0.18305 0.99358 0.0
C19 C 0.18098 0.26897 0.94901 0.0
O20 O 0.06817 0.23785 0.04216 0.0
O21 O 0.04754 0.3015 0.03801 0.0
O22 O 0.26258 0.30488 0.01093 0.0
O23 O 0.18388 0.34416 0.03087 0.0
O24 O 0.3531 0.25431 0.04242 0.0
O25 O 0.23139 0.25896 0.06071 0.0
O26 O 0.42514 0.2869 0.97708 0.0
O27 O 0.43006 0.221 0.96988 0.0
O28 O 0.22177 0.21948 1.00207 0.0
O29 O 0.30143 0.18015 0.98286 0.0
O30 O 0.13191 0.26773 0.97059 0.0
O31 O 0.2541 0.26734 0.95283 0.0
H32 H 0.11641 0.29996 0.0948 0.0
H33 H 0.0902 0.30531 0.14744 0.0
H34 H 0.87048 0.25579 0.12845 0.0
H35 H 0.89708 0.25111 0.07572 0.0
H36 H 0.56576 0.21377 0.93208 0.0
H37 H 0.5903 0.21158 0.87943 0.0
H38 H 0.41561 0.29831 0.87192 0.0
H39 H 0.39038 0.29959 0.9243 0.0
Pr40 Pr 0.65539 0.77501 0.0206 0.0
Pr41 Pr 0.82776 0.74978 0.99161 0.0
C42 C 0.52525 0.77242 0.04894 0.0
C43 C 0.50588 0.76876 0.07982 0.0
C44 C 0.44823 0.79207 0.09321 0.0
C45 C 0.43407 0.79207 0.12323 0.0
C46 C 0.47743 0.76874 0.14053 0.0
C47 C 0.53447 0.74486 0.12686 0.0
C48 C 0.54862 0.74493 0.09684 0.0
C49 C 0.74865 0.8417 0.01461 0.0
C50 C 0.80279 0.75742 0.06404 0.0
C51 C 0.95777 0.75246 0.96318 0.0
C52 C 0.97719 0.75673 0.9324 0.0
C53 C 0.0351 0.73377 0.91886 0.0
C54 C 0.04931 0.73429 0.88889 0.0
C55 C 0.00577 0.75781 0.87179 0.0
C56 C 0.94847 0.78134 0.88562 0.0
C57 C 0.93425 0.78074 0.91559 0.0
C58 C 0.73492 0.68299 0.99778 0.0
C59 C 0.68044 0.7679 0.9482 0.0
O60 O 0.55425 0.74065 0.03378 0.0
O61 O 0.558 0.80631 0.04431 0.0
O62 O 0.76053 0.80488 0.00741 0.0
O63 O 0.68268 0.84563 0.02608 0.0
O64 O 0.8521 0.75653 0.04237 0.0
O65 O 0.72984 0.76045 0.06022 0.0
O66 O 0.92928 0.78408 0.97871 0.0
O67 O 0.92449 0.71856 0.96739 0.0
O68 O 0.72242 0.71983 1.00466 0.0
O69 O 0.80117 0.67913 0.98658 0.0
O70 O 0.63115 0.76883 0.96988 0.0
O71 O 0.75335 0.76452 0.952 0.0
H72 H 0.41526 0.81109 0.08057 0.0
H73 H 0.39046 0.81131 0.13303 0.0
H74 H 0.5684 0.72613 0.13935 0.0
H75 H 0.59386 0.72689 0.08706 0.0
H76 H 0.0682 0.71462 0.93134 0.0
H77 H 0.09311 0.7153 0.87896 0.0
H78 H 0.91439 0.80019 0.87328 0.0
H79 H 0.88878 0.79849 0.92548 0.0
Pr80 Pr 0.16533 0.75355 0.49414 0.0
Pr81 Pr 0.31964 0.77638 0.51875 0.0
C82 C 0.03938 0.75018 0.46204 0.0
C83 C 0.02366 0.74798 0.43031 0.0
C84 C 0.07663 0.7326 0.40962 0.0
C85 C 0.063 0.73256 0.37952 0.0
C86 C -0.00387 0.74802 0.3695 0.0
C87 C 0.94331 0.76341 0.39042 0.0
C88 C 0.95702 0.76338 0.42051 0.0
C89 C 0.25632 0.68788 0.50063 0.0
C90 C 0.30377 0.77413 0.44839 0.0
C91 C 0.44585 0.78072 0.55076 0.0
C92 C 0.46313 0.77915 0.58217 0.0
C93 C 0.51326 0.80708 0.59663 0.0
C94 C 0.5271 0.80731 0.62674 0.0
C95 C 0.49077 0.77967 0.64304 0.0
C96 C 0.4409 0.75154 0.6284 0.0
C97 C 0.42739 0.75121 0.59829 0.0
C98 C 0.22821 0.84181 0.5119 0.0
C99 C 0.18123 0.7557 0.56435 0.0
O100 O 0.06897 0.7841 0.47392 0.0
O101 O 0.06972 0.71832 0.47129 0.0
O102 O 0.27684 0.71993 0.49063 0.0
O103 O 0.18573 0.68819 0.50661 0.0
O104 O 0.3532 0.77121 0.46936 0.0
O105 O 0.23172 0.77307 0.45374 0.0
O106 O 0.42154 0.74728 0.53597 0.0
O107 O 0.41033 0.81272 0.54437 0.0
O108 O 0.20819 0.80996 0.52229 0.0
O109 O 0.29859 0.84136 0.50552 0.0
O110 O 0.132 0.75993 0.54354 0.0
O111 O 0.2533 0.75542 0.5588 0.0
H112 H 0.12884 0.72089 0.41674 0.0
H113 H 0.10466 0.72014 0.36412 0.0
H114 H 0.89183 0.77622 0.3836 0.0
H115 H 0.91592 0.77587 0.43616 0.0
H116 H 0.54106 0.82908 0.58468 0.0
H117 H 0.5652 0.82968 0.63737 0.0
H118 H 0.41267 0.72952 0.64017 0.0
H119 H 0.38846 0.72928 0.58768 0.0
Pr120 Pr 0.66484 0.25366 0.49422 0.0
Pr121 Pr 0.8188 0.2758 0.5191 0.0
C122 C 0.53886 0.24939 0.46209 0.0
C123 C 0.52197 0.25047 0.43059 0.0
C124 C 0.47232 0.2222 0.41623 0.0
C125 C 0.459 0.22142 0.38605 0.0
C126 C 0.49538 0.24884 0.36958 0.0
C127 C 0.54485 0.2773 0.38411 0.0
C128 C 0.5578 0.27818 0.41431 0.0
C129 C 0.7562 0.18781 0.49985 0.0
C130 C 0.8027 0.27617 0.44921 0.0
C131 C 0.94466 0.27866 0.55125 0.0
C132 C 0.96014 0.2805 0.58298 0.0
C133 C 0.90676 0.29534 0.60367 0.0
C134 C 0.9202 0.29507 0.63376 0.0
C135 C 0.98727 0.27984 0.64376 0.0
C136 C 0.04049 0.26497 0.62283 0.0
C137 C 0.02697 0.2653 0.59276 0.0
C138 C 0.72753 0.34174 0.51359 0.0
C139 C 0.68036 0.25396 0.56435 0.0
O140 O 0.56351 0.28291 0.47665 0.0
O141 O 0.57383 0.21739 0.46879 0.0
O142 O 0.77645 0.22008 0.4901 0.0
O143 O 0.68592 0.18816 0.50633 0.0
O144 O 0.85192 0.27031 0.46968 0.0
O145 O 0.73075 0.27685 0.45491 0.0
O146 O 0.91495 0.24488 0.53917 0.0
O147 O 0.91454 0.31068 0.54216 0.0
O148 O 0.70729 0.30943 0.52327 0.0
O149 O 0.79804 0.34156 0.50745 0.0
O150 O 0.63104 0.2579 0.54352 0.0
O151 O 0.75241 0.25478 0.559 0.0
H152 H 0.4445 0.20036 0.4283 0.0
H153 H 0.42123 0.1988 0.3755 0.0
H154 H 0.57309 0.29917 0.37221 0.0
H155 H 0.59618 0.30041 0.42488 0.0
H156 H 0.85439 0.30688 0.59656 0.0
H157 H 0.87823 0.3071 0.64917 0.0
H158 H 0.09216 0.25234 0.62964 0.0
H159 H 0.06839 0.25321 0.57711 0.0
C160 C 0.62976 0.65083 0.02269 0.0
C161 C 0.68314 0.64907 1.00036 0.0
C162 C 0.58257 0.61779 0.02526 0.0
C163 C 0.56672 0.50716 1.00317 0.0
H164 H 0.35925 0.52349 0.02324 0.0
C165 C 0.35309 0.3757 0.99522 0.0
C166 C 0.30146 0.3757 0.01806 0.0
C167 C 0.40007 0.409 0.9935 0.0
C168 C 0.41725 0.5184 0.01792 0.0
H169 H 0.73005 0.61154 0.96342 0.0
H170 H 0.64724 0.55426 0.96742 0.0
H171 H 0.43991 0.5818 0.01957 0.0
H172 H 0.25646 0.41077 0.05655 0.0
H173 H 0.33857 0.46892 0.05376 0.0
H174 H 0.54389 0.44376 1.0013 0.0
C175 C 0.64193 0.58077 0.98325 0.0
C176 C 0.46357 0.55187 0.01585 0.0
C177 C 0.68912 0.61368 0.98081 0.0
C178 C 0.29637 0.40991 0.03883 0.0
C179 C 0.34312 0.44326 0.03713 0.0
C180 C 0.52038 0.47372 1.00515 0.0
C181 C 0.58817 0.58226 1.00557 0.0
C182 C 0.5389 0.5467 0.00835 0.0
C183 C 0.39566 0.44323 0.01445 0.0
C184 C 0.44503 0.4789 0.01249 0.0
H185 H 0.62628 0.67712 0.03874 0.0
H186 H 0.54295 0.61975 0.0431 0.0
H187 H 0.62472 0.50195 0.9979 0.0
H188 H 0.35518 0.35065 0.97809 0.0
H189 H 0.43858 0.40835 0.97533 0.0
C190 C 0.37976 0.65397 0.49397 0.0
C191 C 0.305 0.65272 0.50251 0.0
C192 C 0.42546 0.62042 0.49532 0.0
C193 C 0.44154 0.5256 0.53002 0.0
H194 H 0.5788 0.49547 0.46635 0.0
C195 C 0.60389 0.37544 0.52045 0.0
C196 C 0.67863 0.37687 0.51191 0.0
C197 C 0.55797 0.40892 0.51916 0.0
C198 C 0.54136 0.50371 0.48447 0.0
H199 H 0.21947 0.6156 0.51937 0.0
H200 H 0.29889 0.55687 0.52146 0.0
H201 H 0.49999 0.55441 0.46473 0.0
H202 H 0.76391 0.41423 0.49515 0.0
H203 H 0.68413 0.47282 0.49316 0.0
H204 H 0.48292 0.47488 0.54975 0.0
C205 C 0.3226 0.58387 0.51402 0.0
C206 C 0.49618 0.53754 0.48355 0.0
C207 C 0.27693 0.61742 0.51266 0.0
C208 C 0.70647 0.41227 0.50186 0.0
C209 C 0.6606 0.44575 0.50055 0.0
C210 C 0.48672 0.49175 0.53093 0.0
C211 C 0.39739 0.58488 0.50527 0.0
C212 C 0.44571 0.54893 0.50632 0.0
C213 C 0.5858 0.44454 0.50926 0.0
C214 C 0.53725 0.48039 0.50818 0.0
H215 H 0.40298 0.68086 0.48615 0.0
H216 H 0.48302 0.62247 0.48881 0.0
H217 H 0.40411 0.53384 0.54814 0.0
H218 H 0.58086 0.34845 0.52818 0.0
H219 H 0.50041 0.40674 0.52565 0.0
C220 C 0.18818 0.11464 0.97398 0.0
C221 C 0.18356 0.14851 0.99507 0.0
C222 C 0.14141 0.08124 0.97549 0.0
C223 C 0.9646 0.05053 0.00767 0.0
H224 H 0.04421 0.94235 0.99238 0.0
C225 C 0.79557 0.91069 0.03188 0.0
C226 C 0.80084 0.87546 0.01214 0.0
C227 C 0.843 0.9435 0.02946 0.0
C228 C 0.02079 0.97231 0.99635 0.0
H229 H 0.13103 0.17273 0.03546 0.0
H230 H 0.04743 0.11508 0.03789 0.0
H231 H 0.12509 1.00061 0.98875 0.0
H232 H 0.85675 0.84756 0.97348 0.0
H233 H 0.94046 0.90477 0.96913 0.0
H234 H 0.86029 0.02241 0.01511 0.0
C235 C 0.0855 0.11475 0.0196 0.0
C236 C 0.06723 1.00574 0.9943 0.0
C237 C 0.13252 0.14807 0.01806 0.0
C238 C 0.8538 0.87374 0.98966 0.0
C239 C 0.90122 0.90668 0.9871 0.0
C240 C 0.91814 0.01714 0.00962 0.0
C241 C 0.08932 0.08091 0.9983 0.0
C242 C 0.03978 0.04527 1.00007 0.0
C243 C 0.89628 0.94207 0.00695 0.0
C244 C 0.94566 0.97757 1.00415 0.0
H245 H 0.2277 0.11409 0.95614 0.0
H246 H 0.14553 0.05584 0.95862 0.0
H247 H 0.94134 0.08052 0.01178 0.0
H248 H 0.75496 0.91279 0.04939 0.0
H249 H 0.83822 0.9699 0.04543 0.0
C250 C 0.77741 0.11729 0.5116 0.0
C251 C 0.80509 0.15266 0.50145 0.0
C252 C 0.8233 0.08379 0.5128 0.0
C253 C -0.00344 0.03766 0.48191 0.0
H254 H 0.98488 0.97523 0.54827 0.0
C255 C 0.20708 0.91214 0.49969 0.0
C256 C 0.17937 0.87691 0.51004 0.0
C257 C 0.16129 0.94566 0.49841 0.0
C258 C 0.98824 0.99203 0.5294 0.0
H259 H 0.90259 0.181 0.48488 0.0
H260 H 0.98303 0.12267 0.4872 0.0
H261 H 0.90588 0.03412 0.54682 0.0
H262 H 0.08186 0.84882 0.52681 0.0
H263 H 0.00157 0.90714 0.52429 0.0
H264 H 0.0789 0.99556 0.46448 0.0
C265 C 0.9256 0.12053 0.49386 0.0
C266 C 0.94295 0.02584 0.52859 0.0
C267 C 0.87967 0.15403 0.49269 0.0
C268 C 0.10481 0.87567 0.51885 0.0
C269 C 0.05898 0.90918 0.51757 0.0
C270 C 0.04184 1.00384 0.48273 0.0
C271 C 0.89793 0.08494 0.50386 0.0
C272 C 0.94651 0.04908 0.50483 0.0
C273 C 0.08671 0.94467 0.50743 0.0
C274 C 0.03825 0.98058 0.50648 0.0
H275 H 0.72009 0.11537 0.51847 0.0
H276 H 0.7999 0.05674 0.52028 0.0
H277 H -8e-05 0.05448 0.46305 0.0
H278 H 0.26439 0.91395 0.49277 0.0
H279 H 0.18474 0.97262 0.49081 0.0
C280 C 0.54023 0.25276 0.31787 0.0
C281 C 0.48154 0.24779 0.33741 0.0
C282 C 0.52691 0.25147 0.28763 0.0
C283 C 0.38737 0.21627 0.23035 0.0
H284 H 0.4847 0.29264 0.18489 0.0
C285 C 0.27969 0.24731 0.11709 0.0
C286 C 0.33115 0.25172 0.09457 0.0
C287 C 0.30351 0.24467 0.14581 0.0
C288 C 0.45786 0.27074 0.19719 0.0
H289 H 0.36262 0.23855 0.34044 0.0
H290 H 0.33934 0.23655 0.28795 0.0
H291 H 0.51576 0.29245 0.23686 0.0
H292 H 0.44851 0.25684 0.08488 0.0
H293 H 0.4902 0.25224 0.13536 0.0
H294 H 0.3285 0.19507 0.19091 0.0
C295 C 0.39597 0.24054 0.29584 0.0
C296 C 0.47564 0.27061 0.22699 0.0
C297 C 0.40928 0.24175 0.326 0.0
C298 C 0.40734 0.25338 0.10162 0.0
C299 C 0.43122 0.25097 0.13056 0.0
C300 C 0.36949 0.21649 0.20067 0.0
C301 C 0.45459 0.24521 0.27622 0.0
C302 C 0.43968 0.24379 0.24407 0.0
C303 C 0.37947 0.24646 0.15295 0.0
C304 C 0.40358 0.24415 0.18384 0.0
H305 H 0.59673 0.25698 0.32589 0.0
H306 H 0.5735 0.25473 0.27316 0.0
H307 H 0.35987 0.19453 0.2426 0.0
H308 H 0.22054 0.24593 0.11265 0.0
H309 H 0.26207 0.24186 0.16258 0.0
C310 C 0.39131 0.77205 0.18396 0.0
C311 C 0.46403 0.77001 0.17276 0.0
C312 C 0.37868 0.77438 0.2142 0.0
C313 C 0.46378 0.75347 0.28431 0.0
H314 H 0.31206 0.82628 0.3183 0.0
C315 C 0.40327 0.77547 0.40978 0.0
C316 C 0.32788 0.77732 0.41773 0.0
C317 C 0.42442 0.77683 0.38044 0.0
C318 C 0.35419 0.80551 0.30916 0.0
H319 H 0.58061 0.769 0.18493 0.0
H320 H 0.55834 0.77261 0.23769 0.0
H321 H 0.33979 0.82353 0.26613 0.0
H322 H 0.21576 0.78256 0.40095 0.0
H323 H 0.25226 0.78417 0.35026 0.0
H324 H 0.4773 0.73498 0.32732 0.0
C325 C 0.51109 0.77208 0.22296 0.0
C326 C 0.37008 0.80395 0.27921 0.0
C327 C 0.52379 0.76991 0.19267 0.0
C328 C 0.27438 0.78104 0.39576 0.0
C329 C 0.2954 0.78232 0.36658 0.0
C330 C 0.44768 0.75492 0.31432 0.0
C331 C 0.43837 0.77461 0.2341 0.0
C332 C 0.42437 0.77754 0.26631 0.0
C333 C 0.37063 0.78016 0.35846 0.0
C334 C 0.39193 0.78058 0.32705 0.0
H335 H 0.34388 0.77144 0.16932 0.0
H336 H 0.32189 0.77553 0.222 0.0
H337 H 0.50555 0.73257 0.27503 0.0
H338 H 0.44593 0.77262 0.42612 0.0
H339 H 0.48293 0.77548 0.37501 0.0
C340 C 0.57796 0.77005 0.91056 0.0
C341 C 0.65406 0.77125 0.91776 0.0
C342 C 0.55456 0.77288 0.88161 0.0
C343 C 0.61793 0.8081 0.81196 0.0
H344 H 0.47033 0.73359 0.77503 0.0
C345 C 0.5773 0.78585 0.68652 0.0
C346 C 0.50492 0.78019 0.67515 0.0
C347 C 0.59084 0.78639 0.71663 0.0
C348 C 0.51085 0.75504 0.7851 0.0
H349 H 0.76499 0.77652 0.89988 0.0
H350 H 0.72434 0.78141 0.84998 0.0
H351 H 0.50102 0.73226 0.82692 0.0
H352 H 0.38974 0.77111 0.68673 0.0
H353 H 0.41334 0.77223 0.73934 0.0
H354 H 0.62823 0.83086 0.77033 0.0
C355 C 0.6826 0.77863 0.86664 0.0
C356 C 0.52841 0.75425 0.81486 0.0
C357 C 0.70592 0.77553 0.89536 0.0
C358 C 0.44634 0.77502 0.6947 0.0
C359 C 0.45987 0.77565 0.72487 0.0
C360 C 0.60024 0.809 0.78232 0.0
C361 C 0.60672 0.77738 0.85936 0.0
C362 C 0.5831 0.78032 0.82849 0.0
C363 C 0.53233 0.78143 0.73624 0.0
C364 C 0.5474 0.78203 0.76834 0.0
H365 H 0.53647 0.76673 0.9272 0.0
H366 H 0.49563 0.77202 0.87671 0.0
H367 H 0.65929 0.82913 0.82194 0.0
H368 H 0.62388 0.78922 0.67206 0.0
H369 H 0.64756 0.79006 0.72446 0.0
C370 C 0.58069 0.25156 0.60272 0.0
C371 C 0.65613 0.24988 0.59484 0.0
C372 C 0.55937 0.24937 0.63193 0.0
C373 C 0.62884 0.21869 0.70267 0.0
H374 H 0.47824 0.29154 0.73753 0.0
C375 C 0.59126 0.25024 0.828 0.0
C376 C 0.5185 0.25275 0.83912 0.0
C377 C 0.60409 0.24797 0.79778 0.0
C378 C 0.51976 0.27065 0.72804 0.0
H379 H 0.76816 0.24409 0.61158 0.0
H380 H 0.73132 0.24105 0.66208 0.0
H381 H 0.5068 0.29025 0.68536 0.0
H382 H 0.40204 0.25436 0.82689 0.0
H383 H 0.42464 0.25081 0.77416 0.0
H384 H 0.6427 0.19956 0.7454 0.0
C385 C 0.68831 0.24339 0.64579 0.0
C386 C 0.53604 0.26985 0.6981 0.0
C387 C 0.70951 0.24549 0.61673 0.0
C388 C 0.45889 0.25312 0.81918 0.0
C389 C 0.47177 0.25099 0.78893 0.0
C390 C 0.61275 0.21959 0.73256 0.0
C391 C 0.61303 0.2454 0.65384 0.0
C392 C 0.59153 0.24423 0.68513 0.0
C393 C 0.54454 0.24826 0.77786 0.0
C394 C 0.55871 0.24594 0.74571 0.0
H395 H 0.53814 0.2549 0.58643 0.0
H396 H 0.50084 0.25062 0.63732 0.0
H397 H 0.6708 0.19797 0.69331 0.0
H398 H 0.63857 0.2506 0.84269 0.0
H399 H 0.66091 0.24661 0.79003 0.0
C400 C 0.9046 0.75997 0.10237 0.0
C401 C 0.82913 0.7551 0.0946 0.0
C402 C 0.92742 0.75956 0.13167 0.0
C403 C 0.85179 0.77338 0.20759 0.0
H404 H 0.03267 0.72077 0.22853 0.0
C405 C 0.9097 0.74015 0.32593 0.0
C406 C 0.98144 0.74829 0.33744 0.0
C407 C 0.89506 0.74146 0.29608 0.0
C408 C 0.98237 0.73594 0.223 0.0
H409 H 0.71907 0.74448 0.11163 0.0
H410 H 0.75867 0.74302 0.16198 0.0
H411 H 0.00048 0.72209 0.1767 0.0
H412 H 0.09424 0.764 0.32622 0.0
H413 H 0.06864 0.76576 0.27396 0.0
H414 H 0.83299 0.78673 0.25374 0.0
C415 C 0.80024 0.74828 0.14576 0.0
C416 C 0.96397 0.73677 0.1933 0.0
C417 C 0.77753 0.74888 0.11669 0.0
C418 C 0.03851 0.75708 0.31811 0.0
C419 C 0.02388 0.75817 0.28815 0.0
C420 C 0.86992 0.77236 0.23715 0.0
C421 C 0.87526 0.75417 0.15379 0.0
C422 C 0.89786 0.75505 0.18523 0.0
C423 C 0.95177 0.75076 0.27685 0.0
C424 C 0.93491 0.75321 0.24526 0.0
H425 H 0.94585 0.76488 0.08595 0.0
H426 H 0.98562 0.76441 0.13709 0.0
H427 H 0.80142 0.78865 0.20228 0.0
H428 H 0.86473 0.7324 0.33995 0.0
H429 H 0.83921 0.73484 0.28798 0.0
C430 C 0.89902 0.2705 0.40912 0.0
C431 C 0.82673 0.28057 0.41876 0.0
C432 C 0.91865 0.27178 0.37962 0.0
C433 C 0.83246 0.26868 0.3058 0.0
H434 H 0.0243 0.30762 0.28247 0.0
C435 C 0.89367 0.29435 0.18584 0.0
C436 C 0.96339 0.28234 0.17432 0.0
C437 C 0.87921 0.29487 0.21586 0.0
C438 C 0.97075 0.29626 0.28862 0.0
H439 H 0.71976 0.30184 0.4052 0.0
H440 H 0.75383 0.30439 0.35429 0.0
H441 H -0.00395 0.30741 0.33461 0.0
H442 H 0.07252 0.26123 0.1855 0.0
H443 H 0.04725 0.26216 0.23785 0.0
H444 H 0.80697 0.2575 0.25997 0.0
C445 C 0.79499 0.29452 0.36919 0.0
C446 C 0.95459 0.29612 0.31851 0.0
C447 C 0.77548 0.29319 0.39851 0.0
C448 C 0.01854 0.27122 0.19367 0.0
C449 C 0.00407 0.27174 0.22371 0.0
C450 C 0.84856 0.26884 0.276 0.0
C451 C 0.86639 0.28321 0.3592 0.0
C452 C 0.88501 0.28258 0.32747 0.0
C453 C 0.93406 0.28334 0.23516 0.0
C454 C 0.91771 0.28284 0.267 0.0
H455 H 0.93981 0.26058 0.42414 0.0
H456 H 0.97405 0.26268 0.37264 0.0
H457 H 0.77888 0.25722 0.31184 0.0
H458 H 0.85035 0.30375 0.17168 0.0
H459 H 0.82511 0.30466 0.224 0.0
C460 C 0.94484 0.26999 0.69501 0.0
C461 C 0.00183 0.27931 0.67581 0.0
C462 C 0.95935 0.26869 0.72497 0.0
C463 C 0.11359 0.25522 0.77608 0.0
H464 H 0.98131 0.30378 0.83655 0.0
C465 C 0.20532 0.27908 0.89656 0.0
C466 C 0.1542 0.27173 0.91856 0.0
C467 C 0.18241 0.27975 0.86752 0.0
C468 C 0.01832 0.28959 0.81994 0.0
H469 H 0.11823 0.29592 0.67353 0.0
H470 H 0.14354 0.29318 0.72547 0.0
H471 H 0.9492 0.30523 0.78472 0.0
H472 H 0.03803 0.26011 0.92708 0.0
H473 H -0.00209 0.26083 0.87599 0.0
H474 H 0.1826 0.23936 0.81095 0.0
C475 C 0.08786 0.28626 0.71728 0.0
C476 C -4e-05 0.29048 0.79024 0.0
C477 C 0.07334 0.28776 0.68744 0.0
C478 C 0.07892 0.2659 0.91074 0.0
C479 C 0.05589 0.26643 0.88147 0.0
C480 C 0.13172 0.25416 0.80563 0.0
C481 C 0.03125 0.27644 0.73639 0.0
C482 C 0.04803 0.27383 0.76798 0.0
C483 C 0.10766 0.27284 0.85943 0.0
C484 C 0.08504 0.27191 0.828 0.0
H485 H 0.88928 0.26282 0.68681 0.0
H486 H 0.91467 0.26069 0.73905 0.0
H487 H 0.15102 0.2413 0.7595 0.0
H488 H 0.26359 0.28422 0.90165 0.0
H489 H 0.22361 0.28579 0.85136 0.0
C490 C 0.08125 0.75381 0.60274 0.0
C491 C 0.1568 0.75243 0.59497 0.0
C492 C 0.05972 0.75214 0.63201 0.0
C493 C 0.12951 0.72308 0.7032 0.0
H494 H 0.97741 0.79538 0.73753 0.0
C495 C 0.09193 0.75528 0.82841 0.0
C496 C 0.01919 0.75704 0.83959 0.0
C497 C 0.1046 0.7533 0.79819 0.0
C498 C 0.01938 0.77465 0.72819 0.0
H499 H 0.26868 0.74819 0.61209 0.0
H500 H 0.23162 0.74571 0.66259 0.0
H501 H 0.00586 0.79348 0.68527 0.0
H502 H 0.90262 0.75798 0.82742 0.0
H503 H 0.92493 0.755 0.77469 0.0
H504 H 0.1439 0.70469 0.74612 0.0
C505 C 0.18865 0.74738 0.64617 0.0
C506 C 0.0356 0.7735 0.6982 0.0
C507 C 0.21002 0.74905 0.61708 0.0
C508 C 0.95944 0.75727 0.81969 0.0
C509 C 0.97217 0.75546 0.78942 0.0
C510 C 0.11348 0.72432 0.73312 0.0
C511 C 0.11328 0.74896 0.65409 0.0
C512 C 0.09165 0.7481 0.68542 0.0
C513 C 0.04491 0.75316 0.77829 0.0
C514 C 0.05896 0.75051 0.74609 0.0
H515 H 0.03874 0.75643 0.5863 0.0
H516 H 0.00112 0.75309 0.6373 0.0
H517 H 0.17189 0.70251 0.694 0.0
H518 H 0.13936 0.7558 0.84305 0.0
H519 H 0.16139 0.75233 0.79041 0.0
loop_
_geom_bond_atom_site_label_1
_geom_bond_atom_site_label_2
_geom_bond_distance
_geom_bond_site_symmetry_2
_ccdc_geom_bond_type
Pr0 C2 2.880 . S
Pr0 O20 2.562 . S
Pr0 O21 2.490 . S
Pr0 O22 2.695 1_554 S
Pr0 O23 2.512 . S
Pr0 O25 2.437 . S
Pr0 O28 2.436 . S
Pr0 O30 2.438 1_554 S
Pr1 C11 2.880 . S
Pr1 O22 2.436 . S
Pr1 O24 2.438 1_556 S
Pr1 O26 2.562 . S
Pr1 O27 2.490 . S
Pr1 O28 2.695 1_556 S
Pr1 O29 2.512 . S
Pr1 O31 2.437 . S
C2 Pr0 2.880 . S
C2 C3 1.491 . S
C2 O20 1.254 . S
C2 O21 1.225 . S
C3 C2 1.491 . S
C3 C4 1.392 . S
C3 C8 1.356 . S
C4 C3 1.392 . S
C4 C5 1.368 . S
C4 H32 0.929 . S
C5 C4 1.368 . S
C5 C6 1.386 . S
C5 H33 0.929 . S
C6 C5 1.386 . S
C6 C7 1.373 . S
C7 C6 1.373 . S
C7 C8 1.409 . S
C7 H34 0.931 . S
C8 C3 1.356 . S
C8 C7 1.409 . S
C8 H35 0.930 . S
C9 O22 1.270 1_554 S
C9 O23 1.248 . S
C10 O24 1.267 . S
C10 O25 1.278 . S
C11 Pr1 2.880 . S
C11 C12 1.491 . S
C11 O26 1.254 . S
C11 O27 1.225 . S
C12 C11 1.491 . S
C12 C13 1.392 . S
C12 C17 1.356 . S
C13 C12 1.392 . S
C13 C14 1.368 . S
C13 H36 0.929 . S
C14 C13 1.368 . S
C14 C15 1.386 . S
C14 H37 0.929 . S
C15 C14 1.386 . S
C15 C16 1.373 . S
C16 C15 1.373 . S
C16 C17 1.409 . S
C16 H38 0.931 . S
C17 C12 1.356 . S
C17 C16 1.409 . S
C17 H39 0.930 . S
C18 O28 1.270 1_556 S
C18 O29 1.248 . S
C19 O30 1.267 . S
C19 O31 1.278 . S
O20 Pr0 2.562 . S
O20 C2 1.254 . S
O21 Pr0 2.490 . S
O21 C2 1.225 . S
O22 Pr0 2.695 1_556 S
O22 Pr1 2.436 . S
O22 C9 1.270 1_556 S
O23 Pr0 2.512 . S
O23 C9 1.248 . S
O24 Pr1 2.438 1_554 S
O24 C10 1.267 . S
O25 Pr0 2.437 . S
O25 C10 1.278 . S
O26 Pr1 2.562 . S
O26 C11 1.254 . S
O27 Pr1 2.490 . S
O27 C11 1.225 . S
O28 Pr0 2.436 . S
O28 Pr1 2.695 1_554 S
O28 C18 1.270 1_554 S
O29 Pr1 2.512 . S
O29 C18 1.248 . S
O30 Pr0 2.438 1_556 S
O30 C19 1.267 . S
O31 Pr1 2.437 . S
O31 C19 1.278 . S
H32 C4 0.929 . S
H33 C5 0.929 . S
H34 C7 0.931 . S
H35 C8 0.930 . S
H36 C13 0.929 . S
H37 C14 0.929 . S
H38 C16 0.931 . S
H39 C17 0.930 . S
Pr40 C42 2.880 . S
Pr40 O60 2.562 . S
Pr40 O61 2.490 . S
Pr40 O62 2.695 1_554 S
Pr40 O63 2.512 . S
Pr40 O65 2.437 . S
Pr40 O68 2.436 . S
Pr40 O70 2.438 1_554 S
Pr41 C51 2.880 . S
Pr41 O62 2.436 . S
Pr41 O64 2.438 1_556 S
Pr41 O66 2.562 . S
Pr41 O67 2.490 . S
Pr41 O68 2.695 1_556 S
Pr41 O69 2.512 . S
Pr41 O71 2.437 . S
C42 Pr40 2.880 . S
C42 C43 1.491 . S
C42 O60 1.254 . S
C42 O61 1.225 . S
C43 C42 1.491 . S
C43 C44 1.392 . S
C43 C48 1.356 . S
C44 C43 1.392 . S
C44 C45 1.368 . S
C44 H72 0.929 . S
C45 C44 1.368 . S
C45 C46 1.386 . S
C45 H73 0.929 . S
C46 C45 1.386 . S
C46 C47 1.373 . S
C47 C46 1.373 . S
C47 C48 1.409 . S
C47 H74 0.931 . S
C48 C43 1.356 . S
C48 C47 1.409 . S
C48 H75 0.930 . S
C49 O62 1.270 1_554 S
C49 O63 1.248 . S
C50 O64 1.267 . S
C50 O65 1.278 . S
C51 Pr41 2.880 . S
C51 C52 1.491 . S
C51 O66 1.254 . S
C51 O67 1.225 . S
C52 C51 1.491 . S
C52 C53 1.392 . S
C52 C57 1.356 . S
C53 C52 1.392 . S
C53 C54 1.368 . S
C53 H76 0.929 . S
C54 C53 1.368 . S
C54 C55 1.386 . S
C54 H77 0.929 . S
C55 C54 1.386 . S
C55 C56 1.373 . S
C56 C55 1.373 . S
C56 C57 1.409 . S
C56 H78 0.931 . S
C57 C52 1.356 . S
C57 C56 1.409 . S
C57 H79 0.930 . S
C58 O68 1.270 1_556 S
C58 O69 1.248 . S
C59 O70 1.267 . S
C59 O71 1.278 . S
O60 Pr40 2.562 . S
O60 C42 1.254 . S
O61 Pr40 2.490 . S
O61 C42 1.225 . S
O62 Pr40 2.695 1_556 S
O62 Pr41 2.436 . S
O62 C49 1.270 1_556 S
O63 Pr40 2.512 . S
O63 C49 1.248 . S
O64 Pr41 2.438 1_554 S
O64 C50 1.267 . S
O65 Pr40 2.437 . S
O65 C50 1.278 . S
O66 Pr41 2.562 . S
O66 C51 1.254 . S
O67 Pr41 2.490 . S
O67 C51 1.225 . S
O68 Pr40 2.436 . S
O68 Pr41 2.695 1_554 S
O68 C58 1.270 1_554 S
O69 Pr41 2.512 . S
O69 C58 1.248 . S
O70 Pr40 2.438 1_556 S
O70 C59 1.267 . S
O71 Pr41 2.437 . S
O71 C59 1.278 . S
H72 C44 0.929 . S
H73 C45 0.929 . S
H74 C47 0.931 . S
H75 C48 0.930 . S
H76 C53 0.929 . S
H77 C54 0.929 . S
H78 C56 0.931 . S
H79 C57 0.930 . S
Pr80 C82 2.880 . S
Pr80 O100 2.562 . S
Pr80 O101 2.490 . S
Pr80 O102 2.695 . S
Pr80 O103 2.512 . S
Pr80 O105 2.437 . S
Pr80 O108 2.436 . S
Pr80 O110 2.438 . S
Pr81 C91 2.880 . S
Pr81 O102 2.436 . S
Pr81 O104 2.438 . S
Pr81 O106 2.562 . S
Pr81 O107 2.490 . S
Pr81 O108 2.695 . S
Pr81 O109 2.512 . S
Pr81 O111 2.437 . S
C82 Pr80 2.880 . S
C82 C83 1.491 . S
C82 O100 1.254 . S
C82 O101 1.225 . S
C83 C82 1.491 . S
C83 C84 1.392 . S
C83 C88 1.356 . S
C84 C83 1.392 . S
C84 C85 1.368 . S
C84 H112 0.929 . S
C85 C84 1.368 . S
C85 C86 1.386 . S
C85 H113 0.929 . S
C86 C85 1.386 . S
C86 C87 1.373 . S
C87 C86 1.373 . S
C87 C88 1.409 . S
C87 H114 0.931 . S
C88 C83 1.356 . S
C88 C87 1.409 . S
C88 H115 0.930 . S
C89 O102 1.270 . S
C89 O103 1.248 . S
C90 O104 1.267 . S
C90 O105 1.278 . S
C91 Pr81 2.880 . S
C91 C92 1.491 . S
C91 O106 1.254 . S
C91 O107 1.225 . S
C92 C91 1.491 . S
C92 C93 1.392 . S
C92 C97 1.356 . S
C93 C92 1.392 . S
C93 C94 1.368 . S
C93 H116 0.929 . S
C94 C93 1.368 . S
C94 C95 1.386 . S
C94 H117 0.929 . S
C95 C94 1.386 . S
C95 C96 1.373 . S
C96 C95 1.373 . S
C96 C97 1.409 . S
C96 H118 0.931 . S
C97 C92 1.356 . S
C97 C96 1.409 . S
C97 H119 0.930 . S
C98 O108 1.270 . S
C98 O109 1.248 . S
C99 O110 1.267 . S
C99 O111 1.278 . S
O100 Pr80 2.562 . S
O100 C82 1.254 . S
O101 Pr80 2.490 . S
O101 C82 1.225 . S
O102 Pr80 2.695 . S
O102 Pr81 2.436 . S
O102 C89 1.270 . S
O103 Pr80 2.512 . S
O103 C89 1.248 . S
O104 Pr81 2.438 . S
O104 C90 1.267 . S
O105 Pr80 2.437 . S
O105 C90 1.278 . S
O106 Pr81 2.562 . S
O106 C91 1.254 . S
O107 Pr81 2.490 . S
O107 C91 1.225 . S
O108 Pr80 2.436 . S
O108 Pr81 2.695 . S
O108 C98 1.270 . S
O109 Pr81 2.512 . S
O109 C98 1.248 . S
O110 Pr80 2.438 . S
O110 C99 1.267 . S
O111 Pr81 2.437 . S
O111 C99 1.278 . S
H112 C84 0.929 . S
H113 C85 0.929 . S
H114 C87 0.931 . S
H115 C88 0.930 . S
H116 C93 0.929 . S
H117 C94 0.929 . S
H118 C96 0.931 . S
H119 C97 0.930 . S
Pr120 C122 2.880 . S
Pr120 O140 2.562 . S
Pr120 O141 2.490 . S
Pr120 O142 2.695 . S
Pr120 O143 2.512 . S
Pr120 O145 2.437 . S
Pr120 O148 2.436 . S
Pr120 O150 2.438 . S
Pr121 C131 2.880 . S
Pr121 O142 2.436 . S
Pr121 O144 2.438 . S
Pr121 O146 2.562 . S
Pr121 O147 2.490 . S
Pr121 O148 2.695 . S
Pr121 O149 2.512 . S
Pr121 O151 2.437 . S
C122 Pr120 2.880 . S
C122 C123 1.491 . S
C122 O140 1.254 . S
C122 O141 1.225 . S
C123 C122 1.491 . S
C123 C124 1.392 . S
C123 C128 1.356 . S
C124 C123 1.392 . S
C124 C125 1.368 . S
C124 H152 0.929 . S
C125 C124 1.368 . S
C125 C126 1.386 . S
C125 H153 0.929 . S
C126 C125 1.386 . S
C126 C127 1.373 . S
C127 C126 1.373 . S
C127 C128 1.409 . S
C127 H154 0.931 . S
C128 C123 1.356 . S
C128 C127 1.409 . S
C128 H155 0.930 . S
C129 O142 1.270 . S
C129 O143 1.248 . S
C130 O144 1.267 . S
C130 O145 1.278 . S
C131 Pr121 2.880 . S
C131 C132 1.491 . S
C131 O146 1.254 . S
C131 O147 1.225 . S
C132 C131 1.491 . S
C132 C133 1.392 . S
C132 C137 1.356 . S
C133 C132 1.392 . S
C133 C134 1.368 . S
C133 H156 0.929 . S
C134 C133 1.368 . S
C134 C135 1.386 . S
C134 H157 0.929 . S
C135 C134 1.386 . S
C135 C136 1.373 . S
C136 C135 1.373 . S
C136 C137 1.409 . S
C136 H158 0.931 . S
C137 C132 1.356 . S
C137 C136 1.409 . S
C137 H159 0.930 . S
C138 O148 1.270 . S
C138 O149 1.248 . S
C139 O150 1.267 . S
C139 O151 1.278 . S
O140 Pr120 2.562 . S
O140 C122 1.254 . S
O141 Pr120 2.490 . S
O141 C122 1.225 . S
O142 Pr120 2.695 . S
O142 Pr121 2.436 . S
O142 C129 1.270 . S
O143 Pr120 2.512 . S
O143 C129 1.248 . S
O144 Pr121 2.438 . S
O144 C130 1.267 . S
O145 Pr120 2.437 . S
O145 C130 1.278 . S
O146 Pr121 2.562 . S
O146 C131 1.254 . S
O147 Pr121 2.490 . S
O147 C131 1.225 . S
O148 Pr120 2.436 . S
O148 Pr121 2.695 . S
O148 C138 1.270 . S
O149 Pr121 2.512 . S
O149 C138 1.248 . S
O150 Pr120 2.438 . S
O150 C139 1.267 . S
O151 Pr121 2.437 . S
O151 C139 1.278 . S
H152 C124 0.929 . S
H153 C125 0.929 . S
H154 C127 0.931 . S
H155 C128 0.930 . S
H156 C133 0.929 . S
H157 C134 0.929 . S
H158 C136 0.931 . S
H159 C137 0.930 . S
C160 C161 1.352 1_554 S
C160 C162 1.327 . S
C160 H185 0.950 . S
C161 C160 1.352 1_556 S
C161 C177 1.346 . S
C162 C160 1.327 . S
C162 C181 1.428 . S
C162 H186 0.950 . S
C163 C180 1.574 . S
C163 C182 1.367 1_556 S
C163 H187 0.949 . S
H164 C168 0.949 . S
C165 C166 1.339 1_556 S
C165 C167 1.327 . S
C165 H188 0.950 . S
C166 C165 1.339 1_554 S
C166 C178 1.358 . S
C167 C165 1.327 . S
C167 C183 1.423 1_556 S
C167 H189 0.950 . S
C168 H164 0.949 . S
C168 C176 1.574 . S
C168 C184 1.373 . S
H169 C177 0.950 . S
H170 C175 0.950 . S
H171 C176 0.949 . S
H172 C178 0.950 . S
H173 C179 0.950 . S
H174 C180 0.949 . S
C175 H170 0.950 . S
C175 C177 1.327 . S
C175 C181 1.429 1_556 S
C176 C168 1.574 . S
C176 H171 0.949 . S
C176 C182 1.369 . S
C177 C161 1.346 . S
C177 H169 0.950 . S
C177 C175 1.327 . S
C178 C166 1.358 . S
C178 H172 0.950 . S
C178 C179 1.327 . S
C179 H173 0.950 . S
C179 C178 1.327 . S
C179 C183 1.435 . S
C180 C163 1.574 . S
C180 H174 0.949 . S
C180 C184 1.364 1_556 S
C181 C162 1.428 . S
C181 C175 1.429 1_554 S
C181 C182 1.523 . S
C182 C163 1.367 1_554 S
C182 C176 1.369 . S
C182 C181 1.523 . S
C183 C167 1.423 1_554 S
C183 C179 1.435 . S
C183 C184 1.523 . S
C184 C168 1.373 . S
C184 C180 1.364 1_554 S
C184 C183 1.523 . S
H185 C160 0.950 . S
H186 C162 0.950 . S
H187 C163 0.949 . S
H188 C165 0.950 . S
H189 C167 0.950 . S
C190 C191 1.349 . S
C190 C192 1.327 . S
C190 H215 0.950 . S
C191 C190 1.349 . S
C191 C207 1.349 . S
C192 C190 1.327 . S
C192 C211 1.429 . S
C192 H216 0.950 . S
C193 C210 1.574 . S
C193 C212 1.368 . S
C193 H217 0.949 . S
H194 C198 0.949 . S
C195 C196 1.349 . S
C195 C197 1.327 . S
C195 H218 0.950 . S
C196 C195 1.349 . S
C196 C208 1.349 . S
C197 C195 1.327 . S
C197 C213 1.429 . S
C197 H219 0.950 . S
C198 H194 0.949 . S
C198 C206 1.574 . S
C198 C214 1.368 . S
H199 C207 0.950 . S
H200 C205 0.950 . S
H201 C206 0.949 . S
H202 C208 0.950 . S
H203 C209 0.950 . S
H204 C210 0.949 . S
C205 H200 0.950 . S
C205 C207 1.327 . S
C205 C211 1.429 . S
C206 C198 1.574 . S
C206 H201 0.949 . S
C206 C212 1.368 . S
C207 C191 1.349 . S
C207 H199 0.950 . S
C207 C205 1.327 . S
C208 C196 1.349 . S
C208 H202 0.950 . S
C208 C209 1.327 . S
C209 H203 0.950 . S
C209 C208 1.327 . S
C209 C213 1.429 . S
C210 C193 1.574 . S
C210 H204 0.949 . S
C210 C214 1.368 . S
C211 C192 1.429 . S
C211 C205 1.429 . S
C211 C212 1.523 . S
C212 C193 1.368 . S
C212 C206 1.368 . S
C212 C211 1.523 . S
C213 C197 1.429 . S
C213 C209 1.429 . S
C213 C214 1.523 . S
C214 C198 1.368 . S
C214 C210 1.368 . S
C214 C213 1.523 . S
H215 C190 0.950 . S
H216 C192 0.950 . S
H217 C193 0.949 . S
H218 C195 0.950 . S
H219 C197 0.950 . S
C220 C221 1.347 . S
C220 C222 1.327 . S
C220 H245 0.950 . S
C221 C220 1.347 . S
C221 C237 1.351 1_556 S
C222 C220 1.327 . S
C222 C241 1.429 1_556 S
C222 H246 0.950 . S
C223 C240 1.574 1_545 S
C223 C242 1.369 1_655 S
C223 H247 0.949 . S
H224 C228 0.949 . S
C225 C226 1.357 . S
C225 C227 1.327 . S
C225 H248 0.950 . S
C226 C225 1.357 . S
C226 C238 1.340 1_554 S
C227 C225 1.327 . S
C227 C243 1.434 . S
C227 H249 0.950 . S
C228 H224 0.949 . S
C228 C236 1.574 1_565 S
C228 C244 1.364 1_456 S
H229 C237 0.950 . S
H230 C235 0.950 . S
H231 C236 0.949 . S
H232 C238 0.950 . S
H233 C239 0.950 . S
H234 C240 0.949 . S
C235 H230 0.950 . S
C235 C237 1.327 . S
C235 C241 1.428 . S
C236 C228 1.574 1_545 S
C236 H231 0.949 . S
C236 C242 1.367 1_556 S
C237 C221 1.351 1_554 S
C237 H229 0.950 . S
C237 C235 1.327 . S
C238 C226 1.340 1_556 S
C238 H232 0.950 . S
C238 C239 1.327 . S
C239 H233 0.950 . S
C239 C238 1.327 . S
C239 C243 1.423 1_556 S
C240 C223 1.574 1_565 S
C240 H234 0.949 . S
C240 C244 1.372 . S
C241 C222 1.429 1_554 S
C241 C235 1.428 . S
C241 C242 1.523 . S
C242 C223 1.369 1_455 S
C242 C236 1.367 1_554 S
C242 C241 1.523 . S
C243 C227 1.434 . S
C243 C239 1.423 1_554 S
C243 C244 1.523 . S
C244 C228 1.364 1_654 S
C244 C240 1.372 . S
C244 C243 1.523 . S
H245 C220 0.950 . S
H246 C222 0.950 . S
H247 C223 0.949 . S
H248 C225 0.950 . S
H249 C227 0.950 . S
C250 C251 1.349 . S
C250 C252 1.327 . S
C250 H275 0.950 . S
C251 C250 1.349 . S
C251 C267 1.349 . S
C252 C250 1.327 . S
C252 C271 1.429 . S
C252 H276 0.950 . S
C253 C270 1.574 1_545 S
C253 C272 1.368 1_455 S
C253 H277 0.949 . S
H254 C258 0.949 . S
C255 C256 1.349 . S
C255 C257 1.327 . S
C255 H278 0.950 . S
C256 C255 1.349 . S
C256 C268 1.349 . S
C257 C255 1.327 . S
C257 C273 1.429 . S
C257 H279 0.950 . S
C258 H254 0.949 . S
C258 C266 1.574 1_565 S
C258 C274 1.368 1_655 S
H259 C267 0.950 . S
H260 C265 0.950 . S
H261 C266 0.949 . S
H262 C268 0.950 . S
H263 C269 0.950 . S
H264 C270 0.949 . S
C265 H260 0.950 . S
C265 C267 1.327 . S
C265 C271 1.429 . S
C266 C258 1.574 1_545 S
C266 H261 0.949 . S
C266 C272 1.368 . S
C267 C251 1.349 . S
C267 H259 0.950 . S
C267 C265 1.327 . S
C268 C256 1.349 . S
C268 H262 0.950 . S
C268 C269 1.327 . S
C269 H263 0.950 . S
C269 C268 1.327 . S
C269 C273 1.429 . S
C270 C253 1.574 1_565 S
C270 H264 0.949 . S
C270 C274 1.368 . S
C271 C252 1.429 . S
C271 C265 1.429 . S
C271 C272 1.523 . S
C272 C253 1.368 1_655 S
C272 C266 1.368 . S
C272 C271 1.523 . S
C273 C257 1.429 . S
C273 C269 1.429 . S
C273 C274 1.523 . S
C274 C258 1.368 1_455 S
C274 C270 1.368 . S
C274 C273 1.523 . S
H275 C250 0.950 . S
H276 C252 0.950 . S
H277 C253 0.949 . S
H278 C255 0.950 . S
H279 C257 0.950 . S
C280 C281 1.349 . S
C280 C282 1.327 . S
C280 H305 0.950 . S
C281 C280 1.349 . S
C281 C297 1.349 . S
C282 C280 1.327 . S
C282 C301 1.429 . S
C282 H306 0.950 . S
C283 C300 1.574 . S
C283 C302 1.368 . S
C283 H307 0.949 . S
H284 C288 0.949 . S
C285 C286 1.349 . S
C285 C287 1.327 . S
C285 H308 0.950 . S
C286 C285 1.349 . S
C286 C298 1.349 . S
C287 C285 1.327 . S
C287 C303 1.429 . S
C287 H309 0.950 . S
C288 H284 0.949 . S
C288 C296 1.574 . S
C288 C304 1.368 . S
H289 C297 0.950 . S
H290 C295 0.950 . S
H291 C296 0.949 . S
H292 C298 0.950 . S
H293 C299 0.950 . S
H294 C300 0.949 . S
C295 H290 0.950 . S
C295 C297 1.327 . S
C295 C301 1.429 . S
C296 C288 1.574 . S
C296 H291 0.949 . S
C296 C302 1.368 . S
C297 C281 1.349 . S
C297 H289 0.950 . S
C297 C295 1.327 . S
C298 C286 1.349 . S
C298 H292 0.950 . S
C298 C299 1.327 . S
C299 H293 0.950 . S
C299 C298 1.327 . S
C299 C303 1.429 . S
C300 C283 1.574 . S
C300 H294 0.949 . S
C300 C304 1.368 . S
C301 C282 1.429 . S
C301 C295 1.429 . S
C301 C302 1.523 . S
C302 C283 1.368 . S
C302 C296 1.368 . S
C302 C301 1.523 . S
C303 C287 1.429 . S
C303 C299 1.429 . S
C303 C304 1.523 . S
C304 C288 1.368 . S
C304 C300 1.368 . S
C304 C303 1.523 . S
H305 C280 0.950 . S
H306 C282 0.950 . S
H307 C283 0.949 . S
H308 C285 0.950 . S
H309 C287 0.950 . S
C310 C311 1.349 . S
C310 C312 1.327 . S
C310 H335 0.950 . S
C311 C310 1.349 . S
C311 C327 1.349 . S
C312 C310 1.327 . S
C312 C331 1.429 . S
C312 H336 0.950 . S
C313 C330 1.574 . S
C313 C332 1.368 . S
C313 H337 0.949 . S
H314 C318 0.949 . S
C315 C316 1.349 . S
C315 C317 1.327 . S
C315 H338 0.950 . S
C316 C315 1.349 . S
C316 C328 1.349 . S
C317 C315 1.327 . S
C317 C333 1.429 . S
C317 H339 0.950 . S
C318 H314 0.949 . S
C318 C326 1.574 . S
C318 C334 1.368 . S
H319 C327 0.950 . S
H320 C325 0.950 . S
H321 C326 0.949 . S
H322 C328 0.950 . S
H323 C329 0.950 . S
H324 C330 0.949 . S
C325 H320 0.950 . S
C325 C327 1.327 . S
C325 C331 1.429 . S
C326 C318 1.574 . S
C326 H321 0.949 . S
C326 C332 1.368 . S
C327 C311 1.349 . S
C327 H319 0.950 . S
C327 C325 1.327 . S
C328 C316 1.349 . S
C328 H322 0.950 . S
C328 C329 1.327 . S
C329 H323 0.950 . S
C329 C328 1.327 . S
C329 C333 1.429 . S
C330 C313 1.574 . S
C330 H324 0.949 . S
C330 C334 1.368 . S
C331 C312 1.429 . S
C331 C325 1.429 . S
C331 C332 1.523 . S
C332 C313 1.368 . S
C332 C326 1.368 . S
C332 C331 1.523 . S
C333 C317 1.429 . S
C333 C329 1.429 . S
C333 C334 1.523 . S
C334 C318 1.368 . S
C334 C330 1.368 . S
C334 C333 1.523 . S
H335 C310 0.950 . S
H336 C312 0.950 . S
H337 C313 0.949 . S
H338 C315 0.950 . S
H339 C317 0.950 . S
C340 C341 1.349 . S
C340 C342 1.327 . S
C340 H365 0.950 . S
C341 C340 1.349 . S
C341 C357 1.349 . S
C342 C340 1.327 . S
C342 C361 1.429 . S
C342 H366 0.950 . S
C343 C360 1.574 . S
C343 C362 1.368 . S
C343 H367 0.949 . S
H344 C348 0.949 . S
C345 C346 1.349 . S
C345 C347 1.327 . S
C345 H368 0.950 . S
C346 C345 1.349 . S
C346 C358 1.349 . S
C347 C345 1.327 . S
C347 C363 1.429 . S
C347 H369 0.950 . S
C348 H344 0.949 . S
C348 C356 1.574 . S
C348 C364 1.368 . S
H349 C357 0.950 . S
H350 C355 0.950 . S
H351 C356 0.949 . S
H352 C358 0.950 . S
H353 C359 0.950 . S
H354 C360 0.949 . S
C355 H350 0.950 . S
C355 C357 1.327 . S
C355 C361 1.429 . S
C356 C348 1.574 . S
C356 H351 0.949 . S
C356 C362 1.368 . S
C357 C341 1.349 . S
C357 H349 0.950 . S
C357 C355 1.327 . S
C358 C346 1.349 . S
C358 H352 0.950 . S
C358 C359 1.327 . S
C359 H353 0.950 . S
C359 C358 1.327 . S
C359 C363 1.429 . S
C360 C343 1.574 . S
C360 H354 0.949 . S
C360 C364 1.368 . S
C361 C342 1.429 . S
C361 C355 1.429 . S
C361 C362 1.523 . S
C362 C343 1.368 . S
C362 C356 1.368 . S
C362 C361 1.523 . S
C363 C347 1.429 . S
C363 C359 1.429 . S
C363 C364 1.523 . S
C364 C348 1.368 . S
C364 C360 1.368 . S
C364 C363 1.523 . S
H365 C340 0.950 . S
H366 C342 0.950 . S
H367 C343 0.949 . S
H368 C345 0.950 . S
H369 C347 0.950 . S
C370 C371 1.349 . S
C370 C372 1.327 . S
C370 H395 0.950 . S
C371 C370 1.349 . S
C371 C387 1.349 . S
C372 C370 1.327 . S
C372 C391 1.429 . S
C372 H396 0.950 . S
C373 C390 1.574 . S
C373 C392 1.368 . S
C373 H397 0.949 . S
H374 C378 0.949 . S
C375 C376 1.349 . S
C375 C377 1.327 . S
C375 H398 0.950 . S
C376 C375 1.349 . S
C376 C388 1.349 . S
C377 C375 1.327 . S
C377 C393 1.429 . S
C377 H399 0.950 . S
C378 H374 0.949 . S
C378 C386 1.574 . S
C378 C394 1.368 . S
H379 C387 0.950 . S
H380 C385 0.950 . S
H381 C386 0.949 . S
H382 C388 0.950 . S
H383 C389 0.950 . S
H384 C390 0.949 . S
C385 H380 0.950 . S
C385 C387 1.327 . S
C385 C391 1.429 . S
C386 C378 1.574 . S
C386 H381 0.949 . S
C386 C392 1.368 . S
C387 C371 1.349 . S
C387 H379 0.950 . S
C387 C385 1.327 . S
C388 C376 1.349 . S
C388 H382 0.950 . S
C388 C389 1.327 . S
C389 H383 0.950 . S
C389 C388 1.327 . S
C389 C393 1.429 . S
C390 C373 1.574 . S
C390 H384 0.949 . S
C390 C394 1.368 . S
C391 C372 1.429 . S
C391 C385 1.429 . S
C391 C392 1.523 . S
C392 C373 1.368 . S
C392 C386 1.368 . S
C392 C391 1.523 . S
C393 C377 1.429 . S
C393 C389 1.429 . S
C393 C394 1.523 . S
C394 C378 1.368 . S
C394 C390 1.368 . S
C394 C393 1.523 . S
H395 C370 0.950 . S
H396 C372 0.950 . S
H397 C373 0.949 . S
H398 C375 0.950 . S
H399 C377 0.950 . S
C400 C401 1.349 . S
C400 C402 1.327 . S
C400 H425 0.950 . S
C401 C400 1.349 . S
C401 C417 1.349 . S
C402 C400 1.327 . S
C402 C421 1.429 . S
C402 H426 0.950 . S
C403 C420 1.574 . S
C403 C422 1.368 . S
C403 H427 0.949 . S
H404 C408 0.949 1_455 S
C405 C406 1.349 1_655 S
C405 C407 1.327 . S
C405 H428 0.950 . S
C406 C405 1.349 1_455 S
C406 C418 1.349 . S
C407 C405 1.327 . S
C407 C423 1.429 . S
C407 H429 0.950 . S
C408 H404 0.949 1_655 S
C408 C416 1.574 . S
C408 C424 1.368 . S
H409 C417 0.950 . S
H410 C415 0.950 . S
H411 C416 0.949 . S
H412 C418 0.950 . S
H413 C419 0.950 . S
H414 C420 0.949 . S
C415 H410 0.950 . S
C415 C417 1.327 . S
C415 C421 1.429 . S
C416 C408 1.574 . S
C416 H411 0.949 . S
C416 C422 1.368 . S
C417 C401 1.349 . S
C417 H409 0.950 . S
C417 C415 1.327 . S
C418 C406 1.349 . S
C418 H412 0.950 . S
C418 C419 1.327 . S
C419 H413 0.950 . S
C419 C418 1.327 . S
C419 C423 1.429 1_455 S
C420 C403 1.574 . S
C420 H414 0.949 . S
C420 C424 1.368 . S
C421 C402 1.429 . S
C421 C415 1.429 . S
C421 C422 1.523 . S
C422 C403 1.368 . S
C422 C416 1.368 . S
C422 C421 1.523 . S
C423 C407 1.429 . S
C423 C419 1.429 1_655 S
C423 C424 1.523 . S
C424 C408 1.368 . S
C424 C420 1.368 . S
C424 C423 1.523 . S
H425 C400 0.950 . S
H426 C402 0.950 . S
H427 C403 0.949 . S
H428 C405 0.950 . S
H429 C407 0.950 . S
C430 C431 1.349 . S
C430 C432 1.327 . S
C430 H455 0.950 . S
C431 C430 1.349 . S
C431 C447 1.349 . S
C432 C430 1.327 . S
C432 C451 1.429 . S
C432 H456 0.950 . S
C433 C450 1.574 . S
C433 C452 1.368 . S
C433 H457 0.949 . S
H434 C438 0.949 1_455 S
C435 C436 1.349 1_655 S
C435 C437 1.327 . S
C435 H458 0.950 . S
C436 C435 1.349 1_455 S
C436 C448 1.349 . S
C437 C435 1.327 . S
C437 C453 1.429 . S
C437 H459 0.950 . S
C438 H434 0.949 1_655 S
C438 C446 1.574 . S
C438 C454 1.368 . S
H439 C447 0.950 . S
H440 C445 0.950 . S
H441 C446 0.949 . S
H442 C448 0.950 . S
H443 C449 0.950 . S
H444 C450 0.949 . S
C445 H440 0.950 . S
C445 C447 1.327 . S
C445 C451 1.429 . S
C446 C438 1.574 . S
C446 H441 0.949 . S
C446 C452 1.368 . S
C447 C431 1.349 . S
C447 H439 0.950 . S
C447 C445 1.327 . S
C448 C436 1.349 . S
C448 H442 0.950 . S
C448 C449 1.327 . S
C449 H443 0.950 . S
C449 C448 1.327 . S
C449 C453 1.429 1_455 S
C450 C433 1.574 . S
C450 H444 0.949 . S
C450 C454 1.368 . S
C451 C432 1.429 . S
C451 C445 1.429 . S
C451 C452 1.523 . S
C452 C433 1.368 . S
C452 C446 1.368 . S
C452 C451 1.523 . S
C453 C437 1.429 . S
C453 C449 1.429 1_655 S
C453 C454 1.523 . S
C454 C438 1.368 . S
C454 C450 1.368 . S
C454 C453 1.523 . S
H455 C430 0.950 . S
H456 C432 0.950 . S
H457 C433 0.949 . S
H458 C435 0.950 . S
H459 C437 0.950 . S
C460 C461 1.349 . S
C460 C462 1.327 . S
C460 H485 0.950 . S
C461 C460 1.349 . S
C461 C477 1.349 1_655 S
C462 C460 1.327 . S
C462 C481 1.429 1_655 S
C462 H486 0.950 . S
C463 C480 1.574 . S
C463 C482 1.368 . S
C463 H487 0.949 . S
H464 C468 0.949 . S
C465 C466 1.349 . S
C465 C467 1.327 . S
C465 H488 0.950 . S
C466 C465 1.349 . S
C466 C478 1.349 . S
C467 C465 1.327 . S
C467 C483 1.429 . S
C467 H489 0.950 . S
C468 H464 0.949 . S
C468 C476 1.574 . S
C468 C484 1.368 . S
H469 C477 0.950 . S
H470 C475 0.950 . S
H471 C476 0.949 1_655 S
H472 C478 0.950 . S
H473 C479 0.950 . S
H474 C480 0.949 . S
C475 H470 0.950 . S
C475 C477 1.327 . S
C475 C481 1.429 . S
C476 C468 1.574 . S
C476 H471 0.949 1_455 S
C476 C482 1.368 . S
C477 C461 1.349 1_455 S
C477 H469 0.950 . S
C477 C475 1.327 . S
C478 C466 1.349 . S
C478 H472 0.950 . S
C478 C479 1.327 . S
C479 H473 0.950 . S
C479 C478 1.327 . S
C479 C483 1.429 . S
C480 C463 1.574 . S
C480 H474 0.949 . S
C480 C484 1.368 . S
C481 C462 1.429 1_455 S
C481 C475 1.429 . S
C481 C482 1.523 . S
C482 C463 1.368 . S
C482 C476 1.368 . S
C482 C481 1.523 . S
C483 C467 1.429 . S
C483 C479 1.429 . S
C483 C484 1.523 . S
C484 C468 1.368 . S
C484 C480 1.368 . S
C484 C483 1.523 . S
H485 C460 0.950 . S
H486 C462 0.950 . S
H487 C463 0.949 . S
H488 C465 0.950 . S
H489 C467 0.950 . S
C490 C491 1.349 . S
C490 C492 1.327 . S
C490 H515 0.950 . S
C491 C490 1.349 . S
C491 C507 1.349 . S
C492 C490 1.327 . S
C492 C511 1.429 . S
C492 H516 0.950 . S
C493 C510 1.574 . S
C493 C512 1.368 . S
C493 H517 0.949 . S
H494 C498 0.949 1_655 S
C495 C496 1.349 1_455 S
C495 C497 1.327 . S
C495 H518 0.950 . S
C496 C495 1.349 1_655 S
C496 C508 1.349 . S
C497 C495 1.327 . S
C497 C513 1.429 . S
C497 H519 0.950 . S
C498 H494 0.949 1_455 S
C498 C506 1.574 . S
C498 C514 1.368 . S
H499 C507 0.950 . S
H500 C505 0.950 . S
H501 C506 0.949 . S
H502 C508 0.950 . S
H503 C509 0.950 . S
H504 C510 0.949 . S
C505 H500 0.950 . S
C505 C507 1.327 . S
C505 C511 1.429 . S
C506 C498 1.574 . S
C506 H501 0.949 . S
C506 C512 1.368 . S
C507 C491 1.349 . S
C507 H499 0.950 . S
C507 C505 1.327 . S
C508 C496 1.349 . S
C508 H502 0.950 . S
C508 C509 1.327 . S
C509 H503 0.950 . S
C509 C508 1.327 . S
C509 C513 1.429 1_655 S
C510 C493 1.574 . S
C510 H504 0.949 . S
C510 C514 1.368 . S
C511 C492 1.429 . S
C511 C505 1.429 . S
C511 C512 1.523 . S
C512 C493 1.368 . S
C512 C506 1.368 . S
C512 C511 1.523 . S
C513 C497 1.429 . S
C513 C509 1.429 1_455 S
C513 C514 1.523 . S
C514 C498 1.368 . S
C514 C510 1.368 . S
C514 C513 1.523 . S
H515 C490 0.950 . S
H516 C492 0.950 . S
H517 C493 0.949 . S
H518 C495 0.950 . S
H519 C497 0.950 . S
C161 C58 1.501 . S
C166 C9 1.504 . S
C191 C89 1.502 . S
C196 C138 1.502 . S
C221 C18 1.501 . S
C226 C49 1.504 . S
C251 C129 1.502 . S
C256 C98 1.502 . S
C281 C126 1.169 . S
C286 C10 1.169 . S
C311 C46 1.169 . S
C316 C90 1.169 . S
C341 C59 1.169 . S
C346 C95 1.169 . S
C371 C139 1.169 . S
C376 C15 1.169 . S
C401 C50 1.169 . S
C406 C86 1.169 . S
C431 C130 1.169 . S
C436 C6 1.169 . S
C461 C135 1.169 . S
C466 C19 1.169 . S
C491 C99 1.169 . S
C496 C55 1.169 . S
