# Generated by pormake.
# Topology wmc, (6)-cn, num edge types: 1
# Building blocks:
#     Node 0, Type 0, BuildingBlock: UKALOJ_clean_sbu_0, # of connection points: 6
#     Node 1, Type 0, BuildingBlock: UKALOJ_clean_sbu_0, # of connection points: 6
#     Node 2, Type 0, BuildingBlock: UKALOJ_clean_sbu_0, # of connection points: 6
#     Node 3, Type 0, BuildingBlock: UKALOJ_clean_sbu_0, # of connection points: 6
#     Node 4, Type 0, BuildingBlock: UKALOJ_clean_sbu_0, # of connection points: 6
#     Node 5, Type 0, BuildingBlock: UKALOJ_clean_sbu_0, # of connection points: 6
#     Node 6, Type 0, BuildingBlock: UKALOJ_clean_sbu_0, # of connection points: 6
#     Node 7, Type 0, BuildingBlock: UKALOJ_clean_sbu_0, # of connection points: 6
#     Node 8, Type 0, BuildingBlock: UKALOJ_clean_sbu_0, # of connection points: 6
#     Node 9, Type 0, BuildingBlock: UKALOJ_clean_sbu_0, # of connection points: 6
#     Node 10, Type 0, BuildingBlock: UKALOJ_clean_sbu_0, # of connection points: 6
#     Node 11, Type 0, BuildingBlock: UKALOJ_clean_sbu_0, # of connection points: 6
#     Node 12, Type 0, BuildingBlock: UKALOJ_clean_sbu_0, # of connection points: 6
#     Node 13, Type 0, BuildingBlock: UKALOJ_clean_sbu_0, # of connection points: 6
#     Node 14, Type 0, BuildingBlock: UKALOJ_clean_sbu_0, # of connection points: 6
#     Node 15, Type 0, BuildingBlock: UKALOJ_clean_sbu_0, # of connection points: 6
#     Node 16, Type 0, BuildingBlock: UKALOJ_clean_sbu_0, # of connection points: 6
#     Node 17, Type 0, BuildingBlock: UKALOJ_clean_sbu_0, # of connection points: 6
#     Edge 18, Type (0, 0), None
#     Edge 19, Type (0, 0), None
#     Edge 20, Type (0, 0), None
#     Edge 21, Type (0, 0), None
#     Edge 22, Type (0, 0), None
#     Edge 23, Type (0, 0), None
#     Edge 24, Type (0, 0), None
#     Edge 25, Type (0, 0), None
#     Edge 26, Type (0, 0), None
#     Edge 27, Type (0, 0), None
#     Edge 28, Type (0, 0), None
#     Edge 29, Type (0, 0), None
#     Edge 30, Type (0, 0), None
#     Edge 31, Type (0, 0), None
#     Edge 32, Type (0, 0), None
#     Edge 33, Type (0, 0), None
#     Edge 34, Type (0, 0), None
#     Edge 35, Type (0, 0), None
#     Edge 36, Type (0, 0), None
#     Edge 37, Type (0, 0), None
#     Edge 38, Type (0, 0), None
#     Edge 39, Type (0, 0), None
#     Edge 40, Type (0, 0), None
#     Edge 41, Type (0, 0), None
#     Edge 42, Type (0, 0), None
#     Edge 43, Type (0, 0), None
#     Edge 44, Type (0, 0), None
#     Edge 45, Type (0, 0), None
#     Edge 46, Type (0, 0), None
#     Edge 47, Type (0, 0), None
#     Edge 48, Type (0, 0), None
#     Edge 49, Type (0, 0), None
#     Edge 50, Type (0, 0), None
#     Edge 51, Type (0, 0), None
#     Edge 52, Type (0, 0), None
#     Edge 53, Type (0, 0), None
#     Edge 54, Type (0, 0), None
#     Edge 55, Type (0, 0), None
#     Edge 56, Type (0, 0), None
#     Edge 57, Type (0, 0), None
#     Edge 58, Type (0, 0), None
#     Edge 59, Type (0, 0), None
#     Edge 60, Type (0, 0), None
#     Edge 61, Type (0, 0), None
#     Edge 62, Type (0, 0), None
#     Edge 63, Type (0, 0), None
#     Edge 64, Type (0, 0), None
#     Edge 65, Type (0, 0), None
#     Edge 66, Type (0, 0), None
#     Edge 67, Type (0, 0), None
#     Edge 68, Type (0, 0), None
#     Edge 69, Type (0, 0), None
#     Edge 70, Type (0, 0), None
#     Edge 71, Type (0, 0), None
# Relax obj value: 0.465
# Max RMSD: 0.241
# Mean RMSD: 0.241
data_MOF--net-wmc--node1-UKALOJ_clean_sbu_0--edge1-none
_symmetry_space_group_name_H-M    P1
_symmetry_Int_Tables_number       1
_symmetry_cell_setting            triclinic
loop_
_symmetry_equiv_pos_as_xyz
'x, y, z'
_cell_length_a     26.439985
_cell_length_b     26.441062
_cell_length_c     13.67692
_cell_angle_alpha  89.993884
_cell_angle_beta   90.012072
_cell_angle_gamma 120.00432
loop_
_atom_site_label
_atom_site_type_symbol
_atom_site_fract_x
_atom_site_fract_y
_atom_site_fract_z
_atom_type_partial_charge
Zn0 Zn 0.56487 0.10771 0.00166 0.0
O1 O 0.53747 0.17084 -0.0348 0.0
C2 C 0.60836 0.14694 0.80316 0.0
Zn3 Zn 0.64799 0.18253 -0.00172 0.0
C4 C 0.56979 0.22268 -0.00174 0.0
O5 O 0.62048 0.23812 0.02861 0.0
C6 C 0.66784 0.08895 0.03044 0.0
O7 O 0.64854 0.17111 0.15467 0.0
O8 O 0.55206 0.11751 0.14784 0.0
N9 N 0.73246 0.24539 -0.01451 0.0
C10 C 0.76943 0.29374 0.03439 0.0
C11 C 0.81613 0.28767 0.91155 0.0
N12 N 0.76156 0.24173 0.90935 0.0
N13 N 0.82206 0.321 -0.01062 0.0
C14 C 0.43969 1.00989 0.9036 0.0
C15 C 0.37813 1.00329 0.00944 0.0
N16 N 0.47165 0.04049 -0.01681 0.0
N17 N 0.43237 0.03655 0.04767 0.0
N18 N 0.38043 0.98559 0.91808 0.0
H19 H 0.48952 0.05658 0.78025 0.0
H20 H 0.43781 0.98516 0.74905 0.0
H21 H 0.50139 0.99843 0.81906 0.0
C22 C 0.46793 1.0114 0.80783 0.0
C23 C 0.75497 0.31282 0.12834 0.0
H24 H 0.71297 0.2786 0.15891 0.0
H25 H 0.75179 0.35229 0.11494 0.0
H26 H 0.79058 0.32449 0.18217 0.0
O27 O 0.68027 0.12799 -0.03202 0.0
O28 O 0.6136 0.06015 0.05689 0.0
C29 C 0.59863 0.14562 0.19732 0.0
O30 O 0.58127 0.1003 0.85231 0.0
O31 O 0.64031 0.1944 0.84724 0.0
Zn32 Zn 0.97839 0.4876 0.00163 0.0
O33 O 0.91531 0.39704 -0.03474 0.0
C34 C 0.93912 0.49183 0.80311 0.0
Zn35 Zn 0.90353 0.49583 -0.0018 0.0
C36 C 0.86346 0.37748 -0.00171 0.0
O37 O 0.84796 0.4127 0.02852 0.0
C38 C 0.99709 0.60931 0.03036 0.0
O39 O 0.91495 0.50778 0.15459 0.0
O40 O 0.96864 0.465 0.14784 0.0
N41 N 0.84065 0.51741 -0.01459 0.0
C42 C 0.79234 0.50608 0.03438 0.0
C43 C 0.79836 0.5588 0.9115 0.0
N44 N 0.84427 0.55015 0.90924 0.0
N45 N 0.76508 0.53146 -0.0106 0.0
C46 C 0.07624 0.4603 0.90354 0.0
C47 C 0.08279 0.40527 0.00933 0.0
N48 N 1.04564 0.46164 -0.01687 0.0
N49 N 1.04955 0.42626 0.04758 0.0
N50 N 0.10051 0.42531 0.91799 0.0
H51 H 1.02956 0.46346 0.78014 0.0
H52 H 0.10099 0.48321 0.74901 0.0
H53 H 0.08769 0.53348 0.81903 0.0
C54 C 0.07473 0.48705 0.80778 0.0
C55 C 0.77329 0.47254 0.12835 0.0
H56 H 0.80755 0.46484 0.15898 0.0
H57 H 0.73389 0.42985 0.11491 0.0
H58 H 0.76153 0.49641 0.18213 0.0
O59 O 0.95803 0.58268 -0.03208 0.0
O60 O 1.02592 0.58389 0.0568 0.0
C61 C 0.94048 0.48341 0.19728 0.0
O62 O 0.98576 0.51138 0.85227 0.0
O63 O 0.89166 0.4763 0.84717 0.0
Zn64 Zn 0.59849 0.52122 0.0017 0.0
O65 O 0.68904 0.54868 -0.03466 0.0
C66 C 0.59427 0.47774 0.80319 0.0
Zn67 Zn 0.59024 0.43812 -0.00171 0.0
C68 C 0.7086 0.51639 -0.00163 0.0
O69 O 0.67338 0.46567 0.02864 0.0
C70 C 0.47677 0.41822 0.03039 0.0
O71 O 0.57829 0.43757 0.15468 0.0
O72 O 0.62108 0.53404 0.1479 0.0
N73 N 0.56864 0.35367 -0.01453 0.0
C74 C 0.58015 0.31675 0.03424 0.0
C75 C 0.52722 0.26998 0.91154 0.0
N76 N 0.53578 0.32452 0.90942 0.0
N77 N 0.55483 0.26415 -0.01084 0.0
C78 C 0.62581 0.64638 0.9036 0.0
C79 C 0.68083 0.70795 0.00941 0.0
N80 N 0.62447 0.61443 -0.01681 0.0
N81 N 0.65984 0.65372 0.04766 0.0
N82 N 0.66079 0.70564 0.91806 0.0
H83 H 0.62262 0.59655 0.7802 0.0
H84 H 0.60285 0.64821 0.74907 0.0
H85 H 0.5526 0.58463 0.81911 0.0
C86 C 0.59903 0.61812 0.80784 0.0
C87 C 0.61379 0.33125 0.12813 0.0
H88 H 0.62151 0.37322 0.15877 0.0
H89 H 0.65645 0.33452 0.11458 0.0
H90 H 0.58995 0.29563 0.18195 0.0
O91 O 0.5034 0.4058 -0.03203 0.0
O92 O 0.5022 0.47247 0.05683 0.0
C93 C 0.60266 0.48748 0.19736 0.0
O94 O 0.57472 0.50483 0.85232 0.0
O95 O 0.60978 0.4458 0.84728 0.0
Zn96 Zn 0.97838 0.52121 0.50163 0.0
O97 O 0.91526 0.54862 0.46516 0.0
C98 C 0.93914 0.47771 0.30312 0.0
Zn99 Zn 0.90355 0.43809 0.49822 0.0
C100 C 0.86342 0.51631 0.49821 0.0
O101 O 0.84798 0.46563 0.52855 0.0
C102 C 0.99712 0.41822 0.5304 0.0
O103 O 0.91497 0.43756 0.65461 0.0
O104 O 0.96859 0.53403 0.64781 0.0
N105 N 0.84068 0.35363 0.48543 0.0
C106 C 0.79236 0.31665 0.53438 0.0
C107 C 0.79838 0.26996 0.41151 0.0
N108 N 0.8443 0.32453 0.40927 0.0
N109 N 0.76509 0.26402 0.48939 0.0
C110 C 0.07621 0.64638 0.40356 0.0
C111 C 0.08279 0.70795 0.50937 0.0
N112 N 1.04561 0.61442 0.48314 0.0
N113 N 1.04953 0.65371 0.5476 0.0
N114 N 0.1005 0.70564 0.41802 0.0
H115 H 1.02953 0.59654 0.28018 0.0
H116 H 0.10095 0.64824 0.24902 0.0
H117 H 0.08767 0.58467 0.31904 0.0
C118 C 0.0747 0.61813 0.30779 0.0
C119 C 0.77331 0.33112 0.62837 0.0
H120 H 0.80755 0.37311 0.65895 0.0
H121 H 0.73386 0.33432 0.615 0.0
H122 H 0.76164 0.29551 0.68218 0.0
O123 O 0.95808 0.40579 0.46793 0.0
O124 O 1.02592 0.47247 0.55685 0.0
C125 C 0.94046 0.48746 0.69728 0.0
O126 O 0.98578 0.50481 0.35228 0.0
O127 O 0.89168 0.44577 0.34718 0.0
Zn128 Zn 0.56487 0.48759 0.50169 0.0
O129 O 0.53747 0.39705 0.46524 0.0
C130 C 0.60835 0.49184 0.3032 0.0
Zn131 Zn 0.64799 0.49589 0.49832 0.0
C132 C 0.56978 0.37753 0.4983 0.0
O133 O 0.62047 0.41278 0.52867 0.0
C134 C 0.66784 0.60932 0.53044 0.0
O135 O 0.64855 0.50785 0.6547 0.0
O136 O 0.55206 0.46498 0.64788 0.0
N137 N 0.73245 0.5175 0.48549 0.0
C138 C 0.76936 0.50598 0.53424 0.0
C139 C 0.81612 0.5589 0.41154 0.0
N140 N 0.76158 0.55036 0.40944 0.0
N141 N 0.82196 0.53129 0.48914 0.0
C142 C 0.43969 0.46024 0.40362 0.0
C143 C 0.37812 0.40525 0.50945 0.0
N144 N 0.47165 0.46159 0.4832 0.0
N145 N 0.43236 0.42623 0.54768 0.0
N146 N 0.38043 0.42527 0.41809 0.0
H147 H 0.48951 0.46341 0.28024 0.0
H148 H 0.43783 0.48316 0.24908 0.0
H149 H 0.50141 0.53343 0.31912 0.0
C150 C 0.46793 0.48699 0.30786 0.0
C151 C 0.75488 0.47238 0.62815 0.0
H152 H 0.71289 0.4646 0.65873 0.0
H153 H 0.7517 0.42974 0.61468 0.0
H154 H 0.79049 0.49628 0.682 0.0
O155 O 0.68027 0.58272 0.46799 0.0
O156 O 0.61359 0.58387 0.55688 0.0
C157 C 0.59864 0.48343 0.69736 0.0
O158 O 0.58126 0.51139 0.35232 0.0
O159 O 0.6403 0.47634 0.34729 0.0
Zn160 Zn 0.59025 0.18254 0.49824 0.0
O161 O 0.5783 0.17113 0.65463 0.0
C162 C 0.47676 0.08898 0.53036 0.0
Zn163 Zn 0.59848 0.10768 0.50166 0.0
C164 C 0.60267 0.1456 0.69733 0.0
O165 O 0.62107 0.11744 0.64787 0.0
C166 C 0.59427 0.14695 0.30315 0.0
O167 O 0.68904 0.17077 0.46531 0.0
O168 O 0.67339 0.23812 0.52858 0.0
N169 N 0.62444 0.04044 0.48315 0.0
C170 C 0.62577 1.00983 0.40356 0.0
C171 C 0.68082 1.00329 0.50934 0.0
N172 N 0.65984 0.03654 0.54759 0.0
N173 N 0.66076 0.98556 0.418 0.0
C174 C 0.58014 0.29381 0.53424 0.0
C175 C 0.52726 0.2877 0.41149 0.0
N176 N 0.56866 0.24541 0.48541 0.0
N177 N 0.53583 0.24172 0.40934 0.0
N178 N 0.55482 0.32109 0.48916 0.0
H179 H 0.62143 0.27864 0.65881 0.0
H180 H 0.65642 0.35229 0.61466 0.0
H181 H 0.58989 0.32469 0.68196 0.0
C182 C 0.61374 0.3129 0.62816 0.0
C183 C 0.59899 1.01131 0.30781 0.0
H184 H 0.62258 0.05647 0.28014 0.0
H185 H 0.60279 0.98503 0.24904 0.0
H186 H 0.55256 0.99837 0.31909 0.0
O187 O 0.57471 0.10031 0.35229 0.0
O188 O 0.60978 0.19441 0.34722 0.0
C189 C 0.7086 0.22261 0.49833 0.0
O190 O 0.50339 0.12803 0.46793 0.0
O191 O 0.50219 0.06016 0.5568 0.0
Zn192 Zn 0.23154 0.44104 0.33505 0.0
O193 O 0.20414 0.50417 0.2986 0.0
C194 C 0.27503 0.48027 0.13656 0.0
Zn195 Zn 0.31466 0.51587 0.33168 0.0
C196 C 0.23645 0.556 0.33165 0.0
O197 O 0.28714 0.57145 0.362 0.0
C198 C 0.3345 0.42229 0.36382 0.0
O199 O 0.31521 0.50446 0.48806 0.0
O200 O 0.21873 0.45083 0.48124 0.0
N201 N 0.39913 0.57873 0.31888 0.0
C202 C 0.43611 0.62708 0.36779 0.0
C203 C 0.4828 0.621 0.24496 0.0
N204 N 0.42823 0.57507 0.24275 0.0
N205 N 0.48874 0.65433 0.32279 0.0
C206 C 0.10635 0.34322 0.23697 0.0
C207 C 1.04479 0.3366 0.34283 0.0
N208 N 0.13831 0.37381 0.31657 0.0
N209 N 0.09903 0.36986 0.38106 0.0
N210 N 1.04709 0.31892 0.25145 0.0
H211 H 0.15618 0.38994 0.11363 0.0
H212 H 0.10448 0.31852 0.08241 0.0
H213 H 0.16806 0.33179 0.15241 0.0
C214 C 0.13459 0.34476 0.1412 0.0
C215 C 0.42164 0.64616 0.46174 0.0
H216 H 0.37964 0.61194 0.4923 0.0
H217 H 0.41847 0.68563 0.44833 0.0
H218 H 0.45725 0.65784 0.51557 0.0
O219 O 0.34696 0.46136 0.30141 0.0
O220 O 0.28025 0.39346 0.39025 0.0
C221 C 0.2653 0.47896 0.53072 0.0
O222 O 0.24793 0.43363 0.1857 0.0
O223 O 0.30698 0.52773 0.18063 0.0
Zn224 Zn 0.64507 0.82094 0.33503 0.0
O225 O 0.58198 0.73038 0.29867 0.0
C226 C 0.60579 0.82516 0.13651 0.0
Zn227 Zn 0.57019 0.82916 0.3316 0.0
C228 C 0.53014 0.71082 0.33169 0.0
O229 O 0.51463 0.74603 0.36191 0.0
C230 C 0.66374 0.94263 0.36375 0.0
O231 O 0.58161 0.8411 0.48799 0.0
O232 O 0.63532 0.79835 0.48123 0.0
N233 N 0.50731 0.85073 0.31881 0.0
C234 C 0.459 0.83941 0.36778 0.0
C235 C 0.46503 0.89214 0.24491 0.0
N236 N 0.51094 0.88348 0.24265 0.0
N237 N 0.43175 0.8648 0.32281 0.0
C238 C 0.7429 0.79363 0.23692 0.0
C239 C 0.74948 0.73863 0.34273 0.0
N240 N 0.71232 0.79498 0.31652 0.0
N241 N 0.71625 0.75961 0.38098 0.0
N242 N 0.76718 0.75865 0.25137 0.0
H243 H 0.6962 0.79675 0.11353 0.0
H244 H 0.76763 0.81652 0.08237 0.0
H245 H 0.75433 0.86679 0.15238 0.0
C246 C 0.74137 0.82036 0.14115 0.0
C247 C 0.43995 0.80587 0.46176 0.0
H248 H 0.47421 0.79817 0.49239 0.0
H249 H 0.40055 0.76319 0.44832 0.0
H250 H 0.42819 0.82975 0.51554 0.0
O251 O 0.62467 0.916 0.30135 0.0
O252 O 0.69261 0.91724 0.39016 0.0
C253 C 0.60715 0.81674 0.53068 0.0
O254 O 0.65243 0.84471 0.18567 0.0
O255 O 0.55833 0.80964 0.18056 0.0
Zn256 Zn 0.26515 0.85456 0.33509 0.0
O257 O 0.35571 0.88202 0.29875 0.0
C258 C 0.26094 0.81107 0.13659 0.0
Zn259 Zn 0.25692 0.77145 0.33169 0.0
C260 C 0.37527 0.84973 0.33177 0.0
O261 O 0.34005 0.79901 0.36203 0.0
C262 C 0.14345 0.75156 0.36378 0.0
O263 O 0.24497 0.7709 0.48808 0.0
O264 O 0.28773 0.86738 0.4813 0.0
N265 N 0.23532 0.687 0.31886 0.0
C266 C 0.24682 0.65008 0.36764 0.0
C267 C 0.19388 0.60331 0.24494 0.0
N268 N 0.20245 0.65785 0.24282 0.0
N269 N 0.22149 0.59748 0.32256 0.0
C270 C 0.29248 0.97971 0.23697 0.0
C271 C 0.34747 0.04129 0.3428 0.0
N272 N 0.29113 0.94777 0.31658 0.0
N273 N 0.32649 0.98706 0.38105 0.0
N274 N 0.32745 0.03897 0.25143 0.0
H275 H 0.28932 0.92989 0.11358 0.0
H276 H 0.26953 0.98154 0.08243 0.0
H277 H 0.21929 0.91796 0.15246 0.0
C278 C 0.26572 0.95145 0.14121 0.0
C279 C 0.28045 0.66458 0.46153 0.0
H280 H 0.28818 0.70654 0.49217 0.0
H281 H 0.32312 0.66785 0.44798 0.0
H282 H 0.25662 0.62895 0.51535 0.0
O283 O 0.17008 0.73911 0.30141 0.0
O284 O 0.16885 0.80581 0.39019 0.0
C285 C 0.26933 0.82081 0.53076 0.0
O286 O 0.24139 0.83816 0.18571 0.0
O287 O 0.27645 0.77913 0.18068 0.0
Zn288 Zn 0.57021 0.77142 0.83162 0.0
O289 O 0.58163 0.77089 -0.01199 0.0
C290 C 0.66378 0.75156 0.86379 0.0
Zn291 Zn 0.64506 0.85454 0.83502 0.0
C292 C 0.60713 0.8208 0.03068 0.0
O293 O 0.63527 0.86737 -0.01879 0.0
C294 C 0.60581 0.81104 0.63652 0.0
O295 O 0.58193 0.88196 0.79857 0.0
O296 O 0.51465 0.79896 0.86194 0.0
N297 N 0.71229 0.94776 0.81653 0.0
C298 C 0.74288 0.97971 0.73693 0.0
C299 C 0.74948 0.04129 0.84276 0.0
N300 N 0.71623 0.98705 0.881 0.0
N301 N 0.76718 0.03897 0.75139 0.0
C302 C 0.45902 0.64998 0.86778 0.0
C303 C 0.46505 0.60329 0.74491 0.0
N304 N 0.50734 0.68696 0.81883 0.0
N305 N 0.51097 0.65786 0.74267 0.0
N306 N 0.43176 0.59734 0.82279 0.0
H307 H 0.47421 0.70643 -0.00765 0.0
H308 H 0.40052 0.66765 0.94841 0.0
H309 H 0.4283 0.62883 0.01558 0.0
C310 C 0.43997 0.66444 0.96177 0.0
C311 C 0.74135 0.95146 0.64116 0.0
H312 H 0.69617 0.92988 0.61356 0.0
H313 H 0.76759 0.98157 0.58238 0.0
H314 H 0.75432 0.91799 0.65238 0.0
O315 O 0.65245 0.83814 0.68567 0.0
O316 O 0.55835 0.7791 0.68058 0.0
C317 C 0.5301 0.84965 0.83162 0.0
O318 O 0.62471 0.7391 0.80136 0.0
O319 O 0.69261 0.80581 0.89022 0.0
Zn320 Zn 0.23154 0.82093 0.83508 0.0
O321 O 0.20413 0.73039 0.79865 0.0
C322 C 0.27502 0.82518 0.6366 0.0
Zn323 Zn 0.31466 0.82922 0.83172 0.0
C324 C 0.23644 0.71086 0.8317 0.0
O325 O 0.28713 0.74611 0.86206 0.0
C326 C 0.3345 0.94264 0.86382 0.0
O327 O 0.31522 0.84117 -0.0119 0.0
O328 O 0.21873 0.79832 -0.01873 0.0
N329 N 0.39911 0.85083 0.81889 0.0
C330 C 0.43603 0.83931 0.86764 0.0
C331 C 0.48279 0.89224 0.74495 0.0
N332 N 0.42826 0.88369 0.74285 0.0
N333 N 0.48863 0.86463 0.82255 0.0
C334 C 0.10635 0.79357 0.73699 0.0
C335 C 1.04478 0.7386 0.84284 0.0
N336 N 0.13831 0.79493 0.81659 0.0
N337 N 0.09902 0.75958 0.88108 0.0
N338 N 1.04709 0.75861 0.75146 0.0
H339 H 0.15617 0.79671 0.61362 0.0
H340 H 0.1045 0.81647 0.58244 0.0
H341 H 0.16808 0.86674 0.65247 0.0
C342 C 0.1346 0.8203 0.64123 0.0
C343 C 0.42156 0.80571 0.96155 0.0
H344 H 0.37956 0.79793 -0.00786 0.0
H345 H 0.41838 0.76307 0.94808 0.0
H346 H 0.45716 0.82961 0.0154 0.0
O347 O 0.34696 0.91604 0.80142 0.0
O348 O 0.28025 0.91722 0.89025 0.0
C349 C 0.2653 0.81677 0.03076 0.0
O350 O 0.24792 0.84472 0.68572 0.0
O351 O 0.30697 0.80967 0.68069 0.0
Zn352 Zn 0.25692 0.51589 0.83164 0.0
O353 O 0.24497 0.50448 -0.01198 0.0
C354 C 0.14345 0.42233 0.86374 0.0
Zn355 Zn 0.26514 0.44101 0.83505 0.0
C356 C 0.26933 0.47893 0.03072 0.0
O357 O 0.28773 0.45076 -0.01873 0.0
C358 C 0.26093 0.48029 0.63655 0.0
O359 O 0.3557 0.50409 0.79871 0.0
O360 O 0.34006 0.57145 0.86196 0.0
N361 N 0.2911 0.37376 0.81653 0.0
C362 C 0.29244 0.34316 0.73693 0.0
C363 C 0.34747 0.3366 0.84273 0.0
N364 N 0.32648 0.36984 0.88098 0.0
N365 N 0.32742 0.31889 0.75138 0.0
C366 C 0.24681 0.62714 0.86764 0.0
C367 C 0.19392 0.62103 0.74489 0.0
N368 N 0.23534 0.57875 0.81881 0.0
N369 N 0.2025 0.57506 0.74274 0.0
N370 N 0.22148 0.65443 0.82257 0.0
H371 H 0.2881 0.61198 -0.00779 0.0
H372 H 0.32308 0.68563 0.94806 0.0
H373 H 0.25656 0.65803 0.01536 0.0
C374 C 0.2804 0.64624 0.96156 0.0
C375 C 0.26567 0.34466 0.64117 0.0
H376 H 0.28928 0.38983 0.61352 0.0
H377 H 0.26947 0.31838 0.5824 0.0
H378 H 0.21924 0.33173 0.65244 0.0
O379 O 0.24138 0.43365 0.68568 0.0
O380 O 0.27644 0.52774 0.68062 0.0
C381 C 0.37527 0.55594 0.83173 0.0
O382 O 0.17007 0.4614 0.80135 0.0
O383 O 0.16884 0.39347 0.89016 0.0
Zn384 Zn 0.89821 0.77437 0.66839 0.0
O385 O 0.8708 0.8375 0.63193 0.0
C386 C 0.94171 0.8136 0.46989 0.0
Zn387 Zn 0.98133 0.8492 0.66502 0.0
C388 C 0.90312 0.88933 0.66498 0.0
O389 O 0.95381 0.90478 0.69532 0.0
C390 C 1.00117 0.75562 0.69719 0.0
O391 O 0.98187 0.83779 0.8214 0.0
O392 O 0.88539 0.78416 0.81457 0.0
N393 N 0.0658 0.91206 0.65223 0.0
C394 C 0.10278 0.96041 0.70112 0.0
C395 C 0.14947 0.95433 0.57831 0.0
N396 N 0.09491 0.90839 0.57611 0.0
N397 N 0.15541 0.98766 0.65613 0.0
C398 C 0.77304 0.6765 0.57033 0.0
C399 C 0.71146 0.66993 0.67614 0.0
N400 N 0.80499 0.70713 0.6499 0.0
N401 N 0.7657 0.70321 0.71436 0.0
N402 N 0.71378 0.65215 0.58485 0.0
H403 H 0.82285 0.72323 0.44698 0.0
H404 H 0.77117 0.65181 0.41576 0.0
H405 H 0.83476 0.66509 0.48575 0.0
C406 C 0.80128 0.67805 0.47455 0.0
C407 C 0.08831 0.9795 0.79507 0.0
H408 H 1.04631 0.94528 0.82563 0.0
H409 H 0.08513 1.01897 0.78165 0.0
H410 H 0.12391 0.99117 0.84891 0.0
O411 O 1.01363 0.79469 0.63476 0.0
O412 O 0.94692 0.7268 0.7236 0.0
C413 C 0.93196 0.81229 0.86405 0.0
O414 O 0.91461 0.76696 0.51904 0.0
O415 O 0.97366 0.86106 0.51397 0.0
Zn416 Zn 0.31174 0.15427 0.66836 0.0
O417 O 0.24865 0.06372 0.632 0.0
C418 C 0.27246 0.1585 0.46985 0.0
Zn419 Zn 0.23685 0.1625 0.66494 0.0
C420 C 0.19681 0.04415 0.66502 0.0
O421 O 0.1813 0.07937 0.69523 0.0
C422 C 0.33041 0.27596 0.6971 0.0
O423 O 0.24828 0.17444 0.82133 0.0
O424 O 0.30199 0.13168 0.81457 0.0
N425 N 0.17398 0.18408 0.65215 0.0
C426 C 0.12567 0.17275 0.70111 0.0
C427 C 0.1317 0.22549 0.57825 0.0
N428 N 0.17761 0.21683 0.576 0.0
N429 N 0.09841 0.19813 0.65614 0.0
C430 C 0.40962 0.12703 0.57027 0.0
C431 C 0.41616 0.07197 0.67604 0.0
N432 N 0.37899 0.12833 0.64985 0.0
N433 N 0.38289 0.09293 0.71427 0.0
N434 N 0.43395 0.09211 0.58476 0.0
H435 H 0.36291 0.13013 0.44688 0.0
H436 H 0.43434 0.14992 0.41572 0.0
H437 H 0.42102 0.20018 0.48572 0.0
C438 C 0.40808 0.15375 0.4745 0.0
C439 C 0.10661 0.1392 0.79508 0.0
H440 H 0.14087 0.1315 0.82571 0.0
H441 H 0.06721 0.09651 0.78164 0.0
H442 H 0.09485 0.16307 0.84887 0.0
O443 O 0.29134 0.24934 0.6347 0.0
O444 O 0.35927 0.25057 0.72351 0.0
C445 C 0.27382 0.15007 0.86402 0.0
O446 O 0.3191 0.17805 0.519 0.0
O447 O 0.225 0.14298 0.5139 0.0
Zn448 Zn 0.93182 0.18789 0.66842 0.0
O449 O 1.02237 0.21535 0.63208 0.0
C450 C 0.9276 0.1444 0.46992 0.0
Zn451 Zn 0.92358 0.10478 0.66503 0.0
C452 C 1.04193 0.18306 0.6651 0.0
O453 O 1.00671 0.13234 0.69535 0.0
C454 C 0.81012 0.08489 0.69713 0.0
O455 O 0.91164 0.10424 0.82142 0.0
O456 O 0.9544 0.20071 0.81462 0.0
N457 N 0.90197 1.02033 0.6522 0.0
C458 C 0.91349 0.98341 0.70097 0.0
C459 C 0.86053 0.93663 0.57829 0.0
N460 N 0.86909 0.99117 0.57617 0.0
N461 N 0.88815 0.93081 0.6559 0.0
C462 C 0.95907 0.31303 0.57032 0.0
C463 C 1.01412 0.37462 0.67611 0.0
N464 N 0.95777 0.28109 0.6499 0.0
N465 N 0.99317 0.32039 0.71434 0.0
N466 N 0.99399 0.37229 0.58482 0.0
H467 H 0.95594 0.26322 0.44693 0.0
H468 H 0.93614 0.31486 0.41578 0.0
H469 H 0.8859 0.25127 0.4858 0.0
C470 C 0.93233 0.28477 0.47455 0.0
C471 C 0.94713 0.99791 0.79485 0.0
H472 H 0.95485 0.03988 0.82549 0.0
H473 H 0.98979 1.00118 0.78129 0.0
H474 H 0.92329 0.96229 0.84867 0.0
O475 O 0.83673 0.07244 0.63475 0.0
O476 O 0.83552 0.13914 0.72354 0.0
C477 C 0.936 0.15415 0.86409 0.0
O478 O 0.90805 0.17149 0.51904 0.0
O479 O 0.9431 0.11245 0.51401 0.0
Zn480 Zn 0.23688 0.10475 0.16496 0.0
O481 O 0.2483 0.10422 0.32135 0.0
C482 C 0.33044 0.08489 0.19715 0.0
Zn483 Zn 0.31172 0.18787 0.16836 0.0
C484 C 0.2738 0.15414 0.36402 0.0
O485 O 0.30194 0.2007 0.31454 0.0
C486 C 0.27248 0.14437 -0.03015 0.0
O487 O 0.2486 0.21529 0.13189 0.0
O488 O 0.18131 0.13229 0.19526 0.0
N489 N 0.37897 0.28108 0.14986 0.0
C490 C 0.4096 0.31303 0.07029 0.0
C491 C 0.41615 0.37461 0.17607 0.0
N492 N 0.38287 0.32038 0.21429 0.0
N493 N 0.43394 0.37229 0.08479 0.0
C494 C 0.12568 0.98331 0.20112 0.0
C495 C 0.13172 0.93661 0.07826 0.0
N496 N 0.17401 1.02029 0.15217 0.0
N497 N 0.17764 0.99118 0.07602 0.0
N498 N 0.09842 0.93067 0.15613 0.0
H499 H 0.14087 0.03977 0.32568 0.0
H500 H 0.06718 1.00098 0.28173 0.0
H501 H 0.09496 0.96216 0.34891 0.0
C502 C 0.10663 0.99778 0.2951 0.0
C503 C 0.40806 0.28478 -0.02549 0.0
H504 H 0.36288 0.26321 0.94692 0.0
H505 H 0.4343 0.31488 0.91573 0.0
H506 H 0.42101 0.2513 -0.01428 0.0
O507 O 0.31912 0.17147 0.01901 0.0
O508 O 0.22502 0.11242 0.01391 0.0
C509 C 0.19677 0.18299 0.16494 0.0
O510 O 0.29138 0.07243 0.13471 0.0
O511 O 0.35928 0.13914 0.22357 0.0
Zn512 Zn 0.89821 0.15426 0.16841 0.0
O513 O 0.8708 0.06372 0.13197 0.0
C514 C 0.94169 0.15852 -0.03007 0.0
Zn515 Zn 0.98133 0.16256 0.16505 0.0
C516 C 0.90311 0.0442 0.16502 0.0
O517 O 0.9538 0.07945 0.19538 0.0
C518 C 1.00117 0.27598 0.19718 0.0
O519 O 0.98188 0.1745 0.32144 0.0
O520 O 0.8854 0.13166 0.3146 0.0
N521 N 0.06579 0.18417 0.15223 0.0
C522 C 0.1027 0.17265 0.20097 0.0
C523 C 0.14947 0.22559 0.07829 0.0
N524 N 0.09493 0.21704 0.0762 0.0
N525 N 0.1553 0.19797 0.15589 0.0
C526 C 0.77304 0.12697 0.07034 0.0
C527 C 0.71146 0.07195 0.17615 0.0
N528 N 0.80499 0.12828 0.14992 0.0
N529 N 0.7657 0.0929 0.21436 0.0
N530 N 0.71378 0.09206 0.08485 0.0
H531 H 0.82284 0.13009 0.94697 0.0
H532 H 0.77118 0.14986 0.91579 0.0
H533 H 0.83478 0.20013 -0.0142 0.0
C534 C 0.80128 0.1537 -0.02543 0.0
C535 C 0.08822 0.13904 0.29488 0.0
H536 H 1.04622 0.13126 0.32545 0.0
H537 H 0.08505 0.09641 0.2814 0.0
H538 H 0.12382 0.16294 0.34873 0.0
O539 O 1.01363 0.24938 0.13476 0.0
O540 O 0.94692 0.25055 0.22359 0.0
C541 C 0.93197 0.1501 0.36409 0.0
O542 O 0.9146 0.17806 0.01905 0.0
O543 O 0.97365 0.14302 0.01402 0.0
Zn544 Zn 0.92358 0.84922 0.16497 0.0
O545 O 0.91164 0.83781 0.32137 0.0
C546 C 0.81011 0.75566 0.1971 0.0
Zn547 Zn 0.9318 0.77434 0.16839 0.0
C548 C 0.936 0.81227 0.36406 0.0
O549 O 0.95439 0.78409 0.3146 0.0
C550 C 0.92759 0.81362 -0.03012 0.0
O551 O 1.02236 0.83742 0.13204 0.0
O552 O 1.00672 0.90478 0.19529 0.0
N553 N 0.95775 0.70709 0.14986 0.0
C554 C 0.95903 0.67644 0.07028 0.0
C555 C 1.01412 0.66993 0.17604 0.0
N556 N 0.99317 0.7032 0.21427 0.0
N557 N 0.99397 0.65212 0.08477 0.0
C558 C 0.91348 0.96048 0.20097 0.0
C559 C 0.86057 0.95435 0.07824 0.0
N560 N 0.902 0.91208 0.15215 0.0
N561 N 0.86914 0.90838 0.07609 0.0
N562 N 0.88815 0.98776 0.1559 0.0
H563 H 0.95477 0.94532 0.32554 0.0
H564 H 0.98976 1.01897 0.28136 0.0
H565 H 0.92324 0.99137 0.34868 0.0
C566 C 0.94708 0.97958 0.29488 0.0
C567 C 0.93228 0.67796 -0.02548 0.0
H568 H 0.9559 0.72312 0.94687 0.0
H569 H 0.93608 0.65167 0.91575 0.0
H570 H 0.88585 0.66503 -0.01423 0.0
O571 O 0.90804 0.76698 0.01902 0.0
O572 O 0.9431 0.86107 0.01395 0.0
C573 C 1.04193 0.88927 0.16506 0.0
O574 O 0.83673 0.79473 0.13471 0.0
O575 O 0.83551 0.7268 0.22351 0.0
loop_
_geom_bond_atom_site_label_1
_geom_bond_atom_site_label_2
_geom_bond_distance
_geom_bond_site_symmetry_2
_ccdc_geom_bond_type
Zn0 O1 2.056 . S
Zn0 O8 2.046 . S
Zn0 N16 2.036 . S
Zn0 O28 2.053 . S
Zn0 O30 2.066 1_554 S
O1 Zn0 2.056 . S
O1 C4 1.259 1_554 S
C2 O30 1.256 . S
C2 O31 1.244 . S
Zn3 O5 2.046 . S
Zn3 O7 2.055 . S
Zn3 N9 2.036 . S
Zn3 O27 2.066 . S
Zn3 O31 2.053 1_554 S
C4 O1 1.259 1_556 S
C4 O5 1.254 1_556 S
O5 Zn3 2.046 . S
O5 C4 1.254 1_554 S
C6 O27 1.256 . S
C6 O28 1.244 . S
O7 Zn3 2.055 . S
O7 C29 1.259 . S
O8 Zn0 2.046 . S
O8 C29 1.254 . S
N9 Zn3 2.036 . S
N9 C10 1.298 . S
N9 N12 1.398 1_554 S
C10 N9 1.298 . S
C10 N13 1.367 . S
C10 C23 1.481 . S
C11 N12 1.299 . S
C11 N13 1.379 1_556 S
N12 N9 1.398 1_556 S
N12 C11 1.299 . S
N13 C10 1.367 . S
N13 C11 1.379 1_554 S
C14 N16 1.298 1_566 S
C14 N18 1.367 . S
C14 C22 1.481 1_565 S
C15 N17 1.299 . S
C15 N18 1.379 1_554 S
N16 Zn0 2.036 . S
N16 C14 1.298 1_544 S
N16 N17 1.398 1_545 S
N17 C15 1.299 . S
N17 N16 1.398 1_565 S
N18 C14 1.367 . S
N18 C15 1.379 1_556 S
H19 C22 0.980 . S
H20 C22 0.981 1_565 S
H21 C22 0.981 . S
C22 C14 1.481 1_545 S
C22 H19 0.980 . S
C22 H20 0.981 1_545 S
C22 H21 0.981 . S
C23 C10 1.481 . S
C23 H24 0.980 . S
C23 H25 0.981 . S
C23 H26 0.981 . S
H24 C23 0.980 . S
H25 C23 0.981 . S
H26 C23 0.981 . S
O27 Zn3 2.066 . S
O27 C6 1.256 . S
O28 Zn0 2.053 . S
O28 C6 1.244 . S
C29 O7 1.259 . S
C29 O8 1.254 . S
O30 Zn0 2.066 1_556 S
O30 C2 1.256 . S
O31 C2 1.244 . S
O31 Zn3 2.053 1_556 S
Zn32 O33 2.056 . S
Zn32 O40 2.046 . S
Zn32 N48 2.036 . S
Zn32 O60 2.053 . S
Zn32 O62 2.066 1_554 S
O33 Zn32 2.056 . S
O33 C36 1.259 1_554 S
C34 O62 1.256 . S
C34 O63 1.244 . S
Zn35 O37 2.046 . S
Zn35 O39 2.055 . S
Zn35 N41 2.036 . S
Zn35 O59 2.066 . S
Zn35 O63 2.053 1_554 S
C36 O33 1.259 1_556 S
C36 O37 1.254 1_556 S
O37 Zn35 2.046 . S
O37 C36 1.254 1_554 S
C38 O59 1.256 . S
C38 O60 1.244 . S
O39 Zn35 2.055 . S
O39 C61 1.259 . S
O40 Zn32 2.046 . S
O40 C61 1.254 . S
N41 Zn35 2.036 . S
N41 C42 1.298 . S
N41 N44 1.398 1_554 S
C42 N41 1.298 . S
C42 N45 1.367 . S
C42 C55 1.481 . S
C43 N44 1.299 . S
C43 N45 1.379 1_556 S
N44 N41 1.398 1_556 S
N44 C43 1.299 . S
N45 C42 1.367 . S
N45 C43 1.379 1_554 S
C46 N48 1.298 1_456 S
C46 N50 1.367 . S
C46 C54 1.481 1_455 S
C47 N49 1.299 . S
C47 N50 1.379 1_554 S
N48 Zn32 2.036 . S
N48 C46 1.298 1_654 S
N48 N49 1.398 1_655 S
N49 C47 1.299 . S
N49 N48 1.398 1_455 S
N50 C46 1.367 . S
N50 C47 1.379 1_556 S
H51 C54 0.980 . S
H52 C54 0.981 1_455 S
H53 C54 0.981 . S
C54 C46 1.481 1_655 S
C54 H51 0.980 . S
C54 H52 0.981 1_655 S
C54 H53 0.981 . S
C55 C42 1.481 . S
C55 H56 0.980 . S
C55 H57 0.981 . S
C55 H58 0.981 . S
H56 C55 0.980 . S
H57 C55 0.981 . S
H58 C55 0.981 . S
O59 Zn35 2.066 . S
O59 C38 1.256 . S
O60 Zn32 2.053 . S
O60 C38 1.244 . S
C61 O39 1.259 . S
C61 O40 1.254 . S
O62 Zn32 2.066 1_556 S
O62 C34 1.256 . S
O63 C34 1.244 . S
O63 Zn35 2.053 1_556 S
Zn64 O65 2.056 . S
Zn64 O72 2.046 . S
Zn64 N80 2.036 . S
Zn64 O92 2.053 . S
Zn64 O94 2.066 1_554 S
O65 Zn64 2.056 . S
O65 C68 1.259 1_554 S
C66 O94 1.256 . S
C66 O95 1.244 . S
Zn67 O69 2.046 . S
Zn67 O71 2.055 . S
Zn67 N73 2.036 . S
Zn67 O91 2.066 . S
Zn67 O95 2.053 1_554 S
C68 O65 1.259 1_556 S
C68 O69 1.254 1_556 S
O69 Zn67 2.046 . S
O69 C68 1.254 1_554 S
C70 O91 1.256 . S
C70 O92 1.244 . S
O71 Zn67 2.055 . S
O71 C93 1.259 . S
O72 Zn64 2.046 . S
O72 C93 1.254 . S
N73 Zn67 2.036 . S
N73 C74 1.298 . S
N73 N76 1.398 1_554 S
C74 N73 1.298 . S
C74 N77 1.367 . S
C74 C87 1.481 . S
C75 N76 1.299 . S
C75 N77 1.379 1_556 S
N76 N73 1.398 1_556 S
N76 C75 1.299 . S
N77 C74 1.367 . S
N77 C75 1.379 1_554 S
C78 N80 1.298 1_556 S
C78 N82 1.367 . S
C78 C86 1.481 . S
C79 N81 1.299 . S
C79 N82 1.379 1_554 S
N80 Zn64 2.036 . S
N80 C78 1.298 1_554 S
N80 N81 1.398 . S
N81 C79 1.299 . S
N81 N80 1.398 . S
N82 C78 1.367 . S
N82 C79 1.379 1_556 S
H83 C86 0.980 . S
H84 C86 0.981 . S
H85 C86 0.981 . S
C86 C78 1.481 . S
C86 H83 0.980 . S
C86 H84 0.981 . S
C86 H85 0.981 . S
C87 C74 1.481 . S
C87 H88 0.980 . S
C87 H89 0.981 . S
C87 H90 0.981 . S
H88 C87 0.980 . S
H89 C87 0.981 . S
H90 C87 0.981 . S
O91 Zn67 2.066 . S
O91 C70 1.256 . S
O92 Zn64 2.053 . S
O92 C70 1.244 . S
C93 O71 1.259 . S
C93 O72 1.254 . S
O94 Zn64 2.066 1_556 S
O94 C66 1.256 . S
O95 C66 1.244 . S
O95 Zn67 2.053 1_556 S
Zn96 O97 2.055 . S
Zn96 O104 2.046 . S
Zn96 N112 2.036 . S
Zn96 O124 2.053 . S
Zn96 O126 2.066 . S
O97 Zn96 2.055 . S
O97 C100 1.259 . S
C98 O126 1.256 . S
C98 O127 1.244 . S
Zn99 O101 2.046 . S
Zn99 O103 2.055 . S
Zn99 N105 2.036 . S
Zn99 O123 2.066 . S
Zn99 O127 2.053 . S
C100 O97 1.259 . S
C100 O101 1.254 . S
O101 Zn99 2.046 . S
O101 C100 1.254 . S
C102 O123 1.256 . S
C102 O124 1.244 . S
O103 Zn99 2.055 . S
O103 C125 1.259 . S
O104 Zn96 2.046 . S
O104 C125 1.254 . S
N105 Zn99 2.036 . S
N105 C106 1.298 . S
N105 N108 1.398 . S
C106 N105 1.298 . S
C106 N109 1.367 . S
C106 C119 1.481 . S
C107 N108 1.299 . S
C107 N109 1.379 . S
N108 N105 1.398 . S
N108 C107 1.299 . S
N109 C106 1.367 . S
N109 C107 1.379 . S
C110 N112 1.298 1_455 S
C110 N114 1.367 . S
C110 C118 1.481 1_455 S
C111 N113 1.299 . S
C111 N114 1.379 . S
N112 Zn96 2.036 . S
N112 C110 1.298 1_655 S
N112 N113 1.398 1_655 S
N113 C111 1.299 . S
N113 N112 1.398 1_455 S
N114 C110 1.367 . S
N114 C111 1.379 . S
H115 C118 0.980 . S
H116 C118 0.981 1_455 S
H117 C118 0.981 . S
C118 C110 1.481 1_655 S
C118 H115 0.980 . S
C118 H116 0.981 1_655 S
C118 H117 0.981 . S
C119 C106 1.481 . S
C119 H120 0.980 . S
C119 H121 0.981 . S
C119 H122 0.981 . S
H120 C119 0.980 . S
H121 C119 0.981 . S
H122 C119 0.981 . S
O123 Zn99 2.066 . S
O123 C102 1.256 . S
O124 Zn96 2.053 . S
O124 C102 1.244 . S
C125 O103 1.259 . S
C125 O104 1.254 . S
O126 Zn96 2.066 . S
O126 C98 1.256 . S
O127 C98 1.244 . S
O127 Zn99 2.053 . S
Zn128 O129 2.055 . S
Zn128 O136 2.046 . S
Zn128 N144 2.036 . S
Zn128 O156 2.053 . S
Zn128 O158 2.066 . S
O129 Zn128 2.055 . S
O129 C132 1.259 . S
C130 O158 1.256 . S
C130 O159 1.244 . S
Zn131 O133 2.046 . S
Zn131 O135 2.055 . S
Zn131 N137 2.036 . S
Zn131 O155 2.066 . S
Zn131 O159 2.053 . S
C132 O129 1.259 . S
C132 O133 1.254 . S
O133 Zn131 2.046 . S
O133 C132 1.254 . S
C134 O155 1.256 . S
C134 O156 1.244 . S
O135 Zn131 2.055 . S
O135 C157 1.259 . S
O136 Zn128 2.046 . S
O136 C157 1.254 . S
N137 Zn131 2.036 . S
N137 C138 1.298 . S
N137 N140 1.398 . S
C138 N137 1.298 . S
C138 N141 1.367 . S
C138 C151 1.481 . S
C139 N140 1.299 . S
C139 N141 1.379 . S
N140 N137 1.398 . S
N140 C139 1.299 . S
N141 C138 1.367 . S
N141 C139 1.379 . S
C142 N144 1.298 . S
C142 N146 1.367 . S
C142 C150 1.481 . S
C143 N145 1.299 . S
C143 N146 1.379 . S
N144 Zn128 2.036 . S
N144 C142 1.298 . S
N144 N145 1.398 . S
N145 C143 1.299 . S
N145 N144 1.398 . S
N146 C142 1.367 . S
N146 C143 1.379 . S
H147 C150 0.980 . S
H148 C150 0.981 . S
H149 C150 0.981 . S
C150 C142 1.481 . S
C150 H147 0.980 . S
C150 H148 0.981 . S
C150 H149 0.981 . S
C151 C138 1.481 . S
C151 H152 0.980 . S
C151 H153 0.981 . S
C151 H154 0.981 . S
H152 C151 0.980 . S
H153 C151 0.981 . S
H154 C151 0.981 . S
O155 Zn131 2.066 . S
O155 C134 1.256 . S
O156 Zn128 2.053 . S
O156 C134 1.244 . S
C157 O135 1.259 . S
C157 O136 1.254 . S
O158 Zn128 2.066 . S
O158 C130 1.256 . S
O159 C130 1.244 . S
O159 Zn131 2.053 . S
Zn160 O161 2.055 . S
Zn160 O168 2.046 . S
Zn160 N176 2.036 . S
Zn160 O188 2.053 . S
Zn160 O190 2.066 . S
O161 Zn160 2.055 . S
O161 C164 1.259 . S
C162 O190 1.256 . S
C162 O191 1.244 . S
Zn163 O165 2.046 . S
Zn163 O167 2.055 . S
Zn163 N169 2.036 . S
Zn163 O187 2.066 . S
Zn163 O191 2.053 . S
C164 O161 1.259 . S
C164 O165 1.254 . S
O165 Zn163 2.046 . S
O165 C164 1.254 . S
C166 O187 1.256 . S
C166 O188 1.244 . S
O167 Zn163 2.055 . S
O167 C189 1.259 . S
O168 Zn160 2.046 . S
O168 C189 1.254 . S
N169 Zn163 2.036 . S
N169 C170 1.298 1_545 S
N169 N172 1.398 1_545 S
C170 N169 1.298 1_565 S
C170 N173 1.367 . S
C170 C183 1.481 1_565 S
C171 N172 1.299 . S
C171 N173 1.379 . S
N172 N169 1.398 1_565 S
N172 C171 1.299 . S
N173 C170 1.367 . S
N173 C171 1.379 . S
C174 N176 1.298 . S
C174 N178 1.367 . S
C174 C182 1.481 . S
C175 N177 1.299 . S
C175 N178 1.379 . S
N176 Zn160 2.036 . S
N176 C174 1.298 . S
N176 N177 1.398 . S
N177 C175 1.299 . S
N177 N176 1.398 . S
N178 C174 1.367 . S
N178 C175 1.379 . S
H179 C182 0.980 . S
H180 C182 0.981 . S
H181 C182 0.981 . S
C182 C174 1.481 . S
C182 H179 0.980 . S
C182 H180 0.981 . S
C182 H181 0.981 . S
C183 C170 1.481 1_545 S
C183 H184 0.980 . S
C183 H185 0.981 1_545 S
C183 H186 0.981 . S
H184 C183 0.980 . S
H185 C183 0.981 1_565 S
H186 C183 0.981 . S
O187 Zn163 2.066 . S
O187 C166 1.256 . S
O188 Zn160 2.053 . S
O188 C166 1.244 . S
C189 O167 1.259 . S
C189 O168 1.254 . S
O190 Zn160 2.066 . S
O190 C162 1.256 . S
O191 C162 1.244 . S
O191 Zn163 2.053 . S
Zn192 O193 2.055 . S
Zn192 O200 2.046 . S
Zn192 N208 2.036 . S
Zn192 O220 2.053 . S
Zn192 O222 2.066 . S
O193 Zn192 2.055 . S
O193 C196 1.259 . S
C194 O222 1.256 . S
C194 O223 1.244 . S
Zn195 O197 2.046 . S
Zn195 O199 2.055 . S
Zn195 N201 2.036 . S
Zn195 O219 2.066 . S
Zn195 O223 2.053 . S
C196 O193 1.259 . S
C196 O197 1.254 . S
O197 Zn195 2.046 . S
O197 C196 1.254 . S
C198 O219 1.256 . S
C198 O220 1.244 . S
O199 Zn195 2.055 . S
O199 C221 1.259 . S
O200 Zn192 2.046 . S
O200 C221 1.254 . S
N201 Zn195 2.036 . S
N201 C202 1.298 . S
N201 N204 1.398 . S
C202 N201 1.298 . S
C202 N205 1.367 . S
C202 C215 1.481 . S
C203 N204 1.299 . S
C203 N205 1.379 . S
N204 N201 1.398 . S
N204 C203 1.299 . S
N205 C202 1.367 . S
N205 C203 1.379 . S
C206 N208 1.298 . S
C206 N210 1.367 . S
C206 C214 1.481 . S
C207 N209 1.299 . S
C207 N210 1.379 . S
N208 Zn192 2.036 . S
N208 C206 1.298 . S
N208 N209 1.398 . S
N209 C207 1.299 . S
N209 N208 1.398 . S
N210 C206 1.367 . S
N210 C207 1.379 . S
H211 C214 0.980 . S
H212 C214 0.981 . S
H213 C214 0.981 . S
C214 C206 1.481 . S
C214 H211 0.980 . S
C214 H212 0.981 . S
C214 H213 0.981 . S
C215 C202 1.481 . S
C215 H216 0.980 . S
C215 H217 0.981 . S
C215 H218 0.981 . S
H216 C215 0.980 . S
H217 C215 0.981 . S
H218 C215 0.981 . S
O219 Zn195 2.066 . S
O219 C198 1.256 . S
O220 Zn192 2.053 . S
O220 C198 1.244 . S
C221 O199 1.259 . S
C221 O200 1.254 . S
O222 Zn192 2.066 . S
O222 C194 1.256 . S
O223 C194 1.244 . S
O223 Zn195 2.053 . S
Zn224 O225 2.055 . S
Zn224 O232 2.046 . S
Zn224 N240 2.036 . S
Zn224 O252 2.053 . S
Zn224 O254 2.066 . S
O225 Zn224 2.055 . S
O225 C228 1.259 . S
C226 O254 1.256 . S
C226 O255 1.244 . S
Zn227 O229 2.046 . S
Zn227 O231 2.055 . S
Zn227 N233 2.036 . S
Zn227 O251 2.066 . S
Zn227 O255 2.053 . S
C228 O225 1.259 . S
C228 O229 1.254 . S
O229 Zn227 2.046 . S
O229 C228 1.254 . S
C230 O251 1.256 . S
C230 O252 1.244 . S
O231 Zn227 2.055 . S
O231 C253 1.259 . S
O232 Zn224 2.046 . S
O232 C253 1.254 . S
N233 Zn227 2.036 . S
N233 C234 1.298 . S
N233 N236 1.398 . S
C234 N233 1.298 . S
C234 N237 1.367 . S
C234 C247 1.481 . S
C235 N236 1.299 . S
C235 N237 1.379 . S
N236 N233 1.398 . S
N236 C235 1.299 . S
N237 C234 1.367 . S
N237 C235 1.379 . S
C238 N240 1.298 . S
C238 N242 1.367 . S
C238 C246 1.481 . S
C239 N241 1.299 . S
C239 N242 1.379 . S
N240 Zn224 2.036 . S
N240 C238 1.298 . S
N240 N241 1.398 . S
N241 C239 1.299 . S
N241 N240 1.398 . S
N242 C238 1.367 . S
N242 C239 1.379 . S
H243 C246 0.980 . S
H244 C246 0.981 . S
H245 C246 0.981 . S
C246 C238 1.481 . S
C246 H243 0.980 . S
C246 H244 0.981 . S
C246 H245 0.981 . S
C247 C234 1.481 . S
C247 H248 0.980 . S
C247 H249 0.981 . S
C247 H250 0.981 . S
H248 C247 0.980 . S
H249 C247 0.981 . S
H250 C247 0.981 . S
O251 Zn227 2.066 . S
O251 C230 1.256 . S
O252 Zn224 2.053 . S
O252 C230 1.244 . S
C253 O231 1.259 . S
C253 O232 1.254 . S
O254 Zn224 2.066 . S
O254 C226 1.256 . S
O255 C226 1.244 . S
O255 Zn227 2.053 . S
Zn256 O257 2.055 . S
Zn256 O264 2.046 . S
Zn256 N272 2.036 . S
Zn256 O284 2.053 . S
Zn256 O286 2.066 . S
O257 Zn256 2.055 . S
O257 C260 1.259 . S
C258 O286 1.256 . S
C258 O287 1.244 . S
Zn259 O261 2.046 . S
Zn259 O263 2.055 . S
Zn259 N265 2.036 . S
Zn259 O283 2.066 . S
Zn259 O287 2.053 . S
C260 O257 1.259 . S
C260 O261 1.254 . S
O261 Zn259 2.046 . S
O261 C260 1.254 . S
C262 O283 1.256 . S
C262 O284 1.244 . S
O263 Zn259 2.055 . S
O263 C285 1.259 . S
O264 Zn256 2.046 . S
O264 C285 1.254 . S
N265 Zn259 2.036 . S
N265 C266 1.298 . S
N265 N268 1.398 . S
C266 N265 1.298 . S
C266 N269 1.367 . S
C266 C279 1.481 . S
C267 N268 1.299 . S
C267 N269 1.379 . S
N268 N265 1.398 . S
N268 C267 1.299 . S
N269 C266 1.367 . S
N269 C267 1.379 . S
C270 N272 1.298 . S
C270 N274 1.367 . S
C270 C278 1.481 . S
C271 N273 1.299 . S
C271 N274 1.379 . S
N272 Zn256 2.036 . S
N272 C270 1.298 . S
N272 N273 1.398 . S
N273 C271 1.299 . S
N273 N272 1.398 . S
N274 C270 1.367 . S
N274 C271 1.379 . S
H275 C278 0.980 . S
H276 C278 0.981 . S
H277 C278 0.981 . S
C278 C270 1.481 . S
C278 H275 0.980 . S
C278 H276 0.981 . S
C278 H277 0.981 . S
C279 C266 1.481 . S
C279 H280 0.980 . S
C279 H281 0.981 . S
C279 H282 0.981 . S
H280 C279 0.980 . S
H281 C279 0.981 . S
H282 C279 0.981 . S
O283 Zn259 2.066 . S
O283 C262 1.256 . S
O284 Zn256 2.053 . S
O284 C262 1.244 . S
C285 O263 1.259 . S
C285 O264 1.254 . S
O286 Zn256 2.066 . S
O286 C258 1.256 . S
O287 C258 1.244 . S
O287 Zn259 2.053 . S
Zn288 O289 2.055 1_556 S
Zn288 O296 2.046 . S
Zn288 N304 2.036 . S
Zn288 O316 2.053 . S
Zn288 O318 2.066 . S
O289 Zn288 2.055 1_554 S
O289 C292 1.259 . S
C290 O318 1.256 . S
C290 O319 1.244 . S
Zn291 O293 2.046 1_556 S
Zn291 O295 2.055 . S
Zn291 N297 2.036 . S
Zn291 O315 2.066 . S
Zn291 O319 2.053 . S
C292 O289 1.259 . S
C292 O293 1.254 . S
O293 Zn291 2.046 1_554 S
O293 C292 1.254 . S
C294 O315 1.256 . S
C294 O316 1.244 . S
O295 Zn291 2.055 . S
O295 C317 1.259 . S
O296 Zn288 2.046 . S
O296 C317 1.254 . S
N297 Zn291 2.036 . S
N297 C298 1.298 . S
N297 N300 1.398 . S
C298 N297 1.298 . S
C298 N301 1.367 . S
C298 C311 1.481 . S
C299 N300 1.299 . S
C299 N301 1.379 . S
N300 N297 1.398 . S
N300 C299 1.299 . S
N301 C298 1.367 . S
N301 C299 1.379 . S
C302 N304 1.298 . S
C302 N306 1.367 . S
C302 C310 1.481 1_556 S
C303 N305 1.299 . S
C303 N306 1.379 . S
N304 Zn288 2.036 . S
N304 C302 1.298 . S
N304 N305 1.398 . S
N305 C303 1.299 . S
N305 N304 1.398 . S
N306 C302 1.367 . S
N306 C303 1.379 . S
H307 C310 0.980 . S
H308 C310 0.981 . S
H309 C310 0.981 . S
C310 C302 1.481 1_554 S
C310 H307 0.980 . S
C310 H308 0.981 . S
C310 H309 0.981 . S
C311 C298 1.481 . S
C311 H312 0.980 . S
C311 H313 0.981 . S
C311 H314 0.981 . S
H312 C311 0.980 . S
H313 C311 0.981 . S
H314 C311 0.981 . S
O315 Zn291 2.066 . S
O315 C294 1.256 . S
O316 Zn288 2.053 . S
O316 C294 1.244 . S
C317 O295 1.259 . S
C317 O296 1.254 . S
O318 Zn288 2.066 . S
O318 C290 1.256 . S
O319 C290 1.244 . S
O319 Zn291 2.053 . S
Zn320 O321 2.055 . S
Zn320 O328 2.046 1_556 S
Zn320 N336 2.036 . S
Zn320 O348 2.053 . S
Zn320 O350 2.066 . S
O321 Zn320 2.055 . S
O321 C324 1.259 . S
C322 O350 1.256 . S
C322 O351 1.244 . S
Zn323 O325 2.046 . S
Zn323 O327 2.055 1_556 S
Zn323 N329 2.036 . S
Zn323 O347 2.066 . S
Zn323 O351 2.053 . S
C324 O321 1.259 . S
C324 O325 1.254 . S
O325 Zn323 2.046 . S
O325 C324 1.254 . S
C326 O347 1.256 . S
C326 O348 1.244 . S
O327 Zn323 2.055 1_554 S
O327 C349 1.259 . S
O328 Zn320 2.046 1_554 S
O328 C349 1.254 . S
N329 Zn323 2.036 . S
N329 C330 1.298 . S
N329 N332 1.398 . S
C330 N329 1.298 . S
C330 N333 1.367 . S
C330 C343 1.481 1_556 S
C331 N332 1.299 . S
C331 N333 1.379 . S
N332 N329 1.398 . S
N332 C331 1.299 . S
N333 C330 1.367 . S
N333 C331 1.379 . S
C334 N336 1.298 . S
C334 N338 1.367 . S
C334 C342 1.481 . S
C335 N337 1.299 . S
C335 N338 1.379 . S
N336 Zn320 2.036 . S
N336 C334 1.298 . S
N336 N337 1.398 . S
N337 C335 1.299 . S
N337 N336 1.398 . S
N338 C334 1.367 . S
N338 C335 1.379 . S
H339 C342 0.980 . S
H340 C342 0.981 . S
H341 C342 0.981 . S
C342 C334 1.481 . S
C342 H339 0.980 . S
C342 H340 0.981 . S
C342 H341 0.981 . S
C343 C330 1.481 1_554 S
C343 H344 0.980 . S
C343 H345 0.981 . S
C343 H346 0.981 . S
H344 C343 0.980 . S
H345 C343 0.981 . S
H346 C343 0.981 . S
O347 Zn323 2.066 . S
O347 C326 1.256 . S
O348 Zn320 2.053 . S
O348 C326 1.244 . S
C349 O327 1.259 . S
C349 O328 1.254 . S
O350 Zn320 2.066 . S
O350 C322 1.256 . S
O351 C322 1.244 . S
O351 Zn323 2.053 . S
Zn352 O353 2.055 1_556 S
Zn352 O360 2.046 . S
Zn352 N368 2.036 . S
Zn352 O380 2.053 . S
Zn352 O382 2.066 . S
O353 Zn352 2.055 1_554 S
O353 C356 1.259 . S
C354 O382 1.256 . S
C354 O383 1.244 . S
Zn355 O357 2.046 1_556 S
Zn355 O359 2.055 . S
Zn355 N361 2.036 . S
Zn355 O379 2.066 . S
Zn355 O383 2.053 . S
C356 O353 1.259 . S
C356 O357 1.254 . S
O357 Zn355 2.046 1_554 S
O357 C356 1.254 . S
C358 O379 1.256 . S
C358 O380 1.244 . S
O359 Zn355 2.055 . S
O359 C381 1.259 . S
O360 Zn352 2.046 . S
O360 C381 1.254 . S
N361 Zn355 2.036 . S
N361 C362 1.298 . S
N361 N364 1.398 . S
C362 N361 1.298 . S
C362 N365 1.367 . S
C362 C375 1.481 . S
C363 N364 1.299 . S
C363 N365 1.379 . S
N364 N361 1.398 . S
N364 C363 1.299 . S
N365 C362 1.367 . S
N365 C363 1.379 . S
C366 N368 1.298 . S
C366 N370 1.367 . S
C366 C374 1.481 1_556 S
C367 N369 1.299 . S
C367 N370 1.379 . S
N368 Zn352 2.036 . S
N368 C366 1.298 . S
N368 N369 1.398 . S
N369 C367 1.299 . S
N369 N368 1.398 . S
N370 C366 1.367 . S
N370 C367 1.379 . S
H371 C374 0.980 . S
H372 C374 0.981 . S
H373 C374 0.981 . S
C374 C366 1.481 1_554 S
C374 H371 0.980 . S
C374 H372 0.981 . S
C374 H373 0.981 . S
C375 C362 1.481 . S
C375 H376 0.980 . S
C375 H377 0.981 . S
C375 H378 0.981 . S
H376 C375 0.980 . S
H377 C375 0.981 . S
H378 C375 0.981 . S
O379 Zn355 2.066 . S
O379 C358 1.256 . S
O380 Zn352 2.053 . S
O380 C358 1.244 . S
C381 O359 1.259 . S
C381 O360 1.254 . S
O382 Zn352 2.066 . S
O382 C354 1.256 . S
O383 C354 1.244 . S
O383 Zn355 2.053 . S
Zn384 O385 2.055 . S
Zn384 O392 2.046 . S
Zn384 N400 2.036 . S
Zn384 O412 2.053 . S
Zn384 O414 2.066 . S
O385 Zn384 2.055 . S
O385 C388 1.259 . S
C386 O414 1.256 . S
C386 O415 1.244 . S
Zn387 O389 2.046 . S
Zn387 O391 2.055 . S
Zn387 N393 2.036 1_655 S
Zn387 O411 2.066 1_655 S
Zn387 O415 2.053 . S
C388 O385 1.259 . S
C388 O389 1.254 . S
O389 Zn387 2.046 . S
O389 C388 1.254 . S
C390 O411 1.256 1_655 S
C390 O412 1.244 . S
O391 Zn387 2.055 . S
O391 C413 1.259 . S
O392 Zn384 2.046 . S
O392 C413 1.254 . S
N393 Zn387 2.036 1_455 S
N393 C394 1.298 . S
N393 N396 1.398 . S
C394 N393 1.298 . S
C394 N397 1.367 1_565 S
C394 C407 1.481 . S
C395 N396 1.299 1_545 S
C395 N397 1.379 . S
N396 N393 1.398 . S
N396 C395 1.299 1_565 S
N397 C394 1.367 1_545 S
N397 C395 1.379 . S
C398 N400 1.298 . S
C398 N402 1.367 . S
C398 C406 1.481 . S
C399 N401 1.299 . S
C399 N402 1.379 . S
N400 Zn384 2.036 . S
N400 C398 1.298 . S
N400 N401 1.398 . S
N401 C399 1.299 . S
N401 N400 1.398 . S
N402 C398 1.367 . S
N402 C399 1.379 . S
H403 C406 0.980 . S
H404 C406 0.981 . S
H405 C406 0.981 . S
C406 C398 1.481 . S
C406 H403 0.980 . S
C406 H404 0.981 . S
C406 H405 0.981 . S
C407 C394 1.481 . S
C407 H408 0.980 . S
C407 H409 0.981 . S
C407 H410 0.981 . S
H408 C407 0.980 . S
H409 C407 0.981 . S
H410 C407 0.981 . S
O411 Zn387 2.066 1_455 S
O411 C390 1.256 1_455 S
O412 Zn384 2.053 . S
O412 C390 1.244 . S
C413 O391 1.259 . S
C413 O392 1.254 . S
O414 Zn384 2.066 . S
O414 C386 1.256 . S
O415 C386 1.244 . S
O415 Zn387 2.053 . S
Zn416 O417 2.055 . S
Zn416 O424 2.046 . S
Zn416 N432 2.036 . S
Zn416 O444 2.053 . S
Zn416 O446 2.066 . S
O417 Zn416 2.055 . S
O417 C420 1.259 . S
C418 O446 1.256 . S
C418 O447 1.244 . S
Zn419 O421 2.046 . S
Zn419 O423 2.055 . S
Zn419 N425 2.036 . S
Zn419 O443 2.066 . S
Zn419 O447 2.053 . S
C420 O417 1.259 . S
C420 O421 1.254 . S
O421 Zn419 2.046 . S
O421 C420 1.254 . S
C422 O443 1.256 . S
C422 O444 1.244 . S
O423 Zn419 2.055 . S
O423 C445 1.259 . S
O424 Zn416 2.046 . S
O424 C445 1.254 . S
N425 Zn419 2.036 . S
N425 C426 1.298 . S
N425 N428 1.398 . S
C426 N425 1.298 . S
C426 N429 1.367 1_455 S
C426 C439 1.481 . S
C427 N428 1.299 1_655 S
C427 N429 1.379 . S
N428 N425 1.398 . S
N428 C427 1.299 1_455 S
N429 C426 1.367 1_655 S
N429 C427 1.379 . S
C430 N432 1.298 . S
C430 N434 1.367 . S
C430 C438 1.481 . S
C431 N433 1.299 . S
C431 N434 1.379 . S
N432 Zn416 2.036 . S
N432 C430 1.298 . S
N432 N433 1.398 . S
N433 C431 1.299 . S
N433 N432 1.398 . S
N434 C430 1.367 . S
N434 C431 1.379 . S
H435 C438 0.980 . S
H436 C438 0.981 . S
H437 C438 0.981 . S
C438 C430 1.481 . S
C438 H435 0.980 . S
C438 H436 0.981 . S
C438 H437 0.981 . S
C439 C426 1.481 . S
C439 H440 0.980 . S
C439 H441 0.981 . S
C439 H442 0.981 . S
H440 C439 0.980 . S
H441 C439 0.981 . S
H442 C439 0.981 . S
O443 Zn419 2.066 . S
O443 C422 1.256 . S
O444 Zn416 2.053 . S
O444 C422 1.244 . S
C445 O423 1.259 . S
C445 O424 1.254 . S
O446 Zn416 2.066 . S
O446 C418 1.256 . S
O447 C418 1.244 . S
O447 Zn419 2.053 . S
Zn448 O449 2.055 . S
Zn448 O456 2.046 . S
Zn448 N464 2.036 . S
Zn448 O476 2.053 . S
Zn448 O478 2.066 . S
O449 Zn448 2.055 . S
O449 C452 1.259 . S
C450 O478 1.256 . S
C450 O479 1.244 . S
Zn451 O453 2.046 . S
Zn451 O455 2.055 . S
Zn451 N457 2.036 1_545 S
Zn451 O475 2.066 1_545 S
Zn451 O479 2.053 . S
C452 O449 1.259 . S
C452 O453 1.254 . S
O453 Zn451 2.046 . S
O453 C452 1.254 . S
C454 O475 1.256 1_545 S
C454 O476 1.244 . S
O455 Zn451 2.055 . S
O455 C477 1.259 . S
O456 Zn448 2.046 . S
O456 C477 1.254 . S
N457 Zn451 2.036 1_565 S
N457 C458 1.298 . S
N457 N460 1.398 . S
C458 N457 1.298 . S
C458 N461 1.367 . S
C458 C471 1.481 . S
C459 N460 1.299 . S
C459 N461 1.379 . S
N460 N457 1.398 . S
N460 C459 1.299 . S
N461 C458 1.367 . S
N461 C459 1.379 . S
C462 N464 1.298 . S
C462 N466 1.367 . S
C462 C470 1.481 . S
C463 N465 1.299 . S
C463 N466 1.379 . S
N464 Zn448 2.036 . S
N464 C462 1.298 . S
N464 N465 1.398 . S
N465 C463 1.299 . S
N465 N464 1.398 . S
N466 C462 1.367 . S
N466 C463 1.379 . S
H467 C470 0.980 . S
H468 C470 0.981 . S
H469 C470 0.981 . S
C470 C462 1.481 . S
C470 H467 0.980 . S
C470 H468 0.981 . S
C470 H469 0.981 . S
C471 C458 1.481 . S
C471 H472 0.980 . S
C471 H473 0.981 . S
C471 H474 0.981 . S
H472 C471 0.980 . S
H473 C471 0.981 . S
H474 C471 0.981 . S
O475 Zn451 2.066 1_565 S
O475 C454 1.256 1_565 S
O476 Zn448 2.053 . S
O476 C454 1.244 . S
C477 O455 1.259 . S
C477 O456 1.254 . S
O478 Zn448 2.066 . S
O478 C450 1.256 . S
O479 C450 1.244 . S
O479 Zn451 2.053 . S
Zn480 O481 2.055 . S
Zn480 O488 2.046 . S
Zn480 N496 2.036 1_545 S
Zn480 O508 2.053 . S
Zn480 O510 2.066 1_545 S
O481 Zn480 2.055 . S
O481 C484 1.259 . S
C482 O510 1.256 1_545 S
C482 O511 1.244 . S
Zn483 O485 2.046 . S
Zn483 O487 2.055 . S
Zn483 N489 2.036 . S
Zn483 O507 2.066 . S
Zn483 O511 2.053 . S
C484 O481 1.259 . S
C484 O485 1.254 . S
O485 Zn483 2.046 . S
O485 C484 1.254 . S
C486 O507 1.256 1_556 S
C486 O508 1.244 1_556 S
O487 Zn483 2.055 . S
O487 C509 1.259 . S
O488 Zn480 2.046 . S
O488 C509 1.254 . S
N489 Zn483 2.036 . S
N489 C490 1.298 . S
N489 N492 1.398 . S
C490 N489 1.298 . S
C490 N493 1.367 . S
C490 C503 1.481 . S
C491 N492 1.299 . S
C491 N493 1.379 . S
N492 N489 1.398 . S
N492 C491 1.299 . S
N493 C490 1.367 . S
N493 C491 1.379 . S
C494 N496 1.298 . S
C494 N498 1.367 1_455 S
C494 C502 1.481 . S
C495 N497 1.299 1_655 S
C495 N498 1.379 . S
N496 Zn480 2.036 1_565 S
N496 C494 1.298 . S
N496 N497 1.398 . S
N497 C495 1.299 1_455 S
N497 N496 1.398 . S
N498 C494 1.367 1_655 S
N498 C495 1.379 . S
H499 C502 0.980 . S
H500 C502 0.981 . S
H501 C502 0.981 . S
C502 C494 1.481 . S
C502 H499 0.980 . S
C502 H500 0.981 . S
C502 H501 0.981 . S
C503 C490 1.481 . S
C503 H504 0.980 . S
C503 H505 0.981 . S
C503 H506 0.981 . S
H504 C503 0.980 . S
H505 C503 0.981 . S
H506 C503 0.981 . S
O507 Zn483 2.066 . S
O507 C486 1.256 1_554 S
O508 Zn480 2.053 . S
O508 C486 1.244 1_554 S
C509 O487 1.259 . S
C509 O488 1.254 . S
O510 Zn480 2.066 1_565 S
O510 C482 1.256 1_565 S
O511 C482 1.244 . S
O511 Zn483 2.053 . S
Zn512 O513 2.055 . S
Zn512 O520 2.046 . S
Zn512 N528 2.036 . S
Zn512 O540 2.053 . S
Zn512 O542 2.066 . S
O513 Zn512 2.055 . S
O513 C516 1.259 . S
C514 O542 1.256 1_556 S
C514 O543 1.244 1_556 S
Zn515 O517 2.046 . S
Zn515 O519 2.055 . S
Zn515 N521 2.036 1_655 S
Zn515 O539 2.066 1_655 S
Zn515 O543 2.053 . S
C516 O513 1.259 . S
C516 O517 1.254 . S
O517 Zn515 2.046 . S
O517 C516 1.254 . S
C518 O539 1.256 1_655 S
C518 O540 1.244 . S
O519 Zn515 2.055 . S
O519 C541 1.259 . S
O520 Zn512 2.046 . S
O520 C541 1.254 . S
N521 Zn515 2.036 1_455 S
N521 C522 1.298 . S
N521 N524 1.398 . S
C522 N521 1.298 . S
C522 N525 1.367 . S
C522 C535 1.481 . S
C523 N524 1.299 . S
C523 N525 1.379 . S
N524 N521 1.398 . S
N524 C523 1.299 . S
N525 C522 1.367 . S
N525 C523 1.379 . S
C526 N528 1.298 . S
C526 N530 1.367 . S
C526 C534 1.481 . S
C527 N529 1.299 . S
C527 N530 1.379 . S
N528 Zn512 2.036 . S
N528 C526 1.298 . S
N528 N529 1.398 . S
N529 C527 1.299 . S
N529 N528 1.398 . S
N530 C526 1.367 . S
N530 C527 1.379 . S
H531 C534 0.980 . S
H532 C534 0.981 . S
H533 C534 0.981 . S
C534 C526 1.481 . S
C534 H531 0.980 . S
C534 H532 0.981 . S
C534 H533 0.981 . S
C535 C522 1.481 . S
C535 H536 0.980 . S
C535 H537 0.981 . S
C535 H538 0.981 . S
H536 C535 0.980 . S
H537 C535 0.981 . S
H538 C535 0.981 . S
O539 Zn515 2.066 1_455 S
O539 C518 1.256 1_455 S
O540 Zn512 2.053 . S
O540 C518 1.244 . S
C541 O519 1.259 . S
C541 O520 1.254 . S
O542 Zn512 2.066 . S
O542 C514 1.256 1_554 S
O543 C514 1.244 1_554 S
O543 Zn515 2.053 . S
Zn544 O545 2.055 . S
Zn544 O552 2.046 . S
Zn544 N560 2.036 . S
Zn544 O572 2.053 . S
Zn544 O574 2.066 . S
O545 Zn544 2.055 . S
O545 C548 1.259 . S
C546 O574 1.256 . S
C546 O575 1.244 . S
Zn547 O549 2.046 . S
Zn547 O551 2.055 . S
Zn547 N553 2.036 . S
Zn547 O571 2.066 . S
Zn547 O575 2.053 . S
C548 O545 1.259 . S
C548 O549 1.254 . S
O549 Zn547 2.046 . S
O549 C548 1.254 . S
C550 O571 1.256 1_556 S
C550 O572 1.244 1_556 S
O551 Zn547 2.055 . S
O551 C573 1.259 . S
O552 Zn544 2.046 . S
O552 C573 1.254 . S
N553 Zn547 2.036 . S
N553 C554 1.298 . S
N553 N556 1.398 . S
C554 N553 1.298 . S
C554 N557 1.367 . S
C554 C567 1.481 . S
C555 N556 1.299 . S
C555 N557 1.379 . S
N556 N553 1.398 . S
N556 C555 1.299 . S
N557 C554 1.367 . S
N557 C555 1.379 . S
C558 N560 1.298 . S
C558 N562 1.367 1_565 S
C558 C566 1.481 . S
C559 N561 1.299 1_545 S
C559 N562 1.379 . S
N560 Zn544 2.036 . S
N560 C558 1.298 . S
N560 N561 1.398 . S
N561 C559 1.299 1_565 S
N561 N560 1.398 . S
N562 C558 1.367 1_545 S
N562 C559 1.379 . S
H563 C566 0.980 . S
H564 C566 0.981 . S
H565 C566 0.981 . S
C566 C558 1.481 . S
C566 H563 0.980 . S
C566 H564 0.981 . S
C566 H565 0.981 . S
C567 C554 1.481 . S
C567 H568 0.980 . S
C567 H569 0.981 . S
C567 H570 0.981 . S
H568 C567 0.980 . S
H569 C567 0.981 . S
H570 C567 0.981 . S
O571 Zn547 2.066 . S
O571 C550 1.256 1_554 S
O572 Zn544 2.053 . S
O572 C550 1.244 1_554 S
C573 O551 1.259 . S
C573 O552 1.254 . S
O574 Zn544 2.066 . S
O574 C546 1.256 . S
O575 C546 1.244 . S
O575 Zn547 2.053 . S
C4 N77 0.700 1_556 S
N13 C36 0.700 1_554 S
C68 N45 0.700 1_556 S
N141 C100 0.700 . S
N178 C132 0.700 . S
C189 N109 0.700 . S
N269 C196 0.700 . S
C228 N205 0.700 . S
N237 C260 0.700 . S
C317 N333 0.700 . S
N370 C324 0.700 . S
C381 N306 0.700 . S
N461 C388 0.700 . S
C420 N397 0.700 . S
C452 N429 0.700 . S
C509 N525 0.700 . S
N562 C516 0.700 . S
N498 C573 0.700 . S
C166 C29 1.777 . S
C98 C61 1.778 . S
C130 C93 1.777 . S
C34 C125 1.777 . S
C157 C66 1.777 . S
C2 C164 1.777 . S
C221 C358 1.777 . S
C253 C294 1.777 . S
C322 C285 1.777 . S
C292 C226 1.777 . S
C349 C258 1.777 . S
C356 C194 1.777 . S
C413 C550 1.777 . S
C445 C486 1.777 . S
C477 C514 1.777 . S
C484 C418 1.777 . S
C541 C450 1.777 . S
C548 C386 1.777 . S
C326 N18 2.363 . S
N50 C354 2.363 . S
C290 N82 2.363 . S
N114 C262 2.363 . S
N146 C198 2.363 . S
C230 N173 2.363 . S
N210 C518 2.363 1_455 S
N242 C546 2.363 . S
N274 C482 2.363 1_565 S
C454 N301 2.363 1_545 S
C390 N338 2.363 1_655 S
C422 N365 2.363 . S
C134 N402 2.363 . S
N434 C162 2.363 . S
C102 N466 2.363 . S
N493 C70 2.363 . S
N530 C6 2.363 . S
C38 N557 2.363 . S
