# Generated by pormake.
# Topology smd, (6)-cn, num edge types: 1
# Building blocks:
#     Node 0, Type 0, BuildingBlock: MIFKUJ_clean_sbu_0, # of connection points: 6
#     Node 1, Type 0, BuildingBlock: MIFKUJ_clean_sbu_0, # of connection points: 6
#     Node 2, Type 0, BuildingBlock: MIFKUJ_clean_sbu_0, # of connection points: 6
#     Node 3, Type 0, BuildingBlock: MIFKUJ_clean_sbu_0, # of connection points: 6
#     Node 4, Type 0, BuildingBlock: MIFKUJ_clean_sbu_0, # of connection points: 6
#     Node 5, Type 0, BuildingBlock: MIFKUJ_clean_sbu_0, # of connection points: 6
#     Node 6, Type 0, BuildingBlock: MIFKUJ_clean_sbu_0, # of connection points: 6
#     Node 7, Type 0, BuildingBlock: MIFKUJ_clean_sbu_0, # of connection points: 6
#     Node 8, Type 0, BuildingBlock: MIFKUJ_clean_sbu_0, # of connection points: 6
#     Node 9, Type 0, BuildingBlock: MIFKUJ_clean_sbu_0, # of connection points: 6
#     Node 10, Type 0, BuildingBlock: MIFKUJ_clean_sbu_0, # of connection points: 6
#     Node 11, Type 0, BuildingBlock: MIFKUJ_clean_sbu_0, # of connection points: 6
#     Node 12, Type 0, BuildingBlock: MIFKUJ_clean_sbu_0, # of connection points: 6
#     Node 13, Type 0, BuildingBlock: MIFKUJ_clean_sbu_0, # of connection points: 6
#     Node 14, Type 0, BuildingBlock: MIFKUJ_clean_sbu_0, # of connection points: 6
#     Node 15, Type 0, BuildingBlock: MIFKUJ_clean_sbu_0, # of connection points: 6
#     Node 16, Type 0, BuildingBlock: MIFKUJ_clean_sbu_0, # of connection points: 6
#     Node 17, Type 0, BuildingBlock: MIFKUJ_clean_sbu_0, # of connection points: 6
#     Edge 18, Type (0, 0), None
#     Edge 19, Type (0, 0), None
#     Edge 20, Type (0, 0), None
#     Edge 21, Type (0, 0), None
#     Edge 22, Type (0, 0), None
#     Edge 23, Type (0, 0), None
#     Edge 24, Type (0, 0), None
#     Edge 25, Type (0, 0), None
#     Edge 26, Type (0, 0), None
#     Edge 27, Type (0, 0), None
#     Edge 28, Type (0, 0), None
#     Edge 29, Type (0, 0), None
#     Edge 30, Type (0, 0), None
#     Edge 31, Type (0, 0), None
#     Edge 32, Type (0, 0), None
#     Edge 33, Type (0, 0), None
#     Edge 34, Type (0, 0), None
#     Edge 35, Type (0, 0), None
#     Edge 36, Type (0, 0), None
#     Edge 37, Type (0, 0), None
#     Edge 38, Type (0, 0), None
#     Edge 39, Type (0, 0), None
#     Edge 40, Type (0, 0), None
#     Edge 41, Type (0, 0), None
#     Edge 42, Type (0, 0), None
#     Edge 43, Type (0, 0), None
#     Edge 44, Type (0, 0), None
#     Edge 45, Type (0, 0), None
#     Edge 46, Type (0, 0), None
#     Edge 47, Type (0, 0), None
#     Edge 48, Type (0, 0), None
#     Edge 49, Type (0, 0), None
#     Edge 50, Type (0, 0), None
#     Edge 51, Type (0, 0), None
#     Edge 52, Type (0, 0), None
#     Edge 53, Type (0, 0), None
#     Edge 54, Type (0, 0), None
#     Edge 55, Type (0, 0), None
#     Edge 56, Type (0, 0), None
#     Edge 57, Type (0, 0), None
#     Edge 58, Type (0, 0), None
#     Edge 59, Type (0, 0), None
#     Edge 60, Type (0, 0), None
#     Edge 61, Type (0, 0), None
#     Edge 62, Type (0, 0), None
#     Edge 63, Type (0, 0), None
#     Edge 64, Type (0, 0), None
#     Edge 65, Type (0, 0), None
#     Edge 66, Type (0, 0), None
#     Edge 67, Type (0, 0), None
#     Edge 68, Type (0, 0), None
#     Edge 69, Type (0, 0), None
#     Edge 70, Type (0, 0), None
#     Edge 71, Type (0, 0), None
# Relax obj value: 0.197
# Max RMSD: 0.261
# Mean RMSD: 0.261
data_MOF--net-smd--node1-MIFKUJ_clean_sbu_0--edge1-none
_symmetry_space_group_name_H-M    P1
_symmetry_Int_Tables_number       1
_symmetry_cell_setting            triclinic
loop_
_symmetry_equiv_pos_as_xyz
'x, y, z'
_cell_length_a     33.041425
_cell_length_b     33.04219
_cell_length_c     10.301739
_cell_angle_alpha  89.994772
_cell_angle_beta   90.011222
_cell_angle_gamma 120.00945
loop_
_atom_site_label
_atom_site_type_symbol
_atom_site_fract_x
_atom_site_fract_y
_atom_site_fract_z
_atom_type_partial_charge
Zn0 Zn 0.01228 0.247 0.6962 0.0
Zn1 Zn 0.01681 0.20515 0.37218 0.0
C2 C 0.94808 0.27258 0.79198 0.0
O3 O 0.94055 0.2388 0.87277 0.0
C4 C 0.10883 0.21625 0.35864 0.0
O5 O 0.10624 0.22971 0.24077 0.0
O6 O 0.03549 0.25082 0.87925 0.0
O7 O 0.96349 0.18083 0.65762 0.0
O8 O 0.95906 0.15343 0.45818 0.0
C9 C 0.01735 0.21675 0.95838 0.0
O10 O 0.98478 0.17537 0.91863 0.0
O11 O 0.97789 0.28324 0.70146 0.0
C12 C 0.02774 0.22556 0.09696 0.0
O13 O 0.05424 0.26863 0.138 0.0
O14 O 0.0085 0.19232 0.17862 0.0
O15 O 0.02808 0.27094 0.39372 0.0
O16 O 0.06686 0.27994 0.57445 0.0
O17 O 0.0744 0.2033 0.43543 0.0
C18 C 0.94411 0.14846 0.57403 0.0
C19 C 0.05861 0.29743 0.47539 0.0
Zn20 Zn 0.77615 0.77143 0.6962 0.0
Zn21 Zn 0.81798 0.81778 0.37222 0.0
C22 C 0.75056 0.68163 0.79205 0.0
O23 O 0.78432 0.70789 0.8729 0.0
C24 C 0.80677 0.89861 0.35886 0.0
O25 O 0.79317 0.88248 0.24114 0.0
O26 O 0.77232 0.7908 0.87924 0.0
O27 O 0.84233 0.78884 0.6577 0.0
O28 O 0.8697 0.81174 0.45819 0.0
C29 C 0.80639 0.80676 0.9584 0.0
O30 O 0.84778 0.81563 0.91869 0.0
O31 O 0.73992 0.70079 0.70147 0.0
C32 C 0.79757 0.80832 0.09697 0.0
O33 O 0.75448 0.79166 0.13798 0.0
O34 O 0.8308 0.82234 0.17867 0.0
O35 O 0.75218 0.76324 0.39376 0.0
O36 O 0.7432 0.79304 0.57441 0.0
O37 O 0.81985 0.87721 0.43554 0.0
C38 C 0.87468 0.8018 0.57409 0.0
C39 C 0.7257 0.7673 0.47537 0.0
Zn40 Zn 0.25171 0.01085 0.69609 0.0
Zn41 Zn 0.20534 0.00632 0.37206 0.0
C42 C 0.34151 0.07505 0.79197 0.0
O43 O 0.31526 0.08257 0.87274 0.0
C44 C 0.12449 0.91425 0.35871 0.0
O45 O 0.14062 0.91678 0.24099 0.0
O46 O 0.23232 0.98764 0.87912 0.0
O47 O 0.23435 0.05964 0.65749 0.0
O48 O 0.21139 0.06407 0.45802 0.0
C49 C 0.21636 0.00575 0.95824 0.0
O50 O 0.20752 0.0383 0.91848 0.0
O51 O 0.32234 0.04524 0.70143 0.0
C52 C 0.21479 0.99537 0.09682 0.0
O53 O 0.23143 0.96893 0.13787 0.0
O54 O 0.20078 0.01458 0.17848 0.0
O55 O 0.25987 0.99507 0.39362 0.0
O56 O 0.23008 0.95628 0.5743 0.0
O57 O 0.1459 0.94874 0.43537 0.0
C58 C 0.22137 0.07902 0.57388 0.0
C59 C 0.25583 0.96454 0.47527 0.0
Zn60 Zn 0.00995 0.81433 0.60107 0.0
Zn61 Zn 0.01447 0.77248 0.27707 0.0
C62 C 0.91791 0.80317 0.61457 0.0
O63 O 0.92048 0.78965 0.73238 0.0
C64 C 0.07869 0.74691 0.18133 0.0
O65 O 0.08621 0.78068 0.10051 0.0
O66 O 0.01825 0.82715 0.79463 0.0
O67 O 0.99869 0.74854 0.57951 0.0
O68 O 0.95989 0.73953 0.3988 0.0
C69 C 0.99902 0.79391 0.87629 0.0
O70 O 0.97255 0.75084 0.83524 0.0
O71 O 0.95236 0.81618 0.53783 0.0
C72 C 0.0094 0.80273 0.01487 0.0
O73 O 0.04195 0.84411 0.05461 0.0
O74 O 0.99127 0.76865 0.094 0.0
O75 O 0.06324 0.83866 0.31563 0.0
O76 O 0.06769 0.86606 0.51508 0.0
O77 O 0.04888 0.73626 0.27185 0.0
C78 C 0.96814 0.72205 0.49788 0.0
C79 C 0.08263 0.87103 0.39921 0.0
Zn80 Zn 0.20878 0.2017 0.60102 0.0
Zn81 Zn 0.2506 0.24802 0.27708 0.0
C82 C 0.22005 0.1209 0.61434 0.0
O83 O 0.2337 0.13706 0.73201 0.0
C84 C 0.27619 0.33782 0.18128 0.0
O85 O 0.24244 0.31157 0.10038 0.0
O86 O 0.19597 0.19713 0.79459 0.0
O87 O 0.27457 0.25624 0.57947 0.0
O88 O 0.28357 0.22642 0.39885 0.0
C89 C 0.2292 0.21117 0.87628 0.0
O90 O 0.27229 0.22785 0.83526 0.0
O91 O 0.20691 0.14227 0.53771 0.0
C92 C 0.22038 0.2127 0.01486 0.0
O93 O 0.17898 0.20382 0.05456 0.0
O94 O 0.25445 0.22867 0.09402 0.0
O95 O 0.18441 0.23059 0.31555 0.0
O96 O 0.15705 0.20772 0.51507 0.0
O97 O 0.28681 0.31866 0.27186 0.0
C98 C 0.30105 0.25216 0.4979 0.0
C99 C 0.15206 0.21763 0.39915 0.0
Zn100 Zn 0.82143 0.01316 0.60118 0.0
Zn101 Zn 0.77507 0.00864 0.27717 0.0
C102 C 0.90224 0.10525 0.6145 0.0
O103 O 0.88608 0.10273 0.73217 0.0
C104 C 0.68527 0.94443 0.18133 0.0
O105 O 0.71152 0.93692 0.10052 0.0
O106 O 0.82599 0.00491 0.79476 0.0
O107 O 0.76689 0.02441 0.57959 0.0
O108 O 0.79669 0.06322 0.39894 0.0
C109 C 0.81196 0.02411 0.87641 0.0
O110 O 0.7953 0.05053 0.83535 0.0
O111 O 0.88086 0.07074 0.53787 0.0
C112 C 0.8104 0.01374 0.015 0.0
O113 O 0.81926 0.98121 0.05475 0.0
O114 O 0.79444 0.03185 0.09412 0.0
O115 O 0.79246 0.95987 0.31574 0.0
O116 O 0.81539 0.95541 0.51523 0.0
O117 O 0.70444 0.97424 0.27188 0.0
C118 C 0.77095 0.05496 0.49798 0.0
C119 C 0.80543 0.94048 0.39935 0.0
Zn120 Zn 0.67904 0.58037 0.02968 0.0
Zn121 Zn 0.68356 0.53851 0.70571 0.0
C122 C 0.61482 0.60596 0.12528 0.0
O123 O 0.60732 0.57222 0.20621 0.0
C124 C 0.77562 0.54975 0.69228 0.0
O125 O 0.7731 0.5634 0.57461 0.0
O126 O 0.70221 0.58421 0.21278 0.0
O127 O 0.63027 0.51419 -0.00886 0.0
O128 O 0.6258 0.48678 0.79169 0.0
C129 C 0.6841 0.55013 0.2919 0.0
O130 O 0.65158 0.50874 0.25212 0.0
O131 O 0.64463 0.61659 0.03476 0.0
C132 C 0.69447 0.55894 0.43049 0.0
O133 O 0.7209 0.60203 0.47155 0.0
O134 O 0.67527 0.5257 0.51214 0.0
O135 O 0.69484 0.6043 0.72729 0.0
O136 O 0.73364 0.61331 0.90799 0.0
O137 O 0.74113 0.53663 0.76894 0.0
C138 C 0.61087 0.48182 0.90757 0.0
C139 C 0.7254 0.63079 0.80889 0.0
Zn140 Zn 0.4428 0.10482 0.02967 0.0
Zn141 Zn 0.48463 0.15116 0.70575 0.0
C142 C 0.41719 0.015 0.12533 0.0
O143 O 0.45091 0.04124 0.20633 0.0
C144 C 0.4733 0.23192 0.69247 0.0
O145 O 0.45954 0.21568 0.57491 0.0
O146 O 0.43894 0.12414 0.21277 0.0
O147 O 0.50899 0.12226 -0.00878 0.0
O148 O 0.53635 0.14513 0.7917 0.0
C149 C 0.47302 0.14013 0.29192 0.0
O150 O 0.51442 0.14905 0.25217 0.0
O151 O 0.40658 0.03419 0.03476 0.0
C152 C 0.46419 0.14166 0.4305 0.0
O153 O 0.4211 0.12495 0.47152 0.0
O154 O 0.49743 0.15572 0.51218 0.0
O155 O 0.41883 0.09664 0.72733 0.0
O156 O 0.40984 0.12646 0.90794 0.0
O157 O 0.48652 0.2106 0.76904 0.0
C158 C 0.54134 0.13521 0.90763 0.0
C159 C 0.39235 0.10073 0.80886 0.0
Zn160 Zn 0.91832 0.34408 0.02961 0.0
Zn161 Zn 0.87196 0.33957 0.70564 0.0
C162 C 0.00814 0.4083 0.12531 0.0
O163 O 0.98191 0.41579 0.20623 0.0
C164 C 0.7912 0.24746 0.69235 0.0
O165 O 0.80743 0.24994 0.5748 0.0
O166 O 0.89898 0.3209 0.2127 0.0
O167 O 0.90091 0.39284 -0.00892 0.0
O168 O 0.878 0.39733 0.79158 0.0
C169 C 0.883 0.339 0.29181 0.0
O170 O 0.8741 0.37149 0.25203 0.0
O171 O 0.98895 0.3785 0.03475 0.0
C172 C 0.88146 0.32864 0.43041 0.0
O173 O 0.89816 0.30225 0.47147 0.0
O174 O 0.8674 0.34781 0.51205 0.0
O175 O 0.92648 0.32831 0.72726 0.0
O176 O 0.89667 0.28949 0.90789 0.0
O177 O 0.81251 0.282 0.76892 0.0
C178 C 0.88795 0.41224 0.90748 0.0
C179 C 0.9224 0.29774 0.80883 0.0
Zn180 Zn 0.67655 0.14761 0.93462 0.0
Zn181 Zn 0.6811 0.10573 0.61057 0.0
C182 C 0.58456 0.13658 0.94816 0.0
O183 O 0.58716 0.12316 0.06607 0.0
C184 C 0.74527 0.08011 0.51481 0.0
O185 O 0.7528 0.11389 0.43402 0.0
O186 O 0.68488 0.16045 0.12817 0.0
O187 O 0.66525 0.08181 0.9131 0.0
O188 O 0.62652 0.07284 0.7323 0.0
C189 C 0.66563 0.12721 0.20983 0.0
O190 O 0.6391 0.08415 0.16878 0.0
O191 O 0.61898 0.1495 0.87136 0.0
C192 C 0.67604 0.13602 0.34841 0.0
O193 O 0.70862 0.17739 0.38814 0.0
O194 O 0.6579 0.10194 0.42752 0.0
O195 O 0.72992 0.17189 0.64918 0.0
O196 O 0.73431 0.19931 0.84859 0.0
O197 O 0.71546 0.06946 0.60532 0.0
C198 C 0.63475 0.05534 0.83135 0.0
C199 C 0.74929 0.20426 0.73277 0.0
Zn200 Zn 0.87549 0.535 0.93457 0.0
Zn201 Zn 0.91735 0.58141 0.61055 0.0
C202 C 0.8866 0.45411 0.94799 0.0
O203 O 0.90014 0.47019 0.06579 0.0
C204 C 0.94298 0.67121 0.51472 0.0
O205 O 0.90921 0.64495 0.43389 0.0
O206 O 0.86266 0.53046 0.12812 0.0
O207 O 0.9413 0.58952 0.91306 0.0
O208 O 0.95026 0.55974 0.73233 0.0
C209 C 0.89589 0.54446 0.20981 0.0
O210 O 0.93897 0.56107 0.1688 0.0
O211 O 0.87359 0.47556 0.87126 0.0
C212 C 0.88708 0.54605 0.34838 0.0
O213 O 0.8457 0.53722 0.38808 0.0
O214 O 0.92116 0.56201 0.42752 0.0
O215 O 0.85118 0.56405 0.6491 0.0
O216 O 0.8238 0.54107 0.84856 0.0
O217 O 0.95362 0.65204 0.60529 0.0
C218 C 0.96777 0.58548 0.83137 0.0
C219 C 0.81883 0.55107 0.7327 0.0
Zn220 Zn 0.48812 0.34656 0.93471 0.0
Zn221 Zn 0.4417 0.34201 0.61065 0.0
C222 C 0.56901 0.4386 0.94809 0.0
O223 O 0.55291 0.43606 0.06585 0.0
C224 C 0.3519 0.27784 0.51479 0.0
O225 O 0.37815 0.27031 0.43402 0.0
O226 O 0.49267 0.33828 0.12828 0.0
O227 O 0.4336 0.35784 0.91316 0.0
O228 O 0.46338 0.39659 0.73243 0.0
C229 C 0.47866 0.3575 0.20994 0.0
O230 O 0.46206 0.38397 0.16888 0.0
O231 O 0.54757 0.40412 0.8714 0.0
C232 C 0.47707 0.3471 0.34851 0.0
O233 O 0.48589 0.31454 0.38826 0.0
O234 O 0.46112 0.36522 0.42762 0.0
O235 O 0.45903 0.2932 0.64928 0.0
O236 O 0.48204 0.2888 0.84872 0.0
O237 O 0.37107 0.30766 0.60532 0.0
C238 C 0.43764 0.38835 0.83144 0.0
C239 C 0.47202 0.27382 0.73289 0.0
Zn240 Zn 0.34568 0.91376 0.36277 0.0
Zn241 Zn 0.35024 0.87187 0.03873 0.0
C242 C 0.28152 0.93939 0.45849 0.0
O243 O 0.27399 0.90562 0.5393 0.0
C244 C 0.44224 0.88294 0.02523 0.0
O245 O 0.43967 0.89643 0.90739 0.0
O246 O 0.36888 0.91755 0.54583 0.0
O247 O 0.29686 0.84761 0.32416 0.0
O248 O 0.29247 0.82018 0.12476 0.0
C249 C 0.35075 0.88347 0.62494 0.0
O250 O 0.31818 0.8421 0.58518 0.0
O251 O 0.31133 0.95004 0.36797 0.0
C252 C 0.36116 0.89227 0.76351 0.0
O253 O 0.38766 0.93535 0.80456 0.0
O254 O 0.34192 0.85904 0.84518 0.0
O255 O 0.36155 0.93768 0.06025 0.0
O256 O 0.40028 0.94665 0.24106 0.0
O257 O 0.4078 0.86997 0.10199 0.0
C258 C 0.27749 0.81524 0.24057 0.0
C259 C 0.39206 0.96415 0.142 0.0
Zn260 Zn 0.10941 0.43808 0.36282 0.0
Zn261 Zn 0.15127 0.48449 0.03881 0.0
C262 C 0.08376 0.34827 0.4586 0.0
O263 O 0.11752 0.37453 0.53946 0.0
C264 C 0.14013 0.56538 0.0254 0.0
O265 O 0.12656 0.54927 0.90764 0.0
O266 O 0.1056 0.45747 0.54586 0.0
O267 O 0.17557 0.45544 0.32428 0.0
O268 O 0.20296 0.47842 0.12482 0.0
C269 C 0.13968 0.47344 0.625 0.0
O270 O 0.18106 0.48228 0.58527 0.0
O271 O 0.07313 0.36745 0.36804 0.0
C272 C 0.13087 0.47502 0.76357 0.0
O273 O 0.08779 0.45841 0.80458 0.0
O274 O 0.1641 0.48904 0.84526 0.0
O275 O 0.08546 0.42998 0.06032 0.0
O276 O 0.07651 0.45976 0.24105 0.0
O277 O 0.15318 0.54395 0.1021 0.0
C278 C 0.20792 0.46841 0.24068 0.0
C279 C 0.059 0.43402 0.14201 0.0
Zn280 Zn 0.58505 0.67743 0.36273 0.0
Zn281 Zn 0.53863 0.67288 0.03869 0.0
C282 C 0.67486 0.7416 0.45854 0.0
O283 O 0.64861 0.74912 0.53935 0.0
C284 C 0.45777 0.58083 0.02535 0.0
O285 O 0.47391 0.58335 0.90765 0.0
O286 O 0.56565 0.65423 0.54578 0.0
O287 O 0.56771 0.72624 0.32412 0.0
O288 O 0.54471 0.73065 0.12467 0.0
C289 C 0.54968 0.67234 0.62488 0.0
O290 O 0.54084 0.70488 0.58511 0.0
O291 O 0.65568 0.71179 0.368 0.0
C292 C 0.5481 0.66195 0.76346 0.0
O293 O 0.56472 0.6355 0.80451 0.0
O294 O 0.53408 0.68116 0.84512 0.0
O295 O 0.59314 0.6616 0.06025 0.0
O296 O 0.56336 0.62284 0.24098 0.0
O297 O 0.47917 0.61533 0.102 0.0
C298 C 0.55473 0.74562 0.2405 0.0
C299 C 0.5891 0.63108 0.14195 0.0
Zn300 Zn 0.34318 0.48095 0.26769 0.0
Zn301 Zn 0.34772 0.43907 0.94371 0.0
C302 C 0.25113 0.46973 0.28111 0.0
O303 O 0.25365 0.45608 0.39879 0.0
C304 C 0.41192 0.41347 0.84811 0.0
O305 O 0.41942 0.44721 0.76719 0.0
O306 O 0.35148 0.49376 0.46126 0.0
O307 O 0.33189 0.41515 0.24612 0.0
O308 O 0.29311 0.40615 0.06539 0.0
C309 C 0.33227 0.46052 0.54291 0.0
O310 O 0.30583 0.41744 0.50185 0.0
O311 O 0.28562 0.48284 0.20445 0.0
C312 C 0.34265 0.46933 0.6815 0.0
O313 O 0.37518 0.51072 0.72126 0.0
O314 O 0.32454 0.43525 0.76061 0.0
O315 O 0.3965 0.50525 0.98226 0.0
O316 O 0.40095 0.53266 0.1817 0.0
O317 O 0.38211 0.40284 0.93863 0.0
C318 C 0.30134 0.38867 0.16449 0.0
C319 C 0.41589 0.53762 0.06584 0.0
Zn320 Zn 0.54215 0.8683 0.26762 0.0
Zn321 Zn 0.58399 0.91466 0.94368 0.0
C322 C 0.55344 0.78752 0.28093 0.0
O323 O 0.56717 0.80373 0.39852 0.0
C324 C 0.60961 0.00448 0.84802 0.0
O325 O 0.57589 0.97824 0.76704 0.0
O326 O 0.52934 0.86374 0.46119 0.0
O327 O 0.60794 0.92282 0.24606 0.0
O328 O 0.61693 0.89301 0.06541 0.0
C329 C 0.56258 0.8778 0.54287 0.0
O330 O 0.60567 0.89449 0.50184 0.0
O331 O 0.54025 0.80885 0.20433 0.0
C332 C 0.55376 0.87935 0.68145 0.0
O333 O 0.51236 0.87044 0.72118 0.0
O334 O 0.58784 0.89533 0.76059 0.0
O335 O 0.51781 0.89725 0.98214 0.0
O336 O 0.49043 0.87435 0.18164 0.0
O337 O 0.62022 0.9853 0.93859 0.0
C338 C 0.63442 0.91874 0.16449 0.0
C339 C 0.48545 0.88429 0.06573 0.0
Zn340 Zn 0.15482 0.67993 0.26773 0.0
Zn341 Zn 0.10845 0.67542 0.94375 0.0
C342 C 0.23558 0.77204 0.28099 0.0
O343 O 0.21934 0.76957 0.39853 0.0
C344 C 0.01862 0.6112 0.84807 0.0
O345 O 0.04485 0.60371 0.76714 0.0
O346 O 0.15938 0.67169 0.46132 0.0
O347 O 0.1003 0.6912 0.24611 0.0
O348 O 0.13011 0.73001 0.06547 0.0
C349 C 0.14532 0.69087 0.54296 0.0
O350 O 0.12862 0.71725 0.50189 0.0
O351 O 0.21427 0.73749 0.20444 0.0
C352 C 0.14377 0.6805 0.68156 0.0
O353 O 0.15267 0.64801 0.72133 0.0
O354 O 0.12778 0.69859 0.76066 0.0
O355 O 0.12584 0.62664 0.98229 0.0
O356 O 0.14876 0.62217 0.18179 0.0
O357 O 0.03781 0.64101 0.93861 0.0
C358 C 0.10438 0.72176 0.16453 0.0
C359 C 0.1388 0.60725 0.0659 0.0
loop_
_geom_bond_atom_site_label_1
_geom_bond_atom_site_label_2
_geom_bond_distance
_geom_bond_site_symmetry_2
_ccdc_geom_bond_type
Zn0 O6 1.969 1_655 S
Zn0 O7 1.965 . S
Zn0 O11 2.024 . S
Zn0 O16 1.969 1_655 S
Zn1 O8 1.969 1_455 S
Zn1 O14 1.969 1_455 S
Zn1 O15 1.965 . S
Zn1 O17 2.024 . S
C2 O3 1.229 . S
C2 O11 1.058 . S
O3 C2 1.229 . S
C4 O5 1.229 . S
C4 O17 1.058 . S
O5 C4 1.229 . S
O6 Zn0 1.969 1_455 S
O6 C9 1.267 1_455 S
O7 Zn0 1.965 . S
O7 C18 1.260 . S
O8 Zn1 1.969 1_655 S
O8 C18 1.258 . S
C9 O6 1.267 1_655 S
C9 O10 1.228 . S
O10 C9 1.228 . S
O11 Zn0 2.024 . S
O11 C2 1.058 . S
C12 O13 1.228 . S
C12 O14 1.267 1_455 S
O13 C12 1.228 . S
O14 Zn1 1.969 1_655 S
O14 C12 1.267 1_655 S
O15 Zn1 1.965 . S
O15 C19 1.260 . S
O16 Zn0 1.969 1_455 S
O16 C19 1.258 . S
O17 Zn1 2.024 . S
O17 C4 1.058 . S
C18 O7 1.260 . S
C18 O8 1.258 . S
C19 O15 1.260 . S
C19 O16 1.258 . S
Zn20 O26 1.969 . S
Zn20 O27 1.965 . S
Zn20 O31 2.024 . S
Zn20 O36 1.969 . S
Zn21 O28 1.969 . S
Zn21 O34 1.969 . S
Zn21 O35 1.965 . S
Zn21 O37 2.024 . S
C22 O23 1.229 . S
C22 O31 1.058 . S
O23 C22 1.229 . S
C24 O25 1.229 . S
C24 O37 1.058 . S
O25 C24 1.229 . S
O26 Zn20 1.969 . S
O26 C29 1.267 . S
O27 Zn20 1.965 . S
O27 C38 1.260 . S
O28 Zn21 1.969 . S
O28 C38 1.258 . S
C29 O26 1.267 . S
C29 O30 1.228 . S
O30 C29 1.228 . S
O31 Zn20 2.024 . S
O31 C22 1.058 . S
C32 O33 1.228 . S
C32 O34 1.267 . S
O33 C32 1.228 . S
O34 Zn21 1.969 . S
O34 C32 1.267 . S
O35 Zn21 1.965 . S
O35 C39 1.260 . S
O36 Zn20 1.969 . S
O36 C39 1.258 . S
O37 Zn21 2.024 . S
O37 C24 1.058 . S
C38 O27 1.260 . S
C38 O28 1.258 . S
C39 O35 1.260 . S
C39 O36 1.258 . S
Zn40 O46 1.969 1_545 S
Zn40 O47 1.965 . S
Zn40 O51 2.024 . S
Zn40 O56 1.969 1_545 S
Zn41 O48 1.969 1_565 S
Zn41 O54 1.969 1_565 S
Zn41 O55 1.965 . S
Zn41 O57 2.024 . S
C42 O43 1.229 . S
C42 O51 1.058 . S
O43 C42 1.229 . S
C44 O45 1.229 . S
C44 O57 1.058 . S
O45 C44 1.229 . S
O46 Zn40 1.969 1_565 S
O46 C49 1.267 1_565 S
O47 Zn40 1.965 . S
O47 C58 1.260 . S
O48 Zn41 1.969 1_545 S
O48 C58 1.258 . S
C49 O46 1.267 1_545 S
C49 O50 1.228 . S
O50 C49 1.228 . S
O51 Zn40 2.024 . S
O51 C42 1.058 . S
C52 O53 1.228 . S
C52 O54 1.267 1_565 S
O53 C52 1.228 . S
O54 Zn41 1.969 1_545 S
O54 C52 1.267 1_545 S
O55 Zn41 1.965 . S
O55 C59 1.260 . S
O56 Zn40 1.969 1_565 S
O56 C59 1.258 . S
O57 Zn41 2.024 . S
O57 C44 1.058 . S
C58 O47 1.260 . S
C58 O48 1.258 . S
C59 O55 1.260 . S
C59 O56 1.258 . S
Zn60 O66 1.969 1_655 S
Zn60 O67 1.965 . S
Zn60 O71 2.024 . S
Zn60 O76 1.969 1_655 S
Zn61 O68 1.969 1_455 S
Zn61 O74 1.969 1_455 S
Zn61 O75 1.965 . S
Zn61 O77 2.024 . S
C62 O63 1.229 . S
C62 O71 1.058 . S
O63 C62 1.229 . S
C64 O65 1.229 . S
C64 O77 1.058 . S
O65 C64 1.229 . S
O66 Zn60 1.969 1_455 S
O66 C69 1.267 1_455 S
O67 Zn60 1.965 . S
O67 C78 1.260 . S
O68 Zn61 1.969 1_655 S
O68 C78 1.258 . S
C69 O66 1.267 1_655 S
C69 O70 1.228 . S
O70 C69 1.228 . S
O71 Zn60 2.024 . S
O71 C62 1.058 . S
C72 O73 1.228 . S
C72 O74 1.267 1_455 S
O73 C72 1.228 . S
O74 Zn61 1.969 1_655 S
O74 C72 1.267 1_655 S
O75 Zn61 1.965 . S
O75 C79 1.260 . S
O76 Zn60 1.969 1_455 S
O76 C79 1.258 . S
O77 Zn61 2.024 . S
O77 C64 1.058 . S
C78 O67 1.260 . S
C78 O68 1.258 . S
C79 O75 1.260 . S
C79 O76 1.258 . S
Zn80 O86 1.969 . S
Zn80 O87 1.965 . S
Zn80 O91 2.024 . S
Zn80 O96 1.969 . S
Zn81 O88 1.969 . S
Zn81 O94 1.969 . S
Zn81 O95 1.965 . S
Zn81 O97 2.024 . S
C82 O83 1.229 . S
C82 O91 1.058 . S
O83 C82 1.229 . S
C84 O85 1.229 . S
C84 O97 1.058 . S
O85 C84 1.229 . S
O86 Zn80 1.969 . S
O86 C89 1.267 . S
O87 Zn80 1.965 . S
O87 C98 1.260 . S
O88 Zn81 1.969 . S
O88 C98 1.258 . S
C89 O86 1.267 . S
C89 O90 1.228 . S
O90 C89 1.228 . S
O91 Zn80 2.024 . S
O91 C82 1.058 . S
C92 O93 1.228 . S
C92 O94 1.267 . S
O93 C92 1.228 . S
O94 Zn81 1.969 . S
O94 C92 1.267 . S
O95 Zn81 1.965 . S
O95 C99 1.260 . S
O96 Zn80 1.969 . S
O96 C99 1.258 . S
O97 Zn81 2.024 . S
O97 C84 1.058 . S
C98 O87 1.260 . S
C98 O88 1.258 . S
C99 O95 1.260 . S
C99 O96 1.258 . S
Zn100 O106 1.969 1_545 S
Zn100 O107 1.965 . S
Zn100 O111 2.024 . S
Zn100 O116 1.969 1_545 S
Zn101 O108 1.969 1_565 S
Zn101 O114 1.969 1_565 S
Zn101 O115 1.965 . S
Zn101 O117 2.024 . S
C102 O103 1.229 . S
C102 O111 1.058 . S
O103 C102 1.229 . S
C104 O105 1.229 . S
C104 O117 1.058 . S
O105 C104 1.229 . S
O106 Zn100 1.969 1_565 S
O106 C109 1.267 1_565 S
O107 Zn100 1.965 . S
O107 C118 1.260 . S
O108 Zn101 1.969 1_545 S
O108 C118 1.258 . S
C109 O106 1.267 1_545 S
C109 O110 1.228 . S
O110 C109 1.228 . S
O111 Zn100 2.024 . S
O111 C102 1.058 . S
C112 O113 1.228 . S
C112 O114 1.267 1_565 S
O113 C112 1.228 . S
O114 Zn101 1.969 1_545 S
O114 C112 1.267 1_545 S
O115 Zn101 1.965 . S
O115 C119 1.260 . S
O116 Zn100 1.969 1_565 S
O116 C119 1.258 . S
O117 Zn101 2.024 . S
O117 C104 1.058 . S
C118 O107 1.260 . S
C118 O108 1.258 . S
C119 O115 1.260 . S
C119 O116 1.258 . S
Zn120 O126 1.969 . S
Zn120 O127 1.965 1_554 S
Zn120 O131 2.024 . S
Zn120 O136 1.969 1_554 S
Zn121 O128 1.969 . S
Zn121 O134 1.969 . S
Zn121 O135 1.965 . S
Zn121 O137 2.024 . S
C122 O123 1.229 . S
C122 O131 1.058 . S
O123 C122 1.229 . S
C124 O125 1.229 . S
C124 O137 1.058 . S
O125 C124 1.229 . S
O126 Zn120 1.969 . S
O126 C129 1.267 . S
O127 Zn120 1.965 1_556 S
O127 C138 1.260 . S
O128 Zn121 1.969 . S
O128 C138 1.258 . S
C129 O126 1.267 . S
C129 O130 1.228 . S
O130 C129 1.228 . S
O131 Zn120 2.024 . S
O131 C122 1.058 . S
C132 O133 1.228 . S
C132 O134 1.267 . S
O133 C132 1.228 . S
O134 Zn121 1.969 . S
O134 C132 1.267 . S
O135 Zn121 1.965 . S
O135 C139 1.260 . S
O136 Zn120 1.969 1_556 S
O136 C139 1.258 . S
O137 Zn121 2.024 . S
O137 C124 1.058 . S
C138 O127 1.260 . S
C138 O128 1.258 . S
C139 O135 1.260 . S
C139 O136 1.258 . S
Zn140 O146 1.969 . S
Zn140 O147 1.965 1_554 S
Zn140 O151 2.024 . S
Zn140 O156 1.969 1_554 S
Zn141 O148 1.969 . S
Zn141 O154 1.969 . S
Zn141 O155 1.965 . S
Zn141 O157 2.024 . S
C142 O143 1.229 . S
C142 O151 1.058 . S
O143 C142 1.229 . S
C144 O145 1.229 . S
C144 O157 1.058 . S
O145 C144 1.229 . S
O146 Zn140 1.969 . S
O146 C149 1.267 . S
O147 Zn140 1.965 1_556 S
O147 C158 1.260 . S
O148 Zn141 1.969 . S
O148 C158 1.258 . S
C149 O146 1.267 . S
C149 O150 1.228 . S
O150 C149 1.228 . S
O151 Zn140 2.024 . S
O151 C142 1.058 . S
C152 O153 1.228 . S
C152 O154 1.267 . S
O153 C152 1.228 . S
O154 Zn141 1.969 . S
O154 C152 1.267 . S
O155 Zn141 1.965 . S
O155 C159 1.260 . S
O156 Zn140 1.969 1_556 S
O156 C159 1.258 . S
O157 Zn141 2.024 . S
O157 C144 1.058 . S
C158 O147 1.260 . S
C158 O148 1.258 . S
C159 O155 1.260 . S
C159 O156 1.258 . S
Zn160 O166 1.969 . S
Zn160 O167 1.965 1_554 S
Zn160 O171 2.024 . S
Zn160 O176 1.969 1_554 S
Zn161 O168 1.969 . S
Zn161 O174 1.969 . S
Zn161 O175 1.965 . S
Zn161 O177 2.024 . S
C162 O163 1.229 . S
C162 O171 1.058 1_455 S
O163 C162 1.229 . S
C164 O165 1.229 . S
C164 O177 1.058 . S
O165 C164 1.229 . S
O166 Zn160 1.969 . S
O166 C169 1.267 . S
O167 Zn160 1.965 1_556 S
O167 C178 1.260 . S
O168 Zn161 1.969 . S
O168 C178 1.258 . S
C169 O166 1.267 . S
C169 O170 1.228 . S
O170 C169 1.228 . S
O171 Zn160 2.024 . S
O171 C162 1.058 1_655 S
C172 O173 1.228 . S
C172 O174 1.267 . S
O173 C172 1.228 . S
O174 Zn161 1.969 . S
O174 C172 1.267 . S
O175 Zn161 1.965 . S
O175 C179 1.260 . S
O176 Zn160 1.969 1_556 S
O176 C179 1.258 . S
O177 Zn161 2.024 . S
O177 C164 1.058 . S
C178 O167 1.260 . S
C178 O168 1.258 . S
C179 O175 1.260 . S
C179 O176 1.258 . S
Zn180 O186 1.969 1_556 S
Zn180 O187 1.965 . S
Zn180 O191 2.024 . S
Zn180 O196 1.969 . S
Zn181 O188 1.969 . S
Zn181 O194 1.969 . S
Zn181 O195 1.965 . S
Zn181 O197 2.024 . S
C182 O183 1.229 1_556 S
C182 O191 1.058 . S
O183 C182 1.229 1_554 S
C184 O185 1.229 . S
C184 O197 1.058 . S
O185 C184 1.229 . S
O186 Zn180 1.969 1_554 S
O186 C189 1.267 . S
O187 Zn180 1.965 . S
O187 C198 1.260 . S
O188 Zn181 1.969 . S
O188 C198 1.258 . S
C189 O186 1.267 . S
C189 O190 1.228 . S
O190 C189 1.228 . S
O191 Zn180 2.024 . S
O191 C182 1.058 . S
C192 O193 1.228 . S
C192 O194 1.267 . S
O193 C192 1.228 . S
O194 Zn181 1.969 . S
O194 C192 1.267 . S
O195 Zn181 1.965 . S
O195 C199 1.260 . S
O196 Zn180 1.969 . S
O196 C199 1.258 . S
O197 Zn181 2.024 . S
O197 C184 1.058 . S
C198 O187 1.260 . S
C198 O188 1.258 . S
C199 O195 1.260 . S
C199 O196 1.258 . S
Zn200 O206 1.969 1_556 S
Zn200 O207 1.965 . S
Zn200 O211 2.024 . S
Zn200 O216 1.969 . S
Zn201 O208 1.969 . S
Zn201 O214 1.969 . S
Zn201 O215 1.965 . S
Zn201 O217 2.024 . S
C202 O203 1.229 1_556 S
C202 O211 1.058 . S
O203 C202 1.229 1_554 S
C204 O205 1.229 . S
C204 O217 1.058 . S
O205 C204 1.229 . S
O206 Zn200 1.969 1_554 S
O206 C209 1.267 . S
O207 Zn200 1.965 . S
O207 C218 1.260 . S
O208 Zn201 1.969 . S
O208 C218 1.258 . S
C209 O206 1.267 . S
C209 O210 1.228 . S
O210 C209 1.228 . S
O211 Zn200 2.024 . S
O211 C202 1.058 . S
C212 O213 1.228 . S
C212 O214 1.267 . S
O213 C212 1.228 . S
O214 Zn201 1.969 . S
O214 C212 1.267 . S
O215 Zn201 1.965 . S
O215 C219 1.260 . S
O216 Zn200 1.969 . S
O216 C219 1.258 . S
O217 Zn201 2.024 . S
O217 C204 1.058 . S
C218 O207 1.260 . S
C218 O208 1.258 . S
C219 O215 1.260 . S
C219 O216 1.258 . S
Zn220 O226 1.969 1_556 S
Zn220 O227 1.965 . S
Zn220 O231 2.024 . S
Zn220 O236 1.969 . S
Zn221 O228 1.969 . S
Zn221 O234 1.969 . S
Zn221 O235 1.965 . S
Zn221 O237 2.024 . S
C222 O223 1.229 1_556 S
C222 O231 1.058 . S
O223 C222 1.229 1_554 S
C224 O225 1.229 . S
C224 O237 1.058 . S
O225 C224 1.229 . S
O226 Zn220 1.969 1_554 S
O226 C229 1.267 . S
O227 Zn220 1.965 . S
O227 C238 1.260 . S
O228 Zn221 1.969 . S
O228 C238 1.258 . S
C229 O226 1.267 . S
C229 O230 1.228 . S
O230 C229 1.228 . S
O231 Zn220 2.024 . S
O231 C222 1.058 . S
C232 O233 1.228 . S
C232 O234 1.267 . S
O233 C232 1.228 . S
O234 Zn221 1.969 . S
O234 C232 1.267 . S
O235 Zn221 1.965 . S
O235 C239 1.260 . S
O236 Zn220 1.969 . S
O236 C239 1.258 . S
O237 Zn221 2.024 . S
O237 C224 1.058 . S
C238 O227 1.260 . S
C238 O228 1.258 . S
C239 O235 1.260 . S
C239 O236 1.258 . S
Zn240 O246 1.969 . S
Zn240 O247 1.965 . S
Zn240 O251 2.024 . S
Zn240 O256 1.969 . S
Zn241 O248 1.969 . S
Zn241 O254 1.969 1_554 S
Zn241 O255 1.965 . S
Zn241 O257 2.024 . S
C242 O243 1.229 . S
C242 O251 1.058 . S
O243 C242 1.229 . S
C244 O245 1.229 1_554 S
C244 O257 1.058 . S
O245 C244 1.229 1_556 S
O246 Zn240 1.969 . S
O246 C249 1.267 . S
O247 Zn240 1.965 . S
O247 C258 1.260 . S
O248 Zn241 1.969 . S
O248 C258 1.258 . S
C249 O246 1.267 . S
C249 O250 1.228 . S
O250 C249 1.228 . S
O251 Zn240 2.024 . S
O251 C242 1.058 . S
C252 O253 1.228 . S
C252 O254 1.267 . S
O253 C252 1.228 . S
O254 Zn241 1.969 1_556 S
O254 C252 1.267 . S
O255 Zn241 1.965 . S
O255 C259 1.260 . S
O256 Zn240 1.969 . S
O256 C259 1.258 . S
O257 Zn241 2.024 . S
O257 C244 1.058 . S
C258 O247 1.260 . S
C258 O248 1.258 . S
C259 O255 1.260 . S
C259 O256 1.258 . S
Zn260 O266 1.969 . S
Zn260 O267 1.965 . S
Zn260 O271 2.024 . S
Zn260 O276 1.969 . S
Zn261 O268 1.969 . S
Zn261 O274 1.969 1_554 S
Zn261 O275 1.965 . S
Zn261 O277 2.024 . S
C262 O263 1.229 . S
C262 O271 1.058 . S
O263 C262 1.229 . S
C264 O265 1.229 1_554 S
C264 O277 1.058 . S
O265 C264 1.229 1_556 S
O266 Zn260 1.969 . S
O266 C269 1.267 . S
O267 Zn260 1.965 . S
O267 C278 1.260 . S
O268 Zn261 1.969 . S
O268 C278 1.258 . S
C269 O266 1.267 . S
C269 O270 1.228 . S
O270 C269 1.228 . S
O271 Zn260 2.024 . S
O271 C262 1.058 . S
C272 O273 1.228 . S
C272 O274 1.267 . S
O273 C272 1.228 . S
O274 Zn261 1.969 1_556 S
O274 C272 1.267 . S
O275 Zn261 1.965 . S
O275 C279 1.260 . S
O276 Zn260 1.969 . S
O276 C279 1.258 . S
O277 Zn261 2.024 . S
O277 C264 1.058 . S
C278 O267 1.260 . S
C278 O268 1.258 . S
C279 O275 1.260 . S
C279 O276 1.258 . S
Zn280 O286 1.969 . S
Zn280 O287 1.965 . S
Zn280 O291 2.024 . S
Zn280 O296 1.969 . S
Zn281 O288 1.969 . S
Zn281 O294 1.969 1_554 S
Zn281 O295 1.965 . S
Zn281 O297 2.024 . S
C282 O283 1.229 . S
C282 O291 1.058 . S
O283 C282 1.229 . S
C284 O285 1.229 1_554 S
C284 O297 1.058 . S
O285 C284 1.229 1_556 S
O286 Zn280 1.969 . S
O286 C289 1.267 . S
O287 Zn280 1.965 . S
O287 C298 1.260 . S
O288 Zn281 1.969 . S
O288 C298 1.258 . S
C289 O286 1.267 . S
C289 O290 1.228 . S
O290 C289 1.228 . S
O291 Zn280 2.024 . S
O291 C282 1.058 . S
C292 O293 1.228 . S
C292 O294 1.267 . S
O293 C292 1.228 . S
O294 Zn281 1.969 1_556 S
O294 C292 1.267 . S
O295 Zn281 1.965 . S
O295 C299 1.260 . S
O296 Zn280 1.969 . S
O296 C299 1.258 . S
O297 Zn281 2.024 . S
O297 C284 1.058 . S
C298 O287 1.260 . S
C298 O288 1.258 . S
C299 O295 1.260 . S
C299 O296 1.258 . S
Zn300 O306 1.969 . S
Zn300 O307 1.965 . S
Zn300 O311 2.024 . S
Zn300 O316 1.969 . S
Zn301 O308 1.969 1_556 S
Zn301 O314 1.969 . S
Zn301 O315 1.965 1_556 S
Zn301 O317 2.024 . S
C302 O303 1.229 . S
C302 O311 1.058 . S
O303 C302 1.229 . S
C304 O305 1.229 . S
C304 O317 1.058 . S
O305 C304 1.229 . S
O306 Zn300 1.969 . S
O306 C309 1.267 . S
O307 Zn300 1.965 . S
O307 C318 1.260 . S
O308 Zn301 1.969 1_554 S
O308 C318 1.258 . S
C309 O306 1.267 . S
C309 O310 1.228 . S
O310 C309 1.228 . S
O311 Zn300 2.024 . S
O311 C302 1.058 . S
C312 O313 1.228 . S
C312 O314 1.267 . S
O313 C312 1.228 . S
O314 Zn301 1.969 . S
O314 C312 1.267 . S
O315 Zn301 1.965 1_554 S
O315 C319 1.260 . S
O316 Zn300 1.969 . S
O316 C319 1.258 . S
O317 Zn301 2.024 . S
O317 C304 1.058 . S
C318 O307 1.260 . S
C318 O308 1.258 . S
C319 O315 1.260 . S
C319 O316 1.258 . S
Zn320 O326 1.969 . S
Zn320 O327 1.965 . S
Zn320 O331 2.024 . S
Zn320 O336 1.969 . S
Zn321 O328 1.969 1_556 S
Zn321 O334 1.969 . S
Zn321 O335 1.965 1_556 S
Zn321 O337 2.024 . S
C322 O323 1.229 . S
C322 O331 1.058 . S
O323 C322 1.229 . S
C324 O325 1.229 . S
C324 O337 1.058 1_545 S
O325 C324 1.229 . S
O326 Zn320 1.969 . S
O326 C329 1.267 . S
O327 Zn320 1.965 . S
O327 C338 1.260 . S
O328 Zn321 1.969 1_554 S
O328 C338 1.258 . S
C329 O326 1.267 . S
C329 O330 1.228 . S
O330 C329 1.228 . S
O331 Zn320 2.024 . S
O331 C322 1.058 . S
C332 O333 1.228 . S
C332 O334 1.267 . S
O333 C332 1.228 . S
O334 Zn321 1.969 . S
O334 C332 1.267 . S
O335 Zn321 1.965 1_554 S
O335 C339 1.260 . S
O336 Zn320 1.969 . S
O336 C339 1.258 . S
O337 Zn321 2.024 . S
O337 C324 1.058 1_565 S
C338 O327 1.260 . S
C338 O328 1.258 . S
C339 O335 1.260 . S
C339 O336 1.258 . S
Zn340 O346 1.969 . S
Zn340 O347 1.965 . S
Zn340 O351 2.024 . S
Zn340 O356 1.969 . S
Zn341 O348 1.969 1_556 S
Zn341 O354 1.969 . S
Zn341 O355 1.965 1_556 S
Zn341 O357 2.024 . S
C342 O343 1.229 . S
C342 O351 1.058 . S
O343 C342 1.229 . S
C344 O345 1.229 . S
C344 O357 1.058 . S
O345 C344 1.229 . S
O346 Zn340 1.969 . S
O346 C349 1.267 . S
O347 Zn340 1.965 . S
O347 C358 1.260 . S
O348 Zn341 1.969 1_554 S
O348 C358 1.258 . S
C349 O346 1.267 . S
C349 O350 1.228 . S
O350 C349 1.228 . S
O351 Zn340 2.024 . S
O351 C342 1.058 . S
C352 O353 1.228 . S
C352 O354 1.267 . S
O353 C352 1.228 . S
O354 Zn341 1.969 . S
O354 C352 1.267 . S
O355 Zn341 1.965 1_554 S
O355 C359 1.260 . S
O356 Zn340 1.969 . S
O356 C359 1.258 . S
O357 Zn341 2.024 . S
O357 C344 1.058 . S
C358 O347 1.260 . S
C358 O348 1.258 . S
C359 O355 1.260 . S
C359 O356 1.258 . S
C262 C19 1.720 . S
C39 C282 1.720 . S
C59 C242 1.721 . S
C42 C159 1.720 . S
C179 C2 1.720 . S
C22 C139 1.720 . S
C78 C204 1.720 . S
C98 C224 1.720 . S
C184 C118 1.720 . S
C338 C104 1.720 . S
C64 C358 1.720 . S
C318 C84 1.720 . S
C162 C279 1.720 . S
C122 C299 1.720 . S
C142 C259 1.720 1_545 S
C198 C324 1.720 . S
C344 C218 1.720 1_455 S
C304 C238 1.720 . S
C4 C99 2.069 . S
C119 C24 2.070 . S
C79 C44 2.069 . S
C82 C58 2.069 . S
C102 C18 2.069 . S
C62 C38 2.068 . S
C219 C124 2.069 . S
C239 C144 2.069 . S
C199 C164 2.069 . S
C202 C178 2.069 . S
C222 C138 2.069 . S
C182 C158 2.069 . S
C339 C244 2.068 . S
C359 C264 2.070 . S
C284 C319 2.069 . S
C298 C322 2.070 . S
C258 C342 2.069 . S
C302 C278 2.069 . S
C12 C9 1.682 1_454 S
C32 C29 1.682 1_554 S
C52 C49 1.682 1_564 S
C69 C72 1.682 1_656 S
C92 C89 1.682 1_554 S
C112 C109 1.682 1_564 S
C129 C132 1.682 . S
C152 C149 1.682 . S
C169 C172 1.682 . S
C189 C192 1.682 . S
C209 C212 1.682 . S
C229 C232 1.682 . S
C249 C252 1.682 . S
C272 C269 1.682 . S
C292 C289 1.682 . S
C312 C309 1.682 . S
C332 C329 1.682 . S
C349 C352 1.682 . S
