# Generated by pormake.
# Topology vch, (7)-cn, num edge types: 1
# Building blocks:
#     Node 0, Type 0, BuildingBlock: NUHQUE_clean_sbu_2, # of connection points: 7
#     Node 1, Type 0, BuildingBlock: NUHQUE_clean_sbu_2, # of connection points: 7
#     Node 2, Type 0, BuildingBlock: NUHQUE_clean_sbu_2, # of connection points: 7
#     Node 3, Type 0, BuildingBlock: NUHQUE_clean_sbu_2, # of connection points: 7
#     Node 4, Type 0, BuildingBlock: NUHQUE_clean_sbu_2, # of connection points: 7
#     Node 5, Type 0, BuildingBlock: NUHQUE_clean_sbu_2, # of connection points: 7
#     Node 6, Type 0, BuildingBlock: NUHQUE_clean_sbu_2, # of connection points: 7
#     Node 7, Type 0, BuildingBlock: NUHQUE_clean_sbu_2, # of connection points: 7
#     Node 8, Type 0, BuildingBlock: NUHQUE_clean_sbu_2, # of connection points: 7
#     Node 9, Type 0, BuildingBlock: NUHQUE_clean_sbu_2, # of connection points: 7
#     Node 10, Type 0, BuildingBlock: NUHQUE_clean_sbu_2, # of connection points: 7
#     Node 11, Type 0, BuildingBlock: NUHQUE_clean_sbu_2, # of connection points: 7
#     Node 12, Type 0, BuildingBlock: NUHQUE_clean_sbu_2, # of connection points: 7
#     Node 13, Type 0, BuildingBlock: NUHQUE_clean_sbu_2, # of connection points: 7
#     Node 14, Type 0, BuildingBlock: NUHQUE_clean_sbu_2, # of connection points: 7
#     Node 15, Type 0, BuildingBlock: NUHQUE_clean_sbu_2, # of connection points: 7
#     Edge 16, Type (0, 0), BuildingBlock: AJUNOK_clean_linker_0, # of connection points: 2
#     Edge 17, Type (0, 0), BuildingBlock: AJUNOK_clean_linker_0, # of connection points: 2
#     Edge 18, Type (0, 0), BuildingBlock: AJUNOK_clean_linker_0, # of connection points: 2
#     Edge 19, Type (0, 0), BuildingBlock: AJUNOK_clean_linker_0, # of connection points: 2
#     Edge 20, Type (0, 0), BuildingBlock: AJUNOK_clean_linker_0, # of connection points: 2
#     Edge 21, Type (0, 0), BuildingBlock: AJUNOK_clean_linker_0, # of connection points: 2
#     Edge 22, Type (0, 0), BuildingBlock: AJUNOK_clean_linker_0, # of connection points: 2
#     Edge 23, Type (0, 0), BuildingBlock: AJUNOK_clean_linker_0, # of connection points: 2
#     Edge 24, Type (0, 0), BuildingBlock: AJUNOK_clean_linker_0, # of connection points: 2
#     Edge 25, Type (0, 0), BuildingBlock: AJUNOK_clean_linker_0, # of connection points: 2
#     Edge 26, Type (0, 0), BuildingBlock: AJUNOK_clean_linker_0, # of connection points: 2
#     Edge 27, Type (0, 0), BuildingBlock: AJUNOK_clean_linker_0, # of connection points: 2
#     Edge 28, Type (0, 0), BuildingBlock: AJUNOK_clean_linker_0, # of connection points: 2
#     Edge 29, Type (0, 0), BuildingBlock: AJUNOK_clean_linker_0, # of connection points: 2
#     Edge 30, Type (0, 0), BuildingBlock: AJUNOK_clean_linker_0, # of connection points: 2
#     Edge 31, Type (0, 0), BuildingBlock: AJUNOK_clean_linker_0, # of connection points: 2
#     Edge 32, Type (0, 0), BuildingBlock: AJUNOK_clean_linker_0, # of connection points: 2
#     Edge 33, Type (0, 0), BuildingBlock: AJUNOK_clean_linker_0, # of connection points: 2
#     Edge 34, Type (0, 0), BuildingBlock: AJUNOK_clean_linker_0, # of connection points: 2
#     Edge 35, Type (0, 0), BuildingBlock: AJUNOK_clean_linker_0, # of connection points: 2
#     Edge 36, Type (0, 0), BuildingBlock: AJUNOK_clean_linker_0, # of connection points: 2
#     Edge 37, Type (0, 0), BuildingBlock: AJUNOK_clean_linker_0, # of connection points: 2
#     Edge 38, Type (0, 0), BuildingBlock: AJUNOK_clean_linker_0, # of connection points: 2
#     Edge 39, Type (0, 0), BuildingBlock: AJUNOK_clean_linker_0, # of connection points: 2
#     Edge 40, Type (0, 0), BuildingBlock: AJUNOK_clean_linker_0, # of connection points: 2
#     Edge 41, Type (0, 0), BuildingBlock: AJUNOK_clean_linker_0, # of connection points: 2
#     Edge 42, Type (0, 0), BuildingBlock: AJUNOK_clean_linker_0, # of connection points: 2
#     Edge 43, Type (0, 0), BuildingBlock: AJUNOK_clean_linker_0, # of connection points: 2
#     Edge 44, Type (0, 0), BuildingBlock: AJUNOK_clean_linker_0, # of connection points: 2
#     Edge 45, Type (0, 0), BuildingBlock: AJUNOK_clean_linker_0, # of connection points: 2
#     Edge 46, Type (0, 0), BuildingBlock: AJUNOK_clean_linker_0, # of connection points: 2
#     Edge 47, Type (0, 0), BuildingBlock: AJUNOK_clean_linker_0, # of connection points: 2
#     Edge 48, Type (0, 0), BuildingBlock: AJUNOK_clean_linker_0, # of connection points: 2
#     Edge 49, Type (0, 0), BuildingBlock: AJUNOK_clean_linker_0, # of connection points: 2
#     Edge 50, Type (0, 0), BuildingBlock: AJUNOK_clean_linker_0, # of connection points: 2
#     Edge 51, Type (0, 0), BuildingBlock: AJUNOK_clean_linker_0, # of connection points: 2
#     Edge 52, Type (0, 0), BuildingBlock: AJUNOK_clean_linker_0, # of connection points: 2
#     Edge 53, Type (0, 0), BuildingBlock: AJUNOK_clean_linker_0, # of connection points: 2
#     Edge 54, Type (0, 0), BuildingBlock: AJUNOK_clean_linker_0, # of connection points: 2
#     Edge 55, Type (0, 0), BuildingBlock: AJUNOK_clean_linker_0, # of connection points: 2
#     Edge 56, Type (0, 0), BuildingBlock: AJUNOK_clean_linker_0, # of connection points: 2
#     Edge 57, Type (0, 0), BuildingBlock: AJUNOK_clean_linker_0, # of connection points: 2
#     Edge 58, Type (0, 0), BuildingBlock: AJUNOK_clean_linker_0, # of connection points: 2
#     Edge 59, Type (0, 0), BuildingBlock: AJUNOK_clean_linker_0, # of connection points: 2
#     Edge 60, Type (0, 0), BuildingBlock: AJUNOK_clean_linker_0, # of connection points: 2
#     Edge 61, Type (0, 0), BuildingBlock: AJUNOK_clean_linker_0, # of connection points: 2
#     Edge 62, Type (0, 0), BuildingBlock: AJUNOK_clean_linker_0, # of connection points: 2
#     Edge 63, Type (0, 0), BuildingBlock: AJUNOK_clean_linker_0, # of connection points: 2
#     Edge 64, Type (0, 0), BuildingBlock: AJUNOK_clean_linker_0, # of connection points: 2
#     Edge 65, Type (0, 0), BuildingBlock: AJUNOK_clean_linker_0, # of connection points: 2
#     Edge 66, Type (0, 0), BuildingBlock: AJUNOK_clean_linker_0, # of connection points: 2
#     Edge 67, Type (0, 0), BuildingBlock: AJUNOK_clean_linker_0, # of connection points: 2
#     Edge 68, Type (0, 0), BuildingBlock: AJUNOK_clean_linker_0, # of connection points: 2
#     Edge 69, Type (0, 0), BuildingBlock: AJUNOK_clean_linker_0, # of connection points: 2
#     Edge 70, Type (0, 0), BuildingBlock: AJUNOK_clean_linker_0, # of connection points: 2
#     Edge 71, Type (0, 0), BuildingBlock: AJUNOK_clean_linker_0, # of connection points: 2
# Relax obj value: 0.134
# Max RMSD: 0.211
# Mean RMSD: 0.211
data_MOF--net-vch--node1-NUHQUE_clean_sbu_2--edge1-AJUNOK_clean_linker_0
_symmetry_space_group_name_H-M    P1
_symmetry_Int_Tables_number       1
_symmetry_cell_setting            triclinic
loop_
_symmetry_equiv_pos_as_xyz
'x, y, z'
_cell_length_a     17.064495
_cell_length_b     37.139721
_cell_length_c     53.105802
_cell_angle_alpha  90.137675
_cell_angle_beta   89.794747
_cell_angle_gamma 89.399698
loop_
_atom_site_label
_atom_site_type_symbol
_atom_site_fract_x
_atom_site_fract_y
_atom_site_fract_z
_atom_type_partial_charge
O0 O 0.21175 0.12928 0.06956 0.0
Tb1 Tb 0.19686 0.13375 0.10998 0.0
Eu2 Eu 0.01373 0.11158 0.15043 0.0
C3 C 0.16209 0.11225 0.05509 0.0
O4 O 0.09649 0.10022 0.06479 0.0
C5 C 0.15065 0.06143 0.13142 0.0
O6 O 1.00521 0.10953 0.19262 0.0
C7 C 0.88769 0.08802 0.12846 0.0
C8 C 0.05026 0.13034 0.20628 0.0
O9 O 0.0966 0.15314 0.19482 0.0
C10 C 0.06922 0.19323 0.13114 0.0
C11 C 0.81677 0.09984 0.11406 0.0
C12 C 0.82083 0.1034 0.0876 0.0
C13 C 0.75391 0.11252 0.0735 0.0
C14 C 0.68229 0.11757 0.086 0.0
C15 C 0.6761 0.11426 0.11218 0.0
C16 C 0.74332 0.10503 0.12624 0.0
O17 O 0.14283 0.0812 0.11125 0.0
O18 O 0.11231 0.07091 0.1518 0.0
O19 O 0.29009 0.11708 0.13644 0.0
O20 O 0.31708 0.15229 0.10634 0.0
C21 C 0.34614 0.13479 0.12533 0.0
O22 O 0.02541 0.17138 0.14467 0.0
O23 O 0.13031 0.18352 0.11712 0.0
O24 O 0.89084 0.09592 0.1526 0.0
O25 O 0.95645 0.09009 0.11714 0.0
H26 H 0.87596 0.0989 0.07784 0.0
H27 H 0.62991 0.12338 0.07516 0.0
H28 H 0.73831 0.10191 0.14646 0.0
O29 O 0.31364 0.88379 0.06545 0.0
Tb30 Tb 0.32765 0.88388 0.10636 0.0
Eu31 Eu 0.51858 0.90318 0.16007 0.0
C32 C 0.25252 0.89898 0.05436 0.0
O33 O 0.20074 0.91671 0.06805 0.0
C34 C 0.3866 0.94747 0.13736 0.0
O35 O 0.5105 0.9028 0.20274 0.0
C36 C 0.65108 0.92684 0.14298 0.0
C37 C 0.53472 0.87514 0.21619 0.0
O38 O 0.56418 0.84694 0.20439 0.0
C39 C 0.45979 0.82614 0.12851 0.0
C40 C 0.71581 0.91516 0.12597 0.0
C41 C 0.70507 0.91298 0.09963 0.0
C42 C 0.76814 0.90388 0.08365 0.0
C43 C 0.84108 0.89549 0.09421 0.0
C44 C 0.85313 0.89803 0.12019 0.0
C45 C 0.79074 0.90819 0.13603 0.0
O46 O 0.40695 0.92433 0.11974 0.0
O47 O 0.42622 0.94599 0.15822 0.0
O48 O 0.22602 0.91363 0.12094 0.0
O49 O 0.22533 0.85684 0.12249 0.0
C50 C 0.18511 0.88595 0.12751 0.0
O51 O 0.50074 0.84712 0.14382 0.0
O52 O 0.39677 0.83515 0.11502 0.0
O53 O 0.64456 0.90998 0.16465 0.0
O54 O 0.58304 0.93435 0.13254 0.0
H55 H 0.64854 0.91928 0.09143 0.0
H56 H 0.88976 0.8879 0.08205 0.0
H57 H 0.8008 0.91096 0.15609 0.0
O58 O 0.70433 0.86843 0.44629 0.0
Tb59 Tb 0.69615 0.87819 0.40628 0.0
Eu60 Eu 0.48873 0.91034 0.38109 0.0
C61 C 0.7553 0.88845 0.45832 0.0
O62 O 0.79212 0.9136 0.44574 0.0
C63 C 0.63803 0.95348 0.39451 0.0
O64 O 0.47254 0.9019 0.33905 0.0
C65 C 0.37008 0.93812 0.40555 0.0
C66 C 0.5295 0.88597 0.32624 0.0
O67 O 0.59255 0.8756 0.33844 0.0
C68 C 0.55762 0.82985 0.38848 0.0
C69 C 0.30147 0.92683 0.42111 0.0
C70 C 0.30482 0.92638 0.44781 0.0
C71 C 0.23801 0.91774 0.46246 0.0
C72 C 0.16845 0.90921 0.44982 0.0
C73 C 0.16445 0.90881 0.42345 0.0
C74 C 0.23054 0.91801 0.40924 0.0
O75 O 0.63935 0.92984 0.4127 0.0
O76 O 0.58676 0.94971 0.3765 0.0
O77 O 0.81183 0.85357 0.40721 0.0
O78 O 0.79723 0.90279 0.38748 0.0
C79 C 0.84799 0.87827 0.39456 0.0
O80 O 0.5037 0.85353 0.39539 0.0
O81 O 0.63134 0.83856 0.38472 0.0
O82 O 0.36868 0.9306 0.38129 0.0
O83 O 0.44036 0.93443 0.41541 0.0
H84 H 0.35953 0.93246 0.45705 0.0
H85 H 0.11597 0.90335 0.46055 0.0
H86 H 0.22657 0.91798 0.38888 0.0
O87 O 0.81675 0.11124 0.45486 0.0
Tb88 Tb 0.82668 0.11709 0.41443 0.0
Eu89 Eu 0.03636 0.08982 0.36993 0.0
C90 C 0.74765 0.11441 0.46578 0.0
O91 O 0.68556 0.12025 0.4518 0.0
C92 C 0.89615 0.05247 0.38517 0.0
O93 O 0.04772 0.09166 0.3278 0.0
C94 C 0.16044 0.06764 0.39351 0.0
C95 C 0.06011 0.12198 0.31581 0.0
O96 O 0.07181 0.15151 0.32887 0.0
C97 C 0.96191 0.17141 0.39339 0.0
C98 C 0.22473 0.08195 0.40922 0.0
C99 C 0.21641 0.08572 0.4356 0.0
C100 C 0.27908 0.09816 0.45036 0.0
C101 C 0.35012 0.10637 0.43847 0.0
C102 C 0.359 0.10282 0.41238 0.0
C103 C 0.29689 0.09021 0.39787 0.0
O104 O 0.91069 0.08099 0.39869 0.0
O105 O 0.94771 0.04627 0.36784 0.0
O106 O 0.72373 0.14731 0.40166 0.0
O107 O 0.72638 0.09066 0.39742 0.0
C108 C 0.68423 0.11956 0.39407 0.0
O109 O 0.00843 0.14794 0.38137 0.0
O110 O 0.8956 0.16457 0.40572 0.0
O111 O 0.1605 0.07659 0.36952 0.0
O112 O 0.08977 0.06709 0.40354 0.0
H113 H 0.16154 0.07897 0.44466 0.0
H114 H 0.40012 0.1144 0.44963 0.0
H115 H 0.30523 0.08667 0.37776 0.0
O116 O 0.81229 0.89608 0.96029 0.0
Tb117 Tb 0.81029 0.88243 0.92048 0.0
Eu118 Eu 0.99792 0.89143 0.8597 0.0
C119 C 0.75172 0.88852 0.97469 0.0
O120 O 0.69086 0.87282 0.96452 0.0
C121 C 0.87571 0.93997 0.88237 0.0
O122 O 0.01079 0.89497 0.81723 0.0
C123 C 0.1315 0.89843 0.88246 0.0
C124 C 0.9948 0.86754 0.8024 0.0
O125 O 0.97134 0.83739 0.81272 0.0
C126 C 0.92903 0.82821 0.89509 0.0
C127 C 0.19126 0.88958 0.90174 0.0
C128 C 0.17537 0.88972 0.92796 0.0
C129 C 0.23692 0.88406 0.94537 0.0
C130 C 0.31328 0.87846 0.93619 0.0
C131 C 0.32968 0.8789 0.91043 0.0
C132 C 0.26881 0.88442 0.89328 0.0
O133 O 0.88944 0.91241 0.89716 0.0
O134 O 0.92212 0.94146 0.86278 0.0
O135 O 0.70747 0.85056 0.91114 0.0
O136 O 0.70453 0.9071 0.90495 0.0
C137 C 0.66454 0.87755 0.90338 0.0
O138 O 0.91741 0.84734 0.87444 0.0
O139 O 0.88452 0.83452 0.9152 0.0
O140 O 0.1209 0.87589 0.86363 0.0
O141 O 0.06824 0.91682 0.88889 0.0
H142 H 0.11617 0.89443 0.93471 0.0
H143 H 0.36153 0.87535 0.94929 0.0
H144 H 0.28223 0.88553 0.87332 0.0
O145 O 0.69052 0.13398 0.95129 0.0
Tb146 Tb 0.68537 0.12853 0.91054 0.0
Eu147 Eu 0.49276 0.10172 0.88007 0.0
C148 C 0.73952 0.11305 0.96379 0.0
O149 O 0.78246 0.08966 0.95109 0.0
C150 C 0.63874 0.0535 0.8939 0.0
O151 O 0.47682 0.11604 0.83936 0.0
C152 C 0.36833 0.06984 0.89688 0.0
C153 C 0.53672 0.12452 0.82503 0.0
O154 O 0.60681 0.12588 0.83509 0.0
C155 C 0.5472 0.18228 0.89488 0.0
C156 C 0.29337 0.07976 0.90963 0.0
C157 C 0.28926 0.08055 0.93617 0.0
C158 C 0.21902 0.08987 0.94848 0.0
C159 C 0.15283 0.09831 0.93424 0.0
C160 C 0.15506 0.09751 0.90796 0.0
C161 C 0.22507 0.08783 0.89555 0.0
O162 O 0.63956 0.07431 0.91385 0.0
O163 O 0.59454 0.06293 0.87483 0.0
O164 O 0.80589 0.14734 0.9117 0.0
O165 O 0.77693 0.10642 0.88551 0.0
C166 C 0.83339 0.12623 0.89416 0.0
O167 O 0.49262 0.15766 0.89702 0.0
O168 O 0.62258 0.17406 0.89351 0.0
O169 O 0.37672 0.07997 0.87334 0.0
O170 O 0.43317 0.07297 0.91008 0.0
H171 H 0.34035 0.07375 0.94732 0.0
H172 H 0.0987 0.10597 0.94374 0.0
H173 H 0.22634 0.087 0.87515 0.0
O174 O 0.32267 0.1244 0.57278 0.0
Tb175 Tb 0.30454 0.13645 0.61251 0.0
Eu176 Eu 0.51179 0.11694 0.65997 0.0
C177 C 0.27359 0.104 0.56021 0.0
O178 O 0.21905 0.08657 0.57254 0.0
C179 C 0.3674 0.07859 0.65179 0.0
O180 O 0.5396 0.12604 0.70077 0.0
C181 C 0.63168 0.0945 0.63411 0.0
C182 C 0.48227 0.13123 0.71698 0.0
O183 O 0.40987 0.13197 0.70864 0.0
C184 C 0.43219 0.19481 0.63259 0.0
C185 C 0.6929 0.10916 0.61734 0.0
C186 C 0.68353 0.10809 0.59099 0.0
C187 C 0.74328 0.12025 0.57498 0.0
C188 C 0.81182 0.1341 0.5855 0.0
C189 C 0.82316 0.13415 0.61155 0.0
C190 C 0.76384 0.1216 0.62744 0.0
O191 O 0.3706 0.11015 0.64101 0.0
O192 O 0.42755 0.07214 0.66584 0.0
O193 O 0.1924 0.11304 0.62203 0.0
O194 O 0.19974 0.16991 0.6184 0.0
C195 C 0.15339 0.1432 0.62336 0.0
O196 O 0.47784 0.17331 0.64645 0.0
O197 O 0.37003 0.18574 0.61891 0.0
O198 O 0.6355 0.10317 0.65811 0.0
O199 O 0.55957 0.09415 0.62539 0.0
H200 H 0.63123 0.09651 0.58294 0.0
H201 H 0.85876 0.14298 0.57324 0.0
H202 H 0.77412 0.1207 0.64756 0.0
O203 O 0.18477 0.89281 0.58615 0.0
Tb204 Tb 0.21325 0.87546 0.62469 0.0
Eu205 Eu 0.01868 0.90682 0.63704 0.0
C206 C 0.23677 0.91139 0.57312 0.0
O207 O 0.3 0.92228 0.58465 0.0
C208 C 0.17349 0.95315 0.63954 0.0
O209 O 0.03125 0.90392 0.67952 0.0
C210 C 0.87857 0.92442 0.62301 0.0
C211 C 1.00431 0.87608 0.69209 0.0
O212 O 0.97243 0.84964 0.67935 0.0
C213 C 0.07391 0.82553 0.63058 0.0
C214 C 0.82121 0.9061 0.60668 0.0
C215 C 0.83997 0.89761 0.58144 0.0
C216 C 0.78592 0.87986 0.56609 0.0
C217 C 0.71437 0.86946 0.57641 0.0
C218 C 0.69251 0.87933 0.60094 0.0
C219 C 0.74667 0.89742 0.6162 0.0
O220 O 0.20594 0.92338 0.64765 0.0
O221 O 0.10208 0.95301 0.63041 0.0
O222 O 0.31478 0.85108 0.60619 0.0
O223 O 0.32869 0.87321 0.64254 0.0
C224 C 0.3648 0.85748 0.62395 0.0
O225 O 0.03375 0.85151 0.61973 0.0
O226 O 0.14433 0.83171 0.63914 0.0
O227 O 0.89298 0.90908 0.64479 0.0
O228 O 0.94199 0.93643 0.61185 0.0
H229 H 0.89568 0.9055 0.57343 0.0
H230 H 0.6722 0.8561 0.56449 0.0
H231 H 0.73028 0.90586 0.63505 0.0
O232 O 0.72418 0.62551 0.06012 0.0
Tb233 Tb 0.70366 0.6193 0.10064 0.0
Eu234 Eu 0.5063 0.59718 0.14896 0.0
C235 C 0.69434 0.60387 0.04307 0.0
O236 O 0.6472 0.5782 0.05044 0.0
C237 C 0.64916 0.55371 0.13053 0.0
O238 O 0.48955 0.60009 0.19144 0.0
C239 C 0.38333 0.57317 0.12562 0.0
C240 C 0.53171 0.62216 0.20522 0.0
O241 O 0.58204 0.64306 0.1937 0.0
C242 C 0.57041 0.67681 0.12409 0.0
C243 C 0.31431 0.58594 0.11086 0.0
C244 C 0.31697 0.58622 0.08423 0.0
C245 C 0.25039 0.59611 0.07013 0.0
C246 C 0.18173 0.60642 0.08289 0.0
C247 C 0.17685 0.60516 0.10915 0.0
C248 C 0.24296 0.59475 0.12314 0.0
O249 O 0.63145 0.57409 0.11109 0.0
O250 O 0.60416 0.55669 0.15036 0.0
O251 O 0.81043 0.58933 0.1101 0.0
O252 O 0.80185 0.64391 0.12097 0.0
C253 C 0.84684 0.6154 0.12114 0.0
O254 O 0.52535 0.6552 0.13765 0.0
O255 O 0.63397 0.66773 0.11067 0.0
O256 O 0.38435 0.58057 0.14985 0.0
O257 O 0.4529 0.57545 0.11498 0.0
H258 H 0.36977 0.57752 0.07449 0.0
H259 H 0.13006 0.61402 0.07221 0.0
H260 H 0.23806 0.59283 0.14344 0.0
O261 O 0.79775 0.38926 0.06101 0.0
Tb262 Tb 0.80528 0.38578 0.10157 0.0
Eu263 Eu 0.0206 0.39191 0.15421 0.0
C264 C 0.73622 0.40327 0.04977 0.0
O265 O 0.67764 0.41599 0.06333 0.0
C266 C 0.89456 0.44296 0.13359 0.0
O267 O 0.06131 0.38118 0.19375 0.0
C268 C 0.12333 0.39159 0.11821 0.0
C269 C 0.00989 0.36763 0.2095 0.0
O270 O 0.94038 0.35933 0.20078 0.0
C271 C 0.9169 0.33273 0.12671 0.0
C272 C 0.20307 0.38739 0.10814 0.0
C273 C 0.21149 0.38261 0.08198 0.0
C274 C 0.28607 0.37983 0.07093 0.0
C275 C 0.35197 0.38062 0.08646 0.0
C276 C 0.3445 0.38576 0.11251 0.0
C277 C 0.26988 0.38927 0.1235 0.0
O278 O 0.90064 0.41635 0.1174 0.0
O279 O 0.94496 0.44234 0.15224 0.0
O280 O 0.70709 0.417 0.117 0.0
O281 O 0.7059 0.35998 0.11973 0.0
C282 C 0.66722 0.38951 0.12489 0.0
O283 O 0.91561 0.3584 0.14385 0.0
O284 O 0.86732 0.33514 0.10787 0.0
O285 O 0.10612 0.42055 0.13156 0.0
O286 O 0.08644 0.36251 0.12549 0.0
H287 H 0.15985 0.3821 0.07014 0.0
H288 H 0.40998 0.37772 0.07822 0.0
H289 H 0.26393 0.39357 0.14361 0.0
O290 O 0.17647 0.37792 0.44842 0.0
Tb291 Tb 0.1836 0.37704 0.40748 0.0
Eu292 Eu 0.98863 0.39733 0.37208 0.0
C293 C 0.23407 0.39211 0.4615 0.0
O294 O 0.29604 0.40429 0.44968 0.0
C295 C 0.12956 0.44697 0.38404 0.0
O296 O 0.98461 0.37976 0.33152 0.0
C297 C 0.86185 0.43094 0.38586 0.0
C298 C 0.04917 0.37556 0.31816 0.0
O299 O 0.11724 0.37952 0.32924 0.0
C300 C 0.05345 0.32247 0.3928 0.0
C301 C 0.79493 0.4237 0.40282 0.0
C302 C 0.80533 0.42122 0.42912 0.0
C303 C 0.74198 0.41288 0.44493 0.0
C304 C 0.66792 0.40795 0.4343 0.0
C305 C 0.65722 0.40911 0.40824 0.0
C306 C 0.72024 0.41771 0.39251 0.0
O307 O 0.12732 0.42938 0.40533 0.0
O308 O 0.08641 0.43591 0.36534 0.0
O309 O 0.28028 0.3993 0.38535 0.0
O310 O 0.30273 0.35598 0.4104 0.0
C311 C 0.33412 0.37785 0.39427 0.0
O312 O 0.99761 0.34681 0.39542 0.0
O313 O 0.12678 0.33175 0.38925 0.0
O314 O 0.86636 0.41114 0.36533 0.0
O315 O 0.93038 0.43629 0.39648 0.0
H316 H 0.86279 0.42486 0.4373 0.0
H317 H 0.61795 0.40248 0.44633 0.0
H318 H 0.71165 0.41862 0.3723 0.0
O319 O 0.31905 0.61958 0.42511 0.0
Tb320 Tb 0.30715 0.63294 0.38503 0.0
Eu321 Eu 0.51171 0.60108 0.37235 0.0
C322 C 0.26876 0.59815 0.43657 0.0
O323 O 0.21544 0.58187 0.42302 0.0
C324 C 0.36014 0.55889 0.37023 0.0
O325 O 0.49408 0.6017 0.32992 0.0
C326 C 0.65192 0.58304 0.38547 0.0
C327 C 0.5262 0.62678 0.31584 0.0
O328 O 0.56607 0.65228 0.32705 0.0
C329 C 0.45159 0.68199 0.37997 0.0
C330 C 0.71386 0.60171 0.39961 0.0
C331 C 0.71073 0.60483 0.42604 0.0
C332 C 0.77142 0.62166 0.43931 0.0
C333 C 0.835 0.63542 0.42584 0.0
C334 C 0.83804 0.63319 0.39952 0.0
C335 C 0.77753 0.61624 0.38651 0.0
O336 O 0.34033 0.58954 0.36002 0.0
O337 O 0.42814 0.55684 0.38124 0.0
O338 O 0.19495 0.61677 0.36996 0.0
O339 O 0.20463 0.66873 0.38618 0.0
C340 C 0.15755 0.64644 0.37514 0.0
O341 O 0.49359 0.65586 0.38991 0.0
O342 O 0.38016 0.67641 0.37174 0.0
O343 O 0.63543 0.59606 0.36308 0.0
O344 O 0.58953 0.57353 0.39831 0.0
H345 H 0.66172 0.59382 0.43639 0.0
H346 H 0.88499 0.64577 0.43598 0.0
H347 H 0.7812 0.61355 0.3662 0.0
O348 O 0.36664 0.39112 0.94911 0.0
Tb349 Tb 0.35156 0.4006 0.90909 0.0
Eu350 Eu 0.53129 0.41094 0.86567 0.0
C351 C 0.31754 0.37074 0.96165 0.0
O352 O 0.26486 0.35251 0.94908 0.0
C353 C 0.40104 0.46602 0.88055 0.0
O354 O 0.53082 0.40414 0.82365 0.0
C355 C 0.66036 0.44017 0.88072 0.0
C356 C 0.47334 0.38782 0.81202 0.0
O357 O 0.41907 0.37166 0.82532 0.0
C358 C 0.46368 0.33561 0.89075 0.0
C359 C 0.72389 0.43175 0.89877 0.0
C360 C 0.70621 0.42448 0.92418 0.0
C361 C 0.76628 0.41841 0.94164 0.0
C362 C 0.84432 0.41893 0.93348 0.0
C363 C 0.86346 0.42576 0.90827 0.0
C364 C 0.80294 0.43206 0.89085 0.0
O365 O 0.41312 0.45022 0.90216 0.0
O366 O 0.43366 0.45143 0.86066 0.0
O367 O 0.24688 0.39885 0.88486 0.0
O368 O 0.23737 0.42025 0.92179 0.0
C369 C 0.19927 0.41349 0.90127 0.0
O370 O 0.52285 0.3565 0.88455 0.0
O371 O 0.39174 0.34749 0.89572 0.0
O372 O 0.6566 0.41973 0.8605 0.0
O373 O 0.59105 0.44816 0.89038 0.0
H374 H 0.64578 0.42361 0.93046 0.0
H375 H 0.89096 0.41456 0.947 0.0
H376 H 0.81732 0.43795 0.8714 0.0
O377 O 0.25481 0.62431 0.94752 0.0
Tb378 Tb 0.23017 0.63713 0.90837 0.0
Eu379 Eu 0.02603 0.62313 0.85549 0.0
C380 C 0.21055 0.6034 0.96133 0.0
O381 O 0.14778 0.58921 0.95124 0.0
C382 C 0.15639 0.57656 0.87416 0.0
O383 O 0.01764 0.61934 0.81269 0.0
C384 C 0.89328 0.6143 0.8791 0.0
C385 C 0.02937 0.64736 0.79798 0.0
O386 O 0.04429 0.6786 0.80847 0.0
C387 C 0.09377 0.68896 0.88934 0.0
C388 C 0.82836 0.62807 0.89555 0.0
C389 C 0.82762 0.6223 0.92202 0.0
C390 C 0.75993 0.63083 0.93645 0.0
C391 C 0.69551 0.64677 0.92439 0.0
C392 C 0.69338 0.65046 0.89824 0.0
C393 C 0.75965 0.6413 0.88393 0.0
O394 O 0.1468 0.60484 0.88868 0.0
O395 O 0.10218 0.57326 0.8571 0.0
O396 O 0.31968 0.67476 0.89614 0.0
O397 O 0.33311 0.61931 0.887 0.0
C398 C 0.36557 0.65088 0.88551 0.0
O399 O 0.09847 0.67198 0.86738 0.0
O400 O 0.14503 0.68166 0.90748 0.0
O401 O 0.89917 0.62743 0.85616 0.0
O402 O 0.96139 0.6054 0.88898 0.0
H403 H 0.87726 0.60942 0.93108 0.0
H404 H 0.64329 0.65334 0.93527 0.0
H405 H 0.75603 0.64289 0.86358 0.0
O406 O 0.83272 0.63748 0.56221 0.0
Tb407 Tb 0.8214 0.63147 0.60256 0.0
Eu408 Eu 0.02689 0.59984 0.63301 0.0
C409 C 0.78795 0.61655 0.54853 0.0
O410 O 0.74252 0.59353 0.56012 0.0
C411 C 0.87444 0.55792 0.62103 0.0
O412 O 0.05119 0.60795 0.67491 0.0
C413 C 0.1414 0.5716 0.60659 0.0
C414 C 0.00942 0.63141 0.6882 0.0
O415 O 0.95485 0.65031 0.67674 0.0
C416 C 0.95589 0.6797 0.62451 0.0
C417 C 0.20715 0.58296 0.58966 0.0
C418 C 0.19952 0.58266 0.56301 0.0
C419 C 0.26319 0.59221 0.54726 0.0
C420 C 0.33449 0.60132 0.55856 0.0
C421 C 0.34347 0.602 0.58479 0.0
C422 C 0.27974 0.59275 0.6002 0.0
O423 O 0.87802 0.579 0.60136 0.0
O424 O 0.92622 0.56206 0.63889 0.0
O425 O 0.70506 0.65376 0.59563 0.0
O426 O 0.71581 0.60902 0.62019 0.0
C427 C 0.6664 0.63122 0.60947 0.0
O428 O 0.00908 0.6558 0.61748 0.0
O429 O 0.88001 0.67316 0.62426 0.0
O430 O 0.14687 0.57952 0.63071 0.0
O431 O 0.06935 0.57485 0.5981 0.0
H432 H 0.14413 0.57544 0.55459 0.0
H433 H 0.38446 0.60747 0.5467 0.0
H434 H 0.28678 0.59341 0.62045 0.0
O435 O 0.68691 0.39524 0.5654 0.0
Tb436 Tb 0.68052 0.39277 0.60606 0.0
Eu437 Eu 0.46858 0.42664 0.64837 0.0
C438 C 0.7507 0.40621 0.55391 0.0
O439 O 0.80996 0.41801 0.56719 0.0
C440 C 0.61282 0.46078 0.63269 0.0
O441 O 0.45911 0.42546 0.69058 0.0
C442 C 0.34288 0.44637 0.62473 0.0
C443 C 0.44334 0.39576 0.70291 0.0
O444 O 0.42607 0.3665 0.69022 0.0
C445 C 0.5396 0.34271 0.62806 0.0
C446 C 0.27901 0.42881 0.6105 0.0
C447 C 0.28364 0.42475 0.58409 0.0
C448 C 0.22219 0.40872 0.57058 0.0
C449 C 0.15697 0.39614 0.58389 0.0
C450 C 0.14952 0.40173 0.60989 0.0
C451 C 0.21092 0.41768 0.62315 0.0
O452 O 0.59854 0.43071 0.62084 0.0
O453 O 0.5589 0.46976 0.64868 0.0
O454 O 0.78378 0.36209 0.61786 0.0
O455 O 0.78125 0.41869 0.62322 0.0
C456 C 0.82313 0.38953 0.62604 0.0
O457 O 0.49328 0.36786 0.63831 0.0
O458 O 0.60894 0.34713 0.61698 0.0
O459 O 0.34486 0.4408 0.64922 0.0
O460 O 0.41286 0.44617 0.61419 0.0
H461 H 0.33416 0.43476 0.57398 0.0
H462 H 0.10981 0.3832 0.57382 0.0
H463 H 0.20473 0.42197 0.64325 0.0
C464 C 0.56164 0.15483 0.11991 0.0
C465 C 0.59751 0.12099 0.12365 0.0
C466 C 0.48045 0.15968 0.12267 0.0
C467 C 0.43176 0.13101 0.12957 0.0
H468 H 0.59588 0.17708 0.11286 0.0
H469 H 0.455 0.1856 0.11784 0.0
S470 S 0.4971 0.03768 0.14358 0.0
N471 N 0.57876 0.05883 0.13617 0.0
N472 N 0.42595 0.06813 0.14192 0.0
C473 C 0.4674 0.09771 0.13536 0.0
C474 C 0.55041 0.09265 0.13226 0.0
C475 C 0.05409 0.85691 0.12818 0.0
C476 C 0.10001 0.88746 0.13272 0.0
C477 C 0.97226 0.85982 0.1264 0.0
C478 C 0.93382 0.89318 0.12964 0.0
H479 H 0.08169 0.83118 0.124 0.0
H480 H 0.93929 0.83635 0.12081 0.0
S481 S 0.02615 0.98007 0.1454 0.0
N482 N 0.10032 0.95129 0.14308 0.0
N483 N 0.94641 0.95647 0.14005 0.0
C484 C 0.97833 0.92318 0.1364 0.0
C485 C 0.06163 0.92038 0.13789 0.0
C486 C 0.97723 0.8586 0.41098 0.0
C487 C 0.93378 0.8829 0.3961 0.0
C488 C 0.05359 0.86636 0.41854 0.0
C489 C 0.08996 0.89844 0.41123 0.0
H490 H 0.9505 0.83439 0.41824 0.0
H491 H 0.08324 0.84781 0.43113 0.0
S492 S 0.00734 0.96754 0.36843 0.0
N493 N 0.93629 0.93801 0.37159 0.0
N494 N 0.08109 0.95241 0.3856 0.0
C495 C 0.05006 0.9214 0.39449 0.0
C496 C 0.97159 0.91366 0.38697 0.0
C497 C 0.56161 0.08579 0.38666 0.0
C498 C 0.59837 0.1189 0.39131 0.0
C499 C 0.48144 0.08149 0.39138 0.0
C500 C 0.43603 0.11013 0.401 0.0
H501 H 0.59598 0.06234 0.38115 0.0
H502 H 0.45632 0.05496 0.3894 0.0
S503 S 0.5008 0.20355 0.41232 0.0
N504 N 0.58068 0.18201 0.40272 0.0
N505 N 0.4301 0.17354 0.41194 0.0
C506 C 0.4703 0.14408 0.40352 0.0
C507 C 0.55161 0.14862 0.39848 0.0
C508 C 0.45617 0.84516 0.90768 0.0
C509 C 0.41242 0.87644 0.90229 0.0
C510 C 0.53814 0.84496 0.90603 0.0
C511 C 0.57905 0.87619 0.89933 0.0
H512 H 0.427 0.82134 0.91458 0.0
H513 H 0.56979 0.82092 0.91168 0.0
S514 S 0.49077 0.96419 0.8815 0.0
N515 N 0.41498 0.9386 0.8883 0.0
N516 N 0.56931 0.93843 0.88535 0.0
C517 C 0.53564 0.907 0.8924 0.0
C518 C 0.4521 0.90707 0.89387 0.0
C519 C 0.05019 0.14186 0.8985 0.0
C520 C 0.08173 0.10713 0.8947 0.0
C521 C 0.96972 0.1486 0.89599 0.0
C522 C 0.9181 0.12095 0.88934 0.0
H523 H 0.08682 0.16307 0.90587 0.0
H524 H 0.94711 0.175 0.9011 0.0
S525 S 0.97343 0.02677 0.87365 0.0
N526 N 0.05708 0.04587 0.88128 0.0
N527 N 0.90549 0.05865 0.87591 0.0
C528 C 0.94998 0.08709 0.88285 0.0
C529 C 0.03211 0.08015 0.88568 0.0
C530 C 0.94555 0.11267 0.63163 0.0
C531 C 0.90244 0.1413 0.62115 0.0
C532 C 0.02699 0.11461 0.63394 0.0
C533 C 0.06765 0.14536 0.62608 0.0
H534 H 0.91706 0.08755 0.63616 0.0
H535 H 0.05867 0.09105 0.64056 0.0
S536 S 0.97951 0.2297 0.60128 0.0
N537 N 0.90431 0.20271 0.6056 0.0
N538 N 0.05781 0.20674 0.61041 0.0
C539 C 0.02439 0.17543 0.61779 0.0
C540 C 0.94148 0.17326 0.61516 0.0
C541 C 0.47237 0.87397 0.59571 0.0
C542 C 0.44896 0.8609 0.61923 0.0
C543 C 0.55053 0.88133 0.59072 0.0
C544 C 0.60954 0.87422 0.60858 0.0
H545 H 0.42964 0.87969 0.58118 0.0
H546 H 0.56468 0.89267 0.5725 0.0
S547 S 0.57765 0.83977 0.67329 0.0
N548 N 0.48872 0.84253 0.66115 0.0
N549 N 0.63839 0.85338 0.65103 0.0
C550 C 0.58683 0.86119 0.63236 0.0
C551 C 0.50592 0.85503 0.63779 0.0
C552 C 0.97672 0.64572 0.12106 0.0
C553 C 0.93217 0.61484 0.12595 0.0
C554 C 0.05853 0.64331 0.11815 0.0
C555 C 0.09839 0.61016 0.12074 0.0
H556 H 0.9478 0.67121 0.11718 0.0
H557 H 0.09007 0.6669 0.11201 0.0
S558 S 0.01002 0.52289 0.13753 0.0
N559 N 0.93473 0.55113 0.1361 0.0
N560 N 0.08854 0.54693 0.13132 0.0
C561 C 0.05533 0.57999 0.12811 0.0
C562 C 0.97208 0.58225 0.13055 0.0
C563 C 0.46084 0.35708 0.13158 0.0
C564 C 0.4175 0.3887 0.12698 0.0
C565 C 0.54252 0.35804 0.13391 0.0
C566 C 0.5831 0.39064 0.13144 0.0
H567 H 0.43253 0.33113 0.13062 0.0
H568 H 0.57434 0.33272 0.13517 0.0
S569 S 0.49397 0.48152 0.1245 0.0
N570 N 0.41882 0.45383 0.12403 0.0
N571 N 0.57257 0.45589 0.1286 0.0
C572 C 0.53937 0.42285 0.13006 0.0
C573 C 0.4562 0.42181 0.12774 0.0
C574 C 0.52894 0.42437 0.38803 0.0
C575 C 0.58041 0.39849 0.39817 0.0
C576 C 0.44926 0.41654 0.38465 0.0
C577 C 0.41926 0.38276 0.39156 0.0
H578 H 0.54912 0.45144 0.3844 0.0
H579 H 0.41014 0.43784 0.37839 0.0
S580 S 0.53347 0.30452 0.41525 0.0
N581 N 0.59851 0.33681 0.41213 0.0
N582 N 0.44909 0.32211 0.40602 0.0
C583 C 0.47171 0.35592 0.39973 0.0
C584 C 0.55237 0.36381 0.403 0.0
C585 C 0.02886 0.6201 0.36577 0.0
C586 C 0.07189 0.64963 0.37451 0.0
C587 C 0.94964 0.61674 0.37174 0.0
C588 C 0.91113 0.64296 0.38647 0.0
H589 H 0.05788 0.59789 0.35615 0.0
H590 H 0.92069 0.5919 0.36679 0.0
S591 S 0.99263 0.72977 0.40808 0.0
N592 N 0.06724 0.70874 0.39436 0.0
N593 N 0.91705 0.70263 0.40526 0.0
C594 C 0.95091 0.67477 0.39246 0.0
C595 C 0.03186 0.67811 0.38651 0.0
C596 C 0.07847 0.44651 0.9139 0.0
C597 C 0.11426 0.42033 0.89842 0.0
C598 C 0.99689 0.45007 0.91523 0.0
C599 C 0.94773 0.42734 0.90133 0.0
H600 H 0.11374 0.46352 0.92587 0.0
H601 H 0.97189 0.46948 0.92833 0.0
S602 S 0.01223 0.35632 0.85647 0.0
N603 N 0.09481 0.37311 0.86738 0.0
N604 N 0.9406 0.37932 0.87031 0.0
C605 C 0.98263 0.40254 0.88456 0.0
C606 C 0.06623 0.39912 0.88302 0.0
C607 C 0.49652 0.62684 0.87253 0.0
C608 C 0.45014 0.65618 0.88072 0.0
C609 C 0.57825 0.62705 0.8753 0.0
C610 C 0.61595 0.65649 0.88648 0.0
H611 H 0.46919 0.6024 0.8659 0.0
H612 H 0.61108 0.60266 0.87098 0.0
S613 S 0.5231 0.74229 0.90674 0.0
N614 N 0.44941 0.71763 0.89678 0.0
N615 N 0.60285 0.7174 0.90254 0.0
C616 C 0.57129 0.68733 0.89227 0.0
C617 C 0.48826 0.68736 0.88918 0.0
C618 C 0.53764 0.64961 0.59165 0.0
C619 C 0.58032 0.62691 0.60787 0.0
C620 C 0.45959 0.6425 0.58556 0.0
C621 C 0.42078 0.61238 0.59543 0.0
H622 H 0.56573 0.67218 0.58257 0.0
H623 H 0.43027 0.65999 0.57219 0.0
S624 S 0.50244 0.54799 0.6419 0.0
N625 N 0.57545 0.57562 0.63609 0.0
N626 N 0.42835 0.56197 0.62445 0.0
C627 C 0.46083 0.59101 0.61317 0.0
C628 C 0.54075 0.5983 0.61939 0.0
C629 C 0.03408 0.3625 0.61758 0.0
C630 C 0.07259 0.39524 0.62188 0.0
C631 C 0.95329 0.35953 0.62166 0.0
C632 C 0.90856 0.38933 0.62992 0.0
H633 H 0.06553 0.33994 0.60923 0.0
H634 H 0.92497 0.33474 0.61622 0.0
S635 S 0.98427 0.47857 0.64866 0.0
N636 N 0.06218 0.4562 0.6384 0.0
N637 N 0.91027 0.4505 0.64622 0.0
C638 C 0.94775 0.42084 0.63693 0.0
C639 C 0.03 0.42383 0.63288 0.0
C640 C 0.13475 0.08182 0.01413 0.0
C641 C 0.18165 0.10523 0.0283 0.0
C642 C 0.15013 0.07544 0.98861 0.0
C643 C 0.21294 0.09219 0.97625 0.0
H644 H 0.08502 0.0686 0.02265 0.0
H645 H 0.11124 0.05793 0.97827 0.0
S646 S 0.3557 0.15454 1.00483 0.0
N647 N 0.29606 0.14405 0.02818 0.0
N648 N 0.32383 0.13222 0.98003 0.0
C649 C 0.26204 0.11462 0.99028 0.0
C650 C 0.24657 0.12115 0.01634 0.0
C651 C 0.27144 0.86402 0.01447 0.0
C652 C 0.24031 0.8945 0.0268 0.0
C653 C 0.2639 0.85953 0.98837 0.0
C654 C 0.22627 0.88566 0.97329 0.0
H655 H 0.30273 0.84353 0.02501 0.0
H656 H 0.29077 0.83598 0.97973 0.0
S657 S 0.13193 0.96993 0.99647 0.0
N658 N 0.16636 0.95047 0.02215 0.0
N659 N 0.15506 0.94266 0.9729 0.0
C660 C 0.19211 0.91565 0.98549 0.0
C661 C 0.19868 0.91996 0.01224 0.0
C662 C 0.80196 0.91263 0.49926 0.0
C663 C 0.77166 0.88366 0.48537 0.0
C664 C 0.81315 0.91007 0.52528 0.0
C665 C 0.79542 0.87828 0.53832 0.0
H666 H 0.8137 0.93814 0.49021 0.0
H667 H 0.83091 0.93397 0.53541 0.0
S668 S 0.72872 0.79258 0.50988 0.0
N669 N 0.73321 0.82084 0.48596 0.0
N670 N 0.75682 0.81558 0.53486 0.0
C671 C 0.77133 0.84815 0.52429 0.0
C672 C 0.75854 0.85097 0.49784 0.0
C673 C 0.80428 0.10007 0.50775 0.0
C674 C 0.741 0.11332 0.49355 0.0
C675 C 0.8029 0.10128 0.53404 0.0
C676 C 0.73851 0.11609 0.54725 0.0
H677 H 0.85594 0.08904 0.49852 0.0
H678 H 0.85343 0.091 0.54414 0.0
S679 S 0.55613 0.15283 0.51911 0.0
N680 N 0.61001 0.14012 0.4947 0.0
N681 N 0.60856 0.14303 0.54429 0.0
C682 C 0.67355 0.12827 0.5334 0.0
C683 C 0.67459 0.12679 0.50651 0.0
C684 C 0.69747 0.87918 0.01812 0.0
C685 C 0.75334 0.89542 1.00226 0.0
C686 C 0.70064 0.88311 0.0444 0.0
C687 C 0.75967 0.90349 0.0558 0.0
H688 H 0.65208 0.8624 0.01028 0.0
H689 H 0.6583 0.86905 0.0559 0.0
S690 S 0.91357 0.95552 0.02283 0.0
N691 N 0.86539 0.93531 1.0 0.0
N692 N 0.87043 0.9431 0.04925 0.0
C693 C 0.81351 0.92132 0.04016 0.0
C694 C 0.81061 0.91718 0.01344 0.0
C695 C 0.78495 0.08689 1.00477 0.0
C696 C 0.74605 0.1148 0.99168 0.0
C697 C 0.78994 0.08699 0.03115 0.0
C698 C 0.75648 0.11507 0.04552 0.0
H699 H 0.81032 0.06424 0.99463 0.0
H700 H 0.81789 0.06429 0.04038 0.0
S701 S 0.65578 0.19648 0.02049 0.0
N702 N 0.67819 0.17252 0.99519 0.0
N703 N 0.68886 0.17302 0.04466 0.0
C704 C 0.72014 0.14383 0.03266 0.0
C705 C 0.71454 0.14362 1.00581 0.0
C706 C 0.24181 0.07289 0.49265 0.0
C707 C 0.27296 0.10121 0.47831 0.0
C708 C 0.24207 0.07404 0.51911 0.0
C709 C 0.27489 0.10319 0.53224 0.0
H710 H 0.21876 0.04925 0.4834 0.0
H711 H 0.21761 0.05158 0.52935 0.0
S712 S 0.35413 0.18633 0.50354 0.0
N713 N 0.32951 0.16104 0.47929 0.0
N714 N 0.33293 0.16252 0.52882 0.0
C715 C 0.30421 0.13212 0.51813 0.0
C716 C 0.30251 0.13128 0.49125 0.0
C717 C 0.19679 0.89033 0.50404 0.0
C718 C 0.23863 0.91712 0.49085 0.0
C719 C 0.19311 0.88964 0.53052 0.0
C720 C 0.2323 0.9153 0.54516 0.0
H721 H 0.16731 0.86918 0.49382 0.0
H722 H 0.16153 0.86804 0.53955 0.0
S723 S 0.34774 0.992 0.52058 0.0
N724 N 0.31692 0.97115 0.49504 0.0
N725 N 0.31303 0.96888 0.54459 0.0
C726 C 0.27402 0.94236 0.53238 0.0
C727 C 0.2767 0.94344 0.50537 0.0
C728 C 0.78137 0.62723 1.00814 0.0
C729 C 0.71361 0.60852 0.01576 0.0
C730 C 0.79921 0.63269 0.98243 0.0
C731 C 0.74963 0.61986 0.96338 0.0
H732 H 0.82062 0.6381 0.02214 0.0
H733 H 0.85034 0.64823 0.97748 0.0
S734 S 0.56544 0.5691 0.97301 0.0
N735 N 0.59719 0.57714 1.00178 0.0
N736 N 0.63141 0.58649 0.95393 0.0
C737 C 0.68308 0.60021 0.97078 0.0
C738 C 0.66484 0.59482 0.99679 0.0
C739 C 0.78755 0.38456 0.98164 0.0
C740 C 0.74924 0.41264 0.96873 0.0
C741 C 0.78112 0.38124 1.00779 0.0
C742 C 0.73547 0.40564 0.02202 0.0
H743 H 0.82439 0.36548 0.9715 0.0
H744 H 0.81319 0.35965 0.01696 0.0
S745 S 0.62289 0.48363 0.9973 0.0
N746 N 0.66377 0.46522 0.9721 0.0
N747 N 0.64999 0.45835 0.02132 0.0
C748 C 0.69445 0.43305 0.0093 0.0
C749 C 0.70169 0.43668 0.98263 0.0
C750 C 0.29592 0.38961 0.50398 0.0
C751 C 0.22902 0.39579 0.48914 0.0
C752 C 0.2935 0.39406 0.53022 0.0
C753 C 0.22451 0.40563 0.54255 0.0
H754 H 0.35031 0.38076 0.49525 0.0
H755 H 0.3458 0.3879 0.54095 0.0
S756 S 0.03645 0.43028 0.51144 0.0
N757 N 0.0936 0.41623 0.48818 0.0
N758 N 0.08973 0.42674 0.53723 0.0
C759 C 0.15797 0.41326 0.52764 0.0
C760 C 0.16006 0.40778 0.50102 0.0
C761 C 0.29122 0.62287 0.50595 0.0
C762 C 0.25815 0.59355 0.51899 0.0
C763 C 0.29576 0.62369 0.47952 0.0
C764 C 0.26642 0.59549 0.46469 0.0
H765 H 0.31455 0.64547 0.51633 0.0
H766 H 0.32164 0.64698 0.47064 0.0
S767 S 0.17578 0.51187 0.48911 0.0
N768 N 0.1973 0.53501 0.51474 0.0
N769 N 0.20354 0.53697 0.4651 0.0
C770 C 0.23221 0.56613 0.47736 0.0
C771 C 0.22841 0.56511 0.50441 0.0
C772 C 0.25338 0.35221 0.02909 0.0
C773 C 0.29594 0.37741 0.04315 0.0
C774 C 0.26246 0.34956 1.00286 0.0
C775 C 0.31434 0.37206 0.98964 0.0
H776 H 0.21303 0.33427 0.03845 0.0
H777 H 0.22782 0.3299 0.99288 0.0
S778 S 0.43694 0.44369 0.01785 0.0
N779 N 0.3898 0.42614 0.04197 0.0
N780 N 0.4081 0.42088 0.99289 0.0
C781 C 0.35752 0.39732 1.00359 0.0
C782 C 0.34793 0.40008 0.03025 0.0
C783 C 0.17417 0.58002 1.00397 0.0
C784 C 0.22793 0.59827 0.98859 0.0
C785 C 0.18437 0.57797 0.03009 0.0
C786 C 0.24867 0.59414 0.04208 0.0
H787 H 0.1223 0.56807 0.99593 0.0
H788 H 0.14017 0.56435 0.04112 0.0
S789 S 0.41153 0.64149 0.01031 0.0
N790 N 0.35242 0.6299 0.98718 0.0
N791 N 0.37029 0.62654 0.03639 0.0
C792 C 0.3053 0.61071 0.02689 0.0
C793 C 0.29514 0.61274 1.00016 0.0
C794 C 0.75977 0.58908 0.50685 0.0
C795 C 0.78543 0.61893 0.52081 0.0
C796 C 0.75405 0.59045 0.4806 0.0
C797 C 0.77275 0.62191 0.46729 0.0
H798 H 0.7449 0.56417 0.51622 0.0
H799 H 0.73642 0.56637 0.47066 0.0
S800 S 0.83758 0.70835 0.49522 0.0
N801 N 0.8274 0.68123 0.51958 0.0
N802 N 0.81397 0.68435 0.47022 0.0
C803 C 0.797 0.65225 0.48109 0.0
C804 C 0.80406 0.65063 0.50785 0.0
C805 C 0.79451 0.43294 0.51305 0.0
C806 C 0.75464 0.40579 0.52617 0.0
C807 C 0.79257 0.43454 0.48665 0.0
C808 C 0.75196 0.40862 0.47255 0.0
H809 H 0.82486 0.45385 0.52325 0.0
H810 H 0.82062 0.4569 0.4773 0.0
S811 S 0.65194 0.32808 0.49799 0.0
N812 N 0.68152 0.35018 0.52317 0.0
N813 N 0.68123 0.35204 0.47364 0.0
C814 C 0.71695 0.37988 0.48549 0.0
C815 C 0.71741 0.37875 0.51228 0.0
C816 C 0.22987 0.01598 0.15519 0.0
C817 C 0.2074 0.03082 0.13193 0.0
C818 C 0.28611 0.98834 0.15657 0.0
C819 C 0.32175 0.97405 0.13475 0.0
H820 H 0.20499 0.0262 0.17262 0.0
H821 H 0.30236 0.97836 0.17499 0.0
S822 S 0.28251 1.00259 0.06908 0.0
N823 N 0.22419 0.02845 0.08639 0.0
N824 N 0.33004 0.97641 0.0891 0.0
C825 C 0.29887 0.98801 0.1113 0.0
C826 C 0.24176 0.01642 0.10986 0.0
C827 C 0.79105 0.01491 0.36654 0.0
C828 C 0.82638 0.02984 0.38797 0.0
C829 C 0.72826 0.9911 0.3688 0.0
C830 C 0.70028 0.98064 0.39258 0.0
H831 H 0.81238 0.02154 0.3479 0.0
H832 H 0.70319 0.97994 0.3518 0.0
S833 S 0.77266 0.01244 0.45447 0.0
N834 N 0.82864 0.03296 0.43364 0.0
N835 N 0.71115 0.98781 0.43797 0.0
C836 C 0.73483 0.9956 0.41415 0.0
C837 C 0.79791 0.02026 0.41183 0.0
C838 C 0.77406 0.98214 0.86499 0.0
C839 C 0.81068 0.96643 0.88604 0.0
C840 C 0.71679 0.00937 0.86775 0.0
C841 C 0.69487 0.02256 0.89168 0.0
H842 H 0.79033 0.97357 0.84616 0.0
H843 H 0.69124 0.02086 0.85091 0.0
S844 S 0.77289 0.99012 0.95287 0.0
N845 N 0.82068 0.96583 0.9316 0.0
N846 N 0.71308 0.01676 0.93692 0.0
C847 C 0.73039 0.00667 0.91292 0.0
C848 C 0.78827 0.97873 0.91007 0.0
C849 C 0.18695 0.0196 0.64777 0.0
C850 C 0.22034 0.98639 0.64039 0.0
C851 C 0.23409 0.0502 0.65097 0.0
C852 C 0.31451 0.04904 0.64508 0.0
H853 H 0.12526 0.0214 0.65253 0.0
H854 H 0.20827 0.07421 0.65923 0.0
S855 S 0.43023 0.96865 0.62561 0.0
N856 N 0.33994 0.95395 0.62902 0.0
N857 N 0.4255 0.01213 0.63194 0.0
C858 C 0.34778 0.01624 0.63717 0.0
C859 C 0.30131 0.98483 0.6354 0.0
C860 C 0.8014 0.48643 0.15432 0.0
C861 C 0.83189 0.47093 0.13215 0.0
C862 C 0.74342 0.5135 0.15347 0.0
C863 C 0.71452 0.52677 0.13041 0.0
H864 H 0.82186 0.4773 0.17253 0.0
H865 H 0.72105 0.52412 0.17113 0.0
S866 S 0.77902 0.49676 0.06688 0.0
N867 N 0.83162 0.47186 0.0864 0.0
N868 N 0.72271 0.52272 0.08479 0.0
C869 C 0.74572 0.51197 0.10806 0.0
C870 C 0.80438 0.48412 0.10894 0.0
C871 C 0.24829 0.48064 0.39763 0.0
C872 C 0.18659 0.47622 0.38039 0.0
C873 C 0.30525 0.50699 0.39397 0.0
C874 C 0.30145 0.53042 0.37327 0.0
H875 H 0.25352 0.46329 0.41391 0.0
H876 H 0.35182 0.50934 0.40766 0.0
S877 S 0.15047 0.53115 0.32318 0.0
N878 N 0.12446 0.4981 0.34208 0.0
N879 N 0.23089 0.548 0.33548 0.0
C880 C 0.23951 0.52675 0.35612 0.0
C881 C 0.18217 0.49959 0.35963 0.0
C882 C 0.31599 0.51458 0.89993 0.0
C883 C 0.34245 0.4959 0.87829 0.0
C884 C 0.25844 0.54192 0.89839 0.0
C885 C 0.2243 0.55127 0.87523 0.0
H886 H 0.33933 0.50781 0.91827 0.0
H887 H 0.23868 0.55492 0.91556 0.0
S888 S 0.2751 0.51217 0.8128 0.0
N889 N 0.33196 0.49022 0.83276 0.0
N890 N 0.22333 0.54086 0.83004 0.0
C891 C 0.25131 0.53341 0.85342 0.0
C892 C 0.31051 0.50598 0.85489 0.0
C893 C 0.78397 0.52123 0.64759 0.0
C894 C 0.8108 0.53131 0.62356 0.0
C895 C 0.72083 0.49765 0.65042 0.0
C896 C 0.68372 0.48261 0.62934 0.0
H897 H 0.81054 0.53238 0.66434 0.0
H898 H 0.70053 0.49133 0.66924 0.0
S899 S 0.73071 0.50042 0.56243 0.0
N900 N 0.79542 0.52406 0.57832 0.0
N901 N 0.67656 0.47994 0.58378 0.0
C902 C 0.71047 0.49199 0.60527 0.0
C903 C 0.77413 0.51628 0.60235 0.0
C904 C 0.00855 0.24723 0.15226 0.0
C905 C 0.04364 0.23161 0.13071 0.0
C906 C 0.97286 0.28148 0.15135 0.0
C907 C 0.96911 0.30085 0.12871 0.0
H908 H 1.00652 0.2324 0.16979 0.0
H909 H 0.94375 0.2918 0.16808 0.0
S910 S 0.05878 0.27407 0.06771 0.0
N911 N 0.07872 0.24002 0.08669 0.0
N912 N 0.00901 0.30367 0.08484 0.0
C913 C 1.00719 0.28646 0.10739 0.0
C914 C 0.04529 0.25204 0.10844 0.0
C915 C 0.43655 0.75961 0.12538 0.0
C916 C 0.48917 0.78843 0.12613 0.0
C917 C 0.46364 0.72376 0.12454 0.0
C918 C 0.54444 0.71524 0.12379 0.0
H919 H 0.37396 0.76473 0.12612 0.0
H920 H 0.42069 0.70248 0.12443 0.0
S921 S 0.70638 0.78112 0.1236 0.0
N922 N 0.62598 0.80621 0.12504 0.0
N923 N 0.67662 0.73894 0.12289 0.0
C924 C 0.59763 0.74389 0.12369 0.0
C925 C 0.57009 0.78039 0.12505 0.0
C926 C 0.42865 0.74854 0.37889 0.0
C927 C 0.48121 0.71931 0.38111 0.0
C928 C 0.45428 0.78406 0.38109 0.0
C929 C 0.53367 0.79189 0.38531 0.0
H930 H 0.36675 0.74405 0.3759 0.0
H931 H 0.41119 0.80556 0.37949 0.0
S932 S 0.69602 0.72508 0.39147 0.0
N933 N 0.61715 0.70056 0.38697 0.0
N934 N 0.66532 0.7674 0.39103 0.0
C935 C 0.58738 0.76297 0.38698 0.0
C936 C 0.56113 0.7267 0.38494 0.0
C937 C 0.95334 0.2737 0.39562 0.0
C938 C 0.03242 0.28368 0.39303 0.0
C939 C 0.93127 0.23747 0.39576 0.0
C940 C 0.98714 0.20958 0.39316 0.0
H941 H 0.90768 0.29399 0.39751 0.0
H942 H 0.86956 0.23136 0.39765 0.0
S943 S 0.20255 0.2208 0.38702 0.0
N944 N 0.16728 0.26229 0.38857 0.0
N945 N 0.12567 0.19434 0.38884 0.0
C946 C 0.06659 0.21905 0.39074 0.0
C947 C 0.08915 0.256 0.3907 0.0
C948 C 0.98821 0.77626 0.87049 0.0
C949 C 0.97334 0.79335 0.89378 0.0
C950 C 0.02537 0.74225 0.86916 0.0
C951 C 0.05025 0.72406 0.89105 0.0
H952 H 0.96984 0.78891 0.85311 0.0
H953 H 0.03546 0.73041 0.85077 0.0
S954 S 0.02605 0.75729 0.95673 0.0
N955 N 0.98727 0.78947 0.93923 0.0
N956 N 0.05649 0.72592 0.93681 0.0
C957 C 0.03587 0.74096 0.91444 0.0
C958 C 0.99778 0.77544 0.91578 0.0
C959 C 0.57577 0.24782 0.90183 0.0
C960 C 0.52313 0.22107 0.89408 0.0
C961 C 0.55534 0.28456 0.90103 0.0
C962 C 0.48124 0.29628 0.89252 0.0
H963 H 0.63339 0.24037 0.90869 0.0
H964 H 0.59815 0.30399 0.90721 0.0
S965 S 0.32402 0.23761 0.86815 0.0
N966 N 0.39459 0.20924 0.87634 0.0
N967 N 0.35638 0.27821 0.87502 0.0
C968 C 0.42801 0.26994 0.88462 0.0
C969 C 0.4489 0.23243 0.88533 0.0
C970 C 0.53718 0.24105 0.63335 0.0
C971 C 0.45698 0.23287 0.63142 0.0
C972 C 0.56335 0.27657 0.63205 0.0
C973 C 0.51029 0.30542 0.62919 0.0
H974 H 0.58051 0.21976 0.63555 0.0
H975 H 0.62564 0.28147 0.6336 0.0
S976 S 0.29417 0.29876 0.62294 0.0
N977 N 0.32464 0.25667 0.62621 0.0
N978 N 0.37379 0.32359 0.62401 0.0
C979 C 0.42985 0.29775 0.62726 0.0
C980 C 0.40324 0.26146 0.62825 0.0
C981 C 0.93835 0.74633 0.61971 0.0
C982 C 0.98256 0.71693 0.62862 0.0
C983 C 0.96789 0.78142 0.62077 0.0
C984 C 0.04239 0.78839 0.631 0.0
H985 H 0.88191 0.74209 0.61097 0.0
H986 H 0.93246 0.80309 0.61308 0.0
S987 S 0.17611 0.72065 0.65997 0.0
N988 N 0.10087 0.69709 0.64997 0.0
N989 N 0.15621 0.76283 0.6524 0.0
C990 C 0.08526 0.75924 0.64115 0.0
C991 C 0.0554 0.72357 0.63984 0.0
C992 C 0.08684 0.15321 0.27498 0.0
C993 C 0.05755 0.12314 0.28789 0.0
C994 C 0.08415 0.15526 0.24864 0.0
C995 C 0.05107 0.12756 0.23414 0.0
H996 H 0.11257 0.17533 0.28527 0.0
H997 H 0.10779 0.17893 0.23961 0.0
S998 S 0.96549 0.04305 0.2587 0.0
N999 N 0.99411 0.06495 0.28407 0.0
N1000 N 0.98849 0.06901 0.23467 0.0
C1001 C 0.02114 0.0974 0.24678 0.0
C1002 C 0.02462 0.09512 0.27361 0.0
C1003 C 0.48663 0.9034 0.25677 0.0
C1004 C 0.53053 0.87623 0.24433 0.0
C1005 C 0.48391 0.90567 0.28325 0.0
C1006 C 0.52604 0.88123 0.29839 0.0
H1007 H 0.45437 0.9233 0.24598 0.0
H1008 H 0.45052 0.9274 0.29189 0.0
S1009 S 0.64632 0.80382 0.27554 0.0
N1010 N 0.61407 0.82327 0.2496 0.0
N1011 N 0.6098 0.82792 0.29903 0.0
C1012 C 0.56873 0.85352 0.28625 0.0
C1013 C 0.57074 0.85091 0.25936 0.0
C1014 C 0.9815 0.84328 0.73271 0.0
C1015 C 1.00615 0.87463 0.72022 0.0
C1016 C 0.97905 0.84123 0.7591 0.0
C1017 C 1.0009 0.87053 0.77437 0.0
H1018 H 0.96323 0.81992 0.72204 0.0
H1019 H 0.95903 0.81646 0.76753 0.0
S1020 S 0.0723 0.95872 0.75124 0.0
N1021 N 0.05482 0.93554 0.72533 0.0
N1022 N 0.05004 0.93181 0.77485 0.0
C1023 C 0.02683 0.90193 0.76217 0.0
C1024 C 0.02958 0.904 0.7352 0.0
C1025 C 0.44874 0.12822 0.78758 0.0
C1026 C 0.52496 0.12955 0.79755 0.0
C1027 C 0.43553 0.1299 0.7616 0.0
C1028 C 0.4981 0.13282 0.74442 0.0
H1029 H 0.39842 0.12515 0.79988 0.0
H1030 H 0.37583 0.12792 0.75498 0.0
S1031 S 0.70872 0.14049 0.76076 0.0
N1032 N 0.66378 0.13633 0.78816 0.0
N1033 N 0.63901 0.13938 0.73931 0.0
C1034 C 0.57446 0.1355 0.75412 0.0
C1035 C 0.58801 0.13393 0.78066 0.0
C1036 C 0.56808 0.64894 0.24701 0.0
C1037 C 0.52534 0.62318 0.23337 0.0
C1038 C 0.56658 0.65012 0.27343 0.0
C1039 C 0.52255 0.62551 0.28767 0.0
H1040 H 0.60385 0.66839 0.23723 0.0
H1041 H 0.60145 0.67037 0.28273 0.0
S1042 S 0.39732 0.55342 0.26139 0.0
N1043 N 0.43532 0.57297 0.23632 0.0
N1044 N 0.43277 0.57511 0.28595 0.0
C1045 C 0.4783 0.59992 0.27435 0.0
C1046 C 0.47959 0.59879 0.24729 0.0
C1047 C 0.96218 0.35921 0.25359 0.0
C1048 C 0.02489 0.36601 0.23702 0.0
C1049 C 0.97145 0.36126 0.27973 0.0
C1050 C 0.04405 0.36987 0.29052 0.0
H1051 H 0.90438 0.35334 0.24638 0.0
H1052 H 0.92062 0.35674 0.29153 0.0
S1053 S 0.22906 0.38677 0.25559 0.0
N1054 N 0.16371 0.37937 0.23337 0.0
N1055 N 0.18147 0.38295 0.28256 0.0
C1056 C 0.10835 0.37507 0.27425 0.0
C1057 C 0.09872 0.37324 0.24752 0.0
C1058 C 0.41855 0.36575 0.74443 0.0
C1059 C 0.45005 0.39469 0.73077 0.0
C1060 C 0.42602 0.36371 0.77071 0.0
C1061 C 0.46664 0.39017 0.78427 0.0
H1062 H 0.38752 0.34451 0.73479 0.0
H1063 H 0.40059 0.34102 0.78044 0.0
S1064 S 0.55888 0.47187 0.75765 0.0
N1065 N 0.52232 0.45081 0.73302 0.0
N1066 N 0.53712 0.44668 0.78219 0.0
C1067 C 0.49831 0.41927 0.77088 0.0
C1068 C 0.48977 0.42164 0.74421 0.0
C1069 C 0.03555 0.60631 0.7316 0.0
C1070 C 0.02027 0.63605 0.71589 0.0
C1071 C 0.03777 0.61006 0.75806 0.0
C1072 C 0.02658 0.64384 0.76986 0.0
H1073 H 0.04345 0.57975 0.72345 0.0
H1074 H 0.04862 0.58628 0.76934 0.0
S1075 S 0.98931 0.73055 0.73694 0.0
N1076 N 0.99625 0.70055 0.71402 0.0
N1077 N 1.0023 0.70783 0.76331 0.0
C1078 C 0.01347 0.67391 0.75421 0.0
C1079 C 0.0098 0.66995 0.7274 0.0
loop_
_geom_bond_atom_site_label_1
_geom_bond_atom_site_label_2
_geom_bond_distance
_geom_bond_site_symmetry_2
_ccdc_geom_bond_type
O0 Tb1 2.292 . S
O0 C3 1.255 . S
Tb1 O0 2.292 . S
Tb1 O17 2.326 . S
Tb1 O19 2.500 . S
Tb1 O20 2.473 . S
Tb1 O23 2.324 . S
Eu2 O6 2.292 1_455 S
Eu2 C7 2.852 1_455 S
Eu2 O18 2.324 . S
Eu2 O22 2.326 . S
Eu2 O24 2.500 1_455 S
Eu2 O25 2.473 1_455 S
C3 O0 1.255 . S
C3 O4 1.247 . S
O4 C3 1.247 . S
C5 O17 1.242 . S
C5 O18 1.258 . S
O6 Eu2 2.292 1_655 S
O6 C8 1.256 . S
C7 Eu2 2.852 1_655 S
C7 C11 1.503 . S
C7 O24 1.273 . S
C7 O25 1.257 . S
C8 O6 1.256 . S
C8 O9 1.246 1_655 S
O9 C8 1.246 1_455 S
C10 O22 1.242 . S
C10 O23 1.258 . S
C11 C7 1.503 . S
C11 C12 1.379 . S
C11 C16 1.392 . S
C12 C11 1.379 . S
C12 C13 1.404 . S
C12 H26 0.929 . S
C13 C12 1.404 . S
C13 C14 1.389 . S
C14 C13 1.389 . S
C14 C15 1.399 . S
C14 H27 0.931 . S
C15 C14 1.399 . S
C15 C16 1.390 . S
C16 C11 1.392 . S
C16 C15 1.390 . S
C16 H28 0.929 . S
O17 Tb1 2.326 . S
O17 C5 1.242 . S
O18 Eu2 2.324 . S
O18 C5 1.258 . S
O19 Tb1 2.500 . S
O19 C21 1.273 . S
O20 Tb1 2.473 . S
O20 C21 1.257 . S
C21 O19 1.273 . S
C21 O20 1.257 . S
O22 Eu2 2.326 . S
O22 C10 1.242 . S
O23 Tb1 2.324 . S
O23 C10 1.258 . S
O24 Eu2 2.500 1_655 S
O24 C7 1.273 . S
O25 Eu2 2.473 1_655 S
O25 C7 1.257 . S
H26 C12 0.929 . S
H27 C14 0.931 . S
H28 C16 0.929 . S
O29 Tb30 2.292 . S
O29 C32 1.255 . S
Tb30 O29 2.292 . S
Tb30 O46 2.326 . S
Tb30 O48 2.500 . S
Tb30 O49 2.473 . S
Tb30 O52 2.324 . S
Eu31 O35 2.292 . S
Eu31 C36 2.852 . S
Eu31 O47 2.324 . S
Eu31 O51 2.326 . S
Eu31 O53 2.500 . S
Eu31 O54 2.473 . S
C32 O29 1.255 . S
C32 O33 1.247 . S
O33 C32 1.247 . S
C34 O46 1.242 . S
C34 O47 1.258 . S
O35 Eu31 2.292 . S
O35 C37 1.255 . S
C36 Eu31 2.852 . S
C36 C40 1.503 . S
C36 O53 1.273 . S
C36 O54 1.257 . S
C37 O35 1.255 . S
C37 O38 1.247 . S
O38 C37 1.247 . S
C39 O51 1.242 . S
C39 O52 1.258 . S
C40 C36 1.503 . S
C40 C41 1.379 . S
C40 C45 1.392 . S
C41 C40 1.379 . S
C41 C42 1.404 . S
C41 H55 0.929 . S
C42 C41 1.404 . S
C42 C43 1.389 . S
C43 C42 1.389 . S
C43 C44 1.399 . S
C43 H56 0.931 . S
C44 C43 1.399 . S
C44 C45 1.390 . S
C45 C40 1.392 . S
C45 C44 1.390 . S
C45 H57 0.929 . S
O46 Tb30 2.326 . S
O46 C34 1.242 . S
O47 Eu31 2.324 . S
O47 C34 1.258 . S
O48 Tb30 2.500 . S
O48 C50 1.273 . S
O49 Tb30 2.473 . S
O49 C50 1.257 . S
C50 O48 1.273 . S
C50 O49 1.257 . S
O51 Eu31 2.326 . S
O51 C39 1.242 . S
O52 Tb30 2.324 . S
O52 C39 1.258 . S
O53 Eu31 2.500 . S
O53 C36 1.273 . S
O54 Eu31 2.473 . S
O54 C36 1.257 . S
H55 C41 0.929 . S
H56 C43 0.931 . S
H57 C45 0.929 . S
O58 Tb59 2.292 . S
O58 C61 1.255 . S
Tb59 O58 2.292 . S
Tb59 O75 2.326 . S
Tb59 O77 2.500 . S
Tb59 O78 2.473 . S
Tb59 O81 2.324 . S
Eu60 O64 2.292 . S
Eu60 C65 2.852 . S
Eu60 O76 2.324 . S
Eu60 O80 2.326 . S
Eu60 O82 2.500 . S
Eu60 O83 2.473 . S
C61 O58 1.255 . S
C61 O62 1.247 . S
O62 C61 1.247 . S
C63 O75 1.242 . S
C63 O76 1.258 . S
O64 Eu60 2.292 . S
O64 C66 1.255 . S
C65 Eu60 2.852 . S
C65 C69 1.503 . S
C65 O82 1.273 . S
C65 O83 1.257 . S
C66 O64 1.255 . S
C66 O67 1.247 . S
O67 C66 1.247 . S
C68 O80 1.242 . S
C68 O81 1.258 . S
C69 C65 1.503 . S
C69 C70 1.379 . S
C69 C74 1.392 . S
C70 C69 1.379 . S
C70 C71 1.404 . S
C70 H84 0.929 . S
C71 C70 1.404 . S
C71 C72 1.389 . S
C72 C71 1.389 . S
C72 C73 1.399 . S
C72 H85 0.931 . S
C73 C72 1.399 . S
C73 C74 1.390 . S
C74 C69 1.392 . S
C74 C73 1.390 . S
C74 H86 0.929 . S
O75 Tb59 2.326 . S
O75 C63 1.242 . S
O76 Eu60 2.324 . S
O76 C63 1.258 . S
O77 Tb59 2.500 . S
O77 C79 1.273 . S
O78 Tb59 2.473 . S
O78 C79 1.257 . S
C79 O77 1.273 . S
C79 O78 1.257 . S
O80 Eu60 2.326 . S
O80 C68 1.242 . S
O81 Tb59 2.324 . S
O81 C68 1.258 . S
O82 Eu60 2.500 . S
O82 C65 1.273 . S
O83 Eu60 2.473 . S
O83 C65 1.257 . S
H84 C70 0.929 . S
H85 C72 0.931 . S
H86 C74 0.929 . S
O87 Tb88 2.292 . S
O87 C90 1.255 . S
Tb88 O87 2.292 . S
Tb88 O104 2.326 . S
Tb88 O106 2.500 . S
Tb88 O107 2.473 . S
Tb88 O110 2.324 . S
Eu89 O93 2.292 1_655 S
Eu89 C94 2.852 1_655 S
Eu89 O105 2.324 . S
Eu89 O109 2.326 . S
Eu89 O111 2.500 1_655 S
Eu89 O112 2.473 1_655 S
C90 O87 1.255 . S
C90 O91 1.247 . S
O91 C90 1.247 . S
C92 O104 1.242 . S
C92 O105 1.258 . S
O93 Eu89 2.292 1_455 S
O93 C95 1.256 . S
C94 Eu89 2.852 1_455 S
C94 C98 1.503 . S
C94 O111 1.273 . S
C94 O112 1.257 . S
C95 O93 1.256 . S
C95 O96 1.246 1_455 S
O96 C95 1.246 1_655 S
C97 O109 1.242 . S
C97 O110 1.258 . S
C98 C94 1.503 . S
C98 C99 1.379 . S
C98 C103 1.392 . S
C99 C98 1.379 . S
C99 C100 1.404 . S
C99 H113 0.929 . S
C100 C99 1.404 . S
C100 C101 1.389 . S
C101 C100 1.389 . S
C101 C102 1.399 . S
C101 H114 0.931 . S
C102 C101 1.399 . S
C102 C103 1.390 . S
C103 C98 1.392 . S
C103 C102 1.390 . S
C103 H115 0.929 . S
O104 Tb88 2.326 . S
O104 C92 1.242 . S
O105 Eu89 2.324 . S
O105 C92 1.258 . S
O106 Tb88 2.500 . S
O106 C108 1.273 . S
O107 Tb88 2.473 . S
O107 C108 1.257 . S
C108 O106 1.273 . S
C108 O107 1.257 . S
O109 Eu89 2.326 . S
O109 C97 1.242 . S
O110 Tb88 2.324 . S
O110 C97 1.258 . S
O111 Eu89 2.500 1_455 S
O111 C94 1.273 . S
O112 Eu89 2.473 1_455 S
O112 C94 1.257 . S
H113 C99 0.929 . S
H114 C101 0.931 . S
H115 C103 0.929 . S
O116 Tb117 2.292 . S
O116 C119 1.255 . S
Tb117 O116 2.292 . S
Tb117 O133 2.326 . S
Tb117 O135 2.500 . S
Tb117 O136 2.473 . S
Tb117 O139 2.324 . S
Eu118 O122 2.292 1_655 S
Eu118 C123 2.852 1_655 S
Eu118 O134 2.324 . S
Eu118 O138 2.326 . S
Eu118 O140 2.500 1_655 S
Eu118 O141 2.473 1_655 S
C119 O116 1.255 . S
C119 O120 1.247 . S
O120 C119 1.247 . S
C121 O133 1.242 . S
C121 O134 1.258 . S
O122 Eu118 2.292 1_455 S
O122 C124 1.256 . S
C123 Eu118 2.852 1_455 S
C123 C127 1.503 . S
C123 O140 1.273 . S
C123 O141 1.257 . S
C124 O122 1.256 . S
C124 O125 1.246 1_455 S
O125 C124 1.246 1_655 S
C126 O138 1.242 . S
C126 O139 1.258 . S
C127 C123 1.503 . S
C127 C128 1.379 . S
C127 C132 1.392 . S
C128 C127 1.379 . S
C128 C129 1.404 . S
C128 H142 0.929 . S
C129 C128 1.404 . S
C129 C130 1.389 . S
C130 C129 1.389 . S
C130 C131 1.399 . S
C130 H143 0.931 . S
C131 C130 1.399 . S
C131 C132 1.390 . S
C132 C127 1.392 . S
C132 C131 1.390 . S
C132 H144 0.929 . S
O133 Tb117 2.326 . S
O133 C121 1.242 . S
O134 Eu118 2.324 . S
O134 C121 1.258 . S
O135 Tb117 2.500 . S
O135 C137 1.273 . S
O136 Tb117 2.473 . S
O136 C137 1.257 . S
C137 O135 1.273 . S
C137 O136 1.257 . S
O138 Eu118 2.326 . S
O138 C126 1.242 . S
O139 Tb117 2.324 . S
O139 C126 1.258 . S
O140 Eu118 2.500 1_455 S
O140 C123 1.273 . S
O141 Eu118 2.473 1_455 S
O141 C123 1.257 . S
H142 C128 0.929 . S
H143 C130 0.931 . S
H144 C132 0.929 . S
O145 Tb146 2.292 . S
O145 C148 1.255 . S
Tb146 O145 2.292 . S
Tb146 O162 2.326 . S
Tb146 O164 2.500 . S
Tb146 O165 2.473 . S
Tb146 O168 2.324 . S
Eu147 O151 2.292 . S
Eu147 C152 2.852 . S
Eu147 O163 2.324 . S
Eu147 O167 2.326 . S
Eu147 O169 2.500 . S
Eu147 O170 2.473 . S
C148 O145 1.255 . S
C148 O149 1.247 . S
O149 C148 1.247 . S
C150 O162 1.242 . S
C150 O163 1.258 . S
O151 Eu147 2.292 . S
O151 C153 1.255 . S
C152 Eu147 2.852 . S
C152 C156 1.503 . S
C152 O169 1.273 . S
C152 O170 1.257 . S
C153 O151 1.255 . S
C153 O154 1.247 . S
O154 C153 1.247 . S
C155 O167 1.242 . S
C155 O168 1.258 . S
C156 C152 1.503 . S
C156 C157 1.379 . S
C156 C161 1.392 . S
C157 C156 1.379 . S
C157 C158 1.404 . S
C157 H171 0.929 . S
C158 C157 1.404 . S
C158 C159 1.389 . S
C159 C158 1.389 . S
C159 C160 1.399 . S
C159 H172 0.931 . S
C160 C159 1.399 . S
C160 C161 1.390 . S
C161 C156 1.392 . S
C161 C160 1.390 . S
C161 H173 0.929 . S
O162 Tb146 2.326 . S
O162 C150 1.242 . S
O163 Eu147 2.324 . S
O163 C150 1.258 . S
O164 Tb146 2.500 . S
O164 C166 1.273 . S
O165 Tb146 2.473 . S
O165 C166 1.257 . S
C166 O164 1.273 . S
C166 O165 1.257 . S
O167 Eu147 2.326 . S
O167 C155 1.242 . S
O168 Tb146 2.324 . S
O168 C155 1.258 . S
O169 Eu147 2.500 . S
O169 C152 1.273 . S
O170 Eu147 2.473 . S
O170 C152 1.257 . S
H171 C157 0.929 . S
H172 C159 0.931 . S
H173 C161 0.929 . S
O174 Tb175 2.292 . S
O174 C177 1.255 . S
Tb175 O174 2.292 . S
Tb175 O191 2.326 . S
Tb175 O193 2.500 . S
Tb175 O194 2.473 . S
Tb175 O197 2.324 . S
Eu176 O180 2.292 . S
Eu176 C181 2.852 . S
Eu176 O192 2.324 . S
Eu176 O196 2.326 . S
Eu176 O198 2.500 . S
Eu176 O199 2.473 . S
C177 O174 1.255 . S
C177 O178 1.247 . S
O178 C177 1.247 . S
C179 O191 1.242 . S
C179 O192 1.258 . S
O180 Eu176 2.292 . S
O180 C182 1.255 . S
C181 Eu176 2.852 . S
C181 C185 1.503 . S
C181 O198 1.273 . S
C181 O199 1.257 . S
C182 O180 1.255 . S
C182 O183 1.247 . S
O183 C182 1.247 . S
C184 O196 1.242 . S
C184 O197 1.258 . S
C185 C181 1.503 . S
C185 C186 1.379 . S
C185 C190 1.392 . S
C186 C185 1.379 . S
C186 C187 1.404 . S
C186 H200 0.929 . S
C187 C186 1.404 . S
C187 C188 1.389 . S
C188 C187 1.389 . S
C188 C189 1.399 . S
C188 H201 0.931 . S
C189 C188 1.399 . S
C189 C190 1.390 . S
C190 C185 1.392 . S
C190 C189 1.390 . S
C190 H202 0.929 . S
O191 Tb175 2.326 . S
O191 C179 1.242 . S
O192 Eu176 2.324 . S
O192 C179 1.258 . S
O193 Tb175 2.500 . S
O193 C195 1.273 . S
O194 Tb175 2.473 . S
O194 C195 1.257 . S
C195 O193 1.273 . S
C195 O194 1.257 . S
O196 Eu176 2.326 . S
O196 C184 1.242 . S
O197 Tb175 2.324 . S
O197 C184 1.258 . S
O198 Eu176 2.500 . S
O198 C181 1.273 . S
O199 Eu176 2.473 . S
O199 C181 1.257 . S
H200 C186 0.929 . S
H201 C188 0.931 . S
H202 C190 0.929 . S
O203 Tb204 2.292 . S
O203 C206 1.255 . S
Tb204 O203 2.292 . S
Tb204 O220 2.326 . S
Tb204 O222 2.500 . S
Tb204 O223 2.473 . S
Tb204 O226 2.324 . S
Eu205 O209 2.292 1_455 S
Eu205 C210 2.852 1_455 S
Eu205 O221 2.324 . S
Eu205 O225 2.326 . S
Eu205 O227 2.500 1_455 S
Eu205 O228 2.473 1_455 S
C206 O203 1.255 . S
C206 O207 1.247 . S
O207 C206 1.247 . S
C208 O220 1.242 . S
C208 O221 1.258 . S
O209 Eu205 2.292 1_655 S
O209 C211 1.256 . S
C210 Eu205 2.852 1_655 S
C210 C214 1.503 . S
C210 O227 1.273 . S
C210 O228 1.257 . S
C211 O209 1.256 . S
C211 O212 1.246 1_655 S
O212 C211 1.246 1_455 S
C213 O225 1.242 . S
C213 O226 1.258 . S
C214 C210 1.503 . S
C214 C215 1.379 . S
C214 C219 1.392 . S
C215 C214 1.379 . S
C215 C216 1.404 . S
C215 H229 0.929 . S
C216 C215 1.404 . S
C216 C217 1.389 . S
C217 C216 1.389 . S
C217 C218 1.399 . S
C217 H230 0.931 . S
C218 C217 1.399 . S
C218 C219 1.390 . S
C219 C214 1.392 . S
C219 C218 1.390 . S
C219 H231 0.929 . S
O220 Tb204 2.326 . S
O220 C208 1.242 . S
O221 Eu205 2.324 . S
O221 C208 1.258 . S
O222 Tb204 2.500 . S
O222 C224 1.273 . S
O223 Tb204 2.473 . S
O223 C224 1.257 . S
C224 O222 1.273 . S
C224 O223 1.257 . S
O225 Eu205 2.326 . S
O225 C213 1.242 . S
O226 Tb204 2.324 . S
O226 C213 1.258 . S
O227 Eu205 2.500 1_655 S
O227 C210 1.273 . S
O228 Eu205 2.473 1_655 S
O228 C210 1.257 . S
H229 C215 0.929 . S
H230 C217 0.931 . S
H231 C219 0.929 . S
O232 Tb233 2.292 . S
O232 C235 1.255 . S
Tb233 O232 2.292 . S
Tb233 O249 2.326 . S
Tb233 O251 2.500 . S
Tb233 O252 2.473 . S
Tb233 O255 2.324 . S
Eu234 O238 2.292 . S
Eu234 C239 2.852 . S
Eu234 O250 2.324 . S
Eu234 O254 2.326 . S
Eu234 O256 2.500 . S
Eu234 O257 2.473 . S
C235 O232 1.255 . S
C235 O236 1.247 . S
O236 C235 1.247 . S
C237 O249 1.242 . S
C237 O250 1.258 . S
O238 Eu234 2.292 . S
O238 C240 1.255 . S
C239 Eu234 2.852 . S
C239 C243 1.503 . S
C239 O256 1.273 . S
C239 O257 1.257 . S
C240 O238 1.255 . S
C240 O241 1.247 . S
O241 C240 1.247 . S
C242 O254 1.242 . S
C242 O255 1.258 . S
C243 C239 1.503 . S
C243 C244 1.379 . S
C243 C248 1.392 . S
C244 C243 1.379 . S
C244 C245 1.404 . S
C244 H258 0.929 . S
C245 C244 1.404 . S
C245 C246 1.389 . S
C246 C245 1.389 . S
C246 C247 1.399 . S
C246 H259 0.931 . S
C247 C246 1.399 . S
C247 C248 1.390 . S
C248 C243 1.392 . S
C248 C247 1.390 . S
C248 H260 0.929 . S
O249 Tb233 2.326 . S
O249 C237 1.242 . S
O250 Eu234 2.324 . S
O250 C237 1.258 . S
O251 Tb233 2.500 . S
O251 C253 1.273 . S
O252 Tb233 2.473 . S
O252 C253 1.257 . S
C253 O251 1.273 . S
C253 O252 1.257 . S
O254 Eu234 2.326 . S
O254 C242 1.242 . S
O255 Tb233 2.324 . S
O255 C242 1.258 . S
O256 Eu234 2.500 . S
O256 C239 1.273 . S
O257 Eu234 2.473 . S
O257 C239 1.257 . S
H258 C244 0.929 . S
H259 C246 0.931 . S
H260 C248 0.929 . S
O261 Tb262 2.292 . S
O261 C264 1.255 . S
Tb262 O261 2.292 . S
Tb262 O278 2.326 . S
Tb262 O280 2.500 . S
Tb262 O281 2.473 . S
Tb262 O284 2.324 . S
Eu263 O267 2.292 1_655 S
Eu263 C268 2.852 1_655 S
Eu263 O279 2.324 . S
Eu263 O283 2.326 . S
Eu263 O285 2.500 1_655 S
Eu263 O286 2.473 1_655 S
C264 O261 1.255 . S
C264 O265 1.247 . S
O265 C264 1.247 . S
C266 O278 1.242 . S
C266 O279 1.258 . S
O267 Eu263 2.292 1_455 S
O267 C269 1.256 . S
C268 Eu263 2.852 1_455 S
C268 C272 1.503 . S
C268 O285 1.273 . S
C268 O286 1.257 . S
C269 O267 1.256 . S
C269 O270 1.246 1_455 S
O270 C269 1.246 1_655 S
C271 O283 1.242 . S
C271 O284 1.258 . S
C272 C268 1.503 . S
C272 C273 1.379 . S
C272 C277 1.392 . S
C273 C272 1.379 . S
C273 C274 1.404 . S
C273 H287 0.929 . S
C274 C273 1.404 . S
C274 C275 1.389 . S
C275 C274 1.389 . S
C275 C276 1.399 . S
C275 H288 0.931 . S
C276 C275 1.399 . S
C276 C277 1.390 . S
C277 C272 1.392 . S
C277 C276 1.390 . S
C277 H289 0.929 . S
O278 Tb262 2.326 . S
O278 C266 1.242 . S
O279 Eu263 2.324 . S
O279 C266 1.258 . S
O280 Tb262 2.500 . S
O280 C282 1.273 . S
O281 Tb262 2.473 . S
O281 C282 1.257 . S
C282 O280 1.273 . S
C282 O281 1.257 . S
O283 Eu263 2.326 . S
O283 C271 1.242 . S
O284 Tb262 2.324 . S
O284 C271 1.258 . S
O285 Eu263 2.500 1_455 S
O285 C268 1.273 . S
O286 Eu263 2.473 1_455 S
O286 C268 1.257 . S
H287 C273 0.929 . S
H288 C275 0.931 . S
H289 C277 0.929 . S
O290 Tb291 2.292 . S
O290 C293 1.255 . S
Tb291 O290 2.292 . S
Tb291 O307 2.326 . S
Tb291 O309 2.500 . S
Tb291 O310 2.473 . S
Tb291 O313 2.324 . S
Eu292 O296 2.292 1_455 S
Eu292 C297 2.852 1_455 S
Eu292 O308 2.324 . S
Eu292 O312 2.326 . S
Eu292 O314 2.500 1_455 S
Eu292 O315 2.473 1_455 S
C293 O290 1.255 . S
C293 O294 1.247 . S
O294 C293 1.247 . S
C295 O307 1.242 . S
C295 O308 1.258 . S
O296 Eu292 2.292 1_655 S
O296 C298 1.256 . S
C297 Eu292 2.852 1_655 S
C297 C301 1.503 . S
C297 O314 1.273 . S
C297 O315 1.257 . S
C298 O296 1.256 . S
C298 O299 1.246 1_655 S
O299 C298 1.246 1_455 S
C300 O312 1.242 . S
C300 O313 1.258 . S
C301 C297 1.503 . S
C301 C302 1.379 . S
C301 C306 1.392 . S
C302 C301 1.379 . S
C302 C303 1.404 . S
C302 H316 0.929 . S
C303 C302 1.404 . S
C303 C304 1.389 . S
C304 C303 1.389 . S
C304 C305 1.399 . S
C304 H317 0.931 . S
C305 C304 1.399 . S
C305 C306 1.390 . S
C306 C301 1.392 . S
C306 C305 1.390 . S
C306 H318 0.929 . S
O307 Tb291 2.326 . S
O307 C295 1.242 . S
O308 Eu292 2.324 . S
O308 C295 1.258 . S
O309 Tb291 2.500 . S
O309 C311 1.273 . S
O310 Tb291 2.473 . S
O310 C311 1.257 . S
C311 O309 1.273 . S
C311 O310 1.257 . S
O312 Eu292 2.326 . S
O312 C300 1.242 . S
O313 Tb291 2.324 . S
O313 C300 1.258 . S
O314 Eu292 2.500 1_655 S
O314 C297 1.273 . S
O315 Eu292 2.473 1_655 S
O315 C297 1.257 . S
H316 C302 0.929 . S
H317 C304 0.931 . S
H318 C306 0.929 . S
O319 Tb320 2.292 . S
O319 C322 1.255 . S
Tb320 O319 2.292 . S
Tb320 O336 2.326 . S
Tb320 O338 2.500 . S
Tb320 O339 2.473 . S
Tb320 O342 2.324 . S
Eu321 O325 2.292 . S
Eu321 C326 2.852 . S
Eu321 O337 2.324 . S
Eu321 O341 2.326 . S
Eu321 O343 2.500 . S
Eu321 O344 2.473 . S
C322 O319 1.255 . S
C322 O323 1.247 . S
O323 C322 1.247 . S
C324 O336 1.242 . S
C324 O337 1.258 . S
O325 Eu321 2.292 . S
O325 C327 1.255 . S
C326 Eu321 2.852 . S
C326 C330 1.503 . S
C326 O343 1.273 . S
C326 O344 1.257 . S
C327 O325 1.255 . S
C327 O328 1.247 . S
O328 C327 1.247 . S
C329 O341 1.242 . S
C329 O342 1.258 . S
C330 C326 1.503 . S
C330 C331 1.379 . S
C330 C335 1.392 . S
C331 C330 1.379 . S
C331 C332 1.404 . S
C331 H345 0.929 . S
C332 C331 1.404 . S
C332 C333 1.389 . S
C333 C332 1.389 . S
C333 C334 1.399 . S
C333 H346 0.931 . S
C334 C333 1.399 . S
C334 C335 1.390 . S
C335 C330 1.392 . S
C335 C334 1.390 . S
C335 H347 0.929 . S
O336 Tb320 2.326 . S
O336 C324 1.242 . S
O337 Eu321 2.324 . S
O337 C324 1.258 . S
O338 Tb320 2.500 . S
O338 C340 1.273 . S
O339 Tb320 2.473 . S
O339 C340 1.257 . S
C340 O338 1.273 . S
C340 O339 1.257 . S
O341 Eu321 2.326 . S
O341 C329 1.242 . S
O342 Tb320 2.324 . S
O342 C329 1.258 . S
O343 Eu321 2.500 . S
O343 C326 1.273 . S
O344 Eu321 2.473 . S
O344 C326 1.257 . S
H345 C331 0.929 . S
H346 C333 0.931 . S
H347 C335 0.929 . S
O348 Tb349 2.292 . S
O348 C351 1.255 . S
Tb349 O348 2.292 . S
Tb349 O365 2.326 . S
Tb349 O367 2.500 . S
Tb349 O368 2.473 . S
Tb349 O371 2.324 . S
Eu350 O354 2.292 . S
Eu350 C355 2.852 . S
Eu350 O366 2.324 . S
Eu350 O370 2.326 . S
Eu350 O372 2.500 . S
Eu350 O373 2.473 . S
C351 O348 1.255 . S
C351 O352 1.247 . S
O352 C351 1.247 . S
C353 O365 1.242 . S
C353 O366 1.258 . S
O354 Eu350 2.292 . S
O354 C356 1.255 . S
C355 Eu350 2.852 . S
C355 C359 1.503 . S
C355 O372 1.273 . S
C355 O373 1.257 . S
C356 O354 1.255 . S
C356 O357 1.247 . S
O357 C356 1.247 . S
C358 O370 1.242 . S
C358 O371 1.258 . S
C359 C355 1.503 . S
C359 C360 1.379 . S
C359 C364 1.392 . S
C360 C359 1.379 . S
C360 C361 1.404 . S
C360 H374 0.929 . S
C361 C360 1.404 . S
C361 C362 1.389 . S
C362 C361 1.389 . S
C362 C363 1.399 . S
C362 H375 0.931 . S
C363 C362 1.399 . S
C363 C364 1.390 . S
C364 C359 1.392 . S
C364 C363 1.390 . S
C364 H376 0.929 . S
O365 Tb349 2.326 . S
O365 C353 1.242 . S
O366 Eu350 2.324 . S
O366 C353 1.258 . S
O367 Tb349 2.500 . S
O367 C369 1.273 . S
O368 Tb349 2.473 . S
O368 C369 1.257 . S
C369 O367 1.273 . S
C369 O368 1.257 . S
O370 Eu350 2.326 . S
O370 C358 1.242 . S
O371 Tb349 2.324 . S
O371 C358 1.258 . S
O372 Eu350 2.500 . S
O372 C355 1.273 . S
O373 Eu350 2.473 . S
O373 C355 1.257 . S
H374 C360 0.929 . S
H375 C362 0.931 . S
H376 C364 0.929 . S
O377 Tb378 2.292 . S
O377 C380 1.255 . S
Tb378 O377 2.292 . S
Tb378 O394 2.326 . S
Tb378 O396 2.500 . S
Tb378 O397 2.473 . S
Tb378 O400 2.324 . S
Eu379 O383 2.292 1_455 S
Eu379 C384 2.852 1_455 S
Eu379 O395 2.324 . S
Eu379 O399 2.326 . S
Eu379 O401 2.500 1_455 S
Eu379 O402 2.473 1_455 S
C380 O377 1.255 . S
C380 O381 1.247 . S
O381 C380 1.247 . S
C382 O394 1.242 . S
C382 O395 1.258 . S
O383 Eu379 2.292 1_655 S
O383 C385 1.256 . S
C384 Eu379 2.852 1_655 S
C384 C388 1.503 . S
C384 O401 1.273 . S
C384 O402 1.257 . S
C385 O383 1.256 . S
C385 O386 1.246 1_655 S
O386 C385 1.246 1_455 S
C387 O399 1.242 . S
C387 O400 1.258 . S
C388 C384 1.503 . S
C388 C389 1.379 . S
C388 C393 1.392 . S
C389 C388 1.379 . S
C389 C390 1.404 . S
C389 H403 0.929 . S
C390 C389 1.404 . S
C390 C391 1.389 . S
C391 C390 1.389 . S
C391 C392 1.399 . S
C391 H404 0.931 . S
C392 C391 1.399 . S
C392 C393 1.390 . S
C393 C388 1.392 . S
C393 C392 1.390 . S
C393 H405 0.929 . S
O394 Tb378 2.326 . S
O394 C382 1.242 . S
O395 Eu379 2.324 . S
O395 C382 1.258 . S
O396 Tb378 2.500 . S
O396 C398 1.273 . S
O397 Tb378 2.473 . S
O397 C398 1.257 . S
C398 O396 1.273 . S
C398 O397 1.257 . S
O399 Eu379 2.326 . S
O399 C387 1.242 . S
O400 Tb378 2.324 . S
O400 C387 1.258 . S
O401 Eu379 2.500 1_655 S
O401 C384 1.273 . S
O402 Eu379 2.473 1_655 S
O402 C384 1.257 . S
H403 C389 0.929 . S
H404 C391 0.931 . S
H405 C393 0.929 . S
O406 Tb407 2.292 . S
O406 C409 1.255 . S
Tb407 O406 2.292 . S
Tb407 O423 2.326 . S
Tb407 O425 2.500 . S
Tb407 O426 2.473 . S
Tb407 O429 2.324 . S
Eu408 O412 2.292 1_655 S
Eu408 C413 2.852 1_655 S
Eu408 O424 2.324 . S
Eu408 O428 2.326 . S
Eu408 O430 2.500 1_655 S
Eu408 O431 2.473 1_655 S
C409 O406 1.255 . S
C409 O410 1.247 . S
O410 C409 1.247 . S
C411 O423 1.242 . S
C411 O424 1.258 . S
O412 Eu408 2.292 1_455 S
O412 C414 1.256 . S
C413 Eu408 2.852 1_455 S
C413 C417 1.503 . S
C413 O430 1.273 . S
C413 O431 1.257 . S
C414 O412 1.256 . S
C414 O415 1.246 1_455 S
O415 C414 1.246 1_655 S
C416 O428 1.242 . S
C416 O429 1.258 . S
C417 C413 1.503 . S
C417 C418 1.379 . S
C417 C422 1.392 . S
C418 C417 1.379 . S
C418 C419 1.404 . S
C418 H432 0.929 . S
C419 C418 1.404 . S
C419 C420 1.389 . S
C420 C419 1.389 . S
C420 C421 1.399 . S
C420 H433 0.931 . S
C421 C420 1.399 . S
C421 C422 1.390 . S
C422 C417 1.392 . S
C422 C421 1.390 . S
C422 H434 0.929 . S
O423 Tb407 2.326 . S
O423 C411 1.242 . S
O424 Eu408 2.324 . S
O424 C411 1.258 . S
O425 Tb407 2.500 . S
O425 C427 1.273 . S
O426 Tb407 2.473 . S
O426 C427 1.257 . S
C427 O425 1.273 . S
C427 O426 1.257 . S
O428 Eu408 2.326 . S
O428 C416 1.242 . S
O429 Tb407 2.324 . S
O429 C416 1.258 . S
O430 Eu408 2.500 1_455 S
O430 C413 1.273 . S
O431 Eu408 2.473 1_455 S
O431 C413 1.257 . S
H432 C418 0.929 . S
H433 C420 0.931 . S
H434 C422 0.929 . S
O435 Tb436 2.292 . S
O435 C438 1.255 . S
Tb436 O435 2.292 . S
Tb436 O452 2.326 . S
Tb436 O454 2.500 . S
Tb436 O455 2.473 . S
Tb436 O458 2.324 . S
Eu437 O441 2.292 . S
Eu437 C442 2.852 . S
Eu437 O453 2.324 . S
Eu437 O457 2.326 . S
Eu437 O459 2.500 . S
Eu437 O460 2.473 . S
C438 O435 1.255 . S
C438 O439 1.247 . S
O439 C438 1.247 . S
C440 O452 1.242 . S
C440 O453 1.258 . S
O441 Eu437 2.292 . S
O441 C443 1.255 . S
C442 Eu437 2.852 . S
C442 C446 1.503 . S
C442 O459 1.273 . S
C442 O460 1.257 . S
C443 O441 1.255 . S
C443 O444 1.247 . S
O444 C443 1.247 . S
C445 O457 1.242 . S
C445 O458 1.258 . S
C446 C442 1.503 . S
C446 C447 1.379 . S
C446 C451 1.392 . S
C447 C446 1.379 . S
C447 C448 1.404 . S
C447 H461 0.929 . S
C448 C447 1.404 . S
C448 C449 1.389 . S
C449 C448 1.389 . S
C449 C450 1.399 . S
C449 H462 0.931 . S
C450 C449 1.399 . S
C450 C451 1.390 . S
C451 C446 1.392 . S
C451 C450 1.390 . S
C451 H463 0.929 . S
O452 Tb436 2.326 . S
O452 C440 1.242 . S
O453 Eu437 2.324 . S
O453 C440 1.258 . S
O454 Tb436 2.500 . S
O454 C456 1.273 . S
O455 Tb436 2.473 . S
O455 C456 1.257 . S
C456 O454 1.273 . S
C456 O455 1.257 . S
O457 Eu437 2.326 . S
O457 C445 1.242 . S
O458 Tb436 2.324 . S
O458 C445 1.258 . S
O459 Eu437 2.500 . S
O459 C442 1.273 . S
O460 Eu437 2.473 . S
O460 C442 1.257 . S
H461 C447 0.929 . S
H462 C449 0.931 . S
H463 C451 0.929 . S
C464 C465 1.369 . S
C464 C466 1.419 . S
C464 H468 0.930 . S
C465 C464 1.369 . S
C465 C474 1.429 . S
C466 C464 1.419 . S
C466 C467 1.363 . S
C466 H469 0.929 . S
C467 C466 1.363 . S
C467 C473 1.428 . S
H468 C464 0.930 . S
H469 C466 0.929 . S
S470 N471 1.613 . S
S470 N472 1.610 . S
N471 S470 1.613 . S
N471 C474 1.350 . S
N472 S470 1.610 . S
N472 C473 1.351 . S
C473 C467 1.428 . S
C473 N472 1.351 . S
C473 C474 1.434 . S
C474 C465 1.429 . S
C474 N471 1.350 . S
C474 C473 1.434 . S
C475 C476 1.369 . S
C475 C477 1.419 1_455 S
C475 H479 0.930 . S
C476 C475 1.369 . S
C476 C485 1.429 . S
C477 C475 1.419 1_655 S
C477 C478 1.363 . S
C477 H480 0.929 . S
C478 C477 1.363 . S
C478 C484 1.428 . S
H479 C475 0.930 . S
H480 C477 0.929 . S
S481 N482 1.613 . S
S481 N483 1.610 1_455 S
N482 S481 1.613 . S
N482 C485 1.350 . S
N483 S481 1.610 1_655 S
N483 C484 1.351 . S
C484 C478 1.428 . S
C484 N483 1.351 . S
C484 C485 1.434 1_655 S
C485 C476 1.429 . S
C485 N482 1.350 . S
C485 C484 1.434 1_455 S
C486 C487 1.369 . S
C486 C488 1.419 1_655 S
C486 H490 0.930 . S
C487 C486 1.369 . S
C487 C496 1.429 . S
C488 C486 1.419 1_455 S
C488 C489 1.363 . S
C488 H491 0.929 . S
C489 C488 1.363 . S
C489 C495 1.428 . S
H490 C486 0.930 . S
H491 C488 0.929 . S
S492 N493 1.613 . S
S492 N494 1.610 1_655 S
N493 S492 1.613 . S
N493 C496 1.350 . S
N494 S492 1.610 1_455 S
N494 C495 1.351 . S
C495 C489 1.428 . S
C495 N494 1.351 . S
C495 C496 1.434 1_455 S
C496 C487 1.429 . S
C496 N493 1.350 . S
C496 C495 1.434 1_655 S
C497 C498 1.369 . S
C497 C499 1.419 . S
C497 H501 0.930 . S
C498 C497 1.369 . S
C498 C507 1.429 . S
C499 C497 1.419 . S
C499 C500 1.363 . S
C499 H502 0.929 . S
C500 C499 1.363 . S
C500 C506 1.428 . S
H501 C497 0.930 . S
H502 C499 0.929 . S
S503 N504 1.613 . S
S503 N505 1.610 . S
N504 S503 1.613 . S
N504 C507 1.350 . S
N505 S503 1.610 . S
N505 C506 1.351 . S
C506 C500 1.428 . S
C506 N505 1.351 . S
C506 C507 1.434 . S
C507 C498 1.429 . S
C507 N504 1.350 . S
C507 C506 1.434 . S
C508 C509 1.369 . S
C508 C510 1.419 . S
C508 H512 0.930 . S
C509 C508 1.369 . S
C509 C518 1.429 . S
C510 C508 1.419 . S
C510 C511 1.363 . S
C510 H513 0.929 . S
C511 C510 1.363 . S
C511 C517 1.428 . S
H512 C508 0.930 . S
H513 C510 0.929 . S
S514 N515 1.613 . S
S514 N516 1.610 . S
N515 S514 1.613 . S
N515 C518 1.350 . S
N516 S514 1.610 . S
N516 C517 1.351 . S
C517 C511 1.428 . S
C517 N516 1.351 . S
C517 C518 1.434 . S
C518 C509 1.429 . S
C518 N515 1.350 . S
C518 C517 1.434 . S
C519 C520 1.369 . S
C519 C521 1.419 1_455 S
C519 H523 0.930 . S
C520 C519 1.369 . S
C520 C529 1.429 . S
C521 C519 1.419 1_655 S
C521 C522 1.363 . S
C521 H524 0.929 . S
C522 C521 1.363 . S
C522 C528 1.428 . S
H523 C519 0.930 . S
H524 C521 0.929 . S
S525 N526 1.613 1_655 S
S525 N527 1.610 . S
N526 S525 1.613 1_455 S
N526 C529 1.350 . S
N527 S525 1.610 . S
N527 C528 1.351 . S
C528 C522 1.428 . S
C528 N527 1.351 . S
C528 C529 1.434 1_655 S
C529 C520 1.429 . S
C529 N526 1.350 . S
C529 C528 1.434 1_455 S
C530 C531 1.369 . S
C530 C532 1.419 1_655 S
C530 H534 0.930 . S
C531 C530 1.369 . S
C531 C540 1.429 . S
C532 C530 1.419 1_455 S
C532 C533 1.363 . S
C532 H535 0.929 . S
C533 C532 1.363 . S
C533 C539 1.428 . S
H534 C530 0.930 . S
H535 C532 0.929 . S
S536 N537 1.613 1_455 S
S536 N538 1.610 . S
N537 S536 1.613 1_655 S
N537 C540 1.350 . S
N538 S536 1.610 . S
N538 C539 1.351 . S
C539 C533 1.428 . S
C539 N538 1.351 . S
C539 C540 1.434 1_455 S
C540 C531 1.429 . S
C540 N537 1.350 . S
C540 C539 1.434 1_655 S
C541 C542 1.369 . S
C541 C543 1.419 . S
C541 H545 0.930 . S
C542 C541 1.369 . S
C542 C551 1.429 . S
C543 C541 1.419 . S
C543 C544 1.363 . S
C543 H546 0.929 . S
C544 C543 1.363 . S
C544 C550 1.428 . S
H545 C541 0.930 . S
H546 C543 0.929 . S
S547 N548 1.613 . S
S547 N549 1.610 . S
N548 S547 1.613 . S
N548 C551 1.350 . S
N549 S547 1.610 . S
N549 C550 1.351 . S
C550 C544 1.428 . S
C550 N549 1.351 . S
C550 C551 1.434 . S
C551 C542 1.429 . S
C551 N548 1.350 . S
C551 C550 1.434 . S
C552 C553 1.369 . S
C552 C554 1.419 1_655 S
C552 H556 0.930 . S
C553 C552 1.369 . S
C553 C562 1.429 . S
C554 C552 1.419 1_455 S
C554 C555 1.363 . S
C554 H557 0.929 . S
C555 C554 1.363 . S
C555 C561 1.428 . S
H556 C552 0.930 . S
H557 C554 0.929 . S
S558 N559 1.613 1_455 S
S558 N560 1.610 . S
N559 S558 1.613 1_655 S
N559 C562 1.350 . S
N560 S558 1.610 . S
N560 C561 1.351 . S
C561 C555 1.428 . S
C561 N560 1.351 . S
C561 C562 1.434 1_455 S
C562 C553 1.429 . S
C562 N559 1.350 . S
C562 C561 1.434 1_655 S
C563 C564 1.369 . S
C563 C565 1.419 . S
C563 H567 0.930 . S
C564 C563 1.369 . S
C564 C573 1.429 . S
C565 C563 1.419 . S
C565 C566 1.363 . S
C565 H568 0.929 . S
C566 C565 1.363 . S
C566 C572 1.428 . S
H567 C563 0.930 . S
H568 C565 0.929 . S
S569 N570 1.613 . S
S569 N571 1.610 . S
N570 S569 1.613 . S
N570 C573 1.350 . S
N571 S569 1.610 . S
N571 C572 1.351 . S
C572 C566 1.428 . S
C572 N571 1.351 . S
C572 C573 1.434 . S
C573 C564 1.429 . S
C573 N570 1.350 . S
C573 C572 1.434 . S
C574 C575 1.369 . S
C574 C576 1.419 . S
C574 H578 0.930 . S
C575 C574 1.369 . S
C575 C584 1.429 . S
C576 C574 1.419 . S
C576 C577 1.363 . S
C576 H579 0.929 . S
C577 C576 1.363 . S
C577 C583 1.428 . S
H578 C574 0.930 . S
H579 C576 0.929 . S
S580 N581 1.613 . S
S580 N582 1.610 . S
N581 S580 1.613 . S
N581 C584 1.350 . S
N582 S580 1.610 . S
N582 C583 1.351 . S
C583 C577 1.428 . S
C583 N582 1.351 . S
C583 C584 1.434 . S
C584 C575 1.429 . S
C584 N581 1.350 . S
C584 C583 1.434 . S
C585 C586 1.369 . S
C585 C587 1.419 1_455 S
C585 H589 0.930 . S
C586 C585 1.369 . S
C586 C595 1.429 . S
C587 C585 1.419 1_655 S
C587 C588 1.363 . S
C587 H590 0.929 . S
C588 C587 1.363 . S
C588 C594 1.428 . S
H589 C585 0.930 . S
H590 C587 0.929 . S
S591 N592 1.613 1_655 S
S591 N593 1.610 . S
N592 S591 1.613 1_455 S
N592 C595 1.350 . S
N593 S591 1.610 . S
N593 C594 1.351 . S
C594 C588 1.428 . S
C594 N593 1.351 . S
C594 C595 1.434 1_655 S
C595 C586 1.429 . S
C595 N592 1.350 . S
C595 C594 1.434 1_455 S
C596 C597 1.369 . S
C596 C598 1.419 1_455 S
C596 H600 0.930 . S
C597 C596 1.369 . S
C597 C606 1.429 . S
C598 C596 1.419 1_655 S
C598 C599 1.363 . S
C598 H601 0.929 . S
C599 C598 1.363 . S
C599 C605 1.428 . S
H600 C596 0.930 . S
H601 C598 0.929 . S
S602 N603 1.613 1_655 S
S602 N604 1.610 . S
N603 S602 1.613 1_455 S
N603 C606 1.350 . S
N604 S602 1.610 . S
N604 C605 1.351 . S
C605 C599 1.428 . S
C605 N604 1.351 . S
C605 C606 1.434 1_655 S
C606 C597 1.429 . S
C606 N603 1.350 . S
C606 C605 1.434 1_455 S
C607 C608 1.369 . S
C607 C609 1.419 . S
C607 H611 0.930 . S
C608 C607 1.369 . S
C608 C617 1.429 . S
C609 C607 1.419 . S
C609 C610 1.363 . S
C609 H612 0.929 . S
C610 C609 1.363 . S
C610 C616 1.428 . S
H611 C607 0.930 . S
H612 C609 0.929 . S
S613 N614 1.613 . S
S613 N615 1.610 . S
N614 S613 1.613 . S
N614 C617 1.350 . S
N615 S613 1.610 . S
N615 C616 1.351 . S
C616 C610 1.428 . S
C616 N615 1.351 . S
C616 C617 1.434 . S
C617 C608 1.429 . S
C617 N614 1.350 . S
C617 C616 1.434 . S
C618 C619 1.369 . S
C618 C620 1.419 . S
C618 H622 0.930 . S
C619 C618 1.369 . S
C619 C628 1.429 . S
C620 C618 1.419 . S
C620 C621 1.363 . S
C620 H623 0.929 . S
C621 C620 1.363 . S
C621 C627 1.428 . S
H622 C618 0.930 . S
H623 C620 0.929 . S
S624 N625 1.613 . S
S624 N626 1.610 . S
N625 S624 1.613 . S
N625 C628 1.350 . S
N626 S624 1.610 . S
N626 C627 1.351 . S
C627 C621 1.428 . S
C627 N626 1.351 . S
C627 C628 1.434 . S
C628 C619 1.429 . S
C628 N625 1.350 . S
C628 C627 1.434 . S
C629 C630 1.369 . S
C629 C631 1.419 1_455 S
C629 H633 0.930 . S
C630 C629 1.369 . S
C630 C639 1.429 . S
C631 C629 1.419 1_655 S
C631 C632 1.363 . S
C631 H634 0.929 . S
C632 C631 1.363 . S
C632 C638 1.428 . S
H633 C629 0.930 . S
H634 C631 0.929 . S
S635 N636 1.613 1_655 S
S635 N637 1.610 . S
N636 S635 1.613 1_455 S
N636 C639 1.350 . S
N637 S635 1.610 . S
N637 C638 1.351 . S
C638 C632 1.428 . S
C638 N637 1.351 . S
C638 C639 1.434 1_655 S
C639 C630 1.429 . S
C639 N636 1.350 . S
C639 C638 1.434 1_455 S
C640 C641 1.369 1_556 S
C640 C642 1.419 . S
C640 H644 0.924 1_556 S
C641 C640 1.369 1_554 S
C641 C650 1.429 . S
C642 C640 1.419 . S
C642 C643 1.363 . S
C642 H645 0.929 . S
C643 C642 1.363 . S
C643 C649 1.428 . S
H644 C640 0.924 1_554 S
H645 C642 0.929 . S
S646 N647 1.613 . S
S646 N648 1.610 1_554 S
N647 S646 1.613 . S
N647 C650 1.350 . S
N648 S646 1.610 1_556 S
N648 C649 1.351 . S
C649 C643 1.428 . S
C649 N648 1.351 . S
C649 C650 1.434 1_556 S
C650 C641 1.429 . S
C650 N647 1.350 . S
C650 C649 1.434 1_554 S
C651 C652 1.369 . S
C651 C653 1.419 1_554 S
C651 H655 0.930 . S
C652 C651 1.369 . S
C652 C661 1.455 . S
C653 C651 1.419 1_556 S
C653 C654 1.363 . S
C653 H656 0.929 . S
C654 C653 1.363 . S
C654 C660 1.428 . S
H655 C651 0.930 . S
H656 C653 0.929 . S
S657 N658 1.613 1_556 S
S657 N659 1.610 . S
N658 S657 1.613 1_554 S
N658 C661 1.364 . S
N659 S657 1.610 . S
N659 C660 1.351 . S
C660 C654 1.428 . S
C660 N659 1.351 . S
C660 C661 1.390 1_556 S
C661 C652 1.455 . S
C661 N658 1.364 . S
C661 C660 1.390 1_554 S
C662 C663 1.369 . S
C662 C664 1.419 . S
C662 H666 0.930 . S
C663 C662 1.369 . S
C663 C672 1.429 . S
C664 C662 1.419 . S
C664 C665 1.363 . S
C664 H667 0.929 . S
C665 C664 1.363 . S
C665 C671 1.428 . S
H666 C662 0.930 . S
H667 C664 0.929 . S
S668 N669 1.613 . S
S668 N670 1.610 . S
N669 S668 1.613 . S
N669 C672 1.350 . S
N670 S668 1.610 . S
N670 C671 1.351 . S
C671 C665 1.428 . S
C671 N670 1.351 . S
C671 C672 1.434 . S
C672 C663 1.429 . S
C672 N669 1.350 . S
C672 C671 1.434 . S
C673 C674 1.369 . S
C673 C675 1.419 . S
C673 H677 0.930 . S
C674 C673 1.369 . S
C674 C683 1.429 . S
C675 C673 1.419 . S
C675 C676 1.363 . S
C675 H678 0.929 . S
C676 C675 1.363 . S
C676 C682 1.428 . S
H677 C673 0.930 . S
H678 C675 0.929 . S
S679 N680 1.613 . S
S679 N681 1.610 . S
N680 S679 1.613 . S
N680 C683 1.350 . S
N681 S679 1.610 . S
N681 C682 1.351 . S
C682 C676 1.428 . S
C682 N681 1.351 . S
C682 C683 1.434 . S
C683 C674 1.429 . S
C683 N680 1.350 . S
C683 C682 1.434 . S
C684 C685 1.355 1_554 S
C684 C686 1.440 . S
C684 H688 0.923 1_554 S
C685 C684 1.355 1_556 S
C685 C694 1.429 . S
C686 C684 1.440 . S
C686 C687 1.363 . S
C686 H689 0.929 . S
C687 C686 1.363 . S
C687 C693 1.428 . S
H688 C684 0.923 1_556 S
H689 C686 0.929 . S
S690 N691 1.611 1_554 S
S690 N692 1.614 . S
N691 S690 1.611 1_556 S
N691 C694 1.350 . S
N692 S690 1.614 . S
N692 C693 1.351 . S
C693 C687 1.428 . S
C693 N692 1.351 . S
C693 C694 1.434 1_554 S
C694 C685 1.429 . S
C694 N691 1.350 . S
C694 C693 1.434 1_556 S
C695 C696 1.369 . S
C695 C697 1.419 1_556 S
C695 H699 0.930 . S
C696 C695 1.369 . S
C696 C705 1.429 1_556 S
C697 C695 1.419 1_554 S
C697 C698 1.363 . S
C697 H700 0.929 . S
C698 C697 1.363 . S
C698 C704 1.428 . S
H699 C695 0.930 . S
H700 C697 0.929 . S
S701 N702 1.613 1_554 S
S701 N703 1.610 . S
N702 S701 1.613 1_556 S
N702 C705 1.350 1_556 S
N703 S701 1.610 . S
N703 C704 1.351 . S
C704 C698 1.428 . S
C704 N703 1.351 . S
C704 C705 1.434 . S
C705 C696 1.429 1_554 S
C705 N702 1.350 1_554 S
C705 C704 1.434 . S
C706 C707 1.369 . S
C706 C708 1.419 . S
C706 H710 0.930 . S
C707 C706 1.369 . S
C707 C716 1.429 . S
C708 C706 1.419 . S
C708 C709 1.363 . S
C708 H711 0.929 . S
C709 C708 1.363 . S
C709 C715 1.428 . S
H710 C706 0.930 . S
H711 C708 0.929 . S
S712 N713 1.613 . S
S712 N714 1.610 . S
N713 S712 1.613 . S
N713 C716 1.350 . S
N714 S712 1.610 . S
N714 C715 1.351 . S
C715 C709 1.428 . S
C715 N714 1.351 . S
C715 C716 1.434 . S
C716 C707 1.429 . S
C716 N713 1.350 . S
C716 C715 1.434 . S
C717 C718 1.369 . S
C717 C719 1.419 . S
C717 H721 0.930 . S
C718 C717 1.369 . S
C718 C727 1.429 . S
C719 C717 1.419 . S
C719 C720 1.363 . S
C719 H722 0.929 . S
C720 C719 1.363 . S
C720 C726 1.428 . S
H721 C717 0.930 . S
H722 C719 0.929 . S
S723 N724 1.613 . S
S723 N725 1.610 . S
N724 S723 1.613 . S
N724 C727 1.350 . S
N725 S723 1.610 . S
N725 C726 1.351 . S
C726 C720 1.428 . S
C726 N725 1.351 . S
C726 C727 1.434 . S
C727 C718 1.429 . S
C727 N724 1.350 . S
C727 C726 1.434 . S
C728 C729 1.369 . S
C728 C730 1.419 1_554 S
C728 H732 0.930 . S
C729 C728 1.369 . S
C729 C738 1.429 1_554 S
C730 C728 1.419 1_556 S
C730 C731 1.363 . S
C730 H733 0.929 . S
C731 C730 1.363 . S
C731 C737 1.428 . S
H732 C728 0.930 . S
H733 C730 0.929 . S
S734 N735 1.577 1_556 S
S734 N736 1.610 . S
N735 S734 1.577 1_554 S
N735 C738 1.345 1_554 S
N736 S734 1.610 . S
N736 C737 1.351 . S
C737 C731 1.428 . S
C737 N736 1.351 . S
C737 C738 1.434 . S
C738 C729 1.429 1_556 S
C738 N735 1.345 1_556 S
C738 C737 1.434 . S
C739 C740 1.369 . S
C739 C741 1.419 1_556 S
C739 H743 0.930 . S
C740 C739 1.369 . S
C740 C749 1.429 . S
C741 C739 1.419 1_554 S
C741 C742 1.363 . S
C741 H744 0.929 . S
C742 C741 1.363 . S
C742 C748 1.428 . S
H743 C739 0.930 . S
H744 C741 0.929 . S
S745 N746 1.613 . S
S745 N747 1.610 1_556 S
N746 S745 1.613 . S
N746 C749 1.350 . S
N747 S745 1.610 1_554 S
N747 C748 1.351 . S
C748 C742 1.428 . S
C748 N747 1.351 . S
C748 C749 1.434 1_554 S
C749 C740 1.429 . S
C749 N746 1.350 . S
C749 C748 1.434 1_556 S
C750 C751 1.369 . S
C750 C752 1.419 . S
C750 H754 0.930 . S
C751 C750 1.369 . S
C751 C760 1.429 . S
C752 C750 1.419 . S
C752 C753 1.363 . S
C752 H755 0.929 . S
C753 C752 1.363 . S
C753 C759 1.428 . S
H754 C750 0.930 . S
H755 C752 0.929 . S
S756 N757 1.613 . S
S756 N758 1.610 . S
N757 S756 1.613 . S
N757 C760 1.350 . S
N758 S756 1.610 . S
N758 C759 1.351 . S
C759 C753 1.428 . S
C759 N758 1.351 . S
C759 C760 1.434 . S
C760 C751 1.429 . S
C760 N757 1.350 . S
C760 C759 1.434 . S
C761 C762 1.369 . S
C761 C763 1.419 . S
C761 H765 0.930 . S
C762 C761 1.369 . S
C762 C771 1.429 . S
C763 C761 1.419 . S
C763 C764 1.363 . S
C763 H766 0.929 . S
C764 C763 1.363 . S
C764 C770 1.428 . S
H765 C761 0.930 . S
H766 C763 0.929 . S
S767 N768 1.613 . S
S767 N769 1.610 . S
N768 S767 1.613 . S
N768 C771 1.350 . S
N769 S767 1.610 . S
N769 C770 1.351 . S
C770 C764 1.428 . S
C770 N769 1.351 . S
C770 C771 1.434 . S
C771 C762 1.429 . S
C771 N768 1.350 . S
C771 C770 1.434 . S
C772 C773 1.369 . S
C772 C774 1.419 1_554 S
C772 H776 0.930 . S
C773 C772 1.369 . S
C773 C782 1.429 . S
C774 C772 1.419 1_556 S
C774 C775 1.363 . S
C774 H777 0.929 . S
C775 C774 1.363 . S
C775 C781 1.428 1_556 S
H776 C772 0.930 . S
H777 C774 0.929 . S
S778 N779 1.613 . S
S778 N780 1.610 1_554 S
N779 S778 1.613 . S
N779 C782 1.350 . S
N780 S778 1.610 1_556 S
N780 C781 1.351 1_556 S
C781 C775 1.428 1_554 S
C781 N780 1.351 1_554 S
C781 C782 1.434 . S
C782 C773 1.429 . S
C782 N779 1.350 . S
C782 C781 1.434 . S
C783 C784 1.369 1_554 S
C783 C785 1.419 . S
C783 H787 0.930 1_554 S
C784 C783 1.369 1_556 S
C784 C793 1.429 . S
C785 C783 1.419 . S
C785 C786 1.363 . S
C785 H788 0.929 . S
C786 C785 1.363 . S
C786 C792 1.428 . S
H787 C783 0.930 1_556 S
H788 C785 0.929 . S
S789 N790 1.613 . S
S789 N791 1.610 1_556 S
N790 S789 1.613 . S
N790 C793 1.350 . S
N791 S789 1.610 1_554 S
N791 C792 1.351 . S
C792 C786 1.428 . S
C792 N791 1.351 . S
C792 C793 1.434 1_554 S
C793 C784 1.429 . S
C793 N790 1.350 . S
C793 C792 1.434 1_556 S
C794 C795 1.369 . S
C794 C796 1.419 . S
C794 H798 0.930 . S
C795 C794 1.369 . S
C795 C804 1.429 . S
C796 C794 1.419 . S
C796 C797 1.363 . S
C796 H799 0.929 . S
C797 C796 1.363 . S
C797 C803 1.428 . S
H798 C794 0.930 . S
H799 C796 0.929 . S
S800 N801 1.613 . S
S800 N802 1.610 . S
N801 S800 1.613 . S
N801 C804 1.350 . S
N802 S800 1.610 . S
N802 C803 1.351 . S
C803 C797 1.428 . S
C803 N802 1.351 . S
C803 C804 1.434 . S
C804 C795 1.429 . S
C804 N801 1.350 . S
C804 C803 1.434 . S
C805 C806 1.369 . S
C805 C807 1.419 . S
C805 H809 0.930 . S
C806 C805 1.369 . S
C806 C815 1.429 . S
C807 C805 1.419 . S
C807 C808 1.363 . S
C807 H810 0.929 . S
C808 C807 1.363 . S
C808 C814 1.428 . S
H809 C805 0.930 . S
H810 C807 0.929 . S
S811 N812 1.613 . S
S811 N813 1.610 . S
N812 S811 1.613 . S
N812 C815 1.350 . S
N813 S811 1.610 . S
N813 C814 1.351 . S
C814 C808 1.428 . S
C814 N813 1.351 . S
C814 C815 1.434 . S
C815 C806 1.429 . S
C815 N812 1.350 . S
C815 C814 1.434 . S
C816 C817 1.369 . S
C816 C818 1.419 1_545 S
C816 H820 0.930 . S
C817 C816 1.369 . S
C817 C826 1.429 . S
C818 C816 1.419 1_565 S
C818 C819 1.363 . S
C818 H821 0.929 . S
C819 C818 1.363 . S
C819 C825 1.428 . S
H820 C816 0.930 . S
H821 C818 0.929 . S
S822 N823 1.613 1_565 S
S822 N824 1.610 . S
N823 S822 1.613 1_545 S
N823 C826 1.350 . S
N824 S822 1.610 . S
N824 C825 1.351 . S
C825 C819 1.428 . S
C825 N824 1.351 . S
C825 C826 1.434 1_565 S
C826 C817 1.429 . S
C826 N823 1.350 . S
C826 C825 1.434 1_545 S
C827 C828 1.369 . S
C827 C829 1.419 . S
C827 H831 0.930 . S
C828 C827 1.369 . S
C828 C837 1.429 1_545 S
C829 C827 1.419 . S
C829 C830 1.363 1_545 S
C829 H832 0.929 . S
C830 C829 1.363 1_565 S
C830 C836 1.428 . S
H831 C827 0.930 . S
H832 C829 0.929 . S
S833 N834 1.613 . S
S833 N835 1.610 . S
N834 S833 1.613 . S
N834 C837 1.350 . S
N835 S833 1.610 . S
N835 C836 1.351 . S
C836 C830 1.428 . S
C836 N835 1.351 . S
C836 C837 1.434 . S
C837 C828 1.429 1_565 S
C837 N834 1.350 . S
C837 C836 1.434 . S
C838 C839 1.369 . S
C838 C840 1.419 1_565 S
C838 H842 0.930 . S
C839 C838 1.369 . S
C839 C848 1.429 . S
C840 C838 1.419 1_545 S
C840 C841 1.363 . S
C840 H843 0.929 . S
C841 C840 1.363 . S
C841 C847 1.428 . S
H842 C838 0.930 . S
H843 C840 0.929 . S
S844 N845 1.613 . S
S844 N846 1.610 1_565 S
N845 S844 1.613 . S
N845 C848 1.350 . S
N846 S844 1.610 1_545 S
N846 C847 1.351 . S
C847 C841 1.428 . S
C847 N846 1.351 . S
C847 C848 1.434 1_545 S
C848 C839 1.429 . S
C848 N845 1.350 . S
C848 C847 1.434 1_565 S
C849 C850 1.369 1_545 S
C849 C851 1.419 . S
C849 H853 0.930 . S
C850 C849 1.369 1_565 S
C850 C859 1.429 . S
C851 C849 1.419 . S
C851 C852 1.363 . S
C851 H854 0.929 . S
C852 C851 1.363 . S
C852 C858 1.428 1_545 S
H853 C849 0.930 . S
H854 C851 0.929 . S
S855 N856 1.613 . S
S855 N857 1.610 . S
N856 S855 1.613 . S
N856 C859 1.350 . S
N857 S855 1.610 . S
N857 C858 1.351 . S
C858 C852 1.428 1_565 S
C858 N857 1.351 . S
C858 C859 1.434 . S
C859 C850 1.429 . S
C859 N856 1.350 . S
C859 C858 1.434 . S
C860 C861 1.369 . S
C860 C862 1.419 . S
C860 H864 0.930 . S
C861 C860 1.369 . S
C861 C870 1.429 . S
C862 C860 1.419 . S
C862 C863 1.363 . S
C862 H865 0.929 . S
C863 C862 1.363 . S
C863 C869 1.428 . S
H864 C860 0.930 . S
H865 C862 0.929 . S
S866 N867 1.613 . S
S866 N868 1.610 . S
N867 S866 1.613 . S
N867 C870 1.350 . S
N868 S866 1.610 . S
N868 C869 1.351 . S
C869 C863 1.428 . S
C869 N868 1.351 . S
C869 C870 1.434 . S
C870 C861 1.429 . S
C870 N867 1.350 . S
C870 C869 1.434 . S
C871 C872 1.369 . S
C871 C873 1.419 . S
C871 H875 0.930 . S
C872 C871 1.369 . S
C872 C881 1.429 . S
C873 C871 1.419 . S
C873 C874 1.363 . S
C873 H876 0.929 . S
C874 C873 1.363 . S
C874 C880 1.428 . S
H875 C871 0.930 . S
H876 C873 0.929 . S
S877 N878 1.613 . S
S877 N879 1.610 . S
N878 S877 1.613 . S
N878 C881 1.350 . S
N879 S877 1.610 . S
N879 C880 1.351 . S
C880 C874 1.428 . S
C880 N879 1.351 . S
C880 C881 1.434 . S
C881 C872 1.429 . S
C881 N878 1.350 . S
C881 C880 1.434 . S
C882 C883 1.369 . S
C882 C884 1.419 . S
C882 H886 0.930 . S
C883 C882 1.369 . S
C883 C892 1.429 . S
C884 C882 1.419 . S
C884 C885 1.363 . S
C884 H887 0.929 . S
C885 C884 1.363 . S
C885 C891 1.428 . S
H886 C882 0.930 . S
H887 C884 0.929 . S
S888 N889 1.613 . S
S888 N890 1.610 . S
N889 S888 1.613 . S
N889 C892 1.350 . S
N890 S888 1.610 . S
N890 C891 1.351 . S
C891 C885 1.428 . S
C891 N890 1.351 . S
C891 C892 1.434 . S
C892 C883 1.429 . S
C892 N889 1.350 . S
C892 C891 1.434 . S
C893 C894 1.369 . S
C893 C895 1.419 . S
C893 H897 0.930 . S
C894 C893 1.369 . S
C894 C903 1.429 . S
C895 C893 1.419 . S
C895 C896 1.363 . S
C895 H898 0.929 . S
C896 C895 1.363 . S
C896 C902 1.428 . S
H897 C893 0.930 . S
H898 C895 0.929 . S
S899 N900 1.613 . S
S899 N901 1.610 . S
N900 S899 1.613 . S
N900 C903 1.350 . S
N901 S899 1.610 . S
N901 C902 1.351 . S
C902 C896 1.428 . S
C902 N901 1.351 . S
C902 C903 1.434 . S
C903 C894 1.429 . S
C903 N900 1.350 . S
C903 C902 1.434 . S
C904 C905 1.369 1_655 S
C904 C906 1.419 . S
C904 H908 0.930 . S
C905 C904 1.369 1_455 S
C905 C914 1.429 . S
C906 C904 1.419 . S
C906 C907 1.363 . S
C906 H909 0.929 . S
C907 C906 1.363 . S
C907 C913 1.428 1_655 S
H908 C904 0.930 . S
H909 C906 0.929 . S
S910 N911 1.613 . S
S910 N912 1.610 . S
N911 S910 1.613 . S
N911 C914 1.350 . S
N912 S910 1.610 . S
N912 C913 1.351 . S
C913 C907 1.428 1_455 S
C913 N912 1.351 . S
C913 C914 1.434 . S
C914 C905 1.429 . S
C914 N911 1.350 . S
C914 C913 1.434 . S
C915 C916 1.369 . S
C915 C917 1.419 . S
C915 H919 0.930 . S
C916 C915 1.369 . S
C916 C925 1.429 . S
C917 C915 1.419 . S
C917 C918 1.363 . S
C917 H920 0.929 . S
C918 C917 1.363 . S
C918 C924 1.428 . S
H919 C915 0.930 . S
H920 C917 0.929 . S
S921 N922 1.613 . S
S921 N923 1.610 . S
N922 S921 1.613 . S
N922 C925 1.350 . S
N923 S921 1.610 . S
N923 C924 1.351 . S
C924 C918 1.428 . S
C924 N923 1.351 . S
C924 C925 1.434 . S
C925 C916 1.429 . S
C925 N922 1.350 . S
C925 C924 1.434 . S
C926 C927 1.369 . S
C926 C928 1.419 . S
C926 H930 0.930 . S
C927 C926 1.369 . S
C927 C936 1.429 . S
C928 C926 1.419 . S
C928 C929 1.363 . S
C928 H931 0.929 . S
C929 C928 1.363 . S
C929 C935 1.428 . S
H930 C926 0.930 . S
H931 C928 0.929 . S
S932 N933 1.613 . S
S932 N934 1.610 . S
N933 S932 1.613 . S
N933 C936 1.350 . S
N934 S932 1.610 . S
N934 C935 1.351 . S
C935 C929 1.428 . S
C935 N934 1.351 . S
C935 C936 1.434 . S
C936 C927 1.429 . S
C936 N933 1.350 . S
C936 C935 1.434 . S
C937 C938 1.369 1_655 S
C937 C939 1.419 . S
C937 H941 0.930 . S
C938 C937 1.369 1_455 S
C938 C947 1.429 . S
C939 C937 1.419 . S
C939 C940 1.363 . S
C939 H942 0.929 . S
C940 C939 1.363 . S
C940 C946 1.428 1_655 S
H941 C937 0.930 . S
H942 C939 0.929 . S
S943 N944 1.613 . S
S943 N945 1.610 . S
N944 S943 1.613 . S
N944 C947 1.350 . S
N945 S943 1.610 . S
N945 C946 1.351 . S
C946 C940 1.428 1_455 S
C946 N945 1.351 . S
C946 C947 1.434 . S
C947 C938 1.429 . S
C947 N944 1.350 . S
C947 C946 1.434 . S
C948 C949 1.369 . S
C948 C950 1.419 1_655 S
C948 H952 0.930 . S
C949 C948 1.369 . S
C949 C958 1.429 1_655 S
C950 C948 1.419 1_455 S
C950 C951 1.363 . S
C950 H953 0.929 . S
C951 C950 1.363 . S
C951 C957 1.428 . S
H952 C948 0.930 . S
H953 C950 0.929 . S
S954 N955 1.613 . S
S954 N956 1.610 . S
N955 S954 1.613 . S
N955 C958 1.350 . S
N956 S954 1.610 . S
N956 C957 1.351 . S
C957 C951 1.428 . S
C957 N956 1.351 . S
C957 C958 1.434 . S
C958 C949 1.429 1_455 S
C958 N955 1.350 . S
C958 C957 1.434 . S
C959 C960 1.369 . S
C959 C961 1.419 . S
C959 H963 0.930 . S
C960 C959 1.369 . S
C960 C969 1.429 . S
C961 C959 1.419 . S
C961 C962 1.363 . S
C961 H964 0.929 . S
C962 C961 1.363 . S
C962 C968 1.428 . S
H963 C959 0.930 . S
H964 C961 0.929 . S
S965 N966 1.613 . S
S965 N967 1.610 . S
N966 S965 1.613 . S
N966 C969 1.350 . S
N967 S965 1.610 . S
N967 C968 1.351 . S
C968 C962 1.428 . S
C968 N967 1.351 . S
C968 C969 1.434 . S
C969 C960 1.429 . S
C969 N966 1.350 . S
C969 C968 1.434 . S
C970 C971 1.369 . S
C970 C972 1.419 . S
C970 H974 0.930 . S
C971 C970 1.369 . S
C971 C980 1.429 . S
C972 C970 1.419 . S
C972 C973 1.363 . S
C972 H975 0.929 . S
C973 C972 1.363 . S
C973 C979 1.428 . S
H974 C970 0.930 . S
H975 C972 0.929 . S
S976 N977 1.613 . S
S976 N978 1.610 . S
N977 S976 1.613 . S
N977 C980 1.350 . S
N978 S976 1.610 . S
N978 C979 1.351 . S
C979 C973 1.428 . S
C979 N978 1.351 . S
C979 C980 1.434 . S
C980 C971 1.429 . S
C980 N977 1.350 . S
C980 C979 1.434 . S
C981 C982 1.369 . S
C981 C983 1.419 . S
C981 H985 0.930 . S
C982 C981 1.369 . S
C982 C991 1.429 1_655 S
C983 C981 1.419 . S
C983 C984 1.363 1_655 S
C983 H986 0.929 . S
C984 C983 1.363 1_455 S
C984 C990 1.428 . S
H985 C981 0.930 . S
H986 C983 0.929 . S
S987 N988 1.613 . S
S987 N989 1.610 . S
N988 S987 1.613 . S
N988 C991 1.350 . S
N989 S987 1.610 . S
N989 C990 1.351 . S
C990 C984 1.428 . S
C990 N989 1.351 . S
C990 C991 1.434 . S
C991 C982 1.429 1_455 S
C991 N988 1.350 . S
C991 C990 1.434 . S
C992 C993 1.369 . S
C992 C994 1.419 . S
C992 H996 0.930 . S
C993 C992 1.369 . S
C993 C1002 1.429 1_455 S
C994 C992 1.419 . S
C994 C995 1.363 1_455 S
C994 H997 0.929 . S
C995 C994 1.363 1_655 S
C995 C1001 1.428 . S
H996 C992 0.930 . S
H997 C994 0.929 . S
S998 N999 1.613 . S
S998 N1000 1.610 . S
N999 S998 1.613 . S
N999 C1002 1.350 . S
N1000 S998 1.610 . S
N1000 C1001 1.351 . S
C1001 C995 1.428 . S
C1001 N1000 1.351 . S
C1001 C1002 1.434 . S
C1002 C993 1.429 1_655 S
C1002 N999 1.350 . S
C1002 C1001 1.434 . S
C1003 C1004 1.369 . S
C1003 C1005 1.419 . S
C1003 H1007 0.930 . S
C1004 C1003 1.369 . S
C1004 C1013 1.429 . S
C1005 C1003 1.419 . S
C1005 C1006 1.363 . S
C1005 H1008 0.929 . S
C1006 C1005 1.363 . S
C1006 C1012 1.428 . S
H1007 C1003 0.930 . S
H1008 C1005 0.929 . S
S1009 N1010 1.613 . S
S1009 N1011 1.610 . S
N1010 S1009 1.613 . S
N1010 C1013 1.350 . S
N1011 S1009 1.610 . S
N1011 C1012 1.351 . S
C1012 C1006 1.428 . S
C1012 N1011 1.351 . S
C1012 C1013 1.434 . S
C1013 C1004 1.429 . S
C1013 N1010 1.350 . S
C1013 C1012 1.434 . S
C1014 C1015 1.369 . S
C1014 C1016 1.419 . S
C1014 H1018 0.930 . S
C1015 C1014 1.369 . S
C1015 C1024 1.429 1_655 S
C1016 C1014 1.419 . S
C1016 C1017 1.363 1_655 S
C1016 H1019 0.929 . S
C1017 C1016 1.363 1_455 S
C1017 C1023 1.428 . S
H1018 C1014 0.930 . S
H1019 C1016 0.929 . S
S1020 N1021 1.613 . S
S1020 N1022 1.610 . S
N1021 S1020 1.613 . S
N1021 C1024 1.350 . S
N1022 S1020 1.610 . S
N1022 C1023 1.351 . S
C1023 C1017 1.428 . S
C1023 N1022 1.351 . S
C1023 C1024 1.434 . S
C1024 C1015 1.429 1_455 S
C1024 N1021 1.350 . S
C1024 C1023 1.434 . S
C1025 C1026 1.369 . S
C1025 C1027 1.419 . S
C1025 H1029 0.930 . S
C1026 C1025 1.369 . S
C1026 C1035 1.429 . S
C1027 C1025 1.419 . S
C1027 C1028 1.363 . S
C1027 H1030 0.929 . S
C1028 C1027 1.363 . S
C1028 C1034 1.428 . S
H1029 C1025 0.930 . S
H1030 C1027 0.929 . S
S1031 N1032 1.613 . S
S1031 N1033 1.610 . S
N1032 S1031 1.613 . S
N1032 C1035 1.350 . S
N1033 S1031 1.610 . S
N1033 C1034 1.351 . S
C1034 C1028 1.428 . S
C1034 N1033 1.351 . S
C1034 C1035 1.434 . S
C1035 C1026 1.429 . S
C1035 N1032 1.350 . S
C1035 C1034 1.434 . S
C1036 C1037 1.369 . S
C1036 C1038 1.419 . S
C1036 H1040 0.930 . S
C1037 C1036 1.369 . S
C1037 C1046 1.429 . S
C1038 C1036 1.419 . S
C1038 C1039 1.363 . S
C1038 H1041 0.929 . S
C1039 C1038 1.363 . S
C1039 C1045 1.428 . S
H1040 C1036 0.930 . S
H1041 C1038 0.929 . S
S1042 N1043 1.613 . S
S1042 N1044 1.610 . S
N1043 S1042 1.613 . S
N1043 C1046 1.350 . S
N1044 S1042 1.610 . S
N1044 C1045 1.351 . S
C1045 C1039 1.428 . S
C1045 N1044 1.351 . S
C1045 C1046 1.434 . S
C1046 C1037 1.429 . S
C1046 N1043 1.350 . S
C1046 C1045 1.434 . S
C1047 C1048 1.369 1_655 S
C1047 C1049 1.419 . S
C1047 H1051 0.930 . S
C1048 C1047 1.369 1_455 S
C1048 C1057 1.429 . S
C1049 C1047 1.419 . S
C1049 C1050 1.363 . S
C1049 H1052 0.929 . S
C1050 C1049 1.363 . S
C1050 C1056 1.428 1_655 S
H1051 C1047 0.930 . S
H1052 C1049 0.929 . S
S1053 N1054 1.613 . S
S1053 N1055 1.610 . S
N1054 S1053 1.613 . S
N1054 C1057 1.350 . S
N1055 S1053 1.610 . S
N1055 C1056 1.351 . S
C1056 C1050 1.428 1_455 S
C1056 N1055 1.351 . S
C1056 C1057 1.434 . S
C1057 C1048 1.429 . S
C1057 N1054 1.350 . S
C1057 C1056 1.434 . S
C1058 C1059 1.369 . S
C1058 C1060 1.419 . S
C1058 H1062 0.930 . S
C1059 C1058 1.369 . S
C1059 C1068 1.429 . S
C1060 C1058 1.419 . S
C1060 C1061 1.363 . S
C1060 H1063 0.929 . S
C1061 C1060 1.363 . S
C1061 C1067 1.428 . S
H1062 C1058 0.930 . S
H1063 C1060 0.929 . S
S1064 N1065 1.613 . S
S1064 N1066 1.610 . S
N1065 S1064 1.613 . S
N1065 C1068 1.350 . S
N1066 S1064 1.610 . S
N1066 C1067 1.351 . S
C1067 C1061 1.428 . S
C1067 N1066 1.351 . S
C1067 C1068 1.434 . S
C1068 C1059 1.429 . S
C1068 N1065 1.350 . S
C1068 C1067 1.434 . S
C1069 C1070 1.369 1_655 S
C1069 C1071 1.419 . S
C1069 H1073 0.930 . S
C1070 C1069 1.369 1_455 S
C1070 C1079 1.429 . S
C1071 C1069 1.419 . S
C1071 C1072 1.363 . S
C1071 H1074 0.929 . S
C1072 C1071 1.363 . S
C1072 C1078 1.428 1_655 S
H1073 C1069 0.930 . S
H1074 C1071 0.929 . S
S1075 N1076 1.613 . S
S1075 N1077 1.610 . S
N1076 S1075 1.613 . S
N1076 C1079 1.350 . S
N1077 S1075 1.610 . S
N1077 C1078 1.351 . S
C1078 C1072 1.428 1_455 S
C1078 N1077 1.351 . S
C1078 C1079 1.434 . S
C1079 C1070 1.429 . S
C1079 N1076 1.350 . S
C1079 C1078 1.434 . S
C465 C15 2.032 . S
C467 C21 1.856 . S
C476 C50 1.853 . S
C478 C44 2.031 . S
C487 C79 1.848 . S
C489 C73 2.031 . S
C498 C108 1.855 . S
C500 C102 2.034 . S
C509 C131 2.030 . S
C511 C137 1.850 . S
C520 C160 2.030 . S
C522 C166 1.849 . S
C531 C189 2.031 . S
C533 C195 1.848 . S
C542 C224 1.858 . S
C544 C218 2.033 . S
C553 C253 1.857 . S
C555 C247 2.033 . S
C564 C276 2.030 . S
C566 C282 1.850 . S
C575 C305 2.032 . S
C577 C311 1.848 . S
C586 C340 1.853 . S
C588 C334 2.034 . S
C597 C369 1.858 . S
C599 C363 2.033 . S
C608 C398 1.858 . S
C610 C392 2.033 . S
C619 C427 1.855 . S
C621 C421 2.031 . S
C630 C450 2.030 . S
C632 C456 1.849 . S
C641 C3 1.216 . S
C643 C158 1.262 . S
C652 C32 1.223 . S
C654 C129 1.261 . S
C663 C61 1.211 . S
C665 C216 1.260 . S
C674 C90 1.217 . S
C676 C187 1.262 . S
C685 C119 1.223 . S
C687 C42 1.262 . S
C696 C148 1.210 . S
C698 C13 1.258 . S
C707 C100 1.258 . S
C709 C177 1.212 . S
C718 C71 1.261 . S
C720 C206 1.221 . S
C729 C235 1.214 . S
C731 C390 1.257 . S
C740 C361 1.259 . S
C742 C264 1.221 . S
C751 C293 1.219 . S
C753 C448 1.258 . S
C762 C419 1.261 . S
C764 C322 1.222 . S
C773 C274 1.256 . S
C775 C351 1.213 . S
C784 C380 1.220 . S
C786 C245 1.263 . S
C795 C409 1.211 . S
C797 C332 1.258 . S
C806 C438 1.211 . S
C808 C303 1.259 . S
C817 C5 1.369 . S
C819 C34 1.368 . S
C828 C92 1.366 . S
C830 C63 1.365 . S
C839 C121 1.368 . S
C841 C150 1.368 . S
C850 C208 1.365 . S
C852 C179 1.366 . S
C861 C266 1.369 . S
C863 C237 1.368 . S
C872 C295 1.364 . S
C874 C324 1.366 . S
C883 C353 1.362 . S
C885 C382 1.364 . S
C894 C411 1.363 . S
C896 C440 1.365 . S
C905 C10 1.605 . S
C907 C271 1.609 . S
C916 C39 1.611 . S
C918 C242 1.606 . S
C927 C329 1.609 . S
C929 C68 1.606 . S
C938 C300 1.611 . S
C940 C97 1.614 . S
C949 C126 1.609 . S
C951 C387 1.606 . S
C960 C155 1.611 . S
C962 C358 1.613 . S
C971 C184 1.606 . S
C973 C445 1.613 . S
C982 C416 1.614 . S
C984 C213 1.611 . S
C993 C95 1.367 . S
C995 C8 1.374 . S
C1004 C37 1.381 . S
C1006 C66 1.369 . S
C1015 C211 1.365 . S
C1017 C124 1.378 . S
C1026 C153 1.368 . S
C1028 C182 1.379 . S
C1037 C240 1.380 . S
C1039 C327 1.367 . S
C1048 C269 1.381 . S
C1050 C298 1.369 . S
C1059 C443 1.367 . S
C1061 C356 1.373 . S
C1070 C414 1.381 . S
C1072 C385 1.368 . S
