# Generated by pormake.
# Topology vmr, (7)-cn, num edge types: 1
# Building blocks:
#     Node 0, Type 0, BuildingBlock: HICVOG_clean_sbu_0, # of connection points: 7
#     Node 1, Type 0, BuildingBlock: HICVOG_clean_sbu_0, # of connection points: 7
#     Node 2, Type 0, BuildingBlock: HICVOG_clean_sbu_0, # of connection points: 7
#     Node 3, Type 0, BuildingBlock: HICVOG_clean_sbu_0, # of connection points: 7
#     Edge 4, Type (0, 0), BuildingBlock: ZUJKAS_clean_linker_0, # of connection points: 2
#     Edge 5, Type (0, 0), BuildingBlock: ZUJKAS_clean_linker_0, # of connection points: 2
#     Edge 6, Type (0, 0), BuildingBlock: ZUJKAS_clean_linker_0, # of connection points: 2
#     Edge 7, Type (0, 0), BuildingBlock: ZUJKAS_clean_linker_0, # of connection points: 2
#     Edge 8, Type (0, 0), BuildingBlock: ZUJKAS_clean_linker_0, # of connection points: 2
#     Edge 9, Type (0, 0), BuildingBlock: ZUJKAS_clean_linker_0, # of connection points: 2
#     Edge 10, Type (0, 0), BuildingBlock: ZUJKAS_clean_linker_0, # of connection points: 2
#     Edge 11, Type (0, 0), BuildingBlock: ZUJKAS_clean_linker_0, # of connection points: 2
#     Edge 12, Type (0, 0), BuildingBlock: ZUJKAS_clean_linker_0, # of connection points: 2
#     Edge 13, Type (0, 0), BuildingBlock: ZUJKAS_clean_linker_0, # of connection points: 2
#     Edge 14, Type (0, 0), BuildingBlock: ZUJKAS_clean_linker_0, # of connection points: 2
#     Edge 15, Type (0, 0), BuildingBlock: ZUJKAS_clean_linker_0, # of connection points: 2
#     Edge 16, Type (0, 0), BuildingBlock: ZUJKAS_clean_linker_0, # of connection points: 2
#     Edge 17, Type (0, 0), BuildingBlock: ZUJKAS_clean_linker_0, # of connection points: 2
# Relax obj value: 0.075
# Max RMSD: 0.171
# Mean RMSD: 0.171
data_MOF--net-vmr--node1-HICVOG_clean_sbu_0--edge1-ZUJKAS_clean_linker_0
_symmetry_space_group_name_H-M    P1
_symmetry_Int_Tables_number       1
_symmetry_cell_setting            triclinic
loop_
_symmetry_equiv_pos_as_xyz
'x, y, z'
_cell_length_a     32.222521
_cell_length_b     27.944229
_cell_length_c     44.767689
_cell_angle_alpha  90.035208
_cell_angle_beta   121.75226
_cell_angle_gamma 89.992757
loop_
_atom_site_label
_atom_site_type_symbol
_atom_site_fract_x
_atom_site_fract_y
_atom_site_fract_z
_atom_type_partial_charge
Zn0 Zn 0.23382 0.35036 0.17538 0.0
C1 C 0.11869 0.34302 0.18691 0.0
N2 N 0.0996 0.37433 0.16022 0.0
C3 C 0.13252 0.3743 0.15052 0.0
N4 N 0.17056 0.34506 0.17062 0.0
N5 N 0.16141 0.32481 0.19332 0.0
C6 C 0.2197 0.24755 0.29184 0.0
O7 O 0.25728 0.22747 0.29286 0.0
O8 O 0.22553 0.35311 0.12755 0.0
Zn9 Zn 0.18913 0.26634 0.21926 0.0
N10 N 0.26354 0.40964 0.20033 0.0
C11 C 0.267 0.47028 0.2389 0.0
C12 C 0.24602 0.42886 0.21945 0.0
C13 C 0.30153 0.43037 0.19987 0.0
N14 N 0.30504 0.49072 0.23873 0.0
C15 C 0.32322 0.47219 0.21977 0.0
O16 O 0.25736 0.25044 0.23088 0.0
C17 C 0.28862 0.26197 0.22296 0.0
O18 O 0.28148 0.29682 0.20246 0.0
H19 H 0.2163 0.41189 0.21998 0.0
H20 H 0.31532 0.41367 0.18499 0.0
C21 C 0.12928 0.18064 0.19991 0.0
C22 C 0.1025 0.14266 0.17709 0.0
C23 C 0.11545 0.17592 0.13385 0.0
C24 C 0.14187 0.21338 0.15651 0.0
N25 N 0.14859 0.21486 0.1891 0.0
N26 N 0.09667 0.1414 0.14469 0.0
H27 H 0.13581 0.1824 0.2262 0.0
C28 C 0.21471 0.31485 0.10959 0.0
O29 O 0.20858 0.27524 0.12259 0.0
O30 O 0.18644 0.26642 0.26336 0.0
H31 H 0.15746 0.24092 0.14845 0.0
H32 H 0.25349 0.48589 0.25429 0.0
H33 H 0.11014 0.1741 0.10792 0.0
Zn34 Zn 0.82541 0.76562 0.27941 0.0
C35 C 0.88073 0.87689 0.34535 0.0
N36 N 0.91156 0.87785 0.33375 0.0
C37 C 0.89231 0.84505 0.30802 0.0
N38 N 0.85145 0.8253 0.30386 0.0
N39 N 0.84372 0.8457 0.32723 0.0
C40 C 0.80533 0.80873 0.39011 0.0
O41 O 0.81154 0.77121 0.37518 0.0
O42 O 0.82578 0.76565 0.23436 0.0
Zn43 Zn 0.78182 0.84901 0.32478 0.0
N44 N 0.86962 0.71631 0.31012 0.0
C45 C 0.9179 0.68672 0.36849 0.0
C46 C 0.88551 0.72039 0.34477 0.0
C47 C 0.88476 0.67962 0.29808 0.0
N48 N 0.93314 0.65018 0.3566 0.0
C49 C 0.91746 0.64525 0.32195 0.0
O50 O 0.7347 0.79507 0.29767 0.0
C51 C 0.72748 0.75963 0.27757 0.0
O52 O 0.75834 0.74785 0.26931 0.0
H53 H 0.87332 0.74986 0.35388 0.0
H54 H 0.87219 0.67801 0.27046 0.0
C55 C 0.71661 0.93168 0.30529 0.0
C56 C 0.69538 0.97458 0.28668 0.0
C57 C 0.74404 0.9688 0.26124 0.0
C58 C 0.76431 0.92639 0.27928 0.0
N59 N 0.75064 0.90872 0.30112 0.0
N60 N 0.71027 0.99168 0.26531 0.0
H61 H 0.7068 0.91679 0.32302 0.0
C62 C 0.79887 0.73706 0.20944 0.0
O63 O 0.7699 0.70773 0.21301 0.0
O64 O 0.79286 0.84823 0.37355 0.0
H65 H 0.79075 0.9076 0.27577 0.0
H66 H 0.931 0.68963 0.39617 0.0
H67 H 0.7548 0.98336 0.24392 0.0
Zn68 Zn 0.82719 0.76095 0.77922 0.0
C69 C 0.87851 0.64682 0.84259 0.0
N70 N 0.9084 0.64435 0.8302 0.0
C71 C 0.89031 0.67824 0.80527 0.0
N72 N 0.85111 0.70018 0.80237 0.0
N73 N 0.84325 0.68006 0.82574 0.0
C74 C 0.79938 0.71786 0.88848 0.0
O75 O 0.79981 0.75762 0.87299 0.0
O76 O 0.8307 0.76219 0.7355 0.0
Zn77 Zn 0.78163 0.67916 0.82368 0.0
N78 N 0.8718 0.8087 0.81156 0.0
C79 C 0.91659 0.83751 0.87031 0.0
C80 C 0.88391 0.805 0.84547 0.0
C81 C 0.8908 0.844 0.80128 0.0
N82 N 0.93576 0.87259 0.86022 0.0
C83 C 0.92378 0.8772 0.82629 0.0
O84 O 0.73654 0.7348 0.79741 0.0
C85 C 0.72939 0.76974 0.77696 0.0
O86 O 0.75977 0.78025 0.76795 0.0
H87 H 0.86845 0.77675 0.85312 0.0
H88 H 0.88098 0.84539 0.77418 0.0
C89 C 0.71591 0.59656 0.80421 0.0
C90 C 0.69321 0.55471 0.78452 0.0
C91 C 0.73618 0.56449 0.75504 0.0
C92 C 0.75798 0.60585 0.77421 0.0
N93 N 0.74792 0.62098 0.7986 0.0
N94 N 0.70454 0.54009 0.76061 0.0
H95 H 0.70883 0.60938 0.82391 0.0
C96 C 0.79321 0.75883 0.70474 0.0
O97 O 0.75001 0.75455 0.70081 0.0
O98 O 0.79281 0.6783 0.87252 0.0
H99 H 0.78281 0.62583 0.76963 0.0
H100 H 0.92677 0.83486 0.89746 0.0
H101 H 0.74412 0.55194 0.7357 0.0
Zn102 Zn 0.1905 0.26156 0.72033 0.0
C103 C 0.13333 0.15364 0.65185 0.0
N104 N 0.10236 0.15139 0.66326 0.0
C105 C 0.12224 0.182 0.69044 0.0
N106 N 0.16363 0.20198 0.69545 0.0
N107 N 0.17109 0.18345 0.67141 0.0
C108 C 0.21608 0.22282 0.6107 0.0
O109 O 0.21747 0.26166 0.62774 0.0
O110 O 0.18941 0.26336 0.76499 0.0
Zn111 Zn 0.23314 0.17932 0.6741 0.0
N112 N 0.14894 0.31223 0.68929 0.0
C113 C 0.11399 0.34882 0.63311 0.0
C114 C 0.14123 0.31224 0.65641 0.0
C115 C 0.12966 0.34707 0.69972 0.0
N116 N 0.09543 0.38401 0.64363 0.0
C117 C 0.10218 0.38427 0.67632 0.0
O118 O 0.28245 0.23093 0.70321 0.0
C119 C 0.29012 0.26538 0.72418 0.0
O120 O 0.25881 0.27728 0.73199 0.0
H121 H 0.1566 0.28418 0.64855 0.0
H122 H 0.13669 0.34646 0.72613 0.0
C123 C 0.29874 0.0977 0.69236 0.0
C124 C 0.31691 0.05211 0.70703 0.0
C125 C 0.26027 0.04887 0.72572 0.0
C126 C 0.24281 0.09397 0.71152 0.0
N127 N 0.26179 0.11737 0.69474 0.0
N128 N 0.29663 0.02908 0.72311 0.0
H129 H 0.31308 0.11703 0.67879 0.0
C130 C 0.21084 0.29692 0.78712 0.0
O131 O 0.234 0.33002 0.7806 0.0
O132 O 0.22175 0.18235 0.62533 0.0
H133 H 0.21414 0.11003 0.71381 0.0
H134 H 0.1079 0.34944 0.60694 0.0
H135 H 0.24516 0.02973 0.73885 0.0
H136 H 0.31028 0.1766 0.25841 0.0
H137 H 0.38171 0.12562 0.27732 0.0
H138 H 0.43942 0.2284 0.23671 0.0
H139 H 0.36825 0.27964 0.21766 0.0
H140 H 0.41191 0.087 0.23194 0.0
H141 H 0.55533 0.2002 0.33788 0.0
H142 H 0.49115 0.20783 0.32155 0.0
H143 H 0.51659 0.23097 0.29714 0.0
C144 C 0.33838 0.18871 0.25382 0.0
C145 C 0.33342 0.23238 0.23651 0.0
C146 C 0.37915 0.15942 0.2646 0.0
C147 C 0.41612 0.17343 0.25877 0.0
C148 C 0.41169 0.21723 0.24198 0.0
H149 H 0.6736 0.06903 0.27278 0.0
H150 H 0.60647 0.11341 0.26953 0.0
C151 C 0.3708 0.24639 0.23095 0.0
C152 C 0.45811 0.14128 0.26846 0.0
H153 H 0.58258 0.1357 0.31763 0.0
C154 C 0.44924 0.09725 0.25101 0.0
C155 C 0.50669 0.15478 0.29335 0.0
C156 C 0.5182 0.20083 0.31384 0.0
C157 C 0.48781 0.0674 0.25647 0.0
C158 C 0.53659 0.08147 0.28075 0.0
C159 C 0.54527 0.12483 0.29906 0.0
C160 C 0.57913 0.05401 0.28521 0.0
C161 C 0.47597 0.02232 0.23487 0.0
C162 C 0.58705 1.00586 0.29593 0.0
C163 C 0.62551 0.97991 0.29755 0.0
C164 C 0.65712 1.00184 0.28879 0.0
C165 C 0.64994 0.05061 0.27942 0.0
C166 C 0.61157 0.07627 0.27769 0.0
H167 H 0.43779 0.02228 0.21204 0.0
H168 H 0.50097 0.01785 0.22502 0.0
H169 H 0.48049 0.99096 0.25151 0.0
H170 H 0.56307 0.9881 0.30254 0.0
H171 H 0.62922 0.94243 0.30452 0.0
H172 H 0.39579 0.52076 0.27522 0.0
H173 H 0.46326 0.56515 0.2785 0.0
H174 H 0.41497 0.52364 0.17231 0.0
H175 H 0.34668 0.47914 0.16857 0.0
H176 H 0.53919 0.52987 0.26636 0.0
H177 H 0.42294 0.6748 0.17508 0.0
H178 H 0.40175 0.63574 0.19645 0.0
H179 H 0.40623 0.61384 0.1606 0.0
C180 C 0.39944 0.52085 0.25251 0.0
C181 C 0.36576 0.4962 0.22166 0.0
C182 C 0.43818 0.54615 0.25451 0.0
C183 C 0.44391 0.54796 0.2256 0.0
C184 C 0.41096 0.5229 0.19486 0.0
H185 H 0.70456 0.67469 0.24138 0.0
H186 H 0.63505 0.62219 0.22536 0.0
C187 C 0.37222 0.49711 0.1929 0.0
C188 C 0.48412 0.57696 0.22796 0.0
H189 H 0.50794 0.6826 0.20138 0.0
C190 C 0.53245 0.56295 0.25184 0.0
C191 C 0.47508 0.62036 0.20927 0.0
C192 C 0.42378 0.63753 0.184 0.0
C193 C 0.57204 0.59157 0.25793 0.0
C194 C 0.56301 0.63525 0.23953 0.0
C195 C 0.5147 0.64896 0.21527 0.0
C196 C 0.60327 0.66845 0.24682 0.0
C197 C 0.6232 0.57581 0.28497 0.0
C198 C 0.60773 0.71247 0.26335 0.0
C199 C 0.64742 0.74259 0.2726 0.0
C200 C 0.68333 0.72945 0.26526 0.0
C201 C 0.67776 0.68598 0.24755 0.0
C202 C 0.63814 0.65577 0.23847 0.0
H203 H 0.6235 0.54542 0.30107 0.0
H204 H 0.64218 0.56429 0.27147 0.0
H205 H 0.64425 0.60594 0.30274 0.0
H206 H 0.58112 0.72296 0.26993 0.0
H207 H 0.65033 0.77581 0.28606 0.0
H208 H 0.3287 0.95678 0.70255 0.0
H209 H 0.39932 0.91521 0.70852 0.0
H210 H 0.46842 0.0506 0.71632 0.0
H211 H 0.39773 0.09279 0.7106 0.0
H212 H 0.44773 0.92275 0.66858 0.0
H213 H 0.56427 0.97578 0.8092 0.0
H214 H 0.49852 0.97963 0.7855 0.0
H215 H 0.53294 0.02281 0.77768 0.0
C216 C 0.35865 0.97786 0.70515 0.0
C217 C 0.35746 0.02816 0.70611 0.0
C218 C 0.39893 0.95398 0.70843 0.0
C219 C 0.43927 0.97976 0.71317 0.0
C220 C 0.43772 0.03003 0.71291 0.0
H221 H 0.69619 0.84274 0.72858 0.0
H222 H 0.62634 0.89564 0.71106 0.0
C223 C 0.39709 0.05409 0.70931 0.0
C224 C 0.4837 0.95344 0.72042 0.0
H225 H 0.59924 0.92472 0.78665 0.0
C226 C 0.48112 0.9236 0.69423 0.0
C227 C 0.52694 0.95417 0.75406 0.0
C228 C 0.53112 0.9845 0.78343 0.0
C229 C 0.52049 0.89403 0.70096 0.0
C230 C 0.56346 0.89436 0.73474 0.0
C231 C 0.56628 0.9247 0.76075 0.0
C232 C 0.60491 0.86157 0.74427 0.0
C233 C 0.51532 0.86134 0.67237 0.0
C234 C 0.61611 0.82499 0.76883 0.0
C235 C 0.65582 0.79459 0.77882 0.0
C236 C 0.68559 0.80044 0.76473 0.0
C237 C 0.67407 0.83709 0.73994 0.0
C238 C 0.63407 0.86731 0.72979 0.0
H239 H 0.47722 0.86003 0.64949 0.0
H240 H 0.53925 0.87429 0.66314 0.0
H241 H 0.52709 0.82448 0.68266 0.0
H242 H 0.59411 0.82002 0.78037 0.0
H243 H 0.6636 0.76699 0.79807 0.0
H244 H 0.62962 0.58416 0.80525 0.0
H245 H 0.5657 0.53645 0.80509 0.0
H246 H 0.60872 0.41353 0.76946 0.0
H247 H 0.67326 0.46004 0.7706 0.0
H248 H 0.48829 0.49389 0.74823 0.0
H249 H 0.59638 0.35464 0.84652 0.0
H250 H 0.62349 0.40908 0.84279 0.0
H251 H 0.6126 0.35926 0.81399 0.0
C252 C 0.62651 0.54665 0.79837 0.0
C253 C 0.65715 0.52598 0.78825 0.0
C254 C 0.58958 0.51948 0.79801 0.0
C255 C 0.58282 0.47109 0.78783 0.0
C256 C 0.61384 0.45035 0.77829 0.0
H257 H 0.36771 0.24951 0.71606 0.0
H258 H 0.43876 0.30092 0.73488 0.0
C259 C 0.65056 0.47731 0.77862 0.0
C260 C 0.54113 0.44299 0.78425 0.0
H261 H 0.51197 0.33545 0.80501 0.0
C262 C 0.49348 0.45966 0.76115 0.0
C263 C 0.54781 0.39822 0.80104 0.0
C264 C 0.59787 0.37949 0.82774 0.0
C265 C 0.45249 0.43183 0.75311 0.0
C266 C 0.45928 0.38628 0.76885 0.0
C267 C 0.50683 0.37023 0.79278 0.0
C268 C 0.4175 0.35398 0.75951 0.0
C269 C 0.40222 0.45042 0.72666 0.0
C270 C 0.38247 0.36619 0.76781 0.0
C271 C 0.34181 0.33679 0.7572 0.0
C272 C 0.3353 0.29453 0.738 0.0
C273 C 0.37131 0.28179 0.73065 0.0
C274 C 0.41204 0.31112 0.74143 0.0
H275 H 0.4036 0.48209 0.71221 0.0
H276 H 0.38 0.42211 0.70735 0.0
H277 H 0.38343 0.46105 0.74047 0.0
H278 H 0.38633 0.39876 0.78218 0.0
H279 H 0.315 0.34776 0.76345 0.0
H280 H 0.09749 0.04797 0.16149 0.0
H281 H 0.06179 0.98339 0.17765 0.0
H282 H 0.02125 0.08538 0.23033 0.0
H283 H 0.05864 0.1497 0.21543 0.0
H284 H 0.05923 1.01058 0.26936 0.0
H285 H 0.92256 0.94681 0.13554 0.0
H286 H 0.98373 0.94431 0.14457 0.0
H287 H 0.95673 1.00132 0.14322 0.0
C288 C 0.08088 0.05656 0.17649 0.0
C289 C 0.08119 0.10383 0.18741 0.0
C290 C 0.06004 0.01966 0.18542 0.0
C291 C 0.03783 0.02949 0.20459 0.0
C292 C 0.03807 0.07679 0.21546 0.0
H293 H 0.84069 0.8772 0.24143 0.0
H294 H 0.8783 0.91332 0.21163 0.0
C295 C 0.05969 0.11355 0.2071 0.0
C296 C 0.01627 0.99048 0.21485 0.0
H297 H 0.93279 0.89934 0.18304 0.0
C298 C 0.0316 0.98628 0.25043 0.0
C299 C 0.97986 0.95891 0.19013 0.0
C300 C 0.95937 0.96329 0.15121 0.0
C301 C 0.0111 0.95232 0.26199 0.0
C302 C 0.97572 0.91976 0.23749 0.0
C303 C 0.96067 0.9235 0.2019 0.0
C304 C 0.95051 0.88545 0.24812 0.0
C305 C 0.02595 0.95353 0.30012 0.0
C306 C 0.97744 0.85405 0.27646 0.0
C307 C 0.95608 0.83409 0.29385 0.0
C308 C 0.90712 0.84369 0.28217 0.0
C309 C 0.87837 0.86873 0.25059 0.0
C310 C 0.90002 0.88977 0.23373 0.0
H311 H 0.04372 0.98792 0.31296 0.0
H312 H 0.99389 0.94837 0.3028 0.0
H313 H 0.0525 0.92441 0.31458 0.0
H314 H 0.01611 0.8489 0.2873 0.0
H315 H 0.979 0.81527 0.31837 0.0
H316 H 0.02668 0.325 0.17036 0.0
H317 H 0.98987 0.36067 0.20095 0.0
H318 H 0.13257 0.40089 0.28675 0.0
H319 H 0.16951 0.36512 0.25619 0.0
H320 H 0.04512 0.37668 0.30022 0.0
H321 H 0.01537 0.51408 0.20062 0.0
H322 H 0.99762 0.45355 0.18546 0.0
H323 H 0.06095 0.4678 0.21432 0.0
C324 C 0.05035 0.33874 0.19673 0.0
C325 C 0.10089 0.34189 0.21112 0.0
C326 C 0.02928 0.35942 0.21406 0.0
C327 C 0.0585 0.38386 0.24585 0.0
C328 C 0.10947 0.38195 0.26231 0.0
H329 H 1.00496 0.60002 0.36079 0.0
H330 H 0.03721 0.53385 0.34341 0.0
C331 C 0.1306 0.36104 0.24499 0.0
C332 C 0.03593 0.41971 0.25734 0.0
H333 H 0.98543 0.53135 0.23711 0.0
C334 C 0.03192 0.41048 0.28649 0.0
C335 C 0.01896 0.46376 0.23933 0.0
C336 C 0.02355 0.47584 0.2083 0.0
C337 C 0.01061 0.44421 0.29785 0.0
C338 C 0.99392 0.4885 0.27992 0.0
C339 C 0.99798 0.49739 0.25073 0.0
C340 C 0.97314 0.52687 0.29122 0.0
C341 C 1.0054 0.43174 0.32849 0.0
C342 C 0.92681 0.54594 0.2674 0.0
C343 C 0.90843 0.58431 0.27709 0.0
C344 C 0.93619 0.60463 0.31083 0.0
C345 C 0.98243 0.58514 0.33467 0.0
C346 C 1.00084 0.54697 0.32489 0.0
H347 H 1.00608 0.3924 0.33232 0.0
H348 H 0.03637 0.44749 0.35282 0.0
H349 H 0.97092 0.44627 0.3248 0.0
H350 H 0.90485 0.53112 0.2412 0.0
H351 H 0.87227 0.5975 0.25823 0.0
H352 H 0.88581 0.92642 0.76357 0.0
H353 H 0.92464 0.9911 0.75007 0.0
H354 H 0.05096 0.98299 0.85501 0.0
H355 H 0.01287 0.91801 0.86878 0.0
H356 H 0.96783 0.08488 0.7924 0.0
H357 H 0.09899 0.96521 0.7831 0.0
H358 H 0.04255 0.94312 0.77735 0.0
H359 H 0.09239 0.95836 0.82038 0.0
C360 C 0.92209 0.93784 0.7837 0.0
C361 C 0.94652 0.91634 0.81716 0.0
C362 C 0.94396 0.97524 0.77603 0.0
C363 C 0.99067 0.99161 0.80152 0.0
C364 C 0.01494 0.9707 0.83496 0.0
H365 H 0.17909 0.16493 0.76048 0.0
H366 H 0.14994 0.12866 0.7959 0.0
C367 C 0.99303 0.93359 0.84275 0.0
C368 C 0.01467 0.02962 0.79281 0.0
H369 H 0.10241 0.04697 0.77316 0.0
C370 C 0.9975 0.07682 0.7884 0.0
C371 C 0.05372 0.01901 0.78812 0.0
C372 C 0.0731 0.96871 0.79226 0.0
C373 C 0.01795 0.11368 0.77877 0.0
C374 C 0.05569 0.1027 0.77257 0.0
C375 C 0.07376 0.05564 0.77813 0.0
C376 C 0.0733 0.13739 0.75643 0.0
C377 C 0.9989 0.16393 0.77536 0.0
C378 C 0.0401 0.15701 0.72334 0.0
C379 C 0.0568 0.17854 0.70344 0.0
C380 C 0.10694 0.18067 0.71614 0.0
C381 C 0.1403 0.16518 0.75051 0.0
C382 C 0.12359 0.14371 0.77053 0.0
H383 H 0.98522 0.16982 0.79326 0.0
H384 H 0.02746 0.191 0.78126 0.0
H385 H 0.96783 0.16959 0.7481 0.0
H386 H 1.00122 0.15168 0.71139 0.0
H387 H 0.03038 0.1891 0.67667 0.0
H388 H 0.09227 0.47756 0.65609 0.0
H389 H 0.05855 0.54382 0.67254 0.0
H390 H 0.02852 0.44677 0.73377 0.0
H391 H 0.06343 0.38079 0.7183 0.0
H392 H 0.97124 0.56214 0.66199 0.0
H393 H 0.10233 0.54858 0.80493 0.0
H394 H 0.11049 0.51609 0.77357 0.0
H395 H 0.07124 0.49289 0.7876 0.0
C396 C 0.07873 0.47042 0.67325 0.0
C397 C 0.08149 0.42408 0.68647 0.0
C398 C 0.05938 0.50834 0.68257 0.0
C399 C 0.04199 0.50064 0.70508 0.0
C400 C 0.04324 0.45404 0.71737 0.0
H401 H 0.84058 0.646 0.73872 0.0
H402 H 0.87918 0.614 0.70857 0.0
C403 C 0.06322 0.41626 0.70848 0.0
C404 C 0.02219 0.54107 0.71556 0.0
H405 H 0.02876 0.59212 0.78705 0.0
C406 C 0.98425 0.56921 0.68937 0.0
C407 C 0.04001 0.55146 0.75125 0.0
C408 C 0.08363 0.526 0.78091 0.0
C409 C 0.96198 0.60561 0.6979 0.0
C410 C 0.97711 0.61315 0.73352 0.0
C411 C 0.01667 0.58652 0.75966 0.0
C412 C 0.95032 0.64474 0.74465 0.0
C413 C 0.92259 0.6355 0.66863 0.0
C414 C 0.97643 0.67472 0.77412 0.0
C415 C 0.95446 0.69204 0.79184 0.0
C416 C 0.90573 0.68083 0.77979 0.0
C417 C 0.87792 0.65612 0.74795 0.0
C418 C 0.90014 0.63772 0.73068 0.0
H419 H 0.92929 0.63957 0.64682 0.0
H420 H 0.88689 0.61722 0.65778 0.0
H421 H 0.92017 0.67162 0.67793 0.0
H422 H 0.01506 0.68095 0.78537 0.0
H423 H 0.97679 0.71025 0.81674 0.0
H424 H 0.89464 0.67653 0.90559 0.0
H425 H 0.93725 0.63002 0.96026 0.0
H426 H 0.93002 0.50468 0.90142 0.0
H427 H 0.88676 0.55085 0.84691 0.0
H428 H 0.92027 0.48561 0.96043 0.0
H429 H 0.0815 0.59832 0.99396 0.0
H430 H 0.02794 0.63003 0.98577 0.0
H431 H 0.02699 0.59781 0.95069 0.0
C432 C 0.89977 0.63846 0.90425 0.0
C433 C 0.88678 0.6169 0.87216 0.0
C434 C 0.92497 0.61216 0.93549 0.0
C435 C 0.93773 0.56423 0.93488 0.0
C436 C 0.92075 0.54167 0.90247 0.0
H437 H 0.11612 0.34574 0.08735 0.0
H438 H 0.07411 0.39365 0.03337 0.0
C439 C 0.89574 0.56792 0.87135 0.0
C440 C 0.97299 0.53885 0.9677 0.0
H441 H 0.09268 0.53843 0.03468 0.0
C442 C 0.95793 0.49714 0.97672 0.0
C443 C 0.02227 0.55379 0.98864 0.0
C444 C 0.04098 0.5972 0.97927 0.0
C445 C 0.99063 0.47035 0.00652 0.0
C446 C 0.03997 0.48514 0.02737 0.0
C447 C 0.05499 0.52697 0.01843 0.0
C448 C 0.07546 0.4591 0.05978 0.0
C449 C 0.9718 0.42704 0.01592 0.0
C450 C 0.0935 0.481 0.09255 0.0
C451 C 0.11832 0.45393 0.1233 0.0
C452 C 0.12597 0.4048 0.12172 0.0
C453 C 0.11204 0.38389 0.08927 0.0
C454 C 0.08717 0.41101 0.05843 0.0
H455 H 0.9313 0.42656 0.00174 0.0
H456 H 0.98385 0.39415 0.00869 0.0
H457 H 0.98656 0.42589 0.0446 0.0
H458 H 0.08505 0.51808 0.09418 0.0
H459 H 0.12789 0.47045 0.14804 0.0
H460 H 0.88593 0.97305 0.34742 0.0
H461 H 0.92917 0.02149 0.40091 0.0
H462 H 0.94161 0.89803 0.46289 0.0
H463 H 0.89914 0.8493 0.40928 0.0
H464 H 0.92134 0.04246 0.46036 0.0
H465 H 0.08408 0.9324 0.49397 0.0
H466 H 0.02879 0.93088 0.45114 0.0
H467 H 0.03191 0.89953 0.48729 0.0
C468 C 0.89602 0.95689 0.37236 0.0
C469 C 0.88854 0.90782 0.37435 0.0
C470 C 0.92103 0.98442 0.40288 0.0
C471 C 0.93949 0.96307 0.43586 0.0
C472 C 0.92818 0.91498 0.43767 0.0
H473 H 0.12764 0.05762 0.64795 0.0
H474 H 0.08527 1.01093 0.59361 0.0
C475 C 0.90304 0.8874 0.40704 0.0
C476 C 0.97473 0.98979 0.468 0.0
H477 H 0.09449 0.99209 0.53478 0.0
C478 C 0.9592 0.03155 0.47664 0.0
C479 C 0.02427 0.9757 0.48889 0.0
C480 C 0.04357 0.93243 0.47982 0.0
C481 C 0.9916 0.05896 0.50621 0.0
C482 C 0.0411 0.04473 0.5272 0.0
C483 C 0.05668 1.0031 0.51845 0.0
C484 C 0.07603 0.07064 0.55989 0.0
C485 C 0.97228 0.10217 0.51532 0.0
C486 C 0.08773 0.1189 0.5591 0.0
C487 C 0.11239 0.14551 0.59025 0.0
C488 C 0.12593 0.12393 0.62241 0.0
C489 C 0.11819 0.0747 0.62342 0.0
C490 C 0.09369 0.04815 0.5924 0.0
H491 H 0.93175 0.1026 0.50075 0.0
H492 H 0.98644 0.10321 0.54392 0.0
H493 H 0.98462 0.13513 0.50843 0.0
H494 H 0.07501 0.1367 0.53426 0.0
H495 H 0.1168 0.18371 0.5888 0.0
H496 H 0.17156 0.23151 0.81091 0.0
H497 H 0.1686 0.23593 0.86436 0.0
H498 H 0.24223 0.37222 0.88967 0.0
H499 H 0.2454 0.36817 0.83632 0.0
H500 H 0.25282 0.24669 0.93571 0.0
H501 H 0.11882 0.39505 0.89598 0.0
H502 H 0.12495 0.36009 0.86455 0.0
H503 H 0.16895 0.40562 0.88989 0.0
C504 C 0.18699 0.26249 0.82775 0.0
C505 C 0.20871 0.29947 0.81933 0.0
C506 C 0.18525 0.26495 0.85827 0.0
C507 C 0.20469 0.30465 0.88068 0.0
C508 C 0.22637 0.34163 0.8724 0.0
H509 H 0.23607 0.38713 0.07848 0.0
H510 H 0.23295 0.38418 0.02266 0.0
C511 C 0.22838 0.33908 0.842 0.0
C512 C 0.20395 0.30662 0.91344 0.0
H513 H 0.15761 0.36896 0.95505 0.0
C514 C 0.23183 0.27321 0.93994 0.0
C515 C 0.17679 0.34153 0.91884 0.0
C516 C 0.14532 0.37747 0.89077 0.0
C517 C 0.23404 0.27429 0.97209 0.0
C518 C 0.20654 0.30897 0.97746 0.0
C519 C 0.17858 0.34237 0.95087 0.0
C520 C 0.20655 0.31125 0.01059 0.0
C521 C 0.26693 0.23911 0.00033 0.0
C522 C 0.19162 0.27166 0.0219 0.0
C523 C 0.19376 0.27309 0.05388 0.0
C524 C 0.21026 0.3144 0.07496 0.0
C525 C 0.22346 0.35467 0.06295 0.0
C526 C 0.22165 0.35307 0.03105 0.0
H527 H 0.29546 0.22471 0.99596 0.0
H528 H 0.28512 0.25591 0.02676 0.0
H529 H 0.24479 0.20849 1.00003 0.0
H530 H 0.17854 0.23949 0.00607 0.0
H531 H 0.1827 0.24167 0.06213 0.0
H532 H 0.72046 0.76748 0.63585 0.0
H533 H 0.72865 0.77342 0.58476 0.0
H534 H 0.88492 0.76008 0.65189 0.0
H535 H 0.87716 0.7549 0.70336 0.0
H536 H 0.85813 0.83319 0.60423 0.0
H537 H 0.75848 0.66744 0.53682 0.0
H538 H 0.72363 0.70626 0.54738 0.0
H539 H 0.77916 0.67982 0.58215 0.0
C540 C 0.75658 0.76547 0.63978 0.0
C541 C 0.79814 0.76076 0.67368 0.0
C542 C 0.76117 0.76863 0.61049 0.0
C543 C 0.80733 0.76649 0.61443 0.0
C544 C 0.84894 0.76167 0.64824 0.0
H545 H 0.8396 0.73182 0.43422 0.0
H546 H 0.84508 0.72241 0.49042 0.0
C547 C 0.84442 0.75873 0.67761 0.0
C548 C 0.81208 0.77095 0.58332 0.0
H549 H 0.77226 0.72309 0.50245 0.0
C550 C 0.83971 0.80889 0.58208 0.0
C551 C 0.78872 0.73879 0.55468 0.0
C552 C 0.76125 0.6955 0.55539 0.0
C553 C 0.84334 0.81641 0.55249 0.0
C554 C 0.81777 0.78576 0.52307 0.0
C555 C 0.79138 0.74697 0.5248 0.0
C556 C 0.81754 0.79316 0.49012 0.0
C557 C 0.87495 0.8568 0.55323 0.0
C558 C 0.8004 0.83618 0.47122 0.0
C559 C 0.79756 0.84182 0.43913 0.0
C560 C 0.81114 0.80426 0.42508 0.0
C561 C 0.82872 0.76143 0.44422 0.0
C562 C 0.83186 0.75596 0.47638 0.0
H563 H 0.90312 0.867 0.58059 0.0
H564 H 0.89348 0.847 0.53905 0.0
H565 H 0.8518 0.88867 0.54028 0.0
H566 H 0.78805 0.865 0.48084 0.0
H567 H 0.78363 0.87517 0.42496 0.0
H568 H 0.8049 0.6426 0.92974 0.0
H569 H 0.80787 0.64638 0.98557 0.0
H570 H 0.8081 0.80051 0.98176 0.0
H571 H 0.80488 0.79721 0.92603 0.0
H572 H 0.87757 0.69386 0.05119 0.0
H573 H 0.68917 0.76574 0.99035 0.0
H574 H 0.71123 0.73775 0.96494 0.0
H575 H 0.72859 0.7981 0.98035 0.0
C576 C 0.80569 0.6773 0.94083 0.0
C577 C 0.80413 0.71961 0.92324 0.0
C578 C 0.80752 0.67938 0.97275 0.0
C579 C 0.80748 0.72372 0.98748 0.0
C580 C 0.80738 0.76594 0.97053 0.0
H581 H 0.86119 0.78601 0.19607 0.0
H582 H 0.86474 0.78276 0.14275 0.0
C583 C 0.80572 0.76394 0.93873 0.0
C584 C 0.80649 0.72595 0.02018 0.0
H585 H 0.73599 0.76132 0.05241 0.0
C586 C 0.84668 0.70859 0.05153 0.0
C587 C 0.7659 0.74481 0.02039 0.0
C588 C 0.72103 0.76234 0.9872 0.0
C589 C 0.84756 0.71014 0.08325 0.0
C590 C 0.80733 0.7298 0.08354 0.0
C591 C 0.76695 0.74665 0.05212 0.0
C592 C 0.80566 0.73184 0.11599 0.0
C593 C 0.89108 0.69002 0.1161 0.0
C594 C 0.77073 0.70495 0.11832 0.0
C595 C 0.76855 0.70673 0.14867 0.0
C596 C 0.80101 0.73582 0.17718 0.0
C597 C 0.83568 0.7632 0.17461 0.0
C598 C 0.83797 0.76119 0.14426 0.0
H599 H 0.91444 0.66779 0.11014 0.0
H600 H 0.91355 0.71994 0.13338 0.0
H601 H 0.87916 0.66794 0.13086 0.0
H602 H 0.74531 0.68228 0.0967 0.0
H603 H 0.74134 0.6853 0.14972 0.0
H604 H 0.20028 0.30359 0.5718 0.0
H605 H 0.19354 0.31026 0.51499 0.0
H606 H 0.21187 0.15755 0.51351 0.0
H607 H 0.21762 0.15038 0.57003 0.0
H608 H 0.26244 0.28726 0.50013 0.0
H609 H 0.09484 0.18138 0.41575 0.0
H610 H 0.11205 0.20159 0.45911 0.0
H611 H 0.13998 0.14917 0.45379 0.0
C612 C 0.20239 0.27131 0.55925 0.0
C613 C 0.2096 0.22645 0.57549 0.0
C614 C 0.19853 0.27522 0.52676 0.0
C615 C 0.20161 0.23438 0.50978 0.0
C616 C 0.2083 0.18945 0.52574 0.0
H617 H 0.28703 0.21548 0.35759 0.0
H618 H 0.2808 0.21506 0.40966 0.0
C619 C 0.21197 0.18546 0.5582 0.0
C620 C 0.20091 0.23923 0.4765 0.0
H621 H 0.14387 0.19985 0.39163 0.0
C622 C 0.23625 0.26843 0.47633 0.0
C623 C 0.16634 0.21517 0.44533 0.0
C624 C 0.12584 0.18545 0.44329 0.0
C625 C 0.23889 0.27309 0.44617 0.0
C626 C 0.20583 0.24725 0.41554 0.0
C627 C 0.1695 0.21923 0.4153 0.0
C628 C 0.2093 0.24785 0.38382 0.0
C629 C 0.27697 0.30579 0.44731 0.0
C630 C 0.17073 0.26562 0.35184 0.0
C631 C 0.1741 0.26582 0.32192 0.0
C632 C 0.216 0.24785 0.32345 0.0
C633 C 0.25434 0.22973 0.35551 0.0
C634 C 0.25097 0.22967 0.38536 0.0
H635 H 0.29031 0.33239 0.46892 0.0
H636 H 0.30864 0.28411 0.45185 0.0
H637 H 0.2623 0.32522 0.42207 0.0
H638 H 0.13815 0.27959 0.35008 0.0
H639 H 0.1438 0.2798 0.2976 0.0
loop_
_geom_bond_atom_site_label_1
_geom_bond_atom_site_label_2
_geom_bond_distance
_geom_bond_site_symmetry_2
_ccdc_geom_bond_type
Zn0 N4 2.020 . S
Zn0 O8 2.019 . S
Zn0 N10 2.119 . S
Zn0 O18 1.975 . S
C1 N2 1.334 . S
C1 N5 1.336 . S
N2 C1 1.334 . S
N2 C3 1.334 . S
C3 N2 1.334 . S
C3 N4 1.336 . S
N4 Zn0 2.020 . S
N4 C3 1.336 . S
N4 N5 1.354 . S
N5 C1 1.336 . S
N5 N4 1.354 . S
N5 Zn9 2.020 . S
C6 O7 1.244 . S
C6 O30 1.257 . S
O7 C6 1.244 . S
O8 Zn0 2.019 . S
O8 C28 1.257 . S
Zn9 N5 2.020 . S
Zn9 O16 1.975 . S
Zn9 N25 2.119 . S
Zn9 O30 2.019 . S
N10 Zn0 2.119 . S
N10 C12 1.334 . S
N10 C13 1.328 . S
C11 C12 1.391 . S
C11 N14 1.329 . S
C11 H32 0.930 . S
C12 N10 1.334 . S
C12 C11 1.391 . S
C12 H19 0.930 . S
C13 N10 1.328 . S
C13 C15 1.392 . S
C13 H20 0.930 . S
N14 C11 1.329 . S
N14 C15 1.331 . S
C15 C13 1.392 . S
C15 N14 1.331 . S
O16 Zn9 1.975 . S
O16 C17 1.252 . S
C17 O16 1.252 . S
C17 O18 1.252 . S
O18 Zn0 1.975 . S
O18 C17 1.252 . S
H19 C12 0.930 . S
H20 C13 0.930 . S
C21 C22 1.392 . S
C21 N25 1.328 . S
C21 H27 0.930 . S
C22 C21 1.392 . S
C22 N26 1.331 . S
C23 C24 1.391 . S
C23 N26 1.329 . S
C23 H33 0.930 . S
C24 C23 1.391 . S
C24 N25 1.334 . S
C24 H31 0.930 . S
N25 Zn9 2.119 . S
N25 C21 1.328 . S
N25 C24 1.334 . S
N26 C22 1.331 . S
N26 C23 1.329 . S
H27 C21 0.930 . S
C28 O8 1.257 . S
C28 O29 1.244 . S
O29 C28 1.244 . S
O30 C6 1.257 . S
O30 Zn9 2.019 . S
H31 C24 0.930 . S
H32 C11 0.930 . S
H33 C23 0.930 . S
Zn34 N38 2.020 . S
Zn34 O42 2.019 . S
Zn34 N44 2.119 . S
Zn34 O52 1.975 . S
C35 N36 1.334 . S
C35 N39 1.336 . S
N36 C35 1.334 . S
N36 C37 1.334 . S
C37 N36 1.334 . S
C37 N38 1.336 . S
N38 Zn34 2.020 . S
N38 C37 1.336 . S
N38 N39 1.354 . S
N39 C35 1.336 . S
N39 N38 1.354 . S
N39 Zn43 2.020 . S
C40 O41 1.244 . S
C40 O64 1.257 . S
O41 C40 1.244 . S
O42 Zn34 2.019 . S
O42 C62 1.257 . S
Zn43 N39 2.020 . S
Zn43 O50 1.975 . S
Zn43 N59 2.119 . S
Zn43 O64 2.019 . S
N44 Zn34 2.119 . S
N44 C46 1.334 . S
N44 C47 1.328 . S
C45 C46 1.391 . S
C45 N48 1.329 . S
C45 H66 0.930 . S
C46 N44 1.334 . S
C46 C45 1.391 . S
C46 H53 0.930 . S
C47 N44 1.328 . S
C47 C49 1.392 . S
C47 H54 0.930 . S
N48 C45 1.329 . S
N48 C49 1.331 . S
C49 C47 1.392 . S
C49 N48 1.331 . S
O50 Zn43 1.975 . S
O50 C51 1.252 . S
C51 O50 1.252 . S
C51 O52 1.252 . S
O52 Zn34 1.975 . S
O52 C51 1.252 . S
H53 C46 0.930 . S
H54 C47 0.930 . S
C55 C56 1.392 . S
C55 N59 1.328 . S
C55 H61 0.930 . S
C56 C55 1.392 . S
C56 N60 1.331 . S
C57 C58 1.391 . S
C57 N60 1.329 . S
C57 H67 0.930 . S
C58 C57 1.391 . S
C58 N59 1.334 . S
C58 H65 0.930 . S
N59 Zn43 2.119 . S
N59 C55 1.328 . S
N59 C58 1.334 . S
N60 C56 1.331 . S
N60 C57 1.329 . S
H61 C55 0.930 . S
C62 O42 1.257 . S
C62 O63 1.244 . S
O63 C62 1.244 . S
O64 C40 1.257 . S
O64 Zn43 2.019 . S
H65 C58 0.930 . S
H66 C45 0.930 . S
H67 C57 0.930 . S
Zn68 N72 2.020 . S
Zn68 O76 2.019 . S
Zn68 N78 2.119 . S
Zn68 O86 1.975 . S
C69 N70 1.334 . S
C69 N73 1.336 . S
N70 C69 1.334 . S
N70 C71 1.334 . S
C71 N70 1.334 . S
C71 N72 1.336 . S
N72 Zn68 2.020 . S
N72 C71 1.336 . S
N72 N73 1.354 . S
N73 C69 1.336 . S
N73 N72 1.354 . S
N73 Zn77 2.020 . S
C74 O75 1.244 . S
C74 O98 1.257 . S
O75 C74 1.244 . S
O76 Zn68 2.019 . S
O76 C96 1.257 . S
Zn77 N73 2.020 . S
Zn77 O84 1.975 . S
Zn77 N93 2.119 . S
Zn77 O98 2.019 . S
N78 Zn68 2.119 . S
N78 C80 1.334 . S
N78 C81 1.328 . S
C79 C80 1.391 . S
C79 N82 1.329 . S
C79 H100 0.930 . S
C80 N78 1.334 . S
C80 C79 1.391 . S
C80 H87 0.930 . S
C81 N78 1.328 . S
C81 C83 1.392 . S
C81 H88 0.930 . S
N82 C79 1.329 . S
N82 C83 1.331 . S
C83 C81 1.392 . S
C83 N82 1.331 . S
O84 Zn77 1.975 . S
O84 C85 1.252 . S
C85 O84 1.252 . S
C85 O86 1.252 . S
O86 Zn68 1.975 . S
O86 C85 1.252 . S
H87 C80 0.930 . S
H88 C81 0.930 . S
C89 C90 1.392 . S
C89 N93 1.328 . S
C89 H95 0.930 . S
C90 C89 1.392 . S
C90 N94 1.331 . S
C91 C92 1.391 . S
C91 N94 1.329 . S
C91 H101 0.930 . S
C92 C91 1.391 . S
C92 N93 1.334 . S
C92 H99 0.930 . S
N93 Zn77 2.119 . S
N93 C89 1.328 . S
N93 C92 1.334 . S
N94 C90 1.331 . S
N94 C91 1.329 . S
H95 C89 0.930 . S
C96 O76 1.257 . S
C96 O97 1.244 . S
O97 C96 1.244 . S
O98 C74 1.257 . S
O98 Zn77 2.019 . S
H99 C92 0.930 . S
H100 C79 0.930 . S
H101 C91 0.930 . S
Zn102 N106 2.020 . S
Zn102 O110 2.019 . S
Zn102 N112 2.119 . S
Zn102 O120 1.975 . S
C103 N104 1.334 . S
C103 N107 1.336 . S
N104 C103 1.334 . S
N104 C105 1.334 . S
C105 N104 1.334 . S
C105 N106 1.336 . S
N106 Zn102 2.020 . S
N106 C105 1.336 . S
N106 N107 1.354 . S
N107 C103 1.336 . S
N107 N106 1.354 . S
N107 Zn111 2.020 . S
C108 O109 1.244 . S
C108 O132 1.257 . S
O109 C108 1.244 . S
O110 Zn102 2.019 . S
O110 C130 1.257 . S
Zn111 N107 2.020 . S
Zn111 O118 1.975 . S
Zn111 N127 2.119 . S
Zn111 O132 2.019 . S
N112 Zn102 2.119 . S
N112 C114 1.334 . S
N112 C115 1.328 . S
C113 C114 1.391 . S
C113 N116 1.329 . S
C113 H134 0.930 . S
C114 N112 1.334 . S
C114 C113 1.391 . S
C114 H121 0.930 . S
C115 N112 1.328 . S
C115 C117 1.392 . S
C115 H122 0.930 . S
N116 C113 1.329 . S
N116 C117 1.331 . S
C117 C115 1.392 . S
C117 N116 1.331 . S
O118 Zn111 1.975 . S
O118 C119 1.252 . S
C119 O118 1.252 . S
C119 O120 1.252 . S
O120 Zn102 1.975 . S
O120 C119 1.252 . S
H121 C114 0.930 . S
H122 C115 0.930 . S
C123 C124 1.392 . S
C123 N127 1.328 . S
C123 H129 0.930 . S
C124 C123 1.392 . S
C124 N128 1.331 . S
C125 C126 1.391 . S
C125 N128 1.329 . S
C125 H135 0.930 . S
C126 C125 1.391 . S
C126 N127 1.334 . S
C126 H133 0.930 . S
N127 Zn111 2.119 . S
N127 C123 1.328 . S
N127 C126 1.334 . S
N128 C124 1.331 . S
N128 C125 1.329 . S
H129 C123 0.930 . S
C130 O110 1.257 . S
C130 O131 1.244 . S
O131 C130 1.244 . S
O132 C108 1.257 . S
O132 Zn111 2.019 . S
H133 C126 0.930 . S
H134 C113 0.930 . S
H135 C125 0.930 . S
H136 C144 0.929 . S
H137 C146 0.930 . S
H138 C148 0.930 . S
H139 C151 0.929 . S
H140 C154 0.930 . S
H141 C156 0.960 . S
H142 C156 0.960 . S
H143 C156 0.960 . S
C144 H136 0.929 . S
C144 C145 1.377 . S
C144 C146 1.384 . S
C145 C144 1.377 . S
C145 C151 1.390 . S
C146 H137 0.930 . S
C146 C144 1.384 . S
C146 C147 1.372 . S
C147 C146 1.372 . S
C147 C148 1.400 . S
C147 C152 1.490 . S
C148 H138 0.930 . S
C148 C147 1.400 . S
C148 C151 1.386 . S
H149 C165 0.930 . S
H150 C166 0.931 . S
C151 H139 0.929 . S
C151 C145 1.390 . S
C151 C148 1.386 . S
C152 C147 1.490 . S
C152 C154 1.395 . S
C152 C155 1.403 . S
H153 C159 0.930 . S
C154 H140 0.930 . S
C154 C152 1.395 . S
C154 C157 1.403 1_545 S
C155 C152 1.403 . S
C155 C156 1.524 . S
C155 C159 1.400 . S
C156 H141 0.960 . S
C156 H142 0.960 . S
C156 H143 0.960 . S
C156 C155 1.524 . S
C157 C154 1.403 1_565 S
C157 C158 1.392 1_565 S
C157 C161 1.495 . S
C158 C157 1.392 1_545 S
C158 C159 1.385 . S
C158 C160 1.478 1_545 S
C159 H153 0.930 . S
C159 C155 1.400 . S
C159 C158 1.385 . S
C160 C158 1.478 1_565 S
C160 C162 1.381 . S
C160 C166 1.383 . S
C161 C157 1.495 . S
C161 H167 0.959 . S
C161 H168 0.961 . S
C161 H169 0.960 . S
C162 C160 1.381 . S
C162 C163 1.394 . S
C162 H170 0.930 . S
C163 C162 1.394 . S
C163 C164 1.383 . S
C163 H171 0.929 . S
C164 C163 1.383 . S
C164 C165 1.377 . S
C165 H149 0.930 . S
C165 C164 1.377 . S
C165 C166 1.379 . S
C166 H150 0.931 . S
C166 C160 1.383 . S
C166 C165 1.379 . S
H167 C161 0.959 . S
H168 C161 0.961 . S
H169 C161 0.960 . S
H170 C162 0.930 . S
H171 C163 0.929 . S
H172 C180 0.929 . S
H173 C182 0.930 . S
H174 C184 0.930 . S
H175 C187 0.929 . S
H176 C190 0.930 . S
H177 C192 0.960 . S
H178 C192 0.960 . S
H179 C192 0.960 . S
C180 H172 0.929 . S
C180 C181 1.377 . S
C180 C182 1.384 . S
C181 C180 1.377 . S
C181 C187 1.390 . S
C182 H173 0.930 . S
C182 C180 1.384 . S
C182 C183 1.372 . S
C183 C182 1.372 . S
C183 C184 1.400 . S
C183 C188 1.490 . S
C184 H174 0.930 . S
C184 C183 1.400 . S
C184 C187 1.386 . S
H185 C201 0.930 . S
H186 C202 0.931 . S
C187 H175 0.929 . S
C187 C181 1.390 . S
C187 C184 1.386 . S
C188 C183 1.490 . S
C188 C190 1.395 . S
C188 C191 1.403 . S
H189 C195 0.930 . S
C190 H176 0.930 . S
C190 C188 1.395 . S
C190 C193 1.403 . S
C191 C188 1.403 . S
C191 C192 1.524 . S
C191 C195 1.400 . S
C192 H177 0.960 . S
C192 H178 0.960 . S
C192 H179 0.960 . S
C192 C191 1.524 . S
C193 C190 1.403 . S
C193 C194 1.392 . S
C193 C197 1.495 . S
C194 C193 1.392 . S
C194 C195 1.385 . S
C194 C196 1.478 . S
C195 H189 0.930 . S
C195 C191 1.400 . S
C195 C194 1.385 . S
C196 C194 1.478 . S
C196 C198 1.381 . S
C196 C202 1.383 . S
C197 C193 1.495 . S
C197 H203 0.959 . S
C197 H204 0.961 . S
C197 H205 0.960 . S
C198 C196 1.381 . S
C198 C199 1.394 . S
C198 H206 0.930 . S
C199 C198 1.394 . S
C199 C200 1.383 . S
C199 H207 0.929 . S
C200 C199 1.383 . S
C200 C201 1.377 . S
C201 H185 0.930 . S
C201 C200 1.377 . S
C201 C202 1.379 . S
C202 H186 0.931 . S
C202 C196 1.383 . S
C202 C201 1.379 . S
H203 C197 0.959 . S
H204 C197 0.961 . S
H205 C197 0.960 . S
H206 C198 0.930 . S
H207 C199 0.929 . S
H208 C216 0.929 . S
H209 C218 0.930 1_565 S
H210 C220 0.930 . S
H211 C223 0.929 . S
H212 C226 0.930 . S
H213 C228 0.955 1_565 S
H214 C228 0.956 1_565 S
H215 C228 0.977 . S
C216 H208 0.929 . S
C216 C217 1.377 . S
C216 C218 1.384 . S
C217 C216 1.377 . S
C217 C223 1.390 . S
C218 H209 0.930 1_545 S
C218 C216 1.384 . S
C218 C219 1.372 . S
C219 C218 1.372 . S
C219 C220 1.400 . S
C219 C224 1.490 1_545 S
C220 H210 0.930 . S
C220 C219 1.400 . S
C220 C223 1.386 . S
H221 C237 0.930 . S
H222 C238 0.931 . S
C223 H211 0.929 . S
C223 C217 1.390 . S
C223 C220 1.386 . S
C224 C219 1.490 1_565 S
C224 C226 1.395 . S
C224 C227 1.403 . S
H225 C231 0.930 . S
C226 H212 0.930 . S
C226 C224 1.395 . S
C226 C229 1.403 . S
C227 C224 1.403 . S
C227 C228 1.516 1_565 S
C227 C231 1.400 . S
C228 H213 0.955 1_545 S
C228 H214 0.956 1_545 S
C228 H215 0.977 . S
C228 C227 1.516 1_545 S
C229 C226 1.403 . S
C229 C230 1.392 . S
C229 C233 1.495 . S
C230 C229 1.392 . S
C230 C231 1.385 . S
C230 C232 1.478 . S
C231 H225 0.930 . S
C231 C227 1.400 . S
C231 C230 1.385 . S
C232 C230 1.478 . S
C232 C234 1.381 . S
C232 C238 1.383 . S
C233 C229 1.495 . S
C233 H239 0.959 . S
C233 H240 0.961 . S
C233 H241 0.960 . S
C234 C232 1.381 . S
C234 C235 1.394 . S
C234 H242 0.930 . S
C235 C234 1.394 . S
C235 C236 1.383 . S
C235 H243 0.929 . S
C236 C235 1.383 . S
C236 C237 1.377 . S
C237 H221 0.930 . S
C237 C236 1.377 . S
C237 C238 1.379 . S
C238 H222 0.931 . S
C238 C232 1.383 . S
C238 C237 1.379 . S
H239 C233 0.959 . S
H240 C233 0.961 . S
H241 C233 0.960 . S
H242 C234 0.930 . S
H243 C235 0.929 . S
H244 C252 0.929 . S
H245 C254 0.930 . S
H246 C256 0.930 . S
H247 C259 0.929 . S
H248 C262 0.930 . S
H249 C264 0.960 . S
H250 C264 0.960 . S
H251 C264 0.960 . S
C252 H244 0.929 . S
C252 C253 1.377 . S
C252 C254 1.384 . S
C253 C252 1.377 . S
C253 C259 1.390 . S
C254 H245 0.930 . S
C254 C252 1.384 . S
C254 C255 1.372 . S
C255 C254 1.372 . S
C255 C256 1.400 . S
C255 C260 1.490 . S
C256 H246 0.930 . S
C256 C255 1.400 . S
C256 C259 1.386 . S
H257 C273 0.930 . S
H258 C274 0.931 . S
C259 H247 0.929 . S
C259 C253 1.390 . S
C259 C256 1.386 . S
C260 C255 1.490 . S
C260 C262 1.395 . S
C260 C263 1.403 . S
H261 C267 0.930 . S
C262 H248 0.930 . S
C262 C260 1.395 . S
C262 C265 1.403 . S
C263 C260 1.403 . S
C263 C264 1.524 . S
C263 C267 1.400 . S
C264 H249 0.960 . S
C264 H250 0.960 . S
C264 H251 0.960 . S
C264 C263 1.524 . S
C265 C262 1.403 . S
C265 C266 1.392 . S
C265 C269 1.495 . S
C266 C265 1.392 . S
C266 C267 1.385 . S
C266 C268 1.478 . S
C267 H261 0.930 . S
C267 C263 1.400 . S
C267 C266 1.385 . S
C268 C266 1.478 . S
C268 C270 1.381 . S
C268 C274 1.383 . S
C269 C265 1.495 . S
C269 H275 0.959 . S
C269 H276 0.961 . S
C269 H277 0.960 . S
C270 C268 1.381 . S
C270 C271 1.394 . S
C270 H278 0.930 . S
C271 C270 1.394 . S
C271 C272 1.383 . S
C271 H279 0.929 . S
C272 C271 1.383 . S
C272 C273 1.377 . S
C273 H257 0.930 . S
C273 C272 1.377 . S
C273 C274 1.379 . S
C274 H258 0.931 . S
C274 C268 1.383 . S
C274 C273 1.379 . S
H275 C269 0.959 . S
H276 C269 0.961 . S
H277 C269 0.960 . S
H278 C270 0.930 . S
H279 C271 0.929 . S
H280 C288 0.929 . S
H281 C290 0.930 1_565 S
H282 C292 0.930 . S
H283 C295 0.929 . S
H284 C298 0.930 . S
H285 C300 0.960 . S
H286 C300 0.960 . S
H287 C300 0.960 . S
C288 H280 0.929 . S
C288 C289 1.377 . S
C288 C290 1.384 . S
C289 C288 1.377 . S
C289 C295 1.390 . S
C290 H281 0.930 1_545 S
C290 C288 1.384 . S
C290 C291 1.372 . S
C291 C290 1.372 . S
C291 C292 1.400 . S
C291 C296 1.490 . S
C292 H282 0.930 . S
C292 C291 1.400 . S
C292 C295 1.386 . S
H293 C309 0.930 . S
H294 C310 0.931 . S
C295 H283 0.929 . S
C295 C289 1.390 . S
C295 C292 1.386 . S
C296 C291 1.490 . S
C296 C298 1.395 1_545 S
C296 C299 1.403 1_455 S
H297 C303 0.930 . S
C298 H284 0.930 . S
C298 C296 1.395 1_565 S
C298 C301 1.403 . S
C299 C296 1.403 1_655 S
C299 C300 1.524 . S
C299 C303 1.400 1_545 S
C300 H285 0.960 . S
C300 H286 0.960 . S
C300 H287 0.960 . S
C300 C299 1.524 . S
C301 C298 1.403 . S
C301 C302 1.392 1_455 S
C301 C305 1.495 . S
C302 C301 1.392 1_655 S
C302 C303 1.385 . S
C302 C304 1.478 . S
C303 H297 0.930 . S
C303 C299 1.400 1_565 S
C303 C302 1.385 . S
C304 C302 1.478 . S
C304 C306 1.381 . S
C304 C310 1.383 . S
C305 C301 1.495 . S
C305 H311 0.959 . S
C305 H312 0.961 . S
C305 H313 0.960 . S
C306 C304 1.381 . S
C306 C307 1.394 . S
C306 H314 0.930 . S
C307 C306 1.394 . S
C307 C308 1.383 . S
C307 H315 0.929 . S
C308 C307 1.383 . S
C308 C309 1.377 . S
C309 H293 0.930 . S
C309 C308 1.377 . S
C309 C310 1.379 . S
C310 H294 0.931 . S
C310 C304 1.383 . S
C310 C309 1.379 . S
H311 C305 0.959 . S
H312 C305 0.961 . S
H313 C305 0.960 . S
H314 C306 0.930 . S
H315 C307 0.929 . S
H316 C324 0.929 . S
H317 C326 0.930 . S
H318 C328 0.930 . S
H319 C331 0.929 . S
H320 C334 0.930 . S
H321 C336 0.960 . S
H322 C336 0.960 . S
H323 C336 0.960 . S
C324 H316 0.929 . S
C324 C325 1.377 . S
C324 C326 1.384 . S
C325 C324 1.377 . S
C325 C331 1.390 . S
C326 H317 0.930 . S
C326 C324 1.384 . S
C326 C327 1.372 . S
C327 C326 1.372 . S
C327 C328 1.400 . S
C327 C332 1.490 . S
C328 H318 0.930 . S
C328 C327 1.400 . S
C328 C331 1.386 . S
H329 C345 0.930 . S
H330 C346 0.931 1_455 S
C331 H319 0.929 . S
C331 C325 1.390 . S
C331 C328 1.386 . S
C332 C327 1.490 . S
C332 C334 1.395 . S
C332 C335 1.403 . S
H333 C339 0.932 . S
C334 H320 0.930 . S
C334 C332 1.395 . S
C334 C337 1.403 . S
C335 C332 1.403 . S
C335 C336 1.524 . S
C335 C339 1.391 1_455 S
C336 H321 0.960 . S
C336 H322 0.960 . S
C336 H323 0.960 . S
C336 C335 1.524 . S
C337 C334 1.403 . S
C337 C338 1.392 1_455 S
C337 C341 1.495 1_455 S
C338 C337 1.392 1_655 S
C338 C339 1.393 . S
C338 C340 1.478 . S
C339 H333 0.932 . S
C339 C335 1.391 1_655 S
C339 C338 1.393 . S
C340 C338 1.478 . S
C340 C342 1.381 . S
C340 C346 1.383 . S
C341 C337 1.495 1_655 S
C341 H347 0.959 1_655 S
C341 H348 0.961 1_655 S
C341 H349 0.960 . S
C342 C340 1.381 . S
C342 C343 1.394 . S
C342 H350 0.930 . S
C343 C342 1.394 . S
C343 C344 1.383 . S
C343 H351 0.929 . S
C344 C343 1.383 . S
C344 C345 1.377 . S
C345 H329 0.930 . S
C345 C344 1.377 . S
C345 C346 1.379 . S
C346 H330 0.931 1_655 S
C346 C340 1.383 . S
C346 C345 1.379 . S
H347 C341 0.959 1_455 S
H348 C341 0.961 1_455 S
H349 C341 0.960 . S
H350 C342 0.930 . S
H351 C343 0.929 . S
H352 C360 0.929 . S
H353 C362 0.930 . S
H354 C364 0.930 1_455 S
H355 C367 0.929 . S
H356 C370 0.930 . S
H357 C372 0.960 . S
H358 C372 0.960 . S
H359 C372 0.960 . S
C360 H352 0.929 . S
C360 C361 1.377 . S
C360 C362 1.384 . S
C361 C360 1.377 . S
C361 C367 1.390 . S
C362 H353 0.930 . S
C362 C360 1.384 . S
C362 C363 1.372 . S
C363 C362 1.372 . S
C363 C364 1.400 . S
C363 C368 1.490 . S
C364 H354 0.930 1_655 S
C364 C363 1.400 . S
C364 C367 1.386 . S
H365 C381 0.930 . S
H366 C382 0.931 . S
C367 H355 0.929 . S
C367 C361 1.390 . S
C367 C364 1.386 . S
C368 C363 1.490 . S
C368 C370 1.395 1_565 S
C368 C371 1.403 1_655 S
H369 C375 0.930 . S
C370 H356 0.930 . S
C370 C368 1.395 1_545 S
C370 C373 1.403 1_655 S
C371 C368 1.403 1_455 S
C371 C372 1.524 . S
C371 C375 1.400 1_565 S
C372 H357 0.960 . S
C372 H358 0.960 . S
C372 H359 0.960 . S
C372 C371 1.524 . S
C373 C370 1.403 1_455 S
C373 C374 1.392 . S
C373 C377 1.495 1_455 S
C374 C373 1.392 . S
C374 C375 1.385 . S
C374 C376 1.478 . S
C375 H369 0.930 . S
C375 C371 1.400 1_545 S
C375 C374 1.385 . S
C376 C374 1.478 . S
C376 C378 1.381 . S
C376 C382 1.383 . S
C377 C373 1.495 1_655 S
C377 H383 0.959 . S
C377 H384 0.961 1_655 S
C377 H385 0.960 . S
C378 C376 1.381 . S
C378 C379 1.394 . S
C378 H386 0.930 . S
C379 C378 1.394 . S
C379 C380 1.383 . S
C379 H387 0.929 . S
C380 C379 1.383 . S
C380 C381 1.377 . S
C381 H365 0.930 . S
C381 C380 1.377 . S
C381 C382 1.379 . S
C382 H366 0.931 . S
C382 C376 1.383 . S
C382 C381 1.379 . S
H383 C377 0.959 . S
H384 C377 0.961 1_455 S
H385 C377 0.960 . S
H386 C378 0.930 . S
H387 C379 0.929 . S
H388 C396 0.929 . S
H389 C398 0.930 . S
H390 C400 0.930 . S
H391 C403 0.929 . S
H392 C406 0.930 . S
H393 C408 0.960 . S
H394 C408 0.960 . S
H395 C408 0.960 . S
C396 H388 0.929 . S
C396 C397 1.377 . S
C396 C398 1.384 . S
C397 C396 1.377 . S
C397 C403 1.390 . S
C398 H389 0.930 . S
C398 C396 1.384 . S
C398 C399 1.372 . S
C399 C398 1.372 . S
C399 C400 1.400 . S
C399 C404 1.490 . S
C400 H390 0.930 . S
C400 C399 1.400 . S
C400 C403 1.386 . S
H401 C417 0.930 . S
H402 C418 0.931 . S
C403 H391 0.929 . S
C403 C397 1.390 . S
C403 C400 1.386 . S
C404 C399 1.490 . S
C404 C406 1.395 1_455 S
C404 C407 1.403 . S
H405 C411 0.930 . S
C406 H392 0.930 . S
C406 C404 1.395 1_655 S
C406 C409 1.403 . S
C407 C404 1.403 . S
C407 C408 1.524 . S
C407 C411 1.400 1_455 S
C408 H393 0.960 . S
C408 H394 0.960 . S
C408 H395 0.960 . S
C408 C407 1.524 . S
C409 C406 1.403 . S
C409 C410 1.392 . S
C409 C413 1.495 . S
C410 C409 1.392 . S
C410 C411 1.385 . S
C410 C412 1.478 . S
C411 H405 0.930 . S
C411 C407 1.400 1_655 S
C411 C410 1.385 . S
C412 C410 1.478 . S
C412 C414 1.381 . S
C412 C418 1.383 . S
C413 C409 1.495 . S
C413 H419 0.959 . S
C413 H420 0.961 . S
C413 H421 0.960 . S
C414 C412 1.381 . S
C414 C415 1.394 . S
C414 H422 0.930 . S
C415 C414 1.394 . S
C415 C416 1.383 . S
C415 H423 0.929 . S
C416 C415 1.383 . S
C416 C417 1.377 . S
C417 H401 0.930 . S
C417 C416 1.377 . S
C417 C418 1.379 . S
C418 H402 0.931 . S
C418 C412 1.383 . S
C418 C417 1.379 . S
H419 C413 0.959 . S
H420 C413 0.961 . S
H421 C413 0.960 . S
H422 C414 0.930 . S
H423 C415 0.929 . S
H424 C432 0.929 . S
H425 C434 0.930 . S
H426 C436 0.930 . S
H427 C439 0.929 . S
H428 C442 0.930 . S
H429 C444 0.960 1_554 S
H430 C444 0.960 . S
H431 C444 0.960 . S
C432 H424 0.929 . S
C432 C433 1.377 . S
C432 C434 1.384 . S
C433 C432 1.377 . S
C433 C439 1.390 . S
C434 H425 0.930 . S
C434 C432 1.384 . S
C434 C435 1.372 . S
C435 C434 1.372 . S
C435 C436 1.400 . S
C435 C440 1.490 . S
C436 H426 0.930 . S
C436 C435 1.400 . S
C436 C439 1.386 . S
H437 C453 0.930 . S
H438 C454 0.931 . S
C439 H427 0.929 . S
C439 C433 1.390 . S
C439 C436 1.386 . S
C440 C435 1.490 . S
C440 C442 1.395 . S
C440 C443 1.403 1_655 S
H441 C447 0.930 . S
C442 H428 0.930 . S
C442 C440 1.395 . S
C442 C445 1.403 1_556 S
C443 C440 1.403 1_455 S
C443 C444 1.524 . S
C443 C447 1.400 1_556 S
C444 H429 0.960 1_556 S
C444 H430 0.960 . S
C444 H431 0.960 . S
C444 C443 1.524 . S
C445 C442 1.403 1_554 S
C445 C446 1.392 1_655 S
C445 C449 1.495 . S
C446 C445 1.392 1_455 S
C446 C447 1.385 . S
C446 C448 1.478 . S
C447 H441 0.930 . S
C447 C443 1.400 1_554 S
C447 C446 1.385 . S
C448 C446 1.478 . S
C448 C450 1.381 . S
C448 C454 1.383 . S
C449 C445 1.495 . S
C449 H455 0.959 1_554 S
C449 H456 0.961 . S
C449 H457 0.960 . S
C450 C448 1.381 . S
C450 C451 1.394 . S
C450 H458 0.930 . S
C451 C450 1.394 . S
C451 C452 1.383 . S
C451 H459 0.929 . S
C452 C451 1.383 . S
C452 C453 1.377 . S
C453 H437 0.930 . S
C453 C452 1.377 . S
C453 C454 1.379 . S
C454 H438 0.931 . S
C454 C448 1.383 . S
C454 C453 1.379 . S
H455 C449 0.959 1_556 S
H456 C449 0.961 . S
H457 C449 0.960 . S
H458 C450 0.930 . S
H459 C451 0.929 . S
H460 C468 0.929 . S
H461 C470 0.930 . S
H462 C472 0.930 . S
H463 C475 0.929 . S
H464 C478 0.930 . S
H465 C480 0.960 . S
H466 C480 0.960 . S
H467 C480 0.960 . S
C468 H460 0.929 . S
C468 C469 1.377 . S
C468 C470 1.384 . S
C469 C468 1.377 . S
C469 C475 1.390 . S
C470 H461 0.930 . S
C470 C468 1.384 . S
C470 C471 1.372 . S
C471 C470 1.372 . S
C471 C472 1.400 . S
C471 C476 1.490 . S
C472 H462 0.930 . S
C472 C471 1.400 . S
C472 C475 1.386 . S
H473 C489 0.930 . S
H474 C490 0.931 . S
C475 H463 0.929 . S
C475 C469 1.390 . S
C475 C472 1.386 . S
C476 C471 1.490 . S
C476 C478 1.395 1_565 S
C476 C479 1.403 1_655 S
H477 C483 0.930 . S
C478 H464 0.930 . S
C478 C476 1.395 1_545 S
C478 C481 1.403 . S
C479 C476 1.403 1_455 S
C479 C480 1.524 . S
C479 C483 1.400 . S
C480 H465 0.960 . S
C480 H466 0.960 . S
C480 H467 0.960 . S
C480 C479 1.524 . S
C481 C478 1.403 . S
C481 C482 1.392 1_655 S
C481 C485 1.495 . S
C482 C481 1.392 1_455 S
C482 C483 1.385 1_545 S
C482 C484 1.478 . S
C483 H477 0.930 . S
C483 C479 1.400 . S
C483 C482 1.385 1_565 S
C484 C482 1.478 . S
C484 C486 1.381 . S
C484 C490 1.383 . S
C485 C481 1.495 . S
C485 H491 0.959 . S
C485 H492 0.961 . S
C485 H493 0.960 . S
C486 C484 1.381 . S
C486 C487 1.394 . S
C486 H494 0.930 . S
C487 C486 1.394 . S
C487 C488 1.383 . S
C487 H495 0.929 . S
C488 C487 1.383 . S
C488 C489 1.377 . S
C489 H473 0.930 . S
C489 C488 1.377 . S
C489 C490 1.379 . S
C490 H474 0.931 . S
C490 C484 1.383 . S
C490 C489 1.379 . S
H491 C485 0.959 . S
H492 C485 0.961 . S
H493 C485 0.960 . S
H494 C486 0.930 . S
H495 C487 0.929 . S
H496 C504 0.929 . S
H497 C506 0.930 . S
H498 C508 0.930 . S
H499 C511 0.929 . S
H500 C514 0.930 . S
H501 C516 0.960 . S
H502 C516 0.960 . S
H503 C516 0.960 . S
C504 H496 0.929 . S
C504 C505 1.377 . S
C504 C506 1.384 . S
C505 C504 1.377 . S
C505 C511 1.390 . S
C506 H497 0.930 . S
C506 C504 1.384 . S
C506 C507 1.372 . S
C507 C506 1.372 . S
C507 C508 1.400 . S
C507 C512 1.490 . S
C508 H498 0.930 . S
C508 C507 1.400 . S
C508 C511 1.386 . S
H509 C525 0.930 . S
H510 C526 0.931 . S
C511 H499 0.929 . S
C511 C505 1.390 . S
C511 C508 1.386 . S
C512 C507 1.490 . S
C512 C514 1.395 . S
C512 C515 1.403 . S
H513 C519 0.930 . S
C514 H500 0.930 . S
C514 C512 1.395 . S
C514 C517 1.403 . S
C515 C512 1.403 . S
C515 C516 1.524 . S
C515 C519 1.400 . S
C516 H501 0.960 . S
C516 H502 0.960 . S
C516 H503 0.960 . S
C516 C515 1.524 . S
C517 C514 1.403 . S
C517 C518 1.392 . S
C517 C521 1.495 . S
C518 C517 1.392 . S
C518 C519 1.385 . S
C518 C520 1.478 1_556 S
C519 H513 0.930 . S
C519 C515 1.400 . S
C519 C518 1.385 . S
C520 C518 1.478 1_554 S
C520 C522 1.381 . S
C520 C526 1.383 . S
C521 C517 1.495 . S
C521 H527 0.959 . S
C521 H528 0.961 . S
C521 H529 0.960 . S
C522 C520 1.381 . S
C522 C523 1.394 . S
C522 H530 0.930 1_554 S
C523 C522 1.394 . S
C523 C524 1.383 . S
C523 H531 0.929 . S
C524 C523 1.383 . S
C524 C525 1.377 . S
C525 H509 0.930 . S
C525 C524 1.377 . S
C525 C526 1.379 . S
C526 H510 0.931 . S
C526 C520 1.383 . S
C526 C525 1.379 . S
H527 C521 0.959 . S
H528 C521 0.961 . S
H529 C521 0.960 . S
H530 C522 0.930 1_556 S
H531 C523 0.929 . S
H532 C540 0.929 . S
H533 C542 0.930 . S
H534 C544 0.930 . S
H535 C547 0.929 . S
H536 C550 0.930 . S
H537 C552 0.960 . S
H538 C552 0.960 . S
H539 C552 0.960 . S
C540 H532 0.929 . S
C540 C541 1.377 . S
C540 C542 1.384 . S
C541 C540 1.377 . S
C541 C547 1.390 . S
C542 H533 0.930 . S
C542 C540 1.384 . S
C542 C543 1.372 . S
C543 C542 1.372 . S
C543 C544 1.400 . S
C543 C548 1.490 . S
C544 H534 0.930 . S
C544 C543 1.400 . S
C544 C547 1.386 . S
H545 C561 0.930 . S
H546 C562 0.931 . S
C547 H535 0.929 . S
C547 C541 1.390 . S
C547 C544 1.386 . S
C548 C543 1.490 . S
C548 C550 1.395 . S
C548 C551 1.403 . S
H549 C555 0.930 . S
C550 H536 0.930 . S
C550 C548 1.395 . S
C550 C553 1.403 . S
C551 C548 1.403 . S
C551 C552 1.524 . S
C551 C555 1.400 . S
C552 H537 0.960 . S
C552 H538 0.960 . S
C552 H539 0.960 . S
C552 C551 1.524 . S
C553 C550 1.403 . S
C553 C554 1.392 . S
C553 C557 1.495 . S
C554 C553 1.392 . S
C554 C555 1.385 . S
C554 C556 1.478 . S
C555 H549 0.930 . S
C555 C551 1.400 . S
C555 C554 1.385 . S
C556 C554 1.478 . S
C556 C558 1.381 . S
C556 C562 1.383 . S
C557 C553 1.495 . S
C557 H563 0.959 . S
C557 H564 0.961 . S
C557 H565 0.960 . S
C558 C556 1.381 . S
C558 C559 1.394 . S
C558 H566 0.930 . S
C559 C558 1.394 . S
C559 C560 1.383 . S
C559 H567 0.929 . S
C560 C559 1.383 . S
C560 C561 1.377 . S
C561 H545 0.930 . S
C561 C560 1.377 . S
C561 C562 1.379 . S
C562 H546 0.931 . S
C562 C556 1.383 . S
C562 C561 1.379 . S
H563 C557 0.959 . S
H564 C557 0.961 . S
H565 C557 0.960 . S
H566 C558 0.930 . S
H567 C559 0.929 . S
H568 C576 0.929 . S
H569 C578 0.930 . S
H570 C580 0.930 . S
H571 C583 0.929 . S
H572 C586 0.930 . S
H573 C588 0.960 1_554 S
H574 C588 0.960 . S
H575 C588 0.960 . S
C576 H568 0.929 . S
C576 C577 1.377 . S
C576 C578 1.384 . S
C577 C576 1.377 . S
C577 C583 1.390 . S
C578 H569 0.930 . S
C578 C576 1.384 . S
C578 C579 1.372 . S
C579 C578 1.372 . S
C579 C580 1.400 . S
C579 C584 1.490 1_556 S
C580 H570 0.930 . S
C580 C579 1.400 . S
C580 C583 1.386 . S
H581 C597 0.930 . S
H582 C598 0.931 . S
C583 H571 0.929 . S
C583 C577 1.390 . S
C583 C580 1.386 . S
C584 C579 1.490 1_554 S
C584 C586 1.395 . S
C584 C587 1.403 . S
H585 C591 0.930 . S
C586 H572 0.930 . S
C586 C584 1.395 . S
C586 C589 1.403 . S
C587 C584 1.403 . S
C587 C588 1.524 1_554 S
C587 C591 1.400 . S
C588 H573 0.960 1_556 S
C588 H574 0.960 . S
C588 H575 0.960 . S
C588 C587 1.524 1_556 S
C589 C586 1.403 . S
C589 C590 1.392 . S
C589 C593 1.495 . S
C590 C589 1.392 . S
C590 C591 1.385 . S
C590 C592 1.478 . S
C591 H585 0.930 . S
C591 C587 1.400 . S
C591 C590 1.385 . S
C592 C590 1.478 . S
C592 C594 1.381 . S
C592 C598 1.383 . S
C593 C589 1.495 . S
C593 H599 0.959 . S
C593 H600 0.961 . S
C593 H601 0.960 . S
C594 C592 1.381 . S
C594 C595 1.394 . S
C594 H602 0.930 . S
C595 C594 1.394 . S
C595 C596 1.383 . S
C595 H603 0.929 . S
C596 C595 1.383 . S
C596 C597 1.377 . S
C597 H581 0.930 . S
C597 C596 1.377 . S
C597 C598 1.379 . S
C598 H582 0.931 . S
C598 C592 1.383 . S
C598 C597 1.379 . S
H599 C593 0.959 . S
H600 C593 0.961 . S
H601 C593 0.960 . S
H602 C594 0.930 . S
H603 C595 0.929 . S
H604 C612 0.929 . S
H605 C614 0.930 . S
H606 C616 0.930 . S
H607 C619 0.929 . S
H608 C622 0.930 . S
H609 C624 0.960 . S
H610 C624 0.960 . S
H611 C624 0.960 . S
C612 H604 0.929 . S
C612 C613 1.377 . S
C612 C614 1.384 . S
C613 C612 1.377 . S
C613 C619 1.390 . S
C614 H605 0.930 . S
C614 C612 1.384 . S
C614 C615 1.372 . S
C615 C614 1.372 . S
C615 C616 1.400 . S
C615 C620 1.490 . S
C616 H606 0.930 . S
C616 C615 1.400 . S
C616 C619 1.386 . S
H617 C633 0.930 . S
H618 C634 0.931 . S
C619 H607 0.929 . S
C619 C613 1.390 . S
C619 C616 1.386 . S
C620 C615 1.490 . S
C620 C622 1.395 . S
C620 C623 1.403 . S
H621 C627 0.930 . S
C622 H608 0.930 . S
C622 C620 1.395 . S
C622 C625 1.403 . S
C623 C620 1.403 . S
C623 C624 1.524 . S
C623 C627 1.400 . S
C624 H609 0.960 . S
C624 H610 0.960 . S
C624 H611 0.960 . S
C624 C623 1.524 . S
C625 C622 1.403 . S
C625 C626 1.392 . S
C625 C629 1.495 . S
C626 C625 1.392 . S
C626 C627 1.385 . S
C626 C628 1.478 . S
C627 H621 0.930 . S
C627 C623 1.400 . S
C627 C626 1.385 . S
C628 C626 1.478 . S
C628 C630 1.381 . S
C628 C634 1.383 . S
C629 C625 1.495 . S
C629 H635 0.959 . S
C629 H636 0.961 . S
C629 H637 0.960 . S
C630 C628 1.381 . S
C630 C631 1.394 . S
C630 H638 0.930 . S
C631 C630 1.394 . S
C631 C632 1.383 . S
C631 H639 0.929 . S
C632 C631 1.383 . S
C632 C633 1.377 . S
C633 H617 0.930 . S
C633 C632 1.377 . S
C633 C634 1.379 . S
C634 H618 0.931 . S
C634 C628 1.383 . S
C634 C633 1.379 . S
H635 C629 0.959 . S
H636 C629 0.961 . S
H637 C629 0.960 . S
H638 C630 0.930 . S
H639 C631 0.929 . S
C145 C17 1.607 . S
C164 C56 1.498 . S
C181 C15 1.501 . S
C200 C51 1.607 . S
C217 C124 1.502 . S
C236 C85 1.607 . S
C253 C90 1.513 . S
C272 C119 1.605 . S
C289 C22 1.485 . S
C308 C37 1.389 . S
C325 C1 1.378 . S
C344 C49 1.471 . S
C361 C83 1.491 . S
C380 C105 1.414 . S
C397 C117 1.488 . S
C416 C71 1.399 . S
C433 C69 1.911 . S
C452 C3 1.888 . S
C469 C35 1.904 . S
C488 C103 1.890 . S
C505 C130 1.234 . S
C524 C28 1.248 . S
C541 C96 1.239 . S
C560 C40 1.240 . S
C577 C74 1.241 . S
C596 C62 1.221 . S
C613 C108 1.244 . S
C632 C6 1.244 . S
