# Generated by pormake.
# Topology rkf, (6)-cn, num edge types: 1
# Building blocks:
#     Node 0, Type 0, BuildingBlock: GEDQOX_clean_sbu_0, # of connection points: 6
#     Node 1, Type 0, BuildingBlock: GEDQOX_clean_sbu_0, # of connection points: 6
#     Node 2, Type 0, BuildingBlock: GEDQOX_clean_sbu_0, # of connection points: 6
#     Node 3, Type 0, BuildingBlock: GEDQOX_clean_sbu_0, # of connection points: 6
#     Node 4, Type 0, BuildingBlock: GEDQOX_clean_sbu_0, # of connection points: 6
#     Node 5, Type 0, BuildingBlock: GEDQOX_clean_sbu_0, # of connection points: 6
#     Edge 6, Type (0, 0), BuildingBlock: TEMPAE_clean_linker_10, # of connection points: 2
#     Edge 7, Type (0, 0), BuildingBlock: TEMPAE_clean_linker_10, # of connection points: 2
#     Edge 8, Type (0, 0), BuildingBlock: TEMPAE_clean_linker_10, # of connection points: 2
#     Edge 9, Type (0, 0), BuildingBlock: TEMPAE_clean_linker_10, # of connection points: 2
#     Edge 10, Type (0, 0), BuildingBlock: TEMPAE_clean_linker_10, # of connection points: 2
#     Edge 11, Type (0, 0), BuildingBlock: TEMPAE_clean_linker_10, # of connection points: 2
#     Edge 12, Type (0, 0), BuildingBlock: TEMPAE_clean_linker_10, # of connection points: 2
#     Edge 13, Type (0, 0), BuildingBlock: TEMPAE_clean_linker_10, # of connection points: 2
#     Edge 14, Type (0, 0), BuildingBlock: TEMPAE_clean_linker_10, # of connection points: 2
#     Edge 15, Type (0, 0), BuildingBlock: TEMPAE_clean_linker_10, # of connection points: 2
#     Edge 16, Type (0, 0), BuildingBlock: TEMPAE_clean_linker_10, # of connection points: 2
#     Edge 17, Type (0, 0), BuildingBlock: TEMPAE_clean_linker_10, # of connection points: 2
#     Edge 18, Type (0, 0), BuildingBlock: TEMPAE_clean_linker_10, # of connection points: 2
#     Edge 19, Type (0, 0), BuildingBlock: TEMPAE_clean_linker_10, # of connection points: 2
#     Edge 20, Type (0, 0), BuildingBlock: TEMPAE_clean_linker_10, # of connection points: 2
#     Edge 21, Type (0, 0), BuildingBlock: TEMPAE_clean_linker_10, # of connection points: 2
#     Edge 22, Type (0, 0), BuildingBlock: TEMPAE_clean_linker_10, # of connection points: 2
#     Edge 23, Type (0, 0), BuildingBlock: TEMPAE_clean_linker_10, # of connection points: 2
# Relax obj value: 0.753
# Max RMSD: 0.306
# Mean RMSD: 0.277
data_MOF--net-rkf--node1-GEDQOX_clean_sbu_0--edge1-TEMPAE_clean_linker_10
_symmetry_space_group_name_H-M    P1
_symmetry_Int_Tables_number       1
_symmetry_cell_setting            triclinic
loop_
_symmetry_equiv_pos_as_xyz
'x, y, z'
_cell_length_a     24.084558
_cell_length_b     24.012498
_cell_length_c     42.281948
_cell_angle_alpha  89.745517
_cell_angle_beta   89.592387
_cell_angle_gamma 123.08517
loop_
_atom_site_label
_atom_site_type_symbol
_atom_site_fract_x
_atom_site_fract_y
_atom_site_fract_z
_atom_type_partial_charge
Nd0 Nd 0.30647 0.02602 0.24026 0.0
Nd1 Nd 0.30272 0.12752 0.2502 0.0
C2 C 0.34971 0.95038 0.22174 0.0
C3 C 0.32324 0.88912 0.20375 0.0
C4 C 0.36704 0.87644 1.18864 0.0
C5 C 0.34309 0.82402 1.16739 0.0
C6 C 0.27491 0.78376 1.16092 0.0
C7 C 0.23072 0.79332 1.17825 0.0
C8 C 0.25477 0.84598 0.19937 0.0
C9 C 0.17625 0.96675 0.24383 0.0
C10 C 0.27544 0.10282 1.17984 0.0
C11 C 0.32497 0.24327 0.26711 0.0
C12 C 0.3878 0.30834 0.26352 0.0
C13 C 0.41353 0.34996 0.2896 0.0
C14 C 0.48115 0.39848 0.29091 0.0
C15 C 0.52487 0.40584 0.26617 0.0
C16 C 0.49659 0.37093 0.23801 0.0
C17 C 0.42876 0.32213 0.23681 0.0
C18 C 0.43186 0.15378 0.24131 0.0
C19 C 0.23964 0.02649 0.30787 0.0
O20 O 0.36031 0.00195 0.20577 0.0
O21 O 0.32196 0.94446 0.24911 0.0
O22 O 0.20758 0.94123 0.2546 0.0
O23 O 0.21362 0.02519 0.23167 0.0
O24 O 0.2952 0.06163 1.18729 0.0
O25 O 0.26555 0.13171 0.20294 0.0
O26 O 0.32675 0.20258 0.28717 0.0
O27 O 0.29519 0.21409 0.2409 0.0
O28 O 0.40345 0.17249 0.22214 0.0
O29 O 0.38924 0.11605 0.2615 0.0
O30 O 0.23396 0.06981 0.29195 0.0
O31 O 0.27792 0.00809 0.29522 0.0
H32 H 0.42005 0.90933 1.19188 0.0
H33 H 0.37853 0.8187 1.15411 0.0
H34 H 0.17796 0.76291 1.17386 0.0
H35 H 0.22021 0.85502 0.211 0.0
H36 H 0.38275 0.34053 0.31034 0.0
H37 H 0.49904 0.42409 0.31312 0.0
H38 H 0.5273 0.37661 0.21788 0.0
H39 H 0.40978 0.29136 0.21598 0.0
Nd40 Nd 0.3075 0.2209 0.51055 0.0
Nd41 Nd 0.19816 0.21754 0.52602 0.0
C42 C 0.43118 0.25479 0.50123 0.0
C43 C 0.4691 0.25205 0.47475 0.0
C44 C 0.44307 0.24062 0.44435 0.0
C45 C 0.48148 0.24594 0.41843 0.0
C46 C 0.54674 0.2615 0.42223 0.0
C47 C 0.57134 0.26944 0.45313 0.0
C48 C 0.53277 0.26503 0.47922 0.0
C49 C 0.20952 0.09435 0.4964 0.0
C50 C 0.20705 0.20914 0.45266 0.0
C51 C 0.0922 0.21567 0.5453 0.0
C52 C 0.08124 0.26677 0.5565 0.0
C53 C 0.04375 0.25421 0.5841 0.0
C54 C 0.04653 0.30631 0.60006 0.0
C55 C 0.08665 0.37221 0.58853 0.0
C56 C 0.1182 0.38321 0.55889 0.0
C57 C 0.11618 0.33102 0.54317 0.0
C58 C 0.31425 0.34826 0.52623 0.0
C59 C 0.24798 0.16893 0.58427 0.0
O60 O 0.41163 0.2956 0.49724 0.0
O61 O 0.38486 0.19769 0.51337 0.0
O62 O 0.25728 0.13423 0.47723 0.0
O63 O 0.20771 0.126 0.52031 0.0
O64 O 0.27118 0.23903 0.4603 0.0
O65 O 0.16417 0.18239 0.47589 0.0
O66 O 0.12784 0.20418 0.56393 0.0
O67 O 0.10824 0.21818 0.51554 0.0
O68 O 0.26166 0.33148 0.51047 0.0
O69 O 0.30494 0.29687 0.53905 0.0
O70 O 0.20013 0.17508 0.5742 0.0
O71 O 0.29787 0.1849 0.56435 0.0
H72 H 0.39395 0.23057 0.4405 0.0
H73 H 0.46063 0.24145 0.39528 0.0
H74 H 0.62079 0.2808 0.45717 0.0
H75 H 0.55333 0.27364 0.50274 0.0
H76 H 0.0166 0.20496 0.59474 0.0
H77 H 0.02203 0.29527 0.62291 0.0
H78 H 0.14831 0.43285 0.54891 0.0
H79 H 0.14541 0.34187 0.52174 0.0
Nd80 Nd 0.15648 0.28892 0.9052 0.0
Nd81 Nd 0.03848 0.18063 0.92608 0.0
C82 C 0.24507 0.40638 0.8807 0.0
C83 C 0.24917 0.44452 0.85238 0.0
C84 C 0.20102 0.45911 0.84648 0.0
C85 C 0.19871 0.48442 0.81708 0.0
C86 C 0.24419 0.49512 0.79314 0.0
C87 C 0.29542 0.48548 0.79987 0.0
C88 C 0.29803 0.46062 0.82933 0.0
C89 C 0.19215 0.21383 0.93459 0.0
C90 C 0.06992 0.16763 0.85206 0.0
C91 C 0.91556 0.08086 0.93807 0.0
C92 C 0.85924 0.08447 0.94864 0.0
C93 C 0.8215 0.04714 0.97505 0.0
C94 C 0.78577 0.06705 0.99238 0.0
C95 C 0.78865 0.12526 0.98378 0.0
C96 C 0.81775 0.15618 0.95472 0.0
C97 C 0.85321 0.13613 0.9373 0.0
C98 C 0.03795 0.29578 0.91932 0.0
C99 C 0.13406 0.24698 0.9834 0.0
O100 O 0.20254 0.39767 0.90289 0.0
O101 O 0.24523 0.35275 0.87524 0.0
O102 O 0.22546 0.27798 0.93517 0.0
O103 O 0.13919 0.18908 0.91781 0.0
O104 O 0.12504 0.22755 0.85659 0.0
O105 O 0.02977 0.13799 0.87632 0.0
O106 O 0.96323 0.10213 0.95853 0.0
O107 O 0.93802 0.103 0.90956 0.0
O108 O 0.02424 0.26356 0.94573 0.0
O109 O 0.05671 0.27087 0.89958 0.0
O110 O 0.08471 0.18966 0.9736 0.0
O111 O 0.16335 0.29806 0.96251 0.0
H112 H 0.16306 0.44774 0.86391 0.0
H113 H 0.15848 0.49087 0.81225 0.0
H114 H 0.33107 0.49347 0.78169 0.0
H115 H 0.33596 0.45032 0.83345 0.0
H116 H 0.82536 0.00732 0.98433 0.0
H117 H 0.76364 0.04253 1.0148 0.0
H118 H 0.82108 0.20139 0.9477 0.0
H119 H 0.88182 0.16591 0.91696 0.0
Nd120 Nd 0.95727 0.13698 1.16418 0.0
Nd121 Nd 0.84453 0.0089 1.18109 0.0
C122 C 0.02917 0.2598 1.14172 0.0
C123 C 0.02429 0.31721 1.14756 0.0
C124 C -0.01977 0.31262 1.1709 0.0
C125 C 0.9507 0.34883 1.16755 0.0
C126 C 0.96206 0.38678 1.13981 0.0
C127 C 0.01799 0.40288 1.12102 0.0
C128 C 0.04776 0.36702 1.12445 0.0
C129 C -0.01537 0.04109 1.17503 0.0
C130 C 0.8951 0.02033 1.10625 0.0
C131 C 0.74972 0.89344 0.2053 0.0
C132 C 0.69361 0.87644 0.22632 0.0
C133 C 0.68605 0.84311 0.25483 0.0
C134 C 0.64688 0.84361 0.27912 0.0
C135 C 0.61439 0.87735 0.27521 0.0
C136 C 0.61535 0.9032 0.24517 0.0
C137 C 0.65526 0.90344 0.221 0.0
C138 C 0.80544 0.09768 1.17221 0.0
C139 C 0.95335 0.10799 0.2385 0.0
O140 O 0.04877 0.23897 1.16507 0.0
O141 O -0.02256 0.21123 1.12742 0.0
O142 O 0.02437 0.10192 1.18447 0.0
O143 O 0.93939 0.03773 1.15998 0.0
O144 O 0.93596 0.08479 1.11324 0.0
O145 O 0.85725 -0.02052 1.12962 0.0
O146 O 0.80816 0.93022 0.21802 0.0
O147 O 0.74789 0.91311 1.17674 0.0
O148 O 0.7783 0.03977 1.15968 0.0
O149 O 0.8573 0.11063 1.18675 0.0
O150 O 0.90448 0.04666 0.23009 0.0
O151 O 0.97654 0.15632 0.21733 0.0
H152 H 0.96261 0.27538 1.18952 0.0
H153 H 0.91237 0.33929 1.18439 0.0
H154 H 0.03242 0.43471 1.10036 0.0
H155 H 0.08286 0.37229 1.10658 0.0
H156 H 0.71514 0.82196 0.25937 0.0
H157 H 0.648 0.82354 0.30191 0.0
H158 H 0.58995 0.92839 0.24118 0.0
H159 H 0.6599 0.92931 0.1991 0.0
Nd160 Nd 0.90121 0.92604 0.56375 0.0
Nd161 Nd 0.88743 0.80527 0.57558 0.0
C162 C 0.89284 0.02699 0.54564 0.0
C163 C 0.85319 0.03676 0.52269 0.0
C164 C 0.78365 -0.00505 0.52299 0.0
C165 C 0.74704 -0.00118 0.49872 0.0
C166 C 0.77929 0.04408 0.47361 0.0
C167 C 0.84847 0.08882 0.47439 0.0
C168 C 0.88514 0.08529 0.49885 0.0
C169 C 0.02029 0.93532 0.57757 0.0
C170 C 0.92647 0.8642 0.50224 0.0
C171 C 0.88425 0.69645 0.59127 0.0
C172 C 0.83487 0.62506 0.58808 0.0
C173 C 0.85328 0.57918 0.5912 0.0
C174 C 0.80453 0.51122 0.59409 0.0
C175 C 0.73683 0.48882 0.59494 0.0
C176 C 0.71961 0.53464 0.58719 0.0
C177 C 0.76811 0.60211 0.58393 0.0
C178 C 0.76763 0.77641 0.55193 0.0
C179 C 0.90718 0.90816 0.63711 0.0
O180 O 0.86076 -0.01136 0.56993 0.0
O181 O 0.93631 0.01609 0.53388 0.0
O182 O 0.00736 -0.02242 0.58837 0.0
O183 O 0.97532 0.89678 0.55979 0.0
O184 O 0.90062 0.89794 0.51124 0.0
O185 O 0.93418 0.82914 0.52417 0.0
O186 O 0.91007 0.72908 0.56495 0.0
O187 O 0.86868 0.72803 0.61078 0.0
O188 O 0.8002 0.75128 0.54275 0.0
O189 O 0.80152 0.82145 0.5726 0.0
O190 O 0.91511 0.85981 0.62703 0.0
O191 O 0.88978 0.93585 0.61625 0.0
H192 H 0.75755 0.95703 0.54111 0.0
H193 H 0.69394 0.96313 0.49846 0.0
H194 H 0.87441 0.12427 0.45528 0.0
H195 H 0.93867 0.11835 0.49835 0.0
H196 H 0.90499 0.59613 0.59342 0.0
H197 H 0.81993 0.47727 0.59885 0.0
H198 H 0.6687 0.52031 0.58769 0.0
H199 H 0.75301 0.6368 0.58073 0.0
Nd200 Nd 0.97019 0.7664 0.83584 0.0
Nd201 Nd 0.10531 0.84578 0.85938 0.0
C202 C 0.85019 0.65992 0.8273 0.0
C203 C 0.79013 0.6173 0.80867 0.0
C204 C 0.76903 0.55074 0.80427 0.0
C205 C 0.71244 0.50843 0.78683 0.0
C206 C 0.67541 0.53173 0.77346 0.0
C207 C 0.69455 0.59757 0.77943 0.0
C208 C 0.75152 0.64007 0.79687 0.0
C209 C 0.01697 0.89463 0.82663 0.0
C210 C 0.09409 0.8607 0.78356 0.0
C211 C 0.22147 0.91282 0.8876 0.0
C212 C 0.25741 0.88898 0.90475 0.0
C213 C 0.2885 0.91982 0.933 0.0
C214 C 0.30608 0.88772 0.95433 0.0
C215 C 0.29279 0.824 0.94776 0.0
C216 C 0.26664 0.79576 0.91818 0.0
C217 C 0.24906 0.82807 0.89684 0.0
C218 C 0.05932 0.71228 0.85258 0.0
C219 C -0.01097 0.82304 0.90985 0.0
O220 O 0.90439 0.66216 0.81989 0.0
O221 O 0.86124 0.71584 0.83845 0.0
O222 O 0.97331 0.84905 0.8079 0.0
O223 O 0.02982 0.87147 0.85038 0.0
O224 O 0.03375 0.80398 0.78681 0.0
O225 O 0.12788 0.88996 0.8093 0.0
O226 O 0.16606 0.89725 0.90119 0.0
O227 O 0.21545 0.90317 0.85713 0.0
O228 O 0.1154 0.76084 0.84191 0.0
O229 O 0.02825 0.73551 0.86449 0.0
O230 O 0.05217 0.84415 0.90596 0.0
O231 O 0.94696 0.79196 0.88624 0.0
H232 H 0.79731 0.53174 0.81378 0.0
H233 H 0.70015 0.4586 0.78224 0.0
H234 H 0.66696 0.61696 0.76955 0.0
H235 H 0.76595 0.69089 0.80053 0.0
H236 H 0.29439 0.96627 0.93971 0.0
H237 H 0.32496 0.91066 0.97707 0.0
H238 H 0.25636 0.74717 0.91228 0.0
H239 H 0.22503 0.80338 0.8751 0.0
C240 C -0.01456 -0.01912 0.22272 0.0
C241 C 0.96993 -0.01962 1.19103 0.0
C242 C 0.96067 0.92039 0.23859 0.0
C243 C 0.93395 0.86126 0.22071 0.0
C244 C 0.90198 0.85894 1.19269 0.0
C245 C 0.92357 0.91892 1.17696 0.0
C246 C 0.96351 0.92017 0.27395 0.0
C247 C 0.85199 0.7938 1.17769 0.0
C248 C 0.09082 0.91459 0.20309 0.0
C249 C 0.10816 0.91997 0.23484 0.0
C250 C 0.0265 0.86555 1.19429 0.0
C251 C -0.02281 0.83453 0.21845 0.0
C252 C -0.00159 0.82401 0.24751 0.0
C253 C 0.06444 0.86926 0.25617 0.0
C254 C 0.01134 0.85059 1.15976 0.0
C255 C 0.95005 0.77168 0.27054 0.0
H256 H 0.01235 0.02721 0.23554 0.0
H257 H 0.90477 0.9173 1.15357 0.0
H258 H 0.92783 0.87013 0.28405 0.0
H259 H 0.01446 0.93757 0.28111 0.0
H260 H 0.95195 0.95546 0.28387 0.0
H261 H 0.80193 0.78466 1.18121 0.0
H262 H 0.86084 0.79577 1.15177 0.0
H263 H 0.85224 0.75167 1.18849 0.0
H264 H 0.12777 0.94551 1.18523 0.0
H265 H 0.08076 0.86667 0.27965 0.0
H266 H 0.00758 0.88995 1.14822 0.0
H267 H 0.96492 0.80136 1.15638 0.0
H268 H 0.05249 0.85068 1.14766 0.0
H269 H 0.9603 0.79095 0.29508 0.0
H270 H 0.95631 0.72921 0.26993 0.0
H271 H 0.89797 0.75305 0.26437 0.0
C272 C 0.1432 -0.01787 0.5813 0.0
C273 C 0.07714 0.92846 0.58278 0.0
C274 C 0.19343 -0.03008 0.57533 0.0
C275 C 0.17541 0.90934 0.56125 0.0
C276 C 0.11471 0.85393 0.57242 0.0
C277 C 0.06491 0.86395 0.58242 0.0
C278 C 0.26488 0.02096 0.58138 0.0
C279 C 0.09982 0.78469 0.56982 0.0
C280 C 0.13936 -0.0316 0.50106 0.0
C281 C 0.20125 0.02895 0.50129 0.0
C282 C 0.13599 0.90939 0.5089 0.0
C283 C 0.18845 0.91482 0.52601 0.0
C284 C 0.25131 0.96687 0.51513 0.0
C285 C 0.25809 0.02608 0.5045 0.0
C286 C 0.07815 0.8421 0.50059 0.0
C287 C 0.31044 0.96151 0.51751 0.0
H288 H 0.15469 0.03194 0.58227 0.0
H289 H 0.0156 0.82154 0.58724 0.0
H290 H 0.27894 0.0705 0.57269 0.0
H291 H 0.27198 0.02106 0.60698 0.0
H292 H 0.29897 0.00809 0.57156 0.0
H293 H 0.05015 0.75095 0.5594 0.0
H294 H 0.13819 0.78357 0.55562 0.0
H295 H 0.09837 0.76552 0.59395 0.0
H296 H 0.09571 0.96705 0.49445 0.0
H297 H 0.30711 0.06979 0.50016 0.0
H298 H 0.07136 0.84012 0.47484 0.0
H299 H 0.03314 0.83245 0.51274 0.0
H300 H 0.08646 0.80228 0.50673 0.0
H301 H 0.35609 0.01054 0.52264 0.0
H302 H 0.31805 0.94477 0.4944 0.0
H303 H 0.30249 0.92442 0.53582 0.0
C304 C 0.10798 0.00237 0.81615 0.0
C305 C 0.04155 0.96458 0.82487 0.0
C306 C 0.15535 0.03453 0.83955 0.0
C307 C 0.1355 0.04706 0.86877 0.0
C308 C 0.06698 0.02314 0.87399 0.0
C309 C 0.02116 -0.01562 0.85078 0.0
C310 C 0.22406 0.04891 0.83352 0.0
C311 C 0.03794 0.02788 0.90491 0.0
C312 C 0.19855 0.11913 0.94697 0.0
C313 C 0.23138 0.1845 0.93628 0.0
C314 C 0.17826 0.0696 0.92438 0.0
C315 C 0.18649 0.08949 0.89203 0.0
C316 C 0.23723 0.15667 0.88394 0.0
C317 C 0.26927 0.20035 0.9088 0.0
C318 C 0.14125 -0.00158 0.93522 0.0
C319 C 0.24983 0.18701 0.85109 0.0
H320 H 0.12228 -0.00692 0.79377 0.0
H321 H 0.96851 0.95797 0.85621 0.0
H322 H 0.24699 0.08244 0.81273 0.0
H323 H 0.25772 0.0701 0.85395 0.0
H324 H 0.22051 0.00228 0.8278 0.0
H325 H 0.02377 -0.01613 0.91971 0.0
H326 H 0.07205 0.07234 0.91852 0.0
H327 H -0.00858 0.02606 0.90118 0.0
H328 H 0.17945 0.10658 0.97102 0.0
H329 H 0.3053 0.25241 0.90336 0.0
H330 H 0.11434 0.96408 0.91565 0.0
H331 H 0.10623 -0.01026 0.95474 0.0
H332 H 0.17721 -0.01237 0.94483 0.0
H333 H 0.29115 0.18655 0.83967 0.0
H334 H 0.26546 0.23992 0.85205 0.0
H335 H 0.20561 0.16115 0.83595 0.0
C336 C 0.22766 0.07991 1.1232 0.0
C337 C 0.26789 0.12416 1.14705 0.0
C338 C 0.20939 0.10236 1.09614 0.0
C339 C 0.23072 0.17059 1.09271 0.0
C340 C 0.2726 0.21514 1.1164 0.0
C341 C 0.29065 0.19176 1.14265 0.0
C342 C 0.16507 0.05244 1.07172 0.0
C343 C 0.29576 0.2876 1.11502 0.0
C344 C 0.22741 0.24976 1.01282 0.0
C345 C 0.166 0.24411 1.01375 0.0
C346 C 0.24797 0.22479 1.0376 0.0
C347 C 0.20817 0.19576 1.06532 0.0
C348 C 0.14824 0.19407 1.06734 0.0
C349 C 0.12736 0.21637 1.04151 0.0
C350 C 0.31131 0.22686 1.0334 0.0
C351 C 0.10494 0.16705 1.0966 0.0
H352 H 0.20778 0.02742 1.12637 0.0
H353 H 0.32088 0.22678 1.16088 0.0
H354 H 0.18519 0.07134 1.04756 0.0
H355 H 0.15931 0.00367 1.07526 0.0
H356 H 0.1153 0.04472 1.07306 0.0
H357 H 0.32913 0.31644 1.13484 0.0
H358 H 0.32235 0.31048 1.0924 0.0
H359 H 0.25226 0.29204 1.11594 0.0
H360 H 0.25808 0.27007 0.9918 0.0
H361 H 0.07916 0.20986 1.04261 0.0
H362 H 0.30046 0.17566 1.03496 0.0
H363 H 0.3462 0.2559 1.05265 0.0
H364 H 0.33614 0.2492 1.01033 0.0
H365 H 0.13494 0.18921 1.11818 0.0
H366 H 0.08165 0.11253 1.0982 0.0
H367 H 0.06519 0.17724 1.09643 0.0
C368 C 0.12312 0.20882 0.41631 0.0
C369 C 0.17908 0.20454 0.41949 0.0
C370 C 0.0874 0.19489 0.38758 0.0
C371 C 0.10473 0.17228 0.36044 0.0
C372 C 0.16177 0.16828 0.36339 0.0
C373 C 0.19854 0.18547 0.39226 0.0
C374 C 0.03033 0.20423 0.38719 0.0
C375 C 0.18332 0.14363 0.33631 0.0
C376 C 0.96406 0.08045 0.29696 0.0
C377 C -0.01048 0.12333 0.27039 0.0
C378 C -0.0 0.09533 0.32594 0.0
C379 C 0.06471 0.15471 0.32922 0.0
C380 C 0.08971 0.19864 0.30252 0.0
C381 C 0.05273 0.1824 0.27404 0.0
C382 C 0.96646 0.04753 0.35329 0.0
C383 C 0.15565 0.26435 0.30341 0.0
H384 H 0.10629 0.22285 0.43681 0.0
H385 H 0.24022 0.18004 0.39399 0.0
H386 H 0.01657 0.20984 0.36296 0.0
H387 H -0.01338 0.16074 0.39889 0.0
H388 H 0.04264 0.24878 0.401 0.0
H389 H 0.2148 0.12588 0.34455 0.0
H390 H 0.13994 0.10274 0.32371 0.0
H391 H 0.2129 0.18489 0.31923 0.0
H392 H 0.91532 0.03512 0.29531 0.0
H393 H 0.07438 0.21688 0.25424 0.0
H394 H 0.93131 -0.00388 0.34489 0.0
H395 H 0.93713 0.0622 0.36706 0.0
H396 H 0.00261 0.04761 0.36936 0.0
H397 H 0.1726 0.282 0.32779 0.0
H398 H 0.15297 0.30318 0.29047 0.0
H399 H 0.19347 0.25928 0.29109 0.0
C400 C 0.09221 0.14259 0.79475 0.0
C401 C 0.0484 0.13123 0.81995 0.0
C402 C 0.07014 0.10482 0.76604 0.0
C403 C 0.00157 0.05454 0.76105 0.0
C404 C 0.95731 0.04408 0.78631 0.0
C405 C -0.01912 0.08113 0.8149 0.0
C406 C 0.12121 0.11812 0.7413 0.0
C407 C 0.88396 -0.00651 0.78316 0.0
C408 C 0.93258 0.00252 0.67502 0.0
C409 C 0.92612 0.94072 0.67009 0.0
C410 C 0.95671 0.03917 0.70371 0.0
C411 C 0.97531 0.01481 0.72953 0.0
C412 C 0.96591 0.95109 0.72514 0.0
C413 C 0.9423 0.91546 0.696 0.0
C414 C 0.96342 0.10523 0.70609 0.0
C415 C -0.01656 0.92137 0.75104 0.0
H416 H 0.1443 0.18034 0.79759 0.0
H417 H 0.94534 0.07077 0.83357 0.0
H418 H 0.12343 0.07342 0.73898 0.0
H419 H 0.10718 0.1283 0.71811 0.0
H420 H 0.17143 0.16088 0.74735 0.0
H421 H 0.85521 -0.00753 0.80407 0.0
H422 H 0.86511 0.00459 0.76177 0.0
H423 H 0.8746 0.94321 0.78019 0.0
H424 H 0.92062 0.02408 0.65582 0.0
H425 H 0.93821 0.86851 0.69332 0.0
H426 H 0.01618 0.14529 0.70958 0.0
H427 H 0.93517 0.10514 0.72696 0.0
H428 H 0.94536 0.11719 0.68464 0.0
H429 H 0.97019 0.87035 0.74553 0.0
H430 H 0.95693 0.91996 0.77279 0.0
H431 H 0.0374 0.95351 0.75525 0.0
C432 C 0.86449 0.92133 1.07081 0.0
C433 C 0.90385 -0.0094 1.07601 0.0
C434 C 0.87571 0.89092 1.04482 0.0
C435 C 0.92773 0.92976 1.02257 0.0
C436 C 0.96809 -0.00051 1.02782 0.0
C437 C 0.95544 0.02887 1.0539 0.0
C438 C 0.83347 0.81629 1.04201 0.0
C439 C 0.02679 0.04299 1.00649 0.0
C440 C 0.00273 0.8553 0.96828 0.0
C441 C 0.96817 0.84293 0.93969 0.0
C442 C -0.01112 0.88092 0.99541 0.0
C443 C 0.94046 0.89759 0.99429 0.0
C444 C 0.90524 0.88479 0.96545 0.0
C445 C 0.91844 0.85682 0.93906 0.0
C446 C 0.02843 0.89176 1.02487 0.0
C447 C 0.85591 0.9043 0.96179 0.0
H448 H 0.82522 0.89007 1.08762 0.0
H449 H -0.01268 0.08196 1.05737 0.0
H450 H 0.80769 0.80216 1.01899 0.0
H451 H 0.86556 0.79631 1.04263 0.0
H452 H 0.79583 0.79238 1.0613 0.0
H453 H 0.04905 0.09617 1.01142 0.0
H454 H 0.06524 0.03184 1.01034 0.0
H455 H 0.01238 0.03314 0.98127 0.0
H456 H 0.04171 0.84566 0.96944 0.0
H457 H 0.8921 0.84928 0.91719 0.0
H458 H 0.04018 0.85318 1.02724 0.0
H459 H 0.0022 0.89119 1.04667 0.0
H460 H 0.07621 0.94059 1.02298 0.0
H461 H 0.8326 0.89193 0.93812 0.0
H462 H 0.88171 0.95857 0.96529 0.0
H463 H 0.81647 0.87948 0.98018 0.0
C464 C -0.00074 0.94592 0.45911 0.0
C465 C 0.96226 0.87998 0.4705 0.0
C466 C 0.04449 0.96572 0.43331 0.0
C467 C 0.05154 0.91847 0.41676 0.0
C468 C 0.009 0.85059 0.4261 0.0
C469 C 0.96611 0.83238 0.45302 0.0
C470 C 0.08683 0.03819 0.42456 0.0
C471 C 0.01068 0.7973 0.40833 0.0
C472 C 0.1258 -0.02787 0.33228 0.0
C473 C 0.19204 -0.00883 0.33546 0.0
C474 C 0.07982 0.94649 0.35784 0.0
C475 C 0.09959 0.93992 0.38843 0.0
C476 C 0.16648 0.95789 0.39177 0.0
C477 C 0.21146 -0.01732 0.36541 0.0
C478 C 0.01008 0.92731 0.35139 0.0
C479 C 0.19208 0.95465 0.42358 0.0
H480 H -0.00314 -0.0165 0.47199 0.0
H481 H 0.93711 0.78102 0.46097 0.0
H482 H 0.13909 0.05762 0.4306 0.0
H483 H 0.08502 0.04491 0.39874 0.0
H484 H 0.07096 0.06783 0.43712 0.0
H485 H 0.97417 0.74678 0.41787 0.0
H486 H 9e-05 0.79925 0.38297 0.0
H487 H 0.061 0.80639 0.40963 0.0
H488 H 0.10993 -0.02137 0.30946 0.0
H489 H 0.26256 -0.00181 0.36864 0.0
H490 H 0.01127 0.96441 0.33527 0.0
H491 H -0.01844 0.92335 0.3729 0.0
H492 H -0.01681 0.87854 0.33937 0.0
H493 H 0.19987 -0.00311 0.43783 0.0
H494 H 0.23999 0.9583 0.42171 0.0
H495 H 0.15569 0.90794 0.43622 0.0
C496 C 0.18215 0.96523 0.7536 0.0
C497 C 0.12366 0.90072 0.75238 0.0
C498 C 0.20474 0.01197 0.72836 0.0
C499 C 0.17632 -0.0078 0.69788 0.0
C500 C 0.12254 0.92368 0.69507 0.0
C501 C 0.095 0.88048 0.72228 0.0
C502 C 0.25696 0.08338 0.73599 0.0
C503 C 0.09329 0.89443 0.66342 0.0
C504 C 0.17553 0.10525 0.63156 0.0
C505 C 0.2378 0.13497 0.61655 0.0
C506 C 0.15621 0.06054 0.65736 0.0
C507 C 0.19957 0.04357 0.67024 0.0
C508 C 0.26568 0.07919 0.65727 0.0
C509 C 0.28406 0.125 0.63127 0.0
C510 C 0.08704 0.03014 0.66935 0.0
C511 C 0.31722 0.06717 0.6692 0.0
H512 H 0.20863 -0.01782 0.77554 0.0
H513 H 0.0515 0.8307 0.71971 0.0
H514 H 0.30494 0.08833 0.74005 0.0
H515 H 0.26351 0.11945 0.71755 0.0
H516 H 0.24345 0.09756 0.75829 0.0
H517 H 0.12651 0.92528 0.64365 0.0
H518 H 0.08378 0.8438 0.66153 0.0
H519 H 0.04474 0.88902 0.66111 0.0
H520 H 0.13896 0.11337 0.6218 0.0
H521 H 0.33346 0.14908 0.62109 0.0
H522 H 0.07339 0.06743 0.66925 0.0
H523 H 0.08008 0.00943 0.69342 0.0
H524 H 0.05355 -0.00965 0.65282 0.0
H525 H 0.34964 0.10672 0.68615 0.0
H526 H 0.34982 0.07048 0.64957 0.0
H527 H 0.2949 0.01803 0.68103 0.0
C528 C 0.54233 0.20472 0.21284 0.0
C529 C 0.49471 0.15684 0.23397 0.0
C530 C 0.59954 0.20534 0.20396 0.0
C531 C 0.60906 0.15544 0.21559 0.0
C532 C 0.56178 0.1082 0.23771 0.0
C533 C 0.50602 0.10988 0.24681 0.0
C534 C 0.64817 0.25859 1.18124 0.0
C535 C 0.56851 0.05377 0.25085 0.0
C536 C 0.70021 0.095 1.16583 0.0
C537 C 0.76132 0.12199 1.18121 0.0
C538 C 0.6519 0.1072 1.17615 0.0
C539 C 0.66397 0.1481 0.20268 0.0
C540 C 0.72673 0.17801 0.2176 0.0
C541 C 0.77449 0.16471 0.20677 0.0
C542 C 0.58704 0.07512 1.15881 0.0
C543 C 0.74271 0.22281 0.24558 0.0
H544 H 0.53471 0.24177 0.20297 0.0
H545 H 0.4698 0.07254 0.26317 0.0
H546 H 0.69944 0.27165 1.18508 0.0
H547 H 0.63354 0.24038 1.15673 0.0
H548 H 0.64771 0.30443 1.18352 0.0
H549 H 0.53548 0.02847 0.27167 0.0
H550 H 0.5557 0.01621 0.23228 0.0
H551 H 0.62045 0.07427 0.2578 0.0
H552 H 0.68912 0.06236 1.14592 0.0
H553 H 0.82113 0.18596 0.21899 0.0
H554 H 0.57829 0.11375 1.15078 0.0
H555 H 0.54558 0.04082 1.17501 0.0
H556 H 0.58589 0.04668 1.1379 0.0
H557 H 0.73877 0.26519 0.23876 0.0
H558 H 0.7933 0.2426 0.25465 0.0
H559 H 0.70621 0.19525 0.26496 0.0
C560 C 0.37796 0.4758 0.52414 0.0
C561 C 0.37593 0.41712 0.53058 0.0
C562 C 0.43635 0.53988 0.52918 0.0
C563 C 0.49559 0.54643 0.53994 0.0
C564 C 0.49334 0.48702 0.5462 0.0
C565 C 0.43396 0.42403 0.54216 0.0
C566 C 0.43454 0.60078 0.52319 0.0
C567 C 0.55383 0.48939 0.55729 0.0
C568 C 0.66855 0.70037 0.51939 0.0
C569 C 0.69318 0.73156 0.54873 0.0
C570 C 0.60409 0.64275 0.51605 0.0
C571 C 0.56093 0.61431 0.54267 0.0
C572 C 0.58393 0.64777 0.57216 0.0
C573 C 0.64956 0.7053 0.57491 0.0
C574 C 0.58444 0.60905 0.48433 0.0
C575 C 0.54069 0.62063 0.60138 0.0
H576 H 0.33353 0.4717 0.51565 0.0
H577 H 0.43343 0.37961 0.54767 0.0
H578 H 0.45206 0.63291 0.54438 0.0
H579 H 0.46858 0.6303 0.50333 0.0
H580 H 0.38399 0.588 0.51735 0.0
H581 H 0.5482 0.44056 0.55482 0.0
H582 H 0.5987 0.52717 0.54382 0.0
H583 H 0.56173 0.50328 0.58259 0.0
H584 H 0.7019 0.71872 0.49909 0.0
H585 H 0.66792 0.72692 0.59796 0.0
H586 H 0.53552 0.5989 0.47726 0.0
H587 H 0.5797 0.56047 0.48606 0.0
H588 H 0.62126 0.6393 0.46543 0.0
H589 H 0.48843 0.60211 0.59579 0.0
H590 H 0.55806 0.65876 0.62013 0.0
H591 H 0.54198 0.57823 0.61091 0.0
C592 C 0.02567 0.36643 0.88036 0.0
C593 C 0.0314 0.35253 0.91199 0.0
C594 C 0.02432 0.42236 0.87194 0.0
C595 C 0.02972 0.46646 0.89567 0.0
C596 C 0.03372 0.45172 0.92784 0.0
C597 C 0.03375 0.39445 0.93566 0.0
C598 C 0.01796 0.43464 0.83748 0.0
C599 C 0.04032 0.49771 0.95386 0.0
C600 C 0.10585 0.64423 0.86616 0.0
C601 C 0.05042 0.64875 0.86332 0.0
C602 C 0.09997 0.58653 0.87811 0.0
C603 C 0.03662 0.53035 0.88629 0.0
C604 C -0.01977 0.53437 0.88331 0.0
C605 C -0.01206 0.59389 0.87232 0.0
C606 C 0.16175 0.58542 0.88124 0.0
C607 C 0.9117 0.47551 0.89124 0.0
H608 H 0.023 0.33374 0.86197 0.0
H609 H 0.03809 0.38385 0.96013 0.0
H610 H 0.97052 0.43107 0.83393 0.0
H611 H 0.0584 0.48552 0.83018 0.0
H612 H 0.01914 0.39841 0.82171 0.0
H613 H 0.04322 0.4796 0.97763 0.0
H614 H 0.08553 0.54794 0.94977 0.0
H615 H -0.00259 0.50306 0.95365 0.0
H616 H 0.15444 0.68639 0.85949 0.0
H617 H 0.94498 0.59721 0.87032 0.0
H618 H 0.16193 0.55306 0.86272 0.0
H619 H 0.16265 0.56453 0.90455 0.0
H620 H 0.20769 0.6357 0.87848 0.0
H621 H 0.89943 0.43348 0.87551 0.0
H622 H 0.87319 0.48712 0.88857 0.0
H623 H 0.90993 0.45856 0.91588 0.0
C624 C 0.62219 0.46929 0.30145 0.0
C625 C 0.5963 0.43356 0.27347 0.0
C626 C 0.6522 0.4495 0.32305 0.0
C627 C 0.66495 0.40055 0.31371 0.0
C628 C 0.6649 0.38867 0.28098 0.0
C629 C 0.62773 0.40303 0.26099 0.0
C630 C 0.65955 0.47317 0.3567 0.0
C631 C 0.69542 0.35283 0.26799 0.0
C632 C 0.65706 0.33016 0.3934 0.0
C633 C 0.58987 0.27781 0.39359 0.0
C634 C 0.68894 0.36302 0.36489 0.0
C635 C 0.65077 0.34715 0.33711 0.0
C636 C 0.58788 0.28563 0.33639 0.0
C637 C 0.56024 0.2501 0.3646 0.0
C638 C 0.76145 0.41768 0.36538 0.0
C639 C 0.54481 0.26051 0.30736 0.0
H640 H 0.60701 0.50206 0.30919 0.0
H641 H 0.61632 0.38197 0.23754 0.0
H642 H 0.62684 0.43076 0.3728 0.0
H643 H 0.71152 0.49639 0.36425 0.0
H644 H 0.6465 0.51069 0.35951 0.0
H645 H 0.73937 0.38828 0.25332 0.0
H646 H 0.71172 0.33278 0.2869 0.0
H647 H 0.66042 0.31208 0.25213 0.0
H648 H 0.68334 0.34948 0.41539 0.0
H649 H 0.51109 0.20499 0.36436 0.0
H650 H 0.77941 0.4456 0.34265 0.0
H651 H 0.79048 0.39525 0.37021 0.0
H652 H 0.77157 0.45245 0.38502 0.0
H653 H 0.53217 0.2965 0.29978 0.0
H654 H 0.49744 0.21198 0.31157 0.0
H655 H 0.57102 0.25345 0.2878 0.0
C656 C 0.0629 0.42111 0.63492 0.0
C657 C 0.1063 0.42827 0.61054 0.0
C658 C 0.08777 0.45475 0.66353 0.0
C659 C 0.15711 0.4979 0.66705 0.0
C660 C 0.19883 0.51699 0.64011 0.0
C661 C 0.17322 0.48098 0.61213 0.0
C662 C 0.04101 0.4359 0.69132 0.0
C663 C 0.27231 0.56766 0.64228 0.0
C664 C 0.21793 0.55167 0.75122 0.0
C665 C 0.2303 0.50312 0.76008 0.0
C666 C 0.19719 0.55337 0.72041 0.0
C667 C 0.18606 0.50358 0.69868 0.0
C668 C 0.19957 0.45511 0.70764 0.0
C669 C 0.22235 0.4562 0.73803 0.0
C670 C 0.18555 0.60723 0.71188 0.0
C671 C 0.18758 0.40011 0.68562 0.0
H672 H 0.01043 0.38344 0.63314 0.0
H673 H 0.20757 0.48919 0.59324 0.0
H674 H 0.04575 0.40197 0.70733 0.0
H675 H 0.05372 0.4806 0.70497 0.0
H676 H -0.01141 0.41027 0.68375 0.0
H677 H 0.29406 0.59021 0.61877 0.0
H678 H 0.28272 0.6076 0.65908 0.0
H679 H 0.29716 0.54305 0.65106 0.0
H680 H 0.22385 0.58783 0.76843 0.0
H681 H 0.23076 0.41794 0.74512 0.0
H682 H 0.13608 0.59301 0.72094 0.0
H683 H 0.18753 0.61578 0.68597 0.0
H684 H 0.22286 0.6547 0.72334 0.0
H685 H 0.13553 0.37195 0.67743 0.0
H686 H 0.19723 0.36449 0.69706 0.0
H687 H 0.22031 0.42159 0.66447 0.0
C688 C 0.75015 0.19643 1.00585 0.0
C689 C 0.78582 0.16614 1.0089 0.0
C690 C 0.75799 0.24402 1.02793 0.0
C691 C 0.80521 0.26388 1.05231 0.0
C692 C 0.84098 0.23276 1.05517 0.0
C693 C 0.82973 0.1837 1.03391 0.0
C694 C 0.71716 0.2738 1.02421 0.0
C695 C 0.89383 0.25294 1.07975 0.0
C696 C 0.91588 0.41805 1.09501 0.0
C697 C 0.90538 0.38647 1.12461 0.0
C698 C 0.87452 0.38204 1.06961 0.0
C699 C 0.81943 0.31671 1.07532 0.0
C700 C 0.79686 0.29683 1.10674 0.0
C701 C 0.8401 0.33291 1.13152 0.0
C702 C 0.897 0.4083 1.03641 0.0
C703 C 0.73427 0.23035 1.11369 0.0
H704 H 0.71698 0.18361 0.98607 0.0
H705 H 0.85884 0.16177 1.03568 0.0
H706 H 0.66647 0.23554 1.01618 0.0
H707 H 0.71322 0.29582 1.04646 0.0
H708 H 0.74028 0.31325 1.0057 0.0
H709 H 0.93157 0.30689 1.0776 0.0
H710 H 0.87175 0.24217 1.10386 0.0
H711 H 0.91965 0.22651 1.07704 0.0
H712 H 0.96221 0.46473 1.09014 0.0
H713 H 0.8264 0.31134 1.15503 0.0
H714 H 0.85392 0.39469 1.02137 0.0
H715 H 0.9227 0.38574 1.02602 0.0
H716 H 0.93193 0.46319 1.03599 0.0
H717 H 0.69342 0.22326 1.09857 0.0
H718 H 0.7195 0.22546 1.13888 0.0
H719 H 0.74224 0.19 1.10829 0.0
C720 C 0.61657 0.96645 0.30623 0.0
C721 C 0.59527 0.89927 0.30374 0.0
C722 C 0.62654 -0.00395 0.33586 0.0
C723 C 0.61788 0.9581 0.36321 0.0
C724 C 0.58446 0.88815 0.36101 0.0
C725 C 0.57253 0.85921 0.33106 0.0
C726 C 0.65687 0.06996 0.33753 0.0
C727 C 0.5713 0.84533 0.38988 0.0
C728 C 0.76678 0.02797 0.41578 0.0
C729 C 0.74231 0.03566 0.44439 0.0
C730 C 0.72739 0.00551 0.38887 0.0
C731 C 0.66208 -0.00838 0.39045 0.0
C732 C 0.639 0.00459 0.41856 0.0
C733 C 0.67917 0.02554 0.44548 0.0
C734 C 0.75465 -0.00719 0.35934 0.0
C735 C 0.57113 -0.00653 0.42103 0.0
H736 H 0.63388 -0.00185 0.28545 0.0
H737 H 0.55313 0.80663 0.32923 0.0
H738 H 0.64243 0.08333 0.35983 0.0
H739 H 0.71169 0.09632 0.33681 0.0
H740 H 0.64161 0.08773 0.31714 0.0
H741 H 0.53586 0.79174 0.38491 0.0
H742 H 0.61858 0.85243 0.39785 0.0
H743 H 0.55124 0.85991 0.40953 0.0
H744 H 0.81526 0.03504 0.41498 0.0
H745 H 0.6604 0.03198 0.46761 0.0
H746 H 0.75504 0.02298 0.33932 0.0
H747 H 0.72274 0.93971 0.3527 0.0
H748 H 0.80597 0.00521 0.36244 0.0
H749 H 0.55236 -0.00312 0.39769 0.0
H750 H 0.57183 0.03025 0.43716 0.0
H751 H 0.53588 0.94334 0.43124 0.0
C752 C 0.61963 0.39906 0.60983 0.0
C753 C 0.68812 0.42805 0.61352 0.0
C754 C 0.57777 0.37903 0.6366 0.0
C755 C 0.6061 0.38897 0.66686 0.0
C756 C 0.66926 0.39797 0.66924 0.0
C757 C 0.70958 0.41684 0.6422 0.0
C758 C 0.50652 0.35703 0.63257 0.0
C759 C 0.69969 0.40085 0.7008 0.0
C760 C 0.63377 0.52341 0.71918 0.0
C761 C 0.62731 0.49219 0.74822 0.0
C762 C 0.61375 0.4869 0.69124 0.0
C763 C 0.58671 0.41744 0.69265 0.0
C764 C 0.56537 0.38445 0.72229 0.0
C765 C 0.58731 0.42241 0.75002 0.0
C766 C 0.63308 0.52526 0.66038 0.0
C767 C 0.52638 0.30975 0.72499 0.0
H768 H 0.60079 0.4012 0.587 0.0
H769 H 0.76112 0.4339 0.64517 0.0
H770 H 0.47797 0.33885 0.65514 0.0
H771 H 0.50392 0.39875 0.62315 0.0
H772 H 0.48284 0.3167 0.61486 0.0
H773 H 0.74606 0.40165 0.69814 0.0
H774 H 0.71173 0.44645 0.7135 0.0
H775 H 0.66451 0.35717 0.71559 0.0
H776 H 0.66263 0.57721 0.71756 0.0
H777 H 0.57854 0.39756 0.77271 0.0
H778 H 0.59312 0.49959 0.64282 0.0
H779 H 0.67842 0.52992 0.65082 0.0
H780 H 0.64392 0.57621 0.66343 0.0
H781 H 0.51111 0.28526 0.70161 0.0
H782 H 0.48128 0.29242 0.73968 0.0
H783 H 0.55596 0.29382 0.73743 0.0
C784 C 0.24293 0.71833 0.97941 0.0
C785 C 0.29604 0.78421 0.97382 0.0
C786 C 0.23315 0.68867 1.00937 0.0
C787 C 0.27604 0.72681 1.03421 0.0
C788 C 0.33528 0.78885 1.02716 0.0
C789 C 0.34509 0.81613 0.99677 0.0
C790 C 0.17303 0.61955 1.01488 0.0
C791 C 0.38388 0.83093 1.05262 0.0
C792 C 0.21583 0.75485 1.10997 0.0
C793 C 0.25322 0.74432 1.13151 0.0
C794 C 0.21499 0.74021 1.07796 0.0
C795 C 0.25171 0.71344 1.06748 0.0
C796 C 0.27903 0.69146 1.08997 0.0
C797 C 0.28073 0.70843 1.12187 0.0
C798 C 0.18223 0.76181 1.05501 0.0
C799 C 0.31194 0.65584 1.08017 0.0
H800 H 0.20541 0.69201 0.96157 0.0
H801 H 0.38789 0.8657 0.99198 0.0
H802 H 0.16982 0.58629 0.99581 0.0
H803 H 0.17406 0.5982 1.03804 0.0
H804 H 0.1275 0.62045 1.01365 0.0
H805 H 0.42868 0.87656 1.04284 0.0
H806 H 0.35973 0.84611 1.0699 0.0
H807 H 0.39993 0.80203 1.06564 0.0
H808 H 0.19359 0.78172 1.11726 0.0
H809 H 0.3077 0.69796 1.13871 0.0
H810 H 0.14825 0.72003 1.03943 0.0
H811 H 0.22042 0.80306 1.03979 0.0
H812 H 0.15329 0.77901 1.06724 0.0
H813 H 0.29351 0.63085 1.05706 0.0
H814 H 0.3031 0.61819 1.09834 0.0
H815 H 0.36627 0.69193 1.07824 0.0
loop_
_geom_bond_atom_site_label_1
_geom_bond_atom_site_label_2
_geom_bond_distance
_geom_bond_site_symmetry_2
_ccdc_geom_bond_type
Nd0 C2 2.839 . S
Nd0 O20 2.500 . S
Nd0 O21 2.492 1_545 S
Nd0 O22 2.487 . S
Nd0 O23 2.682 1_556 S
Nd0 O24 2.410 . S
Nd0 O29 2.414 1_556 S
Nd0 O31 2.424 1_556 S
Nd1 C11 2.836 . S
Nd1 O23 2.414 . S
Nd1 O25 2.424 1_554 S
Nd1 O26 2.500 . S
Nd1 O27 2.492 . S
Nd1 O28 2.487 . S
Nd1 O29 2.682 . S
Nd1 O30 2.410 . S
C2 Nd0 2.839 . S
C2 C3 1.495 1_545 S
C2 O20 1.256 . S
C2 O21 1.243 1_545 S
C3 C2 1.495 1_565 S
C3 C4 1.366 . S
C3 C8 1.407 . S
C4 C3 1.366 . S
C4 C5 1.392 . S
C4 H32 0.930 1_565 S
C5 C4 1.392 . S
C5 C6 1.398 . S
C5 H33 0.929 . S
C6 C5 1.398 . S
C6 C7 1.352 . S
C7 C6 1.352 . S
C7 C8 1.384 . S
C7 H34 0.930 . S
C8 C3 1.407 . S
C8 C7 1.384 . S
C8 H35 0.929 . S
C9 O22 1.241 1_554 S
C9 O23 1.273 . S
C10 O24 1.251 . S
C10 O25 1.268 . S
C11 Nd1 2.836 . S
C11 C12 1.498 . S
C11 O26 1.258 . S
C11 O27 1.239 . S
C12 C11 1.498 . S
C12 C13 1.366 . S
C12 C17 1.407 . S
C13 C12 1.366 . S
C13 C14 1.392 . S
C13 H36 0.930 . S
C14 C13 1.392 . S
C14 C15 1.398 . S
C14 H37 0.929 . S
C15 C14 1.398 . S
C15 C16 1.352 . S
C16 C15 1.352 . S
C16 C17 1.384 . S
C16 H38 0.930 . S
C17 C12 1.407 . S
C17 C16 1.384 . S
C17 H39 0.929 . S
C18 O28 1.241 . S
C18 O29 1.273 . S
C19 O30 1.251 . S
C19 O31 1.268 . S
O20 Nd0 2.500 . S
O20 C2 1.256 . S
O21 Nd0 2.492 1_565 S
O21 C2 1.243 1_565 S
O22 Nd0 2.487 . S
O22 C9 1.241 1_556 S
O23 Nd0 2.682 1_554 S
O23 Nd1 2.414 . S
O23 C9 1.273 . S
O24 Nd0 2.410 . S
O24 C10 1.251 . S
O25 Nd1 2.424 1_556 S
O25 C10 1.268 . S
O26 Nd1 2.500 . S
O26 C11 1.258 . S
O27 Nd1 2.492 . S
O27 C11 1.239 . S
O28 Nd1 2.487 . S
O28 C18 1.241 . S
O29 Nd0 2.414 1_554 S
O29 Nd1 2.682 . S
O29 C18 1.273 . S
O30 Nd1 2.410 . S
O30 C19 1.251 . S
O31 Nd0 2.424 1_554 S
O31 C19 1.268 . S
H32 C4 0.930 1_545 S
H33 C5 0.929 . S
H34 C7 0.930 . S
H35 C8 0.929 . S
H36 C13 0.930 . S
H37 C14 0.929 . S
H38 C16 0.930 . S
H39 C17 0.929 . S
Nd40 C42 2.836 . S
Nd40 O60 2.500 . S
Nd40 O61 2.492 . S
Nd40 O62 2.487 . S
Nd40 O63 2.682 . S
Nd40 O64 2.410 . S
Nd40 O69 2.414 . S
Nd40 O71 2.424 . S
Nd41 C51 2.836 . S
Nd41 O63 2.414 . S
Nd41 O65 2.424 . S
Nd41 O66 2.500 . S
Nd41 O67 2.492 . S
Nd41 O68 2.487 . S
Nd41 O69 2.682 . S
Nd41 O70 2.410 . S
C42 Nd40 2.836 . S
C42 C43 1.498 . S
C42 O60 1.258 . S
C42 O61 1.239 . S
C43 C42 1.498 . S
C43 C44 1.366 . S
C43 C48 1.407 . S
C44 C43 1.366 . S
C44 C45 1.392 . S
C44 H72 0.930 . S
C45 C44 1.392 . S
C45 C46 1.398 . S
C45 H73 0.929 . S
C46 C45 1.398 . S
C46 C47 1.352 . S
C47 C46 1.352 . S
C47 C48 1.384 . S
C47 H74 0.930 . S
C48 C43 1.407 . S
C48 C47 1.384 . S
C48 H75 0.929 . S
C49 O62 1.241 . S
C49 O63 1.273 . S
C50 O64 1.251 . S
C50 O65 1.268 . S
C51 Nd41 2.836 . S
C51 C52 1.498 . S
C51 O66 1.258 . S
C51 O67 1.239 . S
C52 C51 1.498 . S
C52 C53 1.366 . S
C52 C57 1.407 . S
C53 C52 1.366 . S
C53 C54 1.392 . S
C53 H76 0.930 . S
C54 C53 1.392 . S
C54 C55 1.398 . S
C54 H77 0.929 . S
C55 C54 1.398 . S
C55 C56 1.352 . S
C56 C55 1.352 . S
C56 C57 1.384 . S
C56 H78 0.930 . S
C57 C52 1.407 . S
C57 C56 1.384 . S
C57 H79 0.929 . S
C58 O68 1.241 . S
C58 O69 1.273 . S
C59 O70 1.251 . S
C59 O71 1.268 . S
O60 Nd40 2.500 . S
O60 C42 1.258 . S
O61 Nd40 2.492 . S
O61 C42 1.239 . S
O62 Nd40 2.487 . S
O62 C49 1.241 . S
O63 Nd40 2.682 . S
O63 Nd41 2.414 . S
O63 C49 1.273 . S
O64 Nd40 2.410 . S
O64 C50 1.251 . S
O65 Nd41 2.424 . S
O65 C50 1.268 . S
O66 Nd41 2.500 . S
O66 C51 1.258 . S
O67 Nd41 2.492 . S
O67 C51 1.239 . S
O68 Nd41 2.487 . S
O68 C58 1.241 . S
O69 Nd40 2.414 . S
O69 Nd41 2.682 . S
O69 C58 1.273 . S
O70 Nd41 2.410 . S
O70 C59 1.251 . S
O71 Nd40 2.424 . S
O71 C59 1.268 . S
H72 C44 0.930 . S
H73 C45 0.929 . S
H74 C47 0.930 . S
H75 C48 0.929 . S
H76 C53 0.930 . S
H77 C54 0.929 . S
H78 C56 0.930 . S
H79 C57 0.929 . S
Nd80 C82 2.836 . S
Nd80 O100 2.500 . S
Nd80 O101 2.492 . S
Nd80 O102 2.487 . S
Nd80 O103 2.682 . S
Nd80 O104 2.410 . S
Nd80 O109 2.414 . S
Nd80 O111 2.424 . S
Nd81 C91 2.836 . S
Nd81 O103 2.414 . S
Nd81 O105 2.424 . S
Nd81 O106 2.500 . S
Nd81 O107 2.492 . S
Nd81 O108 2.487 . S
Nd81 O109 2.682 . S
Nd81 O110 2.410 . S
C82 Nd80 2.836 . S
C82 C83 1.498 . S
C82 O100 1.258 . S
C82 O101 1.239 . S
C83 C82 1.498 . S
C83 C84 1.366 . S
C83 C88 1.407 . S
C84 C83 1.366 . S
C84 C85 1.392 . S
C84 H112 0.930 . S
C85 C84 1.392 . S
C85 C86 1.398 . S
C85 H113 0.929 . S
C86 C85 1.398 . S
C86 C87 1.352 . S
C87 C86 1.352 . S
C87 C88 1.384 . S
C87 H114 0.930 . S
C88 C83 1.407 . S
C88 C87 1.384 . S
C88 H115 0.929 . S
C89 O102 1.241 . S
C89 O103 1.273 . S
C90 O104 1.251 . S
C90 O105 1.268 . S
C91 Nd81 2.836 . S
C91 C92 1.498 . S
C91 O106 1.258 . S
C91 O107 1.239 . S
C92 C91 1.498 . S
C92 C93 1.366 . S
C92 C97 1.407 1_455 S
C93 C92 1.366 . S
C93 C94 1.392 . S
C93 H116 0.930 . S
C94 C93 1.392 . S
C94 C95 1.398 1_455 S
C94 H117 0.929 . S
C95 C94 1.398 1_655 S
C95 C96 1.352 . S
C96 C95 1.352 . S
C96 C97 1.384 . S
C96 H118 0.930 . S
C97 C92 1.407 1_655 S
C97 C96 1.384 . S
C97 H119 0.929 . S
C98 O108 1.241 . S
C98 O109 1.273 . S
C99 O110 1.251 . S
C99 O111 1.268 . S
O100 Nd80 2.500 . S
O100 C82 1.258 . S
O101 Nd80 2.492 . S
O101 C82 1.239 . S
O102 Nd80 2.487 . S
O102 C89 1.241 . S
O103 Nd80 2.682 . S
O103 Nd81 2.414 . S
O103 C89 1.273 . S
O104 Nd80 2.410 . S
O104 C90 1.251 . S
O105 Nd81 2.424 . S
O105 C90 1.268 . S
O106 Nd81 2.500 . S
O106 C91 1.258 . S
O107 Nd81 2.492 . S
O107 C91 1.239 . S
O108 Nd81 2.487 . S
O108 C98 1.241 . S
O109 Nd80 2.414 . S
O109 Nd81 2.682 . S
O109 C98 1.273 . S
O110 Nd81 2.410 . S
O110 C99 1.251 . S
O111 Nd80 2.424 . S
O111 C99 1.268 . S
H112 C84 0.930 . S
H113 C85 0.929 . S
H114 C87 0.930 . S
H115 C88 0.929 . S
H116 C93 0.930 . S
H117 C94 0.929 . S
H118 C96 0.930 . S
H119 C97 0.929 . S
Nd120 C122 2.836 . S
Nd120 O140 2.500 . S
Nd120 O141 2.492 . S
Nd120 O142 2.487 . S
Nd120 O143 2.682 1_546 S
Nd120 O144 2.410 1_545 S
Nd120 O149 2.414 1_556 S
Nd120 O151 2.424 1_556 S
Nd121 C131 2.836 . S
Nd121 O143 2.414 . S
Nd121 O145 2.424 1_554 S
Nd121 O146 2.500 . S
Nd121 O147 2.492 . S
Nd121 O148 2.487 . S
Nd121 O149 2.682 1_565 S
Nd121 O150 2.410 1_565 S
C122 Nd120 2.836 . S
C122 C123 1.498 . S
C122 O140 1.258 . S
C122 O141 1.239 . S
C123 C122 1.498 . S
C123 C124 1.366 . S
C123 C128 1.407 . S
C124 C123 1.366 . S
C124 C125 1.392 . S
C124 H152 0.930 . S
C125 C124 1.392 . S
C125 C126 1.398 . S
C125 H153 0.929 . S
C126 C125 1.398 . S
C126 C127 1.352 . S
C127 C126 1.352 . S
C127 C128 1.384 . S
C127 H154 0.930 1_655 S
C128 C123 1.407 . S
C128 C127 1.384 . S
C128 H155 0.929 1_655 S
C129 O142 1.241 1_554 S
C129 O143 1.273 1_545 S
C130 O144 1.251 . S
C130 O145 1.268 . S
C131 Nd121 2.836 . S
C131 C132 1.498 . S
C131 O146 1.258 . S
C131 O147 1.239 . S
C132 C131 1.498 . S
C132 C133 1.366 . S
C132 C137 1.407 . S
C133 C132 1.366 . S
C133 C134 1.392 . S
C133 H156 0.930 . S
C134 C133 1.392 . S
C134 C135 1.398 . S
C134 H157 0.929 . S
C135 C134 1.398 . S
C135 C136 1.352 . S
C136 C135 1.352 . S
C136 C137 1.384 . S
C136 H158 0.930 . S
C137 C132 1.407 . S
C137 C136 1.384 . S
C137 H159 0.929 . S
C138 O148 1.241 . S
C138 O149 1.273 1_565 S
C139 O150 1.251 . S
C139 O151 1.268 . S
O140 Nd120 2.500 . S
O140 C122 1.258 . S
O141 Nd120 2.492 . S
O141 C122 1.239 . S
O142 Nd120 2.487 . S
O142 C129 1.241 1_556 S
O143 Nd120 2.682 1_564 S
O143 Nd121 2.414 . S
O143 C129 1.273 1_565 S
O144 Nd120 2.410 1_565 S
O144 C130 1.251 . S
O145 Nd121 2.424 1_556 S
O145 C130 1.268 . S
O146 Nd121 2.500 . S
O146 C131 1.258 . S
O147 Nd121 2.492 . S
O147 C131 1.239 . S
O148 Nd121 2.487 . S
O148 C138 1.241 . S
O149 Nd120 2.414 1_554 S
O149 Nd121 2.682 1_545 S
O149 C138 1.273 1_545 S
O150 Nd121 2.410 1_545 S
O150 C139 1.251 . S
O151 Nd120 2.424 1_554 S
O151 C139 1.268 . S
H152 C124 0.930 . S
H153 C125 0.929 . S
H154 C127 0.930 1_455 S
H155 C128 0.929 1_455 S
H156 C133 0.930 . S
H157 C134 0.929 . S
H158 C136 0.930 . S
H159 C137 0.929 . S
Nd160 C162 2.836 . S
Nd160 O180 2.500 . S
Nd160 O181 2.492 . S
Nd160 O182 2.487 1_665 S
Nd160 O183 2.682 1_655 S
Nd160 O184 2.410 . S
Nd160 O189 2.414 . S
Nd160 O191 2.424 . S
Nd161 C171 2.836 1_655 S
Nd161 O183 2.414 1_655 S
Nd161 O185 2.424 1_655 S
Nd161 O186 2.500 1_655 S
Nd161 O187 2.492 . S
Nd161 O188 2.487 . S
Nd161 O189 2.682 . S
Nd161 O190 2.410 . S
C162 Nd160 2.836 . S
C162 C163 1.498 . S
C162 O180 1.258 . S
C162 O181 1.239 . S
C163 C162 1.498 . S
C163 C164 1.366 . S
C163 C168 1.407 . S
C164 C163 1.366 . S
C164 C165 1.392 . S
C164 H192 0.930 . S
C165 C164 1.392 . S
C165 C166 1.398 . S
C165 H193 0.929 . S
C166 C165 1.398 . S
C166 C167 1.352 . S
C167 C166 1.352 . S
C167 C168 1.384 . S
C167 H194 0.930 1_565 S
C168 C163 1.407 . S
C168 C167 1.384 . S
C168 H195 0.929 1_565 S
C169 O182 1.241 1_565 S
C169 O183 1.273 . S
C170 O184 1.251 . S
C170 O185 1.268 1_655 S
C171 Nd161 2.836 1_455 S
C171 C172 1.498 . S
C171 O186 1.258 . S
C171 O187 1.239 1_455 S
C172 C171 1.498 . S
C172 C173 1.366 . S
C172 C177 1.407 . S
C173 C172 1.366 . S
C173 C174 1.392 . S
C173 H196 0.930 . S
C174 C173 1.392 . S
C174 C175 1.398 . S
C174 H197 0.929 . S
C175 C174 1.398 . S
C175 C176 1.352 . S
C176 C175 1.352 . S
C176 C177 1.384 . S
C176 H198 0.929 . S
C177 C172 1.407 . S
C177 C176 1.384 . S
C177 H199 0.929 1_455 S
C178 O188 1.241 . S
C178 O189 1.273 . S
C179 O190 1.251 . S
C179 O191 1.268 . S
O180 Nd160 2.500 . S
O180 C162 1.258 . S
O181 Nd160 2.492 . S
O181 C162 1.239 . S
O182 Nd160 2.487 1_445 S
O182 C169 1.241 1_545 S
O183 Nd160 2.682 1_455 S
O183 Nd161 2.414 1_455 S
O183 C169 1.273 . S
O184 Nd160 2.410 . S
O184 C170 1.251 . S
O185 Nd161 2.424 1_455 S
O185 C170 1.268 1_455 S
O186 Nd161 2.500 1_455 S
O186 C171 1.258 . S
O187 Nd161 2.492 . S
O187 C171 1.239 1_655 S
O188 Nd161 2.487 . S
O188 C178 1.241 . S
O189 Nd160 2.414 . S
O189 Nd161 2.682 . S
O189 C178 1.273 . S
O190 Nd161 2.410 . S
O190 C179 1.251 . S
O191 Nd160 2.424 . S
O191 C179 1.268 . S
H192 C164 0.930 . S
H193 C165 0.929 . S
H194 C167 0.930 1_545 S
H195 C168 0.929 1_545 S
H196 C173 0.930 . S
H197 C174 0.929 . S
H198 C176 0.929 . S
H199 C177 0.929 1_655 S
Nd200 C202 2.836 . S
Nd200 O220 2.500 . S
Nd200 O221 2.492 . S
Nd200 O222 2.487 . S
Nd200 O223 2.682 1_655 S
Nd200 O224 2.410 1_655 S
Nd200 O229 2.414 . S
Nd200 O231 2.424 . S
Nd201 C211 2.836 . S
Nd201 O223 2.414 . S
Nd201 O225 2.424 . S
Nd201 O226 2.500 . S
Nd201 O227 2.492 . S
Nd201 O228 2.487 . S
Nd201 O229 2.682 1_455 S
Nd201 O230 2.410 1_455 S
C202 Nd200 2.836 . S
C202 C203 1.498 . S
C202 O220 1.258 . S
C202 O221 1.239 . S
C203 C202 1.498 . S
C203 C204 1.366 . S
C203 C208 1.407 . S
C204 C203 1.366 . S
C204 C205 1.392 . S
C204 H232 0.930 . S
C205 C204 1.392 . S
C205 C206 1.398 . S
C205 H233 0.929 . S
C206 C205 1.398 . S
C206 C207 1.352 . S
C207 C206 1.352 . S
C207 C208 1.384 . S
C207 H234 0.930 . S
C208 C203 1.407 . S
C208 C207 1.384 . S
C208 H235 0.929 . S
C209 O222 1.241 . S
C209 O223 1.273 1_655 S
C210 O224 1.251 . S
C210 O225 1.268 . S
C211 Nd201 2.836 . S
C211 C212 1.498 . S
C211 O226 1.258 . S
C211 O227 1.239 . S
C212 C211 1.498 . S
C212 C213 1.366 . S
C212 C217 1.407 . S
C213 C212 1.366 . S
C213 C214 1.392 . S
C213 H236 0.930 . S
C214 C213 1.392 . S
C214 C215 1.398 . S
C214 H237 0.929 1_565 S
C215 C214 1.398 . S
C215 C216 1.352 . S
C216 C215 1.352 . S
C216 C217 1.384 . S
C216 H238 0.930 . S
C217 C212 1.407 . S
C217 C216 1.384 . S
C217 H239 0.929 . S
C218 O228 1.241 . S
C218 O229 1.273 1_455 S
C219 O230 1.251 . S
C219 O231 1.268 . S
O220 Nd200 2.500 . S
O220 C202 1.258 . S
O221 Nd200 2.492 . S
O221 C202 1.239 . S
O222 Nd200 2.487 . S
O222 C209 1.241 . S
O223 Nd200 2.682 1_455 S
O223 Nd201 2.414 . S
O223 C209 1.273 1_455 S
O224 Nd200 2.410 1_455 S
O224 C210 1.251 . S
O225 Nd201 2.424 . S
O225 C210 1.268 . S
O226 Nd201 2.500 . S
O226 C211 1.258 . S
O227 Nd201 2.492 . S
O227 C211 1.239 . S
O228 Nd201 2.487 . S
O228 C218 1.241 . S
O229 Nd200 2.414 . S
O229 Nd201 2.682 1_655 S
O229 C218 1.273 1_655 S
O230 Nd201 2.410 1_655 S
O230 C219 1.251 . S
O231 Nd200 2.424 . S
O231 C219 1.268 . S
H232 C204 0.930 . S
H233 C205 0.929 . S
H234 C207 0.930 . S
H235 C208 0.929 . S
H236 C213 0.930 . S
H237 C214 0.929 1_545 S
H238 C216 0.930 . S
H239 C217 0.929 . S
C240 C241 1.391 1_545 S
C240 C242 1.394 1_655 S
C240 H256 0.931 . S
C241 C240 1.391 1_565 S
C241 C245 1.376 . S
C242 C240 1.394 1_455 S
C242 C243 1.369 . S
C242 C246 1.531 . S
C243 C242 1.369 . S
C243 C244 1.410 1_545 S
C243 C251 1.503 . S
C244 C243 1.410 1_565 S
C244 C245 1.392 1_455 S
C244 C247 1.511 . S
C245 C241 1.376 . S
C245 C244 1.392 1_655 S
C245 H257 0.929 . S
C246 C242 1.531 . S
C246 H258 0.960 . S
C246 H259 0.962 . S
C246 H260 0.960 . S
C247 C244 1.511 . S
C247 H261 0.961 . S
C247 H262 0.961 . S
C247 H263 0.961 . S
C248 C249 1.370 1_556 S
C248 C250 1.363 . S
C248 H264 0.931 . S
C249 C248 1.370 1_554 S
C249 C253 1.408 . S
C250 C248 1.363 . S
C250 C251 1.370 1_556 S
C250 C254 1.524 . S
C251 C243 1.503 . S
C251 C250 1.370 1_554 S
C251 C252 1.403 . S
C252 C251 1.403 . S
C252 C253 1.404 . S
C252 C255 1.539 . S
C253 C249 1.408 . S
C253 C252 1.404 . S
C253 H265 0.930 . S
C254 C250 1.524 . S
C254 H266 0.956 . S
C254 H267 0.961 . S
C254 H268 0.961 . S
C255 C252 1.539 . S
C255 H269 0.958 . S
C255 H270 0.961 . S
C255 H271 0.960 . S
H256 C240 0.931 . S
H257 C245 0.929 . S
H258 C246 0.960 . S
H259 C246 0.962 . S
H260 C246 0.960 . S
H261 C247 0.961 . S
H262 C247 0.961 . S
H263 C247 0.961 . S
H264 C248 0.931 . S
H265 C253 0.930 . S
H266 C254 0.956 . S
H267 C254 0.961 . S
H268 C254 0.961 . S
H269 C255 0.958 . S
H270 C255 0.961 . S
H271 C255 0.960 . S
C272 C273 1.391 . S
C272 C274 1.394 . S
C272 H288 0.931 . S
C273 C272 1.391 . S
C273 C277 1.376 1_565 S
C274 C272 1.394 . S
C274 C275 1.369 1_565 S
C274 C278 1.531 1_455 S
C275 C274 1.369 1_545 S
C275 C276 1.410 . S
C275 C283 1.503 . S
C276 C275 1.410 . S
C276 C277 1.392 . S
C276 C279 1.511 . S
C277 C273 1.376 1_545 S
C277 C276 1.392 . S
C277 H289 0.929 . S
C278 C274 1.531 1_655 S
C278 H290 0.960 1_665 S
C278 H291 0.962 . S
C278 H292 0.960 . S
C279 C276 1.511 . S
C279 H293 0.961 . S
C279 H294 0.961 . S
C279 H295 0.961 . S
C280 C281 1.370 . S
C280 C282 1.363 . S
C280 H296 0.931 . S
C281 C280 1.370 . S
C281 C285 1.408 . S
C282 C280 1.363 . S
C282 C283 1.370 . S
C282 C286 1.524 . S
C283 C275 1.503 . S
C283 C282 1.370 . S
C283 C284 1.403 . S
C284 C283 1.403 . S
C284 C285 1.404 . S
C284 C287 1.539 . S
C285 C281 1.408 . S
C285 C284 1.404 . S
C285 H297 0.930 . S
C286 C282 1.524 . S
C286 H298 0.956 1_455 S
C286 H299 0.961 . S
C286 H300 0.961 . S
C287 C284 1.539 . S
C287 H301 0.958 . S
C287 H302 0.961 . S
C287 H303 0.960 . S
H288 C272 0.931 . S
H289 C277 0.929 . S
H290 C278 0.960 1_445 S
H291 C278 0.962 . S
H292 C278 0.960 . S
H293 C279 0.961 . S
H294 C279 0.961 . S
H295 C279 0.961 . S
H296 C280 0.931 . S
H297 C285 0.930 . S
H298 C286 0.956 1_655 S
H299 C286 0.961 . S
H300 C286 0.961 . S
H301 C287 0.958 . S
H302 C287 0.961 . S
H303 C287 0.960 . S
C304 C305 1.384 1_455 S
C304 C306 1.396 . S
C304 H320 0.935 . S
C305 C304 1.384 1_655 S
C305 C309 1.376 . S
C306 C304 1.396 . S
C306 C307 1.369 1_565 S
C306 C310 1.531 . S
C307 C306 1.369 1_545 S
C307 C308 1.410 1_455 S
C307 C315 1.503 . S
C308 C307 1.410 1_655 S
C308 C309 1.392 1_545 S
C308 C311 1.511 . S
C309 C305 1.376 . S
C309 C308 1.392 1_565 S
C309 H321 0.929 . S
C310 C306 1.531 . S
C310 H322 0.960 1_565 S
C310 H323 0.962 . S
C310 H324 0.960 . S
C311 C308 1.511 . S
C311 H325 0.961 . S
C311 H326 0.961 1_655 S
C311 H327 0.961 . S
C312 C313 1.370 . S
C312 C314 1.363 . S
C312 H328 0.931 . S
C313 C312 1.370 . S
C313 C317 1.408 . S
C314 C312 1.363 . S
C314 C315 1.370 . S
C314 C318 1.524 . S
C315 C307 1.503 . S
C315 C314 1.370 . S
C315 C316 1.403 . S
C316 C315 1.403 . S
C316 C317 1.404 . S
C316 C319 1.539 . S
C317 C313 1.408 . S
C317 C316 1.404 . S
C317 H329 0.930 . S
C318 C314 1.524 . S
C318 H330 0.956 . S
C318 H331 0.961 . S
C318 H332 0.961 . S
C319 C316 1.539 . S
C319 H333 0.958 . S
C319 H334 0.961 . S
C319 H335 0.960 . S
H320 C304 0.935 . S
H321 C309 0.929 . S
H322 C310 0.960 1_545 S
H323 C310 0.962 . S
H324 C310 0.960 . S
H325 C311 0.961 . S
H326 C311 0.961 1_455 S
H327 C311 0.961 . S
H328 C312 0.931 . S
H329 C317 0.930 . S
H330 C318 0.956 . S
H331 C318 0.961 . S
H332 C318 0.961 . S
H333 C319 0.958 . S
H334 C319 0.961 . S
H335 C319 0.960 . S
C336 C337 1.391 . S
C336 C338 1.394 . S
C336 H352 0.931 . S
C337 C336 1.391 . S
C337 C341 1.376 . S
C338 C336 1.394 . S
C338 C339 1.369 . S
C338 C342 1.531 . S
C339 C338 1.369 . S
C339 C340 1.410 . S
C339 C347 1.503 . S
C340 C339 1.410 . S
C340 C341 1.392 . S
C340 C343 1.511 . S
C341 C337 1.376 . S
C341 C340 1.392 . S
C341 H353 0.929 . S
C342 C338 1.531 . S
C342 H354 0.960 . S
C342 H355 0.962 . S
C342 H356 0.960 . S
C343 C340 1.511 . S
C343 H357 0.961 . S
C343 H358 0.961 . S
C343 H359 0.961 . S
C344 C345 1.370 . S
C344 C346 1.363 . S
C344 H360 0.931 . S
C345 C344 1.370 . S
C345 C349 1.408 . S
C346 C344 1.363 . S
C346 C347 1.370 . S
C346 C350 1.524 . S
C347 C339 1.503 . S
C347 C346 1.370 . S
C347 C348 1.403 . S
C348 C347 1.403 . S
C348 C349 1.404 . S
C348 C351 1.539 . S
C349 C345 1.408 . S
C349 C348 1.404 . S
C349 H361 0.930 . S
C350 C346 1.524 . S
C350 H362 0.956 . S
C350 H363 0.961 . S
C350 H364 0.961 . S
C351 C348 1.539 . S
C351 H365 0.958 . S
C351 H366 0.961 . S
C351 H367 0.960 . S
H352 C336 0.931 . S
H353 C341 0.929 . S
H354 C342 0.960 . S
H355 C342 0.962 . S
H356 C342 0.960 . S
H357 C343 0.961 . S
H358 C343 0.961 . S
H359 C343 0.961 . S
H360 C344 0.931 . S
H361 C349 0.930 . S
H362 C350 0.956 . S
H363 C350 0.961 . S
H364 C350 0.961 . S
H365 C351 0.958 . S
H366 C351 0.961 . S
H367 C351 0.960 . S
C368 C369 1.391 . S
C368 C370 1.394 . S
C368 H384 0.931 . S
C369 C368 1.391 . S
C369 C373 1.376 . S
C370 C368 1.394 . S
C370 C371 1.369 . S
C370 C374 1.531 1_455 S
C371 C370 1.369 . S
C371 C372 1.410 . S
C371 C379 1.503 . S
C372 C371 1.410 . S
C372 C373 1.392 . S
C372 C375 1.511 . S
C373 C369 1.376 . S
C373 C372 1.392 . S
C373 H385 0.929 . S
C374 C370 1.531 1_655 S
C374 H386 0.960 . S
C374 H387 0.962 . S
C374 H388 0.960 . S
C375 C372 1.511 . S
C375 H389 0.961 . S
C375 H390 0.961 . S
C375 H391 0.961 . S
C376 C377 1.370 . S
C376 C378 1.361 1_655 S
C376 H392 0.931 . S
C377 C376 1.370 . S
C377 C381 1.408 1_655 S
C378 C376 1.361 1_455 S
C378 C379 1.369 . S
C378 C382 1.528 1_455 S
C379 C371 1.503 . S
C379 C378 1.369 . S
C379 C380 1.403 . S
C380 C379 1.403 . S
C380 C381 1.404 . S
C380 C383 1.539 . S
C381 C377 1.408 1_455 S
C381 C380 1.404 . S
C381 H393 0.930 . S
C382 C378 1.528 1_655 S
C382 H394 0.956 . S
C382 H395 0.961 1_655 S
C382 H396 0.961 . S
C383 C380 1.539 . S
C383 H397 0.958 . S
C383 H398 0.961 . S
C383 H399 0.960 . S
H384 C368 0.931 . S
H385 C373 0.929 . S
H386 C374 0.960 . S
H387 C374 0.962 . S
H388 C374 0.960 . S
H389 C375 0.961 . S
H390 C375 0.961 . S
H391 C375 0.961 . S
H392 C376 0.931 . S
H393 C381 0.930 . S
H394 C382 0.956 . S
H395 C382 0.961 1_455 S
H396 C382 0.961 . S
H397 C383 0.958 . S
H398 C383 0.961 . S
H399 C383 0.960 . S
C400 C401 1.391 . S
C400 C402 1.394 . S
C400 H416 0.931 . S
C401 C400 1.391 . S
C401 C405 1.376 . S
C402 C400 1.394 . S
C402 C403 1.369 . S
C402 C406 1.531 . S
C403 C402 1.369 . S
C403 C404 1.410 1_455 S
C403 C411 1.503 1_455 S
C404 C403 1.410 1_655 S
C404 C405 1.392 1_655 S
C404 C407 1.511 . S
C405 C401 1.376 . S
C405 C404 1.392 1_455 S
C405 H417 0.929 . S
C406 C402 1.531 . S
C406 H418 0.960 1_545 S
C406 H419 0.962 . S
C406 H420 0.960 1_545 S
C407 C404 1.511 . S
C407 H421 0.961 . S
C407 H422 0.961 . S
C407 H423 0.961 . S
C408 C409 1.370 1_445 S
C408 C410 1.363 . S
C408 H424 0.931 . S
C409 C408 1.370 1_665 S
C409 C413 1.408 . S
C410 C408 1.363 . S
C410 C411 1.370 1_455 S
C410 C414 1.524 . S
C411 C403 1.503 1_655 S
C411 C410 1.370 1_655 S
C411 C412 1.403 1_545 S
C412 C411 1.403 1_565 S
C412 C413 1.404 . S
C412 C415 1.539 . S
C413 C409 1.408 . S
C413 C412 1.404 . S
C413 H425 0.930 . S
C414 C410 1.524 . S
C414 H426 0.956 . S
C414 H427 0.961 . S
C414 H428 0.961 . S
C415 C412 1.539 . S
C415 H429 0.958 . S
C415 H430 0.961 . S
C415 H431 0.946 1_565 S
H416 C400 0.931 . S
H417 C405 0.929 . S
H418 C406 0.960 1_565 S
H419 C406 0.962 . S
H420 C406 0.960 1_565 S
H421 C407 0.961 . S
H422 C407 0.961 . S
H423 C407 0.961 . S
H424 C408 0.931 . S
H425 C413 0.930 . S
H426 C414 0.956 . S
H427 C414 0.961 . S
H428 C414 0.961 . S
H429 C415 0.958 . S
H430 C415 0.961 . S
H431 C415 0.946 1_545 S
C432 C433 1.391 . S
C432 C434 1.394 . S
C432 H448 0.931 . S
C433 C432 1.391 . S
C433 C437 1.376 . S
C434 C432 1.394 . S
C434 C435 1.369 . S
C434 C438 1.531 . S
C435 C434 1.369 . S
C435 C436 1.410 . S
C435 C443 1.503 . S
C436 C435 1.410 . S
C436 C437 1.392 . S
C436 C439 1.511 . S
C437 C433 1.376 . S
C437 C436 1.392 . S
C437 H449 0.929 . S
C438 C434 1.531 . S
C438 H450 0.960 . S
C438 H451 0.962 . S
C438 H452 0.960 . S
C439 C436 1.511 . S
C439 H453 0.961 . S
C439 H454 0.961 . S
C439 H455 0.961 . S
C440 C441 1.370 . S
C440 C442 1.363 . S
C440 H456 0.931 . S
C441 C440 1.370 . S
C441 C445 1.408 . S
C442 C440 1.363 . S
C442 C443 1.370 . S
C442 C446 1.524 . S
C443 C435 1.503 . S
C443 C442 1.370 . S
C443 C444 1.403 . S
C444 C443 1.403 . S
C444 C445 1.404 . S
C444 C447 1.539 . S
C445 C441 1.408 . S
C445 C444 1.404 . S
C445 H457 0.930 . S
C446 C442 1.524 . S
C446 H458 0.956 . S
C446 H459 0.961 . S
C446 H460 0.961 1_565 S
C447 C444 1.539 . S
C447 H461 0.958 . S
C447 H462 0.961 . S
C447 H463 0.960 . S
H448 C432 0.931 . S
H449 C437 0.929 . S
H450 C438 0.960 . S
H451 C438 0.962 . S
H452 C438 0.960 . S
H453 C439 0.961 . S
H454 C439 0.961 . S
H455 C439 0.961 . S
H456 C440 0.931 . S
H457 C445 0.930 . S
H458 C446 0.956 . S
H459 C446 0.961 . S
H460 C446 0.961 1_545 S
H461 C447 0.958 . S
H462 C447 0.961 . S
H463 C447 0.960 . S
C464 C465 1.391 . S
C464 C466 1.394 . S
C464 H480 0.931 . S
C465 C464 1.391 . S
C465 C469 1.376 . S
C466 C464 1.394 . S
C466 C467 1.369 . S
C466 C470 1.531 . S
C467 C466 1.369 . S
C467 C468 1.410 . S
C467 C475 1.503 . S
C468 C467 1.410 . S
C468 C469 1.392 . S
C468 C471 1.511 . S
C469 C465 1.376 . S
C469 C468 1.392 . S
C469 H481 0.929 . S
C470 C466 1.531 . S
C470 H482 0.960 1_565 S
C470 H483 0.962 . S
C470 H484 0.960 . S
C471 C468 1.511 . S
C471 H485 0.961 . S
C471 H486 0.961 . S
C471 H487 0.961 . S
C472 C473 1.370 . S
C472 C474 1.363 . S
C472 H488 0.931 . S
C473 C472 1.370 . S
C473 C477 1.408 1_565 S
C474 C472 1.363 . S
C474 C475 1.370 . S
C474 C478 1.524 . S
C475 C467 1.503 . S
C475 C474 1.370 . S
C475 C476 1.403 1_565 S
C476 C475 1.403 1_545 S
C476 C477 1.404 . S
C476 C479 1.539 . S
C477 C473 1.408 1_545 S
C477 C476 1.404 . S
C477 H489 0.930 . S
C478 C474 1.524 . S
C478 H490 0.956 . S
C478 H491 0.961 . S
C478 H492 0.961 . S
C479 C476 1.539 . S
C479 H493 0.958 . S
C479 H494 0.961 . S
C479 H495 0.960 . S
H480 C464 0.931 . S
H481 C469 0.929 . S
H482 C470 0.960 1_545 S
H483 C470 0.962 . S
H484 C470 0.960 . S
H485 C471 0.961 . S
H486 C471 0.961 . S
H487 C471 0.961 . S
H488 C472 0.931 . S
H489 C477 0.930 . S
H490 C478 0.956 . S
H491 C478 0.961 . S
H492 C478 0.961 . S
H493 C479 0.958 . S
H494 C479 0.961 . S
H495 C479 0.960 . S
C496 C497 1.391 1_545 S
C496 C498 1.394 . S
C496 H512 0.931 . S
C497 C496 1.391 1_565 S
C497 C501 1.376 . S
C498 C496 1.394 . S
C498 C499 1.369 . S
C498 C502 1.531 . S
C499 C498 1.369 . S
C499 C500 1.410 . S
C499 C507 1.503 . S
C500 C499 1.410 . S
C500 C501 1.392 1_545 S
C500 C503 1.511 . S
C501 C497 1.376 . S
C501 C500 1.392 1_565 S
C501 H513 0.929 . S
C502 C498 1.531 . S
C502 H514 0.960 . S
C502 H515 0.962 . S
C502 H516 0.960 . S
C503 C500 1.511 . S
C503 H517 0.961 1_545 S
C503 H518 0.961 . S
C503 H519 0.961 . S
C504 C505 1.370 . S
C504 C506 1.363 . S
C504 H520 0.931 . S
C505 C504 1.370 . S
C505 C509 1.408 . S
C506 C504 1.363 . S
C506 C507 1.370 . S
C506 C510 1.524 1_545 S
C507 C499 1.503 . S
C507 C506 1.370 . S
C507 C508 1.403 . S
C508 C507 1.403 . S
C508 C509 1.404 . S
C508 C511 1.539 . S
C509 C505 1.408 . S
C509 C508 1.404 . S
C509 H521 0.930 . S
C510 C506 1.524 1_565 S
C510 H522 0.956 . S
C510 H523 0.961 . S
C510 H524 0.961 . S
C511 C508 1.539 . S
C511 H525 0.958 . S
C511 H526 0.961 . S
C511 H527 0.960 . S
H512 C496 0.931 . S
H513 C501 0.929 . S
H514 C502 0.960 . S
H515 C502 0.962 . S
H516 C502 0.960 . S
H517 C503 0.961 1_565 S
H518 C503 0.961 . S
H519 C503 0.961 . S
H520 C504 0.931 . S
H521 C509 0.930 . S
H522 C510 0.956 . S
H523 C510 0.961 . S
H524 C510 0.961 . S
H525 C511 0.958 . S
H526 C511 0.961 . S
H527 C511 0.960 . S
C528 C529 1.391 . S
C528 C530 1.394 . S
C528 H544 0.931 . S
C529 C528 1.391 . S
C529 C533 1.376 . S
C530 C528 1.394 . S
C530 C531 1.369 . S
C530 C534 1.531 . S
C531 C530 1.369 . S
C531 C532 1.410 . S
C531 C539 1.503 . S
C532 C531 1.410 . S
C532 C533 1.392 . S
C532 C535 1.519 1_545 S
C533 C529 1.376 . S
C533 C532 1.392 . S
C533 H545 0.923 1_554 S
C534 C530 1.531 . S
C534 H546 0.960 . S
C534 H547 0.962 . S
C534 H548 0.960 . S
C535 C532 1.519 1_565 S
C535 H549 0.932 1_554 S
C535 H550 0.942 1_554 S
C535 H551 1.004 . S
C536 C537 1.370 1_556 S
C536 C538 1.363 . S
C536 H552 0.931 . S
C537 C536 1.370 1_554 S
C537 C541 1.408 . S
C538 C536 1.363 . S
C538 C539 1.370 1_556 S
C538 C542 1.524 . S
C539 C531 1.503 . S
C539 C538 1.370 1_554 S
C539 C540 1.403 . S
C540 C539 1.403 . S
C540 C541 1.404 . S
C540 C543 1.539 . S
C541 C537 1.408 . S
C541 C540 1.404 . S
C541 H553 0.930 1_545 S
C542 C538 1.524 . S
C542 H554 0.956 . S
C542 H555 0.961 . S
C542 H556 0.961 . S
C543 C540 1.539 . S
C543 H557 0.958 . S
C543 H558 0.961 1_545 S
C543 H559 0.960 . S
H544 C528 0.931 . S
H545 C533 0.923 1_556 S
H546 C534 0.960 . S
H547 C534 0.962 . S
H548 C534 0.960 . S
H549 C535 0.932 1_556 S
H550 C535 0.942 1_556 S
H551 C535 1.004 . S
H552 C536 0.931 . S
H553 C541 0.930 1_565 S
H554 C542 0.956 . S
H555 C542 0.961 . S
H556 C542 0.961 . S
H557 C543 0.958 . S
H558 C543 0.961 1_565 S
H559 C543 0.960 . S
C560 C561 1.391 . S
C560 C562 1.394 . S
C560 H576 0.931 . S
C561 C560 1.391 . S
C561 C565 1.376 . S
C562 C560 1.394 . S
C562 C563 1.369 . S
C562 C566 1.531 . S
C563 C562 1.369 . S
C563 C564 1.410 . S
C563 C571 1.503 . S
C564 C563 1.410 . S
C564 C565 1.392 . S
C564 C567 1.511 . S
C565 C561 1.376 . S
C565 C564 1.392 . S
C565 H577 0.929 . S
C566 C562 1.531 . S
C566 H578 0.960 . S
C566 H579 0.962 . S
C566 H580 0.960 . S
C567 C564 1.511 . S
C567 H581 0.961 . S
C567 H582 0.961 . S
C567 H583 0.961 . S
C568 C569 1.370 . S
C568 C570 1.363 . S
C568 H584 0.931 . S
C569 C568 1.370 . S
C569 C573 1.408 . S
C570 C568 1.363 . S
C570 C571 1.370 . S
C570 C574 1.524 . S
C571 C563 1.503 . S
C571 C570 1.370 . S
C571 C572 1.403 . S
C572 C571 1.403 . S
C572 C573 1.404 . S
C572 C575 1.539 . S
C573 C569 1.408 . S
C573 C572 1.404 . S
C573 H585 0.930 . S
C574 C570 1.524 . S
C574 H586 0.956 . S
C574 H587 0.961 . S
C574 H588 0.961 . S
C575 C572 1.539 . S
C575 H589 0.958 . S
C575 H590 0.961 . S
C575 H591 0.960 . S
H576 C560 0.931 . S
H577 C565 0.929 . S
H578 C566 0.960 . S
H579 C566 0.962 . S
H580 C566 0.960 . S
H581 C567 0.961 . S
H582 C567 0.961 . S
H583 C567 0.961 . S
H584 C568 0.931 . S
H585 C573 0.930 . S
H586 C574 0.956 . S
H587 C574 0.961 . S
H588 C574 0.961 . S
H589 C575 0.958 . S
H590 C575 0.961 . S
H591 C575 0.960 . S
C592 C593 1.391 . S
C592 C594 1.394 . S
C592 H608 0.931 . S
C593 C592 1.391 . S
C593 C597 1.376 . S
C594 C592 1.394 . S
C594 C595 1.369 . S
C594 C598 1.531 . S
C595 C594 1.369 . S
C595 C596 1.410 . S
C595 C603 1.503 . S
C596 C595 1.410 . S
C596 C597 1.392 . S
C596 C599 1.511 . S
C597 C593 1.376 . S
C597 C596 1.392 . S
C597 H609 0.929 . S
C598 C594 1.531 . S
C598 H610 0.960 . S
C598 H611 0.962 1_455 S
C598 H612 0.960 . S
C599 C596 1.511 . S
C599 H613 0.961 . S
C599 H614 0.961 . S
C599 H615 0.961 . S
C600 C601 1.370 . S
C600 C602 1.363 . S
C600 H616 0.931 1_455 S
C601 C600 1.370 . S
C601 C605 1.408 . S
C602 C600 1.363 . S
C602 C603 1.370 . S
C602 C606 1.524 . S
C603 C595 1.503 . S
C603 C602 1.370 . S
C603 C604 1.403 . S
C604 C603 1.403 . S
C604 C605 1.404 . S
C604 C607 1.539 . S
C605 C601 1.408 . S
C605 C604 1.404 . S
C605 H617 0.930 . S
C606 C602 1.524 . S
C606 H618 0.956 1_455 S
C606 H619 0.961 . S
C606 H620 0.952 1_455 S
C607 C604 1.539 . S
C607 H621 0.958 . S
C607 H622 0.961 . S
C607 H623 0.960 . S
H608 C592 0.931 . S
H609 C597 0.929 . S
H610 C598 0.960 . S
H611 C598 0.962 1_655 S
H612 C598 0.960 . S
H613 C599 0.961 . S
H614 C599 0.961 . S
H615 C599 0.961 . S
H616 C600 0.931 1_655 S
H617 C605 0.930 . S
H618 C606 0.956 1_655 S
H619 C606 0.961 . S
H620 C606 0.952 1_655 S
H621 C607 0.958 . S
H622 C607 0.961 . S
H623 C607 0.960 . S
C624 C625 1.391 . S
C624 C626 1.394 . S
C624 H640 0.931 . S
C625 C624 1.391 . S
C625 C629 1.376 . S
C626 C624 1.394 . S
C626 C627 1.369 . S
C626 C630 1.531 . S
C627 C626 1.369 . S
C627 C628 1.410 . S
C627 C635 1.503 . S
C628 C627 1.410 . S
C628 C629 1.392 . S
C628 C631 1.511 . S
C629 C625 1.376 . S
C629 C628 1.392 . S
C629 H641 0.929 . S
C630 C626 1.531 . S
C630 H642 0.960 . S
C630 H643 0.962 . S
C630 H644 0.960 . S
C631 C628 1.511 . S
C631 H645 0.961 . S
C631 H646 0.961 . S
C631 H647 0.961 . S
C632 C633 1.370 . S
C632 C634 1.363 . S
C632 H648 0.931 . S
C633 C632 1.370 . S
C633 C637 1.408 . S
C634 C632 1.363 . S
C634 C635 1.370 . S
C634 C638 1.524 . S
C635 C627 1.503 . S
C635 C634 1.370 . S
C635 C636 1.403 . S
C636 C635 1.403 . S
C636 C637 1.404 . S
C636 C639 1.539 . S
C637 C633 1.408 . S
C637 C636 1.404 . S
C637 H649 0.930 . S
C638 C634 1.524 . S
C638 H650 0.956 . S
C638 H651 0.961 . S
C638 H652 0.961 . S
C639 C636 1.539 . S
C639 H653 0.958 . S
C639 H654 0.961 . S
C639 H655 0.960 . S
H640 C624 0.931 . S
H641 C629 0.929 . S
H642 C630 0.960 . S
H643 C630 0.962 . S
H644 C630 0.960 . S
H645 C631 0.961 . S
H646 C631 0.961 . S
H647 C631 0.961 . S
H648 C632 0.931 . S
H649 C637 0.930 . S
H650 C638 0.956 . S
H651 C638 0.961 . S
H652 C638 0.961 . S
H653 C639 0.958 . S
H654 C639 0.961 . S
H655 C639 0.960 . S
C656 C657 1.391 . S
C656 C658 1.394 . S
C656 H672 0.931 . S
C657 C656 1.391 . S
C657 C661 1.376 . S
C658 C656 1.394 . S
C658 C659 1.369 . S
C658 C662 1.531 . S
C659 C658 1.369 . S
C659 C660 1.410 . S
C659 C667 1.503 . S
C660 C659 1.410 . S
C660 C661 1.392 . S
C660 C663 1.511 . S
C661 C657 1.376 . S
C661 C660 1.392 . S
C661 H673 0.929 . S
C662 C658 1.531 . S
C662 H674 0.960 . S
C662 H675 0.962 . S
C662 H676 0.960 . S
C663 C660 1.511 . S
C663 H677 0.961 . S
C663 H678 0.961 . S
C663 H679 0.961 . S
C664 C665 1.370 . S
C664 C666 1.363 . S
C664 H680 0.931 . S
C665 C664 1.370 . S
C665 C669 1.408 . S
C666 C664 1.363 . S
C666 C667 1.370 . S
C666 C670 1.524 . S
C667 C659 1.503 . S
C667 C666 1.370 . S
C667 C668 1.403 . S
C668 C667 1.403 . S
C668 C669 1.404 . S
C668 C671 1.539 . S
C669 C665 1.408 . S
C669 C668 1.404 . S
C669 H681 0.930 . S
C670 C666 1.524 . S
C670 H682 0.956 . S
C670 H683 0.961 . S
C670 H684 0.961 . S
C671 C668 1.539 . S
C671 H685 0.958 . S
C671 H686 0.961 . S
C671 H687 0.960 . S
H672 C656 0.931 . S
H673 C661 0.929 . S
H674 C662 0.960 . S
H675 C662 0.962 . S
H676 C662 0.960 . S
H677 C663 0.961 . S
H678 C663 0.961 . S
H679 C663 0.961 . S
H680 C664 0.931 . S
H681 C669 0.930 . S
H682 C670 0.956 . S
H683 C670 0.961 . S
H684 C670 0.961 . S
H685 C671 0.958 . S
H686 C671 0.961 . S
H687 C671 0.960 . S
C688 C689 1.391 . S
C688 C690 1.394 . S
C688 H704 0.931 . S
C689 C688 1.391 . S
C689 C693 1.376 . S
C690 C688 1.394 . S
C690 C691 1.369 . S
C690 C694 1.531 . S
C691 C690 1.369 . S
C691 C692 1.410 . S
C691 C699 1.503 . S
C692 C691 1.410 . S
C692 C693 1.392 . S
C692 C695 1.511 1_655 S
C693 C689 1.376 . S
C693 C692 1.392 . S
C693 H705 0.929 1_655 S
C694 C690 1.531 . S
C694 H706 0.960 . S
C694 H707 0.962 . S
C694 H708 0.960 . S
C695 C692 1.511 1_455 S
C695 H709 0.961 . S
C695 H710 0.961 . S
C695 H711 0.961 1_455 S
C696 C697 1.370 . S
C696 C698 1.363 . S
C696 H712 0.931 1_655 S
C697 C696 1.370 . S
C697 C701 1.408 . S
C698 C696 1.363 . S
C698 C699 1.370 . S
C698 C702 1.524 1_655 S
C699 C691 1.503 . S
C699 C698 1.370 . S
C699 C700 1.403 . S
C700 C699 1.403 . S
C700 C701 1.404 . S
C700 C703 1.539 . S
C701 C697 1.408 . S
C701 C700 1.404 . S
C701 H713 0.930 . S
C702 C698 1.524 1_455 S
C702 H714 0.956 . S
C702 H715 0.961 . S
C702 H716 0.961 . S
C703 C700 1.539 . S
C703 H717 0.958 . S
C703 H718 0.961 . S
C703 H719 0.960 . S
H704 C688 0.931 . S
H705 C693 0.929 1_455 S
H706 C694 0.960 . S
H707 C694 0.962 . S
H708 C694 0.960 . S
H709 C695 0.961 . S
H710 C695 0.961 . S
H711 C695 0.961 1_655 S
H712 C696 0.931 1_455 S
H713 C701 0.930 . S
H714 C702 0.956 . S
H715 C702 0.961 . S
H716 C702 0.961 . S
H717 C703 0.958 . S
H718 C703 0.961 . S
H719 C703 0.960 . S
C720 C721 1.391 . S
C720 C722 1.394 . S
C720 H736 0.931 . S
C721 C720 1.391 . S
C721 C725 1.376 . S
C722 C720 1.394 . S
C722 C723 1.369 . S
C722 C726 1.531 . S
C723 C722 1.369 . S
C723 C724 1.410 . S
C723 C731 1.503 . S
C724 C723 1.410 . S
C724 C725 1.392 . S
C724 C727 1.511 . S
C725 C721 1.376 . S
C725 C724 1.392 . S
C725 H737 0.929 . S
C726 C722 1.531 . S
C726 H738 0.960 . S
C726 H739 0.962 . S
C726 H740 0.960 . S
C727 C724 1.511 . S
C727 H741 0.961 . S
C727 H742 0.961 . S
C727 H743 0.961 . S
C728 C729 1.370 . S
C728 C730 1.363 . S
C728 H744 0.931 1_565 S
C729 C728 1.370 . S
C729 C733 1.408 . S
C730 C728 1.363 . S
C730 C731 1.370 . S
C730 C734 1.524 . S
C731 C723 1.503 . S
C731 C730 1.370 . S
C731 C732 1.403 . S
C732 C731 1.403 . S
C732 C733 1.404 . S
C732 C735 1.539 . S
C733 C729 1.408 . S
C733 C732 1.404 . S
C733 H745 0.930 . S
C734 C730 1.524 . S
C734 H746 0.956 . S
C734 H747 0.961 . S
C734 H748 0.961 . S
C735 C732 1.539 . S
C735 H749 0.958 . S
C735 H750 0.961 . S
C735 H751 0.960 . S
H736 C720 0.931 . S
H737 C725 0.929 . S
H738 C726 0.960 . S
H739 C726 0.962 . S
H740 C726 0.960 . S
H741 C727 0.961 . S
H742 C727 0.961 . S
H743 C727 0.961 . S
H744 C728 0.931 1_545 S
H745 C733 0.930 . S
H746 C734 0.956 . S
H747 C734 0.961 . S
H748 C734 0.961 . S
H749 C735 0.958 . S
H750 C735 0.961 . S
H751 C735 0.960 . S
C752 C753 1.391 . S
C752 C754 1.394 1_455 S
C752 H768 0.931 . S
C753 C752 1.391 . S
C753 C757 1.376 . S
C754 C752 1.394 1_655 S
C754 C755 1.369 . S
C754 C758 1.531 . S
C755 C754 1.369 . S
C755 C756 1.410 1_655 S
C755 C763 1.503 . S
C756 C755 1.410 1_455 S
C756 C757 1.392 . S
C756 C759 1.511 . S
C757 C753 1.376 . S
C757 C756 1.392 . S
C757 H769 0.929 . S
C758 C754 1.531 . S
C758 H770 0.960 . S
C758 H771 0.962 . S
C758 H772 0.960 . S
C759 C756 1.511 . S
C759 H773 0.961 . S
C759 H774 0.961 1_455 S
C759 H775 0.961 1_455 S
C760 C761 1.370 . S
C760 C762 1.363 . S
C760 H776 0.931 . S
C761 C760 1.370 . S
C761 C765 1.408 . S
C762 C760 1.363 . S
C762 C763 1.370 . S
C762 C766 1.524 . S
C763 C755 1.503 . S
C763 C762 1.370 . S
C763 C764 1.403 . S
C764 C763 1.403 . S
C764 C765 1.404 . S
C764 C767 1.539 . S
C765 C761 1.408 . S
C765 C764 1.404 . S
C765 H777 0.930 . S
C766 C762 1.524 . S
C766 H778 0.956 . S
C766 H779 0.961 . S
C766 H780 0.961 . S
C767 C764 1.539 . S
C767 H781 0.958 . S
C767 H782 0.961 . S
C767 H783 0.960 . S
H768 C752 0.931 . S
H769 C757 0.929 . S
H770 C758 0.960 . S
H771 C758 0.962 . S
H772 C758 0.960 . S
H773 C759 0.961 . S
H774 C759 0.961 1_655 S
H775 C759 0.961 1_655 S
H776 C760 0.931 . S
H777 C765 0.930 . S
H778 C766 0.956 . S
H779 C766 0.961 . S
H780 C766 0.961 . S
H781 C767 0.958 . S
H782 C767 0.961 . S
H783 C767 0.960 . S
C784 C785 1.400 . S
C784 C786 1.394 . S
C784 H800 0.931 . S
C785 C784 1.400 . S
C785 C789 1.376 1_565 S
C786 C784 1.394 . S
C786 C787 1.369 . S
C786 C790 1.531 . S
C787 C786 1.369 . S
C787 C788 1.410 1_565 S
C787 C795 1.503 . S
C788 C787 1.410 1_545 S
C788 C789 1.392 . S
C788 C791 1.511 . S
C789 C785 1.376 1_545 S
C789 C788 1.392 . S
C789 H801 0.929 . S
C790 C786 1.531 . S
C790 H802 0.960 . S
C790 H803 0.962 . S
C790 H804 0.960 . S
C791 C788 1.511 . S
C791 H805 0.961 . S
C791 H806 0.961 . S
C791 H807 0.961 . S
C792 C793 1.370 . S
C792 C794 1.363 . S
C792 H808 0.931 . S
C793 C792 1.370 . S
C793 C797 1.408 . S
C794 C792 1.363 . S
C794 C795 1.370 . S
C794 C798 1.524 1_565 S
C795 C787 1.503 . S
C795 C794 1.370 . S
C795 C796 1.403 . S
C796 C795 1.403 . S
C796 C797 1.404 . S
C796 C799 1.539 . S
C797 C793 1.408 . S
C797 C796 1.404 . S
C797 H809 0.930 . S
C798 C794 1.524 1_545 S
C798 H810 0.956 1_545 S
C798 H811 0.961 . S
C798 H812 0.961 . S
C799 C796 1.539 . S
C799 H813 0.958 . S
C799 H814 0.961 . S
C799 H815 0.960 . S
H800 C784 0.931 . S
H801 C789 0.929 . S
H802 C790 0.960 . S
H803 C790 0.962 . S
H804 C790 0.960 . S
H805 C791 0.961 . S
H806 C791 0.961 . S
H807 C791 0.961 . S
H808 C792 0.931 . S
H809 C797 0.930 . S
H810 C798 0.956 1_565 S
H811 C798 0.961 . S
H812 C798 0.961 . S
H813 C799 0.958 . S
H814 C799 0.961 . S
H815 C799 0.960 . S
C241 C129 1.285 1_565 S
C249 C9 1.242 . S
C273 C169 1.933 . S
C281 C49 1.878 . S
C305 C209 1.054 . S
C313 C89 1.034 . S
C337 C10 4.361 . S
C345 C99 4.462 . S
C369 C50 4.491 . S
C377 C139 4.635 . S
C401 C90 4.755 . S
C409 C179 4.893 . S
C433 C130 4.372 . S
C441 C219 4.465 . S
C465 C170 4.466 1_455 S
C473 C19 4.634 1_565 S
C497 C210 4.752 . S
C505 C59 4.894 . S
C529 C18 1.193 . S
C537 C138 1.210 1_545 S
C561 C58 1.599 . S
C569 C178 1.608 . S
C593 C98 1.367 . S
C601 C218 1.345 . S
C625 C15 1.306 . S
C633 C46 1.189 . S
C657 C55 0.696 . S
C665 C86 0.767 . S
C689 C95 1.384 . S
C697 C126 1.468 . S
C721 C135 1.397 . S
C729 C166 1.157 . S
C753 C175 0.785 . S
C761 C206 0.750 . S
C785 C215 1.337 . S
C793 C6 1.498 . S
