# Generated by pormake.
# Topology son, (6)-cn, num edge types: 1
# Building blocks:
#     Node 0, Type 0, BuildingBlock: BETDIP_clean_sbu_0, # of connection points: 6
#     Node 1, Type 0, BuildingBlock: BETDIP_clean_sbu_0, # of connection points: 6
#     Node 2, Type 0, BuildingBlock: BETDIP_clean_sbu_0, # of connection points: 6
#     Node 3, Type 0, BuildingBlock: BETDIP_clean_sbu_0, # of connection points: 6
#     Node 4, Type 0, BuildingBlock: BETDIP_clean_sbu_0, # of connection points: 6
#     Node 5, Type 0, BuildingBlock: BETDIP_clean_sbu_0, # of connection points: 6
#     Node 6, Type 0, BuildingBlock: BETDIP_clean_sbu_0, # of connection points: 6
#     Node 7, Type 0, BuildingBlock: BETDIP_clean_sbu_0, # of connection points: 6
#     Node 8, Type 0, BuildingBlock: BETDIP_clean_sbu_0, # of connection points: 6
#     Node 9, Type 0, BuildingBlock: BETDIP_clean_sbu_0, # of connection points: 6
#     Node 10, Type 0, BuildingBlock: BETDIP_clean_sbu_0, # of connection points: 6
#     Node 11, Type 0, BuildingBlock: BETDIP_clean_sbu_0, # of connection points: 6
#     Node 12, Type 0, BuildingBlock: BETDIP_clean_sbu_0, # of connection points: 6
#     Node 13, Type 0, BuildingBlock: BETDIP_clean_sbu_0, # of connection points: 6
#     Node 14, Type 0, BuildingBlock: BETDIP_clean_sbu_0, # of connection points: 6
#     Node 15, Type 0, BuildingBlock: BETDIP_clean_sbu_0, # of connection points: 6
#     Node 16, Type 0, BuildingBlock: BETDIP_clean_sbu_0, # of connection points: 6
#     Node 17, Type 0, BuildingBlock: BETDIP_clean_sbu_0, # of connection points: 6
#     Node 18, Type 0, BuildingBlock: BETDIP_clean_sbu_0, # of connection points: 6
#     Node 19, Type 0, BuildingBlock: BETDIP_clean_sbu_0, # of connection points: 6
#     Node 20, Type 0, BuildingBlock: BETDIP_clean_sbu_0, # of connection points: 6
#     Node 21, Type 0, BuildingBlock: BETDIP_clean_sbu_0, # of connection points: 6
#     Node 22, Type 0, BuildingBlock: BETDIP_clean_sbu_0, # of connection points: 6
#     Node 23, Type 0, BuildingBlock: BETDIP_clean_sbu_0, # of connection points: 6
#     Node 24, Type 0, BuildingBlock: BETDIP_clean_sbu_0, # of connection points: 6
#     Node 25, Type 0, BuildingBlock: BETDIP_clean_sbu_0, # of connection points: 6
#     Node 26, Type 0, BuildingBlock: BETDIP_clean_sbu_0, # of connection points: 6
#     Node 27, Type 0, BuildingBlock: BETDIP_clean_sbu_0, # of connection points: 6
#     Node 28, Type 0, BuildingBlock: BETDIP_clean_sbu_0, # of connection points: 6
#     Node 29, Type 0, BuildingBlock: BETDIP_clean_sbu_0, # of connection points: 6
#     Node 30, Type 0, BuildingBlock: BETDIP_clean_sbu_0, # of connection points: 6
#     Node 31, Type 0, BuildingBlock: BETDIP_clean_sbu_0, # of connection points: 6
#     Edge 32, Type (0, 0), BuildingBlock: XIVTED_clean_linker_0, # of connection points: 2
#     Edge 33, Type (0, 0), BuildingBlock: XIVTED_clean_linker_0, # of connection points: 2
#     Edge 34, Type (0, 0), BuildingBlock: XIVTED_clean_linker_0, # of connection points: 2
#     Edge 35, Type (0, 0), BuildingBlock: XIVTED_clean_linker_0, # of connection points: 2
#     Edge 36, Type (0, 0), BuildingBlock: XIVTED_clean_linker_0, # of connection points: 2
#     Edge 37, Type (0, 0), BuildingBlock: XIVTED_clean_linker_0, # of connection points: 2
#     Edge 38, Type (0, 0), BuildingBlock: XIVTED_clean_linker_0, # of connection points: 2
#     Edge 39, Type (0, 0), BuildingBlock: XIVTED_clean_linker_0, # of connection points: 2
#     Edge 40, Type (0, 0), BuildingBlock: XIVTED_clean_linker_0, # of connection points: 2
#     Edge 41, Type (0, 0), BuildingBlock: XIVTED_clean_linker_0, # of connection points: 2
#     Edge 42, Type (0, 0), BuildingBlock: XIVTED_clean_linker_0, # of connection points: 2
#     Edge 43, Type (0, 0), BuildingBlock: XIVTED_clean_linker_0, # of connection points: 2
#     Edge 44, Type (0, 0), BuildingBlock: XIVTED_clean_linker_0, # of connection points: 2
#     Edge 45, Type (0, 0), BuildingBlock: XIVTED_clean_linker_0, # of connection points: 2
#     Edge 46, Type (0, 0), BuildingBlock: XIVTED_clean_linker_0, # of connection points: 2
#     Edge 47, Type (0, 0), BuildingBlock: XIVTED_clean_linker_0, # of connection points: 2
#     Edge 48, Type (0, 0), BuildingBlock: XIVTED_clean_linker_0, # of connection points: 2
#     Edge 49, Type (0, 0), BuildingBlock: XIVTED_clean_linker_0, # of connection points: 2
#     Edge 50, Type (0, 0), BuildingBlock: XIVTED_clean_linker_0, # of connection points: 2
#     Edge 51, Type (0, 0), BuildingBlock: XIVTED_clean_linker_0, # of connection points: 2
#     Edge 52, Type (0, 0), BuildingBlock: XIVTED_clean_linker_0, # of connection points: 2
#     Edge 53, Type (0, 0), BuildingBlock: XIVTED_clean_linker_0, # of connection points: 2
#     Edge 54, Type (0, 0), BuildingBlock: XIVTED_clean_linker_0, # of connection points: 2
#     Edge 55, Type (0, 0), BuildingBlock: XIVTED_clean_linker_0, # of connection points: 2
#     Edge 56, Type (0, 0), BuildingBlock: XIVTED_clean_linker_0, # of connection points: 2
#     Edge 57, Type (0, 0), BuildingBlock: XIVTED_clean_linker_0, # of connection points: 2
#     Edge 58, Type (0, 0), BuildingBlock: XIVTED_clean_linker_0, # of connection points: 2
#     Edge 59, Type (0, 0), BuildingBlock: XIVTED_clean_linker_0, # of connection points: 2
#     Edge 60, Type (0, 0), BuildingBlock: XIVTED_clean_linker_0, # of connection points: 2
#     Edge 61, Type (0, 0), BuildingBlock: XIVTED_clean_linker_0, # of connection points: 2
#     Edge 62, Type (0, 0), BuildingBlock: XIVTED_clean_linker_0, # of connection points: 2
#     Edge 63, Type (0, 0), BuildingBlock: XIVTED_clean_linker_0, # of connection points: 2
#     Edge 64, Type (0, 0), BuildingBlock: XIVTED_clean_linker_0, # of connection points: 2
#     Edge 65, Type (0, 0), BuildingBlock: XIVTED_clean_linker_0, # of connection points: 2
#     Edge 66, Type (0, 0), BuildingBlock: XIVTED_clean_linker_0, # of connection points: 2
#     Edge 67, Type (0, 0), BuildingBlock: XIVTED_clean_linker_0, # of connection points: 2
#     Edge 68, Type (0, 0), BuildingBlock: XIVTED_clean_linker_0, # of connection points: 2
#     Edge 69, Type (0, 0), BuildingBlock: XIVTED_clean_linker_0, # of connection points: 2
#     Edge 70, Type (0, 0), BuildingBlock: XIVTED_clean_linker_0, # of connection points: 2
#     Edge 71, Type (0, 0), BuildingBlock: XIVTED_clean_linker_0, # of connection points: 2
#     Edge 72, Type (0, 0), BuildingBlock: XIVTED_clean_linker_0, # of connection points: 2
#     Edge 73, Type (0, 0), BuildingBlock: XIVTED_clean_linker_0, # of connection points: 2
#     Edge 74, Type (0, 0), BuildingBlock: XIVTED_clean_linker_0, # of connection points: 2
#     Edge 75, Type (0, 0), BuildingBlock: XIVTED_clean_linker_0, # of connection points: 2
#     Edge 76, Type (0, 0), BuildingBlock: XIVTED_clean_linker_0, # of connection points: 2
#     Edge 77, Type (0, 0), BuildingBlock: XIVTED_clean_linker_0, # of connection points: 2
#     Edge 78, Type (0, 0), BuildingBlock: XIVTED_clean_linker_0, # of connection points: 2
#     Edge 79, Type (0, 0), BuildingBlock: XIVTED_clean_linker_0, # of connection points: 2
#     Edge 80, Type (0, 0), BuildingBlock: XIVTED_clean_linker_0, # of connection points: 2
#     Edge 81, Type (0, 0), BuildingBlock: XIVTED_clean_linker_0, # of connection points: 2
#     Edge 82, Type (0, 0), BuildingBlock: XIVTED_clean_linker_0, # of connection points: 2
#     Edge 83, Type (0, 0), BuildingBlock: XIVTED_clean_linker_0, # of connection points: 2
#     Edge 84, Type (0, 0), BuildingBlock: XIVTED_clean_linker_0, # of connection points: 2
#     Edge 85, Type (0, 0), BuildingBlock: XIVTED_clean_linker_0, # of connection points: 2
#     Edge 86, Type (0, 0), BuildingBlock: XIVTED_clean_linker_0, # of connection points: 2
#     Edge 87, Type (0, 0), BuildingBlock: XIVTED_clean_linker_0, # of connection points: 2
#     Edge 88, Type (0, 0), BuildingBlock: XIVTED_clean_linker_0, # of connection points: 2
#     Edge 89, Type (0, 0), BuildingBlock: XIVTED_clean_linker_0, # of connection points: 2
#     Edge 90, Type (0, 0), BuildingBlock: XIVTED_clean_linker_0, # of connection points: 2
#     Edge 91, Type (0, 0), BuildingBlock: XIVTED_clean_linker_0, # of connection points: 2
#     Edge 92, Type (0, 0), BuildingBlock: XIVTED_clean_linker_0, # of connection points: 2
#     Edge 93, Type (0, 0), BuildingBlock: XIVTED_clean_linker_0, # of connection points: 2
#     Edge 94, Type (0, 0), BuildingBlock: XIVTED_clean_linker_0, # of connection points: 2
#     Edge 95, Type (0, 0), BuildingBlock: XIVTED_clean_linker_0, # of connection points: 2
#     Edge 96, Type (0, 0), BuildingBlock: XIVTED_clean_linker_0, # of connection points: 2
#     Edge 97, Type (0, 0), BuildingBlock: XIVTED_clean_linker_0, # of connection points: 2
#     Edge 98, Type (0, 0), BuildingBlock: XIVTED_clean_linker_0, # of connection points: 2
#     Edge 99, Type (0, 0), BuildingBlock: XIVTED_clean_linker_0, # of connection points: 2
#     Edge 100, Type (0, 0), BuildingBlock: XIVTED_clean_linker_0, # of connection points: 2
#     Edge 101, Type (0, 0), BuildingBlock: XIVTED_clean_linker_0, # of connection points: 2
#     Edge 102, Type (0, 0), BuildingBlock: XIVTED_clean_linker_0, # of connection points: 2
#     Edge 103, Type (0, 0), BuildingBlock: XIVTED_clean_linker_0, # of connection points: 2
#     Edge 104, Type (0, 0), BuildingBlock: XIVTED_clean_linker_0, # of connection points: 2
#     Edge 105, Type (0, 0), BuildingBlock: XIVTED_clean_linker_0, # of connection points: 2
#     Edge 106, Type (0, 0), BuildingBlock: XIVTED_clean_linker_0, # of connection points: 2
#     Edge 107, Type (0, 0), BuildingBlock: XIVTED_clean_linker_0, # of connection points: 2
#     Edge 108, Type (0, 0), BuildingBlock: XIVTED_clean_linker_0, # of connection points: 2
#     Edge 109, Type (0, 0), BuildingBlock: XIVTED_clean_linker_0, # of connection points: 2
#     Edge 110, Type (0, 0), BuildingBlock: XIVTED_clean_linker_0, # of connection points: 2
#     Edge 111, Type (0, 0), BuildingBlock: XIVTED_clean_linker_0, # of connection points: 2
#     Edge 112, Type (0, 0), BuildingBlock: XIVTED_clean_linker_0, # of connection points: 2
#     Edge 113, Type (0, 0), BuildingBlock: XIVTED_clean_linker_0, # of connection points: 2
#     Edge 114, Type (0, 0), BuildingBlock: XIVTED_clean_linker_0, # of connection points: 2
#     Edge 115, Type (0, 0), BuildingBlock: XIVTED_clean_linker_0, # of connection points: 2
#     Edge 116, Type (0, 0), BuildingBlock: XIVTED_clean_linker_0, # of connection points: 2
#     Edge 117, Type (0, 0), BuildingBlock: XIVTED_clean_linker_0, # of connection points: 2
#     Edge 118, Type (0, 0), BuildingBlock: XIVTED_clean_linker_0, # of connection points: 2
#     Edge 119, Type (0, 0), BuildingBlock: XIVTED_clean_linker_0, # of connection points: 2
#     Edge 120, Type (0, 0), BuildingBlock: XIVTED_clean_linker_0, # of connection points: 2
#     Edge 121, Type (0, 0), BuildingBlock: XIVTED_clean_linker_0, # of connection points: 2
#     Edge 122, Type (0, 0), BuildingBlock: XIVTED_clean_linker_0, # of connection points: 2
#     Edge 123, Type (0, 0), BuildingBlock: XIVTED_clean_linker_0, # of connection points: 2
#     Edge 124, Type (0, 0), BuildingBlock: XIVTED_clean_linker_0, # of connection points: 2
#     Edge 125, Type (0, 0), BuildingBlock: XIVTED_clean_linker_0, # of connection points: 2
#     Edge 126, Type (0, 0), BuildingBlock: XIVTED_clean_linker_0, # of connection points: 2
#     Edge 127, Type (0, 0), BuildingBlock: XIVTED_clean_linker_0, # of connection points: 2
# Relax obj value: 0.152
# Max RMSD: 0.183
# Mean RMSD: 0.181
data_MOF--net-son--node1-BETDIP_clean_sbu_0--edge1-XIVTED_clean_linker_0
_symmetry_space_group_name_H-M    P1
_symmetry_Int_Tables_number       1
_symmetry_cell_setting            triclinic
loop_
_symmetry_equiv_pos_as_xyz
'x, y, z'
_cell_length_a     94.420724
_cell_length_b     51.579891
_cell_length_c     25.102386
_cell_angle_alpha  89.967885
_cell_angle_beta   89.91742
_cell_angle_gamma 90.039269
loop_
_atom_site_label
_atom_site_type_symbol
_atom_site_fract_x
_atom_site_fract_y
_atom_site_fract_z
_atom_type_partial_charge
Tb0 Tb 0.31193 0.27338 0.18053 0.0
Tb1 Tb 0.29235 0.26411 0.27261 0.0
C2 C 0.32397 0.27529 0.09063 0.0
C3 C 0.31991 0.27508 0.03371 0.0
C4 C 0.30699 0.26456 0.01636 0.0
C5 C 0.30349 0.26459 0.96202 0.0
C6 C 0.31285 0.27514 0.92387 0.0
C7 C 0.32576 0.28569 0.94174 0.0
C8 C 0.32922 0.28567 0.99596 0.0
C9 C 0.30961 0.31231 0.24892 0.0
C10 C 0.2786 0.27583 0.16311 0.0
C11 C 0.28034 0.26529 0.36258 0.0
C12 C 0.28407 0.26729 0.4196 0.0
C13 C 0.29699 0.27792 0.43669 0.0
C14 C 0.30027 0.27895 0.49124 0.0
C15 C 0.2907 0.26932 0.52969 0.0
C16 C 0.27773 0.25893 0.51204 0.0
C17 C 0.27449 0.25792 0.45771 0.0
C18 C 0.29471 0.22386 0.20804 0.0
C19 C 0.326 0.25657 0.28446 0.0
O20 O 0.32194 0.25385 0.1175 0.0
O21 O 0.32029 0.29579 0.11794 0.0
O22 O 0.2997 0.29784 0.23279 0.0
O23 O 0.32119 0.30593 0.22449 0.0
O24 O 0.29138 0.27315 0.14298 0.0
O25 O 0.27617 0.27544 0.21507 0.0
O26 O 0.28244 0.28581 0.33285 0.0
O27 O 0.28415 0.24394 0.3385 0.0
O28 O 0.30461 0.23918 0.22124 0.0
O29 O 0.28337 0.23019 0.23413 0.0
O30 O 0.31372 0.26187 0.30781 0.0
O31 O 0.32743 0.25646 0.23227 0.0
H32 H 0.29962 0.25628 0.04473 0.0
H33 H 0.29338 0.25659 0.95 0.0
H34 H 0.33335 0.2936 0.91371 0.0
H35 H 0.33926 0.29383 1.00843 0.0
H36 H 0.30457 0.28525 0.40793 0.0
H37 H 0.3104 0.28688 0.50319 0.0
H38 H 0.26998 0.25175 0.54027 0.0
H39 H 0.26444 0.24973 0.4454 0.0
Tb40 Tb 0.92856 0.99471 0.17923 0.0
Tb41 Tb 0.94825 1.00371 0.27922 0.0
C42 C 0.91737 0.99423 0.08837 0.0
C43 C 0.92176 0.99908 0.03285 0.0
C44 C 0.93534 1.00842 0.02039 0.0
C45 C 0.93949 1.01157 0.96713 0.0
C46 C 0.93006 1.00575 0.92542 0.0
C47 C 0.91639 0.9968 0.93831 0.0
C48 C 0.91232 0.99342 0.99147 0.0
C49 C 0.93091 0.95592 0.2478 0.0
C50 C 0.96223 0.99673 0.16633 0.0
C51 C 0.96024 0.99417 0.36653 0.0
C52 C 0.95767 1.00036 0.42324 0.0
C53 C 0.94383 1.00162 0.44369 0.0
C54 C 0.94151 1.00532 0.49819 0.0
C55 C 0.95297 1.00799 0.53364 0.0
C56 C 0.96683 1.00735 0.51272 0.0
C57 C 0.96914 1.00353 0.45809 0.0
C58 C 0.94182 0.04826 0.23114 0.0
C59 C 0.91468 0.01332 0.28456 0.0
O60 O 0.91704 0.01437 0.12029 0.0
O61 O 0.92292 0.97372 0.11107 0.0
O62 O 0.94069 0.97134 0.23379 0.0
O63 O 0.91957 0.96128 0.22084 0.0
O64 O 0.94947 0.99687 0.14506 0.0
O65 O 0.9646 0.99741 0.21851 0.0
O66 O 0.95087 0.97894 0.34418 0.0
O67 O 0.96403 0.01334 0.33524 0.0
O68 O 0.93861 0.02541 0.21861 0.0
O69 O 0.94905 0.0466 0.27503 0.0
O70 O 0.92661 1.00785 0.31053 0.0
O71 O 0.91357 1.01267 0.23205 0.0
H72 H 0.94276 0.01318 0.05165 0.0
H73 H 0.95004 0.01874 0.95863 0.0
H74 H 0.90892 0.99182 0.90724 0.0
H75 H 0.90181 0.9861 1.00025 0.0
H76 H 0.93479 0.99907 0.41775 0.0
H77 H 0.9307 1.00529 0.51266 0.0
H78 H 0.97591 1.00971 0.53853 0.0
H79 H 0.9799 1.00262 0.44319 0.0
Tb80 Tb 0.30684 0.99209 0.09668 0.0
Tb81 Tb 0.28966 1.00443 0.99927 0.0
C82 C 0.31729 0.99072 0.18903 0.0
C83 C 0.31265 0.99428 0.2448 0.0
C84 C 0.29878 1.00195 0.25775 0.0
C85 C 0.29467 1.00472 0.31126 0.0
C86 C 0.3044 1.00012 0.35279 0.0
C87 C 0.31827 0.99249 0.33928 0.0
C88 C 0.32231 0.98959 0.28597 0.0
C89 C 0.30593 0.95469 0.02464 0.0
C90 C 0.27371 0.994 0.10828 0.0
C91 C 0.27482 1.00166 0.91587 0.0
C92 C 0.27759 1.00467 0.85815 0.0
C93 C 0.29141 1.00276 0.83781 0.0
C94 C 0.29389 1.00419 0.78285 0.0
C95 C 0.28261 1.00762 0.7468 0.0
C96 C 0.26878 1.00984 0.76757 0.0
C97 C 0.26632 1.00836 0.82264 0.0
C98 C 0.29983 0.04545 0.0492 0.0
C99 C 0.32277 1.00792 0.99377 0.0
O100 O 0.31737 1.01142 0.15868 0.0
O101 O 0.3123 0.97035 0.16426 0.0
O102 O 0.29584 0.96944 0.03801 0.0
O103 O 0.31686 0.95994 0.05393 0.0
O104 O 0.28586 0.98616 0.12804 0.0
O105 O 0.27258 1.00319 0.05905 0.0
O106 O 0.2809 0.98174 0.93855 0.0
O107 O 0.27577 0.02256 0.94517 0.0
O108 O 0.29491 0.02512 0.07063 0.0
O109 O 0.29868 0.04345 0.99779 0.0
O110 O 0.3111 1.00215 0.96701 0.0
O111 O 0.32295 1.00916 0.04631 0.0
H112 H 0.29116 1.00584 0.22658 0.0
H113 H 0.28395 1.01082 0.32006 0.0
H114 H 0.32598 0.98836 0.37 0.0
H115 H 0.33304 0.98354 0.27688 0.0
H116 H 0.30028 0.99972 0.86438 0.0
H117 H 0.30465 1.00198 0.7686 0.0
H118 H 0.25984 0.01285 0.74133 0.0
H119 H 0.25556 1.00987 0.83746 0.0
Tb120 Tb 0.92802 0.2739 0.10018 0.0
Tb121 Tb 0.94804 0.26483 1.0011 0.0
C122 C 0.91632 0.27465 0.19024 0.0
C123 C 0.92041 0.27106 0.24638 0.0
C124 C 0.93399 0.26248 0.26071 0.0
C125 C 0.93791 0.26106 0.31448 0.0
C126 C 0.92828 0.26805 0.35493 0.0
C127 C 0.91455 0.27589 0.34008 0.0
C128 C 0.9107 0.27748 0.28643 0.0
C129 C 0.93077 0.31268 0.03179 0.0
C130 C 0.96167 0.27192 0.11444 0.0
C131 C 0.96038 0.2745 0.91433 0.0
C132 C 0.95725 0.27027 0.85734 0.0
C133 C 0.94325 0.271 0.8386 0.0
C134 C 0.94042 0.26939 0.78408 0.0
C135 C 0.95152 0.26697 0.74697 0.0
C136 C 0.96552 0.26535 0.76596 0.0
C137 C 0.96835 0.26707 0.82068 0.0
C138 C 0.94155 0.22031 0.04919 0.0
C139 C 0.91448 0.25551 0.99437 0.0
O140 O 0.9167 0.25406 0.15958 0.0
O141 O 0.92153 0.29527 0.16676 0.0
O142 O 0.94043 0.2972 0.04639 0.0
O143 O 0.91924 0.30728 0.05774 0.0
O144 O 0.94883 0.27218 0.13526 0.0
O145 O 0.96421 0.27081 0.06237 0.0
O146 O 0.95197 0.29071 0.93891 0.0
O147 O 0.96315 0.25396 0.94326 0.0
O148 O 0.93813 0.24311 0.06133 0.0
O149 O 0.94903 0.222 1.00585 0.0
O150 O 0.92648 0.2612 0.96889 0.0
O151 O 0.91325 0.25582 0.04685 0.0
H152 H 0.94162 0.25721 0.23043 0.0
H153 H 0.9486 0.25511 0.32421 0.0
H154 H 0.90672 0.28085 0.36995 0.0
H155 H 0.90014 0.28403 0.27619 0.0
H156 H 0.9345 0.27345 0.86601 0.0
H157 H 0.92951 0.27028 0.77093 0.0
H158 H 0.97431 0.26365 0.73845 0.0
H159 H 0.97923 0.26655 0.83426 0.0
Tb160 Tb 0.6984 0.75983 0.75288 0.0
Tb161 Tb 0.67863 0.75209 0.84484 0.0
C162 C 0.71043 0.7579 0.66299 0.0
C163 C 0.70664 0.75536 0.60608 0.0
C164 C 0.69377 0.74428 0.58965 0.0
C165 C 0.69041 0.74277 0.53523 0.0
C166 C 0.69985 0.75226 0.49618 0.0
C167 C 0.71273 0.76323 0.51319 0.0
C168 C 0.71606 0.76476 0.56742 0.0
C169 C 0.69633 0.80056 0.81596 0.0
C170 C 0.66483 0.76793 0.74002 0.0
C171 C 0.6666 0.75199 0.93478 0.0
C172 C 0.67073 0.75165 0.99166 0.0
C173 C 0.68377 0.76167 1.00912 0.0
C174 C 0.68729 0.76134 0.06345 0.0
C175 C 0.67783 0.75106 0.10153 0.0
C176 C 0.66485 0.74084 0.08352 0.0
C177 C 0.66137 0.74114 0.02931 0.0
C178 C 0.68075 0.71237 0.77815 0.0
C179 C 0.71194 0.74841 0.86306 0.0
O180 O 0.70839 0.73765 0.69356 0.0
O181 O 0.70659 0.77945 0.68627 0.0
O182 O 0.68625 0.78567 0.80277 0.0
O183 O 0.70771 0.79348 0.79106 0.0
O184 O 0.67706 0.76182 0.71719 0.0
O185 O 0.66342 0.76907 0.79215 0.0
O186 O 0.66951 0.77306 0.90776 0.0
O187 O 0.6693 0.73099 0.90745 0.0
O188 O 0.69073 0.72674 0.79402 0.0
O189 O 0.66918 0.71927 0.80213 0.0
O190 O 0.69913 0.75126 0.88283 0.0
O191 O 0.71447 0.74865 0.81113 0.0
H192 H 0.68634 0.73684 0.61881 0.0
H193 H 0.68046 0.73394 0.52378 0.0
H194 H 0.72018 0.77114 0.48463 0.0
H195 H 0.72601 0.77351 0.57923 0.0
H196 H 0.69119 0.76994 0.98089 0.0
H197 H 0.69732 0.76959 0.07567 0.0
H198 H 0.65739 0.73233 0.11128 0.0
H199 H 0.65129 0.73317 0.01674 0.0
Tb200 Tb 0.04242 0.02088 0.76074 0.0
Tb201 Tb 0.06196 0.02999 0.8523 0.0
C202 C 0.03045 0.02177 0.67081 0.0
C203 C 0.03414 0.02374 0.61372 0.0
C204 C 0.04731 0.0333 0.59646 0.0
C205 C 0.05052 0.03441 0.54183 0.0
C206 C 0.04065 0.02592 0.50347 0.0
C207 C 0.02744 0.01659 0.5213 0.0
C208 C 0.02426 0.0155 0.57572 0.0
C209 C 0.04403 0.9812 0.82693 0.0
C210 C 0.07597 1.01151 0.74963 0.0
C211 C 0.07392 0.0316 0.94221 0.0
C212 C 0.06979 0.0319 0.99909 0.0
C213 C 0.05654 0.02274 0.01636 0.0
C214 C 0.05301 0.02295 0.07072 0.0
C215 C 0.06268 0.03229 0.10897 0.0
C216 C 0.07591 0.04154 0.09117 0.0
C217 C 0.07939 0.04136 0.03693 0.0
C218 C 0.06026 0.06846 0.78219 0.0
C219 C 0.02868 0.03421 0.86977 0.0
O220 O 0.03252 0.04237 0.70025 0.0
O221 O 0.03432 1.0005 0.69506 0.0
O222 O 0.05425 0.99565 0.81296 0.0
O223 O 0.03276 0.98818 0.80127 0.0
O224 O 0.06383 0.01728 0.72577 0.0
O225 O 0.07726 1.01179 0.80179 0.0
O226 O 0.07149 1.01016 0.91586 0.0
O227 O 0.0707 0.0522 0.91435 0.0
O228 O 0.05017 0.05463 0.79911 0.0
O229 O 0.07173 0.06175 0.80692 0.0
O230 O 0.04142 0.03144 0.89002 0.0
O231 O 0.02627 0.03316 0.81785 0.0
H232 H 0.05511 0.03977 0.62515 0.0
H233 H 0.06084 0.0415 0.52974 0.0
H234 H 0.01947 1.01032 0.49316 0.0
H235 H 0.01402 1.00815 0.58817 0.0
H236 H 0.04893 0.01532 0.98796 0.0
H237 H 0.04267 0.01598 0.08267 0.0
H238 H 0.08372 0.04851 0.11927 0.0
H239 H 0.08969 0.04844 0.02453 0.0
Tb240 Tb 0.69816 0.02373 0.01834 0.0
Tb241 Tb 0.67856 0.03274 0.92668 0.0
C242 C 0.71012 0.02489 0.10826 0.0
C243 C 0.70639 0.02689 0.16532 0.0
C244 C 0.69325 0.03657 0.18247 0.0
C245 C 0.69 0.03762 0.23707 0.0
C246 C 0.69981 0.02896 0.27551 0.0
C247 C 0.71299 0.01953 0.25779 0.0
C248 C 0.71621 0.0185 0.20341 0.0
C249 C 0.69651 0.98408 0.95227 0.0
C250 C 0.66464 0.0141 0.0297 0.0
C251 C 0.66656 0.0344 0.83686 0.0
C252 C 0.67064 0.0345 0.77993 0.0
C253 C 0.68383 0.0251 0.76259 0.0
C254 C 0.68734 0.02527 0.70822 0.0
C255 C 0.67772 0.03482 0.67001 0.0
C256 C 0.66455 0.04427 0.68787 0.0
C257 C 0.66108 0.04413 0.74213 0.0
C258 C 0.68014 0.07111 0.99685 0.0
C259 C 0.71188 0.03646 0.90898 0.0
O260 O 0.70803 0.04542 0.0786 0.0
O261 O 0.70629 1.00354 0.0842 0.0
O262 O 0.68631 0.99854 0.96617 0.0
O263 O 0.70777 0.99091 0.97819 0.0
O264 O 0.67681 0.01982 0.0534 0.0
O265 O 0.66328 0.01453 0.97754 0.0
O266 O 0.66884 0.01296 0.86344 0.0
O267 O 0.66995 0.05498 0.86442 0.0
O268 O 0.6903 0.05742 0.98 0.0
O269 O 0.66872 0.06432 0.97192 0.0
O270 O 0.6991 0.03394 0.8889 0.0
O271 O 0.71432 0.03558 0.96089 0.0
H272 H 0.6855 0.04313 0.15372 0.0
H273 H 0.6797 0.04479 0.24908 0.0
H274 H 0.72092 0.01313 0.286 0.0
H275 H 0.72643 1.01106 0.19105 0.0
H276 H 0.6914 0.01755 0.79098 0.0
H277 H 0.69764 0.01813 0.69621 0.0
H278 H 0.65677 0.0514 0.65981 0.0
H279 H 0.65083 0.05141 0.75458 0.0
Tb280 Tb 0.04268 0.75607 0.02007 0.0
Tb281 Tb 0.06227 0.74723 0.92835 0.0
C282 C 0.0308 0.75479 0.11029 0.0
C283 C 0.03468 0.75244 0.16712 0.0
C284 C 0.04773 0.74205 0.18334 0.0
C285 C 0.05111 0.74043 0.23772 0.0
C286 C 0.0415 0.74913 0.27693 0.0
C287 C 0.02845 0.75951 0.26011 0.0
C288 C 0.02511 0.76113 0.20592 0.0
C289 C 0.04434 0.79598 0.95436 0.0
C290 C 0.07617 0.76587 0.03097 0.0
C291 C 0.07427 0.74568 0.83842 0.0
C292 C 0.07018 0.74553 0.78154 0.0
C293 C 0.05706 0.75522 0.76423 0.0
C294 C 0.05359 0.75517 0.70986 0.0
C295 C 0.0632 0.74553 0.67162 0.0
C296 C 0.07626 0.73565 0.68948 0.0
C297 C 0.07969 0.73565 0.74373 0.0
C298 C 0.06071 0.70874 0.99847 0.0
C299 C 0.02899 0.74304 0.91097 0.0
O300 O 0.03272 0.73435 0.08023 0.0
O301 O 0.03468 0.77617 0.08636 0.0
O302 O 0.05452 0.78142 0.96802 0.0
O303 O 0.03306 0.78896 0.98011 0.0
O304 O 0.06406 0.75985 0.05488 0.0
O305 O 0.07748 0.76564 0.9788 0.0
O306 O 0.07192 0.76709 0.86496 0.0
O307 O 0.07095 0.72506 0.86609 0.0
O308 O 0.05056 0.72241 0.98167 0.0
O309 O 0.07215 0.71564 0.97357 0.0
O310 O 0.04175 0.74591 0.89074 0.0
O311 O 0.02655 0.74392 0.96291 0.0
H312 H 0.05528 0.73518 0.15404 0.0
H313 H 0.06118 0.73209 0.24903 0.0
H314 H 0.02088 0.76682 0.28881 0.0
H315 H 0.01502 0.76934 0.19425 0.0
H316 H 0.04955 0.76303 0.79261 0.0
H317 H 0.04349 0.76315 0.69775 0.0
H318 H 0.08383 0.72764 0.66155 0.0
H319 H 0.08983 0.72797 0.7562 0.0
Tb320 Tb 0.31294 0.7753 0.67545 0.0
Tb321 Tb 0.29346 0.76524 0.76762 0.0
C322 C 0.32496 0.77768 0.5856 0.0
C323 C 0.32093 0.77705 0.52868 0.0
C324 C 0.30815 0.76592 0.51146 0.0
C325 C 0.30468 0.76555 0.45709 0.0
C326 C 0.31396 0.77621 0.4188 0.0
C327 C 0.3267 0.78746 0.43656 0.0
C328 C 0.33012 0.78787 0.49081 0.0
C329 C 0.31016 0.81411 0.74383 0.0
C330 C 0.27958 0.77616 0.65797 0.0
C331 C 0.2815 0.76601 0.85768 0.0
C332 C 0.28531 0.76864 0.91451 0.0
C333 C 0.29806 0.78021 0.93078 0.0
C334 C 0.30144 0.78192 0.98515 0.0
C335 C 0.29211 0.77215 0.0243 0.0
C336 C 0.27935 0.76063 1.00744 0.0
C337 C 0.27602 0.75891 0.95325 0.0
C338 C 0.29644 0.72502 0.70333 0.0
C339 C 0.3272 0.75934 0.77954 0.0
O340 O 0.32331 0.75621 0.61273 0.0
O341 O 0.3209 0.79803 0.61261 0.0
O342 O 0.30042 0.79924 0.72779 0.0
O343 O 0.3218 0.80825 0.71923 0.0
O344 O 0.2924 0.77407 0.63789 0.0
O345 O 0.27713 0.77566 0.70992 0.0
O346 O 0.28309 0.7865 0.8274 0.0
O347 O 0.28574 0.74483 0.83402 0.0
O348 O 0.30608 0.74088 0.71642 0.0
O349 O 0.285 0.73077 0.72942 0.0
O350 O 0.31485 0.76411 0.80283 0.0
O351 O 0.32864 0.75919 0.72735 0.0
H352 H 0.30089 0.75737 0.53992 0.0
H353 H 0.29484 0.75652 0.44504 0.0
H354 H 0.334 0.79627 0.40858 0.0
H355 H 0.34 0.79668 0.50322 0.0
H356 H 0.3054 0.7879 0.90152 0.0
H357 H 0.31128 0.79116 0.9965 0.0
H358 H 0.27201 0.75248 0.03609 0.0
H359 H 0.26616 0.74978 0.94155 0.0
Tb360 Tb 0.93067 0.49387 0.68419 0.0
Tb361 Tb 0.9479 0.50642 0.78103 0.0
C362 C 0.9199 0.49189 0.59237 0.0
C363 C 0.92417 0.49497 0.53606 0.0
C364 C 0.93808 0.50149 0.52135 0.0
C365 C 0.94192 0.503 0.46732 0.0
C366 C 0.93188 0.49809 0.42697 0.0
C367 C 0.91788 0.49217 0.44231 0.0
C368 C 0.91411 0.49055 0.49613 0.0
C369 C 0.9318 0.45641 0.75638 0.0
C370 C 0.96382 0.49653 0.67172 0.0
C371 C 0.96278 0.5038 0.86439 0.0
C372 C 0.95988 0.50616 0.92212 0.0
C373 C 0.94598 0.50449 0.94175 0.0
C374 C 0.94336 0.50481 0.99669 0.0
C375 C 0.95459 0.50683 0.03336 0.0
C376 C 0.9685 0.50912 1.01338 0.0
C377 C 0.9711 0.50872 0.95832 0.0
C378 C 0.93764 0.54743 0.73106 0.0
C379 C 0.91479 0.50952 0.78717 0.0
O380 O 0.91994 0.5128 0.62205 0.0
O381 O 0.92508 0.47174 0.6174 0.0
O382 O 0.94183 0.47127 0.74269 0.0
O383 O 0.92081 0.46163 0.72741 0.0
O384 O 0.95165 0.48872 0.65194 0.0
O385 O 0.96497 0.50541 0.72117 0.0
O386 O 0.95702 0.48375 0.84104 0.0
O387 O 0.96151 0.52487 0.83572 0.0
O388 O 0.94255 0.52711 0.70967 0.0
O389 O 0.9388 0.54537 0.78245 0.0
O390 O 0.9265 0.50378 0.81364 0.0
O391 O 0.91455 0.51086 0.73465 0.0
H392 H 0.946 0.50516 0.55155 0.0
H393 H 0.95281 0.50745 0.45726 0.0
H394 H 0.90976 0.48885 0.41269 0.0
H395 H 0.9033 0.48565 0.50659 0.0
H396 H 0.93715 0.5025 0.91461 0.0
H397 H 0.93251 0.50344 1.01042 0.0
H398 H 0.97742 0.51046 0.0403 0.0
H399 H 0.98192 0.5099 0.94406 0.0
Tb400 Tb 0.30965 0.49188 0.59911 0.0
Tb401 Tb 0.29247 0.5043 0.50196 0.0
C402 C 0.32041 0.48975 0.69089 0.0
C403 C 0.31612 0.49275 0.74715 0.0
C404 C 0.30236 0.50034 0.7617 0.0
C405 C 0.29847 0.50179 0.81568 0.0
C406 C 0.30831 0.49573 0.85609 0.0
C407 C 0.32215 0.48871 0.84091 0.0
C408 C 0.32597 0.48716 0.78716 0.0
C409 C 0.3086 0.45447 0.52694 0.0
C410 C 0.27648 0.49472 0.61136 0.0
C411 C 0.27764 0.50142 0.41857 0.0
C412 C 0.28056 0.50372 0.36085 0.0
C413 C 0.29439 0.50105 0.34105 0.0
C414 C 0.29698 0.50137 0.2861 0.0
C415 C 0.28578 0.50442 0.2496 0.0
C416 C 0.27196 0.50774 0.26974 0.0
C417 C 0.26939 0.50732 0.32481 0.0
C418 C 0.30262 0.54536 0.55189 0.0
C419 C 0.32557 0.50794 0.49637 0.0
O420 O 0.3204 0.51071 0.66129 0.0
O421 O 0.31521 0.46964 0.6658 0.0
O422 O 0.29855 0.46924 0.54061 0.0
O423 O 0.31958 0.45977 0.55584 0.0
O424 O 0.28864 0.48703 0.63143 0.0
O425 O 0.27536 0.50333 0.56167 0.0
O426 O 0.28342 0.48144 0.44214 0.0
O427 O 0.27884 0.52254 0.44705 0.0
O428 O 0.29775 0.52498 0.57328 0.0
O429 O 0.30144 0.54336 0.5005 0.0
O430 O 0.31392 0.502 0.46963 0.0
O431 O 0.32573 0.5092 0.5489 0.0
H432 H 0.2946 0.5049 0.73142 0.0
H433 H 0.2877 0.50711 0.82564 0.0
H434 H 0.33012 0.48447 0.87063 0.0
H435 H 0.33666 0.48142 0.7768 0.0
H436 H 0.30319 0.49827 0.36807 0.0
H437 H 0.30777 0.49919 0.27222 0.0
H438 H 0.26306 0.5099 0.24292 0.0
H439 H 0.25862 0.50931 0.33921 0.0
Tb440 Tb 0.92834 0.77653 0.59915 0.0
Tb441 Tb 0.94763 0.76577 0.50722 0.0
C442 C 0.9164 0.77965 0.68905 0.0
C443 C 0.92043 0.77916 0.74597 0.0
C444 C 0.93327 0.76829 0.76324 0.0
C445 C 0.93674 0.76804 0.81761 0.0
C446 C 0.92743 0.77862 0.85584 0.0
C447 C 0.91461 0.78952 0.83804 0.0
C448 C 0.91118 0.78979 0.78379 0.0
C449 C 0.93083 0.81475 0.52891 0.0
C450 C 0.96169 0.77754 0.61622 0.0
C451 C 0.95957 0.76585 0.41709 0.0
C452 C 0.95586 0.76812 0.36011 0.0
C453 C 0.94302 0.77908 0.34314 0.0
C454 C 0.93976 0.78038 0.28861 0.0
C455 C 0.94926 0.77066 0.25006 0.0
C456 C 0.96215 0.75991 0.2676 0.0
C457 C 0.96538 0.75865 0.32191 0.0
C458 C 0.94494 0.72606 0.57324 0.0
C459 C 0.9139 0.7592 0.49637 0.0
O460 O 0.91785 0.75801 0.6624 0.0
O461 O 0.92064 0.79975 0.66157 0.0
O462 O 0.94067 0.8002 0.54538 0.0
O463 O 0.91927 0.8089 0.55412 0.0
O464 O 0.94889 0.77567 0.63656 0.0
O465 O 0.96407 0.77659 0.56426 0.0
O466 O 0.95801 0.78656 0.44667 0.0
O467 O 0.95523 0.74487 0.44136 0.0
O468 O 0.9352 0.74165 0.55978 0.0
O469 O 0.9563 0.73185 0.54669 0.0
O470 O 0.92619 0.76387 0.47247 0.0
O471 O 0.91258 0.75969 0.54856 0.0
H472 H 0.9406 0.75997 0.73481 0.0
H473 H 0.94678 0.75977 0.82959 0.0
H474 H 0.90706 0.79748 0.86612 0.0
H475 H 0.9012 0.79821 0.77137 0.0
H476 H 0.9355 0.78648 0.37199 0.0
H477 H 0.92969 0.78857 0.27673 0.0
H478 H 0.96984 0.75266 0.23928 0.0
H479 H 0.97536 0.7502 0.33414 0.0
Tb480 Tb 0.69628 0.2581 0.26288 0.0
Tb481 Tb 0.67719 0.24687 0.35517 0.0
C482 C 0.70814 0.25812 0.17264 0.0
C483 C 0.70437 0.25539 0.11585 0.0
C484 C 0.69163 0.2438 0.0995 0.0
C485 C 0.6883 0.24207 0.04511 0.0
C486 C 0.69762 0.25198 1.00611 0.0
C487 C 0.7104 0.26335 0.02303 0.0
C488 C 0.71371 0.26504 0.07721 0.0
C489 C 0.69353 0.29778 0.32867 0.0
C490 C 0.66253 0.26426 0.25293 0.0
C491 C 0.66529 0.24309 0.44503 0.0
C492 C 0.66933 0.24397 0.50187 0.0
C493 C 0.68208 0.25535 0.51876 0.0
C494 C 0.68559 0.25594 0.57304 0.0
C495 C 0.6764 0.24522 0.61158 0.0
C496 C 0.66367 0.2338 0.59417 0.0
C497 C 0.6602 0.23318 0.53998 0.0
C498 C 0.67972 0.20893 0.28435 0.0
C499 C 0.71054 0.24681 0.37171 0.0
O500 O 0.70688 0.2375 0.2027 0.0
O501 O 0.70355 0.27902 0.19647 0.0
O502 O 0.68383 0.28195 0.31586 0.0
O503 O 0.70485 0.29224 0.30172 0.0
O504 O 0.67478 0.25966 0.22864 0.0
O505 O 0.66134 0.26376 0.30516 0.0
O506 O 0.66633 0.26477 0.4182 0.0
O507 O 0.66994 0.22324 0.41777 0.0
O508 O 0.6895 0.22354 0.30104 0.0
O509 O 0.66817 0.21455 0.30972 0.0
O510 O 0.69776 0.24849 0.3923 0.0
O511 O 0.71284 0.24765 0.31969 0.0
H512 H 0.68424 0.23625 0.12873 0.0
H513 H 0.67831 0.2334 0.03368 0.0
H514 H 0.71797 0.27077 0.99434 0.0
H515 H 0.72361 0.27398 0.08899 0.0
H516 H 0.6893 0.26381 0.49008 0.0
H517 H 0.69556 0.2646 0.58473 0.0
H518 H 0.65623 0.22571 0.62251 0.0
H519 H 0.6503 0.22436 0.52782 0.0
Tb520 Tb 0.04206 0.52052 0.25936 0.0
Tb521 Tb 0.06157 0.52961 0.35092 0.0
C522 C 0.03011 0.52137 0.16938 0.0
C523 C 0.0339 0.52387 0.11246 0.0
C524 C 0.0469 0.53442 0.09595 0.0
C525 C 0.05023 0.5361 0.0415 0.0
C526 C 0.04061 0.52731 1.0025 0.0
C527 C 0.02759 0.51683 0.0196 0.0
C528 C 0.0243 0.51515 0.07388 0.0
C529 C 0.04367 0.48081 0.3255 0.0
C530 C 0.07564 0.51156 0.248 0.0
C531 C 0.07353 0.53114 0.44082 0.0
C532 C 0.06939 0.53125 0.4977 0.0
C533 C 0.0563 0.52137 0.51502 0.0
C534 C 0.05279 0.52136 0.5694 0.0
C535 C 0.06234 0.53114 0.60762 0.0
C536 C 0.07537 0.54124 0.58974 0.0
C537 C 0.07883 0.54128 0.53548 0.0
C538 C 0.05989 0.56814 0.28092 0.0
C539 C 0.02828 0.53376 0.36845 0.0
O540 O 0.03186 0.54188 0.19939 0.0
O541 O 0.03425 0.50014 0.19317 0.0
O542 O 0.05389 0.49527 0.31156 0.0
O543 O 0.0324 0.48778 0.29978 0.0
O544 O 0.06347 0.51732 0.22429 0.0
O545 O 0.07692 0.51164 0.30017 0.0
O546 O 0.07119 0.50973 0.41424 0.0
O547 O 0.07024 0.55176 0.41319 0.0
O548 O 0.0498 0.55428 0.29772 0.0
O549 O 0.07135 0.56145 0.30579 0.0
O550 O 0.04103 0.53104 0.38871 0.0
O551 O 0.02588 0.53268 0.31652 0.0
H552 H 0.05447 0.54134 0.12508 0.0
H553 H 0.06028 0.54455 0.02997 0.0
H554 H 0.02 0.50946 0.99107 0.0
H555 H 0.01424 0.50684 0.08577 0.0
H556 H 0.04883 0.51345 0.48665 0.0
H557 H 0.04272 0.51321 0.58154 0.0
H558 H 0.08289 0.54937 0.61765 0.0
H559 H 0.08896 0.54912 0.52299 0.0
Tb560 Tb 0.69723 0.51923 0.52737 0.0
Tb561 Tb 0.68003 0.53153 0.43038 0.0
C562 C 0.71207 0.52235 0.61073 0.0
C563 C 0.70909 0.52024 0.66844 0.0
C564 C 0.69521 0.5227 0.68788 0.0
C565 C 0.69255 0.52263 0.74276 0.0
C566 C 0.70371 0.52007 0.77957 0.0
C567 C 0.71758 0.51694 0.75982 0.0
C568 C 0.72023 0.5171 0.70479 0.0
C569 C 0.68718 0.47801 0.47789 0.0
C570 C 0.66413 0.51539 0.53298 0.0
C571 C 0.66934 0.5336 0.33848 0.0
C572 C 0.67377 0.53061 0.28237 0.0
C573 C 0.6876 0.52322 0.26837 0.0
C574 C 0.69162 0.52168 0.21456 0.0
C575 C 0.68185 0.5274 0.17373 0.0
C576 C 0.66794 0.53426 0.18835 0.0
C577 C 0.66399 0.53592 0.24196 0.0
C578 C 0.68107 0.56895 0.50267 0.0
C579 C 0.71318 0.52897 0.41807 0.0
O580 O 0.7063 0.54226 0.58686 0.0
O581 O 0.71086 0.50114 0.58252 0.0
O582 O 0.69195 0.49838 0.45607 0.0
O583 O 0.68836 0.48016 0.52925 0.0
O584 O 0.67577 0.52139 0.5597 0.0
O585 O 0.66396 0.51415 0.48046 0.0
O586 O 0.66937 0.51265 0.36807 0.0
O587 O 0.67442 0.55376 0.36371 0.0
O588 O 0.69111 0.55424 0.48868 0.0
O589 O 0.67006 0.56359 0.47393 0.0
O590 O 0.70101 0.53674 0.39823 0.0
O591 O 0.71432 0.52014 0.46758 0.0
H592 H 0.68644 0.52512 0.66062 0.0
H593 H 0.68171 0.52466 0.75636 0.0
H594 H 0.72644 0.51514 0.78689 0.0
H595 H 0.73104 0.51528 0.69066 0.0
H596 H 0.69531 0.51886 0.29895 0.0
H597 H 0.70245 0.51651 0.20506 0.0
H598 H 0.66001 0.53823 0.15832 0.0
H599 H 0.65324 0.54151 0.25189 0.0
Tb600 Tb 0.04221 0.25604 0.52186 0.0
Tb601 Tb 0.06196 0.24774 0.43013 0.0
C602 C 0.03024 0.25463 0.61192 0.0
C603 C 0.034 0.2525 0.66893 0.0
C604 C 0.04712 0.24267 0.68573 0.0
C605 C 0.05036 0.2412 0.74027 0.0
C606 C 0.04052 0.24945 0.77907 0.0
C607 C 0.0274 0.25928 0.76167 0.0
C608 C 0.0242 0.26077 0.70732 0.0
C609 C 0.0438 0.29606 0.4563 0.0
C610 C 0.07566 0.26608 0.53344 0.0
C611 C 0.07404 0.2469 0.34026 0.0
C612 C 0.07005 0.24664 0.28324 0.0
C613 C 0.05687 0.25592 0.26555 0.0
C614 C 0.05354 0.25587 0.21103 0.0
C615 C 0.06334 0.24666 0.17304 0.0
C616 C 0.07645 0.23714 0.1913 0.0
C617 C 0.07974 0.23714 0.24568 0.0
C618 C 0.06056 0.20907 0.49983 0.0
C619 C 0.02873 0.24233 0.41277 0.0
O620 O 0.03238 0.23418 0.5821 0.0
O621 O 0.03399 0.27605 0.58789 0.0
O622 O 0.054 0.28163 0.47016 0.0
O623 O 0.0325 0.28883 0.48171 0.0
O624 O 0.06353 0.25986 0.55701 0.0
O625 O 0.07704 0.26612 0.48128 0.0
O626 O 0.07135 0.26815 0.36689 0.0
O627 O 0.07099 0.22608 0.36776 0.0
O628 O 0.05035 0.22264 0.48316 0.0
O629 O 0.07196 0.21612 0.4749 0.0
O630 O 0.04145 0.24576 0.39252 0.0
O631 O 0.02628 0.24314 0.4647 0.0
H632 H 0.05485 0.23612 0.65677 0.0
H633 H 0.0605 0.23328 0.75202 0.0
H634 H 0.01963 0.26624 0.79003 0.0
H635 H 0.01404 0.26853 0.69522 0.0
H636 H 0.04922 0.26342 0.29374 0.0
H637 H 0.0434 0.26355 0.19862 0.0
H638 H 0.08417 0.22945 0.16358 0.0
H639 H 0.08993 0.22978 0.25843 0.0
Tb640 Tb 0.81229 0.27941 0.67902 0.0
Tb641 Tb 0.79277 0.2698 0.7706 0.0
C642 C 0.82415 0.28185 0.58895 0.0
C643 C 0.81991 0.282 0.53221 0.0
C644 C 0.80754 0.26954 0.51454 0.0
C645 C 0.804 0.26951 0.46024 0.0
C646 C 0.81273 0.28201 0.42252 0.0
C647 C 0.82501 0.29472 0.44073 0.0
C648 C 0.82854 0.29468 0.49489 0.0
C649 C 0.81049 0.3176 0.74949 0.0
C650 C 0.779 0.28319 0.6619 0.0
C651 C 0.78097 0.27027 0.86092 0.0
C652 C 0.7849 0.2718 0.91787 0.0
C653 C 0.79682 0.2857 0.93544 0.0
C654 C 0.80012 0.28678 0.98995 0.0
C655 C 0.79163 0.27386 0.02788 0.0
C656 C 0.77973 0.25999 1.00976 0.0
C657 C 0.77642 0.25899 0.95549 0.0
C658 C 0.79437 0.23057 0.70343 0.0
C659 C 0.82629 0.26023 0.78112 0.0
O660 O 0.82219 0.26025 0.61535 0.0
O661 O 0.82062 0.30222 0.61696 0.0
O662 O 0.80042 0.30375 0.73262 0.0
O663 O 0.82199 0.31101 0.72477 0.0
O664 O 0.79173 0.28033 0.64147 0.0
O665 O 0.77663 0.28233 0.71389 0.0
O666 O 0.78298 0.29102 0.83176 0.0
O667 O 0.78461 0.24908 0.83591 0.0
O668 O 0.80458 0.2449 0.71779 0.0
O669 O 0.7831 0.2373 0.72952 0.0
O670 O 0.81416 0.26593 0.80522 0.0
O671 O 0.8276 0.26095 0.72896 0.0
H672 H 0.80065 0.25974 0.54261 0.0
H673 H 0.79437 0.25983 0.44787 0.0
H674 H 0.83208 0.30427 0.41297 0.0
H675 H 0.83814 0.30441 0.50761 0.0
H676 H 0.80356 0.29567 0.9071 0.0
H677 H 0.80945 0.29743 1.00227 0.0
H678 H 0.77281 0.25015 0.03764 0.0
H679 H 0.76716 0.24822 0.94285 0.0
Tb680 Tb 0.42879 1.00419 0.68958 0.0
Tb681 Tb 0.44802 1.01243 0.79013 0.0
C682 C 0.41881 1.00178 0.59705 0.0
C683 C 0.42351 1.00885 0.54277 0.0
C684 C 0.43787 1.00761 0.52816 0.0
C685 C 0.442 1.01184 0.47533 0.0
C686 C 0.43186 0.0173 0.43582 0.0
C687 C 0.41754 0.01938 0.45101 0.0
C688 C 0.41342 0.01517 0.50395 0.0
C689 C 0.43278 0.96366 0.75303 0.0
C690 C 0.46184 0.01325 0.67748 0.0
C691 C 0.46036 1.00226 0.87634 0.0
C692 C 0.45874 1.00917 0.933 0.0
C693 C 0.44571 0.01789 0.95313 0.0
C694 C 0.44384 0.02151 1.00796 0.0
C695 C 0.455 0.0166 0.0438 0.0
C696 C 0.4682 1.00885 0.02301 0.0
C697 C 0.47003 1.0051 0.9682 0.0
C698 C 0.44041 0.05768 0.7474 0.0
C699 C 0.41407 0.01804 0.79558 0.0
O700 O 0.41599 0.02085 0.63006 0.0
O701 O 0.42588 0.9829 0.61981 0.0
O702 O 0.44195 0.98056 0.74064 0.0
O703 O 0.42116 0.96875 0.72774 0.0
O704 O 0.44901 0.01612 0.65788 0.0
O705 O 0.4642 1.00738 0.72821 0.0
O706 O 0.45008 0.98827 0.85634 0.0
O707 O 0.46455 0.02065 0.84379 0.0
O708 O 0.43746 0.03499 0.73311 0.0
O709 O 0.44802 0.05548 0.79025 0.0
O710 O 0.42617 0.01314 0.82093 0.0
O711 O 0.41299 0.01894 0.74303 0.0
H712 H 0.44587 1.00266 0.55721 0.0
H713 H 0.45314 1.0105 0.46531 0.0
H714 H 0.40943 0.02328 0.42164 0.0
H715 H 0.40229 0.0161 0.51427 0.0
H716 H 0.43686 0.02114 0.9266 0.0
H717 H 0.43349 0.02722 0.02232 0.0
H718 H 0.47712 1.00537 0.04915 0.0
H719 H 0.48018 0.99841 0.95342 0.0
Tb720 Tb 0.81109 0.99788 0.59538 0.0
Tb721 Tb 0.79152 1.00684 0.50364 0.0
C722 C 0.82306 0.99666 0.68528 0.0
C723 C 0.81888 0.99672 0.74213 0.0
C724 C 0.8057 1.00631 0.75905 0.0
C725 C 0.8021 1.00632 0.81332 0.0
C726 C 0.81163 0.9968 0.85188 0.0
C727 C 0.82479 0.98713 0.83445 0.0
C728 C 0.82835 0.98708 0.78026 0.0
C729 C 0.80909 0.95898 0.52673 0.0
C730 C 0.77773 0.99501 0.61331 0.0
C731 C 0.77953 1.00562 0.41379 0.0
C732 C 0.7833 1.0033 0.35683 0.0
C733 C 0.79639 0.99324 0.3401 0.0
C734 C 0.79972 0.99193 0.2856 0.0
C735 C 0.79003 1.0007 0.24683 0.0
C736 C 0.7769 1.01053 0.26413 0.0
C737 C 0.7736 1.01183 0.31842 0.0
C738 C 0.79365 0.04689 0.56867 0.0
C739 C 0.82511 0.01537 0.49173 0.0
O740 O 0.82073 0.01798 0.65834 0.0
O741 O 0.81975 0.97595 0.65798 0.0
O742 O 0.79906 0.97315 0.54295 0.0
O743 O 0.8206 0.9656 0.55132 0.0
O744 O 0.79054 0.99729 0.63325 0.0
O745 O 0.77527 0.99574 0.5614 0.0
O746 O 0.78146 0.98516 0.44381 0.0
O747 O 0.78349 0.02697 0.43752 0.0
O748 O 0.80365 0.03199 0.5548 0.0
O749 O 0.78228 0.04024 0.5432 0.0
O750 O 0.81289 1.00972 0.46828 0.0
O751 O 0.82647 0.01536 0.5439 0.0
H752 H 0.7982 0.01388 0.73042 0.0
H753 H 0.7918 0.01361 0.82497 0.0
H754 H 0.8325 0.98001 0.86278 0.0
H755 H 0.83859 0.97966 0.76813 0.0
H756 H 0.80405 0.98656 0.36911 0.0
H757 H 0.80998 0.98446 0.27394 0.0
H758 H 0.76906 0.01703 0.23565 0.0
H759 H 0.76342 0.01958 0.33046 0.0
Tb760 Tb 0.42674 0.28293 0.6101 0.0
Tb761 Tb 0.44683 0.27262 0.51174 0.0
C762 C 0.41509 0.2851 0.70013 0.0
C763 C 0.41903 0.28109 0.75636 0.0
C764 C 0.43165 0.26853 0.77083 0.0
C765 C 0.43531 0.26585 0.82471 0.0
C766 C 0.42637 0.27555 0.86504 0.0
C767 C 0.41374 0.28806 0.85004 0.0
C768 C 0.41014 0.29081 0.79633 0.0
C769 C 0.4298 0.32114 0.54063 0.0
C770 C 0.46034 0.27887 0.6253 0.0
C771 C 0.45912 0.28129 0.42442 0.0
C772 C 0.45572 0.27737 0.36737 0.0
C773 C 0.44244 0.28442 0.34665 0.0
C774 C 0.43966 0.28216 0.29213 0.0
C775 C 0.45004 0.27261 0.25688 0.0
C776 C 0.46324 0.2651 0.27798 0.0
C777 C 0.46604 0.26752 0.33259 0.0
C778 C 0.43996 0.22865 0.56115 0.0
C779 C 0.41325 0.26403 0.50438 0.0
O780 O 0.41474 0.26448 0.6695 0.0
O781 O 0.42099 0.30508 0.6766 0.0
O782 O 0.43937 0.30557 0.55575 0.0
O783 O 0.41826 0.31619 0.56678 0.0
O784 O 0.44745 0.27973 0.64568 0.0
O785 O 0.46299 0.27791 0.57328 0.0
O786 O 0.45135 0.2983 0.44972 0.0
O787 O 0.46149 0.26054 0.4532 0.0
O788 O 0.43661 0.25159 0.57232 0.0
O789 O 0.44757 0.22984 0.51804 0.0
O790 O 0.42533 0.26928 0.47916 0.0
O791 O 0.41187 0.2649 0.55683 0.0
H792 H 0.43867 0.26086 0.74058 0.0
H793 H 0.44506 0.25594 0.83476 0.0
H794 H 0.40672 0.29618 0.87982 0.0
H795 H 0.40042 0.30075 0.78597 0.0
H796 H 0.43425 0.29213 0.3724 0.0
H797 H 0.42945 0.28852 0.27751 0.0
H798 H 0.47142 0.25729 0.25236 0.0
H799 H 0.47635 0.26192 0.34761 0.0
Tb800 Tb 0.19728 0.75732 0.25778 0.0
Tb801 Tb 0.17769 0.74875 0.34969 0.0
C802 C 0.2092 0.75607 0.16767 0.0
C803 C 0.20543 0.75426 0.11068 0.0
C804 C 0.19226 0.74469 0.09369 0.0
C805 C 0.18899 0.74369 0.03914 0.0
C806 C 0.19882 0.75231 1.0006 0.0
C807 C 0.21202 0.76165 0.01816 0.0
C808 C 0.21526 0.76263 0.07249 0.0
C809 C 0.19595 0.79705 0.32389 0.0
C810 C 0.16383 0.76753 0.24705 0.0
C811 C 0.16569 0.74742 0.43968 0.0
C812 C 0.16979 0.74703 0.49654 0.0
C813 C 0.18305 0.75608 0.51378 0.0
C814 C 0.18655 0.75579 0.56812 0.0
C815 C 0.17684 0.74646 0.60637 0.0
C816 C 0.1636 0.73731 0.5886 0.0
C817 C 0.16015 0.73758 0.53437 0.0
C818 C 0.17904 0.71024 0.27968 0.0
C819 C 0.21094 0.7436 0.3665 0.0
O820 O 0.20695 0.73553 0.19716 0.0
O821 O 0.20557 0.77746 0.192 0.0
O822 O 0.18565 0.78282 0.31008 0.0
O823 O 0.20718 0.78984 0.29807 0.0
O824 O 0.17592 0.76139 0.2231 0.0
O825 O 0.16255 0.76735 0.29923 0.0
O826 O 0.16827 0.7688 0.41326 0.0
O827 O 0.1688 0.72675 0.4119 0.0
O828 O 0.18926 0.72379 0.29638 0.0
O829 O 0.16764 0.71728 0.30459 0.0
O830 O 0.19824 0.74688 0.38702 0.0
O831 O 0.21331 0.74443 0.31453 0.0
H832 H 0.18449 0.73814 0.12253 0.0
H833 H 0.17867 0.7366 0.02725 0.0
H834 H 0.21997 0.768 0.98986 0.0
H835 H 0.22551 0.76998 0.08473 0.0
H836 H 0.19069 0.76348 0.48536 0.0
H837 H 0.1969 0.76268 0.58007 0.0
H838 H 0.15577 0.73035 0.61671 0.0
H839 H 0.14985 0.73058 0.52198 0.0
Tb840 Tb 0.5437 0.01308 0.26342 0.0
Tb841 Tb 0.56313 0.02213 0.35547 0.0
C842 C 0.53167 0.01504 0.1736 0.0
C843 C 0.53553 0.01688 0.1166 0.0
C844 C 0.54834 0.02806 0.09964 0.0
C845 C 0.55173 0.02909 0.04518 0.0
C846 C 0.54238 0.01898 1.00659 0.0
C847 C 0.52957 1.00784 0.02413 0.0
C848 C 0.52621 1.00683 0.07842 0.0
C849 C 0.54677 0.97182 0.32476 0.0
C850 C 0.57747 1.00669 0.25124 0.0
C851 C 0.57516 0.02574 0.44504 0.0
C852 C 0.57151 0.02331 0.50214 0.0
C853 C 0.55924 1.01033 0.51932 0.0
C854 C 0.55584 1.00917 0.57375 0.0
C855 C 0.56468 0.02085 0.61211 0.0
C856 C 0.57699 0.0337 0.59444 0.0
C857 C 0.58033 0.03493 0.54014 0.0
C858 C 0.56036 0.06161 0.28815 0.0
C859 C 0.53002 0.02042 0.37421 0.0
O860 O 0.53408 0.03536 0.20342 0.0
O861 O 0.53509 0.99348 0.19764 0.0
O862 O 0.5564 0.98802 0.31311 0.0
O863 O 0.53533 0.97786 0.29905 0.0
O864 O 0.56513 1.01169 0.22805 0.0
O865 O 0.57887 1.00624 0.30343 0.0
O866 O 0.57499 1.00452 0.41639 0.0
O867 O 0.56946 0.04531 0.41989 0.0
O868 O 0.55061 0.04675 0.30435 0.0
O869 O 0.572 0.05521 0.31189 0.0
O870 O 0.54281 0.01653 0.3931 0.0
O871 O 0.52764 0.02369 0.32264 0.0
H872 H 0.5557 0.03597 0.12842 0.0
H873 H 0.56161 0.03807 0.03331 0.0
H874 H 0.5222 0.99945 0.99598 0.0
H875 H 0.5163 0.99801 0.09065 0.0
H876 H 0.55231 1.00113 0.49073 0.0
H877 H 0.54636 0.99888 0.58579 0.0
H878 H 0.58394 0.04328 0.6225 0.0
H879 H 0.58979 0.04519 0.52774 0.0
Tb880 Tb 0.19751 0.02124 0.52222 0.0
Tb881 Tb 0.17794 0.03 0.43044 0.0
C882 C 0.2095 0.0224 0.6121 0.0
C883 C 0.20575 0.02479 0.66905 0.0
C884 C 0.19259 0.03458 0.68567 0.0
C885 C 0.1893 0.03614 0.74014 0.0
C886 C 0.19911 0.02799 0.77905 0.0
C887 C 0.21229 0.01829 0.76186 0.0
C888 C 0.21554 0.01672 0.70755 0.0
C889 C 0.19591 0.98143 0.45632 0.0
C890 C 0.16399 1.01162 0.53345 0.0
C891 C 0.16603 0.03101 0.34045 0.0
C892 C 0.17023 0.03138 0.28366 0.0
C893 C 0.18353 0.02237 0.2666 0.0
C894 C 0.18707 0.02248 0.21226 0.0
C895 C 0.17737 0.0315 0.17384 0.0
C896 C 0.16414 0.04077 0.19147 0.0
C897 C 0.16063 0.0407 0.24568 0.0
C898 C 0.17941 0.06853 0.50027 0.0
C899 C 0.21122 0.03489 0.41326 0.0
O900 O 0.20757 0.04287 0.5821 0.0
O901 O 0.20549 1.00107 0.58839 0.0
O902 O 0.18572 0.99591 0.4702 0.0
O903 O 0.20718 0.98843 0.482 0.0
O904 O 0.17612 0.01761 0.55724 0.0
O905 O 0.16272 1.01172 0.48127 0.0
O906 O 0.16867 1.0097 0.367 0.0
O907 O 0.16898 0.05178 0.36818 0.0
O908 O 0.1896 0.05485 0.48367 0.0
O909 O 0.16801 0.06166 0.47523 0.0
O910 O 0.19849 0.03213 0.39292 0.0
O911 O 0.21366 0.03355 0.46512 0.0
H912 H 0.18488 0.04099 0.6566 0.0
H913 H 0.17912 0.04399 0.75175 0.0
H914 H 0.22003 1.01144 0.79035 0.0
H915 H 0.22574 1.00901 0.69556 0.0
H916 H 0.19112 0.01501 0.29512 0.0
H917 H 0.19731 0.015 0.20032 0.0
H918 H 0.15648 0.04832 0.16338 0.0
H919 H 0.15035 0.04786 0.25797 0.0
Tb920 Tb 0.54256 0.75094 0.52668 0.0
Tb921 Tb 0.55976 0.73848 0.42921 0.0
C922 C 0.52779 0.74809 0.61044 0.0
C923 C 0.53054 0.75138 0.66807 0.0
C924 C 0.54437 0.74994 0.68829 0.0
C925 C 0.54684 0.75144 0.74322 0.0
C926 C 0.53552 0.75449 0.77938 0.0
C927 C 0.52167 0.75631 0.75872 0.0
C928 C 0.51923 0.75475 0.70368 0.0
C929 C 0.55253 0.79202 0.47634 0.0
C930 C 0.57569 0.75491 0.53142 0.0
C931 C 0.57021 0.73681 0.33675 0.0
C932 C 0.56556 0.74037 0.28102 0.0
C933 C 0.55168 0.74799 0.26824 0.0
C934 C 0.54757 0.75083 0.21478 0.0
C935 C 0.55731 0.74636 0.17313 0.0
C936 C 0.57119 0.73878 0.18647 0.0
C937 C 0.57523 0.7358 0.23973 0.0
C938 C 0.55876 0.70125 0.50192 0.0
C939 C 0.5266 0.74021 0.41796 0.0
O940 O 0.53405 0.72828 0.58806 0.0
O941 O 0.52853 0.76891 0.5807 0.0
O942 O 0.54778 0.77155 0.45495 0.0
O943 O 0.55136 0.79007 0.52776 0.0
O944 O 0.56405 0.7491 0.55852 0.0
O945 O 0.57585 0.7559 0.47887 0.0
O946 O 0.57037 0.75756 0.36691 0.0
O947 O 0.56515 0.71654 0.36179 0.0
O948 O 0.54873 0.71598 0.48802 0.0
O949 O 0.56975 0.70641 0.47271 0.0
O950 O 0.53879 0.73263 0.39794 0.0
O951 O 0.52544 0.74933 0.46723 0.0
H952 H 0.55327 0.74716 0.66164 0.0
H953 H 0.55761 0.74955 0.75737 0.0
H954 H 0.5127 0.75903 0.78504 0.0
H955 H 0.50847 0.7559 0.68896 0.0
H956 H 0.54406 0.75181 0.29949 0.0
H957 H 0.53684 0.7569 0.20612 0.0
H958 H 0.57891 0.73475 0.15565 0.0
H959 H 0.58597 0.72981 0.24869 0.0
Tb960 Tb 0.81127 0.77762 0.18016 0.0
Tb961 Tb 0.79155 0.76938 0.27204 0.0
C962 C 0.82326 0.77822 0.09014 0.0
C963 C 0.81914 0.77852 0.03327 0.0
C964 C 0.80593 0.76919 0.01606 0.0
C965 C 0.80239 0.76955 0.96175 0.0
C966 C 0.81199 0.7792 0.92348 0.0
C967 C 0.82519 0.78857 0.94121 0.0
C968 C 0.82869 0.78824 0.9954 0.0
C969 C 0.8096 0.8167 0.24851 0.0
C970 C 0.77797 0.78197 0.16251 0.0
C971 C 0.77951 0.77089 0.36193 0.0
C972 C 0.78321 0.77277 0.41901 0.0
C973 C 0.79638 0.78228 0.4362 0.0
C974 C 0.79961 0.78319 0.49079 0.0
C975 C 0.78975 0.77456 0.52921 0.0
C976 C 0.77654 0.76531 0.51146 0.0
C977 C 0.77334 0.76441 0.45708 0.0
C978 C 0.79332 0.72925 0.20701 0.0
C979 C 0.82508 0.76014 0.28401 0.0
O980 O 0.82053 0.75702 0.11698 0.0
O981 O 0.82035 0.79909 0.11759 0.0
O982 O 0.79944 0.80278 0.23247 0.0
O983 O 0.82105 0.80972 0.22384 0.0
O984 O 0.79074 0.77905 0.14247 0.0
O985 O 0.77549 0.78136 0.21446 0.0
O986 O 0.78182 0.79136 0.33227 0.0
O987 O 0.78315 0.74944 0.33786 0.0
O988 O 0.80346 0.74381 0.22095 0.0
O989 O 0.78199 0.7363 0.23236 0.0
O990 O 0.81288 0.76604 0.30736 0.0
O991 O 0.82649 0.75995 0.23184 0.0
H992 H 0.79836 0.76158 0.04449 0.0
H993 H 0.79206 0.76248 0.94986 0.0
H994 H 0.83296 0.79577 0.9131 0.0
H995 H 0.83895 0.79546 1.00774 0.0
H996 H 0.80417 0.78883 0.40747 0.0
H997 H 0.80993 0.79022 0.5028 0.0
H998 H 0.76857 0.75894 0.53965 0.0
H999 H 0.76309 0.7571 0.4447 0.0
Tb1000 Tb 0.42929 0.49988 0.18909 0.0
Tb1001 Tb 0.44988 0.50998 0.28634 0.0
C1002 C 0.41761 0.49825 0.09929 0.0
C1003 C 0.42194 0.49994 0.0428 0.0
C1004 C 0.43335 0.51547 0.02609 0.0
C1005 C 0.43721 0.51644 0.97208 0.0
C1006 C 0.42976 0.50181 0.93378 0.0
C1007 C 0.4185 0.48599 0.95119 0.0
C1008 C 0.41464 0.48514 1.00496 0.0
C1009 C 0.43189 0.46212 0.25973 0.0
C1010 C 0.46293 0.50147 0.17204 0.0
C1011 C 0.46287 0.50159 0.37229 0.0
C1012 C 0.45922 0.50197 0.42986 0.0
C1013 C 0.44875 0.48548 0.45107 0.0
C1014 C 0.44563 0.4858 0.50561 0.0
C1015 C 0.45286 0.50263 0.54042 0.0
C1016 C 0.46333 0.51908 0.51905 0.0
C1017 C 0.46649 0.5187 0.46448 0.0
C1018 C 0.44335 0.55378 0.23554 0.0
C1019 C 0.41638 0.51833 0.29594 0.0
O1020 O 0.41853 0.51946 0.12807 0.0
O1021 O 0.42197 0.47762 0.12497 0.0
O1022 O 0.44166 0.47715 0.24385 0.0
O1023 O 0.42039 0.46728 0.23356 0.0
O1024 O 0.44998 0.49976 0.15261 0.0
O1025 O 0.46579 0.50448 0.22359 0.0
O1026 O 0.45702 0.48345 0.34334 0.0
O1027 O 0.46309 0.52394 0.34757 0.0
O1028 O 0.43992 0.5308 0.22509 0.0
O1029 O 0.45095 0.55275 0.27853 0.0
O1030 O 0.42846 0.5123 0.32032 0.0
O1031 O 0.41497 0.51868 0.24345 0.0
H1032 H 0.43926 0.52688 0.05467 0.0
H1033 H 0.44587 0.52896 0.96031 0.0
H1034 H 0.41273 0.47396 0.92334 0.0
H1035 H 0.40593 0.47276 0.01708 0.0
H1036 H 0.44298 0.47221 0.42566 0.0
H1037 H 0.43767 0.47254 0.52059 0.0
H1038 H 0.46899 0.53254 0.54437 0.0
H1039 H 0.47462 0.53156 0.44926 0.0
Tb1040 Tb 0.81098 0.49824 0.09715 0.0
Tb1041 Tb 0.79111 0.50537 1.0053 0.0
C1042 C 0.82301 0.499 0.18696 0.0
C1043 C 0.81898 0.49829 0.24399 0.0
C1044 C 0.80564 0.50676 0.26183 0.0
C1045 C 0.80228 0.50634 0.31635 0.0
C1046 C 0.8122 0.4975 0.35422 0.0
C1047 C 0.82546 0.48875 0.33579 0.0
C1048 C 0.82879 0.48916 0.28141 0.0
C1049 C 0.80967 0.45878 0.02974 0.0
C1050 C 0.77773 0.49215 0.11517 0.0
C1051 C 0.77901 0.50345 0.91567 0.0
C1052 C 0.78268 0.50107 0.85859 0.0
C1053 C 0.79579 0.49119 0.84157 0.0
C1054 C 0.79901 0.48977 0.78699 0.0
C1055 C 0.78917 0.4981 0.74835 0.0
C1056 C 0.77604 0.50787 0.76594 0.0
C1057 C 0.77286 0.50933 0.82034 0.0
C1058 C 0.79266 0.54578 0.06972 0.0
C1059 C 0.82454 0.51502 0.9921 0.0
O1060 O 0.81958 0.51984 0.16015 0.0
O1061 O 0.82078 0.47782 0.15959 0.0
O1062 O 0.79938 0.47248 0.04546 0.0
O1063 O 0.82104 0.46613 0.05442 0.0
O1064 O 0.79048 0.49545 0.13513 0.0
O1065 O 0.77521 0.49291 0.06329 0.0
O1066 O 0.78119 0.48315 0.94595 0.0
O1067 O 0.78281 0.525 0.93902 0.0
O1068 O 0.80288 0.53148 0.05559 0.0
O1069 O 0.78134 0.53833 0.04489 0.0
O1070 O 0.81238 0.50845 0.96933 0.0
O1071 O 0.82595 0.51604 0.04425 0.0
H1072 H 0.79788 0.51395 0.23376 0.0
H1073 H 0.79201 0.51343 0.32888 0.0
H1074 H 0.83328 0.48136 0.36339 0.0
H1075 H 0.8391 0.48239 0.26856 0.0
H1076 H 0.80351 0.48461 0.87042 0.0
H1077 H 0.80915 0.48188 0.77508 0.0
H1078 H 0.76827 0.51487 0.73769 0.0
H1079 H 0.76271 0.51712 0.8326 0.0
Tb1080 Tb 0.43034 0.78102 0.09685 0.0
Tb1081 Tb 0.44956 0.76935 1.00479 0.0
C1082 C 0.41846 0.78481 0.18675 0.0
C1083 C 0.42249 0.78342 0.24359 0.0
C1084 C 0.43529 0.77214 0.26016 0.0
C1085 C 0.43881 0.7712 0.31446 0.0
C1086 C 0.42955 0.78139 0.35332 0.0
C1087 C 0.41678 0.79274 0.3362 0.0
C1088 C 0.41331 0.79374 0.28203 0.0
C1089 C 0.43292 0.81885 0.026 0.0
C1090 C 0.46369 0.78083 0.11379 0.0
C1091 C 0.46156 0.76928 0.91474 0.0
C1092 C 0.45789 0.772 0.8578 0.0
C1093 C 0.445 0.78287 0.84124 0.0
C1094 C 0.44174 0.78463 0.78679 0.0
C1095 C 0.45133 0.77559 0.74782 0.0
C1096 C 0.46425 0.76483 0.76496 0.0
C1097 C 0.46747 0.76307 0.81925 0.0
C1098 C 0.44625 0.72975 0.07103 0.0
C1099 C 0.4158 0.76384 0.99387 0.0
O1100 O 0.41917 0.76326 0.15939 0.0
O1101 O 0.42339 0.80461 0.15992 0.0
O1102 O 0.44276 0.8042 0.04231 0.0
O1103 O 0.42143 0.81337 0.05189 0.0
O1104 O 0.45088 0.7794 0.13416 0.0
O1105 O 0.4661 0.77955 0.0619 0.0
O1106 O 0.46027 0.78992 0.94471 0.0
O1107 O 0.4569 0.74841 0.93857 0.0
O1108 O 0.43685 0.74599 0.05765 0.0
O1109 O 0.45761 0.73458 0.04366 0.0
O1110 O 0.42815 0.768 0.96997 0.0
O1111 O 0.41444 0.76462 0.04608 0.0
H1112 H 0.44253 0.76395 0.23126 0.0
H1113 H 0.44867 0.76211 0.32602 0.0
H1114 H 0.40949 0.80119 0.36465 0.0
H1115 H 0.40342 0.80265 0.27012 0.0
H1116 H 0.43746 0.78995 0.87035 0.0
H1117 H 0.43177 0.7933 0.77524 0.0
H1118 H 0.47181 0.75728 0.73646 0.0
H1119 H 0.47746 0.75451 0.83119 0.0
Tb1120 Tb 0.19772 0.25776 0.7569 0.0
Tb1121 Tb 0.17806 0.2491 0.8487 0.0
C1122 C 0.20965 0.25641 0.66678 0.0
C1123 C 0.20578 0.25415 0.60992 0.0
C1124 C 0.19278 0.24358 0.5936 0.0
C1125 C 0.1894 0.24206 0.53921 0.0
C1126 C 0.19897 0.25103 0.50007 0.0
C1127 C 0.21197 0.26156 0.51698 0.0
C1128 C 0.21532 0.26309 0.5712 0.0
C1129 C 0.19588 0.29785 0.82192 0.0
C1130 C 0.1642 0.26687 0.74531 0.0
C1131 C 0.16604 0.2479 0.93864 0.0
C1132 C 0.17015 0.24784 0.99553 0.0
C1133 C 0.18317 0.25799 1.01282 0.0
C1134 C 0.18667 0.25796 0.06718 0.0
C1135 C 0.17718 0.24789 0.10541 0.0
C1136 C 0.16421 0.23756 0.08757 0.0
C1137 C 0.16076 0.23755 0.03333 0.0
C1138 C 0.17986 0.21026 0.77964 0.0
C1139 C 0.21135 0.24509 0.8662 0.0
O1140 O 0.20764 0.23598 0.69683 0.0
O1141 O 0.20584 0.27782 0.69068 0.0
O1142 O 0.18575 0.28314 0.80832 0.0
O1143 O 0.20721 0.2909 0.79646 0.0
O1144 O 0.17638 0.26098 0.72178 0.0
O1145 O 0.16282 0.26692 0.79747 0.0
O1146 O 0.16846 0.26922 0.9118 0.0
O1147 O 0.16928 0.22718 0.91124 0.0
O1148 O 0.18993 0.22423 0.79618 0.0
O1149 O 0.16837 0.21704 0.80425 0.0
O1150 O 0.19859 0.2481 0.88634 0.0
O1151 O 0.2138 0.24569 0.81425 0.0
H1152 H 0.18526 0.23651 0.62283 0.0
H1153 H 0.17936 0.23358 0.52783 0.0
H1154 H 0.21952 0.26909 0.48835 0.0
H1155 H 0.22537 0.27143 0.58294 0.0
H1156 H 0.1906 0.26612 0.98444 0.0
H1157 H 0.19669 0.26629 0.07929 0.0
H1158 H 0.15674 0.22921 0.11549 0.0
H1159 H 0.15069 0.2295 0.02087 0.0
Tb1160 Tb 0.54179 0.51365 0.75789 0.0
Tb1161 Tb 0.56189 0.52033 0.84929 0.0
C1162 C 0.52978 0.51595 0.66811 0.0
C1163 C 0.53362 0.5183 0.61113 0.0
C1164 C 0.54665 0.52876 0.59459 0.0
C1165 C 0.55004 0.53021 0.54014 0.0
C1166 C 0.54045 0.52131 0.50111 0.0
C1167 C 0.5274 0.51097 0.51821 0.0
C1168 C 0.52405 0.50948 0.57249 0.0
C1169 C 0.54314 0.47313 0.82197 0.0
C1170 C 0.57521 0.50359 0.74413 0.0
C1171 C 0.57384 0.51932 0.93925 0.0
C1172 C 0.56964 0.52052 0.99611 0.0
C1173 C 0.55624 0.51221 1.01367 0.0
C1174 C 0.55271 0.51303 0.06802 0.0
C1175 C 0.56252 0.52209 0.10605 0.0
C1176 C 0.57585 0.53068 0.08791 0.0
C1177 C 0.57934 0.52989 0.03368 0.0
C1178 C 0.56045 0.55994 0.78206 0.0
C1179 C 0.52875 0.52764 0.86784 0.0
O1180 O 0.53207 0.53614 0.6985 0.0
O1181 O 0.53332 0.49427 0.69156 0.0
O1182 O 0.55348 0.48724 0.80794 0.0
O1183 O 0.53185 0.48089 0.79742 0.0
O1184 O 0.56306 0.51047 0.72171 0.0
O1185 O 0.57669 0.50232 0.79621 0.0
O1186 O 0.57012 0.49855 0.91275 0.0
O1187 O 0.57206 0.54047 0.91131 0.0
O1188 O 0.55025 0.54621 0.79836 0.0
O1189 O 0.57192 0.55251 0.80604 0.0
O1190 O 0.54148 0.52375 0.88749 0.0
O1191 O 0.52611 0.52683 0.81604 0.0
H1192 H 0.55418 0.53578 0.6237 0.0
H1193 H 0.56011 0.53855 0.52863 0.0
H1194 H 0.51983 0.50354 0.48967 0.0
H1195 H 0.51397 0.50125 0.58435 0.0
H1196 H 0.54855 0.50484 0.98552 0.0
H1197 H 0.54239 0.50604 0.08028 0.0
H1198 H 0.5836 0.53825 0.1156 0.0
H1199 H 0.58971 0.53653 0.02106 0.0
Tb1200 Tb 0.19734 0.52184 0.01998 0.0
Tb1201 Tb 0.1779 0.53099 0.92815 0.0
C1202 C 0.20932 0.52271 0.10989 0.0
C1203 C 0.20564 0.52515 0.16691 0.0
C1204 C 0.19261 0.53538 0.18386 0.0
C1205 C 0.18943 0.53705 0.23844 0.0
C1206 C 0.19924 0.52858 0.27709 0.0
C1207 C 0.21226 0.51838 0.25954 0.0
C1208 C 0.21541 0.5167 0.20516 0.0
C1209 C 0.19571 0.48217 0.95392 0.0
C1210 C 0.16376 0.51288 0.03105 0.0
C1211 C 0.16587 0.53266 0.83839 0.0
C1212 C 0.16985 0.53263 0.78137 0.0
C1213 C 0.18293 0.5229 0.76365 0.0
C1214 C 0.18626 0.52274 0.70911 0.0
C1215 C 0.17655 0.5322 0.67116 0.0
C1216 C 0.16354 0.54217 0.68945 0.0
C1217 C 0.16025 0.54237 0.74385 0.0
C1218 C 0.17962 0.56951 0.99808 0.0
C1219 C 0.21122 0.53475 0.91084 0.0
O1220 O 0.20752 0.54324 0.07994 0.0
O1221 O 0.20516 0.50148 0.08617 0.0
O1222 O 0.1855 0.49665 0.9677 0.0
O1223 O 0.20696 0.48906 0.97982 0.0
O1224 O 0.17591 0.51858 0.05491 0.0
O1225 O 0.16251 0.51305 0.97886 0.0
O1226 O 0.16813 0.51124 0.86503 0.0
O1227 O 0.16937 0.55325 0.86577 0.0
O1228 O 0.1897 0.55561 0.98139 0.0
O1229 O 0.16816 0.56284 0.97318 0.0
O1230 O 0.19847 0.5321 0.89045 0.0
O1231 O 0.21356 0.53382 0.96282 0.0
H1232 H 0.18492 0.54207 0.15497 0.0
H1233 H 0.17937 0.54527 0.25032 0.0
H1234 H 0.21999 0.51125 0.28782 0.0
H1235 H 0.22549 0.50862 0.19292 0.0
H1236 H 0.19052 0.51521 0.79184 0.0
H1237 H 0.19633 0.51471 0.69664 0.0
H1238 H 0.15589 0.55007 0.66173 0.0
H1239 H 0.15013 0.5501 0.75665 0.0
Tb1240 Tb 0.54085 0.2502 0.02738 0.0
Tb1241 Tb 0.56032 0.24059 0.93552 0.0
C1242 C 0.5289 0.24958 0.11749 0.0
C1243 C 0.53262 0.24732 0.17448 0.0
C1244 C 0.54562 0.23697 0.19133 0.0
C1245 C 0.54882 0.23537 0.24587 0.0
C1246 C 0.53907 0.24404 0.28461 0.0
C1247 C 0.52608 0.25439 0.26716 0.0
C1248 C 0.52291 0.256 0.21281 0.0
C1249 C 0.54267 0.28973 0.96076 0.0
C1250 C 0.5744 0.25921 0.03798 0.0
C1251 C 0.57236 0.23857 0.84567 0.0
C1252 C 0.5684 0.23883 0.78867 0.0
C1253 C 0.55533 0.24869 0.77117 0.0
C1254 C 0.55202 0.24905 0.71666 0.0
C1255 C 0.56173 0.23969 0.67851 0.0
C1256 C 0.57473 0.22962 0.69657 0.0
C1257 C 0.578 0.22921 0.75095 0.0
C1258 C 0.55857 0.20237 1.0062 0.0
C1259 C 0.52701 0.23716 0.91852 0.0
O1260 O 0.53069 0.22898 0.08779 0.0
O1261 O 0.53302 0.27075 0.09336 0.0
O1262 O 0.55278 0.27506 0.97462 0.0
O1263 O 0.53139 0.28313 0.98693 0.0
O1264 O 0.56225 0.25361 0.06206 0.0
O1265 O 0.57569 0.25872 0.9858 0.0
O1266 O 0.57034 0.26004 0.87238 0.0
O1267 O 0.56862 0.21809 0.87302 0.0
O1268 O 0.54849 0.21623 0.98939 0.0
O1269 O 0.57001 0.20888 0.98096 0.0
O1270 O 0.53976 0.23974 0.89807 0.0
O1271 O 0.52464 0.23816 0.97049 0.0
H1272 H 0.55327 0.2301 0.16239 0.0
H1273 H 0.55886 0.22705 0.25768 0.0
H1274 H 0.51839 0.26168 0.2955 0.0
H1275 H 0.51285 0.26418 0.20066 0.0
H1276 H 0.54775 0.25631 0.79951 0.0
H1277 H 0.54196 0.25715 0.70438 0.0
H1278 H 0.58237 0.22181 0.6687 0.0
H1279 H 0.58811 0.22141 0.76357 0.0
H1280 H 0.23788 0.26652 0.85746 0.0
H1281 H 0.25216 0.25388 0.17194 0.0
H1282 H 0.21056 0.22484 0.96557 0.0
H1283 H 0.27927 0.29594 0.06368 0.0
H1284 H 0.23623 0.24417 0.09732 0.0
H1285 H 0.25382 0.27602 0.93213 0.0
C1286 C 0.23548 0.25872 0.89652 0.0
C1287 C 0.22294 0.24488 0.90542 0.0
C1288 C 0.24559 0.25578 0.09007 0.0
C1289 C 0.2407 0.25643 0.99117 0.0
C1290 C 0.25453 0.26169 0.13286 0.0
C1291 C 0.26701 0.27571 0.12389 0.0
C1292 C 0.24925 0.26394 0.03824 0.0
C1293 C 0.26975 0.28495 0.07221 0.0
C1294 C 0.24441 0.26452 0.93935 0.0
C1295 C 0.22013 0.23567 0.95709 0.0
N1296 N 0.26104 0.27871 0.0313 0.0
N1297 N 0.22885 0.24181 0.99806 0.0
H1298 H 0.02878 0.05734 0.96643 0.0
H1299 H 0.96338 0.97317 0.07041 0.0
H1300 H 0.00297 1.00958 0.86435 0.0
H1301 H 0.98677 0.02545 0.17144 0.0
H1302 H 0.97851 0.98503 0.99569 0.0
H1303 H 0.01338 0.04681 0.04147 0.0
C1304 C 0.01958 0.04523 0.95953 0.0
C1305 C 0.01707 0.03442 0.90904 0.0
C1306 C 0.98051 0.9937 0.03424 0.0
C1307 C -0.00034 0.02158 0.99527 0.0
C1308 C 0.97199 0.98669 0.07716 0.0
C1309 C 0.97388 0.99829 0.12727 0.0
C1310 C 0.99106 1.01251 0.04125 0.0
C1311 C 0.98509 0.0158 0.13368 0.0
C1312 C 0.0109 0.03897 1.00257 0.0
C1313 C 0.00514 0.01863 0.9024 0.0
N1314 N 0.99321 0.02258 0.09092 0.0
N1315 N -0.00304 1.01241 0.94526 0.0
H1316 H 0.21186 0.06147 0.32052 0.0
H1317 H 0.26959 0.96591 0.19835 0.0
H1318 H 0.23585 1.00705 0.41438 0.0
H1319 H 0.25253 0.03054 0.1102 0.0
H1320 H 0.25581 0.97903 0.27577 0.0
H1321 H 0.22632 0.05077 0.24287 0.0
C1322 C 0.22055 0.04793 0.32516 0.0
C1323 C 0.22279 0.03529 0.37399 0.0
C1324 C 0.25492 0.99021 0.23939 0.0
C1325 C 0.23898 0.02216 0.28479 0.0
C1326 C 0.26262 0.9825 0.19483 0.0
C1327 C 0.26221 0.99717 0.14766 0.0
C1328 C 0.24661 1.01267 0.23689 0.0
C1329 C 0.25305 0.01853 0.14553 0.0
C1330 C 0.22866 0.04158 0.28064 0.0
C1331 C 0.23396 0.01755 0.37771 0.0
N1332 N 0.24568 0.02578 0.18976 0.0
N1333 N 0.24152 1.0112 0.33338 0.0
H1334 H 0.00197 0.26275 0.42062 0.0
H1335 H 0.98708 0.24593 0.10737 0.0
H1336 H 0.02972 0.22103 0.31435 0.0
H1337 H 0.962 0.29363 0.21245 0.0
H1338 H 0.00281 0.23576 0.18249 0.0
H1339 H 0.98595 0.27093 0.3456 0.0
C1340 C 0.00446 0.25465 0.38191 0.0
C1341 C 0.01714 0.24123 0.37359 0.0
C1342 C 0.99392 0.24865 0.18888 0.0
C1343 C -0.00074 0.25124 0.28739 0.0
C1344 C 0.98511 0.25477 0.14581 0.0
C1345 C 0.97324 0.27058 0.15378 0.0
C1346 C 0.99074 0.25837 0.23998 0.0
C1347 C 0.971 0.28119 0.20467 0.0
C1348 C -0.00453 0.2597 0.33886 0.0
C1349 C 0.02003 0.23157 0.32234 0.0
N1350 N 0.97957 0.27471 0.24585 0.0
N1351 N 0.01124 0.23697 0.28111 0.0
H1352 H 0.73817 0.77116 0.8553 0.0
H1353 H 0.75169 0.7594 0.17049 0.0
H1354 H 0.7112 0.72816 0.96243 0.0
H1355 H 0.77859 0.8026 0.06345 0.0
H1356 H 0.73607 0.74913 0.09525 0.0
H1357 H 0.75371 0.78165 0.93066 0.0
C1358 C 0.73578 0.76327 0.89429 0.0
C1359 C 0.72345 0.74873 0.90268 0.0
C1360 C 0.74531 0.76114 0.08839 0.0
C1361 C 0.74073 0.76143 0.98923 0.0
C1362 C 0.75405 0.76739 0.13155 0.0
C1363 C 0.7664 0.7819 0.12314 0.0
C1364 C 0.74902 0.76943 0.0367 0.0
C1365 C 0.76916 0.7913 0.07158 0.0
C1366 C 0.74448 0.76964 0.93751 0.0
C1367 C 0.72063 0.73947 0.95431 0.0
N1368 N 0.76064 0.7847 0.03029 0.0
N1369 N 0.72911 0.74617 0.99564 0.0
H1370 H 0.77759 0.97334 0.7114 0.0
H1371 H 0.71201 0.0583 0.811 0.0
H1372 H 0.75242 0.02092 0.60677 0.0
H1373 H 0.73727 1.01087 0.9156 0.0
H1374 H 0.72715 0.04603 0.73646 0.0
H1375 H 0.76249 0.98576 0.78595 0.0
C1376 C 0.76859 0.98583 0.70388 0.0
C1377 C 0.76618 0.99599 0.65276 0.0
C1378 C 0.72957 0.03861 0.77577 0.0
C1379 C 0.74909 1.01099 0.73843 0.0
C1380 C 0.72105 0.04589 0.81853 0.0
C1381 C 0.72347 0.03571 0.86963 0.0
C1382 C 0.7406 0.02087 0.78397 0.0
C1383 C 0.73519 0.01947 0.87705 0.0
C1384 C 0.76009 0.9932 0.74664 0.0
C1385 C 0.7545 1.01233 0.64533 0.0
N1386 N 0.74324 1.0123 0.83448 0.0
N1387 N 0.74646 0.01956 0.68791 0.0
H1388 H 0.96169 0.79974 0.71365 0.0
H1389 H 0.0294 0.7209 0.81338 0.0
H1390 H 0.98732 0.75249 0.60977 0.0
H1391 H 0.00299 0.76659 0.91744 0.0
H1392 H 0.01382 0.7312 0.73901 0.0
H1393 H 0.9772 0.78898 0.78784 0.0
C1394 C 0.97085 0.78761 0.70621 0.0
C1395 C 0.97328 0.77706 0.65543 0.0
C1396 C 0.01126 0.73866 0.77817 0.0
C1397 C 0.99089 0.76403 0.74075 0.0
C1398 C 0.02005 0.73253 0.82083 0.0
C1399 C 0.01741 0.74282 0.87171 0.0
C1400 C -0.00026 0.75534 0.78624 0.0
C1401 C 0.00527 0.75796 0.87907 0.0
C1402 C 0.9796 0.78121 0.74878 0.0
C1403 C 0.9852 0.76131 0.64808 0.0
N1404 N -0.00305 0.76402 0.83657 0.0
N1405 N 0.99351 0.75504 0.69051 0.0
H1406 H 0.21038 0.72214 0.46481 0.0
H1407 H 0.28 0.79692 0.55914 0.0
H1408 H 0.23736 0.76547 0.35829 0.0
H1409 H 0.25351 0.75265 0.66578 0.0
H1410 H 0.26416 0.78647 0.48581 0.0
H1411 H 0.22643 0.73177 0.53812 0.0
C1412 C 0.21993 0.73312 0.45661 0.0
C1413 C 0.2226 0.74297 0.40538 0.0
C1414 C 0.26166 0.77928 0.52526 0.0
C1415 C 0.24082 0.7547 0.48957 0.0
C1416 C 0.27061 0.78547 0.56733 0.0
C1417 C 0.26802 0.77567 0.61865 0.0
C1418 C 0.24999 0.76306 0.53437 0.0
C1419 C 0.25579 0.76085 0.62699 0.0
C1420 C 0.229 0.73887 0.49866 0.0
C1421 C 0.23502 0.75723 0.39701 0.0
N1422 N 0.24727 0.75477 0.58505 0.0
N1423 N 0.24362 0.76293 0.43891 0.0
H1424 H 0.98615 0.53087 0.67385 0.0
H1425 H 0.0027 0.50875 0.3634 0.0
H1426 H 0.96718 0.47063 0.57833 0.0
H1427 H 0.02822 0.5575 0.46454 0.0
H1428 H 0.98739 0.49902 0.44002 0.0
H1429 H 0.00093 0.54308 0.59727 0.0
C1430 C 0.98536 0.51978 0.63735 0.0
C1431 C 0.9754 0.49974 0.6325 0.0
C1432 C -0.00377 0.51216 0.44522 0.0
C1433 C 0.99178 0.51425 0.54428 0.0
C1434 C 0.00477 0.5181 0.40123 0.0
C1435 C 0.01666 0.53402 0.40769 0.0
C1436 C -0.00035 0.52227 0.49574 0.0
C1437 C 0.01911 0.54514 0.45796 0.0
C1438 C 0.99362 0.52702 0.59336 0.0
C1439 C 0.97466 0.48632 0.58382 0.0
N1440 N 0.01077 0.5389 0.50014 0.0
N1441 N 0.98258 0.494 0.54153 0.0
H1442 H 0.25392 0.52844 0.60684 0.0
H1443 H 0.23684 0.51003 0.91797 0.0
H1444 H 0.27327 0.47023 0.70657 0.0
H1445 H 0.21143 0.55719 0.81332 0.0
H1446 H 0.25237 0.49958 0.84248 0.0
H1447 H 0.23894 0.54132 0.6823 0.0
C1448 C 0.25477 0.51793 0.64407 0.0
C1449 C 0.26488 0.49827 0.65036 0.0
C1450 C 0.2435 0.51253 0.83624 0.0
C1451 C 0.24824 0.51354 0.73729 0.0
C1452 C 0.23482 0.51887 0.87957 0.0
C1453 C 0.2229 0.53455 0.87183 0.0
C1454 C 0.2402 0.52199 0.78508 0.0
C1455 C 0.22055 0.54503 0.82089 0.0
C1456 C 0.24639 0.52556 0.6874 0.0
C1457 C 0.26567 0.48561 0.69991 0.0
N1458 N 0.22903 0.53839 0.77938 0.0
N1459 N 0.25761 0.49364 0.74152 0.0
H1460 H 0.77934 0.30405 0.56301 0.0
H1461 H 0.7107 0.22578 0.47033 0.0
H1462 H 0.75284 0.26031 0.67053 0.0
H1463 H 0.73624 0.27154 0.36311 0.0
H1464 H 0.72653 0.23703 0.54325 0.0
H1465 H 0.76342 0.29338 0.48991 0.0
C1466 C 0.76991 0.29276 0.57147 0.0
C1467 C 0.76734 0.28313 0.62296 0.0
C1468 C 0.72882 0.24437 0.50375 0.0
C1469 C 0.74928 0.27018 0.53899 0.0
C1470 C 0.71989 0.23772 0.46191 0.0
C1471 C 0.72221 0.24771 0.41056 0.0
C1472 C 0.7402 0.26125 0.49438 0.0
C1473 C 0.73419 0.26317 0.40192 0.0
C1474 C 0.76092 0.28642 0.52955 0.0
C1475 C 0.75509 0.26842 0.63163 0.0
N1476 N 0.74269 0.2697 0.44364 0.0
N1477 N 0.74658 0.26213 0.58984 0.0
H1478 H 0.7356 0.49485 0.4208 0.0
H1479 H 0.75174 0.51561 0.10972 0.0
H1480 H 0.71645 0.55448 0.32414 0.0
H1481 H 0.77815 0.46909 0.21208 0.0
H1482 H 0.73637 0.52506 0.18624 0.0
H1483 H 0.7504 0.48249 0.3444 0.0
C1484 C 0.73477 0.50578 0.38408 0.0
C1485 C 0.72476 0.52569 0.37887 0.0
C1486 C 0.74543 0.51247 0.19174 0.0
C1487 C 0.74115 0.51101 0.29091 0.0
C1488 C 0.75401 0.50668 0.14783 0.0
C1489 C 0.76616 0.49151 0.15465 0.0
C1490 C 0.74906 0.50294 0.24254 0.0
C1491 C 0.76883 0.48088 0.20524 0.0
C1492 C 0.74304 0.49845 0.34022 0.0
C1493 C 0.72397 0.5389 0.32993 0.0
N1494 N 0.76044 0.48698 0.24734 0.0
N1495 N 0.7319 0.53113 0.28778 0.0
H1496 H 0.48759 0.98817 0.67096 0.0
H1497 H 0.50547 0.04937 0.38338 0.0
H1498 H 0.46201 0.04666 0.5947 0.0
H1499 H 0.5288 0.98674 0.45574 0.0
H1500 H 0.48935 0.0493 0.46073 0.0
H1501 H 0.50391 0.98966 0.59461 0.0
C1502 C 0.48559 1.00167 0.63876 0.0
C1503 C 0.47343 0.01714 0.63886 0.0
C1504 C 0.49798 0.03551 0.45942 0.0
C1505 C 0.49169 0.01857 0.55114 0.0
C1506 C 0.50702 0.03537 0.41502 0.0
C1507 C 0.5185 0.01824 0.41359 0.0
C1508 C 0.50054 0.01839 0.50223 0.0
C1509 C 0.52018 1.0006 0.45581 0.0
C1510 C 0.49476 1.00231 0.59486 0.0
C1511 C 0.47122 0.03416 0.59585 0.0
N1512 N 0.5114 1.00125 0.49847 0.0
N1513 N 0.48017 0.03427 0.5536 0.0
H1514 H 0.46088 0.29952 0.72429 0.0
H1515 H 0.52707 0.21559 0.82028 0.0
H1516 H 0.48507 0.25076 0.61839 0.0
H1517 H 0.50118 0.26119 0.92635 0.0
H1518 H 0.51146 0.2269 0.74656 0.0
H1519 H 0.47598 0.28644 0.79794 0.0
C1520 C 0.46961 0.28646 0.71631 0.0
C1521 C 0.47175 0.27623 0.66505 0.0
C1522 C 0.50902 0.23409 0.78603 0.0
C1523 C 0.48895 0.26068 0.74983 0.0
C1524 C 0.51782 0.2274 0.82831 0.0
C1525 C 0.51536 0.23741 0.87954 0.0
C1526 C 0.49768 0.25108 0.79488 0.0
C1527 C 0.50334 0.25279 0.88766 0.0
C1528 C 0.47814 0.27878 0.7586 0.0
C1529 C 0.48317 0.25934 0.65709 0.0
N1530 N 0.49503 0.25943 0.84554 0.0
N1531 N 0.49129 0.2519 0.69925 0.0
H1532 H 0.46481 0.80741 0.20625 0.0
H1533 H 0.52254 0.71174 0.32843 0.0
H1534 H 0.4878 0.75128 0.11299 0.0
H1535 H 0.50522 0.77632 0.41601 0.0
H1536 H 0.50855 0.72428 0.25123 0.0
H1537 H 0.47927 0.79655 0.28356 0.0
C1538 C 0.47326 0.79337 0.20168 0.0
C1539 C 0.47523 0.78036 0.1531 0.0
C1540 C 0.50764 0.73556 0.28745 0.0
C1541 C 0.49146 0.7671 0.24201 0.0
C1542 C 0.51547 0.7282 0.33189 0.0
C1543 C 0.51504 0.74302 0.37883 0.0
C1544 C 0.4992 0.75787 0.28983 0.0
C1545 C 0.50576 0.76419 0.38089 0.0
C1546 C 0.48138 0.78695 0.24602 0.0
C1547 C 0.48612 0.76205 0.14947 0.0
N1548 N 0.49828 0.77113 0.33676 0.0
N1549 N 0.49372 0.75568 0.19366 0.0
H1550 H 0.53021 0.55207 0.96288 0.0
H1551 H 0.46282 0.47699 0.07682 0.0
H1552 H 0.50213 0.50626 0.86563 0.0
H1553 H 0.488 0.52899 0.1724 0.0
H1554 H 0.47774 0.48644 1.00027 0.0
H1555 H 0.51478 0.54486 0.03944 0.0
C1556 C 0.52053 0.5411 0.95734 0.0
C1557 C 0.51738 0.52982 0.9078 0.0
C1558 C 0.48014 0.49563 0.03798 0.0
C1559 C 0.49989 0.52082 0.99579 0.0
C1560 C 0.47172 0.49003 0.08199 0.0
C1561 C 0.47419 0.50223 0.13118 0.0
C1562 C 0.49121 0.51356 0.0429 0.0
C1563 C 0.48583 0.51895 0.13544 0.0
C1564 C 0.51182 0.53676 1.00125 0.0
C1565 C 0.50483 0.51558 0.9029 0.0
N1566 N 0.49387 0.52429 0.09163 0.0
N1567 N 0.49661 0.5112 0.94662 0.0
H1568 H 0.38646 0.25443 0.54093 0.0
H1569 H 0.35291 0.24683 0.24996 0.0
H1570 H 0.41094 0.26006 0.39573 0.0
H1571 H 0.32817 0.2568 0.39345 0.0
H1572 H 0.37428 0.24427 0.30381 0.0
H1573 H 0.36515 0.24805 0.48806 0.0
C1574 C 0.3874 0.25415 0.49792 0.0
C1575 C 0.40052 0.25808 0.47271 0.0
C1576 C 0.36417 0.24685 0.32353 0.0
C1577 C 0.3761 0.25076 0.41208 0.0
C1578 C 0.35194 0.24827 0.29285 0.0
C1579 C 0.33873 0.25234 0.31722 0.0
C1580 C 0.36321 0.24947 0.37899 0.0
C1581 C 0.33814 0.25386 0.37296 0.0
C1582 C 0.3752 0.25053 0.46781 0.0
C1583 C 0.40105 0.25733 0.41688 0.0
N1584 N 0.35024 0.2526 0.40199 0.0
N1585 N 0.38898 0.2539 0.38841 0.0
H1586 H 0.82764 0.01486 0.38276 0.0
H1587 H 0.91189 0.01967 0.39264 0.0
H1588 H 0.85163 0.0272 0.52705 0.0
H1589 H 0.88785 0.01977 0.24627 0.0
H1590 H 0.88985 0.0248 0.44243 0.0
H1591 H 0.84953 0.01902 0.33133 0.0
C1592 C 0.83747 0.01868 0.40358 0.0
C1593 C 0.83783 0.02037 0.45929 0.0
C1594 C 0.88943 0.02393 0.39936 0.0
C1595 C 0.86286 0.025 0.40091 0.0
C1596 C 0.90201 0.02093 0.37094 0.0
C1597 C 0.90172 0.01895 0.31526 0.0
C1598 C 0.87647 0.02473 0.37188 0.0
C1599 C 0.88861 0.02101 0.28921 0.0
C1600 C 0.84996 0.02107 0.37423 0.0
C1601 C 0.85085 0.02548 0.48418 0.0
N1602 N 0.8765 0.02352 0.31778 0.0
N1603 N 0.86286 0.02736 0.45485 0.0
H1604 H 0.41072 0.01519 0.90413 0.0
H1605 H 0.32649 1.01227 0.88599 0.0
H1606 H 0.38739 0.02721 0.75818 0.0
H1607 H 0.34931 0.01418 0.03501 0.0
H1608 H 0.34882 0.01829 0.83854 0.0
H1609 H 0.3884 0.01578 0.9534 0.0
C1610 C 0.40095 0.01821 0.88248 0.0
C1611 C 0.40093 0.02092 0.82687 0.0
C1612 C 0.34892 0.01756 0.88166 0.0
C1613 C 0.37539 0.02136 0.88287 0.0
C1614 C 0.33618 0.01403 0.90874 0.0
C1615 C 0.33605 1.01256 0.9645 0.0
C1616 C 0.36162 0.01942 0.91053 0.0
C1617 C 0.34892 0.01513 0.99196 0.0
C1618 C 0.38821 0.01851 0.91063 0.0
C1619 C 0.38793 0.02482 0.80097 0.0
N1620 N 0.36121 0.01825 0.96465 0.0
N1621 N 0.37568 0.02469 0.82915 0.0
H1622 H 0.8525 0.24709 0.74427 0.0
H1623 H 0.88775 0.24704 0.03245 0.0
H1624 H 0.82902 0.25935 0.89 0.0
H1625 H 0.91159 0.2521 0.88571 0.0
H1626 H 0.86603 0.24331 0.98106 0.0
H1627 H 0.87395 0.24083 0.79624 0.0
C1628 C 0.85181 0.2483 0.78727 0.0
C1629 C 0.83896 0.25409 0.81284 0.0
C1630 C 0.87603 0.24506 0.96013 0.0
C1631 C 0.86354 0.2469 0.87245 0.0
C1632 C 0.88847 0.24715 0.98939 0.0
C1633 C 0.90154 0.2503 0.96333 0.0
C1634 C 0.87663 0.24605 0.90442 0.0
C1635 C 0.90176 0.25005 0.90749 0.0
C1636 C 0.86409 0.24472 0.81686 0.0
C1637 C 0.83872 0.25512 0.86864 0.0
N1638 N 0.88946 0.24817 0.87984 0.0
N1639 N 0.85088 0.25174 0.89663 0.0
H1640 H 0.6023 0.76023 0.48985 0.0
H1641 H 0.63837 0.78145 0.77368 0.0
H1642 H 0.57928 0.76161 0.63868 0.0
H1643 H 0.66204 0.76195 0.63181 0.0
H1644 H 0.61671 0.78163 0.72148 0.0
H1645 H 0.62428 0.76758 0.53865 0.0
C1646 C 0.60185 0.76219 0.53277 0.0
C1647 C 0.58895 0.76012 0.56033 0.0
C1648 C 0.62665 0.77747 0.70169 0.0
C1649 C 0.61403 0.76864 0.61616 0.0
C1650 C 0.63906 0.77743 0.73141 0.0
C1651 C 0.65204 0.77134 0.70718 0.0
C1652 C 0.62719 0.77142 0.64731 0.0
C1653 C 0.65225 0.76656 0.65218 0.0
C1654 C 0.6144 0.76636 0.56053 0.0
C1655 C 0.589 0.76286 0.61588 0.0
N1656 N 0.63997 0.76651 0.62408 0.0
N1657 N 0.60137 0.76694 0.64199 0.0
H1658 H 0.10252 1.00067 0.78613 0.0
H1659 H 0.13748 1.00032 0.49713 0.0
H1660 H 0.07865 1.01031 0.64068 0.0
H1661 H 0.16131 1.01082 0.6424 0.0
H1662 H 0.11594 0.99572 0.54952 0.0
H1663 H 0.12407 0.99613 0.73381 0.0
C1664 C 0.10176 1.00163 0.74312 0.0
C1665 C 0.08875 1.00619 0.71772 0.0
C1666 C 0.12589 0.99887 0.56992 0.0
C1667 C 0.11346 1.00098 0.65776 0.0
C1668 C 0.13823 1.00145 0.54011 0.0
C1669 C 0.15123 1.00627 0.56544 0.0
C1670 C 0.12653 1.001 0.62548 0.0
C1671 C 0.15152 1.00733 0.62122 0.0
C1672 C 0.11411 0.99907 0.71335 0.0
C1673 C 0.08846 1.00702 0.66192 0.0
N1674 N 0.1393 1.00487 0.64943 0.0
N1675 N 0.10068 1.0046 0.63374 0.0
H1676 H 0.63795 1.00352 0.99423 0.0
H1677 H 0.60445 0.99794 0.28567 0.0
H1678 H 0.66244 1.01163 0.1386 0.0
H1679 H 0.57968 1.00701 0.14223 0.0
H1680 H 0.62584 0.99565 0.23173 0.0
H1681 H 0.61669 0.99755 0.04771 0.0
C1682 C 0.6389 1.00387 0.03722 0.0
C1683 C 0.652 1.00834 0.06202 0.0
C1684 C 0.61572 0.99799 0.21206 0.0
C1685 C 0.62764 1.00151 0.12333 0.0
C1686 C 0.60347 0.99926 0.24277 0.0
C1687 C 0.59025 1.00294 0.21842 0.0
C1688 C 0.61475 1.00035 0.15658 0.0
C1689 C 0.58966 1.00434 0.16269 0.0
C1690 C 0.62672 1.00049 0.06767 0.0
C1691 C 0.65255 1.00842 0.11782 0.0
N1692 N 0.60178 1.00319 0.1336 0.0
N1693 N 0.6405 1.00519 0.14666 0.0
H1694 H 0.10263 0.77764 0.99448 0.0
H1695 H 0.1373 0.77873 0.28352 0.0
H1696 H 0.07872 0.76713 0.13987 0.0
H1697 H 0.16128 0.76872 0.13818 0.0
H1698 H 0.11579 0.78316 0.2311 0.0
H1699 H 0.12408 0.783 0.04686 0.0
C1700 C 0.10184 0.77666 0.03748 0.0
C1701 C 0.08886 0.77161 0.06287 0.0
C1702 C 0.12577 0.78018 0.2107 0.0
C1703 C 0.11344 0.77777 0.12288 0.0
C1704 C 0.13809 0.77769 0.24052 0.0
C1705 C 0.15111 0.77301 0.21516 0.0
C1706 C 0.12647 0.77809 0.15514 0.0
C1707 C 0.15146 0.77208 0.15938 0.0
C1708 C 0.11412 0.7797 0.06729 0.0
C1709 C 0.08851 0.77078 0.11866 0.0
N1710 N 0.13927 0.77442 0.13117 0.0
N1711 N 0.10067 0.77367 0.14687 0.0
H1712 H 0.32924 0.75911 0.88853 0.0
H1713 H 0.41372 0.76044 0.88511 0.0
H1714 H 0.3543 0.75141 0.74522 0.0
H1715 H 0.38872 0.75689 0.02927 0.0
H1716 H 0.39204 0.75569 0.83303 0.0
H1717 H 0.35094 0.75675 0.94115 0.0
C1718 C 0.33927 0.75672 0.86815 0.0
C1719 C 0.33996 0.75567 0.8124 0.0
C1720 C 0.39133 0.75576 0.87609 0.0
C1721 C 0.3648 0.75313 0.87222 0.0
C1722 C 0.4037 0.7585 0.90582 0.0
C1723 C 0.40302 0.75926 0.96159 0.0
C1724 C 0.37821 0.75393 0.90237 0.0
C1725 C 0.38975 0.75656 0.98633 0.0
C1726 C 0.35166 0.75536 0.89819 0.0
C1727 C 0.35325 0.75247 0.78811 0.0
N1728 N 0.37786 0.75421 0.95652 0.0
N1729 N 0.36516 0.75152 0.81816 0.0
H1730 H 0.9114 0.51538 0.89468 0.0
H1731 H 0.82715 0.51092 0.88339 0.0
H1732 H 0.88797 0.51351 0.74706 0.0
H1733 H 0.85102 0.52827 0.02575 0.0
H1734 H 0.84913 0.51286 0.83181 0.0
H1735 H 0.88919 0.52065 0.94309 0.0
C1736 C 0.90159 0.51615 0.87243 0.0
C1737 C 0.90153 0.51384 0.81681 0.0
C1738 C 0.8495 0.51649 0.87427 0.0
C1739 C 0.87606 0.51983 0.87192 0.0
C1740 C 0.83696 0.51542 0.90371 0.0
C1741 C 0.83727 0.51915 0.95905 0.0
C1742 C 0.86239 0.52116 0.90051 0.0
C1743 C 0.85027 0.525 0.98326 0.0
C1744 C 0.88891 0.51927 0.90006 0.0
C1745 C 0.8885 0.51517 0.79 0.0
N1746 N 0.86232 0.52557 0.95391 0.0
N1747 N 0.87627 0.51787 0.81787 0.0
H1748 H 0.32919 0.51354 0.38877 0.0
H1749 H 0.41339 0.51462 0.40455 0.0
H1750 H 0.35217 0.51368 0.53745 0.0
H1751 H 0.38986 0.53054 0.26065 0.0
H1752 H 0.3912 0.51543 0.45477 0.0
H1753 H 0.35146 0.5203 0.34129 0.0
C1754 C 0.33891 0.51505 0.41144 0.0
C1755 C 0.33883 0.51288 0.4671 0.0
C1756 C 0.39094 0.51902 0.41228 0.0
C1757 C 0.36434 0.5206 0.41309 0.0
C1758 C 0.40361 0.51862 0.38359 0.0
C1759 C 0.40348 0.52223 0.32819 0.0
C1760 C 0.37809 0.52286 0.38525 0.0
C1761 C 0.39048 0.52737 0.30321 0.0
C1762 C 0.35161 0.51903 0.38435 0.0
C1763 C 0.35173 0.51518 0.49447 0.0
N1764 N 0.3783 0.52726 0.33183 0.0
N1765 N 0.36399 0.51871 0.46714 0.0
H1766 H 0.82726 0.7594 0.39303 0.0
H1767 H 0.91162 0.75665 0.38752 0.0
H1768 H 0.85188 0.74993 0.24909 0.0
H1769 H 0.8869 0.75183 0.5322 0.0
H1770 H 0.88981 0.75286 0.33588 0.0
H1771 H 0.84899 0.75524 0.44511 0.0
C1772 C 0.83719 0.75623 0.3724 0.0
C1773 C 0.83776 0.75525 0.31663 0.0
C1774 C 0.88919 0.7524 0.37895 0.0
C1775 C 0.86263 0.75067 0.37579 0.0
C1776 C 0.90164 0.75459 0.40843 0.0
C1777 C 0.90108 0.75477 0.46423 0.0
C1778 C 0.87611 0.75059 0.40555 0.0
C1779 C 0.88785 0.75195 0.48923 0.0
C1780 C 0.84959 0.75384 0.40212 0.0
C1781 C 0.85093 0.751 0.292 0.0
N1782 N 0.87588 0.7502 0.4597 0.0
N1783 N 0.86285 0.7491 0.32173 0.0
H1784 H 0.63575 0.27277 0.28999 0.0
H1785 H 0.60085 0.27085 1.00118 0.0
H1786 H 0.65979 0.26541 0.14413 0.0
H1787 H 0.57706 0.26044 0.14687 0.0
H1788 H 0.62232 0.27644 0.05331 0.0
H1789 H 0.6141 0.27583 0.23797 0.0
C1790 C 0.63652 0.27199 0.24697 0.0
C1791 C 0.64961 0.26854 0.22134 0.0
C1792 C 0.6124 0.27308 0.07388 0.0
C1793 C 0.6248 0.27204 0.16172 0.0
C1794 C 0.6001 0.26991 0.0442 0.0
C1795 C 0.58714 0.26487 0.06973 0.0
C1796 C 0.61175 0.27127 0.12951 0.0
C1797 C 0.58684 0.2641 0.12554 0.0
C1798 C 0.62412 0.2737 0.21736 0.0
C1799 C 0.64992 0.26787 0.16553 0.0
N1800 N 0.59901 0.26711 0.15363 0.0
N1801 N 0.63765 0.26945 0.13753 0.0
H1802 H 0.10228 0.50108 0.28406 0.0
H1803 H 0.13712 0.50255 0.99466 0.0
H1804 H 0.0783 0.51108 0.13901 0.0
H1805 H 0.16108 0.51166 0.14003 0.0
H1806 H 0.11558 0.49802 0.04709 0.0
H1807 H 0.12384 0.49725 0.23148 0.0
C1808 C 0.1015 0.50227 0.24108 0.0
C1809 C 0.08845 0.50668 0.21589 0.0
C1810 C 0.12555 0.50086 0.06751 0.0
C1811 C 0.11317 0.50231 0.1556 0.0
C1812 C 0.1379 0.50341 0.03767 0.0
C1813 C 0.15094 0.50776 0.06301 0.0
C1814 C 0.12623 0.50256 0.12314 0.0
C1815 C 0.15125 0.5085 0.11883 0.0
C1816 C 0.11385 0.50013 0.21116 0.0
C1817 C 0.08813 0.50786 0.1601 0.0
N1818 N 0.13904 0.50607 0.14707 0.0
N1819 N 0.10035 0.50583 0.13178 0.0
H1820 H 0.63746 0.51021 0.49208 0.0
H1821 H 0.60161 0.48924 0.77686 0.0
H1822 H 0.66061 0.50887 0.64037 0.0
H1823 H 0.57788 0.50953 0.63581 0.0
H1824 H 0.62321 0.48873 0.72401 0.0
H1825 H 0.61551 0.50304 0.54147 0.0
C1826 C 0.63795 0.50829 0.53501 0.0
C1827 C 0.65088 0.51031 0.56224 0.0
C1828 C 0.61327 0.49313 0.70454 0.0
C1829 C 0.62583 0.50199 0.61874 0.0
C1830 C 0.60089 0.49335 0.73463 0.0
C1831 C 0.58792 0.49978 0.71084 0.0
C1832 C 0.61269 0.49933 0.65022 0.0
C1833 C 0.58766 0.50466 0.65586 0.0
C1834 C 0.62541 0.50423 0.5631 0.0
C1835 C 0.65087 0.50765 0.61781 0.0
N1836 N 0.59991 0.50454 0.6274 0.0
N1837 N 0.63852 0.50365 0.64425 0.0
H1838 H 0.162 0.26835 0.63637 0.0
H1839 H 0.07784 0.26765 0.64236 0.0
H1840 H 0.13745 0.27691 0.78073 0.0
H1841 H 0.10235 0.27666 0.49797 0.0
H1842 H 0.09958 0.27242 0.69413 0.0
H1843 H 0.14025 0.27276 0.58458 0.0
C1844 C 0.15208 0.27139 0.65715 0.0
C1845 C 0.15152 0.27199 0.71292 0.0
C1846 C 0.10015 0.27363 0.65111 0.0
C1847 C 0.12665 0.27686 0.65414 0.0
C1848 C 0.08775 0.27087 0.62158 0.0
C1849 C 0.08831 0.27148 0.5658 0.0
C1850 C 0.11316 0.27677 0.62456 0.0
C1851 C 0.10143 0.27584 0.54092 0.0
C1852 C 0.13967 0.27394 0.6276 0.0
C1853 C 0.13838 0.2761 0.73778 0.0
N1854 N 0.11336 0.27804 0.57048 0.0
N1855 N 0.12644 0.27811 0.70822 0.0
H1856 H 0.28504 0.23219 0.60554 0.0
H1857 H 0.31818 0.31286 0.84862 0.0
H1858 H 0.30423 0.30763 0.58714 0.0
H1859 H 0.29946 0.23694 0.86583 0.0
H1860 H 0.31307 0.31146 0.75324 0.0
H1861 H 0.29006 0.23387 0.70085 0.0
C1862 C 0.29025 0.24921 0.62148 0.0
C1863 C 0.29414 0.26987 0.5879 0.0
C1864 C 0.31007 0.29511 0.77785 0.0
C1865 C 0.30008 0.27178 0.69772 0.0
C1866 C 0.31305 0.29582 0.83244 0.0
C1867 C 0.30932 0.27493 0.86571 0.0
C1868 C 0.30329 0.27335 0.75591 0.0
C1869 C 0.30242 0.25365 0.84219 0.0
C1870 C 0.29318 0.25008 0.67604 0.0
C1871 C 0.30114 0.29112 0.61111 0.0
N1872 N 0.29968 0.25339 0.78892 0.0
N1873 N 0.30384 0.29155 0.66444 0.0
H1874 H 0.93168 0.0346 0.58498 0.0
H1875 H 0.95533 0.99188 0.8789 0.0
H1876 H 0.96836 0.98706 0.61644 0.0
H1877 H 0.91475 0.02588 0.84231 0.0
H1878 H 0.96172 0.99457 0.7844 0.0
H1879 H 0.92671 0.03585 0.68038 0.0
C1880 C 0.9387 0.02438 0.61181 0.0
C1881 C 0.95041 1.0105 0.59219 0.0
C1882 C 0.95143 1.00151 0.7971 0.0
C1883 C 0.94484 1.01219 0.70214 0.0
C1884 C 0.94781 1.00013 0.85111 0.0
C1885 C 0.93443 1.00852 0.86861 0.0
C1886 C 0.94167 1.01154 0.76026 0.0
C1887 C 0.92508 0.01881 0.83059 0.0
C1888 C 0.93587 0.02521 0.66643 0.0
C1889 C 0.95928 0.99821 0.62943 0.0
N1890 N 0.92887 0.02001 0.77835 0.0
N1891 N 0.95629 0.99926 0.68246 0.0
H1892 H 0.27939 0.98594 0.40198 0.0
H1893 H 0.30504 0.02983 0.69328 0.0
H1894 H 0.31992 0.02121 0.43451 0.0
H1895 H 0.26633 0.9874 0.66538 0.0
H1896 H 0.3098 0.0293 0.59773 0.0
H1897 H 0.27347 0.98924 0.49689 0.0
C1898 C 0.28701 0.99456 0.4289 0.0
C1899 C 0.30024 1.00311 0.41001 0.0
C1900 C 0.30024 0.02014 0.61243 0.0
C1901 C 0.29354 1.0068 0.51907 0.0
C1902 C 0.29754 0.02029 0.66722 0.0
C1903 C 0.28529 1.00847 0.68795 0.0
C1904 C 0.29064 1.00812 0.57754 0.0
C1905 C 0.27585 0.99698 0.65154 0.0
C1906 C 0.28365 0.99629 0.48321 0.0
C1907 C 0.3097 0.01391 0.44713 0.0
N1908 N 0.27874 0.99702 0.59831 0.0
N1909 N 0.30618 0.0154 0.49963 0.0
H1910 H 0.94547 0.23311 0.40763 0.0
H1911 H 0.93302 0.29829 0.69341 0.0
H1912 H 0.92085 0.30251 0.43344 0.0
H1913 H 0.96313 0.23665 0.66765 0.0
H1914 H 0.92782 0.29861 0.59834 0.0
H1915 H 0.95174 0.23299 0.50231 0.0
C1916 C 0.94144 0.24841 0.43297 0.0
C1917 C 0.9325 0.26774 0.41227 0.0
C1918 C 0.93558 0.285 0.61332 0.0
C1919 C 0.93952 0.26748 0.52102 0.0
C1920 C 0.93848 0.28467 0.66778 0.0
C1921 C 0.94846 0.26728 0.68874 0.0
C1922 C 0.94263 0.26771 0.57916 0.0
C1923 C 0.95541 0.25048 0.65323 0.0
C1924 C 0.94498 0.24824 0.48714 0.0
C1925 C 0.9275 0.28686 0.44748 0.0
N1926 N 0.95232 0.25102 0.60023 0.0
N1927 N 0.93103 0.28617 0.49991 0.0
H1928 H 0.70365 0.74225 0.14978 0.0
H1929 H 0.674 0.76006 0.44776 0.0
H1930 H 0.66006 0.76004 0.18668 0.0
H1931 H 0.71758 0.742 0.41139 0.0
H1932 H 0.66865 0.7594 0.35248 0.0
H1933 H 0.70898 0.74216 0.24515 0.0
C1934 C 0.69519 0.74627 0.17777 0.0
C1935 C 0.68135 0.7511 0.15974 0.0
C1936 C 0.67938 0.75555 0.36532 0.0
C1937 C 0.6874 0.75074 0.26962 0.0
C1938 C 0.68244 0.75574 0.4199 0.0
C1939 C 0.69629 0.75114 0.43806 0.0
C1940 C 0.69023 0.75069 0.3282 0.0
C1941 C 0.70679 0.74607 0.39956 0.0
C1942 C 0.69824 0.74605 0.23239 0.0
C1943 C 0.67084 0.75581 0.19838 0.0
N1944 N 0.70355 0.74601 0.34669 0.0
N1945 N 0.67408 0.75552 0.25122 0.0
H1946 H 0.06918 0.0689 0.1851 0.0
H1947 H 0.03382 0.98997 0.42671 0.0
H1948 H 0.04813 0.99518 0.16622 0.0
H1949 H 0.05518 0.06332 0.44666 0.0
H1950 H 0.03878 0.99185 0.33133 0.0
H1951 H 0.06407 0.06738 0.28053 0.0
C1952 C 0.06353 0.05231 0.20091 0.0
C1953 C 0.05915 0.03208 0.16717 0.0
C1954 C 0.0424 1.00755 0.35649 0.0
C1955 C 0.05312 0.03036 0.27702 0.0
C1956 C 0.03949 1.00658 0.41111 0.0
C1957 C 0.04401 0.02658 0.44516 0.0
C1958 C 0.0499 0.0287 0.33524 0.0
C1959 C 0.05159 0.0473 0.42233 0.0
C1960 C 0.06055 0.05154 0.25553 0.0
C1961 C 0.05161 1.01138 0.19025 0.0
N1962 N 0.05426 0.04784 0.36895 0.0
N1963 N 0.04888 1.01104 0.24355 0.0
H1964 H 0.67141 0.07166 0.59408 0.0
H1965 H 0.70641 0.99274 0.35204 0.0
H1966 H 0.69206 0.99758 0.61252 0.0
H1967 H 0.68539 0.06639 0.33248 0.0
H1968 H 0.70142 0.99447 0.44741 0.0
H1969 H 0.6765 0.07024 0.49864 0.0
C1970 C 0.67696 0.05502 0.57817 0.0
C1971 C 0.68124 0.03465 0.6118 0.0
C1972 C 0.69788 1.01027 0.42233 0.0
C1973 C 0.68726 0.03306 0.50192 0.0
C1974 C 0.7008 1.00938 0.36772 0.0
C1975 C 0.69639 0.02952 0.33379 0.0
C1976 C 0.69048 0.03147 0.4437 0.0
C1977 C 0.6889 0.05028 0.35671 0.0
C1978 C 0.67994 0.0543 0.52354 0.0
C1979 C 0.68867 0.01389 0.58859 0.0
N1980 N 0.68622 0.05074 0.41009 0.0
N1981 N 0.69139 0.01361 0.53528 0.0
H1982 H 0.06717 0.75799 0.32591 0.0
H1983 H 0.03755 0.73596 0.62276 0.0
H1984 H 0.02387 0.73719 0.36108 0.0
H1985 H 0.08093 0.75608 0.58712 0.0
H1986 H 0.03231 0.73648 0.52733 0.0
H1987 H 0.07246 0.75676 0.42122 0.0
C1988 C 0.05879 0.75296 0.3535 0.0
C1989 C 0.04503 0.74775 0.33503 0.0
C1990 C 0.04298 0.74075 0.54038 0.0
C1991 C 0.05101 0.74663 0.4449 0.0
C1992 C 0.04597 0.74062 0.59502 0.0
C1993 C 0.05974 0.74592 0.61341 0.0
C1994 C 0.05379 0.74628 0.50348 0.0
C1995 C 0.07022 0.75146 0.57511 0.0
C1996 C 0.0618 0.75244 0.4081 0.0
C1997 C 0.03458 0.74176 0.37319 0.0
N1998 N 0.06703 0.75151 0.52222 0.0
N1999 N 0.03778 0.74139 0.42608 0.0
H2000 H 0.31803 0.76548 0.07288 0.0
H2001 H 0.28803 0.7833 0.37031 0.0
H2002 H 0.27424 0.78205 0.10879 0.0
H2003 H 0.3319 0.76764 0.33404 0.0
H2004 H 0.28274 0.78262 0.27493 0.0
H2005 H 0.32335 0.76673 0.16817 0.0
C2006 C 0.30954 0.76958 0.10064 0.0
C2007 C 0.29564 0.7736 0.08238 0.0
C2008 C 0.29353 0.77935 0.28783 0.0
C2009 C 0.30166 0.77472 0.1922 0.0
C2010 C 0.29656 0.77957 0.34244 0.0
C2011 C 0.31047 0.77558 0.36063 0.0
C2012 C 0.30447 0.77506 0.25077 0.0
C2013 C 0.32106 0.77122 0.32217 0.0
C2014 C 0.31257 0.77011 0.15522 0.0
C2015 C 0.28507 0.77842 0.12073 0.0
N2016 N 0.31785 0.77107 0.26931 0.0
N2017 N 0.28829 0.77882 0.17359 0.0
H2018 H 0.92257 0.46622 0.34657 0.0
H2019 H 0.96715 0.53521 0.1138 0.0
H2020 H 0.95042 0.53116 0.37489 0.0
H2021 H 0.93574 0.47582 0.08723 0.0
H2022 H 0.96229 0.53277 0.20968 0.0
H2023 H 0.92829 0.4684 0.25205 0.0
C2024 C 0.92983 0.48109 0.33302 0.0
C2025 C 0.93587 0.49873 0.36917 0.0
C2026 C 0.95646 0.52031 0.18282 0.0
C2027 C 0.94269 0.50104 0.26003 0.0
C2028 C 0.95927 0.52159 0.12802 0.0
C2029 C 0.9518 0.50579 0.09204 0.0
C2030 C 0.94615 0.50297 0.20206 0.0
C2031 C 0.94162 0.48871 0.11306 0.0
C2032 C 0.93316 0.48221 0.27883 0.0
C2033 C 0.94554 0.51704 0.34886 0.0
N2034 N 0.93912 0.48775 0.16643 0.0
N2035 N 0.94861 0.51777 0.29575 0.0
H2036 H 0.31653 0.46241 0.93565 0.0
H2037 H 0.27398 0.53425 0.16979 0.0
H2038 H 0.2907 0.53018 0.90871 0.0
H2039 H 0.30371 0.47197 0.19515 0.0
H2040 H 0.27874 0.53183 0.07383 0.0
H2041 H 0.31081 0.46453 0.03016 0.0
C2042 C 0.30971 0.47788 0.94952 0.0
C2043 C 0.30425 0.49633 0.91379 0.0
C2044 C 0.28422 0.51872 0.10044 0.0
C2045 C 0.29743 0.49862 0.02288 0.0
C2046 C 0.28146 0.52 0.15527 0.0
C2047 C 0.2885 0.50338 0.19092 0.0
C2048 C 0.29403 0.50056 0.08086 0.0
C2049 C 0.29819 0.48549 0.16956 0.0
C2050 C 0.30638 0.47898 1.00369 0.0
C2051 C 0.29513 0.51544 0.93444 0.0
N2052 N 0.30063 0.48456 0.11617 0.0
N2053 N 0.29205 0.51613 0.98754 0.0
H2054 H 0.92237 0.81616 0.93157 0.0
H2055 H 0.95462 0.73366 0.17378 0.0
H2056 H 0.94046 0.73985 0.91341 0.0
H2057 H 0.93608 0.80954 0.19307 0.0
H2058 H 0.94967 0.73583 0.07846 0.0
H2059 H 0.92738 0.81424 0.02698 0.0
C2060 C 0.92734 0.79893 0.94755 0.0
C2061 C 0.93092 0.77809 0.91401 0.0
C2062 C 0.94668 0.75203 0.10346 0.0
C2063 C 0.93684 0.77589 0.02384 0.0
C2064 C 0.94957 0.75087 0.15804 0.0
C2065 C 0.94584 0.77151 0.19186 0.0
C2066 C 0.93999 0.77399 0.08204 0.0
C2067 C 0.93904 0.79304 0.1689 0.0
C2068 C 0.93026 0.79791 1.00215 0.0
C2069 C 0.93762 0.75653 0.93728 0.0
N2070 N 0.93638 0.79374 0.11555 0.0
N2071 N 0.94031 0.75598 0.99057 0.0
H2072 H 0.68907 0.28477 0.66779 0.0
H2073 H 0.68484 0.21221 0.95059 0.0
H2074 H 0.67174 0.20796 0.68841 0.0
H2075 H 0.70239 0.28878 0.92878 0.0
H2076 H 0.67973 0.21036 0.85507 0.0
H2077 H 0.69421 0.28632 0.76311 0.0
C2078 C 0.68643 0.26813 0.69217 0.0
C2079 C 0.67992 0.24621 0.66966 0.0
C2080 C 0.68471 0.22757 0.87119 0.0
C2081 C 0.68564 0.24802 0.7796 0.0
C2082 C 0.68755 0.22871 0.92589 0.0
C2083 C 0.69412 0.25066 0.94807 0.0
C2084 C 0.68841 0.24854 0.83814 0.0
C2085 C 0.69753 0.27127 0.91362 0.0
C2086 C 0.68929 0.26911 0.74682 0.0
C2087 C 0.67656 0.22544 0.70383 0.0
N2088 N 0.69465 0.2697 0.86061 0.0
N2089 N 0.67945 0.22686 0.7569 0.0
H2090 H 0.06629 0.51871 0.9532 0.0
H2091 H 0.03663 0.54025 0.65663 0.0
H2092 H 0.02292 0.53894 0.91853 0.0
H2093 H 0.08007 0.52086 0.692 0.0
H2094 H 0.03135 0.53963 0.75209 0.0
H2095 H 0.07157 0.51996 0.85785 0.0
C2096 C 0.05788 0.52362 0.9257 0.0
C2097 C 0.04411 0.52868 0.94434 0.0
C2098 C 0.04204 0.53554 0.73897 0.0
C2099 C 0.05008 0.52981 0.8344 0.0
C2100 C 0.04506 0.53573 0.68431 0.0
C2101 C 0.05885 0.53067 0.66585 0.0
C2102 C 0.05287 0.53019 0.7758 0.0
C2103 C 0.06934 0.5253 0.70408 0.0
C2104 C 0.06089 0.52415 0.87108 0.0
C2105 C 0.03364 0.5345 0.90629 0.0
N2106 N 0.06613 0.52519 0.75698 0.0
N2107 N 0.03683 0.53489 0.85336 0.0
H2108 H 0.69986 0.49309 0.12275 0.0
H2109 H 0.68554 0.55264 0.83244 0.0
H2110 H 0.67351 0.55988 0.09276 0.0
H2111 H 0.71549 0.491 0.86066 0.0
H2112 H 0.68077 0.55465 0.92784 0.0
H2113 H 0.70578 0.49158 0.02771 0.0
C2114 C 0.69538 0.50755 0.09644 0.0
C2115 C 0.68604 0.52652 0.11617 0.0
C2116 C 0.6884 0.54067 0.91332 0.0
C2117 C 0.69267 0.52465 1.00682 0.0
C2118 C 0.69106 0.53937 0.85862 0.0
C2119 C 0.70088 0.52149 0.83813 0.0
C2120 C 0.69554 0.52391 0.94831 0.0
C2121 C 0.70791 0.50521 0.87451 0.0
C2122 C 0.69871 0.50657 0.04202 0.0
C2123 C 0.68049 0.54452 0.07963 0.0
N2124 N 0.70506 0.50673 0.9277 0.0
N2125 N 0.68384 0.54307 0.02701 0.0
H2126 H 0.02273 0.23662 0.86217 0.0
H2127 H 0.08123 0.25811 0.08957 0.0
H2128 H 0.06591 0.25921 0.82959 0.0
H2129 H 0.03794 0.23646 0.12271 0.0
H2130 H 0.07587 0.25803 0.99445 0.0
H2131 H 0.02812 0.23611 0.95733 0.0
C2132 C 0.03335 0.24159 0.87489 0.0
C2133 C 0.04385 0.2481 0.83736 0.0
C2134 C 0.06753 0.25328 0.02247 0.0
C2135 C 0.05015 0.24727 0.94702 0.0
C2136 C 0.0706 0.25317 0.07697 0.0
C2137 C 0.06006 0.24715 0.11466 0.0
C2138 C 0.05378 0.24733 1.00498 0.0
C2139 C 0.04641 0.24147 0.09548 0.0
C2140 C 0.03643 0.24116 0.9294 0.0
C2141 C 0.05748 0.25382 0.85666 0.0
N2142 N 0.04369 0.24165 0.04215 0.0
N2143 N 0.06021 0.25333 0.90996 0.0
H2144 H 0.7896 0.23462 0.10177 0.0
H2145 H 0.81543 0.32126 0.34874 0.0
H2146 H 0.80145 0.31514 0.08725 0.0
H2147 H 0.80219 0.24148 0.36318 0.0
H2148 H 0.81059 0.31939 0.25313 0.0
H2149 H 0.79435 0.23679 0.19724 0.0
C2150 C 0.79313 0.25283 0.1186 0.0
C2151 C 0.79504 0.27478 0.08608 0.0
C2152 C 0.80872 0.30229 0.27718 0.0
C2153 C 0.80066 0.27731 0.19606 0.0
C2154 C 0.81155 0.3033 0.33187 0.0
C2155 C 0.80927 0.28147 0.36437 0.0
C2156 C 0.80361 0.27924 0.2544 0.0
C2157 C 0.80398 0.2589 0.34007 0.0
C2158 C 0.79591 0.25401 0.17325 0.0
C2159 C 0.79995 0.29764 0.11039 0.0
N2160 N 0.80138 0.25836 0.28671 0.0
N2161 N 0.80254 0.29832 0.16378 0.0
H2162 H 0.42201 0.05123 0.35955 0.0
H2163 H 0.46562 0.98486 0.12209 0.0
H2164 H 0.45127 0.98787 0.38138 0.0
H2165 H 0.43888 0.0519 0.10005 0.0
H2166 H 0.46093 0.98663 0.21749 0.0
H2167 H 0.42826 0.05242 0.26488 0.0
C2168 C 0.42975 0.03758 0.34453 0.0
C2169 C 0.4361 0.01939 0.37869 0.0
C2170 C 0.45613 1.00105 0.19188 0.0
C2171 C 0.44335 0.02072 0.27016 0.0
C2172 C 0.45889 1.00018 0.13724 0.0
C2173 C 0.45266 0.01828 0.10258 0.0
C2174 C 0.447 0.02007 0.21243 0.0
C2175 C 0.44378 0.03729 0.1249 0.0
C2176 C 0.43337 0.03836 0.29047 0.0
C2177 C 0.44621 1.00244 0.35691 0.0
N2178 N 0.44118 0.03763 0.17827 0.0
N2179 N 0.44945 1.00344 0.30415 0.0
H2180 H 0.79728 0.03443 0.90814 0.0
H2181 H 0.80429 0.96269 0.19104 0.0
H2182 H 0.81775 0.9603 0.92883 0.0
H2183 H 0.78377 0.03669 0.16936 0.0
H2184 H 0.80946 0.96152 0.09548 0.0
H2185 H 0.792 0.03524 1.00346 0.0
C2186 C 0.80058 0.0182 0.93252 0.0
C2187 C 0.80801 0.99727 0.91 0.0
C2188 C 0.80382 0.97801 0.11163 0.0
C2189 C 0.80213 0.99827 0.02 0.0
C2190 C 0.80094 0.97878 0.16638 0.0
C2191 C 0.79353 0.9998 0.18865 0.0
C2192 C 0.79931 0.99842 0.07859 0.0
C2193 C 0.78931 0.01987 0.15417 0.0
C2194 C 0.79764 0.01877 0.98718 0.0
C2195 C 0.81219 0.97705 0.94422 0.0
N2196 N 0.79225 0.01868 0.10112 0.0
N2197 N 0.80921 0.97807 0.99729 0.0
H2198 H 0.40878 0.26396 0.9489 0.0
H2199 H 0.46828 0.28213 0.17315 0.0
H2200 H 0.4525 0.28107 0.91269 0.0
H2201 H 0.42513 0.25956 0.20652 0.0
H2202 H 0.46298 0.28093 0.07789 0.0
H2203 H 0.41476 0.26191 0.04332 0.0
C2204 C 0.41965 0.26734 0.96076 0.0
C2205 C 0.43012 0.27289 0.92256 0.0
C2206 C 0.45469 0.27618 0.10607 0.0
C2207 C 0.4371 0.27033 0.03123 0.0
C2208 C 0.45773 0.27669 0.16063 0.0
C2209 C 0.44714 0.27103 0.19838 0.0
C2210 C 0.44094 0.27005 0.08883 0.0
C2211 C 0.4336 0.26453 0.17928 0.0
C2212 C 0.42308 0.26602 1.0148 0.0
C2213 C 0.44408 0.27657 0.94052 0.0
N2214 N 0.4309 0.26431 0.12607 0.0
N2215 N 0.44714 0.27537 0.9935 0.0
H2216 H 0.2055 0.78848 0.92401 0.0
H2217 H 0.17028 0.70976 0.68239 0.0
H2218 H 0.18432 0.71492 0.94386 0.0
H2219 H 0.19135 0.7835 0.66364 0.0
H2220 H 0.17535 0.71117 0.77782 0.0
H2221 H 0.20053 0.78673 0.82869 0.0
C2222 C 0.19986 0.77186 0.90839 0.0
C2223 C 0.1954 0.75174 0.94238 0.0
C2224 C 0.17888 0.72704 0.75285 0.0
C2225 C 0.18951 0.74978 0.83255 0.0
C2226 C 0.17593 0.72632 0.69824 0.0
C2227 C 0.18034 0.7466 0.66454 0.0
C2228 C 0.18631 0.74819 0.77436 0.0
C2229 C 0.18786 0.76726 0.68764 0.0
C2230 C 0.19695 0.77095 0.85382 0.0
C2231 C 0.18787 0.73101 0.91956 0.0
N2232 N 0.19056 0.76754 0.74093 0.0
N2233 N 0.1852 0.73054 0.86621 0.0
H2234 H 0.53851 0.02555 0.66002 0.0
H2235 H 0.56835 1.01191 0.95827 0.0
H2236 H 0.58268 0.01416 0.69722 0.0
H2237 H 0.52454 0.02766 0.92153 0.0
H2238 H 0.57375 1.01227 0.86298 0.0
H2239 H 0.53308 0.02511 0.75537 0.0
C2240 C 0.54707 0.02277 0.68811 0.0
C2241 C 0.5611 0.01995 0.67021 0.0
C2242 C 0.56295 0.01566 0.87575 0.0
C2243 C 0.55494 0.0197 0.78 0.0
C2244 C 0.55986 0.01564 0.93034 0.0
C2245 C 0.54594 0.01973 0.94841 0.0
C2246 C 0.55206 0.01977 0.83855 0.0
C2247 C 0.53539 0.024 0.90981 0.0
C2248 C 0.54396 0.02271 0.74269 0.0
C2249 C 0.57174 0.01679 0.70889 0.0
N2250 N 0.53866 0.02389 0.85695 0.0
N2251 N 0.56844 0.01675 0.76172 0.0
H2252 H 0.17364 0.01781 0.82861 0.0
H2253 H 0.2029 0.04216 0.12476 0.0
H2254 H 0.21664 0.04083 0.86278 0.0
H2255 H 0.15987 0.0197 0.08965 0.0
H2256 H 0.20821 0.04155 0.0293 0.0
H2257 H 0.16838 0.01893 0.92395 0.0
C2258 C 0.18197 0.0233 0.856 0.0
C2259 C 0.19563 0.0292 0.83722 0.0
C2260 C 0.1976 0.03678 0.04249 0.0
C2261 C 0.18969 0.0302 0.94716 0.0
C2262 C 0.19457 0.03697 0.09714 0.0
C2263 C 0.18088 0.03106 0.11566 0.0
C2264 C 0.18689 0.03058 1.00575 0.0
C2265 C 0.17052 0.02482 0.07752 0.0
C2266 C 0.17897 0.02376 0.91062 0.0
C2267 C 0.20601 0.03575 0.87514 0.0
N2268 N 0.17373 0.02474 0.02463 0.0
N2269 N 0.20283 0.03606 0.92808 0.0
H2270 H 0.55777 0.77717 0.83291 0.0
H2271 H 0.53234 0.73207 0.12409 0.0
H2272 H 0.51938 0.7337 0.8608 0.0
H2273 H 0.57278 0.76777 0.0914 0.0
H2274 H 0.52641 0.73555 0.02928 0.0
H2275 H 0.56252 0.7765 0.92842 0.0
C2276 C 0.55034 0.76738 0.85895 0.0
C2277 C 0.53818 0.7553 0.83822 0.0
C2278 C 0.53657 0.74266 0.0429 0.0
C2279 C 0.54352 0.75478 0.94859 0.0
C2280 C 0.53994 0.74082 0.09716 0.0
C2281 C 0.55315 0.74944 0.11597 0.0
C2282 C 0.54643 0.75335 1.00702 0.0
C2283 C 0.56258 0.76042 0.07883 0.0
C2284 C 0.55303 0.76714 0.91372 0.0
C2285 C 0.52882 0.74349 0.87462 0.0
N2286 N 0.55905 0.76201 0.02639 0.0
N2287 N 0.5317 0.74346 0.92782 0.0
H2288 H 0.78296 0.73828 0.60551 0.0
H2289 H 0.81835 0.81623 0.84787 0.0
H2290 H 0.80432 0.81171 0.58639 0.0
H2291 H 0.7975 0.74224 0.86579 0.0
H2292 H 0.81319 0.81513 0.75252 0.0
H2293 H 0.78797 0.73974 0.70084 0.0
C2294 C 0.78864 0.75482 0.62128 0.0
C2295 C 0.79315 0.77497 0.58748 0.0
C2296 C 0.80972 0.79914 0.77728 0.0
C2297 C 0.79908 0.77661 0.69735 0.0
C2298 C 0.81273 0.79967 0.83186 0.0
C2299 C 0.80843 0.77924 0.86533 0.0
C2300 C 0.80233 0.77801 0.75554 0.0
C2301 C 0.80092 0.75859 0.842 0.0
C2302 C 0.79157 0.75555 0.67587 0.0
C2303 C 0.80074 0.79559 0.61052 0.0
N2304 N 0.79816 0.75849 0.78874 0.0
N2305 N 0.80342 0.79589 0.66386 0.0
H2306 H 0.45629 0.50562 0.88759 0.0
H2307 H 0.42676 0.49814 0.58837 0.0
H2308 H 0.41192 0.50084 0.84733 0.0
H2309 H 0.47105 0.50816 0.62566 0.0
H2310 H 0.42133 0.4983 0.68339 0.0
H2311 H 0.46205 0.50661 0.79247 0.0
C2312 C 0.44773 0.50493 0.85894 0.0
C2313 C 0.43357 0.503 0.87593 0.0
C2314 C 0.43225 0.50052 0.67088 0.0
C2315 C 0.44015 0.50377 0.76656 0.0
C2316 C 0.43538 0.50025 0.61645 0.0
C2317 C 0.44941 0.50306 0.5986 0.0
C2318 C 0.44319 0.50362 0.70821 0.0
C2319 C 0.46006 0.50621 0.63728 0.0
C2320 C 0.45105 0.50534 0.80452 0.0
C2321 C 0.423 0.50184 0.83653 0.0
N2322 N 0.45674 0.50634 0.69012 0.0
N2323 N 0.42651 0.50218 0.78397 0.0
H2324 H 0.82989 0.50935 0.43784 0.0
H2325 H 0.77145 0.48544 0.66513 0.0
H2326 H 0.78689 0.48606 0.40452 0.0
H2327 H 0.81455 0.50826 0.69789 0.0
H2328 H 0.77689 0.4854 0.56992 0.0
H2329 H 0.82449 0.50868 0.53295 0.0
C2330 C 0.81932 0.50392 0.45038 0.0
C2331 C 0.80887 0.49762 0.41263 0.0
C2332 C 0.78518 0.49039 0.5979 0.0
C2333 C 0.80254 0.49713 0.52235 0.0
C2334 C 0.78206 0.49055 0.65243 0.0
C2335 C 0.79253 0.49698 0.69003 0.0
C2336 C 0.79888 0.49672 0.58033 0.0
C2337 C 0.80615 0.50291 0.67076 0.0
C2338 C 0.81622 0.50369 0.5049 0.0
C2339 C 0.79529 0.49131 0.43179 0.0
N2340 N 0.8089 0.50271 0.61745 0.0
N2341 N 0.79254 0.49118 0.48513 0.0
H2342 H 0.4256 0.76768 0.69864 0.0
H2343 H 0.45549 0.7884 0.40181 0.0
H2344 H 0.46917 0.78659 0.66367 0.0
H2345 H 0.41172 0.77163 0.43783 0.0
H2346 H 0.46082 0.78709 0.49718 0.0
H2347 H 0.42036 0.76912 0.60336 0.0
C2348 C 0.43406 0.77234 0.6711 0.0
C2349 C 0.44787 0.777 0.68965 0.0
C2350 C 0.45005 0.78371 0.48422 0.0
C2351 C 0.44194 0.77833 0.57976 0.0
C2352 C 0.447 0.78429 0.42962 0.0
C2353 C 0.4331 0.78021 0.4114 0.0
C2354 C 0.43914 0.77894 0.52119 0.0
C2355 C 0.42254 0.77532 0.44975 0.0
C2356 C 0.43107 0.77298 0.6165 0.0
C2357 C 0.45841 0.78249 0.65152 0.0
N2358 N 0.42578 0.77482 0.50258 0.0
N2359 N 0.45523 0.78298 0.59861 0.0
H2360 H 0.20294 0.23912 0.15404 0.0
H2361 H 0.17324 0.25949 0.45122 0.0
H2362 H 0.15939 0.25761 0.1901 0.0
H2363 H 0.21665 0.23971 0.41574 0.0
H2364 H 0.16794 0.2584 0.35592 0.0
H2365 H 0.20822 0.23956 0.24945 0.0
C2366 C 0.19449 0.24341 0.18187 0.0
C2367 C 0.18066 0.24827 0.16361 0.0
C2368 C 0.17863 0.25428 0.36896 0.0
C2369 C 0.18665 0.24854 0.2735 0.0
C2370 C 0.18165 0.25472 0.42356 0.0
C2371 C 0.19545 0.24974 0.44196 0.0
C2372 C 0.18945 0.24881 0.33209 0.0
C2373 C 0.20592 0.24409 0.4037 0.0
C2374 C 0.1975 0.24349 0.2365 0.0
C2375 C 0.17015 0.25334 0.20201 0.0
N2376 N 0.20271 0.2438 0.35082 0.0
N2377 N 0.17336 0.25335 0.25488 0.0
H2378 H 0.56615 0.51218 0.45229 0.0
H2379 H 0.53702 0.53355 0.15479 0.0
H2380 H 0.52291 0.53285 0.41659 0.0
H2381 H 0.57997 0.51108 0.191 0.0
H2382 H 0.53168 0.53381 0.25022 0.0
H2383 H 0.57152 0.51287 0.35696 0.0
C2384 C 0.55779 0.51707 0.42457 0.0
C2385 C 0.54402 0.52241 0.44293 0.0
C2386 C 0.54228 0.52885 0.23728 0.0
C2387 C 0.55011 0.52292 0.33299 0.0
C2388 C 0.54533 0.52854 0.18262 0.0
C2389 C 0.559 0.52233 0.16435 0.0
C2390 C 0.55295 0.52288 0.27435 0.0
C2391 C 0.56934 0.5164 0.20284 0.0
C2392 C 0.56086 0.51728 0.36995 0.0
C2393 C 0.53362 0.52821 0.40459 0.0
N2394 N 0.56611 0.51682 0.25573 0.0
N2395 N 0.53687 0.5283 0.35168 0.0
H2396 H 0.21714 0.54104 0.3598 0.0
H2397 H 0.15857 0.52108 0.58807 0.0
H2398 H 0.1738 0.51944 0.32799 0.0
H2399 H 0.20202 0.54168 0.62052 0.0
H2400 H 0.16391 0.52095 0.49289 0.0
H2401 H 0.21179 0.54171 0.45503 0.0
C2402 C 0.2065 0.53633 0.37271 0.0
C2403 C 0.19594 0.53006 0.33539 0.0
C2404 C 0.17229 0.52551 0.52077 0.0
C2405 C 0.18969 0.53107 0.4451 0.0
C2406 C 0.16923 0.52574 0.5753 0.0
C2407 C 0.17982 0.53154 0.61278 0.0
C2408 C 0.18608 0.53111 0.50308 0.0
C2409 C 0.19351 0.53686 0.59342 0.0
C2410 C 0.20344 0.53685 0.42726 0.0
C2411 C 0.18228 0.52466 0.35492 0.0
N2412 N 0.19622 0.53657 0.54007 0.0
N2413 N 0.17957 0.52522 0.40824 0.0
H2414 H 0.52111 0.23181 0.36753 0.0
H2415 H 0.57973 0.25099 0.59531 0.0
H2416 H 0.56453 0.25289 0.33525 0.0
H2417 H 0.53625 0.23046 0.62802 0.0
H2418 H 0.57439 0.25137 0.50017 0.0
H2419 H 0.52646 0.23102 0.4627 0.0
C2420 C 0.53177 0.23639 0.38033 0.0
C2421 C 0.54236 0.24254 0.34289 0.0
C2422 C 0.56601 0.24677 0.5281 0.0
C2423 C 0.54861 0.2414 0.45254 0.0
C2424 C 0.56906 0.2464 0.58261 0.0
C2425 C 0.55846 0.24054 0.62016 0.0
C2426 C 0.55221 0.24125 0.5105 0.0
C2427 C 0.54477 0.23532 0.60088 0.0
C2428 C 0.53483 0.2358 0.43484 0.0
C2429 C 0.55604 0.24777 0.36227 0.0
N2430 N 0.54206 0.23574 0.54755 0.0
N2431 N 0.55874 0.24715 0.41558 0.0
H2432 H 0.33105 0.4296 0.48265 0.0
H2433 H 0.28572 0.33457 0.29394 0.0
H2434 H 0.28547 0.43202 0.47671 0.0
H2435 H 0.33131 0.33771 0.29738 0.0
H2436 H 0.28495 0.36917 0.36158 0.0
H2437 H 0.33096 0.39526 0.4158 0.0
C2438 C 0.32099 0.42293 0.46714 0.0
C2439 C 0.30826 0.43391 0.48516 0.0
C2440 C 0.29512 0.36225 0.34756 0.0
C2441 C 0.30803 0.39414 0.40806 0.0
C2442 C 0.29556 0.34239 0.30914 0.0
C2443 C 0.3086 0.33308 0.29012 0.0
C2444 C 0.30783 0.3729 0.36715 0.0
C2445 C 0.32101 0.34425 0.31073 0.0
C2446 C 0.32094 0.40327 0.42878 0.0
C2447 C 0.29555 0.42439 0.46346 0.0
N2448 N 0.32031 0.36341 0.34793 0.0
N2449 N 0.29575 0.40505 0.42618 0.0
H2450 H 0.95469 0.83584 0.48053 0.0
H2451 H 0.90878 0.93274 0.29771 0.0
H2452 H 0.90913 0.84066 0.48182 0.0
H2453 H 0.95439 0.93173 0.29278 0.0
H2454 H 0.90918 0.89857 0.3648 0.0
H2455 H 0.95534 0.87002 0.41175 0.0
C2456 C 0.94483 0.84391 0.46614 0.0
C2457 C 0.93183 0.8352 0.48687 0.0
C2458 C 0.91916 0.90575 0.34938 0.0
C2459 C 0.93248 0.87457 0.40858 0.0
C2460 C 0.91893 0.92535 0.31086 0.0
C2461 C 0.93157 0.93538 0.28977 0.0
C2462 C 0.93215 0.8957 0.36726 0.0
C2463 C 0.94438 0.92484 0.30843 0.0
C2464 C 0.94521 0.86354 0.42705 0.0
C2465 C 0.91941 0.84671 0.46721 0.0
N2466 N 0.94436 0.90561 0.34608 0.0
N2467 N 0.92005 0.86564 0.42945 0.0
H2468 H 0.28291 0.93255 0.9734 0.0
H2469 H 0.33172 0.83917 0.79354 0.0
H2470 H 0.32848 0.92974 0.98093 0.0
H2471 H 0.28613 0.83584 0.78926 0.0
H2472 H 0.33034 0.87307 0.86107 0.0
H2473 H 0.28341 0.89828 0.905 0.0
C2474 C 0.29302 0.92491 0.96037 0.0
C2475 C 0.30568 0.93423 0.98267 0.0
C2476 C 0.32059 0.86498 0.84565 0.0
C2477 C 0.30635 0.89476 0.90489 0.0
C2478 C 0.32138 0.84557 0.80689 0.0
C2479 C 0.30903 0.83451 0.78573 0.0
C2480 C 0.30732 0.87375 0.86365 0.0
C2481 C 0.29593 0.84363 0.80482 0.0
C2482 C 0.2933 0.90522 0.92157 0.0
C2483 C 0.31844 0.92321 0.96496 0.0
N2484 N 0.29541 0.86274 0.84256 0.0
N2485 N 0.31844 0.90422 0.92729 0.0
H2486 H 0.90941 0.43065 0.7992 0.0
H2487 H 0.95471 0.33715 0.99153 0.0
H2488 H 0.95494 0.43441 0.80758 0.0
H2489 H 0.90919 0.33654 0.97971 0.0
H2490 H 0.9555 0.37224 0.92475 0.0
H2491 H 0.90954 0.39603 0.86548 0.0
C2492 C 0.91948 0.42423 0.81513 0.0
C2493 C 0.93218 0.43567 0.79792 0.0
C2494 C 0.94535 0.36437 0.93669 0.0
C2495 C 0.93245 0.39556 0.87448 0.0
C2496 C 0.9449 0.34424 0.97462 0.0
C2497 C 0.93186 0.33363 0.99086 0.0
C2498 C 0.93266 0.37408 0.91499 0.0
C2499 C 0.91949 0.34399 0.96837 0.0
C2500 C 0.91955 0.40439 0.85317 0.0
C2501 C 0.94488 0.42644 0.82018 0.0
N2502 N 0.9202 0.36345 0.93177 0.0
N2503 N 0.9447 0.40694 0.8572 0.0
H2504 H 0.70452 0.68938 0.73376 0.0
H2505 H 0.65871 0.59411 0.54705 0.0
H2506 H 0.65891 0.68717 0.73002 0.0
H2507 H 0.7043 0.59152 0.552 0.0
H2508 H 0.65896 0.62873 0.61332 0.0
H2509 H 0.7051 0.65448 0.66674 0.0
C2510 C 0.69464 0.6817 0.71863 0.0
C2511 C 0.68164 0.69137 0.73739 0.0
C2512 C 0.66895 0.62063 0.60024 0.0
C2513 C 0.68221 0.6512 0.66106 0.0
C2514 C 0.66881 0.6008 0.56223 0.0
C2515 C 0.6815 0.58969 0.5441 0.0
C2516 C 0.6819 0.62978 0.62052 0.0
C2517 C 0.69425 0.59924 0.56535 0.0
C2518 C 0.69498 0.66167 0.68056 0.0
C2519 C 0.66918 0.68036 0.71688 0.0
N2520 N 0.69414 0.61873 0.60231 0.0
N2521 N 0.66978 0.66102 0.68002 0.0
H2522 H 0.03662 0.09094 0.73591 0.0
H2523 H 0.08285 0.18554 0.54839 0.0
H2524 H 0.08223 0.09329 0.73357 0.0
H2525 H 0.03722 0.18551 0.54676 0.0
H2526 H 0.08246 0.15166 0.61633 0.0
H2527 H 0.0362 0.12501 0.66708 0.0
C2528 C 0.04654 0.09846 0.72069 0.0
C2529 C 0.05949 0.08905 0.74038 0.0
C2530 C 0.07249 0.15901 0.6014 0.0
C2531 C 0.0591 0.12836 0.66198 0.0
C2532 C 0.07271 0.17842 0.56241 0.0
C2533 C 0.06005 0.18857 0.54188 0.0
C2534 C 0.05949 0.14935 0.62037 0.0
C2535 C 0.04724 0.1785 0.56183 0.0
C2536 C 0.0463 0.11803 0.68157 0.0
C2537 C 0.072 0.09989 0.71973 0.0
N2538 N 0.04728 0.15947 0.59986 0.0
N2539 N 0.07149 0.11883 0.6819 0.0
H2540 H 0.65785 0.094 0.0465 0.0
H2541 H 0.7036 0.18819 0.23576 0.0
H2542 H 0.70348 0.09448 0.04416 0.0
H2543 H 0.65803 0.18367 0.2357 0.0
H2544 H 0.70428 0.15479 0.1655 0.0
H2545 H 0.65815 0.12729 0.11544 0.0
C2546 C 0.66798 0.1011 0.06058 0.0
C2547 C 0.68066 0.09125 0.03954 0.0
C2548 C 0.69414 0.16117 0.18083 0.0
C2549 C 0.68112 0.12983 0.11923 0.0
C2550 C 0.69375 0.18035 0.22075 0.0
C2551 C 0.68073 0.18892 0.24151 0.0
C2552 C 0.68141 0.15044 0.16155 0.0
C2553 C 0.66832 0.17771 0.22107 0.0
C2554 C 0.66815 0.12018 0.10015 0.0
C2555 C 0.69345 0.10128 0.05961 0.0
N2556 N 0.66897 0.1592 0.18249 0.0
N2557 N 0.69336 0.12001 0.09823 0.0
H2558 H 0.0829 0.68499 0.04724 0.0
H2559 H 0.03632 0.59056 0.23395 0.0
H2560 H 0.03727 0.68543 0.04527 0.0
H2561 H 0.08193 0.59298 0.23279 0.0
H2562 H 0.03601 0.62464 0.1651 0.0
H2563 H 0.08237 0.6511 0.11515 0.0
C2564 C 0.07273 0.67797 0.06117 0.0
C2565 C 0.06011 0.68825 0.04054 0.0
C2566 C 0.04608 0.61767 0.17986 0.0
C2567 C 0.05939 0.64901 0.11901 0.0
C2568 C 0.04626 0.5981 0.219 0.0
C2569 C 0.05918 0.58871 0.23904 0.0
C2570 C 0.05892 0.62802 0.1606 0.0
C2571 C 0.07172 0.59956 0.21869 0.0
C2572 C 0.07243 0.65856 0.10015 0.0
C2573 C 0.04726 0.67831 0.0604 0.0
N2574 N 0.07127 0.61849 0.18084 0.0
N2575 N 0.04723 0.65926 0.09841 0.0
H2576 H 0.83216 0.43538 0.9822 0.0
H2577 H 0.78671 0.33969 0.79538 0.0
H2578 H 0.78653 0.43483 0.98271 0.0
H2579 H 0.83231 0.34288 0.79787 0.0
H2580 H 0.78602 0.37388 0.86379 0.0
H2581 H 0.83207 0.40131 0.91478 0.0
C2582 C 0.82209 0.4281 0.96806 0.0
C2583 C 0.80934 0.43814 0.98811 0.0
C2584 C 0.79617 0.36706 0.84943 0.0
C2585 C 0.80912 0.39872 0.91024 0.0
C2586 C 0.79657 0.34743 0.81055 0.0
C2587 C 0.8096 0.33822 0.79104 0.0
C2588 C 0.8089 0.37766 0.86894 0.0
C2589 C 0.82202 0.34932 0.8116 0.0
C2590 C 0.82203 0.40858 0.92937 0.0
C2591 C 0.79661 0.42789 0.96801 0.0
N2592 N 0.82136 0.36832 0.84921 0.0
N2593 N 0.79682 0.40875 0.93028 0.0
H2594 H 0.45692 0.94234 0.7996 0.0
H2595 H 0.41102 0.84376 0.97921 0.0
H2596 H 0.41141 0.93612 0.79775 0.0
H2597 H 0.45664 0.84121 0.97776 0.0
H2598 H 0.41162 0.87837 0.91346 0.0
H2599 H 0.45777 0.90658 0.86526 0.0
C2600 C 0.44713 0.93357 0.8131 0.0
C2601 C 0.43406 0.94243 0.79331 0.0
C2602 C 0.42156 0.87034 0.92714 0.0
C2603 C 0.43494 0.90142 0.86799 0.0
C2604 C 0.42122 0.85047 0.96495 0.0
C2605 C 0.43379 0.83944 0.98421 0.0
C2606 C 0.4346 0.87971 0.90803 0.0
C2607 C 0.44667 0.84902 0.96382 0.0
C2608 C 0.44762 0.9131 0.85041 0.0
C2609 C 0.42173 0.93009 0.81178 0.0
N2610 N 0.44676 0.86866 0.927 0.0
N2611 N 0.42249 0.91045 0.84785 0.0
H2612 H 0.8318 0.84093 0.29606 0.0
H2613 H 0.78543 0.93651 0.48039 0.0
H2614 H 0.78617 0.84014 0.29495 0.0
H2615 H 0.83103 0.93372 0.47927 0.0
H2616 H 0.78501 0.902 0.41249 0.0
H2617 H 0.83132 0.87525 0.3629 0.0
C2618 C 0.82164 0.84797 0.30996 0.0
C2619 C 0.80901 0.83747 0.28989 0.0
C2620 C 0.7951 0.90899 0.42706 0.0
C2621 C 0.80834 0.87721 0.36712 0.0
C2622 C 0.79534 0.9288 0.46564 0.0
C2623 C 0.80829 0.9382 0.48541 0.0
C2624 C 0.80791 0.89844 0.4081 0.0
C2625 C 0.8208 0.92714 0.46537 0.0
C2626 C 0.82137 0.86763 0.34832 0.0
C2627 C 0.79617 0.84744 0.30966 0.0
N2628 N 0.82029 0.908 0.42805 0.0
N2629 N 0.79616 0.86674 0.34707 0.0
H2630 H 0.40815 0.3445 0.48875 0.0
H2631 H 0.45546 0.43667 0.3007 0.0
H2632 H 0.45372 0.34507 0.4978 0.0
H2633 H 0.41004 0.44101 0.31499 0.0
H2634 H 0.45565 0.40264 0.36988 0.0
H2635 H 0.40915 0.37875 0.42198 0.0
C2636 C 0.41842 0.35179 0.47653 0.0
C2637 C 0.43087 0.3416 0.49866 0.0
C2638 C 0.44566 0.41118 0.35805 0.0
C2639 C 0.43214 0.38135 0.42149 0.0
C2640 C 0.44556 0.43075 0.31885 0.0
C2641 C 0.43273 0.44205 0.30252 0.0
C2642 C 0.43281 0.4026 0.38058 0.0
C2643 C 0.4202 0.43299 0.3263 0.0
C2644 C 0.41899 0.37145 0.43825 0.0
C2645 C 0.44385 0.35201 0.48118 0.0
N2646 N 0.42056 0.41393 0.3638 0.0
N2647 N 0.44417 0.37125 0.44356 0.0
H2648 H 0.20321 0.59188 0.04495 0.0
H2649 H 0.15678 0.68658 0.23109 0.0
H2650 H 0.1576 0.59438 0.04606 0.0
H2651 H 0.20241 0.68673 0.2332 0.0
H2652 H 0.15724 0.65262 0.16338 0.0
H2653 H 0.20356 0.62597 0.11367 0.0
C2654 C 0.19328 0.59944 0.05987 0.0
C2655 C 0.18035 0.59007 0.03987 0.0
C2656 C 0.1672 0.66003 0.17837 0.0
C2657 C 0.18065 0.62939 0.11813 0.0
C2658 C 0.16694 0.67948 0.21722 0.0
C2659 C 0.17958 0.6897 0.23781 0.0
C2660 C 0.18022 0.6504 0.15961 0.0
C2661 C 0.19241 0.67966 0.21808 0.0
C2662 C 0.19348 0.61902 0.09893 0.0
C2663 C 0.16782 0.60095 0.06015 0.0
N2664 N 0.1924 0.66059 0.18019 0.0
N2665 N 0.16829 0.61989 0.09793 0.0
H2666 H 0.58217 0.08578 0.23819 0.0
H2667 H 0.535 0.17999 0.05409 0.0
H2668 H 0.53655 0.0844 0.24244 0.0
H2669 H 0.58061 0.17752 0.05351 0.0
H2670 H 0.5348 0.14578 0.12282 0.0
H2671 H 0.58131 0.11965 0.1706 0.0
C2672 C 0.57192 0.09259 0.22482 0.0
C2673 C 0.55942 0.08204 0.24604 0.0
C2674 C 0.54484 0.15277 0.10768 0.0
C2675 C 0.55831 0.12135 0.16781 0.0
C2676 C 0.54496 0.17242 0.06863 0.0
C2677 C 0.55785 0.18182 0.04813 0.0
C2678 C 0.55771 0.1424 0.12636 0.0
C2679 C 0.57041 0.17094 0.06795 0.0
C2680 C 0.57143 0.11201 0.18599 0.0
C2681 C 0.54646 0.09174 0.22684 0.0
N2682 N 0.57002 0.15197 0.1057 0.0
N2683 N 0.54624 0.11085 0.18891 0.0
H2684 H 0.15717 0.09261 0.54806 0.0
H2685 H 0.20351 0.18752 0.73373 0.0
H2686 H 0.2028 0.09179 0.54714 0.0
H2687 H 0.1579 0.18536 0.73161 0.0
H2688 H 0.20392 0.15311 0.66564 0.0
H2689 H 0.15762 0.12677 0.61528 0.0
C2690 C 0.16732 0.09961 0.56209 0.0
C2691 C 0.17996 0.08915 0.54195 0.0
C2692 C 0.19383 0.16021 0.68003 0.0
C2693 C 0.18059 0.1287 0.6196 0.0
C2694 C 0.19359 0.17997 0.71872 0.0
C2695 C 0.18065 0.18952 0.73824 0.0
C2696 C 0.18101 0.14986 0.66072 0.0
C2697 C 0.16813 0.17865 0.71788 0.0
C2698 C 0.16758 0.11918 0.60066 0.0
C2699 C 0.19279 0.09906 0.5619 0.0
N2700 N 0.16863 0.15955 0.68047 0.0
N2701 N 0.19279 0.11826 0.5995 0.0
H2702 H 0.58261 0.58319 0.73153 0.0
H2703 H 0.53547 0.67955 0.55212 0.0
H2704 H 0.53702 0.58411 0.73832 0.0
H2705 H 0.58102 0.67561 0.54626 0.0
H2706 H 0.53547 0.6453 0.62049 0.0
H2707 H 0.58195 0.61733 0.66403 0.0
C2708 C 0.57243 0.59058 0.71876 0.0
C2709 C 0.55985 0.58062 0.74054 0.0
C2710 C 0.54546 0.65198 0.60435 0.0
C2711 C 0.55897 0.62006 0.66273 0.0
C2712 C 0.54547 0.67167 0.56554 0.0
C2713 C 0.55828 0.6807 0.54374 0.0
C2714 C 0.55837 0.64115 0.6215 0.0
C2715 C 0.57089 0.66933 0.56189 0.0
C2716 C 0.57205 0.61011 0.68004 0.0
C2717 C 0.54697 0.59098 0.72222 0.0
N2718 N 0.57062 0.65029 0.59954 0.0
N2719 N 0.54686 0.61012 0.6845 0.0
H2720 H 0.27688 0.18287 0.21847 0.0
H2721 H 0.31337 0.08872 1.01255 0.0
H2722 H 0.31679 0.20428 0.14708 0.0
H2723 H 0.28963 0.06007 0.14707 0.0
H2724 H 0.31355 0.13212 0.05318 0.0
H2725 H 0.27972 0.13901 0.1839 0.0
C2726 C 0.28625 0.1784 0.19532 0.0
C2727 C 0.29662 0.1974 0.18563 0.0
C2728 C 0.30846 0.11625 0.07403 0.0
C2729 C 0.29982 0.14695 0.14523 0.0
C2730 C 0.30833 0.09152 0.05091 0.0
C2731 C 0.30145 0.0708 0.07646 0.0
C2732 C 0.30133 0.12042 0.12237 0.0
C2733 C 0.29508 0.07547 0.12606 0.0
C2734 C 0.28789 0.15324 0.17587 0.0
C2735 C 0.30853 0.1903 0.15539 0.0
N2736 N 0.29498 0.09986 0.14696 0.0
N2737 N 0.30975 0.16568 0.13571 0.0
H2738 H 0.93453 0.21206 0.15473 0.0
H2739 H 0.93495 0.05644 0.12559 0.0
H2740 H 0.94115 0.17226 1.0059 0.0
H2741 H 0.94113 0.0963 0.27458 0.0
H2742 H 0.93219 0.0987 0.08102 0.0
H2743 H 0.93192 0.16975 0.19935 0.0
C2744 C 0.93512 0.19446 0.13133 0.0
C2745 C 0.93803 0.19563 0.07659 0.0
C2746 C 0.93397 0.09815 0.12361 0.0
C2747 C 0.93516 0.14725 0.12711 0.0
C2748 C 0.93542 0.07403 0.14903 0.0
C2749 C 0.93825 0.0729 0.2038 0.0
C2750 C 0.9352 0.12124 0.15333 0.0
C2751 C 0.93901 0.09633 0.2322 0.0
C2752 C 0.93376 0.17032 0.15678 0.0
C2753 C 0.93896 0.17221 0.04825 0.0
N2754 N 0.93753 0.11947 0.20674 0.0
N2755 N 0.93756 0.14905 0.07373 0.0
H2756 H 0.71805 0.9546 0.9166 0.0
H2757 H 0.67206 0.82865 0.84116 0.0
H2758 H 0.67257 0.95426 0.9314 0.0
H2759 H 0.71767 0.83259 0.84373 0.0
H2760 H 0.67116 0.87415 0.87207 0.0
H2761 H 0.7173 0.91015 0.8849 0.0
C2762 C 0.70785 0.94515 0.91279 0.0
C2763 C 0.69537 0.95814 0.92697 0.0
C2764 C 0.68134 0.86494 0.866 0.0
C2765 C 0.69438 0.90659 0.89092 0.0
C2766 C 0.68185 0.83897 0.84867 0.0
C2767 C 0.69497 0.82685 0.8396 0.0
C2768 C 0.69403 0.87874 0.87414 0.0
C2769 C 0.70732 0.84113 0.84978 0.0
C2770 C 0.70741 0.91962 0.89483 0.0
C2771 C 0.68244 0.94493 0.92082 0.0
N2772 N 0.70653 0.86616 0.86617 0.0
N2773 N 0.68227 0.91976 0.90352 0.0
H2774 H 0.0225 0.95118 0.86127 0.0
H2775 H 0.06855 0.82454 0.93058 0.0
H2776 H 0.06798 0.95111 0.84603 0.0
H2777 H 0.02294 0.82802 0.92688 0.0
H2778 H 0.06941 0.87036 0.90176 0.0
H2779 H 0.02326 0.90629 0.89041 0.0
C2780 C 0.03271 0.94171 0.86446 0.0
C2781 C 0.04518 0.95492 0.85091 0.0
C2782 C 0.05924 0.86098 0.90706 0.0
C2783 C 0.04618 0.90285 0.884 0.0
C2784 C 0.05875 0.83482 0.92319 0.0
C2785 C 0.04564 0.82246 0.93138 0.0
C2786 C 0.04653 0.87477 0.89926 0.0
C2787 C 0.03329 0.83673 0.92144 0.0
C2788 C 0.03314 0.91592 0.88094 0.0
C2789 C 0.05811 0.94163 0.85619 0.0
N2790 N 0.03404 0.86196 0.90626 0.0
N2791 N 0.05828 0.91622 0.87206 0.0
H2792 H 0.31873 0.70684 0.642 0.0
H2793 H 0.29258 0.55931 0.6503 0.0
H2794 H 0.27956 0.68277 0.71549 0.0
H2795 H 0.31544 0.58931 0.5148 0.0
H2796 H 0.29223 0.60307 0.68885 0.0
H2797 H 0.32179 0.66241 0.60725 0.0
C2798 C 0.31081 0.6923 0.65082 0.0
C2799 C 0.29882 0.69862 0.68133 0.0
C2800 C 0.29745 0.59999 0.65091 0.0
C2801 C 0.30246 0.6478 0.64334 0.0
C2802 C 0.29773 0.57502 0.62909 0.0
C2803 C 0.30397 0.57075 0.57913 0.0
C2804 C 0.3037 0.62076 0.62313 0.0
C2805 C 0.31044 0.59186 0.55329 0.0
C2806 C 0.31256 0.66699 0.63111 0.0
C2807 C 0.28892 0.67889 0.6919 0.0
N2808 N 0.31015 0.61596 0.57555 0.0
N2809 N 0.29101 0.65444 0.67336 0.0
H2810 H 0.96217 0.68429 0.56208 0.0
H2811 H 0.92454 0.5911 0.7679 0.0
H2812 H 0.92278 0.70737 0.63517 0.0
H2813 H 0.94809 0.56199 0.63344 0.0
H2814 H 0.92492 0.63463 0.72774 0.0
H2815 H 0.9588 0.64051 0.59649 0.0
C2816 C 0.9528 0.68021 0.58558 0.0
C2817 C 0.94273 0.69965 0.59574 0.0
C2818 C 0.92984 0.61864 0.70679 0.0
C2819 C 0.93891 0.64925 0.63596 0.0
C2820 C 0.92965 0.59383 0.72964 0.0
C2821 C 0.93631 0.57292 0.70398 0.0
C2822 C 0.93707 0.6227 0.65859 0.0
C2823 C 0.94279 0.57753 0.65453 0.0
C2824 C 0.95086 0.65509 0.60493 0.0
C2825 C 0.93081 0.69302 0.62642 0.0
N2826 N 0.9432 0.60197 0.6339 0.0
N2827 N 0.92929 0.66842 0.64598 0.0
H2828 H 0.69711 0.46372 0.37945 0.0
H2829 H 0.67162 0.31571 0.39223 0.0
H2830 H 0.67457 0.43406 0.51601 0.0
H2831 H 0.7101 0.34031 0.31443 0.0
H2832 H 0.66851 0.36025 0.42644 0.0
H2833 H 0.69752 0.4198 0.34167 0.0
C2834 C 0.69204 0.44805 0.40106 0.0
C2835 C 0.68587 0.45248 0.45109 0.0
C2836 C 0.6776 0.35576 0.40176 0.0
C2837 C 0.68623 0.40226 0.408 0.0
C2838 C 0.67937 0.3304 0.38232 0.0
C2839 C 0.69117 0.3242 0.35069 0.0
C2840 C 0.68749 0.37512 0.38821 0.0
C2841 C 0.70088 0.34408 0.33887 0.0
C2842 C 0.69236 0.42298 0.37968 0.0
C2843 C 0.67951 0.43141 0.47745 0.0
N2844 N 0.69877 0.36857 0.35721 0.0
N2845 N 0.67984 0.4072 0.45564 0.0
H2846 H 0.06798 0.32439 0.43116 0.0
H2847 H 0.02209 0.45109 0.36051 0.0
H2848 H 0.02237 0.32834 0.42998 0.0
H2849 H 0.06756 0.45066 0.34516 0.0
H2850 H 0.02278 0.40635 0.39071 0.0
H2851 H 0.06886 0.37009 0.40162 0.0
C2852 C 0.05818 0.33475 0.42421 0.0
C2853 C 0.04507 0.32255 0.43326 0.0
C2854 C 0.03267 0.41587 0.38099 0.0
C2855 C 0.046 0.37474 0.40027 0.0
C2856 C 0.03228 0.44157 0.36389 0.0
C2857 C 0.04477 0.45464 0.35 0.0
C2858 C 0.04568 0.40274 0.38433 0.0
C2859 C 0.05767 0.4413 0.35556 0.0
C2860 C 0.05869 0.36085 0.40766 0.0
C2861 C 0.03272 0.33692 0.42385 0.0
N2862 N 0.0578 0.41598 0.37202 0.0
N2863 N 0.0335 0.36209 0.40821 0.0
H2864 H 0.81809 0.07462 0.59309 0.0
H2865 H 0.77282 0.20166 0.66617 0.0
H2866 H 0.77251 0.07916 0.59732 0.0
H2867 H 0.81821 0.20023 0.68394 0.0
H2868 H 0.77338 0.15713 0.6349 0.0
H2869 H 0.81926 0.12018 0.62349 0.0
C2870 C 0.80836 0.08508 0.60091 0.0
C2871 C 0.79517 0.07313 0.5924 0.0
C2872 C 0.78329 0.16638 0.64539 0.0
C2873 C 0.79641 0.12509 0.62628 0.0
C2874 C 0.78296 0.19196 0.66308 0.0
C2875 C 0.79546 0.20466 0.67801 0.0
C2876 C 0.79623 0.15301 0.64251 0.0
C2877 C 0.80832 0.19113 0.67275 0.0
C2878 C 0.80903 0.11109 0.61793 0.0
C2879 C 0.78291 0.08758 0.60293 0.0
N2880 N 0.80838 0.16592 0.65572 0.0
N2881 N 0.78384 0.11265 0.61895 0.0
H2882 H 0.43338 0.22148 0.66744 0.0
H2883 H 0.4324 0.06576 0.64323 0.0
H2884 H 0.43912 0.1803 0.51968 0.0
H2885 H 0.44116 0.10607 0.78985 0.0
H2886 H 0.42963 0.10784 0.5982 0.0
H2887 H 0.43099 0.17955 0.71391 0.0
C2888 C 0.43383 0.20367 0.6447 0.0
C2889 C 0.43644 0.20431 0.58971 0.0
C2890 C 0.43199 0.10745 0.64039 0.0
C2891 C 0.43377 0.15643 0.64226 0.0
C2892 C 0.43348 0.08344 0.6661 0.0
C2893 C 0.43702 0.08246 0.72027 0.0
C2894 C 0.43389 0.13062 0.66926 0.0
C2895 C 0.43848 0.10599 0.74793 0.0
C2896 C 0.43258 0.17976 0.67119 0.0
C2897 C 0.43716 0.18064 0.56219 0.0
N2898 N 0.43693 0.12907 0.7222 0.0
N2899 N 0.43585 0.15774 0.58864 0.0
H2900 H 0.17173 0.95308 0.43178 0.0
H2901 H 0.21768 0.82706 0.3565 0.0
H2902 H 0.21733 0.94953 0.42813 0.0
H2903 H 0.17212 0.82702 0.34547 0.0
H2904 H 0.21702 0.87178 0.38679 0.0
H2905 H 0.17087 0.9075 0.40154 0.0
C2906 C 0.18153 0.94283 0.42412 0.0
C2907 C 0.19463 0.95509 0.43272 0.0
C2908 C 0.20711 0.86215 0.37799 0.0
C2909 C 0.19374 0.90306 0.39891 0.0
C2910 C 0.20748 0.83647 0.36083 0.0
C2911 C 0.19495 0.82327 0.34816 0.0
C2912 C 0.19408 0.87513 0.38264 0.0
C2913 C 0.18204 0.83648 0.3549 0.0
C2914 C 0.18104 0.91681 0.40718 0.0
C2915 C 0.207 0.94088 0.4224 0.0
N2916 N 0.18193 0.86177 0.37142 0.0
N2917 N 0.20624 0.91578 0.40637 0.0
H2918 H 0.54297 0.80585 0.37714 0.0
H2919 H 0.56831 0.95405 0.38982 0.0
H2920 H 0.56503 0.8361 0.51393 0.0
H2921 H 0.53058 0.92906 0.30801 0.0
H2922 H 0.57131 0.90954 0.42435 0.0
H2923 H 0.54276 0.84957 0.33831 0.0
C2924 C 0.54796 0.82161 0.39859 0.0
C2925 C 0.55394 0.81741 0.44898 0.0
C2926 C 0.56242 0.91391 0.39867 0.0
C2927 C 0.55381 0.86741 0.4047 0.0
C2928 C 0.56072 0.93925 0.37901 0.0
C2929 C 0.54915 0.94532 0.34624 0.0
C2930 C 0.55268 0.89447 0.38427 0.0
C2931 C 0.53961 0.92535 0.33338 0.0
C2932 C 0.54776 0.84657 0.37661 0.0
C2933 C 0.56023 0.83858 0.47511 0.0
N2934 N 0.54164 0.90088 0.35204 0.0
N2935 N 0.56001 0.86267 0.45272 0.0
H2936 H 0.81746 0.7008 0.18216 0.0
H2937 H 0.77102 0.57605 0.10208 0.0
H2938 H 0.77185 0.69787 0.17744 0.0
H2939 H 0.8166 0.57531 0.09207 0.0
H2940 H 0.77186 0.62057 0.13347 0.0
H2941 H 0.81817 0.65544 0.1504 0.0
C2942 C 0.80763 0.69073 0.17396 0.0
C2943 C 0.79456 0.70308 0.18271 0.0
C2944 C 0.78174 0.61084 0.12463 0.0
C2945 C 0.79528 0.65134 0.14714 0.0
C2946 C 0.78126 0.58528 0.10681 0.0
C2947 C 0.79374 0.57195 0.09413 0.0
C2948 C 0.79484 0.62355 0.12996 0.0
C2949 C 0.80671 0.5849 0.10144 0.0
C2950 C 0.80804 0.66484 0.15615 0.0
C2951 C 0.78216 0.68913 0.17165 0.0
N2952 N 0.80694 0.61008 0.11865 0.0
N2953 N 0.78284 0.66416 0.15479 0.0
H2954 H 0.44259 0.56286 0.1275 0.0
H2955 H 0.42861 0.71577 0.15388 0.0
H2956 H 0.43681 0.60013 0.27947 0.0
H2957 H 0.45725 0.68376 0.03744 0.0
H2958 H 0.42521 0.67195 0.19108 0.0
H2959 H 0.44137 0.60576 0.08394 0.0
C2960 C 0.44064 0.57996 0.15142 0.0
C2961 C 0.43974 0.57804 0.20704 0.0
C2962 C 0.43212 0.67458 0.15702 0.0
C2963 C 0.43829 0.62688 0.15787 0.0
C2964 C 0.43403 0.69954 0.13577 0.0
C2965 C 0.44329 0.70347 0.09277 0.0
C2966 C 0.43921 0.65333 0.13413 0.0
C2967 C 0.45011 0.68167 0.07096 0.0
C2968 C 0.44009 0.6044 0.12673 0.0
C2969 C 0.43753 0.60085 0.23644 0.0
N2970 N 0.44789 0.65758 0.09165 0.0
N2971 N 0.43685 0.62428 0.2116 0.0
H2972 H 0.17159 0.3259 0.84675 0.0
H2973 H 0.21729 0.45273 0.91836 0.0
H2974 H 0.21719 0.33013 0.84918 0.0
H2975 H 0.17182 0.45197 0.93421 0.0
H2976 H 0.21663 0.40807 0.88787 0.0
H2977 H 0.1706 0.37155 0.87657 0.0
C2978 C 0.18136 0.33631 0.85404 0.0
C2979 C 0.1945 0.32422 0.84523 0.0
C2980 C 0.20673 0.4175 0.89776 0.0
C2981 C 0.19346 0.37632 0.87851 0.0
C2982 C 0.20711 0.44315 0.91502 0.0
C2983 C 0.19461 0.45609 0.92915 0.0
C2984 C 0.19374 0.40428 0.89451 0.0
C2985 C 0.18171 0.44269 0.92363 0.0
C2986 C 0.1808 0.36237 0.87074 0.0
C2987 C 0.20682 0.33864 0.85508 0.0
N2988 N 0.1816 0.41741 0.90701 0.0
N2989 N 0.20599 0.36376 0.87084 0.0
H2990 H 0.56696 0.31766 0.93499 0.0
H2991 H 0.52128 0.44309 0.85359 0.0
H2992 H 0.52136 0.32146 0.93104 0.0
H2993 H 0.56688 0.44317 0.84484 0.0
H2994 H 0.52183 0.39856 0.88507 0.0
H2995 H 0.56793 0.36291 0.90266 0.0
C2996 C 0.55718 0.32788 0.92682 0.0
C2997 C 0.54405 0.3158 0.93596 0.0
C2998 C 0.53178 0.40814 0.87649 0.0
C2999 C 0.54507 0.36746 0.89973 0.0
C3000 C 0.53146 0.43372 0.85861 0.0
C3001 C 0.54404 0.44689 0.84629 0.0
C3002 C 0.54479 0.39524 0.88226 0.0
C3003 C 0.55693 0.43372 0.85394 0.0
C3004 C 0.55774 0.35373 0.9087 0.0
C3005 C 0.53172 0.32998 0.92494 0.0
N3006 N 0.55698 0.40854 0.87122 0.0
N3007 N 0.53255 0.3549 0.90775 0.0
loop_
_geom_bond_atom_site_label_1
_geom_bond_atom_site_label_2
_geom_bond_distance
_geom_bond_site_symmetry_2
_ccdc_geom_bond_type
Tb0 C2 2.809 . S
Tb0 O20 2.484 . S
Tb0 O21 2.440 . S
Tb0 O22 2.658 . S
Tb0 O23 2.409 . S
Tb0 O24 2.378 . S
Tb0 O28 2.325 . S
Tb0 O31 2.341 . S
Tb1 C11 2.809 . S
Tb1 O22 2.325 . S
Tb1 O25 2.341 . S
Tb1 O26 2.484 . S
Tb1 O27 2.440 . S
Tb1 O28 2.658 . S
Tb1 O29 2.409 . S
Tb1 O30 2.378 . S
C2 Tb0 2.809 . S
C2 C3 1.524 . S
C2 O20 1.248 . S
C2 O21 1.266 . S
C3 C2 1.524 . S
C3 C4 1.353 1_554 S
C3 C8 1.344 1_554 S
C4 C3 1.353 1_556 S
C4 C5 1.380 . S
C4 H32 0.929 . S
C5 C4 1.380 . S
C5 C6 1.347 . S
C5 H33 0.931 . S
C6 C5 1.347 . S
C6 C7 1.369 . S
C7 C6 1.369 . S
C7 C8 1.408 . S
C7 H34 0.930 . S
C8 C3 1.344 1_556 S
C8 C7 1.408 . S
C8 H35 0.930 . S
C9 O22 1.281 . S
C9 O23 1.254 . S
C10 O24 1.236 . S
C10 O25 1.266 . S
C11 Tb1 2.809 . S
C11 C12 1.514 . S
C11 O26 1.248 . S
C11 O27 1.266 . S
C12 C11 1.514 . S
C12 C13 1.359 . S
C12 C17 1.348 . S
C13 C12 1.359 . S
C13 C14 1.380 . S
C13 H36 0.929 . S
C14 C13 1.380 . S
C14 C15 1.347 . S
C14 H37 0.931 . S
C15 C14 1.347 . S
C15 C16 1.369 . S
C16 C15 1.369 . S
C16 C17 1.408 . S
C16 H38 0.930 . S
C17 C12 1.348 . S
C17 C16 1.408 . S
C17 H39 0.930 . S
C18 O28 1.281 . S
C18 O29 1.254 . S
C19 O30 1.236 . S
C19 O31 1.266 . S
O20 Tb0 2.484 . S
O20 C2 1.248 . S
O21 Tb0 2.440 . S
O21 C2 1.266 . S
O22 Tb0 2.658 . S
O22 Tb1 2.325 . S
O22 C9 1.281 . S
O23 Tb0 2.409 . S
O23 C9 1.254 . S
O24 Tb0 2.378 . S
O24 C10 1.236 . S
O25 Tb1 2.341 . S
O25 C10 1.266 . S
O26 Tb1 2.484 . S
O26 C11 1.248 . S
O27 Tb1 2.440 . S
O27 C11 1.266 . S
O28 Tb0 2.325 . S
O28 Tb1 2.658 . S
O28 C18 1.281 . S
O29 Tb1 2.409 . S
O29 C18 1.254 . S
O30 Tb1 2.378 . S
O30 C19 1.236 . S
O31 Tb0 2.341 . S
O31 C19 1.266 . S
H32 C4 0.929 . S
H33 C5 0.931 . S
H34 C7 0.930 . S
H35 C8 0.930 . S
H36 C13 0.929 . S
H37 C14 0.931 . S
H38 C16 0.930 . S
H39 C17 0.930 . S
Tb40 C42 2.809 . S
Tb40 O60 2.484 1_565 S
Tb40 O61 2.440 . S
Tb40 O62 2.658 . S
Tb40 O63 2.409 . S
Tb40 O64 2.378 . S
Tb40 O68 2.325 1_565 S
Tb40 O71 2.341 . S
Tb41 C51 2.809 . S
Tb41 O62 2.325 1_545 S
Tb41 O65 2.341 . S
Tb41 O66 2.484 1_545 S
Tb41 O67 2.440 . S
Tb41 O68 2.658 . S
Tb41 O69 2.409 . S
Tb41 O70 2.378 . S
C42 Tb40 2.809 . S
C42 C43 1.503 1_554 S
C42 O60 1.248 1_565 S
C42 O61 1.266 . S
C43 C42 1.503 1_556 S
C43 C44 1.365 1_565 S
C43 C48 1.353 . S
C44 C43 1.365 1_545 S
C44 C45 1.378 1_545 S
C44 H72 0.929 . S
C45 C44 1.378 1_565 S
C45 C46 1.370 . S
C45 H73 0.910 1_565 S
C46 C45 1.370 . S
C46 C47 1.369 . S
C47 C46 1.369 . S
C47 C48 1.408 . S
C47 H74 0.930 . S
C48 C43 1.353 . S
C48 C47 1.408 . S
C48 H75 0.930 . S
C49 O62 1.281 . S
C49 O63 1.254 . S
C50 O64 1.236 . S
C50 O65 1.266 1_565 S
C51 Tb41 2.809 . S
C51 C52 1.514 . S
C51 O66 1.248 1_545 S
C51 O67 1.266 . S
C52 C51 1.514 . S
C52 C53 1.359 1_545 S
C52 C57 1.348 . S
C53 C52 1.359 1_565 S
C53 C54 1.379 1_565 S
C53 H76 0.929 . S
C54 C53 1.379 1_545 S
C54 C55 1.361 . S
C54 H77 0.918 1_545 S
C55 C54 1.361 . S
C55 C56 1.369 . S
C56 C55 1.369 . S
C56 C57 1.408 . S
C56 H78 0.930 . S
C57 C52 1.348 . S
C57 C56 1.408 . S
C57 H79 0.930 . S
C58 O68 1.281 . S
C58 O69 1.254 . S
C59 O70 1.236 . S
C59 O71 1.266 1_545 S
O60 Tb40 2.484 1_545 S
O60 C42 1.248 1_545 S
O61 Tb40 2.440 . S
O61 C42 1.266 . S
O62 Tb40 2.658 . S
O62 Tb41 2.325 1_565 S
O62 C49 1.281 . S
O63 Tb40 2.409 . S
O63 C49 1.254 . S
O64 Tb40 2.378 . S
O64 C50 1.236 . S
O65 Tb41 2.341 . S
O65 C50 1.266 1_545 S
O66 Tb41 2.484 1_565 S
O66 C51 1.248 1_565 S
O67 Tb41 2.440 . S
O67 C51 1.266 . S
O68 Tb40 2.325 1_545 S
O68 Tb41 2.658 . S
O68 C58 1.281 . S
O69 Tb41 2.409 . S
O69 C58 1.254 . S
O70 Tb41 2.378 . S
O70 C59 1.236 . S
O71 Tb40 2.341 . S
O71 C59 1.266 1_565 S
H72 C44 0.929 . S
H73 C45 0.910 1_545 S
H74 C47 0.930 . S
H75 C48 0.930 . S
H76 C53 0.929 . S
H77 C54 0.918 1_565 S
H78 C56 0.930 . S
H79 C57 0.930 . S
Tb80 C82 2.809 . S
Tb80 O100 2.484 1_565 S
Tb80 O101 2.440 . S
Tb80 O102 2.647 1_554 S
Tb80 O103 2.409 . S
Tb80 O104 2.378 . S
Tb80 O108 2.325 1_565 S
Tb80 O111 2.341 . S
Tb81 C91 2.809 . S
Tb81 O102 2.329 1_545 S
Tb81 O105 2.341 1_556 S
Tb81 O106 2.484 1_545 S
Tb81 O107 2.440 . S
Tb81 O108 2.658 1_556 S
Tb81 O109 2.409 1_556 S
Tb81 O110 2.378 . S
C82 Tb80 2.809 . S
C82 C83 1.514 . S
C82 O100 1.248 1_565 S
C82 O101 1.266 . S
C83 C82 1.514 . S
C83 C84 1.359 1_565 S
C83 C88 1.348 . S
C84 C83 1.359 1_545 S
C84 C85 1.378 1_545 S
C84 H112 0.929 . S
C85 C84 1.378 1_565 S
C85 C86 1.370 . S
C85 H113 0.910 1_565 S
C86 C85 1.370 . S
C86 C87 1.369 . S
C87 C86 1.369 . S
C87 C88 1.408 . S
C87 H114 0.930 . S
C88 C83 1.348 . S
C88 C87 1.408 . S
C88 H115 0.930 . S
C89 O102 1.277 1_554 S
C89 O103 1.254 . S
C90 O104 1.236 . S
C90 O105 1.266 1_565 S
C91 Tb81 2.809 . S
C91 C92 1.514 . S
C91 O106 1.248 1_545 S
C91 O107 1.266 . S
C92 C91 1.514 . S
C92 C93 1.359 1_545 S
C92 C97 1.348 . S
C93 C92 1.359 1_565 S
C93 C94 1.379 1_565 S
C93 H116 0.929 . S
C94 C93 1.379 1_545 S
C94 C95 1.361 . S
C94 H117 0.918 1_545 S
C95 C94 1.361 . S
C95 C96 1.369 . S
C96 C95 1.369 . S
C96 C97 1.408 . S
C96 H118 0.930 . S
C97 C92 1.348 . S
C97 C96 1.408 . S
C97 H119 0.930 . S
C98 O108 1.281 . S
C98 O109 1.254 . S
C99 O110 1.236 . S
C99 O111 1.266 1_546 S
O100 Tb80 2.484 1_545 S
O100 C82 1.248 1_545 S
O101 Tb80 2.440 . S
O101 C82 1.266 . S
O102 Tb80 2.647 1_556 S
O102 Tb81 2.329 1_565 S
O102 C89 1.277 1_556 S
O103 Tb80 2.409 . S
O103 C89 1.254 . S
O104 Tb80 2.378 . S
O104 C90 1.236 . S
O105 Tb81 2.341 1_554 S
O105 C90 1.266 1_545 S
O106 Tb81 2.484 1_565 S
O106 C91 1.248 1_565 S
O107 Tb81 2.440 . S
O107 C91 1.266 . S
O108 Tb80 2.325 1_545 S
O108 Tb81 2.658 1_554 S
O108 C98 1.281 . S
O109 Tb81 2.409 1_554 S
O109 C98 1.254 . S
O110 Tb81 2.378 . S
O110 C99 1.236 . S
O111 Tb80 2.341 . S
O111 C99 1.266 1_564 S
H112 C84 0.929 . S
H113 C85 0.910 1_545 S
H114 C87 0.930 . S
H115 C88 0.930 . S
H116 C93 0.929 . S
H117 C94 0.918 1_565 S
H118 C96 0.930 . S
H119 C97 0.930 . S
Tb120 C122 2.809 . S
Tb120 O140 2.484 . S
Tb120 O141 2.440 . S
Tb120 O142 2.658 1_554 S
Tb120 O143 2.409 . S
Tb120 O144 2.378 . S
Tb120 O148 2.325 . S
Tb120 O151 2.341 . S
Tb121 C131 2.809 . S
Tb121 O142 2.325 . S
Tb121 O145 2.341 1_556 S
Tb121 O146 2.484 . S
Tb121 O147 2.440 . S
Tb121 O148 2.658 1_556 S
Tb121 O149 2.403 1_556 S
Tb121 O150 2.378 . S
C122 Tb120 2.809 . S
C122 C123 1.514 . S
C122 O140 1.248 . S
C122 O141 1.266 . S
C123 C122 1.514 . S
C123 C124 1.359 . S
C123 C128 1.348 . S
C124 C123 1.359 . S
C124 C125 1.380 . S
C124 H152 0.929 . S
C125 C124 1.380 . S
C125 C126 1.347 . S
C125 H153 0.931 . S
C126 C125 1.347 . S
C126 C127 1.369 . S
C127 C126 1.369 . S
C127 C128 1.408 . S
C127 H154 0.930 . S
C128 C123 1.348 . S
C128 C127 1.408 . S
C128 H155 0.930 . S
C129 O142 1.281 1_554 S
C129 O143 1.254 . S
C130 O144 1.236 . S
C130 O145 1.266 . S
C131 Tb121 2.809 . S
C131 C132 1.514 . S
C131 O146 1.248 . S
C131 O147 1.266 . S
C132 C131 1.514 . S
C132 C133 1.359 . S
C132 C137 1.348 . S
C133 C132 1.359 . S
C133 C134 1.380 . S
C133 H156 0.929 . S
C134 C133 1.380 . S
C134 C135 1.347 . S
C134 H157 0.931 . S
C135 C134 1.347 . S
C135 C136 1.369 . S
C136 C135 1.369 . S
C136 C137 1.408 . S
C136 H158 0.930 . S
C137 C132 1.348 . S
C137 C136 1.408 . S
C137 H159 0.930 . S
C138 O148 1.281 . S
C138 O149 1.269 . S
C139 O150 1.236 . S
C139 O151 1.266 1_556 S
O140 Tb120 2.484 . S
O140 C122 1.248 . S
O141 Tb120 2.440 . S
O141 C122 1.266 . S
O142 Tb120 2.658 1_556 S
O142 Tb121 2.325 . S
O142 C129 1.281 1_556 S
O143 Tb120 2.409 . S
O143 C129 1.254 . S
O144 Tb120 2.378 . S
O144 C130 1.236 . S
O145 Tb121 2.341 1_554 S
O145 C130 1.266 . S
O146 Tb121 2.484 . S
O146 C131 1.248 . S
O147 Tb121 2.440 . S
O147 C131 1.266 . S
O148 Tb120 2.325 . S
O148 Tb121 2.658 1_554 S
O148 C138 1.281 . S
O149 Tb121 2.403 1_554 S
O149 C138 1.269 . S
O150 Tb121 2.378 . S
O150 C139 1.236 . S
O151 Tb120 2.341 . S
O151 C139 1.266 1_554 S
H152 C124 0.929 . S
H153 C125 0.931 . S
H154 C127 0.930 . S
H155 C128 0.930 . S
H156 C133 0.929 . S
H157 C134 0.931 . S
H158 C136 0.930 . S
H159 C137 0.930 . S
Tb160 C162 2.809 . S
Tb160 O180 2.484 . S
Tb160 O181 2.440 . S
Tb160 O182 2.658 . S
Tb160 O183 2.409 . S
Tb160 O184 2.378 . S
Tb160 O188 2.325 . S
Tb160 O191 2.341 . S
Tb161 C171 2.809 . S
Tb161 O182 2.325 . S
Tb161 O185 2.341 . S
Tb161 O186 2.484 . S
Tb161 O187 2.440 . S
Tb161 O188 2.658 . S
Tb161 O189 2.409 . S
Tb161 O190 2.378 . S
C162 Tb160 2.809 . S
C162 C163 1.514 . S
C162 O180 1.248 . S
C162 O181 1.266 . S
C163 C162 1.514 . S
C163 C164 1.359 . S
C163 C168 1.348 . S
C164 C163 1.359 . S
C164 C165 1.380 . S
C164 H192 0.929 . S
C165 C164 1.380 . S
C165 C166 1.347 . S
C165 H193 0.931 . S
C166 C165 1.347 . S
C166 C167 1.369 . S
C167 C166 1.369 . S
C167 C168 1.408 . S
C167 H194 0.930 . S
C168 C163 1.348 . S
C168 C167 1.408 . S
C168 H195 0.930 . S
C169 O182 1.281 . S
C169 O183 1.254 . S
C170 O184 1.236 . S
C170 O185 1.266 . S
C171 Tb161 2.809 . S
C171 C172 1.524 . S
C171 O186 1.248 . S
C171 O187 1.266 . S
C172 C171 1.524 . S
C172 C173 1.353 1_556 S
C172 C177 1.344 1_556 S
C173 C172 1.353 1_554 S
C173 C174 1.380 . S
C173 H196 0.929 . S
C174 C173 1.380 . S
C174 C175 1.347 . S
C174 H197 0.931 . S
C175 C174 1.347 . S
C175 C176 1.369 . S
C176 C175 1.369 . S
C176 C177 1.408 . S
C176 H198 0.930 . S
C177 C172 1.344 1_554 S
C177 C176 1.408 . S
C177 H199 0.930 . S
C178 O188 1.281 . S
C178 O189 1.254 . S
C179 O190 1.236 . S
C179 O191 1.266 . S
O180 Tb160 2.484 . S
O180 C162 1.248 . S
O181 Tb160 2.440 . S
O181 C162 1.266 . S
O182 Tb160 2.658 . S
O182 Tb161 2.325 . S
O182 C169 1.281 . S
O183 Tb160 2.409 . S
O183 C169 1.254 . S
O184 Tb160 2.378 . S
O184 C170 1.236 . S
O185 Tb161 2.341 . S
O185 C170 1.266 . S
O186 Tb161 2.484 . S
O186 C171 1.248 . S
O187 Tb161 2.440 . S
O187 C171 1.266 . S
O188 Tb160 2.325 . S
O188 Tb161 2.658 . S
O188 C178 1.281 . S
O189 Tb161 2.409 . S
O189 C178 1.254 . S
O190 Tb161 2.378 . S
O190 C179 1.236 . S
O191 Tb160 2.341 . S
O191 C179 1.266 . S
H192 C164 0.929 . S
H193 C165 0.931 . S
H194 C167 0.930 . S
H195 C168 0.930 . S
H196 C173 0.929 . S
H197 C174 0.931 . S
H198 C176 0.930 . S
H199 C177 0.930 . S
Tb200 C202 2.809 . S
Tb200 O220 2.484 1_565 S
Tb200 O221 2.440 . S
Tb200 O222 2.658 . S
Tb200 O223 2.409 . S
Tb200 O224 2.378 . S
Tb200 O228 2.325 1_565 S
Tb200 O231 2.341 . S
Tb201 C211 2.809 . S
Tb201 O222 2.325 1_545 S
Tb201 O225 2.341 . S
Tb201 O226 2.484 1_545 S
Tb201 O227 2.440 . S
Tb201 O228 2.658 . S
Tb201 O229 2.409 . S
Tb201 O230 2.378 . S
C202 Tb200 2.809 . S
C202 C203 1.514 . S
C202 O220 1.248 1_565 S
C202 O221 1.266 . S
C203 C202 1.514 . S
C203 C204 1.359 1_565 S
C203 C208 1.348 . S
C204 C203 1.359 1_545 S
C204 C205 1.379 1_545 S
C204 H232 0.929 . S
C205 C204 1.379 1_565 S
C205 C206 1.361 . S
C205 H233 0.918 1_565 S
C206 C205 1.361 . S
C206 C207 1.369 . S
C207 C206 1.369 . S
C207 C208 1.408 . S
C207 H234 0.930 . S
C208 C203 1.348 . S
C208 C207 1.408 . S
C208 H235 0.930 . S
C209 O222 1.281 . S
C209 O223 1.254 . S
C210 O224 1.236 . S
C210 O225 1.266 1_565 S
C211 Tb201 2.809 . S
C211 C212 1.503 1_556 S
C211 O226 1.248 1_545 S
C211 O227 1.266 . S
C212 C211 1.503 1_554 S
C212 C213 1.365 1_545 S
C212 C217 1.353 . S
C213 C212 1.365 1_565 S
C213 C214 1.378 1_565 S
C213 H236 0.929 . S
C214 C213 1.378 1_545 S
C214 C215 1.370 . S
C214 H237 0.910 1_545 S
C215 C214 1.370 . S
C215 C216 1.369 . S
C216 C215 1.369 . S
C216 C217 1.408 . S
C216 H238 0.930 . S
C217 C212 1.353 . S
C217 C216 1.408 . S
C217 H239 0.930 . S
C218 O228 1.281 . S
C218 O229 1.254 . S
C219 O230 1.236 . S
C219 O231 1.266 1_545 S
O220 Tb200 2.484 1_545 S
O220 C202 1.248 1_545 S
O221 Tb200 2.440 . S
O221 C202 1.266 . S
O222 Tb200 2.658 . S
O222 Tb201 2.325 1_565 S
O222 C209 1.281 . S
O223 Tb200 2.409 . S
O223 C209 1.254 . S
O224 Tb200 2.378 . S
O224 C210 1.236 . S
O225 Tb201 2.341 . S
O225 C210 1.266 1_545 S
O226 Tb201 2.484 1_565 S
O226 C211 1.248 1_565 S
O227 Tb201 2.440 . S
O227 C211 1.266 . S
O228 Tb200 2.325 1_545 S
O228 Tb201 2.658 . S
O228 C218 1.281 . S
O229 Tb201 2.409 . S
O229 C218 1.254 . S
O230 Tb201 2.378 . S
O230 C219 1.236 . S
O231 Tb200 2.341 . S
O231 C219 1.266 1_565 S
H232 C204 0.929 . S
H233 C205 0.918 1_545 S
H234 C207 0.930 . S
H235 C208 0.930 . S
H236 C213 0.929 . S
H237 C214 0.910 1_565 S
H238 C216 0.930 . S
H239 C217 0.930 . S
Tb240 C242 2.809 . S
Tb240 O260 2.484 1_565 S
Tb240 O261 2.440 . S
Tb240 O262 2.658 1_554 S
Tb240 O263 2.409 1_554 S
Tb240 O264 2.378 . S
Tb240 O268 2.329 1_565 S
Tb240 O271 2.341 1_554 S
Tb241 C251 2.809 . S
Tb241 O262 2.325 1_545 S
Tb241 O265 2.341 . S
Tb241 O266 2.484 1_545 S
Tb241 O267 2.440 . S
Tb241 O268 2.647 1_556 S
Tb241 O269 2.409 . S
Tb241 O270 2.378 . S
C242 Tb240 2.809 . S
C242 C243 1.514 . S
C242 O260 1.248 1_565 S
C242 O261 1.266 . S
C243 C242 1.514 . S
C243 C244 1.359 1_565 S
C243 C248 1.348 . S
C244 C243 1.359 1_545 S
C244 C245 1.379 1_545 S
C244 H272 0.929 . S
C245 C244 1.379 1_565 S
C245 C246 1.361 . S
C245 H273 0.918 1_565 S
C246 C245 1.361 . S
C246 C247 1.369 . S
C247 C246 1.369 . S
C247 C248 1.408 . S
C247 H274 0.930 . S
C248 C243 1.348 . S
C248 C247 1.408 . S
C248 H275 0.930 . S
C249 O262 1.281 . S
C249 O263 1.254 . S
C250 O264 1.236 . S
C250 O265 1.266 1_564 S
C251 Tb241 2.809 . S
C251 C252 1.514 . S
C251 O266 1.248 1_545 S
C251 O267 1.266 . S
C252 C251 1.514 . S
C252 C253 1.359 1_545 S
C252 C257 1.348 . S
C253 C252 1.359 1_565 S
C253 C254 1.378 1_565 S
C253 H276 0.929 . S
C254 C253 1.378 1_545 S
C254 C255 1.370 . S
C254 H277 0.910 1_545 S
C255 C254 1.370 . S
C255 C256 1.369 . S
C256 C255 1.369 . S
C256 C257 1.408 . S
C256 H278 0.930 . S
C257 C252 1.348 . S
C257 C256 1.408 . S
C257 H279 0.930 . S
C258 O268 1.277 1_556 S
C258 O269 1.254 . S
C259 O270 1.236 . S
C259 O271 1.266 1_545 S
O260 Tb240 2.484 1_545 S
O260 C242 1.248 1_545 S
O261 Tb240 2.440 . S
O261 C242 1.266 . S
O262 Tb240 2.658 1_556 S
O262 Tb241 2.325 1_565 S
O262 C249 1.281 . S
O263 Tb240 2.409 1_556 S
O263 C249 1.254 . S
O264 Tb240 2.378 . S
O264 C250 1.236 . S
O265 Tb241 2.341 . S
O265 C250 1.266 1_546 S
O266 Tb241 2.484 1_565 S
O266 C251 1.248 1_565 S
O267 Tb241 2.440 . S
O267 C251 1.266 . S
O268 Tb240 2.329 1_545 S
O268 Tb241 2.647 1_554 S
O268 C258 1.277 1_554 S
O269 Tb241 2.409 . S
O269 C258 1.254 . S
O270 Tb241 2.378 . S
O270 C259 1.236 . S
O271 Tb240 2.341 1_556 S
O271 C259 1.266 1_565 S
H272 C244 0.929 . S
H273 C245 0.918 1_545 S
H274 C247 0.930 . S
H275 C248 0.930 . S
H276 C253 0.929 . S
H277 C254 0.910 1_565 S
H278 C256 0.930 . S
H279 C257 0.930 . S
Tb280 C282 2.809 . S
Tb280 O300 2.484 . S
Tb280 O301 2.440 . S
Tb280 O302 2.658 1_554 S
Tb280 O303 2.403 1_554 S
Tb280 O304 2.378 . S
Tb280 O308 2.325 . S
Tb280 O311 2.341 1_554 S
Tb281 C291 2.809 . S
Tb281 O302 2.325 . S
Tb281 O305 2.341 . S
Tb281 O306 2.484 . S
Tb281 O307 2.440 . S
Tb281 O308 2.658 1_556 S
Tb281 O309 2.409 . S
Tb281 O310 2.378 . S
C282 Tb280 2.809 . S
C282 C283 1.514 . S
C282 O300 1.248 . S
C282 O301 1.266 . S
C283 C282 1.514 . S
C283 C284 1.359 . S
C283 C288 1.348 . S
C284 C283 1.359 . S
C284 C285 1.380 . S
C284 H312 0.929 . S
C285 C284 1.380 . S
C285 C286 1.347 . S
C285 H313 0.931 . S
C286 C285 1.347 . S
C286 C287 1.369 . S
C287 C286 1.369 . S
C287 C288 1.408 . S
C287 H314 0.930 . S
C288 C283 1.348 . S
C288 C287 1.408 . S
C288 H315 0.930 . S
C289 O302 1.281 . S
C289 O303 1.269 . S
C290 O304 1.236 . S
C290 O305 1.266 1_554 S
C291 Tb281 2.809 . S
C291 C292 1.514 . S
C291 O306 1.248 . S
C291 O307 1.266 . S
C292 C291 1.514 . S
C292 C293 1.359 . S
C292 C297 1.348 . S
C293 C292 1.359 . S
C293 C294 1.380 . S
C293 H316 0.929 . S
C294 C293 1.380 . S
C294 C295 1.347 . S
C294 H317 0.931 . S
C295 C294 1.347 . S
C295 C296 1.369 . S
C296 C295 1.369 . S
C296 C297 1.408 . S
C296 H318 0.930 . S
C297 C292 1.348 . S
C297 C296 1.408 . S
C297 H319 0.930 . S
C298 O308 1.281 1_556 S
C298 O309 1.254 . S
C299 O310 1.236 . S
C299 O311 1.266 . S
O300 Tb280 2.484 . S
O300 C282 1.248 . S
O301 Tb280 2.440 . S
O301 C282 1.266 . S
O302 Tb280 2.658 1_556 S
O302 Tb281 2.325 . S
O302 C289 1.281 . S
O303 Tb280 2.403 1_556 S
O303 C289 1.269 . S
O304 Tb280 2.378 . S
O304 C290 1.236 . S
O305 Tb281 2.341 . S
O305 C290 1.266 1_556 S
O306 Tb281 2.484 . S
O306 C291 1.248 . S
O307 Tb281 2.440 . S
O307 C291 1.266 . S
O308 Tb280 2.325 . S
O308 Tb281 2.658 1_554 S
O308 C298 1.281 1_554 S
O309 Tb281 2.409 . S
O309 C298 1.254 . S
O310 Tb281 2.378 . S
O310 C299 1.236 . S
O311 Tb280 2.341 1_556 S
O311 C299 1.266 . S
H312 C284 0.929 . S
H313 C285 0.931 . S
H314 C287 0.930 . S
H315 C288 0.930 . S
H316 C293 0.929 . S
H317 C294 0.931 . S
H318 C296 0.930 . S
H319 C297 0.930 . S
Tb320 C322 2.809 . S
Tb320 O340 2.484 . S
Tb320 O341 2.440 . S
Tb320 O342 2.658 . S
Tb320 O343 2.409 . S
Tb320 O344 2.378 . S
Tb320 O348 2.325 . S
Tb320 O351 2.341 . S
Tb321 C331 2.809 . S
Tb321 O342 2.325 . S
Tb321 O345 2.341 . S
Tb321 O346 2.484 . S
Tb321 O347 2.440 . S
Tb321 O348 2.658 . S
Tb321 O349 2.409 . S
Tb321 O350 2.378 . S
C322 Tb320 2.809 . S
C322 C323 1.514 . S
C322 O340 1.248 . S
C322 O341 1.266 . S
C323 C322 1.514 . S
C323 C324 1.359 . S
C323 C328 1.348 . S
C324 C323 1.359 . S
C324 C325 1.380 . S
C324 H352 0.929 . S
C325 C324 1.380 . S
C325 C326 1.347 . S
C325 H353 0.931 . S
C326 C325 1.347 . S
C326 C327 1.369 . S
C327 C326 1.369 . S
C327 C328 1.408 . S
C327 H354 0.930 . S
C328 C323 1.348 . S
C328 C327 1.408 . S
C328 H355 0.930 . S
C329 O342 1.281 . S
C329 O343 1.254 . S
C330 O344 1.236 . S
C330 O345 1.266 . S
C331 Tb321 2.809 . S
C331 C332 1.514 . S
C331 O346 1.248 . S
C331 O347 1.266 . S
C332 C331 1.514 . S
C332 C333 1.359 . S
C332 C337 1.348 . S
C333 C332 1.359 . S
C333 C334 1.380 1_556 S
C333 H356 0.929 . S
C334 C333 1.380 1_554 S
C334 C335 1.347 . S
C334 H357 0.931 . S
C335 C334 1.347 . S
C335 C336 1.369 . S
C336 C335 1.369 . S
C336 C337 1.408 1_554 S
C336 H358 0.930 . S
C337 C332 1.348 . S
C337 C336 1.408 1_556 S
C337 H359 0.930 . S
C338 O348 1.281 . S
C338 O349 1.254 . S
C339 O350 1.236 . S
C339 O351 1.266 . S
O340 Tb320 2.484 . S
O340 C322 1.248 . S
O341 Tb320 2.440 . S
O341 C322 1.266 . S
O342 Tb320 2.658 . S
O342 Tb321 2.325 . S
O342 C329 1.281 . S
O343 Tb320 2.409 . S
O343 C329 1.254 . S
O344 Tb320 2.378 . S
O344 C330 1.236 . S
O345 Tb321 2.341 . S
O345 C330 1.266 . S
O346 Tb321 2.484 . S
O346 C331 1.248 . S
O347 Tb321 2.440 . S
O347 C331 1.266 . S
O348 Tb320 2.325 . S
O348 Tb321 2.658 . S
O348 C338 1.281 . S
O349 Tb321 2.409 . S
O349 C338 1.254 . S
O350 Tb321 2.378 . S
O350 C339 1.236 . S
O351 Tb320 2.341 . S
O351 C339 1.266 . S
H352 C324 0.929 . S
H353 C325 0.931 . S
H354 C327 0.930 . S
H355 C328 0.930 . S
H356 C333 0.929 . S
H357 C334 0.931 . S
H358 C336 0.930 . S
H359 C337 0.930 . S
Tb360 C362 2.809 . S
Tb360 O380 2.484 . S
Tb360 O381 2.440 . S
Tb360 O382 2.658 . S
Tb360 O383 2.409 . S
Tb360 O384 2.378 . S
Tb360 O388 2.325 . S
Tb360 O391 2.341 . S
Tb361 C371 2.809 . S
Tb361 O382 2.325 . S
Tb361 O385 2.341 . S
Tb361 O386 2.484 . S
Tb361 O387 2.440 . S
Tb361 O388 2.658 . S
Tb361 O389 2.409 . S
Tb361 O390 2.378 . S
C362 Tb360 2.809 . S
C362 C363 1.514 . S
C362 O380 1.248 . S
C362 O381 1.266 . S
C363 C362 1.514 . S
C363 C364 1.359 . S
C363 C368 1.348 . S
C364 C363 1.359 . S
C364 C365 1.380 . S
C364 H392 0.929 . S
C365 C364 1.380 . S
C365 C366 1.347 . S
C365 H393 0.931 . S
C366 C365 1.347 . S
C366 C367 1.369 . S
C367 C366 1.369 . S
C367 C368 1.408 . S
C367 H394 0.930 . S
C368 C363 1.348 . S
C368 C367 1.408 . S
C368 H395 0.930 . S
C369 O382 1.281 . S
C369 O383 1.254 . S
C370 O384 1.236 . S
C370 O385 1.266 . S
C371 Tb361 2.809 . S
C371 C372 1.514 . S
C371 O386 1.248 . S
C371 O387 1.266 . S
C372 C371 1.514 . S
C372 C373 1.359 . S
C372 C377 1.348 . S
C373 C372 1.359 . S
C373 C374 1.380 1_556 S
C373 H396 0.929 . S
C374 C373 1.380 1_554 S
C374 C375 1.347 . S
C374 H397 0.931 . S
C375 C374 1.347 . S
C375 C376 1.369 . S
C376 C375 1.369 . S
C376 C377 1.408 1_554 S
C376 H398 0.930 . S
C377 C372 1.348 . S
C377 C376 1.408 1_556 S
C377 H399 0.930 . S
C378 O388 1.281 . S
C378 O389 1.254 . S
C379 O390 1.236 . S
C379 O391 1.266 . S
O380 Tb360 2.484 . S
O380 C362 1.248 . S
O381 Tb360 2.440 . S
O381 C362 1.266 . S
O382 Tb360 2.658 . S
O382 Tb361 2.325 . S
O382 C369 1.281 . S
O383 Tb360 2.409 . S
O383 C369 1.254 . S
O384 Tb360 2.378 . S
O384 C370 1.236 . S
O385 Tb361 2.341 . S
O385 C370 1.266 . S
O386 Tb361 2.484 . S
O386 C371 1.248 . S
O387 Tb361 2.440 . S
O387 C371 1.266 . S
O388 Tb360 2.325 . S
O388 Tb361 2.658 . S
O388 C378 1.281 . S
O389 Tb361 2.409 . S
O389 C378 1.254 . S
O390 Tb361 2.378 . S
O390 C379 1.236 . S
O391 Tb360 2.341 . S
O391 C379 1.266 . S
H392 C364 0.929 . S
H393 C365 0.931 . S
H394 C367 0.930 . S
H395 C368 0.930 . S
H396 C373 0.929 . S
H397 C374 0.931 . S
H398 C376 0.930 . S
H399 C377 0.930 . S
Tb400 C402 2.809 . S
Tb400 O420 2.484 . S
Tb400 O421 2.440 . S
Tb400 O422 2.658 . S
Tb400 O423 2.409 . S
Tb400 O424 2.378 . S
Tb400 O428 2.325 . S
Tb400 O431 2.341 . S
Tb401 C411 2.809 . S
Tb401 O422 2.325 . S
Tb401 O425 2.341 . S
Tb401 O426 2.484 . S
Tb401 O427 2.440 . S
Tb401 O428 2.658 . S
Tb401 O429 2.409 . S
Tb401 O430 2.378 . S
C402 Tb400 2.809 . S
C402 C403 1.514 . S
C402 O420 1.248 . S
C402 O421 1.266 . S
C403 C402 1.514 . S
C403 C404 1.359 . S
C403 C408 1.348 . S
C404 C403 1.359 . S
C404 C405 1.380 . S
C404 H432 0.929 . S
C405 C404 1.380 . S
C405 C406 1.347 . S
C405 H433 0.931 . S
C406 C405 1.347 . S
C406 C407 1.369 . S
C407 C406 1.369 . S
C407 C408 1.408 . S
C407 H434 0.930 . S
C408 C403 1.348 . S
C408 C407 1.408 . S
C408 H435 0.930 . S
C409 O422 1.281 . S
C409 O423 1.254 . S
C410 O424 1.236 . S
C410 O425 1.266 . S
C411 Tb401 2.809 . S
C411 C412 1.514 . S
C411 O426 1.248 . S
C411 O427 1.266 . S
C412 C411 1.514 . S
C412 C413 1.359 . S
C412 C417 1.348 . S
C413 C412 1.359 . S
C413 C414 1.380 . S
C413 H436 0.929 . S
C414 C413 1.380 . S
C414 C415 1.347 . S
C414 H437 0.931 . S
C415 C414 1.347 . S
C415 C416 1.369 . S
C416 C415 1.369 . S
C416 C417 1.408 . S
C416 H438 0.930 . S
C417 C412 1.348 . S
C417 C416 1.408 . S
C417 H439 0.930 . S
C418 O428 1.281 . S
C418 O429 1.254 . S
C419 O430 1.236 . S
C419 O431 1.266 . S
O420 Tb400 2.484 . S
O420 C402 1.248 . S
O421 Tb400 2.440 . S
O421 C402 1.266 . S
O422 Tb400 2.658 . S
O422 Tb401 2.325 . S
O422 C409 1.281 . S
O423 Tb400 2.409 . S
O423 C409 1.254 . S
O424 Tb400 2.378 . S
O424 C410 1.236 . S
O425 Tb401 2.341 . S
O425 C410 1.266 . S
O426 Tb401 2.484 . S
O426 C411 1.248 . S
O427 Tb401 2.440 . S
O427 C411 1.266 . S
O428 Tb400 2.325 . S
O428 Tb401 2.658 . S
O428 C418 1.281 . S
O429 Tb401 2.409 . S
O429 C418 1.254 . S
O430 Tb401 2.378 . S
O430 C419 1.236 . S
O431 Tb400 2.341 . S
O431 C419 1.266 . S
H432 C404 0.929 . S
H433 C405 0.931 . S
H434 C407 0.930 . S
H435 C408 0.930 . S
H436 C413 0.929 . S
H437 C414 0.931 . S
H438 C416 0.930 . S
H439 C417 0.930 . S
Tb440 C442 2.809 . S
Tb440 O460 2.484 . S
Tb440 O461 2.440 . S
Tb440 O462 2.658 . S
Tb440 O463 2.409 . S
Tb440 O464 2.378 . S
Tb440 O468 2.325 . S
Tb440 O471 2.341 . S
Tb441 C451 2.809 . S
Tb441 O462 2.325 . S
Tb441 O465 2.341 . S
Tb441 O466 2.484 . S
Tb441 O467 2.440 . S
Tb441 O468 2.658 . S
Tb441 O469 2.409 . S
Tb441 O470 2.378 . S
C442 Tb440 2.809 . S
C442 C443 1.514 . S
C442 O460 1.248 . S
C442 O461 1.266 . S
C443 C442 1.514 . S
C443 C444 1.359 . S
C443 C448 1.348 . S
C444 C443 1.359 . S
C444 C445 1.380 . S
C444 H472 0.929 . S
C445 C444 1.380 . S
C445 C446 1.347 . S
C445 H473 0.931 . S
C446 C445 1.347 . S
C446 C447 1.369 . S
C447 C446 1.369 . S
C447 C448 1.408 . S
C447 H474 0.930 . S
C448 C443 1.348 . S
C448 C447 1.408 . S
C448 H475 0.930 . S
C449 O462 1.281 . S
C449 O463 1.254 . S
C450 O464 1.236 . S
C450 O465 1.266 . S
C451 Tb441 2.809 . S
C451 C452 1.514 . S
C451 O466 1.248 . S
C451 O467 1.266 . S
C452 C451 1.514 . S
C452 C453 1.359 . S
C452 C457 1.348 . S
C453 C452 1.359 . S
C453 C454 1.380 . S
C453 H476 0.929 . S
C454 C453 1.380 . S
C454 C455 1.347 . S
C454 H477 0.931 . S
C455 C454 1.347 . S
C455 C456 1.369 . S
C456 C455 1.369 . S
C456 C457 1.408 . S
C456 H478 0.930 . S
C457 C452 1.348 . S
C457 C456 1.408 . S
C457 H479 0.930 . S
C458 O468 1.281 . S
C458 O469 1.254 . S
C459 O470 1.236 . S
C459 O471 1.266 . S
O460 Tb440 2.484 . S
O460 C442 1.248 . S
O461 Tb440 2.440 . S
O461 C442 1.266 . S
O462 Tb440 2.658 . S
O462 Tb441 2.325 . S
O462 C449 1.281 . S
O463 Tb440 2.409 . S
O463 C449 1.254 . S
O464 Tb440 2.378 . S
O464 C450 1.236 . S
O465 Tb441 2.341 . S
O465 C450 1.266 . S
O466 Tb441 2.484 . S
O466 C451 1.248 . S
O467 Tb441 2.440 . S
O467 C451 1.266 . S
O468 Tb440 2.325 . S
O468 Tb441 2.658 . S
O468 C458 1.281 . S
O469 Tb441 2.409 . S
O469 C458 1.254 . S
O470 Tb441 2.378 . S
O470 C459 1.236 . S
O471 Tb440 2.341 . S
O471 C459 1.266 . S
H472 C444 0.929 . S
H473 C445 0.931 . S
H474 C447 0.930 . S
H475 C448 0.930 . S
H476 C453 0.929 . S
H477 C454 0.931 . S
H478 C456 0.930 . S
H479 C457 0.930 . S
Tb480 C482 2.809 . S
Tb480 O500 2.484 . S
Tb480 O501 2.440 . S
Tb480 O502 2.658 . S
Tb480 O503 2.409 . S
Tb480 O504 2.378 . S
Tb480 O508 2.325 . S
Tb480 O511 2.341 . S
Tb481 C491 2.809 . S
Tb481 O502 2.325 . S
Tb481 O505 2.341 . S
Tb481 O506 2.484 . S
Tb481 O507 2.440 . S
Tb481 O508 2.658 . S
Tb481 O509 2.409 . S
Tb481 O510 2.378 . S
C482 Tb480 2.809 . S
C482 C483 1.514 . S
C482 O500 1.248 . S
C482 O501 1.266 . S
C483 C482 1.514 . S
C483 C484 1.359 . S
C483 C488 1.348 . S
C484 C483 1.359 . S
C484 C485 1.380 1_554 S
C484 H512 0.929 . S
C485 C484 1.380 1_556 S
C485 C486 1.347 . S
C485 H513 0.931 . S
C486 C485 1.347 . S
C486 C487 1.369 . S
C487 C486 1.369 . S
C487 C488 1.408 1_556 S
C487 H514 0.930 . S
C488 C483 1.348 . S
C488 C487 1.408 1_554 S
C488 H515 0.930 . S
C489 O502 1.281 . S
C489 O503 1.254 . S
C490 O504 1.236 . S
C490 O505 1.266 . S
C491 Tb481 2.809 . S
C491 C492 1.514 . S
C491 O506 1.248 . S
C491 O507 1.266 . S
C492 C491 1.514 . S
C492 C493 1.359 . S
C492 C497 1.348 . S
C493 C492 1.359 . S
C493 C494 1.380 . S
C493 H516 0.929 . S
C494 C493 1.380 . S
C494 C495 1.347 . S
C494 H517 0.931 . S
C495 C494 1.347 . S
C495 C496 1.369 . S
C496 C495 1.369 . S
C496 C497 1.408 . S
C496 H518 0.930 . S
C497 C492 1.348 . S
C497 C496 1.408 . S
C497 H519 0.930 . S
C498 O508 1.281 . S
C498 O509 1.254 . S
C499 O510 1.236 . S
C499 O511 1.266 . S
O500 Tb480 2.484 . S
O500 C482 1.248 . S
O501 Tb480 2.440 . S
O501 C482 1.266 . S
O502 Tb480 2.658 . S
O502 Tb481 2.325 . S
O502 C489 1.281 . S
O503 Tb480 2.409 . S
O503 C489 1.254 . S
O504 Tb480 2.378 . S
O504 C490 1.236 . S
O505 Tb481 2.341 . S
O505 C490 1.266 . S
O506 Tb481 2.484 . S
O506 C491 1.248 . S
O507 Tb481 2.440 . S
O507 C491 1.266 . S
O508 Tb480 2.325 . S
O508 Tb481 2.658 . S
O508 C498 1.281 . S
O509 Tb481 2.409 . S
O509 C498 1.254 . S
O510 Tb481 2.378 . S
O510 C499 1.236 . S
O511 Tb480 2.341 . S
O511 C499 1.266 . S
H512 C484 0.929 . S
H513 C485 0.931 . S
H514 C487 0.930 . S
H515 C488 0.930 . S
H516 C493 0.929 . S
H517 C494 0.931 . S
H518 C496 0.930 . S
H519 C497 0.930 . S
Tb520 C522 2.809 . S
Tb520 O540 2.484 . S
Tb520 O541 2.440 . S
Tb520 O542 2.658 . S
Tb520 O543 2.409 . S
Tb520 O544 2.378 . S
Tb520 O548 2.325 . S
Tb520 O551 2.341 . S
Tb521 C531 2.809 . S
Tb521 O542 2.325 . S
Tb521 O545 2.341 . S
Tb521 O546 2.484 . S
Tb521 O547 2.440 . S
Tb521 O548 2.658 . S
Tb521 O549 2.409 . S
Tb521 O550 2.378 . S
C522 Tb520 2.809 . S
C522 C523 1.514 . S
C522 O540 1.248 . S
C522 O541 1.266 . S
C523 C522 1.514 . S
C523 C524 1.359 . S
C523 C528 1.348 . S
C524 C523 1.359 . S
C524 C525 1.380 1_554 S
C524 H552 0.929 . S
C525 C524 1.380 1_556 S
C525 C526 1.347 . S
C525 H553 0.931 . S
C526 C525 1.347 . S
C526 C527 1.369 . S
C527 C526 1.369 . S
C527 C528 1.408 1_556 S
C527 H554 0.930 . S
C528 C523 1.348 . S
C528 C527 1.408 1_554 S
C528 H555 0.930 . S
C529 O542 1.281 . S
C529 O543 1.254 . S
C530 O544 1.236 . S
C530 O545 1.266 . S
C531 Tb521 2.809 . S
C531 C532 1.514 . S
C531 O546 1.248 . S
C531 O547 1.266 . S
C532 C531 1.514 . S
C532 C533 1.359 . S
C532 C537 1.348 . S
C533 C532 1.359 . S
C533 C534 1.380 . S
C533 H556 0.929 . S
C534 C533 1.380 . S
C534 C535 1.347 . S
C534 H557 0.931 . S
C535 C534 1.347 . S
C535 C536 1.369 . S
C536 C535 1.369 . S
C536 C537 1.408 . S
C536 H558 0.930 . S
C537 C532 1.348 . S
C537 C536 1.408 . S
C537 H559 0.930 . S
C538 O548 1.281 . S
C538 O549 1.254 . S
C539 O550 1.236 . S
C539 O551 1.266 . S
O540 Tb520 2.484 . S
O540 C522 1.248 . S
O541 Tb520 2.440 . S
O541 C522 1.266 . S
O542 Tb520 2.658 . S
O542 Tb521 2.325 . S
O542 C529 1.281 . S
O543 Tb520 2.409 . S
O543 C529 1.254 . S
O544 Tb520 2.378 . S
O544 C530 1.236 . S
O545 Tb521 2.341 . S
O545 C530 1.266 . S
O546 Tb521 2.484 . S
O546 C531 1.248 . S
O547 Tb521 2.440 . S
O547 C531 1.266 . S
O548 Tb520 2.325 . S
O548 Tb521 2.658 . S
O548 C538 1.281 . S
O549 Tb521 2.409 . S
O549 C538 1.254 . S
O550 Tb521 2.378 . S
O550 C539 1.236 . S
O551 Tb520 2.341 . S
O551 C539 1.266 . S
H552 C524 0.929 . S
H553 C525 0.931 . S
H554 C527 0.930 . S
H555 C528 0.930 . S
H556 C533 0.929 . S
H557 C534 0.931 . S
H558 C536 0.930 . S
H559 C537 0.930 . S
Tb560 C562 2.809 . S
Tb560 O580 2.484 . S
Tb560 O581 2.440 . S
Tb560 O582 2.658 . S
Tb560 O583 2.409 . S
Tb560 O584 2.378 . S
Tb560 O588 2.325 . S
Tb560 O591 2.341 . S
Tb561 C571 2.809 . S
Tb561 O582 2.325 . S
Tb561 O585 2.341 . S
Tb561 O586 2.484 . S
Tb561 O587 2.440 . S
Tb561 O588 2.658 . S
Tb561 O589 2.409 . S
Tb561 O590 2.378 . S
C562 Tb560 2.809 . S
C562 C563 1.514 . S
C562 O580 1.248 . S
C562 O581 1.266 . S
C563 C562 1.514 . S
C563 C564 1.359 . S
C563 C568 1.348 . S
C564 C563 1.359 . S
C564 C565 1.380 . S
C564 H592 0.929 . S
C565 C564 1.380 . S
C565 C566 1.347 . S
C565 H593 0.931 . S
C566 C565 1.347 . S
C566 C567 1.369 . S
C567 C566 1.369 . S
C567 C568 1.408 . S
C567 H594 0.930 . S
C568 C563 1.348 . S
C568 C567 1.408 . S
C568 H595 0.930 . S
C569 O582 1.281 . S
C569 O583 1.254 . S
C570 O584 1.236 . S
C570 O585 1.266 . S
C571 Tb561 2.809 . S
C571 C572 1.514 . S
C571 O586 1.248 . S
C571 O587 1.266 . S
C572 C571 1.514 . S
C572 C573 1.359 . S
C572 C577 1.348 . S
C573 C572 1.359 . S
C573 C574 1.380 . S
C573 H596 0.929 . S
C574 C573 1.380 . S
C574 C575 1.347 . S
C574 H597 0.931 . S
C575 C574 1.347 . S
C575 C576 1.369 . S
C576 C575 1.369 . S
C576 C577 1.408 . S
C576 H598 0.930 . S
C577 C572 1.348 . S
C577 C576 1.408 . S
C577 H599 0.930 . S
C578 O588 1.281 . S
C578 O589 1.254 . S
C579 O590 1.236 . S
C579 O591 1.266 . S
O580 Tb560 2.484 . S
O580 C562 1.248 . S
O581 Tb560 2.440 . S
O581 C562 1.266 . S
O582 Tb560 2.658 . S
O582 Tb561 2.325 . S
O582 C569 1.281 . S
O583 Tb560 2.409 . S
O583 C569 1.254 . S
O584 Tb560 2.378 . S
O584 C570 1.236 . S
O585 Tb561 2.341 . S
O585 C570 1.266 . S
O586 Tb561 2.484 . S
O586 C571 1.248 . S
O587 Tb561 2.440 . S
O587 C571 1.266 . S
O588 Tb560 2.325 . S
O588 Tb561 2.658 . S
O588 C578 1.281 . S
O589 Tb561 2.409 . S
O589 C578 1.254 . S
O590 Tb561 2.378 . S
O590 C579 1.236 . S
O591 Tb560 2.341 . S
O591 C579 1.266 . S
H592 C564 0.929 . S
H593 C565 0.931 . S
H594 C567 0.930 . S
H595 C568 0.930 . S
H596 C573 0.929 . S
H597 C574 0.931 . S
H598 C576 0.930 . S
H599 C577 0.930 . S
Tb600 C602 2.809 . S
Tb600 O620 2.484 . S
Tb600 O621 2.440 . S
Tb600 O622 2.658 . S
Tb600 O623 2.409 . S
Tb600 O624 2.378 . S
Tb600 O628 2.325 . S
Tb600 O631 2.341 . S
Tb601 C611 2.809 . S
Tb601 O622 2.325 . S
Tb601 O625 2.341 . S
Tb601 O626 2.484 . S
Tb601 O627 2.440 . S
Tb601 O628 2.658 . S
Tb601 O629 2.409 . S
Tb601 O630 2.378 . S
C602 Tb600 2.809 . S
C602 C603 1.514 . S
C602 O620 1.248 . S
C602 O621 1.266 . S
C603 C602 1.514 . S
C603 C604 1.359 . S
C603 C608 1.348 . S
C604 C603 1.359 . S
C604 C605 1.380 . S
C604 H632 0.929 . S
C605 C604 1.380 . S
C605 C606 1.347 . S
C605 H633 0.931 . S
C606 C605 1.347 . S
C606 C607 1.369 . S
C607 C606 1.369 . S
C607 C608 1.408 . S
C607 H634 0.930 . S
C608 C603 1.348 . S
C608 C607 1.408 . S
C608 H635 0.930 . S
C609 O622 1.281 . S
C609 O623 1.254 . S
C610 O624 1.236 . S
C610 O625 1.266 . S
C611 Tb601 2.809 . S
C611 C612 1.514 . S
C611 O626 1.248 . S
C611 O627 1.266 . S
C612 C611 1.514 . S
C612 C613 1.359 . S
C612 C617 1.348 . S
C613 C612 1.359 . S
C613 C614 1.380 . S
C613 H636 0.929 . S
C614 C613 1.380 . S
C614 C615 1.347 . S
C614 H637 0.931 . S
C615 C614 1.347 . S
C615 C616 1.369 . S
C616 C615 1.369 . S
C616 C617 1.408 . S
C616 H638 0.930 . S
C617 C612 1.348 . S
C617 C616 1.408 . S
C617 H639 0.930 . S
C618 O628 1.281 . S
C618 O629 1.254 . S
C619 O630 1.236 . S
C619 O631 1.266 . S
O620 Tb600 2.484 . S
O620 C602 1.248 . S
O621 Tb600 2.440 . S
O621 C602 1.266 . S
O622 Tb600 2.658 . S
O622 Tb601 2.325 . S
O622 C609 1.281 . S
O623 Tb600 2.409 . S
O623 C609 1.254 . S
O624 Tb600 2.378 . S
O624 C610 1.236 . S
O625 Tb601 2.341 . S
O625 C610 1.266 . S
O626 Tb601 2.484 . S
O626 C611 1.248 . S
O627 Tb601 2.440 . S
O627 C611 1.266 . S
O628 Tb600 2.325 . S
O628 Tb601 2.658 . S
O628 C618 1.281 . S
O629 Tb601 2.409 . S
O629 C618 1.254 . S
O630 Tb601 2.378 . S
O630 C619 1.236 . S
O631 Tb600 2.341 . S
O631 C619 1.266 . S
H632 C604 0.929 . S
H633 C605 0.931 . S
H634 C607 0.930 . S
H635 C608 0.930 . S
H636 C613 0.929 . S
H637 C614 0.931 . S
H638 C616 0.930 . S
H639 C617 0.930 . S
Tb640 C642 2.809 . S
Tb640 O660 2.484 . S
Tb640 O661 2.440 . S
Tb640 O662 2.658 . S
Tb640 O663 2.409 . S
Tb640 O664 2.378 . S
Tb640 O668 2.325 . S
Tb640 O671 2.341 . S
Tb641 C651 2.809 . S
Tb641 O662 2.325 . S
Tb641 O665 2.341 . S
Tb641 O666 2.484 . S
Tb641 O667 2.440 . S
Tb641 O668 2.658 . S
Tb641 O669 2.409 . S
Tb641 O670 2.378 . S
C642 Tb640 2.809 . S
C642 C643 1.514 . S
C642 O660 1.248 . S
C642 O661 1.266 . S
C643 C642 1.514 . S
C643 C644 1.359 . S
C643 C648 1.348 . S
C644 C643 1.359 . S
C644 C645 1.380 . S
C644 H672 0.929 . S
C645 C644 1.380 . S
C645 C646 1.347 . S
C645 H673 0.931 . S
C646 C645 1.347 . S
C646 C647 1.369 . S
C647 C646 1.369 . S
C647 C648 1.408 . S
C647 H674 0.930 . S
C648 C643 1.348 . S
C648 C647 1.408 . S
C648 H675 0.930 . S
C649 O662 1.281 . S
C649 O663 1.254 . S
C650 O664 1.236 . S
C650 O665 1.266 . S
C651 Tb641 2.809 . S
C651 C652 1.514 . S
C651 O666 1.248 . S
C651 O667 1.266 . S
C652 C651 1.514 . S
C652 C653 1.359 . S
C652 C657 1.348 . S
C653 C652 1.359 . S
C653 C654 1.380 1_556 S
C653 H676 0.929 . S
C654 C653 1.380 1_554 S
C654 C655 1.347 . S
C654 H677 0.931 . S
C655 C654 1.347 . S
C655 C656 1.369 . S
C656 C655 1.369 . S
C656 C657 1.408 1_554 S
C656 H678 0.930 . S
C657 C652 1.348 . S
C657 C656 1.408 1_556 S
C657 H679 0.930 . S
C658 O668 1.281 . S
C658 O669 1.254 . S
C659 O670 1.236 . S
C659 O671 1.266 . S
O660 Tb640 2.484 . S
O660 C642 1.248 . S
O661 Tb640 2.440 . S
O661 C642 1.266 . S
O662 Tb640 2.658 . S
O662 Tb641 2.325 . S
O662 C649 1.281 . S
O663 Tb640 2.409 . S
O663 C649 1.254 . S
O664 Tb640 2.378 . S
O664 C650 1.236 . S
O665 Tb641 2.341 . S
O665 C650 1.266 . S
O666 Tb641 2.484 . S
O666 C651 1.248 . S
O667 Tb641 2.440 . S
O667 C651 1.266 . S
O668 Tb640 2.325 . S
O668 Tb641 2.658 . S
O668 C658 1.281 . S
O669 Tb641 2.409 . S
O669 C658 1.254 . S
O670 Tb641 2.378 . S
O670 C659 1.236 . S
O671 Tb640 2.341 . S
O671 C659 1.266 . S
H672 C644 0.929 . S
H673 C645 0.931 . S
H674 C647 0.930 . S
H675 C648 0.930 . S
H676 C653 0.929 . S
H677 C654 0.931 . S
H678 C656 0.930 . S
H679 C657 0.930 . S
Tb680 C682 2.809 . S
Tb680 O700 2.484 1_565 S
Tb680 O701 2.440 . S
Tb680 O702 2.658 . S
Tb680 O703 2.409 . S
Tb680 O704 2.378 . S
Tb680 O708 2.325 1_565 S
Tb680 O711 2.341 . S
Tb681 C691 2.809 . S
Tb681 O702 2.325 1_545 S
Tb681 O705 2.341 . S
Tb681 O706 2.484 1_545 S
Tb681 O707 2.440 . S
Tb681 O708 2.658 . S
Tb681 O709 2.409 . S
Tb681 O710 2.378 . S
C682 Tb680 2.809 . S
C682 C683 1.514 . S
C682 O700 1.248 1_565 S
C682 O701 1.266 . S
C683 C682 1.514 . S
C683 C684 1.359 1_565 S
C683 C688 1.348 . S
C684 C683 1.359 1_545 S
C684 C685 1.378 1_545 S
C684 H712 0.929 . S
C685 C684 1.378 1_565 S
C685 C686 1.370 . S
C685 H713 0.910 1_565 S
C686 C685 1.370 . S
C686 C687 1.369 . S
C687 C686 1.369 . S
C687 C688 1.408 . S
C687 H714 0.930 . S
C688 C683 1.348 . S
C688 C687 1.408 . S
C688 H715 0.930 . S
C689 O702 1.281 . S
C689 O703 1.254 . S
C690 O704 1.236 . S
C690 O705 1.266 1_565 S
C691 Tb681 2.809 . S
C691 C692 1.514 . S
C691 O706 1.248 1_545 S
C691 O707 1.266 . S
C692 C691 1.514 . S
C692 C693 1.359 1_545 S
C692 C697 1.348 . S
C693 C692 1.359 1_565 S
C693 C694 1.379 1_566 S
C693 H716 0.929 . S
C694 C693 1.379 1_544 S
C694 C695 1.361 . S
C694 H717 0.918 1_545 S
C695 C694 1.361 . S
C695 C696 1.369 . S
C696 C695 1.369 . S
C696 C697 1.408 1_554 S
C696 H718 0.930 . S
C697 C692 1.348 . S
C697 C696 1.408 1_556 S
C697 H719 0.930 . S
C698 O708 1.281 . S
C698 O709 1.254 . S
C699 O710 1.236 . S
C699 O711 1.266 1_545 S
O700 Tb680 2.484 1_545 S
O700 C682 1.248 1_545 S
O701 Tb680 2.440 . S
O701 C682 1.266 . S
O702 Tb680 2.658 . S
O702 Tb681 2.325 1_565 S
O702 C689 1.281 . S
O703 Tb680 2.409 . S
O703 C689 1.254 . S
O704 Tb680 2.378 . S
O704 C690 1.236 . S
O705 Tb681 2.341 . S
O705 C690 1.266 1_545 S
O706 Tb681 2.484 1_565 S
O706 C691 1.248 1_565 S
O707 Tb681 2.440 . S
O707 C691 1.266 . S
O708 Tb680 2.325 1_545 S
O708 Tb681 2.658 . S
O708 C698 1.281 . S
O709 Tb681 2.409 . S
O709 C698 1.254 . S
O710 Tb681 2.378 . S
O710 C699 1.236 . S
O711 Tb680 2.341 . S
O711 C699 1.266 1_565 S
H712 C684 0.929 . S
H713 C685 0.910 1_545 S
H714 C687 0.930 . S
H715 C688 0.930 . S
H716 C693 0.929 . S
H717 C694 0.918 1_565 S
H718 C696 0.930 . S
H719 C697 0.930 . S
Tb720 C722 2.809 . S
Tb720 O740 2.484 1_565 S
Tb720 O741 2.440 . S
Tb720 O742 2.658 . S
Tb720 O743 2.409 . S
Tb720 O744 2.378 . S
Tb720 O748 2.325 1_565 S
Tb720 O751 2.341 . S
Tb721 C731 2.809 . S
Tb721 O742 2.325 1_545 S
Tb721 O745 2.341 . S
Tb721 O746 2.484 1_545 S
Tb721 O747 2.440 . S
Tb721 O748 2.658 . S
Tb721 O749 2.409 . S
Tb721 O750 2.378 . S
C722 Tb720 2.809 . S
C722 C723 1.514 . S
C722 O740 1.248 1_565 S
C722 O741 1.266 . S
C723 C722 1.514 . S
C723 C724 1.359 1_565 S
C723 C728 1.348 . S
C724 C723 1.359 1_545 S
C724 C725 1.378 1_545 S
C724 H752 0.929 . S
C725 C724 1.378 1_565 S
C725 C726 1.370 . S
C725 H753 0.910 1_565 S
C726 C725 1.370 . S
C726 C727 1.369 . S
C727 C726 1.369 . S
C727 C728 1.408 . S
C727 H754 0.930 . S
C728 C723 1.348 . S
C728 C727 1.408 . S
C728 H755 0.930 . S
C729 O742 1.281 . S
C729 O743 1.254 . S
C730 O744 1.236 . S
C730 O745 1.266 1_565 S
C731 Tb721 2.809 . S
C731 C732 1.514 . S
C731 O746 1.248 1_545 S
C731 O747 1.266 . S
C732 C731 1.514 . S
C732 C733 1.359 1_545 S
C732 C737 1.348 . S
C733 C732 1.359 1_565 S
C733 C734 1.379 1_565 S
C733 H756 0.929 . S
C734 C733 1.379 1_545 S
C734 C735 1.361 . S
C734 H757 0.918 1_545 S
C735 C734 1.361 . S
C735 C736 1.369 . S
C736 C735 1.369 . S
C736 C737 1.408 . S
C736 H758 0.930 . S
C737 C732 1.348 . S
C737 C736 1.408 . S
C737 H759 0.930 . S
C738 O748 1.281 . S
C738 O749 1.254 . S
C739 O750 1.236 . S
C739 O751 1.266 1_545 S
O740 Tb720 2.484 1_545 S
O740 C722 1.248 1_545 S
O741 Tb720 2.440 . S
O741 C722 1.266 . S
O742 Tb720 2.658 . S
O742 Tb721 2.325 1_565 S
O742 C729 1.281 . S
O743 Tb720 2.409 . S
O743 C729 1.254 . S
O744 Tb720 2.378 . S
O744 C730 1.236 . S
O745 Tb721 2.341 . S
O745 C730 1.266 1_545 S
O746 Tb721 2.484 1_565 S
O746 C731 1.248 1_565 S
O747 Tb721 2.440 . S
O747 C731 1.266 . S
O748 Tb720 2.325 1_545 S
O748 Tb721 2.658 . S
O748 C738 1.281 . S
O749 Tb721 2.409 . S
O749 C738 1.254 . S
O750 Tb721 2.378 . S
O750 C739 1.236 . S
O751 Tb720 2.341 . S
O751 C739 1.266 1_565 S
H752 C724 0.929 . S
H753 C725 0.910 1_545 S
H754 C727 0.930 . S
H755 C728 0.930 . S
H756 C733 0.929 . S
H757 C734 0.918 1_565 S
H758 C736 0.930 . S
H759 C737 0.930 . S
Tb760 C762 2.809 . S
Tb760 O780 2.484 . S
Tb760 O781 2.440 . S
Tb760 O782 2.658 . S
Tb760 O783 2.409 . S
Tb760 O784 2.378 . S
Tb760 O788 2.325 . S
Tb760 O791 2.341 . S
Tb761 C771 2.809 . S
Tb761 O782 2.325 . S
Tb761 O785 2.341 . S
Tb761 O786 2.484 . S
Tb761 O787 2.440 . S
Tb761 O788 2.658 . S
Tb761 O789 2.409 . S
Tb761 O790 2.378 . S
C762 Tb760 2.809 . S
C762 C763 1.514 . S
C762 O780 1.248 . S
C762 O781 1.266 . S
C763 C762 1.514 . S
C763 C764 1.359 . S
C763 C768 1.348 . S
C764 C763 1.359 . S
C764 C765 1.380 . S
C764 H792 0.929 . S
C765 C764 1.380 . S
C765 C766 1.347 . S
C765 H793 0.931 . S
C766 C765 1.347 . S
C766 C767 1.369 . S
C767 C766 1.369 . S
C767 C768 1.408 . S
C767 H794 0.930 . S
C768 C763 1.348 . S
C768 C767 1.408 . S
C768 H795 0.930 . S
C769 O782 1.281 . S
C769 O783 1.254 . S
C770 O784 1.236 . S
C770 O785 1.266 . S
C771 Tb761 2.809 . S
C771 C772 1.514 . S
C771 O786 1.248 . S
C771 O787 1.266 . S
C772 C771 1.514 . S
C772 C773 1.359 . S
C772 C777 1.348 . S
C773 C772 1.359 . S
C773 C774 1.380 . S
C773 H796 0.929 . S
C774 C773 1.380 . S
C774 C775 1.347 . S
C774 H797 0.931 . S
C775 C774 1.347 . S
C775 C776 1.369 . S
C776 C775 1.369 . S
C776 C777 1.408 . S
C776 H798 0.930 . S
C777 C772 1.348 . S
C777 C776 1.408 . S
C777 H799 0.930 . S
C778 O788 1.281 . S
C778 O789 1.254 . S
C779 O790 1.236 . S
C779 O791 1.266 . S
O780 Tb760 2.484 . S
O780 C762 1.248 . S
O781 Tb760 2.440 . S
O781 C762 1.266 . S
O782 Tb760 2.658 . S
O782 Tb761 2.325 . S
O782 C769 1.281 . S
O783 Tb760 2.409 . S
O783 C769 1.254 . S
O784 Tb760 2.378 . S
O784 C770 1.236 . S
O785 Tb761 2.341 . S
O785 C770 1.266 . S
O786 Tb761 2.484 . S
O786 C771 1.248 . S
O787 Tb761 2.440 . S
O787 C771 1.266 . S
O788 Tb760 2.325 . S
O788 Tb761 2.658 . S
O788 C778 1.281 . S
O789 Tb761 2.409 . S
O789 C778 1.254 . S
O790 Tb761 2.378 . S
O790 C779 1.236 . S
O791 Tb760 2.341 . S
O791 C779 1.266 . S
H792 C764 0.929 . S
H793 C765 0.931 . S
H794 C767 0.930 . S
H795 C768 0.930 . S
H796 C773 0.929 . S
H797 C774 0.931 . S
H798 C776 0.930 . S
H799 C777 0.930 . S
Tb800 C802 2.809 . S
Tb800 O820 2.484 . S
Tb800 O821 2.440 . S
Tb800 O822 2.658 . S
Tb800 O823 2.409 . S
Tb800 O824 2.378 . S
Tb800 O828 2.325 . S
Tb800 O831 2.341 . S
Tb801 C811 2.809 . S
Tb801 O822 2.325 . S
Tb801 O825 2.341 . S
Tb801 O826 2.484 . S
Tb801 O827 2.440 . S
Tb801 O828 2.658 . S
Tb801 O829 2.409 . S
Tb801 O830 2.378 . S
C802 Tb800 2.809 . S
C802 C803 1.514 . S
C802 O820 1.248 . S
C802 O821 1.266 . S
C803 C802 1.514 . S
C803 C804 1.359 . S
C803 C808 1.348 . S
C804 C803 1.359 . S
C804 C805 1.380 1_554 S
C804 H832 0.929 . S
C805 C804 1.380 1_556 S
C805 C806 1.347 . S
C805 H833 0.931 . S
C806 C805 1.347 . S
C806 C807 1.369 . S
C807 C806 1.369 . S
C807 C808 1.408 1_556 S
C807 H834 0.930 . S
C808 C803 1.348 . S
C808 C807 1.408 1_554 S
C808 H835 0.930 . S
C809 O822 1.281 . S
C809 O823 1.254 . S
C810 O824 1.236 . S
C810 O825 1.266 . S
C811 Tb801 2.809 . S
C811 C812 1.514 . S
C811 O826 1.248 . S
C811 O827 1.266 . S
C812 C811 1.514 . S
C812 C813 1.359 . S
C812 C817 1.348 . S
C813 C812 1.359 . S
C813 C814 1.380 . S
C813 H836 0.929 . S
C814 C813 1.380 . S
C814 C815 1.347 . S
C814 H837 0.931 . S
C815 C814 1.347 . S
C815 C816 1.369 . S
C816 C815 1.369 . S
C816 C817 1.408 . S
C816 H838 0.930 . S
C817 C812 1.348 . S
C817 C816 1.408 . S
C817 H839 0.930 . S
C818 O828 1.281 . S
C818 O829 1.254 . S
C819 O830 1.236 . S
C819 O831 1.266 . S
O820 Tb800 2.484 . S
O820 C802 1.248 . S
O821 Tb800 2.440 . S
O821 C802 1.266 . S
O822 Tb800 2.658 . S
O822 Tb801 2.325 . S
O822 C809 1.281 . S
O823 Tb800 2.409 . S
O823 C809 1.254 . S
O824 Tb800 2.378 . S
O824 C810 1.236 . S
O825 Tb801 2.341 . S
O825 C810 1.266 . S
O826 Tb801 2.484 . S
O826 C811 1.248 . S
O827 Tb801 2.440 . S
O827 C811 1.266 . S
O828 Tb800 2.325 . S
O828 Tb801 2.658 . S
O828 C818 1.281 . S
O829 Tb801 2.409 . S
O829 C818 1.254 . S
O830 Tb801 2.378 . S
O830 C819 1.236 . S
O831 Tb800 2.341 . S
O831 C819 1.266 . S
H832 C804 0.929 . S
H833 C805 0.931 . S
H834 C807 0.930 . S
H835 C808 0.930 . S
H836 C813 0.929 . S
H837 C814 0.931 . S
H838 C816 0.930 . S
H839 C817 0.930 . S
Tb840 C842 2.809 . S
Tb840 O860 2.484 1_565 S
Tb840 O861 2.440 . S
Tb840 O862 2.658 . S
Tb840 O863 2.409 . S
Tb840 O864 2.378 . S
Tb840 O868 2.325 1_565 S
Tb840 O871 2.341 . S
Tb841 C851 2.809 . S
Tb841 O862 2.325 1_545 S
Tb841 O865 2.341 . S
Tb841 O866 2.484 1_545 S
Tb841 O867 2.440 . S
Tb841 O868 2.658 . S
Tb841 O869 2.409 . S
Tb841 O870 2.378 . S
C842 Tb840 2.809 . S
C842 C843 1.514 . S
C842 O860 1.248 1_565 S
C842 O861 1.266 . S
C843 C842 1.514 . S
C843 C844 1.359 1_565 S
C843 C848 1.348 . S
C844 C843 1.359 1_545 S
C844 C845 1.379 1_544 S
C844 H872 0.929 . S
C845 C844 1.379 1_566 S
C845 C846 1.361 . S
C845 H873 0.918 1_565 S
C846 C845 1.361 . S
C846 C847 1.369 . S
C847 C846 1.369 . S
C847 C848 1.408 1_556 S
C847 H874 0.930 . S
C848 C843 1.348 . S
C848 C847 1.408 1_554 S
C848 H875 0.930 . S
C849 O862 1.281 . S
C849 O863 1.254 . S
C850 O864 1.236 . S
C850 O865 1.266 1_565 S
C851 Tb841 2.809 . S
C851 C852 1.514 . S
C851 O866 1.248 1_545 S
C851 O867 1.266 . S
C852 C851 1.514 . S
C852 C853 1.359 1_545 S
C852 C857 1.348 . S
C853 C852 1.359 1_565 S
C853 C854 1.378 1_565 S
C853 H876 0.929 . S
C854 C853 1.378 1_545 S
C854 C855 1.370 . S
C854 H877 0.910 1_545 S
C855 C854 1.370 . S
C855 C856 1.369 . S
C856 C855 1.369 . S
C856 C857 1.408 . S
C856 H878 0.930 . S
C857 C852 1.348 . S
C857 C856 1.408 . S
C857 H879 0.930 . S
C858 O868 1.281 . S
C858 O869 1.254 . S
C859 O870 1.236 . S
C859 O871 1.266 1_545 S
O860 Tb840 2.484 1_545 S
O860 C842 1.248 1_545 S
O861 Tb840 2.440 . S
O861 C842 1.266 . S
O862 Tb840 2.658 . S
O862 Tb841 2.325 1_565 S
O862 C849 1.281 . S
O863 Tb840 2.409 . S
O863 C849 1.254 . S
O864 Tb840 2.378 . S
O864 C850 1.236 . S
O865 Tb841 2.341 . S
O865 C850 1.266 1_545 S
O866 Tb841 2.484 1_565 S
O866 C851 1.248 1_565 S
O867 Tb841 2.440 . S
O867 C851 1.266 . S
O868 Tb840 2.325 1_545 S
O868 Tb841 2.658 . S
O868 C858 1.281 . S
O869 Tb841 2.409 . S
O869 C858 1.254 . S
O870 Tb841 2.378 . S
O870 C859 1.236 . S
O871 Tb840 2.341 . S
O871 C859 1.266 1_565 S
H872 C844 0.929 . S
H873 C845 0.918 1_545 S
H874 C847 0.930 . S
H875 C848 0.930 . S
H876 C853 0.929 . S
H877 C854 0.910 1_565 S
H878 C856 0.930 . S
H879 C857 0.930 . S
Tb880 C882 2.809 . S
Tb880 O900 2.484 1_565 S
Tb880 O901 2.440 . S
Tb880 O902 2.658 . S
Tb880 O903 2.409 . S
Tb880 O904 2.378 . S
Tb880 O908 2.325 1_565 S
Tb880 O911 2.341 . S
Tb881 C891 2.809 . S
Tb881 O902 2.325 1_545 S
Tb881 O905 2.341 . S
Tb881 O906 2.484 1_545 S
Tb881 O907 2.440 . S
Tb881 O908 2.658 . S
Tb881 O909 2.409 . S
Tb881 O910 2.378 . S
C882 Tb880 2.809 . S
C882 C883 1.514 . S
C882 O900 1.248 1_565 S
C882 O901 1.266 . S
C883 C882 1.514 . S
C883 C884 1.359 1_565 S
C883 C888 1.348 . S
C884 C883 1.359 1_545 S
C884 C885 1.379 1_545 S
C884 H912 0.929 . S
C885 C884 1.379 1_565 S
C885 C886 1.361 . S
C885 H913 0.918 1_565 S
C886 C885 1.361 . S
C886 C887 1.369 . S
C887 C886 1.369 . S
C887 C888 1.408 . S
C887 H914 0.930 . S
C888 C883 1.348 . S
C888 C887 1.408 . S
C888 H915 0.930 . S
C889 O902 1.281 . S
C889 O903 1.254 . S
C890 O904 1.236 . S
C890 O905 1.266 1_565 S
C891 Tb881 2.809 . S
C891 C892 1.514 . S
C891 O906 1.248 1_545 S
C891 O907 1.266 . S
C892 C891 1.514 . S
C892 C893 1.359 1_545 S
C892 C897 1.348 . S
C893 C892 1.359 1_565 S
C893 C894 1.378 1_565 S
C893 H916 0.929 . S
C894 C893 1.378 1_545 S
C894 C895 1.370 . S
C894 H917 0.910 1_545 S
C895 C894 1.370 . S
C895 C896 1.369 . S
C896 C895 1.369 . S
C896 C897 1.408 . S
C896 H918 0.930 . S
C897 C892 1.348 . S
C897 C896 1.408 . S
C897 H919 0.930 . S
C898 O908 1.281 . S
C898 O909 1.254 . S
C899 O910 1.236 . S
C899 O911 1.266 1_545 S
O900 Tb880 2.484 1_545 S
O900 C882 1.248 1_545 S
O901 Tb880 2.440 . S
O901 C882 1.266 . S
O902 Tb880 2.658 . S
O902 Tb881 2.325 1_565 S
O902 C889 1.281 . S
O903 Tb880 2.409 . S
O903 C889 1.254 . S
O904 Tb880 2.378 . S
O904 C890 1.236 . S
O905 Tb881 2.341 . S
O905 C890 1.266 1_545 S
O906 Tb881 2.484 1_565 S
O906 C891 1.248 1_565 S
O907 Tb881 2.440 . S
O907 C891 1.266 . S
O908 Tb880 2.325 1_545 S
O908 Tb881 2.658 . S
O908 C898 1.281 . S
O909 Tb881 2.409 . S
O909 C898 1.254 . S
O910 Tb881 2.378 . S
O910 C899 1.236 . S
O911 Tb880 2.341 . S
O911 C899 1.266 1_565 S
H912 C884 0.929 . S
H913 C885 0.918 1_545 S
H914 C887 0.930 . S
H915 C888 0.930 . S
H916 C893 0.929 . S
H917 C894 0.910 1_565 S
H918 C896 0.930 . S
H919 C897 0.930 . S
Tb920 C922 2.809 . S
Tb920 O940 2.484 . S
Tb920 O941 2.440 . S
Tb920 O942 2.658 . S
Tb920 O943 2.409 . S
Tb920 O944 2.378 . S
Tb920 O948 2.325 . S
Tb920 O951 2.341 . S
Tb921 C931 2.809 . S
Tb921 O942 2.325 . S
Tb921 O945 2.341 . S
Tb921 O946 2.484 . S
Tb921 O947 2.440 . S
Tb921 O948 2.658 . S
Tb921 O949 2.409 . S
Tb921 O950 2.378 . S
C922 Tb920 2.809 . S
C922 C923 1.514 . S
C922 O940 1.248 . S
C922 O941 1.266 . S
C923 C922 1.514 . S
C923 C924 1.359 . S
C923 C928 1.348 . S
C924 C923 1.359 . S
C924 C925 1.380 . S
C924 H952 0.929 . S
C925 C924 1.380 . S
C925 C926 1.347 . S
C925 H953 0.931 . S
C926 C925 1.347 . S
C926 C927 1.369 . S
C927 C926 1.369 . S
C927 C928 1.408 . S
C927 H954 0.930 . S
C928 C923 1.348 . S
C928 C927 1.408 . S
C928 H955 0.930 . S
C929 O942 1.281 . S
C929 O943 1.254 . S
C930 O944 1.236 . S
C930 O945 1.266 . S
C931 Tb921 2.809 . S
C931 C932 1.514 . S
C931 O946 1.248 . S
C931 O947 1.266 . S
C932 C931 1.514 . S
C932 C933 1.359 . S
C932 C937 1.348 . S
C933 C932 1.359 . S
C933 C934 1.380 . S
C933 H956 0.929 . S
C934 C933 1.380 . S
C934 C935 1.347 . S
C934 H957 0.931 . S
C935 C934 1.347 . S
C935 C936 1.369 . S
C936 C935 1.369 . S
C936 C937 1.408 . S
C936 H958 0.930 . S
C937 C932 1.348 . S
C937 C936 1.408 . S
C937 H959 0.930 . S
C938 O948 1.281 . S
C938 O949 1.254 . S
C939 O950 1.236 . S
C939 O951 1.266 . S
O940 Tb920 2.484 . S
O940 C922 1.248 . S
O941 Tb920 2.440 . S
O941 C922 1.266 . S
O942 Tb920 2.658 . S
O942 Tb921 2.325 . S
O942 C929 1.281 . S
O943 Tb920 2.409 . S
O943 C929 1.254 . S
O944 Tb920 2.378 . S
O944 C930 1.236 . S
O945 Tb921 2.341 . S
O945 C930 1.266 . S
O946 Tb921 2.484 . S
O946 C931 1.248 . S
O947 Tb921 2.440 . S
O947 C931 1.266 . S
O948 Tb920 2.325 . S
O948 Tb921 2.658 . S
O948 C938 1.281 . S
O949 Tb921 2.409 . S
O949 C938 1.254 . S
O950 Tb921 2.378 . S
O950 C939 1.236 . S
O951 Tb920 2.341 . S
O951 C939 1.266 . S
H952 C924 0.929 . S
H953 C925 0.931 . S
H954 C927 0.930 . S
H955 C928 0.930 . S
H956 C933 0.929 . S
H957 C934 0.931 . S
H958 C936 0.930 . S
H959 C937 0.930 . S
Tb960 C962 2.809 . S
Tb960 O980 2.484 . S
Tb960 O981 2.440 . S
Tb960 O982 2.658 . S
Tb960 O983 2.409 . S
Tb960 O984 2.378 . S
Tb960 O988 2.325 . S
Tb960 O991 2.341 . S
Tb961 C971 2.809 . S
Tb961 O982 2.325 . S
Tb961 O985 2.341 . S
Tb961 O986 2.484 . S
Tb961 O987 2.440 . S
Tb961 O988 2.658 . S
Tb961 O989 2.409 . S
Tb961 O990 2.378 . S
C962 Tb960 2.809 . S
C962 C963 1.514 . S
C962 O980 1.248 . S
C962 O981 1.266 . S
C963 C962 1.514 . S
C963 C964 1.359 1_554 S
C963 C968 1.348 1_554 S
C964 C963 1.359 1_556 S
C964 C965 1.380 . S
C964 H992 0.929 . S
C965 C964 1.380 . S
C965 C966 1.347 . S
C965 H993 0.931 . S
C966 C965 1.347 . S
C966 C967 1.369 . S
C967 C966 1.369 . S
C967 C968 1.408 . S
C967 H994 0.930 . S
C968 C963 1.348 1_556 S
C968 C967 1.408 . S
C968 H995 0.940 . S
C969 O982 1.281 . S
C969 O983 1.254 . S
C970 O984 1.236 . S
C970 O985 1.266 . S
C971 Tb961 2.809 . S
C971 C972 1.514 . S
C971 O986 1.248 . S
C971 O987 1.266 . S
C972 C971 1.514 . S
C972 C973 1.359 . S
C972 C977 1.348 . S
C973 C972 1.359 . S
C973 C974 1.380 . S
C973 H996 0.929 . S
C974 C973 1.380 . S
C974 C975 1.347 . S
C974 H997 0.931 . S
C975 C974 1.347 . S
C975 C976 1.369 . S
C976 C975 1.369 . S
C976 C977 1.408 . S
C976 H998 0.930 . S
C977 C972 1.348 . S
C977 C976 1.408 . S
C977 H999 0.930 . S
C978 O988 1.281 . S
C978 O989 1.254 . S
C979 O990 1.236 . S
C979 O991 1.266 . S
O980 Tb960 2.484 . S
O980 C962 1.248 . S
O981 Tb960 2.440 . S
O981 C962 1.266 . S
O982 Tb960 2.658 . S
O982 Tb961 2.325 . S
O982 C969 1.281 . S
O983 Tb960 2.409 . S
O983 C969 1.254 . S
O984 Tb960 2.378 . S
O984 C970 1.236 . S
O985 Tb961 2.341 . S
O985 C970 1.266 . S
O986 Tb961 2.484 . S
O986 C971 1.248 . S
O987 Tb961 2.440 . S
O987 C971 1.266 . S
O988 Tb960 2.325 . S
O988 Tb961 2.658 . S
O988 C978 1.281 . S
O989 Tb961 2.409 . S
O989 C978 1.254 . S
O990 Tb961 2.378 . S
O990 C979 1.236 . S
O991 Tb960 2.341 . S
O991 C979 1.266 . S
H992 C964 0.929 . S
H993 C965 0.931 . S
H994 C967 0.930 . S
H995 C968 0.940 . S
H996 C973 0.929 . S
H997 C974 0.931 . S
H998 C976 0.930 . S
H999 C977 0.930 . S
Tb1000 C1002 2.809 . S
Tb1000 O1020 2.484 . S
Tb1000 O1021 2.440 . S
Tb1000 O1022 2.658 . S
Tb1000 O1023 2.409 . S
Tb1000 O1024 2.378 . S
Tb1000 O1028 2.325 . S
Tb1000 O1031 2.341 . S
Tb1001 C1011 2.809 . S
Tb1001 O1022 2.325 . S
Tb1001 O1025 2.341 . S
Tb1001 O1026 2.484 . S
Tb1001 O1027 2.440 . S
Tb1001 O1028 2.658 . S
Tb1001 O1029 2.409 . S
Tb1001 O1030 2.378 . S
C1002 Tb1000 2.809 . S
C1002 C1003 1.524 . S
C1002 O1020 1.248 . S
C1002 O1021 1.266 . S
C1003 C1002 1.524 . S
C1003 C1004 1.353 1_554 S
C1003 C1008 1.344 1_554 S
C1004 C1003 1.353 1_556 S
C1004 C1005 1.380 . S
C1004 H1032 0.929 . S
C1005 C1004 1.380 . S
C1005 C1006 1.347 . S
C1005 H1033 0.931 . S
C1006 C1005 1.347 . S
C1006 C1007 1.369 . S
C1007 C1006 1.369 . S
C1007 C1008 1.408 . S
C1007 H1034 0.930 . S
C1008 C1003 1.344 1_556 S
C1008 C1007 1.408 . S
C1008 H1035 0.930 . S
C1009 O1022 1.281 . S
C1009 O1023 1.254 . S
C1010 O1024 1.236 . S
C1010 O1025 1.266 . S
C1011 Tb1001 2.809 . S
C1011 C1012 1.514 . S
C1011 O1026 1.248 . S
C1011 O1027 1.266 . S
C1012 C1011 1.514 . S
C1012 C1013 1.359 . S
C1012 C1017 1.348 . S
C1013 C1012 1.359 . S
C1013 C1014 1.380 . S
C1013 H1036 0.929 . S
C1014 C1013 1.380 . S
C1014 C1015 1.347 . S
C1014 H1037 0.931 . S
C1015 C1014 1.347 . S
C1015 C1016 1.369 . S
C1016 C1015 1.369 . S
C1016 C1017 1.408 . S
C1016 H1038 0.930 . S
C1017 C1012 1.348 . S
C1017 C1016 1.408 . S
C1017 H1039 0.930 . S
C1018 O1028 1.281 . S
C1018 O1029 1.254 . S
C1019 O1030 1.236 . S
C1019 O1031 1.266 . S
O1020 Tb1000 2.484 . S
O1020 C1002 1.248 . S
O1021 Tb1000 2.440 . S
O1021 C1002 1.266 . S
O1022 Tb1000 2.658 . S
O1022 Tb1001 2.325 . S
O1022 C1009 1.281 . S
O1023 Tb1000 2.409 . S
O1023 C1009 1.254 . S
O1024 Tb1000 2.378 . S
O1024 C1010 1.236 . S
O1025 Tb1001 2.341 . S
O1025 C1010 1.266 . S
O1026 Tb1001 2.484 . S
O1026 C1011 1.248 . S
O1027 Tb1001 2.440 . S
O1027 C1011 1.266 . S
O1028 Tb1000 2.325 . S
O1028 Tb1001 2.658 . S
O1028 C1018 1.281 . S
O1029 Tb1001 2.409 . S
O1029 C1018 1.254 . S
O1030 Tb1001 2.378 . S
O1030 C1019 1.236 . S
O1031 Tb1000 2.341 . S
O1031 C1019 1.266 . S
H1032 C1004 0.929 . S
H1033 C1005 0.931 . S
H1034 C1007 0.930 . S
H1035 C1008 0.930 . S
H1036 C1013 0.929 . S
H1037 C1014 0.931 . S
H1038 C1016 0.930 . S
H1039 C1017 0.930 . S
Tb1040 C1042 2.809 . S
Tb1040 O1060 2.484 . S
Tb1040 O1061 2.440 . S
Tb1040 O1062 2.658 1_554 S
Tb1040 O1063 2.409 . S
Tb1040 O1064 2.378 . S
Tb1040 O1068 2.325 . S
Tb1040 O1071 2.341 . S
Tb1041 C1051 2.809 . S
Tb1041 O1062 2.325 . S
Tb1041 O1065 2.341 1_556 S
Tb1041 O1066 2.484 . S
Tb1041 O1067 2.440 . S
Tb1041 O1068 2.658 1_556 S
Tb1041 O1069 2.404 1_556 S
Tb1041 O1070 2.378 . S
C1042 Tb1040 2.809 . S
C1042 C1043 1.514 . S
C1042 O1060 1.248 . S
C1042 O1061 1.266 . S
C1043 C1042 1.514 . S
C1043 C1044 1.359 . S
C1043 C1048 1.348 . S
C1044 C1043 1.359 . S
C1044 C1045 1.380 . S
C1044 H1072 0.929 . S
C1045 C1044 1.380 . S
C1045 C1046 1.347 . S
C1045 H1073 0.931 . S
C1046 C1045 1.347 . S
C1046 C1047 1.369 . S
C1047 C1046 1.369 . S
C1047 C1048 1.408 . S
C1047 H1074 0.930 . S
C1048 C1043 1.348 . S
C1048 C1047 1.408 . S
C1048 H1075 0.930 . S
C1049 O1062 1.281 1_554 S
C1049 O1063 1.254 . S
C1050 O1064 1.236 . S
C1050 O1065 1.266 . S
C1051 Tb1041 2.809 . S
C1051 C1052 1.514 . S
C1051 O1066 1.248 . S
C1051 O1067 1.266 . S
C1052 C1051 1.514 . S
C1052 C1053 1.359 . S
C1052 C1057 1.348 . S
C1053 C1052 1.359 . S
C1053 C1054 1.380 . S
C1053 H1076 0.929 . S
C1054 C1053 1.380 . S
C1054 C1055 1.347 . S
C1054 H1077 0.931 . S
C1055 C1054 1.347 . S
C1055 C1056 1.369 . S
C1056 C1055 1.369 . S
C1056 C1057 1.408 . S
C1056 H1078 0.930 . S
C1057 C1052 1.348 . S
C1057 C1056 1.408 . S
C1057 H1079 0.930 . S
C1058 O1068 1.281 . S
C1058 O1069 1.266 . S
C1059 O1070 1.236 . S
C1059 O1071 1.266 1_556 S
O1060 Tb1040 2.484 . S
O1060 C1042 1.248 . S
O1061 Tb1040 2.440 . S
O1061 C1042 1.266 . S
O1062 Tb1040 2.658 1_556 S
O1062 Tb1041 2.325 . S
O1062 C1049 1.281 1_556 S
O1063 Tb1040 2.409 . S
O1063 C1049 1.254 . S
O1064 Tb1040 2.378 . S
O1064 C1050 1.236 . S
O1065 Tb1041 2.341 1_554 S
O1065 C1050 1.266 . S
O1066 Tb1041 2.484 . S
O1066 C1051 1.248 . S
O1067 Tb1041 2.440 . S
O1067 C1051 1.266 . S
O1068 Tb1040 2.325 . S
O1068 Tb1041 2.658 1_554 S
O1068 C1058 1.281 . S
O1069 Tb1041 2.404 1_554 S
O1069 C1058 1.266 . S
O1070 Tb1041 2.378 . S
O1070 C1059 1.236 . S
O1071 Tb1040 2.341 . S
O1071 C1059 1.266 1_554 S
H1072 C1044 0.929 . S
H1073 C1045 0.931 . S
H1074 C1047 0.930 . S
H1075 C1048 0.930 . S
H1076 C1053 0.929 . S
H1077 C1054 0.931 . S
H1078 C1056 0.930 . S
H1079 C1057 0.930 . S
Tb1080 C1082 2.809 . S
Tb1080 O1100 2.484 . S
Tb1080 O1101 2.440 . S
Tb1080 O1102 2.658 1_554 S
Tb1080 O1103 2.409 . S
Tb1080 O1104 2.378 . S
Tb1080 O1108 2.325 . S
Tb1080 O1111 2.341 . S
Tb1081 C1091 2.809 . S
Tb1081 O1102 2.325 . S
Tb1081 O1105 2.341 1_556 S
Tb1081 O1106 2.484 . S
Tb1081 O1107 2.440 . S
Tb1081 O1108 2.658 1_556 S
Tb1081 O1109 2.404 1_556 S
Tb1081 O1110 2.378 . S
C1082 Tb1080 2.809 . S
C1082 C1083 1.514 . S
C1082 O1100 1.248 . S
C1082 O1101 1.266 . S
C1083 C1082 1.514 . S
C1083 C1084 1.359 . S
C1083 C1088 1.348 . S
C1084 C1083 1.359 . S
C1084 C1085 1.380 . S
C1084 H1112 0.929 . S
C1085 C1084 1.380 . S
C1085 C1086 1.347 . S
C1085 H1113 0.931 . S
C1086 C1085 1.347 . S
C1086 C1087 1.369 . S
C1087 C1086 1.369 . S
C1087 C1088 1.408 . S
C1087 H1114 0.930 . S
C1088 C1083 1.348 . S
C1088 C1087 1.408 . S
C1088 H1115 0.930 . S
C1089 O1102 1.281 1_554 S
C1089 O1103 1.254 . S
C1090 O1104 1.236 . S
C1090 O1105 1.266 . S
C1091 Tb1081 2.809 . S
C1091 C1092 1.514 . S
C1091 O1106 1.248 . S
C1091 O1107 1.266 . S
C1092 C1091 1.514 . S
C1092 C1093 1.359 . S
C1092 C1097 1.348 . S
C1093 C1092 1.359 . S
C1093 C1094 1.380 . S
C1093 H1116 0.929 . S
C1094 C1093 1.380 . S
C1094 C1095 1.347 . S
C1094 H1117 0.931 . S
C1095 C1094 1.347 . S
C1095 C1096 1.369 . S
C1096 C1095 1.369 . S
C1096 C1097 1.408 . S
C1096 H1118 0.930 . S
C1097 C1092 1.348 . S
C1097 C1096 1.408 . S
C1097 H1119 0.930 . S
C1098 O1108 1.281 . S
C1098 O1109 1.265 . S
C1099 O1110 1.236 . S
C1099 O1111 1.266 1_556 S
O1100 Tb1080 2.484 . S
O1100 C1082 1.248 . S
O1101 Tb1080 2.440 . S
O1101 C1082 1.266 . S
O1102 Tb1080 2.658 1_556 S
O1102 Tb1081 2.325 . S
O1102 C1089 1.281 1_556 S
O1103 Tb1080 2.409 . S
O1103 C1089 1.254 . S
O1104 Tb1080 2.378 . S
O1104 C1090 1.236 . S
O1105 Tb1081 2.341 1_554 S
O1105 C1090 1.266 . S
O1106 Tb1081 2.484 . S
O1106 C1091 1.248 . S
O1107 Tb1081 2.440 . S
O1107 C1091 1.266 . S
O1108 Tb1080 2.325 . S
O1108 Tb1081 2.658 1_554 S
O1108 C1098 1.281 . S
O1109 Tb1081 2.404 1_554 S
O1109 C1098 1.265 . S
O1110 Tb1081 2.378 . S
O1110 C1099 1.236 . S
O1111 Tb1080 2.341 . S
O1111 C1099 1.266 1_554 S
H1112 C1084 0.929 . S
H1113 C1085 0.931 . S
H1114 C1087 0.930 . S
H1115 C1088 0.930 . S
H1116 C1093 0.929 . S
H1117 C1094 0.931 . S
H1118 C1096 0.930 . S
H1119 C1097 0.930 . S
Tb1120 C1122 2.809 . S
Tb1120 O1140 2.484 . S
Tb1120 O1141 2.440 . S
Tb1120 O1142 2.658 . S
Tb1120 O1143 2.409 . S
Tb1120 O1144 2.378 . S
Tb1120 O1148 2.325 . S
Tb1120 O1151 2.341 . S
Tb1121 C1131 2.809 . S
Tb1121 O1142 2.325 . S
Tb1121 O1145 2.341 . S
Tb1121 O1146 2.484 . S
Tb1121 O1147 2.440 . S
Tb1121 O1148 2.658 . S
Tb1121 O1149 2.409 . S
Tb1121 O1150 2.378 . S
C1122 Tb1120 2.809 . S
C1122 C1123 1.514 . S
C1122 O1140 1.248 . S
C1122 O1141 1.266 . S
C1123 C1122 1.514 . S
C1123 C1124 1.359 . S
C1123 C1128 1.348 . S
C1124 C1123 1.359 . S
C1124 C1125 1.380 . S
C1124 H1152 0.929 . S
C1125 C1124 1.380 . S
C1125 C1126 1.347 . S
C1125 H1153 0.931 . S
C1126 C1125 1.347 . S
C1126 C1127 1.369 . S
C1127 C1126 1.369 . S
C1127 C1128 1.408 . S
C1127 H1154 0.930 . S
C1128 C1123 1.348 . S
C1128 C1127 1.408 . S
C1128 H1155 0.930 . S
C1129 O1142 1.281 . S
C1129 O1143 1.254 . S
C1130 O1144 1.236 . S
C1130 O1145 1.266 . S
C1131 Tb1121 2.809 . S
C1131 C1132 1.514 . S
C1131 O1146 1.248 . S
C1131 O1147 1.266 . S
C1132 C1131 1.514 . S
C1132 C1133 1.359 1_556 S
C1132 C1137 1.348 1_556 S
C1133 C1132 1.359 1_554 S
C1133 C1134 1.380 . S
C1133 H1156 0.929 . S
C1134 C1133 1.380 . S
C1134 C1135 1.347 . S
C1134 H1157 0.931 . S
C1135 C1134 1.347 . S
C1135 C1136 1.369 . S
C1136 C1135 1.369 . S
C1136 C1137 1.408 . S
C1136 H1158 0.930 . S
C1137 C1132 1.348 1_554 S
C1137 C1136 1.408 . S
C1137 H1159 0.940 . S
C1138 O1148 1.281 . S
C1138 O1149 1.254 . S
C1139 O1150 1.236 . S
C1139 O1151 1.266 . S
O1140 Tb1120 2.484 . S
O1140 C1122 1.248 . S
O1141 Tb1120 2.440 . S
O1141 C1122 1.266 . S
O1142 Tb1120 2.658 . S
O1142 Tb1121 2.325 . S
O1142 C1129 1.281 . S
O1143 Tb1120 2.409 . S
O1143 C1129 1.254 . S
O1144 Tb1120 2.378 . S
O1144 C1130 1.236 . S
O1145 Tb1121 2.341 . S
O1145 C1130 1.266 . S
O1146 Tb1121 2.484 . S
O1146 C1131 1.248 . S
O1147 Tb1121 2.440 . S
O1147 C1131 1.266 . S
O1148 Tb1120 2.325 . S
O1148 Tb1121 2.658 . S
O1148 C1138 1.281 . S
O1149 Tb1121 2.409 . S
O1149 C1138 1.254 . S
O1150 Tb1121 2.378 . S
O1150 C1139 1.236 . S
O1151 Tb1120 2.341 . S
O1151 C1139 1.266 . S
H1152 C1124 0.929 . S
H1153 C1125 0.931 . S
H1154 C1127 0.930 . S
H1155 C1128 0.930 . S
H1156 C1133 0.929 . S
H1157 C1134 0.931 . S
H1158 C1136 0.930 . S
H1159 C1137 0.940 . S
Tb1160 C1162 2.809 . S
Tb1160 O1180 2.484 . S
Tb1160 O1181 2.440 . S
Tb1160 O1182 2.658 . S
Tb1160 O1183 2.409 . S
Tb1160 O1184 2.378 . S
Tb1160 O1188 2.325 . S
Tb1160 O1191 2.341 . S
Tb1161 C1171 2.809 . S
Tb1161 O1182 2.325 . S
Tb1161 O1185 2.341 . S
Tb1161 O1186 2.484 . S
Tb1161 O1187 2.440 . S
Tb1161 O1188 2.658 . S
Tb1161 O1189 2.409 . S
Tb1161 O1190 2.378 . S
C1162 Tb1160 2.809 . S
C1162 C1163 1.514 . S
C1162 O1180 1.248 . S
C1162 O1181 1.266 . S
C1163 C1162 1.514 . S
C1163 C1164 1.359 . S
C1163 C1168 1.348 . S
C1164 C1163 1.359 . S
C1164 C1165 1.380 . S
C1164 H1192 0.929 . S
C1165 C1164 1.380 . S
C1165 C1166 1.347 . S
C1165 H1193 0.931 . S
C1166 C1165 1.347 . S
C1166 C1167 1.369 . S
C1167 C1166 1.369 . S
C1167 C1168 1.408 . S
C1167 H1194 0.930 . S
C1168 C1163 1.348 . S
C1168 C1167 1.408 . S
C1168 H1195 0.930 . S
C1169 O1182 1.281 . S
C1169 O1183 1.254 . S
C1170 O1184 1.236 . S
C1170 O1185 1.266 . S
C1171 Tb1161 2.809 . S
C1171 C1172 1.524 . S
C1171 O1186 1.248 . S
C1171 O1187 1.266 . S
C1172 C1171 1.524 . S
C1172 C1173 1.353 1_556 S
C1172 C1177 1.344 1_556 S
C1173 C1172 1.353 1_554 S
C1173 C1174 1.380 . S
C1173 H1196 0.929 . S
C1174 C1173 1.380 . S
C1174 C1175 1.347 . S
C1174 H1197 0.931 . S
C1175 C1174 1.347 . S
C1175 C1176 1.369 . S
C1176 C1175 1.369 . S
C1176 C1177 1.408 . S
C1176 H1198 0.930 . S
C1177 C1172 1.344 1_554 S
C1177 C1176 1.408 . S
C1177 H1199 0.930 . S
C1178 O1188 1.281 . S
C1178 O1189 1.254 . S
C1179 O1190 1.236 . S
C1179 O1191 1.266 . S
O1180 Tb1160 2.484 . S
O1180 C1162 1.248 . S
O1181 Tb1160 2.440 . S
O1181 C1162 1.266 . S
O1182 Tb1160 2.658 . S
O1182 Tb1161 2.325 . S
O1182 C1169 1.281 . S
O1183 Tb1160 2.409 . S
O1183 C1169 1.254 . S
O1184 Tb1160 2.378 . S
O1184 C1170 1.236 . S
O1185 Tb1161 2.341 . S
O1185 C1170 1.266 . S
O1186 Tb1161 2.484 . S
O1186 C1171 1.248 . S
O1187 Tb1161 2.440 . S
O1187 C1171 1.266 . S
O1188 Tb1160 2.325 . S
O1188 Tb1161 2.658 . S
O1188 C1178 1.281 . S
O1189 Tb1161 2.409 . S
O1189 C1178 1.254 . S
O1190 Tb1161 2.378 . S
O1190 C1179 1.236 . S
O1191 Tb1160 2.341 . S
O1191 C1179 1.266 . S
H1192 C1164 0.929 . S
H1193 C1165 0.931 . S
H1194 C1167 0.930 . S
H1195 C1168 0.930 . S
H1196 C1173 0.929 . S
H1197 C1174 0.931 . S
H1198 C1176 0.930 . S
H1199 C1177 0.930 . S
Tb1200 C1202 2.809 . S
Tb1200 O1220 2.484 . S
Tb1200 O1221 2.440 . S
Tb1200 O1222 2.658 1_554 S
Tb1200 O1223 2.404 1_554 S
Tb1200 O1224 2.378 . S
Tb1200 O1228 2.325 . S
Tb1200 O1231 2.341 1_554 S
Tb1201 C1211 2.809 . S
Tb1201 O1222 2.325 . S
Tb1201 O1225 2.341 . S
Tb1201 O1226 2.484 . S
Tb1201 O1227 2.440 . S
Tb1201 O1228 2.658 1_556 S
Tb1201 O1229 2.409 . S
Tb1201 O1230 2.378 . S
C1202 Tb1200 2.809 . S
C1202 C1203 1.514 . S
C1202 O1220 1.248 . S
C1202 O1221 1.266 . S
C1203 C1202 1.514 . S
C1203 C1204 1.359 . S
C1203 C1208 1.348 . S
C1204 C1203 1.359 . S
C1204 C1205 1.380 . S
C1204 H1232 0.929 . S
C1205 C1204 1.380 . S
C1205 C1206 1.347 . S
C1205 H1233 0.931 . S
C1206 C1205 1.347 . S
C1206 C1207 1.369 . S
C1207 C1206 1.369 . S
C1207 C1208 1.408 . S
C1207 H1234 0.930 . S
C1208 C1203 1.348 . S
C1208 C1207 1.408 . S
C1208 H1235 0.930 . S
C1209 O1222 1.281 . S
C1209 O1223 1.266 . S
C1210 O1224 1.236 . S
C1210 O1225 1.266 1_554 S
C1211 Tb1201 2.809 . S
C1211 C1212 1.514 . S
C1211 O1226 1.248 . S
C1211 O1227 1.266 . S
C1212 C1211 1.514 . S
C1212 C1213 1.359 . S
C1212 C1217 1.348 . S
C1213 C1212 1.359 . S
C1213 C1214 1.380 . S
C1213 H1236 0.929 . S
C1214 C1213 1.380 . S
C1214 C1215 1.347 . S
C1214 H1237 0.931 . S
C1215 C1214 1.347 . S
C1215 C1216 1.369 . S
C1216 C1215 1.369 . S
C1216 C1217 1.408 . S
C1216 H1238 0.930 . S
C1217 C1212 1.348 . S
C1217 C1216 1.408 . S
C1217 H1239 0.930 . S
C1218 O1228 1.281 1_556 S
C1218 O1229 1.254 . S
C1219 O1230 1.236 . S
C1219 O1231 1.266 . S
O1220 Tb1200 2.484 . S
O1220 C1202 1.248 . S
O1221 Tb1200 2.440 . S
O1221 C1202 1.266 . S
O1222 Tb1200 2.658 1_556 S
O1222 Tb1201 2.325 . S
O1222 C1209 1.281 . S
O1223 Tb1200 2.404 1_556 S
O1223 C1209 1.266 . S
O1224 Tb1200 2.378 . S
O1224 C1210 1.236 . S
O1225 Tb1201 2.341 . S
O1225 C1210 1.266 1_556 S
O1226 Tb1201 2.484 . S
O1226 C1211 1.248 . S
O1227 Tb1201 2.440 . S
O1227 C1211 1.266 . S
O1228 Tb1200 2.325 . S
O1228 Tb1201 2.658 1_554 S
O1228 C1218 1.281 1_554 S
O1229 Tb1201 2.409 . S
O1229 C1218 1.254 . S
O1230 Tb1201 2.378 . S
O1230 C1219 1.236 . S
O1231 Tb1200 2.341 1_556 S
O1231 C1219 1.266 . S
H1232 C1204 0.929 . S
H1233 C1205 0.931 . S
H1234 C1207 0.930 . S
H1235 C1208 0.930 . S
H1236 C1213 0.929 . S
H1237 C1214 0.931 . S
H1238 C1216 0.930 . S
H1239 C1217 0.930 . S
Tb1240 C1242 2.809 . S
Tb1240 O1260 2.484 . S
Tb1240 O1261 2.440 . S
Tb1240 O1262 2.658 1_554 S
Tb1240 O1263 2.404 1_554 S
Tb1240 O1264 2.378 . S
Tb1240 O1268 2.325 . S
Tb1240 O1271 2.341 1_554 S
Tb1241 C1251 2.809 . S
Tb1241 O1262 2.325 . S
Tb1241 O1265 2.341 . S
Tb1241 O1266 2.484 . S
Tb1241 O1267 2.440 . S
Tb1241 O1268 2.658 1_556 S
Tb1241 O1269 2.409 . S
Tb1241 O1270 2.378 . S
C1242 Tb1240 2.809 . S
C1242 C1243 1.514 . S
C1242 O1260 1.248 . S
C1242 O1261 1.266 . S
C1243 C1242 1.514 . S
C1243 C1244 1.359 . S
C1243 C1248 1.348 . S
C1244 C1243 1.359 . S
C1244 C1245 1.380 . S
C1244 H1272 0.929 . S
C1245 C1244 1.380 . S
C1245 C1246 1.347 . S
C1245 H1273 0.931 . S
C1246 C1245 1.347 . S
C1246 C1247 1.369 . S
C1247 C1246 1.369 . S
C1247 C1248 1.408 . S
C1247 H1274 0.930 . S
C1248 C1243 1.348 . S
C1248 C1247 1.408 . S
C1248 H1275 0.930 . S
C1249 O1262 1.281 . S
C1249 O1263 1.265 . S
C1250 O1264 1.236 . S
C1250 O1265 1.266 1_554 S
C1251 Tb1241 2.809 . S
C1251 C1252 1.514 . S
C1251 O1266 1.248 . S
C1251 O1267 1.266 . S
C1252 C1251 1.514 . S
C1252 C1253 1.359 . S
C1252 C1257 1.348 . S
C1253 C1252 1.359 . S
C1253 C1254 1.380 . S
C1253 H1276 0.929 . S
C1254 C1253 1.380 . S
C1254 C1255 1.347 . S
C1254 H1277 0.931 . S
C1255 C1254 1.347 . S
C1255 C1256 1.369 . S
C1256 C1255 1.369 . S
C1256 C1257 1.408 . S
C1256 H1278 0.930 . S
C1257 C1252 1.348 . S
C1257 C1256 1.408 . S
C1257 H1279 0.930 . S
C1258 O1268 1.281 1_556 S
C1258 O1269 1.254 . S
C1259 O1270 1.236 . S
C1259 O1271 1.266 . S
O1260 Tb1240 2.484 . S
O1260 C1242 1.248 . S
O1261 Tb1240 2.440 . S
O1261 C1242 1.266 . S
O1262 Tb1240 2.658 1_556 S
O1262 Tb1241 2.325 . S
O1262 C1249 1.281 . S
O1263 Tb1240 2.404 1_556 S
O1263 C1249 1.265 . S
O1264 Tb1240 2.378 . S
O1264 C1250 1.236 . S
O1265 Tb1241 2.341 . S
O1265 C1250 1.266 1_556 S
O1266 Tb1241 2.484 . S
O1266 C1251 1.248 . S
O1267 Tb1241 2.440 . S
O1267 C1251 1.266 . S
O1268 Tb1240 2.325 . S
O1268 Tb1241 2.658 1_554 S
O1268 C1258 1.281 1_554 S
O1269 Tb1241 2.409 . S
O1269 C1258 1.254 . S
O1270 Tb1241 2.378 . S
O1270 C1259 1.236 . S
O1271 Tb1240 2.341 1_556 S
O1271 C1259 1.266 . S
H1272 C1244 0.929 . S
H1273 C1245 0.931 . S
H1274 C1247 0.930 . S
H1275 C1248 0.930 . S
H1276 C1253 0.929 . S
H1277 C1254 0.931 . S
H1278 C1256 0.930 . S
H1279 C1257 0.930 . S
H1280 C1286 0.930 . S
H1281 C1290 0.930 . S
H1282 C1295 0.929 . S
H1283 C1293 0.929 . S
H1284 C1288 0.929 . S
H1285 C1294 0.929 . S
C1286 H1280 0.930 . S
C1286 C1287 1.367 . S
C1286 C1294 1.378 . S
C1287 C1286 1.367 . S
C1287 C1295 1.433 . S
C1288 H1284 0.929 . S
C1288 C1290 1.378 . S
C1288 C1292 1.350 . S
C1289 C1292 1.463 1_556 S
C1289 C1294 1.350 . S
C1289 N1297 1.427 . S
C1290 H1281 0.930 . S
C1290 C1288 1.378 . S
C1290 C1291 1.367 . S
C1291 C1290 1.367 . S
C1291 C1293 1.433 . S
C1292 C1288 1.350 . S
C1292 C1289 1.463 1_554 S
C1292 N1296 1.427 . S
C1293 H1283 0.929 . S
C1293 C1291 1.433 . S
C1293 N1296 1.384 . S
C1294 H1285 0.929 . S
C1294 C1286 1.378 . S
C1294 C1289 1.350 . S
C1295 H1282 0.929 . S
C1295 C1287 1.433 . S
C1295 N1297 1.384 . S
N1296 C1292 1.427 . S
N1296 C1293 1.384 . S
N1297 C1289 1.427 . S
N1297 C1295 1.384 . S
H1298 C1304 0.930 . S
H1299 C1308 0.930 . S
H1300 C1313 0.929 . S
H1301 C1311 0.929 . S
H1302 C1306 0.929 . S
H1303 C1312 0.929 . S
C1304 H1298 0.930 . S
C1304 C1305 1.367 . S
C1304 C1312 1.378 . S
C1305 C1304 1.367 . S
C1305 C1313 1.433 1_545 S
C1306 H1302 0.929 . S
C1306 C1308 1.378 . S
C1306 C1310 1.350 . S
C1307 C1310 1.463 1_446 S
C1307 C1312 1.350 . S
C1307 N1315 1.427 1_545 S
C1308 H1299 0.930 . S
C1308 C1306 1.378 . S
C1308 C1309 1.367 . S
C1309 C1308 1.367 . S
C1309 C1311 1.433 1_565 S
C1310 C1306 1.350 . S
C1310 C1307 1.463 1_664 S
C1310 N1314 1.427 1_565 S
C1311 H1301 0.929 . S
C1311 C1309 1.433 1_545 S
C1311 N1314 1.384 . S
C1312 H1303 0.929 . S
C1312 C1304 1.378 . S
C1312 C1307 1.350 . S
C1313 H1300 0.929 . S
C1313 C1305 1.433 1_565 S
C1313 N1315 1.384 . S
N1314 C1310 1.427 1_545 S
N1314 C1311 1.384 . S
N1315 C1307 1.427 1_565 S
N1315 C1313 1.384 . S
H1316 C1322 0.930 . S
H1317 C1326 0.930 . S
H1318 C1331 0.929 . S
H1319 C1329 0.929 . S
H1320 C1324 0.929 . S
H1321 C1330 0.929 . S
C1322 H1316 0.930 . S
C1322 C1323 1.367 . S
C1322 C1330 1.378 . S
C1323 C1322 1.367 . S
C1323 C1331 1.433 1_545 S
C1324 H1320 0.929 . S
C1324 C1326 1.378 . S
C1324 C1328 1.350 . S
C1325 C1328 1.463 1_545 S
C1325 C1330 1.350 . S
C1325 N1333 1.427 1_545 S
C1326 H1317 0.930 . S
C1326 C1324 1.378 . S
C1326 C1327 1.367 . S
C1327 C1326 1.367 . S
C1327 C1329 1.433 1_565 S
C1328 C1324 1.350 . S
C1328 C1325 1.463 1_565 S
C1328 N1332 1.427 1_565 S
C1329 H1319 0.929 . S
C1329 C1327 1.433 1_545 S
C1329 N1332 1.384 . S
C1330 H1321 0.929 . S
C1330 C1322 1.378 . S
C1330 C1325 1.350 . S
C1331 H1318 0.929 . S
C1331 C1323 1.433 1_565 S
C1331 N1333 1.384 . S
N1332 C1328 1.427 1_545 S
N1332 C1329 1.384 . S
N1333 C1325 1.427 1_565 S
N1333 C1331 1.384 . S
H1334 C1340 0.939 . S
H1335 C1344 0.955 . S
H1336 C1349 0.929 . S
H1337 C1347 0.929 . S
H1338 C1342 0.929 . S
H1339 C1348 0.929 . S
C1340 H1334 0.939 . S
C1340 C1341 1.367 . S
C1340 C1348 1.378 1_455 S
C1341 C1340 1.367 . S
C1341 C1349 1.433 . S
C1342 H1338 0.929 . S
C1342 C1344 1.378 1_455 S
C1342 C1346 1.350 1_455 S
C1343 C1346 1.463 1_455 S
C1343 C1348 1.350 1_455 S
C1343 N1351 1.427 . S
C1344 H1335 0.955 . S
C1344 C1342 1.378 1_655 S
C1344 C1345 1.367 . S
C1345 C1344 1.367 . S
C1345 C1347 1.433 . S
C1346 C1342 1.350 1_655 S
C1346 C1343 1.463 1_655 S
C1346 N1350 1.427 . S
C1347 H1337 0.929 . S
C1347 C1345 1.433 . S
C1347 N1350 1.384 . S
C1348 H1339 0.929 . S
C1348 C1340 1.378 1_655 S
C1348 C1343 1.350 1_655 S
C1349 H1336 0.929 . S
C1349 C1341 1.433 . S
C1349 N1351 1.384 . S
N1350 C1346 1.427 . S
N1350 C1347 1.384 . S
N1351 C1343 1.427 . S
N1351 C1349 1.384 . S
H1352 C1358 0.930 . S
H1353 C1362 0.930 . S
H1354 C1367 0.929 . S
H1355 C1365 0.929 . S
H1356 C1360 0.929 . S
H1357 C1366 0.929 . S
C1358 H1352 0.930 . S
C1358 C1359 1.367 . S
C1358 C1366 1.378 . S
C1359 C1358 1.367 . S
C1359 C1367 1.433 . S
C1360 H1356 0.929 . S
C1360 C1362 1.378 . S
C1360 C1364 1.350 . S
C1361 C1364 1.463 1_556 S
C1361 C1366 1.350 . S
C1361 N1369 1.427 . S
C1362 H1353 0.930 . S
C1362 C1360 1.378 . S
C1362 C1363 1.367 . S
C1363 C1362 1.367 . S
C1363 C1365 1.433 . S
C1364 C1360 1.350 . S
C1364 C1361 1.463 1_554 S
C1364 N1368 1.427 . S
C1365 H1355 0.929 . S
C1365 C1363 1.433 . S
C1365 N1368 1.384 . S
C1366 H1357 0.929 . S
C1366 C1358 1.378 . S
C1366 C1361 1.350 . S
C1367 H1354 0.929 . S
C1367 C1359 1.433 . S
C1367 N1369 1.384 . S
N1368 C1364 1.427 . S
N1368 C1365 1.384 . S
N1369 C1361 1.427 . S
N1369 C1367 1.384 . S
H1370 C1376 0.930 . S
H1371 C1380 0.930 . S
H1372 C1385 0.929 . S
H1373 C1383 0.929 . S
H1374 C1378 0.929 . S
H1375 C1384 0.929 . S
C1376 H1370 0.930 . S
C1376 C1377 1.367 . S
C1376 C1384 1.378 . S
C1377 C1376 1.367 . S
C1377 C1385 1.433 1_565 S
C1378 H1374 0.929 . S
C1378 C1380 1.378 . S
C1378 C1382 1.350 . S
C1379 C1382 1.463 1_565 S
C1379 C1384 1.350 . S
C1379 N1387 1.427 1_565 S
C1380 H1371 0.930 . S
C1380 C1378 1.378 . S
C1380 C1381 1.367 . S
C1381 C1380 1.367 . S
C1381 C1383 1.433 1_545 S
C1382 C1378 1.350 . S
C1382 C1379 1.463 1_545 S
C1382 N1386 1.427 1_545 S
C1383 H1373 0.929 . S
C1383 C1381 1.433 1_565 S
C1383 N1386 1.384 . S
C1384 H1375 0.929 . S
C1384 C1376 1.378 . S
C1384 C1379 1.350 . S
C1385 H1372 0.929 . S
C1385 C1377 1.433 1_545 S
C1385 N1387 1.384 . S
N1386 C1382 1.427 1_565 S
N1386 C1383 1.384 . S
N1387 C1379 1.427 1_545 S
N1387 C1385 1.384 . S
H1388 C1394 0.930 . S
H1389 C1398 0.930 . S
H1390 C1403 0.929 . S
H1391 C1401 0.929 . S
H1392 C1396 0.929 . S
H1393 C1402 0.929 . S
C1394 H1388 0.930 . S
C1394 C1395 1.367 . S
C1394 C1402 1.378 . S
C1395 C1394 1.367 . S
C1395 C1403 1.433 . S
C1396 H1392 0.929 . S
C1396 C1398 1.378 . S
C1396 C1400 1.350 . S
C1397 C1400 1.463 1_655 S
C1397 C1402 1.350 . S
C1397 N1405 1.439 . S
C1398 H1389 0.930 . S
C1398 C1396 1.378 . S
C1398 C1399 1.367 . S
C1399 C1398 1.367 . S
C1399 C1401 1.433 . S
C1400 C1396 1.350 . S
C1400 C1397 1.463 1_455 S
C1400 N1404 1.448 . S
C1401 H1391 0.929 . S
C1401 C1399 1.433 . S
C1401 N1404 1.427 . S
C1402 H1393 0.929 . S
C1402 C1394 1.378 . S
C1402 C1397 1.350 . S
C1403 H1390 0.929 . S
C1403 C1395 1.433 . S
C1403 N1405 1.408 . S
N1404 C1400 1.448 . S
N1404 C1401 1.427 . S
N1405 C1397 1.439 . S
N1405 C1403 1.408 . S
H1406 C1412 0.930 . S
H1407 C1416 0.930 . S
H1408 C1421 0.929 . S
H1409 C1419 0.929 . S
H1410 C1414 0.929 . S
H1411 C1420 0.929 . S
C1412 H1406 0.930 . S
C1412 C1413 1.367 . S
C1412 C1420 1.378 . S
C1413 C1412 1.367 . S
C1413 C1421 1.433 . S
C1414 H1410 0.929 . S
C1414 C1416 1.378 . S
C1414 C1418 1.350 . S
C1415 C1418 1.463 . S
C1415 C1420 1.350 . S
C1415 N1423 1.427 . S
C1416 H1407 0.930 . S
C1416 C1414 1.378 . S
C1416 C1417 1.367 . S
C1417 C1416 1.367 . S
C1417 C1419 1.433 . S
C1418 C1414 1.350 . S
C1418 C1415 1.463 . S
C1418 N1422 1.427 . S
C1419 H1409 0.929 . S
C1419 C1417 1.433 . S
C1419 N1422 1.384 . S
C1420 H1411 0.929 . S
C1420 C1412 1.378 . S
C1420 C1415 1.350 . S
C1421 H1408 0.929 . S
C1421 C1413 1.433 . S
C1421 N1423 1.384 . S
N1422 C1418 1.427 . S
N1422 C1419 1.384 . S
N1423 C1415 1.427 . S
N1423 C1421 1.384 . S
H1424 C1430 0.930 . S
H1425 C1434 0.930 . S
H1426 C1439 0.929 . S
H1427 C1437 0.929 . S
H1428 C1432 0.906 1_655 S
H1429 C1438 0.906 1_455 S
C1430 H1424 0.930 . S
C1430 C1431 1.367 . S
C1430 C1438 1.394 . S
C1431 C1430 1.367 . S
C1431 C1439 1.433 . S
C1432 H1428 0.906 1_455 S
C1432 C1434 1.394 . S
C1432 C1436 1.357 . S
C1433 C1436 1.463 1_655 S
C1433 C1438 1.357 . S
C1433 N1441 1.427 . S
C1434 H1425 0.930 . S
C1434 C1432 1.394 . S
C1434 C1435 1.367 . S
C1435 C1434 1.367 . S
C1435 C1437 1.433 . S
C1436 C1432 1.357 . S
C1436 C1433 1.463 1_455 S
C1436 N1440 1.427 . S
C1437 H1427 0.929 . S
C1437 C1435 1.433 . S
C1437 N1440 1.384 . S
C1438 H1429 0.906 1_655 S
C1438 C1430 1.394 . S
C1438 C1433 1.357 . S
C1439 H1426 0.929 . S
C1439 C1431 1.433 . S
C1439 N1441 1.384 . S
N1440 C1436 1.427 . S
N1440 C1437 1.384 . S
N1441 C1433 1.427 . S
N1441 C1439 1.384 . S
H1442 C1448 0.930 . S
H1443 C1452 0.930 . S
H1444 C1457 0.929 . S
H1445 C1455 0.929 . S
H1446 C1450 0.929 . S
H1447 C1456 0.929 . S
C1448 H1442 0.930 . S
C1448 C1449 1.367 . S
C1448 C1456 1.378 . S
C1449 C1448 1.367 . S
C1449 C1457 1.433 . S
C1450 H1446 0.929 . S
C1450 C1452 1.378 . S
C1450 C1454 1.350 . S
C1451 C1454 1.463 . S
C1451 C1456 1.350 . S
C1451 N1459 1.427 . S
C1452 H1443 0.930 . S
C1452 C1450 1.378 . S
C1452 C1453 1.367 . S
C1453 C1452 1.367 . S
C1453 C1455 1.433 . S
C1454 C1450 1.350 . S
C1454 C1451 1.463 . S
C1454 N1458 1.427 . S
C1455 H1445 0.929 . S
C1455 C1453 1.433 . S
C1455 N1458 1.384 . S
C1456 H1447 0.929 . S
C1456 C1448 1.378 . S
C1456 C1451 1.350 . S
C1457 H1444 0.929 . S
C1457 C1449 1.433 . S
C1457 N1459 1.384 . S
N1458 C1454 1.427 . S
N1458 C1455 1.384 . S
N1459 C1451 1.427 . S
N1459 C1457 1.384 . S
H1460 C1466 0.930 . S
H1461 C1470 0.930 . S
H1462 C1475 0.929 . S
H1463 C1473 0.929 . S
H1464 C1468 0.929 . S
H1465 C1474 0.929 . S
C1466 H1460 0.930 . S
C1466 C1467 1.367 . S
C1466 C1474 1.378 . S
C1467 C1466 1.367 . S
C1467 C1475 1.433 . S
C1468 H1464 0.929 . S
C1468 C1470 1.378 . S
C1468 C1472 1.350 . S
C1469 C1472 1.463 . S
C1469 C1474 1.350 . S
C1469 N1477 1.427 . S
C1470 H1461 0.930 . S
C1470 C1468 1.378 . S
C1470 C1471 1.367 . S
C1471 C1470 1.367 . S
C1471 C1473 1.433 . S
C1472 C1468 1.350 . S
C1472 C1469 1.463 . S
C1472 N1476 1.427 . S
C1473 H1463 0.929 . S
C1473 C1471 1.433 . S
C1473 N1476 1.384 . S
C1474 H1465 0.929 . S
C1474 C1466 1.378 . S
C1474 C1469 1.350 . S
C1475 H1462 0.929 . S
C1475 C1467 1.433 . S
C1475 N1477 1.384 . S
N1476 C1472 1.427 . S
N1476 C1473 1.384 . S
N1477 C1469 1.427 . S
N1477 C1475 1.384 . S
H1478 C1484 0.930 . S
H1479 C1488 0.930 . S
H1480 C1493 0.929 . S
H1481 C1491 0.929 . S
H1482 C1486 0.929 . S
H1483 C1492 0.929 . S
C1484 H1478 0.930 . S
C1484 C1485 1.367 . S
C1484 C1492 1.378 . S
C1485 C1484 1.367 . S
C1485 C1493 1.433 . S
C1486 H1482 0.929 . S
C1486 C1488 1.378 . S
C1486 C1490 1.350 . S
C1487 C1490 1.463 . S
C1487 C1492 1.350 . S
C1487 N1495 1.427 . S
C1488 H1479 0.930 . S
C1488 C1486 1.378 . S
C1488 C1489 1.367 . S
C1489 C1488 1.367 . S
C1489 C1491 1.433 . S
C1490 C1486 1.350 . S
C1490 C1487 1.463 . S
C1490 N1494 1.427 . S
C1491 H1481 0.929 . S
C1491 C1489 1.433 . S
C1491 N1494 1.384 . S
C1492 H1483 0.929 . S
C1492 C1484 1.378 . S
C1492 C1487 1.350 . S
C1493 H1480 0.929 . S
C1493 C1485 1.433 . S
C1493 N1495 1.384 . S
N1494 C1490 1.427 . S
N1494 C1491 1.384 . S
N1495 C1487 1.427 . S
N1495 C1493 1.384 . S
H1496 C1502 0.930 . S
H1497 C1506 0.930 . S
H1498 C1511 0.929 . S
H1499 C1509 0.929 . S
H1500 C1504 0.929 . S
H1501 C1510 0.929 . S
C1502 H1496 0.930 . S
C1502 C1503 1.367 . S
C1502 C1510 1.378 . S
C1503 C1502 1.367 . S
C1503 C1511 1.433 1_565 S
C1504 H1500 0.929 . S
C1504 C1506 1.378 . S
C1504 C1508 1.350 . S
C1505 C1508 1.463 1_565 S
C1505 C1510 1.350 . S
C1505 N1513 1.427 1_565 S
C1506 H1497 0.930 . S
C1506 C1504 1.378 . S
C1506 C1507 1.367 . S
C1507 C1506 1.367 . S
C1507 C1509 1.433 1_545 S
C1508 C1504 1.350 . S
C1508 C1505 1.463 1_545 S
C1508 N1512 1.427 1_545 S
C1509 H1499 0.929 . S
C1509 C1507 1.433 1_565 S
C1509 N1512 1.384 . S
C1510 H1501 0.929 . S
C1510 C1502 1.378 . S
C1510 C1505 1.350 . S
C1511 H1498 0.929 . S
C1511 C1503 1.433 1_545 S
C1511 N1513 1.384 . S
N1512 C1508 1.427 1_565 S
N1512 C1509 1.384 . S
N1513 C1505 1.427 1_545 S
N1513 C1511 1.384 . S
H1514 C1520 0.930 . S
H1515 C1524 0.930 . S
H1516 C1529 0.929 . S
H1517 C1527 0.929 . S
H1518 C1522 0.929 . S
H1519 C1528 0.929 . S
C1520 H1514 0.930 . S
C1520 C1521 1.367 . S
C1520 C1528 1.378 . S
C1521 C1520 1.367 . S
C1521 C1529 1.433 . S
C1522 H1518 0.929 . S
C1522 C1524 1.378 . S
C1522 C1526 1.350 . S
C1523 C1526 1.463 . S
C1523 C1528 1.350 . S
C1523 N1531 1.427 . S
C1524 H1515 0.930 . S
C1524 C1522 1.378 . S
C1524 C1525 1.367 . S
C1525 C1524 1.367 . S
C1525 C1527 1.433 . S
C1526 C1522 1.350 . S
C1526 C1523 1.463 . S
C1526 N1530 1.427 . S
C1527 H1517 0.929 . S
C1527 C1525 1.433 . S
C1527 N1530 1.384 . S
C1528 H1519 0.929 . S
C1528 C1520 1.378 . S
C1528 C1523 1.350 . S
C1529 H1516 0.929 . S
C1529 C1521 1.433 . S
C1529 N1531 1.384 . S
N1530 C1526 1.427 . S
N1530 C1527 1.384 . S
N1531 C1523 1.427 . S
N1531 C1529 1.384 . S
H1532 C1538 0.930 . S
H1533 C1542 0.930 . S
H1534 C1547 0.929 . S
H1535 C1545 0.929 . S
H1536 C1540 0.929 . S
H1537 C1546 0.929 . S
C1538 H1532 0.930 . S
C1538 C1539 1.367 . S
C1538 C1546 1.378 . S
C1539 C1538 1.367 . S
C1539 C1547 1.433 . S
C1540 H1536 0.929 . S
C1540 C1542 1.378 . S
C1540 C1544 1.350 . S
C1541 C1544 1.463 . S
C1541 C1546 1.350 . S
C1541 N1549 1.427 . S
C1542 H1533 0.930 . S
C1542 C1540 1.378 . S
C1542 C1543 1.367 . S
C1543 C1542 1.367 . S
C1543 C1545 1.433 . S
C1544 C1540 1.350 . S
C1544 C1541 1.463 . S
C1544 N1548 1.427 . S
C1545 H1535 0.929 . S
C1545 C1543 1.433 . S
C1545 N1548 1.384 . S
C1546 H1537 0.929 . S
C1546 C1538 1.378 . S
C1546 C1541 1.350 . S
C1547 H1534 0.929 . S
C1547 C1539 1.433 . S
C1547 N1549 1.384 . S
N1548 C1544 1.427 . S
N1548 C1545 1.384 . S
N1549 C1541 1.427 . S
N1549 C1547 1.384 . S
H1550 C1556 0.930 . S
H1551 C1560 0.930 . S
H1552 C1565 0.929 . S
H1553 C1563 0.929 . S
H1554 C1558 0.929 . S
H1555 C1564 0.929 . S
C1556 H1550 0.930 . S
C1556 C1557 1.367 . S
C1556 C1564 1.378 . S
C1557 C1556 1.367 . S
C1557 C1565 1.433 . S
C1558 H1554 0.929 . S
C1558 C1560 1.378 . S
C1558 C1562 1.350 . S
C1559 C1562 1.463 1_556 S
C1559 C1564 1.350 . S
C1559 N1567 1.427 . S
C1560 H1551 0.930 . S
C1560 C1558 1.378 . S
C1560 C1561 1.367 . S
C1561 C1560 1.367 . S
C1561 C1563 1.433 . S
C1562 C1558 1.350 . S
C1562 C1559 1.463 1_554 S
C1562 N1566 1.427 . S
C1563 H1553 0.929 . S
C1563 C1561 1.433 . S
C1563 N1566 1.384 . S
C1564 H1555 0.929 . S
C1564 C1556 1.378 . S
C1564 C1559 1.350 . S
C1565 H1552 0.929 . S
C1565 C1557 1.433 . S
C1565 N1567 1.384 . S
N1566 C1562 1.427 . S
N1566 C1563 1.384 . S
N1567 C1559 1.427 . S
N1567 C1565 1.384 . S
H1568 C1574 0.930 . S
H1569 C1578 0.930 . S
H1570 C1583 0.929 . S
H1571 C1581 0.929 . S
H1572 C1576 0.929 . S
H1573 C1582 0.929 . S
C1574 H1568 0.930 . S
C1574 C1575 1.367 . S
C1574 C1582 1.378 . S
C1575 C1574 1.367 . S
C1575 C1583 1.433 . S
C1576 H1572 0.929 . S
C1576 C1578 1.378 . S
C1576 C1580 1.350 . S
C1577 C1580 1.463 . S
C1577 C1582 1.350 . S
C1577 N1585 1.427 . S
C1578 H1569 0.930 . S
C1578 C1576 1.378 . S
C1578 C1579 1.367 . S
C1579 C1578 1.367 . S
C1579 C1581 1.433 . S
C1580 C1576 1.350 . S
C1580 C1577 1.463 . S
C1580 N1584 1.427 . S
C1581 H1571 0.929 . S
C1581 C1579 1.433 . S
C1581 N1584 1.384 . S
C1582 H1573 0.929 . S
C1582 C1574 1.378 . S
C1582 C1577 1.350 . S
C1583 H1570 0.929 . S
C1583 C1575 1.433 . S
C1583 N1585 1.384 . S
N1584 C1580 1.427 . S
N1584 C1581 1.384 . S
N1585 C1577 1.427 . S
N1585 C1583 1.384 . S
H1586 C1592 0.930 . S
H1587 C1596 0.930 . S
H1588 C1601 0.929 . S
H1589 C1599 0.929 . S
H1590 C1594 0.929 . S
H1591 C1600 0.929 . S
C1592 H1586 0.930 . S
C1592 C1593 1.367 . S
C1592 C1600 1.378 . S
C1593 C1592 1.367 . S
C1593 C1601 1.433 1_545 S
C1594 H1590 0.929 . S
C1594 C1596 1.378 . S
C1594 C1598 1.350 1_565 S
C1595 C1598 1.463 . S
C1595 C1600 1.350 . S
C1595 N1603 1.427 1_545 S
C1596 H1587 0.930 . S
C1596 C1594 1.378 . S
C1596 C1597 1.367 1_565 S
C1597 C1596 1.367 1_545 S
C1597 C1599 1.433 . S
C1598 C1594 1.350 1_545 S
C1598 C1595 1.463 . S
C1598 N1602 1.427 . S
C1599 H1589 0.929 . S
C1599 C1597 1.433 . S
C1599 N1602 1.384 . S
C1600 H1591 0.929 . S
C1600 C1592 1.378 . S
C1600 C1595 1.350 . S
C1601 H1588 0.929 . S
C1601 C1593 1.433 1_565 S
C1601 N1603 1.384 . S
N1602 C1598 1.427 . S
N1602 C1599 1.384 . S
N1603 C1595 1.427 1_565 S
N1603 C1601 1.384 . S
H1604 C1610 0.930 . S
H1605 C1614 0.930 . S
H1606 C1619 0.929 . S
H1607 C1617 0.929 . S
H1608 C1612 0.929 . S
H1609 C1618 0.929 . S
C1610 H1604 0.930 . S
C1610 C1611 1.367 . S
C1610 C1618 1.378 . S
C1611 C1610 1.367 . S
C1611 C1619 1.433 1_545 S
C1612 H1608 0.929 . S
C1612 C1614 1.378 . S
C1612 C1616 1.350 1_565 S
C1613 C1616 1.463 . S
C1613 C1618 1.350 . S
C1613 N1621 1.427 1_545 S
C1614 H1605 0.930 . S
C1614 C1612 1.378 . S
C1614 C1615 1.367 1_565 S
C1615 C1614 1.367 1_545 S
C1615 C1617 1.433 . S
C1616 C1612 1.350 1_545 S
C1616 C1613 1.463 . S
C1616 N1620 1.427 . S
C1617 H1607 0.929 . S
C1617 C1615 1.433 . S
C1617 N1620 1.384 . S
C1618 H1609 0.929 . S
C1618 C1610 1.378 . S
C1618 C1613 1.350 . S
C1619 H1606 0.929 . S
C1619 C1611 1.433 1_565 S
C1619 N1621 1.384 . S
N1620 C1616 1.427 . S
N1620 C1617 1.384 . S
N1621 C1613 1.427 1_565 S
N1621 C1619 1.384 . S
H1622 C1628 0.930 . S
H1623 C1632 0.930 . S
H1624 C1637 0.929 . S
H1625 C1635 0.929 . S
H1626 C1630 0.929 . S
H1627 C1636 0.929 . S
C1628 H1622 0.930 . S
C1628 C1629 1.367 . S
C1628 C1636 1.378 . S
C1629 C1628 1.367 . S
C1629 C1637 1.433 . S
C1630 H1626 0.929 . S
C1630 C1632 1.378 . S
C1630 C1634 1.350 . S
C1631 C1634 1.463 . S
C1631 C1636 1.350 . S
C1631 N1639 1.427 . S
C1632 H1623 0.930 . S
C1632 C1630 1.378 . S
C1632 C1633 1.367 . S
C1633 C1632 1.367 . S
C1633 C1635 1.433 . S
C1634 C1630 1.350 . S
C1634 C1631 1.463 . S
C1634 N1638 1.427 . S
C1635 H1625 0.929 . S
C1635 C1633 1.433 . S
C1635 N1638 1.384 . S
C1636 H1627 0.929 . S
C1636 C1628 1.378 . S
C1636 C1631 1.350 . S
C1637 H1624 0.929 . S
C1637 C1629 1.433 . S
C1637 N1639 1.384 . S
N1638 C1634 1.427 . S
N1638 C1635 1.384 . S
N1639 C1631 1.427 . S
N1639 C1637 1.384 . S
H1640 C1646 0.930 . S
H1641 C1650 0.930 . S
H1642 C1655 0.929 . S
H1643 C1653 0.929 . S
H1644 C1648 0.929 . S
H1645 C1654 0.929 . S
C1646 H1640 0.930 . S
C1646 C1647 1.367 . S
C1646 C1654 1.378 . S
C1647 C1646 1.367 . S
C1647 C1655 1.433 . S
C1648 H1644 0.929 . S
C1648 C1650 1.378 . S
C1648 C1652 1.350 . S
C1649 C1652 1.463 . S
C1649 C1654 1.350 . S
C1649 N1657 1.427 . S
C1650 H1641 0.930 . S
C1650 C1648 1.378 . S
C1650 C1651 1.367 . S
C1651 C1650 1.367 . S
C1651 C1653 1.433 . S
C1652 C1648 1.350 . S
C1652 C1649 1.463 . S
C1652 N1656 1.427 . S
C1653 H1643 0.929 . S
C1653 C1651 1.433 . S
C1653 N1656 1.384 . S
C1654 H1645 0.929 . S
C1654 C1646 1.378 . S
C1654 C1649 1.350 . S
C1655 H1642 0.929 . S
C1655 C1647 1.433 . S
C1655 N1657 1.384 . S
N1656 C1652 1.427 . S
N1656 C1653 1.384 . S
N1657 C1649 1.427 . S
N1657 C1655 1.384 . S
H1658 C1664 0.930 . S
H1659 C1668 0.930 . S
H1660 C1673 0.929 . S
H1661 C1671 0.929 . S
H1662 C1666 0.929 . S
H1663 C1672 0.929 . S
C1664 H1658 0.930 . S
C1664 C1665 1.367 1_545 S
C1664 C1672 1.378 . S
C1665 C1664 1.367 1_565 S
C1665 C1673 1.433 . S
C1666 H1662 0.929 . S
C1666 C1668 1.378 . S
C1666 C1670 1.350 . S
C1667 C1670 1.463 . S
C1667 C1672 1.350 1_565 S
C1667 N1675 1.427 . S
C1668 H1659 0.930 . S
C1668 C1666 1.378 . S
C1668 C1669 1.367 . S
C1669 C1668 1.367 . S
C1669 C1671 1.433 1_565 S
C1670 C1666 1.350 . S
C1670 C1667 1.463 . S
C1670 N1674 1.427 1_565 S
C1671 H1661 0.929 . S
C1671 C1669 1.433 1_545 S
C1671 N1674 1.384 . S
C1672 H1663 0.929 . S
C1672 C1664 1.378 . S
C1672 C1667 1.350 1_545 S
C1673 H1660 0.929 . S
C1673 C1665 1.433 . S
C1673 N1675 1.384 . S
N1674 C1670 1.427 1_545 S
N1674 C1671 1.384 . S
N1675 C1667 1.427 . S
N1675 C1673 1.384 . S
H1676 C1682 0.930 . S
H1677 C1686 0.930 . S
H1678 C1691 0.929 . S
H1679 C1689 0.929 . S
H1680 C1684 0.929 . S
H1681 C1690 0.929 . S
C1682 H1676 0.930 . S
C1682 C1683 1.367 1_545 S
C1682 C1690 1.378 . S
C1683 C1682 1.367 1_565 S
C1683 C1691 1.433 . S
C1684 H1680 0.929 . S
C1684 C1686 1.378 . S
C1684 C1688 1.350 . S
C1685 C1688 1.463 . S
C1685 C1690 1.350 1_565 S
C1685 N1693 1.427 . S
C1686 H1677 0.930 . S
C1686 C1684 1.378 . S
C1686 C1687 1.367 . S
C1687 C1686 1.367 . S
C1687 C1689 1.433 1_565 S
C1688 C1684 1.350 . S
C1688 C1685 1.463 . S
C1688 N1692 1.427 1_565 S
C1689 H1679 0.929 . S
C1689 C1687 1.433 1_545 S
C1689 N1692 1.384 . S
C1690 H1681 0.929 . S
C1690 C1682 1.378 . S
C1690 C1685 1.350 1_545 S
C1691 H1678 0.929 . S
C1691 C1683 1.433 . S
C1691 N1693 1.384 . S
N1692 C1688 1.427 1_545 S
N1692 C1689 1.384 . S
N1693 C1685 1.427 . S
N1693 C1691 1.384 . S
H1694 C1700 0.930 . S
H1695 C1704 0.930 . S
H1696 C1709 0.929 . S
H1697 C1707 0.929 . S
H1698 C1702 0.929 . S
H1699 C1708 0.929 . S
C1700 H1694 0.930 . S
C1700 C1701 1.367 . S
C1700 C1708 1.378 . S
C1701 C1700 1.367 . S
C1701 C1709 1.433 . S
C1702 H1698 0.929 . S
C1702 C1704 1.378 . S
C1702 C1706 1.350 . S
C1703 C1706 1.463 . S
C1703 C1708 1.350 . S
C1703 N1711 1.427 . S
C1704 H1695 0.930 . S
C1704 C1702 1.378 . S
C1704 C1705 1.367 . S
C1705 C1704 1.367 . S
C1705 C1707 1.433 . S
C1706 C1702 1.350 . S
C1706 C1703 1.463 . S
C1706 N1710 1.427 . S
C1707 H1697 0.929 . S
C1707 C1705 1.433 . S
C1707 N1710 1.384 . S
C1708 H1699 0.929 . S
C1708 C1700 1.378 . S
C1708 C1703 1.350 . S
C1709 H1696 0.929 . S
C1709 C1701 1.433 . S
C1709 N1711 1.384 . S
N1710 C1706 1.427 . S
N1710 C1707 1.384 . S
N1711 C1703 1.427 . S
N1711 C1709 1.384 . S
H1712 C1718 0.930 . S
H1713 C1722 0.930 . S
H1714 C1727 0.929 . S
H1715 C1725 0.929 . S
H1716 C1720 0.929 . S
H1717 C1726 0.929 . S
C1718 H1712 0.930 . S
C1718 C1719 1.367 . S
C1718 C1726 1.378 . S
C1719 C1718 1.367 . S
C1719 C1727 1.433 . S
C1720 H1716 0.929 . S
C1720 C1722 1.378 . S
C1720 C1724 1.350 . S
C1721 C1724 1.463 . S
C1721 C1726 1.350 . S
C1721 N1729 1.427 . S
C1722 H1713 0.930 . S
C1722 C1720 1.378 . S
C1722 C1723 1.367 . S
C1723 C1722 1.367 . S
C1723 C1725 1.433 . S
C1724 C1720 1.350 . S
C1724 C1721 1.463 . S
C1724 N1728 1.427 . S
C1725 H1715 0.929 . S
C1725 C1723 1.433 . S
C1725 N1728 1.384 . S
C1726 H1717 0.929 . S
C1726 C1718 1.378 . S
C1726 C1721 1.350 . S
C1727 H1714 0.929 . S
C1727 C1719 1.433 . S
C1727 N1729 1.384 . S
N1728 C1724 1.427 . S
N1728 C1725 1.384 . S
N1729 C1721 1.427 . S
N1729 C1727 1.384 . S
H1730 C1736 0.930 . S
H1731 C1740 0.930 . S
H1732 C1745 0.929 . S
H1733 C1743 0.929 . S
H1734 C1738 0.929 . S
H1735 C1744 0.929 . S
C1736 H1730 0.930 . S
C1736 C1737 1.367 . S
C1736 C1744 1.378 . S
C1737 C1736 1.367 . S
C1737 C1745 1.433 . S
C1738 H1734 0.929 . S
C1738 C1740 1.378 . S
C1738 C1742 1.350 . S
C1739 C1742 1.463 . S
C1739 C1744 1.350 . S
C1739 N1747 1.427 . S
C1740 H1731 0.930 . S
C1740 C1738 1.378 . S
C1740 C1741 1.367 . S
C1741 C1740 1.367 . S
C1741 C1743 1.433 . S
C1742 C1738 1.350 . S
C1742 C1739 1.463 . S
C1742 N1746 1.427 . S
C1743 H1733 0.929 . S
C1743 C1741 1.433 . S
C1743 N1746 1.384 . S
C1744 H1735 0.929 . S
C1744 C1736 1.378 . S
C1744 C1739 1.350 . S
C1745 H1732 0.929 . S
C1745 C1737 1.433 . S
C1745 N1747 1.384 . S
N1746 C1742 1.427 . S
N1746 C1743 1.384 . S
N1747 C1739 1.427 . S
N1747 C1745 1.384 . S
H1748 C1754 0.930 . S
H1749 C1758 0.930 . S
H1750 C1763 0.929 . S
H1751 C1761 0.929 . S
H1752 C1756 0.929 . S
H1753 C1762 0.929 . S
C1754 H1748 0.930 . S
C1754 C1755 1.367 . S
C1754 C1762 1.378 . S
C1755 C1754 1.367 . S
C1755 C1763 1.433 . S
C1756 H1752 0.929 . S
C1756 C1758 1.378 . S
C1756 C1760 1.350 . S
C1757 C1760 1.463 . S
C1757 C1762 1.350 . S
C1757 N1765 1.427 . S
C1758 H1749 0.930 . S
C1758 C1756 1.378 . S
C1758 C1759 1.367 . S
C1759 C1758 1.367 . S
C1759 C1761 1.433 . S
C1760 C1756 1.350 . S
C1760 C1757 1.463 . S
C1760 N1764 1.427 . S
C1761 H1751 0.929 . S
C1761 C1759 1.433 . S
C1761 N1764 1.384 . S
C1762 H1753 0.929 . S
C1762 C1754 1.378 . S
C1762 C1757 1.350 . S
C1763 H1750 0.929 . S
C1763 C1755 1.433 . S
C1763 N1765 1.384 . S
N1764 C1760 1.427 . S
N1764 C1761 1.384 . S
N1765 C1757 1.427 . S
N1765 C1763 1.384 . S
H1766 C1772 0.930 . S
H1767 C1776 0.930 . S
H1768 C1781 0.929 . S
H1769 C1779 0.929 . S
H1770 C1774 0.929 . S
H1771 C1780 0.929 . S
C1772 H1766 0.930 . S
C1772 C1773 1.367 . S
C1772 C1780 1.378 . S
C1773 C1772 1.367 . S
C1773 C1781 1.433 . S
C1774 H1770 0.929 . S
C1774 C1776 1.378 . S
C1774 C1778 1.350 . S
C1775 C1778 1.463 . S
C1775 C1780 1.350 . S
C1775 N1783 1.427 . S
C1776 H1767 0.930 . S
C1776 C1774 1.378 . S
C1776 C1777 1.367 . S
C1777 C1776 1.367 . S
C1777 C1779 1.433 . S
C1778 C1774 1.350 . S
C1778 C1775 1.463 . S
C1778 N1782 1.427 . S
C1779 H1769 0.929 . S
C1779 C1777 1.433 . S
C1779 N1782 1.384 . S
C1780 H1771 0.929 . S
C1780 C1772 1.378 . S
C1780 C1775 1.350 . S
C1781 H1768 0.929 . S
C1781 C1773 1.433 . S
C1781 N1783 1.384 . S
N1782 C1778 1.427 . S
N1782 C1779 1.384 . S
N1783 C1775 1.427 . S
N1783 C1781 1.384 . S
H1784 C1790 0.930 . S
H1785 C1794 0.930 . S
H1786 C1799 0.929 . S
H1787 C1797 0.929 . S
H1788 C1792 0.929 . S
H1789 C1798 0.929 . S
C1790 H1784 0.930 . S
C1790 C1791 1.367 . S
C1790 C1798 1.378 . S
C1791 C1790 1.367 . S
C1791 C1799 1.433 . S
C1792 H1788 0.929 . S
C1792 C1794 1.378 . S
C1792 C1796 1.350 . S
C1793 C1796 1.463 . S
C1793 C1798 1.350 . S
C1793 N1801 1.427 . S
C1794 H1785 0.930 . S
C1794 C1792 1.378 . S
C1794 C1795 1.367 . S
C1795 C1794 1.367 . S
C1795 C1797 1.433 . S
C1796 C1792 1.350 . S
C1796 C1793 1.463 . S
C1796 N1800 1.427 . S
C1797 H1787 0.929 . S
C1797 C1795 1.433 . S
C1797 N1800 1.384 . S
C1798 H1789 0.929 . S
C1798 C1790 1.378 . S
C1798 C1793 1.350 . S
C1799 H1786 0.929 . S
C1799 C1791 1.433 . S
C1799 N1801 1.384 . S
N1800 C1796 1.427 . S
N1800 C1797 1.384 . S
N1801 C1793 1.427 . S
N1801 C1799 1.384 . S
H1802 C1808 0.930 . S
H1803 C1812 0.930 . S
H1804 C1817 0.929 . S
H1805 C1815 0.929 . S
H1806 C1810 0.929 . S
H1807 C1816 0.929 . S
C1808 H1802 0.930 . S
C1808 C1809 1.367 . S
C1808 C1816 1.378 . S
C1809 C1808 1.367 . S
C1809 C1817 1.433 . S
C1810 H1806 0.929 . S
C1810 C1812 1.378 . S
C1810 C1814 1.350 . S
C1811 C1814 1.463 . S
C1811 C1816 1.350 . S
C1811 N1819 1.427 . S
C1812 H1803 0.930 . S
C1812 C1810 1.378 . S
C1812 C1813 1.367 . S
C1813 C1812 1.367 . S
C1813 C1815 1.433 . S
C1814 C1810 1.350 . S
C1814 C1811 1.463 . S
C1814 N1818 1.427 . S
C1815 H1805 0.929 . S
C1815 C1813 1.433 . S
C1815 N1818 1.384 . S
C1816 H1807 0.929 . S
C1816 C1808 1.378 . S
C1816 C1811 1.350 . S
C1817 H1804 0.929 . S
C1817 C1809 1.433 . S
C1817 N1819 1.384 . S
N1818 C1814 1.427 . S
N1818 C1815 1.384 . S
N1819 C1811 1.427 . S
N1819 C1817 1.384 . S
H1820 C1826 0.930 . S
H1821 C1830 0.930 . S
H1822 C1835 0.929 . S
H1823 C1833 0.929 . S
H1824 C1828 0.929 . S
H1825 C1834 0.929 . S
C1826 H1820 0.930 . S
C1826 C1827 1.367 . S
C1826 C1834 1.378 . S
C1827 C1826 1.367 . S
C1827 C1835 1.433 . S
C1828 H1824 0.929 . S
C1828 C1830 1.378 . S
C1828 C1832 1.350 . S
C1829 C1832 1.463 . S
C1829 C1834 1.350 . S
C1829 N1837 1.427 . S
C1830 H1821 0.930 . S
C1830 C1828 1.378 . S
C1830 C1831 1.367 . S
C1831 C1830 1.367 . S
C1831 C1833 1.433 . S
C1832 C1828 1.350 . S
C1832 C1829 1.463 . S
C1832 N1836 1.427 . S
C1833 H1823 0.929 . S
C1833 C1831 1.433 . S
C1833 N1836 1.384 . S
C1834 H1825 0.929 . S
C1834 C1826 1.378 . S
C1834 C1829 1.350 . S
C1835 H1822 0.929 . S
C1835 C1827 1.433 . S
C1835 N1837 1.384 . S
N1836 C1832 1.427 . S
N1836 C1833 1.384 . S
N1837 C1829 1.427 . S
N1837 C1835 1.384 . S
H1838 C1844 0.930 . S
H1839 C1848 0.930 . S
H1840 C1853 0.929 . S
H1841 C1851 0.929 . S
H1842 C1846 0.929 . S
H1843 C1852 0.929 . S
C1844 H1838 0.930 . S
C1844 C1845 1.367 . S
C1844 C1852 1.378 . S
C1845 C1844 1.367 . S
C1845 C1853 1.433 . S
C1846 H1842 0.929 . S
C1846 C1848 1.378 . S
C1846 C1850 1.350 . S
C1847 C1850 1.463 . S
C1847 C1852 1.350 . S
C1847 N1855 1.427 . S
C1848 H1839 0.930 . S
C1848 C1846 1.378 . S
C1848 C1849 1.367 . S
C1849 C1848 1.367 . S
C1849 C1851 1.433 . S
C1850 C1846 1.350 . S
C1850 C1847 1.463 . S
C1850 N1854 1.427 . S
C1851 H1841 0.929 . S
C1851 C1849 1.433 . S
C1851 N1854 1.384 . S
C1852 H1843 0.929 . S
C1852 C1844 1.378 . S
C1852 C1847 1.350 . S
C1853 H1840 0.929 . S
C1853 C1845 1.433 . S
C1853 N1855 1.384 . S
N1854 C1850 1.427 . S
N1854 C1851 1.384 . S
N1855 C1847 1.427 . S
N1855 C1853 1.384 . S
H1856 C1862 0.930 . S
H1857 C1866 0.930 . S
H1858 C1871 0.929 . S
H1859 C1869 0.929 . S
H1860 C1864 0.929 . S
H1861 C1870 0.929 . S
C1862 H1856 0.930 . S
C1862 C1863 1.367 . S
C1862 C1870 1.378 . S
C1863 C1862 1.367 . S
C1863 C1871 1.433 . S
C1864 H1860 0.929 . S
C1864 C1866 1.378 . S
C1864 C1868 1.350 . S
C1865 C1868 1.463 . S
C1865 C1870 1.350 . S
C1865 N1873 1.427 . S
C1866 H1857 0.930 . S
C1866 C1864 1.378 . S
C1866 C1867 1.367 . S
C1867 C1866 1.367 . S
C1867 C1869 1.433 . S
C1868 C1864 1.350 . S
C1868 C1865 1.463 . S
C1868 N1872 1.427 . S
C1869 H1859 0.929 . S
C1869 C1867 1.433 . S
C1869 N1872 1.384 . S
C1870 H1861 0.929 . S
C1870 C1862 1.378 . S
C1870 C1865 1.350 . S
C1871 H1858 0.929 . S
C1871 C1863 1.433 . S
C1871 N1873 1.384 . S
N1872 C1868 1.427 . S
N1872 C1869 1.384 . S
N1873 C1865 1.427 . S
N1873 C1871 1.384 . S
H1874 C1880 0.932 1_565 S
H1875 C1884 0.927 1_545 S
H1876 C1889 0.929 . S
H1877 C1887 0.929 . S
H1878 C1882 0.929 . S
H1879 C1888 0.929 . S
C1880 H1874 0.932 1_545 S
C1880 C1881 1.364 . S
C1880 C1888 1.379 1_545 S
C1881 C1880 1.364 . S
C1881 C1889 1.433 . S
C1882 H1878 0.929 . S
C1882 C1884 1.375 1_545 S
C1882 C1886 1.350 1_545 S
C1883 C1886 1.463 1_545 S
C1883 C1888 1.350 1_545 S
C1883 N1891 1.427 . S
C1884 H1875 0.927 1_565 S
C1884 C1882 1.375 1_565 S
C1884 C1885 1.373 . S
C1885 C1884 1.373 . S
C1885 C1887 1.433 . S
C1886 C1882 1.350 1_565 S
C1886 C1883 1.463 1_565 S
C1886 N1890 1.427 . S
C1887 H1877 0.929 . S
C1887 C1885 1.433 . S
C1887 N1890 1.384 . S
C1888 H1879 0.929 . S
C1888 C1880 1.379 1_565 S
C1888 C1883 1.350 1_565 S
C1889 H1876 0.929 . S
C1889 C1881 1.433 . S
C1889 N1891 1.384 . S
N1890 C1886 1.427 . S
N1890 C1887 1.384 . S
N1891 C1883 1.427 . S
N1891 C1889 1.384 . S
H1892 C1898 0.929 . S
H1893 C1902 0.935 . S
H1894 C1907 0.929 . S
H1895 C1905 0.929 . S
H1896 C1900 0.929 . S
H1897 C1906 0.929 . S
C1898 H1892 0.929 . S
C1898 C1899 1.368 1_545 S
C1898 C1906 1.377 . S
C1899 C1898 1.368 1_565 S
C1899 C1907 1.433 . S
C1900 H1896 0.929 . S
C1900 C1902 1.381 . S
C1900 C1904 1.350 1_565 S
C1901 C1904 1.463 1_565 S
C1901 C1906 1.350 1_565 S
C1901 N1909 1.427 . S
C1902 H1893 0.935 . S
C1902 C1900 1.381 . S
C1902 C1903 1.359 1_565 S
C1903 C1902 1.359 1_545 S
C1903 C1905 1.433 . S
C1904 C1900 1.350 1_545 S
C1904 C1901 1.463 1_545 S
C1904 N1908 1.427 . S
C1905 H1895 0.929 . S
C1905 C1903 1.433 . S
C1905 N1908 1.384 . S
C1906 H1897 0.929 . S
C1906 C1898 1.377 . S
C1906 C1901 1.350 1_545 S
C1907 H1894 0.929 . S
C1907 C1899 1.433 . S
C1907 N1909 1.384 . S
N1908 C1904 1.427 . S
N1908 C1905 1.384 . S
N1909 C1901 1.427 . S
N1909 C1907 1.384 . S
H1910 C1916 0.930 . S
H1911 C1920 0.930 . S
H1912 C1925 0.929 . S
H1913 C1923 0.929 . S
H1914 C1918 0.929 . S
H1915 C1924 0.929 . S
C1916 H1910 0.930 . S
C1916 C1917 1.367 . S
C1916 C1924 1.378 . S
C1917 C1916 1.367 . S
C1917 C1925 1.433 . S
C1918 H1914 0.929 . S
C1918 C1920 1.378 . S
C1918 C1922 1.350 . S
C1919 C1922 1.463 . S
C1919 C1924 1.350 . S
C1919 N1927 1.427 . S
C1920 H1911 0.930 . S
C1920 C1918 1.378 . S
C1920 C1921 1.367 . S
C1921 C1920 1.367 . S
C1921 C1923 1.433 . S
C1922 C1918 1.350 . S
C1922 C1919 1.463 . S
C1922 N1926 1.427 . S
C1923 H1913 0.929 . S
C1923 C1921 1.433 . S
C1923 N1926 1.384 . S
C1924 H1915 0.929 . S
C1924 C1916 1.378 . S
C1924 C1919 1.350 . S
C1925 H1912 0.929 . S
C1925 C1917 1.433 . S
C1925 N1927 1.384 . S
N1926 C1922 1.427 . S
N1926 C1923 1.384 . S
N1927 C1919 1.427 . S
N1927 C1925 1.384 . S
H1928 C1934 0.930 . S
H1929 C1938 0.930 . S
H1930 C1943 0.929 . S
H1931 C1941 0.929 . S
H1932 C1936 0.929 . S
H1933 C1942 0.929 . S
C1934 H1928 0.930 . S
C1934 C1935 1.367 . S
C1934 C1942 1.378 . S
C1935 C1934 1.367 . S
C1935 C1943 1.433 . S
C1936 H1932 0.929 . S
C1936 C1938 1.378 . S
C1936 C1940 1.350 . S
C1937 C1940 1.463 . S
C1937 C1942 1.350 . S
C1937 N1945 1.427 . S
C1938 H1929 0.930 . S
C1938 C1936 1.378 . S
C1938 C1939 1.367 . S
C1939 C1938 1.367 . S
C1939 C1941 1.433 . S
C1940 C1936 1.350 . S
C1940 C1937 1.463 . S
C1940 N1944 1.427 . S
C1941 H1931 0.929 . S
C1941 C1939 1.433 . S
C1941 N1944 1.384 . S
C1942 H1933 0.929 . S
C1942 C1934 1.378 . S
C1942 C1937 1.350 . S
C1943 H1930 0.929 . S
C1943 C1935 1.433 . S
C1943 N1945 1.384 . S
N1944 C1940 1.427 . S
N1944 C1941 1.384 . S
N1945 C1937 1.427 . S
N1945 C1943 1.384 . S
H1946 C1952 0.930 . S
H1947 C1956 0.930 . S
H1948 C1961 0.929 . S
H1949 C1959 0.929 . S
H1950 C1954 0.929 . S
H1951 C1960 0.929 . S
C1952 H1946 0.930 . S
C1952 C1953 1.367 . S
C1952 C1960 1.378 . S
C1953 C1952 1.367 . S
C1953 C1961 1.433 1_545 S
C1954 H1950 0.929 . S
C1954 C1956 1.378 . S
C1954 C1958 1.350 . S
C1955 C1958 1.463 1_545 S
C1955 C1960 1.350 . S
C1955 N1963 1.427 1_545 S
C1956 H1947 0.930 . S
C1956 C1954 1.378 . S
C1956 C1957 1.367 . S
C1957 C1956 1.367 . S
C1957 C1959 1.433 1_565 S
C1958 C1954 1.350 . S
C1958 C1955 1.463 1_565 S
C1958 N1962 1.427 1_565 S
C1959 H1949 0.929 . S
C1959 C1957 1.433 1_545 S
C1959 N1962 1.384 . S
C1960 H1951 0.929 . S
C1960 C1952 1.378 . S
C1960 C1955 1.350 . S
C1961 H1948 0.929 . S
C1961 C1953 1.433 1_565 S
C1961 N1963 1.384 . S
N1962 C1958 1.427 1_545 S
N1962 C1959 1.384 . S
N1963 C1955 1.427 1_565 S
N1963 C1961 1.384 . S
H1964 C1970 0.930 . S
H1965 C1974 0.930 . S
H1966 C1979 0.929 . S
H1967 C1977 0.929 . S
H1968 C1972 0.929 . S
H1969 C1978 0.929 . S
C1970 H1964 0.930 . S
C1970 C1971 1.367 . S
C1970 C1978 1.378 . S
C1971 C1970 1.367 . S
C1971 C1979 1.433 1_545 S
C1972 H1968 0.929 . S
C1972 C1974 1.378 . S
C1972 C1976 1.350 . S
C1973 C1976 1.463 1_545 S
C1973 C1978 1.350 . S
C1973 N1981 1.427 1_545 S
C1974 H1965 0.930 . S
C1974 C1972 1.378 . S
C1974 C1975 1.367 . S
C1975 C1974 1.367 . S
C1975 C1977 1.433 1_565 S
C1976 C1972 1.350 . S
C1976 C1973 1.463 1_565 S
C1976 N1980 1.427 1_565 S
C1977 H1967 0.929 . S
C1977 C1975 1.433 1_545 S
C1977 N1980 1.384 . S
C1978 H1969 0.929 . S
C1978 C1970 1.378 . S
C1978 C1973 1.350 . S
C1979 H1966 0.929 . S
C1979 C1971 1.433 1_565 S
C1979 N1981 1.384 . S
N1980 C1976 1.427 1_545 S
N1980 C1977 1.384 . S
N1981 C1973 1.427 1_565 S
N1981 C1979 1.384 . S
H1982 C1988 0.930 . S
H1983 C1992 0.930 . S
H1984 C1997 0.929 . S
H1985 C1995 0.929 . S
H1986 C1990 0.929 . S
H1987 C1996 0.929 . S
C1988 H1982 0.930 . S
C1988 C1989 1.367 . S
C1988 C1996 1.378 . S
C1989 C1988 1.367 . S
C1989 C1997 1.433 . S
C1990 H1986 0.929 . S
C1990 C1992 1.378 . S
C1990 C1994 1.350 . S
C1991 C1994 1.463 . S
C1991 C1996 1.350 . S
C1991 N1999 1.427 . S
C1992 H1983 0.930 . S
C1992 C1990 1.378 . S
C1992 C1993 1.367 . S
C1993 C1992 1.367 . S
C1993 C1995 1.433 . S
C1994 C1990 1.350 . S
C1994 C1991 1.463 . S
C1994 N1998 1.427 . S
C1995 H1985 0.929 . S
C1995 C1993 1.433 . S
C1995 N1998 1.384 . S
C1996 H1987 0.929 . S
C1996 C1988 1.378 . S
C1996 C1991 1.350 . S
C1997 H1984 0.929 . S
C1997 C1989 1.433 . S
C1997 N1999 1.384 . S
N1998 C1994 1.427 . S
N1998 C1995 1.384 . S
N1999 C1991 1.427 . S
N1999 C1997 1.384 . S
H2000 C2006 0.930 . S
H2001 C2010 0.930 . S
H2002 C2015 0.929 . S
H2003 C2013 0.929 . S
H2004 C2008 0.929 . S
H2005 C2014 0.929 . S
C2006 H2000 0.930 . S
C2006 C2007 1.367 . S
C2006 C2014 1.378 . S
C2007 C2006 1.367 . S
C2007 C2015 1.433 . S
C2008 H2004 0.929 . S
C2008 C2010 1.378 . S
C2008 C2012 1.350 . S
C2009 C2012 1.463 . S
C2009 C2014 1.350 . S
C2009 N2017 1.427 . S
C2010 H2001 0.930 . S
C2010 C2008 1.378 . S
C2010 C2011 1.367 . S
C2011 C2010 1.367 . S
C2011 C2013 1.433 . S
C2012 C2008 1.350 . S
C2012 C2009 1.463 . S
C2012 N2016 1.427 . S
C2013 H2003 0.929 . S
C2013 C2011 1.433 . S
C2013 N2016 1.384 . S
C2014 H2005 0.929 . S
C2014 C2006 1.378 . S
C2014 C2009 1.350 . S
C2015 H2002 0.929 . S
C2015 C2007 1.433 . S
C2015 N2017 1.384 . S
N2016 C2012 1.427 . S
N2016 C2013 1.384 . S
N2017 C2009 1.427 . S
N2017 C2015 1.384 . S
H2018 C2024 0.930 . S
H2019 C2028 0.930 . S
H2020 C2033 0.929 . S
H2021 C2031 0.929 . S
H2022 C2026 0.929 . S
H2023 C2032 0.929 . S
C2024 H2018 0.930 . S
C2024 C2025 1.367 . S
C2024 C2032 1.378 . S
C2025 C2024 1.367 . S
C2025 C2033 1.433 . S
C2026 H2022 0.929 . S
C2026 C2028 1.378 . S
C2026 C2030 1.350 . S
C2027 C2030 1.463 . S
C2027 C2032 1.350 . S
C2027 N2035 1.427 . S
C2028 H2019 0.930 . S
C2028 C2026 1.378 . S
C2028 C2029 1.367 . S
C2029 C2028 1.367 . S
C2029 C2031 1.433 . S
C2030 C2026 1.350 . S
C2030 C2027 1.463 . S
C2030 N2034 1.427 . S
C2031 H2021 0.929 . S
C2031 C2029 1.433 . S
C2031 N2034 1.384 . S
C2032 H2023 0.929 . S
C2032 C2024 1.378 . S
C2032 C2027 1.350 . S
C2033 H2020 0.929 . S
C2033 C2025 1.433 . S
C2033 N2035 1.384 . S
N2034 C2030 1.427 . S
N2034 C2031 1.384 . S
N2035 C2027 1.427 . S
N2035 C2033 1.384 . S
H2036 C2042 0.930 . S
H2037 C2046 0.930 . S
H2038 C2051 0.929 . S
H2039 C2049 0.929 . S
H2040 C2044 0.929 . S
H2041 C2050 0.929 1_554 S
C2042 H2036 0.930 . S
C2042 C2043 1.367 . S
C2042 C2050 1.378 . S
C2043 C2042 1.367 . S
C2043 C2051 1.433 . S
C2044 H2040 0.929 . S
C2044 C2046 1.378 . S
C2044 C2048 1.350 . S
C2045 C2048 1.463 . S
C2045 C2050 1.350 1_554 S
C2045 N2053 1.427 1_554 S
C2046 H2037 0.930 . S
C2046 C2044 1.378 . S
C2046 C2047 1.367 . S
C2047 C2046 1.367 . S
C2047 C2049 1.433 . S
C2048 C2044 1.350 . S
C2048 C2045 1.463 . S
C2048 N2052 1.427 . S
C2049 H2039 0.929 . S
C2049 C2047 1.433 . S
C2049 N2052 1.384 . S
C2050 H2041 0.929 1_556 S
C2050 C2042 1.378 . S
C2050 C2045 1.350 1_556 S
C2051 H2038 0.929 . S
C2051 C2043 1.433 . S
C2051 N2053 1.384 . S
N2052 C2048 1.427 . S
N2052 C2049 1.384 . S
N2053 C2045 1.427 1_556 S
N2053 C2051 1.384 . S
H2054 C2060 0.930 . S
H2055 C2064 0.930 . S
H2056 C2069 0.929 . S
H2057 C2067 0.929 . S
H2058 C2062 0.929 . S
H2059 C2068 0.929 1_554 S
C2060 H2054 0.930 . S
C2060 C2061 1.367 . S
C2060 C2068 1.378 . S
C2061 C2060 1.367 . S
C2061 C2069 1.433 . S
C2062 H2058 0.929 . S
C2062 C2064 1.378 . S
C2062 C2066 1.350 . S
C2063 C2066 1.479 . S
C2063 C2068 1.346 1_554 S
C2063 N2071 1.415 1_554 S
C2064 H2055 0.930 . S
C2064 C2062 1.378 . S
C2064 C2065 1.367 . S
C2065 C2064 1.367 . S
C2065 C2067 1.433 . S
C2066 C2062 1.350 . S
C2066 C2063 1.479 . S
C2066 N2070 1.427 . S
C2067 H2057 0.929 . S
C2067 C2065 1.433 . S
C2067 N2070 1.384 . S
C2068 H2059 0.929 1_556 S
C2068 C2060 1.378 . S
C2068 C2063 1.346 1_556 S
C2069 H2056 0.929 . S
C2069 C2061 1.433 . S
C2069 N2071 1.384 . S
N2070 C2066 1.427 . S
N2070 C2067 1.384 . S
N2071 C2063 1.415 1_556 S
N2071 C2069 1.384 . S
H2072 C2078 0.930 . S
H2073 C2082 0.930 . S
H2074 C2087 0.929 . S
H2075 C2085 0.929 . S
H2076 C2080 0.929 . S
H2077 C2086 0.929 . S
C2078 H2072 0.930 . S
C2078 C2079 1.367 . S
C2078 C2086 1.378 . S
C2079 C2078 1.367 . S
C2079 C2087 1.433 . S
C2080 H2076 0.929 . S
C2080 C2082 1.378 . S
C2080 C2084 1.350 . S
C2081 C2084 1.463 . S
C2081 C2086 1.350 . S
C2081 N2089 1.427 . S
C2082 H2073 0.930 . S
C2082 C2080 1.378 . S
C2082 C2083 1.367 . S
C2083 C2082 1.367 . S
C2083 C2085 1.433 . S
C2084 C2080 1.350 . S
C2084 C2081 1.463 . S
C2084 N2088 1.427 . S
C2085 H2075 0.929 . S
C2085 C2083 1.433 . S
C2085 N2088 1.384 . S
C2086 H2077 0.929 . S
C2086 C2078 1.378 . S
C2086 C2081 1.350 . S
C2087 H2074 0.929 . S
C2087 C2079 1.433 . S
C2087 N2089 1.384 . S
N2088 C2084 1.427 . S
N2088 C2085 1.384 . S
N2089 C2081 1.427 . S
N2089 C2087 1.384 . S
H2090 C2096 0.930 . S
H2091 C2100 0.930 . S
H2092 C2105 0.929 . S
H2093 C2103 0.929 . S
H2094 C2098 0.929 . S
H2095 C2104 0.929 . S
C2096 H2090 0.930 . S
C2096 C2097 1.367 . S
C2096 C2104 1.378 . S
C2097 C2096 1.367 . S
C2097 C2105 1.433 . S
C2098 H2094 0.929 . S
C2098 C2100 1.378 . S
C2098 C2102 1.350 . S
C2099 C2102 1.463 . S
C2099 C2104 1.350 . S
C2099 N2107 1.427 . S
C2100 H2091 0.930 . S
C2100 C2098 1.378 . S
C2100 C2101 1.367 . S
C2101 C2100 1.367 . S
C2101 C2103 1.433 . S
C2102 C2098 1.350 . S
C2102 C2099 1.463 . S
C2102 N2106 1.427 . S
C2103 H2093 0.929 . S
C2103 C2101 1.433 . S
C2103 N2106 1.384 . S
C2104 H2095 0.929 . S
C2104 C2096 1.378 . S
C2104 C2099 1.350 . S
C2105 H2092 0.929 . S
C2105 C2097 1.433 . S
C2105 N2107 1.384 . S
N2106 C2102 1.427 . S
N2106 C2103 1.384 . S
N2107 C2099 1.427 . S
N2107 C2105 1.384 . S
H2108 C2114 0.930 . S
H2109 C2118 0.930 . S
H2110 C2123 0.929 . S
H2111 C2121 0.929 . S
H2112 C2116 0.929 . S
H2113 C2122 0.929 . S
C2114 H2108 0.930 . S
C2114 C2115 1.367 . S
C2114 C2122 1.378 . S
C2115 C2114 1.367 . S
C2115 C2123 1.433 . S
C2116 H2112 0.929 . S
C2116 C2118 1.378 . S
C2116 C2120 1.350 . S
C2117 C2120 1.465 . S
C2117 C2122 1.348 1_556 S
C2117 N2125 1.427 1_556 S
C2118 H2109 0.930 . S
C2118 C2116 1.378 . S
C2118 C2119 1.367 . S
C2119 C2118 1.367 . S
C2119 C2121 1.433 . S
C2120 C2116 1.350 . S
C2120 C2117 1.465 . S
C2120 N2124 1.427 . S
C2121 H2111 0.929 . S
C2121 C2119 1.433 . S
C2121 N2124 1.384 . S
C2122 H2113 0.929 . S
C2122 C2114 1.378 . S
C2122 C2117 1.348 1_554 S
C2123 H2110 0.929 . S
C2123 C2115 1.433 . S
C2123 N2125 1.384 . S
N2124 C2120 1.427 . S
N2124 C2121 1.384 . S
N2125 C2117 1.427 1_554 S
N2125 C2123 1.384 . S
H2126 C2132 0.930 . S
H2127 C2136 0.930 . S
H2128 C2141 0.929 . S
H2129 C2139 0.929 . S
H2130 C2134 0.929 . S
H2131 C2140 0.929 . S
C2132 H2126 0.930 . S
C2132 C2133 1.367 . S
C2132 C2140 1.378 . S
C2133 C2132 1.367 . S
C2133 C2141 1.433 . S
C2134 H2130 0.929 . S
C2134 C2136 1.378 . S
C2134 C2138 1.346 1_554 S
C2135 C2138 1.471 . S
C2135 C2140 1.350 . S
C2135 N2143 1.427 . S
C2136 H2127 0.930 . S
C2136 C2134 1.378 . S
C2136 C2137 1.367 . S
C2137 C2136 1.367 . S
C2137 C2139 1.433 . S
C2138 C2134 1.346 1_556 S
C2138 C2135 1.471 . S
C2138 N2142 1.423 1_556 S
C2139 H2129 0.929 . S
C2139 C2137 1.433 . S
C2139 N2142 1.384 . S
C2140 H2131 0.929 . S
C2140 C2132 1.378 . S
C2140 C2135 1.350 . S
C2141 H2128 0.929 . S
C2141 C2133 1.433 . S
C2141 N2143 1.384 . S
N2142 C2138 1.423 1_554 S
N2142 C2139 1.384 . S
N2143 C2135 1.427 . S
N2143 C2141 1.384 . S
H2144 C2150 0.930 . S
H2145 C2154 0.930 . S
H2146 C2159 0.929 . S
H2147 C2157 0.929 . S
H2148 C2152 0.929 . S
H2149 C2158 0.929 . S
C2150 H2144 0.930 . S
C2150 C2151 1.367 . S
C2150 C2158 1.378 . S
C2151 C2150 1.367 . S
C2151 C2159 1.433 . S
C2152 H2148 0.929 . S
C2152 C2154 1.378 . S
C2152 C2156 1.350 . S
C2153 C2156 1.463 . S
C2153 C2158 1.350 . S
C2153 N2161 1.427 . S
C2154 H2145 0.930 . S
C2154 C2152 1.378 . S
C2154 C2155 1.367 . S
C2155 C2154 1.367 . S
C2155 C2157 1.433 . S
C2156 C2152 1.350 . S
C2156 C2153 1.463 . S
C2156 N2160 1.427 . S
C2157 H2147 0.929 . S
C2157 C2155 1.433 . S
C2157 N2160 1.384 . S
C2158 H2149 0.929 . S
C2158 C2150 1.378 . S
C2158 C2153 1.350 . S
C2159 H2146 0.929 . S
C2159 C2151 1.433 . S
C2159 N2161 1.384 . S
N2160 C2156 1.427 . S
N2160 C2157 1.384 . S
N2161 C2153 1.427 . S
N2161 C2159 1.384 . S
H2162 C2168 0.930 . S
H2163 C2172 0.930 . S
H2164 C2177 0.929 . S
H2165 C2175 0.929 . S
H2166 C2170 0.929 . S
H2167 C2176 0.929 . S
C2168 H2162 0.930 . S
C2168 C2169 1.367 . S
C2168 C2176 1.378 . S
C2169 C2168 1.367 . S
C2169 C2177 1.433 . S
C2170 H2166 0.929 . S
C2170 C2172 1.378 . S
C2170 C2174 1.350 . S
C2171 C2174 1.463 1_565 S
C2171 C2176 1.350 . S
C2171 N2179 1.427 . S
C2172 H2163 0.930 . S
C2172 C2170 1.378 . S
C2172 C2173 1.367 . S
C2173 C2172 1.367 . S
C2173 C2175 1.433 . S
C2174 C2170 1.350 . S
C2174 C2171 1.463 1_545 S
C2174 N2178 1.427 . S
C2175 H2165 0.929 . S
C2175 C2173 1.433 . S
C2175 N2178 1.384 . S
C2176 H2167 0.929 . S
C2176 C2168 1.378 . S
C2176 C2171 1.350 . S
C2177 H2164 0.929 . S
C2177 C2169 1.433 . S
C2177 N2179 1.384 . S
N2178 C2174 1.427 . S
N2178 C2175 1.384 . S
N2179 C2171 1.427 . S
N2179 C2177 1.384 . S
H2180 C2186 0.930 1_545 S
H2181 C2190 0.930 1_565 S
H2182 C2195 0.929 . S
H2183 C2193 0.929 . S
H2184 C2188 0.929 . S
H2185 C2194 0.929 . S
C2186 H2180 0.930 1_565 S
C2186 C2187 1.367 . S
C2186 C2194 1.378 1_565 S
C2187 C2186 1.367 . S
C2187 C2195 1.433 . S
C2188 H2184 0.929 . S
C2188 C2190 1.378 1_565 S
C2188 C2192 1.350 1_565 S
C2189 C2192 1.463 1_565 S
C2189 C2194 1.350 1_564 S
C2189 N2197 1.427 1_554 S
C2190 H2181 0.930 1_545 S
C2190 C2188 1.378 1_545 S
C2190 C2191 1.367 . S
C2191 C2190 1.367 . S
C2191 C2193 1.433 . S
C2192 C2188 1.350 1_545 S
C2192 C2189 1.463 1_545 S
C2192 N2196 1.427 . S
C2193 H2183 0.929 . S
C2193 C2191 1.433 . S
C2193 N2196 1.384 . S
C2194 H2185 0.929 . S
C2194 C2186 1.378 1_545 S
C2194 C2189 1.350 1_546 S
C2195 H2182 0.929 . S
C2195 C2187 1.433 . S
C2195 N2197 1.384 . S
N2196 C2192 1.427 . S
N2196 C2193 1.384 . S
N2197 C2189 1.427 1_556 S
N2197 C2195 1.384 . S
H2198 C2204 0.930 . S
H2199 C2208 0.930 . S
H2200 C2213 0.929 . S
H2201 C2211 0.929 . S
H2202 C2206 0.929 . S
H2203 C2212 0.929 1_554 S
C2204 H2198 0.930 . S
C2204 C2205 1.367 . S
C2204 C2212 1.378 . S
C2205 C2204 1.367 . S
C2205 C2213 1.433 . S
C2206 H2202 0.929 . S
C2206 C2208 1.378 . S
C2206 C2210 1.350 . S
C2207 C2210 1.463 . S
C2207 C2212 1.350 1_554 S
C2207 N2215 1.427 1_554 S
C2208 H2199 0.930 . S
C2208 C2206 1.378 . S
C2208 C2209 1.367 . S
C2209 C2208 1.367 . S
C2209 C2211 1.433 . S
C2210 C2206 1.350 . S
C2210 C2207 1.463 . S
C2210 N2214 1.427 . S
C2211 H2201 0.929 . S
C2211 C2209 1.433 . S
C2211 N2214 1.384 . S
C2212 H2203 0.929 1_556 S
C2212 C2204 1.378 . S
C2212 C2207 1.350 1_556 S
C2213 H2200 0.929 . S
C2213 C2205 1.433 . S
C2213 N2215 1.384 . S
N2214 C2210 1.427 . S
N2214 C2211 1.384 . S
N2215 C2207 1.427 1_556 S
N2215 C2213 1.384 . S
H2216 C2222 0.930 . S
H2217 C2226 0.930 . S
H2218 C2231 0.929 . S
H2219 C2229 0.929 . S
H2220 C2224 0.929 . S
H2221 C2230 0.929 . S
C2222 H2216 0.930 . S
C2222 C2223 1.367 . S
C2222 C2230 1.378 . S
C2223 C2222 1.367 . S
C2223 C2231 1.433 . S
C2224 H2220 0.929 . S
C2224 C2226 1.378 . S
C2224 C2228 1.350 . S
C2225 C2228 1.463 . S
C2225 C2230 1.350 . S
C2225 N2233 1.427 . S
C2226 H2217 0.930 . S
C2226 C2224 1.378 . S
C2226 C2227 1.367 . S
C2227 C2226 1.367 . S
C2227 C2229 1.433 . S
C2228 C2224 1.350 . S
C2228 C2225 1.463 . S
C2228 N2232 1.427 . S
C2229 H2219 0.929 . S
C2229 C2227 1.433 . S
C2229 N2232 1.384 . S
C2230 H2221 0.929 . S
C2230 C2222 1.378 . S
C2230 C2225 1.350 . S
C2231 H2218 0.929 . S
C2231 C2223 1.433 . S
C2231 N2233 1.384 . S
N2232 C2228 1.427 . S
N2232 C2229 1.384 . S
N2233 C2225 1.427 . S
N2233 C2231 1.384 . S
H2234 C2240 0.930 . S
H2235 C2244 0.930 . S
H2236 C2249 0.929 . S
H2237 C2247 0.929 . S
H2238 C2242 0.937 . S
H2239 C2248 0.940 . S
C2240 H2234 0.930 . S
C2240 C2241 1.367 . S
C2240 C2248 1.378 . S
C2241 C2240 1.367 . S
C2241 C2249 1.433 . S
C2242 H2238 0.937 . S
C2242 C2244 1.378 . S
C2242 C2246 1.350 . S
C2243 C2246 1.463 1_545 S
C2243 C2248 1.350 . S
C2243 N2251 1.427 . S
C2244 H2235 0.930 . S
C2244 C2242 1.378 . S
C2244 C2245 1.367 . S
C2245 C2244 1.367 . S
C2245 C2247 1.433 . S
C2246 C2242 1.350 . S
C2246 C2243 1.463 1_565 S
C2246 N2250 1.427 . S
C2247 H2237 0.929 . S
C2247 C2245 1.433 . S
C2247 N2250 1.384 . S
C2248 H2239 0.940 . S
C2248 C2240 1.378 . S
C2248 C2243 1.350 . S
C2249 H2236 0.929 . S
C2249 C2241 1.433 . S
C2249 N2251 1.384 . S
N2250 C2246 1.427 . S
N2250 C2247 1.384 . S
N2251 C2243 1.427 . S
N2251 C2249 1.384 . S
H2252 C2258 0.937 . S
H2253 C2262 0.931 . S
H2254 C2267 0.929 . S
H2255 C2265 0.929 . S
H2256 C2260 0.929 . S
H2257 C2266 0.929 . S
C2258 H2252 0.937 . S
C2258 C2259 1.356 1_545 S
C2258 C2266 1.382 . S
C2259 C2258 1.356 1_565 S
C2259 C2267 1.433 . S
C2260 H2256 0.929 . S
C2260 C2262 1.378 . S
C2260 C2264 1.350 1_564 S
C2261 C2264 1.463 1_565 S
C2261 C2266 1.350 1_565 S
C2261 N2269 1.427 . S
C2262 H2253 0.931 . S
C2262 C2260 1.378 . S
C2262 C2263 1.365 1_565 S
C2263 C2262 1.365 1_545 S
C2263 C2265 1.433 . S
C2264 C2260 1.350 1_546 S
C2264 C2261 1.463 1_545 S
C2264 N2268 1.427 1_556 S
C2265 H2255 0.929 . S
C2265 C2263 1.433 . S
C2265 N2268 1.384 . S
C2266 H2257 0.929 . S
C2266 C2258 1.382 . S
C2266 C2261 1.350 1_545 S
C2267 H2254 0.929 . S
C2267 C2259 1.433 . S
C2267 N2269 1.384 . S
N2268 C2264 1.427 1_554 S
N2268 C2265 1.384 . S
N2269 C2261 1.427 . S
N2269 C2267 1.384 . S
H2270 C2276 0.930 . S
H2271 C2280 0.930 . S
H2272 C2285 0.929 . S
H2273 C2283 0.929 . S
H2274 C2278 0.929 . S
H2275 C2284 0.929 . S
C2276 H2270 0.930 . S
C2276 C2277 1.367 . S
C2276 C2284 1.378 . S
C2277 C2276 1.367 . S
C2277 C2285 1.433 . S
C2278 H2274 0.929 . S
C2278 C2280 1.378 . S
C2278 C2282 1.344 1_554 S
C2279 C2282 1.471 . S
C2279 C2284 1.350 . S
C2279 N2287 1.427 . S
C2280 H2271 0.930 . S
C2280 C2278 1.378 . S
C2280 C2281 1.367 . S
C2281 C2280 1.367 . S
C2281 C2283 1.433 . S
C2282 C2278 1.344 1_556 S
C2282 C2279 1.471 . S
C2282 N2286 1.425 1_556 S
C2283 H2273 0.929 . S
C2283 C2281 1.433 . S
C2283 N2286 1.384 . S
C2284 H2275 0.929 . S
C2284 C2276 1.378 . S
C2284 C2279 1.350 . S
C2285 H2272 0.929 . S
C2285 C2277 1.433 . S
C2285 N2287 1.384 . S
N2286 C2282 1.425 1_554 S
N2286 C2283 1.384 . S
N2287 C2279 1.427 . S
N2287 C2285 1.384 . S
H2288 C2294 0.930 . S
H2289 C2298 0.930 . S
H2290 C2303 0.929 . S
H2291 C2301 0.929 . S
H2292 C2296 0.929 . S
H2293 C2302 0.929 . S
C2294 H2288 0.930 . S
C2294 C2295 1.367 . S
C2294 C2302 1.378 . S
C2295 C2294 1.367 . S
C2295 C2303 1.433 . S
C2296 H2292 0.929 . S
C2296 C2298 1.378 . S
C2296 C2300 1.350 . S
C2297 C2300 1.463 . S
C2297 C2302 1.350 . S
C2297 N2305 1.427 . S
C2298 H2289 0.930 . S
C2298 C2296 1.378 . S
C2298 C2299 1.367 . S
C2299 C2298 1.367 . S
C2299 C2301 1.433 . S
C2300 C2296 1.350 . S
C2300 C2297 1.463 . S
C2300 N2304 1.427 . S
C2301 H2291 0.929 . S
C2301 C2299 1.433 . S
C2301 N2304 1.384 . S
C2302 H2293 0.929 . S
C2302 C2294 1.378 . S
C2302 C2297 1.350 . S
C2303 H2290 0.929 . S
C2303 C2295 1.433 . S
C2303 N2305 1.384 . S
N2304 C2300 1.427 . S
N2304 C2301 1.384 . S
N2305 C2297 1.427 . S
N2305 C2303 1.384 . S
H2306 C2312 0.930 . S
H2307 C2316 0.930 . S
H2308 C2321 0.929 . S
H2309 C2319 0.929 . S
H2310 C2314 0.929 . S
H2311 C2320 0.929 . S
C2312 H2306 0.930 . S
C2312 C2313 1.367 . S
C2312 C2320 1.378 . S
C2313 C2312 1.367 . S
C2313 C2321 1.433 . S
C2314 H2310 0.929 . S
C2314 C2316 1.378 . S
C2314 C2318 1.350 . S
C2315 C2318 1.463 . S
C2315 C2320 1.350 . S
C2315 N2323 1.427 . S
C2316 H2307 0.930 . S
C2316 C2314 1.378 . S
C2316 C2317 1.367 . S
C2317 C2316 1.367 . S
C2317 C2319 1.433 . S
C2318 C2314 1.350 . S
C2318 C2315 1.463 . S
C2318 N2322 1.427 . S
C2319 H2309 0.929 . S
C2319 C2317 1.433 . S
C2319 N2322 1.384 . S
C2320 H2311 0.929 . S
C2320 C2312 1.378 . S
C2320 C2315 1.350 . S
C2321 H2308 0.929 . S
C2321 C2313 1.433 . S
C2321 N2323 1.384 . S
N2322 C2318 1.427 . S
N2322 C2319 1.384 . S
N2323 C2315 1.427 . S
N2323 C2321 1.384 . S
H2324 C2330 0.930 . S
H2325 C2334 0.930 . S
H2326 C2339 0.929 . S
H2327 C2337 0.929 . S
H2328 C2332 0.929 . S
H2329 C2338 0.929 . S
C2330 H2324 0.930 . S
C2330 C2331 1.367 . S
C2330 C2338 1.378 . S
C2331 C2330 1.367 . S
C2331 C2339 1.433 . S
C2332 H2328 0.929 . S
C2332 C2334 1.378 . S
C2332 C2336 1.350 . S
C2333 C2336 1.463 . S
C2333 C2338 1.350 . S
C2333 N2341 1.427 . S
C2334 H2325 0.930 . S
C2334 C2332 1.378 . S
C2334 C2335 1.367 . S
C2335 C2334 1.367 . S
C2335 C2337 1.433 . S
C2336 C2332 1.350 . S
C2336 C2333 1.463 . S
C2336 N2340 1.427 . S
C2337 H2327 0.929 . S
C2337 C2335 1.433 . S
C2337 N2340 1.384 . S
C2338 H2329 0.929 . S
C2338 C2330 1.378 . S
C2338 C2333 1.350 . S
C2339 H2326 0.929 . S
C2339 C2331 1.433 . S
C2339 N2341 1.384 . S
N2340 C2336 1.427 . S
N2340 C2337 1.384 . S
N2341 C2333 1.427 . S
N2341 C2339 1.384 . S
H2342 C2348 0.930 . S
H2343 C2352 0.930 . S
H2344 C2357 0.929 . S
H2345 C2355 0.929 . S
H2346 C2350 0.929 . S
H2347 C2356 0.929 . S
C2348 H2342 0.930 . S
C2348 C2349 1.367 . S
C2348 C2356 1.378 . S
C2349 C2348 1.367 . S
C2349 C2357 1.433 . S
C2350 H2346 0.929 . S
C2350 C2352 1.378 . S
C2350 C2354 1.350 . S
C2351 C2354 1.463 . S
C2351 C2356 1.350 . S
C2351 N2359 1.427 . S
C2352 H2343 0.930 . S
C2352 C2350 1.378 . S
C2352 C2353 1.367 . S
C2353 C2352 1.367 . S
C2353 C2355 1.433 . S
C2354 C2350 1.350 . S
C2354 C2351 1.463 . S
C2354 N2358 1.427 . S
C2355 H2345 0.929 . S
C2355 C2353 1.433 . S
C2355 N2358 1.384 . S
C2356 H2347 0.929 . S
C2356 C2348 1.378 . S
C2356 C2351 1.350 . S
C2357 H2344 0.929 . S
C2357 C2349 1.433 . S
C2357 N2359 1.384 . S
N2358 C2354 1.427 . S
N2358 C2355 1.384 . S
N2359 C2351 1.427 . S
N2359 C2357 1.384 . S
H2360 C2366 0.930 . S
H2361 C2370 0.930 . S
H2362 C2375 0.929 . S
H2363 C2373 0.929 . S
H2364 C2368 0.929 . S
H2365 C2374 0.929 . S
C2366 H2360 0.930 . S
C2366 C2367 1.367 . S
C2366 C2374 1.378 . S
C2367 C2366 1.367 . S
C2367 C2375 1.433 . S
C2368 H2364 0.929 . S
C2368 C2370 1.378 . S
C2368 C2372 1.350 . S
C2369 C2372 1.463 . S
C2369 C2374 1.350 . S
C2369 N2377 1.427 . S
C2370 H2361 0.930 . S
C2370 C2368 1.378 . S
C2370 C2371 1.367 . S
C2371 C2370 1.367 . S
C2371 C2373 1.433 . S
C2372 C2368 1.350 . S
C2372 C2369 1.463 . S
C2372 N2376 1.427 . S
C2373 H2363 0.929 . S
C2373 C2371 1.433 . S
C2373 N2376 1.384 . S
C2374 H2365 0.929 . S
C2374 C2366 1.378 . S
C2374 C2369 1.350 . S
C2375 H2362 0.929 . S
C2375 C2367 1.433 . S
C2375 N2377 1.384 . S
N2376 C2372 1.427 . S
N2376 C2373 1.384 . S
N2377 C2369 1.427 . S
N2377 C2375 1.384 . S
H2378 C2384 0.930 . S
H2379 C2388 0.930 . S
H2380 C2393 0.929 . S
H2381 C2391 0.929 . S
H2382 C2386 0.929 . S
H2383 C2392 0.929 . S
C2384 H2378 0.930 . S
C2384 C2385 1.367 . S
C2384 C2392 1.378 . S
C2385 C2384 1.367 . S
C2385 C2393 1.433 . S
C2386 H2382 0.929 . S
C2386 C2388 1.378 . S
C2386 C2390 1.350 . S
C2387 C2390 1.463 . S
C2387 C2392 1.350 . S
C2387 N2395 1.427 . S
C2388 H2379 0.930 . S
C2388 C2386 1.378 . S
C2388 C2389 1.367 . S
C2389 C2388 1.367 . S
C2389 C2391 1.433 . S
C2390 C2386 1.350 . S
C2390 C2387 1.463 . S
C2390 N2394 1.427 . S
C2391 H2381 0.929 . S
C2391 C2389 1.433 . S
C2391 N2394 1.384 . S
C2392 H2383 0.929 . S
C2392 C2384 1.378 . S
C2392 C2387 1.350 . S
C2393 H2380 0.929 . S
C2393 C2385 1.433 . S
C2393 N2395 1.384 . S
N2394 C2390 1.427 . S
N2394 C2391 1.384 . S
N2395 C2387 1.427 . S
N2395 C2393 1.384 . S
H2396 C2402 0.930 . S
H2397 C2406 0.930 . S
H2398 C2411 0.929 . S
H2399 C2409 0.929 . S
H2400 C2404 0.929 . S
H2401 C2410 0.929 . S
C2402 H2396 0.930 . S
C2402 C2403 1.367 . S
C2402 C2410 1.378 . S
C2403 C2402 1.367 . S
C2403 C2411 1.433 . S
C2404 H2400 0.929 . S
C2404 C2406 1.378 . S
C2404 C2408 1.350 . S
C2405 C2408 1.463 . S
C2405 C2410 1.350 . S
C2405 N2413 1.427 . S
C2406 H2397 0.930 . S
C2406 C2404 1.378 . S
C2406 C2407 1.367 . S
C2407 C2406 1.367 . S
C2407 C2409 1.433 . S
C2408 C2404 1.350 . S
C2408 C2405 1.463 . S
C2408 N2412 1.427 . S
C2409 H2399 0.929 . S
C2409 C2407 1.433 . S
C2409 N2412 1.384 . S
C2410 H2401 0.929 . S
C2410 C2402 1.378 . S
C2410 C2405 1.350 . S
C2411 H2398 0.929 . S
C2411 C2403 1.433 . S
C2411 N2413 1.384 . S
N2412 C2408 1.427 . S
N2412 C2409 1.384 . S
N2413 C2405 1.427 . S
N2413 C2411 1.384 . S
H2414 C2420 0.930 . S
H2415 C2424 0.930 . S
H2416 C2429 0.929 . S
H2417 C2427 0.929 . S
H2418 C2422 0.929 . S
H2419 C2428 0.929 . S
C2420 H2414 0.930 . S
C2420 C2421 1.367 . S
C2420 C2428 1.378 . S
C2421 C2420 1.367 . S
C2421 C2429 1.433 . S
C2422 H2418 0.929 . S
C2422 C2424 1.378 . S
C2422 C2426 1.350 . S
C2423 C2426 1.463 . S
C2423 C2428 1.350 . S
C2423 N2431 1.427 . S
C2424 H2415 0.930 . S
C2424 C2422 1.378 . S
C2424 C2425 1.367 . S
C2425 C2424 1.367 . S
C2425 C2427 1.433 . S
C2426 C2422 1.350 . S
C2426 C2423 1.463 . S
C2426 N2430 1.427 . S
C2427 H2417 0.929 . S
C2427 C2425 1.433 . S
C2427 N2430 1.384 . S
C2428 H2419 0.929 . S
C2428 C2420 1.378 . S
C2428 C2423 1.350 . S
C2429 H2416 0.929 . S
C2429 C2421 1.433 . S
C2429 N2431 1.384 . S
N2430 C2426 1.427 . S
N2430 C2427 1.384 . S
N2431 C2423 1.427 . S
N2431 C2429 1.384 . S
H2432 C2438 0.930 . S
H2433 C2442 0.930 . S
H2434 C2447 0.929 . S
H2435 C2445 0.929 . S
H2436 C2440 0.929 . S
H2437 C2446 0.929 . S
C2438 H2432 0.930 . S
C2438 C2439 1.367 . S
C2438 C2446 1.378 . S
C2439 C2438 1.367 . S
C2439 C2447 1.433 . S
C2440 H2436 0.929 . S
C2440 C2442 1.378 . S
C2440 C2444 1.350 . S
C2441 C2444 1.463 . S
C2441 C2446 1.350 . S
C2441 N2449 1.427 . S
C2442 H2433 0.930 . S
C2442 C2440 1.378 . S
C2442 C2443 1.367 . S
C2443 C2442 1.367 . S
C2443 C2445 1.433 . S
C2444 C2440 1.350 . S
C2444 C2441 1.463 . S
C2444 N2448 1.427 . S
C2445 H2435 0.929 . S
C2445 C2443 1.433 . S
C2445 N2448 1.384 . S
C2446 H2437 0.929 . S
C2446 C2438 1.378 . S
C2446 C2441 1.350 . S
C2447 H2434 0.929 . S
C2447 C2439 1.433 . S
C2447 N2449 1.384 . S
N2448 C2444 1.427 . S
N2448 C2445 1.384 . S
N2449 C2441 1.427 . S
N2449 C2447 1.384 . S
H2450 C2456 0.930 . S
H2451 C2460 0.930 . S
H2452 C2465 0.929 . S
H2453 C2463 0.929 . S
H2454 C2458 0.929 . S
H2455 C2464 0.929 . S
C2456 H2450 0.930 . S
C2456 C2457 1.367 . S
C2456 C2464 1.378 . S
C2457 C2456 1.367 . S
C2457 C2465 1.433 . S
C2458 H2454 0.929 . S
C2458 C2460 1.378 . S
C2458 C2462 1.350 . S
C2459 C2462 1.463 . S
C2459 C2464 1.350 . S
C2459 N2467 1.427 . S
C2460 H2451 0.930 . S
C2460 C2458 1.378 . S
C2460 C2461 1.367 . S
C2461 C2460 1.367 . S
C2461 C2463 1.433 . S
C2462 C2458 1.350 . S
C2462 C2459 1.463 . S
C2462 N2466 1.427 . S
C2463 H2453 0.929 . S
C2463 C2461 1.433 . S
C2463 N2466 1.384 . S
C2464 H2455 0.929 . S
C2464 C2456 1.378 . S
C2464 C2459 1.350 . S
C2465 H2452 0.929 . S
C2465 C2457 1.433 . S
C2465 N2467 1.384 . S
N2466 C2462 1.427 . S
N2466 C2463 1.384 . S
N2467 C2459 1.427 . S
N2467 C2465 1.384 . S
H2468 C2474 0.930 1_554 S
H2469 C2478 0.930 . S
H2470 C2483 0.929 . S
H2471 C2481 0.929 . S
H2472 C2476 0.929 . S
H2473 C2482 0.929 . S
C2474 H2468 0.930 1_556 S
C2474 C2475 1.367 . S
C2474 C2482 1.378 . S
C2475 C2474 1.367 . S
C2475 C2483 1.433 . S
C2476 H2472 0.929 . S
C2476 C2478 1.378 . S
C2476 C2480 1.350 . S
C2477 C2480 1.463 . S
C2477 C2482 1.350 . S
C2477 N2485 1.427 . S
C2478 H2469 0.930 . S
C2478 C2476 1.378 . S
C2478 C2479 1.367 . S
C2479 C2478 1.367 . S
C2479 C2481 1.433 . S
C2480 C2476 1.350 . S
C2480 C2477 1.463 . S
C2480 N2484 1.427 . S
C2481 H2471 0.929 . S
C2481 C2479 1.433 . S
C2481 N2484 1.384 . S
C2482 H2473 0.929 . S
C2482 C2474 1.378 . S
C2482 C2477 1.350 . S
C2483 H2470 0.929 . S
C2483 C2475 1.433 . S
C2483 N2485 1.384 . S
N2484 C2480 1.427 . S
N2484 C2481 1.384 . S
N2485 C2477 1.427 . S
N2485 C2483 1.384 . S
H2486 C2492 0.930 . S
H2487 C2496 0.930 . S
H2488 C2501 0.929 . S
H2489 C2499 0.920 1_554 S
H2490 C2494 0.929 . S
H2491 C2500 0.929 . S
C2492 H2486 0.930 . S
C2492 C2493 1.367 . S
C2492 C2500 1.378 . S
C2493 C2492 1.367 . S
C2493 C2501 1.433 . S
C2494 H2490 0.929 . S
C2494 C2496 1.378 . S
C2494 C2498 1.350 . S
C2495 C2498 1.463 . S
C2495 C2500 1.350 . S
C2495 N2503 1.427 . S
C2496 H2487 0.930 . S
C2496 C2494 1.378 . S
C2496 C2497 1.367 . S
C2497 C2496 1.367 . S
C2497 C2499 1.433 . S
C2498 C2494 1.350 . S
C2498 C2495 1.463 . S
C2498 N2502 1.427 . S
C2499 H2489 0.920 1_556 S
C2499 C2497 1.433 . S
C2499 N2502 1.384 . S
C2500 H2491 0.929 . S
C2500 C2492 1.378 . S
C2500 C2495 1.350 . S
C2501 H2488 0.929 . S
C2501 C2493 1.433 . S
C2501 N2503 1.384 . S
N2502 C2498 1.427 . S
N2502 C2499 1.384 . S
N2503 C2495 1.427 . S
N2503 C2501 1.384 . S
H2504 C2510 0.930 . S
H2505 C2514 0.930 . S
H2506 C2519 0.929 . S
H2507 C2517 0.929 . S
H2508 C2512 0.929 . S
H2509 C2518 0.929 . S
C2510 H2504 0.930 . S
C2510 C2511 1.367 . S
C2510 C2518 1.378 . S
C2511 C2510 1.367 . S
C2511 C2519 1.433 . S
C2512 H2508 0.929 . S
C2512 C2514 1.378 . S
C2512 C2516 1.350 . S
C2513 C2516 1.463 . S
C2513 C2518 1.350 . S
C2513 N2521 1.427 . S
C2514 H2505 0.930 . S
C2514 C2512 1.378 . S
C2514 C2515 1.367 . S
C2515 C2514 1.367 . S
C2515 C2517 1.433 . S
C2516 C2512 1.350 . S
C2516 C2513 1.463 . S
C2516 N2520 1.427 . S
C2517 H2507 0.929 . S
C2517 C2515 1.433 . S
C2517 N2520 1.384 . S
C2518 H2509 0.929 . S
C2518 C2510 1.378 . S
C2518 C2513 1.350 . S
C2519 H2506 0.929 . S
C2519 C2511 1.433 . S
C2519 N2521 1.384 . S
N2520 C2516 1.427 . S
N2520 C2517 1.384 . S
N2521 C2513 1.427 . S
N2521 C2519 1.384 . S
H2522 C2528 0.930 . S
H2523 C2532 0.930 . S
H2524 C2537 0.929 . S
H2525 C2535 0.929 . S
H2526 C2530 0.929 . S
H2527 C2536 0.929 . S
C2528 H2522 0.930 . S
C2528 C2529 1.367 . S
C2528 C2536 1.378 . S
C2529 C2528 1.367 . S
C2529 C2537 1.433 . S
C2530 H2526 0.929 . S
C2530 C2532 1.378 . S
C2530 C2534 1.350 . S
C2531 C2534 1.463 . S
C2531 C2536 1.350 . S
C2531 N2539 1.427 . S
C2532 H2523 0.930 . S
C2532 C2530 1.378 . S
C2532 C2533 1.367 . S
C2533 C2532 1.367 . S
C2533 C2535 1.433 . S
C2534 C2530 1.350 . S
C2534 C2531 1.463 . S
C2534 N2538 1.427 . S
C2535 H2525 0.929 . S
C2535 C2533 1.433 . S
C2535 N2538 1.384 . S
C2536 H2527 0.929 . S
C2536 C2528 1.378 . S
C2536 C2531 1.350 . S
C2537 H2524 0.929 . S
C2537 C2529 1.433 . S
C2537 N2539 1.384 . S
N2538 C2534 1.427 . S
N2538 C2535 1.384 . S
N2539 C2531 1.427 . S
N2539 C2537 1.384 . S
H2540 C2546 0.930 1_556 S
H2541 C2550 0.930 . S
H2542 C2555 0.929 . S
H2543 C2553 0.929 . S
H2544 C2548 0.929 . S
H2545 C2554 0.929 . S
C2546 H2540 0.930 1_554 S
C2546 C2547 1.367 . S
C2546 C2554 1.378 . S
C2547 C2546 1.367 . S
C2547 C2555 1.433 . S
C2548 H2544 0.929 . S
C2548 C2550 1.378 . S
C2548 C2552 1.350 . S
C2549 C2552 1.463 . S
C2549 C2554 1.350 . S
C2549 N2557 1.427 . S
C2550 H2541 0.930 . S
C2550 C2548 1.378 . S
C2550 C2551 1.367 . S
C2551 C2550 1.367 . S
C2551 C2553 1.433 . S
C2552 C2548 1.350 . S
C2552 C2549 1.463 . S
C2552 N2556 1.427 . S
C2553 H2543 0.929 . S
C2553 C2551 1.433 . S
C2553 N2556 1.384 . S
C2554 H2545 0.929 . S
C2554 C2546 1.378 . S
C2554 C2549 1.350 . S
C2555 H2542 0.929 . S
C2555 C2547 1.433 . S
C2555 N2557 1.384 . S
N2556 C2552 1.427 . S
N2556 C2553 1.384 . S
N2557 C2549 1.427 . S
N2557 C2555 1.384 . S
H2558 C2564 0.930 . S
H2559 C2568 0.930 . S
H2560 C2573 0.929 1_556 S
H2561 C2571 0.929 . S
H2562 C2566 0.929 . S
H2563 C2572 0.929 . S
C2564 H2558 0.930 . S
C2564 C2565 1.367 . S
C2564 C2572 1.378 . S
C2565 C2564 1.367 . S
C2565 C2573 1.433 . S
C2566 H2562 0.929 . S
C2566 C2568 1.378 . S
C2566 C2570 1.350 . S
C2567 C2570 1.463 . S
C2567 C2572 1.350 . S
C2567 N2575 1.427 . S
C2568 H2559 0.930 . S
C2568 C2566 1.378 . S
C2568 C2569 1.367 . S
C2569 C2568 1.367 . S
C2569 C2571 1.433 . S
C2570 C2566 1.350 . S
C2570 C2567 1.463 . S
C2570 N2574 1.427 . S
C2571 H2561 0.929 . S
C2571 C2569 1.433 . S
C2571 N2574 1.384 . S
C2572 H2563 0.929 . S
C2572 C2564 1.378 . S
C2572 C2567 1.350 . S
C2573 H2560 0.929 1_554 S
C2573 C2565 1.433 . S
C2573 N2575 1.384 . S
N2574 C2570 1.427 . S
N2574 C2571 1.384 . S
N2575 C2567 1.427 . S
N2575 C2573 1.384 . S
H2576 C2582 0.930 . S
H2577 C2586 0.930 . S
H2578 C2591 0.929 1_554 S
H2579 C2589 0.929 . S
H2580 C2584 0.929 . S
H2581 C2590 0.929 . S
C2582 H2576 0.930 . S
C2582 C2583 1.367 . S
C2582 C2590 1.378 . S
C2583 C2582 1.367 . S
C2583 C2591 1.433 . S
C2584 H2580 0.929 . S
C2584 C2586 1.378 . S
C2584 C2588 1.350 . S
C2585 C2588 1.463 . S
C2585 C2590 1.350 . S
C2585 N2593 1.427 . S
C2586 H2577 0.930 . S
C2586 C2584 1.378 . S
C2586 C2587 1.367 . S
C2587 C2586 1.367 . S
C2587 C2589 1.433 . S
C2588 C2584 1.350 . S
C2588 C2585 1.463 . S
C2588 N2592 1.427 . S
C2589 H2579 0.929 . S
C2589 C2587 1.433 . S
C2589 N2592 1.384 . S
C2590 H2581 0.929 . S
C2590 C2582 1.378 . S
C2590 C2585 1.350 . S
C2591 H2578 0.929 1_556 S
C2591 C2583 1.433 . S
C2591 N2593 1.384 . S
N2592 C2588 1.427 . S
N2592 C2589 1.384 . S
N2593 C2585 1.427 . S
N2593 C2591 1.384 . S
H2594 C2600 0.930 . S
H2595 C2604 0.930 1_554 S
H2596 C2609 0.929 . S
H2597 C2607 0.929 . S
H2598 C2602 0.929 . S
H2599 C2608 0.929 . S
C2600 H2594 0.930 . S
C2600 C2601 1.367 . S
C2600 C2608 1.378 . S
C2601 C2600 1.367 . S
C2601 C2609 1.433 . S
C2602 H2598 0.929 . S
C2602 C2604 1.378 . S
C2602 C2606 1.350 . S
C2603 C2606 1.463 . S
C2603 C2608 1.350 . S
C2603 N2611 1.427 . S
C2604 H2595 0.930 1_556 S
C2604 C2602 1.378 . S
C2604 C2605 1.367 . S
C2605 C2604 1.367 . S
C2605 C2607 1.433 . S
C2606 C2602 1.350 . S
C2606 C2603 1.463 . S
C2606 N2610 1.427 . S
C2607 H2597 0.929 . S
C2607 C2605 1.433 . S
C2607 N2610 1.384 . S
C2608 H2599 0.929 . S
C2608 C2600 1.378 . S
C2608 C2603 1.350 . S
C2609 H2596 0.929 . S
C2609 C2601 1.433 . S
C2609 N2611 1.384 . S
N2610 C2606 1.427 . S
N2610 C2607 1.384 . S
N2611 C2603 1.427 . S
N2611 C2609 1.384 . S
H2612 C2618 0.930 . S
H2613 C2622 0.930 . S
H2614 C2627 0.929 . S
H2615 C2625 0.929 . S
H2616 C2620 0.929 . S
H2617 C2626 0.929 . S
C2618 H2612 0.930 . S
C2618 C2619 1.367 . S
C2618 C2626 1.378 . S
C2619 C2618 1.367 . S
C2619 C2627 1.433 . S
C2620 H2616 0.929 . S
C2620 C2622 1.378 . S
C2620 C2624 1.350 . S
C2621 C2624 1.463 . S
C2621 C2626 1.350 . S
C2621 N2629 1.427 . S
C2622 H2613 0.930 . S
C2622 C2620 1.378 . S
C2622 C2623 1.367 . S
C2623 C2622 1.367 . S
C2623 C2625 1.433 . S
C2624 C2620 1.350 . S
C2624 C2621 1.463 . S
C2624 N2628 1.427 . S
C2625 H2615 0.929 . S
C2625 C2623 1.433 . S
C2625 N2628 1.384 . S
C2626 H2617 0.929 . S
C2626 C2618 1.378 . S
C2626 C2621 1.350 . S
C2627 H2614 0.929 . S
C2627 C2619 1.433 . S
C2627 N2629 1.384 . S
N2628 C2624 1.427 . S
N2628 C2625 1.384 . S
N2629 C2621 1.427 . S
N2629 C2627 1.384 . S
H2630 C2636 0.930 . S
H2631 C2640 0.930 . S
H2632 C2645 0.929 . S
H2633 C2643 0.929 . S
H2634 C2638 0.929 . S
H2635 C2644 0.929 . S
C2636 H2630 0.930 . S
C2636 C2637 1.367 . S
C2636 C2644 1.378 . S
C2637 C2636 1.367 . S
C2637 C2645 1.433 . S
C2638 H2634 0.929 . S
C2638 C2640 1.378 . S
C2638 C2642 1.350 . S
C2639 C2642 1.463 . S
C2639 C2644 1.350 . S
C2639 N2647 1.427 . S
C2640 H2631 0.930 . S
C2640 C2638 1.378 . S
C2640 C2641 1.367 . S
C2641 C2640 1.367 . S
C2641 C2643 1.433 . S
C2642 C2638 1.350 . S
C2642 C2639 1.463 . S
C2642 N2646 1.427 . S
C2643 H2633 0.929 . S
C2643 C2641 1.433 . S
C2643 N2646 1.384 . S
C2644 H2635 0.929 . S
C2644 C2636 1.378 . S
C2644 C2639 1.350 . S
C2645 H2632 0.929 . S
C2645 C2637 1.433 . S
C2645 N2647 1.384 . S
N2646 C2642 1.427 . S
N2646 C2643 1.384 . S
N2647 C2639 1.427 . S
N2647 C2645 1.384 . S
H2648 C2654 0.930 . S
H2649 C2658 0.930 . S
H2650 C2663 0.929 1_556 S
H2651 C2661 0.929 . S
H2652 C2656 0.929 . S
H2653 C2662 0.929 . S
C2654 H2648 0.930 . S
C2654 C2655 1.367 . S
C2654 C2662 1.378 . S
C2655 C2654 1.367 . S
C2655 C2663 1.433 . S
C2656 H2652 0.929 . S
C2656 C2658 1.378 . S
C2656 C2660 1.350 . S
C2657 C2660 1.463 . S
C2657 C2662 1.350 . S
C2657 N2665 1.427 . S
C2658 H2649 0.930 . S
C2658 C2656 1.378 . S
C2658 C2659 1.367 . S
C2659 C2658 1.367 . S
C2659 C2661 1.433 . S
C2660 C2656 1.350 . S
C2660 C2657 1.463 . S
C2660 N2664 1.427 . S
C2661 H2651 0.929 . S
C2661 C2659 1.433 . S
C2661 N2664 1.384 . S
C2662 H2653 0.929 . S
C2662 C2654 1.378 . S
C2662 C2657 1.350 . S
C2663 H2650 0.929 1_554 S
C2663 C2655 1.433 . S
C2663 N2665 1.384 . S
N2664 C2660 1.427 . S
N2664 C2661 1.384 . S
N2665 C2657 1.427 . S
N2665 C2663 1.384 . S
H2666 C2672 0.930 . S
H2667 C2676 0.930 . S
H2668 C2681 0.929 . S
H2669 C2679 0.929 . S
H2670 C2674 0.929 . S
H2671 C2680 0.929 . S
C2672 H2666 0.930 . S
C2672 C2673 1.367 . S
C2672 C2680 1.378 . S
C2673 C2672 1.367 . S
C2673 C2681 1.433 . S
C2674 H2670 0.929 . S
C2674 C2676 1.378 . S
C2674 C2678 1.350 . S
C2675 C2678 1.463 . S
C2675 C2680 1.350 . S
C2675 N2683 1.427 . S
C2676 H2667 0.930 . S
C2676 C2674 1.378 . S
C2676 C2677 1.367 . S
C2677 C2676 1.367 . S
C2677 C2679 1.433 . S
C2678 C2674 1.350 . S
C2678 C2675 1.463 . S
C2678 N2682 1.427 . S
C2679 H2669 0.929 . S
C2679 C2677 1.433 . S
C2679 N2682 1.384 . S
C2680 H2671 0.929 . S
C2680 C2672 1.378 . S
C2680 C2675 1.350 . S
C2681 H2668 0.929 . S
C2681 C2673 1.433 . S
C2681 N2683 1.384 . S
N2682 C2678 1.427 . S
N2682 C2679 1.384 . S
N2683 C2675 1.427 . S
N2683 C2681 1.384 . S
H2684 C2690 0.930 . S
H2685 C2694 0.930 . S
H2686 C2699 0.929 . S
H2687 C2697 0.929 . S
H2688 C2692 0.929 . S
H2689 C2698 0.929 . S
C2690 H2684 0.930 . S
C2690 C2691 1.367 . S
C2690 C2698 1.378 . S
C2691 C2690 1.367 . S
C2691 C2699 1.433 . S
C2692 H2688 0.929 . S
C2692 C2694 1.378 . S
C2692 C2696 1.350 . S
C2693 C2696 1.463 . S
C2693 C2698 1.350 . S
C2693 N2701 1.427 . S
C2694 H2685 0.930 . S
C2694 C2692 1.378 . S
C2694 C2695 1.367 . S
C2695 C2694 1.367 . S
C2695 C2697 1.433 . S
C2696 C2692 1.350 . S
C2696 C2693 1.463 . S
C2696 N2700 1.427 . S
C2697 H2687 0.929 . S
C2697 C2695 1.433 . S
C2697 N2700 1.384 . S
C2698 H2689 0.929 . S
C2698 C2690 1.378 . S
C2698 C2693 1.350 . S
C2699 H2686 0.929 . S
C2699 C2691 1.433 . S
C2699 N2701 1.384 . S
N2700 C2696 1.427 . S
N2700 C2697 1.384 . S
N2701 C2693 1.427 . S
N2701 C2699 1.384 . S
H2702 C2708 0.930 . S
H2703 C2712 0.930 . S
H2704 C2717 0.929 . S
H2705 C2715 0.929 . S
H2706 C2710 0.929 . S
H2707 C2716 0.929 . S
C2708 H2702 0.930 . S
C2708 C2709 1.367 . S
C2708 C2716 1.378 . S
C2709 C2708 1.367 . S
C2709 C2717 1.433 . S
C2710 H2706 0.929 . S
C2710 C2712 1.378 . S
C2710 C2714 1.350 . S
C2711 C2714 1.463 . S
C2711 C2716 1.350 . S
C2711 N2719 1.427 . S
C2712 H2703 0.930 . S
C2712 C2710 1.378 . S
C2712 C2713 1.367 . S
C2713 C2712 1.367 . S
C2713 C2715 1.433 . S
C2714 C2710 1.350 . S
C2714 C2711 1.463 . S
C2714 N2718 1.427 . S
C2715 H2705 0.929 . S
C2715 C2713 1.433 . S
C2715 N2718 1.384 . S
C2716 H2707 0.929 . S
C2716 C2708 1.378 . S
C2716 C2711 1.350 . S
C2717 H2704 0.929 . S
C2717 C2709 1.433 . S
C2717 N2719 1.384 . S
N2718 C2714 1.427 . S
N2718 C2715 1.384 . S
N2719 C2711 1.427 . S
N2719 C2717 1.384 . S
H2720 C2726 0.930 . S
H2721 C2730 0.942 . S
H2722 C2735 0.929 . S
H2723 C2733 0.929 . S
H2724 C2728 0.929 . S
H2725 C2734 0.929 . S
C2726 H2720 0.930 . S
C2726 C2727 1.367 . S
C2726 C2734 1.378 . S
C2727 C2726 1.367 . S
C2727 C2735 1.433 . S
C2728 H2724 0.929 . S
C2728 C2730 1.378 . S
C2728 C2732 1.350 . S
C2729 C2732 1.463 . S
C2729 C2734 1.350 . S
C2729 N2737 1.427 . S
C2730 H2721 0.942 . S
C2730 C2728 1.378 . S
C2730 C2731 1.367 . S
C2731 C2730 1.367 . S
C2731 C2733 1.433 . S
C2732 C2728 1.350 . S
C2732 C2729 1.463 . S
C2732 N2736 1.427 . S
C2733 H2723 0.929 . S
C2733 C2731 1.433 . S
C2733 N2736 1.384 . S
C2734 H2725 0.929 . S
C2734 C2726 1.378 . S
C2734 C2729 1.350 . S
C2735 H2722 0.929 . S
C2735 C2727 1.433 . S
C2735 N2737 1.384 . S
N2736 C2732 1.427 . S
N2736 C2733 1.384 . S
N2737 C2729 1.427 . S
N2737 C2735 1.384 . S
H2738 C2744 0.930 . S
H2739 C2748 0.930 . S
H2740 C2753 0.929 . S
H2741 C2751 0.929 . S
H2742 C2746 0.929 . S
H2743 C2752 0.929 . S
C2744 H2738 0.930 . S
C2744 C2745 1.367 . S
C2744 C2752 1.378 . S
C2745 C2744 1.367 . S
C2745 C2753 1.433 . S
C2746 H2742 0.929 . S
C2746 C2748 1.378 . S
C2746 C2750 1.350 . S
C2747 C2750 1.463 . S
C2747 C2752 1.350 . S
C2747 N2755 1.427 . S
C2748 H2739 0.930 . S
C2748 C2746 1.378 . S
C2748 C2749 1.367 . S
C2749 C2748 1.367 . S
C2749 C2751 1.433 . S
C2750 C2746 1.350 . S
C2750 C2747 1.463 . S
C2750 N2754 1.427 . S
C2751 H2741 0.929 . S
C2751 C2749 1.433 . S
C2751 N2754 1.384 . S
C2752 H2743 0.929 . S
C2752 C2744 1.378 . S
C2752 C2747 1.350 . S
C2753 H2740 0.929 . S
C2753 C2745 1.433 . S
C2753 N2755 1.384 . S
N2754 C2750 1.427 . S
N2754 C2751 1.384 . S
N2755 C2747 1.427 . S
N2755 C2753 1.384 . S
H2756 C2762 0.930 . S
H2757 C2766 0.930 . S
H2758 C2771 0.929 . S
H2759 C2769 0.929 . S
H2760 C2764 0.929 . S
H2761 C2770 0.929 . S
C2762 H2756 0.930 . S
C2762 C2763 1.367 . S
C2762 C2770 1.378 . S
C2763 C2762 1.367 . S
C2763 C2771 1.433 . S
C2764 H2760 0.929 . S
C2764 C2766 1.378 . S
C2764 C2768 1.350 . S
C2765 C2768 1.463 . S
C2765 C2770 1.350 . S
C2765 N2773 1.427 . S
C2766 H2757 0.930 . S
C2766 C2764 1.378 . S
C2766 C2767 1.367 . S
C2767 C2766 1.367 . S
C2767 C2769 1.433 . S
C2768 C2764 1.350 . S
C2768 C2765 1.463 . S
C2768 N2772 1.427 . S
C2769 H2759 0.929 . S
C2769 C2767 1.433 . S
C2769 N2772 1.384 . S
C2770 H2761 0.929 . S
C2770 C2762 1.378 . S
C2770 C2765 1.350 . S
C2771 H2758 0.929 . S
C2771 C2763 1.433 . S
C2771 N2773 1.384 . S
N2772 C2768 1.427 . S
N2772 C2769 1.384 . S
N2773 C2765 1.427 . S
N2773 C2771 1.384 . S
H2774 C2780 0.930 . S
H2775 C2784 0.930 . S
H2776 C2789 0.929 . S
H2777 C2787 0.929 . S
H2778 C2782 0.929 . S
H2779 C2788 0.929 . S
C2780 H2774 0.930 . S
C2780 C2781 1.367 . S
C2780 C2788 1.378 . S
C2781 C2780 1.367 . S
C2781 C2789 1.433 . S
C2782 H2778 0.929 . S
C2782 C2784 1.378 . S
C2782 C2786 1.350 . S
C2783 C2786 1.463 . S
C2783 C2788 1.350 . S
C2783 N2791 1.427 . S
C2784 H2775 0.930 . S
C2784 C2782 1.378 . S
C2784 C2785 1.367 . S
C2785 C2784 1.367 . S
C2785 C2787 1.433 . S
C2786 C2782 1.350 . S
C2786 C2783 1.463 . S
C2786 N2790 1.427 . S
C2787 H2777 0.929 . S
C2787 C2785 1.433 . S
C2787 N2790 1.384 . S
C2788 H2779 0.929 . S
C2788 C2780 1.378 . S
C2788 C2783 1.350 . S
C2789 H2776 0.929 . S
C2789 C2781 1.433 . S
C2789 N2791 1.384 . S
N2790 C2786 1.427 . S
N2790 C2787 1.384 . S
N2791 C2783 1.427 . S
N2791 C2789 1.384 . S
H2792 C2798 0.930 . S
H2793 C2802 0.930 . S
H2794 C2807 0.929 . S
H2795 C2805 0.929 . S
H2796 C2800 0.929 . S
H2797 C2806 0.929 . S
C2798 H2792 0.930 . S
C2798 C2799 1.367 . S
C2798 C2806 1.378 . S
C2799 C2798 1.367 . S
C2799 C2807 1.433 . S
C2800 H2796 0.929 . S
C2800 C2802 1.378 . S
C2800 C2804 1.350 . S
C2801 C2804 1.463 . S
C2801 C2806 1.350 . S
C2801 N2809 1.427 . S
C2802 H2793 0.930 . S
C2802 C2800 1.378 . S
C2802 C2803 1.367 . S
C2803 C2802 1.367 . S
C2803 C2805 1.433 . S
C2804 C2800 1.350 . S
C2804 C2801 1.463 . S
C2804 N2808 1.427 . S
C2805 H2795 0.929 . S
C2805 C2803 1.433 . S
C2805 N2808 1.384 . S
C2806 H2797 0.929 . S
C2806 C2798 1.378 . S
C2806 C2801 1.350 . S
C2807 H2794 0.929 . S
C2807 C2799 1.433 . S
C2807 N2809 1.384 . S
N2808 C2804 1.427 . S
N2808 C2805 1.384 . S
N2809 C2801 1.427 . S
N2809 C2807 1.384 . S
H2810 C2816 0.930 . S
H2811 C2820 0.930 . S
H2812 C2825 0.929 . S
H2813 C2823 0.929 . S
H2814 C2818 0.929 . S
H2815 C2824 0.929 . S
C2816 H2810 0.930 . S
C2816 C2817 1.367 . S
C2816 C2824 1.378 . S
C2817 C2816 1.367 . S
C2817 C2825 1.433 . S
C2818 H2814 0.929 . S
C2818 C2820 1.378 . S
C2818 C2822 1.350 . S
C2819 C2822 1.463 . S
C2819 C2824 1.350 . S
C2819 N2827 1.427 . S
C2820 H2811 0.930 . S
C2820 C2818 1.378 . S
C2820 C2821 1.367 . S
C2821 C2820 1.367 . S
C2821 C2823 1.433 . S
C2822 C2818 1.350 . S
C2822 C2819 1.463 . S
C2822 N2826 1.427 . S
C2823 H2813 0.929 . S
C2823 C2821 1.433 . S
C2823 N2826 1.384 . S
C2824 H2815 0.929 . S
C2824 C2816 1.378 . S
C2824 C2819 1.350 . S
C2825 H2812 0.929 . S
C2825 C2817 1.433 . S
C2825 N2827 1.384 . S
N2826 C2822 1.427 . S
N2826 C2823 1.384 . S
N2827 C2819 1.427 . S
N2827 C2825 1.384 . S
H2828 C2834 0.930 . S
H2829 C2838 0.930 . S
H2830 C2843 0.929 . S
H2831 C2841 0.929 . S
H2832 C2836 0.929 . S
H2833 C2842 0.929 . S
C2834 H2828 0.930 . S
C2834 C2835 1.367 . S
C2834 C2842 1.378 . S
C2835 C2834 1.367 . S
C2835 C2843 1.433 . S
C2836 H2832 0.929 . S
C2836 C2838 1.378 . S
C2836 C2840 1.350 . S
C2837 C2840 1.463 . S
C2837 C2842 1.350 . S
C2837 N2845 1.427 . S
C2838 H2829 0.930 . S
C2838 C2836 1.378 . S
C2838 C2839 1.367 . S
C2839 C2838 1.367 . S
C2839 C2841 1.433 . S
C2840 C2836 1.350 . S
C2840 C2837 1.463 . S
C2840 N2844 1.427 . S
C2841 H2831 0.929 . S
C2841 C2839 1.433 . S
C2841 N2844 1.384 . S
C2842 H2833 0.929 . S
C2842 C2834 1.378 . S
C2842 C2837 1.350 . S
C2843 H2830 0.929 . S
C2843 C2835 1.433 . S
C2843 N2845 1.384 . S
N2844 C2840 1.427 . S
N2844 C2841 1.384 . S
N2845 C2837 1.427 . S
N2845 C2843 1.384 . S
H2846 C2852 0.930 . S
H2847 C2856 0.930 . S
H2848 C2861 0.929 . S
H2849 C2859 0.929 . S
H2850 C2854 0.929 . S
H2851 C2860 0.929 . S
C2852 H2846 0.930 . S
C2852 C2853 1.367 . S
C2852 C2860 1.378 . S
C2853 C2852 1.367 . S
C2853 C2861 1.433 . S
C2854 H2850 0.929 . S
C2854 C2856 1.378 . S
C2854 C2858 1.350 . S
C2855 C2858 1.463 . S
C2855 C2860 1.350 . S
C2855 N2863 1.427 . S
C2856 H2847 0.930 . S
C2856 C2854 1.378 . S
C2856 C2857 1.367 . S
C2857 C2856 1.367 . S
C2857 C2859 1.433 . S
C2858 C2854 1.350 . S
C2858 C2855 1.463 . S
C2858 N2862 1.427 . S
C2859 H2849 0.929 . S
C2859 C2857 1.433 . S
C2859 N2862 1.384 . S
C2860 H2851 0.929 . S
C2860 C2852 1.378 . S
C2860 C2855 1.350 . S
C2861 H2848 0.929 . S
C2861 C2853 1.433 . S
C2861 N2863 1.384 . S
N2862 C2858 1.427 . S
N2862 C2859 1.384 . S
N2863 C2855 1.427 . S
N2863 C2861 1.384 . S
H2864 C2870 0.930 . S
H2865 C2874 0.930 . S
H2866 C2879 0.929 . S
H2867 C2877 0.929 . S
H2868 C2872 0.929 . S
H2869 C2878 0.929 . S
C2870 H2864 0.930 . S
C2870 C2871 1.367 . S
C2870 C2878 1.378 . S
C2871 C2870 1.367 . S
C2871 C2879 1.433 . S
C2872 H2868 0.929 . S
C2872 C2874 1.378 . S
C2872 C2876 1.350 . S
C2873 C2876 1.463 . S
C2873 C2878 1.350 . S
C2873 N2881 1.427 . S
C2874 H2865 0.930 . S
C2874 C2872 1.378 . S
C2874 C2875 1.367 . S
C2875 C2874 1.367 . S
C2875 C2877 1.433 . S
C2876 C2872 1.350 . S
C2876 C2873 1.463 . S
C2876 N2880 1.427 . S
C2877 H2867 0.929 . S
C2877 C2875 1.433 . S
C2877 N2880 1.384 . S
C2878 H2869 0.929 . S
C2878 C2870 1.378 . S
C2878 C2873 1.350 . S
C2879 H2866 0.929 . S
C2879 C2871 1.433 . S
C2879 N2881 1.384 . S
N2880 C2876 1.427 . S
N2880 C2877 1.384 . S
N2881 C2873 1.427 . S
N2881 C2879 1.384 . S
H2882 C2888 0.930 . S
H2883 C2892 0.930 . S
H2884 C2897 0.929 . S
H2885 C2895 0.929 . S
H2886 C2890 0.929 . S
H2887 C2896 0.929 . S
C2888 H2882 0.930 . S
C2888 C2889 1.367 . S
C2888 C2896 1.378 . S
C2889 C2888 1.367 . S
C2889 C2897 1.433 . S
C2890 H2886 0.929 . S
C2890 C2892 1.378 . S
C2890 C2894 1.350 . S
C2891 C2894 1.463 . S
C2891 C2896 1.350 . S
C2891 N2899 1.427 . S
C2892 H2883 0.930 . S
C2892 C2890 1.378 . S
C2892 C2893 1.367 . S
C2893 C2892 1.367 . S
C2893 C2895 1.433 . S
C2894 C2890 1.350 . S
C2894 C2891 1.463 . S
C2894 N2898 1.427 . S
C2895 H2885 0.929 . S
C2895 C2893 1.433 . S
C2895 N2898 1.384 . S
C2896 H2887 0.929 . S
C2896 C2888 1.378 . S
C2896 C2891 1.350 . S
C2897 H2884 0.929 . S
C2897 C2889 1.433 . S
C2897 N2899 1.384 . S
N2898 C2894 1.427 . S
N2898 C2895 1.384 . S
N2899 C2891 1.427 . S
N2899 C2897 1.384 . S
H2900 C2906 0.930 . S
H2901 C2910 0.930 . S
H2902 C2915 0.929 . S
H2903 C2913 0.929 . S
H2904 C2908 0.929 . S
H2905 C2914 0.929 . S
C2906 H2900 0.930 . S
C2906 C2907 1.367 . S
C2906 C2914 1.378 . S
C2907 C2906 1.367 . S
C2907 C2915 1.433 . S
C2908 H2904 0.929 . S
C2908 C2910 1.378 . S
C2908 C2912 1.350 . S
C2909 C2912 1.463 . S
C2909 C2914 1.350 . S
C2909 N2917 1.427 . S
C2910 H2901 0.930 . S
C2910 C2908 1.378 . S
C2910 C2911 1.367 . S
C2911 C2910 1.367 . S
C2911 C2913 1.433 . S
C2912 C2908 1.350 . S
C2912 C2909 1.463 . S
C2912 N2916 1.427 . S
C2913 H2903 0.929 . S
C2913 C2911 1.433 . S
C2913 N2916 1.384 . S
C2914 H2905 0.929 . S
C2914 C2906 1.378 . S
C2914 C2909 1.350 . S
C2915 H2902 0.929 . S
C2915 C2907 1.433 . S
C2915 N2917 1.384 . S
N2916 C2912 1.427 . S
N2916 C2913 1.384 . S
N2917 C2909 1.427 . S
N2917 C2915 1.384 . S
H2918 C2924 0.930 . S
H2919 C2928 0.930 . S
H2920 C2933 0.929 . S
H2921 C2931 0.929 . S
H2922 C2926 0.929 . S
H2923 C2932 0.929 . S
C2924 H2918 0.930 . S
C2924 C2925 1.367 . S
C2924 C2932 1.378 . S
C2925 C2924 1.367 . S
C2925 C2933 1.433 . S
C2926 H2922 0.929 . S
C2926 C2928 1.378 . S
C2926 C2930 1.350 . S
C2927 C2930 1.463 . S
C2927 C2932 1.350 . S
C2927 N2935 1.427 . S
C2928 H2919 0.930 . S
C2928 C2926 1.378 . S
C2928 C2929 1.367 . S
C2929 C2928 1.367 . S
C2929 C2931 1.433 . S
C2930 C2926 1.350 . S
C2930 C2927 1.463 . S
C2930 N2934 1.427 . S
C2931 H2921 0.929 . S
C2931 C2929 1.433 . S
C2931 N2934 1.384 . S
C2932 H2923 0.929 . S
C2932 C2924 1.378 . S
C2932 C2927 1.350 . S
C2933 H2920 0.929 . S
C2933 C2925 1.433 . S
C2933 N2935 1.384 . S
N2934 C2930 1.427 . S
N2934 C2931 1.384 . S
N2935 C2927 1.427 . S
N2935 C2933 1.384 . S
H2936 C2942 0.930 . S
H2937 C2946 0.930 . S
H2938 C2951 0.929 . S
H2939 C2949 0.929 . S
H2940 C2944 0.929 . S
H2941 C2950 0.929 . S
C2942 H2936 0.930 . S
C2942 C2943 1.367 . S
C2942 C2950 1.378 . S
C2943 C2942 1.367 . S
C2943 C2951 1.433 . S
C2944 H2940 0.929 . S
C2944 C2946 1.378 . S
C2944 C2948 1.350 . S
C2945 C2948 1.463 . S
C2945 C2950 1.350 . S
C2945 N2953 1.427 . S
C2946 H2937 0.930 . S
C2946 C2944 1.378 . S
C2946 C2947 1.367 . S
C2947 C2946 1.367 . S
C2947 C2949 1.433 . S
C2948 C2944 1.350 . S
C2948 C2945 1.463 . S
C2948 N2952 1.427 . S
C2949 H2939 0.929 . S
C2949 C2947 1.433 . S
C2949 N2952 1.384 . S
C2950 H2941 0.929 . S
C2950 C2942 1.378 . S
C2950 C2945 1.350 . S
C2951 H2938 0.929 . S
C2951 C2943 1.433 . S
C2951 N2953 1.384 . S
N2952 C2948 1.427 . S
N2952 C2949 1.384 . S
N2953 C2945 1.427 . S
N2953 C2951 1.384 . S
H2954 C2960 0.930 . S
H2955 C2964 0.930 . S
H2956 C2969 0.929 . S
H2957 C2967 0.929 . S
H2958 C2962 0.929 . S
H2959 C2968 0.929 . S
C2960 H2954 0.930 . S
C2960 C2961 1.367 . S
C2960 C2968 1.378 . S
C2961 C2960 1.367 . S
C2961 C2969 1.433 . S
C2962 H2958 0.929 . S
C2962 C2964 1.378 . S
C2962 C2966 1.350 . S
C2963 C2966 1.463 . S
C2963 C2968 1.350 . S
C2963 N2971 1.427 . S
C2964 H2955 0.930 . S
C2964 C2962 1.378 . S
C2964 C2965 1.367 . S
C2965 C2964 1.367 . S
C2965 C2967 1.433 . S
C2966 C2962 1.350 . S
C2966 C2963 1.463 . S
C2966 N2970 1.427 . S
C2967 H2957 0.929 . S
C2967 C2965 1.433 . S
C2967 N2970 1.384 . S
C2968 H2959 0.929 . S
C2968 C2960 1.378 . S
C2968 C2963 1.350 . S
C2969 H2956 0.929 . S
C2969 C2961 1.433 . S
C2969 N2971 1.384 . S
N2970 C2966 1.427 . S
N2970 C2967 1.384 . S
N2971 C2963 1.427 . S
N2971 C2969 1.384 . S
H2972 C2978 0.930 . S
H2973 C2982 0.930 . S
H2974 C2987 0.929 . S
H2975 C2985 0.929 1_554 S
H2976 C2980 0.929 . S
H2977 C2986 0.929 . S
C2978 H2972 0.930 . S
C2978 C2979 1.367 . S
C2978 C2986 1.378 . S
C2979 C2978 1.367 . S
C2979 C2987 1.433 . S
C2980 H2976 0.929 . S
C2980 C2982 1.378 . S
C2980 C2984 1.350 . S
C2981 C2984 1.463 . S
C2981 C2986 1.350 . S
C2981 N2989 1.427 . S
C2982 H2973 0.930 . S
C2982 C2980 1.378 . S
C2982 C2983 1.367 . S
C2983 C2982 1.367 . S
C2983 C2985 1.433 . S
C2984 C2980 1.350 . S
C2984 C2981 1.463 . S
C2984 N2988 1.427 . S
C2985 H2975 0.929 1_556 S
C2985 C2983 1.433 . S
C2985 N2988 1.384 . S
C2986 H2977 0.929 . S
C2986 C2978 1.378 . S
C2986 C2981 1.350 . S
C2987 H2974 0.929 . S
C2987 C2979 1.433 . S
C2987 N2989 1.384 . S
N2988 C2984 1.427 . S
N2988 C2985 1.384 . S
N2989 C2981 1.427 . S
N2989 C2987 1.384 . S
H2990 C2996 0.908 1_554 S
H2991 C3000 0.930 . S
H2992 C3005 0.929 . S
H2993 C3003 0.929 . S
H2994 C2998 0.929 . S
H2995 C3004 0.929 . S
C2996 H2990 0.908 1_556 S
C2996 C2997 1.367 . S
C2996 C3004 1.378 . S
C2997 C2996 1.367 . S
C2997 C3005 1.433 . S
C2998 H2994 0.929 . S
C2998 C3000 1.378 . S
C2998 C3002 1.350 . S
C2999 C3002 1.463 . S
C2999 C3004 1.350 . S
C2999 N3007 1.427 . S
C3000 H2991 0.930 . S
C3000 C2998 1.378 . S
C3000 C3001 1.367 . S
C3001 C3000 1.367 . S
C3001 C3003 1.433 . S
C3002 C2998 1.350 . S
C3002 C2999 1.463 . S
C3002 N3006 1.427 . S
C3003 H2993 0.929 . S
C3003 C3001 1.433 . S
C3003 N3006 1.384 . S
C3004 H2995 0.929 . S
C3004 C2996 1.378 . S
C3004 C2999 1.350 . S
C3005 H2992 0.929 . S
C3005 C2997 1.433 . S
C3005 N3007 1.384 . S
N3006 C3002 1.427 . S
N3006 C3003 1.384 . S
N3007 C2999 1.427 . S
N3007 C3005 1.384 . S
C1287 C1139 1.701 . S
C1291 C10 1.701 . S
C1305 C219 1.691 . S
C1309 C50 1.692 . S
C1323 C899 1.693 . S
C1327 C90 1.694 . S
C1341 C619 1.705 . S
C1345 C130 1.705 . S
C1359 C179 1.702 . S
C1363 C970 1.702 . S
C1377 C730 1.691 . S
C1381 C259 1.692 . S
C1395 C450 1.699 . S
C1399 C299 1.699 . S
C1413 C819 1.703 . S
C1417 C330 1.703 . S
C1431 C370 1.699 . S
C1435 C539 1.699 . S
C1449 C410 1.697 . S
C1453 C1219 1.697 . S
C1467 C650 1.698 . S
C1471 C499 1.698 . S
C1485 C579 1.693 . S
C1489 C1050 1.693 . S
C1503 C690 1.695 . S
C1507 C859 1.696 . S
C1521 C770 1.699 . S
C1525 C1259 1.699 . S
C1539 C1090 1.699 . S
C1543 C939 1.699 . S
C1557 C1179 1.693 . S
C1561 C1010 1.693 . S
C1575 C779 1.571 . S
C1579 C19 1.572 . S
C1593 C739 1.571 . S
C1597 C59 1.572 . S
C1611 C699 1.568 . S
C1615 C99 1.571 . S
C1629 C659 1.571 . S
C1633 C139 1.572 . S
C1647 C930 1.576 . S
C1651 C170 1.573 . S
C1665 C210 1.565 . S
C1669 C890 1.564 . S
C1683 C250 1.568 . S
C1687 C850 1.565 . S
C1701 C290 1.576 . S
C1705 C810 1.573 . S
C1719 C339 1.599 . S
C1723 C1099 1.596 . S
C1737 C379 1.575 . S
C1741 C1059 1.573 . S
C1755 C419 1.573 . S
C1759 C1019 1.575 . S
C1773 C979 1.598 . S
C1777 C459 1.596 . S
C1791 C490 1.595 . S
C1795 C1250 1.593 . S
C1809 C530 1.572 . S
C1813 C1210 1.570 . S
C1827 C570 1.573 . S
C1831 C1170 1.570 . S
C1845 C1130 1.597 . S
C1849 C610 1.600 . S
C1863 C15 1.237 . S
C1867 C6 1.237 . S
C1881 C55 1.212 . S
C1885 C46 1.212 . S
C1899 C86 1.212 . S
C1903 C95 1.212 . S
C1917 C126 1.222 . S
C1921 C135 1.222 . S
C1935 C175 1.230 . S
C1939 C166 1.230 . S
C1953 C215 1.226 . S
C1957 C206 1.226 . S
C1971 C255 1.226 . S
C1975 C246 1.226 . S
C1989 C286 1.226 . S
C1993 C295 1.226 . S
C2007 C335 1.235 . S
C2011 C326 1.235 . S
C2025 C366 1.234 . S
C2029 C375 1.234 . S
C2043 C406 1.233 . S
C2047 C415 1.233 . S
C2061 C446 1.249 . S
C2065 C455 1.249 . S
C2079 C495 1.237 . S
C2083 C486 1.237 . S
C2097 C526 1.219 . S
C2101 C535 1.219 . S
C2115 C575 1.219 . S
C2119 C566 1.219 . S
C2133 C606 1.242 . S
C2137 C615 1.242 . S
C2151 C655 1.235 . S
C2155 C646 1.235 . S
C2169 C686 1.219 . S
C2173 C695 1.219 . S
C2187 C726 1.213 . S
C2191 C735 1.213 . S
C2205 C766 1.236 . S
C2209 C775 1.236 . S
C2223 C806 1.238 . S
C2227 C815 1.238 . S
C2241 C855 1.217 . S
C2245 C846 1.217 . S
C2259 C886 1.212 . S
C2263 C895 1.212 . S
C2277 C926 1.226 . S
C2281 C935 1.226 . S
C2295 C975 1.249 . S
C2299 C966 1.249 . S
C2313 C1006 1.220 . S
C2317 C1015 1.220 . S
C2331 C1046 1.232 . S
C2335 C1055 1.232 . S
C2349 C1095 1.242 . S
C2353 C1086 1.242 . S
C2367 C1135 1.238 . S
C2371 C1126 1.238 . S
C2385 C1166 1.224 . S
C2389 C1175 1.224 . S
C2403 C1206 1.234 . S
C2407 C1215 1.234 . S
C2421 C1246 1.249 . S
C2425 C1255 1.249 . S
C2439 C409 2.236 . S
C2443 C9 2.242 . S
C2457 C449 2.174 . S
C2461 C49 2.163 . S
C2475 C89 2.171 1_556 S
C2479 C329 2.166 . S
C2493 C369 2.236 . S
C2497 C129 2.243 1_556 S
C2511 C178 2.241 . S
C2515 C578 2.237 . S
C2529 C218 2.172 . S
C2533 C618 2.166 . S
C2547 C258 2.168 1_554 S
C2551 C498 2.169 . S
C2565 C298 2.240 1_554 S
C2569 C538 2.239 . S
C2583 C1049 2.237 1_556 S
C2587 C649 2.241 . S
C2601 C689 2.170 . S
C2605 C1089 2.167 1_556 S
C2619 C969 2.170 . S
C2623 C729 2.166 . S
C2637 C769 2.239 . S
C2641 C1009 2.239 . S
C2655 C1218 2.240 1_554 S
C2659 C818 2.238 . S
C2673 C858 2.166 . S
C2677 C1258 2.171 1_554 S
C2691 C898 2.169 . S
C2695 C1138 2.168 . S
C2709 C1178 2.237 . S
C2713 C938 2.242 . S
C2727 C18 1.035 . S
C2731 C98 1.041 . S
C2745 C138 1.036 . S
C2749 C58 1.050 . S
C2763 C249 1.032 . S
C2767 C169 1.043 . S
C2781 C209 1.032 . S
C2785 C289 1.052 . S
C2799 C338 0.961 . S
C2803 C418 0.954 . S
C2817 C458 0.949 . S
C2821 C378 0.955 . S
C2835 C569 0.953 . S
C2839 C489 0.961 . S
C2853 C609 0.964 . S
C2857 C529 0.946 . S
C2871 C738 1.046 . S
C2875 C658 1.038 . S
C2889 C778 1.046 . S
C2893 C698 1.041 . S
C2907 C889 1.042 . S
C2911 C809 1.036 . S
C2925 C929 1.039 . S
C2929 C849 1.048 . S
C2943 C978 0.964 . S
C2947 C1058 0.946 . S
C2961 C1018 0.962 . S
C2965 C1098 0.952 . S
C2979 C1129 0.959 . S
C2983 C1209 0.956 . S
C2997 C1249 0.954 . S
C3001 C1169 0.949 . S
