# Generated by pormake.
# Topology hbo, (4)-cn, num edge types: 1
# Building blocks:
#     Node 0, Type 0, BuildingBlock: QUQFOY_clean_sbu_1, # of connection points: 4
#     Node 1, Type 0, BuildingBlock: QUQFOY_clean_sbu_1, # of connection points: 4
#     Node 2, Type 0, BuildingBlock: QUQFOY_clean_sbu_1, # of connection points: 4
#     Node 3, Type 0, BuildingBlock: QUQFOY_clean_sbu_1, # of connection points: 4
#     Node 4, Type 0, BuildingBlock: QUQFOY_clean_sbu_1, # of connection points: 4
#     Node 5, Type 0, BuildingBlock: QUQFOY_clean_sbu_1, # of connection points: 4
#     Node 6, Type 0, BuildingBlock: QUQFOY_clean_sbu_1, # of connection points: 4
#     Node 7, Type 0, BuildingBlock: QUQFOY_clean_sbu_1, # of connection points: 4
#     Node 8, Type 0, BuildingBlock: QUQFOY_clean_sbu_1, # of connection points: 4
#     Node 9, Type 0, BuildingBlock: QUQFOY_clean_sbu_1, # of connection points: 4
#     Node 10, Type 0, BuildingBlock: QUQFOY_clean_sbu_1, # of connection points: 4
#     Node 11, Type 0, BuildingBlock: QUQFOY_clean_sbu_1, # of connection points: 4
#     Node 12, Type 0, BuildingBlock: QUQFOY_clean_sbu_1, # of connection points: 4
#     Node 13, Type 0, BuildingBlock: QUQFOY_clean_sbu_1, # of connection points: 4
#     Node 14, Type 0, BuildingBlock: QUQFOY_clean_sbu_1, # of connection points: 4
#     Node 15, Type 0, BuildingBlock: QUQFOY_clean_sbu_1, # of connection points: 4
#     Node 16, Type 0, BuildingBlock: QUQFOY_clean_sbu_1, # of connection points: 4
#     Node 17, Type 0, BuildingBlock: QUQFOY_clean_sbu_1, # of connection points: 4
#     Node 18, Type 0, BuildingBlock: QUQFOY_clean_sbu_1, # of connection points: 4
#     Node 19, Type 0, BuildingBlock: QUQFOY_clean_sbu_1, # of connection points: 4
#     Node 20, Type 0, BuildingBlock: QUQFOY_clean_sbu_1, # of connection points: 4
#     Node 21, Type 0, BuildingBlock: QUQFOY_clean_sbu_1, # of connection points: 4
#     Node 22, Type 0, BuildingBlock: QUQFOY_clean_sbu_1, # of connection points: 4
#     Node 23, Type 0, BuildingBlock: QUQFOY_clean_sbu_1, # of connection points: 4
#     Edge 24, Type (0, 0), BuildingBlock: MIFKUJ_clean_linker_0, # of connection points: 2
#     Edge 25, Type (0, 0), BuildingBlock: MIFKUJ_clean_linker_0, # of connection points: 2
#     Edge 26, Type (0, 0), BuildingBlock: MIFKUJ_clean_linker_0, # of connection points: 2
#     Edge 27, Type (0, 0), BuildingBlock: MIFKUJ_clean_linker_0, # of connection points: 2
#     Edge 28, Type (0, 0), BuildingBlock: MIFKUJ_clean_linker_0, # of connection points: 2
#     Edge 29, Type (0, 0), BuildingBlock: MIFKUJ_clean_linker_0, # of connection points: 2
#     Edge 30, Type (0, 0), BuildingBlock: MIFKUJ_clean_linker_0, # of connection points: 2
#     Edge 31, Type (0, 0), BuildingBlock: MIFKUJ_clean_linker_0, # of connection points: 2
#     Edge 32, Type (0, 0), BuildingBlock: MIFKUJ_clean_linker_0, # of connection points: 2
#     Edge 33, Type (0, 0), BuildingBlock: MIFKUJ_clean_linker_0, # of connection points: 2
#     Edge 34, Type (0, 0), BuildingBlock: MIFKUJ_clean_linker_0, # of connection points: 2
#     Edge 35, Type (0, 0), BuildingBlock: MIFKUJ_clean_linker_0, # of connection points: 2
#     Edge 36, Type (0, 0), BuildingBlock: MIFKUJ_clean_linker_0, # of connection points: 2
#     Edge 37, Type (0, 0), BuildingBlock: MIFKUJ_clean_linker_0, # of connection points: 2
#     Edge 38, Type (0, 0), BuildingBlock: MIFKUJ_clean_linker_0, # of connection points: 2
#     Edge 39, Type (0, 0), BuildingBlock: MIFKUJ_clean_linker_0, # of connection points: 2
#     Edge 40, Type (0, 0), BuildingBlock: MIFKUJ_clean_linker_0, # of connection points: 2
#     Edge 41, Type (0, 0), BuildingBlock: MIFKUJ_clean_linker_0, # of connection points: 2
#     Edge 42, Type (0, 0), BuildingBlock: MIFKUJ_clean_linker_0, # of connection points: 2
#     Edge 43, Type (0, 0), BuildingBlock: MIFKUJ_clean_linker_0, # of connection points: 2
#     Edge 44, Type (0, 0), BuildingBlock: MIFKUJ_clean_linker_0, # of connection points: 2
#     Edge 45, Type (0, 0), BuildingBlock: MIFKUJ_clean_linker_0, # of connection points: 2
#     Edge 46, Type (0, 0), BuildingBlock: MIFKUJ_clean_linker_0, # of connection points: 2
#     Edge 47, Type (0, 0), BuildingBlock: MIFKUJ_clean_linker_0, # of connection points: 2
#     Edge 48, Type (0, 0), BuildingBlock: MIFKUJ_clean_linker_0, # of connection points: 2
#     Edge 49, Type (0, 0), BuildingBlock: MIFKUJ_clean_linker_0, # of connection points: 2
#     Edge 50, Type (0, 0), BuildingBlock: MIFKUJ_clean_linker_0, # of connection points: 2
#     Edge 51, Type (0, 0), BuildingBlock: MIFKUJ_clean_linker_0, # of connection points: 2
#     Edge 52, Type (0, 0), BuildingBlock: MIFKUJ_clean_linker_0, # of connection points: 2
#     Edge 53, Type (0, 0), BuildingBlock: MIFKUJ_clean_linker_0, # of connection points: 2
#     Edge 54, Type (0, 0), BuildingBlock: MIFKUJ_clean_linker_0, # of connection points: 2
#     Edge 55, Type (0, 0), BuildingBlock: MIFKUJ_clean_linker_0, # of connection points: 2
#     Edge 56, Type (0, 0), BuildingBlock: MIFKUJ_clean_linker_0, # of connection points: 2
#     Edge 57, Type (0, 0), BuildingBlock: MIFKUJ_clean_linker_0, # of connection points: 2
#     Edge 58, Type (0, 0), BuildingBlock: MIFKUJ_clean_linker_0, # of connection points: 2
#     Edge 59, Type (0, 0), BuildingBlock: MIFKUJ_clean_linker_0, # of connection points: 2
#     Edge 60, Type (0, 0), BuildingBlock: MIFKUJ_clean_linker_0, # of connection points: 2
#     Edge 61, Type (0, 0), BuildingBlock: MIFKUJ_clean_linker_0, # of connection points: 2
#     Edge 62, Type (0, 0), BuildingBlock: MIFKUJ_clean_linker_0, # of connection points: 2
#     Edge 63, Type (0, 0), BuildingBlock: MIFKUJ_clean_linker_0, # of connection points: 2
#     Edge 64, Type (0, 0), BuildingBlock: MIFKUJ_clean_linker_0, # of connection points: 2
#     Edge 65, Type (0, 0), BuildingBlock: MIFKUJ_clean_linker_0, # of connection points: 2
#     Edge 66, Type (0, 0), BuildingBlock: MIFKUJ_clean_linker_0, # of connection points: 2
#     Edge 67, Type (0, 0), BuildingBlock: MIFKUJ_clean_linker_0, # of connection points: 2
#     Edge 68, Type (0, 0), BuildingBlock: MIFKUJ_clean_linker_0, # of connection points: 2
#     Edge 69, Type (0, 0), BuildingBlock: MIFKUJ_clean_linker_0, # of connection points: 2
#     Edge 70, Type (0, 0), BuildingBlock: MIFKUJ_clean_linker_0, # of connection points: 2
#     Edge 71, Type (0, 0), BuildingBlock: MIFKUJ_clean_linker_0, # of connection points: 2
# Relax obj value: 0.235
# Max RMSD: 0.214
# Mean RMSD: 0.214
data_MOF--net-hbo--node1-QUQFOY_clean_sbu_1--edge1-MIFKUJ_clean_linker_0
_symmetry_space_group_name_H-M    P1
_symmetry_Int_Tables_number       1
_symmetry_cell_setting            triclinic
loop_
_symmetry_equiv_pos_as_xyz
'x, y, z'
_cell_length_a     70.396929
_cell_length_b     70.368454
_cell_length_c     70.36415
_cell_angle_alpha  89.993418
_cell_angle_beta   89.998304
_cell_angle_gamma 89.982449
loop_
_atom_site_label
_atom_site_type_symbol
_atom_site_fract_x
_atom_site_fract_y
_atom_site_fract_z
_atom_type_partial_charge
O0 O 0.13245 0.32692 0.26212 0.0
Cd1 Cd 0.1286 0.34613 0.24027 0.0
Cd2 Cd 0.15081 0.36793 0.26162 0.0
O3 O 0.14859 0.34604 0.28094 0.0
O4 O 0.10564 0.33777 0.22608 0.0
O5 O 0.10735 0.36501 0.24171 0.0
C6 C 0.0976 0.35334 0.23145 0.0
C7 C 0.14384 0.39896 0.27055 0.0
C8 C 0.14088 0.33002 0.27779 0.0
C9 C 0.1662 0.35634 0.22361 0.0
O10 O 0.16961 0.36445 0.23938 0.0
O11 O 0.15014 0.34866 0.22064 0.0
O12 O 0.15942 0.39084 0.27577 0.0
O13 O 0.13193 0.3892 0.26057 0.0
O14 O 0.13423 0.6716 0.73961 0.0
Cd15 Cd 0.13034 0.65294 0.76186 0.0
Cd16 Cd 0.14999 0.62943 0.73969 0.0
O17 O 0.14805 0.65127 0.72022 0.0
O18 O 0.10779 0.66196 0.77632 0.0
O19 O 0.10866 0.63461 0.76077 0.0
C20 C 0.09925 0.64664 0.77095 0.0
C21 C 0.14227 0.59853 0.73075 0.0
C22 C 0.14154 0.66779 0.72354 0.0
C23 C 0.16789 0.64077 0.77689 0.0
O24 O 0.16982 0.63214 0.76114 0.0
O25 O 0.15259 0.64961 0.7806 0.0
O26 O 0.15779 0.60648 0.72513 0.0
O27 O 0.1308 0.60838 0.74114 0.0
O28 O 0.82893 0.63422 0.2417 0.0
Cd29 Cd 0.84903 0.63148 0.2629 0.0
Cd30 Cd 0.86863 0.65458 0.23985 0.0
O31 O 0.84585 0.65153 0.2218 0.0
O32 O 0.8411 0.60894 0.27817 0.0
O33 O 0.86765 0.60997 0.26142 0.0
C34 C 0.85629 0.60056 0.27229 0.0
C35 C 0.89899 0.64564 0.23066 0.0
C36 C 0.83059 0.64279 0.22587 0.0
C37 C 0.85871 0.67008 0.27818 0.0
O38 O 0.86578 0.6736 0.26193 0.0
O39 O 0.85195 0.65372 0.28182 0.0
O40 O 0.89168 0.66148 0.22492 0.0
O41 O 0.8888 0.63477 0.24136 0.0
O42 O 0.82579 0.3664 0.75562 0.0
Cd43 Cd 0.84555 0.36884 0.73416 0.0
Cd44 Cd 0.8675 0.34883 0.75794 0.0
O45 O 0.84479 0.35228 0.77615 0.0
O46 O 0.83984 0.39223 0.71925 0.0
O47 O 0.86586 0.3884 0.73656 0.0
C48 C 0.85565 0.39902 0.72563 0.0
C49 C 0.89826 0.35494 0.76853 0.0
C50 C 0.82869 0.35934 0.772 0.0
C51 C 0.85696 0.33062 0.72051 0.0
O52 O 0.86499 0.32884 0.7366 0.0
O53 O 0.84864 0.34604 0.71613 0.0
O54 O 0.8892 0.33994 0.77386 0.0
O55 O 0.88961 0.36678 0.75753 0.0
O56 O 0.23938 0.17052 0.3664 0.0
Cd57 Cd 0.2613 0.15125 0.36901 0.0
Cd58 Cd 0.23844 0.12966 0.34752 0.0
O59 O 0.22007 0.15242 0.34963 0.0
O60 O 0.27664 0.15914 0.39149 0.0
O61 O 0.26048 0.13221 0.39012 0.0
C62 C 0.27125 0.14361 0.3996 0.0
C63 C 0.22892 0.09926 0.35633 0.0
C64 C 0.22364 0.16809 0.35788 0.0
C65 C 0.27615 0.1404 0.3307 0.0
O66 O 0.2604 0.13191 0.32825 0.0
O67 O 0.27967 0.14875 0.34632 0.0
O68 O 0.22358 0.10661 0.3404 0.0
O69 O 0.23935 0.10944 0.36746 0.0
O70 O 0.36123 0.76228 0.82731 0.0
Cd71 Cd 0.36659 0.73987 0.84546 0.0
Cd72 Cd 0.34398 0.75944 0.86875 0.0
O73 O 0.34426 0.77939 0.84732 0.0
O74 O 0.39018 0.7273 0.83614 0.0
O75 O 0.38812 0.74178 0.86398 0.0
C76 C 0.39823 0.73261 0.85173 0.0
C77 C 0.35218 0.76809 0.89957 0.0
C78 C 0.35189 0.77728 0.83108 0.0
C79 C 0.33011 0.72108 0.85625 0.0
O80 O 0.32637 0.73626 0.86531 0.0
O81 O 0.34594 0.71923 0.84776 0.0
O82 O 0.33581 0.77242 0.89254 0.0
O83 O 0.36404 0.75906 0.88888 0.0
O84 O 0.7591 0.82721 0.36767 0.0
Cd85 Cd 0.73683 0.84612 0.36992 0.0
Cd86 Cd 0.75926 0.868 0.34823 0.0
O87 O 0.77803 0.84562 0.3508 0.0
O88 O 0.72205 0.83914 0.39307 0.0
O89 O 0.73772 0.86623 0.38991 0.0
C90 C 0.72731 0.85519 0.40021 0.0
C91 C 0.76858 0.89889 0.35551 0.0
C92 C 0.77481 0.82994 0.35918 0.0
C93 C 0.72163 0.85639 0.33166 0.0
O94 O 0.73726 0.86507 0.32911 0.0
O95 O 0.7183 0.84803 0.34733 0.0
O96 O 0.77404 0.89074 0.34002 0.0
O97 O 0.75821 0.88923 0.36714 0.0
O98 O 0.63368 0.24093 0.82354 0.0
Cd99 Cd 0.62935 0.26341 0.84176 0.0
Cd100 Cd 0.64999 0.24257 0.86563 0.0
O101 O 0.64869 0.22269 0.84409 0.0
O102 O 0.60611 0.27689 0.83299 0.0
O103 O 0.60819 0.26198 0.86064 0.0
C104 C 0.59815 0.27158 0.84863 0.0
C105 C 0.64282 0.23359 0.89668 0.0
C106 C 0.64178 0.22531 0.82761 0.0
C107 C 0.66642 0.28009 0.85318 0.0
O108 O 0.66891 0.26476 0.86243 0.0
O109 O 0.65101 0.2829 0.8442 0.0
O110 O 0.65852 0.22857 0.88869 0.0
O111 O 0.63091 0.24346 0.88682 0.0
O112 O 0.25254 0.86709 0.67238 0.0
Cd113 Cd 0.23156 0.86919 0.65207 0.0
Cd114 Cd 0.25597 0.84884 0.63129 0.0
O115 O 0.27355 0.8522 0.65453 0.0
O116 O 0.21548 0.89147 0.65897 0.0
O117 O 0.23316 0.89017 0.63297 0.0
C118 C 0.2217 0.8996 0.64375 0.0
C119 C 0.26629 0.85666 0.60085 0.0
C120 C 0.2689 0.85972 0.67029 0.0
C121 C 0.21868 0.83038 0.64081 0.0
O122 O 0.23497 0.82849 0.63325 0.0
O123 O 0.21402 0.84599 0.64864 0.0
O124 O 0.27225 0.84152 0.6093 0.0
O125 O 0.25481 0.86768 0.60998 0.0
O126 O 0.66845 0.7352 0.13908 0.0
Cd127 Cd 0.64953 0.75724 0.13485 0.0
Cd128 Cd 0.62745 0.73594 0.15718 0.0
O129 O 0.64937 0.71668 0.15564 0.0
O130 O 0.65887 0.77147 0.11222 0.0
O131 O 0.63151 0.75602 0.11285 0.0
C132 C 0.64362 0.76616 0.10356 0.0
C133 C 0.59702 0.7275 0.14774 0.0
C134 C 0.66536 0.71968 0.1478 0.0
C135 C 0.63857 0.77405 0.17238 0.0
O136 O 0.63042 0.75831 0.17586 0.0
O137 O 0.64647 0.77687 0.15638 0.0
O138 O 0.60371 0.72211 0.16395 0.0
O139 O 0.60784 0.73746 0.13677 0.0
O140 O 0.74101 0.13169 0.67101 0.0
Cd141 Cd 0.7627 0.12847 0.65156 0.0
Cd142 Cd 0.74106 0.1517 0.63081 0.0
O143 O 0.72239 0.14962 0.6533 0.0
O144 O 0.77716 0.10546 0.65947 0.0
O145 O 0.76125 0.10744 0.63241 0.0
C146 C 0.77166 0.09759 0.64386 0.0
C147 C 0.73157 0.14419 0.60009 0.0
C148 C 0.72561 0.14087 0.66878 0.0
C149 C 0.77944 0.16633 0.64198 0.0
O150 O 0.76373 0.16998 0.63387 0.0
O151 O 0.78225 0.15016 0.64953 0.0
O152 O 0.72678 0.1601 0.60786 0.0
O153 O 0.74143 0.13233 0.61003 0.0
O154 O 0.32642 0.26278 0.13335 0.0
Cd155 Cd 0.34583 0.24091 0.13094 0.0
Cd156 Cd 0.36606 0.26293 0.15455 0.0
O157 O 0.34371 0.28156 0.15151 0.0
O158 O 0.33879 0.22643 0.1076 0.0
O159 O 0.36577 0.24223 0.11072 0.0
C160 C 0.35472 0.2319 0.10037 0.0
C161 C 0.39689 0.2721 0.14724 0.0
C162 C 0.32849 0.27829 0.14237 0.0
C163 C 0.35459 0.22471 0.16937 0.0
O164 O 0.36248 0.24053 0.17308 0.0
O165 O 0.34751 0.22168 0.15302 0.0
O166 O 0.38885 0.27757 0.1628 0.0
O167 O 0.38718 0.26171 0.13567 0.0
O168 O 0.86297 0.67102 0.73485 0.0
Cd169 Cd 0.86655 0.65297 0.75768 0.0
Cd170 Cd 0.84678 0.62895 0.73591 0.0
O171 O 0.84846 0.6505 0.71617 0.0
O172 O 0.8889 0.66232 0.77235 0.0
O173 O 0.88826 0.63464 0.7574 0.0
C174 C 0.89749 0.64685 0.7675 0.0
C175 C 0.85615 0.59835 0.72764 0.0
C176 C 0.85534 0.66695 0.71899 0.0
C177 C 0.8288 0.6409 0.77278 0.0
O178 O 0.82695 0.63173 0.75733 0.0
O179 O 0.84403 0.65 0.77618 0.0
O180 O 0.84018 0.60527 0.72188 0.0
O181 O 0.86696 0.60902 0.73791 0.0
O182 O 0.86464 0.32831 0.25757 0.0
Cd183 Cd 0.86618 0.34882 0.23665 0.0
Cd184 Cd 0.84544 0.36837 0.26146 0.0
O185 O 0.85017 0.34565 0.27927 0.0
O186 O 0.88815 0.3415 0.22039 0.0
O187 O 0.88737 0.36777 0.23764 0.0
C188 C 0.89656 0.35667 0.2263 0.0
C189 C 0.85309 0.39914 0.27067 0.0
C190 C 0.85785 0.33011 0.27422 0.0
C191 C 0.82683 0.35841 0.22441 0.0
O192 O 0.8247 0.36512 0.24105 0.0
O193 O 0.84288 0.35199 0.21917 0.0
O194 O 0.83823 0.3907 0.27731 0.0
O195 O 0.86386 0.38986 0.25908 0.0
O196 O 0.17043 0.36386 0.76251 0.0
Cd197 Cd 0.15083 0.36621 0.74067 0.0
Cd198 Cd 0.13105 0.34316 0.76312 0.0
O199 O 0.15247 0.34762 0.78237 0.0
O200 O 0.1584 0.38912 0.72584 0.0
O201 O 0.13147 0.38709 0.74191 0.0
C202 C 0.14281 0.39696 0.73141 0.0
C203 C 0.0997 0.34973 0.77094 0.0
C204 C 0.16798 0.35603 0.77863 0.0
C205 C 0.14326 0.32729 0.72564 0.0
O206 O 0.13637 0.32369 0.74194 0.0
O207 O 0.14883 0.34398 0.72154 0.0
O208 O 0.10805 0.33465 0.77721 0.0
O209 O 0.10936 0.36123 0.7604 0.0
O210 O 0.16872 0.63251 0.23184 0.0
Cd211 Cd 0.15023 0.63086 0.25455 0.0
Cd212 Cd 0.12962 0.65396 0.23244 0.0
O213 O 0.15126 0.65056 0.21309 0.0
O214 O 0.1594 0.60878 0.26977 0.0
O215 O 0.13137 0.6095 0.25562 0.0
C216 C 0.14368 0.60034 0.26567 0.0
C217 C 0.0988 0.64487 0.22527 0.0
C218 C 0.1664 0.6412 0.21617 0.0
C219 C 0.14229 0.67001 0.26964 0.0
O220 O 0.13388 0.6733 0.25399 0.0
O221 O 0.14928 0.65368 0.27297 0.0
O222 O 0.10572 0.6606 0.21883 0.0
O223 O 0.10961 0.63419 0.23554 0.0
O224 O 0.75822 0.82526 0.63014 0.0
Cd225 Cd 0.73688 0.84531 0.62918 0.0
Cd226 Cd 0.76212 0.86614 0.64882 0.0
O227 O 0.77959 0.84301 0.64464 0.0
O228 O 0.72048 0.83921 0.60688 0.0
O229 O 0.73781 0.86536 0.6092 0.0
C230 C 0.72634 0.85492 0.59943 0.0
C231 C 0.77219 0.89662 0.64089 0.0
C232 C 0.7748 0.82736 0.63699 0.0
C233 C 0.72536 0.85635 0.66842 0.0
O234 O 0.74168 0.86398 0.66971 0.0
O235 O 0.72017 0.84845 0.65303 0.0
O236 O 0.77859 0.88813 0.65583 0.0
O237 O 0.76041 0.88754 0.63018 0.0
O238 O 0.63224 0.2406 0.17022 0.0
Cd239 Cd 0.62896 0.26126 0.14963 0.0
Cd240 Cd 0.64958 0.23727 0.12939 0.0
O241 O 0.64566 0.21903 0.15191 0.0
O242 O 0.60693 0.27705 0.15773 0.0
O243 O 0.60701 0.25953 0.1316 0.0
C244 C 0.59809 0.2709 0.1429 0.0
C245 C 0.64206 0.22854 0.09844 0.0
C246 C 0.63899 0.22399 0.16795 0.0
C247 C 0.66759 0.27457 0.13912 0.0
O248 O 0.67012 0.25787 0.13274 0.0
O249 O 0.65143 0.27953 0.14544 0.0
O250 O 0.65705 0.22203 0.10676 0.0
O251 O 0.63099 0.23962 0.108 0.0
O252 O 0.24598 0.17112 0.63395 0.0
Cd253 Cd 0.2638 0.14794 0.63106 0.0
Cd254 Cd 0.23517 0.13083 0.64779 0.0
O255 O 0.22004 0.15474 0.64024 0.0
O256 O 0.2817 0.15344 0.60977 0.0
O257 O 0.26003 0.13065 0.60888 0.0
C258 C 0.27344 0.13994 0.60049 0.0
C259 C 0.22457 0.10041 0.64035 0.0
C260 C 0.22812 0.17046 0.6366 0.0
C261 C 0.27095 0.13619 0.6704 0.0
O262 O 0.25311 0.13338 0.67093 0.0
O263 O 0.27906 0.14017 0.65478 0.0
O264 O 0.21684 0.11007 0.65389 0.0
O265 O 0.238 0.10832 0.63069 0.0
O266 O 0.363 0.76084 0.17142 0.0
Cd267 Cd 0.36669 0.7386 0.15266 0.0
Cd268 Cd 0.34456 0.76019 0.13027 0.0
O269 O 0.34649 0.77941 0.15231 0.0
O270 O 0.39001 0.72463 0.16065 0.0
O271 O 0.38736 0.73991 0.13328 0.0
C272 C 0.39753 0.72987 0.14476 0.0
C273 C 0.35287 0.76908 0.09954 0.0
C274 C 0.35442 0.77643 0.16827 0.0
C275 C 0.32922 0.722 0.14175 0.0
O276 O 0.32603 0.73766 0.13331 0.0
O277 O 0.34501 0.71915 0.15002 0.0
O278 O 0.33684 0.77417 0.10683 0.0
O279 O 0.36434 0.75924 0.10992 0.0
O280 O 0.73714 0.1366 0.32944 0.0
Cd281 Cd 0.75943 0.13221 0.34797 0.0
Cd282 Cd 0.73989 0.15682 0.36924 0.0
O283 O 0.72047 0.15619 0.34733 0.0
O284 O 0.77244 0.10881 0.33878 0.0
O285 O 0.75823 0.11076 0.36674 0.0
C286 C 0.76754 0.10077 0.3545 0.0
C287 C 0.73108 0.14859 0.39995 0.0
C288 C 0.72255 0.14696 0.33194 0.0
C289 C 0.77865 0.16916 0.35684 0.0
O290 O 0.76355 0.17371 0.36564 0.0
O291 O 0.78014 0.15289 0.34914 0.0
O292 O 0.72692 0.16506 0.393 0.0
O293 O 0.73998 0.13666 0.38922 0.0
O294 O 0.32385 0.2585 0.86737 0.0
Cd295 Cd 0.34308 0.23639 0.87002 0.0
Cd296 Cd 0.36438 0.25889 0.84846 0.0
O297 O 0.34346 0.2786 0.85351 0.0
O298 O 0.33659 0.22215 0.89363 0.0
O299 O 0.3633 0.23833 0.88981 0.0
C300 C 0.35254 0.22803 0.90051 0.0
C301 C 0.39608 0.26684 0.85348 0.0
C302 C 0.32732 0.27494 0.8607 0.0
C303 C 0.35137 0.22202 0.83133 0.0
O304 O 0.35857 0.23832 0.82841 0.0
O305 O 0.34536 0.21746 0.84774 0.0
O306 O 0.38692 0.27311 0.83889 0.0
O307 O 0.38708 0.25622 0.86541 0.0
O308 O 0.26244 0.86788 0.32823 0.0
Cd309 Cd 0.2398 0.86955 0.34677 0.0
Cd310 Cd 0.26205 0.84738 0.36825 0.0
O311 O 0.28126 0.85058 0.34636 0.0
O312 O 0.22503 0.89259 0.3394 0.0
O313 O 0.23967 0.88946 0.36706 0.0
C314 C 0.22963 0.89973 0.35565 0.0
C315 C 0.27042 0.85457 0.39941 0.0
C316 C 0.27816 0.85939 0.33089 0.0
C317 C 0.22497 0.83068 0.35524 0.0
O318 O 0.24046 0.82803 0.36415 0.0
O319 O 0.2215 0.84666 0.34754 0.0
O320 O 0.27637 0.83922 0.39132 0.0
O321 O 0.26003 0.86605 0.38959 0.0
O322 O 0.67315 0.73806 0.86616 0.0
Cd323 Cd 0.65524 0.76082 0.87053 0.0
Cd324 Cd 0.63219 0.7415 0.84778 0.0
O325 O 0.65306 0.72096 0.84932 0.0
O326 O 0.66407 0.77374 0.89405 0.0
O327 O 0.63605 0.75967 0.8915 0.0
C328 C 0.64816 0.76889 0.90175 0.0
C329 C 0.60068 0.73371 0.85404 0.0
C330 C 0.6692 0.72291 0.85717 0.0
C331 C 0.64621 0.77914 0.83342 0.0
O332 O 0.6369 0.76411 0.82969 0.0
O333 O 0.65419 0.78111 0.84949 0.0
O334 O 0.60881 0.72868 0.8384 0.0
O335 O 0.61066 0.74288 0.8664 0.0
H336 H 0.11345 0.57757 0.2567 0.0
H337 H 0.11058 0.54336 0.26225 0.0
H338 H 0.16389 0.54369 0.29248 0.0
H339 H 0.16698 0.57777 0.28684 0.0
H340 H 0.16363 0.5178 0.26461 0.0
H341 H 0.12231 0.53568 0.3157 0.0
H342 H 0.09519 0.55203 0.33068 0.0
H343 H 0.05658 0.52204 0.2942 0.0
H344 H 0.0835 0.50569 0.27881 0.0
H345 H 0.16594 0.4226 0.29181 0.0
H346 H 0.16273 0.45695 0.29532 0.0
H347 H 0.11114 0.45574 0.26228 0.0
H348 H 0.11413 0.42122 0.25882 0.0
H349 H 0.10968 0.48192 0.29243 0.0
H350 H 0.15058 0.46571 0.24023 0.0
H351 H 0.17741 0.44942 0.22465 0.0
H352 H 0.21649 0.47687 0.26261 0.0
H353 H 0.18984 0.49311 0.27861 0.0
C354 C 0.1244 0.57041 0.26482 0.0
C355 C 0.14053 0.58033 0.27119 0.0
C356 C 0.12269 0.55088 0.26805 0.0
C357 C 0.13702 0.541 0.2778 0.0
C358 C 0.1527 0.55105 0.28489 0.0
C359 C 0.15442 0.57053 0.28166 0.0
C360 C 0.13668 0.51998 0.27897 0.0
C361 C 0.15198 0.50999 0.27102 0.0
C362 C 0.12117 0.5098 0.28674 0.0
C363 C 0.10495 0.5196 0.29597 0.0
C364 C 0.10805 0.53269 0.31075 0.0
C365 C 0.09271 0.54194 0.31934 0.0
C366 C 0.07418 0.53811 0.31336 0.0
C367 C 0.07094 0.525 0.2988 0.0
C368 C 0.08624 0.51573 0.29015 0.0
C369 C 0.15374 0.42956 0.28553 0.0
C370 C 0.14043 0.41924 0.27481 0.0
C371 C 0.15193 0.44919 0.28756 0.0
C372 C 0.13686 0.45888 0.27881 0.0
C373 C 0.12289 0.4485 0.2691 0.0
C374 C 0.12467 0.42881 0.26708 0.0
C375 C 0.13675 0.4799 0.27833 0.0
C376 C 0.12136 0.48983 0.28621 0.0
C377 C 0.15213 0.49012 0.27041 0.0
C378 C 0.1682 0.48046 0.26074 0.0
C379 C 0.16488 0.46815 0.24536 0.0
C380 C 0.18005 0.45895 0.23643 0.0
C381 C 0.19864 0.46207 0.24267 0.0
C382 C 0.20208 0.47444 0.25781 0.0
C383 C 0.18695 0.48366 0.26681 0.0
H384 H 0.21037 0.45493 0.23574 0.0
H385 H 0.06232 0.54528 0.32003 0.0
H386 H 0.91997 0.66907 0.78994 0.0
H387 H 0.95418 0.66623 0.79486 0.0
H388 H 0.95506 0.61531 0.76074 0.0
H389 H 0.92071 0.61786 0.756 0.0
H390 H 0.97961 0.61283 0.79099 0.0
H391 H 0.96574 0.65683 0.74065 0.0
H392 H 0.95028 0.68464 0.72596 0.0
H393 H 0.9762 0.72129 0.76728 0.0
H394 H 0.99161 0.69364 0.78239 0.0
H395 H 0.07636 0.61745 0.75926 0.0
H396 H 0.04193 0.61488 0.76323 0.0
H397 H 0.0418 0.66649 0.79633 0.0
H398 H 0.07611 0.66929 0.79225 0.0
H399 H 0.01676 0.66811 0.76785 0.0
H400 H 0.03256 0.62355 0.81692 0.0
H401 H 0.0482 0.5954 0.83072 0.0
H402 H 0.01927 0.55938 0.79087 0.0
H403 H 0.00365 0.58736 0.77665 0.0
C404 C 0.92737 0.65711 0.7837 0.0
C405 C 0.91768 0.64382 0.77238 0.0
C406 C 0.94693 0.65552 0.78651 0.0
C407 C 0.95719 0.64075 0.77788 0.0
C408 C 0.94741 0.62685 0.76747 0.0
C409 C 0.9278 0.62837 0.76472 0.0
C410 C 0.97823 0.64072 0.77846 0.0
C411 C 0.98779 0.62482 0.78581 0.0
C412 C 0.98883 0.65649 0.77189 0.0
C413 C 0.97966 0.67315 0.76277 0.0
C414 C 0.96803 0.67081 0.74669 0.0
C415 C 0.95929 0.68654 0.73827 0.0
C416 C 0.96222 0.70471 0.74571 0.0
C417 C 0.97393 0.7072 0.76155 0.0
C418 C 0.98267 0.6915 0.77005 0.0
C419 C 0.06904 0.62808 0.76764 0.0
C420 C 0.07893 0.64365 0.77532 0.0
C421 C 0.04937 0.62655 0.76997 0.0
C422 C 0.03931 0.64048 0.78012 0.0
C423 C 0.04929 0.6556 0.78842 0.0
C424 C 0.06891 0.65716 0.78608 0.0
C425 C 0.01827 0.6403 0.7806 0.0
C426 C 0.00866 0.65615 0.77326 0.0
C427 C 0.00771 0.62444 0.78706 0.0
C428 C 0.01706 0.60759 0.7956 0.0
C429 C 0.02965 0.60965 0.81099 0.0
C430 C 0.03849 0.59372 0.81891 0.0
C431 C 0.03477 0.57562 0.81165 0.0
C432 C 0.02216 0.57341 0.79647 0.0
C433 C 0.01329 0.5893 0.78849 0.0
H434 H 0.04162 0.5633 0.8178 0.0
H435 H 0.95544 0.71688 0.73917 0.0
H436 H 0.88053 0.4222 0.25566 0.0
H437 H 0.88427 0.45638 0.26059 0.0
H438 H 0.83826 0.45568 0.3011 0.0
H439 H 0.8342 0.42161 0.29599 0.0
H440 H 0.83276 0.48202 0.27488 0.0
H441 H 0.88472 0.46358 0.31492 0.0
H442 H 0.91447 0.44693 0.323 0.0
H443 H 0.94367 0.47696 0.27863 0.0
H444 H 0.91403 0.49361 0.27011 0.0
H445 H 0.83738 0.57842 0.29787 0.0
H446 H 0.8403 0.54412 0.30221 0.0
H447 H 0.88552 0.54257 0.26086 0.0
H448 H 0.88302 0.57702 0.25678 0.0
H449 H 0.89197 0.5174 0.28936 0.0
H450 H 0.84035 0.53344 0.2475 0.0
H451 H 0.81082 0.54984 0.23818 0.0
H452 H 0.78126 0.52366 0.2847 0.0
H453 H 0.8107 0.5073 0.29446 0.0
C454 C 0.87141 0.42927 0.26584 0.0
C455 C 0.85697 0.41924 0.27533 0.0
C456 C 0.87363 0.4488 0.26872 0.0
C457 C 0.8616 0.45857 0.28128 0.0
C458 C 0.84768 0.44842 0.29133 0.0
C459 C 0.84539 0.42894 0.28839 0.0
C460 C 0.86228 0.47959 0.28261 0.0
C461 C 0.84563 0.48972 0.27844 0.0
C462 C 0.87923 0.48965 0.28662 0.0
C463 C 0.8971 0.47973 0.29178 0.0
C464 C 0.89745 0.46653 0.30679 0.0
C465 C 0.9143 0.45711 0.31146 0.0
C466 C 0.93094 0.46086 0.30131 0.0
C467 C 0.93077 0.47407 0.28648 0.0
C468 C 0.91395 0.48352 0.28174 0.0
C469 C 0.84816 0.57084 0.28992 0.0
C470 C 0.8598 0.58036 0.27679 0.0
C471 C 0.84979 0.55123 0.29239 0.0
C472 C 0.86286 0.54076 0.28156 0.0
C473 C 0.87529 0.55038 0.2693 0.0
C474 C 0.8738 0.57005 0.26695 0.0
C475 C 0.86242 0.5197 0.2818 0.0
C476 C 0.87908 0.50962 0.28608 0.0
C477 C 0.84552 0.50959 0.27774 0.0
C478 C 0.82777 0.51931 0.27182 0.0
C479 C 0.82758 0.53129 0.25582 0.0
C480 C 0.81086 0.54056 0.25045 0.0
C481 C 0.79419 0.53783 0.26087 0.0
C482 C 0.79419 0.52578 0.27666 0.0
C483 C 0.81089 0.5165 0.28211 0.0
H484 H 0.78125 0.54502 0.25669 0.0
H485 H 0.94397 0.45355 0.30495 0.0
H486 H 0.07631 0.32909 0.79394 0.0
H487 H 0.04207 0.33284 0.79802 0.0
H488 H 0.0428 0.38163 0.7609 0.0
H489 H 0.07718 0.37818 0.75699 0.0
H490 H 0.01809 0.38652 0.7907 0.0
H491 H 0.03139 0.33914 0.74327 0.0
H492 H 0.04621 0.31005 0.73054 0.0
H493 H 0.01874 0.27679 0.77369 0.0
H494 H 0.00395 0.30575 0.78684 0.0
H495 H 0.92236 0.38299 0.75657 0.0
H496 H 0.95663 0.38482 0.76183 0.0
H497 H 0.95394 0.33502 0.7975 0.0
H498 H 0.91975 0.33292 0.79209 0.0
H499 H 0.97974 0.33104 0.77021 0.0
H500 H 0.96421 0.37884 0.81607 0.0
H501 H 0.94917 0.4082 0.82787 0.0
H502 H 0.98021 0.441 0.78685 0.0
H503 H 0.99525 0.4118 0.77461 0.0
C504 C 0.06924 0.34076 0.78682 0.0
C505 C 0.0794 0.3532 0.77495 0.0
C506 C 0.04968 0.34288 0.78916 0.0
C507 C 0.03988 0.35733 0.77952 0.0
C508 C 0.05011 0.37037 0.76844 0.0
C509 C 0.06972 0.36832 0.76615 0.0
C510 C 0.01886 0.35792 0.77984 0.0
C511 C 0.00965 0.37448 0.78609 0.0
C512 C 0.00792 0.34207 0.77409 0.0
C513 C 0.01673 0.32463 0.76616 0.0
C514 C 0.02863 0.32564 0.75013 0.0
C515 C 0.03701 0.30918 0.74283 0.0
C516 C 0.03347 0.29159 0.75133 0.0
C517 C 0.0215 0.29043 0.76714 0.0
C518 C 0.01311 0.30686 0.77452 0.0
C519 C 0.92901 0.37263 0.76581 0.0
C520 C 0.91839 0.35771 0.77378 0.0
C521 C 0.94859 0.37375 0.76887 0.0
C522 C 0.95783 0.36008 0.7801 0.0
C523 C 0.94709 0.34569 0.78877 0.0
C524 C 0.92755 0.34452 0.78567 0.0
C525 C 0.97884 0.3596 0.78123 0.0
C526 C 0.98809 0.34305 0.77507 0.0
C527 C 0.98973 0.3755 0.78696 0.0
C528 C 0.98074 0.3931 0.79431 0.0
C529 C 0.96772 0.39229 0.80945 0.0
C530 C 0.95921 0.40891 0.81625 0.0
C531 C 0.96369 0.42645 0.80809 0.0
C532 C 0.97673 0.42741 0.79315 0.0
C533 C 0.98527 0.41083 0.78629 0.0
H534 H 0.95709 0.4393 0.81337 0.0
H535 H 0.03996 0.27886 0.74566 0.0
H536 H 0.16252 0.42023 0.70754 0.0
H537 H 0.15865 0.45446 0.70355 0.0
H538 H 0.11056 0.45367 0.74152 0.0
H539 H 0.11413 0.41925 0.74536 0.0
H540 H 0.10567 0.47928 0.712 0.0
H541 H 0.15282 0.46432 0.75897 0.0
H542 H 0.18149 0.44853 0.77147 0.0
H543 H 0.21542 0.47551 0.72853 0.0
H544 H 0.18688 0.49125 0.7156 0.0
H545 H 0.11334 0.57616 0.7441 0.0
H546 H 0.10989 0.54177 0.74013 0.0
H547 H 0.15919 0.54093 0.70371 0.0
H548 H 0.16289 0.57515 0.70779 0.0
H549 H 0.16238 0.516 0.73209 0.0
H550 H 0.1147 0.53246 0.68614 0.0
H551 H 0.08573 0.54836 0.6745 0.0
H552 H 0.05248 0.51918 0.71652 0.0
H553 H 0.08131 0.50329 0.72859 0.0
C554 C 0.15093 0.42726 0.71482 0.0
C555 C 0.13879 0.41709 0.72698 0.0
C556 C 0.14874 0.44683 0.71252 0.0
C557 C 0.13454 0.45662 0.72252 0.0
C558 C 0.12165 0.44636 0.73373 0.0
C559 C 0.12376 0.42672 0.73596 0.0
C560 C 0.13432 0.47767 0.7226 0.0
C561 C 0.11798 0.48736 0.71654 0.0
C562 C 0.15047 0.48815 0.72837 0.0
C563 C 0.16768 0.47881 0.7362 0.0
C564 C 0.16637 0.46677 0.75211 0.0
C565 C 0.1826 0.45785 0.75928 0.0
C566 C 0.20025 0.46098 0.75077 0.0
C567 C 0.20172 0.47308 0.73509 0.0
C568 C 0.18553 0.48202 0.72784 0.0
C569 C 0.12325 0.56869 0.73498 0.0
C570 C 0.13849 0.57833 0.7264 0.0
C571 C 0.1212 0.54905 0.73267 0.0
C572 C 0.13428 0.5388 0.72161 0.0
C573 C 0.14898 0.54857 0.71235 0.0
C574 C 0.15106 0.56813 0.7147 0.0
C575 C 0.13385 0.51775 0.72115 0.0
C576 C 0.15008 0.508 0.72736 0.0
C577 C 0.11756 0.50732 0.71564 0.0
C578 C 0.1002 0.51683 0.70839 0.0
C579 C 0.10124 0.52956 0.69301 0.0
C580 C 0.08484 0.53854 0.68631 0.0
C581 C 0.06728 0.53482 0.6948 0.0
C582 C 0.06609 0.52206 0.70997 0.0
C583 C 0.08245 0.51305 0.71674 0.0
H584 H 0.0546 0.54178 0.68959 0.0
H585 H 0.2128 0.45406 0.75635 0.0
H586 H 0.91895 0.6144 0.24227 0.0
H587 H 0.9528 0.60813 0.23759 0.0
H588 H 0.95776 0.6593 0.2042 0.0
H589 H 0.92393 0.6656 0.20864 0.0
H590 H 0.97956 0.63007 0.18974 0.0
H591 H 0.96794 0.66048 0.25044 0.0
H592 H 0.95305 0.66335 0.28203 0.0
H593 H 0.97691 0.60964 0.2985 0.0
H594 H 0.99174 0.60635 0.26688 0.0
H595 H 0.07288 0.66403 0.20369 0.0
H596 H 0.03895 0.6576 0.2009 0.0
H597 H 0.04527 0.60791 0.23627 0.0
H598 H 0.07929 0.61435 0.2393 0.0
H599 H 0.01772 0.63069 0.24903 0.0
H600 H 0.03389 0.6031 0.18962 0.0
H601 H 0.04908 0.60092 0.15814 0.0
H602 H 0.01729 0.64938 0.13906 0.0
H603 H 0.0021 0.65204 0.17053 0.0
C604 C 0.92718 0.62418 0.2337 0.0
C605 C 0.91883 0.64063 0.22602 0.0
C606 C 0.94651 0.62057 0.23105 0.0
C607 C 0.9578 0.63339 0.22076 0.0
C608 C 0.94928 0.64925 0.2122 0.0
C609 C 0.92997 0.65287 0.21484 0.0
C610 C 0.97871 0.63129 0.22029 0.0
C611 C 0.98796 0.63025 0.20266 0.0
C612 C 0.98958 0.63105 0.23721 0.0
C613 C 0.98074 0.63305 0.25623 0.0
C614 C 0.96988 0.64921 0.26075 0.0
C615 C 0.96147 0.65093 0.27867 0.0
C616 C 0.96398 0.63665 0.29225 0.0
C617 C 0.97495 0.62066 0.28795 0.0
C618 C 0.98336 0.61887 0.27004 0.0
C619 C 0.06712 0.65157 0.21065 0.0
C620 C 0.07874 0.63977 0.22182 0.0
C621 C 0.04773 0.64784 0.20893 0.0
C622 C 0.03961 0.63219 0.21826 0.0
C623 C 0.05128 0.62003 0.22891 0.0
C624 C 0.0707 0.62373 0.23062 0.0
C625 C 0.0187 0.62977 0.21843 0.0
C626 C 0.0094 0.63006 0.23605 0.0
C627 C 0.00786 0.62937 0.20149 0.0
C628 C 0.01695 0.62785 0.18251 0.0
C629 C 0.03025 0.6134 0.17877 0.0
C630 C 0.03884 0.61205 0.16091 0.0
C631 C 0.03418 0.62503 0.14662 0.0
C632 C 0.02089 0.63935 0.15015 0.0
C633 C 0.01226 0.64076 0.16799 0.0
H634 H 0.04084 0.62396 0.1328 0.0
H635 H 0.95746 0.63801 0.30611 0.0
H636 H 0.83614 0.57266 0.70665 0.0
H637 H 0.84284 0.53887 0.70271 0.0
H638 H 0.89463 0.54518 0.73486 0.0
H639 H 0.8879 0.57904 0.73912 0.0
H640 H 0.87148 0.51743 0.6878 0.0
H641 H 0.89854 0.50611 0.76383 0.0
H642 H 0.89665 0.5212 0.79546 0.0
H643 H 0.84211 0.54463 0.78136 0.0
H644 H 0.84358 0.52949 0.74977 0.0
H645 H 0.88715 0.4179 0.73829 0.0
H646 H 0.89442 0.45168 0.73441 0.0
H647 H 0.84394 0.45869 0.70034 0.0
H648 H 0.83674 0.42499 0.7039 0.0
H649 H 0.87312 0.47985 0.74744 0.0
H650 H 0.84862 0.49507 0.66976 0.0
H651 H 0.84969 0.47954 0.63837 0.0
H652 H 0.8984 0.44714 0.65568 0.0
H653 H 0.89781 0.46266 0.68707 0.0
C654 C 0.84908 0.56693 0.71271 0.0
C655 C 0.86137 0.57846 0.72341 0.0
C656 C 0.85294 0.54763 0.71034 0.0
C657 C 0.86911 0.53949 0.71868 0.0
C658 C 0.88195 0.55116 0.72851 0.0
C659 C 0.87809 0.57049 0.73092 0.0
C660 C 0.87151 0.51859 0.71837 0.0
C661 C 0.87182 0.50916 0.7008 0.0
C662 C 0.87247 0.50788 0.73536 0.0
C663 C 0.87131 0.51689 0.75438 0.0
C664 C 0.88614 0.51446 0.76752 0.0
C665 C 0.88514 0.52302 0.78542 0.0
C666 C 0.86931 0.53393 0.79038 0.0
C667 C 0.8544 0.53624 0.77747 0.0
C668 C 0.85532 0.52769 0.75956 0.0
C669 C 0.87778 0.42657 0.72968 0.0
C670 C 0.8613 0.41881 0.72149 0.0
C671 C 0.88196 0.44586 0.7275 0.0
C672 C 0.8698 0.45768 0.71699 0.0
C673 C 0.85372 0.44979 0.70823 0.0
C674 C 0.84954 0.43053 0.71039 0.0
C675 C 0.87267 0.47854 0.71683 0.0
C676 C 0.87327 0.48803 0.73436 0.0
C677 C 0.87249 0.48924 0.69979 0.0
C678 C 0.87307 0.47996 0.68085 0.0
C679 C 0.85963 0.48471 0.66685 0.0
C680 C 0.86013 0.47589 0.64905 0.0
C681 C 0.87407 0.46233 0.64505 0.0
C682 C 0.88757 0.4576 0.65882 0.0
C683 C 0.88713 0.46638 0.67663 0.0
H684 H 0.87444 0.45552 0.63126 0.0
H685 H 0.86857 0.54056 0.80424 0.0
H686 H 0.9192 0.38576 0.23873 0.0
H687 H 0.95361 0.38859 0.23483 0.0
H688 H 0.95381 0.33856 0.1994 0.0
H689 H 0.9195 0.33552 0.20334 0.0
H690 H 0.9779 0.33548 0.22902 0.0
H691 H 0.96421 0.38164 0.18081 0.0
H692 H 0.94947 0.41046 0.16741 0.0
H693 H 0.97805 0.4448 0.20896 0.0
H694 H 0.99277 0.41613 0.22278 0.0
H695 H 0.07462 0.33271 0.20812 0.0
H696 H 0.04059 0.33682 0.20302 0.0
H697 H 0.04091 0.38634 0.23915 0.0
H698 H 0.07515 0.38251 0.24412 0.0
H699 H 0.0167 0.39058 0.20833 0.0
H700 H 0.02855 0.34512 0.25773 0.0
H701 H 0.04307 0.31667 0.27215 0.0
H702 H 0.01721 0.28148 0.22955 0.0
H703 H 0.00275 0.30978 0.2147 0.0
C704 C 0.92651 0.37558 0.22979 0.0
C705 C 0.91667 0.36029 0.2215 0.0
C706 C 0.94617 0.37727 0.22751 0.0
C707 C 0.95625 0.36376 0.21684 0.0
C708 C 0.94629 0.3491 0.20774 0.0
C709 C 0.92668 0.3474 0.20999 0.0
C710 C 0.97728 0.3636 0.21692 0.0
C711 C 0.98637 0.3474 0.22414 0.0
C712 C 0.98828 0.37944 0.21123 0.0
C713 C 0.97945 0.39671 0.20295 0.0
C714 C 0.96722 0.39531 0.1872 0.0
C715 C 0.9589 0.41163 0.1795 0.0
C716 C 0.96278 0.42944 0.18736 0.0
C717 C 0.97504 0.43098 0.2029 0.0
C718 C 0.9834 0.41471 0.21066 0.0
C719 C 0.06753 0.34463 0.21481 0.0
C720 C 0.07751 0.35714 0.22674 0.0
C721 C 0.04808 0.34695 0.21186 0.0
C722 C 0.0382 0.3617 0.22096 0.0
C723 C 0.04828 0.37485 0.23204 0.0
C724 C 0.06781 0.37258 0.23493 0.0
C725 C 0.0172 0.36235 0.22013 0.0
C726 C 0.00816 0.37864 0.213 0.0
C727 C 0.00613 0.34665 0.22604 0.0
C728 C 0.01474 0.32959 0.23499 0.0
C729 C 0.02608 0.33133 0.25135 0.0
C730 C 0.03428 0.31523 0.25961 0.0
C731 C 0.03111 0.29729 0.25174 0.0
C732 C 0.01968 0.2954 0.23561 0.0
C733 C 0.01147 0.31146 0.22727 0.0
H734 H 0.03746 0.28484 0.25817 0.0
H735 H 0.95632 0.44206 0.18138 0.0
H736 H 0.3013 0.15659 0.57921 0.0
H737 H 0.30621 0.15362 0.54496 0.0
H738 H 0.26105 0.11231 0.54194 0.0
H739 H 0.25625 0.11494 0.57625 0.0
H740 H 0.29022 0.10367 0.51741 0.0
H741 H 0.25159 0.15813 0.53348 0.0
H742 H 0.24447 0.18817 0.55008 0.0
H743 H 0.2934 0.2142 0.52457 0.0
H744 H 0.30095 0.18421 0.50802 0.0
H745 H 0.2564 0.11637 0.42294 0.0
H746 H 0.26203 0.11248 0.45696 0.0
H747 H 0.30346 0.15767 0.45535 0.0
H748 H 0.29744 0.16202 0.42144 0.0
H749 H 0.27925 0.16387 0.48237 0.0
H750 H 0.31588 0.10994 0.46327 0.0
H751 H 0.32235 0.07986 0.44649 0.0
H752 H 0.27709 0.0527 0.47706 0.0
H753 H 0.27017 0.08268 0.49384 0.0
C754 C 0.29263 0.14663 0.57133 0.0
C755 C 0.27821 0.1362 0.58039 0.0
C756 C 0.29544 0.14496 0.55176 0.0
C757 C 0.28377 0.13299 0.54089 0.0
C758 C 0.27018 0.12166 0.55007 0.0
C759 C 0.26741 0.12326 0.56967 0.0
C760 C 0.28446 0.13362 0.51986 0.0
C761 C 0.28775 0.11678 0.50969 0.0
C762 C 0.28154 0.15081 0.50985 0.0
C763 C 0.27695 0.16888 0.51969 0.0
C764 C 0.2609 0.17022 0.53152 0.0
C765 C 0.25678 0.18724 0.54091 0.0
C766 C 0.26851 0.20307 0.53843 0.0
C767 C 0.28435 0.20192 0.52651 0.0
C768 C 0.28855 0.18492 0.51712 0.0
C769 C 0.26693 0.12527 0.42977 0.0
C770 C 0.27638 0.1396 0.41956 0.0
C771 C 0.27023 0.12296 0.44922 0.0
C772 C 0.28328 0.13469 0.45872 0.0
C773 C 0.2933 0.14847 0.44834 0.0
C774 C 0.28986 0.15093 0.42895 0.0
C775 C 0.28509 0.13391 0.47973 0.0
C776 C 0.28209 0.15076 0.48997 0.0
C777 C 0.28823 0.11671 0.48971 0.0
C778 C 0.29242 0.09862 0.47971 0.0
C779 C 0.30722 0.09759 0.46632 0.0
C780 C 0.31098 0.08055 0.45682 0.0
C781 C 0.30011 0.06439 0.46068 0.0
C782 C 0.28549 0.06523 0.47408 0.0
C783 C 0.28166 0.08224 0.4836 0.0
H784 H 0.30304 0.05121 0.45331 0.0
H785 H 0.26529 0.21624 0.5457 0.0
H786 H 0.38533 0.76092 0.91862 0.0
H787 H 0.39156 0.76556 0.95254 0.0
H788 H 0.33554 0.78943 0.95962 0.0
H789 H 0.32935 0.7852 0.92578 0.0
H790 H 0.36128 0.80825 0.98094 0.0
H791 H 0.34436 0.74231 0.96851 0.0
H792 H 0.34851 0.71112 0.95304 0.0
H793 H 0.40483 0.70683 0.97608 0.0
H794 H 0.40108 0.73811 0.99151 0.0
H795 H 0.33054 0.78723 0.07357 0.0
H796 H 0.33667 0.79141 0.03974 0.0
H797 H 0.39173 0.76524 0.04629 0.0
H798 H 0.38552 0.76063 0.0802 0.0
H799 H 0.3731 0.74947 0.01806 0.0
H800 H 0.38742 0.81301 0.03555 0.0
H801 H 0.38283 0.84396 0.05131 0.0
H802 H 0.33171 0.85307 0.01929 0.0
H803 H 0.33584 0.82205 0.00352 0.0
C804 C 0.37444 0.76738 0.92737 0.0
C805 C 0.35677 0.77251 0.91957 0.0
C806 C 0.37801 0.76999 0.94673 0.0
C807 C 0.36391 0.77759 0.95863 0.0
C808 C 0.34662 0.78354 0.95069 0.0
C809 C 0.34307 0.78101 0.93135 0.0
C810 C 0.36643 0.77812 0.97953 0.0
C811 C 0.36384 0.79542 0.98911 0.0
C812 C 0.37033 0.76147 0.99011 0.0
C813 C 0.37252 0.74262 0.98096 0.0
C814 C 0.35767 0.73476 0.97016 0.0
C815 C 0.35994 0.71706 0.96142 0.0
C816 C 0.37695 0.70702 0.96352 0.0
C817 C 0.39169 0.71464 0.97443 0.0
C818 C 0.38949 0.73234 0.98318 0.0
C819 C 0.34408 0.7826 0.06789 0.0
C820 C 0.3575 0.77351 0.07954 0.0
C821 C 0.34763 0.78513 0.04855 0.0
C822 C 0.36476 0.77882 0.0405 0.0
C823 C 0.37844 0.77026 0.05222 0.0
C824 C 0.37487 0.76765 0.07158 0.0
C825 C 0.36747 0.77955 0.0196 0.0
C826 C 0.371 0.76244 0.00998 0.0
C827 C 0.36442 0.79639 0.00903 0.0
C828 C 0.3619 0.81513 0.01842 0.0
C829 C 0.37513 0.82155 0.03196 0.0
C830 C 0.37262 0.83912 0.04088 0.0
C831 C 0.35698 0.85046 0.03632 0.0
C832 C 0.34383 0.84427 0.0228 0.0
C833 C 0.34626 0.8267 0.01384 0.0
H834 H 0.35506 0.86406 0.04325 0.0
H835 H 0.37868 0.69333 0.95674 0.0
H836 H 0.70588 0.83483 0.42531 0.0
H837 H 0.70108 0.84133 0.45902 0.0
H838 H 0.73295 0.89343 0.45369 0.0
H839 H 0.73803 0.8869 0.41992 0.0
H840 H 0.74623 0.87187 0.48183 0.0
H841 H 0.6854 0.89461 0.46318 0.0
H842 H 0.65445 0.89401 0.44681 0.0
H843 H 0.63831 0.84442 0.47848 0.0
H844 H 0.66927 0.84454 0.49486 0.0
H845 H 0.73604 0.88715 0.58005 0.0
H846 H 0.7314 0.8935 0.54621 0.0
H847 H 0.70093 0.84063 0.54038 0.0
H848 H 0.7052 0.83434 0.57424 0.0
H849 H 0.68572 0.86826 0.51783 0.0
H850 H 0.74799 0.84239 0.5317 0.0
H851 H 0.77914 0.84181 0.54773 0.0
H852 H 0.79252 0.89655 0.52432 0.0
H853 H 0.76131 0.89756 0.50835 0.0
C854 C 0.71162 0.84783 0.43122 0.0
C855 C 0.72246 0.86028 0.41999 0.0
C856 C 0.70875 0.8516 0.45048 0.0
C857 C 0.71654 0.86794 0.45884 0.0
C858 C 0.72678 0.88076 0.4475 0.0
C859 C 0.72966 0.87701 0.42821 0.0
C860 C 0.71572 0.87049 0.47972 0.0
C861 C 0.73295 0.87158 0.48966 0.0
C862 C 0.69842 0.86964 0.48996 0.0
C863 C 0.67974 0.86952 0.48017 0.0
C864 C 0.67532 0.88348 0.46656 0.0
C865 C 0.65775 0.88325 0.45729 0.0
C866 C 0.64443 0.86917 0.46158 0.0
C867 C 0.64864 0.85532 0.47517 0.0
C868 C 0.66619 0.85548 0.48447 0.0
C869 C 0.72805 0.87704 0.57164 0.0
C870 C 0.72121 0.86011 0.57975 0.0
C871 C 0.72543 0.88069 0.55231 0.0
C872 C 0.7161 0.86738 0.54075 0.0
C873 C 0.7082 0.85107 0.54905 0.0
C874 C 0.71073 0.84745 0.5684 0.0
C875 C 0.71622 0.86939 0.5198 0.0
C876 C 0.69892 0.86902 0.5099 0.0
C877 C 0.73345 0.87079 0.50953 0.0
C878 C 0.75225 0.87015 0.51903 0.0
C879 C 0.75752 0.85436 0.53009 0.0
C880 C 0.77519 0.85394 0.53915 0.0
C881 C 0.78778 0.86916 0.5371 0.0
C882 C 0.78274 0.8848 0.52593 0.0
C883 C 0.76507 0.8853 0.51687 0.0
H884 H 0.80145 0.86881 0.54412 0.0
H885 H 0.63084 0.86901 0.45438 0.0
H886 H 0.61306 0.24184 0.07615 0.0
H887 H 0.60992 0.23861 0.04167 0.0
H888 H 0.6599 0.20315 0.04035 0.0
H889 H 0.66324 0.20641 0.07471 0.0
H890 H 0.66252 0.23277 0.01619 0.0
H891 H 0.61652 0.18465 0.03095 0.0
H892 H 0.58795 0.17144 0.0463 0.0
H893 H 0.55325 0.21307 0.01825 0.0
H894 H 0.58167 0.2267 0.00292 0.0
H895 H 0.66376 0.2106 0.91974 0.0
H896 H 0.66018 0.20607 0.95392 0.0
H897 H 0.61054 0.24202 0.95369 0.0
H898 H 0.61383 0.24639 0.91929 0.0
H899 H 0.60673 0.2118 0.97853 0.0
H900 H 0.65208 0.26085 0.9652 0.0
H901 H 0.6803 0.275 0.95003 0.0
H902 H 0.71583 0.23276 0.97606 0.0
H903 H 0.68775 0.21819 0.99118 0.0
C904 C 0.62319 0.23308 0.06856 0.0
C905 C 0.6385 0.22451 0.07813 0.0
C906 C 0.62132 0.23118 0.04887 0.0
C907 C 0.63468 0.22063 0.03846 0.0
C908 C 0.64947 0.21139 0.04812 0.0
C909 C 0.65134 0.21326 0.06777 0.0
C910 C 0.6344 0.22074 0.01741 0.0
C911 C 0.65044 0.22785 0.00797 0.0
C912 C 0.61837 0.21499 0.00673 0.0
C913 C 0.60126 0.20681 0.01593 0.0
C914 C 0.60282 0.1911 0.02818 0.0
C915 C 0.58665 0.18351 0.03685 0.0
C916 C 0.5688 0.19144 0.0333 0.0
C917 C 0.56709 0.20695 0.02101 0.0
C918 C 0.58322 0.2146 0.01231 0.0
C919 C 0.65192 0.21735 0.92688 0.0
C920 C 0.63922 0.22906 0.91687 0.0
C921 C 0.64991 0.21475 0.94642 0.0
C922 C 0.6353 0.22399 0.95637 0.0
C923 C 0.62194 0.23482 0.94627 0.0
C924 C 0.62389 0.23735 0.92664 0.0
C925 C 0.63497 0.22352 0.97741 0.0
C926 C 0.61883 0.21655 0.98682 0.0
C927 C 0.65086 0.22954 0.98816 0.0
C928 C 0.66779 0.23832 0.97916 0.0
C929 C 0.66589 0.25449 0.96757 0.0
C930 C 0.68186 0.2626 0.959 0.0
C931 C 0.69984 0.25475 0.96204 0.0
C932 C 0.70189 0.23881 0.9737 0.0
C933 C 0.68595 0.23062 0.98228 0.0
H934 H 0.71219 0.26105 0.95539 0.0
H935 H 0.5563 0.18554 0.04002 0.0
H936 H 0.25522 0.88224 0.42206 0.0
H937 H 0.25906 0.8858 0.45638 0.0
H938 H 0.29873 0.83903 0.45687 0.0
H939 H 0.29457 0.83507 0.42265 0.0
H940 H 0.27223 0.83388 0.48247 0.0
H941 H 0.31274 0.88588 0.4652 0.0
H942 H 0.3212 0.91563 0.44872 0.0
H943 H 0.27604 0.94483 0.47755 0.0
H944 H 0.26714 0.91519 0.49401 0.0
H945 H 0.29284 0.83834 0.57937 0.0
H946 H 0.29815 0.84156 0.54523 0.0
H947 H 0.25628 0.88627 0.54276 0.0
H948 H 0.25119 0.88344 0.57705 0.0
H949 H 0.28569 0.89309 0.51832 0.0
H950 H 0.24354 0.84129 0.53314 0.0
H951 H 0.23394 0.8117 0.54928 0.0
H952 H 0.28128 0.78236 0.52434 0.0
H953 H 0.2913 0.81187 0.50826 0.0
C954 C 0.26498 0.8729 0.42943 0.0
C955 C 0.27449 0.85828 0.41968 0.0
C956 C 0.26725 0.87502 0.44905 0.0
C957 C 0.27928 0.86275 0.4592 0.0
C958 C 0.28935 0.84864 0.44933 0.0
C959 C 0.28697 0.8464 0.42977 0.0
C960 C 0.28001 0.86342 0.48027 0.0
C961 C 0.27558 0.84676 0.49027 0.0
C962 C 0.28374 0.88037 0.49047 0.0
C963 C 0.28918 0.89826 0.48072 0.0
C964 C 0.30453 0.89861 0.46793 0.0
C965 C 0.30942 0.91546 0.45861 0.0
C966 C 0.29914 0.9321 0.46205 0.0
C967 C 0.28399 0.93193 0.47488 0.0
C968 C 0.27903 0.91512 0.48423 0.0
C969 C 0.28498 0.84908 0.57163 0.0
C970 C 0.2714 0.86046 0.58084 0.0
C971 C 0.28802 0.85089 0.55212 0.0
C972 C 0.27733 0.86389 0.54141 0.0
C973 C 0.26463 0.8761 0.55075 0.0
C974 C 0.26169 0.87441 0.57034 0.0
C975 C 0.27812 0.86351 0.52037 0.0
C976 C 0.28264 0.8802 0.51042 0.0
C977 C 0.27437 0.84662 0.51012 0.0
C978 C 0.26828 0.82883 0.51966 0.0
C979 C 0.25197 0.82856 0.53121 0.0
C980 C 0.24645 0.8118 0.54033 0.0
C981 C 0.25702 0.79517 0.53788 0.0
C982 C 0.27312 0.79526 0.52625 0.0
C983 C 0.27872 0.81199 0.51712 0.0
H984 H 0.25272 0.78221 0.54495 0.0
H985 H 0.30293 0.94513 0.45481 0.0
H986 H 0.61589 0.7527 0.07987 0.0
H987 H 0.6138 0.75701 0.04541 0.0
H988 H 0.66242 0.79427 0.04705 0.0
H989 H 0.66485 0.78976 0.08136 0.0
H990 H 0.61003 0.78682 0.02046 0.0
H991 H 0.6914 0.78337 0.01051 0.0
H992 H 0.71958 0.77032 0.02679 0.0
H993 H 0.68516 0.72685 0.05224 0.0
H994 H 0.65685 0.73947 0.0359 0.0
H995 H 0.66935 0.79078 0.92563 0.0
H996 H 0.66532 0.7947 0.95984 0.0
H997 H 0.6151 0.75959 0.9581 0.0
H998 H 0.61883 0.75591 0.92373 0.0
H999 H 0.66755 0.76692 0.98489 0.0
H1000 H 0.58614 0.77077 0.99585 0.0
H1001 H 0.55776 0.78317 0.97944 0.0
H1002 H 0.59194 0.82511 0.95125 0.0
H1003 H 0.62047 0.81314 0.96768 0.0
C1004 C 0.62599 0.76201 0.07292 0.0
C1005 C 0.64072 0.77066 0.08326 0.0
C1006 C 0.62472 0.76451 0.05325 0.0
C1007 C 0.63815 0.77569 0.04367 0.0
C1008 C 0.65212 0.78531 0.05415 0.0
C1009 C 0.65348 0.78272 0.07375 0.0
C1010 C 0.63858 0.77607 0.02263 0.0
C1011 C 0.62252 0.78233 0.01262 0.0
C1012 C 0.65499 0.77042 0.01248 0.0
C1013 C 0.67198 0.76251 0.02214 0.0
C1014 C 0.68987 0.77099 0.01952 0.0
C1015 C 0.70586 0.76367 0.02877 0.0
C1016 C 0.70415 0.74781 0.0406 0.0
C1017 C 0.68645 0.73918 0.04314 0.0
C1018 C 0.67043 0.74642 0.0339 0.0
C1019 C 0.65727 0.78412 0.93246 0.0
C1020 C 0.64447 0.77292 0.92201 0.0
C1021 C 0.655 0.78638 0.95202 0.0
C1022 C 0.6399 0.77748 0.96153 0.0
C1023 C 0.6267 0.76682 0.95103 0.0
C1024 C 0.6289 0.76465 0.9314 0.0
C1025 C 0.63907 0.77794 0.98257 0.0
C1026 C 0.65508 0.77162 0.99264 0.0
C1027 C 0.62258 0.78345 0.99268 0.0
C1028 C 0.60548 0.79091 0.98286 0.0
C1029 C 0.58759 0.78268 0.9862 0.0
C1030 C 0.57147 0.78963 0.97689 0.0
C1031 C 0.57305 0.80487 0.96426 0.0
C1032 C 0.59074 0.81325 0.96097 0.0
C1033 C 0.6069 0.80637 0.97026 0.0
H1034 H 0.56056 0.81023 0.95706 0.0
H1035 H 0.71654 0.74218 0.04776 0.0
H1036 H 0.71453 0.16797 0.5747 0.0
H1037 H 0.70991 0.16284 0.5408 0.0
H1038 H 0.73307 0.10628 0.546 0.0
H1039 H 0.73824 0.11154 0.58 0.0
H1040 H 0.74944 0.12413 0.51797 0.0
H1041 H 0.68516 0.11397 0.53574 0.0
H1042 H 0.65474 0.12046 0.55184 0.0
H1043 H 0.64909 0.17273 0.52087 0.0
H1044 H 0.67961 0.16671 0.50477 0.0
H1045 H 0.73656 0.11477 0.4184 0.0
H1046 H 0.73189 0.10822 0.45224 0.0
H1047 H 0.71141 0.16543 0.46052 0.0
H1048 H 0.7156 0.17192 0.42673 0.0
H1049 H 0.69139 0.14077 0.48161 0.0
H1050 H 0.75831 0.15316 0.46886 0.0
H1051 H 0.78897 0.14699 0.45301 0.0
H1052 H 0.78925 0.09006 0.47502 0.0
H1053 H 0.75848 0.09586 0.49084 0.0
C1054 C 0.7184 0.15433 0.56872 0.0
C1055 C 0.72683 0.14019 0.58002 0.0
C1056 C 0.71561 0.15135 0.54931 0.0
C1057 C 0.72093 0.13408 0.54085 0.0
C1058 C 0.72882 0.1197 0.55223 0.0
C1059 C 0.73174 0.12272 0.57165 0.0
C1060 C 0.71986 0.13184 0.5199 0.0
C1061 C 0.73659 0.1273 0.51005 0.0
C1062 C 0.7032 0.13626 0.50952 0.0
C1063 C 0.68475 0.13992 0.51911 0.0
C1064 C 0.6775 0.12692 0.53244 0.0
C1065 C 0.66022 0.1305 0.54156 0.0
C1066 C 0.65 0.14701 0.5374 0.0
C1067 C 0.65702 0.15995 0.52408 0.0
C1068 C 0.6743 0.15644 0.51492 0.0
C1069 C 0.73084 0.12587 0.4274 0.0
C1070 C 0.72663 0.14393 0.41994 0.0
C1071 C 0.72822 0.12212 0.44673 0.0
C1072 C 0.72158 0.13643 0.45895 0.0
C1073 C 0.71656 0.15417 0.45136 0.0
C1074 C 0.71905 0.15789 0.43204 0.0
C1075 C 0.72106 0.13356 0.47982 0.0
C1076 C 0.70407 0.13717 0.48961 0.0
C1077 C 0.73746 0.12827 0.49018 0.0
C1078 C 0.75602 0.12487 0.48083 0.0
C1079 C 0.76487 0.13929 0.47021 0.0
C1080 C 0.78226 0.13587 0.46126 0.0
C1081 C 0.79102 0.11813 0.46296 0.0
C1082 C 0.78243 0.10379 0.47369 0.0
C1083 C 0.76503 0.10714 0.48266 0.0
H1084 H 0.80448 0.1155 0.45601 0.0
H1085 H 0.63663 0.14976 0.54448 0.0
H1086 H 0.33462 0.21002 0.07547 0.0
H1087 H 0.34078 0.20546 0.04167 0.0
H1088 H 0.39189 0.23897 0.04627 0.0
H1089 H 0.38571 0.24378 0.08016 0.0
H1090 H 0.36959 0.25137 0.01815 0.0
H1091 H 0.39464 0.19158 0.03706 0.0
H1092 H 0.3954 0.16078 0.05375 0.0
H1093 H 0.34601 0.14252 0.02296 0.0
H1094 H 0.34478 0.17332 0.00628 0.0
H1095 H 0.38436 0.23965 0.91955 0.0
H1096 H 0.39092 0.23634 0.95353 0.0
H1097 H 0.33899 0.20458 0.96058 0.0
H1098 H 0.33244 0.2076 0.92664 0.0
H1099 H 0.36754 0.19039 0.98281 0.0
H1100 H 0.33954 0.25166 0.96854 0.0
H1101 H 0.33778 0.28263 0.95222 0.0
H1102 H 0.39227 0.29801 0.97493 0.0
H1103 H 0.39444 0.26699 0.9912 0.0
C1104 C 0.34733 0.21619 0.06938 0.0
C1105 C 0.35962 0.22736 0.08046 0.0
C1106 C 0.3509 0.21346 0.05006 0.0
C1107 C 0.36687 0.22176 0.04148 0.0
C1108 C 0.37951 0.23241 0.05264 0.0
C1109 C 0.37596 0.23512 0.072 0.0
C1110 C 0.36923 0.22084 0.02057 0.0
C1111 C 0.36964 0.23801 0.01045 0.0
C1112 C 0.36886 0.20342 0.01053 0.0
C1113 C 0.36955 0.18483 0.0205 0.0
C1114 C 0.38385 0.18106 0.03395 0.0
C1115 C 0.38438 0.16359 0.04339 0.0
C1116 C 0.37075 0.14972 0.03944 0.0
C1117 C 0.35657 0.15328 0.02601 0.0
C1118 C 0.35596 0.17074 0.01653 0.0
C1119 C 0.37448 0.23171 0.92828 0.0
C1120 C 0.35775 0.22408 0.92047 0.0
C1121 C 0.37825 0.22985 0.94769 0.0
C1122 C 0.3653 0.22045 0.9596 0.0
C1123 C 0.34915 0.21191 0.95164 0.0
C1124 C 0.34539 0.21373 0.93225 0.0
C1125 C 0.36759 0.22089 0.98051 0.0
C1126 C 0.36795 0.20369 0.99059 0.0
C1127 C 0.36859 0.23827 0.99058 0.0
C1128 C 0.36726 0.25694 0.98088 0.0
C1129 C 0.35121 0.26159 0.96993 0.0
C1130 C 0.35012 0.27916 0.96071 0.0
C1131 C 0.36493 0.29226 0.96248 0.0
C1132 C 0.38083 0.28783 0.97353 0.0
C1133 C 0.38199 0.27027 0.98276 0.0
H1134 H 0.36407 0.30585 0.95534 0.0
H1135 H 0.37118 0.1362 0.04677 0.0
H1136 H 0.57399 0.25647 0.11603 0.0
H1137 H 0.53972 0.2616 0.11367 0.0
H1138 H 0.5424 0.30155 0.16011 0.0
H1139 H 0.57656 0.29623 0.16279 0.0
H1140 H 0.51645 0.27511 0.16645 0.0
H1141 H 0.53242 0.31598 0.11432 0.0
H1142 H 0.54766 0.32457 0.08396 0.0
H1143 H 0.51643 0.28061 0.05544 0.0
H1144 H 0.50118 0.27158 0.08568 0.0
H1145 H 0.41958 0.29709 0.16631 0.0
H1146 H 0.45372 0.30178 0.16229 0.0
H1147 H 0.45392 0.2617 0.11588 0.0
H1148 H 0.41964 0.25734 0.11947 0.0
H1149 H 0.47839 0.29033 0.10908 0.0
H1150 H 0.46503 0.24748 0.16072 0.0
H1151 H 0.45008 0.23753 0.19081 0.0
H1152 H 0.4771 0.28383 0.21993 0.0
H1153 H 0.49201 0.29421 0.18993 0.0
C1154 C 0.56733 0.26658 0.12552 0.0
C1155 C 0.57794 0.27582 0.13971 0.0
C1156 C 0.54775 0.26958 0.12409 0.0
C1157 C 0.53852 0.28202 0.13668 0.0
C1158 C 0.54925 0.29187 0.15028 0.0
C1159 C 0.56877 0.28881 0.15179 0.0
C1160 C 0.51751 0.28331 0.13696 0.0
C1161 C 0.50816 0.27884 0.15399 0.0
C1162 C 0.50668 0.28754 0.12054 0.0
C1163 C 0.51577 0.293 0.10231 0.0
C1164 C 0.5289 0.30805 0.10161 0.0
C1165 C 0.53753 0.31301 0.08441 0.0
C1166 C 0.53305 0.30311 0.06779 0.0
C1167 C 0.5199 0.28826 0.06832 0.0
C1168 C 0.51124 0.28322 0.08549 0.0
C1169 C 0.42684 0.28948 0.15507 0.0
C1170 C 0.41699 0.27665 0.14337 0.0
C1171 C 0.44635 0.29215 0.15281 0.0
C1172 C 0.45641 0.28179 0.13904 0.0
C1173 C 0.44644 0.26979 0.12664 0.0
C1174 C 0.42686 0.26726 0.12876 0.0
C1175 C 0.47745 0.28228 0.1386 0.0
C1176 C 0.48676 0.2869 0.12157 0.0
C1177 C 0.48833 0.27802 0.15498 0.0
C1178 C 0.47947 0.27174 0.17305 0.0
C1179 C 0.46767 0.25562 0.17351 0.0
C1180 C 0.45922 0.24989 0.19055 0.0
C1181 C 0.4626 0.26007 0.20726 0.0
C1182 C 0.47447 0.27598 0.20697 0.0
C1183 C 0.48294 0.28178 0.18996 0.0
H1184 H 0.45604 0.25561 0.22044 0.0
H1185 H 0.53975 0.30698 0.0545 0.0
H1186 H 0.57716 0.71218 0.83209 0.0
H1187 H 0.54277 0.70901 0.83486 0.0
H1188 H 0.54337 0.74389 0.88526 0.0
H1189 H 0.57797 0.74689 0.88279 0.0
H1190 H 0.51743 0.71458 0.88801 0.0
H1191 H 0.53328 0.76396 0.84378 0.0
H1192 H 0.54947 0.77801 0.81606 0.0
H1193 H 0.52264 0.73734 0.77935 0.0
H1194 H 0.50649 0.72286 0.8069 0.0
H1195 H 0.42025 0.74522 0.88122 0.0
H1196 H 0.45473 0.74224 0.8845 0.0
H1197 H 0.45686 0.70922 0.83288 0.0
H1198 H 0.42252 0.71239 0.82933 0.0
H1199 H 0.48155 0.73777 0.8319 0.0
H1200 H 0.46475 0.68897 0.87669 0.0
H1201 H 0.44841 0.6757 0.9047 0.0
H1202 H 0.47649 0.71616 0.9407 0.0
H1203 H 0.49281 0.72986 0.91286 0.0
C1204 C 0.57004 0.71899 0.84392 0.0
C1205 C 0.58024 0.73 0.85709 0.0
C1206 C 0.55038 0.71717 0.84547 0.0
C1207 C 0.54051 0.7265 0.86007 0.0
C1208 C 0.55074 0.73664 0.87386 0.0
C1209 C 0.57048 0.73838 0.87238 0.0
C1210 C 0.51946 0.7268 0.86002 0.0
C1211 C 0.50954 0.71982 0.87585 0.0
C1212 C 0.50922 0.73346 0.84405 0.0
C1213 C 0.51882 0.74222 0.82743 0.0
C1214 C 0.53094 0.75792 0.82981 0.0
C1215 C 0.54009 0.76597 0.81413 0.0
C1216 C 0.53712 0.75854 0.79596 0.0
C1217 C 0.52495 0.74306 0.79343 0.0
C1218 C 0.51578 0.73494 0.80907 0.0
C1219 C 0.42804 0.73711 0.87071 0.0
C1220 C 0.41869 0.72915 0.85494 0.0
C1221 C 0.44773 0.73535 0.87265 0.0
C1222 C 0.45835 0.72545 0.85896 0.0
C1223 C 0.44894 0.71695 0.84358 0.0
C1224 C 0.4293 0.71876 0.84159 0.0
C1225 C 0.4794 0.72521 0.85975 0.0
C1226 C 0.48937 0.73239 0.84406 0.0
C1227 C 0.48959 0.71884 0.87588 0.0
C1228 C 0.47986 0.71056 0.89266 0.0
C1229 C 0.46732 0.69514 0.89056 0.0
C1230 C 0.45809 0.68752 0.90641 0.0
C1231 C 0.46137 0.69511 0.92446 0.0
C1232 C 0.47394 0.71031 0.9267 0.0
C1233 C 0.48321 0.71799 0.9109 0.0
H1234 H 0.4542 0.6892 0.93672 0.0
H1235 H 0.54422 0.7648 0.78384 0.0
H1236 H 0.75495 0.92152 0.38404 0.0
H1237 H 0.7585 0.95601 0.38696 0.0
H1238 H 0.79567 0.95635 0.33822 0.0
H1239 H 0.79193 0.92202 0.33498 0.0
H1240 H 0.78763 0.98189 0.39105 0.0
H1241 H 0.7831 0.99282 0.30974 0.0
H1242 H 0.77016 0.97656 0.28149 0.0
H1243 H 0.72789 0.94943 0.31613 0.0
H1244 H 0.74041 0.96573 0.34451 0.0
H1245 H 0.78947 0.07734 0.33285 0.0
H1246 H 0.79378 0.04313 0.33643 0.0
H1247 H 0.75883 0.04385 0.3868 0.0
H1248 H 0.75475 0.07823 0.38352 0.0
H1249 H 0.76634 0.01764 0.33411 0.0
H1250 H 0.77081 0.0059 0.41529 0.0
H1251 H 0.78271 0.02242 0.44383 0.0
H1252 H 0.82395 0.05192 0.40991 0.0
H1253 H 0.81247 0.03541 0.38122 0.0
C1254 C 0.76411 0.92891 0.37412 0.0
C1255 C 0.77293 0.91911 0.3591 0.0
C1256 C 0.76618 0.94859 0.37587 0.0
C1257 C 0.77708 0.95874 0.36262 0.0
C1258 C 0.78693 0.9488 0.34841 0.0
C1259 C 0.78479 0.92918 0.34658 0.0
C1260 C 0.77678 0.97979 0.36252 0.0
C1261 C 0.78285 0.98976 0.37869 0.0
C1262 C 0.77068 0.98999 0.3463 0.0
C1263 C 0.76284 0.98034 0.32927 0.0
C1264 C 0.77101 0.98344 0.3113 0.0
C1265 C 0.76375 0.97421 0.29528 0.0
C1266 C 0.74826 0.96192 0.29703 0.0
C1267 C 0.73994 0.95889 0.3148 0.0
C1268 C 0.74712 0.96811 0.33087 0.0
C1269 C 0.78291 0.07028 0.34485 0.0
C1270 C 0.77167 0.08046 0.35784 0.0
C1271 C 0.78539 0.05072 0.34687 0.0
C1272 C 0.77667 0.04093 0.36189 0.0
C1273 C 0.76592 0.05114 0.37525 0.0
C1274 C 0.76352 0.07078 0.37331 0.0
C1275 C 0.77752 0.01989 0.36253 0.0
C1276 C 0.77134 0.00986 0.34646 0.0
C1277 C 0.7834 0.00973 0.37888 0.0
C1278 C 0.79063 0.01954 0.39608 0.0
C1279 C 0.78246 0.01585 0.41394 0.0
C1280 C 0.78913 0.02523 0.43014 0.0
C1281 C 0.80403 0.03826 0.42867 0.0
C1282 C 0.81235 0.04189 0.41101 0.0
C1283 C 0.80575 0.03254 0.39477 0.0
H1284 H 0.80915 0.04552 0.44123 0.0
H1285 H 0.74267 0.95477 0.28461 0.0
H1286 H 0.4186 0.2885 0.83057 0.0
H1287 H 0.45295 0.29269 0.83263 0.0
H1288 H 0.4543 0.25859 0.88356 0.0
H1289 H 0.4198 0.25445 0.88173 0.0
H1290 H 0.47902 0.2896 0.88523 0.0
H1291 H 0.46448 0.23798 0.8431 0.0
H1292 H 0.44848 0.22239 0.81611 0.0
H1293 H 0.47349 0.2626 0.77763 0.0
H1294 H 0.48943 0.27861 0.80445 0.0
H1295 H 0.57648 0.25998 0.87879 0.0
H1296 H 0.54203 0.26298 0.88227 0.0
H1297 H 0.53939 0.29457 0.82978 0.0
H1298 H 0.57372 0.29146 0.82608 0.0
H1299 H 0.51516 0.26528 0.82978 0.0
H1300 H 0.53104 0.31613 0.87229 0.0
H1301 H 0.54709 0.33119 0.89954 0.0
H1302 H 0.52009 0.29188 0.93761 0.0
H1303 H 0.50407 0.27641 0.91054 0.0
C1304 C 0.42614 0.28206 0.84235 0.0
C1305 C 0.41652 0.27095 0.85587 0.0
C1306 C 0.44577 0.28447 0.84349 0.0
C1307 C 0.45616 0.27573 0.85809 0.0
C1308 C 0.44651 0.26542 0.87216 0.0
C1309 C 0.42683 0.263 0.87104 0.0
C1310 C 0.47717 0.2762 0.85779 0.0
C1311 C 0.48699 0.28413 0.87322 0.0
C1312 C 0.48747 0.26927 0.84198 0.0
C1313 C 0.47799 0.25961 0.8258 0.0
C1314 C 0.46645 0.24359 0.8289 0.0
C1315 C 0.45741 0.23467 0.81363 0.0
C1316 C 0.45993 0.24154 0.79517 0.0
C1317 C 0.47153 0.25732 0.79194 0.0
C1318 C 0.48058 0.26632 0.80717 0.0
C1319 C 0.5686 0.26782 0.86814 0.0
C1320 C 0.57779 0.27536 0.85208 0.0
C1321 C 0.54892 0.26959 0.8702 0.0
C1322 C 0.53817 0.27903 0.8563 0.0
C1323 C 0.54743 0.2872 0.84065 0.0
C1324 C 0.56706 0.28542 0.83857 0.0
C1325 C 0.51714 0.27895 0.85711 0.0
C1326 C 0.50727 0.27092 0.84177 0.0
C1327 C 0.50689 0.28571 0.87305 0.0
C1328 C 0.5165 0.29499 0.88935 0.0
C1329 C 0.52865 0.31058 0.88645 0.0
C1330 C 0.53772 0.31922 0.90187 0.0
C1331 C 0.53465 0.31246 0.92029 0.0
C1332 C 0.52247 0.29709 0.92333 0.0
C1333 C 0.51338 0.28839 0.90795 0.0
H1334 H 0.54168 0.31917 0.93221 0.0
H1335 H 0.45292 0.2346 0.78336 0.0
H1336 H 0.21162 0.92571 0.33323 0.0
H1337 H 0.20706 0.95948 0.3396 0.0
H1338 H 0.23136 0.95239 0.39545 0.0
H1339 H 0.23639 0.91858 0.389 0.0
H1340 H 0.1886 0.98103 0.3653 0.0
H1341 H 0.25876 0.99108 0.405 0.0
H1342 H 0.28991 0.9754 0.40875 0.0
H1343 H 0.28553 0.95253 0.35234 0.0
H1344 H 0.25447 0.96824 0.3482 0.0
H1345 H 0.2374 0.07994 0.38901 0.0
H1346 H 0.23238 0.04613 0.39542 0.0
H1347 H 0.20552 0.03977 0.34066 0.0
H1348 H 0.21006 0.0735 0.33437 0.0
H1349 H 0.24761 0.01776 0.37691 0.0
H1350 H 0.17487 0.00364 0.33986 0.0
H1351 H 0.14394 0.01959 0.3358 0.0
H1352 H 0.15339 0.05168 0.38683 0.0
H1353 H 0.18425 0.03573 0.39136 0.0
C1354 C 0.21579 0.93126 0.34697 0.0
C1355 C 0.2246 0.91954 0.36051 0.0
C1356 C 0.21308 0.95057 0.35062 0.0
C1357 C 0.21913 0.95851 0.36788 0.0
C1358 C 0.22688 0.9466 0.38191 0.0
C1359 C 0.22971 0.92729 0.37821 0.0
C1360 C 0.21871 0.97942 0.37038 0.0
C1361 C 0.20147 0.98911 0.36781 0.0
C1362 C 0.23543 0.9899 0.37423 0.0
C1363 C 0.25422 0.98064 0.3764 0.0
C1364 C 0.26449 0.98274 0.39339 0.0
C1365 C 0.28212 0.97385 0.39558 0.0
C1366 C 0.28966 0.96292 0.38082 0.0
C1367 C 0.27964 0.96093 0.36379 0.0
C1368 C 0.26202 0.96982 0.36152 0.0
C1369 C 0.23011 0.07139 0.37849 0.0
C1370 C 0.22418 0.07937 0.36115 0.0
C1371 C 0.22728 0.05207 0.38216 0.0
C1372 C 0.21842 0.04042 0.36861 0.0
C1373 C 0.21201 0.04851 0.35153 0.0
C1374 C 0.21474 0.06781 0.34789 0.0
C1375 C 0.21754 0.01952 0.37135 0.0
C1376 C 0.23458 0.00978 0.37486 0.0
C1377 C 0.20063 0.00905 0.36837 0.0
C1378 C 0.18195 0.01856 0.36588 0.0
C1379 C 0.17031 0.01402 0.35028 0.0
C1380 C 0.1528 0.02308 0.34788 0.0
C1381 C 0.14673 0.03667 0.36102 0.0
C1382 C 0.15814 0.04119 0.37662 0.0
C1383 C 0.17566 0.03216 0.3791 0.0
H1384 H 0.13317 0.04368 0.35913 0.0
H1385 H 0.3033 0.95602 0.38255 0.0
H1386 H 0.57082 0.70747 0.16809 0.0
H1387 H 0.53715 0.70359 0.16098 0.0
H1388 H 0.54456 0.73399 0.10824 0.0
H1389 H 0.57831 0.73819 0.11539 0.0
H1390 H 0.51625 0.7485 0.12842 0.0
H1391 H 0.53364 0.68657 0.10811 0.0
H1392 H 0.54918 0.65522 0.10986 0.0
H1393 H 0.51639 0.64135 0.15941 0.0
H1394 H 0.50084 0.67273 0.15814 0.0
H1395 H 0.41747 0.73918 0.11273 0.0
H1396 H 0.45141 0.73444 0.10695 0.0
H1397 H 0.45671 0.70592 0.16097 0.0
H1398 H 0.4228 0.71032 0.16673 0.0
H1399 H 0.47867 0.6891 0.13381 0.0
H1400 H 0.46623 0.75283 0.15716 0.0
H1401 H 0.45101 0.7844 0.15621 0.0
H1402 H 0.47514 0.79472 0.10112 0.0
H1403 H 0.49031 0.76309 0.10165 0.0
C1404 C 0.56537 0.71309 0.15483 0.0
C1405 C 0.57719 0.72326 0.14236 0.0
C1406 C 0.54613 0.71073 0.15072 0.0
C1407 C 0.53837 0.71836 0.134 0.0
C1408 C 0.55028 0.72795 0.1212 0.0
C1409 C 0.56955 0.73033 0.12531 0.0
C1410 C 0.51754 0.718 0.13099 0.0
C1411 C 0.50807 0.73545 0.12909 0.0
C1412 C 0.50686 0.70101 0.13226 0.0
C1413 C 0.51615 0.68208 0.13308 0.0
C1414 C 0.52984 0.67689 0.11947 0.0
C1415 C 0.53863 0.6591 0.12036 0.0
C1416 C 0.5338 0.64631 0.13476 0.0
C1417 C 0.52012 0.65127 0.14827 0.0
C1418 C 0.51129 0.66905 0.14745 0.0
C1419 C 0.42581 0.73167 0.12326 0.0
C1420 C 0.41752 0.72533 0.1403 0.0
C1421 C 0.44519 0.72898 0.11994 0.0
C1422 C 0.45659 0.72005 0.13365 0.0
C1423 C 0.44815 0.71285 0.15021 0.0
C1424 C 0.42879 0.71547 0.15352 0.0
C1425 C 0.47752 0.71959 0.13164 0.0
C1426 C 0.48695 0.70205 0.13267 0.0
C1427 C 0.48822 0.73649 0.12962 0.0
C1428 C 0.4792 0.75553 0.12935 0.0
C1429 C 0.46817 0.76179 0.14479 0.0
C1430 C 0.45957 0.77969 0.14434 0.0
C1431 C 0.46206 0.79153 0.12859 0.0
C1432 C 0.47319 0.78552 0.11329 0.0
C1433 C 0.4818 0.76761 0.11366 0.0
H1434 H 0.45539 0.80539 0.12826 0.0
H1435 H 0.54062 0.63254 0.13542 0.0
H1436 H 0.79913 0.91823 0.6585 0.0
H1437 H 0.80406 0.95243 0.65521 0.0
H1438 H 0.76095 0.95462 0.61168 0.0
H1439 H 0.75626 0.92031 0.61455 0.0
H1440 H 0.78965 0.97945 0.60416 0.0
H1441 H 0.74945 0.96359 0.65735 0.0
H1442 H 0.74127 0.94714 0.6872 0.0
H1443 H 0.78913 0.97292 0.71489 0.0
H1444 H 0.79774 0.98932 0.6851 0.0
H1445 H 0.75656 0.07469 0.61634 0.0
H1446 H 0.76154 0.04054 0.61238 0.0
H1447 H 0.80247 0.04113 0.65804 0.0
H1448 H 0.79716 0.07513 0.66242 0.0
H1449 H 0.77708 0.01478 0.66387 0.0
H1450 H 0.81539 0.03334 0.6107 0.0
H1451 H 0.82257 0.04998 0.58071 0.0
H1452 H 0.7775 0.01982 0.55279 0.0
H1453 H 0.76987 0.00318 0.58268 0.0
C1454 C 0.79093 0.92593 0.648 0.0
C1455 C 0.77711 0.91664 0.63699 0.0
C1456 C 0.79375 0.94547 0.64614 0.0
C1457 C 0.78259 0.9561 0.63348 0.0
C1458 C 0.76966 0.94668 0.62159 0.0
C1459 C 0.76695 0.92709 0.62331 0.0
C1460 C 0.78307 0.97714 0.63396 0.0
C1461 C 0.78681 0.98723 0.61716 0.0
C1462 C 0.77959 0.98724 0.651 0.0
C1463 C 0.77435 0.97751 0.66896 0.0
C1464 C 0.7583 0.96564 0.66977 0.0
C1465 C 0.75358 0.95634 0.68668 0.0
C1466 C 0.76471 0.95894 0.70292 0.0
C1467 C 0.78054 0.97089 0.70229 0.0
C1468 C 0.78535 0.9802 0.68541 0.0
C1469 C 0.76684 0.06759 0.62533 0.0
C1470 C 0.77635 0.07754 0.6398 0.0
C1471 C 0.76976 0.04808 0.62298 0.0
C1472 C 0.78247 0.03828 0.63485 0.0
C1473 C 0.79257 0.0484 0.64875 0.0
C1474 C 0.78952 0.06783 0.65123 0.0
C1475 C 0.78385 0.01726 0.6341 0.0
C1476 C 0.78025 0.00711 0.65087 0.0
C1477 C 0.78735 0.0072 0.61702 0.0
C1478 C 0.79197 0.01712 0.59899 0.0
C1479 C 0.80692 0.03035 0.5982 0.0
C1480 C 0.81108 0.03977 0.58121 0.0
C1481 C 0.80047 0.03599 0.56486 0.0
C1482 C 0.7857 0.02275 0.56546 0.0
C1483 C 0.78147 0.0133 0.58242 0.0
H1484 H 0.80371 0.0433 0.55172 0.0
H1485 H 0.76103 0.95173 0.716 0.0
H1486 H 0.2397 0.07576 0.61441 0.0
H1487 H 0.23362 0.04169 0.61175 0.0
H1488 H 0.19119 0.04571 0.65581 0.0
H1489 H 0.19736 0.07975 0.65875 0.0
H1490 H 0.21669 0.01885 0.66356 0.0
H1491 H 0.17876 0.03576 0.60978 0.0
H1492 H 0.17169 0.05131 0.57919 0.0
H1493 H 0.2163 0.01952 0.55233 0.0
H1494 H 0.22383 0.00395 0.58282 0.0
H1495 H 0.19522 0.92177 0.66143 0.0
H1496 H 0.19029 0.95589 0.65743 0.0
H1497 H 0.23273 0.95698 0.6132 0.0
H1498 H 0.2374 0.92272 0.61678 0.0
H1499 H 0.20414 0.98131 0.60522 0.0
H1500 H 0.2445 0.96755 0.65879 0.0
H1501 H 0.25298 0.95234 0.68921 0.0
H1502 H 0.20516 0.97895 0.7162 0.0
H1503 H 0.19625 0.99412 0.68585 0.0
C1504 C 0.22884 0.06946 0.62331 0.0
C1505 C 0.21911 0.08042 0.6369 0.0
C1506 C 0.2253 0.04999 0.62169 0.0
C1507 C 0.21189 0.04117 0.63353 0.0
C1508 C 0.2016 0.05224 0.64654 0.0
C1509 C 0.20514 0.07169 0.64819 0.0
C1510 C 0.21002 0.02019 0.63371 0.0
C1511 C 0.21352 0.01068 0.65088 0.0
C1512 C 0.20649 0.00951 0.61703 0.0
C1513 C 0.20195 0.01879 0.59864 0.0
C1514 C 0.18717 0.03219 0.59739 0.0
C1515 C 0.18306 0.04099 0.58005 0.0
C1516 C 0.19357 0.03643 0.56383 0.0
C1517 C 0.20818 0.02304 0.5649 0.0
C1518 C 0.21236 0.0142 0.58221 0.0
C1519 C 0.20329 0.9292 0.65064 0.0
C1520 C 0.21689 0.91961 0.63959 0.0
C1521 C 0.20048 0.94871 0.64839 0.0
C1522 C 0.21142 0.95903 0.63529 0.0
C1523 C 0.22418 0.9493 0.62344 0.0
C1524 C 0.22688 0.92973 0.62556 0.0
C1525 C 0.21078 0.98009 0.63507 0.0
C1526 C 0.20698 0.98956 0.61792 0.0
C1527 C 0.2142 0.99082 0.65173 0.0
C1528 C 0.21959 0.98179 0.67001 0.0
C1529 C 0.23571 0.97004 0.67118 0.0
C1530 C 0.24061 0.96145 0.68841 0.0
C1531 C 0.22958 0.96463 0.70462 0.0
C1532 C 0.21366 0.97647 0.70363 0.0
C1533 C 0.20869 0.98507 0.68642 0.0
H1534 H 0.23339 0.95797 0.71795 0.0
H1535 H 0.19036 0.04327 0.55043 0.0
H1536 H 0.15767 0.33156 0.31285 0.0
H1537 H 0.16667 0.30473 0.33297 0.0
H1538 H 0.13943 0.26613 0.29394 0.0
H1539 H 0.13007 0.29286 0.27389 0.0
H1540 H 0.13573 0.25417 0.33098 0.0
H1541 H 0.18568 0.27572 0.28893 0.0
H1542 H 0.20746 0.29952 0.27523 0.0
H1543 H 0.23152 0.30965 0.33039 0.0
H1544 H 0.20969 0.28608 0.34445 0.0
H1545 H 0.19167 0.17023 0.33582 0.0
H1546 H 0.17283 0.1985 0.32892 0.0
H1547 H 0.20637 0.23079 0.3688 0.0
H1548 H 0.22554 0.20266 0.37552 0.0
H1549 H 0.20575 0.24758 0.33556 0.0
H1550 H 0.15863 0.22167 0.37666 0.0
H1551 H 0.13708 0.19724 0.38952 0.0
H1552 H 0.1079 0.19437 0.33601 0.0
H1553 H 0.12945 0.21859 0.32273 0.0
C1554 C 0.15324 0.31741 0.30872 0.0
C1555 C 0.14343 0.31433 0.29158 0.0
C1556 C 0.1584 0.30209 0.32025 0.0
C1557 C 0.15402 0.28343 0.31474 0.0
C1558 C 0.143 0.28042 0.29841 0.0
C1559 C 0.13774 0.29573 0.28692 0.0
C1560 C 0.16274 0.26702 0.32465 0.0
C1561 C 0.15103 0.25264 0.33198 0.0
C1562 C 0.1827 0.26524 0.32622 0.0
C1563 C 0.19591 0.27932 0.31777 0.0
C1564 C 0.19552 0.28313 0.29815 0.0
C1565 C 0.20789 0.29656 0.29032 0.0
C1566 C 0.22082 0.30614 0.30194 0.0
C1567 C 0.22146 0.30225 0.32141 0.0
C1568 C 0.2091 0.28886 0.32932 0.0
C1569 C 0.19481 0.18323 0.34344 0.0
C1570 C 0.21026 0.18423 0.35607 0.0
C1571 C 0.18393 0.19939 0.33955 0.0
C1572 C 0.18814 0.21677 0.34839 0.0
C1573 C 0.20289 0.21753 0.36179 0.0
C1574 C 0.21383 0.20143 0.36561 0.0
C1575 C 0.17878 0.23454 0.34193 0.0
C1576 C 0.19043 0.24918 0.33504 0.0
C1577 C 0.15879 0.23643 0.34072 0.0
C1578 C 0.14576 0.22187 0.34866 0.0
C1579 C 0.14772 0.21573 0.36758 0.0
C1580 C 0.13548 0.20193 0.37496 0.0
C1581 C 0.12115 0.19423 0.36358 0.0
C1582 C 0.11901 0.20034 0.34481 0.0
C1583 C 0.13122 0.21413 0.33736 0.0
H1584 H 0.11169 0.18355 0.36932 0.0
H1585 H 0.23039 0.31653 0.29586 0.0
H1586 H 0.29392 0.72141 0.87046 0.0
H1587 H 0.26788 0.70028 0.86182 0.0
H1588 H 0.30627 0.66645 0.82806 0.0
H1589 H 0.33241 0.68769 0.83641 0.0
H1590 H 0.27692 0.67834 0.80768 0.0
H1591 H 0.28453 0.64781 0.86758 0.0
H1592 H 0.28817 0.64561 0.90235 0.0
H1593 H 0.23345 0.67145 0.91006 0.0
H1594 H 0.22958 0.67408 0.87533 0.0
H1595 H 0.20213 0.6226 0.77416 0.0
H1596 H 0.23078 0.62902 0.79262 0.0
H1597 H 0.19964 0.66859 0.82754 0.0
H1598 H 0.1708 0.66207 0.80935 0.0
H1599 H 0.22709 0.64918 0.84813 0.0
H1600 H 0.2222 0.68481 0.78968 0.0
H1601 H 0.21808 0.68851 0.75509 0.0
H1602 H 0.26779 0.65451 0.74521 0.0
H1603 H 0.27203 0.65039 0.7798 0.0
C1604 C 0.29696 0.70924 0.86153 0.0
C1605 C 0.31522 0.7064 0.85392 0.0
C1606 C 0.28204 0.69708 0.85671 0.0
C1607 C 0.28513 0.68175 0.84431 0.0
C1608 C 0.30358 0.67821 0.83763 0.0
C1609 C 0.3185 0.69037 0.84243 0.0
C1610 C 0.26875 0.67118 0.83632 0.0
C1611 C 0.26631 0.67152 0.81654 0.0
C1612 C 0.25458 0.66281 0.8479 0.0
C1613 C 0.25683 0.66126 0.86882 0.0
C1614 C 0.27333 0.65317 0.87668 0.0
C1615 C 0.27542 0.65182 0.89639 0.0
C1616 C 0.26107 0.65842 0.90841 0.0
C1617 C 0.24457 0.66635 0.90074 0.0
C1618 C 0.2424 0.66775 0.88103 0.0
C1619 C 0.20124 0.63238 0.78601 0.0
C1620 C 0.18425 0.64209 0.79006 0.0
C1621 C 0.21764 0.63601 0.79655 0.0
C1622 C 0.21739 0.64953 0.81121 0.0
C1623 C 0.20013 0.65814 0.81625 0.0
C1624 C 0.18368 0.65445 0.80576 0.0
C1625 C 0.2354 0.65646 0.81961 0.0
C1626 C 0.23801 0.6556 0.83936 0.0
C1627 C 0.24974 0.66454 0.80807 0.0
C1628 C 0.2473 0.6671 0.78729 0.0
C1629 C 0.23217 0.678 0.78012 0.0
C1630 C 0.22982 0.68019 0.76052 0.0
C1631 C 0.24263 0.6717 0.74795 0.0
C1632 C 0.25785 0.66104 0.75497 0.0
C1633 C 0.26024 0.65878 0.77457 0.0
H1634 H 0.2408 0.67341 0.73279 0.0
H1635 H 0.26271 0.65736 0.92367 0.0
H1636 H 0.84472 0.66777 0.31443 0.0
H1637 H 0.83601 0.69418 0.33523 0.0
H1638 H 0.85842 0.73394 0.29432 0.0
H1639 H 0.8675 0.70766 0.27361 0.0
H1640 H 0.86426 0.7462 0.33085 0.0
H1641 H 0.81224 0.72117 0.29294 0.0
H1642 H 0.79085 0.69578 0.28177 0.0
H1643 H 0.77174 0.68629 0.33894 0.0
H1644 H 0.79329 0.71144 0.3505 0.0
H1645 H 0.8061 0.82796 0.33624 0.0
H1646 H 0.82551 0.80005 0.32965 0.0
H1647 H 0.79434 0.76821 0.37178 0.0
H1648 H 0.77448 0.79597 0.37809 0.0
H1649 H 0.79446 0.7499 0.33992 0.0
H1650 H 0.84264 0.77906 0.37712 0.0
H1651 H 0.86391 0.80464 0.38807 0.0
H1652 H 0.89006 0.80692 0.33299 0.0
H1653 H 0.86877 0.78154 0.32161 0.0
C1654 C 0.84816 0.6821 0.31002 0.0
C1655 C 0.8565 0.68562 0.29219 0.0
C1656 C 0.84317 0.69718 0.32194 0.0
C1657 C 0.84624 0.71602 0.31614 0.0
C1658 C 0.85587 0.71951 0.29904 0.0
C1659 C 0.86097 0.70445 0.28717 0.0
C1660 C 0.83749 0.73206 0.32661 0.0
C1661 C 0.849 0.74709 0.33286 0.0
C1662 C 0.81762 0.73297 0.32959 0.0
C1663 C 0.80453 0.71801 0.3226 0.0
C1664 C 0.80357 0.71358 0.30314 0.0
C1665 C 0.79141 0.69924 0.29674 0.0
C1666 C 0.77997 0.68939 0.30964 0.0
C1667 C 0.78064 0.6939 0.32897 0.0
C1668 C 0.79282 0.70819 0.33545 0.0
C1669 C 0.80361 0.81515 0.34441 0.0
C1670 C 0.7886 0.81414 0.35755 0.0
C1671 C 0.81483 0.7992 0.3407 0.0
C1672 C 0.81147 0.78201 0.35028 0.0
C1673 C 0.79718 0.7813 0.36419 0.0
C1674 C 0.78584 0.79719 0.36778 0.0
C1675 C 0.82117 0.76432 0.34408 0.0
C1676 C 0.80978 0.74896 0.33844 0.0
C1677 C 0.84112 0.76319 0.3417 0.0
C1678 C 0.854 0.77845 0.34848 0.0
C1679 C 0.85283 0.78511 0.36729 0.0
C1680 C 0.86491 0.79956 0.37359 0.0
C1681 C 0.87831 0.80742 0.36123 0.0
C1682 C 0.87967 0.80082 0.34255 0.0
C1683 C 0.86762 0.78637 0.33618 0.0
H1684 H 0.88764 0.81861 0.36613 0.0
H1685 H 0.77058 0.67829 0.30467 0.0
H1686 H 0.82983 0.34587 0.80848 0.0
H1687 H 0.80279 0.33811 0.8288 0.0
H1688 H 0.76446 0.36058 0.78658 0.0
H1689 H 0.7914 0.36871 0.7663 0.0
H1690 H 0.7516 0.36751 0.82275 0.0
H1691 H 0.77562 0.31419 0.78633 0.0
H1692 H 0.80038 0.2918 0.77564 0.0
H1693 H 0.80914 0.27351 0.8332 0.0
H1694 H 0.7846 0.29601 0.84426 0.0
H1695 H 0.66883 0.31061 0.82923 0.0
H1696 H 0.69697 0.32952 0.82222 0.0
H1697 H 0.72808 0.29962 0.86581 0.0
H1698 H 0.70008 0.28029 0.87259 0.0
H1699 H 0.74634 0.29806 0.83368 0.0
H1700 H 0.7179 0.34807 0.86928 0.0
H1701 H 0.69261 0.37016 0.87925 0.0
H1702 H 0.69129 0.39445 0.82329 0.0
H1703 H 0.71638 0.37232 0.81288 0.0
C1704 C 0.81568 0.34952 0.80366 0.0
C1705 C 0.81276 0.35761 0.78562 0.0
C1706 C 0.80024 0.34507 0.81531 0.0
C1707 C 0.78162 0.34845 0.80903 0.0
C1708 C 0.77872 0.35781 0.79167 0.0
C1709 C 0.79415 0.36236 0.78005 0.0
C1710 C 0.7652 0.34032 0.81937 0.0
C1711 C 0.75037 0.35234 0.82515 0.0
C1712 C 0.76381 0.32055 0.82281 0.0
C1713 C 0.77846 0.30693 0.81614 0.0
C1714 C 0.78293 0.30549 0.79671 0.0
C1715 C 0.79691 0.29277 0.79059 0.0
C1716 C 0.80637 0.28128 0.80373 0.0
C1717 C 0.80182 0.28245 0.82303 0.0
C1718 C 0.78789 0.29518 0.82924 0.0
C1719 C 0.68152 0.30832 0.83763 0.0
C1720 C 0.68227 0.29378 0.85132 0.0
C1721 C 0.6976 0.31925 0.83368 0.0
C1722 C 0.71465 0.31605 0.84353 0.0
C1723 C 0.71509 0.30232 0.858 0.0
C1724 C 0.69906 0.29127 0.86186 0.0
C1725 C 0.73251 0.3252 0.83705 0.0
C1726 C 0.74763 0.31331 0.83179 0.0
C1727 C 0.73404 0.34505 0.83407 0.0
C1728 C 0.71896 0.35843 0.84027 0.0
C1729 C 0.71212 0.35802 0.85905 0.0
C1730 C 0.69784 0.37057 0.86479 0.0
C1731 C 0.69033 0.38368 0.8519 0.0
C1732 C 0.69712 0.38429 0.83326 0.0
C1733 C 0.7114 0.37176 0.82744 0.0
H1734 H 0.67926 0.39338 0.85638 0.0
H1735 H 0.81719 0.27145 0.79898 0.0
H1736 H 0.22208 0.79614 0.62272 0.0
H1737 H 0.20396 0.7672 0.62898 0.0
H1738 H 0.16899 0.79775 0.66903 0.0
H1739 H 0.18663 0.82679 0.66244 0.0
H1740 H 0.20388 0.74959 0.66109 0.0
H1741 H 0.12698 0.77668 0.67617 0.0
H1742 H 0.10439 0.80014 0.66324 0.0
H1743 H 0.13255 0.79797 0.60916 0.0
H1744 H 0.15514 0.77429 0.62166 0.0
H1745 H 0.13139 0.70516 0.72682 0.0
H1746 H 0.14003 0.73121 0.70563 0.0
H1747 H 0.16578 0.69136 0.66683 0.0
H1748 H 0.15748 0.66517 0.6881 0.0
H1749 H 0.13426 0.74156 0.66846 0.0
H1750 H 0.20764 0.71087 0.65162 0.0
H1751 H 0.23057 0.68759 0.6644 0.0
H1752 H 0.20983 0.69773 0.72089 0.0
H1753 H 0.18698 0.72123 0.70848 0.0
C1754 C 0.21025 0.79679 0.63253 0.0
C1755 C 0.2059 0.81374 0.64221 0.0
C1756 C 0.19991 0.78023 0.6361 0.0
C1757 C 0.18506 0.78026 0.64944 0.0
C1758 C 0.18012 0.79739 0.65841 0.0
C1759 C 0.19032 0.814 0.65471 0.0
C1760 C 0.17641 0.76209 0.65579 0.0
C1761 C 0.18862 0.74768 0.66219 0.0
C1762 C 0.15652 0.75967 0.65763 0.0
C1763 C 0.14285 0.77378 0.64992 0.0
C1764 C 0.1283 0.78112 0.66149 0.0
C1765 C 0.1155 0.79448 0.65424 0.0
C1766 C 0.11707 0.80058 0.63541 0.0
C1767 C 0.1314 0.79329 0.62377 0.0
C1768 C 0.14422 0.77991 0.63094 0.0
C1769 C 0.13863 0.70186 0.71364 0.0
C1770 C 0.14403 0.6831 0.70932 0.0
C1771 C 0.14346 0.71678 0.70149 0.0
C1772 C 0.15379 0.71324 0.68481 0.0
C1773 C 0.15803 0.69441 0.67978 0.0
C1774 C 0.15326 0.67947 0.69196 0.0
C1775 C 0.16178 0.72939 0.67392 0.0
C1776 C 0.14947 0.7434 0.66682 0.0
C1777 C 0.18161 0.73148 0.67136 0.0
C1778 C 0.19546 0.7176 0.67908 0.0
C1779 C 0.20802 0.70815 0.66678 0.0
C1780 C 0.221 0.69493 0.67395 0.0
C1781 C 0.2216 0.69113 0.69344 0.0
C1782 C 0.2093 0.70062 0.7058 0.0
C1783 C 0.19632 0.71388 0.6987 0.0
H1784 H 0.23164 0.68086 0.69894 0.0
H1785 H 0.10715 0.81093 0.62983 0.0
H1786 H 0.70178 0.72215 0.13445 0.0
H1787 H 0.72864 0.70196 0.14297 0.0
H1788 H 0.69137 0.66574 0.17546 0.0
H1789 H 0.66442 0.68598 0.16719 0.0
H1790 H 0.72034 0.67856 0.19635 0.0
H1791 H 0.71362 0.64901 0.1357 0.0
H1792 H 0.71006 0.64771 0.10087 0.0
H1793 H 0.76396 0.6754 0.09399 0.0
H1794 H 0.76774 0.67711 0.12879 0.0
H1795 H 0.7966 0.62424 0.22895 0.0
H1796 H 0.76767 0.6304 0.21082 0.0
H1797 H 0.79788 0.67067 0.17588 0.0
H1798 H 0.82699 0.66437 0.19369 0.0
H1799 H 0.77086 0.6514 0.15534 0.0
H1800 H 0.77496 0.68623 0.21415 0.0
H1801 H 0.77908 0.68982 0.24873 0.0
H1802 H 0.73034 0.65447 0.25855 0.0
H1803 H 0.72608 0.65048 0.22394 0.0
C1804 C 0.6992 0.70968 0.14309 0.0
C1805 C 0.68098 0.70582 0.15033 0.0
C1806 C 0.71457 0.69807 0.14784 0.0
C1807 C 0.71199 0.68231 0.1598 0.0
C1808 C 0.69366 0.67784 0.1662 0.0
C1809 C 0.67827 0.68943 0.16146 0.0
C1810 C 0.72869 0.67212 0.16759 0.0
C1811 C 0.73113 0.67216 0.18737 0.0
C1812 C 0.74306 0.66437 0.15585 0.0
C1813 C 0.74089 0.6633 0.13489 0.0
C1814 C 0.72465 0.65495 0.12677 0.0
C1815 C 0.72261 0.65412 0.10703 0.0
C1816 C 0.73676 0.6615 0.09523 0.0
C1817 C 0.75301 0.66969 0.10315 0.0
C1818 C 0.75512 0.67057 0.12289 0.0
C1819 C 0.79721 0.63414 0.21717 0.0
C1820 C 0.81403 0.64408 0.21298 0.0
C1821 C 0.78066 0.63762 0.20682 0.0
C1822 C 0.78057 0.65124 0.19225 0.0
C1823 C 0.79764 0.66013 0.1871 0.0
C1824 C 0.81425 0.65657 0.19738 0.0
C1825 C 0.76239 0.65791 0.18401 0.0
C1826 C 0.75979 0.65738 0.16424 0.0
C1827 C 0.74788 0.66547 0.1957 0.0
C1828 C 0.75035 0.66787 0.21649 0.0
C1829 C 0.76522 0.6791 0.22369 0.0
C1830 C 0.76756 0.68123 0.2433 0.0
C1831 C 0.75502 0.67232 0.25585 0.0
C1832 C 0.74007 0.66132 0.24881 0.0
C1833 C 0.73768 0.65913 0.2292 0.0
H1834 H 0.75685 0.674 0.27102 0.0
H1835 H 0.73515 0.66084 0.07994 0.0
H1836 H 0.77817 0.2026 0.62799 0.0
H1837 H 0.79877 0.22909 0.63665 0.0
H1838 H 0.83349 0.19134 0.6702 0.0
H1839 H 0.81289 0.16473 0.66174 0.0
H1840 H 0.82028 0.22079 0.69063 0.0
H1841 H 0.85191 0.21289 0.63128 0.0
H1842 H 0.85458 0.20892 0.59658 0.0
H1843 H 0.8282 0.26327 0.58798 0.0
H1844 H 0.82511 0.26746 0.62264 0.0
H1845 H 0.87486 0.29635 0.72431 0.0
H1846 H 0.86877 0.2674 0.70621 0.0
H1847 H 0.83007 0.29804 0.6699 0.0
H1848 H 0.83629 0.32719 0.68771 0.0
H1849 H 0.84972 0.27046 0.65015 0.0
H1850 H 0.81301 0.27581 0.70773 0.0
H1851 H 0.80837 0.28033 0.74216 0.0
H1852 H 0.84231 0.2309 0.75353 0.0
H1853 H 0.84736 0.22625 0.71911 0.0
C1854 C 0.79042 0.19982 0.63688 0.0
C1855 C 0.79373 0.18158 0.64437 0.0
C1856 C 0.80227 0.21498 0.64171 0.0
C1857 C 0.81767 0.21217 0.65405 0.0
C1858 C 0.82167 0.19379 0.66066 0.0
C1859 C 0.80986 0.1786 0.65579 0.0
C1860 C 0.8279 0.22874 0.66205 0.0
C1861 C 0.82717 0.23138 0.68179 0.0
C1862 C 0.83631 0.24286 0.65046 0.0
C1863 C 0.83816 0.24042 0.62959 0.0
C1864 C 0.84653 0.22393 0.622 0.0
C1865 C 0.84815 0.22166 0.60233 0.0
C1866 C 0.84153 0.23582 0.59008 0.0
C1867 C 0.83331 0.25231 0.59749 0.0
C1868 C 0.83165 0.25465 0.61715 0.0
C1869 C 0.86533 0.29705 0.71224 0.0
C1870 C 0.85579 0.31401 0.70767 0.0
C1871 C 0.86189 0.28048 0.70191 0.0
C1872 C 0.84871 0.28053 0.68695 0.0
C1873 C 0.84026 0.29772 0.68143 0.0
C1874 C 0.84377 0.31434 0.6917 0.0
C1875 C 0.84201 0.26239 0.67864 0.0
C1876 C 0.84324 0.25958 0.65894 0.0
C1877 C 0.83381 0.24812 0.6902 0.0
C1878 C 0.83075 0.25082 0.71088 0.0
C1879 C 0.81961 0.266 0.71759 0.0
C1880 C 0.81689 0.26857 0.73709 0.0
C1881 C 0.8251 0.25594 0.75004 0.0
C1882 C 0.836 0.24069 0.74349 0.0
C1883 C 0.83879 0.23808 0.72398 0.0
H1884 H 0.82296 0.25795 0.76513 0.0
H1885 H 0.8428 0.23403 0.57486 0.0
H1886 H 0.20312 0.36813 0.22648 0.0
H1887 H 0.22936 0.36017 0.20532 0.0
H1888 H 0.19043 0.33195 0.16731 0.0
H1889 H 0.16408 0.33959 0.18857 0.0
H1890 H 0.21845 0.30912 0.17735 0.0
H1891 H 0.21446 0.37226 0.15344 0.0
H1892 H 0.21235 0.40719 0.15507 0.0
H1893 H 0.26649 0.40947 0.18307 0.0
H1894 H 0.26881 0.37453 0.18186 0.0
H1895 H 0.29503 0.27756 0.12257 0.0
H1896 H 0.26649 0.29625 0.12903 0.0
H1897 H 0.29658 0.32753 0.17229 0.0
H1898 H 0.3253 0.30926 0.16564 0.0
H1899 H 0.27097 0.3501 0.15431 0.0
H1900 H 0.27182 0.28787 0.18374 0.0
H1901 H 0.27415 0.25289 0.18381 0.0
H1902 H 0.2257 0.24931 0.1469 0.0
H1903 H 0.22325 0.28431 0.14642 0.0
C1904 C 0.20005 0.36056 0.21343 0.0
C1905 C 0.18153 0.35429 0.20934 0.0
C1906 C 0.21508 0.35614 0.20126 0.0
C1907 C 0.21185 0.34552 0.18468 0.0
C1908 C 0.19323 0.34016 0.18003 0.0
C1909 C 0.17819 0.34453 0.19222 0.0
C1910 C 0.22813 0.33795 0.17365 0.0
C1911 C 0.22968 0.31815 0.17185 0.0
C1912 C 0.24304 0.34968 0.16696 0.0
C1913 C 0.24175 0.37073 0.16766 0.0
C1914 C 0.22585 0.38019 0.16007 0.0
C1915 C 0.22463 0.4 0.1609 0.0
C1916 C 0.23926 0.41054 0.16919 0.0
C1917 C 0.25516 0.40129 0.17665 0.0
C1918 C 0.25646 0.38147 0.17587 0.0
C1919 C 0.2957 0.28869 0.13319 0.0
C1920 C 0.31234 0.29169 0.14384 0.0
C1921 C 0.27937 0.29935 0.13685 0.0
C1922 C 0.27932 0.31299 0.15141 0.0
C1923 C 0.2963 0.31703 0.16104 0.0
C1924 C 0.31269 0.30649 0.15727 0.0
C1925 C 0.26124 0.32136 0.15822 0.0
C1926 C 0.25946 0.3412 0.15937 0.0
C1927 C 0.2461 0.30971 0.1645 0.0
C1928 C 0.2475 0.28869 0.16486 0.0
C1929 C 0.26175 0.27962 0.17553 0.0
C1930 C 0.26308 0.2598 0.17566 0.0
C1931 C 0.25012 0.24889 0.16532 0.0
C1932 C 0.23576 0.25778 0.15487 0.0
C1933 C 0.23439 0.27761 0.15467 0.0
H1934 H 0.25116 0.23354 0.16544 0.0
H1935 H 0.23828 0.42588 0.16983 0.0
H1936 H 0.36593 0.22732 0.20647 0.0
H1937 H 0.35765 0.20603 0.23252 0.0
H1938 H 0.32947 0.16849 0.1931 0.0
H1939 H 0.33744 0.18988 0.16694 0.0
H1940 H 0.30662 0.17829 0.22134 0.0
H1941 H 0.3698 0.15439 0.2169 0.0
H1942 H 0.40471 0.15613 0.21484 0.0
H1943 H 0.4069 0.18331 0.26942 0.0
H1944 H 0.37197 0.18198 0.27171 0.0
H1945 H 0.27522 0.12167 0.29663 0.0
H1946 H 0.29374 0.129 0.2682 0.0
H1947 H 0.32528 0.1712 0.29952 0.0
H1948 H 0.30719 0.16362 0.32813 0.0
H1949 H 0.34767 0.15418 0.27335 0.0
H1950 H 0.28547 0.18342 0.27504 0.0
H1951 H 0.25051 0.18347 0.27742 0.0
H1952 H 0.24682 0.14795 0.22793 0.0
H1953 H 0.28179 0.1475 0.22542 0.0
C1954 C 0.35828 0.21436 0.20325 0.0
C1955 C 0.35217 0.21042 0.18463 0.0
C1956 C 0.35367 0.20212 0.21817 0.0
C1957 C 0.34301 0.18561 0.21475 0.0
C1958 C 0.33772 0.18115 0.19605 0.0
C1959 C 0.34229 0.1934 0.18111 0.0
C1960 C 0.33544 0.17439 0.23091 0.0
C1961 C 0.31566 0.17258 0.23245 0.0
C1962 C 0.34719 0.16743 0.24568 0.0
C1963 C 0.36823 0.16819 0.24441 0.0
C1964 C 0.3777 0.16087 0.22841 0.0
C1965 C 0.39751 0.16176 0.22721 0.0
C1966 C 0.40802 0.16985 0.24198 0.0
C1967 C 0.39874 0.17704 0.25799 0.0
C1968 C 0.37894 0.1762 0.25926 0.0
C1969 C 0.28637 0.13223 0.29759 0.0
C1970 C 0.2895 0.1423 0.31456 0.0
C1971 C 0.29693 0.13641 0.28132 0.0
C1972 C 0.31059 0.15094 0.28165 0.0
C1973 C 0.31476 0.15998 0.29893 0.0
C1974 C 0.30433 0.15568 0.31526 0.0
C1975 C 0.31892 0.15827 0.26374 0.0
C1976 C 0.33874 0.15949 0.26196 0.0
C1977 C 0.30725 0.16489 0.24875 0.0
C1978 C 0.28623 0.16523 0.25019 0.0
C1979 C 0.2772 0.17551 0.26476 0.0
C1980 C 0.25739 0.17563 0.26612 0.0
C1981 C 0.24645 0.16567 0.25287 0.0
C1982 C 0.25531 0.15562 0.23821 0.0
C1983 C 0.27512 0.15543 0.2368 0.0
H1984 H 0.23112 0.16578 0.25395 0.0
H1985 H 0.42335 0.17053 0.24102 0.0
H1986 H 0.33198 0.8106 0.83378 0.0
H1987 H 0.32215 0.83134 0.80773 0.0
H1988 H 0.3536 0.79675 0.7681 0.0
H1989 H 0.36374 0.77608 0.79406 0.0
H1990 H 0.35507 0.83472 0.7586 0.0
H1991 H 0.30766 0.78787 0.77533 0.0
H1992 H 0.28601 0.77112 0.79722 0.0
H1993 H 0.25735 0.82359 0.80949 0.0
H1994 H 0.27902 0.84069 0.78785 0.0
H1995 H 0.30247 0.84023 0.67269 0.0
H1996 H 0.32062 0.83326 0.70137 0.0
H1997 H 0.28277 0.86866 0.73413 0.0
H1998 H 0.26429 0.87542 0.70556 0.0
H1999 H 0.28523 0.83459 0.74913 0.0
H2000 H 0.3301 0.88053 0.7278 0.0
H2001 H 0.35161 0.89643 0.70519 0.0
H2002 H 0.38492 0.84552 0.70059 0.0
H2003 H 0.36345 0.82921 0.72297 0.0
C2004 C 0.33711 0.80759 0.81958 0.0
C2005 C 0.3484 0.79149 0.81596 0.0
C2006 C 0.33147 0.81947 0.80471 0.0
C2007 C 0.33689 0.81538 0.78596 0.0
C2008 C 0.34923 0.80013 0.78247 0.0
C2009 C 0.35493 0.78826 0.79734 0.0
C2010 C 0.32811 0.82563 0.7698 0.0
C2011 C 0.33982 0.8347 0.75644 0.0
C2012 C 0.30818 0.82586 0.76723 0.0
C2013 C 0.29509 0.81559 0.78017 0.0
C2014 C 0.29683 0.79585 0.78282 0.0
C2015 C 0.28455 0.78629 0.79516 0.0
C2016 C 0.27036 0.79629 0.80479 0.0
C2017 C 0.26838 0.81587 0.80205 0.0
C2018 C 0.28065 0.8255 0.78975 0.0
C2019 C 0.29822 0.84687 0.6859 0.0
C2020 C 0.28178 0.8582 0.68686 0.0
C2021 C 0.30871 0.84296 0.7023 0.0
C2022 C 0.3031 0.85047 0.71992 0.0
C2023 C 0.28734 0.86267 0.7207 0.0
C2024 C 0.27679 0.86652 0.70434 0.0
C2025 C 0.31216 0.84371 0.73772 0.0
C2026 C 0.30048 0.83509 0.75139 0.0
C2027 C 0.33209 0.84384 0.74044 0.0
C2028 C 0.34507 0.8536 0.72698 0.0
C2029 C 0.34192 0.87267 0.72186 0.0
C2030 C 0.35413 0.88177 0.7091 0.0
C2031 C 0.36961 0.87198 0.70143 0.0
C2032 C 0.37293 0.85308 0.70654 0.0
C2033 C 0.36076 0.84391 0.71928 0.0
H2034 H 0.37904 0.87905 0.69156 0.0
H2035 H 0.26085 0.78887 0.81433 0.0
H2036 H 0.72276 0.8745 0.29729 0.0
H2037 H 0.70308 0.86803 0.26946 0.0
H2038 H 0.67058 0.82736 0.30185 0.0
H2039 H 0.68988 0.83405 0.32982 0.0
H2040 H 0.70257 0.83517 0.25225 0.0
H2041 H 0.62708 0.82061 0.28276 0.0
H2042 H 0.60577 0.83339 0.30746 0.0
H2043 H 0.63391 0.88742 0.30427 0.0
H2044 H 0.65521 0.87507 0.27936 0.0
H2045 H 0.62825 0.7707 0.20972 0.0
H2046 H 0.63718 0.79174 0.23581 0.0
H2047 H 0.66225 0.83088 0.19587 0.0
H2048 H 0.65372 0.80977 0.16968 0.0
H2049 H 0.63256 0.82884 0.24722 0.0
H2050 H 0.70518 0.84412 0.21337 0.0
H2051 H 0.72686 0.83052 0.18938 0.0
H2052 H 0.70499 0.77471 0.2008 0.0
H2053 H 0.68339 0.78795 0.22502 0.0
C2054 C 0.71117 0.86447 0.29861 0.0
C2055 C 0.70802 0.85464 0.31573 0.0
C2056 C 0.69992 0.8608 0.28269 0.0
C2057 C 0.68532 0.84726 0.28355 0.0
C2058 C 0.68154 0.83812 0.30089 0.0
C2059 C 0.6927 0.84187 0.31687 0.0
C2060 C 0.67574 0.84087 0.26589 0.0
C2061 C 0.68723 0.83429 0.25099 0.0
C2062 C 0.65575 0.83921 0.26442 0.0
C2063 C 0.64285 0.84684 0.27927 0.0
C2064 C 0.62866 0.83525 0.28725 0.0
C2065 C 0.6166 0.84241 0.30131 0.0
C2066 C 0.61852 0.86119 0.30747 0.0
C2067 C 0.63248 0.87286 0.29954 0.0
C2068 C 0.64458 0.86577 0.28547 0.0
C2069 C 0.63533 0.78396 0.20642 0.0
C2070 C 0.64062 0.78837 0.18765 0.0
C2071 C 0.64033 0.79602 0.22136 0.0
C2072 C 0.65067 0.81268 0.21779 0.0
C2073 C 0.65453 0.81792 0.19894 0.0
C2074 C 0.64964 0.80582 0.18399 0.0
C2075 C 0.65945 0.82312 0.23382 0.0
C2076 C 0.64786 0.83025 0.2484 0.0
C2077 C 0.67939 0.82525 0.23512 0.0
C2078 C 0.69252 0.81707 0.2208 0.0
C2079 C 0.70505 0.82894 0.21078 0.0
C2080 C 0.71731 0.8213 0.19715 0.0
C2081 C 0.71724 0.80177 0.19351 0.0
C2082 C 0.70497 0.78984 0.20357 0.0
C2083 C 0.69271 0.79741 0.21724 0.0
H2084 H 0.72673 0.79589 0.18293 0.0
H2085 H 0.60917 0.86671 0.31836 0.0
H2086 H 0.72766 0.1237 0.7036 0.0
H2087 H 0.70854 0.13076 0.73169 0.0
H2088 H 0.67477 0.17005 0.6989 0.0
H2089 H 0.69357 0.16284 0.6707 0.0
H2090 H 0.70777 0.16442 0.74795 0.0
H2091 H 0.63132 0.17599 0.71864 0.0
H2092 H 0.60987 0.16187 0.6948 0.0
H2093 H 0.63953 0.10872 0.69908 0.0
H2094 H 0.66099 0.12242 0.72313 0.0
H2095 H 0.6315 0.22748 0.79018 0.0
H2096 H 0.6413 0.20633 0.7645 0.0
H2097 H 0.66854 0.16936 0.80509 0.0
H2098 H 0.65909 0.19059 0.8309 0.0
H2099 H 0.63772 0.16894 0.75432 0.0
H2100 H 0.71159 0.15681 0.7869 0.0
H2101 H 0.7334 0.17177 0.80994 0.0
H2102 H 0.70937 0.22649 0.79761 0.0
H2103 H 0.68763 0.21189 0.77433 0.0
C2104 C 0.71591 0.13355 0.70225 0.0
C2105 C 0.71227 0.14285 0.68493 0.0
C2106 C 0.705 0.13756 0.71833 0.0
C2107 C 0.6902 0.15089 0.71741 0.0
C2108 C 0.68591 0.15948 0.69991 0.0
C2109 C 0.69677 0.15542 0.6838 0.0
C2110 C 0.68084 0.15759 0.73508 0.0
C2111 C 0.69244 0.16493 0.74953 0.0
C2112 C 0.66084 0.15873 0.73693 0.0
C2113 C 0.64787 0.1503 0.7226 0.0
C2114 C 0.63321 0.16126 0.71457 0.0
C2115 C 0.62106 0.15334 0.701 0.0
C2116 C 0.62337 0.13443 0.69539 0.0
C2117 C 0.63781 0.12339 0.70338 0.0
C2118 C 0.64999 0.13124 0.71696 0.0
C2119 C 0.6393 0.21468 0.79373 0.0
C2120 C 0.64481 0.21091 0.81257 0.0
C2121 C 0.64479 0.20255 0.77901 0.0
C2122 C 0.6559 0.18646 0.78287 0.0
C2123 C 0.6602 0.18187 0.8018 0.0
C2124 C 0.65477 0.19403 0.81653 0.0
C2125 C 0.6647 0.17582 0.76697 0.0
C2126 C 0.65303 0.16793 0.75285 0.0
C2127 C 0.68467 0.17423 0.7653 0.0
C2128 C 0.69783 0.18321 0.77908 0.0
C2129 C 0.71101 0.17203 0.78909 0.0
C2130 C 0.72335 0.18045 0.80218 0.0
C2131 C 0.72272 0.20006 0.80529 0.0
C2132 C 0.7098 0.2113 0.79525 0.0
C2133 C 0.69745 0.20296 0.78212 0.0
H2134 H 0.73227 0.20654 0.81545 0.0
H2135 H 0.61395 0.12833 0.68488 0.0
H2136 H 0.8084 0.82458 0.6563 0.0
H2137 H 0.82672 0.79583 0.66234 0.0
H2138 H 0.78927 0.76405 0.62564 0.0
H2139 H 0.77055 0.79271 0.61989 0.0
H2140 H 0.79133 0.74791 0.65877 0.0
H2141 H 0.83719 0.7706 0.61479 0.0
H2142 H 0.85895 0.7936 0.59982 0.0
H2143 H 0.89105 0.79737 0.65156 0.0
H2144 H 0.86932 0.7746 0.66695 0.0
H2145 H 0.83818 0.66381 0.68422 0.0
H2146 H 0.82944 0.68966 0.66275 0.0
H2147 H 0.85769 0.72985 0.69938 0.0
H2148 H 0.86669 0.7041 0.72084 0.0
H2149 H 0.86125 0.73925 0.66101 0.0
H2150 H 0.81192 0.72164 0.70588 0.0
H2151 H 0.78997 0.69918 0.72143 0.0
H2152 H 0.76426 0.68659 0.66754 0.0
H2153 H 0.78627 0.7088 0.65164 0.0
C2154 C 0.80429 0.81158 0.64915 0.0
C2155 C 0.78786 0.81089 0.63781 0.0
C2156 C 0.81488 0.79514 0.65253 0.0
C2157 C 0.80942 0.77776 0.6444 0.0
C2158 C 0.79373 0.7773 0.6321 0.0
C2159 C 0.78304 0.7937 0.62883 0.0
C2160 C 0.81843 0.75979 0.65081 0.0
C2161 C 0.80661 0.74583 0.65875 0.0
C2162 C 0.83838 0.75725 0.65125 0.0
C2163 C 0.85153 0.77096 0.64206 0.0
C2164 C 0.8488 0.77644 0.62303 0.0
C2165 C 0.86115 0.78942 0.61446 0.0
C2166 C 0.87635 0.79696 0.62474 0.0
C2167 C 0.87926 0.79151 0.64361 0.0
C2168 C 0.86695 0.77854 0.65226 0.0
C2169 C 0.84288 0.67808 0.68754 0.0
C2170 C 0.85285 0.68194 0.70444 0.0
C2171 C 0.83789 0.69283 0.67523 0.0
C2172 C 0.84267 0.71167 0.67965 0.0
C2173 C 0.85384 0.71539 0.69573 0.0
C2174 C 0.85887 0.70066 0.70805 0.0
C2175 C 0.83411 0.72766 0.669 0.0
C2176 C 0.84598 0.74123 0.66048 0.0
C2177 C 0.81417 0.72995 0.668 0.0
C2178 C 0.80088 0.71668 0.67755 0.0
C2179 C 0.80169 0.71396 0.69734 0.0
C2180 C 0.78922 0.7013 0.70621 0.0
C2181 C 0.77577 0.69141 0.69547 0.0
C2182 C 0.77472 0.69422 0.67583 0.0
C2183 C 0.78718 0.70684 0.66689 0.0
H2184 H 0.76613 0.68162 0.70237 0.0
H2185 H 0.8859 0.80701 0.61808 0.0
H2186 H 0.70517 0.26543 0.13696 0.0
H2187 H 0.73199 0.285 0.147 0.0
H2188 H 0.69429 0.3323 0.15657 0.0
H2189 H 0.66718 0.31271 0.14688 0.0
H2190 H 0.73547 0.33941 0.13929 0.0
H2191 H 0.6991 0.31315 0.19269 0.0
H2192 H 0.68294 0.28669 0.20904 0.0
H2193 H 0.73478 0.25451 0.20889 0.0
H2194 H 0.75118 0.28073 0.19229 0.0
H2195 H 0.78967 0.36526 0.23319 0.0
H2196 H 0.76176 0.3566 0.21454 0.0
H2197 H 0.79788 0.33767 0.16881 0.0
H2198 H 0.82599 0.34618 0.18742 0.0
H2199 H 0.75575 0.31902 0.20373 0.0
H2200 H 0.77086 0.34368 0.1268 0.0
H2201 H 0.78691 0.36998 0.11009 0.0
H2202 H 0.77742 0.4066 0.15797 0.0
H2203 H 0.76109 0.38061 0.17485 0.0
C2204 C 0.70259 0.28013 0.1407 0.0
C2205 C 0.68401 0.28746 0.14136 0.0
C2206 C 0.71795 0.29129 0.14639 0.0
C2207 C 0.71502 0.31 0.15253 0.0
C2208 C 0.69676 0.31788 0.15175 0.0
C2209 C 0.68131 0.30664 0.14634 0.0
C2210 C 0.73042 0.32012 0.16248 0.0
C2211 C 0.73996 0.33506 0.15338 0.0
C2212 C 0.73603 0.31444 0.18089 0.0
C2213 C 0.7263 0.2988 0.19111 0.0
C2214 C 0.707 0.30037 0.19602 0.0
C2215 C 0.69781 0.28543 0.20535 0.0
C2216 C 0.70782 0.26892 0.20999 0.0
C2217 C 0.72705 0.26731 0.2053 0.0
C2218 C 0.7363 0.28221 0.19595 0.0
C2219 C 0.79173 0.35961 0.21902 0.0
C2220 C 0.81008 0.35621 0.21188 0.0
C2221 C 0.77575 0.35466 0.2084 0.0
C2222 C 0.77779 0.34647 0.19035 0.0
C2223 C 0.79603 0.3441 0.18268 0.0
C2224 C 0.81207 0.3489 0.19337 0.0
C2225 C 0.76103 0.33842 0.1806 0.0
C2226 C 0.75127 0.32362 0.18971 0.0
C2227 C 0.75528 0.34432 0.16224 0.0
C2228 C 0.76492 0.36012 0.15216 0.0
C2229 C 0.77214 0.35736 0.13373 0.0
C2230 C 0.78129 0.37222 0.12423 0.0
C2231 C 0.78324 0.38993 0.13299 0.0
C2232 C 0.77598 0.39285 0.15124 0.0
C2233 C 0.76681 0.37804 0.16079 0.0
H2234 H 0.79033 0.40141 0.12561 0.0
H2235 H 0.70068 0.25739 0.21724 0.0
H2236 H 0.14936 0.29026 0.73429 0.0
H2237 H 0.15956 0.26504 0.713 0.0
H2238 H 0.1542 0.3031 0.66512 0.0
H2239 H 0.14526 0.32889 0.68677 0.0
H2240 H 0.14741 0.24565 0.68641 0.0
H2241 H 0.18575 0.29185 0.63083 0.0
H2242 H 0.20098 0.32333 0.62805 0.0
H2243 H 0.21367 0.32277 0.68774 0.0
H2244 H 0.1987 0.29122 0.69081 0.0
H2245 H 0.19043 0.17625 0.62892 0.0
H2246 H 0.17172 0.20468 0.63631 0.0
H2247 H 0.22239 0.23241 0.65704 0.0
H2248 H 0.24117 0.20474 0.64832 0.0
H2249 H 0.20212 0.25786 0.64374 0.0
H2250 H 0.18879 0.20557 0.68641 0.0
H2251 H 0.17817 0.17323 0.69485 0.0
H2252 H 0.12328 0.18471 0.67081 0.0
H2253 H 0.13367 0.21706 0.66205 0.0
C2254 C 0.15017 0.29322 0.7192 0.0
C2255 C 0.14671 0.31157 0.71219 0.0
C2256 C 0.15596 0.27874 0.70698 0.0
C2257 C 0.15801 0.28215 0.68741 0.0
C2258 C 0.15328 0.3002 0.6802 0.0
C2259 C 0.14804 0.31489 0.69255 0.0
C2260 C 0.16618 0.26702 0.67505 0.0
C2261 C 0.1593 0.24839 0.67698 0.0
C2262 C 0.18178 0.27042 0.66277 0.0
C2263 C 0.19087 0.28933 0.66107 0.0
C2264 C 0.19181 0.29846 0.64334 0.0
C2265 C 0.2004 0.3163 0.64172 0.0
C2266 C 0.20822 0.32508 0.65772 0.0
C2267 C 0.20754 0.31599 0.67537 0.0
C2268 C 0.199 0.29814 0.67706 0.0
C2269 C 0.19757 0.18863 0.63462 0.0
C2270 C 0.2172 0.18828 0.63819 0.0
C2271 C 0.18687 0.20482 0.63899 0.0
C2272 C 0.19549 0.22056 0.64778 0.0
C2273 C 0.2153 0.22053 0.6503 0.0
C2274 C 0.22606 0.20464 0.64535 0.0
C2275 C 0.18402 0.23638 0.65593 0.0
C2276 C 0.19007 0.25517 0.65296 0.0
C2277 C 0.16834 0.23301 0.66813 0.0
C2278 C 0.16207 0.2136 0.67336 0.0
C2279 C 0.17449 0.20113 0.68283 0.0
C2280 C 0.16851 0.18282 0.68768 0.0
C2281 C 0.15008 0.1769 0.68331 0.0
C2282 C 0.13757 0.1893 0.67414 0.0
C2283 C 0.14349 0.20762 0.66923 0.0
H2284 H 0.14547 0.16272 0.68708 0.0
H2285 H 0.21484 0.3389 0.65644 0.0
H2286 H 0.19881 0.61978 0.21584 0.0
H2287 H 0.22745 0.62562 0.19714 0.0
H2288 H 0.19888 0.6709 0.16728 0.0
H2289 H 0.17003 0.66486 0.18555 0.0
H2290 H 0.22443 0.65272 0.14428 0.0
H2291 H 0.223 0.67986 0.2078 0.0
H2292 H 0.22003 0.678 0.24267 0.0
H2293 H 0.26809 0.6405 0.2451 0.0
H2294 H 0.27111 0.64184 0.21017 0.0
H2295 H 0.29253 0.72493 0.12931 0.0
H2296 H 0.26628 0.70345 0.13623 0.0
H2297 H 0.30486 0.66506 0.16447 0.0
H2298 H 0.3312 0.68668 0.15794 0.0
H2299 H 0.27649 0.67391 0.18683 0.0
H2300 H 0.28148 0.65202 0.12322 0.0
H2301 H 0.28424 0.65443 0.08838 0.0
H2302 H 0.23019 0.6826 0.0857 0.0
H2303 H 0.22722 0.68062 0.12056 0.0
C2304 C 0.19847 0.63069 0.20498 0.0
C2305 C 0.18228 0.64213 0.20245 0.0
C2306 C 0.21485 0.63399 0.19429 0.0
C2307 C 0.2154 0.64897 0.18114 0.0
C2308 C 0.19877 0.65931 0.17742 0.0
C2309 C 0.18231 0.65589 0.18796 0.0
C2310 C 0.23374 0.65563 0.17327 0.0
C2311 C 0.23586 0.65737 0.15351 0.0
C2312 C 0.24877 0.66131 0.18536 0.0
C2313 C 0.24714 0.66076 0.20638 0.0
C2314 C 0.23286 0.67113 0.21577 0.0
C2315 C 0.23117 0.67018 0.23554 0.0
C2316 C 0.24384 0.65911 0.24609 0.0
C2317 C 0.25826 0.64903 0.2369 0.0
C2318 C 0.25996 0.64986 0.21712 0.0
C2319 C 0.29553 0.71175 0.13667 0.0
C2320 C 0.31393 0.70765 0.14328 0.0
C2321 C 0.28049 0.69939 0.14049 0.0
C2322 C 0.2836 0.68259 0.1508 0.0
C2323 C 0.30214 0.67795 0.1565 0.0
C2324 C 0.31718 0.69035 0.15276 0.0
C2325 C 0.26723 0.67129 0.15774 0.0
C2326 C 0.26537 0.66882 0.17743 0.0
C2327 C 0.25249 0.66505 0.14555 0.0
C2328 C 0.25418 0.66626 0.12455 0.0
C2329 C 0.27024 0.65886 0.11522 0.0
C2330 C 0.27183 0.66013 0.09546 0.0
C2331 C 0.25741 0.66869 0.08483 0.0
C2332 C 0.24135 0.67597 0.09395 0.0
C2333 C 0.23969 0.67475 0.11371 0.0
H2334 H 0.25867 0.66965 0.06953 0.0
H2335 H 0.2425 0.65837 0.2614 0.0
H2336 H 0.87391 0.29516 0.2686 0.0
H2337 H 0.86805 0.26624 0.28686 0.0
H2338 H 0.83406 0.29808 0.32669 0.0
H2339 H 0.84008 0.32716 0.30871 0.0
H2340 H 0.85393 0.26933 0.34439 0.0
H2341 H 0.813 0.2773 0.28992 0.0
H2342 H 0.80588 0.28235 0.25597 0.0
H2343 H 0.83612 0.23129 0.24173 0.0
H2344 H 0.84365 0.2261 0.2756 0.0
H2345 H 0.78049 0.2052 0.37137 0.0
H2346 H 0.80194 0.23062 0.36153 0.0
H2347 H 0.83202 0.19141 0.32528 0.0
H2348 H 0.8106 0.16589 0.33496 0.0
H2349 H 0.81868 0.22179 0.30607 0.0
H2350 H 0.85458 0.21142 0.36243 0.0
H2351 H 0.86003 0.20682 0.39672 0.0
H2352 H 0.83756 0.26239 0.4081 0.0
H2353 H 0.8317 0.26724 0.37388 0.0
C2354 C 0.86551 0.29611 0.28146 0.0
C2355 C 0.85717 0.31341 0.28701 0.0
C2356 C 0.86219 0.27956 0.29188 0.0
C2357 C 0.85034 0.27998 0.30791 0.0
C2358 C 0.84321 0.29746 0.31433 0.0
C2359 C 0.8466 0.31405 0.30396 0.0
C2360 C 0.84348 0.26206 0.31656 0.0
C2361 C 0.84618 0.25892 0.33608 0.0
C2362 C 0.83364 0.24837 0.30561 0.0
C2363 C 0.82909 0.25144 0.28525 0.0
C2364 C 0.81826 0.26724 0.27953 0.0
C2365 C 0.81413 0.27011 0.26031 0.0
C2366 C 0.8206 0.25718 0.24669 0.0
C2367 C 0.83116 0.24132 0.25229 0.0
C2368 C 0.83537 0.2384 0.27149 0.0
C2369 C 0.79193 0.20186 0.36164 0.0
C2370 C 0.79366 0.18357 0.35375 0.0
C2371 C 0.80427 0.21639 0.35611 0.0
C2372 C 0.81857 0.21289 0.34267 0.0
C2373 C 0.82107 0.19439 0.33567 0.0
C2374 C 0.8088 0.17983 0.34124 0.0
C2375 C 0.82901 0.22897 0.33399 0.0
C2376 C 0.82682 0.2319 0.3144 0.0
C2377 C 0.8391 0.24248 0.34496 0.0
C2378 C 0.84257 0.23963 0.36557 0.0
C2379 C 0.85064 0.2226 0.37225 0.0
C2380 C 0.85384 0.21996 0.39168 0.0
C2381 C 0.84911 0.23429 0.40458 0.0
C2382 C 0.84121 0.2513 0.39808 0.0
C2383 C 0.83797 0.25401 0.37866 0.0
H2384 H 0.85161 0.23222 0.41962 0.0
H2385 H 0.81737 0.25943 0.23182 0.0
H2386 H 0.16999 0.33493 0.81115 0.0
H2387 H 0.19799 0.32889 0.8305 0.0
H2388 H 0.23008 0.3688 0.79677 0.0
H2389 H 0.20217 0.3745 0.7769 0.0
H2390 H 0.24766 0.33666 0.79802 0.0
H2391 H 0.22041 0.37642 0.84522 0.0
H2392 H 0.19555 0.38893 0.86649 0.0
H2393 H 0.19226 0.33502 0.89489 0.0
H2394 H 0.21692 0.32209 0.87362 0.0
H2395 H 0.32985 0.31142 0.84751 0.0
H2396 H 0.30359 0.33261 0.83948 0.0
H2397 H 0.26371 0.29202 0.86219 0.0
H2398 H 0.28989 0.27077 0.87049 0.0
H2399 H 0.25232 0.3299 0.86806 0.0
H2400 H 0.27472 0.28935 0.81686 0.0
H2401 H 0.29922 0.27637 0.79541 0.0
H2402 H 0.31097 0.33247 0.77445 0.0
H2403 H 0.28671 0.3458 0.796 0.0
C2404 C 0.18287 0.34275 0.80806 0.0
C2405 C 0.1839 0.35503 0.79232 0.0
C2406 C 0.19888 0.33938 0.81927 0.0
C2407 C 0.21616 0.34846 0.81518 0.0
C2408 C 0.21691 0.36161 0.80018 0.0
C2409 C 0.20094 0.36485 0.78883 0.0
C2410 C 0.23387 0.34225 0.82482 0.0
C2411 C 0.24884 0.33572 0.81337 0.0
C2412 C 0.23528 0.34053 0.84484 0.0
C2413 C 0.22046 0.34825 0.85773 0.0
C2414 C 0.2143 0.36718 0.85591 0.0
C2415 C 0.20025 0.37436 0.86799 0.0
C2416 C 0.19231 0.36277 0.88201 0.0
C2417 C 0.19843 0.34399 0.88402 0.0
C2418 C 0.21246 0.33673 0.87197 0.0
C2419 C 0.31554 0.30715 0.85121 0.0
C2420 C 0.31193 0.28923 0.85931 0.0
C2421 C 0.30055 0.31931 0.84663 0.0
C2422 C 0.28172 0.31371 0.84995 0.0
C2423 C 0.27816 0.29657 0.85948 0.0
C2424 C 0.29315 0.2844 0.86412 0.0
C2425 C 0.26579 0.3243 0.8412 0.0
C2426 C 0.2512 0.33142 0.85276 0.0
C2427 C 0.26463 0.32661 0.82126 0.0
C2428 C 0.27909 0.31859 0.80819 0.0
C2429 C 0.28264 0.29892 0.80778 0.0
C2430 C 0.29646 0.2915 0.79559 0.0
C2431 C 0.30669 0.30359 0.78362 0.0
C2432 C 0.30307 0.32312 0.78376 0.0
C2433 C 0.28929 0.33062 0.79595 0.0
H2434 H 0.31738 0.29783 0.77419 0.0
H2435 H 0.18144 0.36835 0.89135 0.0
H2436 H 0.19297 0.82963 0.33312 0.0
H2437 H 0.17454 0.80161 0.32428 0.0
H2438 H 0.20878 0.76709 0.36163 0.0
H2439 H 0.22747 0.79497 0.37035 0.0
H2440 H 0.20817 0.75301 0.32663 0.0
H2441 H 0.16146 0.77507 0.37077 0.0
H2442 H 0.13975 0.79827 0.38552 0.0
H2443 H 0.10942 0.80384 0.33287 0.0
H2444 H 0.13112 0.78087 0.31771 0.0
H2445 H 0.16108 0.66854 0.30365 0.0
H2446 H 0.17065 0.69533 0.32352 0.0
H2447 H 0.1409 0.73386 0.28629 0.0
H2448 H 0.13106 0.70715 0.26639 0.0
H2449 H 0.13822 0.74473 0.3241 0.0
H2450 H 0.18659 0.72715 0.2791 0.0
H2451 H 0.20857 0.70529 0.26281 0.0
H2452 H 0.2359 0.6927 0.31591 0.0
H2453 H 0.21391 0.7144 0.33255 0.0
C2454 C 0.19634 0.81616 0.33976 0.0
C2455 C 0.21183 0.81451 0.35229 0.0
C2456 C 0.18571 0.80015 0.33476 0.0
C2457 C 0.19026 0.78225 0.34232 0.0
C2458 C 0.20505 0.78077 0.3556 0.0
C2459 C 0.21572 0.79673 0.36057 0.0
C2460 C 0.18111 0.76485 0.33474 0.0
C2461 C 0.19288 0.75102 0.32651 0.0
C2462 C 0.16115 0.76255 0.33398 0.0
C2463 C 0.14803 0.77634 0.34306 0.0
C2464 C 0.15026 0.78135 0.36229 0.0
C2465 C 0.13793 0.79444 0.37073 0.0
C2466 C 0.12324 0.80255 0.36012 0.0
C2467 C 0.12081 0.79755 0.34106 0.0
C2468 C 0.13311 0.78448 0.33255 0.0
C2469 C 0.15625 0.68266 0.29985 0.0
C2470 C 0.14553 0.68573 0.28326 0.0
C2471 C 0.16176 0.69795 0.31123 0.0
C2472 C 0.15672 0.71658 0.30619 0.0
C2473 C 0.14495 0.71958 0.29039 0.0
C2474 C 0.13942 0.70429 0.27899 0.0
C2475 C 0.16533 0.73299 0.31617 0.0
C2476 C 0.1535 0.74664 0.32463 0.0
C2477 C 0.18527 0.7353 0.31702 0.0
C2478 C 0.19848 0.72221 0.30709 0.0
C2479 C 0.19718 0.71959 0.28732 0.0
C2480 C 0.20966 0.70725 0.27802 0.0
C2481 C 0.22358 0.69754 0.28833 0.0
C2482 C 0.22508 0.7002 0.30795 0.0
C2483 C 0.21263 0.71253 0.31733 0.0
H2484 H 0.23325 0.68802 0.2811 0.0
H2485 H 0.11371 0.81269 0.36669 0.0
H2486 H 0.82655 0.66164 0.80563 0.0
H2487 H 0.79814 0.66824 0.82435 0.0
H2488 H 0.76565 0.6305 0.78863 0.0
H2489 H 0.79394 0.624 0.76964 0.0
H2490 H 0.74975 0.66456 0.79048 0.0
H2491 H 0.77335 0.62007 0.83566 0.0
H2492 H 0.79691 0.60517 0.85688 0.0
H2493 H 0.80101 0.65681 0.88911 0.0
H2494 H 0.77768 0.67213 0.86792 0.0
H2495 H 0.66606 0.68895 0.83839 0.0
H2496 H 0.69193 0.66793 0.82869 0.0
H2497 H 0.73203 0.70317 0.85877 0.0
H2498 H 0.70626 0.72408 0.86883 0.0
H2499 H 0.74204 0.66561 0.86057 0.0
H2500 H 0.72342 0.71123 0.8126 0.0
H2501 H 0.70077 0.72724 0.79117 0.0
H2502 H 0.6885 0.67402 0.76394 0.0
H2503 H 0.71091 0.65766 0.78541 0.0
C2504 C 0.81347 0.65442 0.80197 0.0
C2505 C 0.81249 0.64245 0.78599 0.0
C2506 C 0.79724 0.65813 0.81278 0.0
C2507 C 0.77977 0.64982 0.80793 0.0
C2508 C 0.77898 0.63707 0.79262 0.0
C2509 C 0.79519 0.63337 0.78178 0.0
C2510 C 0.76202 0.65626 0.81729 0.0
C2511 C 0.74787 0.66432 0.80579 0.0
C2512 C 0.7598 0.65644 0.83729 0.0
C2513 C 0.77384 0.64729 0.8501 0.0
C2514 C 0.77938 0.6283 0.84718 0.0
C2515 C 0.79268 0.61977 0.85922 0.0
C2516 C 0.80048 0.63005 0.87431 0.0
C2517 C 0.79496 0.64887 0.87741 0.0
C2518 C 0.78168 0.65747 0.86541 0.0
C2519 C 0.68032 0.69203 0.84329 0.0
C2520 C 0.68414 0.7084 0.85411 0.0
C2521 C 0.69509 0.67999 0.83772 0.0
C2522 C 0.71393 0.6842 0.84271 0.0
C2523 C 0.71759 0.69969 0.85471 0.0
C2524 C 0.70283 0.71169 0.86037 0.0
C2525 C 0.72997 0.67394 0.83372 0.0
C2526 C 0.7438 0.66537 0.84525 0.0
C2527 C 0.73205 0.67337 0.81372 0.0
C2528 C 0.71864 0.6832 0.80075 0.0
C2529 C 0.71578 0.70293 0.80214 0.0
C2530 C 0.703 0.71206 0.78998 0.0
C2531 C 0.69315 0.70164 0.77625 0.0
C2532 C 0.6961 0.68207 0.77462 0.0
C2533 C 0.70884 0.67286 0.78677 0.0
H2534 H 0.68327 0.70874 0.76684 0.0
H2535 H 0.81077 0.62342 0.88362 0.0
H2536 H 0.73177 0.872 0.70341 0.0
H2537 H 0.71435 0.86569 0.73273 0.0
H2538 H 0.67414 0.83144 0.70168 0.0
H2539 H 0.69133 0.83784 0.67219 0.0
H2540 H 0.65703 0.85169 0.73099 0.0
H2541 H 0.71084 0.81032 0.72154 0.0
H2542 H 0.74454 0.8029 0.71549 0.0
H2543 H 0.76054 0.83297 0.76612 0.0
H2544 H 0.72692 0.84081 0.77231 0.0
H2545 H 0.6309 0.77999 0.79767 0.0
H2546 H 0.64046 0.80038 0.77127 0.0
H2547 H 0.67849 0.83086 0.80841 0.0
H2548 H 0.66909 0.81051 0.8349 0.0
H2549 H 0.69641 0.81641 0.77766 0.0
H2550 H 0.64101 0.85345 0.78935 0.0
H2551 H 0.60699 0.85948 0.79505 0.0
H2552 H 0.59336 0.83615 0.74034 0.0
H2553 H 0.62729 0.82971 0.73441 0.0
C2554 C 0.71902 0.86341 0.70272 0.0
C2555 C 0.71313 0.85515 0.68549 0.0
C2556 C 0.70908 0.85984 0.7195 0.0
C2557 C 0.69316 0.84785 0.7194 0.0
C2558 C 0.68642 0.84071 0.70205 0.0
C2559 C 0.69633 0.84431 0.68522 0.0
C2560 C 0.68493 0.84098 0.7375 0.0
C2561 C 0.66556 0.84391 0.7412 0.0
C2562 C 0.6962 0.8311 0.75091 0.0
C2563 C 0.71641 0.82635 0.74725 0.0
C2564 C 0.72156 0.81549 0.73129 0.0
C2565 C 0.74064 0.81118 0.72785 0.0
C2566 C 0.75468 0.81751 0.74038 0.0
C2567 C 0.74965 0.82812 0.7564 0.0
C2568 C 0.73059 0.83249 0.75988 0.0
C2569 C 0.641 0.79128 0.80034 0.0
C2570 C 0.64941 0.79346 0.81835 0.0
C2571 C 0.64636 0.80301 0.78525 0.0
C2572 C 0.66018 0.81713 0.7879 0.0
C2573 C 0.6678 0.82004 0.80609 0.0
C2574 C 0.66239 0.80838 0.82121 0.0
C2575 C 0.66842 0.82707 0.77127 0.0
C2576 C 0.68786 0.82453 0.76772 0.0
C2577 C 0.65715 0.83713 0.75801 0.0
C2578 C 0.63671 0.84096 0.7615 0.0
C2579 C 0.63075 0.84945 0.7786 0.0
C2580 C 0.61148 0.85298 0.78185 0.0
C2581 C 0.59802 0.84817 0.76808 0.0
C2582 C 0.60381 0.83986 0.751 0.0
C2583 C 0.62306 0.83629 0.74768 0.0
H2584 H 0.58311 0.85092 0.77063 0.0
H2585 H 0.76944 0.81415 0.7377 0.0
H2586 H 0.69243 0.17156 0.33019 0.0
H2587 H 0.6732 0.17922 0.30233 0.0
H2588 H 0.70251 0.13611 0.27007 0.0
H2589 H 0.72199 0.12854 0.29774 0.0
H2590 H 0.70362 0.16941 0.25249 0.0
H2591 H 0.65523 0.13155 0.28144 0.0
H2592 H 0.63392 0.12094 0.30714 0.0
H2593 H 0.60789 0.1761 0.30876 0.0
H2594 H 0.62923 0.18714 0.28325 0.0
H2595 H 0.65393 0.18807 0.16866 0.0
H2596 H 0.6629 0.16973 0.19672 0.0
H2597 H 0.63854 0.2128 0.23289 0.0
H2598 H 0.62927 0.23115 0.20493 0.0
H2599 H 0.63367 0.17661 0.24764 0.0
H2600 H 0.68402 0.2154 0.22202 0.0
H2601 H 0.70549 0.22694 0.19683 0.0
H2602 H 0.72827 0.17075 0.19006 0.0
H2603 H 0.70664 0.15878 0.21494 0.0
C2604 C 0.69454 0.16344 0.31728 0.0
C2605 C 0.70889 0.14957 0.31614 0.0
C2606 C 0.68346 0.16778 0.30138 0.0
C2607 C 0.68639 0.15821 0.28412 0.0
C2608 C 0.70004 0.14369 0.28324 0.0
C2609 C 0.71116 0.13939 0.29909 0.0
C2610 C 0.67681 0.16474 0.26653 0.0
C2611 C 0.68829 0.17055 0.2513 0.0
C2612 C 0.65684 0.16681 0.2652 0.0
C2613 C 0.64395 0.16022 0.28052 0.0
C2614 C 0.64507 0.14147 0.28737 0.0
C2615 C 0.63296 0.13537 0.30189 0.0
C2616 C 0.61958 0.14785 0.3096 0.0
C2617 C 0.61826 0.16645 0.30278 0.0
C2618 C 0.63035 0.17263 0.28827 0.0
C2619 C 0.65009 0.19347 0.18255 0.0
C2620 C 0.64117 0.21125 0.18455 0.0
C2621 C 0.65524 0.18296 0.19858 0.0
C2622 C 0.65169 0.1901 0.21686 0.0
C2623 C 0.64146 0.20708 0.21889 0.0
C2624 C 0.63625 0.21759 0.20287 0.0
C2625 C 0.66052 0.1811 0.23371 0.0
C2626 C 0.64896 0.17507 0.24879 0.0
C2627 C 0.68046 0.17892 0.23505 0.0
C2628 C 0.69356 0.18614 0.22018 0.0
C2629 C 0.6935 0.20547 0.21505 0.0
C2630 C 0.70571 0.2121 0.20085 0.0
C2631 C 0.71821 0.19959 0.19184 0.0
C2632 C 0.71855 0.18042 0.19703 0.0
C2633 C 0.70631 0.1737 0.21116 0.0
H2634 H 0.72767 0.20475 0.18087 0.0
H2635 H 0.61022 0.1431 0.32084 0.0
H2636 H 0.25732 0.14571 0.70516 0.0
H2637 H 0.2756 0.15397 0.73327 0.0
H2638 H 0.32726 0.13704 0.70479 0.0
H2639 H 0.30898 0.13005 0.67598 0.0
H2640 H 0.29652 0.14029 0.75812 0.0
H2641 H 0.36391 0.16425 0.71852 0.0
H2642 H 0.37388 0.17517 0.68669 0.0
H2643 H 0.31778 0.19676 0.6762 0.0
H2644 H 0.30758 0.18615 0.70803 0.0
H2645 H 0.35085 0.18309 0.83136 0.0
H2646 H 0.34295 0.16217 0.80464 0.0
H2647 H 0.33524 0.21135 0.76869 0.0
H2648 H 0.3445 0.23197 0.79482 0.0
H2649 H 0.3488 0.18643 0.74822 0.0
H2650 H 0.29719 0.18569 0.79378 0.0
H2651 H 0.28242 0.18019 0.8251 0.0
H2652 H 0.29865 0.1214 0.82276 0.0
H2653 H 0.31369 0.12663 0.79149 0.0
C2654 C 0.27255 0.14347 0.70496 0.0
C2655 C 0.28177 0.1375 0.68831 0.0
C2656 C 0.28302 0.14815 0.72111 0.0
C2657 C 0.30292 0.14657 0.7211 0.0
C2658 C 0.312 0.13897 0.705 0.0
C2659 C 0.30155 0.13484 0.68859 0.0
C2660 C 0.31395 0.1545 0.73733 0.0
C2661 C 0.30805 0.15027 0.75593 0.0
C2662 C 0.32894 0.16767 0.73462 0.0
C2663 C 0.33494 0.17417 0.71551 0.0
C2664 C 0.35374 0.17135 0.70941 0.0
C2665 C 0.35942 0.17748 0.69138 0.0
C2666 C 0.34645 0.18657 0.6794 0.0
C2667 C 0.32779 0.18964 0.68545 0.0
C2668 C 0.32205 0.18357 0.70348 0.0
C2669 C 0.34775 0.18932 0.81763 0.0
C2670 C 0.34821 0.20911 0.81513 0.0
C2671 C 0.3431 0.17739 0.8024 0.0
C2672 C 0.33805 0.18513 0.78467 0.0
C2673 C 0.33912 0.20492 0.78213 0.0
C2674 C 0.34436 0.21675 0.79712 0.0
C2675 C 0.33064 0.17305 0.76894 0.0
C2676 C 0.33745 0.17625 0.75045 0.0
C2677 C 0.31576 0.15976 0.77168 0.0
C2678 C 0.30677 0.1566 0.79045 0.0
C2679 C 0.29771 0.17163 0.80002 0.0
C2680 C 0.28928 0.16855 0.81774 0.0
C2681 C 0.28966 0.15047 0.82595 0.0
C2682 C 0.29841 0.13541 0.81641 0.0
C2683 C 0.30689 0.13841 0.79869 0.0
H2684 H 0.28312 0.14812 0.83967 0.0
H2685 H 0.35087 0.19129 0.66544 0.0
H2686 H 0.2783 0.87934 0.29753 0.0
H2687 H 0.29691 0.87228 0.26908 0.0
H2688 H 0.32705 0.82844 0.29953 0.0
H2689 H 0.30887 0.83571 0.32817 0.0
H2690 H 0.34997 0.8454 0.27344 0.0
H2691 H 0.28698 0.81782 0.27516 0.0
H2692 H 0.25206 0.81885 0.27789 0.0
H2693 H 0.24902 0.85541 0.22911 0.0
H2694 H 0.28397 0.85479 0.22626 0.0
H2695 H 0.36624 0.77315 0.20516 0.0
H2696 H 0.35862 0.79416 0.23162 0.0
H2697 H 0.33032 0.83262 0.19315 0.0
H2698 H 0.33756 0.81146 0.16659 0.0
H2699 H 0.30785 0.82321 0.22145 0.0
H2700 H 0.37158 0.84552 0.21678 0.0
H2701 H 0.40642 0.84292 0.21438 0.0
H2702 H 0.40842 0.81486 0.26853 0.0
H2703 H 0.37355 0.81703 0.27115 0.0
C2704 C 0.2892 0.8685 0.29831 0.0
C2705 C 0.29186 0.85784 0.31501 0.0
C2706 C 0.29982 0.86448 0.28203 0.0
C2707 C 0.31304 0.84954 0.28208 0.0
C2708 C 0.31685 0.83997 0.29916 0.0
C2709 C 0.30638 0.84411 0.31551 0.0
C2710 C 0.32105 0.84227 0.26401 0.0
C2711 C 0.34082 0.84052 0.26204 0.0
C2712 C 0.30908 0.83619 0.24903 0.0
C2713 C 0.28807 0.83644 0.25064 0.0
C2714 C 0.27887 0.82618 0.2651 0.0
C2715 C 0.25908 0.82668 0.26666 0.0
C2716 C 0.24833 0.83723 0.25372 0.0
C2717 C 0.25736 0.84727 0.23915 0.0
C2718 C 0.27716 0.84685 0.23755 0.0
C2719 C 0.3587 0.78624 0.20224 0.0
C2720 C 0.35233 0.79051 0.18377 0.0
C2721 C 0.35447 0.79834 0.2174 0.0
C2722 C 0.34398 0.81504 0.21437 0.0
C2723 C 0.33843 0.81981 0.19581 0.0
C2724 C 0.34258 0.80768 0.18065 0.0
C2725 C 0.33685 0.82619 0.23079 0.0
C2726 C 0.31714 0.82851 0.23255 0.0
C2727 C 0.34891 0.83261 0.24557 0.0
C2728 C 0.36991 0.83134 0.2441 0.0
C2729 C 0.37943 0.83867 0.22812 0.0
C2730 C 0.39919 0.83729 0.22673 0.0
C2731 C 0.40962 0.82871 0.24127 0.0
C2732 C 0.40031 0.82151 0.25727 0.0
C2733 C 0.38055 0.82284 0.25873 0.0
H2734 H 0.42492 0.82765 0.24017 0.0
H2735 H 0.23301 0.8376 0.25495 0.0
loop_
_geom_bond_atom_site_label_1
_geom_bond_atom_site_label_2
_geom_bond_distance
_geom_bond_site_symmetry_2
_ccdc_geom_bond_type
O0 Cd1 2.223 . S
O0 C8 1.315 . S
Cd1 O0 2.223 . S
Cd1 O4 2.297 . S
Cd1 O5 2.439 . S
Cd1 O11 2.240 . S
Cd2 O3 2.240 . S
Cd2 O10 2.223 . S
Cd2 O12 2.297 . S
Cd2 O13 2.439 . S
O3 Cd2 2.240 . S
O3 C8 1.279 . S
O4 Cd1 2.297 . S
O4 C6 1.247 . S
O5 Cd1 2.439 . S
O5 C6 1.208 . S
C6 O4 1.247 . S
C6 O5 1.208 . S
C7 O12 1.247 . S
C7 O13 1.208 . S
C8 O0 1.315 . S
C8 O3 1.279 . S
C9 O10 1.315 . S
C9 O11 1.279 . S
O10 Cd2 2.223 . S
O10 C9 1.315 . S
O11 Cd1 2.240 . S
O11 C9 1.279 . S
O12 Cd2 2.297 . S
O12 C7 1.247 . S
O13 Cd2 2.439 . S
O13 C7 1.208 . S
O14 Cd15 2.223 . S
O14 C22 1.315 . S
Cd15 O14 2.223 . S
Cd15 O18 2.297 . S
Cd15 O19 2.439 . S
Cd15 O25 2.240 . S
Cd16 O17 2.240 . S
Cd16 O24 2.223 . S
Cd16 O26 2.297 . S
Cd16 O27 2.439 . S
O17 Cd16 2.240 . S
O17 C22 1.279 . S
O18 Cd15 2.297 . S
O18 C20 1.247 . S
O19 Cd15 2.439 . S
O19 C20 1.208 . S
C20 O18 1.247 . S
C20 O19 1.208 . S
C21 O26 1.247 . S
C21 O27 1.208 . S
C22 O14 1.315 . S
C22 O17 1.279 . S
C23 O24 1.315 . S
C23 O25 1.279 . S
O24 Cd16 2.223 . S
O24 C23 1.315 . S
O25 Cd15 2.240 . S
O25 C23 1.279 . S
O26 Cd16 2.297 . S
O26 C21 1.247 . S
O27 Cd16 2.439 . S
O27 C21 1.208 . S
O28 Cd29 2.223 . S
O28 C36 1.315 . S
Cd29 O28 2.223 . S
Cd29 O32 2.297 . S
Cd29 O33 2.439 . S
Cd29 O39 2.240 . S
Cd30 O31 2.240 . S
Cd30 O38 2.223 . S
Cd30 O40 2.297 . S
Cd30 O41 2.439 . S
O31 Cd30 2.240 . S
O31 C36 1.279 . S
O32 Cd29 2.297 . S
O32 C34 1.247 . S
O33 Cd29 2.439 . S
O33 C34 1.208 . S
C34 O32 1.247 . S
C34 O33 1.208 . S
C35 O40 1.247 . S
C35 O41 1.208 . S
C36 O28 1.315 . S
C36 O31 1.279 . S
C37 O38 1.315 . S
C37 O39 1.279 . S
O38 Cd30 2.223 . S
O38 C37 1.315 . S
O39 Cd29 2.240 . S
O39 C37 1.279 . S
O40 Cd30 2.297 . S
O40 C35 1.247 . S
O41 Cd30 2.439 . S
O41 C35 1.208 . S
O42 Cd43 2.223 . S
O42 C50 1.315 . S
Cd43 O42 2.223 . S
Cd43 O46 2.297 . S
Cd43 O47 2.439 . S
Cd43 O53 2.240 . S
Cd44 O45 2.240 . S
Cd44 O52 2.223 . S
Cd44 O54 2.297 . S
Cd44 O55 2.439 . S
O45 Cd44 2.240 . S
O45 C50 1.279 . S
O46 Cd43 2.297 . S
O46 C48 1.247 . S
O47 Cd43 2.439 . S
O47 C48 1.208 . S
C48 O46 1.247 . S
C48 O47 1.208 . S
C49 O54 1.247 . S
C49 O55 1.208 . S
C50 O42 1.315 . S
C50 O45 1.279 . S
C51 O52 1.315 . S
C51 O53 1.279 . S
O52 Cd44 2.223 . S
O52 C51 1.315 . S
O53 Cd43 2.240 . S
O53 C51 1.279 . S
O54 Cd44 2.297 . S
O54 C49 1.247 . S
O55 Cd44 2.439 . S
O55 C49 1.208 . S
O56 Cd57 2.223 . S
O56 C64 1.315 . S
Cd57 O56 2.223 . S
Cd57 O60 2.297 . S
Cd57 O61 2.439 . S
Cd57 O67 2.240 . S
Cd58 O59 2.240 . S
Cd58 O66 2.223 . S
Cd58 O68 2.297 . S
Cd58 O69 2.439 . S
O59 Cd58 2.240 . S
O59 C64 1.279 . S
O60 Cd57 2.297 . S
O60 C62 1.247 . S
O61 Cd57 2.439 . S
O61 C62 1.208 . S
C62 O60 1.247 . S
C62 O61 1.208 . S
C63 O68 1.247 . S
C63 O69 1.208 . S
C64 O56 1.315 . S
C64 O59 1.279 . S
C65 O66 1.315 . S
C65 O67 1.279 . S
O66 Cd58 2.223 . S
O66 C65 1.315 . S
O67 Cd57 2.240 . S
O67 C65 1.279 . S
O68 Cd58 2.297 . S
O68 C63 1.247 . S
O69 Cd58 2.439 . S
O69 C63 1.208 . S
O70 Cd71 2.223 . S
O70 C78 1.315 . S
Cd71 O70 2.223 . S
Cd71 O74 2.297 . S
Cd71 O75 2.439 . S
Cd71 O81 2.240 . S
Cd72 O73 2.240 . S
Cd72 O80 2.223 . S
Cd72 O82 2.297 . S
Cd72 O83 2.439 . S
O73 Cd72 2.240 . S
O73 C78 1.279 . S
O74 Cd71 2.297 . S
O74 C76 1.247 . S
O75 Cd71 2.439 . S
O75 C76 1.208 . S
C76 O74 1.247 . S
C76 O75 1.208 . S
C77 O82 1.247 . S
C77 O83 1.208 . S
C78 O70 1.315 . S
C78 O73 1.279 . S
C79 O80 1.315 . S
C79 O81 1.279 . S
O80 Cd72 2.223 . S
O80 C79 1.315 . S
O81 Cd71 2.240 . S
O81 C79 1.279 . S
O82 Cd72 2.297 . S
O82 C77 1.247 . S
O83 Cd72 2.439 . S
O83 C77 1.208 . S
O84 Cd85 2.223 . S
O84 C92 1.315 . S
Cd85 O84 2.223 . S
Cd85 O88 2.297 . S
Cd85 O89 2.439 . S
Cd85 O95 2.240 . S
Cd86 O87 2.240 . S
Cd86 O94 2.223 . S
Cd86 O96 2.297 . S
Cd86 O97 2.439 . S
O87 Cd86 2.240 . S
O87 C92 1.279 . S
O88 Cd85 2.297 . S
O88 C90 1.247 . S
O89 Cd85 2.439 . S
O89 C90 1.208 . S
C90 O88 1.247 . S
C90 O89 1.208 . S
C91 O96 1.247 . S
C91 O97 1.208 . S
C92 O84 1.315 . S
C92 O87 1.279 . S
C93 O94 1.315 . S
C93 O95 1.279 . S
O94 Cd86 2.223 . S
O94 C93 1.315 . S
O95 Cd85 2.240 . S
O95 C93 1.279 . S
O96 Cd86 2.297 . S
O96 C91 1.247 . S
O97 Cd86 2.439 . S
O97 C91 1.208 . S
O98 Cd99 2.223 . S
O98 C106 1.315 . S
Cd99 O98 2.223 . S
Cd99 O102 2.297 . S
Cd99 O103 2.439 . S
Cd99 O109 2.240 . S
Cd100 O101 2.240 . S
Cd100 O108 2.223 . S
Cd100 O110 2.297 . S
Cd100 O111 2.439 . S
O101 Cd100 2.240 . S
O101 C106 1.279 . S
O102 Cd99 2.297 . S
O102 C104 1.247 . S
O103 Cd99 2.439 . S
O103 C104 1.208 . S
C104 O102 1.247 . S
C104 O103 1.208 . S
C105 O110 1.247 . S
C105 O111 1.208 . S
C106 O98 1.315 . S
C106 O101 1.279 . S
C107 O108 1.315 . S
C107 O109 1.279 . S
O108 Cd100 2.223 . S
O108 C107 1.315 . S
O109 Cd99 2.240 . S
O109 C107 1.279 . S
O110 Cd100 2.297 . S
O110 C105 1.247 . S
O111 Cd100 2.439 . S
O111 C105 1.208 . S
O112 Cd113 2.223 . S
O112 C120 1.315 . S
Cd113 O112 2.223 . S
Cd113 O116 2.297 . S
Cd113 O117 2.439 . S
Cd113 O123 2.240 . S
Cd114 O115 2.240 . S
Cd114 O122 2.223 . S
Cd114 O124 2.297 . S
Cd114 O125 2.439 . S
O115 Cd114 2.240 . S
O115 C120 1.279 . S
O116 Cd113 2.297 . S
O116 C118 1.247 . S
O117 Cd113 2.439 . S
O117 C118 1.208 . S
C118 O116 1.247 . S
C118 O117 1.208 . S
C119 O124 1.247 . S
C119 O125 1.208 . S
C120 O112 1.315 . S
C120 O115 1.279 . S
C121 O122 1.315 . S
C121 O123 1.279 . S
O122 Cd114 2.223 . S
O122 C121 1.315 . S
O123 Cd113 2.240 . S
O123 C121 1.279 . S
O124 Cd114 2.297 . S
O124 C119 1.247 . S
O125 Cd114 2.439 . S
O125 C119 1.208 . S
O126 Cd127 2.223 . S
O126 C134 1.315 . S
Cd127 O126 2.223 . S
Cd127 O130 2.297 . S
Cd127 O131 2.439 . S
Cd127 O137 2.240 . S
Cd128 O129 2.240 . S
Cd128 O136 2.223 . S
Cd128 O138 2.297 . S
Cd128 O139 2.439 . S
O129 Cd128 2.240 . S
O129 C134 1.279 . S
O130 Cd127 2.297 . S
O130 C132 1.247 . S
O131 Cd127 2.439 . S
O131 C132 1.208 . S
C132 O130 1.247 . S
C132 O131 1.208 . S
C133 O138 1.247 . S
C133 O139 1.208 . S
C134 O126 1.315 . S
C134 O129 1.279 . S
C135 O136 1.315 . S
C135 O137 1.279 . S
O136 Cd128 2.223 . S
O136 C135 1.315 . S
O137 Cd127 2.240 . S
O137 C135 1.279 . S
O138 Cd128 2.297 . S
O138 C133 1.247 . S
O139 Cd128 2.439 . S
O139 C133 1.208 . S
O140 Cd141 2.223 . S
O140 C148 1.315 . S
Cd141 O140 2.223 . S
Cd141 O144 2.297 . S
Cd141 O145 2.439 . S
Cd141 O151 2.240 . S
Cd142 O143 2.240 . S
Cd142 O150 2.223 . S
Cd142 O152 2.297 . S
Cd142 O153 2.439 . S
O143 Cd142 2.240 . S
O143 C148 1.279 . S
O144 Cd141 2.297 . S
O144 C146 1.247 . S
O145 Cd141 2.439 . S
O145 C146 1.208 . S
C146 O144 1.247 . S
C146 O145 1.208 . S
C147 O152 1.247 . S
C147 O153 1.208 . S
C148 O140 1.315 . S
C148 O143 1.279 . S
C149 O150 1.315 . S
C149 O151 1.279 . S
O150 Cd142 2.223 . S
O150 C149 1.315 . S
O151 Cd141 2.240 . S
O151 C149 1.279 . S
O152 Cd142 2.297 . S
O152 C147 1.247 . S
O153 Cd142 2.439 . S
O153 C147 1.208 . S
O154 Cd155 2.223 . S
O154 C162 1.315 . S
Cd155 O154 2.223 . S
Cd155 O158 2.297 . S
Cd155 O159 2.439 . S
Cd155 O165 2.240 . S
Cd156 O157 2.240 . S
Cd156 O164 2.223 . S
Cd156 O166 2.297 . S
Cd156 O167 2.439 . S
O157 Cd156 2.240 . S
O157 C162 1.279 . S
O158 Cd155 2.297 . S
O158 C160 1.247 . S
O159 Cd155 2.439 . S
O159 C160 1.208 . S
C160 O158 1.247 . S
C160 O159 1.208 . S
C161 O166 1.247 . S
C161 O167 1.208 . S
C162 O154 1.315 . S
C162 O157 1.279 . S
C163 O164 1.315 . S
C163 O165 1.279 . S
O164 Cd156 2.223 . S
O164 C163 1.315 . S
O165 Cd155 2.240 . S
O165 C163 1.279 . S
O166 Cd156 2.297 . S
O166 C161 1.247 . S
O167 Cd156 2.439 . S
O167 C161 1.208 . S
O168 Cd169 2.223 . S
O168 C176 1.315 . S
Cd169 O168 2.223 . S
Cd169 O172 2.297 . S
Cd169 O173 2.439 . S
Cd169 O179 2.240 . S
Cd170 O171 2.240 . S
Cd170 O178 2.223 . S
Cd170 O180 2.297 . S
Cd170 O181 2.439 . S
O171 Cd170 2.240 . S
O171 C176 1.279 . S
O172 Cd169 2.297 . S
O172 C174 1.247 . S
O173 Cd169 2.439 . S
O173 C174 1.208 . S
C174 O172 1.247 . S
C174 O173 1.208 . S
C175 O180 1.247 . S
C175 O181 1.208 . S
C176 O168 1.315 . S
C176 O171 1.279 . S
C177 O178 1.315 . S
C177 O179 1.279 . S
O178 Cd170 2.223 . S
O178 C177 1.315 . S
O179 Cd169 2.240 . S
O179 C177 1.279 . S
O180 Cd170 2.297 . S
O180 C175 1.247 . S
O181 Cd170 2.439 . S
O181 C175 1.208 . S
O182 Cd183 2.223 . S
O182 C190 1.315 . S
Cd183 O182 2.223 . S
Cd183 O186 2.297 . S
Cd183 O187 2.439 . S
Cd183 O193 2.240 . S
Cd184 O185 2.240 . S
Cd184 O192 2.223 . S
Cd184 O194 2.297 . S
Cd184 O195 2.439 . S
O185 Cd184 2.240 . S
O185 C190 1.279 . S
O186 Cd183 2.297 . S
O186 C188 1.247 . S
O187 Cd183 2.439 . S
O187 C188 1.208 . S
C188 O186 1.247 . S
C188 O187 1.208 . S
C189 O194 1.247 . S
C189 O195 1.208 . S
C190 O182 1.315 . S
C190 O185 1.279 . S
C191 O192 1.315 . S
C191 O193 1.279 . S
O192 Cd184 2.223 . S
O192 C191 1.315 . S
O193 Cd183 2.240 . S
O193 C191 1.279 . S
O194 Cd184 2.297 . S
O194 C189 1.247 . S
O195 Cd184 2.439 . S
O195 C189 1.208 . S
O196 Cd197 2.223 . S
O196 C204 1.315 . S
Cd197 O196 2.223 . S
Cd197 O200 2.297 . S
Cd197 O201 2.439 . S
Cd197 O207 2.240 . S
Cd198 O199 2.240 . S
Cd198 O206 2.223 . S
Cd198 O208 2.297 . S
Cd198 O209 2.439 . S
O199 Cd198 2.240 . S
O199 C204 1.279 . S
O200 Cd197 2.297 . S
O200 C202 1.247 . S
O201 Cd197 2.439 . S
O201 C202 1.208 . S
C202 O200 1.247 . S
C202 O201 1.208 . S
C203 O208 1.247 . S
C203 O209 1.208 . S
C204 O196 1.315 . S
C204 O199 1.279 . S
C205 O206 1.315 . S
C205 O207 1.279 . S
O206 Cd198 2.223 . S
O206 C205 1.315 . S
O207 Cd197 2.240 . S
O207 C205 1.279 . S
O208 Cd198 2.297 . S
O208 C203 1.247 . S
O209 Cd198 2.439 . S
O209 C203 1.208 . S
O210 Cd211 2.223 . S
O210 C218 1.315 . S
Cd211 O210 2.223 . S
Cd211 O214 2.297 . S
Cd211 O215 2.439 . S
Cd211 O221 2.240 . S
Cd212 O213 2.240 . S
Cd212 O220 2.223 . S
Cd212 O222 2.297 . S
Cd212 O223 2.439 . S
O213 Cd212 2.240 . S
O213 C218 1.279 . S
O214 Cd211 2.297 . S
O214 C216 1.247 . S
O215 Cd211 2.439 . S
O215 C216 1.208 . S
C216 O214 1.247 . S
C216 O215 1.208 . S
C217 O222 1.247 . S
C217 O223 1.208 . S
C218 O210 1.315 . S
C218 O213 1.279 . S
C219 O220 1.315 . S
C219 O221 1.279 . S
O220 Cd212 2.223 . S
O220 C219 1.315 . S
O221 Cd211 2.240 . S
O221 C219 1.279 . S
O222 Cd212 2.297 . S
O222 C217 1.247 . S
O223 Cd212 2.439 . S
O223 C217 1.208 . S
O224 Cd225 2.223 . S
O224 C232 1.315 . S
Cd225 O224 2.223 . S
Cd225 O228 2.297 . S
Cd225 O229 2.439 . S
Cd225 O235 2.240 . S
Cd226 O227 2.240 . S
Cd226 O234 2.223 . S
Cd226 O236 2.297 . S
Cd226 O237 2.439 . S
O227 Cd226 2.240 . S
O227 C232 1.279 . S
O228 Cd225 2.297 . S
O228 C230 1.247 . S
O229 Cd225 2.439 . S
O229 C230 1.208 . S
C230 O228 1.247 . S
C230 O229 1.208 . S
C231 O236 1.247 . S
C231 O237 1.208 . S
C232 O224 1.315 . S
C232 O227 1.279 . S
C233 O234 1.315 . S
C233 O235 1.279 . S
O234 Cd226 2.223 . S
O234 C233 1.315 . S
O235 Cd225 2.240 . S
O235 C233 1.279 . S
O236 Cd226 2.297 . S
O236 C231 1.247 . S
O237 Cd226 2.439 . S
O237 C231 1.208 . S
O238 Cd239 2.223 . S
O238 C246 1.315 . S
Cd239 O238 2.223 . S
Cd239 O242 2.297 . S
Cd239 O243 2.439 . S
Cd239 O249 2.240 . S
Cd240 O241 2.240 . S
Cd240 O248 2.223 . S
Cd240 O250 2.297 . S
Cd240 O251 2.439 . S
O241 Cd240 2.240 . S
O241 C246 1.279 . S
O242 Cd239 2.297 . S
O242 C244 1.247 . S
O243 Cd239 2.439 . S
O243 C244 1.208 . S
C244 O242 1.247 . S
C244 O243 1.208 . S
C245 O250 1.247 . S
C245 O251 1.208 . S
C246 O238 1.315 . S
C246 O241 1.279 . S
C247 O248 1.315 . S
C247 O249 1.279 . S
O248 Cd240 2.223 . S
O248 C247 1.315 . S
O249 Cd239 2.240 . S
O249 C247 1.279 . S
O250 Cd240 2.297 . S
O250 C245 1.247 . S
O251 Cd240 2.439 . S
O251 C245 1.208 . S
O252 Cd253 2.223 . S
O252 C260 1.315 . S
Cd253 O252 2.223 . S
Cd253 O256 2.297 . S
Cd253 O257 2.439 . S
Cd253 O263 2.240 . S
Cd254 O255 2.240 . S
Cd254 O262 2.223 . S
Cd254 O264 2.297 . S
Cd254 O265 2.439 . S
O255 Cd254 2.240 . S
O255 C260 1.279 . S
O256 Cd253 2.297 . S
O256 C258 1.247 . S
O257 Cd253 2.439 . S
O257 C258 1.208 . S
C258 O256 1.247 . S
C258 O257 1.208 . S
C259 O264 1.247 . S
C259 O265 1.208 . S
C260 O252 1.315 . S
C260 O255 1.279 . S
C261 O262 1.315 . S
C261 O263 1.279 . S
O262 Cd254 2.223 . S
O262 C261 1.315 . S
O263 Cd253 2.240 . S
O263 C261 1.279 . S
O264 Cd254 2.297 . S
O264 C259 1.247 . S
O265 Cd254 2.439 . S
O265 C259 1.208 . S
O266 Cd267 2.223 . S
O266 C274 1.315 . S
Cd267 O266 2.223 . S
Cd267 O270 2.297 . S
Cd267 O271 2.439 . S
Cd267 O277 2.240 . S
Cd268 O269 2.240 . S
Cd268 O276 2.223 . S
Cd268 O278 2.297 . S
Cd268 O279 2.439 . S
O269 Cd268 2.240 . S
O269 C274 1.279 . S
O270 Cd267 2.297 . S
O270 C272 1.247 . S
O271 Cd267 2.439 . S
O271 C272 1.208 . S
C272 O270 1.247 . S
C272 O271 1.208 . S
C273 O278 1.247 . S
C273 O279 1.208 . S
C274 O266 1.315 . S
C274 O269 1.279 . S
C275 O276 1.315 . S
C275 O277 1.279 . S
O276 Cd268 2.223 . S
O276 C275 1.315 . S
O277 Cd267 2.240 . S
O277 C275 1.279 . S
O278 Cd268 2.297 . S
O278 C273 1.247 . S
O279 Cd268 2.439 . S
O279 C273 1.208 . S
O280 Cd281 2.223 . S
O280 C288 1.315 . S
Cd281 O280 2.223 . S
Cd281 O284 2.297 . S
Cd281 O285 2.439 . S
Cd281 O291 2.240 . S
Cd282 O283 2.240 . S
Cd282 O290 2.223 . S
Cd282 O292 2.297 . S
Cd282 O293 2.439 . S
O283 Cd282 2.240 . S
O283 C288 1.279 . S
O284 Cd281 2.297 . S
O284 C286 1.247 . S
O285 Cd281 2.439 . S
O285 C286 1.208 . S
C286 O284 1.247 . S
C286 O285 1.208 . S
C287 O292 1.247 . S
C287 O293 1.208 . S
C288 O280 1.315 . S
C288 O283 1.279 . S
C289 O290 1.315 . S
C289 O291 1.279 . S
O290 Cd282 2.223 . S
O290 C289 1.315 . S
O291 Cd281 2.240 . S
O291 C289 1.279 . S
O292 Cd282 2.297 . S
O292 C287 1.247 . S
O293 Cd282 2.439 . S
O293 C287 1.208 . S
O294 Cd295 2.223 . S
O294 C302 1.315 . S
Cd295 O294 2.223 . S
Cd295 O298 2.297 . S
Cd295 O299 2.439 . S
Cd295 O305 2.240 . S
Cd296 O297 2.240 . S
Cd296 O304 2.223 . S
Cd296 O306 2.297 . S
Cd296 O307 2.439 . S
O297 Cd296 2.240 . S
O297 C302 1.279 . S
O298 Cd295 2.297 . S
O298 C300 1.247 . S
O299 Cd295 2.439 . S
O299 C300 1.208 . S
C300 O298 1.247 . S
C300 O299 1.208 . S
C301 O306 1.247 . S
C301 O307 1.208 . S
C302 O294 1.315 . S
C302 O297 1.279 . S
C303 O304 1.315 . S
C303 O305 1.279 . S
O304 Cd296 2.223 . S
O304 C303 1.315 . S
O305 Cd295 2.240 . S
O305 C303 1.279 . S
O306 Cd296 2.297 . S
O306 C301 1.247 . S
O307 Cd296 2.439 . S
O307 C301 1.208 . S
O308 Cd309 2.223 . S
O308 C316 1.315 . S
Cd309 O308 2.223 . S
Cd309 O312 2.297 . S
Cd309 O313 2.439 . S
Cd309 O319 2.240 . S
Cd310 O311 2.240 . S
Cd310 O318 2.223 . S
Cd310 O320 2.297 . S
Cd310 O321 2.439 . S
O311 Cd310 2.240 . S
O311 C316 1.279 . S
O312 Cd309 2.297 . S
O312 C314 1.247 . S
O313 Cd309 2.439 . S
O313 C314 1.208 . S
C314 O312 1.247 . S
C314 O313 1.208 . S
C315 O320 1.247 . S
C315 O321 1.208 . S
C316 O308 1.315 . S
C316 O311 1.279 . S
C317 O318 1.315 . S
C317 O319 1.279 . S
O318 Cd310 2.223 . S
O318 C317 1.315 . S
O319 Cd309 2.240 . S
O319 C317 1.279 . S
O320 Cd310 2.297 . S
O320 C315 1.247 . S
O321 Cd310 2.439 . S
O321 C315 1.208 . S
O322 Cd323 2.223 . S
O322 C330 1.315 . S
Cd323 O322 2.223 . S
Cd323 O326 2.297 . S
Cd323 O327 2.439 . S
Cd323 O333 2.240 . S
Cd324 O325 2.240 . S
Cd324 O332 2.223 . S
Cd324 O334 2.297 . S
Cd324 O335 2.439 . S
O325 Cd324 2.240 . S
O325 C330 1.279 . S
O326 Cd323 2.297 . S
O326 C328 1.247 . S
O327 Cd323 2.439 . S
O327 C328 1.208 . S
C328 O326 1.247 . S
C328 O327 1.208 . S
C329 O334 1.247 . S
C329 O335 1.208 . S
C330 O322 1.315 . S
C330 O325 1.279 . S
C331 O332 1.315 . S
C331 O333 1.279 . S
O332 Cd324 2.223 . S
O332 C331 1.315 . S
O333 Cd323 2.240 . S
O333 C331 1.279 . S
O334 Cd324 2.297 . S
O334 C329 1.247 . S
O335 Cd324 2.439 . S
O335 C329 1.208 . S
H336 C354 0.951 . S
H337 C356 0.951 . S
H338 C358 0.950 . S
H339 C359 0.950 . S
H340 C361 0.950 . S
H341 C364 0.950 . S
H342 C365 0.950 . S
H343 C367 0.950 . S
H344 C368 0.950 . S
H345 C369 0.951 . S
H346 C371 0.951 . S
H347 C373 0.950 . S
H348 C374 0.950 . S
H349 C376 0.950 . S
H350 C379 0.950 . S
H351 C380 0.950 . S
H352 C382 0.950 . S
H353 C383 0.950 . S
C354 H336 0.951 . S
C354 C355 1.366 . S
C354 C356 1.388 . S
C355 C354 1.366 . S
C355 C359 1.385 . S
C356 H337 0.951 . S
C356 C354 1.388 . S
C356 C357 1.366 . S
C357 C356 1.366 . S
C357 C358 1.414 . S
C357 C360 1.499 . S
C358 H338 0.950 . S
C358 C357 1.414 . S
C358 C359 1.374 . S
C359 H339 0.950 . S
C359 C355 1.385 . S
C359 C358 1.374 . S
C360 C357 1.499 . S
C360 C361 1.373 . S
C360 C362 1.389 . S
C361 H340 0.950 . S
C361 C360 1.373 . S
C361 C377 1.377 . S
C362 C360 1.389 . S
C362 C363 1.524 . S
C362 C376 1.377 . S
C363 C362 1.524 . S
C363 C364 1.397 . S
C363 C368 1.363 . S
C364 H341 0.950 . S
C364 C363 1.397 . S
C364 C365 1.334 . S
C365 H342 0.950 . S
C365 C364 1.334 . S
C365 C366 1.287 . S
C366 C365 1.287 . S
C366 C367 1.524 . S
C366 H385 0.913 . S
C367 H343 0.950 . S
C367 C366 1.524 . S
C367 C368 1.415 . S
C368 H344 0.950 . S
C368 C363 1.363 . S
C368 C367 1.415 . S
C369 H345 0.951 . S
C369 C370 1.366 . S
C369 C371 1.388 . S
C370 C369 1.366 . S
C370 C374 1.385 . S
C371 H346 0.951 . S
C371 C369 1.388 . S
C371 C372 1.366 . S
C372 C371 1.366 . S
C372 C373 1.414 . S
C372 C375 1.499 . S
C373 H347 0.950 . S
C373 C372 1.414 . S
C373 C374 1.374 . S
C374 H348 0.950 . S
C374 C370 1.385 . S
C374 C373 1.374 . S
C375 C372 1.499 . S
C375 C376 1.373 . S
C375 C377 1.389 . S
C376 H349 0.950 . S
C376 C362 1.377 . S
C376 C375 1.373 . S
C377 C361 1.377 . S
C377 C375 1.389 . S
C377 C378 1.524 . S
C378 C377 1.524 . S
C378 C379 1.397 . S
C378 C383 1.363 . S
C379 H350 0.950 . S
C379 C378 1.397 . S
C379 C380 1.334 . S
C380 H351 0.950 . S
C380 C379 1.334 . S
C380 C381 1.287 . S
C381 C380 1.287 . S
C381 C382 1.524 . S
C381 H384 0.999 . S
C382 H352 0.950 . S
C382 C381 1.524 . S
C382 C383 1.415 . S
C383 H353 0.950 . S
C383 C378 1.363 . S
C383 C382 1.415 . S
H384 C381 0.999 . S
H385 C366 0.913 . S
H386 C404 0.951 . S
H387 C406 0.951 . S
H388 C408 0.950 . S
H389 C409 0.950 . S
H390 C411 0.950 . S
H391 C414 0.950 . S
H392 C415 0.950 . S
H393 C417 0.950 . S
H394 C418 0.950 . S
H395 C419 0.951 . S
H396 C421 0.951 . S
H397 C423 0.950 . S
H398 C424 0.950 . S
H399 C426 0.950 . S
H400 C429 0.950 . S
H401 C430 0.950 . S
H402 C432 0.950 . S
H403 C433 0.950 . S
C404 H386 0.951 . S
C404 C405 1.366 . S
C404 C406 1.388 . S
C405 C404 1.366 . S
C405 C409 1.385 . S
C406 H387 0.951 . S
C406 C404 1.388 . S
C406 C407 1.366 . S
C407 C406 1.366 . S
C407 C408 1.414 . S
C407 C410 1.499 . S
C408 H388 0.950 . S
C408 C407 1.414 . S
C408 C409 1.374 . S
C409 H389 0.950 . S
C409 C405 1.385 . S
C409 C408 1.374 . S
C410 C407 1.499 . S
C410 C411 1.373 . S
C410 C412 1.389 . S
C411 H390 0.950 . S
C411 C410 1.373 . S
C411 C427 1.377 1_655 S
C412 C410 1.389 . S
C412 C413 1.524 . S
C412 C426 1.377 1_655 S
C413 C412 1.524 . S
C413 C414 1.397 . S
C413 C418 1.363 . S
C414 H391 0.950 . S
C414 C413 1.397 . S
C414 C415 1.334 . S
C415 H392 0.950 . S
C415 C414 1.334 . S
C415 C416 1.287 . S
C416 C415 1.287 . S
C416 C417 1.524 . S
C416 H435 0.913 . S
C417 H393 0.950 . S
C417 C416 1.524 . S
C417 C418 1.415 . S
C418 H394 0.950 . S
C418 C413 1.363 . S
C418 C417 1.415 . S
C419 H395 0.951 . S
C419 C420 1.366 . S
C419 C421 1.388 . S
C420 C419 1.366 . S
C420 C424 1.385 . S
C421 H396 0.951 . S
C421 C419 1.388 . S
C421 C422 1.366 . S
C422 C421 1.366 . S
C422 C423 1.414 . S
C422 C425 1.499 . S
C423 H397 0.950 . S
C423 C422 1.414 . S
C423 C424 1.374 . S
C424 H398 0.950 . S
C424 C420 1.385 . S
C424 C423 1.374 . S
C425 C422 1.499 . S
C425 C426 1.373 . S
C425 C427 1.389 . S
C426 H399 0.950 . S
C426 C412 1.377 1_455 S
C426 C425 1.373 . S
C427 C411 1.377 1_455 S
C427 C425 1.389 . S
C427 C428 1.524 . S
C428 C427 1.524 . S
C428 C429 1.397 . S
C428 C433 1.363 . S
C429 H400 0.950 . S
C429 C428 1.397 . S
C429 C430 1.334 . S
C430 H401 0.950 . S
C430 C429 1.334 . S
C430 C431 1.287 . S
C431 C430 1.287 . S
C431 C432 1.524 . S
C431 H434 0.999 . S
C432 H402 0.950 . S
C432 C431 1.524 . S
C432 C433 1.415 . S
C433 H403 0.950 . S
C433 C428 1.363 . S
C433 C432 1.415 . S
H434 C431 0.999 . S
H435 C416 0.913 . S
H436 C454 0.951 . S
H437 C456 0.951 . S
H438 C458 0.950 . S
H439 C459 0.950 . S
H440 C461 0.950 . S
H441 C464 0.950 . S
H442 C465 0.950 . S
H443 C467 0.950 . S
H444 C468 0.950 . S
H445 C469 0.951 . S
H446 C471 0.951 . S
H447 C473 0.950 . S
H448 C474 0.950 . S
H449 C476 0.950 . S
H450 C479 0.950 . S
H451 C480 0.950 . S
H452 C482 0.950 . S
H453 C483 0.950 . S
C454 H436 0.951 . S
C454 C455 1.366 . S
C454 C456 1.388 . S
C455 C454 1.366 . S
C455 C459 1.385 . S
C456 H437 0.951 . S
C456 C454 1.388 . S
C456 C457 1.366 . S
C457 C456 1.366 . S
C457 C458 1.414 . S
C457 C460 1.499 . S
C458 H438 0.950 . S
C458 C457 1.414 . S
C458 C459 1.374 . S
C459 H439 0.950 . S
C459 C455 1.385 . S
C459 C458 1.374 . S
C460 C457 1.499 . S
C460 C461 1.373 . S
C460 C462 1.389 . S
C461 H440 0.950 . S
C461 C460 1.373 . S
C461 C477 1.377 . S
C462 C460 1.389 . S
C462 C463 1.524 . S
C462 C476 1.377 . S
C463 C462 1.524 . S
C463 C464 1.397 . S
C463 C468 1.363 . S
C464 H441 0.950 . S
C464 C463 1.397 . S
C464 C465 1.334 . S
C465 H442 0.950 . S
C465 C464 1.334 . S
C465 C466 1.287 . S
C466 C465 1.287 . S
C466 C467 1.524 . S
C466 H485 0.913 . S
C467 H443 0.950 . S
C467 C466 1.524 . S
C467 C468 1.415 . S
C468 H444 0.950 . S
C468 C463 1.363 . S
C468 C467 1.415 . S
C469 H445 0.951 . S
C469 C470 1.366 . S
C469 C471 1.388 . S
C470 C469 1.366 . S
C470 C474 1.385 . S
C471 H446 0.951 . S
C471 C469 1.388 . S
C471 C472 1.366 . S
C472 C471 1.366 . S
C472 C473 1.414 . S
C472 C475 1.499 . S
C473 H447 0.950 . S
C473 C472 1.414 . S
C473 C474 1.374 . S
C474 H448 0.950 . S
C474 C470 1.385 . S
C474 C473 1.374 . S
C475 C472 1.499 . S
C475 C476 1.373 . S
C475 C477 1.389 . S
C476 H449 0.950 . S
C476 C462 1.377 . S
C476 C475 1.373 . S
C477 C461 1.377 . S
C477 C475 1.389 . S
C477 C478 1.524 . S
C478 C477 1.524 . S
C478 C479 1.397 . S
C478 C483 1.363 . S
C479 H450 0.950 . S
C479 C478 1.397 . S
C479 C480 1.334 . S
C480 H451 0.950 . S
C480 C479 1.334 . S
C480 C481 1.287 . S
C481 C480 1.287 . S
C481 C482 1.524 . S
C481 H484 0.999 . S
C482 H452 0.950 . S
C482 C481 1.524 . S
C482 C483 1.415 . S
C483 H453 0.950 . S
C483 C478 1.363 . S
C483 C482 1.415 . S
H484 C481 0.999 . S
H485 C466 0.913 . S
H486 C504 0.951 . S
H487 C506 0.951 . S
H488 C508 0.950 . S
H489 C509 0.950 . S
H490 C511 0.950 . S
H491 C514 0.950 . S
H492 C515 0.950 . S
H493 C517 0.950 . S
H494 C518 0.950 . S
H495 C519 0.951 . S
H496 C521 0.951 . S
H497 C523 0.950 . S
H498 C524 0.950 . S
H499 C526 0.950 . S
H500 C529 0.950 . S
H501 C530 0.950 . S
H502 C532 0.950 . S
H503 C533 0.950 . S
C504 H486 0.951 . S
C504 C505 1.366 . S
C504 C506 1.388 . S
C505 C504 1.366 . S
C505 C509 1.385 . S
C506 H487 0.951 . S
C506 C504 1.388 . S
C506 C507 1.366 . S
C507 C506 1.366 . S
C507 C508 1.414 . S
C507 C510 1.499 . S
C508 H488 0.950 . S
C508 C507 1.414 . S
C508 C509 1.374 . S
C509 H489 0.950 . S
C509 C505 1.385 . S
C509 C508 1.374 . S
C510 C507 1.499 . S
C510 C511 1.373 . S
C510 C512 1.389 . S
C511 H490 0.950 . S
C511 C510 1.373 . S
C511 C527 1.377 1_455 S
C512 C510 1.389 . S
C512 C513 1.524 . S
C512 C526 1.377 1_455 S
C513 C512 1.524 . S
C513 C514 1.397 . S
C513 C518 1.363 . S
C514 H491 0.950 . S
C514 C513 1.397 . S
C514 C515 1.334 . S
C515 H492 0.950 . S
C515 C514 1.334 . S
C515 C516 1.287 . S
C516 C515 1.287 . S
C516 C517 1.524 . S
C516 H535 0.913 . S
C517 H493 0.950 . S
C517 C516 1.524 . S
C517 C518 1.415 . S
C518 H494 0.950 . S
C518 C513 1.363 . S
C518 C517 1.415 . S
C519 H495 0.951 . S
C519 C520 1.366 . S
C519 C521 1.388 . S
C520 C519 1.366 . S
C520 C524 1.385 . S
C521 H496 0.951 . S
C521 C519 1.388 . S
C521 C522 1.366 . S
C522 C521 1.366 . S
C522 C523 1.414 . S
C522 C525 1.499 . S
C523 H497 0.950 . S
C523 C522 1.414 . S
C523 C524 1.374 . S
C524 H498 0.950 . S
C524 C520 1.385 . S
C524 C523 1.374 . S
C525 C522 1.499 . S
C525 C526 1.373 . S
C525 C527 1.389 . S
C526 H499 0.950 . S
C526 C512 1.377 1_655 S
C526 C525 1.373 . S
C527 C511 1.377 1_655 S
C527 C525 1.389 . S
C527 C528 1.524 . S
C528 C527 1.524 . S
C528 C529 1.397 . S
C528 C533 1.363 . S
C529 H500 0.950 . S
C529 C528 1.397 . S
C529 C530 1.334 . S
C530 H501 0.950 . S
C530 C529 1.334 . S
C530 C531 1.287 . S
C531 C530 1.287 . S
C531 C532 1.524 . S
C531 H534 0.999 . S
C532 H502 0.950 . S
C532 C531 1.524 . S
C532 C533 1.415 . S
C533 H503 0.950 . S
C533 C528 1.363 . S
C533 C532 1.415 . S
H534 C531 0.999 . S
H535 C516 0.913 . S
H536 C554 0.951 . S
H537 C556 0.951 . S
H538 C558 0.950 . S
H539 C559 0.950 . S
H540 C561 0.950 . S
H541 C564 0.950 . S
H542 C565 0.950 . S
H543 C567 0.950 . S
H544 C568 0.950 . S
H545 C569 0.951 . S
H546 C571 0.951 . S
H547 C573 0.950 . S
H548 C574 0.950 . S
H549 C576 0.950 . S
H550 C579 0.950 . S
H551 C580 0.950 . S
H552 C582 0.950 . S
H553 C583 0.950 . S
C554 H536 0.951 . S
C554 C555 1.366 . S
C554 C556 1.388 . S
C555 C554 1.366 . S
C555 C559 1.385 . S
C556 H537 0.951 . S
C556 C554 1.388 . S
C556 C557 1.366 . S
C557 C556 1.366 . S
C557 C558 1.414 . S
C557 C560 1.499 . S
C558 H538 0.950 . S
C558 C557 1.414 . S
C558 C559 1.374 . S
C559 H539 0.950 . S
C559 C555 1.385 . S
C559 C558 1.374 . S
C560 C557 1.499 . S
C560 C561 1.373 . S
C560 C562 1.389 . S
C561 H540 0.950 . S
C561 C560 1.373 . S
C561 C577 1.377 . S
C562 C560 1.389 . S
C562 C563 1.524 . S
C562 C576 1.377 . S
C563 C562 1.524 . S
C563 C564 1.397 . S
C563 C568 1.363 . S
C564 H541 0.950 . S
C564 C563 1.397 . S
C564 C565 1.334 . S
C565 H542 0.950 . S
C565 C564 1.334 . S
C565 C566 1.287 . S
C566 C565 1.287 . S
C566 C567 1.524 . S
C566 H585 0.913 . S
C567 H543 0.950 . S
C567 C566 1.524 . S
C567 C568 1.415 . S
C568 H544 0.950 . S
C568 C563 1.363 . S
C568 C567 1.415 . S
C569 H545 0.951 . S
C569 C570 1.366 . S
C569 C571 1.388 . S
C570 C569 1.366 . S
C570 C574 1.385 . S
C571 H546 0.951 . S
C571 C569 1.388 . S
C571 C572 1.366 . S
C572 C571 1.366 . S
C572 C573 1.414 . S
C572 C575 1.499 . S
C573 H547 0.950 . S
C573 C572 1.414 . S
C573 C574 1.374 . S
C574 H548 0.950 . S
C574 C570 1.385 . S
C574 C573 1.374 . S
C575 C572 1.499 . S
C575 C576 1.373 . S
C575 C577 1.389 . S
C576 H549 0.950 . S
C576 C562 1.377 . S
C576 C575 1.373 . S
C577 C561 1.377 . S
C577 C575 1.389 . S
C577 C578 1.524 . S
C578 C577 1.524 . S
C578 C579 1.397 . S
C578 C583 1.363 . S
C579 H550 0.950 . S
C579 C578 1.397 . S
C579 C580 1.334 . S
C580 H551 0.950 . S
C580 C579 1.334 . S
C580 C581 1.287 . S
C581 C580 1.287 . S
C581 C582 1.524 . S
C581 H584 0.999 . S
C582 H552 0.950 . S
C582 C581 1.524 . S
C582 C583 1.415 . S
C583 H553 0.950 . S
C583 C578 1.363 . S
C583 C582 1.415 . S
H584 C581 0.999 . S
H585 C566 0.913 . S
H586 C604 0.951 . S
H587 C606 0.951 . S
H588 C608 0.950 . S
H589 C609 0.950 . S
H590 C611 0.950 . S
H591 C614 0.950 . S
H592 C615 0.950 . S
H593 C617 0.950 . S
H594 C618 0.950 . S
H595 C619 0.951 . S
H596 C621 0.951 . S
H597 C623 0.950 . S
H598 C624 0.950 . S
H599 C626 0.950 . S
H600 C629 0.950 . S
H601 C630 0.950 . S
H602 C632 0.950 . S
H603 C633 0.950 . S
C604 H586 0.951 . S
C604 C605 1.366 . S
C604 C606 1.388 . S
C605 C604 1.366 . S
C605 C609 1.385 . S
C606 H587 0.951 . S
C606 C604 1.388 . S
C606 C607 1.366 . S
C607 C606 1.366 . S
C607 C608 1.414 . S
C607 C610 1.499 . S
C608 H588 0.950 . S
C608 C607 1.414 . S
C608 C609 1.374 . S
C609 H589 0.950 . S
C609 C605 1.385 . S
C609 C608 1.374 . S
C610 C607 1.499 . S
C610 C611 1.373 . S
C610 C612 1.389 . S
C611 H590 0.950 . S
C611 C610 1.373 . S
C611 C627 1.377 1_655 S
C612 C610 1.389 . S
C612 C613 1.524 . S
C612 C626 1.377 1_655 S
C613 C612 1.524 . S
C613 C614 1.397 . S
C613 C618 1.363 . S
C614 H591 0.950 . S
C614 C613 1.397 . S
C614 C615 1.334 . S
C615 H592 0.950 . S
C615 C614 1.334 . S
C615 C616 1.287 . S
C616 C615 1.287 . S
C616 C617 1.524 . S
C616 H635 0.913 . S
C617 H593 0.950 . S
C617 C616 1.524 . S
C617 C618 1.415 . S
C618 H594 0.950 . S
C618 C613 1.363 . S
C618 C617 1.415 . S
C619 H595 0.951 . S
C619 C620 1.366 . S
C619 C621 1.388 . S
C620 C619 1.366 . S
C620 C624 1.385 . S
C621 H596 0.951 . S
C621 C619 1.388 . S
C621 C622 1.366 . S
C622 C621 1.366 . S
C622 C623 1.414 . S
C622 C625 1.499 . S
C623 H597 0.950 . S
C623 C622 1.414 . S
C623 C624 1.374 . S
C624 H598 0.950 . S
C624 C620 1.385 . S
C624 C623 1.374 . S
C625 C622 1.499 . S
C625 C626 1.373 . S
C625 C627 1.389 . S
C626 H599 0.950 . S
C626 C612 1.377 1_455 S
C626 C625 1.373 . S
C627 C611 1.377 1_455 S
C627 C625 1.389 . S
C627 C628 1.524 . S
C628 C627 1.524 . S
C628 C629 1.397 . S
C628 C633 1.363 . S
C629 H600 0.950 . S
C629 C628 1.397 . S
C629 C630 1.334 . S
C630 H601 0.950 . S
C630 C629 1.334 . S
C630 C631 1.287 . S
C631 C630 1.287 . S
C631 C632 1.524 . S
C631 H634 0.999 . S
C632 H602 0.950 . S
C632 C631 1.524 . S
C632 C633 1.415 . S
C633 H603 0.950 . S
C633 C628 1.363 . S
C633 C632 1.415 . S
H634 C631 0.999 . S
H635 C616 0.913 . S
H636 C654 0.951 . S
H637 C656 0.951 . S
H638 C658 0.950 . S
H639 C659 0.950 . S
H640 C661 0.950 . S
H641 C664 0.950 . S
H642 C665 0.950 . S
H643 C667 0.950 . S
H644 C668 0.950 . S
H645 C669 0.951 . S
H646 C671 0.951 . S
H647 C673 0.950 . S
H648 C674 0.950 . S
H649 C676 0.950 . S
H650 C679 0.950 . S
H651 C680 0.950 . S
H652 C682 0.950 . S
H653 C683 0.950 . S
C654 H636 0.951 . S
C654 C655 1.366 . S
C654 C656 1.388 . S
C655 C654 1.366 . S
C655 C659 1.385 . S
C656 H637 0.951 . S
C656 C654 1.388 . S
C656 C657 1.366 . S
C657 C656 1.366 . S
C657 C658 1.414 . S
C657 C660 1.499 . S
C658 H638 0.950 . S
C658 C657 1.414 . S
C658 C659 1.374 . S
C659 H639 0.950 . S
C659 C655 1.385 . S
C659 C658 1.374 . S
C660 C657 1.499 . S
C660 C661 1.373 . S
C660 C662 1.389 . S
C661 H640 0.950 . S
C661 C660 1.373 . S
C661 C677 1.377 . S
C662 C660 1.389 . S
C662 C663 1.524 . S
C662 C676 1.377 . S
C663 C662 1.524 . S
C663 C664 1.397 . S
C663 C668 1.363 . S
C664 H641 0.950 . S
C664 C663 1.397 . S
C664 C665 1.334 . S
C665 H642 0.950 . S
C665 C664 1.334 . S
C665 C666 1.287 . S
C666 C665 1.287 . S
C666 C667 1.524 . S
C666 H685 0.913 . S
C667 H643 0.950 . S
C667 C666 1.524 . S
C667 C668 1.415 . S
C668 H644 0.950 . S
C668 C663 1.363 . S
C668 C667 1.415 . S
C669 H645 0.951 . S
C669 C670 1.366 . S
C669 C671 1.388 . S
C670 C669 1.366 . S
C670 C674 1.385 . S
C671 H646 0.951 . S
C671 C669 1.388 . S
C671 C672 1.366 . S
C672 C671 1.366 . S
C672 C673 1.414 . S
C672 C675 1.499 . S
C673 H647 0.950 . S
C673 C672 1.414 . S
C673 C674 1.374 . S
C674 H648 0.950 . S
C674 C670 1.385 . S
C674 C673 1.374 . S
C675 C672 1.499 . S
C675 C676 1.373 . S
C675 C677 1.389 . S
C676 H649 0.950 . S
C676 C662 1.377 . S
C676 C675 1.373 . S
C677 C661 1.377 . S
C677 C675 1.389 . S
C677 C678 1.524 . S
C678 C677 1.524 . S
C678 C679 1.397 . S
C678 C683 1.363 . S
C679 H650 0.950 . S
C679 C678 1.397 . S
C679 C680 1.334 . S
C680 H651 0.950 . S
C680 C679 1.334 . S
C680 C681 1.287 . S
C681 C680 1.287 . S
C681 C682 1.524 . S
C681 H684 0.999 . S
C682 H652 0.950 . S
C682 C681 1.524 . S
C682 C683 1.415 . S
C683 H653 0.950 . S
C683 C678 1.363 . S
C683 C682 1.415 . S
H684 C681 0.999 . S
H685 C666 0.913 . S
H686 C704 0.951 . S
H687 C706 0.951 . S
H688 C708 0.950 . S
H689 C709 0.950 . S
H690 C711 0.950 . S
H691 C714 0.950 . S
H692 C715 0.950 . S
H693 C717 0.950 . S
H694 C718 0.950 . S
H695 C719 0.951 . S
H696 C721 0.951 . S
H697 C723 0.950 . S
H698 C724 0.950 . S
H699 C726 0.950 . S
H700 C729 0.950 . S
H701 C730 0.950 . S
H702 C732 0.950 . S
H703 C733 0.950 . S
C704 H686 0.951 . S
C704 C705 1.366 . S
C704 C706 1.388 . S
C705 C704 1.366 . S
C705 C709 1.385 . S
C706 H687 0.951 . S
C706 C704 1.388 . S
C706 C707 1.366 . S
C707 C706 1.366 . S
C707 C708 1.414 . S
C707 C710 1.499 . S
C708 H688 0.950 . S
C708 C707 1.414 . S
C708 C709 1.374 . S
C709 H689 0.950 . S
C709 C705 1.385 . S
C709 C708 1.374 . S
C710 C707 1.499 . S
C710 C711 1.373 . S
C710 C712 1.389 . S
C711 H690 0.950 . S
C711 C710 1.373 . S
C711 C727 1.377 1_655 S
C712 C710 1.389 . S
C712 C713 1.524 . S
C712 C726 1.377 1_655 S
C713 C712 1.524 . S
C713 C714 1.397 . S
C713 C718 1.363 . S
C714 H691 0.950 . S
C714 C713 1.397 . S
C714 C715 1.334 . S
C715 H692 0.950 . S
C715 C714 1.334 . S
C715 C716 1.287 . S
C716 C715 1.287 . S
C716 C717 1.524 . S
C716 H735 0.913 . S
C717 H693 0.950 . S
C717 C716 1.524 . S
C717 C718 1.415 . S
C718 H694 0.950 . S
C718 C713 1.363 . S
C718 C717 1.415 . S
C719 H695 0.951 . S
C719 C720 1.366 . S
C719 C721 1.388 . S
C720 C719 1.366 . S
C720 C724 1.385 . S
C721 H696 0.951 . S
C721 C719 1.388 . S
C721 C722 1.366 . S
C722 C721 1.366 . S
C722 C723 1.414 . S
C722 C725 1.499 . S
C723 H697 0.950 . S
C723 C722 1.414 . S
C723 C724 1.374 . S
C724 H698 0.950 . S
C724 C720 1.385 . S
C724 C723 1.374 . S
C725 C722 1.499 . S
C725 C726 1.373 . S
C725 C727 1.389 . S
C726 H699 0.950 . S
C726 C712 1.377 1_455 S
C726 C725 1.373 . S
C727 C711 1.377 1_455 S
C727 C725 1.389 . S
C727 C728 1.524 . S
C728 C727 1.524 . S
C728 C729 1.397 . S
C728 C733 1.363 . S
C729 H700 0.950 . S
C729 C728 1.397 . S
C729 C730 1.334 . S
C730 H701 0.950 . S
C730 C729 1.334 . S
C730 C731 1.287 . S
C731 C730 1.287 . S
C731 C732 1.524 . S
C731 H734 0.999 . S
C732 H702 0.950 . S
C732 C731 1.524 . S
C732 C733 1.415 . S
C733 H703 0.950 . S
C733 C728 1.363 . S
C733 C732 1.415 . S
H734 C731 0.999 . S
H735 C716 0.913 . S
H736 C754 0.951 . S
H737 C756 0.951 . S
H738 C758 0.950 . S
H739 C759 0.950 . S
H740 C761 0.950 . S
H741 C764 0.950 . S
H742 C765 0.950 . S
H743 C767 0.950 . S
H744 C768 0.950 . S
H745 C769 0.951 . S
H746 C771 0.951 . S
H747 C773 0.950 . S
H748 C774 0.950 . S
H749 C776 0.950 . S
H750 C779 0.950 . S
H751 C780 0.950 . S
H752 C782 0.950 . S
H753 C783 0.950 . S
C754 H736 0.951 . S
C754 C755 1.366 . S
C754 C756 1.388 . S
C755 C754 1.366 . S
C755 C759 1.385 . S
C756 H737 0.951 . S
C756 C754 1.388 . S
C756 C757 1.366 . S
C757 C756 1.366 . S
C757 C758 1.414 . S
C757 C760 1.499 . S
C758 H738 0.950 . S
C758 C757 1.414 . S
C758 C759 1.374 . S
C759 H739 0.950 . S
C759 C755 1.385 . S
C759 C758 1.374 . S
C760 C757 1.499 . S
C760 C761 1.373 . S
C760 C762 1.389 . S
C761 H740 0.950 . S
C761 C760 1.373 . S
C761 C777 1.377 . S
C762 C760 1.389 . S
C762 C763 1.524 . S
C762 C776 1.377 . S
C763 C762 1.524 . S
C763 C764 1.397 . S
C763 C768 1.363 . S
C764 H741 0.950 . S
C764 C763 1.397 . S
C764 C765 1.334 . S
C765 H742 0.950 . S
C765 C764 1.334 . S
C765 C766 1.287 . S
C766 C765 1.287 . S
C766 C767 1.524 . S
C766 H785 0.913 . S
C767 H743 0.950 . S
C767 C766 1.524 . S
C767 C768 1.415 . S
C768 H744 0.950 . S
C768 C763 1.363 . S
C768 C767 1.415 . S
C769 H745 0.951 . S
C769 C770 1.366 . S
C769 C771 1.388 . S
C770 C769 1.366 . S
C770 C774 1.385 . S
C771 H746 0.951 . S
C771 C769 1.388 . S
C771 C772 1.366 . S
C772 C771 1.366 . S
C772 C773 1.414 . S
C772 C775 1.499 . S
C773 H747 0.950 . S
C773 C772 1.414 . S
C773 C774 1.374 . S
C774 H748 0.950 . S
C774 C770 1.385 . S
C774 C773 1.374 . S
C775 C772 1.499 . S
C775 C776 1.373 . S
C775 C777 1.389 . S
C776 H749 0.950 . S
C776 C762 1.377 . S
C776 C775 1.373 . S
C777 C761 1.377 . S
C777 C775 1.389 . S
C777 C778 1.524 . S
C778 C777 1.524 . S
C778 C779 1.397 . S
C778 C783 1.363 . S
C779 H750 0.950 . S
C779 C778 1.397 . S
C779 C780 1.334 . S
C780 H751 0.950 . S
C780 C779 1.334 . S
C780 C781 1.287 . S
C781 C780 1.287 . S
C781 C782 1.524 . S
C781 H784 0.999 . S
C782 H752 0.950 . S
C782 C781 1.524 . S
C782 C783 1.415 . S
C783 H753 0.950 . S
C783 C778 1.363 . S
C783 C782 1.415 . S
H784 C781 0.999 . S
H785 C766 0.913 . S
H786 C804 0.951 . S
H787 C806 0.951 . S
H788 C808 0.950 . S
H789 C809 0.950 . S
H790 C811 0.950 . S
H791 C814 0.950 . S
H792 C815 0.950 . S
H793 C817 0.950 . S
H794 C818 0.950 . S
H795 C819 0.951 . S
H796 C821 0.951 . S
H797 C823 0.950 . S
H798 C824 0.950 . S
H799 C826 0.950 . S
H800 C829 0.950 . S
H801 C830 0.950 . S
H802 C832 0.950 . S
H803 C833 0.950 . S
C804 H786 0.951 . S
C804 C805 1.366 . S
C804 C806 1.388 . S
C805 C804 1.366 . S
C805 C809 1.385 . S
C806 H787 0.951 . S
C806 C804 1.388 . S
C806 C807 1.366 . S
C807 C806 1.366 . S
C807 C808 1.414 . S
C807 C810 1.499 . S
C808 H788 0.950 . S
C808 C807 1.414 . S
C808 C809 1.374 . S
C809 H789 0.950 . S
C809 C805 1.385 . S
C809 C808 1.374 . S
C810 C807 1.499 . S
C810 C811 1.373 . S
C810 C812 1.389 . S
C811 H790 0.950 . S
C811 C810 1.373 . S
C811 C827 1.377 1_556 S
C812 C810 1.389 . S
C812 C813 1.524 . S
C812 C826 1.377 1_556 S
C813 C812 1.524 . S
C813 C814 1.397 . S
C813 C818 1.363 . S
C814 H791 0.950 . S
C814 C813 1.397 . S
C814 C815 1.334 . S
C815 H792 0.950 . S
C815 C814 1.334 . S
C815 C816 1.287 . S
C816 C815 1.287 . S
C816 C817 1.524 . S
C816 H835 0.913 . S
C817 H793 0.950 . S
C817 C816 1.524 . S
C817 C818 1.415 . S
C818 H794 0.950 . S
C818 C813 1.363 . S
C818 C817 1.415 . S
C819 H795 0.951 . S
C819 C820 1.366 . S
C819 C821 1.388 . S
C820 C819 1.366 . S
C820 C824 1.385 . S
C821 H796 0.951 . S
C821 C819 1.388 . S
C821 C822 1.366 . S
C822 C821 1.366 . S
C822 C823 1.414 . S
C822 C825 1.499 . S
C823 H797 0.950 . S
C823 C822 1.414 . S
C823 C824 1.374 . S
C824 H798 0.950 . S
C824 C820 1.385 . S
C824 C823 1.374 . S
C825 C822 1.499 . S
C825 C826 1.373 . S
C825 C827 1.389 . S
C826 H799 0.950 . S
C826 C812 1.377 1_554 S
C826 C825 1.373 . S
C827 C811 1.377 1_554 S
C827 C825 1.389 . S
C827 C828 1.524 . S
C828 C827 1.524 . S
C828 C829 1.397 . S
C828 C833 1.363 . S
C829 H800 0.950 . S
C829 C828 1.397 . S
C829 C830 1.334 . S
C830 H801 0.950 . S
C830 C829 1.334 . S
C830 C831 1.287 . S
C831 C830 1.287 . S
C831 C832 1.524 . S
C831 H834 0.999 . S
C832 H802 0.950 . S
C832 C831 1.524 . S
C832 C833 1.415 . S
C833 H803 0.950 . S
C833 C828 1.363 . S
C833 C832 1.415 . S
H834 C831 0.999 . S
H835 C816 0.913 . S
H836 C854 0.951 . S
H837 C856 0.951 . S
H838 C858 0.950 . S
H839 C859 0.950 . S
H840 C861 0.950 . S
H841 C864 0.950 . S
H842 C865 0.950 . S
H843 C867 0.950 . S
H844 C868 0.950 . S
H845 C869 0.951 . S
H846 C871 0.951 . S
H847 C873 0.950 . S
H848 C874 0.950 . S
H849 C876 0.950 . S
H850 C879 0.950 . S
H851 C880 0.950 . S
H852 C882 0.950 . S
H853 C883 0.950 . S
C854 H836 0.951 . S
C854 C855 1.366 . S
C854 C856 1.388 . S
C855 C854 1.366 . S
C855 C859 1.385 . S
C856 H837 0.951 . S
C856 C854 1.388 . S
C856 C857 1.366 . S
C857 C856 1.366 . S
C857 C858 1.414 . S
C857 C860 1.499 . S
C858 H838 0.950 . S
C858 C857 1.414 . S
C858 C859 1.374 . S
C859 H839 0.950 . S
C859 C855 1.385 . S
C859 C858 1.374 . S
C860 C857 1.499 . S
C860 C861 1.373 . S
C860 C862 1.389 . S
C861 H840 0.950 . S
C861 C860 1.373 . S
C861 C877 1.377 . S
C862 C860 1.389 . S
C862 C863 1.524 . S
C862 C876 1.377 . S
C863 C862 1.524 . S
C863 C864 1.397 . S
C863 C868 1.363 . S
C864 H841 0.950 . S
C864 C863 1.397 . S
C864 C865 1.334 . S
C865 H842 0.950 . S
C865 C864 1.334 . S
C865 C866 1.287 . S
C866 C865 1.287 . S
C866 C867 1.524 . S
C866 H885 0.913 . S
C867 H843 0.950 . S
C867 C866 1.524 . S
C867 C868 1.415 . S
C868 H844 0.950 . S
C868 C863 1.363 . S
C868 C867 1.415 . S
C869 H845 0.951 . S
C869 C870 1.366 . S
C869 C871 1.388 . S
C870 C869 1.366 . S
C870 C874 1.385 . S
C871 H846 0.951 . S
C871 C869 1.388 . S
C871 C872 1.366 . S
C872 C871 1.366 . S
C872 C873 1.414 . S
C872 C875 1.499 . S
C873 H847 0.950 . S
C873 C872 1.414 . S
C873 C874 1.374 . S
C874 H848 0.950 . S
C874 C870 1.385 . S
C874 C873 1.374 . S
C875 C872 1.499 . S
C875 C876 1.373 . S
C875 C877 1.389 . S
C876 H849 0.950 . S
C876 C862 1.377 . S
C876 C875 1.373 . S
C877 C861 1.377 . S
C877 C875 1.389 . S
C877 C878 1.524 . S
C878 C877 1.524 . S
C878 C879 1.397 . S
C878 C883 1.363 . S
C879 H850 0.950 . S
C879 C878 1.397 . S
C879 C880 1.334 . S
C880 H851 0.950 . S
C880 C879 1.334 . S
C880 C881 1.287 . S
C881 C880 1.287 . S
C881 C882 1.524 . S
C881 H884 0.999 . S
C882 H852 0.950 . S
C882 C881 1.524 . S
C882 C883 1.415 . S
C883 H853 0.950 . S
C883 C878 1.363 . S
C883 C882 1.415 . S
H884 C881 0.999 . S
H885 C866 0.913 . S
H886 C904 0.951 . S
H887 C906 0.951 . S
H888 C908 0.950 . S
H889 C909 0.950 . S
H890 C911 0.950 . S
H891 C914 0.950 . S
H892 C915 0.950 . S
H893 C917 0.950 . S
H894 C918 0.950 . S
H895 C919 0.951 . S
H896 C921 0.951 . S
H897 C923 0.950 . S
H898 C924 0.950 . S
H899 C926 0.950 . S
H900 C929 0.950 . S
H901 C930 0.950 . S
H902 C932 0.950 . S
H903 C933 0.950 . S
C904 H886 0.951 . S
C904 C905 1.366 . S
C904 C906 1.388 . S
C905 C904 1.366 . S
C905 C909 1.385 . S
C906 H887 0.951 . S
C906 C904 1.388 . S
C906 C907 1.366 . S
C907 C906 1.366 . S
C907 C908 1.414 . S
C907 C910 1.499 . S
C908 H888 0.950 . S
C908 C907 1.414 . S
C908 C909 1.374 . S
C909 H889 0.950 . S
C909 C905 1.385 . S
C909 C908 1.374 . S
C910 C907 1.499 . S
C910 C911 1.373 . S
C910 C912 1.389 . S
C911 H890 0.950 . S
C911 C910 1.373 . S
C911 C927 1.377 1_554 S
C912 C910 1.389 . S
C912 C913 1.524 . S
C912 C926 1.377 1_554 S
C913 C912 1.524 . S
C913 C914 1.397 . S
C913 C918 1.363 . S
C914 H891 0.950 . S
C914 C913 1.397 . S
C914 C915 1.334 . S
C915 H892 0.950 . S
C915 C914 1.334 . S
C915 C916 1.287 . S
C916 C915 1.287 . S
C916 C917 1.524 . S
C916 H935 0.913 . S
C917 H893 0.950 . S
C917 C916 1.524 . S
C917 C918 1.415 . S
C918 H894 0.950 . S
C918 C913 1.363 . S
C918 C917 1.415 . S
C919 H895 0.951 . S
C919 C920 1.366 . S
C919 C921 1.388 . S
C920 C919 1.366 . S
C920 C924 1.385 . S
C921 H896 0.951 . S
C921 C919 1.388 . S
C921 C922 1.366 . S
C922 C921 1.366 . S
C922 C923 1.414 . S
C922 C925 1.499 . S
C923 H897 0.950 . S
C923 C922 1.414 . S
C923 C924 1.374 . S
C924 H898 0.950 . S
C924 C920 1.385 . S
C924 C923 1.374 . S
C925 C922 1.499 . S
C925 C926 1.373 . S
C925 C927 1.389 . S
C926 H899 0.950 . S
C926 C912 1.377 1_556 S
C926 C925 1.373 . S
C927 C911 1.377 1_556 S
C927 C925 1.389 . S
C927 C928 1.524 . S
C928 C927 1.524 . S
C928 C929 1.397 . S
C928 C933 1.363 . S
C929 H900 0.950 . S
C929 C928 1.397 . S
C929 C930 1.334 . S
C930 H901 0.950 . S
C930 C929 1.334 . S
C930 C931 1.287 . S
C931 C930 1.287 . S
C931 C932 1.524 . S
C931 H934 0.999 . S
C932 H902 0.950 . S
C932 C931 1.524 . S
C932 C933 1.415 . S
C933 H903 0.950 . S
C933 C928 1.363 . S
C933 C932 1.415 . S
H934 C931 0.999 . S
H935 C916 0.913 . S
H936 C954 0.951 . S
H937 C956 0.951 . S
H938 C958 0.950 . S
H939 C959 0.950 . S
H940 C961 0.950 . S
H941 C964 0.950 . S
H942 C965 0.950 . S
H943 C967 0.950 . S
H944 C968 0.950 . S
H945 C969 0.951 . S
H946 C971 0.951 . S
H947 C973 0.950 . S
H948 C974 0.950 . S
H949 C976 0.950 . S
H950 C979 0.950 . S
H951 C980 0.950 . S
H952 C982 0.950 . S
H953 C983 0.950 . S
C954 H936 0.951 . S
C954 C955 1.366 . S
C954 C956 1.388 . S
C955 C954 1.366 . S
C955 C959 1.385 . S
C956 H937 0.951 . S
C956 C954 1.388 . S
C956 C957 1.366 . S
C957 C956 1.366 . S
C957 C958 1.414 . S
C957 C960 1.499 . S
C958 H938 0.950 . S
C958 C957 1.414 . S
C958 C959 1.374 . S
C959 H939 0.950 . S
C959 C955 1.385 . S
C959 C958 1.374 . S
C960 C957 1.499 . S
C960 C961 1.373 . S
C960 C962 1.389 . S
C961 H940 0.950 . S
C961 C960 1.373 . S
C961 C977 1.377 . S
C962 C960 1.389 . S
C962 C963 1.524 . S
C962 C976 1.377 . S
C963 C962 1.524 . S
C963 C964 1.397 . S
C963 C968 1.363 . S
C964 H941 0.950 . S
C964 C963 1.397 . S
C964 C965 1.334 . S
C965 H942 0.950 . S
C965 C964 1.334 . S
C965 C966 1.287 . S
C966 C965 1.287 . S
C966 C967 1.524 . S
C966 H985 0.913 . S
C967 H943 0.950 . S
C967 C966 1.524 . S
C967 C968 1.415 . S
C968 H944 0.950 . S
C968 C963 1.363 . S
C968 C967 1.415 . S
C969 H945 0.951 . S
C969 C970 1.366 . S
C969 C971 1.388 . S
C970 C969 1.366 . S
C970 C974 1.385 . S
C971 H946 0.951 . S
C971 C969 1.388 . S
C971 C972 1.366 . S
C972 C971 1.366 . S
C972 C973 1.414 . S
C972 C975 1.499 . S
C973 H947 0.950 . S
C973 C972 1.414 . S
C973 C974 1.374 . S
C974 H948 0.950 . S
C974 C970 1.385 . S
C974 C973 1.374 . S
C975 C972 1.499 . S
C975 C976 1.373 . S
C975 C977 1.389 . S
C976 H949 0.950 . S
C976 C962 1.377 . S
C976 C975 1.373 . S
C977 C961 1.377 . S
C977 C975 1.389 . S
C977 C978 1.524 . S
C978 C977 1.524 . S
C978 C979 1.397 . S
C978 C983 1.363 . S
C979 H950 0.950 . S
C979 C978 1.397 . S
C979 C980 1.334 . S
C980 H951 0.950 . S
C980 C979 1.334 . S
C980 C981 1.287 . S
C981 C980 1.287 . S
C981 C982 1.524 . S
C981 H984 0.999 . S
C982 H952 0.950 . S
C982 C981 1.524 . S
C982 C983 1.415 . S
C983 H953 0.950 . S
C983 C978 1.363 . S
C983 C982 1.415 . S
H984 C981 0.999 . S
H985 C966 0.913 . S
H986 C1004 0.951 . S
H987 C1006 0.951 . S
H988 C1008 0.950 . S
H989 C1009 0.950 . S
H990 C1011 0.950 . S
H991 C1014 0.950 . S
H992 C1015 0.950 . S
H993 C1017 0.950 . S
H994 C1018 0.950 . S
H995 C1019 0.951 . S
H996 C1021 0.951 . S
H997 C1023 0.950 . S
H998 C1024 0.950 . S
H999 C1026 0.950 . S
H1000 C1029 0.950 . S
H1001 C1030 0.950 . S
H1002 C1032 0.950 . S
H1003 C1033 0.950 . S
C1004 H986 0.951 . S
C1004 C1005 1.366 . S
C1004 C1006 1.388 . S
C1005 C1004 1.366 . S
C1005 C1009 1.385 . S
C1006 H987 0.951 . S
C1006 C1004 1.388 . S
C1006 C1007 1.366 . S
C1007 C1006 1.366 . S
C1007 C1008 1.414 . S
C1007 C1010 1.499 . S
C1008 H988 0.950 . S
C1008 C1007 1.414 . S
C1008 C1009 1.374 . S
C1009 H989 0.950 . S
C1009 C1005 1.385 . S
C1009 C1008 1.374 . S
C1010 C1007 1.499 . S
C1010 C1011 1.373 . S
C1010 C1012 1.389 . S
C1011 H990 0.950 . S
C1011 C1010 1.373 . S
C1011 C1027 1.377 1_554 S
C1012 C1010 1.389 . S
C1012 C1013 1.524 . S
C1012 C1026 1.377 1_554 S
C1013 C1012 1.524 . S
C1013 C1014 1.397 . S
C1013 C1018 1.363 . S
C1014 H991 0.950 . S
C1014 C1013 1.397 . S
C1014 C1015 1.334 . S
C1015 H992 0.950 . S
C1015 C1014 1.334 . S
C1015 C1016 1.287 . S
C1016 C1015 1.287 . S
C1016 C1017 1.524 . S
C1016 H1035 0.913 . S
C1017 H993 0.950 . S
C1017 C1016 1.524 . S
C1017 C1018 1.415 . S
C1018 H994 0.950 . S
C1018 C1013 1.363 . S
C1018 C1017 1.415 . S
C1019 H995 0.951 . S
C1019 C1020 1.366 . S
C1019 C1021 1.388 . S
C1020 C1019 1.366 . S
C1020 C1024 1.385 . S
C1021 H996 0.951 . S
C1021 C1019 1.388 . S
C1021 C1022 1.366 . S
C1022 C1021 1.366 . S
C1022 C1023 1.414 . S
C1022 C1025 1.499 . S
C1023 H997 0.950 . S
C1023 C1022 1.414 . S
C1023 C1024 1.374 . S
C1024 H998 0.950 . S
C1024 C1020 1.385 . S
C1024 C1023 1.374 . S
C1025 C1022 1.499 . S
C1025 C1026 1.373 . S
C1025 C1027 1.389 . S
C1026 H999 0.950 . S
C1026 C1012 1.377 1_556 S
C1026 C1025 1.373 . S
C1027 C1011 1.377 1_556 S
C1027 C1025 1.389 . S
C1027 C1028 1.524 . S
C1028 C1027 1.524 . S
C1028 C1029 1.397 . S
C1028 C1033 1.363 . S
C1029 H1000 0.950 . S
C1029 C1028 1.397 . S
C1029 C1030 1.334 . S
C1030 H1001 0.950 . S
C1030 C1029 1.334 . S
C1030 C1031 1.287 . S
C1031 C1030 1.287 . S
C1031 C1032 1.524 . S
C1031 H1034 0.999 . S
C1032 H1002 0.950 . S
C1032 C1031 1.524 . S
C1032 C1033 1.415 . S
C1033 H1003 0.950 . S
C1033 C1028 1.363 . S
C1033 C1032 1.415 . S
H1034 C1031 0.999 . S
H1035 C1016 0.913 . S
H1036 C1054 0.951 . S
H1037 C1056 0.951 . S
H1038 C1058 0.950 . S
H1039 C1059 0.950 . S
H1040 C1061 0.950 . S
H1041 C1064 0.950 . S
H1042 C1065 0.950 . S
H1043 C1067 0.950 . S
H1044 C1068 0.950 . S
H1045 C1069 0.951 . S
H1046 C1071 0.951 . S
H1047 C1073 0.950 . S
H1048 C1074 0.950 . S
H1049 C1076 0.950 . S
H1050 C1079 0.950 . S
H1051 C1080 0.950 . S
H1052 C1082 0.950 . S
H1053 C1083 0.950 . S
C1054 H1036 0.951 . S
C1054 C1055 1.366 . S
C1054 C1056 1.388 . S
C1055 C1054 1.366 . S
C1055 C1059 1.385 . S
C1056 H1037 0.951 . S
C1056 C1054 1.388 . S
C1056 C1057 1.366 . S
C1057 C1056 1.366 . S
C1057 C1058 1.414 . S
C1057 C1060 1.499 . S
C1058 H1038 0.950 . S
C1058 C1057 1.414 . S
C1058 C1059 1.374 . S
C1059 H1039 0.950 . S
C1059 C1055 1.385 . S
C1059 C1058 1.374 . S
C1060 C1057 1.499 . S
C1060 C1061 1.373 . S
C1060 C1062 1.389 . S
C1061 H1040 0.950 . S
C1061 C1060 1.373 . S
C1061 C1077 1.377 . S
C1062 C1060 1.389 . S
C1062 C1063 1.524 . S
C1062 C1076 1.377 . S
C1063 C1062 1.524 . S
C1063 C1064 1.397 . S
C1063 C1068 1.363 . S
C1064 H1041 0.950 . S
C1064 C1063 1.397 . S
C1064 C1065 1.334 . S
C1065 H1042 0.950 . S
C1065 C1064 1.334 . S
C1065 C1066 1.287 . S
C1066 C1065 1.287 . S
C1066 C1067 1.524 . S
C1066 H1085 0.913 . S
C1067 H1043 0.950 . S
C1067 C1066 1.524 . S
C1067 C1068 1.415 . S
C1068 H1044 0.950 . S
C1068 C1063 1.363 . S
C1068 C1067 1.415 . S
C1069 H1045 0.951 . S
C1069 C1070 1.366 . S
C1069 C1071 1.388 . S
C1070 C1069 1.366 . S
C1070 C1074 1.385 . S
C1071 H1046 0.951 . S
C1071 C1069 1.388 . S
C1071 C1072 1.366 . S
C1072 C1071 1.366 . S
C1072 C1073 1.414 . S
C1072 C1075 1.499 . S
C1073 H1047 0.950 . S
C1073 C1072 1.414 . S
C1073 C1074 1.374 . S
C1074 H1048 0.950 . S
C1074 C1070 1.385 . S
C1074 C1073 1.374 . S
C1075 C1072 1.499 . S
C1075 C1076 1.373 . S
C1075 C1077 1.389 . S
C1076 H1049 0.950 . S
C1076 C1062 1.377 . S
C1076 C1075 1.373 . S
C1077 C1061 1.377 . S
C1077 C1075 1.389 . S
C1077 C1078 1.524 . S
C1078 C1077 1.524 . S
C1078 C1079 1.397 . S
C1078 C1083 1.363 . S
C1079 H1050 0.950 . S
C1079 C1078 1.397 . S
C1079 C1080 1.334 . S
C1080 H1051 0.950 . S
C1080 C1079 1.334 . S
C1080 C1081 1.287 . S
C1081 C1080 1.287 . S
C1081 C1082 1.524 . S
C1081 H1084 0.999 . S
C1082 H1052 0.950 . S
C1082 C1081 1.524 . S
C1082 C1083 1.415 . S
C1083 H1053 0.950 . S
C1083 C1078 1.363 . S
C1083 C1082 1.415 . S
H1084 C1081 0.999 . S
H1085 C1066 0.913 . S
H1086 C1104 0.951 . S
H1087 C1106 0.951 . S
H1088 C1108 0.950 . S
H1089 C1109 0.950 . S
H1090 C1111 0.950 . S
H1091 C1114 0.950 . S
H1092 C1115 0.950 . S
H1093 C1117 0.950 . S
H1094 C1118 0.950 . S
H1095 C1119 0.951 . S
H1096 C1121 0.951 . S
H1097 C1123 0.950 . S
H1098 C1124 0.950 . S
H1099 C1126 0.950 . S
H1100 C1129 0.950 . S
H1101 C1130 0.950 . S
H1102 C1132 0.950 . S
H1103 C1133 0.950 . S
C1104 H1086 0.951 . S
C1104 C1105 1.366 . S
C1104 C1106 1.388 . S
C1105 C1104 1.366 . S
C1105 C1109 1.385 . S
C1106 H1087 0.951 . S
C1106 C1104 1.388 . S
C1106 C1107 1.366 . S
C1107 C1106 1.366 . S
C1107 C1108 1.414 . S
C1107 C1110 1.499 . S
C1108 H1088 0.950 . S
C1108 C1107 1.414 . S
C1108 C1109 1.374 . S
C1109 H1089 0.950 . S
C1109 C1105 1.385 . S
C1109 C1108 1.374 . S
C1110 C1107 1.499 . S
C1110 C1111 1.373 . S
C1110 C1112 1.389 . S
C1111 H1090 0.950 . S
C1111 C1110 1.373 . S
C1111 C1127 1.377 1_554 S
C1112 C1110 1.389 . S
C1112 C1113 1.524 . S
C1112 C1126 1.377 1_554 S
C1113 C1112 1.524 . S
C1113 C1114 1.397 . S
C1113 C1118 1.363 . S
C1114 H1091 0.950 . S
C1114 C1113 1.397 . S
C1114 C1115 1.334 . S
C1115 H1092 0.950 . S
C1115 C1114 1.334 . S
C1115 C1116 1.287 . S
C1116 C1115 1.287 . S
C1116 C1117 1.524 . S
C1116 H1135 0.913 . S
C1117 H1093 0.950 . S
C1117 C1116 1.524 . S
C1117 C1118 1.415 . S
C1118 H1094 0.950 . S
C1118 C1113 1.363 . S
C1118 C1117 1.415 . S
C1119 H1095 0.951 . S
C1119 C1120 1.366 . S
C1119 C1121 1.388 . S
C1120 C1119 1.366 . S
C1120 C1124 1.385 . S
C1121 H1096 0.951 . S
C1121 C1119 1.388 . S
C1121 C1122 1.366 . S
C1122 C1121 1.366 . S
C1122 C1123 1.414 . S
C1122 C1125 1.499 . S
C1123 H1097 0.950 . S
C1123 C1122 1.414 . S
C1123 C1124 1.374 . S
C1124 H1098 0.950 . S
C1124 C1120 1.385 . S
C1124 C1123 1.374 . S
C1125 C1122 1.499 . S
C1125 C1126 1.373 . S
C1125 C1127 1.389 . S
C1126 H1099 0.950 . S
C1126 C1112 1.377 1_556 S
C1126 C1125 1.373 . S
C1127 C1111 1.377 1_556 S
C1127 C1125 1.389 . S
C1127 C1128 1.524 . S
C1128 C1127 1.524 . S
C1128 C1129 1.397 . S
C1128 C1133 1.363 . S
C1129 H1100 0.950 . S
C1129 C1128 1.397 . S
C1129 C1130 1.334 . S
C1130 H1101 0.950 . S
C1130 C1129 1.334 . S
C1130 C1131 1.287 . S
C1131 C1130 1.287 . S
C1131 C1132 1.524 . S
C1131 H1134 0.999 . S
C1132 H1102 0.950 . S
C1132 C1131 1.524 . S
C1132 C1133 1.415 . S
C1133 H1103 0.950 . S
C1133 C1128 1.363 . S
C1133 C1132 1.415 . S
H1134 C1131 0.999 . S
H1135 C1116 0.913 . S
H1136 C1154 0.951 . S
H1137 C1156 0.951 . S
H1138 C1158 0.950 . S
H1139 C1159 0.950 . S
H1140 C1161 0.950 . S
H1141 C1164 0.950 . S
H1142 C1165 0.950 . S
H1143 C1167 0.950 . S
H1144 C1168 0.950 . S
H1145 C1169 0.951 . S
H1146 C1171 0.951 . S
H1147 C1173 0.950 . S
H1148 C1174 0.950 . S
H1149 C1176 0.950 . S
H1150 C1179 0.950 . S
H1151 C1180 0.950 . S
H1152 C1182 0.950 . S
H1153 C1183 0.950 . S
C1154 H1136 0.951 . S
C1154 C1155 1.366 . S
C1154 C1156 1.388 . S
C1155 C1154 1.366 . S
C1155 C1159 1.385 . S
C1156 H1137 0.951 . S
C1156 C1154 1.388 . S
C1156 C1157 1.366 . S
C1157 C1156 1.366 . S
C1157 C1158 1.414 . S
C1157 C1160 1.499 . S
C1158 H1138 0.950 . S
C1158 C1157 1.414 . S
C1158 C1159 1.374 . S
C1159 H1139 0.950 . S
C1159 C1155 1.385 . S
C1159 C1158 1.374 . S
C1160 C1157 1.499 . S
C1160 C1161 1.373 . S
C1160 C1162 1.389 . S
C1161 H1140 0.950 . S
C1161 C1160 1.373 . S
C1161 C1177 1.377 . S
C1162 C1160 1.389 . S
C1162 C1163 1.524 . S
C1162 C1176 1.377 . S
C1163 C1162 1.524 . S
C1163 C1164 1.397 . S
C1163 C1168 1.363 . S
C1164 H1141 0.950 . S
C1164 C1163 1.397 . S
C1164 C1165 1.334 . S
C1165 H1142 0.950 . S
C1165 C1164 1.334 . S
C1165 C1166 1.287 . S
C1166 C1165 1.287 . S
C1166 C1167 1.524 . S
C1166 H1185 0.913 . S
C1167 H1143 0.950 . S
C1167 C1166 1.524 . S
C1167 C1168 1.415 . S
C1168 H1144 0.950 . S
C1168 C1163 1.363 . S
C1168 C1167 1.415 . S
C1169 H1145 0.951 . S
C1169 C1170 1.366 . S
C1169 C1171 1.388 . S
C1170 C1169 1.366 . S
C1170 C1174 1.385 . S
C1171 H1146 0.951 . S
C1171 C1169 1.388 . S
C1171 C1172 1.366 . S
C1172 C1171 1.366 . S
C1172 C1173 1.414 . S
C1172 C1175 1.499 . S
C1173 H1147 0.950 . S
C1173 C1172 1.414 . S
C1173 C1174 1.374 . S
C1174 H1148 0.950 . S
C1174 C1170 1.385 . S
C1174 C1173 1.374 . S
C1175 C1172 1.499 . S
C1175 C1176 1.373 . S
C1175 C1177 1.389 . S
C1176 H1149 0.950 . S
C1176 C1162 1.377 . S
C1176 C1175 1.373 . S
C1177 C1161 1.377 . S
C1177 C1175 1.389 . S
C1177 C1178 1.524 . S
C1178 C1177 1.524 . S
C1178 C1179 1.397 . S
C1178 C1183 1.363 . S
C1179 H1150 0.950 . S
C1179 C1178 1.397 . S
C1179 C1180 1.334 . S
C1180 H1151 0.950 . S
C1180 C1179 1.334 . S
C1180 C1181 1.287 . S
C1181 C1180 1.287 . S
C1181 C1182 1.524 . S
C1181 H1184 0.999 . S
C1182 H1152 0.950 . S
C1182 C1181 1.524 . S
C1182 C1183 1.415 . S
C1183 H1153 0.950 . S
C1183 C1178 1.363 . S
C1183 C1182 1.415 . S
H1184 C1181 0.999 . S
H1185 C1166 0.913 . S
H1186 C1204 0.951 . S
H1187 C1206 0.951 . S
H1188 C1208 0.950 . S
H1189 C1209 0.950 . S
H1190 C1211 0.950 . S
H1191 C1214 0.950 . S
H1192 C1215 0.950 . S
H1193 C1217 0.950 . S
H1194 C1218 0.950 . S
H1195 C1219 0.951 . S
H1196 C1221 0.951 . S
H1197 C1223 0.950 . S
H1198 C1224 0.950 . S
H1199 C1226 0.950 . S
H1200 C1229 0.950 . S
H1201 C1230 0.950 . S
H1202 C1232 0.950 . S
H1203 C1233 0.950 . S
C1204 H1186 0.951 . S
C1204 C1205 1.366 . S
C1204 C1206 1.388 . S
C1205 C1204 1.366 . S
C1205 C1209 1.385 . S
C1206 H1187 0.951 . S
C1206 C1204 1.388 . S
C1206 C1207 1.366 . S
C1207 C1206 1.366 . S
C1207 C1208 1.414 . S
C1207 C1210 1.499 . S
C1208 H1188 0.950 . S
C1208 C1207 1.414 . S
C1208 C1209 1.374 . S
C1209 H1189 0.950 . S
C1209 C1205 1.385 . S
C1209 C1208 1.374 . S
C1210 C1207 1.499 . S
C1210 C1211 1.373 . S
C1210 C1212 1.389 . S
C1211 H1190 0.950 . S
C1211 C1210 1.373 . S
C1211 C1227 1.377 . S
C1212 C1210 1.389 . S
C1212 C1213 1.524 . S
C1212 C1226 1.377 . S
C1213 C1212 1.524 . S
C1213 C1214 1.397 . S
C1213 C1218 1.363 . S
C1214 H1191 0.950 . S
C1214 C1213 1.397 . S
C1214 C1215 1.334 . S
C1215 H1192 0.950 . S
C1215 C1214 1.334 . S
C1215 C1216 1.287 . S
C1216 C1215 1.287 . S
C1216 C1217 1.524 . S
C1216 H1235 0.913 . S
C1217 H1193 0.950 . S
C1217 C1216 1.524 . S
C1217 C1218 1.415 . S
C1218 H1194 0.950 . S
C1218 C1213 1.363 . S
C1218 C1217 1.415 . S
C1219 H1195 0.951 . S
C1219 C1220 1.366 . S
C1219 C1221 1.388 . S
C1220 C1219 1.366 . S
C1220 C1224 1.385 . S
C1221 H1196 0.951 . S
C1221 C1219 1.388 . S
C1221 C1222 1.366 . S
C1222 C1221 1.366 . S
C1222 C1223 1.414 . S
C1222 C1225 1.499 . S
C1223 H1197 0.950 . S
C1223 C1222 1.414 . S
C1223 C1224 1.374 . S
C1224 H1198 0.950 . S
C1224 C1220 1.385 . S
C1224 C1223 1.374 . S
C1225 C1222 1.499 . S
C1225 C1226 1.373 . S
C1225 C1227 1.389 . S
C1226 H1199 0.950 . S
C1226 C1212 1.377 . S
C1226 C1225 1.373 . S
C1227 C1211 1.377 . S
C1227 C1225 1.389 . S
C1227 C1228 1.524 . S
C1228 C1227 1.524 . S
C1228 C1229 1.397 . S
C1228 C1233 1.363 . S
C1229 H1200 0.950 . S
C1229 C1228 1.397 . S
C1229 C1230 1.334 . S
C1230 H1201 0.950 . S
C1230 C1229 1.334 . S
C1230 C1231 1.287 . S
C1231 C1230 1.287 . S
C1231 C1232 1.524 . S
C1231 H1234 0.999 . S
C1232 H1202 0.950 . S
C1232 C1231 1.524 . S
C1232 C1233 1.415 . S
C1233 H1203 0.950 . S
C1233 C1228 1.363 . S
C1233 C1232 1.415 . S
H1234 C1231 0.999 . S
H1235 C1216 0.913 . S
H1236 C1254 0.951 . S
H1237 C1256 0.951 . S
H1238 C1258 0.950 . S
H1239 C1259 0.950 . S
H1240 C1261 0.950 . S
H1241 C1264 0.950 . S
H1242 C1265 0.950 . S
H1243 C1267 0.950 . S
H1244 C1268 0.950 . S
H1245 C1269 0.951 . S
H1246 C1271 0.951 . S
H1247 C1273 0.950 . S
H1248 C1274 0.950 . S
H1249 C1276 0.950 . S
H1250 C1279 0.950 . S
H1251 C1280 0.950 . S
H1252 C1282 0.950 . S
H1253 C1283 0.950 . S
C1254 H1236 0.951 . S
C1254 C1255 1.366 . S
C1254 C1256 1.388 . S
C1255 C1254 1.366 . S
C1255 C1259 1.385 . S
C1256 H1237 0.951 . S
C1256 C1254 1.388 . S
C1256 C1257 1.366 . S
C1257 C1256 1.366 . S
C1257 C1258 1.414 . S
C1257 C1260 1.499 . S
C1258 H1238 0.950 . S
C1258 C1257 1.414 . S
C1258 C1259 1.374 . S
C1259 H1239 0.950 . S
C1259 C1255 1.385 . S
C1259 C1258 1.374 . S
C1260 C1257 1.499 . S
C1260 C1261 1.373 . S
C1260 C1262 1.389 . S
C1261 H1240 0.950 . S
C1261 C1260 1.373 . S
C1261 C1277 1.377 1_565 S
C1262 C1260 1.389 . S
C1262 C1263 1.524 . S
C1262 C1276 1.377 1_565 S
C1263 C1262 1.524 . S
C1263 C1264 1.397 . S
C1263 C1268 1.363 . S
C1264 H1241 0.950 . S
C1264 C1263 1.397 . S
C1264 C1265 1.334 . S
C1265 H1242 0.950 . S
C1265 C1264 1.334 . S
C1265 C1266 1.287 . S
C1266 C1265 1.287 . S
C1266 C1267 1.524 . S
C1266 H1285 0.913 . S
C1267 H1243 0.950 . S
C1267 C1266 1.524 . S
C1267 C1268 1.415 . S
C1268 H1244 0.950 . S
C1268 C1263 1.363 . S
C1268 C1267 1.415 . S
C1269 H1245 0.951 . S
C1269 C1270 1.366 . S
C1269 C1271 1.388 . S
C1270 C1269 1.366 . S
C1270 C1274 1.385 . S
C1271 H1246 0.951 . S
C1271 C1269 1.388 . S
C1271 C1272 1.366 . S
C1272 C1271 1.366 . S
C1272 C1273 1.414 . S
C1272 C1275 1.499 . S
C1273 H1247 0.950 . S
C1273 C1272 1.414 . S
C1273 C1274 1.374 . S
C1274 H1248 0.950 . S
C1274 C1270 1.385 . S
C1274 C1273 1.374 . S
C1275 C1272 1.499 . S
C1275 C1276 1.373 . S
C1275 C1277 1.389 . S
C1276 H1249 0.950 . S
C1276 C1262 1.377 1_545 S
C1276 C1275 1.373 . S
C1277 C1261 1.377 1_545 S
C1277 C1275 1.389 . S
C1277 C1278 1.524 . S
C1278 C1277 1.524 . S
C1278 C1279 1.397 . S
C1278 C1283 1.363 . S
C1279 H1250 0.950 . S
C1279 C1278 1.397 . S
C1279 C1280 1.334 . S
C1280 H1251 0.950 . S
C1280 C1279 1.334 . S
C1280 C1281 1.287 . S
C1281 C1280 1.287 . S
C1281 C1282 1.524 . S
C1281 H1284 0.999 . S
C1282 H1252 0.950 . S
C1282 C1281 1.524 . S
C1282 C1283 1.415 . S
C1283 H1253 0.950 . S
C1283 C1278 1.363 . S
C1283 C1282 1.415 . S
H1284 C1281 0.999 . S
H1285 C1266 0.913 . S
H1286 C1304 0.951 . S
H1287 C1306 0.951 . S
H1288 C1308 0.950 . S
H1289 C1309 0.950 . S
H1290 C1311 0.950 . S
H1291 C1314 0.950 . S
H1292 C1315 0.950 . S
H1293 C1317 0.950 . S
H1294 C1318 0.950 . S
H1295 C1319 0.951 . S
H1296 C1321 0.951 . S
H1297 C1323 0.950 . S
H1298 C1324 0.950 . S
H1299 C1326 0.950 . S
H1300 C1329 0.950 . S
H1301 C1330 0.950 . S
H1302 C1332 0.950 . S
H1303 C1333 0.950 . S
C1304 H1286 0.951 . S
C1304 C1305 1.366 . S
C1304 C1306 1.388 . S
C1305 C1304 1.366 . S
C1305 C1309 1.385 . S
C1306 H1287 0.951 . S
C1306 C1304 1.388 . S
C1306 C1307 1.366 . S
C1307 C1306 1.366 . S
C1307 C1308 1.414 . S
C1307 C1310 1.499 . S
C1308 H1288 0.950 . S
C1308 C1307 1.414 . S
C1308 C1309 1.374 . S
C1309 H1289 0.950 . S
C1309 C1305 1.385 . S
C1309 C1308 1.374 . S
C1310 C1307 1.499 . S
C1310 C1311 1.373 . S
C1310 C1312 1.389 . S
C1311 H1290 0.950 . S
C1311 C1310 1.373 . S
C1311 C1327 1.377 . S
C1312 C1310 1.389 . S
C1312 C1313 1.524 . S
C1312 C1326 1.377 . S
C1313 C1312 1.524 . S
C1313 C1314 1.397 . S
C1313 C1318 1.363 . S
C1314 H1291 0.950 . S
C1314 C1313 1.397 . S
C1314 C1315 1.334 . S
C1315 H1292 0.950 . S
C1315 C1314 1.334 . S
C1315 C1316 1.287 . S
C1316 C1315 1.287 . S
C1316 C1317 1.524 . S
C1316 H1335 0.913 . S
C1317 H1293 0.950 . S
C1317 C1316 1.524 . S
C1317 C1318 1.415 . S
C1318 H1294 0.950 . S
C1318 C1313 1.363 . S
C1318 C1317 1.415 . S
C1319 H1295 0.951 . S
C1319 C1320 1.366 . S
C1319 C1321 1.388 . S
C1320 C1319 1.366 . S
C1320 C1324 1.385 . S
C1321 H1296 0.951 . S
C1321 C1319 1.388 . S
C1321 C1322 1.366 . S
C1322 C1321 1.366 . S
C1322 C1323 1.414 . S
C1322 C1325 1.499 . S
C1323 H1297 0.950 . S
C1323 C1322 1.414 . S
C1323 C1324 1.374 . S
C1324 H1298 0.950 . S
C1324 C1320 1.385 . S
C1324 C1323 1.374 . S
C1325 C1322 1.499 . S
C1325 C1326 1.373 . S
C1325 C1327 1.389 . S
C1326 H1299 0.950 . S
C1326 C1312 1.377 . S
C1326 C1325 1.373 . S
C1327 C1311 1.377 . S
C1327 C1325 1.389 . S
C1327 C1328 1.524 . S
C1328 C1327 1.524 . S
C1328 C1329 1.397 . S
C1328 C1333 1.363 . S
C1329 H1300 0.950 . S
C1329 C1328 1.397 . S
C1329 C1330 1.334 . S
C1330 H1301 0.950 . S
C1330 C1329 1.334 . S
C1330 C1331 1.287 . S
C1331 C1330 1.287 . S
C1331 C1332 1.524 . S
C1331 H1334 0.999 . S
C1332 H1302 0.950 . S
C1332 C1331 1.524 . S
C1332 C1333 1.415 . S
C1333 H1303 0.950 . S
C1333 C1328 1.363 . S
C1333 C1332 1.415 . S
H1334 C1331 0.999 . S
H1335 C1316 0.913 . S
H1336 C1354 0.951 . S
H1337 C1356 0.951 . S
H1338 C1358 0.950 . S
H1339 C1359 0.950 . S
H1340 C1361 0.950 . S
H1341 C1364 0.950 . S
H1342 C1365 0.950 . S
H1343 C1367 0.950 . S
H1344 C1368 0.950 . S
H1345 C1369 0.951 . S
H1346 C1371 0.951 . S
H1347 C1373 0.950 . S
H1348 C1374 0.950 . S
H1349 C1376 0.950 . S
H1350 C1379 0.950 . S
H1351 C1380 0.950 . S
H1352 C1382 0.950 . S
H1353 C1383 0.950 . S
C1354 H1336 0.951 . S
C1354 C1355 1.366 . S
C1354 C1356 1.388 . S
C1355 C1354 1.366 . S
C1355 C1359 1.385 . S
C1356 H1337 0.951 . S
C1356 C1354 1.388 . S
C1356 C1357 1.366 . S
C1357 C1356 1.366 . S
C1357 C1358 1.414 . S
C1357 C1360 1.499 . S
C1358 H1338 0.950 . S
C1358 C1357 1.414 . S
C1358 C1359 1.374 . S
C1359 H1339 0.950 . S
C1359 C1355 1.385 . S
C1359 C1358 1.374 . S
C1360 C1357 1.499 . S
C1360 C1361 1.373 . S
C1360 C1362 1.389 . S
C1361 H1340 0.950 . S
C1361 C1360 1.373 . S
C1361 C1377 1.377 1_565 S
C1362 C1360 1.389 . S
C1362 C1363 1.524 . S
C1362 C1376 1.377 1_565 S
C1363 C1362 1.524 . S
C1363 C1364 1.397 . S
C1363 C1368 1.363 . S
C1364 H1341 0.950 . S
C1364 C1363 1.397 . S
C1364 C1365 1.334 . S
C1365 H1342 0.950 . S
C1365 C1364 1.334 . S
C1365 C1366 1.287 . S
C1366 C1365 1.287 . S
C1366 C1367 1.524 . S
C1366 H1385 0.913 . S
C1367 H1343 0.950 . S
C1367 C1366 1.524 . S
C1367 C1368 1.415 . S
C1368 H1344 0.950 . S
C1368 C1363 1.363 . S
C1368 C1367 1.415 . S
C1369 H1345 0.951 . S
C1369 C1370 1.366 . S
C1369 C1371 1.388 . S
C1370 C1369 1.366 . S
C1370 C1374 1.385 . S
C1371 H1346 0.951 . S
C1371 C1369 1.388 . S
C1371 C1372 1.366 . S
C1372 C1371 1.366 . S
C1372 C1373 1.414 . S
C1372 C1375 1.499 . S
C1373 H1347 0.950 . S
C1373 C1372 1.414 . S
C1373 C1374 1.374 . S
C1374 H1348 0.950 . S
C1374 C1370 1.385 . S
C1374 C1373 1.374 . S
C1375 C1372 1.499 . S
C1375 C1376 1.373 . S
C1375 C1377 1.389 . S
C1376 H1349 0.950 . S
C1376 C1362 1.377 1_545 S
C1376 C1375 1.373 . S
C1377 C1361 1.377 1_545 S
C1377 C1375 1.389 . S
C1377 C1378 1.524 . S
C1378 C1377 1.524 . S
C1378 C1379 1.397 . S
C1378 C1383 1.363 . S
C1379 H1350 0.950 . S
C1379 C1378 1.397 . S
C1379 C1380 1.334 . S
C1380 H1351 0.950 . S
C1380 C1379 1.334 . S
C1380 C1381 1.287 . S
C1381 C1380 1.287 . S
C1381 C1382 1.524 . S
C1381 H1384 0.999 . S
C1382 H1352 0.950 . S
C1382 C1381 1.524 . S
C1382 C1383 1.415 . S
C1383 H1353 0.950 . S
C1383 C1378 1.363 . S
C1383 C1382 1.415 . S
H1384 C1381 0.999 . S
H1385 C1366 0.913 . S
H1386 C1404 0.951 . S
H1387 C1406 0.951 . S
H1388 C1408 0.950 . S
H1389 C1409 0.950 . S
H1390 C1411 0.950 . S
H1391 C1414 0.950 . S
H1392 C1415 0.950 . S
H1393 C1417 0.950 . S
H1394 C1418 0.950 . S
H1395 C1419 0.951 . S
H1396 C1421 0.951 . S
H1397 C1423 0.950 . S
H1398 C1424 0.950 . S
H1399 C1426 0.950 . S
H1400 C1429 0.950 . S
H1401 C1430 0.950 . S
H1402 C1432 0.950 . S
H1403 C1433 0.950 . S
C1404 H1386 0.951 . S
C1404 C1405 1.366 . S
C1404 C1406 1.388 . S
C1405 C1404 1.366 . S
C1405 C1409 1.385 . S
C1406 H1387 0.951 . S
C1406 C1404 1.388 . S
C1406 C1407 1.366 . S
C1407 C1406 1.366 . S
C1407 C1408 1.414 . S
C1407 C1410 1.499 . S
C1408 H1388 0.950 . S
C1408 C1407 1.414 . S
C1408 C1409 1.374 . S
C1409 H1389 0.950 . S
C1409 C1405 1.385 . S
C1409 C1408 1.374 . S
C1410 C1407 1.499 . S
C1410 C1411 1.373 . S
C1410 C1412 1.389 . S
C1411 H1390 0.950 . S
C1411 C1410 1.373 . S
C1411 C1427 1.377 . S
C1412 C1410 1.389 . S
C1412 C1413 1.524 . S
C1412 C1426 1.377 . S
C1413 C1412 1.524 . S
C1413 C1414 1.397 . S
C1413 C1418 1.363 . S
C1414 H1391 0.950 . S
C1414 C1413 1.397 . S
C1414 C1415 1.334 . S
C1415 H1392 0.950 . S
C1415 C1414 1.334 . S
C1415 C1416 1.287 . S
C1416 C1415 1.287 . S
C1416 C1417 1.524 . S
C1416 H1435 0.913 . S
C1417 H1393 0.950 . S
C1417 C1416 1.524 . S
C1417 C1418 1.415 . S
C1418 H1394 0.950 . S
C1418 C1413 1.363 . S
C1418 C1417 1.415 . S
C1419 H1395 0.951 . S
C1419 C1420 1.366 . S
C1419 C1421 1.388 . S
C1420 C1419 1.366 . S
C1420 C1424 1.385 . S
C1421 H1396 0.951 . S
C1421 C1419 1.388 . S
C1421 C1422 1.366 . S
C1422 C1421 1.366 . S
C1422 C1423 1.414 . S
C1422 C1425 1.499 . S
C1423 H1397 0.950 . S
C1423 C1422 1.414 . S
C1423 C1424 1.374 . S
C1424 H1398 0.950 . S
C1424 C1420 1.385 . S
C1424 C1423 1.374 . S
C1425 C1422 1.499 . S
C1425 C1426 1.373 . S
C1425 C1427 1.389 . S
C1426 H1399 0.950 . S
C1426 C1412 1.377 . S
C1426 C1425 1.373 . S
C1427 C1411 1.377 . S
C1427 C1425 1.389 . S
C1427 C1428 1.524 . S
C1428 C1427 1.524 . S
C1428 C1429 1.397 . S
C1428 C1433 1.363 . S
C1429 H1400 0.950 . S
C1429 C1428 1.397 . S
C1429 C1430 1.334 . S
C1430 H1401 0.950 . S
C1430 C1429 1.334 . S
C1430 C1431 1.287 . S
C1431 C1430 1.287 . S
C1431 C1432 1.524 . S
C1431 H1434 0.999 . S
C1432 H1402 0.950 . S
C1432 C1431 1.524 . S
C1432 C1433 1.415 . S
C1433 H1403 0.950 . S
C1433 C1428 1.363 . S
C1433 C1432 1.415 . S
H1434 C1431 0.999 . S
H1435 C1416 0.913 . S
H1436 C1454 0.951 . S
H1437 C1456 0.951 . S
H1438 C1458 0.950 . S
H1439 C1459 0.950 . S
H1440 C1461 0.950 . S
H1441 C1464 0.950 . S
H1442 C1465 0.950 . S
H1443 C1467 0.950 . S
H1444 C1468 0.950 . S
H1445 C1469 0.951 . S
H1446 C1471 0.951 . S
H1447 C1473 0.950 . S
H1448 C1474 0.950 . S
H1449 C1476 0.950 . S
H1450 C1479 0.950 . S
H1451 C1480 0.950 . S
H1452 C1482 0.950 . S
H1453 C1483 0.950 . S
C1454 H1436 0.951 . S
C1454 C1455 1.366 . S
C1454 C1456 1.388 . S
C1455 C1454 1.366 . S
C1455 C1459 1.385 . S
C1456 H1437 0.951 . S
C1456 C1454 1.388 . S
C1456 C1457 1.366 . S
C1457 C1456 1.366 . S
C1457 C1458 1.414 . S
C1457 C1460 1.499 . S
C1458 H1438 0.950 . S
C1458 C1457 1.414 . S
C1458 C1459 1.374 . S
C1459 H1439 0.950 . S
C1459 C1455 1.385 . S
C1459 C1458 1.374 . S
C1460 C1457 1.499 . S
C1460 C1461 1.373 . S
C1460 C1462 1.389 . S
C1461 H1440 0.950 . S
C1461 C1460 1.373 . S
C1461 C1477 1.377 1_565 S
C1462 C1460 1.389 . S
C1462 C1463 1.524 . S
C1462 C1476 1.377 1_565 S
C1463 C1462 1.524 . S
C1463 C1464 1.397 . S
C1463 C1468 1.363 . S
C1464 H1441 0.950 . S
C1464 C1463 1.397 . S
C1464 C1465 1.334 . S
C1465 H1442 0.950 . S
C1465 C1464 1.334 . S
C1465 C1466 1.287 . S
C1466 C1465 1.287 . S
C1466 C1467 1.524 . S
C1466 H1485 0.913 . S
C1467 H1443 0.950 . S
C1467 C1466 1.524 . S
C1467 C1468 1.415 . S
C1468 H1444 0.950 . S
C1468 C1463 1.363 . S
C1468 C1467 1.415 . S
C1469 H1445 0.951 . S
C1469 C1470 1.366 . S
C1469 C1471 1.388 . S
C1470 C1469 1.366 . S
C1470 C1474 1.385 . S
C1471 H1446 0.951 . S
C1471 C1469 1.388 . S
C1471 C1472 1.366 . S
C1472 C1471 1.366 . S
C1472 C1473 1.414 . S
C1472 C1475 1.499 . S
C1473 H1447 0.950 . S
C1473 C1472 1.414 . S
C1473 C1474 1.374 . S
C1474 H1448 0.950 . S
C1474 C1470 1.385 . S
C1474 C1473 1.374 . S
C1475 C1472 1.499 . S
C1475 C1476 1.373 . S
C1475 C1477 1.389 . S
C1476 H1449 0.950 . S
C1476 C1462 1.377 1_545 S
C1476 C1475 1.373 . S
C1477 C1461 1.377 1_545 S
C1477 C1475 1.389 . S
C1477 C1478 1.524 . S
C1478 C1477 1.524 . S
C1478 C1479 1.397 . S
C1478 C1483 1.363 . S
C1479 H1450 0.950 . S
C1479 C1478 1.397 . S
C1479 C1480 1.334 . S
C1480 H1451 0.950 . S
C1480 C1479 1.334 . S
C1480 C1481 1.287 . S
C1481 C1480 1.287 . S
C1481 C1482 1.524 . S
C1481 H1484 0.999 . S
C1482 H1452 0.950 . S
C1482 C1481 1.524 . S
C1482 C1483 1.415 . S
C1483 H1453 0.950 . S
C1483 C1478 1.363 . S
C1483 C1482 1.415 . S
H1484 C1481 0.999 . S
H1485 C1466 0.913 . S
H1486 C1504 0.951 . S
H1487 C1506 0.951 . S
H1488 C1508 0.950 . S
H1489 C1509 0.950 . S
H1490 C1511 0.950 . S
H1491 C1514 0.950 . S
H1492 C1515 0.950 . S
H1493 C1517 0.950 . S
H1494 C1518 0.950 . S
H1495 C1519 0.951 . S
H1496 C1521 0.951 . S
H1497 C1523 0.950 . S
H1498 C1524 0.950 . S
H1499 C1526 0.950 . S
H1500 C1529 0.950 . S
H1501 C1530 0.950 . S
H1502 C1532 0.950 . S
H1503 C1533 0.950 . S
C1504 H1486 0.951 . S
C1504 C1505 1.366 . S
C1504 C1506 1.388 . S
C1505 C1504 1.366 . S
C1505 C1509 1.385 . S
C1506 H1487 0.951 . S
C1506 C1504 1.388 . S
C1506 C1507 1.366 . S
C1507 C1506 1.366 . S
C1507 C1508 1.414 . S
C1507 C1510 1.499 . S
C1508 H1488 0.950 . S
C1508 C1507 1.414 . S
C1508 C1509 1.374 . S
C1509 H1489 0.950 . S
C1509 C1505 1.385 . S
C1509 C1508 1.374 . S
C1510 C1507 1.499 . S
C1510 C1511 1.373 . S
C1510 C1512 1.389 . S
C1511 H1490 0.950 . S
C1511 C1510 1.373 . S
C1511 C1527 1.377 1_545 S
C1512 C1510 1.389 . S
C1512 C1513 1.524 . S
C1512 C1526 1.377 1_545 S
C1513 C1512 1.524 . S
C1513 C1514 1.397 . S
C1513 C1518 1.363 . S
C1514 H1491 0.950 . S
C1514 C1513 1.397 . S
C1514 C1515 1.334 . S
C1515 H1492 0.950 . S
C1515 C1514 1.334 . S
C1515 C1516 1.287 . S
C1516 C1515 1.287 . S
C1516 C1517 1.524 . S
C1516 H1535 0.913 . S
C1517 H1493 0.950 . S
C1517 C1516 1.524 . S
C1517 C1518 1.415 . S
C1518 H1494 0.950 . S
C1518 C1513 1.363 . S
C1518 C1517 1.415 . S
C1519 H1495 0.951 . S
C1519 C1520 1.366 . S
C1519 C1521 1.388 . S
C1520 C1519 1.366 . S
C1520 C1524 1.385 . S
C1521 H1496 0.951 . S
C1521 C1519 1.388 . S
C1521 C1522 1.366 . S
C1522 C1521 1.366 . S
C1522 C1523 1.414 . S
C1522 C1525 1.499 . S
C1523 H1497 0.950 . S
C1523 C1522 1.414 . S
C1523 C1524 1.374 . S
C1524 H1498 0.950 . S
C1524 C1520 1.385 . S
C1524 C1523 1.374 . S
C1525 C1522 1.499 . S
C1525 C1526 1.373 . S
C1525 C1527 1.389 . S
C1526 H1499 0.950 . S
C1526 C1512 1.377 1_565 S
C1526 C1525 1.373 . S
C1527 C1511 1.377 1_565 S
C1527 C1525 1.389 . S
C1527 C1528 1.524 . S
C1528 C1527 1.524 . S
C1528 C1529 1.397 . S
C1528 C1533 1.363 . S
C1529 H1500 0.950 . S
C1529 C1528 1.397 . S
C1529 C1530 1.334 . S
C1530 H1501 0.950 . S
C1530 C1529 1.334 . S
C1530 C1531 1.287 . S
C1531 C1530 1.287 . S
C1531 C1532 1.524 . S
C1531 H1534 0.999 . S
C1532 H1502 0.950 . S
C1532 C1531 1.524 . S
C1532 C1533 1.415 . S
C1533 H1503 0.950 . S
C1533 C1528 1.363 . S
C1533 C1532 1.415 . S
H1534 C1531 0.999 . S
H1535 C1516 0.913 . S
H1536 C1554 0.951 . S
H1537 C1556 0.951 . S
H1538 C1558 0.950 . S
H1539 C1559 0.950 . S
H1540 C1561 0.950 . S
H1541 C1564 0.950 . S
H1542 C1565 0.950 . S
H1543 C1567 0.950 . S
H1544 C1568 0.950 . S
H1545 C1569 0.951 . S
H1546 C1571 0.951 . S
H1547 C1573 0.950 . S
H1548 C1574 0.950 . S
H1549 C1576 0.950 . S
H1550 C1579 0.950 . S
H1551 C1580 0.950 . S
H1552 C1582 0.950 . S
H1553 C1583 0.950 . S
C1554 H1536 0.951 . S
C1554 C1555 1.366 . S
C1554 C1556 1.388 . S
C1555 C1554 1.366 . S
C1555 C1559 1.385 . S
C1556 H1537 0.951 . S
C1556 C1554 1.388 . S
C1556 C1557 1.366 . S
C1557 C1556 1.366 . S
C1557 C1558 1.414 . S
C1557 C1560 1.499 . S
C1558 H1538 0.950 . S
C1558 C1557 1.414 . S
C1558 C1559 1.374 . S
C1559 H1539 0.950 . S
C1559 C1555 1.385 . S
C1559 C1558 1.374 . S
C1560 C1557 1.499 . S
C1560 C1561 1.373 . S
C1560 C1562 1.389 . S
C1561 H1540 0.950 . S
C1561 C1560 1.373 . S
C1561 C1577 1.377 . S
C1562 C1560 1.389 . S
C1562 C1563 1.524 . S
C1562 C1576 1.377 . S
C1563 C1562 1.524 . S
C1563 C1564 1.397 . S
C1563 C1568 1.363 . S
C1564 H1541 0.950 . S
C1564 C1563 1.397 . S
C1564 C1565 1.334 . S
C1565 H1542 0.950 . S
C1565 C1564 1.334 . S
C1565 C1566 1.287 . S
C1566 C1565 1.287 . S
C1566 C1567 1.524 . S
C1566 H1585 0.913 . S
C1567 H1543 0.950 . S
C1567 C1566 1.524 . S
C1567 C1568 1.415 . S
C1568 H1544 0.950 . S
C1568 C1563 1.363 . S
C1568 C1567 1.415 . S
C1569 H1545 0.951 . S
C1569 C1570 1.366 . S
C1569 C1571 1.388 . S
C1570 C1569 1.366 . S
C1570 C1574 1.385 . S
C1571 H1546 0.951 . S
C1571 C1569 1.388 . S
C1571 C1572 1.366 . S
C1572 C1571 1.366 . S
C1572 C1573 1.414 . S
C1572 C1575 1.499 . S
C1573 H1547 0.950 . S
C1573 C1572 1.414 . S
C1573 C1574 1.374 . S
C1574 H1548 0.950 . S
C1574 C1570 1.385 . S
C1574 C1573 1.374 . S
C1575 C1572 1.499 . S
C1575 C1576 1.373 . S
C1575 C1577 1.389 . S
C1576 H1549 0.950 . S
C1576 C1562 1.377 . S
C1576 C1575 1.373 . S
C1577 C1561 1.377 . S
C1577 C1575 1.389 . S
C1577 C1578 1.524 . S
C1578 C1577 1.524 . S
C1578 C1579 1.397 . S
C1578 C1583 1.363 . S
C1579 H1550 0.950 . S
C1579 C1578 1.397 . S
C1579 C1580 1.334 . S
C1580 H1551 0.950 . S
C1580 C1579 1.334 . S
C1580 C1581 1.287 . S
C1581 C1580 1.287 . S
C1581 C1582 1.524 . S
C1581 H1584 0.999 . S
C1582 H1552 0.950 . S
C1582 C1581 1.524 . S
C1582 C1583 1.415 . S
C1583 H1553 0.950 . S
C1583 C1578 1.363 . S
C1583 C1582 1.415 . S
H1584 C1581 0.999 . S
H1585 C1566 0.913 . S
H1586 C1604 0.951 . S
H1587 C1606 0.951 . S
H1588 C1608 0.950 . S
H1589 C1609 0.950 . S
H1590 C1611 0.950 . S
H1591 C1614 0.950 . S
H1592 C1615 0.950 . S
H1593 C1617 0.950 . S
H1594 C1618 0.950 . S
H1595 C1619 0.951 . S
H1596 C1621 0.951 . S
H1597 C1623 0.950 . S
H1598 C1624 0.950 . S
H1599 C1626 0.950 . S
H1600 C1629 0.950 . S
H1601 C1630 0.950 . S
H1602 C1632 0.950 . S
H1603 C1633 0.950 . S
C1604 H1586 0.951 . S
C1604 C1605 1.366 . S
C1604 C1606 1.388 . S
C1605 C1604 1.366 . S
C1605 C1609 1.385 . S
C1606 H1587 0.951 . S
C1606 C1604 1.388 . S
C1606 C1607 1.366 . S
C1607 C1606 1.366 . S
C1607 C1608 1.414 . S
C1607 C1610 1.499 . S
C1608 H1588 0.950 . S
C1608 C1607 1.414 . S
C1608 C1609 1.374 . S
C1609 H1589 0.950 . S
C1609 C1605 1.385 . S
C1609 C1608 1.374 . S
C1610 C1607 1.499 . S
C1610 C1611 1.373 . S
C1610 C1612 1.389 . S
C1611 H1590 0.950 . S
C1611 C1610 1.373 . S
C1611 C1627 1.377 . S
C1612 C1610 1.389 . S
C1612 C1613 1.524 . S
C1612 C1626 1.377 . S
C1613 C1612 1.524 . S
C1613 C1614 1.397 . S
C1613 C1618 1.363 . S
C1614 H1591 0.950 . S
C1614 C1613 1.397 . S
C1614 C1615 1.334 . S
C1615 H1592 0.950 . S
C1615 C1614 1.334 . S
C1615 C1616 1.287 . S
C1616 C1615 1.287 . S
C1616 C1617 1.524 . S
C1616 H1635 0.913 . S
C1617 H1593 0.950 . S
C1617 C1616 1.524 . S
C1617 C1618 1.415 . S
C1618 H1594 0.950 . S
C1618 C1613 1.363 . S
C1618 C1617 1.415 . S
C1619 H1595 0.951 . S
C1619 C1620 1.366 . S
C1619 C1621 1.388 . S
C1620 C1619 1.366 . S
C1620 C1624 1.385 . S
C1621 H1596 0.951 . S
C1621 C1619 1.388 . S
C1621 C1622 1.366 . S
C1622 C1621 1.366 . S
C1622 C1623 1.414 . S
C1622 C1625 1.499 . S
C1623 H1597 0.950 . S
C1623 C1622 1.414 . S
C1623 C1624 1.374 . S
C1624 H1598 0.950 . S
C1624 C1620 1.385 . S
C1624 C1623 1.374 . S
C1625 C1622 1.499 . S
C1625 C1626 1.373 . S
C1625 C1627 1.389 . S
C1626 H1599 0.950 . S
C1626 C1612 1.377 . S
C1626 C1625 1.373 . S
C1627 C1611 1.377 . S
C1627 C1625 1.389 . S
C1627 C1628 1.524 . S
C1628 C1627 1.524 . S
C1628 C1629 1.397 . S
C1628 C1633 1.363 . S
C1629 H1600 0.950 . S
C1629 C1628 1.397 . S
C1629 C1630 1.334 . S
C1630 H1601 0.950 . S
C1630 C1629 1.334 . S
C1630 C1631 1.287 . S
C1631 C1630 1.287 . S
C1631 C1632 1.524 . S
C1631 H1634 0.999 . S
C1632 H1602 0.950 . S
C1632 C1631 1.524 . S
C1632 C1633 1.415 . S
C1633 H1603 0.950 . S
C1633 C1628 1.363 . S
C1633 C1632 1.415 . S
H1634 C1631 0.999 . S
H1635 C1616 0.913 . S
H1636 C1654 0.951 . S
H1637 C1656 0.951 . S
H1638 C1658 0.950 . S
H1639 C1659 0.950 . S
H1640 C1661 0.950 . S
H1641 C1664 0.950 . S
H1642 C1665 0.950 . S
H1643 C1667 0.950 . S
H1644 C1668 0.950 . S
H1645 C1669 0.951 . S
H1646 C1671 0.951 . S
H1647 C1673 0.950 . S
H1648 C1674 0.950 . S
H1649 C1676 0.950 . S
H1650 C1679 0.950 . S
H1651 C1680 0.950 . S
H1652 C1682 0.950 . S
H1653 C1683 0.950 . S
C1654 H1636 0.951 . S
C1654 C1655 1.366 . S
C1654 C1656 1.388 . S
C1655 C1654 1.366 . S
C1655 C1659 1.385 . S
C1656 H1637 0.951 . S
C1656 C1654 1.388 . S
C1656 C1657 1.366 . S
C1657 C1656 1.366 . S
C1657 C1658 1.414 . S
C1657 C1660 1.499 . S
C1658 H1638 0.950 . S
C1658 C1657 1.414 . S
C1658 C1659 1.374 . S
C1659 H1639 0.950 . S
C1659 C1655 1.385 . S
C1659 C1658 1.374 . S
C1660 C1657 1.499 . S
C1660 C1661 1.373 . S
C1660 C1662 1.389 . S
C1661 H1640 0.950 . S
C1661 C1660 1.373 . S
C1661 C1677 1.377 . S
C1662 C1660 1.389 . S
C1662 C1663 1.524 . S
C1662 C1676 1.377 . S
C1663 C1662 1.524 . S
C1663 C1664 1.397 . S
C1663 C1668 1.363 . S
C1664 H1641 0.950 . S
C1664 C1663 1.397 . S
C1664 C1665 1.334 . S
C1665 H1642 0.950 . S
C1665 C1664 1.334 . S
C1665 C1666 1.287 . S
C1666 C1665 1.287 . S
C1666 C1667 1.524 . S
C1666 H1685 0.913 . S
C1667 H1643 0.950 . S
C1667 C1666 1.524 . S
C1667 C1668 1.415 . S
C1668 H1644 0.950 . S
C1668 C1663 1.363 . S
C1668 C1667 1.415 . S
C1669 H1645 0.951 . S
C1669 C1670 1.366 . S
C1669 C1671 1.388 . S
C1670 C1669 1.366 . S
C1670 C1674 1.385 . S
C1671 H1646 0.951 . S
C1671 C1669 1.388 . S
C1671 C1672 1.366 . S
C1672 C1671 1.366 . S
C1672 C1673 1.414 . S
C1672 C1675 1.499 . S
C1673 H1647 0.950 . S
C1673 C1672 1.414 . S
C1673 C1674 1.374 . S
C1674 H1648 0.950 . S
C1674 C1670 1.385 . S
C1674 C1673 1.374 . S
C1675 C1672 1.499 . S
C1675 C1676 1.373 . S
C1675 C1677 1.389 . S
C1676 H1649 0.950 . S
C1676 C1662 1.377 . S
C1676 C1675 1.373 . S
C1677 C1661 1.377 . S
C1677 C1675 1.389 . S
C1677 C1678 1.524 . S
C1678 C1677 1.524 . S
C1678 C1679 1.397 . S
C1678 C1683 1.363 . S
C1679 H1650 0.950 . S
C1679 C1678 1.397 . S
C1679 C1680 1.334 . S
C1680 H1651 0.950 . S
C1680 C1679 1.334 . S
C1680 C1681 1.287 . S
C1681 C1680 1.287 . S
C1681 C1682 1.524 . S
C1681 H1684 0.999 . S
C1682 H1652 0.950 . S
C1682 C1681 1.524 . S
C1682 C1683 1.415 . S
C1683 H1653 0.950 . S
C1683 C1678 1.363 . S
C1683 C1682 1.415 . S
H1684 C1681 0.999 . S
H1685 C1666 0.913 . S
H1686 C1704 0.951 . S
H1687 C1706 0.951 . S
H1688 C1708 0.950 . S
H1689 C1709 0.950 . S
H1690 C1711 0.950 . S
H1691 C1714 0.950 . S
H1692 C1715 0.950 . S
H1693 C1717 0.950 . S
H1694 C1718 0.950 . S
H1695 C1719 0.951 . S
H1696 C1721 0.951 . S
H1697 C1723 0.950 . S
H1698 C1724 0.950 . S
H1699 C1726 0.950 . S
H1700 C1729 0.950 . S
H1701 C1730 0.950 . S
H1702 C1732 0.950 . S
H1703 C1733 0.950 . S
C1704 H1686 0.951 . S
C1704 C1705 1.366 . S
C1704 C1706 1.388 . S
C1705 C1704 1.366 . S
C1705 C1709 1.385 . S
C1706 H1687 0.951 . S
C1706 C1704 1.388 . S
C1706 C1707 1.366 . S
C1707 C1706 1.366 . S
C1707 C1708 1.414 . S
C1707 C1710 1.499 . S
C1708 H1688 0.950 . S
C1708 C1707 1.414 . S
C1708 C1709 1.374 . S
C1709 H1689 0.950 . S
C1709 C1705 1.385 . S
C1709 C1708 1.374 . S
C1710 C1707 1.499 . S
C1710 C1711 1.373 . S
C1710 C1712 1.389 . S
C1711 H1690 0.950 . S
C1711 C1710 1.373 . S
C1711 C1727 1.377 . S
C1712 C1710 1.389 . S
C1712 C1713 1.524 . S
C1712 C1726 1.377 . S
C1713 C1712 1.524 . S
C1713 C1714 1.397 . S
C1713 C1718 1.363 . S
C1714 H1691 0.950 . S
C1714 C1713 1.397 . S
C1714 C1715 1.334 . S
C1715 H1692 0.950 . S
C1715 C1714 1.334 . S
C1715 C1716 1.287 . S
C1716 C1715 1.287 . S
C1716 C1717 1.524 . S
C1716 H1735 0.913 . S
C1717 H1693 0.950 . S
C1717 C1716 1.524 . S
C1717 C1718 1.415 . S
C1718 H1694 0.950 . S
C1718 C1713 1.363 . S
C1718 C1717 1.415 . S
C1719 H1695 0.951 . S
C1719 C1720 1.366 . S
C1719 C1721 1.388 . S
C1720 C1719 1.366 . S
C1720 C1724 1.385 . S
C1721 H1696 0.951 . S
C1721 C1719 1.388 . S
C1721 C1722 1.366 . S
C1722 C1721 1.366 . S
C1722 C1723 1.414 . S
C1722 C1725 1.499 . S
C1723 H1697 0.950 . S
C1723 C1722 1.414 . S
C1723 C1724 1.374 . S
C1724 H1698 0.950 . S
C1724 C1720 1.385 . S
C1724 C1723 1.374 . S
C1725 C1722 1.499 . S
C1725 C1726 1.373 . S
C1725 C1727 1.389 . S
C1726 H1699 0.950 . S
C1726 C1712 1.377 . S
C1726 C1725 1.373 . S
C1727 C1711 1.377 . S
C1727 C1725 1.389 . S
C1727 C1728 1.524 . S
C1728 C1727 1.524 . S
C1728 C1729 1.397 . S
C1728 C1733 1.363 . S
C1729 H1700 0.950 . S
C1729 C1728 1.397 . S
C1729 C1730 1.334 . S
C1730 H1701 0.950 . S
C1730 C1729 1.334 . S
C1730 C1731 1.287 . S
C1731 C1730 1.287 . S
C1731 C1732 1.524 . S
C1731 H1734 0.999 . S
C1732 H1702 0.950 . S
C1732 C1731 1.524 . S
C1732 C1733 1.415 . S
C1733 H1703 0.950 . S
C1733 C1728 1.363 . S
C1733 C1732 1.415 . S
H1734 C1731 0.999 . S
H1735 C1716 0.913 . S
H1736 C1754 0.951 . S
H1737 C1756 0.951 . S
H1738 C1758 0.950 . S
H1739 C1759 0.950 . S
H1740 C1761 0.950 . S
H1741 C1764 0.950 . S
H1742 C1765 0.950 . S
H1743 C1767 0.950 . S
H1744 C1768 0.950 . S
H1745 C1769 0.951 . S
H1746 C1771 0.951 . S
H1747 C1773 0.950 . S
H1748 C1774 0.950 . S
H1749 C1776 0.950 . S
H1750 C1779 0.950 . S
H1751 C1780 0.950 . S
H1752 C1782 0.950 . S
H1753 C1783 0.950 . S
C1754 H1736 0.951 . S
C1754 C1755 1.366 . S
C1754 C1756 1.388 . S
C1755 C1754 1.366 . S
C1755 C1759 1.385 . S
C1756 H1737 0.951 . S
C1756 C1754 1.388 . S
C1756 C1757 1.366 . S
C1757 C1756 1.366 . S
C1757 C1758 1.414 . S
C1757 C1760 1.499 . S
C1758 H1738 0.950 . S
C1758 C1757 1.414 . S
C1758 C1759 1.374 . S
C1759 H1739 0.950 . S
C1759 C1755 1.385 . S
C1759 C1758 1.374 . S
C1760 C1757 1.499 . S
C1760 C1761 1.373 . S
C1760 C1762 1.389 . S
C1761 H1740 0.950 . S
C1761 C1760 1.373 . S
C1761 C1777 1.377 . S
C1762 C1760 1.389 . S
C1762 C1763 1.524 . S
C1762 C1776 1.377 . S
C1763 C1762 1.524 . S
C1763 C1764 1.397 . S
C1763 C1768 1.363 . S
C1764 H1741 0.950 . S
C1764 C1763 1.397 . S
C1764 C1765 1.334 . S
C1765 H1742 0.950 . S
C1765 C1764 1.334 . S
C1765 C1766 1.287 . S
C1766 C1765 1.287 . S
C1766 C1767 1.524 . S
C1766 H1785 0.913 . S
C1767 H1743 0.950 . S
C1767 C1766 1.524 . S
C1767 C1768 1.415 . S
C1768 H1744 0.950 . S
C1768 C1763 1.363 . S
C1768 C1767 1.415 . S
C1769 H1745 0.951 . S
C1769 C1770 1.366 . S
C1769 C1771 1.388 . S
C1770 C1769 1.366 . S
C1770 C1774 1.385 . S
C1771 H1746 0.951 . S
C1771 C1769 1.388 . S
C1771 C1772 1.366 . S
C1772 C1771 1.366 . S
C1772 C1773 1.414 . S
C1772 C1775 1.499 . S
C1773 H1747 0.950 . S
C1773 C1772 1.414 . S
C1773 C1774 1.374 . S
C1774 H1748 0.950 . S
C1774 C1770 1.385 . S
C1774 C1773 1.374 . S
C1775 C1772 1.499 . S
C1775 C1776 1.373 . S
C1775 C1777 1.389 . S
C1776 H1749 0.950 . S
C1776 C1762 1.377 . S
C1776 C1775 1.373 . S
C1777 C1761 1.377 . S
C1777 C1775 1.389 . S
C1777 C1778 1.524 . S
C1778 C1777 1.524 . S
C1778 C1779 1.397 . S
C1778 C1783 1.363 . S
C1779 H1750 0.950 . S
C1779 C1778 1.397 . S
C1779 C1780 1.334 . S
C1780 H1751 0.950 . S
C1780 C1779 1.334 . S
C1780 C1781 1.287 . S
C1781 C1780 1.287 . S
C1781 C1782 1.524 . S
C1781 H1784 0.999 . S
C1782 H1752 0.950 . S
C1782 C1781 1.524 . S
C1782 C1783 1.415 . S
C1783 H1753 0.950 . S
C1783 C1778 1.363 . S
C1783 C1782 1.415 . S
H1784 C1781 0.999 . S
H1785 C1766 0.913 . S
H1786 C1804 0.951 . S
H1787 C1806 0.951 . S
H1788 C1808 0.950 . S
H1789 C1809 0.950 . S
H1790 C1811 0.950 . S
H1791 C1814 0.950 . S
H1792 C1815 0.950 . S
H1793 C1817 0.950 . S
H1794 C1818 0.950 . S
H1795 C1819 0.951 . S
H1796 C1821 0.951 . S
H1797 C1823 0.950 . S
H1798 C1824 0.950 . S
H1799 C1826 0.950 . S
H1800 C1829 0.950 . S
H1801 C1830 0.950 . S
H1802 C1832 0.950 . S
H1803 C1833 0.950 . S
C1804 H1786 0.951 . S
C1804 C1805 1.366 . S
C1804 C1806 1.388 . S
C1805 C1804 1.366 . S
C1805 C1809 1.385 . S
C1806 H1787 0.951 . S
C1806 C1804 1.388 . S
C1806 C1807 1.366 . S
C1807 C1806 1.366 . S
C1807 C1808 1.414 . S
C1807 C1810 1.499 . S
C1808 H1788 0.950 . S
C1808 C1807 1.414 . S
C1808 C1809 1.374 . S
C1809 H1789 0.950 . S
C1809 C1805 1.385 . S
C1809 C1808 1.374 . S
C1810 C1807 1.499 . S
C1810 C1811 1.373 . S
C1810 C1812 1.389 . S
C1811 H1790 0.950 . S
C1811 C1810 1.373 . S
C1811 C1827 1.377 . S
C1812 C1810 1.389 . S
C1812 C1813 1.524 . S
C1812 C1826 1.377 . S
C1813 C1812 1.524 . S
C1813 C1814 1.397 . S
C1813 C1818 1.363 . S
C1814 H1791 0.950 . S
C1814 C1813 1.397 . S
C1814 C1815 1.334 . S
C1815 H1792 0.950 . S
C1815 C1814 1.334 . S
C1815 C1816 1.287 . S
C1816 C1815 1.287 . S
C1816 C1817 1.524 . S
C1816 H1835 0.913 . S
C1817 H1793 0.950 . S
C1817 C1816 1.524 . S
C1817 C1818 1.415 . S
C1818 H1794 0.950 . S
C1818 C1813 1.363 . S
C1818 C1817 1.415 . S
C1819 H1795 0.951 . S
C1819 C1820 1.366 . S
C1819 C1821 1.388 . S
C1820 C1819 1.366 . S
C1820 C1824 1.385 . S
C1821 H1796 0.951 . S
C1821 C1819 1.388 . S
C1821 C1822 1.366 . S
C1822 C1821 1.366 . S
C1822 C1823 1.414 . S
C1822 C1825 1.499 . S
C1823 H1797 0.950 . S
C1823 C1822 1.414 . S
C1823 C1824 1.374 . S
C1824 H1798 0.950 . S
C1824 C1820 1.385 . S
C1824 C1823 1.374 . S
C1825 C1822 1.499 . S
C1825 C1826 1.373 . S
C1825 C1827 1.389 . S
C1826 H1799 0.950 . S
C1826 C1812 1.377 . S
C1826 C1825 1.373 . S
C1827 C1811 1.377 . S
C1827 C1825 1.389 . S
C1827 C1828 1.524 . S
C1828 C1827 1.524 . S
C1828 C1829 1.397 . S
C1828 C1833 1.363 . S
C1829 H1800 0.950 . S
C1829 C1828 1.397 . S
C1829 C1830 1.334 . S
C1830 H1801 0.950 . S
C1830 C1829 1.334 . S
C1830 C1831 1.287 . S
C1831 C1830 1.287 . S
C1831 C1832 1.524 . S
C1831 H1834 0.999 . S
C1832 H1802 0.950 . S
C1832 C1831 1.524 . S
C1832 C1833 1.415 . S
C1833 H1803 0.950 . S
C1833 C1828 1.363 . S
C1833 C1832 1.415 . S
H1834 C1831 0.999 . S
H1835 C1816 0.913 . S
H1836 C1854 0.951 . S
H1837 C1856 0.951 . S
H1838 C1858 0.950 . S
H1839 C1859 0.950 . S
H1840 C1861 0.950 . S
H1841 C1864 0.950 . S
H1842 C1865 0.950 . S
H1843 C1867 0.950 . S
H1844 C1868 0.950 . S
H1845 C1869 0.951 . S
H1846 C1871 0.951 . S
H1847 C1873 0.950 . S
H1848 C1874 0.950 . S
H1849 C1876 0.950 . S
H1850 C1879 0.950 . S
H1851 C1880 0.950 . S
H1852 C1882 0.950 . S
H1853 C1883 0.950 . S
C1854 H1836 0.951 . S
C1854 C1855 1.366 . S
C1854 C1856 1.388 . S
C1855 C1854 1.366 . S
C1855 C1859 1.385 . S
C1856 H1837 0.951 . S
C1856 C1854 1.388 . S
C1856 C1857 1.366 . S
C1857 C1856 1.366 . S
C1857 C1858 1.414 . S
C1857 C1860 1.499 . S
C1858 H1838 0.950 . S
C1858 C1857 1.414 . S
C1858 C1859 1.374 . S
C1859 H1839 0.950 . S
C1859 C1855 1.385 . S
C1859 C1858 1.374 . S
C1860 C1857 1.499 . S
C1860 C1861 1.373 . S
C1860 C1862 1.389 . S
C1861 H1840 0.950 . S
C1861 C1860 1.373 . S
C1861 C1877 1.377 . S
C1862 C1860 1.389 . S
C1862 C1863 1.524 . S
C1862 C1876 1.377 . S
C1863 C1862 1.524 . S
C1863 C1864 1.397 . S
C1863 C1868 1.363 . S
C1864 H1841 0.950 . S
C1864 C1863 1.397 . S
C1864 C1865 1.334 . S
C1865 H1842 0.950 . S
C1865 C1864 1.334 . S
C1865 C1866 1.287 . S
C1866 C1865 1.287 . S
C1866 C1867 1.524 . S
C1866 H1885 0.913 . S
C1867 H1843 0.950 . S
C1867 C1866 1.524 . S
C1867 C1868 1.415 . S
C1868 H1844 0.950 . S
C1868 C1863 1.363 . S
C1868 C1867 1.415 . S
C1869 H1845 0.951 . S
C1869 C1870 1.366 . S
C1869 C1871 1.388 . S
C1870 C1869 1.366 . S
C1870 C1874 1.385 . S
C1871 H1846 0.951 . S
C1871 C1869 1.388 . S
C1871 C1872 1.366 . S
C1872 C1871 1.366 . S
C1872 C1873 1.414 . S
C1872 C1875 1.499 . S
C1873 H1847 0.950 . S
C1873 C1872 1.414 . S
C1873 C1874 1.374 . S
C1874 H1848 0.950 . S
C1874 C1870 1.385 . S
C1874 C1873 1.374 . S
C1875 C1872 1.499 . S
C1875 C1876 1.373 . S
C1875 C1877 1.389 . S
C1876 H1849 0.950 . S
C1876 C1862 1.377 . S
C1876 C1875 1.373 . S
C1877 C1861 1.377 . S
C1877 C1875 1.389 . S
C1877 C1878 1.524 . S
C1878 C1877 1.524 . S
C1878 C1879 1.397 . S
C1878 C1883 1.363 . S
C1879 H1850 0.950 . S
C1879 C1878 1.397 . S
C1879 C1880 1.334 . S
C1880 H1851 0.950 . S
C1880 C1879 1.334 . S
C1880 C1881 1.287 . S
C1881 C1880 1.287 . S
C1881 C1882 1.524 . S
C1881 H1884 0.999 . S
C1882 H1852 0.950 . S
C1882 C1881 1.524 . S
C1882 C1883 1.415 . S
C1883 H1853 0.950 . S
C1883 C1878 1.363 . S
C1883 C1882 1.415 . S
H1884 C1881 0.999 . S
H1885 C1866 0.913 . S
H1886 C1904 0.951 . S
H1887 C1906 0.951 . S
H1888 C1908 0.950 . S
H1889 C1909 0.950 . S
H1890 C1911 0.950 . S
H1891 C1914 0.950 . S
H1892 C1915 0.950 . S
H1893 C1917 0.950 . S
H1894 C1918 0.950 . S
H1895 C1919 0.951 . S
H1896 C1921 0.951 . S
H1897 C1923 0.950 . S
H1898 C1924 0.950 . S
H1899 C1926 0.950 . S
H1900 C1929 0.950 . S
H1901 C1930 0.950 . S
H1902 C1932 0.950 . S
H1903 C1933 0.950 . S
C1904 H1886 0.951 . S
C1904 C1905 1.366 . S
C1904 C1906 1.388 . S
C1905 C1904 1.366 . S
C1905 C1909 1.385 . S
C1906 H1887 0.951 . S
C1906 C1904 1.388 . S
C1906 C1907 1.366 . S
C1907 C1906 1.366 . S
C1907 C1908 1.414 . S
C1907 C1910 1.499 . S
C1908 H1888 0.950 . S
C1908 C1907 1.414 . S
C1908 C1909 1.374 . S
C1909 H1889 0.950 . S
C1909 C1905 1.385 . S
C1909 C1908 1.374 . S
C1910 C1907 1.499 . S
C1910 C1911 1.373 . S
C1910 C1912 1.389 . S
C1911 H1890 0.950 . S
C1911 C1910 1.373 . S
C1911 C1927 1.377 . S
C1912 C1910 1.389 . S
C1912 C1913 1.524 . S
C1912 C1926 1.377 . S
C1913 C1912 1.524 . S
C1913 C1914 1.397 . S
C1913 C1918 1.363 . S
C1914 H1891 0.950 . S
C1914 C1913 1.397 . S
C1914 C1915 1.334 . S
C1915 H1892 0.950 . S
C1915 C1914 1.334 . S
C1915 C1916 1.287 . S
C1916 C1915 1.287 . S
C1916 C1917 1.524 . S
C1916 H1935 0.913 . S
C1917 H1893 0.950 . S
C1917 C1916 1.524 . S
C1917 C1918 1.415 . S
C1918 H1894 0.950 . S
C1918 C1913 1.363 . S
C1918 C1917 1.415 . S
C1919 H1895 0.951 . S
C1919 C1920 1.366 . S
C1919 C1921 1.388 . S
C1920 C1919 1.366 . S
C1920 C1924 1.385 . S
C1921 H1896 0.951 . S
C1921 C1919 1.388 . S
C1921 C1922 1.366 . S
C1922 C1921 1.366 . S
C1922 C1923 1.414 . S
C1922 C1925 1.499 . S
C1923 H1897 0.950 . S
C1923 C1922 1.414 . S
C1923 C1924 1.374 . S
C1924 H1898 0.950 . S
C1924 C1920 1.385 . S
C1924 C1923 1.374 . S
C1925 C1922 1.499 . S
C1925 C1926 1.373 . S
C1925 C1927 1.389 . S
C1926 H1899 0.950 . S
C1926 C1912 1.377 . S
C1926 C1925 1.373 . S
C1927 C1911 1.377 . S
C1927 C1925 1.389 . S
C1927 C1928 1.524 . S
C1928 C1927 1.524 . S
C1928 C1929 1.397 . S
C1928 C1933 1.363 . S
C1929 H1900 0.950 . S
C1929 C1928 1.397 . S
C1929 C1930 1.334 . S
C1930 H1901 0.950 . S
C1930 C1929 1.334 . S
C1930 C1931 1.287 . S
C1931 C1930 1.287 . S
C1931 C1932 1.524 . S
C1931 H1934 0.999 . S
C1932 H1902 0.950 . S
C1932 C1931 1.524 . S
C1932 C1933 1.415 . S
C1933 H1903 0.950 . S
C1933 C1928 1.363 . S
C1933 C1932 1.415 . S
H1934 C1931 0.999 . S
H1935 C1916 0.913 . S
H1936 C1954 0.951 . S
H1937 C1956 0.951 . S
H1938 C1958 0.950 . S
H1939 C1959 0.950 . S
H1940 C1961 0.950 . S
H1941 C1964 0.950 . S
H1942 C1965 0.950 . S
H1943 C1967 0.950 . S
H1944 C1968 0.950 . S
H1945 C1969 0.951 . S
H1946 C1971 0.951 . S
H1947 C1973 0.950 . S
H1948 C1974 0.950 . S
H1949 C1976 0.950 . S
H1950 C1979 0.950 . S
H1951 C1980 0.950 . S
H1952 C1982 0.950 . S
H1953 C1983 0.950 . S
C1954 H1936 0.951 . S
C1954 C1955 1.366 . S
C1954 C1956 1.388 . S
C1955 C1954 1.366 . S
C1955 C1959 1.385 . S
C1956 H1937 0.951 . S
C1956 C1954 1.388 . S
C1956 C1957 1.366 . S
C1957 C1956 1.366 . S
C1957 C1958 1.414 . S
C1957 C1960 1.499 . S
C1958 H1938 0.950 . S
C1958 C1957 1.414 . S
C1958 C1959 1.374 . S
C1959 H1939 0.950 . S
C1959 C1955 1.385 . S
C1959 C1958 1.374 . S
C1960 C1957 1.499 . S
C1960 C1961 1.373 . S
C1960 C1962 1.389 . S
C1961 H1940 0.950 . S
C1961 C1960 1.373 . S
C1961 C1977 1.377 . S
C1962 C1960 1.389 . S
C1962 C1963 1.524 . S
C1962 C1976 1.377 . S
C1963 C1962 1.524 . S
C1963 C1964 1.397 . S
C1963 C1968 1.363 . S
C1964 H1941 0.950 . S
C1964 C1963 1.397 . S
C1964 C1965 1.334 . S
C1965 H1942 0.950 . S
C1965 C1964 1.334 . S
C1965 C1966 1.287 . S
C1966 C1965 1.287 . S
C1966 C1967 1.524 . S
C1966 H1985 0.913 . S
C1967 H1943 0.950 . S
C1967 C1966 1.524 . S
C1967 C1968 1.415 . S
C1968 H1944 0.950 . S
C1968 C1963 1.363 . S
C1968 C1967 1.415 . S
C1969 H1945 0.951 . S
C1969 C1970 1.366 . S
C1969 C1971 1.388 . S
C1970 C1969 1.366 . S
C1970 C1974 1.385 . S
C1971 H1946 0.951 . S
C1971 C1969 1.388 . S
C1971 C1972 1.366 . S
C1972 C1971 1.366 . S
C1972 C1973 1.414 . S
C1972 C1975 1.499 . S
C1973 H1947 0.950 . S
C1973 C1972 1.414 . S
C1973 C1974 1.374 . S
C1974 H1948 0.950 . S
C1974 C1970 1.385 . S
C1974 C1973 1.374 . S
C1975 C1972 1.499 . S
C1975 C1976 1.373 . S
C1975 C1977 1.389 . S
C1976 H1949 0.950 . S
C1976 C1962 1.377 . S
C1976 C1975 1.373 . S
C1977 C1961 1.377 . S
C1977 C1975 1.389 . S
C1977 C1978 1.524 . S
C1978 C1977 1.524 . S
C1978 C1979 1.397 . S
C1978 C1983 1.363 . S
C1979 H1950 0.950 . S
C1979 C1978 1.397 . S
C1979 C1980 1.334 . S
C1980 H1951 0.950 . S
C1980 C1979 1.334 . S
C1980 C1981 1.287 . S
C1981 C1980 1.287 . S
C1981 C1982 1.524 . S
C1981 H1984 0.999 . S
C1982 H1952 0.950 . S
C1982 C1981 1.524 . S
C1982 C1983 1.415 . S
C1983 H1953 0.950 . S
C1983 C1978 1.363 . S
C1983 C1982 1.415 . S
H1984 C1981 0.999 . S
H1985 C1966 0.913 . S
H1986 C2004 0.951 . S
H1987 C2006 0.951 . S
H1988 C2008 0.950 . S
H1989 C2009 0.950 . S
H1990 C2011 0.950 . S
H1991 C2014 0.950 . S
H1992 C2015 0.950 . S
H1993 C2017 0.950 . S
H1994 C2018 0.950 . S
H1995 C2019 0.951 . S
H1996 C2021 0.951 . S
H1997 C2023 0.950 . S
H1998 C2024 0.950 . S
H1999 C2026 0.950 . S
H2000 C2029 0.950 . S
H2001 C2030 0.950 . S
H2002 C2032 0.950 . S
H2003 C2033 0.950 . S
C2004 H1986 0.951 . S
C2004 C2005 1.366 . S
C2004 C2006 1.388 . S
C2005 C2004 1.366 . S
C2005 C2009 1.385 . S
C2006 H1987 0.951 . S
C2006 C2004 1.388 . S
C2006 C2007 1.366 . S
C2007 C2006 1.366 . S
C2007 C2008 1.414 . S
C2007 C2010 1.499 . S
C2008 H1988 0.950 . S
C2008 C2007 1.414 . S
C2008 C2009 1.374 . S
C2009 H1989 0.950 . S
C2009 C2005 1.385 . S
C2009 C2008 1.374 . S
C2010 C2007 1.499 . S
C2010 C2011 1.373 . S
C2010 C2012 1.389 . S
C2011 H1990 0.950 . S
C2011 C2010 1.373 . S
C2011 C2027 1.377 . S
C2012 C2010 1.389 . S
C2012 C2013 1.524 . S
C2012 C2026 1.377 . S
C2013 C2012 1.524 . S
C2013 C2014 1.397 . S
C2013 C2018 1.363 . S
C2014 H1991 0.950 . S
C2014 C2013 1.397 . S
C2014 C2015 1.334 . S
C2015 H1992 0.950 . S
C2015 C2014 1.334 . S
C2015 C2016 1.287 . S
C2016 C2015 1.287 . S
C2016 C2017 1.524 . S
C2016 H2035 0.913 . S
C2017 H1993 0.950 . S
C2017 C2016 1.524 . S
C2017 C2018 1.415 . S
C2018 H1994 0.950 . S
C2018 C2013 1.363 . S
C2018 C2017 1.415 . S
C2019 H1995 0.951 . S
C2019 C2020 1.366 . S
C2019 C2021 1.388 . S
C2020 C2019 1.366 . S
C2020 C2024 1.385 . S
C2021 H1996 0.951 . S
C2021 C2019 1.388 . S
C2021 C2022 1.366 . S
C2022 C2021 1.366 . S
C2022 C2023 1.414 . S
C2022 C2025 1.499 . S
C2023 H1997 0.950 . S
C2023 C2022 1.414 . S
C2023 C2024 1.374 . S
C2024 H1998 0.950 . S
C2024 C2020 1.385 . S
C2024 C2023 1.374 . S
C2025 C2022 1.499 . S
C2025 C2026 1.373 . S
C2025 C2027 1.389 . S
C2026 H1999 0.950 . S
C2026 C2012 1.377 . S
C2026 C2025 1.373 . S
C2027 C2011 1.377 . S
C2027 C2025 1.389 . S
C2027 C2028 1.524 . S
C2028 C2027 1.524 . S
C2028 C2029 1.397 . S
C2028 C2033 1.363 . S
C2029 H2000 0.950 . S
C2029 C2028 1.397 . S
C2029 C2030 1.334 . S
C2030 H2001 0.950 . S
C2030 C2029 1.334 . S
C2030 C2031 1.287 . S
C2031 C2030 1.287 . S
C2031 C2032 1.524 . S
C2031 H2034 0.999 . S
C2032 H2002 0.950 . S
C2032 C2031 1.524 . S
C2032 C2033 1.415 . S
C2033 H2003 0.950 . S
C2033 C2028 1.363 . S
C2033 C2032 1.415 . S
H2034 C2031 0.999 . S
H2035 C2016 0.913 . S
H2036 C2054 0.951 . S
H2037 C2056 0.951 . S
H2038 C2058 0.950 . S
H2039 C2059 0.950 . S
H2040 C2061 0.950 . S
H2041 C2064 0.950 . S
H2042 C2065 0.950 . S
H2043 C2067 0.950 . S
H2044 C2068 0.950 . S
H2045 C2069 0.951 . S
H2046 C2071 0.951 . S
H2047 C2073 0.950 . S
H2048 C2074 0.950 . S
H2049 C2076 0.950 . S
H2050 C2079 0.950 . S
H2051 C2080 0.950 . S
H2052 C2082 0.950 . S
H2053 C2083 0.950 . S
C2054 H2036 0.951 . S
C2054 C2055 1.366 . S
C2054 C2056 1.388 . S
C2055 C2054 1.366 . S
C2055 C2059 1.385 . S
C2056 H2037 0.951 . S
C2056 C2054 1.388 . S
C2056 C2057 1.366 . S
C2057 C2056 1.366 . S
C2057 C2058 1.414 . S
C2057 C2060 1.499 . S
C2058 H2038 0.950 . S
C2058 C2057 1.414 . S
C2058 C2059 1.374 . S
C2059 H2039 0.950 . S
C2059 C2055 1.385 . S
C2059 C2058 1.374 . S
C2060 C2057 1.499 . S
C2060 C2061 1.373 . S
C2060 C2062 1.389 . S
C2061 H2040 0.950 . S
C2061 C2060 1.373 . S
C2061 C2077 1.377 . S
C2062 C2060 1.389 . S
C2062 C2063 1.524 . S
C2062 C2076 1.377 . S
C2063 C2062 1.524 . S
C2063 C2064 1.397 . S
C2063 C2068 1.363 . S
C2064 H2041 0.950 . S
C2064 C2063 1.397 . S
C2064 C2065 1.334 . S
C2065 H2042 0.950 . S
C2065 C2064 1.334 . S
C2065 C2066 1.287 . S
C2066 C2065 1.287 . S
C2066 C2067 1.524 . S
C2066 H2085 0.913 . S
C2067 H2043 0.950 . S
C2067 C2066 1.524 . S
C2067 C2068 1.415 . S
C2068 H2044 0.950 . S
C2068 C2063 1.363 . S
C2068 C2067 1.415 . S
C2069 H2045 0.951 . S
C2069 C2070 1.366 . S
C2069 C2071 1.388 . S
C2070 C2069 1.366 . S
C2070 C2074 1.385 . S
C2071 H2046 0.951 . S
C2071 C2069 1.388 . S
C2071 C2072 1.366 . S
C2072 C2071 1.366 . S
C2072 C2073 1.414 . S
C2072 C2075 1.499 . S
C2073 H2047 0.950 . S
C2073 C2072 1.414 . S
C2073 C2074 1.374 . S
C2074 H2048 0.950 . S
C2074 C2070 1.385 . S
C2074 C2073 1.374 . S
C2075 C2072 1.499 . S
C2075 C2076 1.373 . S
C2075 C2077 1.389 . S
C2076 H2049 0.950 . S
C2076 C2062 1.377 . S
C2076 C2075 1.373 . S
C2077 C2061 1.377 . S
C2077 C2075 1.389 . S
C2077 C2078 1.524 . S
C2078 C2077 1.524 . S
C2078 C2079 1.397 . S
C2078 C2083 1.363 . S
C2079 H2050 0.950 . S
C2079 C2078 1.397 . S
C2079 C2080 1.334 . S
C2080 H2051 0.950 . S
C2080 C2079 1.334 . S
C2080 C2081 1.287 . S
C2081 C2080 1.287 . S
C2081 C2082 1.524 . S
C2081 H2084 0.999 . S
C2082 H2052 0.950 . S
C2082 C2081 1.524 . S
C2082 C2083 1.415 . S
C2083 H2053 0.950 . S
C2083 C2078 1.363 . S
C2083 C2082 1.415 . S
H2084 C2081 0.999 . S
H2085 C2066 0.913 . S
H2086 C2104 0.951 . S
H2087 C2106 0.951 . S
H2088 C2108 0.950 . S
H2089 C2109 0.950 . S
H2090 C2111 0.950 . S
H2091 C2114 0.950 . S
H2092 C2115 0.950 . S
H2093 C2117 0.950 . S
H2094 C2118 0.950 . S
H2095 C2119 0.951 . S
H2096 C2121 0.951 . S
H2097 C2123 0.950 . S
H2098 C2124 0.950 . S
H2099 C2126 0.950 . S
H2100 C2129 0.950 . S
H2101 C2130 0.950 . S
H2102 C2132 0.950 . S
H2103 C2133 0.950 . S
C2104 H2086 0.951 . S
C2104 C2105 1.366 . S
C2104 C2106 1.388 . S
C2105 C2104 1.366 . S
C2105 C2109 1.385 . S
C2106 H2087 0.951 . S
C2106 C2104 1.388 . S
C2106 C2107 1.366 . S
C2107 C2106 1.366 . S
C2107 C2108 1.414 . S
C2107 C2110 1.499 . S
C2108 H2088 0.950 . S
C2108 C2107 1.414 . S
C2108 C2109 1.374 . S
C2109 H2089 0.950 . S
C2109 C2105 1.385 . S
C2109 C2108 1.374 . S
C2110 C2107 1.499 . S
C2110 C2111 1.373 . S
C2110 C2112 1.389 . S
C2111 H2090 0.950 . S
C2111 C2110 1.373 . S
C2111 C2127 1.377 . S
C2112 C2110 1.389 . S
C2112 C2113 1.524 . S
C2112 C2126 1.377 . S
C2113 C2112 1.524 . S
C2113 C2114 1.397 . S
C2113 C2118 1.363 . S
C2114 H2091 0.950 . S
C2114 C2113 1.397 . S
C2114 C2115 1.334 . S
C2115 H2092 0.950 . S
C2115 C2114 1.334 . S
C2115 C2116 1.287 . S
C2116 C2115 1.287 . S
C2116 C2117 1.524 . S
C2116 H2135 0.913 . S
C2117 H2093 0.950 . S
C2117 C2116 1.524 . S
C2117 C2118 1.415 . S
C2118 H2094 0.950 . S
C2118 C2113 1.363 . S
C2118 C2117 1.415 . S
C2119 H2095 0.951 . S
C2119 C2120 1.366 . S
C2119 C2121 1.388 . S
C2120 C2119 1.366 . S
C2120 C2124 1.385 . S
C2121 H2096 0.951 . S
C2121 C2119 1.388 . S
C2121 C2122 1.366 . S
C2122 C2121 1.366 . S
C2122 C2123 1.414 . S
C2122 C2125 1.499 . S
C2123 H2097 0.950 . S
C2123 C2122 1.414 . S
C2123 C2124 1.374 . S
C2124 H2098 0.950 . S
C2124 C2120 1.385 . S
C2124 C2123 1.374 . S
C2125 C2122 1.499 . S
C2125 C2126 1.373 . S
C2125 C2127 1.389 . S
C2126 H2099 0.950 . S
C2126 C2112 1.377 . S
C2126 C2125 1.373 . S
C2127 C2111 1.377 . S
C2127 C2125 1.389 . S
C2127 C2128 1.524 . S
C2128 C2127 1.524 . S
C2128 C2129 1.397 . S
C2128 C2133 1.363 . S
C2129 H2100 0.950 . S
C2129 C2128 1.397 . S
C2129 C2130 1.334 . S
C2130 H2101 0.950 . S
C2130 C2129 1.334 . S
C2130 C2131 1.287 . S
C2131 C2130 1.287 . S
C2131 C2132 1.524 . S
C2131 H2134 0.999 . S
C2132 H2102 0.950 . S
C2132 C2131 1.524 . S
C2132 C2133 1.415 . S
C2133 H2103 0.950 . S
C2133 C2128 1.363 . S
C2133 C2132 1.415 . S
H2134 C2131 0.999 . S
H2135 C2116 0.913 . S
H2136 C2154 0.951 . S
H2137 C2156 0.951 . S
H2138 C2158 0.950 . S
H2139 C2159 0.950 . S
H2140 C2161 0.950 . S
H2141 C2164 0.950 . S
H2142 C2165 0.950 . S
H2143 C2167 0.950 . S
H2144 C2168 0.950 . S
H2145 C2169 0.951 . S
H2146 C2171 0.951 . S
H2147 C2173 0.950 . S
H2148 C2174 0.950 . S
H2149 C2176 0.950 . S
H2150 C2179 0.950 . S
H2151 C2180 0.950 . S
H2152 C2182 0.950 . S
H2153 C2183 0.950 . S
C2154 H2136 0.951 . S
C2154 C2155 1.366 . S
C2154 C2156 1.388 . S
C2155 C2154 1.366 . S
C2155 C2159 1.385 . S
C2156 H2137 0.951 . S
C2156 C2154 1.388 . S
C2156 C2157 1.366 . S
C2157 C2156 1.366 . S
C2157 C2158 1.414 . S
C2157 C2160 1.499 . S
C2158 H2138 0.950 . S
C2158 C2157 1.414 . S
C2158 C2159 1.374 . S
C2159 H2139 0.950 . S
C2159 C2155 1.385 . S
C2159 C2158 1.374 . S
C2160 C2157 1.499 . S
C2160 C2161 1.373 . S
C2160 C2162 1.389 . S
C2161 H2140 0.950 . S
C2161 C2160 1.373 . S
C2161 C2177 1.377 . S
C2162 C2160 1.389 . S
C2162 C2163 1.524 . S
C2162 C2176 1.377 . S
C2163 C2162 1.524 . S
C2163 C2164 1.397 . S
C2163 C2168 1.363 . S
C2164 H2141 0.950 . S
C2164 C2163 1.397 . S
C2164 C2165 1.334 . S
C2165 H2142 0.950 . S
C2165 C2164 1.334 . S
C2165 C2166 1.287 . S
C2166 C2165 1.287 . S
C2166 C2167 1.524 . S
C2166 H2185 0.913 . S
C2167 H2143 0.950 . S
C2167 C2166 1.524 . S
C2167 C2168 1.415 . S
C2168 H2144 0.950 . S
C2168 C2163 1.363 . S
C2168 C2167 1.415 . S
C2169 H2145 0.951 . S
C2169 C2170 1.366 . S
C2169 C2171 1.388 . S
C2170 C2169 1.366 . S
C2170 C2174 1.385 . S
C2171 H2146 0.951 . S
C2171 C2169 1.388 . S
C2171 C2172 1.366 . S
C2172 C2171 1.366 . S
C2172 C2173 1.414 . S
C2172 C2175 1.499 . S
C2173 H2147 0.950 . S
C2173 C2172 1.414 . S
C2173 C2174 1.374 . S
C2174 H2148 0.950 . S
C2174 C2170 1.385 . S
C2174 C2173 1.374 . S
C2175 C2172 1.499 . S
C2175 C2176 1.373 . S
C2175 C2177 1.389 . S
C2176 H2149 0.950 . S
C2176 C2162 1.377 . S
C2176 C2175 1.373 . S
C2177 C2161 1.377 . S
C2177 C2175 1.389 . S
C2177 C2178 1.524 . S
C2178 C2177 1.524 . S
C2178 C2179 1.397 . S
C2178 C2183 1.363 . S
C2179 H2150 0.950 . S
C2179 C2178 1.397 . S
C2179 C2180 1.334 . S
C2180 H2151 0.950 . S
C2180 C2179 1.334 . S
C2180 C2181 1.287 . S
C2181 C2180 1.287 . S
C2181 C2182 1.524 . S
C2181 H2184 0.999 . S
C2182 H2152 0.950 . S
C2182 C2181 1.524 . S
C2182 C2183 1.415 . S
C2183 H2153 0.950 . S
C2183 C2178 1.363 . S
C2183 C2182 1.415 . S
H2184 C2181 0.999 . S
H2185 C2166 0.913 . S
H2186 C2204 0.951 . S
H2187 C2206 0.951 . S
H2188 C2208 0.950 . S
H2189 C2209 0.950 . S
H2190 C2211 0.950 . S
H2191 C2214 0.950 . S
H2192 C2215 0.950 . S
H2193 C2217 0.950 . S
H2194 C2218 0.950 . S
H2195 C2219 0.951 . S
H2196 C2221 0.951 . S
H2197 C2223 0.950 . S
H2198 C2224 0.950 . S
H2199 C2226 0.950 . S
H2200 C2229 0.950 . S
H2201 C2230 0.950 . S
H2202 C2232 0.950 . S
H2203 C2233 0.950 . S
C2204 H2186 0.951 . S
C2204 C2205 1.366 . S
C2204 C2206 1.388 . S
C2205 C2204 1.366 . S
C2205 C2209 1.385 . S
C2206 H2187 0.951 . S
C2206 C2204 1.388 . S
C2206 C2207 1.366 . S
C2207 C2206 1.366 . S
C2207 C2208 1.414 . S
C2207 C2210 1.499 . S
C2208 H2188 0.950 . S
C2208 C2207 1.414 . S
C2208 C2209 1.374 . S
C2209 H2189 0.950 . S
C2209 C2205 1.385 . S
C2209 C2208 1.374 . S
C2210 C2207 1.499 . S
C2210 C2211 1.373 . S
C2210 C2212 1.389 . S
C2211 H2190 0.950 . S
C2211 C2210 1.373 . S
C2211 C2227 1.377 . S
C2212 C2210 1.389 . S
C2212 C2213 1.524 . S
C2212 C2226 1.377 . S
C2213 C2212 1.524 . S
C2213 C2214 1.397 . S
C2213 C2218 1.363 . S
C2214 H2191 0.950 . S
C2214 C2213 1.397 . S
C2214 C2215 1.334 . S
C2215 H2192 0.950 . S
C2215 C2214 1.334 . S
C2215 C2216 1.287 . S
C2216 C2215 1.287 . S
C2216 C2217 1.524 . S
C2216 H2235 0.913 . S
C2217 H2193 0.950 . S
C2217 C2216 1.524 . S
C2217 C2218 1.415 . S
C2218 H2194 0.950 . S
C2218 C2213 1.363 . S
C2218 C2217 1.415 . S
C2219 H2195 0.951 . S
C2219 C2220 1.366 . S
C2219 C2221 1.388 . S
C2220 C2219 1.366 . S
C2220 C2224 1.385 . S
C2221 H2196 0.951 . S
C2221 C2219 1.388 . S
C2221 C2222 1.366 . S
C2222 C2221 1.366 . S
C2222 C2223 1.414 . S
C2222 C2225 1.499 . S
C2223 H2197 0.950 . S
C2223 C2222 1.414 . S
C2223 C2224 1.374 . S
C2224 H2198 0.950 . S
C2224 C2220 1.385 . S
C2224 C2223 1.374 . S
C2225 C2222 1.499 . S
C2225 C2226 1.373 . S
C2225 C2227 1.389 . S
C2226 H2199 0.950 . S
C2226 C2212 1.377 . S
C2226 C2225 1.373 . S
C2227 C2211 1.377 . S
C2227 C2225 1.389 . S
C2227 C2228 1.524 . S
C2228 C2227 1.524 . S
C2228 C2229 1.397 . S
C2228 C2233 1.363 . S
C2229 H2200 0.950 . S
C2229 C2228 1.397 . S
C2229 C2230 1.334 . S
C2230 H2201 0.950 . S
C2230 C2229 1.334 . S
C2230 C2231 1.287 . S
C2231 C2230 1.287 . S
C2231 C2232 1.524 . S
C2231 H2234 0.999 . S
C2232 H2202 0.950 . S
C2232 C2231 1.524 . S
C2232 C2233 1.415 . S
C2233 H2203 0.950 . S
C2233 C2228 1.363 . S
C2233 C2232 1.415 . S
H2234 C2231 0.999 . S
H2235 C2216 0.913 . S
H2236 C2254 0.951 . S
H2237 C2256 0.951 . S
H2238 C2258 0.950 . S
H2239 C2259 0.950 . S
H2240 C2261 0.950 . S
H2241 C2264 0.950 . S
H2242 C2265 0.950 . S
H2243 C2267 0.950 . S
H2244 C2268 0.950 . S
H2245 C2269 0.951 . S
H2246 C2271 0.951 . S
H2247 C2273 0.950 . S
H2248 C2274 0.950 . S
H2249 C2276 0.950 . S
H2250 C2279 0.950 . S
H2251 C2280 0.950 . S
H2252 C2282 0.950 . S
H2253 C2283 0.950 . S
C2254 H2236 0.951 . S
C2254 C2255 1.366 . S
C2254 C2256 1.388 . S
C2255 C2254 1.366 . S
C2255 C2259 1.385 . S
C2256 H2237 0.951 . S
C2256 C2254 1.388 . S
C2256 C2257 1.366 . S
C2257 C2256 1.366 . S
C2257 C2258 1.414 . S
C2257 C2260 1.499 . S
C2258 H2238 0.950 . S
C2258 C2257 1.414 . S
C2258 C2259 1.374 . S
C2259 H2239 0.950 . S
C2259 C2255 1.385 . S
C2259 C2258 1.374 . S
C2260 C2257 1.499 . S
C2260 C2261 1.373 . S
C2260 C2262 1.389 . S
C2261 H2240 0.950 . S
C2261 C2260 1.373 . S
C2261 C2277 1.377 . S
C2262 C2260 1.389 . S
C2262 C2263 1.524 . S
C2262 C2276 1.377 . S
C2263 C2262 1.524 . S
C2263 C2264 1.397 . S
C2263 C2268 1.363 . S
C2264 H2241 0.950 . S
C2264 C2263 1.397 . S
C2264 C2265 1.334 . S
C2265 H2242 0.950 . S
C2265 C2264 1.334 . S
C2265 C2266 1.287 . S
C2266 C2265 1.287 . S
C2266 C2267 1.524 . S
C2266 H2285 0.913 . S
C2267 H2243 0.950 . S
C2267 C2266 1.524 . S
C2267 C2268 1.415 . S
C2268 H2244 0.950 . S
C2268 C2263 1.363 . S
C2268 C2267 1.415 . S
C2269 H2245 0.951 . S
C2269 C2270 1.366 . S
C2269 C2271 1.388 . S
C2270 C2269 1.366 . S
C2270 C2274 1.385 . S
C2271 H2246 0.951 . S
C2271 C2269 1.388 . S
C2271 C2272 1.366 . S
C2272 C2271 1.366 . S
C2272 C2273 1.414 . S
C2272 C2275 1.499 . S
C2273 H2247 0.950 . S
C2273 C2272 1.414 . S
C2273 C2274 1.374 . S
C2274 H2248 0.950 . S
C2274 C2270 1.385 . S
C2274 C2273 1.374 . S
C2275 C2272 1.499 . S
C2275 C2276 1.373 . S
C2275 C2277 1.389 . S
C2276 H2249 0.950 . S
C2276 C2262 1.377 . S
C2276 C2275 1.373 . S
C2277 C2261 1.377 . S
C2277 C2275 1.389 . S
C2277 C2278 1.524 . S
C2278 C2277 1.524 . S
C2278 C2279 1.397 . S
C2278 C2283 1.363 . S
C2279 H2250 0.950 . S
C2279 C2278 1.397 . S
C2279 C2280 1.334 . S
C2280 H2251 0.950 . S
C2280 C2279 1.334 . S
C2280 C2281 1.287 . S
C2281 C2280 1.287 . S
C2281 C2282 1.524 . S
C2281 H2284 0.999 . S
C2282 H2252 0.950 . S
C2282 C2281 1.524 . S
C2282 C2283 1.415 . S
C2283 H2253 0.950 . S
C2283 C2278 1.363 . S
C2283 C2282 1.415 . S
H2284 C2281 0.999 . S
H2285 C2266 0.913 . S
H2286 C2304 0.951 . S
H2287 C2306 0.951 . S
H2288 C2308 0.950 . S
H2289 C2309 0.950 . S
H2290 C2311 0.950 . S
H2291 C2314 0.950 . S
H2292 C2315 0.950 . S
H2293 C2317 0.950 . S
H2294 C2318 0.950 . S
H2295 C2319 0.951 . S
H2296 C2321 0.951 . S
H2297 C2323 0.950 . S
H2298 C2324 0.950 . S
H2299 C2326 0.950 . S
H2300 C2329 0.950 . S
H2301 C2330 0.950 . S
H2302 C2332 0.950 . S
H2303 C2333 0.950 . S
C2304 H2286 0.951 . S
C2304 C2305 1.366 . S
C2304 C2306 1.388 . S
C2305 C2304 1.366 . S
C2305 C2309 1.385 . S
C2306 H2287 0.951 . S
C2306 C2304 1.388 . S
C2306 C2307 1.366 . S
C2307 C2306 1.366 . S
C2307 C2308 1.414 . S
C2307 C2310 1.499 . S
C2308 H2288 0.950 . S
C2308 C2307 1.414 . S
C2308 C2309 1.374 . S
C2309 H2289 0.950 . S
C2309 C2305 1.385 . S
C2309 C2308 1.374 . S
C2310 C2307 1.499 . S
C2310 C2311 1.373 . S
C2310 C2312 1.389 . S
C2311 H2290 0.950 . S
C2311 C2310 1.373 . S
C2311 C2327 1.377 . S
C2312 C2310 1.389 . S
C2312 C2313 1.524 . S
C2312 C2326 1.377 . S
C2313 C2312 1.524 . S
C2313 C2314 1.397 . S
C2313 C2318 1.363 . S
C2314 H2291 0.950 . S
C2314 C2313 1.397 . S
C2314 C2315 1.334 . S
C2315 H2292 0.950 . S
C2315 C2314 1.334 . S
C2315 C2316 1.287 . S
C2316 C2315 1.287 . S
C2316 C2317 1.524 . S
C2316 H2335 0.913 . S
C2317 H2293 0.950 . S
C2317 C2316 1.524 . S
C2317 C2318 1.415 . S
C2318 H2294 0.950 . S
C2318 C2313 1.363 . S
C2318 C2317 1.415 . S
C2319 H2295 0.951 . S
C2319 C2320 1.366 . S
C2319 C2321 1.388 . S
C2320 C2319 1.366 . S
C2320 C2324 1.385 . S
C2321 H2296 0.951 . S
C2321 C2319 1.388 . S
C2321 C2322 1.366 . S
C2322 C2321 1.366 . S
C2322 C2323 1.414 . S
C2322 C2325 1.499 . S
C2323 H2297 0.950 . S
C2323 C2322 1.414 . S
C2323 C2324 1.374 . S
C2324 H2298 0.950 . S
C2324 C2320 1.385 . S
C2324 C2323 1.374 . S
C2325 C2322 1.499 . S
C2325 C2326 1.373 . S
C2325 C2327 1.389 . S
C2326 H2299 0.950 . S
C2326 C2312 1.377 . S
C2326 C2325 1.373 . S
C2327 C2311 1.377 . S
C2327 C2325 1.389 . S
C2327 C2328 1.524 . S
C2328 C2327 1.524 . S
C2328 C2329 1.397 . S
C2328 C2333 1.363 . S
C2329 H2300 0.950 . S
C2329 C2328 1.397 . S
C2329 C2330 1.334 . S
C2330 H2301 0.950 . S
C2330 C2329 1.334 . S
C2330 C2331 1.287 . S
C2331 C2330 1.287 . S
C2331 C2332 1.524 . S
C2331 H2334 0.999 . S
C2332 H2302 0.950 . S
C2332 C2331 1.524 . S
C2332 C2333 1.415 . S
C2333 H2303 0.950 . S
C2333 C2328 1.363 . S
C2333 C2332 1.415 . S
H2334 C2331 0.999 . S
H2335 C2316 0.913 . S
H2336 C2354 0.951 . S
H2337 C2356 0.951 . S
H2338 C2358 0.950 . S
H2339 C2359 0.950 . S
H2340 C2361 0.950 . S
H2341 C2364 0.950 . S
H2342 C2365 0.950 . S
H2343 C2367 0.950 . S
H2344 C2368 0.950 . S
H2345 C2369 0.951 . S
H2346 C2371 0.951 . S
H2347 C2373 0.950 . S
H2348 C2374 0.950 . S
H2349 C2376 0.950 . S
H2350 C2379 0.950 . S
H2351 C2380 0.950 . S
H2352 C2382 0.950 . S
H2353 C2383 0.950 . S
C2354 H2336 0.951 . S
C2354 C2355 1.366 . S
C2354 C2356 1.388 . S
C2355 C2354 1.366 . S
C2355 C2359 1.385 . S
C2356 H2337 0.951 . S
C2356 C2354 1.388 . S
C2356 C2357 1.366 . S
C2357 C2356 1.366 . S
C2357 C2358 1.414 . S
C2357 C2360 1.499 . S
C2358 H2338 0.950 . S
C2358 C2357 1.414 . S
C2358 C2359 1.374 . S
C2359 H2339 0.950 . S
C2359 C2355 1.385 . S
C2359 C2358 1.374 . S
C2360 C2357 1.499 . S
C2360 C2361 1.373 . S
C2360 C2362 1.389 . S
C2361 H2340 0.950 . S
C2361 C2360 1.373 . S
C2361 C2377 1.377 . S
C2362 C2360 1.389 . S
C2362 C2363 1.524 . S
C2362 C2376 1.377 . S
C2363 C2362 1.524 . S
C2363 C2364 1.397 . S
C2363 C2368 1.363 . S
C2364 H2341 0.950 . S
C2364 C2363 1.397 . S
C2364 C2365 1.334 . S
C2365 H2342 0.950 . S
C2365 C2364 1.334 . S
C2365 C2366 1.287 . S
C2366 C2365 1.287 . S
C2366 C2367 1.524 . S
C2366 H2385 0.913 . S
C2367 H2343 0.950 . S
C2367 C2366 1.524 . S
C2367 C2368 1.415 . S
C2368 H2344 0.950 . S
C2368 C2363 1.363 . S
C2368 C2367 1.415 . S
C2369 H2345 0.951 . S
C2369 C2370 1.366 . S
C2369 C2371 1.388 . S
C2370 C2369 1.366 . S
C2370 C2374 1.385 . S
C2371 H2346 0.951 . S
C2371 C2369 1.388 . S
C2371 C2372 1.366 . S
C2372 C2371 1.366 . S
C2372 C2373 1.414 . S
C2372 C2375 1.499 . S
C2373 H2347 0.950 . S
C2373 C2372 1.414 . S
C2373 C2374 1.374 . S
C2374 H2348 0.950 . S
C2374 C2370 1.385 . S
C2374 C2373 1.374 . S
C2375 C2372 1.499 . S
C2375 C2376 1.373 . S
C2375 C2377 1.389 . S
C2376 H2349 0.950 . S
C2376 C2362 1.377 . S
C2376 C2375 1.373 . S
C2377 C2361 1.377 . S
C2377 C2375 1.389 . S
C2377 C2378 1.524 . S
C2378 C2377 1.524 . S
C2378 C2379 1.397 . S
C2378 C2383 1.363 . S
C2379 H2350 0.950 . S
C2379 C2378 1.397 . S
C2379 C2380 1.334 . S
C2380 H2351 0.950 . S
C2380 C2379 1.334 . S
C2380 C2381 1.287 . S
C2381 C2380 1.287 . S
C2381 C2382 1.524 . S
C2381 H2384 0.999 . S
C2382 H2352 0.950 . S
C2382 C2381 1.524 . S
C2382 C2383 1.415 . S
C2383 H2353 0.950 . S
C2383 C2378 1.363 . S
C2383 C2382 1.415 . S
H2384 C2381 0.999 . S
H2385 C2366 0.913 . S
H2386 C2404 0.951 . S
H2387 C2406 0.951 . S
H2388 C2408 0.950 . S
H2389 C2409 0.950 . S
H2390 C2411 0.950 . S
H2391 C2414 0.950 . S
H2392 C2415 0.950 . S
H2393 C2417 0.950 . S
H2394 C2418 0.950 . S
H2395 C2419 0.951 . S
H2396 C2421 0.951 . S
H2397 C2423 0.950 . S
H2398 C2424 0.950 . S
H2399 C2426 0.950 . S
H2400 C2429 0.950 . S
H2401 C2430 0.950 . S
H2402 C2432 0.950 . S
H2403 C2433 0.950 . S
C2404 H2386 0.951 . S
C2404 C2405 1.366 . S
C2404 C2406 1.388 . S
C2405 C2404 1.366 . S
C2405 C2409 1.385 . S
C2406 H2387 0.951 . S
C2406 C2404 1.388 . S
C2406 C2407 1.366 . S
C2407 C2406 1.366 . S
C2407 C2408 1.414 . S
C2407 C2410 1.499 . S
C2408 H2388 0.950 . S
C2408 C2407 1.414 . S
C2408 C2409 1.374 . S
C2409 H2389 0.950 . S
C2409 C2405 1.385 . S
C2409 C2408 1.374 . S
C2410 C2407 1.499 . S
C2410 C2411 1.373 . S
C2410 C2412 1.389 . S
C2411 H2390 0.950 . S
C2411 C2410 1.373 . S
C2411 C2427 1.377 . S
C2412 C2410 1.389 . S
C2412 C2413 1.524 . S
C2412 C2426 1.377 . S
C2413 C2412 1.524 . S
C2413 C2414 1.397 . S
C2413 C2418 1.363 . S
C2414 H2391 0.950 . S
C2414 C2413 1.397 . S
C2414 C2415 1.334 . S
C2415 H2392 0.950 . S
C2415 C2414 1.334 . S
C2415 C2416 1.287 . S
C2416 C2415 1.287 . S
C2416 C2417 1.524 . S
C2416 H2435 0.913 . S
C2417 H2393 0.950 . S
C2417 C2416 1.524 . S
C2417 C2418 1.415 . S
C2418 H2394 0.950 . S
C2418 C2413 1.363 . S
C2418 C2417 1.415 . S
C2419 H2395 0.951 . S
C2419 C2420 1.366 . S
C2419 C2421 1.388 . S
C2420 C2419 1.366 . S
C2420 C2424 1.385 . S
C2421 H2396 0.951 . S
C2421 C2419 1.388 . S
C2421 C2422 1.366 . S
C2422 C2421 1.366 . S
C2422 C2423 1.414 . S
C2422 C2425 1.499 . S
C2423 H2397 0.950 . S
C2423 C2422 1.414 . S
C2423 C2424 1.374 . S
C2424 H2398 0.950 . S
C2424 C2420 1.385 . S
C2424 C2423 1.374 . S
C2425 C2422 1.499 . S
C2425 C2426 1.373 . S
C2425 C2427 1.389 . S
C2426 H2399 0.950 . S
C2426 C2412 1.377 . S
C2426 C2425 1.373 . S
C2427 C2411 1.377 . S
C2427 C2425 1.389 . S
C2427 C2428 1.524 . S
C2428 C2427 1.524 . S
C2428 C2429 1.397 . S
C2428 C2433 1.363 . S
C2429 H2400 0.950 . S
C2429 C2428 1.397 . S
C2429 C2430 1.334 . S
C2430 H2401 0.950 . S
C2430 C2429 1.334 . S
C2430 C2431 1.287 . S
C2431 C2430 1.287 . S
C2431 C2432 1.524 . S
C2431 H2434 0.999 . S
C2432 H2402 0.950 . S
C2432 C2431 1.524 . S
C2432 C2433 1.415 . S
C2433 H2403 0.950 . S
C2433 C2428 1.363 . S
C2433 C2432 1.415 . S
H2434 C2431 0.999 . S
H2435 C2416 0.913 . S
H2436 C2454 0.951 . S
H2437 C2456 0.951 . S
H2438 C2458 0.950 . S
H2439 C2459 0.950 . S
H2440 C2461 0.950 . S
H2441 C2464 0.950 . S
H2442 C2465 0.950 . S
H2443 C2467 0.950 . S
H2444 C2468 0.950 . S
H2445 C2469 0.951 . S
H2446 C2471 0.951 . S
H2447 C2473 0.950 . S
H2448 C2474 0.950 . S
H2449 C2476 0.950 . S
H2450 C2479 0.950 . S
H2451 C2480 0.950 . S
H2452 C2482 0.950 . S
H2453 C2483 0.950 . S
C2454 H2436 0.951 . S
C2454 C2455 1.366 . S
C2454 C2456 1.388 . S
C2455 C2454 1.366 . S
C2455 C2459 1.385 . S
C2456 H2437 0.951 . S
C2456 C2454 1.388 . S
C2456 C2457 1.366 . S
C2457 C2456 1.366 . S
C2457 C2458 1.414 . S
C2457 C2460 1.499 . S
C2458 H2438 0.950 . S
C2458 C2457 1.414 . S
C2458 C2459 1.374 . S
C2459 H2439 0.950 . S
C2459 C2455 1.385 . S
C2459 C2458 1.374 . S
C2460 C2457 1.499 . S
C2460 C2461 1.373 . S
C2460 C2462 1.389 . S
C2461 H2440 0.950 . S
C2461 C2460 1.373 . S
C2461 C2477 1.377 . S
C2462 C2460 1.389 . S
C2462 C2463 1.524 . S
C2462 C2476 1.377 . S
C2463 C2462 1.524 . S
C2463 C2464 1.397 . S
C2463 C2468 1.363 . S
C2464 H2441 0.950 . S
C2464 C2463 1.397 . S
C2464 C2465 1.334 . S
C2465 H2442 0.950 . S
C2465 C2464 1.334 . S
C2465 C2466 1.287 . S
C2466 C2465 1.287 . S
C2466 C2467 1.524 . S
C2466 H2485 0.913 . S
C2467 H2443 0.950 . S
C2467 C2466 1.524 . S
C2467 C2468 1.415 . S
C2468 H2444 0.950 . S
C2468 C2463 1.363 . S
C2468 C2467 1.415 . S
C2469 H2445 0.951 . S
C2469 C2470 1.366 . S
C2469 C2471 1.388 . S
C2470 C2469 1.366 . S
C2470 C2474 1.385 . S
C2471 H2446 0.951 . S
C2471 C2469 1.388 . S
C2471 C2472 1.366 . S
C2472 C2471 1.366 . S
C2472 C2473 1.414 . S
C2472 C2475 1.499 . S
C2473 H2447 0.950 . S
C2473 C2472 1.414 . S
C2473 C2474 1.374 . S
C2474 H2448 0.950 . S
C2474 C2470 1.385 . S
C2474 C2473 1.374 . S
C2475 C2472 1.499 . S
C2475 C2476 1.373 . S
C2475 C2477 1.389 . S
C2476 H2449 0.950 . S
C2476 C2462 1.377 . S
C2476 C2475 1.373 . S
C2477 C2461 1.377 . S
C2477 C2475 1.389 . S
C2477 C2478 1.524 . S
C2478 C2477 1.524 . S
C2478 C2479 1.397 . S
C2478 C2483 1.363 . S
C2479 H2450 0.950 . S
C2479 C2478 1.397 . S
C2479 C2480 1.334 . S
C2480 H2451 0.950 . S
C2480 C2479 1.334 . S
C2480 C2481 1.287 . S
C2481 C2480 1.287 . S
C2481 C2482 1.524 . S
C2481 H2484 0.999 . S
C2482 H2452 0.950 . S
C2482 C2481 1.524 . S
C2482 C2483 1.415 . S
C2483 H2453 0.950 . S
C2483 C2478 1.363 . S
C2483 C2482 1.415 . S
H2484 C2481 0.999 . S
H2485 C2466 0.913 . S
H2486 C2504 0.951 . S
H2487 C2506 0.951 . S
H2488 C2508 0.950 . S
H2489 C2509 0.950 . S
H2490 C2511 0.950 . S
H2491 C2514 0.950 . S
H2492 C2515 0.950 . S
H2493 C2517 0.950 . S
H2494 C2518 0.950 . S
H2495 C2519 0.951 . S
H2496 C2521 0.951 . S
H2497 C2523 0.950 . S
H2498 C2524 0.950 . S
H2499 C2526 0.950 . S
H2500 C2529 0.950 . S
H2501 C2530 0.950 . S
H2502 C2532 0.950 . S
H2503 C2533 0.950 . S
C2504 H2486 0.951 . S
C2504 C2505 1.366 . S
C2504 C2506 1.388 . S
C2505 C2504 1.366 . S
C2505 C2509 1.385 . S
C2506 H2487 0.951 . S
C2506 C2504 1.388 . S
C2506 C2507 1.366 . S
C2507 C2506 1.366 . S
C2507 C2508 1.414 . S
C2507 C2510 1.499 . S
C2508 H2488 0.950 . S
C2508 C2507 1.414 . S
C2508 C2509 1.374 . S
C2509 H2489 0.950 . S
C2509 C2505 1.385 . S
C2509 C2508 1.374 . S
C2510 C2507 1.499 . S
C2510 C2511 1.373 . S
C2510 C2512 1.389 . S
C2511 H2490 0.950 . S
C2511 C2510 1.373 . S
C2511 C2527 1.377 . S
C2512 C2510 1.389 . S
C2512 C2513 1.524 . S
C2512 C2526 1.377 . S
C2513 C2512 1.524 . S
C2513 C2514 1.397 . S
C2513 C2518 1.363 . S
C2514 H2491 0.950 . S
C2514 C2513 1.397 . S
C2514 C2515 1.334 . S
C2515 H2492 0.950 . S
C2515 C2514 1.334 . S
C2515 C2516 1.287 . S
C2516 C2515 1.287 . S
C2516 C2517 1.524 . S
C2516 H2535 0.913 . S
C2517 H2493 0.950 . S
C2517 C2516 1.524 . S
C2517 C2518 1.415 . S
C2518 H2494 0.950 . S
C2518 C2513 1.363 . S
C2518 C2517 1.415 . S
C2519 H2495 0.951 . S
C2519 C2520 1.366 . S
C2519 C2521 1.388 . S
C2520 C2519 1.366 . S
C2520 C2524 1.385 . S
C2521 H2496 0.951 . S
C2521 C2519 1.388 . S
C2521 C2522 1.366 . S
C2522 C2521 1.366 . S
C2522 C2523 1.414 . S
C2522 C2525 1.499 . S
C2523 H2497 0.950 . S
C2523 C2522 1.414 . S
C2523 C2524 1.374 . S
C2524 H2498 0.950 . S
C2524 C2520 1.385 . S
C2524 C2523 1.374 . S
C2525 C2522 1.499 . S
C2525 C2526 1.373 . S
C2525 C2527 1.389 . S
C2526 H2499 0.950 . S
C2526 C2512 1.377 . S
C2526 C2525 1.373 . S
C2527 C2511 1.377 . S
C2527 C2525 1.389 . S
C2527 C2528 1.524 . S
C2528 C2527 1.524 . S
C2528 C2529 1.397 . S
C2528 C2533 1.363 . S
C2529 H2500 0.950 . S
C2529 C2528 1.397 . S
C2529 C2530 1.334 . S
C2530 H2501 0.950 . S
C2530 C2529 1.334 . S
C2530 C2531 1.287 . S
C2531 C2530 1.287 . S
C2531 C2532 1.524 . S
C2531 H2534 0.999 . S
C2532 H2502 0.950 . S
C2532 C2531 1.524 . S
C2532 C2533 1.415 . S
C2533 H2503 0.950 . S
C2533 C2528 1.363 . S
C2533 C2532 1.415 . S
H2534 C2531 0.999 . S
H2535 C2516 0.913 . S
H2536 C2554 0.951 . S
H2537 C2556 0.951 . S
H2538 C2558 0.950 . S
H2539 C2559 0.950 . S
H2540 C2561 0.950 . S
H2541 C2564 0.950 . S
H2542 C2565 0.950 . S
H2543 C2567 0.950 . S
H2544 C2568 0.950 . S
H2545 C2569 0.951 . S
H2546 C2571 0.951 . S
H2547 C2573 0.950 . S
H2548 C2574 0.950 . S
H2549 C2576 0.950 . S
H2550 C2579 0.950 . S
H2551 C2580 0.950 . S
H2552 C2582 0.950 . S
H2553 C2583 0.950 . S
C2554 H2536 0.951 . S
C2554 C2555 1.366 . S
C2554 C2556 1.388 . S
C2555 C2554 1.366 . S
C2555 C2559 1.385 . S
C2556 H2537 0.951 . S
C2556 C2554 1.388 . S
C2556 C2557 1.366 . S
C2557 C2556 1.366 . S
C2557 C2558 1.414 . S
C2557 C2560 1.499 . S
C2558 H2538 0.950 . S
C2558 C2557 1.414 . S
C2558 C2559 1.374 . S
C2559 H2539 0.950 . S
C2559 C2555 1.385 . S
C2559 C2558 1.374 . S
C2560 C2557 1.499 . S
C2560 C2561 1.373 . S
C2560 C2562 1.389 . S
C2561 H2540 0.950 . S
C2561 C2560 1.373 . S
C2561 C2577 1.377 . S
C2562 C2560 1.389 . S
C2562 C2563 1.524 . S
C2562 C2576 1.377 . S
C2563 C2562 1.524 . S
C2563 C2564 1.397 . S
C2563 C2568 1.363 . S
C2564 H2541 0.950 . S
C2564 C2563 1.397 . S
C2564 C2565 1.334 . S
C2565 H2542 0.950 . S
C2565 C2564 1.334 . S
C2565 C2566 1.287 . S
C2566 C2565 1.287 . S
C2566 C2567 1.524 . S
C2566 H2585 0.913 . S
C2567 H2543 0.950 . S
C2567 C2566 1.524 . S
C2567 C2568 1.415 . S
C2568 H2544 0.950 . S
C2568 C2563 1.363 . S
C2568 C2567 1.415 . S
C2569 H2545 0.951 . S
C2569 C2570 1.366 . S
C2569 C2571 1.388 . S
C2570 C2569 1.366 . S
C2570 C2574 1.385 . S
C2571 H2546 0.951 . S
C2571 C2569 1.388 . S
C2571 C2572 1.366 . S
C2572 C2571 1.366 . S
C2572 C2573 1.414 . S
C2572 C2575 1.499 . S
C2573 H2547 0.950 . S
C2573 C2572 1.414 . S
C2573 C2574 1.374 . S
C2574 H2548 0.950 . S
C2574 C2570 1.385 . S
C2574 C2573 1.374 . S
C2575 C2572 1.499 . S
C2575 C2576 1.373 . S
C2575 C2577 1.389 . S
C2576 H2549 0.950 . S
C2576 C2562 1.377 . S
C2576 C2575 1.373 . S
C2577 C2561 1.377 . S
C2577 C2575 1.389 . S
C2577 C2578 1.524 . S
C2578 C2577 1.524 . S
C2578 C2579 1.397 . S
C2578 C2583 1.363 . S
C2579 H2550 0.950 . S
C2579 C2578 1.397 . S
C2579 C2580 1.334 . S
C2580 H2551 0.950 . S
C2580 C2579 1.334 . S
C2580 C2581 1.287 . S
C2581 C2580 1.287 . S
C2581 C2582 1.524 . S
C2581 H2584 0.999 . S
C2582 H2552 0.950 . S
C2582 C2581 1.524 . S
C2582 C2583 1.415 . S
C2583 H2553 0.950 . S
C2583 C2578 1.363 . S
C2583 C2582 1.415 . S
H2584 C2581 0.999 . S
H2585 C2566 0.913 . S
H2586 C2604 0.951 . S
H2587 C2606 0.951 . S
H2588 C2608 0.950 . S
H2589 C2609 0.950 . S
H2590 C2611 0.950 . S
H2591 C2614 0.950 . S
H2592 C2615 0.950 . S
H2593 C2617 0.950 . S
H2594 C2618 0.950 . S
H2595 C2619 0.951 . S
H2596 C2621 0.951 . S
H2597 C2623 0.950 . S
H2598 C2624 0.950 . S
H2599 C2626 0.950 . S
H2600 C2629 0.950 . S
H2601 C2630 0.950 . S
H2602 C2632 0.950 . S
H2603 C2633 0.950 . S
C2604 H2586 0.951 . S
C2604 C2605 1.366 . S
C2604 C2606 1.388 . S
C2605 C2604 1.366 . S
C2605 C2609 1.385 . S
C2606 H2587 0.951 . S
C2606 C2604 1.388 . S
C2606 C2607 1.366 . S
C2607 C2606 1.366 . S
C2607 C2608 1.414 . S
C2607 C2610 1.499 . S
C2608 H2588 0.950 . S
C2608 C2607 1.414 . S
C2608 C2609 1.374 . S
C2609 H2589 0.950 . S
C2609 C2605 1.385 . S
C2609 C2608 1.374 . S
C2610 C2607 1.499 . S
C2610 C2611 1.373 . S
C2610 C2612 1.389 . S
C2611 H2590 0.950 . S
C2611 C2610 1.373 . S
C2611 C2627 1.377 . S
C2612 C2610 1.389 . S
C2612 C2613 1.524 . S
C2612 C2626 1.377 . S
C2613 C2612 1.524 . S
C2613 C2614 1.397 . S
C2613 C2618 1.363 . S
C2614 H2591 0.950 . S
C2614 C2613 1.397 . S
C2614 C2615 1.334 . S
C2615 H2592 0.950 . S
C2615 C2614 1.334 . S
C2615 C2616 1.287 . S
C2616 C2615 1.287 . S
C2616 C2617 1.524 . S
C2616 H2635 0.913 . S
C2617 H2593 0.950 . S
C2617 C2616 1.524 . S
C2617 C2618 1.415 . S
C2618 H2594 0.950 . S
C2618 C2613 1.363 . S
C2618 C2617 1.415 . S
C2619 H2595 0.951 . S
C2619 C2620 1.366 . S
C2619 C2621 1.388 . S
C2620 C2619 1.366 . S
C2620 C2624 1.385 . S
C2621 H2596 0.951 . S
C2621 C2619 1.388 . S
C2621 C2622 1.366 . S
C2622 C2621 1.366 . S
C2622 C2623 1.414 . S
C2622 C2625 1.499 . S
C2623 H2597 0.950 . S
C2623 C2622 1.414 . S
C2623 C2624 1.374 . S
C2624 H2598 0.950 . S
C2624 C2620 1.385 . S
C2624 C2623 1.374 . S
C2625 C2622 1.499 . S
C2625 C2626 1.373 . S
C2625 C2627 1.389 . S
C2626 H2599 0.950 . S
C2626 C2612 1.377 . S
C2626 C2625 1.373 . S
C2627 C2611 1.377 . S
C2627 C2625 1.389 . S
C2627 C2628 1.524 . S
C2628 C2627 1.524 . S
C2628 C2629 1.397 . S
C2628 C2633 1.363 . S
C2629 H2600 0.950 . S
C2629 C2628 1.397 . S
C2629 C2630 1.334 . S
C2630 H2601 0.950 . S
C2630 C2629 1.334 . S
C2630 C2631 1.287 . S
C2631 C2630 1.287 . S
C2631 C2632 1.524 . S
C2631 H2634 0.999 . S
C2632 H2602 0.950 . S
C2632 C2631 1.524 . S
C2632 C2633 1.415 . S
C2633 H2603 0.950 . S
C2633 C2628 1.363 . S
C2633 C2632 1.415 . S
H2634 C2631 0.999 . S
H2635 C2616 0.913 . S
H2636 C2654 0.951 . S
H2637 C2656 0.951 . S
H2638 C2658 0.950 . S
H2639 C2659 0.950 . S
H2640 C2661 0.950 . S
H2641 C2664 0.950 . S
H2642 C2665 0.950 . S
H2643 C2667 0.950 . S
H2644 C2668 0.950 . S
H2645 C2669 0.951 . S
H2646 C2671 0.951 . S
H2647 C2673 0.950 . S
H2648 C2674 0.950 . S
H2649 C2676 0.950 . S
H2650 C2679 0.950 . S
H2651 C2680 0.950 . S
H2652 C2682 0.950 . S
H2653 C2683 0.950 . S
C2654 H2636 0.951 . S
C2654 C2655 1.366 . S
C2654 C2656 1.388 . S
C2655 C2654 1.366 . S
C2655 C2659 1.385 . S
C2656 H2637 0.951 . S
C2656 C2654 1.388 . S
C2656 C2657 1.366 . S
C2657 C2656 1.366 . S
C2657 C2658 1.414 . S
C2657 C2660 1.499 . S
C2658 H2638 0.950 . S
C2658 C2657 1.414 . S
C2658 C2659 1.374 . S
C2659 H2639 0.950 . S
C2659 C2655 1.385 . S
C2659 C2658 1.374 . S
C2660 C2657 1.499 . S
C2660 C2661 1.373 . S
C2660 C2662 1.389 . S
C2661 H2640 0.950 . S
C2661 C2660 1.373 . S
C2661 C2677 1.377 . S
C2662 C2660 1.389 . S
C2662 C2663 1.524 . S
C2662 C2676 1.377 . S
C2663 C2662 1.524 . S
C2663 C2664 1.397 . S
C2663 C2668 1.363 . S
C2664 H2641 0.950 . S
C2664 C2663 1.397 . S
C2664 C2665 1.334 . S
C2665 H2642 0.950 . S
C2665 C2664 1.334 . S
C2665 C2666 1.287 . S
C2666 C2665 1.287 . S
C2666 C2667 1.524 . S
C2666 H2685 0.913 . S
C2667 H2643 0.950 . S
C2667 C2666 1.524 . S
C2667 C2668 1.415 . S
C2668 H2644 0.950 . S
C2668 C2663 1.363 . S
C2668 C2667 1.415 . S
C2669 H2645 0.951 . S
C2669 C2670 1.366 . S
C2669 C2671 1.388 . S
C2670 C2669 1.366 . S
C2670 C2674 1.385 . S
C2671 H2646 0.951 . S
C2671 C2669 1.388 . S
C2671 C2672 1.366 . S
C2672 C2671 1.366 . S
C2672 C2673 1.414 . S
C2672 C2675 1.499 . S
C2673 H2647 0.950 . S
C2673 C2672 1.414 . S
C2673 C2674 1.374 . S
C2674 H2648 0.950 . S
C2674 C2670 1.385 . S
C2674 C2673 1.374 . S
C2675 C2672 1.499 . S
C2675 C2676 1.373 . S
C2675 C2677 1.389 . S
C2676 H2649 0.950 . S
C2676 C2662 1.377 . S
C2676 C2675 1.373 . S
C2677 C2661 1.377 . S
C2677 C2675 1.389 . S
C2677 C2678 1.524 . S
C2678 C2677 1.524 . S
C2678 C2679 1.397 . S
C2678 C2683 1.363 . S
C2679 H2650 0.950 . S
C2679 C2678 1.397 . S
C2679 C2680 1.334 . S
C2680 H2651 0.950 . S
C2680 C2679 1.334 . S
C2680 C2681 1.287 . S
C2681 C2680 1.287 . S
C2681 C2682 1.524 . S
C2681 H2684 0.999 . S
C2682 H2652 0.950 . S
C2682 C2681 1.524 . S
C2682 C2683 1.415 . S
C2683 H2653 0.950 . S
C2683 C2678 1.363 . S
C2683 C2682 1.415 . S
H2684 C2681 0.999 . S
H2685 C2666 0.913 . S
H2686 C2704 0.951 . S
H2687 C2706 0.951 . S
H2688 C2708 0.950 . S
H2689 C2709 0.950 . S
H2690 C2711 0.950 . S
H2691 C2714 0.950 . S
H2692 C2715 0.950 . S
H2693 C2717 0.950 . S
H2694 C2718 0.950 . S
H2695 C2719 0.951 . S
H2696 C2721 0.951 . S
H2697 C2723 0.950 . S
H2698 C2724 0.950 . S
H2699 C2726 0.950 . S
H2700 C2729 0.950 . S
H2701 C2730 0.950 . S
H2702 C2732 0.950 . S
H2703 C2733 0.950 . S
C2704 H2686 0.951 . S
C2704 C2705 1.366 . S
C2704 C2706 1.388 . S
C2705 C2704 1.366 . S
C2705 C2709 1.385 . S
C2706 H2687 0.951 . S
C2706 C2704 1.388 . S
C2706 C2707 1.366 . S
C2707 C2706 1.366 . S
C2707 C2708 1.414 . S
C2707 C2710 1.499 . S
C2708 H2688 0.950 . S
C2708 C2707 1.414 . S
C2708 C2709 1.374 . S
C2709 H2689 0.950 . S
C2709 C2705 1.385 . S
C2709 C2708 1.374 . S
C2710 C2707 1.499 . S
C2710 C2711 1.373 . S
C2710 C2712 1.389 . S
C2711 H2690 0.950 . S
C2711 C2710 1.373 . S
C2711 C2727 1.377 . S
C2712 C2710 1.389 . S
C2712 C2713 1.524 . S
C2712 C2726 1.377 . S
C2713 C2712 1.524 . S
C2713 C2714 1.397 . S
C2713 C2718 1.363 . S
C2714 H2691 0.950 . S
C2714 C2713 1.397 . S
C2714 C2715 1.334 . S
C2715 H2692 0.950 . S
C2715 C2714 1.334 . S
C2715 C2716 1.287 . S
C2716 C2715 1.287 . S
C2716 C2717 1.524 . S
C2716 H2735 0.913 . S
C2717 H2693 0.950 . S
C2717 C2716 1.524 . S
C2717 C2718 1.415 . S
C2718 H2694 0.950 . S
C2718 C2713 1.363 . S
C2718 C2717 1.415 . S
C2719 H2695 0.951 . S
C2719 C2720 1.366 . S
C2719 C2721 1.388 . S
C2720 C2719 1.366 . S
C2720 C2724 1.385 . S
C2721 H2696 0.951 . S
C2721 C2719 1.388 . S
C2721 C2722 1.366 . S
C2722 C2721 1.366 . S
C2722 C2723 1.414 . S
C2722 C2725 1.499 . S
C2723 H2697 0.950 . S
C2723 C2722 1.414 . S
C2723 C2724 1.374 . S
C2724 H2698 0.950 . S
C2724 C2720 1.385 . S
C2724 C2723 1.374 . S
C2725 C2722 1.499 . S
C2725 C2726 1.373 . S
C2725 C2727 1.389 . S
C2726 H2699 0.950 . S
C2726 C2712 1.377 . S
C2726 C2725 1.373 . S
C2727 C2711 1.377 . S
C2727 C2725 1.389 . S
C2727 C2728 1.524 . S
C2728 C2727 1.524 . S
C2728 C2729 1.397 . S
C2728 C2733 1.363 . S
C2729 H2700 0.950 . S
C2729 C2728 1.397 . S
C2729 C2730 1.334 . S
C2730 H2701 0.950 . S
C2730 C2729 1.334 . S
C2730 C2731 1.287 . S
C2731 C2730 1.287 . S
C2731 C2732 1.524 . S
C2731 H2734 0.999 . S
C2732 H2702 0.950 . S
C2732 C2731 1.524 . S
C2732 C2733 1.415 . S
C2733 H2703 0.950 . S
C2733 C2728 1.363 . S
C2733 C2732 1.415 . S
H2734 C2731 0.999 . S
H2735 C2716 0.913 . S
C355 C216 1.331 . S
C370 C7 1.331 . S
C405 C174 1.331 . S
C420 C20 1.331 . S
C455 C189 1.331 . S
C470 C34 1.331 . S
C505 C203 1.331 . S
C520 C49 1.331 . S
C555 C202 1.331 . S
C570 C21 1.331 . S
C605 C35 1.331 . S
C620 C217 1.331 . S
C655 C175 1.331 . S
C670 C48 1.331 . S
C705 C188 1.331 . S
C720 C6 1.331 . S
C755 C258 1.331 . S
C770 C62 1.331 . S
C805 C77 1.331 . S
C820 C273 1.331 . S
C855 C90 1.331 . S
C870 C230 1.331 . S
C905 C245 1.331 . S
C920 C105 1.331 . S
C955 C315 1.331 . S
C970 C119 1.331 . S
C1005 C132 1.331 . S
C1020 C328 1.331 . S
C1055 C147 1.331 . S
C1070 C287 1.331 . S
C1105 C160 1.331 . S
C1120 C300 1.331 . S
C1155 C244 1.331 . S
C1170 C161 1.331 . S
C1205 C329 1.331 . S
C1220 C76 1.331 . S
C1255 C91 1.331 . S
C1270 C286 1.331 . S
C1305 C301 1.331 . S
C1320 C104 1.331 . S
C1355 C314 1.331 . S
C1370 C63 1.331 . S
C1405 C133 1.331 . S
C1420 C272 1.331 . S
C1455 C231 1.331 . S
C1470 C146 1.331 . S
C1505 C259 1.331 . S
C1520 C118 1.331 . S
C1555 C8 0.758 . S
C1570 C64 0.757 . S
C1605 C79 0.757 . S
C1620 C23 0.758 . S
C1655 C37 0.758 . S
C1670 C92 0.757 . S
C1705 C50 0.757 . S
C1720 C107 0.757 . S
C1755 C121 0.757 . S
C1770 C22 0.757 . S
C1805 C134 0.758 . S
C1820 C36 0.758 . S
C1855 C149 0.757 . S
C1870 C51 0.758 . S
C1905 C9 0.758 . S
C1920 C162 0.759 . S
C1955 C163 0.758 . S
C1970 C65 0.759 . S
C2005 C78 0.758 . S
C2020 C120 0.757 . S
C2055 C93 0.757 . S
C2070 C135 0.757 . S
C2105 C148 0.757 . S
C2120 C106 0.757 . S
C2155 C232 0.757 . S
C2170 C176 0.758 . S
C2205 C247 0.757 . S
C2220 C191 0.757 . S
C2255 C205 0.757 . S
C2270 C260 0.757 . S
C2305 C218 0.759 . S
C2320 C275 0.758 . S
C2355 C190 0.758 . S
C2370 C289 0.757 . S
C2405 C204 0.757 . S
C2420 C302 0.758 . S
C2455 C317 0.757 . S
C2470 C219 0.758 . S
C2505 C177 0.757 . S
C2520 C330 0.758 . S
C2555 C233 0.758 . S
C2570 C331 0.757 . S
C2605 C288 0.757 . S
C2620 C246 0.758 . S
C2655 C261 0.757 . S
C2670 C303 0.757 . S
C2705 C316 0.759 . S
C2720 C274 0.758 . S
