# Generated by pormake.
# Topology gsi, (4)-cn, num edge types: 1
# Building blocks:
#     Node 0, Type 0, BuildingBlock: QUQFOY_clean_sbu_1, # of connection points: 4
#     Node 1, Type 0, BuildingBlock: QUQFOY_clean_sbu_1, # of connection points: 4
#     Node 2, Type 0, BuildingBlock: QUQFOY_clean_sbu_1, # of connection points: 4
#     Node 3, Type 0, BuildingBlock: QUQFOY_clean_sbu_1, # of connection points: 4
#     Node 4, Type 0, BuildingBlock: QUQFOY_clean_sbu_1, # of connection points: 4
#     Node 5, Type 0, BuildingBlock: QUQFOY_clean_sbu_1, # of connection points: 4
#     Node 6, Type 0, BuildingBlock: QUQFOY_clean_sbu_1, # of connection points: 4
#     Node 7, Type 0, BuildingBlock: QUQFOY_clean_sbu_1, # of connection points: 4
#     Node 8, Type 0, BuildingBlock: QUQFOY_clean_sbu_1, # of connection points: 4
#     Node 9, Type 0, BuildingBlock: QUQFOY_clean_sbu_1, # of connection points: 4
#     Node 10, Type 0, BuildingBlock: QUQFOY_clean_sbu_1, # of connection points: 4
#     Node 11, Type 0, BuildingBlock: QUQFOY_clean_sbu_1, # of connection points: 4
#     Node 12, Type 0, BuildingBlock: QUQFOY_clean_sbu_1, # of connection points: 4
#     Node 13, Type 0, BuildingBlock: QUQFOY_clean_sbu_1, # of connection points: 4
#     Node 14, Type 0, BuildingBlock: QUQFOY_clean_sbu_1, # of connection points: 4
#     Node 15, Type 0, BuildingBlock: QUQFOY_clean_sbu_1, # of connection points: 4
#     Edge 16, Type (0, 0), BuildingBlock: XUDNAN_clean_linker_2, # of connection points: 2
#     Edge 17, Type (0, 0), BuildingBlock: XUDNAN_clean_linker_2, # of connection points: 2
#     Edge 18, Type (0, 0), BuildingBlock: XUDNAN_clean_linker_2, # of connection points: 2
#     Edge 19, Type (0, 0), BuildingBlock: XUDNAN_clean_linker_2, # of connection points: 2
#     Edge 20, Type (0, 0), BuildingBlock: XUDNAN_clean_linker_2, # of connection points: 2
#     Edge 21, Type (0, 0), BuildingBlock: XUDNAN_clean_linker_2, # of connection points: 2
#     Edge 22, Type (0, 0), BuildingBlock: XUDNAN_clean_linker_2, # of connection points: 2
#     Edge 23, Type (0, 0), BuildingBlock: XUDNAN_clean_linker_2, # of connection points: 2
#     Edge 24, Type (0, 0), BuildingBlock: XUDNAN_clean_linker_2, # of connection points: 2
#     Edge 25, Type (0, 0), BuildingBlock: XUDNAN_clean_linker_2, # of connection points: 2
#     Edge 26, Type (0, 0), BuildingBlock: XUDNAN_clean_linker_2, # of connection points: 2
#     Edge 27, Type (0, 0), BuildingBlock: XUDNAN_clean_linker_2, # of connection points: 2
#     Edge 28, Type (0, 0), BuildingBlock: XUDNAN_clean_linker_2, # of connection points: 2
#     Edge 29, Type (0, 0), BuildingBlock: XUDNAN_clean_linker_2, # of connection points: 2
#     Edge 30, Type (0, 0), BuildingBlock: XUDNAN_clean_linker_2, # of connection points: 2
#     Edge 31, Type (0, 0), BuildingBlock: XUDNAN_clean_linker_2, # of connection points: 2
#     Edge 32, Type (0, 0), BuildingBlock: XUDNAN_clean_linker_2, # of connection points: 2
#     Edge 33, Type (0, 0), BuildingBlock: XUDNAN_clean_linker_2, # of connection points: 2
#     Edge 34, Type (0, 0), BuildingBlock: XUDNAN_clean_linker_2, # of connection points: 2
#     Edge 35, Type (0, 0), BuildingBlock: XUDNAN_clean_linker_2, # of connection points: 2
#     Edge 36, Type (0, 0), BuildingBlock: XUDNAN_clean_linker_2, # of connection points: 2
#     Edge 37, Type (0, 0), BuildingBlock: XUDNAN_clean_linker_2, # of connection points: 2
#     Edge 38, Type (0, 0), BuildingBlock: XUDNAN_clean_linker_2, # of connection points: 2
#     Edge 39, Type (0, 0), BuildingBlock: XUDNAN_clean_linker_2, # of connection points: 2
#     Edge 40, Type (0, 0), BuildingBlock: XUDNAN_clean_linker_2, # of connection points: 2
#     Edge 41, Type (0, 0), BuildingBlock: XUDNAN_clean_linker_2, # of connection points: 2
#     Edge 42, Type (0, 0), BuildingBlock: XUDNAN_clean_linker_2, # of connection points: 2
#     Edge 43, Type (0, 0), BuildingBlock: XUDNAN_clean_linker_2, # of connection points: 2
#     Edge 44, Type (0, 0), BuildingBlock: XUDNAN_clean_linker_2, # of connection points: 2
#     Edge 45, Type (0, 0), BuildingBlock: XUDNAN_clean_linker_2, # of connection points: 2
#     Edge 46, Type (0, 0), BuildingBlock: XUDNAN_clean_linker_2, # of connection points: 2
#     Edge 47, Type (0, 0), BuildingBlock: XUDNAN_clean_linker_2, # of connection points: 2
# Relax obj value: 0.159
# Max RMSD: 0.222
# Mean RMSD: 0.173
data_MOF--net-gsi--node1-QUQFOY_clean_sbu_1--edge1-XUDNAN_clean_linker_2
_symmetry_space_group_name_H-M    P1
_symmetry_Int_Tables_number       1
_symmetry_cell_setting            triclinic
loop_
_symmetry_equiv_pos_as_xyz
'x, y, z'
_cell_length_a     36.917409
_cell_length_b     46.00006
_cell_length_c     47.869514
_cell_angle_alpha  90.042451
_cell_angle_beta   90.137519
_cell_angle_gamma 100.66759
loop_
_atom_site_label
_atom_site_type_symbol
_atom_site_fract_x
_atom_site_fract_y
_atom_site_fract_z
_atom_type_partial_charge
O0 O 0.08848 0.18297 0.13559 0.0
Cd1 Cd 0.13958 0.17206 0.13085 0.0
Cd2 Cd 0.12214 0.13815 0.17687 0.0
O3 O 0.07881 0.16116 0.17667 0.0
O4 O 0.1563 0.18351 0.09234 0.0
O5 O 0.14852 0.13741 0.10771 0.0
C6 C 0.15807 0.15618 0.08776 0.0
C7 C 0.11231 0.08872 0.19113 0.0
C8 C 0.06952 0.17782 0.15774 0.0
C9 C 0.18948 0.18533 0.17987 0.0
O10 O 0.172 0.16145 0.19014 0.0
O11 O 0.17973 0.195 0.15676 0.0
O12 O 0.11086 0.10983 0.20849 0.0
O13 O 0.11756 0.09544 0.16508 0.0
O14 O 0.88181 0.31759 0.14494 0.0
Cd15 Cd 0.83503 0.33584 0.13908 0.0
Cd16 Cd 0.86048 0.36407 0.18987 0.0
O17 O 0.90319 0.34196 0.18317 0.0
O18 O 0.81906 0.3242 0.10029 0.0
O19 O 0.83383 0.37084 0.11372 0.0
C20 C 0.82259 0.35185 0.09422 0.0
C21 C 0.87048 0.40886 0.21461 0.0
C22 C 0.9057 0.32291 0.16436 0.0
C23 C 0.78725 0.32148 0.18936 0.0
O24 O 0.81264 0.33799 0.20284 0.0
O25 O 0.78969 0.31837 0.1631 0.0
O26 O 0.87503 0.38447 0.22592 0.0
O27 O 0.8626 0.40844 0.18831 0.0
O28 O 0.12922 0.82324 0.37372 0.0
Cd29 Cd 0.18371 0.84153 0.36757 0.0
Cd30 Cd 0.1471 0.86793 0.31999 0.0
O31 O 0.10204 0.84343 0.33944 0.0
O32 O 0.20619 0.82696 0.40147 0.0
O33 O 0.20829 0.87441 0.39336 0.0
C34 C 0.21543 0.85393 0.40977 0.0
C35 C 0.13465 0.90699 0.29181 0.0
C36 C 0.10041 0.82633 0.3604 0.0
C37 C 0.20314 0.82716 0.30886 0.0
O38 O 0.1813 0.84379 0.30075 0.0
O39 O 0.2091 0.82381 0.33475 0.0
O40 O 0.12301 0.87976 0.28546 0.0
O41 O 0.15305 0.91251 0.31474 0.0
O42 O 0.85252 0.66926 0.37459 0.0
Cd43 Cd 0.7973 0.65117 0.37075 0.0
Cd44 Cd 0.82307 0.63904 0.31764 0.0
O45 O 0.86993 0.66683 0.3307 0.0
O46 O 0.78114 0.66534 0.40697 0.0
O47 O 0.77324 0.61798 0.39677 0.0
C48 C 0.76956 0.63844 0.41439 0.0
C49 C 0.82865 0.59181 0.30375 0.0
C50 C 0.8767 0.67556 0.35565 0.0
C51 C 0.76346 0.67372 0.31828 0.0
O52 O 0.78231 0.65966 0.30293 0.0
O53 O 0.76617 0.67287 0.34474 0.0
O54 O 0.83716 0.61405 0.28708 0.0
O55 O 0.81586 0.59635 0.32819 0.0
O56 O 0.38095 0.82208 0.63599 0.0
Cd57 Cd 0.33246 0.83686 0.64367 0.0
Cd58 Cd 0.37615 0.86888 0.6812 0.0
O59 O 0.41869 0.85173 0.66399 0.0
O60 O 0.30191 0.82278 0.61023 0.0
O61 O 0.32014 0.87016 0.62011 0.0
C62 C 0.3036 0.85004 0.60323 0.0
C63 C 0.3755 0.91865 0.68858 0.0
C64 C 0.41298 0.83103 0.64599 0.0
C65 C 0.31555 0.82215 0.7033 0.0
O66 O 0.34477 0.84071 0.7083 0.0
O67 O 0.30311 0.8185 0.67846 0.0
O68 O 0.3948 0.90451 0.70428 0.0
O69 O 0.35832 0.90494 0.66744 0.0
O70 O 0.83488 0.91392 0.85308 0.0
Cd71 Cd 0.8236 0.87306 0.8723 0.0
Cd72 Cd 0.88983 0.87145 0.85327 0.0
O73 O 0.89502 0.91692 0.8492 0.0
O74 O 0.7884 0.87475 0.90366 0.0
O75 O 0.84549 0.86713 0.90965 0.0
C76 C 0.81434 0.87027 0.92037 0.0
C77 C 0.93409 0.84539 0.86964 0.0
C78 C 0.86646 0.92858 0.84675 0.0
C79 C 0.82544 0.83252 0.82567 0.0
O80 O 0.85826 0.84658 0.82334 0.0
O81 O 0.80597 0.83728 0.84646 0.0
O82 O 0.93844 0.85987 0.84646 0.0
O83 O 0.9065 0.84844 0.88519 0.0
O84 O 0.12853 0.58576 0.83989 0.0
Cd85 Cd 0.15309 0.62067 0.86523 0.0
Cd86 Cd 0.0981 0.64526 0.84012 0.0
O87 O 0.08199 0.60403 0.82239 0.0
O88 O 0.18511 0.60229 0.89095 0.0
O89 O 0.14064 0.62456 0.90601 0.0
C90 C 0.1671 0.6106 0.91157 0.0
C91 C 0.05756 0.675 0.8563 0.0
C92 C 0.10028 0.58321 0.82413 0.0
C93 C 0.17709 0.67242 0.82769 0.0
O94 O 0.14321 0.67041 0.8219 0.0
O95 O 0.18751 0.65563 0.84593 0.0
O96 O 0.05998 0.66893 0.83017 0.0
O97 O 0.07598 0.66206 0.87383 0.0
O98 O 0.88054 0.1558 0.67767 0.0
Cd99 Cd 0.83341 0.13638 0.69809 0.0
Cd100 Cd 0.80641 0.15142 0.64019 0.0
O101 O 0.86253 0.16026 0.63404 0.0
O102 O 0.85624 0.12798 0.73448 0.0
O103 O 0.82313 0.09287 0.70901 0.0
C104 C 0.84301 0.10037 0.73096 0.0
C105 C 0.77139 0.14096 0.59886 0.0
C106 C 0.88772 0.1633 0.65247 0.0
C107 C 0.78551 0.18234 0.69359 0.0
O108 O 0.78642 0.17978 0.66713 0.0
O109 O 0.80001 0.16552 0.7095 0.0
O110 O 0.79164 0.16635 0.60342 0.0
O111 O 0.77067 0.12096 0.61781 0.0
O112 O 0.09971 0.34029 0.66942 0.0
Cd113 Cd 0.14079 0.3724 0.68586 0.0
Cd114 Cd 0.18116 0.35086 0.64046 0.0
O115 O 0.13009 0.32522 0.63401 0.0
O116 O 0.11648 0.38966 0.71761 0.0
O117 O 0.14 0.41615 0.68136 0.0
C118 C 0.12364 0.41485 0.70524 0.0
C119 C 0.21157 0.36865 0.59928 0.0
C120 C 0.10093 0.32356 0.64839 0.0
C121 C 0.20532 0.34225 0.6996 0.0
O122 O 0.21039 0.33818 0.67373 0.0
O123 O 0.18077 0.35638 0.70768 0.0
O124 O 0.20954 0.34165 0.60715 0.0
O125 O 0.19751 0.38614 0.61542 0.0
O126 O 0.65072 0.10909 0.34089 0.0
Cd127 Cd 0.64856 0.1465 0.36426 0.0
Cd128 Cd 0.58444 0.13712 0.34151 0.0
O129 O 0.59109 0.09394 0.33428 0.0
O130 O 0.68818 0.15023 0.39341 0.0
O131 O 0.62863 0.14058 0.40332 0.0
C132 C 0.6624 0.14433 0.41182 0.0
C133 C 0.53917 0.15802 0.36281 0.0
C134 C 0.62411 0.08973 0.33179 0.0
C135 C 0.63867 0.18639 0.31856 0.0
O136 O 0.61124 0.16626 0.31295 0.0
O137 O 0.65597 0.18555 0.34149 0.0
O138 O 0.53306 0.14431 0.33918 0.0
O139 O 0.56914 0.15616 0.37615 0.0
O140 O 0.60083 0.68481 0.63855 0.0
Cd141 Cd 0.64653 0.66532 0.64422 0.0
Cd142 Cd 0.60939 0.64893 0.69208 0.0
O143 O 0.56955 0.67061 0.677 0.0
O144 O 0.67274 0.67609 0.60851 0.0
O145 O 0.65306 0.62972 0.62081 0.0
C146 C 0.66934 0.64843 0.60271 0.0
C147 C 0.60107 0.59905 0.70231 0.0
C148 C 0.57294 0.68475 0.65407 0.0
C149 C 0.68244 0.68773 0.69882 0.0
O150 O 0.65308 0.67538 0.7109 0.0
O151 O 0.68602 0.6851 0.67259 0.0
O152 O 0.59024 0.61741 0.71942 0.0
O153 O 0.61491 0.60892 0.67858 0.0
O154 O 0.63548 0.3292 0.87106 0.0
Cd155 Cd 0.68868 0.35074 0.86424 0.0
Cd156 Cd 0.64968 0.37435 0.81696 0.0
O157 O 0.60713 0.3452 0.83496 0.0
O158 O 0.71421 0.33591 0.89646 0.0
O159 O 0.71321 0.38324 0.89058 0.0
C160 C 0.72314 0.36263 0.90542 0.0
C161 C 0.633 0.41382 0.79173 0.0
C162 C 0.60665 0.32897 0.85649 0.0
C163 C 0.71072 0.33957 0.80492 0.0
O164 O 0.68799 0.35524 0.79646 0.0
O165 O 0.71508 0.33531 0.83085 0.0
O166 O 0.62444 0.38691 0.78334 0.0
O167 O 0.65046 0.41866 0.81514 0.0
O168 O 0.36374 0.16862 0.86825 0.0
Cd169 Cd 0.30756 0.15664 0.86316 0.0
Cd170 Cd 0.33272 0.14281 0.80719 0.0
O171 O 0.38118 0.16483 0.82441 0.0
O172 O 0.29157 0.1712 0.89947 0.0
O173 O 0.27676 0.12448 0.88708 0.0
C174 C 0.27486 0.14489 0.90521 0.0
C175 C 0.33676 0.10209 0.77865 0.0
C176 C 0.38853 0.17267 0.84957 0.0
C177 C 0.28189 0.18616 0.81105 0.0
O178 O 0.29708 0.16986 0.79517 0.0
O179 O 0.28371 0.18387 0.83745 0.0
O180 O 0.34786 0.12879 0.77025 0.0
O181 O 0.32305 0.09821 0.80345 0.0
O182 O 0.33377 0.40788 0.33744 0.0
Cd183 Cd 0.31359 0.37004 0.35936 0.0
Cd184 Cd 0.38222 0.36002 0.34686 0.0
O185 O 0.3927 0.40467 0.33577 0.0
O186 O 0.27433 0.38049 0.38378 0.0
O187 O 0.32457 0.36645 0.40028 0.0
C188 C 0.294 0.3755 0.40495 0.0
C189 C 0.42479 0.3333 0.365 0.0
C190 C 0.36678 0.41882 0.33084 0.0
C191 C 0.31446 0.32233 0.31963 0.0
O192 O 0.34903 0.33138 0.3205 0.0
O193 O 0.29305 0.33364 0.33527 0.0
O194 O 0.42838 0.34467 0.34036 0.0
O195 O 0.39967 0.34039 0.38101 0.0
O196 O 0.38156 0.66118 0.17214 0.0
Cd197 Cd 0.33909 0.63537 0.19344 0.0
Cd198 Cd 0.30294 0.64624 0.14025 0.0
O199 O 0.35576 0.6675 0.13134 0.0
O200 O 0.36571 0.62309 0.22666 0.0
O201 O 0.33289 0.59093 0.19796 0.0
C202 C 0.35371 0.59598 0.2198 0.0
C203 C 0.26852 0.62709 0.10059 0.0
C204 C 0.38333 0.67213 0.14771 0.0
C205 C 0.27911 0.67093 0.19584 0.0
O206 O 0.27577 0.6673 0.16953 0.0
O207 O 0.30182 0.65894 0.2097 0.0
O208 O 0.27627 0.65497 0.10568 0.0
O209 O 0.2798 0.60958 0.1183 0.0
O210 O 0.59196 0.85284 0.16544 0.0
Cd211 Cd 0.63554 0.87316 0.18961 0.0
Cd212 Cd 0.67611 0.84681 0.14784 0.0
O213 O 0.62287 0.8295 0.13597 0.0
O214 O 0.61304 0.89753 0.21698 0.0
O215 O 0.65923 0.91628 0.18926 0.0
C216 C 0.637 0.92005 0.20919 0.0
C217 C 0.71768 0.85619 0.11049 0.0
C218 C 0.5926 0.83475 0.14542 0.0
C219 C 0.68167 0.8292 0.20851 0.0
O220 O 0.69406 0.82882 0.18377 0.0
O221 O 0.65795 0.84493 0.21461 0.0
O222 O 0.7058 0.82982 0.11939 0.0
O223 O 0.70656 0.87777 0.123 0.0
H224 H 0.18947 0.24155 0.19626 0.0
H225 H 0.24911 0.16931 0.20469 0.0
H226 H 0.28942 0.19771 0.24062 0.0
H227 H 0.26668 0.30353 0.21007 0.0
H228 H 0.23813 0.32352 0.23021 0.0
H229 H 0.21822 0.29951 0.20223 0.0
H230 H 0.17032 0.27133 0.2368 0.0
H231 H 0.19048 0.29484 0.26499 0.0
H232 H 0.18606 0.25527 0.26786 0.0
H233 H 0.32137 0.23311 0.27646 0.0
H234 H 0.34169 0.27236 0.31142 0.0
H235 H 0.25631 0.31893 0.28345 0.0
C236 C 0.21192 0.23229 0.20502 0.0
C237 C 0.21725 0.20381 0.19731 0.0
C238 C 0.24548 0.19148 0.21003 0.0
C239 C 0.26828 0.20737 0.23044 0.0
C240 C 0.26172 0.23516 0.2382 0.0
C241 C 0.23415 0.24748 0.22599 0.0
C242 C 0.23041 0.27629 0.24004 0.0
C243 C 0.23888 0.30225 0.21941 0.0
C244 C 0.19204 0.27429 0.2532 0.0
C245 C 0.26005 0.27817 0.2622 0.0
C246 C 0.27816 0.25446 0.26044 0.0
C247 C 0.30729 0.25168 0.27814 0.0
C248 C 0.31852 0.27395 0.29793 0.0
C249 C 0.30007 0.29821 0.30025 0.0
C250 C 0.27026 0.30021 0.28238 0.0
H251 H 0.78476 0.31064 0.24524 0.0
H252 H 0.72069 0.29211 0.169 0.0
H253 H 0.6717 0.25974 0.19563 0.0
H254 H 0.76713 0.23895 0.27019 0.0
H255 H 0.76534 0.24889 0.30652 0.0
H256 H 0.7924 0.27396 0.2825 0.0
H257 H 0.75674 0.31522 0.29663 0.0
H258 H 0.72956 0.29025 0.32084 0.0
H259 H 0.70714 0.30836 0.29426 0.0
H260 H 0.63261 0.2265 0.22968 0.0
H261 H 0.60771 0.19249 0.26752 0.0
H262 H 0.69907 0.23144 0.32107 0.0
C263 C 0.76003 0.3004 0.23419 0.0
C264 C 0.75628 0.30413 0.20509 0.0
C265 C 0.72397 0.28967 0.19132 0.0
C266 C 0.69599 0.27139 0.20629 0.0
C267 C 0.70094 0.26781 0.23491 0.0
C268 C 0.73222 0.28186 0.24868 0.0
C269 C 0.73273 0.27205 0.27884 0.0
C270 C 0.76638 0.2576 0.28484 0.0
C271 C 0.73145 0.29802 0.29882 0.0
C272 C 0.69723 0.24964 0.27976 0.0
C273 C 0.67898 0.24793 0.25437 0.0
C274 C 0.64647 0.22783 0.24972 0.0
C275 C 0.63262 0.20856 0.27138 0.0
C276 C 0.65151 0.20925 0.2973 0.0
C277 C 0.68387 0.23049 0.30162 0.0
H278 H 0.28074 0.68703 0.25154 0.0
H279 H 0.23717 0.7064 0.17059 0.0
H280 H 0.21655 0.7497 0.19067 0.0
H281 H 0.20611 0.70932 0.29267 0.0
H282 H 0.23676 0.72457 0.32054 0.0
H283 H 0.24681 0.69419 0.30003 0.0
H284 H 0.31109 0.72502 0.28844 0.0
H285 H 0.30091 0.75575 0.30836 0.0
H286 H 0.3143 0.76077 0.27224 0.0
H287 H 0.20579 0.79304 0.21765 0.0
H288 H 0.19437 0.82946 0.25242 0.0
H289 H 0.24173 0.78162 0.31714 0.0
C290 C 0.26622 0.70003 0.23816 0.0
C291 C 0.26078 0.69329 0.2094 0.0
C292 C 0.24171 0.71097 0.19265 0.0
C293 C 0.2301 0.7358 0.2038 0.0
C294 C 0.23727 0.7425 0.23183 0.0
C295 C 0.254 0.72481 0.24903 0.0
C296 C 0.25772 0.73698 0.27861 0.0
C297 C 0.23552 0.71496 0.29917 0.0
C298 C 0.29843 0.74511 0.28742 0.0
C299 C 0.24078 0.7644 0.27516 0.0
C300 C 0.22969 0.76725 0.24787 0.0
C301 C 0.21389 0.79089 0.23919 0.0
C302 C 0.20772 0.81159 0.25916 0.0
C303 C 0.21688 0.80838 0.28766 0.0
C304 C 0.23449 0.78479 0.29557 0.0
H305 H 0.76513 0.69197 0.26372 0.0
H306 H 0.71585 0.70412 0.34419 0.0
H307 H 0.68962 0.74539 0.32476 0.0
H308 H 0.79227 0.76695 0.2481 0.0
H309 H 0.78238 0.76335 0.21124 0.0
H310 H 0.79422 0.73271 0.23032 0.0
H311 H 0.73352 0.69899 0.2143 0.0
H312 H 0.72184 0.72936 0.19465 0.0
H313 H 0.69017 0.71065 0.22028 0.0
H314 H 0.67292 0.78767 0.29774 0.0
H315 H 0.66211 0.82541 0.26373 0.0
H316 H 0.72322 0.78604 0.20115 0.0
C317 C 0.74803 0.70277 0.2771 0.0
C318 C 0.74243 0.6947 0.30547 0.0
C319 C 0.72042 0.70982 0.32237 0.0
C320 C 0.70551 0.73336 0.31156 0.0
C321 C 0.71281 0.74147 0.28383 0.0
C322 C 0.73313 0.7264 0.26671 0.0
C323 C 0.73816 0.74029 0.23798 0.0
C324 C 0.77919 0.75148 0.23155 0.0
C325 C 0.71982 0.71853 0.21548 0.0
C326 C 0.71786 0.76574 0.24173 0.0
C327 C 0.70343 0.76601 0.26831 0.0
C328 C 0.68385 0.78757 0.27679 0.0
C329 C 0.67803 0.80901 0.25735 0.0
C330 C 0.69183 0.80875 0.22974 0.0
C331 C 0.71246 0.787 0.22209 0.0
H332 H 0.24814 0.78433 0.70401 0.0
H333 H 0.34539 0.81585 0.75457 0.0
H334 H 0.32112 0.78057 0.79156 0.0
H335 H 0.18353 0.77404 0.76241 0.0
H336 H 0.15574 0.74138 0.74743 0.0
H337 H 0.18055 0.76961 0.725 0.0
H338 H 0.21232 0.73041 0.70111 0.0
H339 H 0.18791 0.70213 0.72367 0.0
H340 H 0.23753 0.7084 0.72215 0.0
H341 H 0.28856 0.7395 0.82184 0.0
H342 H 0.24583 0.69926 0.8456 0.0
H343 H 0.16871 0.6964 0.77663 0.0
C344 C 0.26413 0.784 0.72297 0.0
C345 C 0.29868 0.80284 0.7263 0.0
C346 C 0.31875 0.80175 0.7515 0.0
C347 C 0.30532 0.78167 0.77264 0.0
C348 C 0.27155 0.76304 0.76849 0.0
C349 C 0.25089 0.76434 0.74453 0.0
C350 C 0.21518 0.74209 0.74557 0.0
C351 C 0.18178 0.75772 0.74508 0.0
C352 C 0.21314 0.71942 0.72171 0.0
C353 C 0.21928 0.72795 0.77367 0.0
C354 C 0.25214 0.74012 0.78646 0.0
C355 C 0.26253 0.72996 0.81219 0.0
C356 C 0.23827 0.70703 0.82544 0.0
C357 C 0.20397 0.69494 0.81304 0.0
C358 C 0.19462 0.70547 0.78675 0.0
H359 H 0.6769 0.70817 0.75197 0.0
H360 H 0.75261 0.71185 0.6822 0.0
H361 H 0.79856 0.74776 0.70821 0.0
H362 H 0.69644 0.784 0.76739 0.0
H363 H 0.69257 0.77947 0.80473 0.0
H364 H 0.66701 0.75193 0.78191 0.0
H365 H 0.69642 0.71131 0.80573 0.0
H366 H 0.72187 0.73869 0.82883 0.0
H367 H 0.74591 0.71581 0.80788 0.0
H368 H 0.83461 0.78501 0.74057 0.0
H369 H 0.85878 0.82124 0.77702 0.0
H370 H 0.75864 0.79419 0.82522 0.0
C371 C 0.70339 0.71606 0.74232 0.0
C372 C 0.7113 0.70707 0.71512 0.0
C373 C 0.74603 0.71837 0.70306 0.0
C374 C 0.77229 0.73873 0.71767 0.0
C375 C 0.76328 0.74754 0.74422 0.0
C376 C 0.72972 0.73654 0.75647 0.0
C377 C 0.72606 0.75083 0.78457 0.0
C378 C 0.6936 0.76755 0.78463 0.0
C379 C 0.72236 0.72779 0.80814 0.0
C380 C 0.76265 0.77193 0.78607 0.0
C381 C 0.7838 0.76948 0.76269 0.0
C382 C 0.81841 0.78701 0.75905 0.0
C383 C 0.83183 0.80758 0.77989 0.0
C384 C 0.81057 0.8106 0.80401 0.0
C385 C 0.77553 0.79245 0.80705 0.0
H386 H 0.74435 0.29187 0.81403 0.0
H387 H 0.71319 0.34766 0.74838 0.0
H388 H 0.72914 0.31336 0.71291 0.0
H389 H 0.82174 0.26884 0.77567 0.0
H390 H 0.81151 0.23194 0.78983 0.0
H391 H 0.80147 0.26265 0.80988 0.0
H392 H 0.73361 0.2357 0.81448 0.0
H393 H 0.74318 0.20526 0.7939 0.0
H394 H 0.70705 0.22447 0.78337 0.0
H395 H 0.74178 0.27075 0.68488 0.0
H396 H 0.75816 0.22536 0.66544 0.0
H397 H 0.7816 0.19712 0.74913 0.0
C398 C 0.74194 0.29737 0.79219 0.0
C399 C 0.72756 0.32251 0.78401 0.0
C400 C 0.72419 0.32857 0.75519 0.0
C401 C 0.73304 0.30917 0.73485 0.0
C402 C 0.74546 0.2839 0.74366 0.0
C403 C 0.75061 0.27819 0.77158 0.0
C404 C 0.763 0.24882 0.77541 0.0
C405 C 0.80174 0.25334 0.78846 0.0
C406 C 0.73503 0.2273 0.79282 0.0
C407 C 0.76336 0.23874 0.7453 0.0
C408 C 0.75307 0.25929 0.72737 0.0
C409 C 0.75034 0.25463 0.69866 0.0
C410 C 0.75946 0.22863 0.68785 0.0
C411 C 0.77128 0.20762 0.70571 0.0
C412 C 0.77268 0.21268 0.73488 0.0
H413 H 0.24129 0.29591 0.69089 0.0
H414 H 0.2069 0.35044 0.75619 0.0
H415 H 0.22273 0.31616 0.79179 0.0
H416 H 0.20409 0.22825 0.72011 0.0
H417 H 0.24083 0.20943 0.71024 0.0
H418 H 0.23162 0.24001 0.68969 0.0
H419 H 0.29908 0.2674 0.69602 0.0
H420 H 0.30881 0.23653 0.71595 0.0
H421 H 0.31819 0.27322 0.7307 0.0
H422 H 0.23527 0.27329 0.8198 0.0
H423 H 0.25209 0.22796 0.83914 0.0
H424 H 0.27826 0.20116 0.75562 0.0
C425 C 0.23826 0.30122 0.7127 0.0
C426 C 0.22294 0.32594 0.72073 0.0
C427 C 0.21869 0.33171 0.74952 0.0
C428 C 0.22743 0.31229 0.76991 0.0
C429 C 0.24059 0.28731 0.76119 0.0
C430 C 0.24673 0.28201 0.73334 0.0
C431 C 0.25958 0.25283 0.72951 0.0
C432 C 0.2324 0.23138 0.71131 0.0
C433 C 0.29875 0.2578 0.71733 0.0
C434 C 0.25906 0.24236 0.75951 0.0
C435 C 0.24796 0.26255 0.77742 0.0
C436 C 0.24446 0.25746 0.80604 0.0
C437 C 0.2538 0.23149 0.81678 0.0
C438 C 0.26658 0.21094 0.79895 0.0
C439 C 0.26854 0.21633 0.76985 0.0
H440 H 0.14064 0.96647 0.30301 0.0
H441 H 0.11302 0.90089 0.23737 0.0
H442 H 0.10249 0.93988 0.20468 0.0
H443 H 0.07202 0.01021 0.28342 0.0
H444 H 0.1013 0.04497 0.29194 0.0
H445 H 0.10659 0.01185 0.31034 0.0
H446 H 0.17562 0.02047 0.29658 0.0
H447 H 0.17054 0.05362 0.2782 0.0
H448 H 0.18821 0.02476 0.26024 0.0
H449 H 0.09831 0.98642 0.17825 0.0
H450 H 0.09775 0.03708 0.16095 0.0
H451 H 0.12439 0.07168 0.24436 0.0
C452 C 0.13232 0.96035 0.28178 0.0
C453 C 0.12774 0.93067 0.27273 0.0
C454 C 0.1166 0.92349 0.24481 0.0
C455 C 0.11058 0.94547 0.22604 0.0
C456 C 0.11535 0.97452 0.23557 0.0
C457 C 0.12564 0.98198 0.26283 0.0
C458 C 0.12859 0.01485 0.26776 0.0
C459 C 0.10044 0.02081 0.28966 0.0
C460 C 0.16809 0.02927 0.27618 0.0
C461 C 0.11888 0.02469 0.23894 0.0
C462 C 0.1115 1.00114 0.22061 0.0
C463 C 0.10359 0.00502 0.19248 0.0
C464 C 0.10336 0.03382 0.18283 0.0
C465 C 0.11056 0.05819 0.20136 0.0
C466 C 0.11811 0.0534 0.22978 0.0
H467 H 0.8619 0.4647 0.19811 0.0
H468 H 0.8776 0.41242 0.27118 0.0
H469 H 0.86883 0.45358 0.30168 0.0
H470 H 0.90952 0.536 0.22722 0.0
H471 H 0.87811 0.55649 0.21085 0.0
H472 H 0.88765 0.52339 0.19457 0.0
H473 H 0.81771 0.50161 0.19365 0.0
H474 H 0.808 0.53443 0.21028 0.0
H475 H 0.79193 0.49869 0.22579 0.0
H476 H 0.85231 0.49806 0.32447 0.0
H477 H 0.83708 0.5462 0.33809 0.0
H478 H 0.83535 0.57103 0.2507 0.0
C479 C 0.86417 0.46214 0.2205 0.0
C480 C 0.8704 0.4353 0.23221 0.0
C481 C 0.87296 0.43277 0.26165 0.0
C482 C 0.86787 0.45599 0.27921 0.0
C483 C 0.86072 0.4818 0.26707 0.0
C484 C 0.85958 0.48531 0.23842 0.0
C485 C 0.85121 0.51538 0.2309 0.0
C486 C 0.88356 0.53391 0.21495 0.0
C487 C 0.81506 0.51233 0.21417 0.0
C488 C 0.8472 0.52791 0.25979 0.0
C489 C 0.8525 0.50805 0.28034 0.0
C490 C 0.84859 0.514 0.30861 0.0
C491 C 0.83968 0.54128 0.31613 0.0
C492 C 0.83524 0.56233 0.29547 0.0
C493 C 0.83893 0.55544 0.26695 0.0
H494 H 0.2576 0.18585 0.94119 0.0
H495 H 0.24551 0.09105 0.9292 0.0
H496 H 0.21277 0.08282 0.97459 0.0
H497 H 0.27472 0.18706 0.01404 0.0
H498 H 0.24925 0.21616 0.02082 0.0
H499 H 0.27077 0.21398 0.98739 0.0
H500 H 0.20789 0.21265 0.96268 0.0
H501 H 0.18615 0.21485 0.99605 0.0
H502 H 0.16887 0.18488 0.97248 0.0
H503 H 0.18332 0.08589 0.02304 0.0
H504 H 0.15849 0.09978 0.06825 0.0
H505 H 0.1894 0.19249 0.04609 0.0
C506 C 0.24807 0.16329 0.94798 0.0
C507 C 0.25423 0.13907 0.93172 0.0
C508 C 0.24104 0.10993 0.94135 0.0
C509 C 0.22248 0.10508 0.96709 0.0
C510 C 0.21713 0.12961 0.9827 0.0
C511 C 0.2294 0.15811 0.97329 0.0
C512 C 0.22051 0.18087 0.99365 0.0
C513 C 0.25592 0.20067 1.00462 0.0
C514 C 0.19429 0.19939 0.98042 0.0
C515 C 0.20153 0.16084 0.01626 0.0
C516 C 0.19981 0.13132 0.00976 0.0
C517 C 0.18432 0.10894 0.02817 0.0
C518 C 0.17032 0.11702 0.05379 0.0
C519 C 0.17179 0.1472 0.06063 0.0
C520 C 0.18749 0.16921 0.04144 0.0
H521 H 0.80244 0.31609 0.04928 0.0
H522 H 0.82007 0.40804 0.07523 0.0
H523 H 0.79981 0.42194 0.02847 0.0
H524 H 0.83268 0.32916 0.97731 0.0
H525 H 0.79821 0.29932 0.96415 0.0
H526 H 0.81634 0.29738 0.99893 0.0
H527 H 0.75005 0.28957 0.01899 0.0
H528 H 0.73175 0.29154 0.98433 0.0
H529 H 0.72117 0.31614 0.01118 0.0
H530 H 0.77349 0.42479 0.97902 0.0
H531 H 0.74442 0.41627 0.93222 0.0
H532 H 0.74539 0.32245 0.94009 0.0
C533 C 0.80247 0.33924 0.04514 0.0
C534 C 0.81288 0.361 0.06592 0.0
C535 C 0.81233 0.391 0.05958 0.0
C536 C 0.80087 0.39908 0.03309 0.0
C537 C 0.79032 0.37691 0.01318 0.0
C538 C 0.79127 0.34762 0.01896 0.0
C539 C 0.77738 0.32772 0.9946 0.0
C540 C 0.80799 0.31251 0.98307 0.0
C541 C 0.74305 0.30491 1.00277 0.0
C542 C 0.76785 0.35024 0.97426 0.0
C543 C 0.77558 0.37855 0.98514 0.0
C544 C 0.76766 0.40272 0.97025 0.0
C545 C 0.75116 0.3977 0.9437 0.0
C546 C 0.74274 0.36873 0.93243 0.0
C547 C 0.75165 0.34491 0.94795 0.0
H548 H 0.27374 0.81171 0.56222 0.0
H549 H 0.30237 0.90535 0.58155 0.0
H550 H 0.28325 0.9172 0.53386 0.0
H551 H 0.30718 0.81677 0.49287 0.0
H552 H 0.27097 0.78841 0.47948 0.0
H553 H 0.28496 0.78753 0.51547 0.0
H554 H 0.21773 0.78677 0.53146 0.0
H555 H 0.20345 0.78731 0.4955 0.0
H556 H 0.1938 0.8152 0.51938 0.0
H557 H 0.26194 0.91829 0.48285 0.0
H558 H 0.23919 0.90843 0.43434 0.0
H559 H 0.22683 0.8141 0.44946 0.0
C560 C 0.27562 0.83475 0.55664 0.0
C561 C 0.28938 0.85761 0.5757 0.0
C562 C 0.29171 0.88745 0.56735 0.0
C563 C 0.28102 0.89439 0.54028 0.0
C564 C 0.26817 0.87123 0.52185 0.0
C565 C 0.26534 0.84201 0.52981 0.0
C566 C 0.25156 0.8211 0.50612 0.0
C567 C 0.28039 0.80236 0.49801 0.0
C568 C 0.21443 0.80145 0.51356 0.0
C569 C 0.24711 0.84302 0.48345 0.0
C570 C 0.25669 0.87186 0.4928 0.0
C571 C 0.2544 0.89578 0.47537 0.0
C572 C 0.24157 0.88998 0.44783 0.0
C573 C 0.2314 0.86051 0.43802 0.0
C574 C 0.23459 0.8369 0.45616 0.0
H575 H 0.70655 0.68427 0.56324 0.0
H576 H 0.66336 0.59192 0.5811 0.0
H577 H 0.68521 0.57813 0.53475 0.0
H578 H 0.68134 0.68266 0.49202 0.0
H579 H 0.7221 0.70822 0.48152 0.0
H580 H 0.70427 0.71002 0.5163 0.0
H581 H 0.76761 0.70444 0.53704 0.0
H582 H 0.78569 0.70272 0.50231 0.0
H583 H 0.78804 0.67338 0.5268 0.0
H584 H 0.71133 0.57546 0.48476 0.0
H585 H 0.73883 0.58429 0.43747 0.0
H586 H 0.76323 0.67852 0.45473 0.0
C587 C 0.70176 0.66107 0.55761 0.0
C588 C 0.68326 0.63916 0.57579 0.0
C589 C 0.67759 0.60908 0.56748 0.0
C590 C 0.68987 0.60107 0.54121 0.0
C591 C 0.70778 0.62343 0.52368 0.0
C592 C 0.71372 0.6528 0.53173 0.0
C593 C 0.73292 0.67293 0.50931 0.0
C594 C 0.7087 0.69472 0.4992 0.0
C595 C 0.77081 0.68932 0.51948 0.0
C596 C 0.73674 0.65043 0.48712 0.0
C597 C 0.7223 0.62194 0.49558 0.0
C598 C 0.72276 0.59772 0.47803 0.0
C599 C 0.73838 0.60291 0.45124 0.0
C600 C 0.75312 0.63208 0.44239 0.0
C601 C 0.75219 0.65593 0.46074 0.0
H602 H 0.93644 0.29233 0.12385 0.0
H603 H 0.93533 0.30848 0.2132 0.0
H604 H 0.9732 0.27043 0.22096 0.0
H605 H 0.93271 0.21441 0.12624 0.0
H606 H 0.96485 0.21343 0.09812 0.0
H607 H 0.93733 0.24193 0.09903 0.0
H608 H -0.0037 0.28239 0.09696 0.0
H609 H 0.02393 0.25401 0.09547 0.0
H610 H 0.03246 0.28201 0.12226 0.0
H611 H 0.00664 0.22827 0.21965 0.0
H612 H 0.04529 0.19149 0.20886 0.0
H613 H 0.03008 0.2051 0.12015 0.0
C614 C 0.94459 0.28806 0.14498 0.0
C615 C 0.93291 0.30333 0.16793 0.0
C616 C 0.94422 0.29726 0.19528 0.0
C617 C 0.9654 0.27545 0.19995 0.0
C618 C 0.97567 0.26028 0.17701 0.0
C619 C 0.96662 0.26682 0.15 0.0
C620 C 0.98302 0.24817 0.12906 0.0
C621 C 0.95266 0.22831 0.11212 0.0
C622 C 0.01057 0.26782 0.10981 0.0
C623 C 0.00238 0.23002 0.1486 0.0
C624 C -0.00296 0.23698 0.17617 0.0
C625 C 0.01137 0.2228 0.19814 0.0
C626 C 0.03301 0.20171 0.19178 0.0
C627 C 0.04074 0.19543 0.16367 0.0
C628 C 0.02462 0.20944 0.14183 0.0
H629 H 0.91943 0.71304 0.31989 0.0
H630 H 0.91112 0.68472 0.40645 0.0
H631 H 0.96641 0.72216 0.418 0.0
H632 H 0.01839 0.72864 0.31518 0.0
H633 H 0.01918 0.76071 0.29342 0.0
H634 H 0.98017 0.73076 0.29223 0.0
H635 H 0.93694 0.76766 0.30353 0.0
H636 H 0.97591 0.79764 0.30524 0.0
H637 H 0.94505 0.79019 0.33456 0.0
H638 H 0.02369 0.76189 0.41947 0.0
H639 H 0.07831 0.80096 0.41076 0.0
H640 H 0.04506 0.80541 0.32411 0.0
C641 C 0.92957 0.71439 0.34119 0.0
C642 C 0.91141 0.69582 0.36225 0.0
C643 C 0.92491 0.6987 0.39002 0.0
C644 C 0.95615 0.71991 0.39676 0.0
C645 C 0.97301 0.73829 0.37557 0.0
C646 C 0.96012 0.73577 0.34837 0.0
C647 C 0.9825 0.75866 0.32959 0.0
C648 C 0.00117 0.7438 0.30624 0.0
C649 C 0.95867 0.77979 0.31753 0.0
C650 C 0.01031 0.77427 0.35038 0.0
C651 C 0.00456 0.76215 0.37677 0.0
C652 C 0.02821 0.77181 0.39899 0.0
C653 C 0.05903 0.79401 0.39389 0.0
C654 C 0.06544 0.80647 0.36691 0.0
C655 C 0.0403 0.79683 0.34512 0.0
H656 H 0.54074 0.71827 0.68974 0.0
H657 H 0.54908 0.69686 0.60206 0.0
H658 H 0.51128 0.73427 0.58971 0.0
H659 H 0.44799 0.73307 0.68875 0.0
H660 H 0.45861 0.76359 0.71286 0.0
H661 H 0.48401 0.73379 0.71438 0.0
H662 H 0.54501 0.7717 0.70911 0.0
H663 H 0.5197 0.80156 0.707 0.0
H664 H 0.55108 0.79626 0.67947 0.0
H665 H 0.47044 0.77274 0.58749 0.0
H666 H 0.43099 0.81008 0.59555 0.0
H667 H 0.45603 0.81009 0.68401 0.0
C668 C 0.53393 0.72106 0.668 0.0
C669 C 0.54704 0.70437 0.64684 0.0
C670 C 0.53875 0.70925 0.61854 0.0
C671 C 0.51752 0.73049 0.61136 0.0
C672 C 0.50564 0.74707 0.63272 0.0
C673 C 0.51371 0.7427 0.66044 0.0
C674 C 0.49905 0.76422 0.67931 0.0
C675 C 0.47073 0.74768 0.70004 0.0
C676 C 0.5306 0.78464 0.69462 0.0
C677 C 0.48097 0.78114 0.65794 0.0
C678 C 0.48479 0.77079 0.63118 0.0
C679 C 0.46787 0.78143 0.60826 0.0
C680 C 0.44574 0.80269 0.61296 0.0
C681 C 0.44156 0.81348 0.64022 0.0
C682 C 0.46002 0.803 0.66283 0.0
H683 H 0.80303 0.04504 0.74265 0.0
H684 H 0.90332 0.10601 0.76464 0.0
H685 H 0.92009 0.06925 0.79745 0.0
H686 H 0.784 0.01674 0.81309 0.0
H687 H 0.76578 0.9796 0.80152 0.0
H688 H 0.76191 0.01057 0.77942 0.0
H689 H 0.79478 0.98774 0.73944 0.0
H690 H 0.7987 0.95671 0.7614 0.0
H691 H 0.83934 0.97828 0.74581 0.0
H692 H 0.92808 0.02432 0.82548 0.0
H693 H 0.92355 0.97615 0.84976 0.0
H694 H 0.81564 0.94653 0.81283 0.0
C695 C 0.82848 0.05059 0.75439 0.0
C696 C 0.85199 0.07828 0.75101 0.0
C697 C 0.88487 0.08492 0.76697 0.0
C698 C 0.8947 0.06417 0.7856 0.0
C699 C 0.871 0.03705 0.78847 0.0
C700 C 0.83831 0.03036 0.77361 0.0
C701 C 0.81731 0.9999 0.78113 0.0
C702 C 0.78004 1.00183 0.79459 0.0
C703 C 0.81225 0.97946 0.75541 0.0
C704 C 0.84354 0.99038 0.80217 0.0
C705 C 0.87455 0.01196 0.80592 0.0
C706 C 0.90364 0.00742 0.82307 0.0
C707 C 0.90091 0.98006 0.83674 0.0
C708 C 0.86902 0.95793 0.83356 0.0
C709 C 0.83997 0.96335 0.81619 0.0
H710 H 0.11724 0.5279 0.83034 0.0
H711 H 0.06762 0.58205 0.77281 0.0
H712 H 0.06589 0.54393 0.73623 0.0
H713 H 0.17468 0.50167 0.78337 0.0
H714 H 0.1685 0.46457 0.79701 0.0
H715 H 0.16279 0.49469 0.81957 0.0
H716 H 0.09691 0.46784 0.83235 0.0
H717 H 0.10261 0.43735 0.81017 0.0
H718 H 0.06404 0.45572 0.80491 0.0
H719 H 0.07902 0.50357 0.70384 0.0
H720 H 0.09591 0.45975 0.68053 0.0
H721 H 0.13111 0.42978 0.76019 0.0
C722 C 0.10512 0.53137 0.81027 0.0
C723 C 0.0925 0.55792 0.80445 0.0
C724 C 0.07706 0.56174 0.77787 0.0
C725 C 0.07621 0.5403 0.75687 0.0
C726 C 0.09007 0.51483 0.76298 0.0
C727 C 0.10325 0.50988 0.78928 0.0
C728 C 0.11698 0.48082 0.79034 0.0
C729 C 0.15817 0.48575 0.79802 0.0
C730 C 0.09374 0.45915 0.81064 0.0
C731 C 0.11053 0.47067 0.76033 0.0
C732 C 0.09536 0.49072 0.74476 0.0
C733 C 0.09002 0.48734 0.71596 0.0
C734 C 0.0999 0.46258 0.70287 0.0
C735 C 0.11421 0.44133 0.71869 0.0
C736 C 0.11944 0.44544 0.74775 0.0
H737 H 0.70856 0.88714 0.06319 0.0
H738 H 0.77934 0.83337 0.1019 0.0
H739 H 0.81558 0.83499 0.0583 0.0
H740 H 0.70205 0.84986 0.99936 0.0
H741 H 0.70093 0.88183 0.97786 0.0
H742 H 0.68452 0.88095 0.01326 0.0
H743 H 0.72991 0.92971 0.02414 0.0
H744 H 0.74626 0.9309 0.98863 0.0
H745 H 0.77837 0.93216 0.01723 0.0
H746 H 0.84163 0.83989 0.00981 0.0
H747 H 0.85323 0.84486 0.95905 0.0
H748 H 0.76194 0.89165 0.95062 0.0
C749 C 0.73247 0.87661 0.06265 0.0
C750 C 0.74196 0.86079 0.08594 0.0
C751 C 0.77225 0.84603 0.08429 0.0
C752 C 0.79292 0.84686 0.05968 0.0
C753 C 0.78245 0.86208 0.03676 0.0
C754 C 0.75279 0.87655 0.03794 0.0
C755 C 0.74473 0.88835 0.00948 0.0
C756 C 0.70575 0.87441 0.99941 0.0
C757 C 0.75015 0.9223 0.0099 0.0
C758 C 0.77409 0.87789 0.99208 0.0
C759 C 0.796 0.8633 0.00833 0.0
C760 C 0.82474 0.85137 0.99689 0.0
C761 C 0.83111 0.85429 0.96806 0.0
C762 C 0.80839 0.8685 0.95091 0.0
C763 C 0.77964 0.88053 0.9632 0.0
H764 H 0.16512 0.64592 0.95741 0.0
H765 H 0.1947 0.56337 0.93066 0.0
H766 H 0.21764 0.55573 0.97819 0.0
H767 H 0.24518 0.66915 0.99669 0.0
H768 H 0.22341 0.68697 0.0238 0.0
H769 H 0.20408 0.68367 0.98917 0.0
H770 H 0.14146 0.65711 0.00913 0.0
H771 H 0.16064 0.66037 0.0439 0.0
H772 H 0.13975 0.62457 0.03042 0.0
H773 H 0.24076 0.55855 0.02795 0.0
H774 H 0.26721 0.57382 0.07443 0.0
H775 H 0.22659 0.65619 0.06746 0.0
C776 C 0.17553 0.62588 0.96183 0.0
C777 C 0.17762 0.60496 0.94059 0.0
C778 C 0.19261 0.57951 0.94679 0.0
C779 C 0.20555 0.57493 0.97372 0.0
C780 C 0.20375 0.59622 0.99415 0.0
C781 C 0.18937 0.62132 0.98846 0.0
C782 C 0.19432 0.64234 0.01314 0.0
C783 C 0.21817 0.67229 1.00522 0.0
C784 C 0.15681 0.64632 0.02484 0.0
C785 C 0.2143 0.62542 0.03335 0.0
C786 C 0.21878 0.59858 0.02228 0.0
C787 C 0.23723 0.57945 0.03689 0.0
C788 C 0.25209 0.58826 0.0633 0.0
C789 C 0.249 0.61617 0.07451 0.0
C790 C 0.22938 0.6347 0.05942 0.0
H791 H 0.72523 0.1695 0.43963 0.0
H792 H 0.62007 0.11073 0.45103 0.0
H793 H 0.63708 0.1018 0.49994 0.0
H794 H 0.7803 0.13016 0.48128 0.0
H795 H 0.8082 0.16296 0.49592 0.0
H796 H 0.78797 0.16426 0.46179 0.0
H797 H 0.75641 0.20732 0.47773 0.0
H798 H 0.77683 0.20633 0.51184 0.0
H799 H 0.72758 0.20279 0.50836 0.0
H800 H 0.66775 0.09723 0.54714 0.0
H801 H 0.70581 0.1027 0.5903 0.0
H802 H 0.78821 0.16745 0.54856 0.0
C803 C 0.70576 0.1548 0.45246 0.0
C804 C 0.67144 0.14065 0.44157 0.0
C805 C 0.64648 0.12186 0.45905 0.0
C806 C 0.65599 0.11652 0.48678 0.0
C807 C 0.69029 0.13058 0.49681 0.0
C808 C 0.71446 0.14977 0.48031 0.0
C809 C 0.74891 0.16311 0.49636 0.0
C810 C 0.78338 0.1546 0.48304 0.0
C811 C 0.75263 0.19689 0.49871 0.0
C812 C 0.74056 0.14823 0.5244 0.0
C813 C 0.70688 0.1292 0.52421 0.0
C814 C 0.69399 0.1123 0.54759 0.0
C815 C 0.71581 0.1154 0.57193 0.0
C816 C 0.74972 0.13563 0.57276 0.0
C817 C 0.76219 0.15203 0.5486 0.0
H818 H 0.25697 0.34202 0.56683 0.0
H819 H 0.19945 0.41615 0.56867 0.0
H820 H 0.21735 0.42764 0.5196 0.0
H821 H 0.33391 0.37826 0.52162 0.0
H822 H 0.33653 0.34417 0.50382 0.0
H823 H 0.32183 0.34348 0.53973 0.0
H824 H 0.26176 0.3074 0.52639 0.0
H825 H 0.27601 0.30822 0.49044 0.0
H826 H 0.23232 0.31778 0.49951 0.0
H827 H 0.23401 0.42662 0.4688 0.0
H828 H 0.25491 0.41713 0.42121 0.0
H829 H 0.30561 0.34598 0.45307 0.0
C830 C 0.24878 0.36105 0.55708 0.0
C831 C 0.2268 0.37822 0.57153 0.0
C832 C 0.21652 0.40286 0.55806 0.0
C833 C 0.22644 0.40947 0.53016 0.0
C834 C 0.24724 0.39157 0.51627 0.0
C835 C 0.25898 0.36825 0.52943 0.0
C836 C 0.28032 0.35201 0.5096 0.0
C837 C 0.32054 0.35465 0.51927 0.0
C838 C 0.26146 0.31943 0.50629 0.0
C839 C 0.27777 0.36927 0.48296 0.0
C840 C 0.2584 0.39191 0.48725 0.0
C841 C 0.24988 0.40938 0.46532 0.0
C842 C 0.26164 0.40371 0.43836 0.0
C843 C 0.28214 0.38105 0.4336 0.0
C844 C 0.29055 0.3638 0.45626 0.0
H845 H 0.03905 0.71817 0.82361 0.0
H846 H 0.03252 0.68597 0.9089 0.0
H847 H 0.00268 0.72788 0.92298 0.0
H848 H 0.06247 0.795 0.84114 0.0
H849 H 0.03651 0.80651 0.81259 0.0
H850 H 0.05588 0.77349 0.80942 0.0
H851 H -0.00873 0.74283 0.79791 0.0
H852 H 0.97184 0.77582 0.80063 0.0
H853 H 0.95355 0.74391 0.82151 0.0
H854 H 0.97065 0.77309 0.92657 0.0
H855 H 0.94119 0.81685 0.91948 0.0
H856 H 0.97485 0.82042 0.83263 0.0
C857 C 0.03098 0.71965 0.84523 0.0
C858 C 0.03757 0.69856 0.8651 0.0
C859 C 0.02738 0.70176 0.89329 0.0
C860 C 0.01056 0.72553 0.90146 0.0
C861 C 0.00486 0.74615 0.88127 0.0
C862 C 0.01504 0.74342 0.85377 0.0
C863 C 0.0069 0.76862 0.83604 0.0
C864 C 0.04257 0.78699 0.8241 0.0
C865 C 0.97924 0.7571 0.81266 0.0
C866 C 0.98999 0.7859 0.85769 0.0
C867 C 0.98877 0.77265 0.88367 0.0
C868 C 0.972 0.78383 0.9064 0.0
C869 C 0.95548 0.80875 0.90223 0.0
C870 C 0.95633 0.82241 0.87565 0.0
C871 C 0.97453 0.81104 0.85339 0.0
H872 H 0.05222 0.29441 0.68587 0.0
H873 H 0.08037 0.29754 0.59788 0.0
H874 H 0.03099 0.25406 0.58914 0.0
H875 H 0.03567 0.21539 0.69132 0.0
H876 H -0.00161 0.21387 0.71584 0.0
H877 H 0.03478 0.24589 0.71482 0.0
H878 H 0.98693 0.27991 0.70694 0.0
H879 H 0.95042 0.24808 0.70851 0.0
H880 H 0.95446 0.27209 0.6785 0.0
H881 H 0.97618 0.2114 0.59023 0.0
H882 H 0.92119 0.17337 0.60116 0.0
H883 H 0.93449 0.19611 0.68905 0.0
C884 C 0.04763 0.28623 0.66469 0.0
C885 C 0.06959 0.2995 0.64245 0.0
C886 C 0.0635 0.28773 0.61514 0.0
C887 C 0.03569 0.26302 0.61002 0.0
C888 C 0.01492 0.25009 0.63257 0.0
C889 C 0.02075 0.26126 0.65937 0.0
C890 C -0.00458 0.24308 0.68014 0.0
C891 C 0.01739 0.22871 0.7018 0.0
C892 C 0.97032 0.26191 0.69434 0.0
C893 C 0.97388 0.2202 0.66081 0.0
C894 C 0.98532 0.22457 0.63342 0.0
C895 C 0.96738 0.20745 0.61166 0.0
C896 C 0.93633 0.18585 0.61804 0.0
C897 C 0.92403 0.18141 0.64598 0.0
C898 C 0.94379 0.19833 0.66758 0.0
H899 H 0.50135 0.18813 0.32826 0.0
H900 H 0.52992 0.18012 0.4154 0.0
H901 H 0.50206 0.22389 0.42668 0.0
H902 H 0.52803 0.26453 0.32606 0.0
H903 H 0.49273 0.27049 0.3018 0.0
H904 H 0.50908 0.236 0.30148 0.0
H905 H 0.4425 0.20702 0.30854 0.0
H906 H 0.42577 0.2414 0.30827 0.0
H907 H 0.41551 0.21642 0.33737 0.0
H908 H 0.47152 0.27042 0.4274 0.0
H909 H 0.44482 0.31514 0.41704 0.0
H910 H 0.44503 0.29439 0.32872 0.0
C911 C 0.5006 0.19487 0.34991 0.0
C912 C 0.51685 0.18023 0.3711 0.0
C913 C 0.51686 0.19066 0.39895 0.0
C914 C 0.50126 0.21558 0.40549 0.0
C915 C 0.48652 0.23012 0.38383 0.0
C916 C 0.4863 0.22007 0.35657 0.0
C917 C 0.47246 0.24093 0.33652 0.0
C918 C 0.50236 0.25373 0.31522 0.0
C919 C 0.43695 0.22552 0.32182 0.0
C920 C 0.46493 0.26441 0.35662 0.0
C921 C 0.47246 0.25772 0.38391 0.0
C922 C 0.46593 0.27593 0.40604 0.0
C923 C 0.45097 0.30133 0.40001 0.0
C924 C 0.44381 0.30862 0.37206 0.0
C925 C 0.45125 0.28993 0.35025 0.0
H926 H 0.60678 0.57815 0.75505 0.0
H927 H 0.59558 0.55062 0.6683 0.0
H928 H 0.59885 0.49937 0.68239 0.0
H929 H 0.6743 0.53569 0.77188 0.0
H930 H 0.658 0.52702 0.8069 0.0
H931 H 0.65056 0.56062 0.79048 0.0
H932 H 0.58032 0.54561 0.7991 0.0
H933 H 0.58754 0.51199 0.81569 0.0
H934 H 0.55608 0.51032 0.78663 0.0
H935 H 0.60458 0.45169 0.70583 0.0
H936 H 0.61695 0.4114 0.73622 0.0
H937 H 0.62949 0.47091 0.80744 0.0
C938 C 0.60422 0.56117 0.7391 0.0
C939 C 0.60027 0.56809 0.71064 0.0
C940 C 0.59825 0.5456 0.69023 0.0
C941 C 0.60002 0.5165 0.69805 0.0
C942 C 0.6044 0.51047 0.72629 0.0
C943 C 0.60681 0.53222 0.74648 0.0
C944 C 0.61451 0.52049 0.77506 0.0
C945 C 0.65154 0.53693 0.78676 0.0
C946 C 0.58271 0.5222 0.79531 0.0
C947 C 0.61626 0.48874 0.76779 0.0
C948 C 0.60976 0.48335 0.73962 0.0
C949 C 0.60972 0.45566 0.7279 0.0
C950 C 0.61672 0.43291 0.74537 0.0
C951 C 0.62428 0.43806 0.77418 0.0
C952 C 0.62397 0.46638 0.78549 0.0
H953 H 0.34912 0.04735 0.79399 0.0
H954 H 0.33346 0.1007 0.72187 0.0
H955 H 0.34169 0.05962 0.69058 0.0
H956 H 0.42142 0.01543 0.76347 0.0
H957 H 0.4072 0.97985 0.77976 0.0
H958 H 0.39777 0.0127 0.79654 0.0
H959 H 0.32819 0.98969 0.7984 0.0
H960 H 0.33747 0.9567 0.7818 0.0
H961 H 0.30439 0.97642 0.76663 0.0
H962 H 0.34965 0.01188 0.66723 0.0
H963 H 0.36105 0.96233 0.65366 0.0
H964 H 0.37739 0.94231 0.74079 0.0
C965 C 0.34701 0.05018 0.77162 0.0
C966 C 0.34024 0.07698 0.76028 0.0
C967 C 0.3385 0.08023 0.73091 0.0
C968 C 0.3431 0.05705 0.713 0.0
C969 C 0.35012 0.03097 0.7248 0.0
C970 C 0.35246 0.02752 0.75341 0.0
C971 C 0.36208 0.99783 0.76068 0.0
C972 C 0.39933 1.0017 0.77602 0.0
C973 C 0.33119 0.97906 0.77789 0.0
C974 C 0.36451 0.98506 0.73173 0.0
C975 C 0.35708 0.00433 0.71129 0.0
C976 C 0.35596 0.99674 0.68303 0.0
C977 C 0.36246 0.96863 0.6755 0.0
C978 C 0.37072 0.94882 0.69612 0.0
C979 C 0.37199 0.95731 0.72452 0.0
H980 H 0.43351 0.20806 0.81378 0.0
H981 H 0.42308 0.18084 0.90058 0.0
H982 H 0.47836 0.21828 0.91237 0.0
H983 H 0.53401 0.22585 0.81043 0.0
H984 H 0.53348 0.25747 0.78833 0.0
H985 H 0.49604 0.22626 0.78677 0.0
H986 H 0.44994 0.26121 0.79672 0.0
H987 H 0.48728 0.29243 0.79896 0.0
H988 H 0.45567 0.28392 0.82771 0.0
H989 H 0.53413 0.25996 0.91442 0.0
H990 H 0.58557 0.30205 0.90653 0.0
H991 H 0.55457 0.30388 0.81915 0.0
C992 C 0.44344 0.20934 0.83514 0.0
C993 C 0.42449 0.19124 0.85622 0.0
C994 C 0.43757 0.19431 0.8841 0.0
C995 C 0.4688 0.21555 0.89097 0.0
C996 C 0.48612 0.23372 0.86977 0.0
C997 C 0.47387 0.23077 0.84242 0.0
C998 C 0.49555 0.2542 0.82381 0.0
C999 C 0.51599 0.2401 0.801 0.0
C1000 C 0.47061 0.27411 0.81106 0.0
C1001 C 0.522 0.27087 0.84491 0.0
C1002 C 0.51646 0.25863 0.87127 0.0
C1003 C 0.53857 0.26982 0.8939 0.0
C1004 C 0.56756 0.29375 0.88927 0.0
C1005 C 0.57362 0.30646 0.86235 0.0
C1006 C 0.55011 0.29507 0.8401 0.0
H1007 H 0.31279 0.54065 0.22845 0.0
H1008 H 0.41681 0.59697 0.24974 0.0
H1009 H 0.43334 0.55709 0.27908 0.0
H1010 H 0.29582 0.51051 0.29684 0.0
H1011 H 0.27431 0.47428 0.28476 0.0
H1012 H 0.27219 0.5063 0.26366 0.0
H1013 H 0.30117 0.4826 0.22215 0.0
H1014 H 0.30332 0.45048 0.24313 0.0
H1015 H 0.34452 0.47053 0.22697 0.0
H1016 H 0.43862 0.51016 0.30588 0.0
H1017 H 0.42932 0.4622 0.33117 0.0
H1018 H 0.31979 0.43907 0.29527 0.0
C1019 C 0.33923 0.54439 0.23901 0.0
C1020 C 0.36374 0.57169 0.23661 0.0
C1021 C 0.39771 0.57611 0.25127 0.0
C1022 C 0.40738 0.55357 0.26789 0.0
C1023 C 0.38249 0.52692 0.27003 0.0
C1024 C 0.34891 0.5224 0.25624 0.0
C1025 C 0.32599 0.49259 0.26349 0.0
C1026 C 0.28995 0.49615 0.27806 0.0
C1027 C 0.31831 0.47289 0.23738 0.0
C1028 C 0.35188 0.48105 0.28345 0.0
C1029 C 0.3846 0.50089 0.28667 0.0
C1030 C 0.41298 0.49454 0.30366 0.0
C1031 C 0.40756 0.46731 0.31789 0.0
C1032 C 0.37374 0.44717 0.31544 0.0
C1033 C 0.34576 0.45424 0.2979 0.0
H1034 H 0.57723 0.03854 0.31427 0.0
H1035 H 0.69066 0.08534 0.30972 0.0
H1036 H 0.70506 0.04826 0.27672 0.0
H1037 H 0.60062 0.96447 0.31177 0.0
H1038 H 0.56064 0.94911 0.29124 0.0
H1039 H 0.55896 0.97941 0.31476 0.0
H1040 H 0.53896 0.00966 0.27375 0.0
H1041 H 0.5411 0.97961 0.25003 0.0
H1042 H 0.56735 0.01593 0.24296 0.0
H1043 H 0.70671 0.00863 0.24159 0.0
H1044 H 0.69773 0.96388 0.21197 0.0
H1045 H 0.58496 0.94005 0.24125 0.0
C1046 C 0.60516 0.04077 0.30656 0.0
C1047 C 0.63272 0.06498 0.31463 0.0
C1048 C 0.66899 0.06701 0.30406 0.0
C1049 C 0.67749 0.04614 0.28509 0.0
C1050 C 0.64964 0.02297 0.27709 0.0
C1051 C 0.61441 0.0197 0.2879 0.0
C1052 C 0.59009 0.99203 0.27637 0.0
C1053 C 0.5768 0.96994 0.29994 0.0
C1054 C 0.55745 0.99978 0.2598 0.0
C1055 C 0.61711 0.9806 0.25725 0.0
C1056 C 0.65113 0.99909 0.25771 0.0
C1057 C 0.6803 0.99377 0.24123 0.0
C1058 C 0.67488 0.96843 0.22432 0.0
C1059 C 0.64074 0.94848 0.22437 0.0
C1060 C 0.61142 0.95486 0.24089 0.0
H1061 H 0.5362 0.81268 0.17947 0.0
H1062 H 0.57382 0.80981 0.09402 0.0
H1063 H 0.52183 0.76858 0.08392 0.0
H1064 H 0.5188 0.73711 0.1881 0.0
H1065 H 0.47942 0.73577 0.21057 0.0
H1066 H 0.51464 0.76849 0.20964 0.0
H1067 H 0.46612 0.80051 0.19685 0.0
H1068 H 0.43053 0.76798 0.19845 0.0
H1069 H 0.4361 0.79032 0.16729 0.0
H1070 H 0.46666 0.72558 0.08448 0.0
H1071 H 0.41566 0.68404 0.09618 0.0
H1072 H 0.42148 0.71258 0.18266 0.0
C1073 C 0.53263 0.80421 0.15832 0.0
C1074 C 0.55825 0.81487 0.13727 0.0
C1075 C 0.55386 0.80224 0.11021 0.0
C1076 C 0.52456 0.77882 0.10437 0.0
C1077 C 0.50055 0.76802 0.126 0.0
C1078 C 0.50446 0.78034 0.15246 0.0
C1079 C 0.47815 0.76277 0.173 0.0
C1080 C 0.49901 0.7503 0.19671 0.0
C1081 C 0.45111 0.78151 0.18457 0.0
C1082 C 0.4589 0.73847 0.15409 0.0
C1083 C 0.47153 0.74204 0.12693 0.0
C1084 C 0.45676 0.72249 0.10573 0.0
C1085 C 0.42805 0.69895 0.11253 0.0
C1086 C 0.41544 0.69484 0.14039 0.0
C1087 C 0.43133 0.71475 0.16132 0.0
loop_
_geom_bond_atom_site_label_1
_geom_bond_atom_site_label_2
_geom_bond_distance
_geom_bond_site_symmetry_2
_ccdc_geom_bond_type
O0 Cd1 2.223 . S
O0 C8 1.315 . S
Cd1 O0 2.223 . S
Cd1 O4 2.297 . S
Cd1 O5 2.439 . S
Cd1 O11 2.240 . S
Cd2 O3 2.240 . S
Cd2 O10 2.223 . S
Cd2 O12 2.297 . S
Cd2 O13 2.439 . S
O3 Cd2 2.240 . S
O3 C8 1.279 . S
O4 Cd1 2.297 . S
O4 C6 1.247 . S
O5 Cd1 2.439 . S
O5 C6 1.208 . S
C6 O4 1.247 . S
C6 O5 1.208 . S
C7 O12 1.247 . S
C7 O13 1.208 . S
C8 O0 1.315 . S
C8 O3 1.279 . S
C9 O10 1.315 . S
C9 O11 1.279 . S
O10 Cd2 2.223 . S
O10 C9 1.315 . S
O11 Cd1 2.240 . S
O11 C9 1.279 . S
O12 Cd2 2.297 . S
O12 C7 1.247 . S
O13 Cd2 2.439 . S
O13 C7 1.208 . S
O14 Cd15 2.223 . S
O14 C22 1.315 . S
Cd15 O14 2.223 . S
Cd15 O18 2.297 . S
Cd15 O19 2.439 . S
Cd15 O25 2.240 . S
Cd16 O17 2.240 . S
Cd16 O24 2.223 . S
Cd16 O26 2.297 . S
Cd16 O27 2.439 . S
O17 Cd16 2.240 . S
O17 C22 1.279 . S
O18 Cd15 2.297 . S
O18 C20 1.247 . S
O19 Cd15 2.439 . S
O19 C20 1.208 . S
C20 O18 1.247 . S
C20 O19 1.208 . S
C21 O26 1.247 . S
C21 O27 1.208 . S
C22 O14 1.315 . S
C22 O17 1.279 . S
C23 O24 1.315 . S
C23 O25 1.279 . S
O24 Cd16 2.223 . S
O24 C23 1.315 . S
O25 Cd15 2.240 . S
O25 C23 1.279 . S
O26 Cd16 2.297 . S
O26 C21 1.247 . S
O27 Cd16 2.439 . S
O27 C21 1.208 . S
O28 Cd29 2.223 . S
O28 C36 1.315 . S
Cd29 O28 2.223 . S
Cd29 O32 2.297 . S
Cd29 O33 2.439 . S
Cd29 O39 2.240 . S
Cd30 O31 2.240 . S
Cd30 O38 2.223 . S
Cd30 O40 2.297 . S
Cd30 O41 2.439 . S
O31 Cd30 2.240 . S
O31 C36 1.279 . S
O32 Cd29 2.297 . S
O32 C34 1.247 . S
O33 Cd29 2.439 . S
O33 C34 1.208 . S
C34 O32 1.247 . S
C34 O33 1.208 . S
C35 O40 1.247 . S
C35 O41 1.208 . S
C36 O28 1.315 . S
C36 O31 1.279 . S
C37 O38 1.315 . S
C37 O39 1.279 . S
O38 Cd30 2.223 . S
O38 C37 1.315 . S
O39 Cd29 2.240 . S
O39 C37 1.279 . S
O40 Cd30 2.297 . S
O40 C35 1.247 . S
O41 Cd30 2.439 . S
O41 C35 1.208 . S
O42 Cd43 2.223 . S
O42 C50 1.315 . S
Cd43 O42 2.223 . S
Cd43 O46 2.297 . S
Cd43 O47 2.439 . S
Cd43 O53 2.240 . S
Cd44 O45 2.240 . S
Cd44 O52 2.223 . S
Cd44 O54 2.297 . S
Cd44 O55 2.439 . S
O45 Cd44 2.240 . S
O45 C50 1.279 . S
O46 Cd43 2.297 . S
O46 C48 1.247 . S
O47 Cd43 2.439 . S
O47 C48 1.208 . S
C48 O46 1.247 . S
C48 O47 1.208 . S
C49 O54 1.247 . S
C49 O55 1.208 . S
C50 O42 1.315 . S
C50 O45 1.279 . S
C51 O52 1.315 . S
C51 O53 1.279 . S
O52 Cd44 2.223 . S
O52 C51 1.315 . S
O53 Cd43 2.240 . S
O53 C51 1.279 . S
O54 Cd44 2.297 . S
O54 C49 1.247 . S
O55 Cd44 2.439 . S
O55 C49 1.208 . S
O56 Cd57 2.223 . S
O56 C64 1.315 . S
Cd57 O56 2.223 . S
Cd57 O60 2.297 . S
Cd57 O61 2.439 . S
Cd57 O67 2.240 . S
Cd58 O59 2.240 . S
Cd58 O66 2.223 . S
Cd58 O68 2.297 . S
Cd58 O69 2.439 . S
O59 Cd58 2.240 . S
O59 C64 1.279 . S
O60 Cd57 2.297 . S
O60 C62 1.247 . S
O61 Cd57 2.439 . S
O61 C62 1.208 . S
C62 O60 1.247 . S
C62 O61 1.208 . S
C63 O68 1.247 . S
C63 O69 1.208 . S
C64 O56 1.315 . S
C64 O59 1.279 . S
C65 O66 1.315 . S
C65 O67 1.279 . S
O66 Cd58 2.223 . S
O66 C65 1.315 . S
O67 Cd57 2.240 . S
O67 C65 1.279 . S
O68 Cd58 2.297 . S
O68 C63 1.247 . S
O69 Cd58 2.439 . S
O69 C63 1.208 . S
O70 Cd71 2.223 . S
O70 C78 1.315 . S
Cd71 O70 2.223 . S
Cd71 O74 2.297 . S
Cd71 O75 2.439 . S
Cd71 O81 2.240 . S
Cd72 O73 2.240 . S
Cd72 O80 2.223 . S
Cd72 O82 2.297 . S
Cd72 O83 2.439 . S
O73 Cd72 2.240 . S
O73 C78 1.279 . S
O74 Cd71 2.297 . S
O74 C76 1.247 . S
O75 Cd71 2.439 . S
O75 C76 1.208 . S
C76 O74 1.247 . S
C76 O75 1.208 . S
C77 O82 1.247 . S
C77 O83 1.208 . S
C78 O70 1.315 . S
C78 O73 1.279 . S
C79 O80 1.315 . S
C79 O81 1.279 . S
O80 Cd72 2.223 . S
O80 C79 1.315 . S
O81 Cd71 2.240 . S
O81 C79 1.279 . S
O82 Cd72 2.297 . S
O82 C77 1.247 . S
O83 Cd72 2.439 . S
O83 C77 1.208 . S
O84 Cd85 2.223 . S
O84 C92 1.315 . S
Cd85 O84 2.223 . S
Cd85 O88 2.297 . S
Cd85 O89 2.439 . S
Cd85 O95 2.240 . S
Cd86 O87 2.240 . S
Cd86 O94 2.223 . S
Cd86 O96 2.297 . S
Cd86 O97 2.439 . S
O87 Cd86 2.240 . S
O87 C92 1.279 . S
O88 Cd85 2.297 . S
O88 C90 1.247 . S
O89 Cd85 2.439 . S
O89 C90 1.208 . S
C90 O88 1.247 . S
C90 O89 1.208 . S
C91 O96 1.247 . S
C91 O97 1.208 . S
C92 O84 1.315 . S
C92 O87 1.279 . S
C93 O94 1.315 . S
C93 O95 1.279 . S
O94 Cd86 2.223 . S
O94 C93 1.315 . S
O95 Cd85 2.240 . S
O95 C93 1.279 . S
O96 Cd86 2.297 . S
O96 C91 1.247 . S
O97 Cd86 2.439 . S
O97 C91 1.208 . S
O98 Cd99 2.223 . S
O98 C106 1.315 . S
Cd99 O98 2.223 . S
Cd99 O102 2.297 . S
Cd99 O103 2.439 . S
Cd99 O109 2.240 . S
Cd100 O101 2.240 . S
Cd100 O108 2.223 . S
Cd100 O110 2.297 . S
Cd100 O111 2.439 . S
O101 Cd100 2.240 . S
O101 C106 1.279 . S
O102 Cd99 2.297 . S
O102 C104 1.247 . S
O103 Cd99 2.439 . S
O103 C104 1.208 . S
C104 O102 1.247 . S
C104 O103 1.208 . S
C105 O110 1.247 . S
C105 O111 1.208 . S
C106 O98 1.315 . S
C106 O101 1.279 . S
C107 O108 1.315 . S
C107 O109 1.279 . S
O108 Cd100 2.223 . S
O108 C107 1.315 . S
O109 Cd99 2.240 . S
O109 C107 1.279 . S
O110 Cd100 2.297 . S
O110 C105 1.247 . S
O111 Cd100 2.439 . S
O111 C105 1.208 . S
O112 Cd113 2.223 . S
O112 C120 1.315 . S
Cd113 O112 2.223 . S
Cd113 O116 2.297 . S
Cd113 O117 2.439 . S
Cd113 O123 2.240 . S
Cd114 O115 2.240 . S
Cd114 O122 2.223 . S
Cd114 O124 2.297 . S
Cd114 O125 2.439 . S
O115 Cd114 2.240 . S
O115 C120 1.279 . S
O116 Cd113 2.297 . S
O116 C118 1.247 . S
O117 Cd113 2.439 . S
O117 C118 1.208 . S
C118 O116 1.247 . S
C118 O117 1.208 . S
C119 O124 1.247 . S
C119 O125 1.208 . S
C120 O112 1.315 . S
C120 O115 1.279 . S
C121 O122 1.315 . S
C121 O123 1.279 . S
O122 Cd114 2.223 . S
O122 C121 1.315 . S
O123 Cd113 2.240 . S
O123 C121 1.279 . S
O124 Cd114 2.297 . S
O124 C119 1.247 . S
O125 Cd114 2.439 . S
O125 C119 1.208 . S
O126 Cd127 2.223 . S
O126 C134 1.315 . S
Cd127 O126 2.223 . S
Cd127 O130 2.297 . S
Cd127 O131 2.439 . S
Cd127 O137 2.240 . S
Cd128 O129 2.240 . S
Cd128 O136 2.223 . S
Cd128 O138 2.297 . S
Cd128 O139 2.439 . S
O129 Cd128 2.240 . S
O129 C134 1.279 . S
O130 Cd127 2.297 . S
O130 C132 1.247 . S
O131 Cd127 2.439 . S
O131 C132 1.208 . S
C132 O130 1.247 . S
C132 O131 1.208 . S
C133 O138 1.247 . S
C133 O139 1.208 . S
C134 O126 1.315 . S
C134 O129 1.279 . S
C135 O136 1.315 . S
C135 O137 1.279 . S
O136 Cd128 2.223 . S
O136 C135 1.315 . S
O137 Cd127 2.240 . S
O137 C135 1.279 . S
O138 Cd128 2.297 . S
O138 C133 1.247 . S
O139 Cd128 2.439 . S
O139 C133 1.208 . S
O140 Cd141 2.223 . S
O140 C148 1.315 . S
Cd141 O140 2.223 . S
Cd141 O144 2.297 . S
Cd141 O145 2.439 . S
Cd141 O151 2.240 . S
Cd142 O143 2.240 . S
Cd142 O150 2.223 . S
Cd142 O152 2.297 . S
Cd142 O153 2.439 . S
O143 Cd142 2.240 . S
O143 C148 1.279 . S
O144 Cd141 2.297 . S
O144 C146 1.247 . S
O145 Cd141 2.439 . S
O145 C146 1.208 . S
C146 O144 1.247 . S
C146 O145 1.208 . S
C147 O152 1.247 . S
C147 O153 1.208 . S
C148 O140 1.315 . S
C148 O143 1.279 . S
C149 O150 1.315 . S
C149 O151 1.279 . S
O150 Cd142 2.223 . S
O150 C149 1.315 . S
O151 Cd141 2.240 . S
O151 C149 1.279 . S
O152 Cd142 2.297 . S
O152 C147 1.247 . S
O153 Cd142 2.439 . S
O153 C147 1.208 . S
O154 Cd155 2.223 . S
O154 C162 1.315 . S
Cd155 O154 2.223 . S
Cd155 O158 2.297 . S
Cd155 O159 2.439 . S
Cd155 O165 2.240 . S
Cd156 O157 2.240 . S
Cd156 O164 2.223 . S
Cd156 O166 2.297 . S
Cd156 O167 2.439 . S
O157 Cd156 2.240 . S
O157 C162 1.279 . S
O158 Cd155 2.297 . S
O158 C160 1.247 . S
O159 Cd155 2.439 . S
O159 C160 1.208 . S
C160 O158 1.247 . S
C160 O159 1.208 . S
C161 O166 1.247 . S
C161 O167 1.208 . S
C162 O154 1.315 . S
C162 O157 1.279 . S
C163 O164 1.315 . S
C163 O165 1.279 . S
O164 Cd156 2.223 . S
O164 C163 1.315 . S
O165 Cd155 2.240 . S
O165 C163 1.279 . S
O166 Cd156 2.297 . S
O166 C161 1.247 . S
O167 Cd156 2.439 . S
O167 C161 1.208 . S
O168 Cd169 2.223 . S
O168 C176 1.315 . S
Cd169 O168 2.223 . S
Cd169 O172 2.297 . S
Cd169 O173 2.439 . S
Cd169 O179 2.240 . S
Cd170 O171 2.240 . S
Cd170 O178 2.223 . S
Cd170 O180 2.297 . S
Cd170 O181 2.439 . S
O171 Cd170 2.240 . S
O171 C176 1.279 . S
O172 Cd169 2.297 . S
O172 C174 1.247 . S
O173 Cd169 2.439 . S
O173 C174 1.208 . S
C174 O172 1.247 . S
C174 O173 1.208 . S
C175 O180 1.247 . S
C175 O181 1.208 . S
C176 O168 1.315 . S
C176 O171 1.279 . S
C177 O178 1.315 . S
C177 O179 1.279 . S
O178 Cd170 2.223 . S
O178 C177 1.315 . S
O179 Cd169 2.240 . S
O179 C177 1.279 . S
O180 Cd170 2.297 . S
O180 C175 1.247 . S
O181 Cd170 2.439 . S
O181 C175 1.208 . S
O182 Cd183 2.223 . S
O182 C190 1.315 . S
Cd183 O182 2.223 . S
Cd183 O186 2.297 . S
Cd183 O187 2.439 . S
Cd183 O193 2.240 . S
Cd184 O185 2.240 . S
Cd184 O192 2.223 . S
Cd184 O194 2.297 . S
Cd184 O195 2.439 . S
O185 Cd184 2.240 . S
O185 C190 1.279 . S
O186 Cd183 2.297 . S
O186 C188 1.247 . S
O187 Cd183 2.439 . S
O187 C188 1.208 . S
C188 O186 1.247 . S
C188 O187 1.208 . S
C189 O194 1.247 . S
C189 O195 1.208 . S
C190 O182 1.315 . S
C190 O185 1.279 . S
C191 O192 1.315 . S
C191 O193 1.279 . S
O192 Cd184 2.223 . S
O192 C191 1.315 . S
O193 Cd183 2.240 . S
O193 C191 1.279 . S
O194 Cd184 2.297 . S
O194 C189 1.247 . S
O195 Cd184 2.439 . S
O195 C189 1.208 . S
O196 Cd197 2.223 . S
O196 C204 1.315 . S
Cd197 O196 2.223 . S
Cd197 O200 2.297 . S
Cd197 O201 2.439 . S
Cd197 O207 2.240 . S
Cd198 O199 2.240 . S
Cd198 O206 2.223 . S
Cd198 O208 2.297 . S
Cd198 O209 2.439 . S
O199 Cd198 2.240 . S
O199 C204 1.279 . S
O200 Cd197 2.297 . S
O200 C202 1.247 . S
O201 Cd197 2.439 . S
O201 C202 1.208 . S
C202 O200 1.247 . S
C202 O201 1.208 . S
C203 O208 1.247 . S
C203 O209 1.208 . S
C204 O196 1.315 . S
C204 O199 1.279 . S
C205 O206 1.315 . S
C205 O207 1.279 . S
O206 Cd198 2.223 . S
O206 C205 1.315 . S
O207 Cd197 2.240 . S
O207 C205 1.279 . S
O208 Cd198 2.297 . S
O208 C203 1.247 . S
O209 Cd198 2.439 . S
O209 C203 1.208 . S
O210 Cd211 2.223 . S
O210 C218 1.315 . S
Cd211 O210 2.223 . S
Cd211 O214 2.297 . S
Cd211 O215 2.439 . S
Cd211 O221 2.240 . S
Cd212 O213 2.240 . S
Cd212 O220 2.223 . S
Cd212 O222 2.297 . S
Cd212 O223 2.439 . S
O213 Cd212 2.240 . S
O213 C218 1.279 . S
O214 Cd211 2.297 . S
O214 C216 1.247 . S
O215 Cd211 2.439 . S
O215 C216 1.208 . S
C216 O214 1.247 . S
C216 O215 1.208 . S
C217 O222 1.247 . S
C217 O223 1.208 . S
C218 O210 1.315 . S
C218 O213 1.279 . S
C219 O220 1.315 . S
C219 O221 1.279 . S
O220 Cd212 2.223 . S
O220 C219 1.315 . S
O221 Cd211 2.240 . S
O221 C219 1.279 . S
O222 Cd212 2.297 . S
O222 C217 1.247 . S
O223 Cd212 2.439 . S
O223 C217 1.208 . S
H224 C236 0.930 . S
H225 C238 0.930 . S
H226 C239 0.930 . S
H227 C243 0.959 . S
H228 C243 0.959 . S
H229 C243 0.961 . S
H230 C244 0.960 . S
H231 C244 0.961 . S
H232 C244 0.959 . S
H233 C247 0.929 . S
H234 C248 0.931 . S
H235 C250 0.930 . S
C236 H224 0.930 . S
C236 C237 1.399 . S
C236 C241 1.399 . S
C237 C236 1.399 . S
C237 C238 1.376 . S
C238 H225 0.930 . S
C238 C237 1.376 . S
C238 C239 1.388 . S
C239 H226 0.930 . S
C239 C238 1.388 . S
C239 C240 1.390 . S
C240 C239 1.390 . S
C240 C241 1.394 . S
C240 C246 1.465 . S
C241 C236 1.399 . S
C241 C240 1.394 . S
C241 C242 1.516 . S
C242 C241 1.516 . S
C242 C243 1.502 . S
C242 C244 1.561 . S
C242 C245 1.526 . S
C243 H227 0.959 . S
C243 H228 0.959 . S
C243 H229 0.961 . S
C243 C242 1.502 . S
C244 H230 0.960 . S
C244 H231 0.961 . S
C244 H232 0.959 . S
C244 C242 1.561 . S
C245 C242 1.526 . S
C245 C246 1.396 . S
C245 C250 1.390 . S
C246 C240 1.465 . S
C246 C245 1.396 . S
C246 C247 1.399 . S
C247 H233 0.929 . S
C247 C246 1.399 . S
C247 C248 1.385 . S
C248 H234 0.931 . S
C248 C247 1.385 . S
C248 C249 1.389 . S
C249 C248 1.389 . S
C249 C250 1.387 . S
C250 H235 0.930 . S
C250 C245 1.390 . S
C250 C249 1.387 . S
H251 C263 0.930 . S
H252 C265 0.930 . S
H253 C266 0.930 . S
H254 C270 0.959 . S
H255 C270 0.959 . S
H256 C270 0.961 . S
H257 C271 0.960 . S
H258 C271 0.961 . S
H259 C271 0.959 . S
H260 C274 0.929 . S
H261 C275 0.931 . S
H262 C277 0.930 . S
C263 H251 0.930 . S
C263 C264 1.399 . S
C263 C268 1.399 . S
C264 C263 1.399 . S
C264 C265 1.376 . S
C265 H252 0.930 . S
C265 C264 1.376 . S
C265 C266 1.388 . S
C266 H253 0.930 . S
C266 C265 1.388 . S
C266 C267 1.390 . S
C267 C266 1.390 . S
C267 C268 1.394 . S
C267 C273 1.465 . S
C268 C263 1.399 . S
C268 C267 1.394 . S
C268 C269 1.516 . S
C269 C268 1.516 . S
C269 C270 1.502 . S
C269 C271 1.561 . S
C269 C272 1.526 . S
C270 H254 0.959 . S
C270 H255 0.959 . S
C270 H256 0.961 . S
C270 C269 1.502 . S
C271 H257 0.960 . S
C271 H258 0.961 . S
C271 H259 0.959 . S
C271 C269 1.561 . S
C272 C269 1.526 . S
C272 C273 1.396 . S
C272 C277 1.390 . S
C273 C267 1.465 . S
C273 C272 1.396 . S
C273 C274 1.399 . S
C274 H260 0.929 . S
C274 C273 1.399 . S
C274 C275 1.385 . S
C275 H261 0.931 . S
C275 C274 1.385 . S
C275 C276 1.389 . S
C276 C275 1.389 . S
C276 C277 1.387 . S
C277 H262 0.930 . S
C277 C272 1.390 . S
C277 C276 1.387 . S
H278 C290 0.930 . S
H279 C292 0.930 . S
H280 C293 0.930 . S
H281 C297 0.959 . S
H282 C297 0.959 . S
H283 C297 0.961 . S
H284 C298 0.960 . S
H285 C298 0.961 . S
H286 C298 0.959 . S
H287 C301 0.929 . S
H288 C302 0.931 . S
H289 C304 0.930 . S
C290 H278 0.930 . S
C290 C291 1.399 . S
C290 C295 1.399 . S
C291 C290 1.399 . S
C291 C292 1.376 . S
C292 H279 0.930 . S
C292 C291 1.376 . S
C292 C293 1.388 . S
C293 H280 0.930 . S
C293 C292 1.388 . S
C293 C294 1.390 . S
C294 C293 1.390 . S
C294 C295 1.394 . S
C294 C300 1.465 . S
C295 C290 1.399 . S
C295 C294 1.394 . S
C295 C296 1.516 . S
C296 C295 1.516 . S
C296 C297 1.502 . S
C296 C298 1.561 . S
C296 C299 1.526 . S
C297 H281 0.959 . S
C297 H282 0.959 . S
C297 H283 0.961 . S
C297 C296 1.502 . S
C298 H284 0.960 . S
C298 H285 0.961 . S
C298 H286 0.959 . S
C298 C296 1.561 . S
C299 C296 1.526 . S
C299 C300 1.396 . S
C299 C304 1.390 . S
C300 C294 1.465 . S
C300 C299 1.396 . S
C300 C301 1.399 . S
C301 H287 0.929 . S
C301 C300 1.399 . S
C301 C302 1.385 . S
C302 H288 0.931 . S
C302 C301 1.385 . S
C302 C303 1.389 . S
C303 C302 1.389 . S
C303 C304 1.387 . S
C304 H289 0.930 . S
C304 C299 1.390 . S
C304 C303 1.387 . S
H305 C317 0.930 . S
H306 C319 0.930 . S
H307 C320 0.930 . S
H308 C324 0.959 . S
H309 C324 0.959 . S
H310 C324 0.961 . S
H311 C325 0.960 . S
H312 C325 0.961 . S
H313 C325 0.959 . S
H314 C328 0.929 . S
H315 C329 0.931 . S
H316 C331 0.930 . S
C317 H305 0.930 . S
C317 C318 1.399 . S
C317 C322 1.399 . S
C318 C317 1.399 . S
C318 C319 1.376 . S
C319 H306 0.930 . S
C319 C318 1.376 . S
C319 C320 1.388 . S
C320 H307 0.930 . S
C320 C319 1.388 . S
C320 C321 1.390 . S
C321 C320 1.390 . S
C321 C322 1.394 . S
C321 C327 1.465 . S
C322 C317 1.399 . S
C322 C321 1.394 . S
C322 C323 1.516 . S
C323 C322 1.516 . S
C323 C324 1.502 . S
C323 C325 1.561 . S
C323 C326 1.526 . S
C324 H308 0.959 . S
C324 H309 0.959 . S
C324 H310 0.961 . S
C324 C323 1.502 . S
C325 H311 0.960 . S
C325 H312 0.961 . S
C325 H313 0.959 . S
C325 C323 1.561 . S
C326 C323 1.526 . S
C326 C327 1.396 . S
C326 C331 1.390 . S
C327 C321 1.465 . S
C327 C326 1.396 . S
C327 C328 1.399 . S
C328 H314 0.929 . S
C328 C327 1.399 . S
C328 C329 1.385 . S
C329 H315 0.931 . S
C329 C328 1.385 . S
C329 C330 1.389 . S
C330 C329 1.389 . S
C330 C331 1.387 . S
C331 H316 0.930 . S
C331 C326 1.390 . S
C331 C330 1.387 . S
H332 C344 0.930 . S
H333 C346 0.930 . S
H334 C347 0.930 . S
H335 C351 0.959 . S
H336 C351 0.959 . S
H337 C351 0.961 . S
H338 C352 0.960 . S
H339 C352 0.961 . S
H340 C352 0.959 . S
H341 C355 0.929 . S
H342 C356 0.931 . S
H343 C358 0.930 . S
C344 H332 0.930 . S
C344 C345 1.399 . S
C344 C349 1.399 . S
C345 C344 1.399 . S
C345 C346 1.376 . S
C346 H333 0.930 . S
C346 C345 1.376 . S
C346 C347 1.388 . S
C347 H334 0.930 . S
C347 C346 1.388 . S
C347 C348 1.390 . S
C348 C347 1.390 . S
C348 C349 1.394 . S
C348 C354 1.465 . S
C349 C344 1.399 . S
C349 C348 1.394 . S
C349 C350 1.516 . S
C350 C349 1.516 . S
C350 C351 1.502 . S
C350 C352 1.561 . S
C350 C353 1.526 . S
C351 H335 0.959 . S
C351 H336 0.959 . S
C351 H337 0.961 . S
C351 C350 1.502 . S
C352 H338 0.960 . S
C352 H339 0.961 . S
C352 H340 0.959 . S
C352 C350 1.561 . S
C353 C350 1.526 . S
C353 C354 1.396 . S
C353 C358 1.390 . S
C354 C348 1.465 . S
C354 C353 1.396 . S
C354 C355 1.399 . S
C355 H341 0.929 . S
C355 C354 1.399 . S
C355 C356 1.385 . S
C356 H342 0.931 . S
C356 C355 1.385 . S
C356 C357 1.389 . S
C357 C356 1.389 . S
C357 C358 1.387 . S
C358 H343 0.930 . S
C358 C353 1.390 . S
C358 C357 1.387 . S
H359 C371 0.930 . S
H360 C373 0.930 . S
H361 C374 0.930 . S
H362 C378 0.959 . S
H363 C378 0.959 . S
H364 C378 0.961 . S
H365 C379 0.960 . S
H366 C379 0.961 . S
H367 C379 0.959 . S
H368 C382 0.929 . S
H369 C383 0.931 . S
H370 C385 0.930 . S
C371 H359 0.930 . S
C371 C372 1.399 . S
C371 C376 1.399 . S
C372 C371 1.399 . S
C372 C373 1.376 . S
C373 H360 0.930 . S
C373 C372 1.376 . S
C373 C374 1.388 . S
C374 H361 0.930 . S
C374 C373 1.388 . S
C374 C375 1.390 . S
C375 C374 1.390 . S
C375 C376 1.394 . S
C375 C381 1.465 . S
C376 C371 1.399 . S
C376 C375 1.394 . S
C376 C377 1.516 . S
C377 C376 1.516 . S
C377 C378 1.502 . S
C377 C379 1.561 . S
C377 C380 1.526 . S
C378 H362 0.959 . S
C378 H363 0.959 . S
C378 H364 0.961 . S
C378 C377 1.502 . S
C379 H365 0.960 . S
C379 H366 0.961 . S
C379 H367 0.959 . S
C379 C377 1.561 . S
C380 C377 1.526 . S
C380 C381 1.396 . S
C380 C385 1.390 . S
C381 C375 1.465 . S
C381 C380 1.396 . S
C381 C382 1.399 . S
C382 H368 0.929 . S
C382 C381 1.399 . S
C382 C383 1.385 . S
C383 H369 0.931 . S
C383 C382 1.385 . S
C383 C384 1.389 . S
C384 C383 1.389 . S
C384 C385 1.387 . S
C385 H370 0.930 . S
C385 C380 1.390 . S
C385 C384 1.387 . S
H386 C398 0.930 . S
H387 C400 0.930 . S
H388 C401 0.930 . S
H389 C405 0.959 . S
H390 C405 0.959 . S
H391 C405 0.961 . S
H392 C406 0.960 . S
H393 C406 0.961 . S
H394 C406 0.959 . S
H395 C409 0.929 . S
H396 C410 0.931 . S
H397 C412 0.930 . S
C398 H386 0.930 . S
C398 C399 1.399 . S
C398 C403 1.399 . S
C399 C398 1.399 . S
C399 C400 1.376 . S
C400 H387 0.930 . S
C400 C399 1.376 . S
C400 C401 1.388 . S
C401 H388 0.930 . S
C401 C400 1.388 . S
C401 C402 1.390 . S
C402 C401 1.390 . S
C402 C403 1.394 . S
C402 C408 1.465 . S
C403 C398 1.399 . S
C403 C402 1.394 . S
C403 C404 1.516 . S
C404 C403 1.516 . S
C404 C405 1.502 . S
C404 C406 1.561 . S
C404 C407 1.526 . S
C405 H389 0.959 . S
C405 H390 0.959 . S
C405 H391 0.961 . S
C405 C404 1.502 . S
C406 H392 0.960 . S
C406 H393 0.961 . S
C406 H394 0.959 . S
C406 C404 1.561 . S
C407 C404 1.526 . S
C407 C408 1.396 . S
C407 C412 1.390 . S
C408 C402 1.465 . S
C408 C407 1.396 . S
C408 C409 1.399 . S
C409 H395 0.929 . S
C409 C408 1.399 . S
C409 C410 1.385 . S
C410 H396 0.931 . S
C410 C409 1.385 . S
C410 C411 1.389 . S
C411 C410 1.389 . S
C411 C412 1.387 . S
C412 H397 0.930 . S
C412 C407 1.390 . S
C412 C411 1.387 . S
H413 C425 0.930 . S
H414 C427 0.930 . S
H415 C428 0.930 . S
H416 C432 0.959 . S
H417 C432 0.959 . S
H418 C432 0.961 . S
H419 C433 0.960 . S
H420 C433 0.961 . S
H421 C433 0.959 . S
H422 C436 0.929 . S
H423 C437 0.931 . S
H424 C439 0.930 . S
C425 H413 0.930 . S
C425 C426 1.399 . S
C425 C430 1.399 . S
C426 C425 1.399 . S
C426 C427 1.376 . S
C427 H414 0.930 . S
C427 C426 1.376 . S
C427 C428 1.388 . S
C428 H415 0.930 . S
C428 C427 1.388 . S
C428 C429 1.390 . S
C429 C428 1.390 . S
C429 C430 1.394 . S
C429 C435 1.465 . S
C430 C425 1.399 . S
C430 C429 1.394 . S
C430 C431 1.516 . S
C431 C430 1.516 . S
C431 C432 1.502 . S
C431 C433 1.561 . S
C431 C434 1.526 . S
C432 H416 0.959 . S
C432 H417 0.959 . S
C432 H418 0.961 . S
C432 C431 1.502 . S
C433 H419 0.960 . S
C433 H420 0.961 . S
C433 H421 0.959 . S
C433 C431 1.561 . S
C434 C431 1.526 . S
C434 C435 1.396 . S
C434 C439 1.390 . S
C435 C429 1.465 . S
C435 C434 1.396 . S
C435 C436 1.399 . S
C436 H422 0.929 . S
C436 C435 1.399 . S
C436 C437 1.385 . S
C437 H423 0.931 . S
C437 C436 1.385 . S
C437 C438 1.389 . S
C438 C437 1.389 . S
C438 C439 1.387 . S
C439 H424 0.930 . S
C439 C434 1.390 . S
C439 C438 1.387 . S
H440 C452 0.930 . S
H441 C454 0.930 . S
H442 C455 0.930 . S
H443 C459 0.959 . S
H444 C459 0.959 . S
H445 C459 0.961 . S
H446 C460 0.960 . S
H447 C460 0.961 . S
H448 C460 0.959 . S
H449 C463 0.929 . S
H450 C464 0.931 . S
H451 C466 0.930 . S
C452 H440 0.930 . S
C452 C453 1.399 . S
C452 C457 1.399 . S
C453 C452 1.399 . S
C453 C454 1.376 . S
C454 H441 0.930 . S
C454 C453 1.376 . S
C454 C455 1.388 . S
C455 H442 0.930 . S
C455 C454 1.388 . S
C455 C456 1.390 . S
C456 C455 1.390 . S
C456 C457 1.394 . S
C456 C462 1.465 1_565 S
C457 C452 1.399 . S
C457 C456 1.394 . S
C457 C458 1.516 1_565 S
C458 C457 1.516 1_545 S
C458 C459 1.502 . S
C458 C460 1.561 . S
C458 C461 1.526 . S
C459 H443 0.959 . S
C459 H444 0.959 . S
C459 H445 0.961 . S
C459 C458 1.502 . S
C460 H446 0.960 . S
C460 H447 0.961 . S
C460 H448 0.959 . S
C460 C458 1.561 . S
C461 C458 1.526 . S
C461 C462 1.396 . S
C461 C466 1.390 . S
C462 C456 1.465 1_545 S
C462 C461 1.396 . S
C462 C463 1.399 . S
C463 H449 0.929 . S
C463 C462 1.399 . S
C463 C464 1.385 . S
C464 H450 0.931 . S
C464 C463 1.385 . S
C464 C465 1.389 . S
C465 C464 1.389 . S
C465 C466 1.387 . S
C466 H451 0.930 . S
C466 C461 1.390 . S
C466 C465 1.387 . S
H467 C479 0.930 . S
H468 C481 0.930 . S
H469 C482 0.930 . S
H470 C486 0.959 . S
H471 C486 0.959 . S
H472 C486 0.961 . S
H473 C487 0.960 . S
H474 C487 0.961 . S
H475 C487 0.959 . S
H476 C490 0.929 . S
H477 C491 0.931 . S
H478 C493 0.930 . S
C479 H467 0.930 . S
C479 C480 1.399 . S
C479 C484 1.399 . S
C480 C479 1.399 . S
C480 C481 1.376 . S
C481 H468 0.930 . S
C481 C480 1.376 . S
C481 C482 1.388 . S
C482 H469 0.930 . S
C482 C481 1.388 . S
C482 C483 1.390 . S
C483 C482 1.390 . S
C483 C484 1.394 . S
C483 C489 1.465 . S
C484 C479 1.399 . S
C484 C483 1.394 . S
C484 C485 1.516 . S
C485 C484 1.516 . S
C485 C486 1.502 . S
C485 C487 1.561 . S
C485 C488 1.526 . S
C486 H470 0.959 . S
C486 H471 0.959 . S
C486 H472 0.961 . S
C486 C485 1.502 . S
C487 H473 0.960 . S
C487 H474 0.961 . S
C487 H475 0.959 . S
C487 C485 1.561 . S
C488 C485 1.526 . S
C488 C489 1.396 . S
C488 C493 1.390 . S
C489 C483 1.465 . S
C489 C488 1.396 . S
C489 C490 1.399 . S
C490 H476 0.929 . S
C490 C489 1.399 . S
C490 C491 1.385 . S
C491 H477 0.931 . S
C491 C490 1.385 . S
C491 C492 1.389 . S
C492 C491 1.389 . S
C492 C493 1.387 . S
C493 H478 0.930 . S
C493 C488 1.390 . S
C493 C492 1.387 . S
H494 C506 0.930 . S
H495 C508 0.930 . S
H496 C509 0.930 . S
H497 C513 0.959 . S
H498 C513 0.959 . S
H499 C513 0.961 . S
H500 C514 0.960 . S
H501 C514 0.961 . S
H502 C514 0.959 . S
H503 C517 0.929 . S
H504 C518 0.931 . S
H505 C520 0.930 . S
C506 H494 0.930 . S
C506 C507 1.399 . S
C506 C511 1.399 . S
C507 C506 1.399 . S
C507 C508 1.376 . S
C508 H495 0.930 . S
C508 C507 1.376 . S
C508 C509 1.388 . S
C509 H496 0.930 . S
C509 C508 1.388 . S
C509 C510 1.390 . S
C510 C509 1.390 . S
C510 C511 1.394 . S
C510 C516 1.465 . S
C511 C506 1.399 . S
C511 C510 1.394 . S
C511 C512 1.516 . S
C512 C511 1.516 . S
C512 C513 1.502 . S
C512 C514 1.561 . S
C512 C515 1.526 1_556 S
C513 H497 0.959 . S
C513 H498 0.959 . S
C513 H499 0.961 . S
C513 C512 1.502 . S
C514 H500 0.960 . S
C514 H501 0.961 . S
C514 H502 0.959 . S
C514 C512 1.561 . S
C515 C512 1.526 1_554 S
C515 C516 1.396 1_554 S
C515 C520 1.390 . S
C516 C510 1.465 . S
C516 C515 1.396 1_556 S
C516 C517 1.399 1_556 S
C517 H503 0.929 . S
C517 C516 1.399 1_554 S
C517 C518 1.385 . S
C518 H504 0.931 . S
C518 C517 1.385 . S
C518 C519 1.389 . S
C519 C518 1.389 . S
C519 C520 1.387 . S
C520 H505 0.930 . S
C520 C515 1.390 . S
C520 C519 1.387 . S
H521 C533 0.930 . S
H522 C535 0.930 . S
H523 C536 0.930 . S
H524 C540 0.959 . S
H525 C540 0.959 . S
H526 C540 0.961 . S
H527 C541 0.960 . S
H528 C541 0.961 . S
H529 C541 0.959 . S
H530 C544 0.929 . S
H531 C545 0.931 . S
H532 C547 0.930 . S
C533 H521 0.930 . S
C533 C534 1.399 . S
C533 C538 1.393 1_554 S
C534 C533 1.399 . S
C534 C535 1.376 . S
C535 H522 0.930 . S
C535 C534 1.376 . S
C535 C536 1.388 . S
C536 H523 0.930 . S
C536 C535 1.388 . S
C536 C537 1.390 . S
C537 C536 1.390 . S
C537 C538 1.393 1_554 S
C537 C543 1.465 1_554 S
C538 C533 1.393 1_556 S
C538 C537 1.393 1_556 S
C538 C539 1.523 . S
C539 C538 1.523 . S
C539 C540 1.502 . S
C539 C541 1.561 . S
C539 C542 1.526 . S
C540 H524 0.959 . S
C540 H525 0.959 . S
C540 H526 0.961 . S
C540 C539 1.502 . S
C541 H527 0.960 . S
C541 H528 0.961 . S
C541 H529 0.959 . S
C541 C539 1.561 . S
C542 C539 1.526 . S
C542 C543 1.396 . S
C542 C547 1.390 . S
C543 C537 1.465 1_556 S
C543 C542 1.396 . S
C543 C544 1.399 . S
C544 H530 0.929 . S
C544 C543 1.399 . S
C544 C545 1.385 . S
C545 H531 0.931 . S
C545 C544 1.385 . S
C545 C546 1.389 . S
C546 C545 1.389 . S
C546 C547 1.387 . S
C547 H532 0.930 . S
C547 C542 1.390 . S
C547 C546 1.387 . S
H548 C560 0.930 . S
H549 C562 0.930 . S
H550 C563 0.930 . S
H551 C567 0.959 . S
H552 C567 0.959 . S
H553 C567 0.961 . S
H554 C568 0.960 . S
H555 C568 0.961 . S
H556 C568 0.959 . S
H557 C571 0.929 . S
H558 C572 0.931 . S
H559 C574 0.930 . S
C560 H548 0.930 . S
C560 C561 1.399 . S
C560 C565 1.399 . S
C561 C560 1.399 . S
C561 C562 1.376 . S
C562 H549 0.930 . S
C562 C561 1.376 . S
C562 C563 1.388 . S
C563 H550 0.930 . S
C563 C562 1.388 . S
C563 C564 1.390 . S
C564 C563 1.390 . S
C564 C565 1.394 . S
C564 C570 1.465 . S
C565 C560 1.399 . S
C565 C564 1.394 . S
C565 C566 1.516 . S
C566 C565 1.516 . S
C566 C567 1.502 . S
C566 C568 1.561 . S
C566 C569 1.526 . S
C567 H551 0.959 . S
C567 H552 0.959 . S
C567 H553 0.961 . S
C567 C566 1.502 . S
C568 H554 0.960 . S
C568 H555 0.961 . S
C568 H556 0.959 . S
C568 C566 1.561 . S
C569 C566 1.526 . S
C569 C570 1.396 . S
C569 C574 1.390 . S
C570 C564 1.465 . S
C570 C569 1.396 . S
C570 C571 1.399 . S
C571 H557 0.929 . S
C571 C570 1.399 . S
C571 C572 1.385 . S
C572 H558 0.931 . S
C572 C571 1.385 . S
C572 C573 1.389 . S
C573 C572 1.389 . S
C573 C574 1.387 . S
C574 H559 0.930 . S
C574 C569 1.390 . S
C574 C573 1.387 . S
H575 C587 0.930 . S
H576 C589 0.930 . S
H577 C590 0.930 . S
H578 C594 0.959 . S
H579 C594 0.959 . S
H580 C594 0.961 . S
H581 C595 0.960 . S
H582 C595 0.961 . S
H583 C595 0.959 . S
H584 C598 0.929 . S
H585 C599 0.931 . S
H586 C601 0.930 . S
C587 H575 0.930 . S
C587 C588 1.399 . S
C587 C592 1.399 . S
C588 C587 1.399 . S
C588 C589 1.376 . S
C589 H576 0.930 . S
C589 C588 1.376 . S
C589 C590 1.388 . S
C590 H577 0.930 . S
C590 C589 1.388 . S
C590 C591 1.390 . S
C591 C590 1.390 . S
C591 C592 1.394 . S
C591 C597 1.465 . S
C592 C587 1.399 . S
C592 C591 1.394 . S
C592 C593 1.516 . S
C593 C592 1.516 . S
C593 C594 1.502 . S
C593 C595 1.561 . S
C593 C596 1.526 . S
C594 H578 0.959 . S
C594 H579 0.959 . S
C594 H580 0.961 . S
C594 C593 1.502 . S
C595 H581 0.960 . S
C595 H582 0.961 . S
C595 H583 0.959 . S
C595 C593 1.561 . S
C596 C593 1.526 . S
C596 C597 1.396 . S
C596 C601 1.390 . S
C597 C591 1.465 . S
C597 C596 1.396 . S
C597 C598 1.399 . S
C598 H584 0.929 . S
C598 C597 1.399 . S
C598 C599 1.385 . S
C599 H585 0.931 . S
C599 C598 1.385 . S
C599 C600 1.389 . S
C600 C599 1.389 . S
C600 C601 1.387 . S
C601 H586 0.930 . S
C601 C596 1.390 . S
C601 C600 1.387 . S
H602 C614 0.930 . S
H603 C616 0.930 . S
H604 C617 0.930 . S
H605 C621 0.959 . S
H606 C621 0.959 . S
H607 C621 0.961 . S
H608 C622 0.960 1_655 S
H609 C622 0.961 . S
H610 C622 0.959 . S
H611 C625 0.929 . S
H612 C626 0.931 . S
H613 C628 0.930 . S
C614 H602 0.930 . S
C614 C615 1.399 . S
C614 C619 1.399 . S
C615 C614 1.399 . S
C615 C616 1.376 . S
C616 H603 0.930 . S
C616 C615 1.376 . S
C616 C617 1.388 . S
C617 H604 0.930 . S
C617 C616 1.388 . S
C617 C618 1.390 . S
C618 C617 1.390 . S
C618 C619 1.394 . S
C618 C624 1.465 1_655 S
C619 C614 1.399 . S
C619 C618 1.394 . S
C619 C620 1.516 . S
C620 C619 1.516 . S
C620 C621 1.502 . S
C620 C622 1.561 1_655 S
C620 C623 1.526 1_655 S
C621 H605 0.959 . S
C621 H606 0.959 . S
C621 H607 0.961 . S
C621 C620 1.502 . S
C622 H608 0.960 1_455 S
C622 H609 0.961 . S
C622 H610 0.959 . S
C622 C620 1.561 1_455 S
C623 C620 1.526 1_455 S
C623 C624 1.396 . S
C623 C628 1.390 . S
C624 C618 1.465 1_455 S
C624 C623 1.396 . S
C624 C625 1.399 . S
C625 H611 0.929 . S
C625 C624 1.399 . S
C625 C626 1.385 . S
C626 H612 0.931 . S
C626 C625 1.385 . S
C626 C627 1.389 . S
C627 C626 1.389 . S
C627 C628 1.387 . S
C628 H613 0.930 . S
C628 C623 1.390 . S
C628 C627 1.387 . S
H629 C641 0.930 . S
H630 C643 0.930 . S
H631 C644 0.930 . S
H632 C648 0.959 . S
H633 C648 0.959 . S
H634 C648 0.961 . S
H635 C649 0.960 . S
H636 C649 0.961 1_455 S
H637 C649 0.959 . S
H638 C652 0.929 . S
H639 C653 0.931 . S
H640 C655 0.930 . S
C641 H629 0.930 . S
C641 C642 1.399 . S
C641 C646 1.399 . S
C642 C641 1.399 . S
C642 C643 1.376 . S
C643 H630 0.930 . S
C643 C642 1.376 . S
C643 C644 1.388 . S
C644 H631 0.930 . S
C644 C643 1.388 . S
C644 C645 1.390 . S
C645 C644 1.390 . S
C645 C646 1.394 . S
C645 C651 1.465 1_655 S
C646 C641 1.399 . S
C646 C645 1.394 . S
C646 C647 1.516 1_655 S
C647 C646 1.516 1_455 S
C647 C648 1.502 . S
C647 C649 1.561 1_455 S
C647 C650 1.526 . S
C648 H632 0.959 . S
C648 H633 0.959 . S
C648 H634 0.961 . S
C648 C647 1.502 . S
C649 H635 0.960 . S
C649 H636 0.961 1_655 S
C649 H637 0.959 . S
C649 C647 1.561 1_655 S
C650 C647 1.526 . S
C650 C651 1.396 . S
C650 C655 1.390 . S
C651 C645 1.465 1_455 S
C651 C650 1.396 . S
C651 C652 1.399 . S
C652 H638 0.929 . S
C652 C651 1.399 . S
C652 C653 1.385 . S
C653 H639 0.931 . S
C653 C652 1.385 . S
C653 C654 1.389 . S
C654 C653 1.389 . S
C654 C655 1.387 . S
C655 H640 0.930 . S
C655 C650 1.390 . S
C655 C654 1.387 . S
H656 C668 0.930 . S
H657 C670 0.930 . S
H658 C671 0.930 . S
H659 C675 0.959 . S
H660 C675 0.959 . S
H661 C675 0.961 . S
H662 C676 0.960 . S
H663 C676 0.961 . S
H664 C676 0.959 . S
H665 C679 0.929 . S
H666 C680 0.931 . S
H667 C682 0.930 . S
C668 H656 0.930 . S
C668 C669 1.399 . S
C668 C673 1.399 . S
C669 C668 1.399 . S
C669 C670 1.376 . S
C670 H657 0.930 . S
C670 C669 1.376 . S
C670 C671 1.388 . S
C671 H658 0.930 . S
C671 C670 1.388 . S
C671 C672 1.390 . S
C672 C671 1.390 . S
C672 C673 1.394 . S
C672 C678 1.465 . S
C673 C668 1.399 . S
C673 C672 1.394 . S
C673 C674 1.516 . S
C674 C673 1.516 . S
C674 C675 1.502 . S
C674 C676 1.561 . S
C674 C677 1.526 . S
C675 H659 0.959 . S
C675 H660 0.959 . S
C675 H661 0.961 . S
C675 C674 1.502 . S
C676 H662 0.960 . S
C676 H663 0.961 . S
C676 H664 0.959 . S
C676 C674 1.561 . S
C677 C674 1.526 . S
C677 C678 1.396 . S
C677 C682 1.390 . S
C678 C672 1.465 . S
C678 C677 1.396 . S
C678 C679 1.399 . S
C679 H665 0.929 . S
C679 C678 1.399 . S
C679 C680 1.385 . S
C680 H666 0.931 . S
C680 C679 1.385 . S
C680 C681 1.389 . S
C681 C680 1.389 . S
C681 C682 1.387 . S
C682 H667 0.930 . S
C682 C677 1.390 . S
C682 C681 1.387 . S
H683 C695 0.930 . S
H684 C697 0.930 . S
H685 C698 0.930 . S
H686 C702 0.959 . S
H687 C702 0.959 . S
H688 C702 0.961 . S
H689 C703 0.960 . S
H690 C703 0.961 . S
H691 C703 0.959 . S
H692 C706 0.929 1_545 S
H693 C707 0.931 . S
H694 C709 0.930 . S
C695 H683 0.930 . S
C695 C696 1.399 . S
C695 C700 1.399 . S
C696 C695 1.399 . S
C696 C697 1.376 . S
C697 H684 0.930 . S
C697 C696 1.376 . S
C697 C698 1.388 . S
C698 H685 0.930 . S
C698 C697 1.388 . S
C698 C699 1.390 . S
C699 C698 1.390 . S
C699 C700 1.394 . S
C699 C705 1.465 1_545 S
C700 C695 1.399 . S
C700 C699 1.394 . S
C700 C701 1.516 1_545 S
C701 C700 1.516 1_565 S
C701 C702 1.502 . S
C701 C703 1.561 . S
C701 C704 1.526 . S
C702 H686 0.959 . S
C702 H687 0.959 . S
C702 H688 0.961 . S
C702 C701 1.502 . S
C703 H689 0.960 . S
C703 H690 0.961 . S
C703 H691 0.959 . S
C703 C701 1.561 . S
C704 C701 1.526 . S
C704 C705 1.396 . S
C704 C709 1.390 . S
C705 C699 1.465 1_565 S
C705 C704 1.396 . S
C705 C706 1.399 . S
C706 H692 0.929 1_565 S
C706 C705 1.399 . S
C706 C707 1.385 . S
C707 H693 0.931 . S
C707 C706 1.385 . S
C707 C708 1.389 . S
C708 C707 1.389 . S
C708 C709 1.387 . S
C709 H694 0.930 . S
C709 C704 1.390 . S
C709 C708 1.387 . S
H710 C722 0.930 . S
H711 C724 0.930 . S
H712 C725 0.930 . S
H713 C729 0.959 . S
H714 C729 0.959 . S
H715 C729 0.961 . S
H716 C730 0.960 . S
H717 C730 0.961 . S
H718 C730 0.959 . S
H719 C733 0.929 . S
H720 C734 0.931 . S
H721 C736 0.930 . S
C722 H710 0.930 . S
C722 C723 1.399 . S
C722 C727 1.399 . S
C723 C722 1.399 . S
C723 C724 1.376 . S
C724 H711 0.930 . S
C724 C723 1.376 . S
C724 C725 1.388 . S
C725 H712 0.930 . S
C725 C724 1.388 . S
C725 C726 1.390 . S
C726 C725 1.390 . S
C726 C727 1.394 . S
C726 C732 1.465 . S
C727 C722 1.399 . S
C727 C726 1.394 . S
C727 C728 1.516 . S
C728 C727 1.516 . S
C728 C729 1.502 . S
C728 C730 1.561 . S
C728 C731 1.526 . S
C729 H713 0.959 . S
C729 H714 0.959 . S
C729 H715 0.961 . S
C729 C728 1.502 . S
C730 H716 0.960 . S
C730 H717 0.961 . S
C730 H718 0.959 . S
C730 C728 1.561 . S
C731 C728 1.526 . S
C731 C732 1.396 . S
C731 C736 1.390 . S
C732 C726 1.465 . S
C732 C731 1.396 . S
C732 C733 1.399 . S
C733 H719 0.929 . S
C733 C732 1.399 . S
C733 C734 1.385 . S
C734 H720 0.931 . S
C734 C733 1.385 . S
C734 C735 1.389 . S
C735 C734 1.389 . S
C735 C736 1.387 . S
C736 H721 0.930 . S
C736 C731 1.390 . S
C736 C735 1.387 . S
H737 C749 0.930 . S
H738 C751 0.930 . S
H739 C752 0.930 . S
H740 C756 0.959 . S
H741 C756 0.959 1_556 S
H742 C756 0.961 . S
H743 C757 0.960 . S
H744 C757 0.961 . S
H745 C757 0.959 . S
H746 C760 0.929 . S
H747 C761 0.931 . S
H748 C763 0.930 . S
C749 H737 0.930 . S
C749 C750 1.399 . S
C749 C754 1.399 . S
C750 C749 1.399 . S
C750 C751 1.376 . S
C751 H738 0.930 . S
C751 C750 1.376 . S
C751 C752 1.388 . S
C752 H739 0.930 . S
C752 C751 1.388 . S
C752 C753 1.390 . S
C753 C752 1.390 . S
C753 C754 1.394 . S
C753 C759 1.465 . S
C754 C749 1.399 . S
C754 C753 1.394 . S
C754 C755 1.516 . S
C755 C754 1.516 . S
C755 C756 1.502 . S
C755 C757 1.561 . S
C755 C758 1.526 1_554 S
C756 H740 0.959 . S
C756 H741 0.959 1_554 S
C756 H742 0.961 . S
C756 C755 1.502 . S
C757 H743 0.960 . S
C757 H744 0.961 . S
C757 H745 0.959 . S
C757 C755 1.561 . S
C758 C755 1.526 1_556 S
C758 C759 1.396 1_556 S
C758 C763 1.390 . S
C759 C753 1.465 . S
C759 C758 1.396 1_554 S
C759 C760 1.399 1_554 S
C760 H746 0.929 . S
C760 C759 1.399 1_556 S
C760 C761 1.385 . S
C761 H747 0.931 . S
C761 C760 1.385 . S
C761 C762 1.389 . S
C762 C761 1.389 . S
C762 C763 1.387 . S
C763 H748 0.930 . S
C763 C758 1.390 . S
C763 C762 1.387 . S
H764 C776 0.930 . S
H765 C778 0.930 . S
H766 C779 0.930 . S
H767 C783 0.959 . S
H768 C783 0.959 . S
H769 C783 0.961 . S
H770 C784 0.960 . S
H771 C784 0.961 . S
H772 C784 0.959 . S
H773 C787 0.929 . S
H774 C788 0.931 . S
H775 C790 0.930 . S
C776 H764 0.930 . S
C776 C777 1.399 . S
C776 C781 1.394 1_556 S
C777 C776 1.399 . S
C777 C778 1.376 . S
C778 H765 0.930 . S
C778 C777 1.376 . S
C778 C779 1.388 . S
C779 H766 0.930 . S
C779 C778 1.388 . S
C779 C780 1.390 1_556 S
C780 C779 1.390 1_554 S
C780 C781 1.395 . S
C780 C786 1.465 . S
C781 C776 1.394 1_554 S
C781 C780 1.395 . S
C781 C782 1.521 . S
C782 C781 1.521 . S
C782 C783 1.502 . S
C782 C784 1.561 . S
C782 C785 1.526 . S
C783 H767 0.959 . S
C783 H768 0.959 . S
C783 H769 0.961 . S
C783 C782 1.502 . S
C784 H770 0.960 . S
C784 H771 0.961 . S
C784 H772 0.959 . S
C784 C782 1.561 . S
C785 C782 1.526 . S
C785 C786 1.396 . S
C785 C790 1.390 . S
C786 C780 1.465 . S
C786 C785 1.396 . S
C786 C787 1.399 . S
C787 H773 0.929 . S
C787 C786 1.399 . S
C787 C788 1.385 . S
C788 H774 0.931 . S
C788 C787 1.385 . S
C788 C789 1.389 . S
C789 C788 1.389 . S
C789 C790 1.387 . S
C790 H775 0.930 . S
C790 C785 1.390 . S
C790 C789 1.387 . S
H791 C803 0.930 . S
H792 C805 0.930 . S
H793 C806 0.930 . S
H794 C810 0.959 . S
H795 C810 0.959 . S
H796 C810 0.961 . S
H797 C811 0.960 . S
H798 C811 0.961 . S
H799 C811 0.959 . S
H800 C814 0.929 . S
H801 C815 0.931 . S
H802 C817 0.930 . S
C803 H791 0.930 . S
C803 C804 1.399 . S
C803 C808 1.399 . S
C804 C803 1.399 . S
C804 C805 1.376 . S
C805 H792 0.930 . S
C805 C804 1.376 . S
C805 C806 1.388 . S
C806 H793 0.930 . S
C806 C805 1.388 . S
C806 C807 1.390 . S
C807 C806 1.390 . S
C807 C808 1.394 . S
C807 C813 1.465 . S
C808 C803 1.399 . S
C808 C807 1.394 . S
C808 C809 1.516 . S
C809 C808 1.516 . S
C809 C810 1.502 . S
C809 C811 1.561 . S
C809 C812 1.526 . S
C810 H794 0.959 . S
C810 H795 0.959 . S
C810 H796 0.961 . S
C810 C809 1.502 . S
C811 H797 0.960 . S
C811 H798 0.961 . S
C811 H799 0.959 . S
C811 C809 1.561 . S
C812 C809 1.526 . S
C812 C813 1.396 . S
C812 C817 1.390 . S
C813 C807 1.465 . S
C813 C812 1.396 . S
C813 C814 1.399 . S
C814 H800 0.929 . S
C814 C813 1.399 . S
C814 C815 1.385 . S
C815 H801 0.931 . S
C815 C814 1.385 . S
C815 C816 1.389 . S
C816 C815 1.389 . S
C816 C817 1.387 . S
C817 H802 0.930 . S
C817 C812 1.390 . S
C817 C816 1.387 . S
H818 C830 0.930 . S
H819 C832 0.930 . S
H820 C833 0.930 . S
H821 C837 0.959 . S
H822 C837 0.959 . S
H823 C837 0.961 . S
H824 C838 0.960 . S
H825 C838 0.961 . S
H826 C838 0.959 . S
H827 C841 0.929 . S
H828 C842 0.931 . S
H829 C844 0.930 . S
C830 H818 0.930 . S
C830 C831 1.399 . S
C830 C835 1.399 . S
C831 C830 1.399 . S
C831 C832 1.376 . S
C832 H819 0.930 . S
C832 C831 1.376 . S
C832 C833 1.388 . S
C833 H820 0.930 . S
C833 C832 1.388 . S
C833 C834 1.390 . S
C834 C833 1.390 . S
C834 C835 1.394 . S
C834 C840 1.465 . S
C835 C830 1.399 . S
C835 C834 1.394 . S
C835 C836 1.516 . S
C836 C835 1.516 . S
C836 C837 1.502 . S
C836 C838 1.561 . S
C836 C839 1.526 . S
C837 H821 0.959 . S
C837 H822 0.959 . S
C837 H823 0.961 . S
C837 C836 1.502 . S
C838 H824 0.960 . S
C838 H825 0.961 . S
C838 H826 0.959 . S
C838 C836 1.561 . S
C839 C836 1.526 . S
C839 C840 1.396 . S
C839 C844 1.390 . S
C840 C834 1.465 . S
C840 C839 1.396 . S
C840 C841 1.399 . S
C841 H827 0.929 . S
C841 C840 1.399 . S
C841 C842 1.385 . S
C842 H828 0.931 . S
C842 C841 1.385 . S
C842 C843 1.389 . S
C843 C842 1.389 . S
C843 C844 1.387 . S
C844 H829 0.930 . S
C844 C839 1.390 . S
C844 C843 1.387 . S
H845 C857 0.930 . S
H846 C859 0.930 . S
H847 C860 0.930 1_655 S
H848 C864 0.959 . S
H849 C864 0.959 . S
H850 C864 0.961 . S
H851 C865 0.960 . S
H852 C865 0.961 . S
H853 C865 0.959 . S
H854 C868 0.929 . S
H855 C869 0.931 . S
H856 C871 0.930 . S
C857 H845 0.930 . S
C857 C858 1.399 . S
C857 C862 1.399 . S
C858 C857 1.399 . S
C858 C859 1.376 . S
C859 H846 0.930 . S
C859 C858 1.376 . S
C859 C860 1.388 . S
C860 H847 0.930 1_455 S
C860 C859 1.388 . S
C860 C861 1.390 . S
C861 C860 1.390 . S
C861 C862 1.394 . S
C861 C867 1.465 1_455 S
C862 C857 1.399 . S
C862 C861 1.394 . S
C862 C863 1.516 . S
C863 C862 1.516 . S
C863 C864 1.502 . S
C863 C865 1.561 1_455 S
C863 C866 1.526 1_455 S
C864 H848 0.959 . S
C864 H849 0.959 . S
C864 H850 0.961 . S
C864 C863 1.502 . S
C865 H851 0.960 . S
C865 H852 0.961 . S
C865 H853 0.959 . S
C865 C863 1.561 1_655 S
C866 C863 1.526 1_655 S
C866 C867 1.396 . S
C866 C871 1.390 . S
C867 C861 1.465 1_655 S
C867 C866 1.396 . S
C867 C868 1.399 . S
C868 H854 0.929 . S
C868 C867 1.399 . S
C868 C869 1.385 . S
C869 H855 0.931 . S
C869 C868 1.385 . S
C869 C870 1.389 . S
C870 C869 1.389 . S
C870 C871 1.387 . S
C871 H856 0.930 . S
C871 C866 1.390 . S
C871 C870 1.387 . S
H872 C884 0.930 . S
H873 C886 0.930 . S
H874 C887 0.930 . S
H875 C891 0.959 1_455 S
H876 C891 0.959 . S
H877 C891 0.961 1_455 S
H878 C892 0.960 . S
H879 C892 0.961 . S
H880 C892 0.959 . S
H881 C895 0.929 . S
H882 C896 0.931 . S
H883 C898 0.930 . S
C884 H872 0.930 . S
C884 C885 1.399 . S
C884 C889 1.399 . S
C885 C884 1.399 . S
C885 C886 1.376 . S
C886 H873 0.930 . S
C886 C885 1.376 . S
C886 C887 1.388 . S
C887 H874 0.930 . S
C887 C886 1.388 . S
C887 C888 1.390 . S
C888 C887 1.390 . S
C888 C889 1.394 . S
C888 C894 1.465 1_455 S
C889 C884 1.399 . S
C889 C888 1.394 . S
C889 C890 1.516 1_455 S
C890 C889 1.516 1_655 S
C890 C891 1.502 . S
C890 C892 1.561 . S
C890 C893 1.526 . S
C891 H875 0.959 1_655 S
C891 H876 0.959 . S
C891 H877 0.961 1_655 S
C891 C890 1.502 . S
C892 H878 0.960 . S
C892 H879 0.961 . S
C892 H880 0.959 . S
C892 C890 1.561 . S
C893 C890 1.526 . S
C893 C894 1.396 . S
C893 C898 1.390 . S
C894 C888 1.465 1_655 S
C894 C893 1.396 . S
C894 C895 1.399 . S
C895 H881 0.929 . S
C895 C894 1.399 . S
C895 C896 1.385 . S
C896 H882 0.931 . S
C896 C895 1.385 . S
C896 C897 1.389 . S
C897 C896 1.389 . S
C897 C898 1.387 . S
C898 H883 0.930 . S
C898 C893 1.390 . S
C898 C897 1.387 . S
H899 C911 0.930 . S
H900 C913 0.930 . S
H901 C914 0.930 . S
H902 C918 0.959 . S
H903 C918 0.959 . S
H904 C918 0.961 . S
H905 C919 0.960 . S
H906 C919 0.961 . S
H907 C919 0.959 . S
H908 C922 0.929 . S
H909 C923 0.931 . S
H910 C925 0.930 . S
C911 H899 0.930 . S
C911 C912 1.399 . S
C911 C916 1.399 . S
C912 C911 1.399 . S
C912 C913 1.376 . S
C913 H900 0.930 . S
C913 C912 1.376 . S
C913 C914 1.388 . S
C914 H901 0.930 . S
C914 C913 1.388 . S
C914 C915 1.390 . S
C915 C914 1.390 . S
C915 C916 1.394 . S
C915 C921 1.465 . S
C916 C911 1.399 . S
C916 C915 1.394 . S
C916 C917 1.516 . S
C917 C916 1.516 . S
C917 C918 1.502 . S
C917 C919 1.561 . S
C917 C920 1.526 . S
C918 H902 0.959 . S
C918 H903 0.959 . S
C918 H904 0.961 . S
C918 C917 1.502 . S
C919 H905 0.960 . S
C919 H906 0.961 . S
C919 H907 0.959 . S
C919 C917 1.561 . S
C920 C917 1.526 . S
C920 C921 1.396 . S
C920 C925 1.390 . S
C921 C915 1.465 . S
C921 C920 1.396 . S
C921 C922 1.399 . S
C922 H908 0.929 . S
C922 C921 1.399 . S
C922 C923 1.385 . S
C923 H909 0.931 . S
C923 C922 1.385 . S
C923 C924 1.389 . S
C924 C923 1.389 . S
C924 C925 1.387 . S
C925 H910 0.930 . S
C925 C920 1.390 . S
C925 C924 1.387 . S
H926 C938 0.930 . S
H927 C940 0.930 . S
H928 C941 0.930 . S
H929 C945 0.959 . S
H930 C945 0.959 . S
H931 C945 0.961 . S
H932 C946 0.960 . S
H933 C946 0.961 . S
H934 C946 0.959 . S
H935 C949 0.929 . S
H936 C950 0.931 . S
H937 C952 0.930 . S
C938 H926 0.930 . S
C938 C939 1.399 . S
C938 C943 1.399 . S
C939 C938 1.399 . S
C939 C940 1.376 . S
C940 H927 0.930 . S
C940 C939 1.376 . S
C940 C941 1.388 . S
C941 H928 0.930 . S
C941 C940 1.388 . S
C941 C942 1.390 . S
C942 C941 1.390 . S
C942 C943 1.394 . S
C942 C948 1.465 . S
C943 C938 1.399 . S
C943 C942 1.394 . S
C943 C944 1.516 . S
C944 C943 1.516 . S
C944 C945 1.502 . S
C944 C946 1.561 . S
C944 C947 1.526 . S
C945 H929 0.959 . S
C945 H930 0.959 . S
C945 H931 0.961 . S
C945 C944 1.502 . S
C946 H932 0.960 . S
C946 H933 0.961 . S
C946 H934 0.959 . S
C946 C944 1.561 . S
C947 C944 1.526 . S
C947 C948 1.396 . S
C947 C952 1.390 . S
C948 C942 1.465 . S
C948 C947 1.396 . S
C948 C949 1.399 . S
C949 H935 0.929 . S
C949 C948 1.399 . S
C949 C950 1.385 . S
C950 H936 0.931 . S
C950 C949 1.385 . S
C950 C951 1.389 . S
C951 C950 1.389 . S
C951 C952 1.387 . S
C952 H937 0.930 . S
C952 C947 1.390 . S
C952 C951 1.387 . S
H953 C965 0.930 . S
H954 C967 0.930 . S
H955 C968 0.930 . S
H956 C972 0.959 . S
H957 C972 0.959 . S
H958 C972 0.961 . S
H959 C973 0.960 . S
H960 C973 0.961 . S
H961 C973 0.959 . S
H962 C976 0.957 . S
H963 C977 0.931 . S
H964 C979 0.930 . S
C965 H953 0.930 . S
C965 C966 1.399 . S
C965 C970 1.399 1_545 S
C966 C965 1.399 . S
C966 C967 1.376 . S
C967 H954 0.930 . S
C967 C966 1.376 . S
C967 C968 1.388 . S
C968 H955 0.930 . S
C968 C967 1.388 . S
C968 C969 1.390 . S
C969 C968 1.390 . S
C969 C970 1.394 1_545 S
C969 C975 1.465 1_545 S
C970 C965 1.399 1_565 S
C970 C969 1.394 1_565 S
C970 C971 1.516 . S
C971 C970 1.516 . S
C971 C972 1.502 . S
C971 C973 1.561 . S
C971 C974 1.526 . S
C972 H956 0.959 . S
C972 H957 0.959 . S
C972 H958 0.961 . S
C972 C971 1.502 . S
C973 H959 0.960 . S
C973 H960 0.961 . S
C973 H961 0.959 . S
C973 C971 1.561 . S
C974 C971 1.526 . S
C974 C975 1.396 . S
C974 C979 1.390 . S
C975 C969 1.465 1_565 S
C975 C974 1.396 . S
C975 C976 1.399 . S
C976 H962 0.957 . S
C976 C975 1.399 . S
C976 C977 1.385 . S
C977 H963 0.931 . S
C977 C976 1.385 . S
C977 C978 1.389 . S
C978 C977 1.389 . S
C978 C979 1.387 . S
C979 H964 0.930 . S
C979 C974 1.390 . S
C979 C978 1.387 . S
H980 C992 0.930 . S
H981 C994 0.930 . S
H982 C995 0.930 . S
H983 C999 0.959 . S
H984 C999 0.959 . S
H985 C999 0.961 . S
H986 C1000 0.960 . S
H987 C1000 0.961 . S
H988 C1000 0.959 . S
H989 C1003 0.929 . S
H990 C1004 0.931 . S
H991 C1006 0.930 . S
C992 H980 0.930 . S
C992 C993 1.399 . S
C992 C997 1.399 . S
C993 C992 1.399 . S
C993 C994 1.376 . S
C994 H981 0.930 . S
C994 C993 1.376 . S
C994 C995 1.388 . S
C995 H982 0.930 . S
C995 C994 1.388 . S
C995 C996 1.390 . S
C996 C995 1.390 . S
C996 C997 1.394 . S
C996 C1002 1.465 . S
C997 C992 1.399 . S
C997 C996 1.394 . S
C997 C998 1.516 . S
C998 C997 1.516 . S
C998 C999 1.502 . S
C998 C1000 1.561 . S
C998 C1001 1.526 . S
C999 H983 0.959 . S
C999 H984 0.959 . S
C999 H985 0.961 . S
C999 C998 1.502 . S
C1000 H986 0.960 . S
C1000 H987 0.961 . S
C1000 H988 0.959 . S
C1000 C998 1.561 . S
C1001 C998 1.526 . S
C1001 C1002 1.396 . S
C1001 C1006 1.390 . S
C1002 C996 1.465 . S
C1002 C1001 1.396 . S
C1002 C1003 1.399 . S
C1003 H989 0.929 . S
C1003 C1002 1.399 . S
C1003 C1004 1.385 . S
C1004 H990 0.931 . S
C1004 C1003 1.385 . S
C1004 C1005 1.389 . S
C1005 C1004 1.389 . S
C1005 C1006 1.387 . S
C1006 H991 0.930 . S
C1006 C1001 1.390 . S
C1006 C1005 1.387 . S
H1007 C1019 0.930 . S
H1008 C1021 0.930 . S
H1009 C1022 0.930 . S
H1010 C1026 0.959 . S
H1011 C1026 0.959 . S
H1012 C1026 0.961 . S
H1013 C1027 0.960 . S
H1014 C1027 0.961 . S
H1015 C1027 0.959 . S
H1016 C1030 0.929 . S
H1017 C1031 0.931 . S
H1018 C1033 0.930 . S
C1019 H1007 0.930 . S
C1019 C1020 1.399 . S
C1019 C1024 1.399 . S
C1020 C1019 1.399 . S
C1020 C1021 1.376 . S
C1021 H1008 0.930 . S
C1021 C1020 1.376 . S
C1021 C1022 1.388 . S
C1022 H1009 0.930 . S
C1022 C1021 1.388 . S
C1022 C1023 1.390 . S
C1023 C1022 1.390 . S
C1023 C1024 1.394 . S
C1023 C1029 1.465 . S
C1024 C1019 1.399 . S
C1024 C1023 1.394 . S
C1024 C1025 1.516 . S
C1025 C1024 1.516 . S
C1025 C1026 1.502 . S
C1025 C1027 1.561 . S
C1025 C1028 1.526 . S
C1026 H1010 0.959 . S
C1026 H1011 0.959 . S
C1026 H1012 0.961 . S
C1026 C1025 1.502 . S
C1027 H1013 0.960 . S
C1027 H1014 0.961 . S
C1027 H1015 0.959 . S
C1027 C1025 1.561 . S
C1028 C1025 1.526 . S
C1028 C1029 1.396 . S
C1028 C1033 1.390 . S
C1029 C1023 1.465 . S
C1029 C1028 1.396 . S
C1029 C1030 1.399 . S
C1030 H1016 0.929 . S
C1030 C1029 1.399 . S
C1030 C1031 1.385 . S
C1031 H1017 0.931 . S
C1031 C1030 1.385 . S
C1031 C1032 1.389 . S
C1032 C1031 1.389 . S
C1032 C1033 1.387 . S
C1033 H1018 0.930 . S
C1033 C1028 1.390 . S
C1033 C1032 1.387 . S
H1034 C1046 0.930 . S
H1035 C1048 0.930 . S
H1036 C1049 0.930 . S
H1037 C1053 0.959 . S
H1038 C1053 0.959 . S
H1039 C1053 0.961 . S
H1040 C1054 0.960 . S
H1041 C1054 0.961 1_565 S
H1042 C1054 0.959 . S
H1043 C1057 0.929 1_545 S
H1044 C1058 0.931 . S
H1045 C1060 0.930 . S
C1046 H1034 0.930 . S
C1046 C1047 1.399 . S
C1046 C1051 1.399 . S
C1047 C1046 1.399 . S
C1047 C1048 1.376 . S
C1048 H1035 0.930 . S
C1048 C1047 1.376 . S
C1048 C1049 1.388 . S
C1049 H1036 0.930 . S
C1049 C1048 1.388 . S
C1049 C1050 1.390 . S
C1050 C1049 1.390 . S
C1050 C1051 1.394 . S
C1050 C1056 1.465 . S
C1051 C1046 1.399 . S
C1051 C1050 1.394 . S
C1051 C1052 1.516 1_545 S
C1052 C1051 1.516 1_565 S
C1052 C1053 1.502 . S
C1052 C1054 1.561 1_565 S
C1052 C1055 1.526 . S
C1053 H1037 0.959 . S
C1053 H1038 0.959 . S
C1053 H1039 0.961 . S
C1053 C1052 1.502 . S
C1054 H1040 0.960 . S
C1054 H1041 0.961 1_545 S
C1054 H1042 0.959 . S
C1054 C1052 1.561 1_545 S
C1055 C1052 1.526 . S
C1055 C1056 1.396 1_565 S
C1055 C1060 1.390 . S
C1056 C1050 1.465 . S
C1056 C1055 1.396 1_545 S
C1056 C1057 1.399 1_545 S
C1057 H1043 0.929 1_565 S
C1057 C1056 1.399 1_565 S
C1057 C1058 1.385 . S
C1058 H1044 0.931 . S
C1058 C1057 1.385 . S
C1058 C1059 1.389 . S
C1059 C1058 1.389 . S
C1059 C1060 1.387 . S
C1060 H1045 0.930 . S
C1060 C1055 1.390 . S
C1060 C1059 1.387 . S
H1061 C1073 0.930 . S
H1062 C1075 0.930 . S
H1063 C1076 0.930 . S
H1064 C1080 0.959 . S
H1065 C1080 0.959 . S
H1066 C1080 0.961 . S
H1067 C1081 0.960 . S
H1068 C1081 0.961 . S
H1069 C1081 0.959 . S
H1070 C1084 0.929 . S
H1071 C1085 0.931 . S
H1072 C1087 0.930 . S
C1073 H1061 0.930 . S
C1073 C1074 1.399 . S
C1073 C1078 1.399 . S
C1074 C1073 1.399 . S
C1074 C1075 1.376 . S
C1075 H1062 0.930 . S
C1075 C1074 1.376 . S
C1075 C1076 1.388 . S
C1076 H1063 0.930 . S
C1076 C1075 1.388 . S
C1076 C1077 1.390 . S
C1077 C1076 1.390 . S
C1077 C1078 1.394 . S
C1077 C1083 1.465 . S
C1078 C1073 1.399 . S
C1078 C1077 1.394 . S
C1078 C1079 1.516 . S
C1079 C1078 1.516 . S
C1079 C1080 1.502 . S
C1079 C1081 1.561 . S
C1079 C1082 1.526 . S
C1080 H1064 0.959 . S
C1080 H1065 0.959 . S
C1080 H1066 0.961 . S
C1080 C1079 1.502 . S
C1081 H1067 0.960 . S
C1081 H1068 0.961 . S
C1081 H1069 0.959 . S
C1081 C1079 1.561 . S
C1082 C1079 1.526 . S
C1082 C1083 1.396 . S
C1082 C1087 1.390 . S
C1083 C1077 1.465 . S
C1083 C1082 1.396 . S
C1083 C1084 1.399 . S
C1084 H1070 0.929 . S
C1084 C1083 1.399 . S
C1084 C1085 1.385 . S
C1085 H1071 0.931 . S
C1085 C1084 1.385 . S
C1085 C1086 1.389 . S
C1086 C1085 1.389 . S
C1086 C1087 1.387 . S
C1087 H1072 0.930 . S
C1087 C1082 1.390 . S
C1087 C1086 1.387 . S
C237 C9 1.510 . S
C249 C191 1.489 . S
C264 C23 1.528 . S
C276 C135 1.494 . S
C291 C205 1.186 . S
C303 C37 1.214 . S
C318 C51 1.215 . S
C330 C219 1.226 . S
C345 C65 1.512 . S
C357 C93 1.515 . S
C372 C149 1.537 . S
C384 C79 1.513 . S
C399 C163 1.202 . S
C411 C107 1.205 . S
C426 C121 1.212 . S
C438 C177 1.203 . S
C453 C35 1.427 . S
C465 C7 1.472 . S
C480 C21 1.425 . S
C492 C49 1.412 . S
C507 C174 1.406 . S
C519 C6 1.480 . S
C534 C20 1.439 . S
C546 C160 1.438 . S
C561 C62 1.432 . S
C573 C34 1.436 . S
C588 C146 1.490 . S
C600 C48 1.380 . S
C615 C22 2.309 . S
C627 C8 2.304 . S
C642 C50 1.504 . S
C654 C36 1.512 . S
C669 C148 2.292 . S
C681 C64 2.299 . S
C696 C104 1.655 . S
C708 C78 1.776 . S
C723 C92 1.770 . S
C735 C118 1.721 . S
C750 C217 1.663 . S
C762 C76 1.696 . S
C777 C90 1.716 . S
C789 C203 1.657 . S
C804 C132 1.732 . S
C816 C105 1.689 . S
C831 C119 1.648 . S
C843 C188 1.711 . S
C858 C91 1.022 . S
C870 C77 1.019 . S
C885 C120 1.844 . S
C897 C106 1.844 . S
C912 C133 1.022 . S
C924 C189 1.018 . S
C939 C147 1.450 . S
C951 C161 1.362 . S
C966 C175 1.378 . S
C978 C63 1.461 . S
C993 C176 1.504 . S
C1005 C162 1.510 . S
C1020 C202 1.659 . S
C1032 C190 1.777 . S
C1047 C134 1.747 . S
C1059 C216 1.682 . S
C1074 C218 1.842 . S
C1086 C204 1.843 . S
