# Generated by pormake.
# Topology ums, (4)-cn, num edge types: 1
# Building blocks:
#     Node 0, Type 0, BuildingBlock: GALJAG_clean_sbu_0, # of connection points: 4
#     Node 1, Type 0, BuildingBlock: GALJAG_clean_sbu_0, # of connection points: 4
#     Node 2, Type 0, BuildingBlock: GALJAG_clean_sbu_0, # of connection points: 4
#     Node 3, Type 0, BuildingBlock: GALJAG_clean_sbu_0, # of connection points: 4
#     Node 4, Type 0, BuildingBlock: GALJAG_clean_sbu_0, # of connection points: 4
#     Node 5, Type 0, BuildingBlock: GALJAG_clean_sbu_0, # of connection points: 4
#     Node 6, Type 0, BuildingBlock: GALJAG_clean_sbu_0, # of connection points: 4
#     Node 7, Type 0, BuildingBlock: GALJAG_clean_sbu_0, # of connection points: 4
#     Node 8, Type 0, BuildingBlock: GALJAG_clean_sbu_0, # of connection points: 4
#     Node 9, Type 0, BuildingBlock: GALJAG_clean_sbu_0, # of connection points: 4
#     Node 10, Type 0, BuildingBlock: GALJAG_clean_sbu_0, # of connection points: 4
#     Node 11, Type 0, BuildingBlock: GALJAG_clean_sbu_0, # of connection points: 4
#     Node 12, Type 0, BuildingBlock: GALJAG_clean_sbu_0, # of connection points: 4
#     Node 13, Type 0, BuildingBlock: GALJAG_clean_sbu_0, # of connection points: 4
#     Node 14, Type 0, BuildingBlock: GALJAG_clean_sbu_0, # of connection points: 4
#     Node 15, Type 0, BuildingBlock: GALJAG_clean_sbu_0, # of connection points: 4
#     Node 16, Type 0, BuildingBlock: GALJAG_clean_sbu_0, # of connection points: 4
#     Node 17, Type 0, BuildingBlock: GALJAG_clean_sbu_0, # of connection points: 4
#     Node 18, Type 0, BuildingBlock: GALJAG_clean_sbu_0, # of connection points: 4
#     Node 19, Type 0, BuildingBlock: GALJAG_clean_sbu_0, # of connection points: 4
#     Node 20, Type 0, BuildingBlock: GALJAG_clean_sbu_0, # of connection points: 4
#     Node 21, Type 0, BuildingBlock: GALJAG_clean_sbu_0, # of connection points: 4
#     Node 22, Type 0, BuildingBlock: GALJAG_clean_sbu_0, # of connection points: 4
#     Node 23, Type 0, BuildingBlock: GALJAG_clean_sbu_0, # of connection points: 4
#     Node 24, Type 0, BuildingBlock: GALJAG_clean_sbu_0, # of connection points: 4
#     Node 25, Type 0, BuildingBlock: GALJAG_clean_sbu_0, # of connection points: 4
#     Node 26, Type 0, BuildingBlock: GALJAG_clean_sbu_0, # of connection points: 4
#     Node 27, Type 0, BuildingBlock: GALJAG_clean_sbu_0, # of connection points: 4
#     Node 28, Type 0, BuildingBlock: GALJAG_clean_sbu_0, # of connection points: 4
#     Node 29, Type 0, BuildingBlock: GALJAG_clean_sbu_0, # of connection points: 4
#     Node 30, Type 0, BuildingBlock: GALJAG_clean_sbu_0, # of connection points: 4
#     Node 31, Type 0, BuildingBlock: GALJAG_clean_sbu_0, # of connection points: 4
#     Node 32, Type 0, BuildingBlock: GALJAG_clean_sbu_0, # of connection points: 4
#     Node 33, Type 0, BuildingBlock: GALJAG_clean_sbu_0, # of connection points: 4
#     Node 34, Type 0, BuildingBlock: GALJAG_clean_sbu_0, # of connection points: 4
#     Node 35, Type 0, BuildingBlock: GALJAG_clean_sbu_0, # of connection points: 4
#     Edge 36, Type (0, 0), BuildingBlock: XUDNAN_clean_linker_2, # of connection points: 2
#     Edge 37, Type (0, 0), BuildingBlock: XUDNAN_clean_linker_2, # of connection points: 2
#     Edge 38, Type (0, 0), BuildingBlock: XUDNAN_clean_linker_2, # of connection points: 2
#     Edge 39, Type (0, 0), BuildingBlock: XUDNAN_clean_linker_2, # of connection points: 2
#     Edge 40, Type (0, 0), BuildingBlock: XUDNAN_clean_linker_2, # of connection points: 2
#     Edge 41, Type (0, 0), BuildingBlock: XUDNAN_clean_linker_2, # of connection points: 2
#     Edge 42, Type (0, 0), BuildingBlock: XUDNAN_clean_linker_2, # of connection points: 2
#     Edge 43, Type (0, 0), BuildingBlock: XUDNAN_clean_linker_2, # of connection points: 2
#     Edge 44, Type (0, 0), BuildingBlock: XUDNAN_clean_linker_2, # of connection points: 2
#     Edge 45, Type (0, 0), BuildingBlock: XUDNAN_clean_linker_2, # of connection points: 2
#     Edge 46, Type (0, 0), BuildingBlock: XUDNAN_clean_linker_2, # of connection points: 2
#     Edge 47, Type (0, 0), BuildingBlock: XUDNAN_clean_linker_2, # of connection points: 2
#     Edge 48, Type (0, 0), BuildingBlock: XUDNAN_clean_linker_2, # of connection points: 2
#     Edge 49, Type (0, 0), BuildingBlock: XUDNAN_clean_linker_2, # of connection points: 2
#     Edge 50, Type (0, 0), BuildingBlock: XUDNAN_clean_linker_2, # of connection points: 2
#     Edge 51, Type (0, 0), BuildingBlock: XUDNAN_clean_linker_2, # of connection points: 2
#     Edge 52, Type (0, 0), BuildingBlock: XUDNAN_clean_linker_2, # of connection points: 2
#     Edge 53, Type (0, 0), BuildingBlock: XUDNAN_clean_linker_2, # of connection points: 2
#     Edge 54, Type (0, 0), BuildingBlock: XUDNAN_clean_linker_2, # of connection points: 2
#     Edge 55, Type (0, 0), BuildingBlock: XUDNAN_clean_linker_2, # of connection points: 2
#     Edge 56, Type (0, 0), BuildingBlock: XUDNAN_clean_linker_2, # of connection points: 2
#     Edge 57, Type (0, 0), BuildingBlock: XUDNAN_clean_linker_2, # of connection points: 2
#     Edge 58, Type (0, 0), BuildingBlock: XUDNAN_clean_linker_2, # of connection points: 2
#     Edge 59, Type (0, 0), BuildingBlock: XUDNAN_clean_linker_2, # of connection points: 2
#     Edge 60, Type (0, 0), BuildingBlock: XUDNAN_clean_linker_2, # of connection points: 2
#     Edge 61, Type (0, 0), BuildingBlock: XUDNAN_clean_linker_2, # of connection points: 2
#     Edge 62, Type (0, 0), BuildingBlock: XUDNAN_clean_linker_2, # of connection points: 2
#     Edge 63, Type (0, 0), BuildingBlock: XUDNAN_clean_linker_2, # of connection points: 2
#     Edge 64, Type (0, 0), BuildingBlock: XUDNAN_clean_linker_2, # of connection points: 2
#     Edge 65, Type (0, 0), BuildingBlock: XUDNAN_clean_linker_2, # of connection points: 2
#     Edge 66, Type (0, 0), BuildingBlock: XUDNAN_clean_linker_2, # of connection points: 2
#     Edge 67, Type (0, 0), BuildingBlock: XUDNAN_clean_linker_2, # of connection points: 2
#     Edge 68, Type (0, 0), BuildingBlock: XUDNAN_clean_linker_2, # of connection points: 2
#     Edge 69, Type (0, 0), BuildingBlock: XUDNAN_clean_linker_2, # of connection points: 2
#     Edge 70, Type (0, 0), BuildingBlock: XUDNAN_clean_linker_2, # of connection points: 2
#     Edge 71, Type (0, 0), BuildingBlock: XUDNAN_clean_linker_2, # of connection points: 2
#     Edge 72, Type (0, 0), BuildingBlock: XUDNAN_clean_linker_2, # of connection points: 2
#     Edge 73, Type (0, 0), BuildingBlock: XUDNAN_clean_linker_2, # of connection points: 2
#     Edge 74, Type (0, 0), BuildingBlock: XUDNAN_clean_linker_2, # of connection points: 2
#     Edge 75, Type (0, 0), BuildingBlock: XUDNAN_clean_linker_2, # of connection points: 2
#     Edge 76, Type (0, 0), BuildingBlock: XUDNAN_clean_linker_2, # of connection points: 2
#     Edge 77, Type (0, 0), BuildingBlock: XUDNAN_clean_linker_2, # of connection points: 2
#     Edge 78, Type (0, 0), BuildingBlock: XUDNAN_clean_linker_2, # of connection points: 2
#     Edge 79, Type (0, 0), BuildingBlock: XUDNAN_clean_linker_2, # of connection points: 2
#     Edge 80, Type (0, 0), BuildingBlock: XUDNAN_clean_linker_2, # of connection points: 2
#     Edge 81, Type (0, 0), BuildingBlock: XUDNAN_clean_linker_2, # of connection points: 2
#     Edge 82, Type (0, 0), BuildingBlock: XUDNAN_clean_linker_2, # of connection points: 2
#     Edge 83, Type (0, 0), BuildingBlock: XUDNAN_clean_linker_2, # of connection points: 2
#     Edge 84, Type (0, 0), BuildingBlock: XUDNAN_clean_linker_2, # of connection points: 2
#     Edge 85, Type (0, 0), BuildingBlock: XUDNAN_clean_linker_2, # of connection points: 2
#     Edge 86, Type (0, 0), BuildingBlock: XUDNAN_clean_linker_2, # of connection points: 2
#     Edge 87, Type (0, 0), BuildingBlock: XUDNAN_clean_linker_2, # of connection points: 2
#     Edge 88, Type (0, 0), BuildingBlock: XUDNAN_clean_linker_2, # of connection points: 2
#     Edge 89, Type (0, 0), BuildingBlock: XUDNAN_clean_linker_2, # of connection points: 2
#     Edge 90, Type (0, 0), BuildingBlock: XUDNAN_clean_linker_2, # of connection points: 2
#     Edge 91, Type (0, 0), BuildingBlock: XUDNAN_clean_linker_2, # of connection points: 2
#     Edge 92, Type (0, 0), BuildingBlock: XUDNAN_clean_linker_2, # of connection points: 2
#     Edge 93, Type (0, 0), BuildingBlock: XUDNAN_clean_linker_2, # of connection points: 2
#     Edge 94, Type (0, 0), BuildingBlock: XUDNAN_clean_linker_2, # of connection points: 2
#     Edge 95, Type (0, 0), BuildingBlock: XUDNAN_clean_linker_2, # of connection points: 2
#     Edge 96, Type (0, 0), BuildingBlock: XUDNAN_clean_linker_2, # of connection points: 2
#     Edge 97, Type (0, 0), BuildingBlock: XUDNAN_clean_linker_2, # of connection points: 2
#     Edge 98, Type (0, 0), BuildingBlock: XUDNAN_clean_linker_2, # of connection points: 2
#     Edge 99, Type (0, 0), BuildingBlock: XUDNAN_clean_linker_2, # of connection points: 2
#     Edge 100, Type (0, 0), BuildingBlock: XUDNAN_clean_linker_2, # of connection points: 2
#     Edge 101, Type (0, 0), BuildingBlock: XUDNAN_clean_linker_2, # of connection points: 2
#     Edge 102, Type (0, 0), BuildingBlock: XUDNAN_clean_linker_2, # of connection points: 2
#     Edge 103, Type (0, 0), BuildingBlock: XUDNAN_clean_linker_2, # of connection points: 2
#     Edge 104, Type (0, 0), BuildingBlock: XUDNAN_clean_linker_2, # of connection points: 2
#     Edge 105, Type (0, 0), BuildingBlock: XUDNAN_clean_linker_2, # of connection points: 2
#     Edge 106, Type (0, 0), BuildingBlock: XUDNAN_clean_linker_2, # of connection points: 2
#     Edge 107, Type (0, 0), BuildingBlock: XUDNAN_clean_linker_2, # of connection points: 2
# Relax obj value: 0.176
# Max RMSD: 0.175
# Mean RMSD: 0.174
data_MOF--net-ums--node1-GALJAG_clean_sbu_0--edge1-XUDNAN_clean_linker_2
_symmetry_space_group_name_H-M    P1
_symmetry_Int_Tables_number       1
_symmetry_cell_setting            triclinic
loop_
_symmetry_equiv_pos_as_xyz
'x, y, z'
_cell_length_a     96.728838
_cell_length_b     96.70901
_cell_length_c     26.013049
_cell_angle_alpha  89.998335
_cell_angle_beta   90.011748
_cell_angle_gamma 119.97388
loop_
_atom_site_label
_atom_site_type_symbol
_atom_site_fract_x
_atom_site_fract_y
_atom_site_fract_z
_atom_type_partial_charge
In0 In 0.15405 0.24096 0.14885 0.0
O1 O 0.16242 0.2229 0.16016 0.0
O2 O 0.17395 0.2446 0.203 0.0
C3 C 0.13576 0.22915 0.06412 0.0
C4 C 0.13288 0.23518 0.22486 0.0
C5 C 0.17554 0.26968 0.11017 0.0
O6 O 0.14485 0.22407 0.07908 0.0
O7 O 0.13527 0.23923 0.09353 0.0
O8 O 0.16805 0.26834 0.15137 0.0
O9 O 0.17268 0.25663 0.09026 0.0
C10 C 0.17284 0.23128 0.19335 0.0
O11 O 0.13854 0.2476 0.19754 0.0
O12 O 0.13772 0.22564 0.21379 0.0
In13 In 0.74558 0.91306 0.18421 0.0
O14 O 0.73586 0.90933 0.26628 0.0
O15 O 0.75253 0.90182 0.24877 0.0
C16 C 0.71621 0.90396 0.14672 0.0
C17 C 0.76784 0.94397 0.19914 0.0
C18 C 0.75383 0.89952 0.10855 0.0
O19 O 0.71943 0.89463 0.17103 0.0
O20 O 0.72768 0.91808 0.14267 0.0
O21 O 0.7542 0.91266 0.10261 0.0
O22 O 0.74984 0.89359 0.15294 0.0
C23 C 0.74392 0.90322 0.28235 0.0
O24 O 0.77139 0.93333 0.18975 0.0
O25 O 0.75307 0.93912 0.19921 0.0
In26 In 0.09091 0.84407 0.15999 0.0
O27 O 0.06358 0.83189 0.1544 0.0
O28 O 0.07372 0.82885 0.22283 0.0
C29 C 0.09641 0.85727 0.06565 0.0
C30 C 0.10412 0.86942 0.22407 0.0
C31 C 0.10253 0.8238 0.15309 0.0
O32 O 0.08278 0.84634 0.07971 0.0
O33 O 0.10706 0.86196 0.09991 0.0
O34 O 0.10263 0.83066 0.1943 0.0
O35 O 0.09634 0.8269 0.11553 0.0
C36 C 0.06124 0.82596 0.19894 0.0
O37 O 0.11136 0.86232 0.20928 0.0
O38 O 0.09046 0.86423 0.20453 0.0
In39 In 0.24852 0.16553 0.33424 0.0
O40 O 0.25541 0.17012 0.24999 0.0
O41 O 0.24146 0.14592 0.27331 0.0
C42 C 0.2788 0.18765 0.35784 0.0
C43 C 0.23039 0.17943 0.32698 0.0
C44 C 0.23964 0.14459 0.4138 0.0
O45 O 0.2753 0.17471 0.33565 0.0
O46 O 0.26707 0.18956 0.36724 0.0
O47 O 0.23057 0.14924 0.39568 0.0
O48 O 0.25271 0.14994 0.39057 0.0
C49 C 0.24842 0.15563 0.237 0.0
O50 O 0.2424 0.18459 0.35607 0.0
O51 O 0.22713 0.16684 0.3027 0.0
In52 In 0.83974 0.08351 0.36501 0.0
O53 O 0.84428 0.09363 0.28363 0.0
O54 O 0.86406 0.09568 0.3255 0.0
C55 C 0.81752 0.09191 0.38462 0.0
C56 C 0.82813 0.05318 0.33278 0.0
C57 C 0.85404 0.09123 0.458 0.0
O58 O 0.83086 0.10132 0.3646 0.0
O59 O 0.81521 0.0781 0.39387 0.0
O60 O 0.84468 0.07694 0.44502 0.0
O61 O 0.85633 0.10141 0.42394 0.0
C62 C 0.85901 0.09832 0.2841 0.0
O63 O 0.84178 0.06123 0.35276 0.0
O64 O 0.82023 0.06031 0.33006 0.0
In65 In 0.91638 0.74863 0.30809 0.0
O66 O 0.9077 0.74512 0.22474 0.0
O67 O 0.91023 0.76536 0.26539 0.0
C68 C 0.9118 0.71957 0.33448 0.0
C69 C 0.94825 0.76684 0.2977 0.0
C70 C 0.89859 0.75073 0.38412 0.0
O71 O 0.90385 0.7213 0.29909 0.0
O72 O 0.92241 0.73243 0.35408 0.0
O73 O 0.91343 0.76029 0.38076 0.0
O74 O 0.89279 0.74058 0.3484 0.0
C75 C 0.90652 0.75756 0.22387 0.0
O76 O 0.94092 0.7673 0.33724 0.0
O77 O 0.93951 0.75728 0.26323 0.0
In78 In 0.84485 0.75945 0.81234 0.0
O79 O 0.82545 0.76588 0.80302 0.0
O80 O 0.84933 0.78417 0.7884 0.0
C81 C 0.86417 0.76947 0.8955 0.0
C82 C 0.85329 0.75477 0.7175 0.0
C83 C 0.82349 0.73075 0.85118 0.0
O84 O 0.8534 0.77301 0.88844 0.0
O85 O 0.86574 0.76166 0.85941 0.0
O86 O 0.81963 0.74085 0.83704 0.0
O87 O 0.83801 0.73504 0.84511 0.0
C88 C 0.83471 0.78008 0.7891 0.0
O89 O 0.83951 0.74641 0.73595 0.0
O90 O 0.86311 0.76547 0.74729 0.0
In91 In 0.24992 0.08764 0.83287 0.0
O92 O 0.25689 0.10033 0.75483 0.0
O93 O 0.23305 0.09116 0.78029 0.0
C94 C 0.27993 0.09421 0.85481 0.0
C95 C 0.2307 0.05565 0.82308 0.0
C96 C 0.24696 0.10501 0.90868 0.0
O97 O 0.27512 0.09365 0.80931 0.0
O98 O 0.26952 0.09104 0.88897 0.0
O99 O 0.24198 0.09024 0.91328 0.0
O100 O 0.25312 0.11087 0.8656 0.0
C101 C 0.2432 0.09831 0.7454 0.0
O102 O 0.22629 0.06446 0.84466 0.0
O103 O 0.24501 0.06284 0.80834 0.0
In104 In 0.91576 0.16353 0.86543 0.0
O105 O 0.94067 0.18449 0.88053 0.0
O106 O 0.93852 0.16642 0.8292 0.0
C107 C 0.90895 0.14803 0.95629 0.0
C108 C 0.90216 0.14374 0.78455 0.0
C109 C 0.90419 0.18378 0.87386 0.0
O110 O 0.89846 0.14612 0.92388 0.0
O111 O 0.92312 0.15755 0.9425 0.0
O112 O 0.89826 0.17064 0.89714 0.0
O113 O 0.91585 0.18669 0.84526 0.0
C114 C 0.94759 0.17966 0.85043 0.0
O115 O 0.90493 0.15794 0.78491 0.0
O116 O 0.90621 0.1395 0.82496 0.0
In117 In 0.7493 0.83795 0.68443 0.0
O118 O 0.74679 0.8344 0.77098 0.0
O119 O 0.75579 0.858 0.74298 0.0
C120 C 0.71978 0.81414 0.65929 0.0
C121 C 0.77232 0.82987 0.68498 0.0
C122 C 0.7512 0.85903 0.61328 0.0
O123 O 0.72349 0.81956 0.70434 0.0
O124 O 0.73101 0.82041 0.62721 0.0
O125 O 0.75877 0.85156 0.60921 0.0
O126 O 0.74324 0.85634 0.65423 0.0
C127 C 0.75206 0.84891 0.78154 0.0
O128 O 0.77549 0.84419 0.68277 0.0
O129 O 0.75763 0.81973 0.68459 0.0
In130 In 0.16163 0.91695 0.64751 0.0
O131 O 0.15845 0.9379 0.67149 0.0
O132 O 0.1819 0.94143 0.6732 0.0
C133 C 0.14892 0.91584 0.55364 0.0
C134 C 0.14407 0.89934 0.72821 0.0
C135 C 0.18105 0.90497 0.6284 0.0
O136 O 0.16314 0.9191 0.55991 0.0
O137 O 0.14115 0.91349 0.5947 0.0
O138 O 0.16612 0.89614 0.63305 0.0
O139 O 0.18611 0.91969 0.63439 0.0
C140 C 0.17295 0.94718 0.68174 0.0
O141 O 0.13864 0.89706 0.683 0.0
O142 O 0.15849 0.9101 0.73236 0.0
In143 In 0.08221 0.24266 0.64644 0.0
O144 O 0.05654 0.22363 0.6661 0.0
O145 O 0.06562 0.24684 0.69758 0.0
C146 C 0.08443 0.23035 0.55612 0.0
C147 C 0.09667 0.23634 0.72403 0.0
C148 C 0.09398 0.27231 0.60747 0.0
O149 O 0.07174 0.22978 0.571 0.0
O150 O 0.09575 0.23629 0.58819 0.0
O151 O 0.10196 0.26886 0.63801 0.0
O152 O 0.08007 0.26106 0.59839 0.0
C153 C 0.05409 0.23276 0.69463 0.0
O154 O 0.09724 0.2496 0.71899 0.0
O155 O 0.08932 0.22639 0.68864 0.0
In156 In 0.82864 0.58734 0.53205 0.0
O157 O 0.83357 0.5956 0.61539 0.0
O158 O 0.80942 0.58017 0.59434 0.0
C159 C 0.85253 0.61511 0.4945 0.0
C160 C 0.83721 0.56467 0.53896 0.0
C161 C 0.8064 0.58465 0.46424 0.0
O162 O 0.84944 0.61283 0.54189 0.0
O163 O 0.84375 0.6034 0.46614 0.0
O164 O 0.81317 0.57638 0.46089 0.0
O165 O 0.81043 0.59377 0.50289 0.0
C166 C 0.81921 0.58792 0.62963 0.0
O167 O 0.82283 0.56126 0.53789 0.0
O168 O 0.84712 0.57931 0.53429 0.0
In169 In 0.41982 0.25369 0.50687 0.0
O170 O 0.42602 0.27877 0.48358 0.0
O171 O 0.44101 0.27646 0.53871 0.0
C172 C 0.43043 0.24337 0.42742 0.0
C173 C 0.4189 0.24306 0.60379 0.0
C174 C 0.38943 0.24395 0.47873 0.0
O175 O 0.43606 0.25798 0.43728 0.0
O176 O 0.42012 0.23405 0.45904 0.0
O177 O 0.39855 0.25765 0.49684 0.0
O178 O 0.39556 0.23516 0.47546 0.0
C179 C 0.43783 0.28571 0.51348 0.0
O180 O 0.40986 0.24803 0.58795 0.0
O181 O 0.42846 0.24322 0.57047 0.0
In182 In 0.74862 0.16815 0.487 0.0
O183 O 0.75832 0.1732 0.56902 0.0
O184 O 0.76031 0.19263 0.52522 0.0
C185 C 0.75885 0.147 0.47389 0.0
C186 C 0.71809 0.15756 0.51496 0.0
C187 C 0.75513 0.18043 0.39114 0.0
O188 O 0.74424 0.14287 0.4737 0.0
O189 O 0.7682 0.16167 0.48174 0.0
O190 O 0.74162 0.16893 0.40329 0.0
O191 O 0.7651 0.1858 0.42736 0.0
C192 C 0.76283 0.18789 0.56743 0.0
O193 O 0.72659 0.17089 0.49341 0.0
O194 O 0.72488 0.14944 0.52145 0.0
In195 In 0.91101 0.49625 0.67731 0.0
O196 O 0.88615 0.49214 0.66011 0.0
O197 O 0.90536 0.51613 0.66228 0.0
C198 C 0.90118 0.4757 0.75725 0.0
C199 C 0.91229 0.48633 0.58146 0.0
C200 C 0.94027 0.5172 0.714 0.0
O201 O 0.89579 0.48495 0.74859 0.0
O202 O 0.91111 0.47636 0.72452 0.0
O203 O 0.93784 0.50654 0.68158 0.0
O204 O 0.92794 0.51765 0.72718 0.0
C205 C 0.89065 0.50676 0.65472 0.0
O206 O 0.91901 0.50083 0.59425 0.0
O207 O 0.90509 0.4766 0.61752 0.0
In208 In 0.51215 0.42357 0.69356 0.0
O209 O 0.52898 0.4464 0.6501 0.0
O210 O 0.52866 0.42509 0.62824 0.0
C211 C 0.49119 0.43234 0.72748 0.0
C212 C 0.49384 0.39511 0.64767 0.0
C213 C 0.52978 0.42809 0.77902 0.0
O214 O 0.49868 0.43741 0.68569 0.0
O215 O 0.49386 0.42252 0.75093 0.0
O216 O 0.5189 0.41438 0.76547 0.0
O217 O 0.53207 0.43914 0.74848 0.0
C218 C 0.5344 0.43983 0.62089 0.0
O219 O 0.5042 0.39725 0.68115 0.0
O220 O 0.49254 0.40722 0.63826 0.0
In221 In 0.57523 0.07764 0.63041 0.0
O222 O 0.57425 0.07186 0.54536 0.0
O223 O 0.56318 0.08504 0.56897 0.0
C224 C 0.56941 0.04852 0.66093 0.0
C225 C 0.60649 0.10015 0.62605 0.0
C226 C 0.55653 0.08071 0.70112 0.0
O227 O 0.56709 0.05137 0.6154 0.0
O228 O 0.57501 0.06039 0.69065 0.0
O229 O 0.57157 0.08819 0.70419 0.0
O230 O 0.55098 0.07226 0.66121 0.0
C231 C 0.56676 0.07886 0.53227 0.0
O232 O 0.5955 0.10355 0.62508 0.0
O233 O 0.60175 0.0855 0.63137 0.0
In234 In 0.49973 0.0801 0.1317 0.0
O235 O 0.48111 0.08766 0.11938 0.0
O236 O 0.50546 0.10591 0.12125 0.0
C237 C 0.52269 0.08597 0.20149 0.0
C238 C 0.50741 0.07766 0.03363 0.0
C239 C 0.47774 0.05302 0.17843 0.0
O240 O 0.51367 0.09187 0.20518 0.0
O241 O 0.52063 0.07781 0.16143 0.0
O242 O 0.4852 0.0529 0.13873 0.0
O243 O 0.48087 0.06672 0.19299 0.0
C244 C 0.4911 0.10235 0.11569 0.0
O245 O 0.49333 0.06969 0.05064 0.0
O246 O 0.51762 0.08663 0.06629 0.0
In247 In 0.91159 0.41869 0.17454 0.0
O248 O 0.91721 0.42747 0.09119 0.0
O249 O 0.89633 0.42532 0.12599 0.0
C250 C 0.94089 0.425 0.20431 0.0
C251 C 0.89217 0.38715 0.15894 0.0
C252 C 0.90855 0.43573 0.25112 0.0
O253 O 0.93876 0.43168 0.1658 0.0
O254 O 0.92824 0.41466 0.22594 0.0
O255 O 0.90262 0.42078 0.25404 0.0
O256 O 0.91552 0.44185 0.20929 0.0
C257 C 0.90497 0.42888 0.08641 0.0
O258 O 0.8879 0.39555 0.18407 0.0
O259 O 0.90639 0.39455 0.14307 0.0
In260 In 0.58365 0.49296 0.19792 0.0
O261 O 0.60175 0.51636 0.16166 0.0
O262 O 0.60965 0.50006 0.18091 0.0
C263 C 0.58529 0.48371 0.29449 0.0
C264 C 0.57298 0.47373 0.11492 0.0
C265 C 0.56224 0.50234 0.2196 0.0
O266 O 0.59312 0.49803 0.27982 0.0
O267 O 0.57731 0.47386 0.25956 0.0
O268 O 0.55818 0.4881 0.20875 0.0
O269 O 0.57706 0.51193 0.21827 0.0
C270 C 0.61302 0.51335 0.1614 0.0
O271 O 0.57481 0.48758 0.11584 0.0
O272 O 0.57631 0.4693 0.15652 0.0
In273 In 0.41845 0.17491 0.0098 0.0
O274 O 0.41273 0.1786 0.09274 0.0
O275 O 0.43388 0.1969 0.05802 0.0
C276 C 0.38995 0.15076 0.97816 0.0
C277 C 0.43788 0.16271 0.0243 0.0
C278 C 0.42054 0.19491 0.93403 0.0
O279 O 0.39134 0.15872 0.01836 0.0
O280 O 0.40292 0.15464 0.95555 0.0
O281 O 0.4282 0.18749 0.93263 0.0
O282 O 0.41227 0.19253 0.97402 0.0
C283 C 0.42512 0.19215 0.0974 0.0
O284 O 0.44208 0.17531 0.99888 0.0
O285 O 0.42382 0.15614 0.04161 0.0
In286 In 0.82498 0.24825 0.9867 0.0
O287 O 0.82113 0.26889 0.00917 0.0
O288 O 0.84464 0.27256 0.01481 0.0
C289 C 0.81015 0.24035 0.89468 0.0
C290 C 0.80574 0.23154 0.06539 0.0
C291 C 0.84788 0.24093 0.96568 0.0
O292 O 0.81817 0.25467 0.90943 0.0
O293 O 0.80939 0.23022 0.92666 0.0
O294 O 0.83644 0.23277 0.99584 0.0
O295 O 0.84809 0.25311 0.94739 0.0
C296 C 0.83549 0.2782 0.02129 0.0
O297 O 0.80045 0.23263 0.02218 0.0
O298 O 0.82077 0.23883 0.0689 0.0
In299 In 0.75555 0.59382 0.03453 0.0
O300 O 0.73191 0.57008 0.0437 0.0
O301 O 0.7312 0.59155 0.03444 0.0
C302 C 0.77043 0.58605 0.96133 0.0
C303 C 0.7625 0.59236 0.13433 0.0
C304 C 0.76565 0.62377 0.00132 0.0
O305 O 0.75594 0.58221 0.95761 0.0
O306 O 0.777 0.593 0.00265 0.0
O307 O 0.7739 0.6205 0.03123 0.0
O308 O 0.75237 0.61203 0.98882 0.0
C309 C 0.72347 0.57668 0.04121 0.0
O310 O 0.7595 0.60279 0.11727 0.0
O311 O 0.76211 0.58269 0.10101 0.0
In312 In 0.49592 0.91844 0.8809 0.0
O313 O 0.49713 0.89515 0.88314 0.0
O314 O 0.51592 0.9162 0.9168 0.0
C315 C 0.47231 0.91125 0.81219 0.0
C316 C 0.48553 0.91924 0.97644 0.0
C317 C 0.51766 0.94484 0.83056 0.0
O318 O 0.48116 0.90511 0.80989 0.0
O319 O 0.47476 0.92012 0.8507 0.0
O320 O 0.51056 0.9455 0.87039 0.0
O321 O 0.51411 0.93093 0.81703 0.0
C322 C 0.51012 0.90154 0.9079 0.0
O323 O 0.49806 0.9306 0.95728 0.0
O324 O 0.47772 0.90755 0.94656 0.0
In325 In 0.08318 0.58119 0.84252 0.0
O326 O 0.0861 0.60572 0.82731 0.0
O327 O 0.10338 0.60461 0.87475 0.0
C328 C 0.09197 0.57371 0.7529 0.0
C329 C 0.0891 0.56773 0.9248 0.0
C330 C 0.05141 0.56955 0.83151 0.0
O331 O 0.09723 0.58801 0.76665 0.0
O332 O 0.08278 0.56341 0.78486 0.0
O333 O 0.05956 0.57992 0.86489 0.0
O334 O 0.05919 0.56493 0.80485 0.0
C335 C 0.09843 0.61321 0.85469 0.0
O336 O 0.07767 0.57048 0.92343 0.0
O337 O 0.09749 0.57166 0.88464 0.0
In338 In 0.41704 0.50382 0.83174 0.0
O339 O 0.41357 0.51788 0.89561 0.0
O340 O 0.43683 0.52127 0.8856 0.0
C341 C 0.43359 0.48812 0.82443 0.0
C342 C 0.38618 0.48217 0.85214 0.0
C343 C 0.42156 0.51947 0.74196 0.0
O344 O 0.42775 0.4895 0.8662 0.0
O345 O 0.43137 0.49492 0.78659 0.0
O346 O 0.4261 0.52664 0.78448 0.0
O347 O 0.41443 0.50444 0.74481 0.0
C348 C 0.42782 0.5247 0.91094 0.0
O349 O 0.39021 0.49529 0.83034 0.0
O350 O 0.39756 0.47976 0.86146 0.0
In351 In 0.57905 0.82387 0.97086 0.0
O352 O 0.5727 0.84095 0.00993 0.0
O353 O 0.55837 0.82761 0.94648 0.0
C354 C 0.57076 0.80296 0.05007 0.0
C355 C 0.57688 0.81304 0.87325 0.0
C356 C 0.60991 0.84573 0.99005 0.0
O357 O 0.58393 0.80878 0.02701 0.0
O358 O 0.56125 0.80702 0.03165 0.0
O359 O 0.60479 0.83092 0.98925 0.0
O360 O 0.59961 0.84963 0.97922 0.0
C361 C 0.56125 0.83811 0.98021 0.0
O362 O 0.58454 0.82758 0.88534 0.0
O363 O 0.57036 0.80369 0.91062 0.0
In364 In 0.17481 0.75212 0.027 0.0
O365 O 0.19431 0.77545 0.99117 0.0
O366 O 0.18593 0.75396 0.94848 0.0
C367 C 0.15721 0.76497 0.06072 0.0
C368 C 0.15528 0.72285 0.98755 0.0
C369 C 0.19115 0.75343 0.11315 0.0
O370 O 0.16423 0.7688 0.0178 0.0
O371 O 0.15882 0.75464 0.085 0.0
O372 O 0.17617 0.74612 0.1105 0.0
O373 O 0.19816 0.75929 0.0711 0.0
C374 C 0.19513 0.76887 0.95017 0.0
O375 O 0.16779 0.72604 0.01219 0.0
O376 O 0.15257 0.73428 0.98382 0.0
In377 In 0.24205 0.41081 0.95727 0.0
O378 O 0.24516 0.4107 0.87063 0.0
O379 O 0.23029 0.4194 0.89829 0.0
C380 C 0.22811 0.37906 0.97662 0.0
C381 C 0.27421 0.42565 0.9609 0.0
C382 C 0.2293 0.42128 0.0289 0.0
O383 O 0.2305 0.38465 0.9317 0.0
O384 O 0.23256 0.3894 0.01157 0.0
O385 O 0.24351 0.4241 0.03161 0.0
O386 O 0.22181 0.41378 0.98915 0.0
C387 C 0.23645 0.41657 0.85985 0.0
O388 O 0.26685 0.4329 0.94889 0.0
O389 O 0.26535 0.41124 0.97336 0.0
In390 In 0.1702 0.4138 0.45726 0.0
O391 O 0.16717 0.43589 0.45304 0.0
O392 O 0.14716 0.41369 0.47417 0.0
C393 C 0.19328 0.42399 0.5292 0.0
C394 C 0.18148 0.41981 0.35964 0.0
C395 C 0.1529 0.38186 0.47464 0.0
O396 O 0.18151 0.42622 0.53315 0.0
O397 O 0.19375 0.41737 0.4879 0.0
O398 O 0.15462 0.38785 0.43053 0.0
O399 O 0.15997 0.39187 0.50977 0.0
C400 C 0.1525 0.42823 0.46414 0.0
O401 O 0.167 0.41433 0.37081 0.0
O402 O 0.19047 0.4223 0.39784 0.0
In403 In 0.58399 0.74927 0.47154 0.0
O404 O 0.59078 0.76294 0.39563 0.0
O405 O 0.56624 0.75061 0.41737 0.0
C406 C 0.61236 0.75697 0.51412 0.0
C407 C 0.57253 0.71869 0.4428 0.0
C408 C 0.57568 0.76368 0.54405 0.0
O409 O 0.61138 0.76329 0.4727 0.0
O410 O 0.59916 0.74665 0.53272 0.0
O411 O 0.57025 0.74875 0.54438 0.0
O412 O 0.58466 0.77097 0.50656 0.0
C413 C 0.57659 0.75915 0.38432 0.0
O414 O 0.56551 0.72249 0.47626 0.0
O415 O 0.58521 0.73019 0.42516 0.0
In416 In 0.24655 0.82534 0.51881 0.0
O417 O 0.22822 0.81111 0.45614 0.0
O418 O 0.24634 0.80537 0.47162 0.0
C419 C 0.23542 0.84584 0.53175 0.0
C420 C 0.27571 0.84207 0.47595 0.0
C421 C 0.24313 0.81408 0.61629 0.0
O422 O 0.22617 0.83109 0.52466 0.0
O423 O 0.25004 0.85013 0.53107 0.0
O424 O 0.25462 0.82733 0.6024 0.0
O425 O 0.23368 0.80612 0.58054 0.0
C426 C 0.2345 0.8028 0.4444 0.0
O427 O 0.27309 0.83309 0.51443 0.0
O428 O 0.26371 0.84269 0.45989 0.0
In429 In 0.08313 0.50326 0.34243 0.0
O430 O 0.07662 0.50981 0.41957 0.0
O431 O 0.09857 0.52672 0.38602 0.0
C432 C 0.05155 0.48389 0.3252 0.0
C433 C 0.09602 0.48456 0.36312 0.0
C434 C 0.09206 0.51968 0.25342 0.0
O435 O 0.06118 0.49221 0.29037 0.0
O436 O 0.05777 0.48544 0.36903 0.0
O437 O 0.0964 0.50974 0.26549 0.0
O438 O 0.08359 0.5215 0.28668 0.0
C439 C 0.08911 0.52321 0.42333 0.0
O440 O 0.0817 0.47917 0.35029 0.0
O441 O 0.10426 0.49958 0.36358 0.0
In442 In 0.49026 0.57471 0.33073 0.0
O443 O 0.50946 0.59939 0.30355 0.0
O444 O 0.5052 0.59602 0.38372 0.0
C445 C 0.47501 0.57171 0.24052 0.0
C446 C 0.47022 0.56495 0.41176 0.0
C447 C 0.50213 0.55475 0.32337 0.0
O448 O 0.4888 0.57358 0.24363 0.0
O449 O 0.46885 0.57176 0.28319 0.0
O450 O 0.48757 0.5503 0.31745 0.0
O451 O 0.51082 0.56931 0.33491 0.0
C452 C 0.51292 0.60548 0.34779 0.0
O453 O 0.47732 0.55771 0.39679 0.0
O454 O 0.47305 0.57707 0.38544 0.0
In455 In 0.42043 0.91914 0.38068 0.0
O456 O 0.39574 0.91409 0.3559 0.0
O457 O 0.39697 0.89574 0.39627 0.0
C458 C 0.43822 0.91323 0.31392 0.0
C459 C 0.42832 0.91749 0.47955 0.0
C460 C 0.42931 0.94925 0.35042 0.0
O461 O 0.42314 0.90563 0.3125 0.0
O462 O 0.44412 0.92294 0.35083 0.0
O463 O 0.42703 0.94513 0.3971 0.0
O464 O 0.42701 0.93826 0.31968 0.0
C465 C 0.38824 0.90036 0.37527 0.0
O466 O 0.42214 0.92569 0.46554 0.0
O467 O 0.43079 0.91024 0.44352 0.0
H468 H 0.20646 0.17274 0.25773 0.0
H469 H 0.23544 0.20646 0.37614 0.0
H470 H 0.22328 0.22301 0.35619 0.0
H471 H 0.20941 0.2012 0.16744 0.0
H472 H 0.1892 0.18966 0.14428 0.0
H473 H 0.19916 0.17971 0.17037 0.0
H474 H 0.17628 0.1649 0.23618 0.0
H475 H 0.16615 0.17468 0.20993 0.0
H476 H 0.17069 0.17624 0.27762 0.0
H477 H 0.20949 0.23679 0.31962 0.0
H478 H 0.19381 0.2463 0.27172 0.0
H479 H 0.17363 0.20361 0.17715 0.0
C480 C 0.21003 0.18346 0.28006 0.0
C481 C 0.22184 0.1883 0.31862 0.0
C482 C 0.22636 0.2025 0.34658 0.0
C483 C 0.21954 0.21199 0.33548 0.0
C484 C 0.2082 0.20707 0.29647 0.0
C485 C 0.20335 0.19308 0.26946 0.0
C486 C 0.19132 0.19082 0.22822 0.0
C487 C 0.19766 0.19032 0.1744 0.0
C488 C 0.17515 0.17577 0.23863 0.0
C489 C 0.19036 0.20584 0.23578 0.0
C490 C 0.20018 0.21503 0.27541 0.0
C491 C 0.20166 0.22965 0.28879 0.0
C492 C 0.19276 0.23497 0.26122 0.0
C493 C 0.18251 0.22569 0.22078 0.0
C494 C 0.18134 0.21094 0.20797 0.0
H495 H 0.79792 0.03239 0.29895 0.0
H496 H 0.84464 0.03726 0.32071 0.0
H497 H 0.83465 0.01028 0.28433 0.0
H498 H 0.7754 0.99117 0.3344 0.0
H499 H 0.75986 0.98645 0.28783 0.0
H500 H 0.77092 0.00631 0.31388 0.0
H501 H 0.77852 0.01782 0.22163 0.0
H502 H 0.76757 0.99796 0.1953 0.0
H503 H 0.78833 0.01066 0.17928 0.0
H504 H 0.8195 0.98276 0.2457 0.0
H505 H 0.79984 0.95598 0.21334 0.0
H506 H 0.76293 0.969 0.21874 0.0
C507 C 0.80606 0.02779 0.29596 0.0
C508 C 0.82206 0.0369 0.31248 0.0
C509 C 0.83232 0.03044 0.30831 0.0
C510 C 0.82678 0.01518 0.28751 0.0
C511 C 0.81095 0.00654 0.27131 0.0
C512 C 0.8007 0.01255 0.27568 0.0
C513 C 0.78409 0.00063 0.25714 0.0
C514 C 0.77185 0.99586 0.30093 0.0
C515 C 0.77936 0.00716 0.21056 0.0
C516 C 0.78656 0.98692 0.2419 0.0
C517 C 0.80217 0.99061 0.2499 0.0
C518 C 0.80725 0.97974 0.23922 0.0
C519 C 0.79602 0.96459 0.22071 0.0
C520 C 0.77989 0.96044 0.21348 0.0
C521 C 0.7752 0.97186 0.22369 0.0
H522 H 0.96591 0.77583 0.2092 0.0
H523 H 0.96996 0.77924 0.37538 0.0
H524 H 0.99937 0.79426 0.36791 0.0
H525 H -0.00015 0.7713 0.18412 0.0
H526 H 0.00592 0.78364 0.12737 0.0
H527 H 0.9852 0.77288 0.14565 0.0
H528 H 0.98441 0.79927 0.14625 0.0
H529 H 0.00511 0.81011 0.12772 0.0
H530 H 0.9986 0.81577 0.18484 0.0
H531 H 0.02815 0.80769 0.34257 0.0
H532 H 0.05463 0.82126 0.30104 0.0
H533 H 0.032 0.81096 0.15101 0.0
C534 C 0.97302 0.77974 0.24395 0.0
C535 C 0.96575 0.77632 0.29291 0.0
C536 C 0.97536 0.78178 0.33756 0.0
C537 C 0.99204 0.79025 0.33369 0.0
C538 C 0.99887 0.79336 0.28486 0.0
C539 C 0.98968 0.7885 0.24074 0.0
C540 C 3e-05 0.79394 0.19296 0.0
C541 C 0.9976 0.77958 0.16063 0.0
C542 C 0.99685 0.80546 0.16107 0.0
C543 C 0.01647 0.80248 0.21713 0.0
C544 C 0.01551 0.80183 0.27019 0.0
C545 C 0.02907 0.80841 0.30109 0.0
C546 C 0.04404 0.81603 0.27715 0.0
C547 C 0.04532 0.8172 0.22291 0.0
C548 C 0.03134 0.81033 0.19258 0.0
H549 H 0.80365 0.77208 0.77648 0.0
H550 H 0.85203 0.81178 0.7625 0.0
H551 H 0.84149 0.8289 0.73089 0.0
H552 H 0.7883 0.78042 0.6625 0.0
H553 H 0.76906 0.77441 0.69038 0.0
H554 H 0.78047 0.7655 0.71242 0.0
H555 H 0.77902 0.77392 0.80599 0.0
H556 H 0.76747 0.78273 0.78431 0.0
H557 H 0.78566 0.79458 0.81987 0.0
H558 H 0.82526 0.84172 0.70236 0.0
H559 H 0.80487 0.84911 0.68025 0.0
H560 H 0.7675 0.80046 0.71031 0.0
C561 C 0.81205 0.7844 0.76702 0.0
C562 C 0.82865 0.79065 0.77214 0.0
C563 C 0.83925 0.80679 0.75899 0.0
C564 C 0.83337 0.81657 0.74091 0.0
C565 C 0.8169 0.80996 0.73592 0.0
C566 C 0.80642 0.79423 0.74861 0.0
C567 C 0.78927 0.78992 0.73983 0.0
C568 C 0.78132 0.77679 0.69883 0.0
C569 C 0.7798 0.785 0.79052 0.0
C570 C 0.79169 0.80571 0.72045 0.0
C571 C 0.80768 0.81716 0.71846 0.0
C572 C 0.81272 0.83281 0.70343 0.0
C573 C 0.80107 0.83689 0.69085 0.0
C574 C 0.78463 0.82532 0.69312 0.0
C575 C 0.77997 0.80952 0.70749 0.0
H576 H 0.23777 0.03396 0.78065 0.0
H577 H 0.19839 0.03927 0.83655 0.0
H578 H 0.17934 0.01196 0.80699 0.0
H579 H 0.21914 0.01263 0.66779 0.0
H580 H 0.22734 0.99953 0.67089 0.0
H581 H 0.23803 0.01913 0.69908 0.0
H582 H 0.23869 0.00679 0.78686 0.0
H583 H 0.22817 0.98715 0.75877 0.0
H584 H 0.22028 0.99164 0.81509 0.0
H585 H 0.16452 0.98501 0.76528 0.0
H586 H 0.15498 0.95913 0.7216 0.0
H587 H 0.20399 0.97094 0.69539 0.0
C588 C 0.22515 0.02928 0.78737 0.0
C589 C 0.21954 0.03871 0.81092 0.0
C590 C 0.20295 0.03221 0.81883 0.0
C591 C 0.19203 0.01674 0.802 0.0
C592 C 0.19792 0.00789 0.77784 0.0
C593 C 0.2141 0.01381 0.77122 0.0
C594 C 0.21728 0.00189 0.74358 0.0
C595 C 0.22596 0.00871 0.6923 0.0
C596 C 0.22666 0.99655 0.77815 0.0
C597 C 0.20036 0.98844 0.73496 0.0
C598 C 0.18938 0.99218 0.75482 0.0
C599 C 0.173 0.98188 0.75004 0.0
C600 C 0.1677 0.96725 0.72493 0.0
C601 C 0.17875 0.96303 0.70525 0.0
C602 C 0.19528 0.97382 0.71027 0.0
H603 H 0.0266 0.20365 0.68959 0.0
H604 H 0.04814 0.24957 0.76673 0.0
H605 H 0.0237 0.24041 0.81843 0.0
H606 H 0.98722 0.19827 0.68142 0.0
H607 H 0.97731 0.17704 0.6923 0.0
H608 H 0.99671 0.18707 0.66261 0.0
H609 H 0.00743 0.17584 0.73288 0.0
H610 H 0.98807 0.16587 0.763 0.0
H611 H 0.00541 0.1795 0.79966 0.0
H612 H 0.99693 0.22643 0.86109 0.0
H613 H 0.96897 0.20907 0.88834 0.0
H614 H 0.96471 0.17235 0.78284 0.0
C615 C 0.02616 0.21176 0.71741 0.0
C616 C 0.03925 0.22731 0.72424 0.0
C617 C 0.03823 0.23761 0.76083 0.0
C618 C 0.02443 0.2325 0.79052 0.0
C619 C 0.01176 0.21707 0.78306 0.0
C620 C 0.01244 0.20688 0.7472 0.0
C621 C 0.99696 0.19108 0.74563 0.0
C622 C 0.98908 0.1882 0.69233 0.0
C623 C 0.99963 0.17726 0.76123 0.0
C624 C 0.98744 0.19403 0.78596 0.0
C625 C 0.99625 0.20905 0.80736 0.0
C626 C 0.98992 0.21463 0.84474 0.0
C627 C 0.97405 0.20467 0.86004 0.0
C628 C 0.96471 0.18937 0.8378 0.0
C629 C 0.9716 0.18395 0.80076 0.0
H630 H 0.86746 0.57052 0.55651 0.0
H631 H 0.81819 0.53224 0.54911 0.0
H632 H 0.8265 0.51299 0.57692 0.0
H633 H 0.88572 0.54754 0.51238 0.0
H634 H 0.90242 0.55751 0.55562 0.0
H635 H 0.8926 0.56786 0.53163 0.0
H636 H 0.88788 0.57378 0.62518 0.0
H637 H 0.89752 0.5633 0.64947 0.0
H638 H 0.87751 0.55747 0.66961 0.0
H639 H 0.84024 0.49821 0.60916 0.0
H640 H 0.85831 0.48895 0.64116 0.0
H641 H 0.89836 0.53723 0.62937 0.0
C642 C 0.85844 0.55804 0.55989 0.0
C643 C 0.84219 0.55283 0.55033 0.0
C644 C 0.83072 0.53645 0.55593 0.0
C645 C 0.83532 0.52546 0.57181 0.0
C646 C 0.85143 0.53108 0.58197 0.0
C647 C 0.86281 0.54698 0.57598 0.0
C648 C 0.87923 0.55011 0.59117 0.0
C649 C 0.89066 0.55611 0.54494 0.0
C650 C 0.88592 0.56186 0.63656 0.0
C651 C 0.87533 0.53351 0.60706 0.0
C652 C 0.85925 0.52267 0.6013 0.0
C653 C 0.85285 0.50659 0.61369 0.0
C654 C 0.86319 0.50146 0.63197 0.0
C655 C 0.87971 0.51239 0.63791 0.0
C656 C 0.88578 0.52862 0.62549 0.0
H657 H 0.46142 0.30315 0.58361 0.0
H658 H 0.43278 0.30755 0.46321 0.0
H659 H 0.44458 0.33622 0.48304 0.0
H660 H 0.45777 0.32847 0.6729 0.0
H661 H 0.47788 0.3373 0.69704 0.0
H662 H 0.46821 0.3174 0.67093 0.0
H663 H 0.49143 0.32569 0.6063 0.0
H664 H 0.50127 0.34559 0.63258 0.0
H665 H 0.49704 0.34259 0.56472 0.0
H666 H 0.45796 0.36382 0.51979 0.0
H667 H 0.4732 0.38901 0.56806 0.0
H668 H 0.49333 0.36682 0.66433 0.0
C669 C 0.45786 0.31021 0.56081 0.0
C670 C 0.44624 0.30315 0.52172 0.0
C671 C 0.44172 0.31274 0.49317 0.0
C672 C 0.44834 0.32902 0.5042 0.0
C673 C 0.45949 0.33554 0.54374 0.0
C674 C 0.46435 0.3265 0.57131 0.0
C675 C 0.47614 0.33633 0.61301 0.0
C676 C 0.4696 0.32946 0.66663 0.0
C677 C 0.49244 0.33763 0.60357 0.0
C678 C 0.47696 0.35224 0.60504 0.0
C679 C 0.46728 0.35152 0.56484 0.0
C680 C 0.46569 0.36458 0.55106 0.0
C681 C 0.47434 0.37881 0.57884 0.0
C682 C 0.48445 0.37987 0.61987 0.0
C683 C 0.48574 0.36638 0.63304 0.0
H684 H 0.69662 0.12821 0.55355 0.0
H685 H 0.70244 0.17454 0.51585 0.0
H686 H 0.67501 0.16548 0.5463 0.0
H687 H 0.65629 0.10534 0.51193 0.0
H688 H 0.65051 0.09068 0.56229 0.0
H689 H 0.67084 0.10116 0.54003 0.0
H690 H 0.68057 0.11043 0.63321 0.0
H691 H 0.66024 0.10006 0.6557 0.0
H692 H 0.67278 0.12107 0.66861 0.0
H693 H 0.64671 0.15111 0.57884 0.0
H694 H 0.61912 0.13198 0.60603 0.0
H695 H 0.63183 0.09503 0.62149 0.0
C696 C 0.69215 0.13648 0.55194 0.0
C697 C 0.70164 0.15209 0.53249 0.0
C698 C 0.69534 0.16252 0.53061 0.0
C699 C 0.67982 0.15751 0.54802 0.0
C700 C 0.67077 0.14204 0.56711 0.0
C701 C 0.67667 0.13165 0.5689 0.0
C702 C 0.66429 0.11544 0.589 0.0
C703 C 0.66024 0.10239 0.54838 0.0
C704 C 0.6698 0.11153 0.63964 0.0
C705 C 0.65043 0.11827 0.59773 0.0
C706 C 0.65445 0.13373 0.58537 0.0
C707 C 0.64344 0.139 0.5889 0.0
C708 C 0.62782 0.12807 0.6045 0.0
C709 C 0.62337 0.11206 0.61605 0.0
C710 C 0.63492 0.10723 0.61334 0.0
H711 H 0.46099 0.0982 0.11612 0.0
H712 H 0.51048 0.13331 0.08572 0.0
H713 H 0.50228 0.15268 0.05858 0.0
H714 H 0.44397 0.10783 0.01074 0.0
H715 H 0.42666 0.10496 0.0458 0.0
H716 H 0.43646 0.09401 0.06384 0.0
H717 H 0.44 0.10491 0.15683 0.0
H718 H 0.4301 0.11581 0.13918 0.0
H719 H 0.44976 0.12616 0.16726 0.0
H720 H 0.48842 0.16766 0.03036 0.0
H721 H 0.47018 0.1779 0.00986 0.0
H722 H 0.42996 0.13329 0.06215 0.0
C723 C 0.47011 0.11 0.10408 0.0
C724 C 0.48636 0.11428 0.1029 0.0
C725 C 0.49796 0.12983 0.08705 0.0
C726 C 0.49341 0.14088 0.07141 0.0
C727 C 0.47725 0.13621 0.0724 0.0
C728 C 0.46581 0.12121 0.08892 0.0
C729 C 0.44926 0.1192 0.08672 0.0
C730 C 0.43846 0.1057 0.04955 0.0
C731 C 0.44185 0.11636 0.14071 0.0
C732 C 0.45316 0.13536 0.06589 0.0
C733 C 0.46935 0.14497 0.05756 0.0
C734 C 0.47573 0.16028 0.03712 0.0
C735 C 0.46529 0.16597 0.02541 0.0
C736 C 0.4487 0.1564 0.03462 0.0
C737 C 0.44261 0.1409 0.05502 0.0
H738 H 0.86631 0.30232 0.03407 0.0
H739 H 0.81711 0.28992 0.05948 0.0
H740 H 0.82631 0.31609 0.10101 0.0
H741 H 0.88247 0.32382 0.15184 0.0
H742 H 0.90076 0.33889 0.12281 0.0
H743 H 0.89034 0.31908 0.09595 0.0
H744 H 0.88919 0.33074 0.00734 0.0
H745 H 0.89972 0.35058 0.03382 0.0
H746 H 0.8807 0.34358 0.00279 0.0
H747 H 0.8409 0.34333 0.14149 0.0
H748 H 0.85979 0.37073 0.17091 0.0
H749 H 0.89942 0.36573 0.1158 0.0
C750 C 0.85749 0.30513 0.04836 0.0
C751 C 0.84101 0.29412 0.04379 0.0
C752 C 0.8298 0.29824 0.06254 0.0
C753 C 0.8349 0.31302 0.08638 0.0
C754 C 0.85125 0.32357 0.09069 0.0
C755 C 0.86237 0.3199 0.07167 0.0
C756 C 0.87922 0.33356 0.07962 0.0
C757 C 0.88876 0.32853 0.11464 0.0
C758 C 0.8877 0.34 0.02781 0.0
C759 C 0.87584 0.34549 0.10612 0.0
C760 C 0.85964 0.33943 0.11266 0.0
C761 C 0.85361 0.34822 0.13645 0.0
C762 C 0.86443 0.36374 0.15321 0.0
C763 C 0.88104 0.37032 0.14557 0.0
C764 C 0.88677 0.36099 0.12212 0.0
H765 H 0.63981 0.51024 0.1571 0.0
H766 H 0.62147 0.54135 0.11284 0.0
H767 H 0.6472 0.5598 0.07217 0.0
H768 H 0.67918 0.54135 0.18864 0.0
H769 H 0.68899 0.53106 0.16392 0.0
H770 H 0.66886 0.51983 0.18771 0.0
H771 H 0.65973 0.50497 0.10058 0.0
H772 H 0.67984 0.51624 0.0764 0.0
H773 H 0.66369 0.5163 0.042 0.0
H774 H 0.67477 0.57528 0.03915 0.0
H775 H 0.70335 0.58768 0.01833 0.0
H776 H 0.70437 0.54681 0.0829 0.0
C777 C 0.64122 0.52091 0.13869 0.0
C778 C 0.62864 0.52437 0.13808 0.0
C779 C 0.63094 0.53847 0.11382 0.0
C780 C 0.64549 0.549 0.0904 0.0
C781 C 0.65763 0.54525 0.0915 0.0
C782 C 0.65573 0.53161 0.1151 0.0
C783 C 0.67098 0.53079 0.11222 0.0
C784 C 0.67738 0.53076 0.16634 0.0
C785 C 0.6684 0.51621 0.08093 0.0
C786 C 0.68176 0.54622 0.08396 0.0
C787 C 0.67372 0.55427 0.07212 0.0
C788 C 0.68119 0.56906 0.04787 0.0
C789 C 0.69742 0.57601 0.03622 0.0
C790 C 0.70602 0.56816 0.04879 0.0
C791 C 0.69802 0.55295 0.07222 0.0
H792 H 0.50767 0.87344 0.87231 0.0
H793 H 0.5298 0.90991 0.98994 0.0
H794 H 0.5432 0.89608 0.02551 0.0
H795 H 0.50232 0.83944 0.95089 0.0
H796 H 0.50749 0.83046 0.89918 0.0
H797 H 0.49829 0.84229 0.88525 0.0
H798 H 0.5218 0.86031 0.82493 0.0
H799 H 0.53102 0.84851 0.83852 0.0
H800 H 0.54192 0.86976 0.84935 0.0
H801 H 0.55505 0.87935 0.04667 0.0
H802 H 0.5664 0.86154 0.04839 0.0
H803 H 0.53777 0.83613 0.91549 0.0
C804 C 0.51517 0.87834 0.90592 0.0
C805 C 0.51765 0.89268 0.92858 0.0
C806 C 0.52778 0.89895 0.97194 0.0
C807 C 0.53536 0.89113 0.99266 0.0
C808 C 0.53282 0.87711 0.96936 0.0
C809 C 0.52311 0.8708 0.92673 0.0
C810 C 0.52349 0.85622 0.907 0.0
C811 C 0.50691 0.84121 0.91083 0.0
C812 C 0.52995 0.85887 0.85168 0.0
C813 C 0.5351 0.85553 0.94481 0.0
C814 C 0.54011 0.86758 0.98086 0.0
C815 C 0.55117 0.86979 0.01886 0.0
C816 C 0.55754 0.85961 0.01954 0.0
C817 C 0.55295 0.84744 0.98219 0.0
C818 C 0.54139 0.84524 0.94481 0.0
H819 H 0.12479 0.63186 0.91384 0.0
H820 H 0.08836 0.6334 0.82056 0.0
H821 H 0.09919 0.66172 0.84382 0.0
H822 H 0.1245 0.65606 0.01563 0.0
H823 H 0.14574 0.66619 0.02646 0.0
H824 H 0.13569 0.64626 1.00058 0.0
H825 H 0.15475 0.65579 0.92212 0.0
H826 H 0.16495 0.67574 0.94798 0.0
H827 H 0.15675 0.67226 0.88395 0.0
H828 H 0.11297 0.68928 0.88068 0.0
H829 H 0.12978 0.7149 0.925 0.0
H830 H 0.15758 0.69569 0.99351 0.0
C831 C 0.11921 0.63822 0.89783 0.0
C832 C 0.10575 0.63046 0.86533 0.0
C833 C 0.09872 0.63914 0.84539 0.0
C834 C 0.10476 0.6552 0.85845 0.0
C835 C 0.11788 0.66242 0.89126 0.0
C836 C 0.12513 0.65428 0.91034 0.0
C837 C 0.13893 0.6648 0.9455 0.0
C838 C 0.13604 0.65791 1.00028 0.0
C839 C 0.15478 0.6673 0.92356 0.0
C840 C 0.1382 0.68007 0.94366 0.0
C841 C 0.12595 0.67842 0.91218 0.0
C842 C 0.12266 0.69076 0.90516 0.0
C843 C 0.13225 0.70524 0.93064 0.0
C844 C 0.14498 0.70728 0.96263 0.0
C845 C 0.14795 0.69449 0.96921 0.0
H846 H 0.2952 0.45428 0.91624 0.0
H847 H 0.29233 0.41263 0.98978 0.0
H848 H 0.32069 0.42262 0.9696 0.0
H849 H 0.31964 0.45616 0.81283 0.0
H850 H 0.33128 0.47764 0.81076 0.0
H851 H 0.31108 0.46798 0.8343 0.0
H852 H 0.32073 0.48363 0.91998 0.0
H853 H 0.34094 0.49353 0.89639 0.0
H854 H 0.33617 0.48282 0.95644 0.0
H855 H 0.34873 0.43618 0.93724 0.0
H856 H 0.37539 0.4535 0.89983 0.0
H857 H 0.36011 0.48628 0.84645 0.0
C858 C 0.30064 0.44743 0.929 0.0
C859 C 0.29161 0.43272 0.95481 0.0
C860 C 0.29906 0.42397 0.97017 0.0
C861 C 0.31514 0.42951 0.95875 0.0
C862 C 0.32359 0.44383 0.93199 0.0
C863 C 0.31667 0.45277 0.91774 0.0
C864 C 0.32832 0.46752 0.888 0.0
C865 C 0.32221 0.4673 0.83323 0.0
C866 C 0.33174 0.48278 0.91694 0.0
C867 C 0.3428 0.46539 0.88741 0.0
C868 C 0.33979 0.45164 0.913 0.0
C869 C 0.35127 0.44703 0.91732 0.0
C870 C 0.36634 0.4569 0.89574 0.0
C871 C 0.36979 0.4712 0.87016 0.0
C872 C 0.35778 0.47538 0.86555 0.0
H873 H 0.12727 0.49186 0.37601 0.0
H874 H 0.07821 0.45342 0.39016 0.0
H875 H 0.08755 0.43573 0.42405 0.0
H876 H 0.14275 0.46691 0.33235 0.0
H877 H 0.16143 0.47788 0.36621 0.0
H878 H 0.15091 0.48787 0.34548 0.0
H879 H 0.15105 0.49714 0.43903 0.0
H880 H 0.16142 0.48701 0.46013 0.0
H881 H 0.14278 0.48251 0.48972 0.0
H882 H 0.1018 0.42226 0.45688 0.0
H883 H 0.12033 0.41254 0.47706 0.0
H884 H 0.16049 0.459 0.43816 0.0
C885 C 0.11854 0.47972 0.38633 0.0
C886 C 0.10202 0.47401 0.38068 0.0
C887 C 0.09092 0.45802 0.39407 0.0
C888 C 0.0961 0.44791 0.4137 0.0
C889 C 0.11242 0.45391 0.41927 0.0
C890 C 0.12352 0.46934 0.40532 0.0
C891 C 0.14039 0.47239 0.4126 0.0
C892 C 0.1494 0.4765 0.36109 0.0
C893 C 0.14944 0.48554 0.45276 0.0
C894 C 0.13697 0.45623 0.43244 0.0
C895 C 0.12075 0.44587 0.43674 0.0
C896 C 0.11454 0.43023 0.45367 0.0
C897 C 0.12518 0.42484 0.46521 0.0
C898 C 0.14184 0.43501 0.45921 0.0
C899 C 0.14781 0.45099 0.44343 0.0
H900 H 0.51431 0.62408 0.42914 0.0
H901 H 0.53732 0.62525 0.28481 0.0
H902 H 0.55601 0.65412 0.29641 0.0
H903 H 0.51559 0.66106 0.41061 0.0
H904 H 0.51909 0.66692 0.47724 0.0
H905 H 0.50851 0.64608 0.46037 0.0
H906 H 0.52886 0.64167 0.51218 0.0
H907 H 0.53949 0.66251 0.52937 0.0
H908 H 0.54986 0.65368 0.49811 0.0
H909 H 0.57168 0.68268 0.32237 0.0
H910 H 0.58251 0.70973 0.35812 0.0
H911 H 0.54833 0.69062 0.48332 0.0
C912 C 0.52347 0.6304 0.40049 0.0
C913 C 0.52456 0.62248 0.35636 0.0
C914 C 0.53639 0.63114 0.31898 0.0
C915 C 0.54706 0.6475 0.32532 0.0
C916 C 0.54558 0.65501 0.36895 0.0
C917 C 0.53403 0.64681 0.40575 0.0
C918 C 0.53432 0.658 0.44718 0.0
C919 C 0.51843 0.65801 0.44892 0.0
C920 C 0.53838 0.65371 0.49983 0.0
C921 C 0.54778 0.67378 0.42769 0.0
C922 C 0.55422 0.67171 0.38289 0.0
C923 C 0.56676 0.68446 0.35744 0.0
C924 C 0.57283 0.69978 0.37811 0.0
C925 C 0.56624 0.70227 0.42343 0.0
C926 C 0.55357 0.68907 0.44858 0.0
H927 H 0.3692 0.8756 0.43963 0.0
H928 H 0.36769 0.90507 0.31647 0.0
H929 H 0.33843 0.89209 0.32565 0.0
H930 H 0.33069 0.83929 0.41061 0.0
H931 H 0.3258 0.83471 0.47762 0.0
H932 H 0.34637 0.84499 0.4574 0.0
H933 H 0.3524 0.86782 0.52155 0.0
H934 H 0.33185 0.85771 0.54161 0.0
H935 H 0.34101 0.87792 0.51805 0.0
H936 H 0.30987 0.87755 0.35216 0.0
H937 H 0.28358 0.86212 0.39388 0.0
H938 H 0.30349 0.84243 0.50163 0.0
C939 C 0.36264 0.87901 0.41379 0.0
C940 C 0.37065 0.89121 0.37698 0.0
C941 C 0.36175 0.89568 0.3447 0.0
C942 C 0.34514 0.88837 0.3496 0.0
C943 C 0.33763 0.87666 0.38709 0.0
C944 C 0.34605 0.87194 0.41855 0.0
C945 C 0.33519 0.85987 0.45809 0.0
C946 C 0.33447 0.84376 0.45045 0.0
C947 C 0.34043 0.86621 0.51307 0.0
C948 C 0.31943 0.85876 0.44447 0.0
C949 C 0.3211 0.86844 0.4031 0.0
C950 C 0.30837 0.86982 0.38431 0.0
C951 C 0.29349 0.86104 0.40837 0.0
C952 C 0.29149 0.85108 0.45097 0.0
C953 C 0.30465 0.84992 0.46906 0.0
H954 H 0.10403 0.2518 0.81582 0.0
H955 H 0.10266 0.21162 0.73697 0.0
H956 H 0.1117 0.20444 0.81673 0.0
H957 H 0.13858 0.26267 0.89344 0.0
H958 H 0.13062 0.26768 0.94844 0.0
H959 H 0.1246 0.26966 0.88466 0.0
H960 H 0.09495 0.25129 0.91012 0.0
H961 H 0.1009 0.24911 0.97382 0.0
H962 H 0.08863 0.23167 0.93545 0.0
H963 H 0.12189 0.20246 0.90588 0.0
H964 H 0.13162 0.20558 0.99583 0.0
H965 H 0.124 0.24582 0.01537 0.0
C966 C 0.10578 0.24158 0.81512 0.0
C967 C 0.10284 0.23235 0.77021 0.0
C968 C 0.10497 0.21889 0.77105 0.0
C969 C 0.11005 0.21472 0.81613 0.0
C970 C 0.11269 0.224 0.86004 0.0
C971 C 0.11054 0.2371 0.85979 0.0
C972 C 0.11377 0.24496 0.91197 0.0
C973 C 0.12772 0.26226 0.90946 0.0
C974 C 0.09866 0.2442 0.93413 0.0
C975 C 0.11825 0.23436 0.9417 0.0
C976 C 0.11768 0.22237 0.91127 0.0
C977 C 0.12219 0.21169 0.93018 0.0
C978 C 0.12765 0.2135 0.98124 0.0
C979 C 0.12832 0.22577 0.01269 0.0
C980 C 0.12331 0.23611 0.99265 0.0
H981 H 0.7588 0.90795 0.00666 0.0
H982 H 0.75375 0.87134 0.11402 0.0
H983 H 0.75447 0.85517 0.04185 0.0
H984 H 0.73364 0.88211 0.91191 0.0
H985 H 0.74524 0.89384 0.8579 0.0
H986 H 0.74612 0.90344 0.91806 0.0
H987 H 0.77685 0.9159 0.92029 0.0
H988 H 0.7761 0.90645 0.85979 0.0
H989 H 0.78541 0.90313 0.91478 0.0
H990 H 0.75288 0.8418 0.95844 0.0
H991 H 0.75059 0.83264 0.86868 0.0
H992 H 0.7572 0.87803 0.81487 0.0
C993 C 0.75822 0.8967 0.01502 0.0
C994 C 0.75629 0.89091 0.06591 0.0
C995 C 0.7553 0.87602 0.07532 0.0
C996 C 0.7557 0.86675 0.0346 0.0
C997 C 0.7572 0.8726 0.98477 0.0
C998 C 0.75862 0.88729 0.97478 0.0
C999 C 0.75925 0.89038 0.91747 0.0
C1000 C 0.74523 0.89257 0.90035 0.0
C1001 C 0.77536 0.90482 0.90219 0.0
C1002 C 0.75758 0.87497 0.89686 0.0
C1003 C 0.75647 0.86491 0.93638 0.0
C1004 C 0.75397 0.84965 0.92712 0.0
C1005 C 0.75261 0.84453 0.87606 0.0
C1006 C 0.7538 0.85466 0.83495 0.0
C1007 C 0.75643 0.87011 0.84558 0.0
H1008 H 0.1253 0.87933 0.02588 0.0
H1009 H 0.07585 0.84749 0.98389 0.0
H1010 H 0.08262 0.85477 0.89251 0.0
H1011 H 0.1332 0.9103 0.9313 0.0
H1012 H 0.15328 0.91442 0.91961 0.0
H1013 H 0.14424 0.90729 0.98167 0.0
H1014 H 0.14993 0.88386 0.97467 0.0
H1015 H 0.15881 0.89079 0.91233 0.0
H1016 H 0.14251 0.87066 0.92001 0.0
H1017 H 0.09515 0.86452 0.80523 0.0
H1018 H 0.11218 0.87727 0.7292 0.0
H1019 H 0.15335 0.90265 0.8289 0.0
C1020 C 0.11584 0.87407 0.99757 0.0
C1021 C 0.10003 0.86289 0.01193 0.0
C1022 C 0.08802 0.85615 0.97371 0.0
C1023 C 0.09176 0.86017 0.92173 0.0
C1024 C 0.10754 0.87098 0.90876 0.0
C1025 C 0.11936 0.87795 0.94564 0.0
C1026 C 0.13544 0.88896 0.92158 0.0
C1027 C 0.14192 0.90627 0.9396 0.0
C1028 C 0.14737 0.88321 0.93282 0.0
C1029 C 0.13087 0.88701 0.86533 0.0
C1030 C 0.11473 0.87658 0.85867 0.0
C1031 C 0.10778 0.87277 0.81 0.0
C1032 C 0.11756 0.88001 0.76707 0.0
C1033 C 0.13407 0.89092 0.77319 0.0
C1034 C 0.14077 0.89434 0.82301 0.0
H1035 H 0.2625 0.11207 0.66173 0.0
H1036 H 0.21491 0.09651 0.72005 0.0
H1037 H 0.20819 0.10532 0.63937 0.0
H1038 H 0.26798 0.14714 0.59852 0.0
H1039 H 0.27862 0.14519 0.5447 0.0
H1040 H 0.27942 0.13722 0.60643 0.0
H1041 H 0.26927 0.10939 0.56512 0.0
H1042 H 0.26835 0.11728 0.50327 0.0
H1043 H 0.25085 0.10025 0.52929 0.0
H1044 H 0.20705 0.11688 0.55337 0.0
H1045 H 0.21178 0.13051 0.46923 0.0
H1046 H 0.25982 0.13777 0.46688 0.0
C1047 C 0.25065 0.11049 0.65748 0.0
C1048 C 0.23923 0.10363 0.69714 0.0
C1049 C 0.22385 0.10174 0.69012 0.0
C1050 C 0.21991 0.10668 0.64441 0.0
C1051 C 0.23144 0.11338 0.60599 0.0
C1052 C 0.24649 0.11527 0.61204 0.0
C1053 C 0.25681 0.12308 0.56533 0.0
C1054 C 0.27157 0.13911 0.57961 0.0
C1055 C 0.2616 0.11182 0.53921 0.0
C1056 C 0.24529 0.12548 0.53233 0.0
C1057 C 0.2307 0.11978 0.55632 0.0
C1058 C 0.21839 0.12127 0.53401 0.0
C1059 C 0.22116 0.12899 0.48624 0.0
C1060 C 0.2361 0.13507 0.4614 0.0
C1061 C 0.24819 0.13306 0.4846 0.0
H1062 H 0.86996 0.12124 0.49792 0.0
H1063 H 0.85402 0.07176 0.53478 0.0
H1064 H 0.86532 0.07984 0.62234 0.0
H1065 H 0.90693 0.13891 0.56988 0.0
H1066 H 0.90519 0.15578 0.59024 0.0
H1067 H 0.89659 0.14608 0.53004 0.0
H1068 H 0.86904 0.14168 0.55913 0.0
H1069 H 0.87753 0.15132 0.61945 0.0
H1070 H 0.86052 0.13141 0.61871 0.0
H1071 H 0.87819 0.09355 0.7063 0.0
H1072 H 0.89075 0.11154 0.78059 0.0
H1073 H 0.89717 0.15174 0.68846 0.0
C1074 C 0.86898 0.11211 0.52421 0.0
C1075 C 0.86122 0.09589 0.50961 0.0
C1076 C 0.85998 0.08426 0.54528 0.0
C1077 C 0.86637 0.08875 0.59497 0.0
C1078 C 0.87385 0.10487 0.60825 0.0
C1079 C 0.87513 0.11634 0.57388 0.0
C1080 C 0.88315 0.13277 0.59802 0.0
C1081 C 0.8989 0.14405 0.5704 0.0
C1082 C 0.87188 0.13969 0.59888 0.0
C1083 C 0.88613 0.12876 0.65155 0.0
C1084 C 0.88082 0.11264 0.65666 0.0
C1085 C 0.88238 0.10618 0.70272 0.0
C1086 C 0.88952 0.11648 0.74464 0.0
C1087 C 0.89485 0.13299 0.74022 0.0
C1088 C 0.89312 0.13915 0.69302 0.0
H1089 H 0.88244 0.77044 0.66884 0.0
H1090 H 0.83298 0.73373 0.64664 0.0
H1091 H 0.83905 0.72981 0.55763 0.0
H1092 H 0.88895 0.78731 0.54062 0.0
H1093 H 0.90904 0.79081 0.53597 0.0
H1094 H 0.90084 0.79114 0.59785 0.0
H1095 H 0.90703 0.76956 0.63124 0.0
H1096 H 0.91533 0.76924 0.56961 0.0
H1097 H 0.89947 0.75103 0.59659 0.0
H1098 H 0.85031 0.72945 0.47211 0.0
H1099 H 0.86647 0.73185 0.39578 0.0
H1100 H 0.90877 0.7687 0.4725 0.0
C1101 C 0.8729 0.76161 0.64516 0.0
C1102 C 0.85724 0.7524 0.66459 0.0
C1103 C 0.84508 0.74091 0.63256 0.0
C1104 C 0.84838 0.73863 0.58188 0.0
C1105 C 0.86391 0.74792 0.5638 0.0
C1106 C 0.87601 0.75914 0.59439 0.0
C1107 C 0.89176 0.76719 0.5657 0.0
C1108 C 0.89801 0.78518 0.55968 0.0
C1109 C 0.90413 0.76406 0.59237 0.0
C1110 C 0.88661 0.75866 0.51442 0.0
C1111 C 0.87047 0.74767 0.51416 0.0
C1112 C 0.86296 0.73805 0.4717 0.0
C1113 C 0.87223 0.73952 0.42852 0.0
C1114 C 0.88885 0.75049 0.42816 0.0
C1115 C 0.89607 0.76031 0.47152 0.0
H1116 H 0.87851 0.75345 0.93308 0.0
H1117 H 0.86799 0.79093 0.97053 0.0
H1118 H 0.87924 0.79306 0.05759 0.0
H1119 H 0.86657 0.73398 0.05183 0.0
H1120 H 0.88162 0.72821 0.05447 0.0
H1121 H 0.87471 0.73103 0.99325 0.0
H1122 H 0.90372 0.75163 0.96717 0.0
H1123 H 0.91076 0.74876 0.02817 0.0
H1124 H 0.91551 0.76851 0.00833 0.0
H1125 H 0.89018 0.78996 0.14193 0.0
H1126 H 0.8995 0.78158 0.21789 0.0
H1127 H 0.90152 0.74511 0.12638 0.0
C1128 C 0.87898 0.76241 0.95915 0.0
C1129 C 0.87264 0.77223 0.94495 0.0
C1130 C 0.87296 0.78343 0.9806 0.0
C1131 C 0.87931 0.78471 0.03005 0.0
C1132 C 0.88514 0.77459 0.04326 0.0
C1133 C 0.88501 0.76364 0.00884 0.0
C1134 C 0.89077 0.75327 0.03379 0.0
C1135 C 0.87764 0.73558 0.0333 0.0
C1136 C 0.90611 0.7557 0.00782 0.0
C1137 C 0.89404 0.76 0.0878 0.0
C1138 C 0.89088 0.7724 0.09232 0.0
C1139 C 0.89277 0.78033 0.13876 0.0
C1140 C 0.89805 0.77547 0.18169 0.0
C1141 C 0.9012 0.76268 0.17802 0.0
C1142 C 0.89919 0.7549 0.13036 0.0
H1143 H 0.23668 0.09566 0.0077 0.0
H1144 H 0.25697 0.13683 0.90635 0.0
H1145 H 0.25851 0.15398 0.97891 0.0
H1146 H 0.213 0.10771 0.0864 0.0
H1147 H 0.21676 0.10019 0.14501 0.0
H1148 H 0.2163 0.09095 0.0844 0.0
H1149 H 0.24461 0.09542 0.10211 0.0
H1150 H 0.2452 0.10476 0.16258 0.0
H1151 H 0.26071 0.11528 0.1157 0.0
H1152 H 0.2595 0.16691 0.06278 0.0
H1153 H 0.25906 0.17479 0.15264 0.0
H1154 H 0.23782 0.12528 0.20016 0.0
C1155 C 0.24123 0.10825 1.00066 0.0
C1156 C 0.24666 0.11492 0.95137 0.0
C1157 C 0.2527 0.13146 0.94376 0.0
C1158 C 0.25362 0.1413 0.98472 0.0
C1159 C 0.2484 0.1344 0.03298 0.0
C1160 C 0.24223 0.11825 0.04116 0.0
C1161 C 0.23795 0.11398 0.09725 0.0
C1162 C 0.21993 0.10253 0.10362 0.0
C1163 C 0.2477 0.10695 0.12078 0.0
C1164 C 0.24291 0.1303 0.11939 0.0
C1165 C 0.24887 0.14188 0.08156 0.0
C1166 C 0.25473 0.15794 0.09269 0.0
C1167 C 0.25447 0.1623 0.14386 0.0
C1168 C 0.24836 0.15064 0.18329 0.0
C1169 C 0.24245 0.13443 0.17074 0.0
H1170 H 0.85028 0.10368 0.18962 0.0
H1171 H 0.8913 0.11045 0.27778 0.0
H1172 H 0.90871 0.12336 0.20259 0.0
H1173 H 0.86213 0.09455 0.06908 0.0
H1174 H 0.85461 0.105 0.03133 0.0
H1175 H 0.84547 0.09628 0.09206 0.0
H1176 H 0.8502 0.12376 0.12356 0.0
H1177 H 0.8593 0.13254 0.06287 0.0
H1178 H 0.87008 0.14081 0.12186 0.0
H1179 H 0.9217 0.13621 0.11778 0.0
H1180 H 0.92906 0.14773 0.03022 0.0
H1181 H 0.87927 0.13172 0.99831 0.0
C1182 C 0.86293 0.10787 0.19313 0.0
C1183 C 0.86947 0.1061 0.23946 0.0
C1184 C 0.88606 0.11171 0.24255 0.0
C1185 C 0.89603 0.11903 0.20008 0.0
C1186 C 0.88918 0.12058 0.15488 0.0
C1187 C 0.87301 0.11512 0.15118 0.0
C1188 C 0.86859 0.11829 0.0985 0.0
C1189 C 0.85702 0.10259 0.07114 0.0
C1190 C 0.86164 0.12952 0.10193 0.0
C1191 C 0.88481 0.12641 0.07309 0.0
C1192 C 0.89657 0.12767 0.10614 0.0
C1193 C 0.91257 0.13519 0.09145 0.0
C1194 C 0.91664 0.14168 0.04175 0.0
C1195 C 0.90472 0.1405 0.0075 0.0
C1196 C 0.88863 0.13265 0.02345 0.0
H1197 H 0.75909 0.88836 0.3235 0.0
H1198 H 0.72824 0.90737 0.36319 0.0
H1199 H 0.72823 0.89973 0.45395 0.0
H1200 H 0.74065 0.85446 0.40591 0.0
H1201 H 0.75907 0.85513 0.42243 0.0
H1202 H 0.75713 0.86274 0.36135 0.0
H1203 H 0.78221 0.88999 0.38174 0.0
H1204 H 0.78415 0.88249 0.44311 0.0
H1205 H 0.78281 0.9004 0.43993 0.0
H1206 H 0.73105 0.88935 0.53979 0.0
H1207 H 0.73535 0.87582 0.61348 0.0
H1208 H 0.76435 0.86362 0.51724 0.0
C1209 C 0.75238 0.89097 0.35132 0.0
C1210 C 0.74368 0.89847 0.33643 0.0
C1211 C 0.73497 0.90161 0.37385 0.0
C1212 C 0.73495 0.89738 0.42546 0.0
C1213 C 0.74371 0.89004 0.4389 0.0
C1214 C 0.7522 0.8868 0.40286 0.0
C1215 C 0.76014 0.87828 0.42684 0.0
C1216 C 0.75387 0.86167 0.40271 0.0
C1217 C 0.77841 0.8884 0.42265 0.0
C1218 C 0.75466 0.87707 0.48196 0.0
C1219 C 0.7453 0.88404 0.48823 0.0
C1220 C 0.73844 0.88395 0.53542 0.0
C1221 C 0.74098 0.87626 0.57705 0.0
C1222 C 0.75025 0.86875 0.57111 0.0
C1223 C 0.75736 0.86941 0.5231 0.0
H1224 H 0.13338 0.88269 0.26997 0.0
H1225 H 0.08816 0.88187 0.27556 0.0
H1226 H 0.09638 0.89721 0.35665 0.0
H1227 H 0.13538 0.87552 0.39661 0.0
H1228 H 0.1566 0.88843 0.40417 0.0
H1229 H 0.14852 0.88009 0.34223 0.0
H1230 H 0.16186 0.90843 0.30247 0.0
H1231 H 0.17015 0.9169 0.36438 0.0
H1232 H 0.15815 0.92335 0.33024 0.0
H1233 H 0.10736 0.90801 0.44429 0.0
H1234 H 0.12115 0.91522 0.52842 0.0
H1235 H 0.15966 0.91006 0.46399 0.0
C1236 C 0.12543 0.88621 0.28734 0.0
C1237 C 0.11017 0.88117 0.26643 0.0
C1238 C 0.09998 0.88575 0.2907 0.0
C1239 C 0.10454 0.89445 0.3368 0.0
C1240 C 0.11943 0.89869 0.35757 0.0
C1241 C 0.12985 0.89498 0.3331 0.0
C1242 C 0.14455 0.89965 0.36548 0.0
C1243 C 0.14635 0.88505 0.37785 0.0
C1244 C 0.15957 0.91288 0.33906 0.0
C1245 C 0.14043 0.90587 0.41302 0.0
C1246 C 0.12596 0.90536 0.40761 0.0
C1247 C 0.1189 0.90889 0.44848 0.0
C1248 C 0.12677 0.9129 0.49613 0.0
C1249 C 0.14155 0.91342 0.50234 0.0
C1250 C 0.14857 0.91016 0.45992 0.0
H1251 H 0.10763 0.22473 0.51847 0.0
H1252 H 0.06698 0.22932 0.47271 0.0
H1253 H 0.07383 0.22906 0.38148 0.0
H1254 H 0.13414 0.24963 0.42764 0.0
H1255 H 0.14359 0.23796 0.41483 0.0
H1256 H 0.13451 0.23656 0.47637 0.0
H1257 H 0.11675 0.20595 0.4655 0.0
H1258 H 0.12596 0.20721 0.40411 0.0
H1259 H 0.10457 0.19806 0.40877 0.0
H1260 H 0.08795 0.23337 0.29708 0.0
H1261 H 0.10598 0.23747 0.22371 0.0
H1262 H 0.13575 0.22723 0.32276 0.0
C1263 C 0.09992 0.2252 0.48915 0.0
C1264 C 0.08676 0.227 0.50249 0.0
C1265 C 0.07702 0.22775 0.46324 0.0
C1266 C 0.08086 0.22769 0.41133 0.0
C1267 C 0.09424 0.22646 0.3994 0.0
C1268 C 0.10337 0.22477 0.4371 0.0
C1269 C 0.11744 0.22419 0.41399 0.0
C1270 C 0.13335 0.2379 0.43443 0.0
C1271 C 0.11609 0.20788 0.42366 0.0
C1272 C 0.11515 0.22645 0.35766 0.0
C1273 C 0.10176 0.22786 0.35008 0.0
C1274 C 0.09818 0.23179 0.3022 0.0
C1275 C 0.10848 0.2342 0.26094 0.0
C1276 C 0.12194 0.23232 0.26781 0.0
C1277 C 0.12523 0.22827 0.31654 0.0
H1278 H 0.79966 0.5696 0.37072 0.0
H1279 H 0.79058 0.60143 0.46402 0.0
H1280 H 0.77657 0.60533 0.39104 0.0
H1281 H 0.80859 0.59161 0.25783 0.0
H1282 H 0.79921 0.57474 0.21498 0.0
H1283 H 0.80675 0.57278 0.27612 0.0
H1284 H 0.77893 0.5491 0.29991 0.0
H1285 H 0.77131 0.55086 0.23851 0.0
H1286 H 0.7617 0.55162 0.29694 0.0
H1287 H 0.7663 0.60817 0.30566 0.0
H1288 H 0.75921 0.60864 0.21469 0.0
H1289 H 0.77461 0.57471 0.17696 0.0
C1290 C 0.79436 0.57706 0.37619 0.0
C1291 C 0.79611 0.58514 0.42311 0.0
C1292 C 0.78929 0.59505 0.42849 0.0
C1293 C 0.78132 0.59735 0.38726 0.0
C1294 C 0.78019 0.58957 0.34104 0.0
C1295 C 0.78637 0.57949 0.3354 0.0
C1296 C 0.78441 0.57337 0.28074 0.0
C1297 C 0.80071 0.57843 0.25598 0.0
C1298 C 0.77343 0.55515 0.27894 0.0
C1299 C 0.77653 0.58189 0.25625 0.0
C1300 C 0.77414 0.59112 0.29176 0.0
C1301 C 0.76789 0.6008 0.27766 0.0
C1302 C 0.76397 0.60104 0.2259 0.0
C1303 C 0.76628 0.59165 0.18893 0.0
C1304 C 0.77253 0.58187 0.20452 0.0
H1305 H 0.40919 0.18415 0.18994 0.0
H1306 H 0.4504 0.22207 0.11205 0.0
H1307 H 0.45739 0.23861 0.19034 0.0
H1308 H 0.39847 0.20918 0.25858 0.0
H1309 H 0.39246 0.19716 0.31604 0.0
H1310 H 0.39113 0.18802 0.2546 0.0
H1311 H 0.40862 0.17667 0.28895 0.0
H1312 H 0.41008 0.18587 0.35048 0.0
H1313 H 0.42794 0.19007 0.31611 0.0
H1314 H 0.45901 0.25172 0.27506 0.0
H1315 H 0.45501 0.26039 0.36053 0.0
H1316 H 0.41337 0.21371 0.38453 0.0
C1317 C 0.41973 0.19589 0.18951 0.0
C1318 C 0.42925 0.20182 0.14491 0.0
C1319 C 0.44294 0.21727 0.1458 0.0
C1320 C 0.44703 0.22675 0.19013 0.0
C1321 C 0.4374 0.22059 0.23343 0.0
C1322 C 0.42406 0.2055 0.23359 0.0
C1323 C 0.41548 0.20193 0.28481 0.0
C1324 C 0.39838 0.1989 0.27808 0.0
C1325 C 0.41554 0.18779 0.31167 0.0
C1326 C 0.42594 0.21744 0.31302 0.0
C1327 C 0.43855 0.22803 0.28276 0.0
C1328 C 0.44931 0.24346 0.2994 0.0
C1329 C 0.44696 0.24828 0.34796 0.0
C1330 C 0.43402 0.23767 0.37933 0.0
C1331 C 0.42356 0.22198 0.36182 0.0
H1332 H 0.81434 0.23072 0.16491 0.0
H1333 H 0.77331 0.21218 0.06333 0.0
H1334 H 0.75563 0.19716 0.1359 0.0
H1335 H 0.80125 0.19529 0.24009 0.0
H1336 H 0.80905 0.20597 0.29955 0.0
H1337 H 0.81836 0.21514 0.23948 0.0
H1338 H 0.81467 0.23931 0.26042 0.0
H1339 H 0.80531 0.2302 0.32051 0.0
H1340 H 0.79502 0.23598 0.2752 0.0
H1341 H 0.74254 0.1837 0.21968 0.0
H1342 H 0.73509 0.17341 0.30853 0.0
H1343 H 0.7847 0.20157 0.35472 0.0
C1344 C 0.80164 0.22348 0.15791 0.0
C1345 C 0.79517 0.22255 0.10857 0.0
C1346 C 0.77849 0.21303 0.10093 0.0
C1347 C 0.76837 0.20447 0.14186 0.0
C1348 C 0.77513 0.20566 0.19012 0.0
C1349 C 0.79137 0.21498 0.19832 0.0
C1350 C 0.79565 0.21435 0.25385 0.0
C1351 C 0.80673 0.20726 0.25849 0.0
C1352 C 0.8031 0.23095 0.27896 0.0
C1353 C 0.77928 0.20316 0.27561 0.0
C1354 C 0.76759 0.19822 0.23831 0.0
C1355 C 0.75159 0.18756 0.24927 0.0
C1356 C 0.74747 0.18178 0.29973 0.0
C1357 C 0.75931 0.18678 0.33841 0.0
C1358 C 0.77537 0.19765 0.32604 0.0
H1359 H 0.918 0.46276 0.79997 0.0
H1360 H 0.87635 0.46789 0.8228 0.0
H1361 H 0.87182 0.45473 0.90746 0.0
H1362 H 0.9028 0.42408 0.86691 0.0
H1363 H 0.922 0.4298 0.89465 0.0
H1364 H 0.92081 0.43781 0.8333 0.0
H1365 H 0.93838 0.4665 0.86854 0.0
H1366 H 0.93951 0.45861 0.93006 0.0
H1367 H 0.93223 0.47247 0.92581 0.0
H1368 H 0.87298 0.44301 0.99172 0.0
H1369 H 0.87968 0.43343 0.07053 0.0
H1370 H 0.92113 0.43664 0.9944 0.0
C1371 C 0.90769 0.46073 0.82225 0.0
C1372 C 0.8974 0.46615 0.80474 0.0
C1373 C 0.8843 0.4637 0.83547 0.0
C1374 C 0.88163 0.45624 0.88353 0.0
C1375 C 0.89222 0.45137 0.90028 0.0
C1376 C 0.90497 0.45347 0.87059 0.0
C1377 C 0.91525 0.44826 0.89923 0.0
C1378 C 0.91521 0.43415 0.87189 0.0
C1379 C 0.93235 0.4623 0.90633 0.0
C1380 C 0.90643 0.44317 0.94999 0.0
C1381 C 0.8931 0.44492 0.94953 0.0
C1382 C 0.88331 0.44146 0.99243 0.0
C1383 C 0.88725 0.43607 0.03704 0.0
C1384 C 0.90092 0.43429 0.03855 0.0
C1385 C 0.91058 0.43784 0.99431 0.0
H1386 H 0.5724 0.48363 0.01779 0.0
H1387 H 0.56117 0.44138 0.10679 0.0
H1388 H 0.55074 0.42482 0.02807 0.0
H1389 H 0.53858 0.46656 0.9394 0.0
H1390 H 0.54888 0.47754 0.88258 0.0
H1391 H 0.55632 0.48586 0.94512 0.0
H1392 H 0.58381 0.4889 0.92221 0.0
H1393 H 0.57641 0.48052 0.85954 0.0
H1394 H 0.58485 0.4717 0.90092 0.0
H1395 H 0.53914 0.41279 0.94011 0.0
H1396 H 0.52827 0.40661 0.85145 0.0
H1397 H 0.54872 0.45723 0.82142 0.0
C1398 C 0.56787 0.47091 0.0207 0.0
C1399 C 0.5675 0.46373 0.06826 0.0
C1400 C 0.56156 0.44708 0.07055 0.0
C1401 C 0.55565 0.43761 0.02609 0.0
C1402 C 0.55605 0.44508 0.97974 0.0
C1403 C 0.56218 0.46139 0.97684 0.0
C1404 C 0.56086 0.46657 0.92316 0.0
C1405 C 0.55055 0.4746 0.92256 0.0
C1406 C 0.57747 0.47757 0.90011 0.0
C1407 C 0.55261 0.45059 0.89638 0.0
C1408 C 0.54994 0.43829 0.92938 0.0
C1409 C 0.54143 0.42236 0.91375 0.0
C1410 C 0.53531 0.41895 0.86341 0.0
C1411 C 0.53781 0.43145 0.82948 0.0
C1412 C 0.54685 0.44742 0.84612 0.0
H1413 H 0.56581 0.095 0.79551 0.0
H1414 H 0.52391 0.06511 0.70326 0.0
H1415 H 0.50664 0.06184 0.77761 0.0
H1416 H 0.55203 0.07273 0.90923 0.0
H1417 H 0.56063 0.08969 0.95188 0.0
H1418 H 0.56967 0.09093 0.89032 0.0
H1419 H 0.56739 0.11575 0.86688 0.0
H1420 H 0.55849 0.11471 0.92865 0.0
H1421 H 0.54824 0.11463 0.87067 0.0
H1422 H 0.49407 0.06015 0.86389 0.0
H1423 H 0.48708 0.06124 0.95466 0.0
H1424 H 0.5372 0.09228 0.99032 0.0
C1425 C 0.55299 0.08804 0.79064 0.0
C1426 C 0.54619 0.08038 0.74353 0.0
C1427 C 0.52937 0.07116 0.73892 0.0
C1428 C 0.51947 0.06921 0.78096 0.0
C1429 C 0.52657 0.07661 0.82724 0.0
C1430 C 0.54294 0.08596 0.8322 0.0
C1431 C 0.54761 0.09205 0.8867 0.0
C1432 C 0.5581 0.08598 0.91094 0.0
C1433 C 0.55592 0.11037 0.8883 0.0
C1434 C 0.53132 0.08448 0.91181 0.0
C1435 C 0.51934 0.07565 0.87686 0.0
C1436 C 0.50334 0.06715 0.89149 0.0
C1437 C 0.49949 0.06779 0.94313 0.0
C1438 C 0.51159 0.07686 0.97946 0.0
C1439 C 0.52769 0.0853 0.96338 0.0
H1440 H 0.52405 0.09671 0.29985 0.0
H1441 H 0.54462 0.07609 0.19865 0.0
H1442 H 0.55943 0.07355 0.27191 0.0
H1443 H 0.55934 0.11856 0.38485 0.0
H1444 H 0.54714 0.11431 0.44151 0.0
H1445 H 0.53971 0.11629 0.38002 0.0
H1446 H 0.51479 0.0883 0.39166 0.0
H1447 H 0.52221 0.08613 0.4528 0.0
H1448 H 0.51736 0.07134 0.40334 0.0
H1449 H 0.56977 0.07071 0.3569 0.0
H1450 H 0.57606 0.06894 0.44774 0.0
H1451 H 0.54874 0.09131 0.49433 0.0
C1452 C 0.53201 0.09207 0.29288 0.0
C1453 C 0.53331 0.08671 0.24352 0.0
C1454 C 0.54355 0.08036 0.2361 0.0
C1455 C 0.55199 0.07886 0.27747 0.0
C1456 C 0.55008 0.0838 0.32595 0.0
C1457 C 0.54047 0.09042 0.33383 0.0
C1458 C 0.53971 0.09381 0.39033 0.0
C1459 C 0.54691 0.11181 0.39972 0.0
C1460 C 0.52249 0.08433 0.41071 0.0
C1461 C 0.55011 0.08775 0.41308 0.0
C1462 C 0.55603 0.08211 0.3752 0.0
C1463 C 0.56536 0.07527 0.38685 0.0
C1464 C 0.5688 0.07425 0.43857 0.0
C1465 C 0.56292 0.08001 0.47803 0.0
C1466 C 0.55349 0.08689 0.46495 0.0
H1467 H 0.89813 0.42618 0.35003 0.0
H1468 H 0.91942 0.46767 0.25004 0.0
H1469 H 0.92192 0.48487 0.32349 0.0
H1470 H 0.87582 0.43935 0.43145 0.0
H1471 H 0.8794 0.43134 0.48925 0.0
H1472 H 0.87828 0.42208 0.4281 0.0
H1473 H 0.90619 0.42532 0.44398 0.0
H1474 H 0.90747 0.43471 0.50494 0.0
H1475 H 0.92288 0.44485 0.45746 0.0
H1476 H 0.92383 0.49778 0.40768 0.0
H1477 H 0.92384 0.50564 0.49777 0.0
H1478 H 0.90107 0.45591 0.54419 0.0
C1479 C 0.90306 0.43885 0.3435 0.0
C1480 C 0.90853 0.4456 0.29434 0.0
C1481 C 0.91511 0.46225 0.28737 0.0
C1482 C 0.9166 0.47212 0.32883 0.0
C1483 C 0.9114 0.46515 0.37697 0.0
C1484 C 0.90464 0.4489 0.38457 0.0
C1485 C 0.90052 0.4446 0.44072 0.0
C1486 C 0.88243 0.4337 0.44778 0.0
C1487 C 0.90982 0.43692 0.46307 0.0
C1488 C 0.9062 0.461 0.46347 0.0
C1489 C 0.91242 0.47265 0.4259 0.0
C1490 C 0.91887 0.48877 0.43742 0.0
C1491 C 0.91887 0.49311 0.48873 0.0
C1492 C 0.91243 0.48138 0.52789 0.0
C1493 C 0.90601 0.46512 0.51499 0.0
H1494 H 0.53765 0.42818 0.52907 0.0
H1495 H 0.55698 0.47137 0.6204 0.0
H1496 H 0.57556 0.48654 0.54981 0.0
H1497 H 0.57478 0.43724 0.45882 0.0
H1498 H 0.56416 0.42908 0.39949 0.0
H1499 H 0.55441 0.42107 0.46015 0.0
H1500 H 0.53158 0.42637 0.43434 0.0
H1501 H 0.54121 0.43429 0.37368 0.0
H1502 H 0.53639 0.44621 0.41523 0.0
H1503 H 0.59029 0.49735 0.4675 0.0
H1504 H 0.59786 0.50379 0.37646 0.0
H1505 H 0.56778 0.45385 0.33645 0.0
C1506 C 0.54611 0.44075 0.53456 0.0
C1507 C 0.54613 0.44862 0.58024 0.0
C1508 C 0.55692 0.46516 0.58568 0.0
C1509 C 0.56757 0.47382 0.54601 0.0
C1510 C 0.56713 0.46576 0.50104 0.0
C1511 C 0.55657 0.44962 0.49488 0.0
C1512 C 0.55701 0.44426 0.44048 0.0
C1513 C 0.56295 0.4322 0.43971 0.0
C1514 C 0.54058 0.43739 0.41442 0.0
C1515 C 0.56914 0.46 0.4166 0.0
C1516 C 0.57514 0.47215 0.45256 0.0
C1517 C 0.58582 0.48791 0.43911 0.0
C1518 C 0.59007 0.49144 0.38729 0.0
C1519 C 0.58344 0.47931 0.34945 0.0
C1520 C 0.5732 0.46333 0.36463 0.0
H1521 H 0.43358 0.22746 0.64521 0.0
H1522 H 0.40288 0.24678 0.68345 0.0
H1523 H 0.40147 0.23802 0.77319 0.0
H1524 H 0.4132 0.19253 0.72291 0.0
H1525 H 0.431 0.19235 0.74227 0.0
H1526 H 0.43046 0.201 0.68154 0.0
H1527 H 0.45555 0.22755 0.70755 0.0
H1528 H 0.45614 0.21899 0.76848 0.0
H1529 H 0.45544 0.23726 0.76658 0.0
H1530 H 0.4026 0.22661 0.85755 0.0
H1531 H 0.40522 0.21206 0.93124 0.0
H1532 H 0.43483 0.19957 0.83922 0.0
C1533 C 0.42668 0.22994 0.67264 0.0
C1534 C 0.41838 0.23784 0.65747 0.0
C1535 C 0.40932 0.24074 0.69424 0.0
C1536 C 0.4085 0.23587 0.74536 0.0
C1537 C 0.41676 0.22807 0.75911 0.0
C1538 C 0.42562 0.22504 0.72391 0.0
C1539 C 0.43272 0.21575 0.74849 0.0
C1540 C 0.42647 0.19944 0.72224 0.0
C1541 C 0.45105 0.22548 0.74773 0.0
C1542 C 0.42631 0.21393 0.80276 0.0
C1543 C 0.41725 0.22126 0.80804 0.0
C1544 C 0.40972 0.22088 0.85404 0.0
C1545 C 0.41129 0.2126 0.89567 0.0
C1546 C 0.42027 0.20474 0.89099 0.0
C1547 C 0.42801 0.20558 0.84404 0.0
H1548 H 0.76787 0.1799 0.66354 0.0
H1549 H 0.77443 0.22011 0.5712 0.0
H1550 H 0.78666 0.23805 0.64574 0.0
H1551 H 0.75776 0.19226 0.78148 0.0
H1552 H 0.76821 0.18524 0.82144 0.0
H1553 H 0.75991 0.17563 0.76087 0.0
H1554 H 0.78768 0.18058 0.7321 0.0
H1555 H 0.79605 0.19013 0.79262 0.0
H1556 H 0.80453 0.20058 0.73328 0.0
H1557 H 0.79868 0.25165 0.73049 0.0
H1558 H 0.80964 0.25972 0.81844 0.0
H1559 H 0.79465 0.21038 0.85435 0.0
C1560 C 0.77188 0.19248 0.65898 0.0
C1561 C 0.77024 0.19864 0.61169 0.0
C1562 C 0.77559 0.21516 0.60721 0.0
C1563 C 0.78253 0.22543 0.64929 0.0
C1564 C 0.78394 0.21895 0.6955 0.0
C1565 C 0.77876 0.20286 0.70053 0.0
C1566 C 0.78175 0.19888 0.75411 0.0
C1567 C 0.76597 0.18732 0.78105 0.0
C1568 C 0.79319 0.19215 0.75293 0.0
C1569 C 0.78951 0.21526 0.77839 0.0
C1570 C 0.79068 0.22671 0.74411 0.0
C1571 C 0.79776 0.24277 0.75776 0.0
C1572 C 0.80393 0.24725 0.8077 0.0
C1573 C 0.80292 0.23567 0.84315 0.0
C1574 C 0.7955 0.21949 0.82821 0.0
H1575 H 0.76018 0.57506 0.86313 0.0
H1576 H 0.80173 0.59421 0.96264 0.0
H1577 H 0.81838 0.59552 0.88907 0.0
H1578 H 0.7718 0.55114 0.78031 0.0
H1579 H 0.76405 0.55534 0.72308 0.0
H1580 H 0.75504 0.55439 0.7846 0.0
H1581 H 0.75938 0.58279 0.76995 0.0
H1582 H 0.76857 0.58392 0.70876 0.0
H1583 H 0.7792 0.59904 0.75672 0.0
H1584 H 0.83106 0.59763 0.80409 0.0
H1585 H 0.83869 0.59824 0.71329 0.0
H1586 H 0.789 0.57701 0.66807 0.0
C1587 C 0.7727 0.57915 0.86962 0.0
C1588 C 0.77965 0.58448 0.91866 0.0
C1589 C 0.79613 0.59 0.92549 0.0
C1590 C 0.8057 0.59081 0.88391 0.0
C1591 C 0.7986 0.58593 0.83579 0.0
C1592 C 0.78244 0.57998 0.82845 0.0
C1593 C 0.778 0.57616 0.77221 0.0
C1594 C 0.76655 0.55819 0.76462 0.0
C1595 C 0.77087 0.58607 0.75066 0.0
C1596 C 0.79424 0.5813 0.74905 0.0
C1597 C 0.80594 0.58688 0.7865 0.0
C1598 C 0.82199 0.59307 0.77446 0.0
C1599 C 0.82622 0.59345 0.72277 0.0
C1600 C 0.81443 0.58762 0.68375 0.0
C1601 C 0.79824 0.58142 0.69719 0.0
H1602 H 0.44578 0.9045 0.51865 0.0
H1603 H 0.41939 0.92799 0.56354 0.0
H1604 H 0.42562 0.9264 0.6546 0.0
H1605 H 0.43505 0.87773 0.62972 0.0
H1606 H 0.45456 0.87974 0.63438 0.0
H1607 H 0.44708 0.88159 0.57283 0.0
H1608 H 0.47212 0.90945 0.56002 0.0
H1609 H 0.47971 0.90762 0.62127 0.0
H1610 H 0.47727 0.92459 0.60844 0.0
H1611 H 0.43573 0.92357 0.73999 0.0
H1612 H 0.45047 0.9212 0.81369 0.0
H1613 H 0.4706 0.89972 0.71434 0.0
C1614 C 0.44118 0.90915 0.54774 0.0
C1615 C 0.43203 0.91631 0.53405 0.0
C1616 C 0.42641 0.92246 0.57313 0.0
C1617 C 0.42981 0.92153 0.62499 0.0
C1618 C 0.43888 0.91445 0.63724 0.0
C1619 C 0.44457 0.90843 0.5998 0.0
C1620 C 0.45488 0.90233 0.6232 0.0
C1621 C 0.44744 0.88427 0.61451 0.0
C1622 C 0.47201 0.91155 0.60198 0.0
C1623 C 0.4543 0.90609 0.67952 0.0
C1624 C 0.44484 0.91291 0.68675 0.0
C1625 C 0.44305 0.91811 0.73491 0.0
C1626 C 0.45145 0.91669 0.77657 0.0
C1627 C 0.46157 0.91016 0.76988 0.0
C1628 C 0.46272 0.90449 0.72084 0.0
H1629 H 0.07606 0.54444 0.70797 0.0
H1630 H 0.1146 0.59283 0.68222 0.0
H1631 H 0.11862 0.58514 0.59494 0.0
H1632 H 0.09292 0.52392 0.63873 0.0
H1633 H 0.0739 0.50905 0.6132 0.0
H1634 H 0.07486 0.51829 0.67423 0.0
H1635 H 0.05502 0.52688 0.64077 0.0
H1636 H 0.05407 0.51775 0.57957 0.0
H1637 H 0.05959 0.53851 0.58264 0.0
H1638 H 0.1181 0.57187 0.50982 0.0
H1639 H 0.11251 0.55452 0.43354 0.0
H1640 H 0.07344 0.51542 0.51518 0.0
C1641 C 0.08549 0.55339 0.68427 0.0
C1642 C 0.09514 0.56919 0.7019 0.0
C1643 C 0.10715 0.58063 0.66941 0.0
C1644 C 0.10951 0.57637 0.61988 0.0
C1645 C 0.09965 0.56068 0.60348 0.0
C1646 C 0.08785 0.5494 0.63474 0.0
C1647 C 0.07837 0.53355 0.60754 0.0
C1648 C 0.08013 0.52043 0.63506 0.0
C1649 C 0.06072 0.52891 0.60232 0.0
C1650 C 0.08666 0.53761 0.55596 0.0
C1651 C 0.09899 0.55327 0.55436 0.0
C1652 C 0.10845 0.55962 0.51066 0.0
C1653 C 0.10519 0.54969 0.46757 0.0
C1654 C 0.0925 0.53369 0.46846 0.0
C1655 C 0.08315 0.52765 0.51326 0.0
H1656 H 0.42674 0.50898 0.65106 0.0
H1657 H 0.42683 0.5495 0.72254 0.0
H1658 H 0.43652 0.5647 0.6412 0.0
H1659 H 0.46302 0.53144 0.58842 0.0
H1660 H 0.45765 0.51906 0.53182 0.0
H1661 H 0.44824 0.51055 0.5923 0.0
H1662 H 0.42041 0.50053 0.55122 0.0
H1663 H 0.42975 0.50898 0.49042 0.0
H1664 H 0.41621 0.51451 0.51887 0.0
H1665 H 0.44778 0.57595 0.55362 0.0
H1666 H 0.46195 0.58321 0.47012 0.0
H1667 H 0.4564 0.53594 0.45929 0.0
C1668 C 0.42837 0.52089 0.64904 0.0
C1669 C 0.42577 0.52802 0.69249 0.0
C1670 C 0.4286 0.54382 0.68927 0.0
C1671 C 0.43403 0.55249 0.64327 0.0
C1672 C 0.43677 0.54522 0.60124 0.0
C1673 C 0.43414 0.52981 0.60391 0.0
C1674 C 0.43976 0.52537 0.55561 0.0
C1675 C 0.45295 0.52138 0.56779 0.0
C1676 C 0.42569 0.51153 0.52736 0.0
C1677 C 0.44623 0.54079 0.52568 0.0
C1678 C 0.44408 0.55198 0.55209 0.0
C1679 C 0.44944 0.56725 0.53248 0.0
C1680 C 0.45744 0.57126 0.48506 0.0
C1681 C 0.46026 0.56013 0.45848 0.0
C1682 C 0.45439 0.54467 0.47885 0.0
H1683 H 0.59216 0.79866 0.10591 0.0
H1684 H 0.54262 0.78694 0.10366 0.0
H1685 H 0.53843 0.77364 0.18825 0.0
H1686 H 0.58625 0.76249 0.16953 0.0
H1687 H 0.60435 0.77306 0.20654 0.0
H1688 H 0.60295 0.78043 0.14428 0.0
H1689 H 0.61043 0.80776 0.18489 0.0
H1690 H 0.61172 0.80045 0.24733 0.0
H1691 H 0.59869 0.80853 0.23746 0.0
H1692 H 0.54009 0.76257 0.27483 0.0
H1693 H 0.54737 0.75465 0.35631 0.0
H1694 H 0.59611 0.77461 0.30244 0.0
C1695 C 0.58034 0.79304 0.12272 0.0
C1696 C 0.56765 0.79367 0.09804 0.0
C1697 C 0.55246 0.78647 0.12179 0.0
C1698 C 0.54999 0.77892 0.1698 0.0
C1699 C 0.56286 0.77878 0.19353 0.0
C1700 C 0.57773 0.78564 0.1707 0.0
C1701 C 0.5898 0.7846 0.20514 0.0
C1702 C 0.59621 0.77454 0.17986 0.0
C1703 C 0.60346 0.80133 0.21955 0.0
C1704 C 0.57944 0.77614 0.25118 0.0
C1705 C 0.56391 0.77279 0.24365 0.0
C1706 C 0.5522 0.7651 0.28104 0.0
C1707 C 0.55645 0.76067 0.32721 0.0
C1708 C 0.57231 0.76405 0.33573 0.0
C1709 C 0.58391 0.77191 0.29711 0.0
H1710 H 0.20566 0.78886 0.39469 0.0
H1711 H 0.25271 0.79376 0.38985 0.0
H1712 H 0.24612 0.77945 0.30678 0.0
H1713 H 0.1845 0.7483 0.33599 0.0
H1714 H 0.17084 0.75253 0.30166 0.0
H1715 H 0.1789 0.76201 0.36263 0.0
H1716 H 0.18937 0.78976 0.32037 0.0
H1717 H 0.18141 0.78037 0.25939 0.0
H1718 H 0.20228 0.79507 0.26509 0.0
H1719 H 0.23578 0.76845 0.2178 0.0
H1720 H 0.22123 0.75876 0.13508 0.0
H1721 H 0.18014 0.75848 0.2025 0.0
C1722 C 0.21443 0.78661 0.3766 0.0
C1723 C 0.22968 0.79238 0.39859 0.0
C1724 C 0.2409 0.7893 0.3738 0.0
C1725 C 0.23728 0.78123 0.32655 0.0
C1726 C 0.22225 0.77597 0.30525 0.0
C1727 C 0.21087 0.77822 0.33006 0.0
C1728 C 0.19575 0.77175 0.29849 0.0
C1729 C 0.18167 0.75782 0.32636 0.0
C1730 C 0.19199 0.78503 0.28504 0.0
C1731 C 0.20059 0.76602 0.2513 0.0
C1732 C 0.21595 0.76862 0.25566 0.0
C1733 C 0.22358 0.7659 0.21451 0.0
C1734 C 0.21528 0.76044 0.16774 0.0
C1735 C 0.19947 0.75748 0.16308 0.0
C1736 C 0.19203 0.7601 0.20567 0.0
H1737 H 0.2394 0.42864 0.12868 0.0
H1738 H 0.20081 0.42062 0.02569 0.0
H1739 H 0.18552 0.42222 0.09915 0.0
H1740 H 0.21546 0.40423 0.22619 0.0
H1741 H 0.22752 0.41642 0.27882 0.0
H1742 H 0.23662 0.41731 0.21771 0.0
H1743 H 0.24797 0.44788 0.21383 0.0
H1744 H 0.23901 0.44712 0.27531 0.0
H1745 H 0.23464 0.45574 0.22063 0.0
H1746 H 0.17315 0.42137 0.18383 0.0
H1747 H 0.16459 0.41859 0.27435 0.0
H1748 H 0.21101 0.42689 0.32344 0.0
C1749 C 0.22795 0.42774 0.12144 0.0
C1750 C 0.22134 0.42468 0.07147 0.0
C1751 C 0.20613 0.42309 0.06363 0.0
C1752 C 0.19737 0.424 0.10511 0.0
C1753 C 0.20401 0.42653 0.15414 0.0
C1754 C 0.21899 0.42849 0.16254 0.0
C1755 C 0.22273 0.42959 0.21953 0.0
C1756 C 0.22576 0.41608 0.23653 0.0
C1757 C 0.23693 0.44606 0.23312 0.0
C1758 C 0.20731 0.42745 0.24186 0.0
C1759 C 0.19676 0.4259 0.2034 0.0
C1760 C 0.18139 0.42282 0.21429 0.0
C1761 C 0.17662 0.42119 0.26582 0.0
C1762 C 0.18716 0.42259 0.30587 0.0
C1763 C 0.20277 0.42596 0.29363 0.0
H1764 H 0.2145 0.42446 0.82442 0.0
H1765 H 0.25222 0.41567 0.77435 0.0
H1766 H 0.2473 0.41995 0.68428 0.0
H1767 H 0.18805 0.4036 0.7238 0.0
H1768 H 0.18036 0.41709 0.71741 0.0
H1769 H 0.18803 0.41512 0.77829 0.0
H1770 H 0.20766 0.44564 0.77995 0.0
H1771 H 0.20009 0.44768 0.71879 0.0
H1772 H 0.22114 0.45497 0.72679 0.0
H1773 H 0.23694 0.42288 0.59969 0.0
H1774 H 0.22097 0.42304 0.52592 0.0
H1775 H 0.18991 0.42998 0.63003 0.0
C1776 C 0.22188 0.42369 0.79451 0.0
C1777 C 0.23379 0.4198 0.80632 0.0
C1778 C 0.24304 0.41865 0.76614 0.0
C1779 C 0.2404 0.42115 0.71489 0.0
C1780 C 0.22848 0.42482 0.70441 0.0
C1781 C 0.21933 0.42607 0.74301 0.0
C1782 C 0.20647 0.42892 0.72093 0.0
C1783 C 0.18974 0.41537 0.73599 0.0
C1784 C 0.209 0.44528 0.73761 0.0
C1785 C 0.20955 0.42866 0.6639 0.0
C1786 C 0.22244 0.42649 0.65528 0.0
C1787 C 0.22696 0.4248 0.60589 0.0
C1788 C 0.21783 0.42492 0.56423 0.0
C1789 C 0.20431 0.42667 0.57224 0.0
C1790 C 0.20038 0.42895 0.62267 0.0
H1791 H 0.56703 0.78268 0.83715 0.0
H1792 H 0.58392 0.83141 0.78766 0.0
H1793 H 0.58254 0.82316 0.69733 0.0
H1794 H 0.58957 0.77472 0.74721 0.0
H1795 H 0.57451 0.75423 0.73605 0.0
H1796 H 0.57524 0.76353 0.79668 0.0
H1797 H 0.54579 0.75637 0.785 0.0
H1798 H 0.545 0.7471 0.72411 0.0
H1799 H 0.54 0.7627 0.72772 0.0
H1800 H 0.58114 0.8104 0.61362 0.0
H1801 H 0.58119 0.79407 0.54105 0.0
H1802 H 0.56547 0.75339 0.6429 0.0
C1803 C 0.57021 0.79153 0.80716 0.0
C1804 C 0.5755 0.80767 0.81933 0.0
C1805 C 0.57983 0.81899 0.7792 0.0
C1806 C 0.579 0.8144 0.72774 0.0
C1807 C 0.57385 0.79846 0.71695 0.0
C1808 C 0.56959 0.78718 0.75538 0.0
C1809 C 0.56561 0.77108 0.73316 0.0
C1810 C 0.57691 0.76557 0.75454 0.0
C1811 C 0.54806 0.75858 0.74309 0.0
C1812 C 0.56863 0.77521 0.67645 0.0
C1813 C 0.57317 0.79103 0.66807 0.0
C1814 C 0.57744 0.79795 0.61953 0.0
C1815 C 0.57743 0.78858 0.57855 0.0
C1816 C 0.57322 0.77245 0.58628 0.0
C1817 C 0.56844 0.7656 0.63571 0.0
H1818 H 0.19241 0.75903 0.85054 0.0
H1819 H 0.2211 0.79906 0.95125 0.0
H1820 H 0.23808 0.81419 0.87731 0.0
H1821 H 0.22432 0.76334 0.76541 0.0
H1822 H 0.21201 0.7582 0.7087 0.0
H1823 H 0.20308 0.75006 0.77021 0.0
H1824 H 0.18393 0.76131 0.7589 0.0
H1825 H 0.19275 0.76942 0.69736 0.0
H1826 H 0.1921 0.7823 0.74621 0.0
H1827 H 0.2514 0.82513 0.79176 0.0
H1828 H 0.25862 0.83202 0.70051 0.0
H1829 H 0.22029 0.78525 0.6553 0.0
C1830 C 0.20241 0.7709 0.85716 0.0
C1831 C 0.20559 0.77785 0.90664 0.0
C1832 C 0.21854 0.79352 0.91364 0.0
C1833 C 0.22827 0.80215 0.87195 0.0
C1834 C 0.22476 0.79497 0.82355 0.0
C1835 C 0.21206 0.77975 0.81591 0.0
C1836 C 0.21008 0.77519 0.75956 0.0
C1837 C 0.21252 0.76085 0.75045 0.0
C1838 C 0.19375 0.77187 0.73933 0.0
C1839 C 0.22357 0.7903 0.73649 0.0
C1840 C 0.23205 0.80147 0.77412 0.0
C1841 C 0.24487 0.81645 0.76202 0.0
C1842 C 0.24891 0.82024 0.71009 0.0
C1843 C 0.24003 0.80916 0.67085 0.0
C1844 C 0.22734 0.79393 0.68446 0.0
H1845 H 0.07535 0.56241 0.01991 0.0
H1846 H 0.1105 0.55713 0.93168 0.0
H1847 H 0.11596 0.54507 0.0073 0.0
H1848 H 0.09704 0.57284 0.14022 0.0
H1849 H 0.07928 0.56208 0.17867 0.0
H1850 H 0.07831 0.57041 0.11774 0.0
H1851 H 0.05607 0.54252 0.0875 0.0
H1852 H 0.05693 0.53413 0.14836 0.0
H1853 H 0.05958 0.52589 0.0895 0.0
H1854 H 0.11662 0.53245 0.09199 0.0
H1855 H 0.11282 0.52088 0.17934 0.0
H1856 H 0.07806 0.53556 0.21216 0.0
C1857 C 0.08421 0.55873 0.01651 0.0
C1858 C 0.09248 0.56064 0.96997 0.0
C1859 C 0.10404 0.55576 0.96706 0.0
C1860 C 0.10722 0.54892 0.00977 0.0
C1861 C 0.09885 0.54719 0.05515 0.0
C1862 C 0.08764 0.55204 0.05882 0.0
C1863 C 0.08022 0.54882 0.1118 0.0
C1864 C 0.08394 0.56447 0.13869 0.0
C1865 C 0.06213 0.53714 0.1091 0.0
C1866 C 0.08887 0.54124 0.13726 0.0
C1867 C 0.09955 0.54036 0.10403 0.0
C1868 C 0.10841 0.53321 0.11849 0.0
C1869 C 0.10618 0.52668 0.1681 0.0
C1870 C 0.09527 0.52747 0.20257 0.0
C1871 C 0.08666 0.53499 0.18691 0.0
H1872 H 0.45741 0.53898 0.9554 0.0
H1873 H 0.41002 0.53281 0.97213 0.0
H1874 H 0.41794 0.54711 0.05512 0.0
H1875 H 0.46206 0.53137 0.08191 0.0
H1876 H 0.48302 0.54587 0.08619 0.0
H1877 H 0.47436 0.5372 0.02506 0.0
H1878 H 0.48462 0.56543 0.9868 0.0
H1879 H 0.49338 0.57421 0.04794 0.0
H1880 H 0.47949 0.57894 0.01772 0.0
H1881 H 0.42996 0.559 0.14109 0.0
H1882 H 0.44538 0.56797 0.22218 0.0
H1883 H 0.48494 0.56678 0.14802 0.0
C1884 C 0.44882 0.54098 0.97593 0.0
C1885 C 0.43313 0.53486 0.95731 0.0
C1886 C 0.42214 0.53748 0.98563 0.0
C1887 C 0.42654 0.54561 0.03275 0.0
C1888 C 0.442 0.55117 0.0507 0.0
C1889 C 0.45302 0.54909 0.02292 0.0
C1890 C 0.46845 0.5551 0.0524 0.0
C1891 C 0.47218 0.54158 0.06196 0.0
C1892 C 0.4823 0.56926 0.02455 0.0
C1893 C 0.46421 0.56037 0.10179 0.0
C1894 C 0.44896 0.55817 0.09998 0.0
C1895 C 0.44202 0.56106 0.14263 0.0
C1896 C 0.45083 0.56612 0.18851 0.0
C1897 C 0.46637 0.56819 0.19117 0.0
C1898 C 0.47318 0.56555 0.14691 0.0
H1899 H 0.45607 0.90152 0.02234 0.0
H1900 H 0.50537 0.93704 0.05344 0.0
H1901 H 0.49895 0.9369 0.14521 0.0
H1902 H 0.43938 0.91847 0.10666 0.0
H1903 H 0.42293 0.89956 0.12701 0.0
H1904 H 0.43166 0.90141 0.0645 0.0
H1905 H 0.43667 0.87813 0.08636 0.0
H1906 H 0.4281 0.87634 0.14923 0.0
H1907 H 0.44799 0.87937 0.14298 0.0
H1908 H 0.48736 0.93352 0.23259 0.0
H1909 H 0.47067 0.9296 0.30876 0.0
H1910 H 0.42842 0.89714 0.22179 0.0
C1911 C 0.4655 0.90916 0.04866 0.0
C1912 C 0.48124 0.91924 0.03094 0.0
C1913 C 0.49323 0.92926 0.06622 0.0
C1914 C 0.48973 0.92917 0.11849 0.0
C1915 C 0.47414 0.91909 0.13486 0.0
C1916 C 0.46214 0.90943 0.10102 0.0
C1917 C 0.44614 0.90071 0.12823 0.0
C1918 C 0.43434 0.90532 0.10524 0.0
C1919 C 0.43933 0.88256 0.12659 0.0
C1920 C 0.45103 0.90715 0.18242 0.0
C1921 C 0.46729 0.91751 0.18543 0.0
C1922 C 0.47462 0.92539 0.23084 0.0
C1923 C 0.46503 0.92304 0.27397 0.0
C1924 C 0.44825 0.91303 0.27132 0.0
C1925 C 0.44123 0.9047 0.2252 0.0
H1926 H 0.21553 0.3637 0.06757 0.0
H1927 H 0.22501 0.35576 0.91051 0.0
H1928 H 0.21409 0.32711 0.92966 0.0
H1929 H 0.22459 0.33565 0.1292 0.0
H1930 H 0.20857 0.32902 0.17518 0.0
H1931 H 0.21778 0.34903 0.14994 0.0
H1932 H 0.19019 0.34419 0.11966 0.0
H1933 H 0.18089 0.32423 0.14513 0.0
H1934 H 0.17805 0.3274 0.07859 0.0
H1935 H 0.20237 0.29954 0.96588 0.0
H1936 H 0.18817 0.27425 0.01399 0.0
H1937 H 0.18512 0.29984 0.14663 0.0
C1938 C 0.21536 0.35593 0.0373 0.0
C1939 C 0.22118 0.3619 0.98763 0.0
C1940 C 0.22059 0.35138 0.9488 0.0
C1941 C 0.2145 0.33513 0.95939 0.0
C1942 C 0.20893 0.32963 0.00885 0.0
C1943 C 0.20911 0.33965 0.04702 0.0
C1944 C 0.20164 0.33054 0.09617 0.0
C1945 C 0.21388 0.33642 0.14022 0.0
C1946 C 0.18681 0.33166 0.11072 0.0
C1947 C 0.19716 0.3138 0.0796 0.0
C1948 C 0.20167 0.3136 0.02931 0.0
C1949 C 0.19877 0.29954 0.00526 0.0
C1950 C 0.19075 0.28525 0.033 0.0
C1951 C 0.18556 0.28509 0.08404 0.0
C1952 C 0.18899 0.29961 0.10774 0.0
H1953 H 0.69236 0.87319 0.13295 0.0
H1954 H 0.70494 0.92226 0.10361 0.0
H1955 H 0.67919 0.9128 0.05862 0.0
H1956 H 0.67384 0.85775 0.01124 0.0
H1957 H 0.65853 0.83901 0.03712 0.0
H1958 H 0.67764 0.84968 0.06851 0.0
H1959 H 0.66378 0.84963 0.15387 0.0
H1960 H 0.64462 0.83885 0.12286 0.0
H1961 H 0.65036 0.85749 0.15478 0.0
H1962 H 0.65176 0.89775 0.01763 0.0
H1963 H 0.62507 0.87836 0.98343 0.0
H1964 H 0.63137 0.83933 0.03655 0.0
C1965 C 0.68964 0.88195 0.11748 0.0
C1966 C 0.70056 0.89846 0.12204 0.0
C1967 C 0.69668 0.90956 0.10067 0.0
C1968 C 0.68211 0.90429 0.07502 0.0
C1969 C 0.67167 0.88791 0.07075 0.0
C1970 C 0.67528 0.87691 0.09133 0.0
C1971 C 0.66221 0.85998 0.08065 0.0
C1972 C 0.66843 0.85109 0.0474 0.0
C1973 C 0.6548 0.85096 0.13104 0.0
C1974 C 0.6506 0.86313 0.05107 0.0
C1975 C 0.65622 0.8793 0.04586 0.0
C1976 C 0.6473 0.88506 0.0212 0.0
C1977 C 0.63219 0.87398 0.00185 0.0
C1978 C 0.62625 0.85738 0.00693 0.0
C1979 C 0.63569 0.85195 0.03145 0.0
H1980 H 0.14555 0.78224 0.01111 0.0
H1981 H 0.14913 0.7644 0.16076 0.0
H1982 H 0.13502 0.777 0.20018 0.0
H1983 H 0.15123 0.81993 0.05358 0.0
H1984 H 0.13683 0.82006 0.00992 0.0
H1985 H 0.14717 0.80955 0.99299 0.0
H1986 H 0.12008 0.7836 0.9795 0.0
H1987 H 0.10966 0.79404 0.99644 0.0
H1988 H 0.10564 0.77623 0.03085 0.0
H1989 H 0.12189 0.79258 0.22439 0.0
H1990 H 0.10905 0.80911 0.23101 0.0
H1991 H 0.11241 0.81563 0.06552 0.0
C1992 C 0.14331 0.78099 0.05211 0.0
C1993 C 0.14843 0.77237 0.08292 0.0
C1994 C 0.14524 0.77089 0.13641 0.0
C1995 C 0.13726 0.77803 0.15921 0.0
C1996 C 0.13237 0.78644 0.12791 0.0
C1997 C 0.13511 0.78785 0.07549 0.0
C1998 C 0.1284 0.79744 0.05077 0.0
C1999 C 0.1417 0.81265 0.02533 0.0
C2000 C 0.11516 0.78721 0.01211 0.0
C2001 C 0.12169 0.80136 0.09763 0.0
C2002 C 0.12418 0.79496 0.14174 0.0
C2003 C 0.11969 0.79752 0.1901 0.0
C2004 C 0.11245 0.80693 0.19351 0.0
C2005 C 0.10963 0.81347 0.14878 0.0
C2006 C 0.11422 0.81054 0.10025 0.0
H2007 H 0.30484 0.18368 0.35677 0.0
H2008 H 0.28955 0.21749 0.39739 0.0
H2009 H 0.31659 0.23614 0.43031 0.0
H2010 H 0.32854 0.18992 0.4671 0.0
H2011 H 0.34379 0.18788 0.43393 0.0
H2012 H 0.32362 0.17775 0.4101 0.0
H2013 H 0.33354 0.19136 0.32135 0.0
H2014 H 0.35376 0.20147 0.34483 0.0
H2015 H 0.34536 0.21281 0.31774 0.0
H2016 H 0.34505 0.25063 0.4616 0.0
H2017 H 0.37276 0.25979 0.48946 0.0
H2018 H 0.36898 0.21608 0.43012 0.0
C2019 C 0.30724 0.19511 0.37191 0.0
C2020 C 0.29517 0.19922 0.3743 0.0
C2021 C 0.29868 0.21416 0.39508 0.0
C2022 C 0.31399 0.22482 0.41381 0.0
C2023 C 0.32558 0.2203 0.41155 0.0
C2024 C 0.32239 0.20581 0.39107 0.0
C2025 C 0.33671 0.20351 0.39516 0.0
C2026 C 0.33294 0.1889 0.42857 0.0
C2027 C 0.3427 0.20222 0.34158 0.0
C2028 C 0.34842 0.2189 0.42156 0.0
C2029 C 0.34183 0.22849 0.43039 0.0
C2030 C 0.35036 0.24325 0.45476 0.0
C2031 C 0.36605 0.24834 0.47048 0.0
C2032 C 0.37296 0.23862 0.46203 0.0
C2033 C 0.36399 0.22375 0.4372 0.0
H2034 H 0.78904 0.1544 0.44725 0.0
H2035 H 0.74169 0.11433 0.47593 0.0
H2036 H 0.75149 0.09564 0.45631 0.0
H2037 H 0.79778 0.13689 0.33979 0.0
H2038 H 0.8186 0.14546 0.35582 0.0
H2039 H 0.80797 0.15556 0.37409 0.0
H2040 H 0.81606 0.15575 0.46922 0.0
H2041 H 0.82676 0.1457 0.45122 0.0
H2042 H 0.81147 0.13721 0.49985 0.0
H2043 H 0.76678 0.08142 0.43491 0.0
H2044 H 0.78605 0.07281 0.40998 0.0
H2045 H 0.82282 0.12235 0.39095 0.0
C2046 C 0.78076 0.14169 0.4498 0.0
C2047 C 0.76465 0.13577 0.4635 0.0
C2048 C 0.75411 0.11908 0.46564 0.0
C2049 C 0.75956 0.1084 0.4546 0.0
C2050 C 0.77553 0.11464 0.44093 0.0
C2051 C 0.78594 0.1309 0.43819 0.0
C2052 C 0.80238 0.13458 0.42105 0.0
C2053 C 0.80694 0.14366 0.36964 0.0
C2054 C 0.8149 0.14386 0.46284 0.0
C2055 C 0.79965 0.11785 0.41484 0.0
C2056 C 0.78412 0.10649 0.4268 0.0
C2057 C 0.77894 0.09021 0.42514 0.0
C2058 C 0.78994 0.08544 0.41098 0.0
C2059 C 0.80585 0.09691 0.39817 0.0
C2060 C 0.81068 0.1133 0.39996 0.0
H2061 H 0.88721 0.6899 0.30709 0.0
H2062 H 0.92651 0.71404 0.4145 0.0
H2063 H 0.9169 0.689 0.4629 0.0
H2064 H 0.85835 0.66734 0.39584 0.0
H2065 H 0.84798 0.64947 0.35762 0.0
H2066 H 0.85909 0.66858 0.32663 0.0
H2067 H 0.87561 0.65867 0.27643 0.0
H2068 H 0.86441 0.63942 0.30685 0.0
H2069 H 0.88588 0.65033 0.3111 0.0
H2070 H 0.90066 0.66304 0.50788 0.0
H2071 H 0.88031 0.6366 0.54095 0.0
H2072 H 0.85244 0.62844 0.40218 0.0
C2073 C 0.89406 0.68977 0.33982 0.0
C2074 C 0.90763 0.70391 0.35696 0.0
C2075 C 0.91613 0.70334 0.40051 0.0
C2076 C 0.91076 0.68917 0.42833 0.0
C2077 C 0.89701 0.67559 0.41166 0.0
C2078 C 0.88894 0.67564 0.36783 0.0
C2079 C 0.87394 0.65962 0.36015 0.0
C2080 C 0.85896 0.66137 0.36008 0.0
C2081 C 0.87503 0.65153 0.3107 0.0
C2082 C 0.87454 0.65082 0.40753 0.0
C2083 C 0.88796 0.66025 0.43672 0.0
C2084 C 0.89033 0.65536 0.48474 0.0
C2085 C 0.8787 0.6404 0.50335 0.0
C2086 C 0.86503 0.63048 0.47367 0.0
C2087 C 0.86303 0.63568 0.42495 0.0
H2088 H 0.83012 0.71078 0.90648 0.0
H2089 H 0.79096 0.71563 0.84588 0.0
H2090 H 0.7717 0.68908 0.88112 0.0
H2091 H 0.81375 0.6695 0.88193 0.0
H2092 H 0.82104 0.66549 0.94057 0.0
H2093 H 0.83163 0.685 0.91179 0.0
H2094 H 0.82948 0.6977 0.99696 0.0
H2095 H 0.81886 0.67821 0.02606 0.0
H2096 H 0.81014 0.69089 0.02537 0.0
H2097 H 0.75696 0.66138 0.91773 0.0
H2098 H 0.74758 0.63488 0.95696 0.0
H2099 H 0.79631 0.64879 0.99785 0.0
C2100 C 0.81748 0.70626 0.90075 0.0
C2101 C 0.81197 0.71515 0.87327 0.0
C2102 C 0.79537 0.70896 0.86689 0.0
C2103 C 0.78438 0.69392 0.88674 0.0
C2104 C 0.7902 0.68541 0.91347 0.0
C2105 C 0.80636 0.69141 0.92098 0.0
C2106 C 0.80951 0.67987 0.95104 0.0
C2107 C 0.81957 0.67466 0.91943 0.0
C2108 C 0.81747 0.6871 0.00294 0.0
C2109 C 0.79262 0.66625 0.95827 0.0
C2110 C 0.78166 0.66969 0.93628 0.0
C2111 C 0.76539 0.65863 0.93568 0.0
C2112 C 0.76019 0.64362 0.95792 0.0
C2113 C 0.77122 0.6399 0.98077 0.0
C2114 C 0.78761 0.65143 0.98137 0.0
H2115 H 0.35999 0.14064 0.01755 0.0
H2116 H 0.38469 0.13467 0.8877 0.0
H2117 H 0.3589 0.11759 0.84485 0.0
H2118 H 0.32469 0.09965 0.01323 0.0
H2119 H 0.31115 0.10657 0.03078 0.0
H2120 H 0.33146 0.117 0.05362 0.0
H2121 H 0.33521 0.1433 0.0145 0.0
H2122 H 0.31499 0.13296 0.99132 0.0
H2123 H 0.33121 0.14398 0.94713 0.0
H2124 H 0.3309 0.10413 0.81125 0.0
H2125 H 0.30229 0.09363 0.79214 0.0
H2126 H 0.29549 0.10705 0.94511 0.0
C2127 C 0.35993 0.13544 0.98063 0.0
C2128 C 0.37435 0.13896 0.95603 0.0
C2129 C 0.3738 0.13209 0.90741 0.0
C2130 C 0.3592 0.12236 0.88272 0.0
C2131 C 0.34522 0.11943 0.90739 0.0
C2132 C 0.34542 0.12557 0.95558 0.0
C2133 C 0.32873 0.12121 0.9725 0.0
C2134 C 0.32371 0.11047 0.02037 0.0
C2135 C 0.32747 0.13626 0.98189 0.0
C2136 C 0.31921 0.1121 0.92568 0.0
C2137 C 0.32894 0.11118 0.88858 0.0
C2138 C 0.32309 0.10447 0.8404 0.0
C2139 C 0.30687 0.09858 0.8298 0.0
C2140 C 0.29669 0.09933 0.86738 0.0
C2141 C 0.30294 0.106 0.91609 0.0
H2142 H 0.87904 0.17935 0.93309 0.0
H2143 H 0.9159 0.21356 0.83171 0.0
H2144 H 0.90617 0.23254 0.84666 0.0
H2145 H 0.84831 0.18752 0.8939 0.0
H2146 H 0.83998 0.18493 0.95751 0.0
H2147 H 0.85004 0.17429 0.93889 0.0
H2148 H 0.869 0.18618 0.01716 0.0
H2149 H 0.85907 0.19695 0.03583 0.0
H2150 H 0.88034 0.20753 0.02538 0.0
H2151 H 0.89205 0.24758 0.87227 0.0
H2152 H 0.87424 0.25717 0.9045 0.0
H2153 H 0.84702 0.21304 0.98967 0.0
C2154 C 0.88507 0.19083 0.91396 0.0
C2155 C 0.89822 0.19502 0.88122 0.0
C2156 C 0.90578 0.21013 0.85687 0.0
C2157 C 0.90037 0.22099 0.86525 0.0
C2158 C 0.88742 0.21651 0.89807 0.0
C2159 C 0.87984 0.20176 0.92188 0.0
C2160 C 0.86605 0.19971 0.95475 0.0
C2161 C 0.85016 0.18579 0.93507 0.0
C2162 C 0.86879 0.19747 0.01165 0.0
C2163 C 0.86701 0.21561 0.94577 0.0
C2164 C 0.87941 0.22516 0.91301 0.0
C2165 C 0.88235 0.24023 0.89811 0.0
C2166 C 0.8722 0.24558 0.91665 0.0
C2167 C 0.85933 0.23588 0.94977 0.0
C2168 C 0.85687 0.22079 0.96483 0.0
H2169 H 0.70596 0.81016 0.56497 0.0
H2170 H 0.69646 0.79199 0.72105 0.0
H2171 H 0.66828 0.77346 0.69788 0.0
H2172 H 0.67036 0.81106 0.55097 0.0
H2173 H 0.66751 0.80554 0.48399 0.0
H2174 H 0.68732 0.81576 0.51068 0.0
H2175 H 0.69202 0.79298 0.47967 0.0
H2176 H 0.67221 0.78268 0.45272 0.0
H2177 H 0.67824 0.7727 0.49841 0.0
H2178 H 0.64107 0.75806 0.65928 0.0
H2179 H 0.61611 0.74808 0.61 0.0
H2180 H 0.64287 0.77745 0.48009 0.0
C2181 C 0.69801 0.802 0.59386 0.0
C2182 C 0.70335 0.80226 0.64457 0.0
C2183 C 0.69255 0.79183 0.6819 0.0
C2184 C 0.67658 0.78125 0.66904 0.0
C2185 C 0.67161 0.78143 0.61886 0.0
C2186 C 0.68196 0.7916 0.58191 0.0
C2187 C 0.67325 0.79051 0.53229 0.0
C2188 C 0.67469 0.80668 0.51872 0.0
C2189 C 0.67929 0.78435 0.48817 0.0
C2190 C 0.65633 0.77831 0.54734 0.0
C2191 C 0.65572 0.77303 0.59714 0.0
C2192 C 0.6414 0.76203 0.62017 0.0
C2193 C 0.62729 0.75643 0.59182 0.0
C2194 C 0.62756 0.76198 0.54122 0.0
C2195 C 0.64232 0.77294 0.5186 0.0
H2196 H 0.17297 0.87386 0.60843 0.0
H2197 H 0.21334 0.92209 0.6167 0.0
H2198 H 0.23135 0.91218 0.59068 0.0
H2199 H 0.19346 0.85409 0.65816 0.0
H2200 H 0.18339 0.83709 0.6161 0.0
H2201 H 0.17361 0.84795 0.63541 0.0
H2202 H 0.16936 0.85233 0.53976 0.0
H2203 H 0.17921 0.84156 0.52014 0.0
H2204 H 0.18631 0.86159 0.49721 0.0
H2205 H 0.24499 0.89728 0.56398 0.0
H2206 H 0.25367 0.8781 0.54047 0.0
H2207 H 0.2046 0.83934 0.54872 0.0
C2208 C 0.18561 0.88231 0.60495 0.0
C2209 C 0.19177 0.89875 0.61466 0.0
C2210 C 0.20836 0.90945 0.60954 0.0
C2211 C 0.21869 0.90394 0.59467 0.0
C2212 C 0.21224 0.8877 0.58501 0.0
C2213 C 0.19611 0.87701 0.59007 0.0
C2214 C 0.19234 0.86015 0.57758 0.0
C2215 C 0.18529 0.84918 0.62462 0.0
C2216 C 0.18114 0.85352 0.53089 0.0
C2217 C 0.20889 0.86306 0.56488 0.0
C2218 C 0.22015 0.87906 0.56933 0.0
C2219 C 0.23629 0.88472 0.56029 0.0
C2220 C 0.24109 0.87373 0.54691 0.0
C2221 C 0.22981 0.85724 0.54264 0.0
C2222 C 0.21347 0.85188 0.55135 0.0
H2223 H 0.15357 0.36536 0.55918 0.0
H2224 H 0.1295 0.3596 0.41332 0.0
H2225 H 0.11154 0.33101 0.43251 0.0
H2226 H 0.1522 0.32717 0.55521 0.0
H2227 H 0.14919 0.32394 0.62352 0.0
H2228 H 0.16001 0.34396 0.5985 0.0
H2229 H 0.1405 0.35081 0.64506 0.0
H2230 H 0.12956 0.33077 0.66995 0.0
H2231 H 0.11937 0.33879 0.63322 0.0
H2232 H 0.09533 0.30362 0.46958 0.0
H2233 H 0.08364 0.27826 0.51766 0.0
H2234 H 0.11939 0.3012 0.6369 0.0
C2235 C 0.14454 0.35804 0.53127 0.0
C2236 C 0.14282 0.36464 0.48488 0.0
C2237 C 0.131 0.35472 0.44901 0.0
C2238 C 0.12072 0.33852 0.45968 0.0
C2239 C 0.12261 0.3324 0.506 0.0
C2240 C 0.13437 0.34178 0.54088 0.0
C2241 C 0.13413 0.33212 0.58713 0.0
C2242 C 0.14981 0.33178 0.59131 0.0
C2243 C 0.13068 0.3385 0.63677 0.0
C2244 C 0.12029 0.31587 0.57299 0.0
C2245 C 0.11371 0.31638 0.52632 0.0
C2246 C 0.10046 0.30303 0.50592 0.0
C2247 C 0.09386 0.28871 0.53363 0.0
C2248 C 0.10067 0.2878 0.58081 0.0
C2249 C 0.11404 0.30156 0.60071 0.0
H2250 H 0.03225 0.54751 0.76073 0.0
H2251 H 0.03194 0.57833 0.88138 0.0
H2252 H 0.00343 0.56885 0.86329 0.0
H2253 H 0.00695 0.553 0.67269 0.0
H2254 H 0.997 0.53261 0.65059 0.0
H2255 H 0.01726 0.54179 0.67344 0.0
H2256 H 0.00906 0.519 0.73982 0.0
H2257 H 0.9888 0.50969 0.71697 0.0
H2258 H 0.99303 0.51454 0.78415 0.0
H2259 H 0.97476 0.55582 0.83106 0.0
H2260 H 0.94835 0.53978 0.78958 0.0
H2261 H 0.96804 0.51783 0.69045 0.0
C2262 C 0.0262 0.55225 0.78351 0.0
C2263 C 0.03427 0.56364 0.82251 0.0
C2264 C 0.02594 0.56957 0.85138 0.0
C2265 C 0.00977 0.56428 0.84129 0.0
C2266 C 0.00219 0.55311 0.80222 0.0
C2267 C 0.01015 0.54714 0.77396 0.0
C2268 C 0.99937 0.53517 0.73429 0.0
C2269 C 0.00552 0.541 0.67952 0.0
C2270 C 0.99745 0.51862 0.74444 0.0
C2271 C 0.98404 0.53525 0.74467 0.0
C2272 C 0.98587 0.5457 0.78383 0.0
C2273 C 0.97322 0.54763 0.80031 0.0
C2274 C 0.95828 0.53851 0.77649 0.0
C2275 C 0.95617 0.52761 0.73677 0.0
C2276 C 0.96929 0.52611 0.72058 0.0
H2277 H 0.44944 0.48572 0.74056 0.0
H2278 H 0.43593 0.46908 0.89738 0.0
H2279 H 0.44844 0.45232 0.8884 0.0
H2280 H 0.44294 0.44869 0.687 0.0
H2281 H 0.45996 0.45796 0.6447 0.0
H2282 H 0.44986 0.46859 0.66315 0.0
H2283 H 0.47646 0.492 0.69729 0.0
H2284 H 0.48666 0.48149 0.67862 0.0
H2285 H 0.48782 0.48808 0.74412 0.0
H2286 H 0.46193 0.43704 0.86198 0.0
H2287 H 0.47717 0.42565 0.82205 0.0
H2288 H 0.48255 0.45271 0.68299 0.0
C2289 C 0.44914 0.47857 0.77303 0.0
C2290 C 0.4417 0.47866 0.81967 0.0
C2291 C 0.4416 0.4692 0.86135 0.0
C2292 C 0.44862 0.4596 0.85655 0.0
C2293 C 0.45574 0.45968 0.80992 0.0
C2294 C 0.45619 0.46901 0.76902 0.0
C2295 C 0.46491 0.46715 0.72349 0.0
C2296 C 0.45375 0.46018 0.67684 0.0
C2297 C 0.47985 0.48313 0.71012 0.0
C2298 C 0.46931 0.45532 0.74521 0.0
C2299 C 0.46379 0.45108 0.79497 0.0
C2300 C 0.46634 0.4403 0.82307 0.0
C2301 C 0.47496 0.43385 0.79999 0.0
C2302 C 0.48103 0.43829 0.74943 0.0
C2303 C 0.47803 0.44908 0.72165 0.0
H2304 H 0.52999 0.97622 0.85739 0.0
H2305 H 0.52881 0.94555 0.73369 0.0
H2306 H 0.54404 0.96918 0.67837 0.0
H2307 H 0.52422 0.00267 0.78227 0.0
H2308 H 0.53759 0.02035 0.81797 0.0
H2309 H 0.52796 0.00123 0.84941 0.0
H2310 H 0.5555 0.00536 0.87738 0.0
H2311 H 0.56523 0.02456 0.84615 0.0
H2312 H 0.57063 0.00978 0.82951 0.0
H2313 H 0.55621 0.99566 0.63324 0.0
H2314 H 0.5663 0.02342 0.60379 0.0
H2315 H 0.56111 0.03701 0.75833 0.0
C2316 C 0.53321 0.97452 0.81899 0.0
C2317 C 0.52826 0.95908 0.79977 0.0
C2318 C 0.53258 0.95729 0.74924 0.0
C2319 C 0.54122 0.97064 0.71753 0.0
C2320 C 0.54565 0.98568 0.73727 0.0
C2321 C 0.54201 0.98772 0.78709 0.0
C2322 C 0.54761 0.0051 0.79828 0.0
C2323 C 0.53351 0.00747 0.81282 0.0
C2324 C 0.56051 0.01158 0.84032 0.0
C2325 C 0.55453 0.01244 0.74651 0.0
C2326 C 0.55328 0.00105 0.7118 0.0
C2327 C 0.55759 0.00475 0.66034 0.0
C2328 C 0.56325 0.0205 0.64392 0.0
C2329 C 0.5647 0.03233 0.67902 0.0
C2330 C 0.56049 0.02826 0.73103 0.0
H2331 H 0.46916 0.02214 0.1548 0.0
H2332 H 0.46385 0.05122 0.27149 0.0
H2333 H 0.44969 0.02751 0.32728 0.0
H2334 H 0.43029 0.98585 0.17696 0.0
H2335 H 0.43831 0.97283 0.16566 0.0
H2336 H 0.44685 0.99185 0.13352 0.0
H2337 H 0.47467 0.99934 0.16995 0.0
H2338 H 0.46621 0.98043 0.20256 0.0
H2339 H 0.4772 0.99872 0.23843 0.0
H2340 H 0.43852 0.00114 0.37378 0.0
H2341 H 0.4294 0.97365 0.40449 0.0
H2342 H 0.44128 0.96182 0.25621 0.0
C2343 C 0.46474 0.02346 0.19166 0.0
C2344 C 0.46755 0.0385 0.20877 0.0
C2345 C 0.46173 0.03977 0.25748 0.0
C2346 C 0.45371 0.02639 0.2895 0.0
C2347 C 0.45147 0.01179 0.272 0.0
C2348 C 0.45663 0.0102 0.22393 0.0
C2349 C 0.45321 0.99332 0.21495 0.0
C2350 C 0.44146 0.9855 0.17012 0.0
C2351 C 0.46875 0.99294 0.20596 0.0
C2352 C 0.44562 0.98575 0.26582 0.0
C2353 C 0.44473 0.99657 0.2983 0.0
C2354 C 0.43894 0.99249 0.34841 0.0
C2355 C 0.43386 0.97691 0.36559 0.0
C2356 C 0.43452 0.96562 0.33259 0.0
C2357 C 0.44043 0.97014 0.28208 0.0
H2358 H 0.03443 0.48325 0.24069 0.0
H2359 H 0.0302 0.45966 0.3865 0.0
H2360 H 0.00176 0.44069 0.36812 0.0
H2361 H 0.99626 0.48064 0.24671 0.0
H2362 H 0.99259 0.4775 0.17861 0.0
H2363 H 0.01275 0.48859 0.2022 0.0
H2364 H 0.01962 0.46926 0.15455 0.0
H2365 H 0.99943 0.45801 0.13115 0.0
H2366 H 0.00796 0.44812 0.16687 0.0
H2367 H 0.97383 0.42452 0.33421 0.0
H2368 H 0.94773 0.41369 0.291 0.0
H2369 H 0.96996 0.44836 0.16836 0.0
C2370 C 0.02752 0.47403 0.26861 0.0
C2371 C 0.03448 0.47283 0.3149 0.0
C2372 C 0.02506 0.46077 0.35082 0.0
C2373 C 0.00894 0.4499 0.34059 0.0
C2374 C 0.00245 0.45136 0.29444 0.0
C2375 C 0.01139 0.46322 0.25928 0.0
C2376 C 0.00132 0.46273 0.21391 0.0
C2377 C 0.00069 0.47828 0.21017 0.0
C2378 C 0.00745 0.45932 0.16365 0.0
C2379 C 0.9853 0.44875 0.22912 0.0
C2380 C 0.98625 0.44227 0.27542 0.0
C2381 C 0.97294 0.42947 0.29788 0.0
C2382 C 0.95818 0.42337 0.27295 0.0
C2383 C 0.95683 0.43015 0.22626 0.0
C2384 C 0.97064 0.44284 0.20378 0.0
H2385 H 0.56842 0.53217 0.24842 0.0
H2386 H 0.52984 0.48355 0.22584 0.0
H2387 H 0.51041 0.49149 0.2541 0.0
H2388 H 0.55238 0.54038 0.36222 0.0
H2389 H 0.559 0.56077 0.34458 0.0
H2390 H 0.56995 0.55129 0.32304 0.0
H2391 H 0.56695 0.55784 0.22848 0.0
H2392 H 0.55611 0.56744 0.24976 0.0
H2393 H 0.54732 0.55153 0.20321 0.0
H2394 H 0.4952 0.50472 0.28323 0.0
H2395 H 0.48502 0.52258 0.30866 0.0
H2396 H 0.53349 0.56259 0.31349 0.0
C2397 C 0.55588 0.5232 0.24936 0.0
C2398 C 0.55061 0.50724 0.2349 0.0
C2399 C 0.53412 0.49585 0.23668 0.0
C2400 C 0.52301 0.50023 0.25283 0.0
C2401 C 0.5286 0.51603 0.26717 0.0
C2402 C 0.54463 0.52736 0.26546 0.0
C2403 C 0.54746 0.54359 0.28212 0.0
C2404 C 0.55781 0.54934 0.33089 0.0
C2405 C 0.5549 0.55582 0.23828 0.0
C2406 C 0.53049 0.53964 0.2931 0.0
C2407 C 0.51982 0.52366 0.28439 0.0
C2408 C 0.50344 0.51724 0.29043 0.0
C2409 C 0.49778 0.52747 0.30493 0.0
C2410 C 0.50848 0.54394 0.31331 0.0
C2411 C 0.52506 0.55002 0.30796 0.0
loop_
_geom_bond_atom_site_label_1
_geom_bond_atom_site_label_2
_geom_bond_distance
_geom_bond_site_symmetry_2
_ccdc_geom_bond_type
In0 O1 2.294 . S
In0 O2 2.326 . S
In0 O6 2.266 . S
In0 O7 2.326 . S
In0 O8 2.266 . S
In0 O9 2.326 . S
In0 O11 2.294 . S
In0 O12 2.326 . S
O1 In0 2.294 . S
O1 C10 1.240 . S
O2 In0 2.326 . S
O2 C10 1.252 . S
C3 O6 1.252 . S
C3 O7 1.260 . S
C4 O11 1.240 . S
C4 O12 1.252 . S
C5 O8 1.252 . S
C5 O9 1.260 . S
O6 In0 2.266 . S
O6 C3 1.252 . S
O7 In0 2.326 . S
O7 C3 1.260 . S
O8 In0 2.266 . S
O8 C5 1.252 . S
O9 In0 2.326 . S
O9 C5 1.260 . S
C10 O1 1.240 . S
C10 O2 1.252 . S
O11 In0 2.294 . S
O11 C4 1.240 . S
O12 In0 2.326 . S
O12 C4 1.252 . S
In13 O14 2.294 . S
In13 O15 2.326 . S
In13 O19 2.266 . S
In13 O20 2.326 . S
In13 O21 2.266 . S
In13 O22 2.326 . S
In13 O24 2.294 . S
In13 O25 2.326 . S
O14 In13 2.294 . S
O14 C23 1.240 . S
O15 In13 2.326 . S
O15 C23 1.252 . S
C16 O19 1.252 . S
C16 O20 1.260 . S
C17 O24 1.240 . S
C17 O25 1.252 . S
C18 O21 1.252 . S
C18 O22 1.260 . S
O19 In13 2.266 . S
O19 C16 1.252 . S
O20 In13 2.326 . S
O20 C16 1.260 . S
O21 In13 2.266 . S
O21 C18 1.252 . S
O22 In13 2.326 . S
O22 C18 1.260 . S
C23 O14 1.240 . S
C23 O15 1.252 . S
O24 In13 2.294 . S
O24 C17 1.240 . S
O25 In13 2.326 . S
O25 C17 1.252 . S
In26 O27 2.294 . S
In26 O28 2.326 . S
In26 O32 2.266 . S
In26 O33 2.326 . S
In26 O34 2.266 . S
In26 O35 2.326 . S
In26 O37 2.294 . S
In26 O38 2.326 . S
O27 In26 2.294 . S
O27 C36 1.240 . S
O28 In26 2.326 . S
O28 C36 1.252 . S
C29 O32 1.252 . S
C29 O33 1.260 . S
C30 O37 1.240 . S
C30 O38 1.252 . S
C31 O34 1.252 . S
C31 O35 1.260 . S
O32 In26 2.266 . S
O32 C29 1.252 . S
O33 In26 2.326 . S
O33 C29 1.260 . S
O34 In26 2.266 . S
O34 C31 1.252 . S
O35 In26 2.326 . S
O35 C31 1.260 . S
C36 O27 1.240 . S
C36 O28 1.252 . S
O37 In26 2.294 . S
O37 C30 1.240 . S
O38 In26 2.326 . S
O38 C30 1.252 . S
In39 O40 2.294 . S
In39 O41 2.326 . S
In39 O45 2.266 . S
In39 O46 2.326 . S
In39 O47 2.266 . S
In39 O48 2.326 . S
In39 O50 2.294 . S
In39 O51 2.326 . S
O40 In39 2.294 . S
O40 C49 1.240 . S
O41 In39 2.326 . S
O41 C49 1.252 . S
C42 O45 1.252 . S
C42 O46 1.260 . S
C43 O50 1.240 . S
C43 O51 1.252 . S
C44 O47 1.252 . S
C44 O48 1.260 . S
O45 In39 2.266 . S
O45 C42 1.252 . S
O46 In39 2.326 . S
O46 C42 1.260 . S
O47 In39 2.266 . S
O47 C44 1.252 . S
O48 In39 2.326 . S
O48 C44 1.260 . S
C49 O40 1.240 . S
C49 O41 1.252 . S
O50 In39 2.294 . S
O50 C43 1.240 . S
O51 In39 2.326 . S
O51 C43 1.252 . S
In52 O53 2.294 . S
In52 O54 2.326 . S
In52 O58 2.266 . S
In52 O59 2.326 . S
In52 O60 2.266 . S
In52 O61 2.326 . S
In52 O63 2.294 . S
In52 O64 2.326 . S
O53 In52 2.294 . S
O53 C62 1.240 . S
O54 In52 2.326 . S
O54 C62 1.252 . S
C55 O58 1.252 . S
C55 O59 1.260 . S
C56 O63 1.240 . S
C56 O64 1.252 . S
C57 O60 1.252 . S
C57 O61 1.260 . S
O58 In52 2.266 . S
O58 C55 1.252 . S
O59 In52 2.326 . S
O59 C55 1.260 . S
O60 In52 2.266 . S
O60 C57 1.252 . S
O61 In52 2.326 . S
O61 C57 1.260 . S
C62 O53 1.240 . S
C62 O54 1.252 . S
O63 In52 2.294 . S
O63 C56 1.240 . S
O64 In52 2.326 . S
O64 C56 1.252 . S
In65 O66 2.294 . S
In65 O67 2.326 . S
In65 O71 2.266 . S
In65 O72 2.326 . S
In65 O73 2.266 . S
In65 O74 2.326 . S
In65 O76 2.294 . S
In65 O77 2.326 . S
O66 In65 2.294 . S
O66 C75 1.240 . S
O67 In65 2.326 . S
O67 C75 1.252 . S
C68 O71 1.252 . S
C68 O72 1.260 . S
C69 O76 1.240 . S
C69 O77 1.252 . S
C70 O73 1.252 . S
C70 O74 1.260 . S
O71 In65 2.266 . S
O71 C68 1.252 . S
O72 In65 2.326 . S
O72 C68 1.260 . S
O73 In65 2.266 . S
O73 C70 1.252 . S
O74 In65 2.326 . S
O74 C70 1.260 . S
C75 O66 1.240 . S
C75 O67 1.252 . S
O76 In65 2.294 . S
O76 C69 1.240 . S
O77 In65 2.326 . S
O77 C69 1.252 . S
In78 O79 2.294 . S
In78 O80 2.326 . S
In78 O84 2.266 . S
In78 O85 2.326 . S
In78 O86 2.266 . S
In78 O87 2.326 . S
In78 O89 2.294 . S
In78 O90 2.326 . S
O79 In78 2.294 . S
O79 C88 1.240 . S
O80 In78 2.326 . S
O80 C88 1.252 . S
C81 O84 1.252 . S
C81 O85 1.260 . S
C82 O89 1.240 . S
C82 O90 1.252 . S
C83 O86 1.252 . S
C83 O87 1.260 . S
O84 In78 2.266 . S
O84 C81 1.252 . S
O85 In78 2.326 . S
O85 C81 1.260 . S
O86 In78 2.266 . S
O86 C83 1.252 . S
O87 In78 2.326 . S
O87 C83 1.260 . S
C88 O79 1.240 . S
C88 O80 1.252 . S
O89 In78 2.294 . S
O89 C82 1.240 . S
O90 In78 2.326 . S
O90 C82 1.252 . S
In91 O92 2.294 . S
In91 O93 2.326 . S
In91 O97 2.266 . S
In91 O98 2.326 . S
In91 O99 2.266 . S
In91 O100 2.326 . S
In91 O102 2.294 . S
In91 O103 2.326 . S
O92 In91 2.294 . S
O92 C101 1.240 . S
O93 In91 2.326 . S
O93 C101 1.252 . S
C94 O97 1.252 . S
C94 O98 1.260 . S
C95 O102 1.240 . S
C95 O103 1.252 . S
C96 O99 1.252 . S
C96 O100 1.260 . S
O97 In91 2.266 . S
O97 C94 1.252 . S
O98 In91 2.326 . S
O98 C94 1.260 . S
O99 In91 2.266 . S
O99 C96 1.252 . S
O100 In91 2.326 . S
O100 C96 1.260 . S
C101 O92 1.240 . S
C101 O93 1.252 . S
O102 In91 2.294 . S
O102 C95 1.240 . S
O103 In91 2.326 . S
O103 C95 1.252 . S
In104 O105 2.294 . S
In104 O106 2.326 . S
In104 O110 2.266 . S
In104 O111 2.326 . S
In104 O112 2.266 . S
In104 O113 2.326 . S
In104 O115 2.294 . S
In104 O116 2.326 . S
O105 In104 2.294 . S
O105 C114 1.240 . S
O106 In104 2.326 . S
O106 C114 1.252 . S
C107 O110 1.252 . S
C107 O111 1.260 . S
C108 O115 1.240 . S
C108 O116 1.252 . S
C109 O112 1.252 . S
C109 O113 1.260 . S
O110 In104 2.266 . S
O110 C107 1.252 . S
O111 In104 2.326 . S
O111 C107 1.260 . S
O112 In104 2.266 . S
O112 C109 1.252 . S
O113 In104 2.326 . S
O113 C109 1.260 . S
C114 O105 1.240 . S
C114 O106 1.252 . S
O115 In104 2.294 . S
O115 C108 1.240 . S
O116 In104 2.326 . S
O116 C108 1.252 . S
In117 O118 2.294 . S
In117 O119 2.326 . S
In117 O123 2.266 . S
In117 O124 2.326 . S
In117 O125 2.266 . S
In117 O126 2.326 . S
In117 O128 2.294 . S
In117 O129 2.326 . S
O118 In117 2.294 . S
O118 C127 1.240 . S
O119 In117 2.326 . S
O119 C127 1.252 . S
C120 O123 1.252 . S
C120 O124 1.260 . S
C121 O128 1.240 . S
C121 O129 1.252 . S
C122 O125 1.252 . S
C122 O126 1.260 . S
O123 In117 2.266 . S
O123 C120 1.252 . S
O124 In117 2.326 . S
O124 C120 1.260 . S
O125 In117 2.266 . S
O125 C122 1.252 . S
O126 In117 2.326 . S
O126 C122 1.260 . S
C127 O118 1.240 . S
C127 O119 1.252 . S
O128 In117 2.294 . S
O128 C121 1.240 . S
O129 In117 2.326 . S
O129 C121 1.252 . S
In130 O131 2.294 . S
In130 O132 2.326 . S
In130 O136 2.266 . S
In130 O137 2.326 . S
In130 O138 2.266 . S
In130 O139 2.326 . S
In130 O141 2.294 . S
In130 O142 2.326 . S
O131 In130 2.294 . S
O131 C140 1.240 . S
O132 In130 2.326 . S
O132 C140 1.252 . S
C133 O136 1.252 . S
C133 O137 1.260 . S
C134 O141 1.240 . S
C134 O142 1.252 . S
C135 O138 1.252 . S
C135 O139 1.260 . S
O136 In130 2.266 . S
O136 C133 1.252 . S
O137 In130 2.326 . S
O137 C133 1.260 . S
O138 In130 2.266 . S
O138 C135 1.252 . S
O139 In130 2.326 . S
O139 C135 1.260 . S
C140 O131 1.240 . S
C140 O132 1.252 . S
O141 In130 2.294 . S
O141 C134 1.240 . S
O142 In130 2.326 . S
O142 C134 1.252 . S
In143 O144 2.294 . S
In143 O145 2.326 . S
In143 O149 2.266 . S
In143 O150 2.326 . S
In143 O151 2.266 . S
In143 O152 2.326 . S
In143 O154 2.294 . S
In143 O155 2.326 . S
O144 In143 2.294 . S
O144 C153 1.240 . S
O145 In143 2.326 . S
O145 C153 1.252 . S
C146 O149 1.252 . S
C146 O150 1.260 . S
C147 O154 1.240 . S
C147 O155 1.252 . S
C148 O151 1.252 . S
C148 O152 1.260 . S
O149 In143 2.266 . S
O149 C146 1.252 . S
O150 In143 2.326 . S
O150 C146 1.260 . S
O151 In143 2.266 . S
O151 C148 1.252 . S
O152 In143 2.326 . S
O152 C148 1.260 . S
C153 O144 1.240 . S
C153 O145 1.252 . S
O154 In143 2.294 . S
O154 C147 1.240 . S
O155 In143 2.326 . S
O155 C147 1.252 . S
In156 O157 2.294 . S
In156 O158 2.326 . S
In156 O162 2.266 . S
In156 O163 2.326 . S
In156 O164 2.266 . S
In156 O165 2.326 . S
In156 O167 2.294 . S
In156 O168 2.326 . S
O157 In156 2.294 . S
O157 C166 1.240 . S
O158 In156 2.326 . S
O158 C166 1.252 . S
C159 O162 1.252 . S
C159 O163 1.260 . S
C160 O167 1.240 . S
C160 O168 1.252 . S
C161 O164 1.252 . S
C161 O165 1.260 . S
O162 In156 2.266 . S
O162 C159 1.252 . S
O163 In156 2.326 . S
O163 C159 1.260 . S
O164 In156 2.266 . S
O164 C161 1.252 . S
O165 In156 2.326 . S
O165 C161 1.260 . S
C166 O157 1.240 . S
C166 O158 1.252 . S
O167 In156 2.294 . S
O167 C160 1.240 . S
O168 In156 2.326 . S
O168 C160 1.252 . S
In169 O170 2.294 . S
In169 O171 2.326 . S
In169 O175 2.266 . S
In169 O176 2.326 . S
In169 O177 2.266 . S
In169 O178 2.326 . S
In169 O180 2.294 . S
In169 O181 2.326 . S
O170 In169 2.294 . S
O170 C179 1.240 . S
O171 In169 2.326 . S
O171 C179 1.252 . S
C172 O175 1.252 . S
C172 O176 1.260 . S
C173 O180 1.240 . S
C173 O181 1.252 . S
C174 O177 1.252 . S
C174 O178 1.260 . S
O175 In169 2.266 . S
O175 C172 1.252 . S
O176 In169 2.326 . S
O176 C172 1.260 . S
O177 In169 2.266 . S
O177 C174 1.252 . S
O178 In169 2.326 . S
O178 C174 1.260 . S
C179 O170 1.240 . S
C179 O171 1.252 . S
O180 In169 2.294 . S
O180 C173 1.240 . S
O181 In169 2.326 . S
O181 C173 1.252 . S
In182 O183 2.294 . S
In182 O184 2.326 . S
In182 O188 2.266 . S
In182 O189 2.326 . S
In182 O190 2.266 . S
In182 O191 2.326 . S
In182 O193 2.294 . S
In182 O194 2.326 . S
O183 In182 2.294 . S
O183 C192 1.240 . S
O184 In182 2.326 . S
O184 C192 1.252 . S
C185 O188 1.252 . S
C185 O189 1.260 . S
C186 O193 1.240 . S
C186 O194 1.252 . S
C187 O190 1.252 . S
C187 O191 1.260 . S
O188 In182 2.266 . S
O188 C185 1.252 . S
O189 In182 2.326 . S
O189 C185 1.260 . S
O190 In182 2.266 . S
O190 C187 1.252 . S
O191 In182 2.326 . S
O191 C187 1.260 . S
C192 O183 1.240 . S
C192 O184 1.252 . S
O193 In182 2.294 . S
O193 C186 1.240 . S
O194 In182 2.326 . S
O194 C186 1.252 . S
In195 O196 2.294 . S
In195 O197 2.326 . S
In195 O201 2.266 . S
In195 O202 2.326 . S
In195 O203 2.266 . S
In195 O204 2.326 . S
In195 O206 2.294 . S
In195 O207 2.326 . S
O196 In195 2.294 . S
O196 C205 1.240 . S
O197 In195 2.326 . S
O197 C205 1.252 . S
C198 O201 1.252 . S
C198 O202 1.260 . S
C199 O206 1.240 . S
C199 O207 1.252 . S
C200 O203 1.252 . S
C200 O204 1.260 . S
O201 In195 2.266 . S
O201 C198 1.252 . S
O202 In195 2.326 . S
O202 C198 1.260 . S
O203 In195 2.266 . S
O203 C200 1.252 . S
O204 In195 2.326 . S
O204 C200 1.260 . S
C205 O196 1.240 . S
C205 O197 1.252 . S
O206 In195 2.294 . S
O206 C199 1.240 . S
O207 In195 2.326 . S
O207 C199 1.252 . S
In208 O209 2.294 . S
In208 O210 2.326 . S
In208 O214 2.266 . S
In208 O215 2.326 . S
In208 O216 2.266 . S
In208 O217 2.326 . S
In208 O219 2.294 . S
In208 O220 2.326 . S
O209 In208 2.294 . S
O209 C218 1.240 . S
O210 In208 2.326 . S
O210 C218 1.252 . S
C211 O214 1.252 . S
C211 O215 1.260 . S
C212 O219 1.240 . S
C212 O220 1.252 . S
C213 O216 1.252 . S
C213 O217 1.260 . S
O214 In208 2.266 . S
O214 C211 1.252 . S
O215 In208 2.326 . S
O215 C211 1.260 . S
O216 In208 2.266 . S
O216 C213 1.252 . S
O217 In208 2.326 . S
O217 C213 1.260 . S
C218 O209 1.240 . S
C218 O210 1.252 . S
O219 In208 2.294 . S
O219 C212 1.240 . S
O220 In208 2.326 . S
O220 C212 1.252 . S
In221 O222 2.294 . S
In221 O223 2.326 . S
In221 O227 2.266 . S
In221 O228 2.326 . S
In221 O229 2.266 . S
In221 O230 2.326 . S
In221 O232 2.294 . S
In221 O233 2.326 . S
O222 In221 2.294 . S
O222 C231 1.240 . S
O223 In221 2.326 . S
O223 C231 1.252 . S
C224 O227 1.252 . S
C224 O228 1.260 . S
C225 O232 1.240 . S
C225 O233 1.252 . S
C226 O229 1.252 . S
C226 O230 1.260 . S
O227 In221 2.266 . S
O227 C224 1.252 . S
O228 In221 2.326 . S
O228 C224 1.260 . S
O229 In221 2.266 . S
O229 C226 1.252 . S
O230 In221 2.326 . S
O230 C226 1.260 . S
C231 O222 1.240 . S
C231 O223 1.252 . S
O232 In221 2.294 . S
O232 C225 1.240 . S
O233 In221 2.326 . S
O233 C225 1.252 . S
In234 O235 2.294 . S
In234 O236 2.326 . S
In234 O240 2.266 . S
In234 O241 2.326 . S
In234 O242 2.266 . S
In234 O243 2.326 . S
In234 O245 2.294 . S
In234 O246 2.326 . S
O235 In234 2.294 . S
O235 C244 1.240 . S
O236 In234 2.326 . S
O236 C244 1.252 . S
C237 O240 1.252 . S
C237 O241 1.260 . S
C238 O245 1.240 . S
C238 O246 1.252 . S
C239 O242 1.252 . S
C239 O243 1.260 . S
O240 In234 2.266 . S
O240 C237 1.252 . S
O241 In234 2.326 . S
O241 C237 1.260 . S
O242 In234 2.266 . S
O242 C239 1.252 . S
O243 In234 2.326 . S
O243 C239 1.260 . S
C244 O235 1.240 . S
C244 O236 1.252 . S
O245 In234 2.294 . S
O245 C238 1.240 . S
O246 In234 2.326 . S
O246 C238 1.252 . S
In247 O248 2.294 . S
In247 O249 2.326 . S
In247 O253 2.266 . S
In247 O254 2.326 . S
In247 O255 2.266 . S
In247 O256 2.326 . S
In247 O258 2.294 . S
In247 O259 2.326 . S
O248 In247 2.294 . S
O248 C257 1.240 . S
O249 In247 2.326 . S
O249 C257 1.252 . S
C250 O253 1.252 . S
C250 O254 1.260 . S
C251 O258 1.240 . S
C251 O259 1.252 . S
C252 O255 1.252 . S
C252 O256 1.260 . S
O253 In247 2.266 . S
O253 C250 1.252 . S
O254 In247 2.326 . S
O254 C250 1.260 . S
O255 In247 2.266 . S
O255 C252 1.252 . S
O256 In247 2.326 . S
O256 C252 1.260 . S
C257 O248 1.240 . S
C257 O249 1.252 . S
O258 In247 2.294 . S
O258 C251 1.240 . S
O259 In247 2.326 . S
O259 C251 1.252 . S
In260 O261 2.294 . S
In260 O262 2.326 . S
In260 O266 2.266 . S
In260 O267 2.326 . S
In260 O268 2.266 . S
In260 O269 2.326 . S
In260 O271 2.294 . S
In260 O272 2.326 . S
O261 In260 2.294 . S
O261 C270 1.240 . S
O262 In260 2.326 . S
O262 C270 1.252 . S
C263 O266 1.252 . S
C263 O267 1.260 . S
C264 O271 1.240 . S
C264 O272 1.252 . S
C265 O268 1.252 . S
C265 O269 1.260 . S
O266 In260 2.266 . S
O266 C263 1.252 . S
O267 In260 2.326 . S
O267 C263 1.260 . S
O268 In260 2.266 . S
O268 C265 1.252 . S
O269 In260 2.326 . S
O269 C265 1.260 . S
C270 O261 1.240 . S
C270 O262 1.252 . S
O271 In260 2.294 . S
O271 C264 1.240 . S
O272 In260 2.326 . S
O272 C264 1.252 . S
In273 O274 2.297 . S
In273 O275 2.328 . S
In273 O279 2.266 1_554 S
In273 O280 2.323 1_554 S
In273 O281 2.263 1_554 S
In273 O282 2.324 1_554 S
In273 O284 2.294 . S
In273 O285 2.329 . S
O274 In273 2.297 . S
O274 C283 1.240 . S
O275 In273 2.328 . S
O275 C283 1.252 . S
C276 O279 1.252 . S
C276 O280 1.260 . S
C277 O284 1.240 . S
C277 O285 1.252 . S
C278 O281 1.252 . S
C278 O282 1.260 . S
O279 In273 2.266 1_556 S
O279 C276 1.252 . S
O280 In273 2.323 1_556 S
O280 C276 1.260 . S
O281 In273 2.263 1_556 S
O281 C278 1.252 . S
O282 In273 2.324 1_556 S
O282 C278 1.260 . S
C283 O274 1.240 . S
C283 O275 1.252 . S
O284 In273 2.294 . S
O284 C277 1.240 . S
O285 In273 2.329 . S
O285 C277 1.252 . S
In286 O287 2.294 . S
In286 O288 2.329 . S
In286 O292 2.263 1_554 S
In286 O293 2.324 1_554 S
In286 O294 2.266 1_554 S
In286 O295 2.323 1_554 S
In286 O297 2.297 . S
In286 O298 2.328 . S
O287 In286 2.294 . S
O287 C296 1.240 . S
O288 In286 2.329 . S
O288 C296 1.252 . S
C289 O292 1.252 . S
C289 O293 1.260 . S
C290 O297 1.240 . S
C290 O298 1.252 . S
C291 O294 1.252 . S
C291 O295 1.260 . S
O292 In286 2.263 1_556 S
O292 C289 1.252 . S
O293 In286 2.324 1_556 S
O293 C289 1.260 . S
O294 In286 2.266 1_556 S
O294 C291 1.252 . S
O295 In286 2.323 1_556 S
O295 C291 1.260 . S
C296 O287 1.240 . S
C296 O288 1.252 . S
O297 In286 2.297 . S
O297 C290 1.240 . S
O298 In286 2.328 . S
O298 C290 1.252 . S
In299 O300 2.294 . S
In299 O301 2.329 . S
In299 O305 2.263 1_554 S
In299 O306 2.324 1_554 S
In299 O307 2.266 1_554 S
In299 O308 2.323 1_554 S
In299 O310 2.297 . S
In299 O311 2.328 . S
O300 In299 2.294 . S
O300 C309 1.240 . S
O301 In299 2.329 . S
O301 C309 1.252 . S
C302 O305 1.252 . S
C302 O306 1.260 . S
C303 O310 1.240 . S
C303 O311 1.252 . S
C304 O307 1.252 . S
C304 O308 1.260 . S
O305 In299 2.263 1_556 S
O305 C302 1.252 . S
O306 In299 2.324 1_556 S
O306 C302 1.260 . S
O307 In299 2.266 1_556 S
O307 C304 1.252 . S
O308 In299 2.323 1_556 S
O308 C304 1.260 . S
C309 O300 1.240 . S
C309 O301 1.252 . S
O310 In299 2.297 . S
O310 C303 1.240 . S
O311 In299 2.328 . S
O311 C303 1.252 . S
In312 O313 2.294 . S
In312 O314 2.326 . S
In312 O318 2.266 . S
In312 O319 2.326 . S
In312 O320 2.266 . S
In312 O321 2.326 . S
In312 O323 2.294 . S
In312 O324 2.326 . S
O313 In312 2.294 . S
O313 C322 1.240 . S
O314 In312 2.326 . S
O314 C322 1.252 . S
C315 O318 1.252 . S
C315 O319 1.260 . S
C316 O323 1.240 . S
C316 O324 1.252 . S
C317 O320 1.252 . S
C317 O321 1.260 . S
O318 In312 2.266 . S
O318 C315 1.252 . S
O319 In312 2.326 . S
O319 C315 1.260 . S
O320 In312 2.266 . S
O320 C317 1.252 . S
O321 In312 2.326 . S
O321 C317 1.260 . S
C322 O313 1.240 . S
C322 O314 1.252 . S
O323 In312 2.294 . S
O323 C316 1.240 . S
O324 In312 2.326 . S
O324 C316 1.252 . S
In325 O326 2.294 . S
In325 O327 2.326 . S
In325 O331 2.266 . S
In325 O332 2.326 . S
In325 O333 2.266 . S
In325 O334 2.326 . S
In325 O336 2.294 . S
In325 O337 2.326 . S
O326 In325 2.294 . S
O326 C335 1.240 . S
O327 In325 2.326 . S
O327 C335 1.252 . S
C328 O331 1.252 . S
C328 O332 1.260 . S
C329 O336 1.240 . S
C329 O337 1.252 . S
C330 O333 1.252 . S
C330 O334 1.260 . S
O331 In325 2.266 . S
O331 C328 1.252 . S
O332 In325 2.326 . S
O332 C328 1.260 . S
O333 In325 2.266 . S
O333 C330 1.252 . S
O334 In325 2.326 . S
O334 C330 1.260 . S
C335 O326 1.240 . S
C335 O327 1.252 . S
O336 In325 2.294 . S
O336 C329 1.240 . S
O337 In325 2.326 . S
O337 C329 1.252 . S
In338 O339 2.294 . S
In338 O340 2.326 . S
In338 O344 2.266 . S
In338 O345 2.326 . S
In338 O346 2.266 . S
In338 O347 2.326 . S
In338 O349 2.294 . S
In338 O350 2.326 . S
O339 In338 2.294 . S
O339 C348 1.240 . S
O340 In338 2.326 . S
O340 C348 1.252 . S
C341 O344 1.252 . S
C341 O345 1.260 . S
C342 O349 1.240 . S
C342 O350 1.252 . S
C343 O346 1.252 . S
C343 O347 1.260 . S
O344 In338 2.266 . S
O344 C341 1.252 . S
O345 In338 2.326 . S
O345 C341 1.260 . S
O346 In338 2.266 . S
O346 C343 1.252 . S
O347 In338 2.326 . S
O347 C343 1.260 . S
C348 O339 1.240 . S
C348 O340 1.252 . S
O349 In338 2.294 . S
O349 C342 1.240 . S
O350 In338 2.326 . S
O350 C342 1.252 . S
In351 O352 2.294 . S
In351 O353 2.329 . S
In351 O357 2.263 1_556 S
In351 O358 2.324 1_556 S
In351 O359 2.266 1_556 S
In351 O360 2.323 1_556 S
In351 O362 2.297 . S
In351 O363 2.328 . S
O352 In351 2.294 . S
O352 C361 1.240 . S
O353 In351 2.329 . S
O353 C361 1.252 . S
C354 O357 1.252 . S
C354 O358 1.260 . S
C355 O362 1.240 . S
C355 O363 1.252 . S
C356 O359 1.252 . S
C356 O360 1.260 . S
O357 In351 2.263 1_554 S
O357 C354 1.252 . S
O358 In351 2.324 1_554 S
O358 C354 1.260 . S
O359 In351 2.266 1_554 S
O359 C356 1.252 . S
O360 In351 2.323 1_554 S
O360 C356 1.260 . S
C361 O352 1.240 . S
C361 O353 1.252 . S
O362 In351 2.297 . S
O362 C355 1.240 . S
O363 In351 2.328 . S
O363 C355 1.252 . S
In364 O365 2.297 . S
In364 O366 2.328 . S
In364 O370 2.266 1_556 S
In364 O371 2.323 1_556 S
In364 O372 2.263 1_556 S
In364 O373 2.324 1_556 S
In364 O375 2.294 . S
In364 O376 2.329 . S
O365 In364 2.297 . S
O365 C374 1.240 . S
O366 In364 2.328 . S
O366 C374 1.252 . S
C367 O370 1.252 . S
C367 O371 1.260 . S
C368 O375 1.240 . S
C368 O376 1.252 . S
C369 O372 1.252 . S
C369 O373 1.260 . S
O370 In364 2.266 1_554 S
O370 C367 1.252 . S
O371 In364 2.323 1_554 S
O371 C367 1.260 . S
O372 In364 2.263 1_554 S
O372 C369 1.252 . S
O373 In364 2.324 1_554 S
O373 C369 1.260 . S
C374 O365 1.240 . S
C374 O366 1.252 . S
O375 In364 2.294 . S
O375 C368 1.240 . S
O376 In364 2.329 . S
O376 C368 1.252 . S
In377 O378 2.297 . S
In377 O379 2.328 . S
In377 O383 2.266 1_556 S
In377 O384 2.323 1_556 S
In377 O385 2.263 1_556 S
In377 O386 2.324 1_556 S
In377 O388 2.294 . S
In377 O389 2.329 . S
O378 In377 2.297 . S
O378 C387 1.240 . S
O379 In377 2.328 . S
O379 C387 1.252 . S
C380 O383 1.252 . S
C380 O384 1.260 . S
C381 O388 1.240 . S
C381 O389 1.252 . S
C382 O385 1.252 . S
C382 O386 1.260 . S
O383 In377 2.266 1_554 S
O383 C380 1.252 . S
O384 In377 2.323 1_554 S
O384 C380 1.260 . S
O385 In377 2.263 1_554 S
O385 C382 1.252 . S
O386 In377 2.324 1_554 S
O386 C382 1.260 . S
C387 O378 1.240 . S
C387 O379 1.252 . S
O388 In377 2.294 . S
O388 C381 1.240 . S
O389 In377 2.329 . S
O389 C381 1.252 . S
In390 O391 2.294 . S
In390 O392 2.326 . S
In390 O396 2.266 . S
In390 O397 2.326 . S
In390 O398 2.266 . S
In390 O399 2.326 . S
In390 O401 2.294 . S
In390 O402 2.326 . S
O391 In390 2.294 . S
O391 C400 1.240 . S
O392 In390 2.326 . S
O392 C400 1.252 . S
C393 O396 1.252 . S
C393 O397 1.260 . S
C394 O401 1.240 . S
C394 O402 1.252 . S
C395 O398 1.252 . S
C395 O399 1.260 . S
O396 In390 2.266 . S
O396 C393 1.252 . S
O397 In390 2.326 . S
O397 C393 1.260 . S
O398 In390 2.266 . S
O398 C395 1.252 . S
O399 In390 2.326 . S
O399 C395 1.260 . S
C400 O391 1.240 . S
C400 O392 1.252 . S
O401 In390 2.294 . S
O401 C394 1.240 . S
O402 In390 2.326 . S
O402 C394 1.252 . S
In403 O404 2.294 . S
In403 O405 2.326 . S
In403 O409 2.266 . S
In403 O410 2.326 . S
In403 O411 2.266 . S
In403 O412 2.326 . S
In403 O414 2.294 . S
In403 O415 2.326 . S
O404 In403 2.294 . S
O404 C413 1.240 . S
O405 In403 2.326 . S
O405 C413 1.252 . S
C406 O409 1.252 . S
C406 O410 1.260 . S
C407 O414 1.240 . S
C407 O415 1.252 . S
C408 O411 1.252 . S
C408 O412 1.260 . S
O409 In403 2.266 . S
O409 C406 1.252 . S
O410 In403 2.326 . S
O410 C406 1.260 . S
O411 In403 2.266 . S
O411 C408 1.252 . S
O412 In403 2.326 . S
O412 C408 1.260 . S
C413 O404 1.240 . S
C413 O405 1.252 . S
O414 In403 2.294 . S
O414 C407 1.240 . S
O415 In403 2.326 . S
O415 C407 1.252 . S
In416 O417 2.294 . S
In416 O418 2.326 . S
In416 O422 2.266 . S
In416 O423 2.326 . S
In416 O424 2.266 . S
In416 O425 2.326 . S
In416 O427 2.294 . S
In416 O428 2.326 . S
O417 In416 2.294 . S
O417 C426 1.240 . S
O418 In416 2.326 . S
O418 C426 1.252 . S
C419 O422 1.252 . S
C419 O423 1.260 . S
C420 O427 1.240 . S
C420 O428 1.252 . S
C421 O424 1.252 . S
C421 O425 1.260 . S
O422 In416 2.266 . S
O422 C419 1.252 . S
O423 In416 2.326 . S
O423 C419 1.260 . S
O424 In416 2.266 . S
O424 C421 1.252 . S
O425 In416 2.326 . S
O425 C421 1.260 . S
C426 O417 1.240 . S
C426 O418 1.252 . S
O427 In416 2.294 . S
O427 C420 1.240 . S
O428 In416 2.326 . S
O428 C420 1.252 . S
In429 O430 2.294 . S
In429 O431 2.326 . S
In429 O435 2.266 . S
In429 O436 2.326 . S
In429 O437 2.266 . S
In429 O438 2.326 . S
In429 O440 2.294 . S
In429 O441 2.326 . S
O430 In429 2.294 . S
O430 C439 1.240 . S
O431 In429 2.326 . S
O431 C439 1.252 . S
C432 O435 1.252 . S
C432 O436 1.260 . S
C433 O440 1.240 . S
C433 O441 1.252 . S
C434 O437 1.252 . S
C434 O438 1.260 . S
O435 In429 2.266 . S
O435 C432 1.252 . S
O436 In429 2.326 . S
O436 C432 1.260 . S
O437 In429 2.266 . S
O437 C434 1.252 . S
O438 In429 2.326 . S
O438 C434 1.260 . S
C439 O430 1.240 . S
C439 O431 1.252 . S
O440 In429 2.294 . S
O440 C433 1.240 . S
O441 In429 2.326 . S
O441 C433 1.252 . S
In442 O443 2.294 . S
In442 O444 2.326 . S
In442 O448 2.266 . S
In442 O449 2.326 . S
In442 O450 2.266 . S
In442 O451 2.326 . S
In442 O453 2.294 . S
In442 O454 2.326 . S
O443 In442 2.294 . S
O443 C452 1.240 . S
O444 In442 2.326 . S
O444 C452 1.252 . S
C445 O448 1.252 . S
C445 O449 1.260 . S
C446 O453 1.240 . S
C446 O454 1.252 . S
C447 O450 1.252 . S
C447 O451 1.260 . S
O448 In442 2.266 . S
O448 C445 1.252 . S
O449 In442 2.326 . S
O449 C445 1.260 . S
O450 In442 2.266 . S
O450 C447 1.252 . S
O451 In442 2.326 . S
O451 C447 1.260 . S
C452 O443 1.240 . S
C452 O444 1.252 . S
O453 In442 2.294 . S
O453 C446 1.240 . S
O454 In442 2.326 . S
O454 C446 1.252 . S
In455 O456 2.294 . S
In455 O457 2.326 . S
In455 O461 2.266 . S
In455 O462 2.326 . S
In455 O463 2.266 . S
In455 O464 2.326 . S
In455 O466 2.294 . S
In455 O467 2.326 . S
O456 In455 2.294 . S
O456 C465 1.240 . S
O457 In455 2.326 . S
O457 C465 1.252 . S
C458 O461 1.252 . S
C458 O462 1.260 . S
C459 O466 1.240 . S
C459 O467 1.252 . S
C460 O463 1.252 . S
C460 O464 1.260 . S
O461 In455 2.266 . S
O461 C458 1.252 . S
O462 In455 2.326 . S
O462 C458 1.260 . S
O463 In455 2.266 . S
O463 C460 1.252 . S
O464 In455 2.326 . S
O464 C460 1.260 . S
C465 O456 1.240 . S
C465 O457 1.252 . S
O466 In455 2.294 . S
O466 C459 1.240 . S
O467 In455 2.326 . S
O467 C459 1.252 . S
H468 C480 0.930 . S
H469 C482 0.930 . S
H470 C483 0.930 . S
H471 C487 0.959 . S
H472 C487 0.959 . S
H473 C487 0.961 . S
H474 C488 0.960 . S
H475 C488 0.961 . S
H476 C488 0.959 . S
H477 C491 0.929 . S
H478 C492 0.931 . S
H479 C494 0.930 . S
C480 H468 0.930 . S
C480 C481 1.399 . S
C480 C485 1.399 . S
C481 C480 1.399 . S
C481 C482 1.376 . S
C482 H469 0.930 . S
C482 C481 1.376 . S
C482 C483 1.388 . S
C483 H470 0.930 . S
C483 C482 1.388 . S
C483 C484 1.390 . S
C484 C483 1.390 . S
C484 C485 1.394 . S
C484 C490 1.465 . S
C485 C480 1.399 . S
C485 C484 1.394 . S
C485 C486 1.516 . S
C486 C485 1.516 . S
C486 C487 1.502 . S
C486 C488 1.561 . S
C486 C489 1.526 . S
C487 H471 0.959 . S
C487 H472 0.959 . S
C487 H473 0.961 . S
C487 C486 1.502 . S
C488 H474 0.960 . S
C488 H475 0.961 . S
C488 H476 0.959 . S
C488 C486 1.561 . S
C489 C486 1.526 . S
C489 C490 1.396 . S
C489 C494 1.390 . S
C490 C484 1.465 . S
C490 C489 1.396 . S
C490 C491 1.399 . S
C491 H477 0.929 . S
C491 C490 1.399 . S
C491 C492 1.385 . S
C492 H478 0.931 . S
C492 C491 1.385 . S
C492 C493 1.389 . S
C493 C492 1.389 . S
C493 C494 1.387 . S
C494 H479 0.930 . S
C494 C489 1.390 . S
C494 C493 1.387 . S
H495 C507 0.930 . S
H496 C509 0.930 . S
H497 C510 0.930 . S
H498 C514 0.959 . S
H499 C514 0.935 1_565 S
H500 C514 0.961 . S
H501 C515 0.960 . S
H502 C515 0.961 . S
H503 C515 0.959 . S
H504 C518 0.929 . S
H505 C519 0.931 . S
H506 C521 0.930 . S
C507 H495 0.930 . S
C507 C508 1.399 . S
C507 C512 1.399 . S
C508 C507 1.399 . S
C508 C509 1.376 . S
C509 H496 0.930 . S
C509 C508 1.376 . S
C509 C510 1.388 . S
C510 H497 0.930 . S
C510 C509 1.388 . S
C510 C511 1.390 . S
C511 C510 1.390 . S
C511 C512 1.394 . S
C511 C517 1.465 1_545 S
C512 C507 1.399 . S
C512 C511 1.394 . S
C512 C513 1.516 . S
C513 C512 1.516 . S
C513 C514 1.502 . S
C513 C515 1.561 . S
C513 C516 1.526 1_545 S
C514 H498 0.959 . S
C514 H499 0.935 1_545 S
C514 H500 0.961 . S
C514 C513 1.502 . S
C515 H501 0.960 . S
C515 H502 0.961 . S
C515 H503 0.959 . S
C515 C513 1.561 . S
C516 C513 1.526 1_565 S
C516 C517 1.396 . S
C516 C521 1.390 . S
C517 C511 1.465 1_565 S
C517 C516 1.396 . S
C517 C518 1.399 . S
C518 H504 0.929 . S
C518 C517 1.399 . S
C518 C519 1.385 . S
C519 H505 0.931 . S
C519 C518 1.385 . S
C519 C520 1.389 . S
C520 C519 1.389 . S
C520 C521 1.387 . S
C521 H506 0.930 . S
C521 C516 1.390 . S
C521 C520 1.387 . S
H522 C534 0.930 . S
H523 C536 0.930 . S
H524 C537 0.930 . S
H525 C541 0.959 . S
H526 C541 0.977 . S
H527 C541 0.961 . S
H528 C542 0.960 . S
H529 C542 0.961 . S
H530 C542 0.959 . S
H531 C545 0.929 . S
H532 C546 0.931 . S
H533 C548 0.930 . S
C534 H522 0.930 . S
C534 C535 1.399 . S
C534 C539 1.399 . S
C535 C534 1.399 . S
C535 C536 1.376 . S
C536 H523 0.930 . S
C536 C535 1.376 . S
C536 C537 1.388 . S
C537 H524 0.930 . S
C537 C536 1.388 . S
C537 C538 1.390 . S
C538 C537 1.390 . S
C538 C539 1.394 . S
C538 C544 1.465 1_655 S
C539 C534 1.399 . S
C539 C538 1.394 . S
C539 C540 1.516 . S
C540 C539 1.516 . S
C540 C541 1.502 . S
C540 C542 1.561 . S
C540 C543 1.526 1_655 S
C541 H525 0.959 . S
C541 H526 0.977 . S
C541 H527 0.961 . S
C541 C540 1.502 . S
C542 H528 0.960 . S
C542 H529 0.961 . S
C542 H530 0.959 . S
C542 C540 1.561 . S
C543 C540 1.526 1_455 S
C543 C544 1.396 . S
C543 C548 1.390 . S
C544 C538 1.465 1_455 S
C544 C543 1.396 . S
C544 C545 1.399 . S
C545 H531 0.929 . S
C545 C544 1.399 . S
C545 C546 1.385 . S
C546 H532 0.931 . S
C546 C545 1.385 . S
C546 C547 1.389 . S
C547 C546 1.389 . S
C547 C548 1.387 . S
C548 H533 0.930 . S
C548 C543 1.390 . S
C548 C547 1.387 . S
H549 C561 0.930 . S
H550 C563 0.930 . S
H551 C564 0.930 . S
H552 C568 0.959 . S
H553 C568 0.959 . S
H554 C568 0.961 . S
H555 C569 0.960 . S
H556 C569 0.961 . S
H557 C569 0.959 . S
H558 C572 0.929 . S
H559 C573 0.931 . S
H560 C575 0.930 . S
C561 H549 0.930 . S
C561 C562 1.399 . S
C561 C566 1.399 . S
C562 C561 1.399 . S
C562 C563 1.376 . S
C563 H550 0.930 . S
C563 C562 1.376 . S
C563 C564 1.388 . S
C564 H551 0.930 . S
C564 C563 1.388 . S
C564 C565 1.390 . S
C565 C564 1.390 . S
C565 C566 1.394 . S
C565 C571 1.465 . S
C566 C561 1.399 . S
C566 C565 1.394 . S
C566 C567 1.516 . S
C567 C566 1.516 . S
C567 C568 1.502 . S
C567 C569 1.561 . S
C567 C570 1.526 . S
C568 H552 0.959 . S
C568 H553 0.959 . S
C568 H554 0.961 . S
C568 C567 1.502 . S
C569 H555 0.960 . S
C569 H556 0.961 . S
C569 H557 0.959 . S
C569 C567 1.561 . S
C570 C567 1.526 . S
C570 C571 1.396 . S
C570 C575 1.390 . S
C571 C565 1.465 . S
C571 C570 1.396 . S
C571 C572 1.399 . S
C572 H558 0.929 . S
C572 C571 1.399 . S
C572 C573 1.385 . S
C573 H559 0.931 . S
C573 C572 1.385 . S
C573 C574 1.389 . S
C574 C573 1.389 . S
C574 C575 1.387 . S
C575 H560 0.930 . S
C575 C570 1.390 . S
C575 C574 1.387 . S
H576 C588 0.930 . S
H577 C590 0.930 . S
H578 C591 0.930 . S
H579 C595 0.959 . S
H580 C595 0.959 . S
H581 C595 0.924 1_545 S
H582 C596 0.989 . S
H583 C596 0.961 . S
H584 C596 0.959 . S
H585 C599 0.929 . S
H586 C600 0.931 . S
H587 C602 0.930 . S
C588 H576 0.930 . S
C588 C589 1.399 . S
C588 C593 1.399 . S
C589 C588 1.399 . S
C589 C590 1.376 . S
C590 H577 0.930 . S
C590 C589 1.376 . S
C590 C591 1.388 . S
C591 H578 0.930 . S
C591 C590 1.388 . S
C591 C592 1.390 . S
C592 C591 1.390 . S
C592 C593 1.394 . S
C592 C598 1.465 1_545 S
C593 C588 1.399 . S
C593 C592 1.394 . S
C593 C594 1.516 1_545 S
C594 C593 1.516 1_565 S
C594 C595 1.502 . S
C594 C596 1.561 . S
C594 C597 1.526 . S
C595 H579 0.959 . S
C595 H580 0.959 . S
C595 H581 0.924 1_565 S
C595 C594 1.502 . S
C596 H582 0.989 . S
C596 H583 0.961 . S
C596 H584 0.959 . S
C596 C594 1.561 . S
C597 C594 1.526 . S
C597 C598 1.396 . S
C597 C602 1.390 . S
C598 C592 1.465 1_565 S
C598 C597 1.396 . S
C598 C599 1.399 . S
C599 H585 0.929 . S
C599 C598 1.399 . S
C599 C600 1.385 . S
C600 H586 0.931 . S
C600 C599 1.385 . S
C600 C601 1.389 . S
C601 C600 1.389 . S
C601 C602 1.387 . S
C602 H587 0.930 . S
C602 C597 1.390 . S
C602 C601 1.387 . S
H603 C615 0.930 . S
H604 C617 0.930 . S
H605 C618 0.930 . S
H606 C622 0.959 . S
H607 C622 0.959 . S
H608 C622 0.961 . S
H609 C623 0.960 1_455 S
H610 C623 0.961 . S
H611 C623 0.959 . S
H612 C626 0.929 . S
H613 C627 0.931 . S
H614 C629 0.930 . S
C615 H603 0.930 . S
C615 C616 1.399 . S
C615 C620 1.399 . S
C616 C615 1.399 . S
C616 C617 1.376 . S
C617 H604 0.930 . S
C617 C616 1.376 . S
C617 C618 1.388 . S
C618 H605 0.930 . S
C618 C617 1.388 . S
C618 C619 1.390 . S
C619 C618 1.390 . S
C619 C620 1.394 . S
C619 C625 1.465 1_455 S
C620 C615 1.399 . S
C620 C619 1.394 . S
C620 C621 1.516 1_455 S
C621 C620 1.516 1_655 S
C621 C622 1.502 . S
C621 C623 1.561 . S
C621 C624 1.526 . S
C622 H606 0.959 . S
C622 H607 0.959 . S
C622 H608 0.961 . S
C622 C621 1.502 . S
C623 H609 0.960 1_655 S
C623 H610 0.961 . S
C623 H611 0.959 . S
C623 C621 1.561 . S
C624 C621 1.526 . S
C624 C625 1.396 . S
C624 C629 1.390 . S
C625 C619 1.465 1_655 S
C625 C624 1.396 . S
C625 C626 1.399 . S
C626 H612 0.929 . S
C626 C625 1.399 . S
C626 C627 1.385 . S
C627 H613 0.931 . S
C627 C626 1.385 . S
C627 C628 1.389 . S
C628 C627 1.389 . S
C628 C629 1.387 . S
C629 H614 0.930 . S
C629 C624 1.390 . S
C629 C628 1.387 . S
H630 C642 0.930 . S
H631 C644 0.930 . S
H632 C645 0.930 . S
H633 C649 0.959 . S
H634 C649 0.959 . S
H635 C649 0.961 . S
H636 C650 0.960 . S
H637 C650 0.961 . S
H638 C650 0.959 . S
H639 C653 0.929 . S
H640 C654 0.931 . S
H641 C656 0.930 . S
C642 H630 0.930 . S
C642 C643 1.399 . S
C642 C647 1.399 . S
C643 C642 1.399 . S
C643 C644 1.376 . S
C644 H631 0.930 . S
C644 C643 1.376 . S
C644 C645 1.388 . S
C645 H632 0.930 . S
C645 C644 1.388 . S
C645 C646 1.390 . S
C646 C645 1.390 . S
C646 C647 1.394 . S
C646 C652 1.465 . S
C647 C642 1.399 . S
C647 C646 1.394 . S
C647 C648 1.516 . S
C648 C647 1.516 . S
C648 C649 1.502 . S
C648 C650 1.561 . S
C648 C651 1.526 . S
C649 H633 0.959 . S
C649 H634 0.959 . S
C649 H635 0.961 . S
C649 C648 1.502 . S
C650 H636 0.960 . S
C650 H637 0.961 . S
C650 H638 0.959 . S
C650 C648 1.561 . S
C651 C648 1.526 . S
C651 C652 1.396 . S
C651 C656 1.390 . S
C652 C646 1.465 . S
C652 C651 1.396 . S
C652 C653 1.399 . S
C653 H639 0.929 . S
C653 C652 1.399 . S
C653 C654 1.385 . S
C654 H640 0.931 . S
C654 C653 1.385 . S
C654 C655 1.389 . S
C655 C654 1.389 . S
C655 C656 1.387 . S
C656 H641 0.930 . S
C656 C651 1.390 . S
C656 C655 1.387 . S
H657 C669 0.930 . S
H658 C671 0.930 . S
H659 C672 0.930 . S
H660 C676 0.959 . S
H661 C676 0.959 . S
H662 C676 0.961 . S
H663 C677 0.960 . S
H664 C677 0.961 . S
H665 C677 0.959 . S
H666 C680 0.929 . S
H667 C681 0.931 . S
H668 C683 0.930 . S
C669 H657 0.930 . S
C669 C670 1.399 . S
C669 C674 1.399 . S
C670 C669 1.399 . S
C670 C671 1.376 . S
C671 H658 0.930 . S
C671 C670 1.376 . S
C671 C672 1.388 . S
C672 H659 0.930 . S
C672 C671 1.388 . S
C672 C673 1.390 . S
C673 C672 1.390 . S
C673 C674 1.394 . S
C673 C679 1.465 . S
C674 C669 1.399 . S
C674 C673 1.394 . S
C674 C675 1.516 . S
C675 C674 1.516 . S
C675 C676 1.502 . S
C675 C677 1.561 . S
C675 C678 1.526 . S
C676 H660 0.959 . S
C676 H661 0.959 . S
C676 H662 0.961 . S
C676 C675 1.502 . S
C677 H663 0.960 . S
C677 H664 0.961 . S
C677 H665 0.959 . S
C677 C675 1.561 . S
C678 C675 1.526 . S
C678 C679 1.396 . S
C678 C683 1.390 . S
C679 C673 1.465 . S
C679 C678 1.396 . S
C679 C680 1.399 . S
C680 H666 0.929 . S
C680 C679 1.399 . S
C680 C681 1.385 . S
C681 H667 0.931 . S
C681 C680 1.385 . S
C681 C682 1.389 . S
C682 C681 1.389 . S
C682 C683 1.387 . S
C683 H668 0.930 . S
C683 C678 1.390 . S
C683 C682 1.387 . S
H684 C696 0.930 . S
H685 C698 0.930 . S
H686 C699 0.930 . S
H687 C703 0.959 . S
H688 C703 0.959 . S
H689 C703 0.961 . S
H690 C704 0.960 . S
H691 C704 0.961 . S
H692 C704 0.959 . S
H693 C707 0.929 . S
H694 C708 0.931 . S
H695 C710 0.930 . S
C696 H684 0.930 . S
C696 C697 1.399 . S
C696 C701 1.399 . S
C697 C696 1.399 . S
C697 C698 1.376 . S
C698 H685 0.930 . S
C698 C697 1.376 . S
C698 C699 1.388 . S
C699 H686 0.930 . S
C699 C698 1.388 . S
C699 C700 1.390 . S
C700 C699 1.390 . S
C700 C701 1.394 . S
C700 C706 1.465 . S
C701 C696 1.399 . S
C701 C700 1.394 . S
C701 C702 1.516 . S
C702 C701 1.516 . S
C702 C703 1.502 . S
C702 C704 1.561 . S
C702 C705 1.526 . S
C703 H687 0.959 . S
C703 H688 0.959 . S
C703 H689 0.961 . S
C703 C702 1.502 . S
C704 H690 0.960 . S
C704 H691 0.961 . S
C704 H692 0.959 . S
C704 C702 1.561 . S
C705 C702 1.526 . S
C705 C706 1.396 . S
C705 C710 1.390 . S
C706 C700 1.465 . S
C706 C705 1.396 . S
C706 C707 1.399 . S
C707 H693 0.929 . S
C707 C706 1.399 . S
C707 C708 1.385 . S
C708 H694 0.931 . S
C708 C707 1.385 . S
C708 C709 1.389 . S
C709 C708 1.389 . S
C709 C710 1.387 . S
C710 H695 0.930 . S
C710 C705 1.390 . S
C710 C709 1.387 . S
H711 C723 0.930 . S
H712 C725 0.930 . S
H713 C726 0.930 . S
H714 C730 0.959 . S
H715 C730 0.959 . S
H716 C730 0.961 . S
H717 C731 0.960 . S
H718 C731 0.961 . S
H719 C731 0.959 . S
H720 C734 0.929 1_556 S
H721 C735 0.931 1_556 S
H722 C737 0.930 . S
C723 H711 0.930 . S
C723 C724 1.399 . S
C723 C728 1.399 . S
C724 C723 1.399 . S
C724 C725 1.376 . S
C725 H712 0.930 . S
C725 C724 1.376 . S
C725 C726 1.388 . S
C726 H713 0.930 . S
C726 C725 1.388 . S
C726 C727 1.390 . S
C727 C726 1.390 . S
C727 C728 1.394 . S
C727 C733 1.465 . S
C728 C723 1.399 . S
C728 C727 1.394 . S
C728 C729 1.516 . S
C729 C728 1.516 . S
C729 C730 1.502 . S
C729 C731 1.561 . S
C729 C732 1.526 . S
C730 H714 0.959 . S
C730 H715 0.959 . S
C730 H716 0.961 . S
C730 C729 1.502 . S
C731 H717 0.960 . S
C731 H718 0.961 . S
C731 H719 0.959 . S
C731 C729 1.561 . S
C732 C729 1.526 . S
C732 C733 1.396 . S
C732 C737 1.390 . S
C733 C727 1.465 . S
C733 C732 1.396 . S
C733 C734 1.399 . S
C734 H720 0.929 1_554 S
C734 C733 1.399 . S
C734 C735 1.385 . S
C735 H721 0.931 1_554 S
C735 C734 1.385 . S
C735 C736 1.389 . S
C736 C735 1.389 . S
C736 C737 1.387 . S
C737 H722 0.930 . S
C737 C732 1.390 . S
C737 C736 1.387 . S
H738 C750 0.930 . S
H739 C752 0.930 . S
H740 C753 0.930 . S
H741 C757 0.959 . S
H742 C757 0.959 . S
H743 C757 0.961 . S
H744 C758 0.960 . S
H745 C758 0.961 . S
H746 C758 0.959 . S
H747 C761 0.929 . S
H748 C762 0.931 . S
H749 C764 0.930 . S
C750 H738 0.930 . S
C750 C751 1.399 . S
C750 C755 1.399 . S
C751 C750 1.399 . S
C751 C752 1.376 . S
C752 H739 0.930 . S
C752 C751 1.376 . S
C752 C753 1.388 . S
C753 H740 0.930 . S
C753 C752 1.388 . S
C753 C754 1.390 . S
C754 C753 1.390 . S
C754 C755 1.394 . S
C754 C760 1.465 . S
C755 C750 1.399 . S
C755 C754 1.394 . S
C755 C756 1.516 . S
C756 C755 1.516 . S
C756 C757 1.502 . S
C756 C758 1.561 1_554 S
C756 C759 1.526 . S
C757 H741 0.959 . S
C757 H742 0.959 . S
C757 H743 0.961 . S
C757 C756 1.502 . S
C758 H744 0.960 . S
C758 H745 0.961 . S
C758 H746 0.959 . S
C758 C756 1.561 1_556 S
C759 C756 1.526 . S
C759 C760 1.396 . S
C759 C764 1.390 . S
C760 C754 1.465 . S
C760 C759 1.396 . S
C760 C761 1.399 . S
C761 H747 0.929 . S
C761 C760 1.399 . S
C761 C762 1.385 . S
C762 H748 0.931 . S
C762 C761 1.385 . S
C762 C763 1.389 . S
C763 C762 1.389 . S
C763 C764 1.387 . S
C764 H749 0.930 . S
C764 C759 1.390 . S
C764 C763 1.387 . S
H765 C777 0.930 . S
H766 C779 0.930 . S
H767 C780 0.930 . S
H768 C784 0.959 . S
H769 C784 0.959 1_556 S
H770 C784 0.961 . S
H771 C785 0.960 . S
H772 C785 0.961 . S
H773 C785 0.959 . S
H774 C788 0.929 . S
H775 C789 0.931 . S
H776 C791 0.930 . S
C777 H765 0.930 . S
C777 C778 1.399 . S
C777 C782 1.399 . S
C778 C777 1.399 . S
C778 C779 1.376 . S
C779 H766 0.930 . S
C779 C778 1.376 . S
C779 C780 1.388 . S
C780 H767 0.930 . S
C780 C779 1.388 . S
C780 C781 1.390 . S
C781 C780 1.390 . S
C781 C782 1.394 . S
C781 C787 1.465 . S
C782 C777 1.399 . S
C782 C781 1.394 . S
C782 C783 1.516 . S
C783 C782 1.516 . S
C783 C784 1.502 . S
C783 C785 1.561 1_554 S
C783 C786 1.526 . S
C784 H768 0.959 . S
C784 H769 0.959 1_554 S
C784 H770 0.961 . S
C784 C783 1.502 . S
C785 H771 0.960 . S
C785 H772 0.961 . S
C785 H773 0.959 . S
C785 C783 1.561 1_556 S
C786 C783 1.526 . S
C786 C787 1.396 . S
C786 C791 1.390 . S
C787 C781 1.465 . S
C787 C786 1.396 . S
C787 C788 1.399 . S
C788 H774 0.929 . S
C788 C787 1.399 . S
C788 C789 1.385 . S
C789 H775 0.931 . S
C789 C788 1.385 . S
C789 C790 1.389 . S
C790 C789 1.389 . S
C790 C791 1.387 . S
C791 H776 0.930 . S
C791 C786 1.390 . S
C791 C790 1.387 . S
H792 C804 0.930 . S
H793 C806 0.930 . S
H794 C807 0.930 . S
H795 C811 0.959 . S
H796 C811 0.959 . S
H797 C811 0.961 . S
H798 C812 0.960 . S
H799 C812 0.961 . S
H800 C812 0.959 . S
H801 C815 0.929 1_554 S
H802 C816 0.931 1_554 S
H803 C818 0.930 . S
C804 H792 0.930 . S
C804 C805 1.399 . S
C804 C809 1.399 . S
C805 C804 1.399 . S
C805 C806 1.376 . S
C806 H793 0.930 . S
C806 C805 1.376 . S
C806 C807 1.388 . S
C807 H794 0.930 . S
C807 C806 1.388 . S
C807 C808 1.390 . S
C808 C807 1.390 . S
C808 C809 1.394 . S
C808 C814 1.465 . S
C809 C804 1.399 . S
C809 C808 1.394 . S
C809 C810 1.516 . S
C810 C809 1.516 . S
C810 C811 1.502 . S
C810 C812 1.561 . S
C810 C813 1.526 . S
C811 H795 0.959 . S
C811 H796 0.959 . S
C811 H797 0.961 . S
C811 C810 1.502 . S
C812 H798 0.960 . S
C812 H799 0.961 . S
C812 H800 0.959 . S
C812 C810 1.561 . S
C813 C810 1.526 . S
C813 C814 1.396 . S
C813 C818 1.390 . S
C814 C808 1.465 . S
C814 C813 1.396 . S
C814 C815 1.399 . S
C815 H801 0.929 1_556 S
C815 C814 1.399 . S
C815 C816 1.385 . S
C816 H802 0.931 1_556 S
C816 C815 1.385 . S
C816 C817 1.389 . S
C817 C816 1.389 . S
C817 C818 1.387 . S
C818 H803 0.930 . S
C818 C813 1.390 . S
C818 C817 1.387 . S
H819 C831 0.930 . S
H820 C833 0.930 . S
H821 C834 0.930 . S
H822 C838 0.959 . S
H823 C838 0.959 . S
H824 C838 0.961 . S
H825 C839 0.960 1_554 S
H826 C839 0.961 1_554 S
H827 C839 0.959 . S
H828 C842 0.929 . S
H829 C843 0.931 . S
H830 C845 0.930 1_554 S
C831 H819 0.930 . S
C831 C832 1.399 . S
C831 C836 1.399 . S
C832 C831 1.399 . S
C832 C833 1.376 . S
C833 H820 0.930 . S
C833 C832 1.376 . S
C833 C834 1.388 . S
C834 H821 0.930 . S
C834 C833 1.388 . S
C834 C835 1.390 . S
C835 C834 1.390 . S
C835 C836 1.394 . S
C835 C841 1.465 . S
C836 C831 1.399 . S
C836 C835 1.394 . S
C836 C837 1.516 . S
C837 C836 1.516 . S
C837 C838 1.502 1_556 S
C837 C839 1.561 . S
C837 C840 1.526 . S
C838 H822 0.959 . S
C838 H823 0.959 . S
C838 H824 0.961 . S
C838 C837 1.502 1_554 S
C839 H825 0.960 1_556 S
C839 H826 0.961 1_556 S
C839 H827 0.959 . S
C839 C837 1.561 . S
C840 C837 1.526 . S
C840 C841 1.396 . S
C840 C845 1.390 . S
C841 C835 1.465 . S
C841 C840 1.396 . S
C841 C842 1.399 . S
C842 H828 0.929 . S
C842 C841 1.399 . S
C842 C843 1.385 . S
C843 H829 0.931 . S
C843 C842 1.385 . S
C843 C844 1.389 . S
C844 C843 1.389 . S
C844 C845 1.387 . S
C845 H830 0.930 1_556 S
C845 C840 1.390 . S
C845 C844 1.387 . S
H846 C858 0.930 . S
H847 C860 0.930 . S
H848 C861 0.930 . S
H849 C865 0.959 . S
H850 C865 0.959 . S
H851 C865 0.961 . S
H852 C866 0.960 . S
H853 C866 0.961 . S
H854 C866 0.959 . S
H855 C869 0.929 . S
H856 C870 0.931 . S
H857 C872 0.930 . S
C858 H846 0.930 . S
C858 C859 1.399 . S
C858 C863 1.399 . S
C859 C858 1.399 . S
C859 C860 1.376 . S
C860 H847 0.930 . S
C860 C859 1.376 . S
C860 C861 1.388 . S
C861 H848 0.930 . S
C861 C860 1.388 . S
C861 C862 1.390 . S
C862 C861 1.390 . S
C862 C863 1.394 . S
C862 C868 1.465 . S
C863 C858 1.399 . S
C863 C862 1.394 . S
C863 C864 1.516 . S
C864 C863 1.516 . S
C864 C865 1.502 . S
C864 C866 1.561 1_556 S
C864 C867 1.526 . S
C865 H849 0.959 . S
C865 H850 0.959 . S
C865 H851 0.961 . S
C865 C864 1.502 . S
C866 H852 0.960 . S
C866 H853 0.961 . S
C866 H854 0.959 . S
C866 C864 1.561 1_554 S
C867 C864 1.526 . S
C867 C868 1.396 . S
C867 C872 1.390 . S
C868 C862 1.465 . S
C868 C867 1.396 . S
C868 C869 1.399 . S
C869 H855 0.929 . S
C869 C868 1.399 . S
C869 C870 1.385 . S
C870 H856 0.931 . S
C870 C869 1.385 . S
C870 C871 1.389 . S
C871 C870 1.389 . S
C871 C872 1.387 . S
C872 H857 0.930 . S
C872 C867 1.390 . S
C872 C871 1.387 . S
H873 C885 0.930 . S
H874 C887 0.930 . S
H875 C888 0.930 . S
H876 C892 0.959 . S
H877 C892 0.959 . S
H878 C892 0.961 . S
H879 C893 0.960 . S
H880 C893 0.961 . S
H881 C893 0.959 . S
H882 C896 0.929 . S
H883 C897 0.931 . S
H884 C899 0.930 . S
C885 H873 0.930 . S
C885 C886 1.399 . S
C885 C890 1.399 . S
C886 C885 1.399 . S
C886 C887 1.376 . S
C887 H874 0.930 . S
C887 C886 1.376 . S
C887 C888 1.388 . S
C888 H875 0.930 . S
C888 C887 1.388 . S
C888 C889 1.390 . S
C889 C888 1.390 . S
C889 C890 1.394 . S
C889 C895 1.465 . S
C890 C885 1.399 . S
C890 C889 1.394 . S
C890 C891 1.516 . S
C891 C890 1.516 . S
C891 C892 1.502 . S
C891 C893 1.561 . S
C891 C894 1.526 . S
C892 H876 0.959 . S
C892 H877 0.959 . S
C892 H878 0.961 . S
C892 C891 1.502 . S
C893 H879 0.960 . S
C893 H880 0.961 . S
C893 H881 0.959 . S
C893 C891 1.561 . S
C894 C891 1.526 . S
C894 C895 1.396 . S
C894 C899 1.390 . S
C895 C889 1.465 . S
C895 C894 1.396 . S
C895 C896 1.399 . S
C896 H882 0.929 . S
C896 C895 1.399 . S
C896 C897 1.385 . S
C897 H883 0.931 . S
C897 C896 1.385 . S
C897 C898 1.389 . S
C898 C897 1.389 . S
C898 C899 1.387 . S
C899 H884 0.930 . S
C899 C894 1.390 . S
C899 C898 1.387 . S
H900 C912 0.930 . S
H901 C914 0.930 . S
H902 C915 0.930 . S
H903 C919 0.959 . S
H904 C919 0.959 . S
H905 C919 0.961 . S
H906 C920 0.960 . S
H907 C920 0.961 . S
H908 C920 0.959 . S
H909 C923 0.929 . S
H910 C924 0.931 . S
H911 C926 0.930 . S
C912 H900 0.930 . S
C912 C913 1.399 . S
C912 C917 1.399 . S
C913 C912 1.399 . S
C913 C914 1.376 . S
C914 H901 0.930 . S
C914 C913 1.376 . S
C914 C915 1.388 . S
C915 H902 0.930 . S
C915 C914 1.388 . S
C915 C916 1.390 . S
C916 C915 1.390 . S
C916 C917 1.394 . S
C916 C922 1.465 . S
C917 C912 1.399 . S
C917 C916 1.394 . S
C917 C918 1.516 . S
C918 C917 1.516 . S
C918 C919 1.502 . S
C918 C920 1.561 . S
C918 C921 1.526 . S
C919 H903 0.959 . S
C919 H904 0.959 . S
C919 H905 0.961 . S
C919 C918 1.502 . S
C920 H906 0.960 . S
C920 H907 0.961 . S
C920 H908 0.959 . S
C920 C918 1.561 . S
C921 C918 1.526 . S
C921 C922 1.396 . S
C921 C926 1.390 . S
C922 C916 1.465 . S
C922 C921 1.396 . S
C922 C923 1.399 . S
C923 H909 0.929 . S
C923 C922 1.399 . S
C923 C924 1.385 . S
C924 H910 0.931 . S
C924 C923 1.385 . S
C924 C925 1.389 . S
C925 C924 1.389 . S
C925 C926 1.387 . S
C926 H911 0.930 . S
C926 C921 1.390 . S
C926 C925 1.387 . S
H927 C939 0.930 . S
H928 C941 0.930 . S
H929 C942 0.930 . S
H930 C946 0.959 . S
H931 C946 0.959 . S
H932 C946 0.961 . S
H933 C947 0.960 . S
H934 C947 0.961 . S
H935 C947 0.959 . S
H936 C950 0.929 . S
H937 C951 0.931 . S
H938 C953 0.930 . S
C939 H927 0.930 . S
C939 C940 1.399 . S
C939 C944 1.399 . S
C940 C939 1.399 . S
C940 C941 1.376 . S
C941 H928 0.930 . S
C941 C940 1.376 . S
C941 C942 1.388 . S
C942 H929 0.930 . S
C942 C941 1.388 . S
C942 C943 1.390 . S
C943 C942 1.390 . S
C943 C944 1.394 . S
C943 C949 1.465 . S
C944 C939 1.399 . S
C944 C943 1.394 . S
C944 C945 1.516 . S
C945 C944 1.516 . S
C945 C946 1.502 . S
C945 C947 1.561 . S
C945 C948 1.526 . S
C946 H930 0.959 . S
C946 H931 0.959 . S
C946 H932 0.961 . S
C946 C945 1.502 . S
C947 H933 0.960 . S
C947 H934 0.961 . S
C947 H935 0.959 . S
C947 C945 1.561 . S
C948 C945 1.526 . S
C948 C949 1.396 . S
C948 C953 1.390 . S
C949 C943 1.465 . S
C949 C948 1.396 . S
C949 C950 1.399 . S
C950 H936 0.929 . S
C950 C949 1.399 . S
C950 C951 1.385 . S
C951 H937 0.931 . S
C951 C950 1.385 . S
C951 C952 1.389 . S
C952 C951 1.389 . S
C952 C953 1.387 . S
C953 H938 0.930 . S
C953 C948 1.390 . S
C953 C952 1.387 . S
H954 C966 0.930 . S
H955 C968 0.930 . S
H956 C969 0.930 . S
H957 C973 0.959 . S
H958 C973 0.959 . S
H959 C973 0.961 . S
H960 C974 0.960 . S
H961 C974 0.961 . S
H962 C974 0.959 . S
H963 C977 0.929 . S
H964 C978 0.931 . S
H965 C980 0.930 1_554 S
C966 H954 0.930 . S
C966 C967 1.399 . S
C966 C971 1.399 . S
C967 C966 1.399 . S
C967 C968 1.376 . S
C968 H955 0.930 . S
C968 C967 1.376 . S
C968 C969 1.388 . S
C969 H956 0.930 . S
C969 C968 1.388 . S
C969 C970 1.390 . S
C970 C969 1.390 . S
C970 C971 1.394 . S
C970 C976 1.465 . S
C971 C966 1.399 . S
C971 C970 1.394 . S
C971 C972 1.516 . S
C972 C971 1.516 . S
C972 C973 1.502 . S
C972 C974 1.561 . S
C972 C975 1.526 . S
C973 H957 0.959 . S
C973 H958 0.959 . S
C973 H959 0.961 . S
C973 C972 1.502 . S
C974 H960 0.960 . S
C974 H961 0.961 . S
C974 H962 0.959 . S
C974 C972 1.561 . S
C975 C972 1.526 . S
C975 C976 1.396 . S
C975 C980 1.390 . S
C976 C970 1.465 . S
C976 C975 1.396 . S
C976 C977 1.399 . S
C977 H963 0.929 . S
C977 C976 1.399 . S
C977 C978 1.385 1_556 S
C978 H964 0.931 . S
C978 C977 1.385 1_554 S
C978 C979 1.389 . S
C979 C978 1.389 . S
C979 C980 1.387 1_554 S
C980 H965 0.930 1_556 S
C980 C975 1.390 . S
C980 C979 1.387 1_556 S
H981 C993 0.930 . S
H982 C995 0.930 . S
H983 C996 0.930 . S
H984 C1000 0.959 . S
H985 C1000 0.959 . S
H986 C1000 0.961 . S
H987 C1001 0.960 . S
H988 C1001 0.961 . S
H989 C1001 0.959 . S
H990 C1004 0.929 . S
H991 C1005 0.931 . S
H992 C1007 0.930 . S
C993 H981 0.930 . S
C993 C994 1.399 1_556 S
C993 C998 1.399 . S
C994 C993 1.399 1_554 S
C994 C995 1.376 . S
C995 H982 0.930 . S
C995 C994 1.376 . S
C995 C996 1.388 1_554 S
C996 H983 0.930 . S
C996 C995 1.388 1_556 S
C996 C997 1.390 . S
C997 C996 1.390 . S
C997 C998 1.394 . S
C997 C1003 1.465 . S
C998 C993 1.399 . S
C998 C997 1.394 . S
C998 C999 1.516 . S
C999 C998 1.516 . S
C999 C1000 1.502 . S
C999 C1001 1.561 . S
C999 C1002 1.526 . S
C1000 H984 0.959 . S
C1000 H985 0.959 . S
C1000 H986 0.961 . S
C1000 C999 1.502 . S
C1001 H987 0.960 . S
C1001 H988 0.961 . S
C1001 H989 0.959 . S
C1001 C999 1.561 . S
C1002 C999 1.526 . S
C1002 C1003 1.396 . S
C1002 C1007 1.390 . S
C1003 C997 1.465 . S
C1003 C1002 1.396 . S
C1003 C1004 1.399 . S
C1004 H990 0.929 . S
C1004 C1003 1.399 . S
C1004 C1005 1.385 . S
C1005 H991 0.931 . S
C1005 C1004 1.385 . S
C1005 C1006 1.389 . S
C1006 C1005 1.389 . S
C1006 C1007 1.387 . S
C1007 H992 0.930 . S
C1007 C1002 1.390 . S
C1007 C1006 1.387 . S
H1008 C1020 0.930 . S
H1009 C1022 0.930 1_554 S
H1010 C1023 0.930 . S
H1011 C1027 0.959 . S
H1012 C1027 0.959 . S
H1013 C1027 0.961 . S
H1014 C1028 0.960 1_554 S
H1015 C1028 0.961 . S
H1016 C1028 0.959 . S
H1017 C1031 0.929 . S
H1018 C1032 0.931 . S
H1019 C1034 0.930 . S
C1020 H1008 0.930 . S
C1020 C1021 1.399 . S
C1020 C1025 1.399 1_554 S
C1021 C1020 1.399 . S
C1021 C1022 1.376 1_554 S
C1022 H1009 0.930 1_556 S
C1022 C1021 1.376 1_556 S
C1022 C1023 1.388 . S
C1023 H1010 0.930 . S
C1023 C1022 1.388 . S
C1023 C1024 1.390 . S
C1024 C1023 1.390 . S
C1024 C1025 1.394 . S
C1024 C1030 1.465 . S
C1025 C1020 1.399 1_556 S
C1025 C1024 1.394 . S
C1025 C1026 1.516 . S
C1026 C1025 1.516 . S
C1026 C1027 1.502 . S
C1026 C1028 1.561 . S
C1026 C1029 1.526 . S
C1027 H1011 0.959 . S
C1027 H1012 0.959 . S
C1027 H1013 0.961 . S
C1027 C1026 1.502 . S
C1028 H1014 0.960 1_556 S
C1028 H1015 0.961 . S
C1028 H1016 0.959 . S
C1028 C1026 1.561 . S
C1029 C1026 1.526 . S
C1029 C1030 1.396 . S
C1029 C1034 1.390 . S
C1030 C1024 1.465 . S
C1030 C1029 1.396 . S
C1030 C1031 1.399 . S
C1031 H1017 0.929 . S
C1031 C1030 1.399 . S
C1031 C1032 1.385 . S
C1032 H1018 0.931 . S
C1032 C1031 1.385 . S
C1032 C1033 1.389 . S
C1033 C1032 1.389 . S
C1033 C1034 1.387 . S
C1034 H1019 0.930 . S
C1034 C1029 1.390 . S
C1034 C1033 1.387 . S
H1035 C1047 0.930 . S
H1036 C1049 0.930 . S
H1037 C1050 0.930 . S
H1038 C1054 0.959 . S
H1039 C1054 0.959 . S
H1040 C1054 0.961 . S
H1041 C1055 0.960 . S
H1042 C1055 0.961 . S
H1043 C1055 0.959 . S
H1044 C1058 0.929 . S
H1045 C1059 0.931 . S
H1046 C1061 0.930 . S
C1047 H1035 0.930 . S
C1047 C1048 1.399 . S
C1047 C1052 1.399 . S
C1048 C1047 1.399 . S
C1048 C1049 1.376 . S
C1049 H1036 0.930 . S
C1049 C1048 1.376 . S
C1049 C1050 1.388 . S
C1050 H1037 0.930 . S
C1050 C1049 1.388 . S
C1050 C1051 1.390 . S
C1051 C1050 1.390 . S
C1051 C1052 1.394 . S
C1051 C1057 1.465 . S
C1052 C1047 1.399 . S
C1052 C1051 1.394 . S
C1052 C1053 1.516 . S
C1053 C1052 1.516 . S
C1053 C1054 1.502 . S
C1053 C1055 1.561 . S
C1053 C1056 1.526 . S
C1054 H1038 0.959 . S
C1054 H1039 0.959 . S
C1054 H1040 0.961 . S
C1054 C1053 1.502 . S
C1055 H1041 0.960 . S
C1055 H1042 0.961 . S
C1055 H1043 0.959 . S
C1055 C1053 1.561 . S
C1056 C1053 1.526 . S
C1056 C1057 1.396 . S
C1056 C1061 1.390 . S
C1057 C1051 1.465 . S
C1057 C1056 1.396 . S
C1057 C1058 1.399 . S
C1058 H1044 0.929 . S
C1058 C1057 1.399 . S
C1058 C1059 1.385 . S
C1059 H1045 0.931 . S
C1059 C1058 1.385 . S
C1059 C1060 1.389 . S
C1060 C1059 1.389 . S
C1060 C1061 1.387 . S
C1061 H1046 0.930 . S
C1061 C1056 1.390 . S
C1061 C1060 1.387 . S
H1062 C1074 0.930 . S
H1063 C1076 0.930 . S
H1064 C1077 0.930 . S
H1065 C1081 0.959 . S
H1066 C1081 0.959 . S
H1067 C1081 0.961 . S
H1068 C1082 0.960 . S
H1069 C1082 0.961 . S
H1070 C1082 0.959 . S
H1071 C1085 0.929 . S
H1072 C1086 0.931 . S
H1073 C1088 0.930 . S
C1074 H1062 0.930 . S
C1074 C1075 1.399 . S
C1074 C1079 1.399 . S
C1075 C1074 1.399 . S
C1075 C1076 1.376 . S
C1076 H1063 0.930 . S
C1076 C1075 1.376 . S
C1076 C1077 1.388 . S
C1077 H1064 0.930 . S
C1077 C1076 1.388 . S
C1077 C1078 1.390 . S
C1078 C1077 1.390 . S
C1078 C1079 1.394 . S
C1078 C1084 1.465 . S
C1079 C1074 1.399 . S
C1079 C1078 1.394 . S
C1079 C1080 1.516 . S
C1080 C1079 1.516 . S
C1080 C1081 1.502 . S
C1080 C1082 1.561 . S
C1080 C1083 1.526 . S
C1081 H1065 0.959 . S
C1081 H1066 0.959 . S
C1081 H1067 0.961 . S
C1081 C1080 1.502 . S
C1082 H1068 0.960 . S
C1082 H1069 0.961 . S
C1082 H1070 0.959 . S
C1082 C1080 1.561 . S
C1083 C1080 1.526 . S
C1083 C1084 1.396 . S
C1083 C1088 1.390 . S
C1084 C1078 1.465 . S
C1084 C1083 1.396 . S
C1084 C1085 1.399 . S
C1085 H1071 0.929 . S
C1085 C1084 1.399 . S
C1085 C1086 1.385 . S
C1086 H1072 0.931 . S
C1086 C1085 1.385 . S
C1086 C1087 1.389 . S
C1087 C1086 1.389 . S
C1087 C1088 1.387 . S
C1088 H1073 0.930 . S
C1088 C1083 1.390 . S
C1088 C1087 1.387 . S
H1089 C1101 0.930 . S
H1090 C1103 0.930 . S
H1091 C1104 0.930 . S
H1092 C1108 0.959 . S
H1093 C1108 0.959 . S
H1094 C1108 0.961 . S
H1095 C1109 0.960 . S
H1096 C1109 0.961 . S
H1097 C1109 0.959 . S
H1098 C1112 0.929 . S
H1099 C1113 0.931 . S
H1100 C1115 0.930 . S
C1101 H1089 0.930 . S
C1101 C1102 1.399 . S
C1101 C1106 1.399 . S
C1102 C1101 1.399 . S
C1102 C1103 1.376 . S
C1103 H1090 0.930 . S
C1103 C1102 1.376 . S
C1103 C1104 1.388 . S
C1104 H1091 0.930 . S
C1104 C1103 1.388 . S
C1104 C1105 1.390 . S
C1105 C1104 1.390 . S
C1105 C1106 1.394 . S
C1105 C1111 1.465 . S
C1106 C1101 1.399 . S
C1106 C1105 1.394 . S
C1106 C1107 1.516 . S
C1107 C1106 1.516 . S
C1107 C1108 1.502 . S
C1107 C1109 1.561 . S
C1107 C1110 1.526 . S
C1108 H1092 0.959 . S
C1108 H1093 0.959 . S
C1108 H1094 0.961 . S
C1108 C1107 1.502 . S
C1109 H1095 0.960 . S
C1109 H1096 0.961 . S
C1109 H1097 0.959 . S
C1109 C1107 1.561 . S
C1110 C1107 1.526 . S
C1110 C1111 1.396 . S
C1110 C1115 1.390 . S
C1111 C1105 1.465 . S
C1111 C1110 1.396 . S
C1111 C1112 1.399 . S
C1112 H1098 0.929 . S
C1112 C1111 1.399 . S
C1112 C1113 1.385 . S
C1113 H1099 0.931 . S
C1113 C1112 1.385 . S
C1113 C1114 1.389 . S
C1114 C1113 1.389 . S
C1114 C1115 1.387 . S
C1115 H1100 0.930 . S
C1115 C1110 1.390 . S
C1115 C1114 1.387 . S
H1116 C1128 0.930 . S
H1117 C1130 0.930 . S
H1118 C1131 0.930 . S
H1119 C1135 0.959 . S
H1120 C1135 0.959 . S
H1121 C1135 0.961 . S
H1122 C1136 0.960 . S
H1123 C1136 0.961 . S
H1124 C1136 0.959 . S
H1125 C1139 0.929 . S
H1126 C1140 0.931 . S
H1127 C1142 0.930 . S
C1128 H1116 0.930 . S
C1128 C1129 1.399 1_554 S
C1128 C1133 1.399 . S
C1129 C1128 1.399 1_556 S
C1129 C1130 1.376 . S
C1130 H1117 0.930 . S
C1130 C1129 1.376 . S
C1130 C1131 1.388 1_556 S
C1131 H1118 0.930 . S
C1131 C1130 1.388 1_554 S
C1131 C1132 1.390 . S
C1132 C1131 1.390 . S
C1132 C1133 1.394 . S
C1132 C1138 1.465 . S
C1133 C1128 1.399 . S
C1133 C1132 1.394 . S
C1133 C1134 1.516 . S
C1134 C1133 1.516 . S
C1134 C1135 1.502 . S
C1134 C1136 1.561 . S
C1134 C1137 1.526 . S
C1135 H1119 0.959 . S
C1135 H1120 0.959 . S
C1135 H1121 0.961 . S
C1135 C1134 1.502 . S
C1136 H1122 0.960 . S
C1136 H1123 0.961 . S
C1136 H1124 0.959 . S
C1136 C1134 1.561 . S
C1137 C1134 1.526 . S
C1137 C1138 1.396 . S
C1137 C1142 1.390 . S
C1138 C1132 1.465 . S
C1138 C1137 1.396 . S
C1138 C1139 1.399 . S
C1139 H1125 0.929 . S
C1139 C1138 1.399 . S
C1139 C1140 1.385 . S
C1140 H1126 0.931 . S
C1140 C1139 1.385 . S
C1140 C1141 1.389 . S
C1141 C1140 1.389 . S
C1141 C1142 1.387 . S
C1142 H1127 0.930 . S
C1142 C1137 1.390 . S
C1142 C1141 1.387 . S
H1143 C1155 0.930 . S
H1144 C1157 0.930 . S
H1145 C1158 0.930 1_556 S
H1146 C1162 0.959 . S
H1147 C1162 0.959 . S
H1148 C1162 0.961 . S
H1149 C1163 0.960 . S
H1150 C1163 0.961 . S
H1151 C1163 0.959 . S
H1152 C1166 0.929 . S
H1153 C1167 0.931 . S
H1154 C1169 0.930 . S
C1155 H1143 0.930 . S
C1155 C1156 1.399 1_554 S
C1155 C1160 1.399 . S
C1156 C1155 1.399 1_556 S
C1156 C1157 1.376 . S
C1157 H1144 0.930 . S
C1157 C1156 1.376 . S
C1157 C1158 1.388 1_556 S
C1158 H1145 0.930 1_554 S
C1158 C1157 1.388 1_554 S
C1158 C1159 1.390 . S
C1159 C1158 1.390 . S
C1159 C1160 1.394 . S
C1159 C1165 1.465 . S
C1160 C1155 1.399 . S
C1160 C1159 1.394 . S
C1160 C1161 1.516 . S
C1161 C1160 1.516 . S
C1161 C1162 1.502 . S
C1161 C1163 1.561 . S
C1161 C1164 1.526 . S
C1162 H1146 0.959 . S
C1162 H1147 0.959 . S
C1162 H1148 0.961 . S
C1162 C1161 1.502 . S
C1163 H1149 0.960 . S
C1163 H1150 0.961 . S
C1163 H1151 0.959 . S
C1163 C1161 1.561 . S
C1164 C1161 1.526 . S
C1164 C1165 1.396 . S
C1164 C1169 1.390 . S
C1165 C1159 1.465 . S
C1165 C1164 1.396 . S
C1165 C1166 1.399 . S
C1166 H1152 0.929 . S
C1166 C1165 1.399 . S
C1166 C1167 1.385 . S
C1167 H1153 0.931 . S
C1167 C1166 1.385 . S
C1167 C1168 1.389 . S
C1168 C1167 1.389 . S
C1168 C1169 1.387 . S
C1169 H1154 0.930 . S
C1169 C1164 1.390 . S
C1169 C1168 1.387 . S
H1170 C1182 0.930 . S
H1171 C1184 0.930 . S
H1172 C1185 0.930 . S
H1173 C1189 0.959 . S
H1174 C1189 0.959 . S
H1175 C1189 0.961 . S
H1176 C1190 0.960 . S
H1177 C1190 0.961 . S
H1178 C1190 0.959 . S
H1179 C1193 0.929 . S
H1180 C1194 0.931 . S
H1181 C1196 0.930 . S
C1182 H1170 0.930 . S
C1182 C1183 1.399 . S
C1182 C1187 1.399 . S
C1183 C1182 1.399 . S
C1183 C1184 1.376 . S
C1184 H1171 0.930 . S
C1184 C1183 1.376 . S
C1184 C1185 1.388 . S
C1185 H1172 0.930 . S
C1185 C1184 1.388 . S
C1185 C1186 1.390 . S
C1186 C1185 1.390 . S
C1186 C1187 1.394 . S
C1186 C1192 1.465 . S
C1187 C1182 1.399 . S
C1187 C1186 1.394 . S
C1187 C1188 1.516 . S
C1188 C1187 1.516 . S
C1188 C1189 1.502 . S
C1188 C1190 1.561 . S
C1188 C1191 1.526 . S
C1189 H1173 0.959 . S
C1189 H1174 0.959 . S
C1189 H1175 0.961 . S
C1189 C1188 1.502 . S
C1190 H1176 0.960 . S
C1190 H1177 0.961 . S
C1190 H1178 0.959 . S
C1190 C1188 1.561 . S
C1191 C1188 1.526 . S
C1191 C1192 1.396 . S
C1191 C1196 1.390 . S
C1192 C1186 1.465 . S
C1192 C1191 1.396 . S
C1192 C1193 1.399 1_554 S
C1193 H1179 0.929 . S
C1193 C1192 1.399 1_556 S
C1193 C1194 1.385 . S
C1194 H1180 0.931 . S
C1194 C1193 1.385 . S
C1194 C1195 1.389 . S
C1195 C1194 1.389 . S
C1195 C1196 1.387 1_556 S
C1196 H1181 0.930 . S
C1196 C1191 1.390 . S
C1196 C1195 1.387 1_554 S
H1197 C1209 0.930 . S
H1198 C1211 0.930 . S
H1199 C1212 0.930 . S
H1200 C1216 0.959 . S
H1201 C1216 0.959 . S
H1202 C1216 0.961 . S
H1203 C1217 0.960 . S
H1204 C1217 0.961 . S
H1205 C1217 0.959 . S
H1206 C1220 0.929 . S
H1207 C1221 0.931 . S
H1208 C1223 0.930 . S
C1209 H1197 0.930 . S
C1209 C1210 1.399 . S
C1209 C1214 1.399 . S
C1210 C1209 1.399 . S
C1210 C1211 1.376 . S
C1211 H1198 0.930 . S
C1211 C1210 1.376 . S
C1211 C1212 1.388 . S
C1212 H1199 0.930 . S
C1212 C1211 1.388 . S
C1212 C1213 1.390 . S
C1213 C1212 1.390 . S
C1213 C1214 1.394 . S
C1213 C1219 1.465 . S
C1214 C1209 1.399 . S
C1214 C1213 1.394 . S
C1214 C1215 1.516 . S
C1215 C1214 1.516 . S
C1215 C1216 1.502 . S
C1215 C1217 1.561 . S
C1215 C1218 1.526 . S
C1216 H1200 0.959 . S
C1216 H1201 0.959 . S
C1216 H1202 0.961 . S
C1216 C1215 1.502 . S
C1217 H1203 0.960 . S
C1217 H1204 0.961 . S
C1217 H1205 0.959 . S
C1217 C1215 1.561 . S
C1218 C1215 1.526 . S
C1218 C1219 1.396 . S
C1218 C1223 1.390 . S
C1219 C1213 1.465 . S
C1219 C1218 1.396 . S
C1219 C1220 1.399 . S
C1220 H1206 0.929 . S
C1220 C1219 1.399 . S
C1220 C1221 1.385 . S
C1221 H1207 0.931 . S
C1221 C1220 1.385 . S
C1221 C1222 1.389 . S
C1222 C1221 1.389 . S
C1222 C1223 1.387 . S
C1223 H1208 0.930 . S
C1223 C1218 1.390 . S
C1223 C1222 1.387 . S
H1224 C1236 0.930 . S
H1225 C1238 0.930 . S
H1226 C1239 0.930 . S
H1227 C1243 0.959 . S
H1228 C1243 0.959 . S
H1229 C1243 0.961 . S
H1230 C1244 0.960 . S
H1231 C1244 0.961 . S
H1232 C1244 0.959 . S
H1233 C1247 0.929 . S
H1234 C1248 0.931 . S
H1235 C1250 0.930 . S
C1236 H1224 0.930 . S
C1236 C1237 1.399 . S
C1236 C1241 1.399 . S
C1237 C1236 1.399 . S
C1237 C1238 1.376 . S
C1238 H1225 0.930 . S
C1238 C1237 1.376 . S
C1238 C1239 1.388 . S
C1239 H1226 0.930 . S
C1239 C1238 1.388 . S
C1239 C1240 1.390 . S
C1240 C1239 1.390 . S
C1240 C1241 1.394 . S
C1240 C1246 1.465 . S
C1241 C1236 1.399 . S
C1241 C1240 1.394 . S
C1241 C1242 1.516 . S
C1242 C1241 1.516 . S
C1242 C1243 1.502 . S
C1242 C1244 1.561 . S
C1242 C1245 1.526 . S
C1243 H1227 0.959 . S
C1243 H1228 0.959 . S
C1243 H1229 0.961 . S
C1243 C1242 1.502 . S
C1244 H1230 0.960 . S
C1244 H1231 0.961 . S
C1244 H1232 0.959 . S
C1244 C1242 1.561 . S
C1245 C1242 1.526 . S
C1245 C1246 1.396 . S
C1245 C1250 1.390 . S
C1246 C1240 1.465 . S
C1246 C1245 1.396 . S
C1246 C1247 1.399 . S
C1247 H1233 0.929 . S
C1247 C1246 1.399 . S
C1247 C1248 1.385 . S
C1248 H1234 0.931 . S
C1248 C1247 1.385 . S
C1248 C1249 1.389 . S
C1249 C1248 1.389 . S
C1249 C1250 1.387 . S
C1250 H1235 0.930 . S
C1250 C1245 1.390 . S
C1250 C1249 1.387 . S
H1251 C1263 0.930 . S
H1252 C1265 0.930 . S
H1253 C1266 0.930 . S
H1254 C1270 0.959 . S
H1255 C1270 0.959 . S
H1256 C1270 0.961 . S
H1257 C1271 0.960 . S
H1258 C1271 0.961 . S
H1259 C1271 0.959 . S
H1260 C1274 0.929 . S
H1261 C1275 0.931 . S
H1262 C1277 0.930 . S
C1263 H1251 0.930 . S
C1263 C1264 1.399 . S
C1263 C1268 1.399 . S
C1264 C1263 1.399 . S
C1264 C1265 1.376 . S
C1265 H1252 0.930 . S
C1265 C1264 1.376 . S
C1265 C1266 1.388 . S
C1266 H1253 0.930 . S
C1266 C1265 1.388 . S
C1266 C1267 1.390 . S
C1267 C1266 1.390 . S
C1267 C1268 1.394 . S
C1267 C1273 1.465 . S
C1268 C1263 1.399 . S
C1268 C1267 1.394 . S
C1268 C1269 1.516 . S
C1269 C1268 1.516 . S
C1269 C1270 1.502 . S
C1269 C1271 1.561 . S
C1269 C1272 1.526 . S
C1270 H1254 0.959 . S
C1270 H1255 0.959 . S
C1270 H1256 0.961 . S
C1270 C1269 1.502 . S
C1271 H1257 0.960 . S
C1271 H1258 0.961 . S
C1271 H1259 0.959 . S
C1271 C1269 1.561 . S
C1272 C1269 1.526 . S
C1272 C1273 1.396 . S
C1272 C1277 1.390 . S
C1273 C1267 1.465 . S
C1273 C1272 1.396 . S
C1273 C1274 1.399 . S
C1274 H1260 0.929 . S
C1274 C1273 1.399 . S
C1274 C1275 1.385 . S
C1275 H1261 0.931 . S
C1275 C1274 1.385 . S
C1275 C1276 1.389 . S
C1276 C1275 1.389 . S
C1276 C1277 1.387 . S
C1277 H1262 0.930 . S
C1277 C1272 1.390 . S
C1277 C1276 1.387 . S
H1278 C1290 0.930 . S
H1279 C1292 0.930 . S
H1280 C1293 0.930 . S
H1281 C1297 0.959 . S
H1282 C1297 0.959 . S
H1283 C1297 0.961 . S
H1284 C1298 0.960 . S
H1285 C1298 0.961 . S
H1286 C1298 0.959 . S
H1287 C1301 0.929 . S
H1288 C1302 0.931 . S
H1289 C1304 0.930 . S
C1290 H1278 0.930 . S
C1290 C1291 1.399 . S
C1290 C1295 1.399 . S
C1291 C1290 1.399 . S
C1291 C1292 1.376 . S
C1292 H1279 0.930 . S
C1292 C1291 1.376 . S
C1292 C1293 1.388 . S
C1293 H1280 0.930 . S
C1293 C1292 1.388 . S
C1293 C1294 1.390 . S
C1294 C1293 1.390 . S
C1294 C1295 1.394 . S
C1294 C1300 1.465 . S
C1295 C1290 1.399 . S
C1295 C1294 1.394 . S
C1295 C1296 1.516 . S
C1296 C1295 1.516 . S
C1296 C1297 1.502 . S
C1296 C1298 1.561 . S
C1296 C1299 1.526 . S
C1297 H1281 0.959 . S
C1297 H1282 0.959 . S
C1297 H1283 0.961 . S
C1297 C1296 1.502 . S
C1298 H1284 0.960 . S
C1298 H1285 0.961 . S
C1298 H1286 0.959 . S
C1298 C1296 1.561 . S
C1299 C1296 1.526 . S
C1299 C1300 1.396 . S
C1299 C1304 1.390 . S
C1300 C1294 1.465 . S
C1300 C1299 1.396 . S
C1300 C1301 1.399 . S
C1301 H1287 0.929 . S
C1301 C1300 1.399 . S
C1301 C1302 1.385 . S
C1302 H1288 0.931 . S
C1302 C1301 1.385 . S
C1302 C1303 1.389 . S
C1303 C1302 1.389 . S
C1303 C1304 1.387 . S
C1304 H1289 0.930 . S
C1304 C1299 1.390 . S
C1304 C1303 1.387 . S
H1305 C1317 0.930 . S
H1306 C1319 0.930 . S
H1307 C1320 0.930 . S
H1308 C1324 0.959 . S
H1309 C1324 0.959 . S
H1310 C1324 0.961 . S
H1311 C1325 0.960 . S
H1312 C1325 0.961 . S
H1313 C1325 0.959 . S
H1314 C1328 0.929 . S
H1315 C1329 0.931 . S
H1316 C1331 0.930 . S
C1317 H1305 0.930 . S
C1317 C1318 1.399 . S
C1317 C1322 1.399 . S
C1318 C1317 1.399 . S
C1318 C1319 1.376 . S
C1319 H1306 0.930 . S
C1319 C1318 1.376 . S
C1319 C1320 1.388 . S
C1320 H1307 0.930 . S
C1320 C1319 1.388 . S
C1320 C1321 1.390 . S
C1321 C1320 1.390 . S
C1321 C1322 1.394 . S
C1321 C1327 1.465 . S
C1322 C1317 1.399 . S
C1322 C1321 1.394 . S
C1322 C1323 1.516 . S
C1323 C1322 1.516 . S
C1323 C1324 1.502 . S
C1323 C1325 1.561 . S
C1323 C1326 1.526 . S
C1324 H1308 0.959 . S
C1324 H1309 0.959 . S
C1324 H1310 0.961 . S
C1324 C1323 1.502 . S
C1325 H1311 0.960 . S
C1325 H1312 0.961 . S
C1325 H1313 0.959 . S
C1325 C1323 1.561 . S
C1326 C1323 1.526 . S
C1326 C1327 1.396 . S
C1326 C1331 1.390 . S
C1327 C1321 1.465 . S
C1327 C1326 1.396 . S
C1327 C1328 1.399 . S
C1328 H1314 0.929 . S
C1328 C1327 1.399 . S
C1328 C1329 1.385 . S
C1329 H1315 0.931 . S
C1329 C1328 1.385 . S
C1329 C1330 1.389 . S
C1330 C1329 1.389 . S
C1330 C1331 1.387 . S
C1331 H1316 0.930 . S
C1331 C1326 1.390 . S
C1331 C1330 1.387 . S
H1332 C1344 0.930 . S
H1333 C1346 0.930 . S
H1334 C1347 0.930 . S
H1335 C1351 0.959 . S
H1336 C1351 0.959 . S
H1337 C1351 0.961 . S
H1338 C1352 0.960 . S
H1339 C1352 0.961 . S
H1340 C1352 0.959 . S
H1341 C1355 0.929 . S
H1342 C1356 0.931 . S
H1343 C1358 0.930 . S
C1344 H1332 0.930 . S
C1344 C1345 1.399 . S
C1344 C1349 1.399 . S
C1345 C1344 1.399 . S
C1345 C1346 1.376 . S
C1346 H1333 0.930 . S
C1346 C1345 1.376 . S
C1346 C1347 1.388 . S
C1347 H1334 0.930 . S
C1347 C1346 1.388 . S
C1347 C1348 1.390 . S
C1348 C1347 1.390 . S
C1348 C1349 1.394 . S
C1348 C1354 1.465 . S
C1349 C1344 1.399 . S
C1349 C1348 1.394 . S
C1349 C1350 1.516 . S
C1350 C1349 1.516 . S
C1350 C1351 1.502 . S
C1350 C1352 1.561 . S
C1350 C1353 1.526 . S
C1351 H1335 0.959 . S
C1351 H1336 0.959 . S
C1351 H1337 0.961 . S
C1351 C1350 1.502 . S
C1352 H1338 0.960 . S
C1352 H1339 0.961 . S
C1352 H1340 0.959 . S
C1352 C1350 1.561 . S
C1353 C1350 1.526 . S
C1353 C1354 1.396 . S
C1353 C1358 1.390 . S
C1354 C1348 1.465 . S
C1354 C1353 1.396 . S
C1354 C1355 1.399 . S
C1355 H1341 0.929 . S
C1355 C1354 1.399 . S
C1355 C1356 1.385 . S
C1356 H1342 0.931 . S
C1356 C1355 1.385 . S
C1356 C1357 1.389 . S
C1357 C1356 1.389 . S
C1357 C1358 1.387 . S
C1358 H1343 0.930 . S
C1358 C1353 1.390 . S
C1358 C1357 1.387 . S
H1359 C1371 0.930 . S
H1360 C1373 0.930 . S
H1361 C1374 0.930 . S
H1362 C1378 0.959 . S
H1363 C1378 0.959 . S
H1364 C1378 0.961 . S
H1365 C1379 0.960 . S
H1366 C1379 0.961 1_554 S
H1367 C1379 0.959 . S
H1368 C1382 0.929 . S
H1369 C1383 0.931 1_554 S
H1370 C1385 0.930 . S
C1371 H1359 0.930 . S
C1371 C1372 1.399 . S
C1371 C1376 1.399 . S
C1372 C1371 1.399 . S
C1372 C1373 1.376 . S
C1373 H1360 0.930 . S
C1373 C1372 1.376 . S
C1373 C1374 1.388 . S
C1374 H1361 0.930 . S
C1374 C1373 1.388 . S
C1374 C1375 1.390 . S
C1375 C1374 1.390 . S
C1375 C1376 1.394 . S
C1375 C1381 1.465 . S
C1376 C1371 1.399 . S
C1376 C1375 1.394 . S
C1376 C1377 1.516 . S
C1377 C1376 1.516 . S
C1377 C1378 1.502 . S
C1377 C1379 1.561 . S
C1377 C1380 1.526 . S
C1378 H1362 0.959 . S
C1378 H1363 0.959 . S
C1378 H1364 0.961 . S
C1378 C1377 1.502 . S
C1379 H1365 0.960 . S
C1379 H1366 0.961 1_556 S
C1379 H1367 0.959 . S
C1379 C1377 1.561 . S
C1380 C1377 1.526 . S
C1380 C1381 1.396 . S
C1380 C1385 1.390 1_556 S
C1381 C1375 1.465 . S
C1381 C1380 1.396 . S
C1381 C1382 1.399 . S
C1382 H1368 0.929 . S
C1382 C1381 1.399 . S
C1382 C1383 1.385 . S
C1383 H1369 0.931 1_556 S
C1383 C1382 1.385 . S
C1383 C1384 1.389 1_556 S
C1384 C1383 1.389 1_554 S
C1384 C1385 1.387 . S
C1385 H1370 0.930 . S
C1385 C1380 1.390 1_554 S
C1385 C1384 1.387 . S
H1386 C1398 0.930 . S
H1387 C1400 0.930 . S
H1388 C1401 0.930 . S
H1389 C1405 0.959 . S
H1390 C1405 0.959 . S
H1391 C1405 0.961 . S
H1392 C1406 0.960 . S
H1393 C1406 0.961 . S
H1394 C1406 0.959 . S
H1395 C1409 0.929 . S
H1396 C1410 0.931 . S
H1397 C1412 0.930 . S
C1398 H1386 0.930 . S
C1398 C1399 1.399 1_556 S
C1398 C1403 1.399 . S
C1399 C1398 1.399 1_554 S
C1399 C1400 1.376 . S
C1400 H1387 0.930 . S
C1400 C1399 1.376 . S
C1400 C1401 1.388 . S
C1401 H1388 0.930 . S
C1401 C1400 1.388 . S
C1401 C1402 1.390 1_554 S
C1402 C1401 1.390 1_556 S
C1402 C1403 1.394 . S
C1402 C1408 1.465 . S
C1403 C1398 1.399 . S
C1403 C1402 1.394 . S
C1403 C1404 1.516 . S
C1404 C1403 1.516 . S
C1404 C1405 1.502 . S
C1404 C1406 1.561 . S
C1404 C1407 1.526 . S
C1405 H1389 0.959 . S
C1405 H1390 0.959 . S
C1405 H1391 0.961 . S
C1405 C1404 1.502 . S
C1406 H1392 0.960 . S
C1406 H1393 0.961 . S
C1406 H1394 0.959 . S
C1406 C1404 1.561 . S
C1407 C1404 1.526 . S
C1407 C1408 1.396 . S
C1407 C1412 1.390 . S
C1408 C1402 1.465 . S
C1408 C1407 1.396 . S
C1408 C1409 1.399 . S
C1409 H1395 0.929 . S
C1409 C1408 1.399 . S
C1409 C1410 1.385 . S
C1410 H1396 0.931 . S
C1410 C1409 1.385 . S
C1410 C1411 1.389 . S
C1411 C1410 1.389 . S
C1411 C1412 1.387 . S
C1412 H1397 0.930 . S
C1412 C1407 1.390 . S
C1412 C1411 1.387 . S
H1413 C1425 0.930 . S
H1414 C1427 0.930 . S
H1415 C1428 0.930 . S
H1416 C1432 0.959 . S
H1417 C1432 0.959 . S
H1418 C1432 0.961 . S
H1419 C1433 0.960 . S
H1420 C1433 0.961 . S
H1421 C1433 0.959 . S
H1422 C1436 0.929 . S
H1423 C1437 0.931 . S
H1424 C1439 0.930 . S
C1425 H1413 0.930 . S
C1425 C1426 1.399 . S
C1425 C1430 1.399 . S
C1426 C1425 1.399 . S
C1426 C1427 1.376 . S
C1427 H1414 0.930 . S
C1427 C1426 1.376 . S
C1427 C1428 1.388 . S
C1428 H1415 0.930 . S
C1428 C1427 1.388 . S
C1428 C1429 1.390 . S
C1429 C1428 1.390 . S
C1429 C1430 1.394 . S
C1429 C1435 1.465 . S
C1430 C1425 1.399 . S
C1430 C1429 1.394 . S
C1430 C1431 1.516 . S
C1431 C1430 1.516 . S
C1431 C1432 1.502 . S
C1431 C1433 1.561 . S
C1431 C1434 1.526 . S
C1432 H1416 0.959 . S
C1432 H1417 0.959 . S
C1432 H1418 0.961 . S
C1432 C1431 1.502 . S
C1433 H1419 0.960 . S
C1433 H1420 0.961 . S
C1433 H1421 0.959 . S
C1433 C1431 1.561 . S
C1434 C1431 1.526 . S
C1434 C1435 1.396 . S
C1434 C1439 1.390 1_556 S
C1435 C1429 1.465 . S
C1435 C1434 1.396 . S
C1435 C1436 1.399 . S
C1436 H1422 0.929 . S
C1436 C1435 1.399 . S
C1436 C1437 1.385 1_556 S
C1437 H1423 0.931 . S
C1437 C1436 1.385 1_554 S
C1437 C1438 1.389 . S
C1438 C1437 1.389 . S
C1438 C1439 1.387 . S
C1439 H1424 0.930 . S
C1439 C1434 1.390 1_554 S
C1439 C1438 1.387 . S
H1440 C1452 0.930 . S
H1441 C1454 0.930 . S
H1442 C1455 0.930 . S
H1443 C1459 0.959 . S
H1444 C1459 0.959 . S
H1445 C1459 0.961 . S
H1446 C1460 0.960 . S
H1447 C1460 0.961 . S
H1448 C1460 0.959 . S
H1449 C1463 0.929 . S
H1450 C1464 0.931 . S
H1451 C1466 0.930 . S
C1452 H1440 0.930 . S
C1452 C1453 1.399 . S
C1452 C1457 1.399 . S
C1453 C1452 1.399 . S
C1453 C1454 1.376 . S
C1454 H1441 0.930 . S
C1454 C1453 1.376 . S
C1454 C1455 1.388 . S
C1455 H1442 0.930 . S
C1455 C1454 1.388 . S
C1455 C1456 1.390 . S
C1456 C1455 1.390 . S
C1456 C1457 1.394 . S
C1456 C1462 1.465 . S
C1457 C1452 1.399 . S
C1457 C1456 1.394 . S
C1457 C1458 1.516 . S
C1458 C1457 1.516 . S
C1458 C1459 1.502 . S
C1458 C1460 1.561 . S
C1458 C1461 1.526 . S
C1459 H1443 0.959 . S
C1459 H1444 0.959 . S
C1459 H1445 0.961 . S
C1459 C1458 1.502 . S
C1460 H1446 0.960 . S
C1460 H1447 0.961 . S
C1460 H1448 0.959 . S
C1460 C1458 1.561 . S
C1461 C1458 1.526 . S
C1461 C1462 1.396 . S
C1461 C1466 1.390 . S
C1462 C1456 1.465 . S
C1462 C1461 1.396 . S
C1462 C1463 1.399 . S
C1463 H1449 0.929 . S
C1463 C1462 1.399 . S
C1463 C1464 1.385 . S
C1464 H1450 0.931 . S
C1464 C1463 1.385 . S
C1464 C1465 1.389 . S
C1465 C1464 1.389 . S
C1465 C1466 1.387 . S
C1466 H1451 0.930 . S
C1466 C1461 1.390 . S
C1466 C1465 1.387 . S
H1467 C1479 0.930 . S
H1468 C1481 0.930 . S
H1469 C1482 0.930 . S
H1470 C1486 0.959 . S
H1471 C1486 0.959 . S
H1472 C1486 0.961 . S
H1473 C1487 0.960 . S
H1474 C1487 0.961 . S
H1475 C1487 0.959 . S
H1476 C1490 0.929 . S
H1477 C1491 0.931 . S
H1478 C1493 0.930 . S
C1479 H1467 0.930 . S
C1479 C1480 1.399 . S
C1479 C1484 1.399 . S
C1480 C1479 1.399 . S
C1480 C1481 1.376 . S
C1481 H1468 0.930 . S
C1481 C1480 1.376 . S
C1481 C1482 1.388 . S
C1482 H1469 0.930 . S
C1482 C1481 1.388 . S
C1482 C1483 1.390 . S
C1483 C1482 1.390 . S
C1483 C1484 1.394 . S
C1483 C1489 1.465 . S
C1484 C1479 1.399 . S
C1484 C1483 1.394 . S
C1484 C1485 1.516 . S
C1485 C1484 1.516 . S
C1485 C1486 1.502 . S
C1485 C1487 1.561 . S
C1485 C1488 1.526 . S
C1486 H1470 0.959 . S
C1486 H1471 0.959 . S
C1486 H1472 0.961 . S
C1486 C1485 1.502 . S
C1487 H1473 0.960 . S
C1487 H1474 0.961 . S
C1487 H1475 0.959 . S
C1487 C1485 1.561 . S
C1488 C1485 1.526 . S
C1488 C1489 1.396 . S
C1488 C1493 1.390 . S
C1489 C1483 1.465 . S
C1489 C1488 1.396 . S
C1489 C1490 1.399 . S
C1490 H1476 0.929 . S
C1490 C1489 1.399 . S
C1490 C1491 1.385 . S
C1491 H1477 0.931 . S
C1491 C1490 1.385 . S
C1491 C1492 1.389 . S
C1492 C1491 1.389 . S
C1492 C1493 1.387 . S
C1493 H1478 0.930 . S
C1493 C1488 1.390 . S
C1493 C1492 1.387 . S
H1494 C1506 0.930 . S
H1495 C1508 0.930 . S
H1496 C1509 0.930 . S
H1497 C1513 0.959 . S
H1498 C1513 0.959 . S
H1499 C1513 0.961 . S
H1500 C1514 0.960 . S
H1501 C1514 0.961 . S
H1502 C1514 0.959 . S
H1503 C1517 0.929 . S
H1504 C1518 0.931 . S
H1505 C1520 0.930 . S
C1506 H1494 0.930 . S
C1506 C1507 1.399 . S
C1506 C1511 1.399 . S
C1507 C1506 1.399 . S
C1507 C1508 1.376 . S
C1508 H1495 0.930 . S
C1508 C1507 1.376 . S
C1508 C1509 1.388 . S
C1509 H1496 0.930 . S
C1509 C1508 1.388 . S
C1509 C1510 1.390 . S
C1510 C1509 1.390 . S
C1510 C1511 1.394 . S
C1510 C1516 1.465 . S
C1511 C1506 1.399 . S
C1511 C1510 1.394 . S
C1511 C1512 1.516 . S
C1512 C1511 1.516 . S
C1512 C1513 1.502 . S
C1512 C1514 1.561 . S
C1512 C1515 1.526 . S
C1513 H1497 0.959 . S
C1513 H1498 0.959 . S
C1513 H1499 0.961 . S
C1513 C1512 1.502 . S
C1514 H1500 0.960 . S
C1514 H1501 0.961 . S
C1514 H1502 0.959 . S
C1514 C1512 1.561 . S
C1515 C1512 1.526 . S
C1515 C1516 1.396 . S
C1515 C1520 1.390 . S
C1516 C1510 1.465 . S
C1516 C1515 1.396 . S
C1516 C1517 1.399 . S
C1517 H1503 0.929 . S
C1517 C1516 1.399 . S
C1517 C1518 1.385 . S
C1518 H1504 0.931 . S
C1518 C1517 1.385 . S
C1518 C1519 1.389 . S
C1519 C1518 1.389 . S
C1519 C1520 1.387 . S
C1520 H1505 0.930 . S
C1520 C1515 1.390 . S
C1520 C1519 1.387 . S
H1521 C1533 0.930 . S
H1522 C1535 0.930 . S
H1523 C1536 0.930 . S
H1524 C1540 0.959 . S
H1525 C1540 0.959 . S
H1526 C1540 0.961 . S
H1527 C1541 0.960 . S
H1528 C1541 0.961 . S
H1529 C1541 0.959 . S
H1530 C1544 0.929 . S
H1531 C1545 0.931 . S
H1532 C1547 0.930 . S
C1533 H1521 0.930 . S
C1533 C1534 1.399 . S
C1533 C1538 1.399 . S
C1534 C1533 1.399 . S
C1534 C1535 1.376 . S
C1535 H1522 0.930 . S
C1535 C1534 1.376 . S
C1535 C1536 1.388 . S
C1536 H1523 0.930 . S
C1536 C1535 1.388 . S
C1536 C1537 1.390 . S
C1537 C1536 1.390 . S
C1537 C1538 1.394 . S
C1537 C1543 1.465 . S
C1538 C1533 1.399 . S
C1538 C1537 1.394 . S
C1538 C1539 1.516 . S
C1539 C1538 1.516 . S
C1539 C1540 1.502 . S
C1539 C1541 1.561 . S
C1539 C1542 1.526 . S
C1540 H1524 0.959 . S
C1540 H1525 0.959 . S
C1540 H1526 0.961 . S
C1540 C1539 1.502 . S
C1541 H1527 0.960 . S
C1541 H1528 0.961 . S
C1541 H1529 0.959 . S
C1541 C1539 1.561 . S
C1542 C1539 1.526 . S
C1542 C1543 1.396 . S
C1542 C1547 1.390 . S
C1543 C1537 1.465 . S
C1543 C1542 1.396 . S
C1543 C1544 1.399 . S
C1544 H1530 0.929 . S
C1544 C1543 1.399 . S
C1544 C1545 1.385 . S
C1545 H1531 0.931 . S
C1545 C1544 1.385 . S
C1545 C1546 1.389 . S
C1546 C1545 1.389 . S
C1546 C1547 1.387 . S
C1547 H1532 0.930 . S
C1547 C1542 1.390 . S
C1547 C1546 1.387 . S
H1548 C1560 0.930 . S
H1549 C1562 0.930 . S
H1550 C1563 0.930 . S
H1551 C1567 0.959 . S
H1552 C1567 0.959 . S
H1553 C1567 0.961 . S
H1554 C1568 0.960 . S
H1555 C1568 0.961 . S
H1556 C1568 0.959 . S
H1557 C1571 0.929 . S
H1558 C1572 0.931 . S
H1559 C1574 0.930 . S
C1560 H1548 0.930 . S
C1560 C1561 1.399 . S
C1560 C1565 1.399 . S
C1561 C1560 1.399 . S
C1561 C1562 1.376 . S
C1562 H1549 0.930 . S
C1562 C1561 1.376 . S
C1562 C1563 1.388 . S
C1563 H1550 0.930 . S
C1563 C1562 1.388 . S
C1563 C1564 1.390 . S
C1564 C1563 1.390 . S
C1564 C1565 1.394 . S
C1564 C1570 1.465 . S
C1565 C1560 1.399 . S
C1565 C1564 1.394 . S
C1565 C1566 1.516 . S
C1566 C1565 1.516 . S
C1566 C1567 1.502 . S
C1566 C1568 1.561 . S
C1566 C1569 1.526 . S
C1567 H1551 0.959 . S
C1567 H1552 0.959 . S
C1567 H1553 0.961 . S
C1567 C1566 1.502 . S
C1568 H1554 0.960 . S
C1568 H1555 0.961 . S
C1568 H1556 0.959 . S
C1568 C1566 1.561 . S
C1569 C1566 1.526 . S
C1569 C1570 1.396 . S
C1569 C1574 1.390 . S
C1570 C1564 1.465 . S
C1570 C1569 1.396 . S
C1570 C1571 1.399 . S
C1571 H1557 0.929 . S
C1571 C1570 1.399 . S
C1571 C1572 1.385 . S
C1572 H1558 0.931 . S
C1572 C1571 1.385 . S
C1572 C1573 1.389 . S
C1573 C1572 1.389 . S
C1573 C1574 1.387 . S
C1574 H1559 0.930 . S
C1574 C1569 1.390 . S
C1574 C1573 1.387 . S
H1575 C1587 0.930 . S
H1576 C1589 0.930 . S
H1577 C1590 0.930 . S
H1578 C1594 0.959 . S
H1579 C1594 0.959 . S
H1580 C1594 0.961 . S
H1581 C1595 0.960 . S
H1582 C1595 0.961 . S
H1583 C1595 0.959 . S
H1584 C1598 0.929 . S
H1585 C1599 0.931 . S
H1586 C1601 0.930 . S
C1587 H1575 0.930 . S
C1587 C1588 1.399 . S
C1587 C1592 1.399 . S
C1588 C1587 1.399 . S
C1588 C1589 1.376 . S
C1589 H1576 0.930 . S
C1589 C1588 1.376 . S
C1589 C1590 1.388 . S
C1590 H1577 0.930 . S
C1590 C1589 1.388 . S
C1590 C1591 1.390 . S
C1591 C1590 1.390 . S
C1591 C1592 1.394 . S
C1591 C1597 1.465 . S
C1592 C1587 1.399 . S
C1592 C1591 1.394 . S
C1592 C1593 1.516 . S
C1593 C1592 1.516 . S
C1593 C1594 1.502 . S
C1593 C1595 1.561 . S
C1593 C1596 1.526 . S
C1594 H1578 0.959 . S
C1594 H1579 0.959 . S
C1594 H1580 0.961 . S
C1594 C1593 1.502 . S
C1595 H1581 0.960 . S
C1595 H1582 0.961 . S
C1595 H1583 0.959 . S
C1595 C1593 1.561 . S
C1596 C1593 1.526 . S
C1596 C1597 1.396 . S
C1596 C1601 1.390 . S
C1597 C1591 1.465 . S
C1597 C1596 1.396 . S
C1597 C1598 1.399 . S
C1598 H1584 0.929 . S
C1598 C1597 1.399 . S
C1598 C1599 1.385 . S
C1599 H1585 0.931 . S
C1599 C1598 1.385 . S
C1599 C1600 1.389 . S
C1600 C1599 1.389 . S
C1600 C1601 1.387 . S
C1601 H1586 0.930 . S
C1601 C1596 1.390 . S
C1601 C1600 1.387 . S
H1602 C1614 0.930 . S
H1603 C1616 0.930 . S
H1604 C1617 0.930 . S
H1605 C1621 0.959 . S
H1606 C1621 0.959 . S
H1607 C1621 0.961 . S
H1608 C1622 0.960 . S
H1609 C1622 0.961 . S
H1610 C1622 0.959 . S
H1611 C1625 0.929 . S
H1612 C1626 0.931 . S
H1613 C1628 0.930 . S
C1614 H1602 0.930 . S
C1614 C1615 1.399 . S
C1614 C1619 1.399 . S
C1615 C1614 1.399 . S
C1615 C1616 1.376 . S
C1616 H1603 0.930 . S
C1616 C1615 1.376 . S
C1616 C1617 1.388 . S
C1617 H1604 0.930 . S
C1617 C1616 1.388 . S
C1617 C1618 1.390 . S
C1618 C1617 1.390 . S
C1618 C1619 1.394 . S
C1618 C1624 1.465 . S
C1619 C1614 1.399 . S
C1619 C1618 1.394 . S
C1619 C1620 1.516 . S
C1620 C1619 1.516 . S
C1620 C1621 1.502 . S
C1620 C1622 1.561 . S
C1620 C1623 1.526 . S
C1621 H1605 0.959 . S
C1621 H1606 0.959 . S
C1621 H1607 0.961 . S
C1621 C1620 1.502 . S
C1622 H1608 0.960 . S
C1622 H1609 0.961 . S
C1622 H1610 0.959 . S
C1622 C1620 1.561 . S
C1623 C1620 1.526 . S
C1623 C1624 1.396 . S
C1623 C1628 1.390 . S
C1624 C1618 1.465 . S
C1624 C1623 1.396 . S
C1624 C1625 1.399 . S
C1625 H1611 0.929 . S
C1625 C1624 1.399 . S
C1625 C1626 1.385 . S
C1626 H1612 0.931 . S
C1626 C1625 1.385 . S
C1626 C1627 1.389 . S
C1627 C1626 1.389 . S
C1627 C1628 1.387 . S
C1628 H1613 0.930 . S
C1628 C1623 1.390 . S
C1628 C1627 1.387 . S
H1629 C1641 0.930 . S
H1630 C1643 0.930 . S
H1631 C1644 0.930 . S
H1632 C1648 0.959 . S
H1633 C1648 0.959 . S
H1634 C1648 0.961 . S
H1635 C1649 0.960 . S
H1636 C1649 0.961 . S
H1637 C1649 0.959 . S
H1638 C1652 0.929 . S
H1639 C1653 0.931 . S
H1640 C1655 0.930 . S
C1641 H1629 0.930 . S
C1641 C1642 1.399 . S
C1641 C1646 1.399 . S
C1642 C1641 1.399 . S
C1642 C1643 1.376 . S
C1643 H1630 0.930 . S
C1643 C1642 1.376 . S
C1643 C1644 1.388 . S
C1644 H1631 0.930 . S
C1644 C1643 1.388 . S
C1644 C1645 1.390 . S
C1645 C1644 1.390 . S
C1645 C1646 1.394 . S
C1645 C1651 1.465 . S
C1646 C1641 1.399 . S
C1646 C1645 1.394 . S
C1646 C1647 1.516 . S
C1647 C1646 1.516 . S
C1647 C1648 1.502 . S
C1647 C1649 1.561 . S
C1647 C1650 1.526 . S
C1648 H1632 0.959 . S
C1648 H1633 0.959 . S
C1648 H1634 0.961 . S
C1648 C1647 1.502 . S
C1649 H1635 0.960 . S
C1649 H1636 0.961 . S
C1649 H1637 0.959 . S
C1649 C1647 1.561 . S
C1650 C1647 1.526 . S
C1650 C1651 1.396 . S
C1650 C1655 1.390 . S
C1651 C1645 1.465 . S
C1651 C1650 1.396 . S
C1651 C1652 1.399 . S
C1652 H1638 0.929 . S
C1652 C1651 1.399 . S
C1652 C1653 1.385 . S
C1653 H1639 0.931 . S
C1653 C1652 1.385 . S
C1653 C1654 1.389 . S
C1654 C1653 1.389 . S
C1654 C1655 1.387 . S
C1655 H1640 0.930 . S
C1655 C1650 1.390 . S
C1655 C1654 1.387 . S
H1656 C1668 0.930 . S
H1657 C1670 0.930 . S
H1658 C1671 0.930 . S
H1659 C1675 0.959 . S
H1660 C1675 0.959 . S
H1661 C1675 0.961 . S
H1662 C1676 0.960 . S
H1663 C1676 0.961 . S
H1664 C1676 0.959 . S
H1665 C1679 0.929 . S
H1666 C1680 0.931 . S
H1667 C1682 0.930 . S
C1668 H1656 0.930 . S
C1668 C1669 1.399 . S
C1668 C1673 1.399 . S
C1669 C1668 1.399 . S
C1669 C1670 1.376 . S
C1670 H1657 0.930 . S
C1670 C1669 1.376 . S
C1670 C1671 1.388 . S
C1671 H1658 0.930 . S
C1671 C1670 1.388 . S
C1671 C1672 1.390 . S
C1672 C1671 1.390 . S
C1672 C1673 1.394 . S
C1672 C1678 1.465 . S
C1673 C1668 1.399 . S
C1673 C1672 1.394 . S
C1673 C1674 1.516 . S
C1674 C1673 1.516 . S
C1674 C1675 1.502 . S
C1674 C1676 1.561 . S
C1674 C1677 1.526 . S
C1675 H1659 0.959 . S
C1675 H1660 0.959 . S
C1675 H1661 0.961 . S
C1675 C1674 1.502 . S
C1676 H1662 0.960 . S
C1676 H1663 0.961 . S
C1676 H1664 0.959 . S
C1676 C1674 1.561 . S
C1677 C1674 1.526 . S
C1677 C1678 1.396 . S
C1677 C1682 1.390 . S
C1678 C1672 1.465 . S
C1678 C1677 1.396 . S
C1678 C1679 1.399 . S
C1679 H1665 0.929 . S
C1679 C1678 1.399 . S
C1679 C1680 1.385 . S
C1680 H1666 0.931 . S
C1680 C1679 1.385 . S
C1680 C1681 1.389 . S
C1681 C1680 1.389 . S
C1681 C1682 1.387 . S
C1682 H1667 0.930 . S
C1682 C1677 1.390 . S
C1682 C1681 1.387 . S
H1683 C1695 0.930 . S
H1684 C1697 0.930 . S
H1685 C1698 0.930 . S
H1686 C1702 0.959 . S
H1687 C1702 0.959 . S
H1688 C1702 0.961 . S
H1689 C1703 0.960 . S
H1690 C1703 0.961 . S
H1691 C1703 0.959 . S
H1692 C1706 0.929 . S
H1693 C1707 0.931 . S
H1694 C1709 0.930 . S
C1695 H1683 0.930 . S
C1695 C1696 1.399 . S
C1695 C1700 1.399 . S
C1696 C1695 1.399 . S
C1696 C1697 1.376 . S
C1697 H1684 0.930 . S
C1697 C1696 1.376 . S
C1697 C1698 1.388 . S
C1698 H1685 0.930 . S
C1698 C1697 1.388 . S
C1698 C1699 1.390 . S
C1699 C1698 1.390 . S
C1699 C1700 1.394 . S
C1699 C1705 1.465 . S
C1700 C1695 1.399 . S
C1700 C1699 1.394 . S
C1700 C1701 1.516 . S
C1701 C1700 1.516 . S
C1701 C1702 1.502 . S
C1701 C1703 1.561 . S
C1701 C1704 1.526 . S
C1702 H1686 0.959 . S
C1702 H1687 0.959 . S
C1702 H1688 0.961 . S
C1702 C1701 1.502 . S
C1703 H1689 0.960 . S
C1703 H1690 0.961 . S
C1703 H1691 0.959 . S
C1703 C1701 1.561 . S
C1704 C1701 1.526 . S
C1704 C1705 1.396 . S
C1704 C1709 1.390 . S
C1705 C1699 1.465 . S
C1705 C1704 1.396 . S
C1705 C1706 1.399 . S
C1706 H1692 0.929 . S
C1706 C1705 1.399 . S
C1706 C1707 1.385 . S
C1707 H1693 0.931 . S
C1707 C1706 1.385 . S
C1707 C1708 1.389 . S
C1708 C1707 1.389 . S
C1708 C1709 1.387 . S
C1709 H1694 0.930 . S
C1709 C1704 1.390 . S
C1709 C1708 1.387 . S
H1710 C1722 0.930 . S
H1711 C1724 0.930 . S
H1712 C1725 0.930 . S
H1713 C1729 0.959 . S
H1714 C1729 0.959 . S
H1715 C1729 0.961 . S
H1716 C1730 0.960 . S
H1717 C1730 0.961 . S
H1718 C1730 0.959 . S
H1719 C1733 0.929 . S
H1720 C1734 0.931 . S
H1721 C1736 0.930 . S
C1722 H1710 0.930 . S
C1722 C1723 1.399 . S
C1722 C1727 1.399 . S
C1723 C1722 1.399 . S
C1723 C1724 1.376 . S
C1724 H1711 0.930 . S
C1724 C1723 1.376 . S
C1724 C1725 1.388 . S
C1725 H1712 0.930 . S
C1725 C1724 1.388 . S
C1725 C1726 1.390 . S
C1726 C1725 1.390 . S
C1726 C1727 1.394 . S
C1726 C1732 1.465 . S
C1727 C1722 1.399 . S
C1727 C1726 1.394 . S
C1727 C1728 1.516 . S
C1728 C1727 1.516 . S
C1728 C1729 1.502 . S
C1728 C1730 1.561 . S
C1728 C1731 1.526 . S
C1729 H1713 0.959 . S
C1729 H1714 0.959 . S
C1729 H1715 0.961 . S
C1729 C1728 1.502 . S
C1730 H1716 0.960 . S
C1730 H1717 0.961 . S
C1730 H1718 0.959 . S
C1730 C1728 1.561 . S
C1731 C1728 1.526 . S
C1731 C1732 1.396 . S
C1731 C1736 1.390 . S
C1732 C1726 1.465 . S
C1732 C1731 1.396 . S
C1732 C1733 1.399 . S
C1733 H1719 0.929 . S
C1733 C1732 1.399 . S
C1733 C1734 1.385 . S
C1734 H1720 0.931 . S
C1734 C1733 1.385 . S
C1734 C1735 1.389 . S
C1735 C1734 1.389 . S
C1735 C1736 1.387 . S
C1736 H1721 0.930 . S
C1736 C1731 1.390 . S
C1736 C1735 1.387 . S
H1737 C1749 0.930 . S
H1738 C1751 0.930 . S
H1739 C1752 0.930 . S
H1740 C1756 0.959 . S
H1741 C1756 0.959 . S
H1742 C1756 0.961 . S
H1743 C1757 0.960 . S
H1744 C1757 0.961 . S
H1745 C1757 0.959 . S
H1746 C1760 0.929 . S
H1747 C1761 0.931 . S
H1748 C1763 0.930 . S
C1749 H1737 0.930 . S
C1749 C1750 1.399 . S
C1749 C1754 1.399 . S
C1750 C1749 1.399 . S
C1750 C1751 1.376 . S
C1751 H1738 0.930 . S
C1751 C1750 1.376 . S
C1751 C1752 1.388 . S
C1752 H1739 0.930 . S
C1752 C1751 1.388 . S
C1752 C1753 1.390 . S
C1753 C1752 1.390 . S
C1753 C1754 1.394 . S
C1753 C1759 1.465 . S
C1754 C1749 1.399 . S
C1754 C1753 1.394 . S
C1754 C1755 1.516 . S
C1755 C1754 1.516 . S
C1755 C1756 1.502 . S
C1755 C1757 1.561 . S
C1755 C1758 1.526 . S
C1756 H1740 0.959 . S
C1756 H1741 0.959 . S
C1756 H1742 0.961 . S
C1756 C1755 1.502 . S
C1757 H1743 0.960 . S
C1757 H1744 0.961 . S
C1757 H1745 0.959 . S
C1757 C1755 1.561 . S
C1758 C1755 1.526 . S
C1758 C1759 1.396 . S
C1758 C1763 1.390 . S
C1759 C1753 1.465 . S
C1759 C1758 1.396 . S
C1759 C1760 1.399 . S
C1760 H1746 0.929 . S
C1760 C1759 1.399 . S
C1760 C1761 1.385 . S
C1761 H1747 0.931 . S
C1761 C1760 1.385 . S
C1761 C1762 1.389 . S
C1762 C1761 1.389 . S
C1762 C1763 1.387 . S
C1763 H1748 0.930 . S
C1763 C1758 1.390 . S
C1763 C1762 1.387 . S
H1764 C1776 0.930 . S
H1765 C1778 0.930 . S
H1766 C1779 0.930 . S
H1767 C1783 0.959 . S
H1768 C1783 0.959 . S
H1769 C1783 0.961 . S
H1770 C1784 0.960 . S
H1771 C1784 0.961 . S
H1772 C1784 0.959 . S
H1773 C1787 0.929 . S
H1774 C1788 0.931 . S
H1775 C1790 0.930 . S
C1776 H1764 0.930 . S
C1776 C1777 1.399 . S
C1776 C1781 1.399 . S
C1777 C1776 1.399 . S
C1777 C1778 1.376 . S
C1778 H1765 0.930 . S
C1778 C1777 1.376 . S
C1778 C1779 1.388 . S
C1779 H1766 0.930 . S
C1779 C1778 1.388 . S
C1779 C1780 1.390 . S
C1780 C1779 1.390 . S
C1780 C1781 1.394 . S
C1780 C1786 1.465 . S
C1781 C1776 1.399 . S
C1781 C1780 1.394 . S
C1781 C1782 1.516 . S
C1782 C1781 1.516 . S
C1782 C1783 1.502 . S
C1782 C1784 1.561 . S
C1782 C1785 1.526 . S
C1783 H1767 0.959 . S
C1783 H1768 0.959 . S
C1783 H1769 0.961 . S
C1783 C1782 1.502 . S
C1784 H1770 0.960 . S
C1784 H1771 0.961 . S
C1784 H1772 0.959 . S
C1784 C1782 1.561 . S
C1785 C1782 1.526 . S
C1785 C1786 1.396 . S
C1785 C1790 1.390 . S
C1786 C1780 1.465 . S
C1786 C1785 1.396 . S
C1786 C1787 1.399 . S
C1787 H1773 0.929 . S
C1787 C1786 1.399 . S
C1787 C1788 1.385 . S
C1788 H1774 0.931 . S
C1788 C1787 1.385 . S
C1788 C1789 1.389 . S
C1789 C1788 1.389 . S
C1789 C1790 1.387 . S
C1790 H1775 0.930 . S
C1790 C1785 1.390 . S
C1790 C1789 1.387 . S
H1791 C1803 0.930 . S
H1792 C1805 0.930 . S
H1793 C1806 0.930 . S
H1794 C1810 0.959 . S
H1795 C1810 0.959 . S
H1796 C1810 0.961 . S
H1797 C1811 0.960 . S
H1798 C1811 0.961 . S
H1799 C1811 0.959 . S
H1800 C1814 0.929 . S
H1801 C1815 0.931 . S
H1802 C1817 0.930 . S
C1803 H1791 0.930 . S
C1803 C1804 1.399 . S
C1803 C1808 1.399 . S
C1804 C1803 1.399 . S
C1804 C1805 1.376 . S
C1805 H1792 0.930 . S
C1805 C1804 1.376 . S
C1805 C1806 1.388 . S
C1806 H1793 0.930 . S
C1806 C1805 1.388 . S
C1806 C1807 1.390 . S
C1807 C1806 1.390 . S
C1807 C1808 1.394 . S
C1807 C1813 1.465 . S
C1808 C1803 1.399 . S
C1808 C1807 1.394 . S
C1808 C1809 1.516 . S
C1809 C1808 1.516 . S
C1809 C1810 1.502 . S
C1809 C1811 1.561 . S
C1809 C1812 1.526 . S
C1810 H1794 0.959 . S
C1810 H1795 0.959 . S
C1810 H1796 0.961 . S
C1810 C1809 1.502 . S
C1811 H1797 0.960 . S
C1811 H1798 0.961 . S
C1811 H1799 0.959 . S
C1811 C1809 1.561 . S
C1812 C1809 1.526 . S
C1812 C1813 1.396 . S
C1812 C1817 1.390 . S
C1813 C1807 1.465 . S
C1813 C1812 1.396 . S
C1813 C1814 1.399 . S
C1814 H1800 0.929 . S
C1814 C1813 1.399 . S
C1814 C1815 1.385 . S
C1815 H1801 0.931 . S
C1815 C1814 1.385 . S
C1815 C1816 1.389 . S
C1816 C1815 1.389 . S
C1816 C1817 1.387 . S
C1817 H1802 0.930 . S
C1817 C1812 1.390 . S
C1817 C1816 1.387 . S
H1818 C1830 0.930 . S
H1819 C1832 0.930 . S
H1820 C1833 0.930 . S
H1821 C1837 0.959 . S
H1822 C1837 0.959 . S
H1823 C1837 0.961 . S
H1824 C1838 0.960 . S
H1825 C1838 0.961 . S
H1826 C1838 0.959 . S
H1827 C1841 0.929 . S
H1828 C1842 0.931 . S
H1829 C1844 0.930 . S
C1830 H1818 0.930 . S
C1830 C1831 1.399 . S
C1830 C1835 1.399 . S
C1831 C1830 1.399 . S
C1831 C1832 1.376 . S
C1832 H1819 0.930 . S
C1832 C1831 1.376 . S
C1832 C1833 1.388 . S
C1833 H1820 0.930 . S
C1833 C1832 1.388 . S
C1833 C1834 1.390 . S
C1834 C1833 1.390 . S
C1834 C1835 1.394 . S
C1834 C1840 1.465 . S
C1835 C1830 1.399 . S
C1835 C1834 1.394 . S
C1835 C1836 1.516 . S
C1836 C1835 1.516 . S
C1836 C1837 1.502 . S
C1836 C1838 1.561 . S
C1836 C1839 1.526 . S
C1837 H1821 0.959 . S
C1837 H1822 0.959 . S
C1837 H1823 0.961 . S
C1837 C1836 1.502 . S
C1838 H1824 0.960 . S
C1838 H1825 0.961 . S
C1838 H1826 0.959 . S
C1838 C1836 1.561 . S
C1839 C1836 1.526 . S
C1839 C1840 1.396 . S
C1839 C1844 1.390 . S
C1840 C1834 1.465 . S
C1840 C1839 1.396 . S
C1840 C1841 1.399 . S
C1841 H1827 0.929 . S
C1841 C1840 1.399 . S
C1841 C1842 1.385 . S
C1842 H1828 0.931 . S
C1842 C1841 1.385 . S
C1842 C1843 1.389 . S
C1843 C1842 1.389 . S
C1843 C1844 1.387 . S
C1844 H1829 0.930 . S
C1844 C1839 1.390 . S
C1844 C1843 1.387 . S
H1845 C1857 0.930 . S
H1846 C1859 0.930 . S
H1847 C1860 0.930 . S
H1848 C1864 0.959 . S
H1849 C1864 0.959 . S
H1850 C1864 0.961 . S
H1851 C1865 0.960 . S
H1852 C1865 0.961 . S
H1853 C1865 0.959 . S
H1854 C1868 0.929 . S
H1855 C1869 0.931 . S
H1856 C1871 0.930 . S
C1857 H1845 0.930 . S
C1857 C1858 1.399 . S
C1857 C1862 1.399 1_556 S
C1858 C1857 1.399 . S
C1858 C1859 1.376 . S
C1859 H1846 0.930 . S
C1859 C1858 1.376 . S
C1859 C1860 1.388 1_556 S
C1860 H1847 0.930 . S
C1860 C1859 1.388 1_554 S
C1860 C1861 1.390 . S
C1861 C1860 1.390 . S
C1861 C1862 1.394 . S
C1861 C1867 1.465 . S
C1862 C1857 1.399 1_554 S
C1862 C1861 1.394 . S
C1862 C1863 1.516 . S
C1863 C1862 1.516 . S
C1863 C1864 1.502 . S
C1863 C1865 1.561 . S
C1863 C1866 1.526 . S
C1864 H1848 0.959 . S
C1864 H1849 0.959 . S
C1864 H1850 0.961 . S
C1864 C1863 1.502 . S
C1865 H1851 0.960 . S
C1865 H1852 0.961 . S
C1865 H1853 0.959 . S
C1865 C1863 1.561 . S
C1866 C1863 1.526 . S
C1866 C1867 1.396 . S
C1866 C1871 1.390 . S
C1867 C1861 1.465 . S
C1867 C1866 1.396 . S
C1867 C1868 1.399 . S
C1868 H1854 0.929 . S
C1868 C1867 1.399 . S
C1868 C1869 1.385 . S
C1869 H1855 0.931 . S
C1869 C1868 1.385 . S
C1869 C1870 1.389 . S
C1870 C1869 1.389 . S
C1870 C1871 1.387 . S
C1871 H1856 0.930 . S
C1871 C1866 1.390 . S
C1871 C1870 1.387 . S
H1872 C1884 0.930 . S
H1873 C1886 0.930 1_556 S
H1874 C1887 0.930 . S
H1875 C1891 0.959 . S
H1876 C1891 0.959 . S
H1877 C1891 0.945 1_556 S
H1878 C1892 0.960 . S
H1879 C1892 0.961 . S
H1880 C1892 0.959 . S
H1881 C1895 0.929 . S
H1882 C1896 0.931 . S
H1883 C1898 0.930 . S
C1884 H1872 0.930 . S
C1884 C1885 1.399 . S
C1884 C1889 1.399 1_556 S
C1885 C1884 1.399 . S
C1885 C1886 1.376 1_556 S
C1886 H1873 0.930 1_554 S
C1886 C1885 1.376 1_554 S
C1886 C1887 1.388 . S
C1887 H1874 0.930 . S
C1887 C1886 1.388 . S
C1887 C1888 1.390 . S
C1888 C1887 1.390 . S
C1888 C1889 1.394 . S
C1888 C1894 1.465 . S
C1889 C1884 1.399 1_554 S
C1889 C1888 1.394 . S
C1889 C1890 1.516 . S
C1890 C1889 1.516 . S
C1890 C1891 1.502 . S
C1890 C1892 1.561 . S
C1890 C1893 1.526 . S
C1891 H1875 0.959 . S
C1891 H1876 0.959 . S
C1891 H1877 0.945 1_554 S
C1891 C1890 1.502 . S
C1892 H1878 0.960 . S
C1892 H1879 0.961 . S
C1892 H1880 0.959 . S
C1892 C1890 1.561 . S
C1893 C1890 1.526 . S
C1893 C1894 1.396 . S
C1893 C1898 1.390 . S
C1894 C1888 1.465 . S
C1894 C1893 1.396 . S
C1894 C1895 1.399 . S
C1895 H1881 0.929 . S
C1895 C1894 1.399 . S
C1895 C1896 1.385 . S
C1896 H1882 0.931 . S
C1896 C1895 1.385 . S
C1896 C1897 1.389 . S
C1897 C1896 1.389 . S
C1897 C1898 1.387 . S
C1898 H1883 0.930 . S
C1898 C1893 1.390 . S
C1898 C1897 1.387 . S
H1899 C1911 0.930 . S
H1900 C1913 0.930 . S
H1901 C1914 0.930 . S
H1902 C1918 0.959 . S
H1903 C1918 0.959 . S
H1904 C1918 0.961 . S
H1905 C1919 0.960 . S
H1906 C1919 0.961 . S
H1907 C1919 0.959 . S
H1908 C1922 0.929 . S
H1909 C1923 0.931 . S
H1910 C1925 0.930 . S
C1911 H1899 0.930 . S
C1911 C1912 1.399 . S
C1911 C1916 1.399 1_556 S
C1912 C1911 1.399 . S
C1912 C1913 1.376 . S
C1913 H1900 0.930 . S
C1913 C1912 1.376 . S
C1913 C1914 1.388 1_556 S
C1914 H1901 0.930 . S
C1914 C1913 1.388 1_554 S
C1914 C1915 1.390 . S
C1915 C1914 1.390 . S
C1915 C1916 1.394 . S
C1915 C1921 1.465 . S
C1916 C1911 1.399 1_554 S
C1916 C1915 1.394 . S
C1916 C1917 1.516 . S
C1917 C1916 1.516 . S
C1917 C1918 1.502 . S
C1917 C1919 1.561 . S
C1917 C1920 1.526 . S
C1918 H1902 0.959 . S
C1918 H1903 0.959 . S
C1918 H1904 0.961 . S
C1918 C1917 1.502 . S
C1919 H1905 0.960 . S
C1919 H1906 0.961 . S
C1919 H1907 0.959 . S
C1919 C1917 1.561 . S
C1920 C1917 1.526 . S
C1920 C1921 1.396 . S
C1920 C1925 1.390 . S
C1921 C1915 1.465 . S
C1921 C1920 1.396 . S
C1921 C1922 1.399 . S
C1922 H1908 0.929 . S
C1922 C1921 1.399 . S
C1922 C1923 1.385 . S
C1923 H1909 0.931 . S
C1923 C1922 1.385 . S
C1923 C1924 1.389 . S
C1924 C1923 1.389 . S
C1924 C1925 1.387 . S
C1925 H1910 0.930 . S
C1925 C1920 1.390 . S
C1925 C1924 1.387 . S
H1926 C1938 0.930 . S
H1927 C1940 0.930 1_556 S
H1928 C1941 0.930 1_556 S
H1929 C1945 0.959 . S
H1930 C1945 0.959 . S
H1931 C1945 0.961 . S
H1932 C1946 0.960 . S
H1933 C1946 0.961 . S
H1934 C1946 0.959 . S
H1935 C1949 0.929 . S
H1936 C1950 0.931 . S
H1937 C1952 0.930 . S
C1938 H1926 0.930 . S
C1938 C1939 1.399 . S
C1938 C1943 1.399 . S
C1939 C1938 1.399 . S
C1939 C1940 1.376 . S
C1940 H1927 0.930 1_554 S
C1940 C1939 1.376 . S
C1940 C1941 1.388 . S
C1941 H1928 0.930 1_554 S
C1941 C1940 1.388 . S
C1941 C1942 1.390 . S
C1942 C1941 1.390 . S
C1942 C1943 1.394 . S
C1942 C1948 1.465 . S
C1943 C1938 1.399 . S
C1943 C1942 1.394 . S
C1943 C1944 1.516 . S
C1944 C1943 1.516 . S
C1944 C1945 1.502 . S
C1944 C1946 1.561 . S
C1944 C1947 1.526 . S
C1945 H1929 0.959 . S
C1945 H1930 0.959 . S
C1945 H1931 0.961 . S
C1945 C1944 1.502 . S
C1946 H1932 0.960 . S
C1946 H1933 0.961 . S
C1946 H1934 0.959 . S
C1946 C1944 1.561 . S
C1947 C1944 1.526 . S
C1947 C1948 1.396 . S
C1947 C1952 1.390 . S
C1948 C1942 1.465 . S
C1948 C1947 1.396 . S
C1948 C1949 1.399 . S
C1949 H1935 0.929 . S
C1949 C1948 1.399 . S
C1949 C1950 1.385 . S
C1950 H1936 0.931 . S
C1950 C1949 1.385 . S
C1950 C1951 1.389 . S
C1951 C1950 1.389 . S
C1951 C1952 1.387 . S
C1952 H1937 0.930 . S
C1952 C1947 1.390 . S
C1952 C1951 1.387 . S
H1953 C1965 0.930 . S
H1954 C1967 0.930 . S
H1955 C1968 0.930 . S
H1956 C1972 0.959 . S
H1957 C1972 0.959 . S
H1958 C1972 0.961 . S
H1959 C1973 0.960 . S
H1960 C1973 0.961 . S
H1961 C1973 0.959 . S
H1962 C1976 0.929 . S
H1963 C1977 0.931 . S
H1964 C1979 0.930 . S
C1965 H1953 0.930 . S
C1965 C1966 1.399 . S
C1965 C1970 1.399 . S
C1966 C1965 1.399 . S
C1966 C1967 1.376 . S
C1967 H1954 0.930 . S
C1967 C1966 1.376 . S
C1967 C1968 1.388 . S
C1968 H1955 0.930 . S
C1968 C1967 1.388 . S
C1968 C1969 1.390 . S
C1969 C1968 1.390 . S
C1969 C1970 1.394 . S
C1969 C1975 1.465 . S
C1970 C1965 1.399 . S
C1970 C1969 1.394 . S
C1970 C1971 1.516 . S
C1971 C1970 1.516 . S
C1971 C1972 1.502 . S
C1971 C1973 1.561 . S
C1971 C1974 1.526 . S
C1972 H1956 0.959 . S
C1972 H1957 0.959 . S
C1972 H1958 0.961 . S
C1972 C1971 1.502 . S
C1973 H1959 0.960 . S
C1973 H1960 0.961 . S
C1973 H1961 0.959 . S
C1973 C1971 1.561 . S
C1974 C1971 1.526 . S
C1974 C1975 1.396 . S
C1974 C1979 1.390 . S
C1975 C1969 1.465 . S
C1975 C1974 1.396 . S
C1975 C1976 1.399 . S
C1976 H1962 0.929 . S
C1976 C1975 1.399 . S
C1976 C1977 1.385 . S
C1977 H1963 0.931 . S
C1977 C1976 1.385 . S
C1977 C1978 1.389 . S
C1978 C1977 1.389 . S
C1978 C1979 1.387 . S
C1979 H1964 0.930 . S
C1979 C1974 1.390 . S
C1979 C1978 1.387 . S
H1980 C1992 0.930 . S
H1981 C1994 0.930 . S
H1982 C1995 0.930 . S
H1983 C1999 0.959 1_556 S
H1984 C1999 0.959 . S
H1985 C1999 0.961 . S
H1986 C2000 0.960 . S
H1987 C2000 0.961 . S
H1988 C2000 0.959 . S
H1989 C2003 0.929 . S
H1990 C2004 0.931 . S
H1991 C2006 0.930 . S
C1992 H1980 0.930 . S
C1992 C1993 1.399 . S
C1992 C1997 1.399 . S
C1993 C1992 1.399 . S
C1993 C1994 1.376 . S
C1994 H1981 0.930 . S
C1994 C1993 1.376 . S
C1994 C1995 1.388 . S
C1995 H1982 0.930 . S
C1995 C1994 1.388 . S
C1995 C1996 1.390 . S
C1996 C1995 1.390 . S
C1996 C1997 1.394 . S
C1996 C2002 1.465 . S
C1997 C1992 1.399 . S
C1997 C1996 1.394 . S
C1997 C1998 1.516 . S
C1998 C1997 1.516 . S
C1998 C1999 1.502 . S
C1998 C2000 1.561 . S
C1998 C2001 1.526 . S
C1999 H1983 0.959 1_554 S
C1999 H1984 0.959 . S
C1999 H1985 0.961 . S
C1999 C1998 1.502 . S
C2000 H1986 0.960 . S
C2000 H1987 0.961 . S
C2000 H1988 0.959 . S
C2000 C1998 1.561 . S
C2001 C1998 1.526 . S
C2001 C2002 1.396 . S
C2001 C2006 1.390 . S
C2002 C1996 1.465 . S
C2002 C2001 1.396 . S
C2002 C2003 1.399 . S
C2003 H1989 0.929 . S
C2003 C2002 1.399 . S
C2003 C2004 1.385 . S
C2004 H1990 0.931 . S
C2004 C2003 1.385 . S
C2004 C2005 1.389 . S
C2005 C2004 1.389 . S
C2005 C2006 1.387 . S
C2006 H1991 0.930 . S
C2006 C2001 1.390 . S
C2006 C2005 1.387 . S
H2007 C2019 0.930 . S
H2008 C2021 0.930 . S
H2009 C2022 0.930 . S
H2010 C2026 0.959 . S
H2011 C2026 0.959 . S
H2012 C2026 0.961 . S
H2013 C2027 0.960 . S
H2014 C2027 0.961 . S
H2015 C2027 0.959 . S
H2016 C2030 0.929 . S
H2017 C2031 0.931 . S
H2018 C2033 0.930 . S
C2019 H2007 0.930 . S
C2019 C2020 1.399 . S
C2019 C2024 1.399 . S
C2020 C2019 1.399 . S
C2020 C2021 1.376 . S
C2021 H2008 0.930 . S
C2021 C2020 1.376 . S
C2021 C2022 1.388 . S
C2022 H2009 0.930 . S
C2022 C2021 1.388 . S
C2022 C2023 1.390 . S
C2023 C2022 1.390 . S
C2023 C2024 1.394 . S
C2023 C2029 1.465 . S
C2024 C2019 1.399 . S
C2024 C2023 1.394 . S
C2024 C2025 1.516 . S
C2025 C2024 1.516 . S
C2025 C2026 1.502 . S
C2025 C2027 1.561 . S
C2025 C2028 1.526 . S
C2026 H2010 0.959 . S
C2026 H2011 0.959 . S
C2026 H2012 0.961 . S
C2026 C2025 1.502 . S
C2027 H2013 0.960 . S
C2027 H2014 0.961 . S
C2027 H2015 0.959 . S
C2027 C2025 1.561 . S
C2028 C2025 1.526 . S
C2028 C2029 1.396 . S
C2028 C2033 1.390 . S
C2029 C2023 1.465 . S
C2029 C2028 1.396 . S
C2029 C2030 1.399 . S
C2030 H2016 0.929 . S
C2030 C2029 1.399 . S
C2030 C2031 1.385 . S
C2031 H2017 0.931 . S
C2031 C2030 1.385 . S
C2031 C2032 1.389 . S
C2032 C2031 1.389 . S
C2032 C2033 1.387 . S
C2033 H2018 0.930 . S
C2033 C2028 1.390 . S
C2033 C2032 1.387 . S
H2034 C2046 0.930 . S
H2035 C2048 0.930 . S
H2036 C2049 0.930 . S
H2037 C2053 0.959 . S
H2038 C2053 0.959 . S
H2039 C2053 0.961 . S
H2040 C2054 0.960 . S
H2041 C2054 0.961 . S
H2042 C2054 0.959 . S
H2043 C2057 0.929 . S
H2044 C2058 0.931 . S
H2045 C2060 0.930 . S
C2046 H2034 0.930 . S
C2046 C2047 1.399 . S
C2046 C2051 1.399 . S
C2047 C2046 1.399 . S
C2047 C2048 1.376 . S
C2048 H2035 0.930 . S
C2048 C2047 1.376 . S
C2048 C2049 1.388 . S
C2049 H2036 0.930 . S
C2049 C2048 1.388 . S
C2049 C2050 1.390 . S
C2050 C2049 1.390 . S
C2050 C2051 1.394 . S
C2050 C2056 1.465 . S
C2051 C2046 1.399 . S
C2051 C2050 1.394 . S
C2051 C2052 1.516 . S
C2052 C2051 1.516 . S
C2052 C2053 1.502 . S
C2052 C2054 1.561 . S
C2052 C2055 1.526 . S
C2053 H2037 0.959 . S
C2053 H2038 0.959 . S
C2053 H2039 0.961 . S
C2053 C2052 1.502 . S
C2054 H2040 0.960 . S
C2054 H2041 0.961 . S
C2054 H2042 0.959 . S
C2054 C2052 1.561 . S
C2055 C2052 1.526 . S
C2055 C2056 1.396 . S
C2055 C2060 1.390 . S
C2056 C2050 1.465 . S
C2056 C2055 1.396 . S
C2056 C2057 1.399 . S
C2057 H2043 0.929 . S
C2057 C2056 1.399 . S
C2057 C2058 1.385 . S
C2058 H2044 0.931 . S
C2058 C2057 1.385 . S
C2058 C2059 1.389 . S
C2059 C2058 1.389 . S
C2059 C2060 1.387 . S
C2060 H2045 0.930 . S
C2060 C2055 1.390 . S
C2060 C2059 1.387 . S
H2061 C2073 0.930 . S
H2062 C2075 0.930 . S
H2063 C2076 0.930 . S
H2064 C2080 0.959 . S
H2065 C2080 0.959 . S
H2066 C2080 0.961 . S
H2067 C2081 0.960 . S
H2068 C2081 0.961 . S
H2069 C2081 0.959 . S
H2070 C2084 0.929 . S
H2071 C2085 0.931 . S
H2072 C2087 0.930 . S
C2073 H2061 0.930 . S
C2073 C2074 1.399 . S
C2073 C2078 1.399 . S
C2074 C2073 1.399 . S
C2074 C2075 1.376 . S
C2075 H2062 0.930 . S
C2075 C2074 1.376 . S
C2075 C2076 1.388 . S
C2076 H2063 0.930 . S
C2076 C2075 1.388 . S
C2076 C2077 1.390 . S
C2077 C2076 1.390 . S
C2077 C2078 1.394 . S
C2077 C2083 1.465 . S
C2078 C2073 1.399 . S
C2078 C2077 1.394 . S
C2078 C2079 1.516 . S
C2079 C2078 1.516 . S
C2079 C2080 1.502 . S
C2079 C2081 1.561 . S
C2079 C2082 1.526 . S
C2080 H2064 0.959 . S
C2080 H2065 0.959 . S
C2080 H2066 0.961 . S
C2080 C2079 1.502 . S
C2081 H2067 0.960 . S
C2081 H2068 0.961 . S
C2081 H2069 0.959 . S
C2081 C2079 1.561 . S
C2082 C2079 1.526 . S
C2082 C2083 1.396 . S
C2082 C2087 1.390 . S
C2083 C2077 1.465 . S
C2083 C2082 1.396 . S
C2083 C2084 1.399 . S
C2084 H2070 0.929 . S
C2084 C2083 1.399 . S
C2084 C2085 1.385 . S
C2085 H2071 0.931 . S
C2085 C2084 1.385 . S
C2085 C2086 1.389 . S
C2086 C2085 1.389 . S
C2086 C2087 1.387 . S
C2087 H2072 0.930 . S
C2087 C2082 1.390 . S
C2087 C2086 1.387 . S
H2088 C2100 0.930 . S
H2089 C2102 0.930 . S
H2090 C2103 0.930 . S
H2091 C2107 0.959 1_556 S
H2092 C2107 0.959 . S
H2093 C2107 0.961 . S
H2094 C2108 0.960 . S
H2095 C2108 0.961 . S
H2096 C2108 0.959 1_556 S
H2097 C2111 0.929 . S
H2098 C2112 0.931 . S
H2099 C2114 0.930 1_554 S
C2100 H2088 0.930 . S
C2100 C2101 1.399 . S
C2100 C2105 1.399 . S
C2101 C2100 1.399 . S
C2101 C2102 1.376 . S
C2102 H2089 0.930 . S
C2102 C2101 1.376 . S
C2102 C2103 1.388 . S
C2103 H2090 0.930 . S
C2103 C2102 1.388 . S
C2103 C2104 1.390 . S
C2104 C2103 1.390 . S
C2104 C2105 1.394 . S
C2104 C2110 1.465 . S
C2105 C2100 1.399 . S
C2105 C2104 1.394 . S
C2105 C2106 1.516 . S
C2106 C2105 1.516 . S
C2106 C2107 1.502 1_556 S
C2106 C2108 1.561 1_556 S
C2106 C2109 1.526 . S
C2107 H2091 0.959 1_554 S
C2107 H2092 0.959 . S
C2107 H2093 0.961 . S
C2107 C2106 1.502 1_554 S
C2108 H2094 0.960 . S
C2108 H2095 0.961 . S
C2108 H2096 0.959 1_554 S
C2108 C2106 1.561 1_554 S
C2109 C2106 1.526 . S
C2109 C2110 1.396 . S
C2109 C2114 1.390 . S
C2110 C2104 1.465 . S
C2110 C2109 1.396 . S
C2110 C2111 1.399 . S
C2111 H2097 0.929 . S
C2111 C2110 1.399 . S
C2111 C2112 1.385 . S
C2112 H2098 0.931 . S
C2112 C2111 1.385 . S
C2112 C2113 1.389 . S
C2113 C2112 1.389 . S
C2113 C2114 1.387 . S
C2114 H2099 0.930 1_556 S
C2114 C2109 1.390 . S
C2114 C2113 1.387 . S
H2115 C2127 0.941 . S
H2116 C2129 0.930 . S
H2117 C2130 0.930 . S
H2118 C2134 0.959 . S
H2119 C2134 0.959 1_554 S
H2120 C2134 0.961 1_554 S
H2121 C2135 0.960 . S
H2122 C2135 0.961 . S
H2123 C2135 0.959 . S
H2124 C2138 0.929 . S
H2125 C2139 0.931 . S
H2126 C2141 0.930 . S
C2127 H2115 0.941 . S
C2127 C2128 1.399 . S
C2127 C2132 1.399 . S
C2128 C2127 1.399 . S
C2128 C2129 1.376 . S
C2129 H2116 0.930 . S
C2129 C2128 1.376 . S
C2129 C2130 1.388 . S
C2130 H2117 0.930 . S
C2130 C2129 1.388 . S
C2130 C2131 1.390 . S
C2131 C2130 1.390 . S
C2131 C2132 1.394 . S
C2131 C2137 1.465 . S
C2132 C2127 1.399 . S
C2132 C2131 1.394 . S
C2132 C2133 1.516 . S
C2133 C2132 1.516 . S
C2133 C2134 1.502 . S
C2133 C2135 1.561 1_556 S
C2133 C2136 1.526 . S
C2134 H2118 0.959 . S
C2134 H2119 0.959 1_556 S
C2134 H2120 0.961 1_556 S
C2134 C2133 1.502 . S
C2135 H2121 0.960 . S
C2135 H2122 0.961 . S
C2135 H2123 0.959 . S
C2135 C2133 1.561 1_554 S
C2136 C2133 1.526 . S
C2136 C2137 1.396 . S
C2136 C2141 1.390 . S
C2137 C2131 1.465 . S
C2137 C2136 1.396 . S
C2137 C2138 1.399 . S
C2138 H2124 0.929 . S
C2138 C2137 1.399 . S
C2138 C2139 1.385 . S
C2139 H2125 0.931 . S
C2139 C2138 1.385 . S
C2139 C2140 1.389 . S
C2140 C2139 1.389 . S
C2140 C2141 1.387 . S
C2141 H2126 0.930 . S
C2141 C2136 1.390 . S
C2141 C2140 1.387 . S
H2142 C2154 0.930 . S
H2143 C2156 0.930 . S
H2144 C2157 0.930 . S
H2145 C2161 0.959 . S
H2146 C2161 0.959 . S
H2147 C2161 0.961 . S
H2148 C2162 0.960 . S
H2149 C2162 0.961 . S
H2150 C2162 0.959 . S
H2151 C2165 0.929 . S
H2152 C2166 0.931 . S
H2153 C2168 0.930 . S
C2154 H2142 0.930 . S
C2154 C2155 1.399 . S
C2154 C2159 1.399 . S
C2155 C2154 1.399 . S
C2155 C2156 1.376 . S
C2156 H2143 0.930 . S
C2156 C2155 1.376 . S
C2156 C2157 1.388 . S
C2157 H2144 0.930 . S
C2157 C2156 1.388 . S
C2157 C2158 1.390 . S
C2158 C2157 1.390 . S
C2158 C2159 1.394 . S
C2158 C2164 1.465 . S
C2159 C2154 1.399 . S
C2159 C2158 1.394 . S
C2159 C2160 1.516 . S
C2160 C2159 1.516 . S
C2160 C2161 1.502 . S
C2160 C2162 1.561 1_556 S
C2160 C2163 1.526 . S
C2161 H2145 0.959 . S
C2161 H2146 0.959 . S
C2161 H2147 0.961 . S
C2161 C2160 1.502 . S
C2162 H2148 0.960 . S
C2162 H2149 0.961 . S
C2162 H2150 0.959 . S
C2162 C2160 1.561 1_554 S
C2163 C2160 1.526 . S
C2163 C2164 1.396 . S
C2163 C2168 1.390 . S
C2164 C2158 1.465 . S
C2164 C2163 1.396 . S
C2164 C2165 1.399 . S
C2165 H2151 0.929 . S
C2165 C2164 1.399 . S
C2165 C2166 1.385 . S
C2166 H2152 0.931 . S
C2166 C2165 1.385 . S
C2166 C2167 1.389 . S
C2167 C2166 1.389 . S
C2167 C2168 1.387 . S
C2168 H2153 0.930 . S
C2168 C2163 1.390 . S
C2168 C2167 1.387 . S
H2169 C2181 0.930 . S
H2170 C2183 0.930 . S
H2171 C2184 0.930 . S
H2172 C2188 0.959 . S
H2173 C2188 0.959 . S
H2174 C2188 0.961 . S
H2175 C2189 0.960 . S
H2176 C2189 0.961 . S
H2177 C2189 0.959 . S
H2178 C2192 0.929 . S
H2179 C2193 0.931 . S
H2180 C2195 0.930 . S
C2181 H2169 0.930 . S
C2181 C2182 1.399 . S
C2181 C2186 1.399 . S
C2182 C2181 1.399 . S
C2182 C2183 1.376 . S
C2183 H2170 0.930 . S
C2183 C2182 1.376 . S
C2183 C2184 1.388 . S
C2184 H2171 0.930 . S
C2184 C2183 1.388 . S
C2184 C2185 1.390 . S
C2185 C2184 1.390 . S
C2185 C2186 1.394 . S
C2185 C2191 1.465 . S
C2186 C2181 1.399 . S
C2186 C2185 1.394 . S
C2186 C2187 1.516 . S
C2187 C2186 1.516 . S
C2187 C2188 1.502 . S
C2187 C2189 1.561 . S
C2187 C2190 1.526 . S
C2188 H2172 0.959 . S
C2188 H2173 0.959 . S
C2188 H2174 0.961 . S
C2188 C2187 1.502 . S
C2189 H2175 0.960 . S
C2189 H2176 0.961 . S
C2189 H2177 0.959 . S
C2189 C2187 1.561 . S
C2190 C2187 1.526 . S
C2190 C2191 1.396 . S
C2190 C2195 1.390 . S
C2191 C2185 1.465 . S
C2191 C2190 1.396 . S
C2191 C2192 1.399 . S
C2192 H2178 0.929 . S
C2192 C2191 1.399 . S
C2192 C2193 1.385 . S
C2193 H2179 0.931 . S
C2193 C2192 1.385 . S
C2193 C2194 1.389 . S
C2194 C2193 1.389 . S
C2194 C2195 1.387 . S
C2195 H2180 0.930 . S
C2195 C2190 1.390 . S
C2195 C2194 1.387 . S
H2196 C2208 0.930 . S
H2197 C2210 0.930 . S
H2198 C2211 0.930 . S
H2199 C2215 0.959 . S
H2200 C2215 0.959 . S
H2201 C2215 0.961 . S
H2202 C2216 0.960 . S
H2203 C2216 0.961 . S
H2204 C2216 0.959 . S
H2205 C2219 0.929 . S
H2206 C2220 0.931 . S
H2207 C2222 0.930 . S
C2208 H2196 0.930 . S
C2208 C2209 1.399 . S
C2208 C2213 1.399 . S
C2209 C2208 1.399 . S
C2209 C2210 1.376 . S
C2210 H2197 0.930 . S
C2210 C2209 1.376 . S
C2210 C2211 1.388 . S
C2211 H2198 0.930 . S
C2211 C2210 1.388 . S
C2211 C2212 1.390 . S
C2212 C2211 1.390 . S
C2212 C2213 1.394 . S
C2212 C2218 1.465 . S
C2213 C2208 1.399 . S
C2213 C2212 1.394 . S
C2213 C2214 1.516 . S
C2214 C2213 1.516 . S
C2214 C2215 1.502 . S
C2214 C2216 1.561 . S
C2214 C2217 1.526 . S
C2215 H2199 0.959 . S
C2215 H2200 0.959 . S
C2215 H2201 0.961 . S
C2215 C2214 1.502 . S
C2216 H2202 0.960 . S
C2216 H2203 0.961 . S
C2216 H2204 0.959 . S
C2216 C2214 1.561 . S
C2217 C2214 1.526 . S
C2217 C2218 1.396 . S
C2217 C2222 1.390 . S
C2218 C2212 1.465 . S
C2218 C2217 1.396 . S
C2218 C2219 1.399 . S
C2219 H2205 0.929 . S
C2219 C2218 1.399 . S
C2219 C2220 1.385 . S
C2220 H2206 0.931 . S
C2220 C2219 1.385 . S
C2220 C2221 1.389 . S
C2221 C2220 1.389 . S
C2221 C2222 1.387 . S
C2222 H2207 0.930 . S
C2222 C2217 1.390 . S
C2222 C2221 1.387 . S
H2223 C2235 0.930 . S
H2224 C2237 0.930 . S
H2225 C2238 0.930 . S
H2226 C2242 0.959 . S
H2227 C2242 0.959 . S
H2228 C2242 0.961 . S
H2229 C2243 0.960 . S
H2230 C2243 0.961 . S
H2231 C2243 0.959 . S
H2232 C2246 0.929 . S
H2233 C2247 0.931 . S
H2234 C2249 0.930 . S
C2235 H2223 0.930 . S
C2235 C2236 1.399 . S
C2235 C2240 1.399 . S
C2236 C2235 1.399 . S
C2236 C2237 1.376 . S
C2237 H2224 0.930 . S
C2237 C2236 1.376 . S
C2237 C2238 1.388 . S
C2238 H2225 0.930 . S
C2238 C2237 1.388 . S
C2238 C2239 1.390 . S
C2239 C2238 1.390 . S
C2239 C2240 1.394 . S
C2239 C2245 1.465 . S
C2240 C2235 1.399 . S
C2240 C2239 1.394 . S
C2240 C2241 1.516 . S
C2241 C2240 1.516 . S
C2241 C2242 1.502 . S
C2241 C2243 1.561 . S
C2241 C2244 1.526 . S
C2242 H2226 0.959 . S
C2242 H2227 0.959 . S
C2242 H2228 0.961 . S
C2242 C2241 1.502 . S
C2243 H2229 0.960 . S
C2243 H2230 0.961 . S
C2243 H2231 0.959 . S
C2243 C2241 1.561 . S
C2244 C2241 1.526 . S
C2244 C2245 1.396 . S
C2244 C2249 1.390 . S
C2245 C2239 1.465 . S
C2245 C2244 1.396 . S
C2245 C2246 1.399 . S
C2246 H2232 0.929 . S
C2246 C2245 1.399 . S
C2246 C2247 1.385 . S
C2247 H2233 0.931 . S
C2247 C2246 1.385 . S
C2247 C2248 1.389 . S
C2248 C2247 1.389 . S
C2248 C2249 1.387 . S
C2249 H2234 0.930 . S
C2249 C2244 1.390 . S
C2249 C2248 1.387 . S
H2250 C2262 0.930 . S
H2251 C2264 0.930 . S
H2252 C2265 0.930 . S
H2253 C2269 0.959 . S
H2254 C2269 0.959 1_655 S
H2255 C2269 0.961 . S
H2256 C2270 0.960 . S
H2257 C2270 0.961 1_655 S
H2258 C2270 0.959 . S
H2259 C2273 0.929 . S
H2260 C2274 0.931 . S
H2261 C2276 0.930 . S
C2262 H2250 0.930 . S
C2262 C2263 1.399 . S
C2262 C2267 1.399 . S
C2263 C2262 1.399 . S
C2263 C2264 1.376 . S
C2264 H2251 0.930 . S
C2264 C2263 1.376 . S
C2264 C2265 1.388 . S
C2265 H2252 0.930 . S
C2265 C2264 1.388 . S
C2265 C2266 1.390 . S
C2266 C2265 1.390 . S
C2266 C2267 1.394 . S
C2266 C2272 1.465 1_455 S
C2267 C2262 1.399 . S
C2267 C2266 1.394 . S
C2267 C2268 1.516 . S
C2268 C2267 1.516 . S
C2268 C2269 1.502 . S
C2268 C2270 1.561 . S
C2268 C2271 1.526 1_455 S
C2269 H2253 0.959 . S
C2269 H2254 0.959 1_455 S
C2269 H2255 0.961 . S
C2269 C2268 1.502 . S
C2270 H2256 0.960 . S
C2270 H2257 0.961 1_455 S
C2270 H2258 0.959 . S
C2270 C2268 1.561 . S
C2271 C2268 1.526 1_655 S
C2271 C2272 1.396 . S
C2271 C2276 1.390 . S
C2272 C2266 1.465 1_655 S
C2272 C2271 1.396 . S
C2272 C2273 1.399 . S
C2273 H2259 0.929 . S
C2273 C2272 1.399 . S
C2273 C2274 1.385 . S
C2274 H2260 0.931 . S
C2274 C2273 1.385 . S
C2274 C2275 1.389 . S
C2275 C2274 1.389 . S
C2275 C2276 1.387 . S
C2276 H2261 0.930 . S
C2276 C2271 1.390 . S
C2276 C2275 1.387 . S
H2277 C2289 0.930 . S
H2278 C2291 0.930 . S
H2279 C2292 0.930 . S
H2280 C2296 0.959 . S
H2281 C2296 0.959 . S
H2282 C2296 0.961 . S
H2283 C2297 0.960 . S
H2284 C2297 0.961 . S
H2285 C2297 0.959 . S
H2286 C2300 0.929 . S
H2287 C2301 0.931 . S
H2288 C2303 0.930 . S
C2289 H2277 0.930 . S
C2289 C2290 1.399 . S
C2289 C2294 1.399 . S
C2290 C2289 1.399 . S
C2290 C2291 1.376 . S
C2291 H2278 0.930 . S
C2291 C2290 1.376 . S
C2291 C2292 1.388 . S
C2292 H2279 0.930 . S
C2292 C2291 1.388 . S
C2292 C2293 1.390 . S
C2293 C2292 1.390 . S
C2293 C2294 1.394 . S
C2293 C2299 1.465 . S
C2294 C2289 1.399 . S
C2294 C2293 1.394 . S
C2294 C2295 1.516 . S
C2295 C2294 1.516 . S
C2295 C2296 1.502 . S
C2295 C2297 1.561 . S
C2295 C2298 1.526 . S
C2296 H2280 0.959 . S
C2296 H2281 0.959 . S
C2296 H2282 0.961 . S
C2296 C2295 1.502 . S
C2297 H2283 0.960 . S
C2297 H2284 0.961 . S
C2297 H2285 0.959 . S
C2297 C2295 1.561 . S
C2298 C2295 1.526 . S
C2298 C2299 1.396 . S
C2298 C2303 1.390 . S
C2299 C2293 1.465 . S
C2299 C2298 1.396 . S
C2299 C2300 1.399 . S
C2300 H2286 0.929 . S
C2300 C2299 1.399 . S
C2300 C2301 1.385 . S
C2301 H2287 0.931 . S
C2301 C2300 1.385 . S
C2301 C2302 1.389 . S
C2302 C2301 1.389 . S
C2302 C2303 1.387 . S
C2303 H2288 0.930 . S
C2303 C2298 1.390 . S
C2303 C2302 1.387 . S
H2304 C2316 0.930 . S
H2305 C2318 0.930 . S
H2306 C2319 0.930 . S
H2307 C2323 0.959 . S
H2308 C2323 0.959 . S
H2309 C2323 0.961 1_565 S
H2310 C2324 0.960 1_565 S
H2311 C2324 0.961 . S
H2312 C2324 0.959 . S
H2313 C2327 0.929 . S
H2314 C2328 0.931 . S
H2315 C2330 0.930 . S
C2316 H2304 0.930 . S
C2316 C2317 1.399 . S
C2316 C2321 1.399 . S
C2317 C2316 1.399 . S
C2317 C2318 1.376 . S
C2318 H2305 0.930 . S
C2318 C2317 1.376 . S
C2318 C2319 1.388 . S
C2319 H2306 0.930 . S
C2319 C2318 1.388 . S
C2319 C2320 1.390 . S
C2320 C2319 1.390 . S
C2320 C2321 1.394 . S
C2320 C2326 1.465 1_565 S
C2321 C2316 1.399 . S
C2321 C2320 1.394 . S
C2321 C2322 1.516 1_565 S
C2322 C2321 1.516 1_545 S
C2322 C2323 1.502 . S
C2322 C2324 1.561 . S
C2322 C2325 1.526 . S
C2323 H2307 0.959 . S
C2323 H2308 0.959 . S
C2323 H2309 0.961 1_545 S
C2323 C2322 1.502 . S
C2324 H2310 0.960 1_545 S
C2324 H2311 0.961 . S
C2324 H2312 0.959 . S
C2324 C2322 1.561 . S
C2325 C2322 1.526 . S
C2325 C2326 1.396 . S
C2325 C2330 1.390 . S
C2326 C2320 1.465 1_545 S
C2326 C2325 1.396 . S
C2326 C2327 1.399 . S
C2327 H2313 0.929 . S
C2327 C2326 1.399 . S
C2327 C2328 1.385 . S
C2328 H2314 0.931 . S
C2328 C2327 1.385 . S
C2328 C2329 1.389 . S
C2329 C2328 1.389 . S
C2329 C2330 1.387 . S
C2330 H2315 0.930 . S
C2330 C2325 1.390 . S
C2330 C2329 1.387 . S
H2331 C2343 0.930 . S
H2332 C2345 0.930 . S
H2333 C2346 0.930 . S
H2334 C2350 0.959 . S
H2335 C2350 0.959 . S
H2336 C2350 0.961 1_545 S
H2337 C2351 0.960 1_545 S
H2338 C2351 0.961 . S
H2339 C2351 0.959 . S
H2340 C2354 0.929 . S
H2341 C2355 0.931 . S
H2342 C2357 0.930 . S
C2343 H2331 0.930 . S
C2343 C2344 1.399 . S
C2343 C2348 1.399 . S
C2344 C2343 1.399 . S
C2344 C2345 1.376 . S
C2345 H2332 0.930 . S
C2345 C2344 1.376 . S
C2345 C2346 1.388 . S
C2346 H2333 0.930 . S
C2346 C2345 1.388 . S
C2346 C2347 1.390 . S
C2347 C2346 1.390 . S
C2347 C2348 1.394 . S
C2347 C2353 1.465 1_545 S
C2348 C2343 1.399 . S
C2348 C2347 1.394 . S
C2348 C2349 1.516 1_545 S
C2349 C2348 1.516 1_565 S
C2349 C2350 1.502 . S
C2349 C2351 1.561 . S
C2349 C2352 1.526 . S
C2350 H2334 0.959 . S
C2350 H2335 0.959 . S
C2350 H2336 0.961 1_565 S
C2350 C2349 1.502 . S
C2351 H2337 0.960 1_565 S
C2351 H2338 0.961 . S
C2351 H2339 0.959 . S
C2351 C2349 1.561 . S
C2352 C2349 1.526 . S
C2352 C2353 1.396 . S
C2352 C2357 1.390 . S
C2353 C2347 1.465 1_565 S
C2353 C2352 1.396 . S
C2353 C2354 1.399 . S
C2354 H2340 0.929 . S
C2354 C2353 1.399 . S
C2354 C2355 1.385 . S
C2355 H2341 0.931 . S
C2355 C2354 1.385 . S
C2355 C2356 1.389 . S
C2356 C2355 1.389 . S
C2356 C2357 1.387 . S
C2357 H2342 0.930 . S
C2357 C2352 1.390 . S
C2357 C2356 1.387 . S
H2358 C2370 0.930 . S
H2359 C2372 0.930 . S
H2360 C2373 0.930 . S
H2361 C2377 0.959 1_655 S
H2362 C2377 0.959 1_655 S
H2363 C2377 0.961 . S
H2364 C2378 0.960 . S
H2365 C2378 0.961 1_655 S
H2366 C2378 0.959 . S
H2367 C2381 0.929 . S
H2368 C2382 0.931 . S
H2369 C2384 0.930 . S
C2370 H2358 0.930 . S
C2370 C2371 1.399 . S
C2370 C2375 1.399 . S
C2371 C2370 1.399 . S
C2371 C2372 1.376 . S
C2372 H2359 0.930 . S
C2372 C2371 1.376 . S
C2372 C2373 1.388 . S
C2373 H2360 0.930 . S
C2373 C2372 1.388 . S
C2373 C2374 1.390 . S
C2374 C2373 1.390 . S
C2374 C2375 1.394 . S
C2374 C2380 1.465 1_455 S
C2375 C2370 1.399 . S
C2375 C2374 1.394 . S
C2375 C2376 1.516 . S
C2376 C2375 1.516 . S
C2376 C2377 1.502 . S
C2376 C2378 1.561 . S
C2376 C2379 1.526 1_455 S
C2377 H2361 0.959 1_455 S
C2377 H2362 0.959 1_455 S
C2377 H2363 0.961 . S
C2377 C2376 1.502 . S
C2378 H2364 0.960 . S
C2378 H2365 0.961 1_455 S
C2378 H2366 0.959 . S
C2378 C2376 1.561 . S
C2379 C2376 1.526 1_655 S
C2379 C2380 1.396 . S
C2379 C2384 1.390 . S
C2380 C2374 1.465 1_655 S
C2380 C2379 1.396 . S
C2380 C2381 1.399 . S
C2381 H2367 0.929 . S
C2381 C2380 1.399 . S
C2381 C2382 1.385 . S
C2382 H2368 0.931 . S
C2382 C2381 1.385 . S
C2382 C2383 1.389 . S
C2383 C2382 1.389 . S
C2383 C2384 1.387 . S
C2384 H2369 0.930 . S
C2384 C2379 1.390 . S
C2384 C2383 1.387 . S
H2385 C2397 0.930 . S
H2386 C2399 0.930 . S
H2387 C2400 0.930 . S
H2388 C2404 0.959 . S
H2389 C2404 0.959 . S
H2390 C2404 0.961 . S
H2391 C2405 0.960 . S
H2392 C2405 0.961 . S
H2393 C2405 0.959 . S
H2394 C2408 0.929 . S
H2395 C2409 0.931 . S
H2396 C2411 0.930 . S
C2397 H2385 0.930 . S
C2397 C2398 1.399 . S
C2397 C2402 1.399 . S
C2398 C2397 1.399 . S
C2398 C2399 1.376 . S
C2399 H2386 0.930 . S
C2399 C2398 1.376 . S
C2399 C2400 1.388 . S
C2400 H2387 0.930 . S
C2400 C2399 1.388 . S
C2400 C2401 1.390 . S
C2401 C2400 1.390 . S
C2401 C2402 1.394 . S
C2401 C2407 1.465 . S
C2402 C2397 1.399 . S
C2402 C2401 1.394 . S
C2402 C2403 1.516 . S
C2403 C2402 1.516 . S
C2403 C2404 1.502 . S
C2403 C2405 1.561 . S
C2403 C2406 1.526 . S
C2404 H2388 0.959 . S
C2404 H2389 0.959 . S
C2404 H2390 0.961 . S
C2404 C2403 1.502 . S
C2405 H2391 0.960 . S
C2405 H2392 0.961 . S
C2405 H2393 0.959 . S
C2405 C2403 1.561 . S
C2406 C2403 1.526 . S
C2406 C2407 1.396 . S
C2406 C2411 1.390 . S
C2407 C2401 1.465 . S
C2407 C2406 1.396 . S
C2407 C2408 1.399 . S
C2408 H2394 0.929 . S
C2408 C2407 1.399 . S
C2408 C2409 1.385 . S
C2409 H2395 0.931 . S
C2409 C2408 1.385 . S
C2409 C2410 1.389 . S
C2410 C2409 1.389 . S
C2410 C2411 1.387 . S
C2411 H2396 0.930 . S
C2411 C2406 1.390 . S
C2411 C2410 1.387 . S
C481 C43 1.168 . S
C493 C10 1.181 . S
C508 C56 1.166 . S
C520 C17 1.176 . S
C535 C69 1.167 . S
C547 C36 1.178 . S
C562 C88 1.173 . S
C574 C121 1.168 . S
C589 C95 1.174 . S
C601 C140 1.167 . S
C616 C153 1.179 . S
C628 C114 1.171 . S
C643 C160 1.166 . S
C655 C205 1.175 . S
C670 C179 1.167 . S
C682 C212 1.181 . S
C697 C186 1.167 . S
C709 C225 1.171 . S
C724 C244 1.175 . S
C736 C277 1.166 . S
C751 C296 1.170 . S
C763 C251 1.165 . S
C778 C270 1.177 . S
C790 C309 1.182 . S
C805 C322 1.183 . S
C817 C361 1.174 . S
C832 C335 1.166 . S
C844 C368 1.178 . S
C859 C381 1.180 . S
C871 C342 1.178 . S
C886 C433 1.177 . S
C898 C400 1.183 . S
C913 C452 1.175 . S
C925 C407 1.182 . S
C940 C465 1.175 . S
C952 C420 1.182 . S
C967 C147 1.662 . S
C979 C3 1.676 . S
C994 C18 1.669 . S
C1006 C127 1.623 . S
C1021 C29 1.659 . S
C1033 C134 1.627 . S
C1048 C101 1.663 . S
C1060 C44 1.665 . S
C1075 C57 1.660 . S
C1087 C108 1.648 . S
C1102 C82 1.638 . S
C1114 C70 1.660 . S
C1129 C81 1.678 . S
C1141 C75 1.663 . S
C1156 C96 1.668 . S
C1168 C49 1.629 . S
C1183 C62 1.654 . S
C1195 C107 1.677 . S
C1210 C23 1.621 . S
C1222 C122 1.663 . S
C1237 C30 1.649 . S
C1249 C133 1.676 . S
C1264 C146 1.660 . S
C1276 C4 1.633 . S
C1291 C161 1.667 . S
C1303 C303 1.618 . S
C1318 C283 1.658 . S
C1330 C172 1.669 . S
C1345 C290 1.644 . S
C1357 C187 1.652 . S
C1372 C198 1.677 . S
C1384 C257 1.661 . S
C1399 C264 1.662 . S
C1411 C213 1.664 . S
C1426 C226 1.670 . S
C1438 C238 1.622 . S
C1453 C237 1.658 . S
C1465 C231 1.631 . S
C1480 C252 1.664 . S
C1492 C199 1.622 . S
C1507 C218 1.620 . S
C1519 C263 1.660 . S
C1534 C173 1.626 . S
C1546 C278 1.665 . S
C1561 C192 1.635 . S
C1573 C289 1.665 . S
C1588 C302 1.663 . S
C1600 C166 1.632 . S
C1615 C459 1.631 . S
C1627 C315 1.659 . S
C1642 C328 1.659 . S
C1654 C439 1.646 . S
C1669 C343 1.674 . S
C1681 C446 1.665 . S
C1696 C354 1.681 . S
C1708 C413 1.668 . S
C1723 C426 1.624 . S
C1735 C369 1.673 . S
C1750 C382 1.679 . S
C1762 C394 1.638 . S
C1777 C387 1.623 . S
C1789 C393 1.661 . S
C1804 C355 1.616 . S
C1816 C408 1.656 . S
C1831 C374 1.619 . S
C1843 C421 1.651 . S
C1858 C329 1.668 . S
C1870 C434 1.677 . S
C1885 C348 1.637 . S
C1897 C445 1.673 . S
C1912 C316 1.627 . S
C1924 C458 1.668 . S
C1939 C380 1.430 . S
C1951 C5 1.456 . S
C1966 C16 1.467 . S
C1978 C356 1.473 . S
C1993 C367 1.447 . S
C2005 C31 1.432 . S
C2020 C42 1.472 . S
C2032 C174 1.442 . S
C2047 C185 1.436 . S
C2059 C55 1.468 . S
C2074 C68 1.476 . S
C2086 C159 1.449 . S
C2101 C83 1.452 . S
C2113 C304 1.471 . S
C2128 C276 1.446 . S
C2140 C94 1.433 . S
C2155 C109 1.466 . S
C2167 C291 1.477 . S
C2182 C120 1.464 . S
C2194 C406 1.476 . S
C2209 C135 1.473 . S
C2221 C419 1.476 . S
C2236 C395 1.459 . S
C2248 C148 1.474 . S
C2263 C330 1.433 . S
C2275 C200 1.464 . S
C2290 C341 1.435 . S
C2302 C211 1.441 . S
C2317 C317 1.477 . S
C2329 C224 1.451 . S
C2344 C239 1.449 . S
C2356 C460 1.434 . S
C2371 C432 1.470 . S
C2383 C250 1.477 . S
C2398 C265 1.436 . S
C2410 C447 1.432 . S
