# Generated by pormake.
# Topology uoi, (4)-cn, num edge types: 1
# Building blocks:
#     Node 0, Type 0, BuildingBlock: AZAVOO_clean_sbu_0, # of connection points: 4
#     Node 1, Type 0, BuildingBlock: AZAVOO_clean_sbu_0, # of connection points: 4
#     Node 2, Type 0, BuildingBlock: AZAVOO_clean_sbu_0, # of connection points: 4
#     Node 3, Type 0, BuildingBlock: AZAVOO_clean_sbu_0, # of connection points: 4
#     Node 4, Type 0, BuildingBlock: AZAVOO_clean_sbu_0, # of connection points: 4
#     Node 5, Type 0, BuildingBlock: AZAVOO_clean_sbu_0, # of connection points: 4
#     Node 6, Type 0, BuildingBlock: AZAVOO_clean_sbu_0, # of connection points: 4
#     Node 7, Type 0, BuildingBlock: AZAVOO_clean_sbu_0, # of connection points: 4
#     Node 8, Type 0, BuildingBlock: AZAVOO_clean_sbu_0, # of connection points: 4
#     Node 9, Type 0, BuildingBlock: AZAVOO_clean_sbu_0, # of connection points: 4
#     Node 10, Type 0, BuildingBlock: AZAVOO_clean_sbu_0, # of connection points: 4
#     Node 11, Type 0, BuildingBlock: AZAVOO_clean_sbu_0, # of connection points: 4
#     Node 12, Type 0, BuildingBlock: AZAVOO_clean_sbu_0, # of connection points: 4
#     Node 13, Type 0, BuildingBlock: AZAVOO_clean_sbu_0, # of connection points: 4
#     Node 14, Type 0, BuildingBlock: AZAVOO_clean_sbu_0, # of connection points: 4
#     Node 15, Type 0, BuildingBlock: AZAVOO_clean_sbu_0, # of connection points: 4
#     Node 16, Type 0, BuildingBlock: AZAVOO_clean_sbu_0, # of connection points: 4
#     Node 17, Type 0, BuildingBlock: AZAVOO_clean_sbu_0, # of connection points: 4
#     Node 18, Type 0, BuildingBlock: AZAVOO_clean_sbu_0, # of connection points: 4
#     Node 19, Type 0, BuildingBlock: AZAVOO_clean_sbu_0, # of connection points: 4
#     Node 20, Type 0, BuildingBlock: AZAVOO_clean_sbu_0, # of connection points: 4
#     Node 21, Type 0, BuildingBlock: AZAVOO_clean_sbu_0, # of connection points: 4
#     Node 22, Type 0, BuildingBlock: AZAVOO_clean_sbu_0, # of connection points: 4
#     Node 23, Type 0, BuildingBlock: AZAVOO_clean_sbu_0, # of connection points: 4
#     Node 24, Type 0, BuildingBlock: AZAVOO_clean_sbu_0, # of connection points: 4
#     Node 25, Type 0, BuildingBlock: AZAVOO_clean_sbu_0, # of connection points: 4
#     Node 26, Type 0, BuildingBlock: AZAVOO_clean_sbu_0, # of connection points: 4
#     Node 27, Type 0, BuildingBlock: AZAVOO_clean_sbu_0, # of connection points: 4
#     Node 28, Type 0, BuildingBlock: AZAVOO_clean_sbu_0, # of connection points: 4
#     Node 29, Type 0, BuildingBlock: AZAVOO_clean_sbu_0, # of connection points: 4
#     Node 30, Type 0, BuildingBlock: AZAVOO_clean_sbu_0, # of connection points: 4
#     Node 31, Type 0, BuildingBlock: AZAVOO_clean_sbu_0, # of connection points: 4
#     Edge 32, Type (0, 0), BuildingBlock: XIVTED_clean_linker_0, # of connection points: 2
#     Edge 33, Type (0, 0), BuildingBlock: XIVTED_clean_linker_0, # of connection points: 2
#     Edge 34, Type (0, 0), BuildingBlock: XIVTED_clean_linker_0, # of connection points: 2
#     Edge 35, Type (0, 0), BuildingBlock: XIVTED_clean_linker_0, # of connection points: 2
#     Edge 36, Type (0, 0), BuildingBlock: XIVTED_clean_linker_0, # of connection points: 2
#     Edge 37, Type (0, 0), BuildingBlock: XIVTED_clean_linker_0, # of connection points: 2
#     Edge 38, Type (0, 0), BuildingBlock: XIVTED_clean_linker_0, # of connection points: 2
#     Edge 39, Type (0, 0), BuildingBlock: XIVTED_clean_linker_0, # of connection points: 2
#     Edge 40, Type (0, 0), BuildingBlock: XIVTED_clean_linker_0, # of connection points: 2
#     Edge 41, Type (0, 0), BuildingBlock: XIVTED_clean_linker_0, # of connection points: 2
#     Edge 42, Type (0, 0), BuildingBlock: XIVTED_clean_linker_0, # of connection points: 2
#     Edge 43, Type (0, 0), BuildingBlock: XIVTED_clean_linker_0, # of connection points: 2
#     Edge 44, Type (0, 0), BuildingBlock: XIVTED_clean_linker_0, # of connection points: 2
#     Edge 45, Type (0, 0), BuildingBlock: XIVTED_clean_linker_0, # of connection points: 2
#     Edge 46, Type (0, 0), BuildingBlock: XIVTED_clean_linker_0, # of connection points: 2
#     Edge 47, Type (0, 0), BuildingBlock: XIVTED_clean_linker_0, # of connection points: 2
#     Edge 48, Type (0, 0), BuildingBlock: XIVTED_clean_linker_0, # of connection points: 2
#     Edge 49, Type (0, 0), BuildingBlock: XIVTED_clean_linker_0, # of connection points: 2
#     Edge 50, Type (0, 0), BuildingBlock: XIVTED_clean_linker_0, # of connection points: 2
#     Edge 51, Type (0, 0), BuildingBlock: XIVTED_clean_linker_0, # of connection points: 2
#     Edge 52, Type (0, 0), BuildingBlock: XIVTED_clean_linker_0, # of connection points: 2
#     Edge 53, Type (0, 0), BuildingBlock: XIVTED_clean_linker_0, # of connection points: 2
#     Edge 54, Type (0, 0), BuildingBlock: XIVTED_clean_linker_0, # of connection points: 2
#     Edge 55, Type (0, 0), BuildingBlock: XIVTED_clean_linker_0, # of connection points: 2
#     Edge 56, Type (0, 0), BuildingBlock: XIVTED_clean_linker_0, # of connection points: 2
#     Edge 57, Type (0, 0), BuildingBlock: XIVTED_clean_linker_0, # of connection points: 2
#     Edge 58, Type (0, 0), BuildingBlock: XIVTED_clean_linker_0, # of connection points: 2
#     Edge 59, Type (0, 0), BuildingBlock: XIVTED_clean_linker_0, # of connection points: 2
#     Edge 60, Type (0, 0), BuildingBlock: XIVTED_clean_linker_0, # of connection points: 2
#     Edge 61, Type (0, 0), BuildingBlock: XIVTED_clean_linker_0, # of connection points: 2
#     Edge 62, Type (0, 0), BuildingBlock: XIVTED_clean_linker_0, # of connection points: 2
#     Edge 63, Type (0, 0), BuildingBlock: XIVTED_clean_linker_0, # of connection points: 2
#     Edge 64, Type (0, 0), BuildingBlock: XIVTED_clean_linker_0, # of connection points: 2
#     Edge 65, Type (0, 0), BuildingBlock: XIVTED_clean_linker_0, # of connection points: 2
#     Edge 66, Type (0, 0), BuildingBlock: XIVTED_clean_linker_0, # of connection points: 2
#     Edge 67, Type (0, 0), BuildingBlock: XIVTED_clean_linker_0, # of connection points: 2
#     Edge 68, Type (0, 0), BuildingBlock: XIVTED_clean_linker_0, # of connection points: 2
#     Edge 69, Type (0, 0), BuildingBlock: XIVTED_clean_linker_0, # of connection points: 2
#     Edge 70, Type (0, 0), BuildingBlock: XIVTED_clean_linker_0, # of connection points: 2
#     Edge 71, Type (0, 0), BuildingBlock: XIVTED_clean_linker_0, # of connection points: 2
#     Edge 72, Type (0, 0), BuildingBlock: XIVTED_clean_linker_0, # of connection points: 2
#     Edge 73, Type (0, 0), BuildingBlock: XIVTED_clean_linker_0, # of connection points: 2
#     Edge 74, Type (0, 0), BuildingBlock: XIVTED_clean_linker_0, # of connection points: 2
#     Edge 75, Type (0, 0), BuildingBlock: XIVTED_clean_linker_0, # of connection points: 2
#     Edge 76, Type (0, 0), BuildingBlock: XIVTED_clean_linker_0, # of connection points: 2
#     Edge 77, Type (0, 0), BuildingBlock: XIVTED_clean_linker_0, # of connection points: 2
#     Edge 78, Type (0, 0), BuildingBlock: XIVTED_clean_linker_0, # of connection points: 2
#     Edge 79, Type (0, 0), BuildingBlock: XIVTED_clean_linker_0, # of connection points: 2
#     Edge 80, Type (0, 0), BuildingBlock: XIVTED_clean_linker_0, # of connection points: 2
#     Edge 81, Type (0, 0), BuildingBlock: XIVTED_clean_linker_0, # of connection points: 2
#     Edge 82, Type (0, 0), BuildingBlock: XIVTED_clean_linker_0, # of connection points: 2
#     Edge 83, Type (0, 0), BuildingBlock: XIVTED_clean_linker_0, # of connection points: 2
#     Edge 84, Type (0, 0), BuildingBlock: XIVTED_clean_linker_0, # of connection points: 2
#     Edge 85, Type (0, 0), BuildingBlock: XIVTED_clean_linker_0, # of connection points: 2
#     Edge 86, Type (0, 0), BuildingBlock: XIVTED_clean_linker_0, # of connection points: 2
#     Edge 87, Type (0, 0), BuildingBlock: XIVTED_clean_linker_0, # of connection points: 2
#     Edge 88, Type (0, 0), BuildingBlock: XIVTED_clean_linker_0, # of connection points: 2
#     Edge 89, Type (0, 0), BuildingBlock: XIVTED_clean_linker_0, # of connection points: 2
#     Edge 90, Type (0, 0), BuildingBlock: XIVTED_clean_linker_0, # of connection points: 2
#     Edge 91, Type (0, 0), BuildingBlock: XIVTED_clean_linker_0, # of connection points: 2
#     Edge 92, Type (0, 0), BuildingBlock: XIVTED_clean_linker_0, # of connection points: 2
#     Edge 93, Type (0, 0), BuildingBlock: XIVTED_clean_linker_0, # of connection points: 2
#     Edge 94, Type (0, 0), BuildingBlock: XIVTED_clean_linker_0, # of connection points: 2
#     Edge 95, Type (0, 0), BuildingBlock: XIVTED_clean_linker_0, # of connection points: 2
# Relax obj value: 0.353
# Max RMSD: 0.233
# Mean RMSD: 0.229
data_MOF--net-uoi--node1-AZAVOO_clean_sbu_0--edge1-XIVTED_clean_linker_0
_symmetry_space_group_name_H-M    P1
_symmetry_Int_Tables_number       1
_symmetry_cell_setting            triclinic
loop_
_symmetry_equiv_pos_as_xyz
'x, y, z'
_cell_length_a     83.344651
_cell_length_b     83.313432
_cell_length_c     17.630913
_cell_angle_alpha  89.983494
_cell_angle_beta   89.980185
_cell_angle_gamma 90.000421
loop_
_atom_site_label
_atom_site_type_symbol
_atom_site_fract_x
_atom_site_fract_y
_atom_site_fract_z
_atom_type_partial_charge
Mg0 Mg 0.21414 0.17596 0.07374 0.0
O1 O 0.20814 0.19902 0.13622 0.0
O2 O 0.19078 0.21357 0.06933 0.0
Mg3 Mg 0.18367 0.19812 0.96661 0.0
C4 C 0.20003 0.21179 0.12641 0.0
C5 C 0.23779 0.17449 0.2149 0.0
O6 O 0.24554 0.18548 0.17601 0.0
O7 O 0.1905 0.16369 0.10609 0.0
O8 O 0.17278 0.17793 0.03865 0.0
O9 O 0.23198 0.19097 0.00751 0.0
O10 O 0.20721 0.18602 0.9703 0.0
C11 C 0.17615 0.1665 0.08427 0.0
C12 C 0.22047 0.19346 0.9596 0.0
O13 O 0.2255 0.16786 0.18582 0.0
Mg14 Mg 0.07969 0.95076 0.37431 0.0
O15 O 0.05803 0.94419 0.44658 0.0
O16 O 0.04424 0.92455 0.39114 0.0
Mg17 Mg 0.05854 0.91697 0.28579 0.0
C18 C 0.04594 0.93487 0.44401 0.0
C19 C 0.08057 0.97764 0.49839 0.0
O20 O 0.0688 0.98291 0.45557 0.0
O21 O 0.09422 0.92867 0.41123 0.0
O22 O 0.08059 0.90902 0.3536 0.0
O23 O 0.06276 0.96644 0.30674 0.0
O24 O 0.0686 0.94138 0.27747 0.0
C25 C 0.09229 0.91386 0.3944 0.0
C26 C 0.06016 0.95396 0.2647 0.0
O27 O 0.0882 0.96514 0.47786 0.0
Mg28 Mg 0.28794 0.82412 0.57867 0.0
O29 O 0.29326 0.80081 0.64087 0.0
O30 O 0.31017 0.78582 0.57365 0.0
Mg31 Mg 0.31767 0.80111 0.47086 0.0
C32 C 0.30099 0.78782 0.63084 0.0
C33 C 0.26442 0.82524 0.71853 0.0
O34 O 0.25703 0.81425 0.6781 0.0
O35 O 0.31194 0.83578 0.6106 0.0
O36 O 0.3291 0.82111 0.54199 0.0
O37 O 0.26963 0.80979 0.51245 0.0
O38 O 0.29453 0.81395 0.47493 0.0
C39 C 0.32615 0.83264 0.5877 0.0
C40 C 0.28103 0.80697 0.46431 0.0
O41 O 0.27665 0.83225 0.69076 0.0
Mg42 Mg 0.43133 0.05348 0.87167 0.0
O43 O 0.45232 0.06173 0.94443 0.0
O44 O 0.46518 0.08179 0.88719 0.0
Mg45 Mg 0.45084 0.08784 0.77976 0.0
C46 C 0.46387 0.07171 0.94137 0.0
C47 C 0.42566 0.02456 0.9872 0.0
O48 O 0.43224 0.01606 0.93267 0.0
O49 O 0.41545 0.07494 0.90402 0.0
O50 O 0.42813 0.09501 0.84473 0.0
O51 O 0.44943 0.03835 0.80833 0.0
O52 O 0.44225 0.06282 0.77453 0.0
C53 C 0.41658 0.08973 0.8853 0.0
C54 C 0.45148 0.05068 0.76458 0.0
O55 O 0.42316 0.03945 0.97671 0.0
Mg56 Mg 0.21714 0.82109 0.41718 0.0
O57 O 0.20951 0.79804 0.35905 0.0
O58 O 0.19338 0.7838 0.43382 0.0
Mg59 Mg 0.18855 0.79967 0.53826 0.0
C60 C 0.20151 0.78537 0.37287 0.0
C61 C 0.24076 0.82661 0.27585 0.0
O62 O 0.2519 0.82139 0.32245 0.0
O63 O 0.19319 0.83384 0.39493 0.0
O64 O 0.17667 0.81996 0.47044 0.0
O65 O 0.23584 0.8057 0.47511 0.0
O66 O 0.21212 0.8114 0.5239 0.0
C67 C 0.17929 0.83129 0.4232 0.0
C68 C 0.22533 0.8036 0.52834 0.0
O69 O 0.22649 0.8284 0.29994 0.0
Mg70 Mg 0.42935 0.9494 0.6279 0.0
O71 O 0.45062 0.94127 0.55651 0.0
O72 O 0.46379 0.9217 0.6158 0.0
Mg73 Mg 0.44937 0.91575 0.72315 0.0
C74 C 0.46236 0.93154 0.56074 0.0
C75 C 0.42382 0.97792 0.51104 0.0
O76 O 0.43017 0.98645 0.56605 0.0
O77 O 0.41389 0.92754 0.59649 0.0
O78 O 0.42694 0.908 0.65778 0.0
O79 O 0.4471 0.96506 0.69052 0.0
O80 O 0.44029 0.9406 0.72617 0.0
C81 C 0.41534 0.91284 0.61642 0.0
C82 C 0.44932 0.95292 0.73525 0.0
O83 O 0.42128 0.96304 0.52155 0.0
Mg84 Mg 0.28599 0.17388 0.91303 0.0
O85 O 0.29144 0.19761 0.85568 0.0
O86 O 0.30689 0.21286 0.92906 0.0
Mg87 Mg 0.31364 0.19711 0.03155 0.0
C88 C 0.29854 0.21081 0.86919 0.0
C89 C 0.26293 0.17056 0.77002 0.0
O90 O 0.25285 0.17833 0.81403 0.0
O91 O 0.31068 0.16312 0.8864 0.0
O92 O 0.32658 0.17798 0.96063 0.0
O93 O 0.26655 0.18752 0.97538 0.0
O94 O 0.29098 0.18358 0.0198 0.0
C95 C 0.32452 0.16663 0.91292 0.0
C96 C 0.27724 0.19027 0.0271 0.0
O97 O 0.27649 0.1663 0.79636 0.0
Mg98 Mg 0.07487 0.04836 0.15039 0.0
O99 O 0.0532 0.05713 0.08446 0.0
O100 O 0.04025 0.07622 0.14815 0.0
Mg101 Mg 0.05562 0.08141 0.25353 0.0
C102 C 0.04144 0.06676 0.0915 0.0
C103 C 0.08511 0.02101 0.02843 0.0
O104 O 0.08565 0.01112 0.08642 0.0
O105 O 0.09004 0.0704 0.11926 0.0
O106 O 0.07736 0.08966 0.18423 0.0
O107 O 0.05739 0.0324 0.21333 0.0
O108 O 0.06472 0.05651 0.25181 0.0
C109 C 0.08864 0.08503 0.14035 0.0
C110 C 0.0556 0.04424 0.26023 0.0
O111 O 0.08185 0.03574 0.03958 0.0
Mg112 Mg 0.79059 0.82664 0.92663 0.0
O113 O 0.79599 0.80322 0.86594 0.0
O114 O 0.81302 0.78845 0.93349 0.0
Mg115 Mg 0.82027 0.80393 0.03605 0.0
C116 C 0.80381 0.7903 0.8763 0.0
C117 C 0.76713 0.82812 0.78549 0.0
O118 O 0.75889 0.81787 0.82667 0.0
O119 O 0.81462 0.83824 0.8949 0.0
O120 O 0.83183 0.82382 0.96439 0.0
O121 O 0.77219 0.81241 0.99319 0.0
O122 O 0.79705 0.8167 0.03106 0.0
C123 C 0.82884 0.83523 0.91808 0.0
C124 C 0.78354 0.80973 0.04178 0.0
O125 O 0.77968 0.8345 0.81331 0.0
Mg126 Mg 0.92581 0.04976 0.65361 0.0
O127 O 0.94723 0.05693 0.58086 0.0
O128 O 0.96078 0.07665 0.63697 0.0
Mg129 Mg 0.94657 0.0836 0.74368 0.0
C130 C 0.95916 0.06646 0.58349 0.0
C131 C 0.92442 0.02273 0.53002 0.0
O132 O 0.93561 0.01682 0.57442 0.0
O133 O 0.91077 0.07169 0.61924 0.0
O134 O 0.92412 0.09133 0.67831 0.0
O135 O 0.94314 0.03416 0.71925 0.0
O136 O 0.93689 0.05901 0.75057 0.0
C137 C 0.91241 0.08645 0.63774 0.0
C138 C 0.94556 0.04655 0.76215 0.0
O139 O 0.91735 0.03562 0.54945 0.0
Mg140 Mg 0.71855 0.18394 0.43475 0.0
O141 O 0.71178 0.20691 0.37357 0.0
O142 O 0.69326 0.22055 0.43747 0.0
Mg143 Mg 0.6862 0.20436 0.53787 0.0
C144 C 0.70301 0.21927 0.38199 0.0
C145 C 0.73004 0.16643 0.27999 0.0
O146 O 0.72059 0.15459 0.30053 0.0
O147 O 0.69581 0.17058 0.3963 0.0
O148 O 0.67717 0.18391 0.46239 0.0
O149 O 0.73497 0.19945 0.50549 0.0
O150 O 0.71021 0.19318 0.53815 0.0
C151 C 0.68123 0.17279 0.41642 0.0
C152 C 0.72301 0.20122 0.55161 0.0
O153 O 0.732 0.17831 0.32434 0.0
Mg154 Mg 0.57853 0.94948 0.12743 0.0
O155 O 0.55725 0.94123 0.05649 0.0
O156 O 0.54404 0.92181 0.11679 0.0
Mg157 Mg 0.55846 0.91601 0.22418 0.0
C158 C 0.54548 0.93154 0.06128 0.0
C159 C 0.58505 0.978 0.01063 0.0
O160 O 0.57951 0.98685 0.06644 0.0
O161 O 0.59395 0.92752 0.09673 0.0
O162 O 0.58081 0.90811 0.15864 0.0
O163 O 0.56076 0.96524 0.1896 0.0
O164 O 0.56758 0.94085 0.22607 0.0
C165 C 0.59243 0.91285 0.11703 0.0
C166 C 0.55855 0.95317 0.23474 0.0
O167 O 0.58667 0.96296 0.02057 0.0
Mg168 Mg 0.7855 0.17589 0.59417 0.0
O169 O 0.79094 0.19886 0.65944 0.0
O170 O 0.80848 0.21397 0.59657 0.0
Mg171 Mg 0.81666 0.19886 0.49447 0.0
C172 C 0.79888 0.21181 0.65206 0.0
C173 C 0.76275 0.17722 0.73411 0.0
O174 O 0.75923 0.19077 0.69975 0.0
O175 O 0.80896 0.16365 0.63061 0.0
O176 O 0.82688 0.17844 0.56684 0.0
O177 O 0.76816 0.19071 0.52464 0.0
O178 O 0.79337 0.18633 0.49292 0.0
C179 C 0.82341 0.16678 0.61098 0.0
C180 C 0.78008 0.19348 0.47935 0.0
O181 O 0.77243 0.16752 0.70213 0.0
Mg182 Mg 0.58079 0.05335 0.36989 0.0
O183 O 0.55974 0.06153 0.44248 0.0
O184 O 0.5463 0.08098 0.38367 0.0
Mg185 Mg 0.56042 0.08694 0.27549 0.0
C186 C 0.54795 0.0712 0.43885 0.0
C187 C 0.58584 0.02489 0.48697 0.0
O188 O 0.57869 0.01669 0.43305 0.0
O189 O 0.59635 0.07525 0.40046 0.0
O190 O 0.58295 0.09465 0.33979 0.0
O191 O 0.56282 0.03772 0.30818 0.0
O192 O 0.56959 0.06214 0.27215 0.0
C193 C 0.59471 0.08993 0.38051 0.0
C194 C 0.56052 0.04985 0.26356 0.0
O195 O 0.58908 0.03962 0.47582 0.0
Mg196 Mg 0.7187 0.82192 0.08899 0.0
O197 O 0.71229 0.79903 0.15204 0.0
O198 O 0.6955 0.78423 0.08334 0.0
Mg199 Mg 0.68908 0.79938 0.97849 0.0
C200 C 0.70432 0.7862 0.14177 0.0
C201 C 0.74256 0.82574 0.2298 0.0
O202 O 0.75226 0.81703 0.1879 0.0
O203 O 0.6948 0.83436 0.11616 0.0
O204 O 0.67766 0.81983 0.04679 0.0
O205 O 0.73699 0.80663 0.02664 0.0
O206 O 0.71254 0.8116 0.9851 0.0
C207 C 0.68063 0.83145 0.0919 0.0
C208 C 0.72583 0.80409 0.97697 0.0
O209 O 0.72914 0.83019 0.20266 0.0
Mg210 Mg 0.93057 0.95323 0.87559 0.0
O211 O 0.95237 0.94452 0.94123 0.0
O212 O 0.96543 0.92574 0.87603 0.0
Mg213 Mg 0.95019 0.92078 0.76997 0.0
C214 C 0.9642 0.93501 0.93335 0.0
C215 C 0.92124 0.98039 0.99831 0.0
O216 O 0.92231 0.99044 0.9411 0.0
O217 O 0.91557 0.93091 0.90446 0.0
O218 O 0.9284 0.91204 0.83763 0.0
O219 O 0.94786 0.96961 0.81397 0.0
O220 O 0.94078 0.94554 0.77379 0.0
C221 C 0.91705 0.9164 0.88171 0.0
C222 C 0.94973 0.95796 0.76612 0.0
O223 O 0.92328 0.96546 0.98674 0.0
Mg224 Mg 0.71548 0.67442 0.59135 0.0
O225 O 0.70949 0.69758 0.65286 0.0
O226 O 0.69302 0.71254 0.58314 0.0
Mg227 Mg 0.68643 0.69725 0.4789 0.0
C228 C 0.70178 0.71055 0.64178 0.0
C229 C 0.73833 0.6729 0.73372 0.0
O230 O 0.74658 0.68319 0.69283 0.0
O231 O 0.69138 0.66246 0.61888 0.0
O232 O 0.67467 0.67698 0.54722 0.0
O233 O 0.73411 0.68909 0.52879 0.0
O234 O 0.70962 0.68457 0.48663 0.0
C235 C 0.67735 0.66543 0.5932 0.0
C236 C 0.7231 0.69174 0.47856 0.0
O237 O 0.72588 0.66643 0.70538 0.0
Mg238 Mg 0.56904 0.45442 0.85467 0.0
O239 O 0.54753 0.4463 0.92438 0.0
O240 O 0.5354 0.42551 0.86975 0.0
Mg241 Mg 0.55091 0.4188 0.76691 0.0
C242 C 0.53618 0.4361 0.92189 0.0
C243 C 0.58652 0.47052 1.00162 0.0
O244 O 0.59888 0.4612 0.98752 0.0
O245 O 0.58492 0.43369 0.89693 0.0
O246 O 0.57293 0.41298 0.83934 0.0
O247 O 0.55146 0.46848 0.78433 0.0
O248 O 0.55931 0.44382 0.75724 0.0
C249 C 0.58399 0.41871 0.88149 0.0
C250 C 0.54997 0.4557 0.74309 0.0
O251 O 0.57454 0.47042 0.95699 0.0
Mg252 Mg 0.78219 0.32381 0.09179 0.0
O253 O 0.78942 0.30093 0.15239 0.0
O254 O 0.80585 0.28641 0.08033 0.0
Mg255 Mg 0.81122 0.30187 0.9751 0.0
C256 C 0.79745 0.28821 0.1403 0.0
C257 C 0.75863 0.32823 0.2333 0.0
O258 O 0.74838 0.3207 0.1894 0.0
O259 O 0.80609 0.33643 0.11559 0.0
O260 O 0.8229 0.3223 0.04267 0.0
O261 O 0.76366 0.30832 0.03296 0.0
O262 O 0.78763 0.3137 0.98635 0.0
C263 C 0.82011 0.33376 0.08896 0.0
C264 C 0.77439 0.30598 0.981 0.0
O265 O 0.77244 0.33176 0.20752 0.0
Mg266 Mg 0.92256 0.55073 0.36356 0.0
O267 O 0.94447 0.55727 0.43398 0.0
O268 O 0.95826 0.57671 0.37675 0.0
Mg269 Mg 0.94364 0.58423 0.27234 0.0
C270 C 0.95661 0.56651 0.4302 0.0
C271 C 0.91879 0.52253 0.48318 0.0
O272 O 0.92764 0.51483 0.43337 0.0
O273 O 0.9084 0.57298 0.40096 0.0
O274 O 0.92205 0.59253 0.3426 0.0
O275 O 0.93924 0.53484 0.29561 0.0
O276 O 0.93337 0.55988 0.26574 0.0
C277 C 0.91047 0.58779 0.38442 0.0
C278 C 0.94174 0.54725 0.2529 0.0
O279 O 0.91417 0.53673 0.46838 0.0
Mg280 Mg 0.71215 0.33128 0.93266 0.0
O281 O 0.7061 0.30775 0.87478 0.0
O282 O 0.68968 0.29309 0.94621 0.0
Mg283 Mg 0.68316 0.309 0.0484 0.0
C284 C 0.69842 0.29483 0.88732 0.0
C285 C 0.73529 0.33213 0.79084 0.0
O286 O 0.74366 0.32239 0.83411 0.0
O287 O 0.688 0.34295 0.90358 0.0
O288 O 0.67133 0.32867 0.97666 0.0
O289 O 0.73083 0.31701 0.99653 0.0
O290 O 0.70634 0.32165 0.03871 0.0
C291 C 0.67396 0.33995 0.92915 0.0
C292 C 0.71983 0.31448 0.04699 0.0
O293 O 0.72261 0.33853 0.81727 0.0
Mg294 Mg 0.92233 0.45098 0.13343 0.0
O295 O 0.94407 0.44273 0.06587 0.0
O296 O 0.95722 0.42364 0.12867 0.0
Mg297 Mg 0.94219 0.41799 0.23444 0.0
C298 C 0.95593 0.4332 0.07244 0.0
C299 C 0.91601 0.47891 0.01272 0.0
O300 O 0.9208 0.48827 0.06824 0.0
O301 O 0.9074 0.4288 0.10209 0.0
O302 O 0.92042 0.40959 0.16588 0.0
O303 O 0.93959 0.4671 0.19654 0.0
O304 O 0.93276 0.44275 0.23389 0.0
C305 C 0.90902 0.41416 0.12265 0.0
C306 C 0.94165 0.45518 0.24273 0.0
O307 O 0.91475 0.4639 0.02437 0.0
Mg308 Mg 0.78535 0.67976 0.43224 0.0
O309 O 0.79236 0.70267 0.37123 0.0
O310 O 0.80901 0.71716 0.44216 0.0
Mg311 Mg 0.81466 0.70163 0.547 0.0
C312 C 0.80043 0.71539 0.38277 0.0
C313 C 0.76178 0.6755 0.29036 0.0
O314 O 0.75149 0.6833 0.33307 0.0
O315 O 0.80914 0.66718 0.40689 0.0
O316 O 0.82624 0.68114 0.47896 0.0
O317 O 0.76693 0.69512 0.49228 0.0
O318 O 0.79104 0.68975 0.53741 0.0
C319 C 0.82324 0.66972 0.43274 0.0
C320 C 0.77775 0.69735 0.54387 0.0
O321 O 0.77544 0.67181 0.31723 0.0
Mg322 Mg 0.57319 0.5498 0.63382 0.0
O323 O 0.55206 0.55743 0.55909 0.0
O324 O 0.53897 0.57768 0.61351 0.0
Mg325 Mg 0.55321 0.58468 0.71966 0.0
C326 C 0.54039 0.56729 0.56074 0.0
C327 C 0.57105 0.5249 0.5048 0.0
O328 O 0.55692 0.52382 0.53742 0.0
O329 O 0.58891 0.57113 0.597 0.0
O330 O 0.57576 0.59136 0.65278 0.0
O331 O 0.55538 0.53499 0.70028 0.0
O332 O 0.56212 0.55988 0.72893 0.0
C333 C 0.58742 0.58604 0.61305 0.0
C334 C 0.55312 0.54767 0.74143 0.0
O335 O 0.58149 0.53425 0.53351 0.0
Mg336 Mg 0.28178 0.32057 0.41466 0.0
O337 O 0.28781 0.29743 0.35299 0.0
O338 O 0.30468 0.2827 0.42161 0.0
Mg339 Mg 0.31146 0.29814 0.52513 0.0
C340 C 0.29571 0.28457 0.36361 0.0
C341 C 0.25817 0.32329 0.27321 0.0
O342 O 0.2491 0.31373 0.31413 0.0
O343 O 0.30565 0.33262 0.38521 0.0
O344 O 0.32291 0.31839 0.45524 0.0
O345 O 0.26349 0.30577 0.47881 0.0
O346 O 0.28809 0.31057 0.51904 0.0
C347 C 0.31985 0.32984 0.40924 0.0
C348 C 0.27469 0.30331 0.52835 0.0
O349 O 0.27117 0.32864 0.30119 0.0
Mg350 Mg 0.42363 0.54863 0.13155 0.0
O351 O 0.44466 0.55743 0.06085 0.0
O352 O 0.45783 0.57677 0.12179 0.0
Mg353 Mg 0.44338 0.58209 0.22967 0.0
C354 C 0.45634 0.56721 0.0657 0.0
C355 C 0.41761 0.52066 0.01015 0.0
O356 O 0.42366 0.51144 0.06343 0.0
O357 O 0.40798 0.5705 0.10224 0.0
O358 O 0.42101 0.58997 0.16408 0.0
O359 O 0.44173 0.53292 0.19198 0.0
O360 O 0.43464 0.55709 0.23044 0.0
C361 C 0.40943 0.58518 0.12248 0.0
C362 C 0.44389 0.54488 0.23778 0.0
O363 O 0.41555 0.53552 0.02348 0.0
Mg364 Mg 0.21255 0.67397 0.91559 0.0
O365 O 0.20763 0.69705 0.85141 0.0
O366 O 0.19048 0.71241 0.91521 0.0
Mg367 Mg 0.1824 0.69746 0.01829 0.0
C368 C 0.19993 0.71012 0.85928 0.0
C369 C 0.23636 0.67263 0.77673 0.0
O370 O 0.24367 0.68374 0.81677 0.0
O371 O 0.18868 0.66234 0.8819 0.0
O372 O 0.1712 0.67719 0.9478 0.0
O373 O 0.23059 0.6884 0.98329 0.0
O374 O 0.20548 0.68444 0.01799 0.0
C375 C 0.17436 0.66552 0.90322 0.0
C376 C 0.21897 0.69135 0.03002 0.0
O377 O 0.22419 0.66556 0.80472 0.0
Mg378 Mg 0.07127 0.44924 0.63378 0.0
O379 O 0.04944 0.44196 0.56414 0.0
O380 O 0.03595 0.42265 0.62385 0.0
Mg381 Mg 0.05062 0.41602 0.7294 0.0
C382 C 0.03744 0.43257 0.56911 0.0
C383 C 0.0761 0.47732 0.5139 0.0
O384 O 0.0686 0.48574 0.56598 0.0
O385 O 0.08578 0.42697 0.59979 0.0
O386 O 0.07241 0.4076 0.66091 0.0
O387 O 0.05436 0.46533 0.69897 0.0
O388 O 0.0605 0.44057 0.73262 0.0
C389 C 0.08395 0.41225 0.61859 0.0
C390 C 0.05195 0.45316 0.7433 0.0
O391 O 0.0795 0.46272 0.52732 0.0
Mg392 Mg 0.28372 0.67691 0.07846 0.0
O393 O 0.29094 0.70001 0.13751 0.0
O394 O 0.30762 0.71414 0.06496 0.0
Mg395 Mg 0.31318 0.69822 0.9616 0.0
C396 C 0.29908 0.71264 0.12466 0.0
C397 C 0.25965 0.67238 0.21913 0.0
O398 O 0.24897 0.67884 0.17364 0.0
O399 O 0.30751 0.6642 0.10471 0.0
O400 O 0.32459 0.67805 0.03192 0.0
O401 O 0.2654 0.69224 0.01723 0.0
O402 O 0.28947 0.68659 0.97251 0.0
C403 C 0.32162 0.66676 0.07893 0.0
C404 C 0.27631 0.6944 0.96586 0.0
O405 O 0.2737 0.66956 0.19443 0.0
Mg406 Mg 0.07204 0.54853 0.8631 0.0
O407 O 0.05028 0.55648 0.93137 0.0
O408 O 0.03688 0.57549 0.86919 0.0
Mg409 Mg 0.05173 0.58133 0.76292 0.0
C410 C 0.03832 0.5659 0.92524 0.0
C411 C 0.07778 0.52067 0.98384 0.0
O412 O 0.07196 0.51161 0.92944 0.0
O413 O 0.08682 0.57086 0.89411 0.0
O414 O 0.07358 0.58992 0.8303 0.0
O415 O 0.0549 0.53229 0.79971 0.0
O416 O 0.06152 0.55673 0.763 0.0
C417 C 0.0851 0.58546 0.87317 0.0
C418 C 0.05281 0.54422 0.75359 0.0
O419 O 0.07989 0.53557 0.97159 0.0
Mg420 Mg 0.2112 0.32341 0.5745 0.0
O421 O 0.20529 0.3 0.63402 0.0
O422 O 0.18873 0.2853 0.56364 0.0
Mg423 Mg 0.1821 0.30098 0.46071 0.0
C424 C 0.19755 0.28709 0.6222 0.0
C425 C 0.23434 0.32528 0.7169 0.0
O426 O 0.24319 0.31567 0.67521 0.0
O427 O 0.1871 0.33507 0.60349 0.0
O428 O 0.17022 0.32085 0.5314 0.0
O429 O 0.22987 0.30909 0.51099 0.0
O430 O 0.20534 0.31361 0.46907 0.0
C431 C 0.17301 0.33217 0.57843 0.0
C432 C 0.21885 0.30651 0.46067 0.0
O433 O 0.22152 0.33111 0.68912 0.0
Mg434 Mg 0.41994 0.44859 0.35867 0.0
O435 O 0.44177 0.44099 0.42672 0.0
O436 O 0.4555 0.42204 0.3657 0.0
Mg437 Mg 0.44069 0.41578 0.26 0.0
C438 C 0.45386 0.43173 0.42123 0.0
C439 C 0.41622 0.47602 0.48228 0.0
O440 O 0.42427 0.48426 0.43138 0.0
O441 O 0.40555 0.42613 0.39133 0.0
O442 O 0.41906 0.40707 0.32873 0.0
O443 O 0.43679 0.46493 0.29424 0.0
O444 O 0.43064 0.4403 0.25877 0.0
C445 C 0.40752 0.41148 0.37159 0.0
C446 C 0.43916 0.45294 0.24884 0.0
O447 O 0.41199 0.46171 0.46697 0.0
H448 H 0.28432 0.16588 0.65426 0.0
H449 H 0.2187 0.16174 0.32588 0.0
H450 H 0.2337 0.17138 0.69872 0.0
H451 H 0.26621 0.18071 0.28777 0.0
H452 H 0.22489 0.15919 0.46117 0.0
H453 H 0.27859 0.1653 0.51794 0.0
C454 C 0.27198 0.16674 0.63546 0.0
C455 C 0.25945 0.16868 0.68802 0.0
C456 C 0.23398 0.16379 0.42299 0.0
C457 C 0.25287 0.16791 0.53223 0.0
C458 C 0.23051 0.16515 0.34572 0.0
C459 C 0.24196 0.17146 0.29538 0.0
C460 C 0.2491 0.16846 0.45002 0.0
C461 C 0.25702 0.17583 0.32457 0.0
C462 C 0.26875 0.16651 0.55768 0.0
C463 C 0.24371 0.16989 0.66023 0.0
N464 N 0.26018 0.1742 0.39995 0.0
N465 N 0.24086 0.16943 0.58423 0.0
H466 H 0.07002 0.00673 0.5498 0.0
H467 H 0.09454 0.991 0.98059 0.0
H468 H 0.09757 0.96537 0.6188 0.0
H469 H 0.07921 0.03717 0.89618 0.0
H470 H 0.09529 0.98098 0.84984 0.0
H471 H 0.07281 0.01776 0.67744 0.0
C472 C 0.07678 1.00002 0.59163 0.0
C473 C 0.08355 0.98509 0.57348 0.0
C474 C 0.0919 0.99334 0.86003 0.0
C475 C 0.08662 0.99758 0.72044 0.0
C476 C 0.09143 0.99906 0.93467 0.0
C477 C 0.08676 0.01495 0.9496 0.0
C478 C 0.08746 0.0035 0.79995 0.0
C479 C 0.0829 0.02484 0.88764 0.0
C480 C 0.07838 0.00634 0.66457 0.0
C481 C 0.09219 0.97695 0.63016 0.0
N482 N 0.0832 0.01892 0.81583 0.0
N483 N 0.09333 0.98322 0.70129 0.0
H484 H 0.27013 0.82935 0.20637 0.0
H485 H 0.23643 0.81685 0.78974 0.0
H486 H 0.21937 0.82812 0.15836 0.0
H487 H 0.28244 0.83893 0.8313 0.0
H488 H 0.23037 0.81883 0.92543 0.0
H489 H 0.27551 0.83081 0.06969 0.0
C490 C 0.26013 0.8295 0.16719 0.0
C491 C 0.24428 0.82865 0.19392 0.0
C492 C 0.24172 0.82338 0.90465 0.0
C493 C 0.25036 0.83004 0.03766 0.0
C494 C 0.24519 0.82225 0.82725 0.0
C495 C 0.25995 0.82777 0.79905 0.0
C496 C 0.25321 0.82977 0.95451 0.0
C497 C 0.27087 0.83461 0.85044 0.0
C498 C 0.2632 0.83037 0.08927 0.0
C499 C 0.23177 0.82885 0.14044 0.0
N500 N 0.26737 0.83524 0.92577 0.0
N501 N 0.23508 0.82934 0.06494 0.0
H502 H 0.42632 0.99271 0.02681 0.0
H503 H 0.42451 0.00975 0.47141 0.0
H504 H 0.41883 0.03995 0.12077 0.0
H505 H 0.41803 0.96244 0.37655 0.0
H506 H 0.42297 0.02109 0.34356 0.0
H507 H 0.42385 0.98133 0.15431 0.0
C508 C 0.42404 0.00068 0.0741 0.0
C509 C 0.42282 0.01732 0.06296 0.0
C510 C 0.42173 0.00824 0.3508 0.0
C511 C 0.42017 0.00438 0.20929 0.0
C512 C 0.42263 0.00175 0.42381 0.0
C513 C 0.42143 0.98511 0.43484 0.0
C514 C 0.41986 0.998 0.28808 0.0
C515 C 0.41899 0.97534 0.37088 0.0
C516 C 0.4226 0.99417 0.1469 0.0
C517 C 0.41983 0.02706 0.12652 0.0
N518 N 0.41845 0.98191 0.30027 0.0
N519 N 0.41877 0.02046 0.19694 0.0
H520 H 0.7215 0.83318 0.34346 0.0
H521 H 0.78699 0.83846 0.67185 0.0
H522 H 0.77175 0.8243 0.30167 0.0
H523 H 0.73853 0.82247 0.71348 0.0
H524 H 0.78111 0.83946 0.53571 0.0
H525 H 0.72724 0.83541 0.47924 0.0
C526 C 0.73378 0.83192 0.36265 0.0
C527 C 0.74618 0.82854 0.31105 0.0
C528 C 0.77176 0.83586 0.57484 0.0
C529 C 0.75278 0.8312 0.46633 0.0
C530 C 0.77505 0.83539 0.65254 0.0
C531 C 0.76322 0.83037 0.70416 0.0
C532 C 0.75645 0.83159 0.54864 0.0
C533 C 0.748 0.82638 0.6757 0.0
C534 C 0.73701 0.8331 0.44018 0.0
C535 C 0.76184 0.82688 0.33944 0.0
N536 N 0.74503 0.82713 0.59986 0.0
N537 N 0.76471 0.82828 0.41519 0.0
H538 H 0.9336 0.99308 0.47952 0.0
H539 H 0.91369 0.01092 0.04572 0.0
H540 H 0.90902 0.03606 0.40755 0.0
H541 H 0.9246 0.96357 0.1307 0.0
H542 H 0.91253 0.02077 0.17666 0.0
H543 H 0.93105 0.98235 0.35111 0.0
C544 C 0.92754 1.00021 0.43687 0.0
C545 C 0.92153 0.0155 0.45439 0.0
C546 C 0.91504 0.0082 0.16654 0.0
C547 C 0.91876 0.00337 0.30671 0.0
C548 C 0.91573 0.00257 0.09181 0.0
C549 C 0.91929 0.9864 0.07704 0.0
C550 C 0.91815 0.99762 0.22691 0.0
C551 C 0.9218 0.97613 0.13917 0.0
C552 C 0.92607 0.99407 0.36352 0.0
C553 C 0.91378 0.02419 0.39669 0.0
N554 N 0.92133 0.98194 0.21116 0.0
N555 N 0.91277 0.01808 0.32525 0.0
H556 H 0.76282 0.14909 0.81638 0.0
H557 H 0.7423 0.19262 0.20674 0.0
H558 H 0.75084 0.19937 0.83299 0.0
H559 H 0.73193 0.14234 0.17337 0.0
H560 H 0.75017 0.19466 0.07377 0.0
H561 H 0.75549 0.14577 0.95069 0.0
C562 C 0.75858 0.15939 0.84805 0.0
C563 C 0.75738 0.17452 0.81329 0.0
C564 C 0.74624 0.18316 0.09563 0.0
C565 C 0.74938 0.17086 0.96675 0.0
C566 C 0.74185 0.18194 0.17176 0.0
C567 C 0.73639 0.16727 0.2014 0.0
C568 C 0.74541 0.1696 0.04864 0.0
C569 C 0.73601 0.15389 0.15288 0.0
C570 C 0.75441 0.15748 0.92453 0.0
C571 C 0.75185 0.18746 0.85712 0.0
N572 N 0.74049 0.15535 0.07883 0.0
N573 N 0.74821 0.18537 0.93157 0.0
H574 H 0.58599 0.00987 0.97152 0.0
H575 H 0.58387 0.99313 0.52649 0.0
H576 H 0.58995 0.96237 0.87571 0.0
H577 H 0.59323 0.04 0.62079 0.0
H578 H 0.58564 0.98164 0.65392 0.0
H579 H 0.5882 0.02123 0.84385 0.0
C580 C 0.58744 0.00183 0.92376 0.0
C581 C 0.58774 0.98513 0.93448 0.0
C582 C 0.58745 0.99442 0.64666 0.0
C583 C 0.5901 0.99806 0.78795 0.0
C584 C 0.58643 0.00099 0.57388 0.0
C585 C 0.58837 0.01757 0.56281 0.0
C586 C 0.59022 0.0045 0.7092 0.0
C587 C 0.59168 0.02716 0.6265 0.0
C588 C 0.58873 0.00833 0.85086 0.0
C589 C 0.58968 0.97531 0.87032 0.0
N590 N 0.59234 0.02051 0.69696 0.0
N591 N 0.59062 0.98191 0.79986 0.0
H592 H 0.71844 0.66214 0.8464 0.0
H593 H 0.78325 0.66904 0.17717 0.0
H594 H 0.76666 0.67909 0.80695 0.0
H595 H 0.73265 0.67607 0.21749 0.0
H596 H 0.77781 0.66676 0.04125 0.0
H597 H 0.72407 0.66123 0.98278 0.0
C598 C 0.73029 0.66544 0.86625 0.0
C599 C 0.74211 0.67071 0.81517 0.0
C600 C 0.7679 0.66869 0.07999 0.0
C601 C 0.7486 0.6696 0.97093 0.0
C602 C 0.77097 0.6699 0.15762 0.0
C603 C 0.75837 0.67277 0.20887 0.0
C604 C 0.75211 0.67005 0.05335 0.0
C605 C 0.74271 0.6739 0.18001 0.0
C606 C 0.73343 0.66502 0.94407 0.0
C607 C 0.75719 0.67499 0.84429 0.0
N608 N 0.74001 0.67248 0.10413 0.0
N609 N 0.76002 0.6743 0.92023 0.0
H610 H 0.54895 0.51064 0.41337 0.0
H611 H 0.61033 0.47656 0.10654 0.0
H612 H 0.59972 0.5203 0.42933 0.0
H613 H 0.56006 0.4849 0.06234 0.0
H614 H 0.60725 0.48997 0.22998 0.0
H615 H 0.55333 0.498 0.29062 0.0
C616 C 0.56106 0.51001 0.39134 0.0
C617 C 0.57399 0.51655 0.43185 0.0
C618 C 0.59697 0.48893 0.19279 0.0
C619 C 0.57909 0.50204 0.29058 0.0
C620 C 0.5987 0.48128 0.12245 0.0
C621 C 0.58544 0.47959 0.07388 0.0
C622 C 0.58182 0.49464 0.21506 0.0
C623 C 0.57065 0.48594 0.09754 0.0
C624 C 0.56354 0.50287 0.32087 0.0
C625 C 0.58941 0.51544 0.39991 0.0
N626 N 0.56923 0.49303 0.16651 0.0
N627 N 0.59156 0.50826 0.33117 0.0
H628 H 0.72919 0.32761 0.3031 0.0
H629 H 0.76402 0.32593 0.72128 0.0
H630 H 0.77957 0.33467 0.34895 0.0
H631 H 0.71574 0.3418 0.67454 0.0
H632 H 0.76978 0.3266 0.58494 0.0
H633 H 0.72364 0.3303 0.43922 0.0
C634 C 0.73906 0.32984 0.34165 0.0
C635 C 0.75486 0.33097 0.31451 0.0
C636 C 0.75798 0.33008 0.6047 0.0
C637 C 0.74862 0.33375 0.47021 0.0
C638 C 0.75468 0.32969 0.68243 0.0
C639 C 0.7394 0.33388 0.70941 0.0
C640 C 0.74581 0.33433 0.55336 0.0
C641 C 0.72772 0.33859 0.65635 0.0
C642 C 0.73588 0.3314 0.41923 0.0
C643 C 0.76719 0.33382 0.3672 0.0
N644 N 0.73111 0.3385 0.58083 0.0
N645 N 0.76384 0.33492 0.44253 0.0
H646 H 0.91402 0.51046 0.96874 0.0
H647 H 0.92299 0.49133 0.52838 0.0
H648 H 0.91342 0.46224 0.87934 0.0
H649 H 0.90824 0.53774 0.61181 0.0
H650 H 0.92038 0.48052 0.65688 0.0
H651 H 0.91273 0.52089 0.83896 0.0
C652 C 0.91349 0.50206 0.92193 0.0
C653 C 0.91386 0.48545 0.93507 0.0
C654 C 0.91757 0.49303 0.64692 0.0
C655 C 0.91258 0.4973 0.78631 0.0
C656 C 0.91908 0.49922 0.57356 0.0
C657 C 0.91585 0.51547 0.55921 0.0
C658 C 0.91306 0.50322 0.70675 0.0
C659 C 0.91082 0.52512 0.62011 0.0
C660 C 0.91273 0.50802 0.84785 0.0
C661 C 0.91313 0.47514 0.87206 0.0
N662 N 0.90974 0.51889 0.69129 0.0
N663 N 0.91269 0.48123 0.80051 0.0
H664 H 0.21377 0.33421 0.83028 0.0
H665 H 0.27888 0.3323 0.16072 0.0
H666 H 0.26308 0.3209 0.7897 0.0
H667 H 0.22926 0.32006 0.20027 0.0
H668 H 0.27324 0.33435 0.02477 0.0
H669 H 0.21939 0.33526 0.96662 0.0
C670 C 0.22584 0.33174 0.84988 0.0
C671 C 0.23799 0.32746 0.79848 0.0
C672 C 0.26358 0.33134 0.06339 0.0
C673 C 0.24445 0.32875 0.95422 0.0
C674 C 0.26675 0.33026 0.141 0.0
C675 C 0.25451 0.326 0.19198 0.0
C676 C 0.24801 0.32844 0.03659 0.0
C677 C 0.23905 0.32335 0.16296 0.0
C678 C 0.22897 0.33223 0.92768 0.0
C679 C 0.25336 0.32423 0.82731 0.0
N680 N 0.23621 0.32468 0.08716 0.0
N681 N 0.25617 0.32499 0.90327 0.0
H682 H 0.40777 0.4599 0.61206 0.0
H683 H 0.41234 0.53751 0.87897 0.0
H684 H 0.41939 0.50723 0.52907 0.0
H685 H 0.41685 0.48916 0.96427 0.0
H686 H 0.4101 0.52682 0.75024 0.0
H687 H 0.40626 0.47074 0.74101 0.0
C688 C 0.40981 0.47261 0.62074 0.0
C689 C 0.41377 0.48267 0.55954 0.0
C690 C 0.41148 0.51855 0.7972 0.0
C691 C 0.41203 0.49513 0.70711 0.0
C692 C 0.41269 0.52463 0.87083 0.0
C693 C 0.41485 0.51422 0.93269 0.0
C694 C 0.41226 0.50191 0.78512 0.0
C695 C 0.41527 0.49764 0.91835 0.0
C696 C 0.40903 0.47876 0.69446 0.0
C697 C 0.41637 0.49902 0.57447 0.0
N698 N 0.414 0.492 0.84612 0.0
N699 N 0.41546 0.50473 0.64665 0.0
H700 H 0.2302 0.67126 0.28892 0.0
H701 H 0.26455 0.68035 0.70565 0.0
H702 H 0.28096 0.66887 0.33592 0.0
H703 H 0.21786 0.65984 0.66347 0.0
H704 H 0.27043 0.67862 0.56961 0.0
H705 H 0.22483 0.66949 0.42561 0.0
C706 C 0.2402 0.67025 0.32786 0.0
C707 C 0.25605 0.67017 0.30088 0.0
C708 C 0.25897 0.67435 0.59035 0.0
C709 C 0.25 0.66845 0.45708 0.0
C710 C 0.2556 0.67534 0.66791 0.0
C711 C 0.24072 0.67017 0.69603 0.0
C712 C 0.24723 0.6685 0.54029 0.0
C713 C 0.22954 0.66385 0.64439 0.0
C714 C 0.23713 0.66921 0.40575 0.0
C715 C 0.26855 0.66888 0.35404 0.0
N716 N 0.23294 0.66338 0.56892 0.0
N717 N 0.26527 0.66826 0.42956 0.0
H718 H 0.0739 0.50879 0.46941 0.0
H719 H 0.0781 0.48909 0.02786 0.0
H720 H 0.08434 0.46143 0.38343 0.0
H721 H 0.08245 0.53718 0.11647 0.0
H722 H 0.07966 0.47861 0.15742 0.0
H723 H 0.07627 0.51943 0.34048 0.0
C724 C 0.07681 0.50064 0.42357 0.0
C725 C 0.07889 0.48418 0.43736 0.0
C726 C 0.08042 0.49145 0.14841 0.0
C727 C 0.08142 0.49626 0.28938 0.0
C728 C 0.07951 0.49744 0.07445 0.0
C729 C 0.08012 0.51404 0.06117 0.0
C730 C 0.08171 0.50214 0.20976 0.0
C731 C 0.08197 0.52429 0.12388 0.0
C732 C 0.07819 0.50673 0.34996 0.0
C733 C 0.08267 0.4742 0.3756 0.0
N734 N 0.08253 0.51819 0.1954 0.0
N735 N 0.08365 0.48037 0.30429 0.0
H736 H 0.12019 0.07924 0.10407 0.0
H737 H 0.14389 0.17207 0.08553 0.0
H738 H 0.08624 0.11766 0.13864 0.0
H739 H 0.17884 0.13461 0.12134 0.0
H740 H 0.12251 0.15214 0.0948 0.0
H741 H 0.14178 0.0992 0.09512 0.0
C742 C 0.11723 0.09186 0.10838 0.0
C743 C 0.10139 0.09679 0.12219 0.0
C744 C 0.13484 0.14828 0.10135 0.0
C745 C 0.126 0.1196 0.11305 0.0
C746 C 0.14706 0.15967 0.09641 0.0
C747 C 0.16318 0.15501 0.10286 0.0
C748 C 0.13874 0.13203 0.11161 0.0
C749 C 0.16656 0.13875 0.11671 0.0
C750 C 0.12958 0.10322 0.10425 0.0
C751 C 0.09828 0.11331 0.12826 0.0
N752 N 0.15445 0.1278 0.11979 0.0
N753 N 0.11046 0.1241 0.12371 0.0
H754 H 0.14709 0.82626 0.43767 0.0
H755 H 0.12437 0.91942 0.4188 0.0
H756 H 0.18165 0.86308 0.38337 0.0
H757 H 0.08937 0.88134 0.40579 0.0
H758 H 0.14576 0.89919 0.42247 0.0
H759 H 0.12591 0.8465 0.43734 0.0
C760 C 0.15019 0.83859 0.42465 0.0
C761 C 0.16617 0.84297 0.41028 0.0
C762 C 0.13338 0.8953 0.41943 0.0
C763 C 0.142 0.86631 0.41173 0.0
C764 C 0.12116 0.90682 0.4184 0.0
C765 C 0.10505 0.90206 0.4119 0.0
C766 C 0.12943 0.87892 0.41481 0.0
C767 C 0.10162 0.88556 0.41052 0.0
C768 C 0.1381 0.85015 0.42485 0.0
C769 C 0.16948 0.85914 0.39402 0.0
N770 N 0.11368 0.87461 0.41175 0.0
N771 N 0.15752 0.87027 0.39594 0.0
H772 H 0.38349 0.91911 0.58854 0.0
H773 H 0.3583 0.82649 0.58623 0.0
H774 H 0.41723 0.88018 0.61365 0.0
H775 H 0.32421 0.86475 0.62151 0.0
H776 H 0.38002 0.84612 0.5885 0.0
H777 H 0.36151 0.89949 0.58712 0.0
C778 C 0.3863 0.90644 0.59221 0.0
C779 C 0.40223 0.90128 0.60126 0.0
C780 C 0.36781 0.85023 0.59653 0.0
C781 C 0.37717 0.87885 0.60098 0.0
C782 C 0.3554 0.83901 0.59569 0.0
C783 C 0.3394 0.84397 0.60387 0.0
C784 C 0.36424 0.86661 0.60446 0.0
C785 C 0.33637 0.86037 0.61568 0.0
C786 C 0.37375 0.89528 0.59244 0.0
C787 C 0.40514 0.88471 0.60683 0.0
N788 N 0.34867 0.87114 0.61475 0.0
N789 N 0.39276 0.87413 0.60674 0.0
H790 H 0.35638 0.17393 0.92224 0.0
H791 H 0.38493 0.08241 0.91167 0.0
H792 H 0.32411 0.13474 0.87397 0.0
H793 H 0.41745 0.12246 0.89005 0.0
H794 H 0.36234 0.10129 0.91345 0.0
H795 H 0.37886 0.15514 0.92053 0.0
C796 C 0.35405 0.1614 0.91013 0.0
C797 C 0.33833 0.15591 0.89802 0.0
C798 C 0.37444 0.10592 0.90882 0.0
C799 C 0.36401 0.13424 0.89806 0.0
C800 C 0.38735 0.09517 0.90886 0.0
C801 C 0.40311 0.10087 0.90066 0.0
C802 C 0.37735 0.12246 0.90145 0.0
C803 C 0.40551 0.11753 0.8962 0.0
C804 C 0.36689 0.15066 0.90957 0.0
C805 C 0.33604 0.13952 0.88288 0.0
N806 N 0.39279 0.12772 0.89655 0.0
N807 N 0.34872 0.12922 0.88419 0.0
H808 H 0.88539 0.92204 0.91593 0.0
H809 H 0.86106 0.82932 0.91954 0.0
H810 H 0.91938 0.88374 0.87947 0.0
H811 H 0.82665 0.86722 0.88259 0.0
H812 H 0.88265 0.84912 0.915 0.0
H813 H 0.8637 0.90213 0.91937 0.0
C814 C 0.88833 0.90944 0.91013 0.0
C815 C 0.90423 0.90455 0.89737 0.0
C816 C 0.8704 0.8531 0.9071 0.0
C817 C 0.8795 0.88179 0.90014 0.0
C818 C 0.85807 0.84179 0.90928 0.0
C819 C 0.84202 0.84661 0.90121 0.0
C820 C 0.86668 0.86942 0.89811 0.0
C821 C 0.83885 0.86294 0.88837 0.0
C822 C 0.87593 0.89811 0.91108 0.0
C823 C 0.90731 0.88806 0.8892 0.0
N824 N 0.85106 0.8738 0.88812 0.0
N825 N 0.89507 0.8773 0.89068 0.0
H826 H 0.85548 0.17288 0.61863 0.0
H827 H 0.88058 0.08021 0.6089 0.0
H828 H 0.82108 0.13441 0.63851 0.0
H829 H 0.91425 0.11913 0.6364 0.0
H830 H 0.85857 0.09977 0.60886 0.0
H831 H 0.87714 0.15323 0.62062 0.0
C832 C 0.8525 0.16029 0.62477 0.0
C833 C 0.83644 0.15529 0.62852 0.0
C834 C 0.87079 0.104 0.6144 0.0
C835 C 0.86123 0.13261 0.62872 0.0
C836 C 0.88338 0.09287 0.61336 0.0
C837 C 0.8993 0.09803 0.62274 0.0
C838 C 0.87419 0.1204 0.62423 0.0
C839 C 0.90218 0.11458 0.62931 0.0
C840 C 0.86488 0.14905 0.62539 0.0
C841 C 0.8333 0.1388 0.63618 0.0
N842 N 0.88977 0.12513 0.63015 0.0
N843 N 0.84558 0.12802 0.63513 0.0
H844 H 0.62678 0.08431 0.40761 0.0
H845 H 0.64908 0.17777 0.40507 0.0
H846 H 0.59217 0.12249 0.38332 0.0
H847 H 0.68489 0.14058 0.38729 0.0
H848 H 0.62814 0.1574 0.39971 0.0
H849 H 0.64834 0.10444 0.409 0.0
C850 C 0.62369 0.09691 0.40405 0.0
C851 C 0.60764 0.10172 0.39532 0.0
C852 C 0.64056 0.15365 0.39613 0.0
C853 C 0.6322 0.12472 0.39539 0.0
C854 C 0.65253 0.1653 0.39865 0.0
C855 C 0.66876 0.16087 0.39655 0.0
C856 C 0.64478 0.13735 0.3925 0.0
C857 C 0.67252 0.14452 0.38842 0.0
C858 C 0.63601 0.10837 0.40381 0.0
C859 C 0.60436 0.11821 0.38987 0.0
N860 N 0.66061 0.13331 0.38762 0.0
N861 N 0.6165 0.12906 0.38982 0.0
H862 H 0.6244 0.91879 0.09028 0.0
H863 H 0.64841 0.82583 0.08749 0.0
H864 H 0.59016 0.88023 0.1131 0.0
H865 H 0.68294 0.86359 0.125 0.0
H866 H 0.62697 0.84576 0.08837 0.0
H867 H 0.64615 0.89891 0.089 0.0
C868 C 0.62143 0.90615 0.09345 0.0
C869 C 0.60543 0.90116 0.10184 0.0
C870 C 0.63921 0.8497 0.09713 0.0
C871 C 0.63022 0.87844 0.10171 0.0
C872 C 0.65146 0.83831 0.09705 0.0
C873 C 0.6675 0.84304 0.10636 0.0
C874 C 0.64299 0.86603 0.10546 0.0
C875 C 0.67073 0.8594 0.1183 0.0
C876 C 0.63385 0.89483 0.09376 0.0
C877 C 0.60231 0.88463 0.1068 0.0
N878 N 0.6586 0.87034 0.11669 0.0
N879 N 0.61456 0.8739 0.1068 0.0
H880 H 0.58509 0.61831 0.59237 0.0
H881 H 0.67935 0.63373 0.63573 0.0
H882 H 0.61968 0.57983 0.60013 0.0
H883 H 0.6452 0.67065 0.57713 0.0
H884 H 0.65755 0.61394 0.63388 0.0
H885 H 0.607 0.63771 0.59154 0.0
C886 C 0.59734 0.61394 0.59252 0.0
C887 C 0.60056 0.59743 0.59615 0.0
C888 C 0.65485 0.6264 0.6219 0.0
C889 C 0.62577 0.61963 0.5974 0.0
C890 C 0.66724 0.63774 0.62397 0.0
C891 C 0.66411 0.65389 0.60652 0.0
C892 C 0.63922 0.63128 0.60292 0.0
C893 C 0.6482 0.65834 0.5907 0.0
C894 C 0.60985 0.62503 0.59256 0.0
C895 C 0.61666 0.59244 0.59654 0.0
N896 N 0.6364 0.64711 0.58911 0.0
N897 N 0.62869 0.60352 0.59814 0.0
H898 H 0.61572 0.42594 0.90706 0.0
H899 H 0.6419 0.33375 0.93797 0.0
H900 H 0.58241 0.38632 0.89981 0.0
H901 H 0.67549 0.37173 0.88796 0.0
H902 H 0.62004 0.35318 0.9337 0.0
H903 H 0.63795 0.40667 0.91537 0.0
C904 C 0.61306 0.41322 0.90897 0.0
C905 C 0.59719 0.40771 0.9026 0.0
C906 C 0.63217 0.35728 0.923 0.0
C907 C 0.62251 0.38568 0.91066 0.0
C908 C 0.64465 0.34616 0.925 0.0
C909 C 0.66055 0.3511 0.91309 0.0
C910 C 0.63556 0.37355 0.90997 0.0
C911 C 0.66339 0.36737 0.89676 0.0
C912 C 0.62575 0.40223 0.91262 0.0
C913 C 0.59446 0.39109 0.90428 0.0
N914 N 0.65103 0.37805 0.89641 0.0
N915 N 0.60697 0.38069 0.90788 0.0
H916 H 0.8177 0.36537 0.13177 0.0
H917 H 0.91199 0.38166 0.1132 0.0
H918 H 0.85235 0.3288 0.07477 0.0
H919 H 0.87698 0.41967 0.09773 0.0
H920 H 0.89034 0.36195 0.10847 0.0
H921 H 0.8394 0.38525 0.1341 0.0
C922 C 0.82989 0.36146 0.1211 0.0
C923 C 0.83321 0.34538 0.10303 0.0
C924 C 0.88738 0.37459 0.10529 0.0
C925 C 0.858 0.36808 0.10458 0.0
C926 C 0.89974 0.38585 0.10762 0.0
C927 C 0.89628 0.40233 0.10564 0.0
C928 C 0.87138 0.37982 0.10229 0.0
C929 C 0.88018 0.40708 0.09867 0.0
C930 C 0.84223 0.37285 0.12147 0.0
C931 C 0.84922 0.34106 0.08874 0.0
N932 N 0.86829 0.39587 0.09817 0.0
N933 N 0.86099 0.35232 0.08981 0.0
H934 H 0.82033 0.63848 0.38505 0.0
H935 H 0.9142 0.62011 0.4009 0.0
H936 H 0.85559 0.67389 0.44949 0.0
H937 H 0.87835 0.58279 0.40898 0.0
H938 H 0.89299 0.64023 0.41021 0.0
H939 H 0.84162 0.61822 0.37983 0.0
C940 C 0.83257 0.64206 0.39685 0.0
C941 C 0.83617 0.65793 0.41775 0.0
C942 C 0.88975 0.62764 0.41079 0.0
C943 C 0.86051 0.63477 0.41283 0.0
C944 C 0.90186 0.61615 0.40583 0.0
C945 C 0.89804 0.59974 0.4043 0.0
C946 C 0.87365 0.62275 0.41289 0.0
C947 C 0.88184 0.5953 0.41064 0.0
C948 C 0.84467 0.63045 0.39479 0.0
C949 C 0.85223 0.66182 0.43331 0.0
N950 N 0.87021 0.60675 0.4137 0.0
N951 N 0.86379 0.65033 0.43052 0.0
H952 H 0.41108 0.37902 0.3813 0.0
H953 H 0.31704 0.3613 0.36489 0.0
H954 H 0.37541 0.41641 0.39698 0.0
H955 H 0.35221 0.32519 0.42128 0.0
H956 H 0.33847 0.38143 0.36128 0.0
H957 H 0.38978 0.35893 0.38635 0.0
C958 C 0.39876 0.383 0.38699 0.0
C959 C 0.39502 0.39942 0.3889 0.0
C960 C 0.34148 0.36907 0.374 0.0
C961 C 0.37052 0.37647 0.39261 0.0
C962 C 0.32929 0.35754 0.37509 0.0
C963 C 0.33283 0.34152 0.39349 0.0
C964 C 0.35732 0.36452 0.39054 0.0
C965 C 0.34892 0.33739 0.40709 0.0
C966 C 0.3866 0.37152 0.38949 0.0
C967 C 0.37884 0.40388 0.39605 0.0
N968 N 0.36054 0.34881 0.40542 0.0
N969 N 0.36715 0.39246 0.39673 0.0
H970 H 0.37754 0.57925 0.09362 0.0
H971 H 0.35387 0.67211 0.0724 0.0
H972 H 0.41179 0.61778 0.1171 0.0
H973 H 0.31914 0.63494 0.1181 0.0
H974 H 0.37523 0.65211 0.07835 0.0
H975 H 0.35588 0.5992 0.08739 0.0
C976 C 0.38053 0.59189 0.09604 0.0
C977 C 0.3965 0.59686 0.10594 0.0
C978 C 0.36295 0.64833 0.08776 0.0
C979 C 0.37183 0.61966 0.09989 0.0
C980 C 0.35076 0.65976 0.0847 0.0
C981 C 0.33469 0.6552 0.09499 0.0
C982 C 0.35909 0.63213 0.10001 0.0
C983 C 0.33137 0.639 0.11054 0.0
C984 C 0.36816 0.60325 0.09347 0.0
C985 C 0.39966 0.6134 0.10974 0.0
N986 N 0.34346 0.628 0.11178 0.0
N987 N 0.38746 0.62417 0.10677 0.0
H988 H 0.1768 0.63369 0.86433 0.0
H989 H 0.08226 0.61804 0.87823 0.0
H990 H 0.14205 0.67094 0.90867 0.0
H991 H 0.11712 0.58002 0.89913 0.0
H992 H 0.10398 0.63768 0.8801 0.0
H993 H 0.15499 0.61396 0.86186 0.0
C994 C 0.16457 0.63778 0.87198 0.0
C995 C 0.16126 0.65401 0.88683 0.0
C996 C 0.1069 0.62506 0.88505 0.0
C997 C 0.13632 0.63147 0.88534 0.0
C998 C 0.09449 0.61384 0.88441 0.0
C999 C 0.09787 0.59736 0.88874 0.0
C1000 C 0.12287 0.6198 0.88885 0.0
C1001 C 0.11396 0.5926 0.89638 0.0
C1002 C 0.15216 0.62648 0.8716 0.0
C1003 C 0.14518 0.65856 0.89729 0.0
N1004 N 0.12589 0.60377 0.89533 0.0
N1005 N 0.13334 0.64736 0.89651 0.0
H1006 H 0.17522 0.36356 0.62462 0.0
H1007 H 0.08091 0.37973 0.60814 0.0
H1008 H 0.14074 0.32699 0.56525 0.0
H1009 H 0.11596 0.41772 0.59335 0.0
H1010 H 0.10255 0.36 0.60247 0.0
H1011 H 0.15343 0.38329 0.62895 0.0
C1012 C 0.16304 0.35961 0.61392 0.0
C1013 C 0.15981 0.34358 0.59448 0.0
C1014 C 0.10551 0.37264 0.59966 0.0
C1015 C 0.13491 0.36614 0.59828 0.0
C1016 C 0.09316 0.38392 0.60251 0.0
C1017 C 0.09663 0.4004 0.60102 0.0
C1018 C 0.12151 0.37786 0.59663 0.0
C1019 C 0.11274 0.40513 0.59396 0.0
C1020 C 0.15066 0.37092 0.61542 0.0
C1021 C 0.14381 0.33921 0.58025 0.0
N1022 N 0.12461 0.39391 0.59295 0.0
N1023 N 0.13198 0.35042 0.58237 0.0
H1024 H 0.23574 0.22273 0.96657 0.0
H1025 H 0.18607 0.25628 0.6103 0.0
H1026 H 0.20496 0.19387 0.82535 0.0
H1027 H 0.21678 0.28608 0.74854 0.0
H1028 H 0.19378 0.2331 0.68664 0.0
H1029 H 0.23085 0.24576 0.88231 0.0
C1030 C 0.22836 0.22114 0.91667 0.0
C1031 C 0.22078 0.20642 0.90261 0.0
C1032 C 0.19881 0.24472 0.70046 0.0
C1033 C 0.2147 0.23265 0.80771 0.0
C1034 C 0.1943 0.25801 0.65714 0.0
C1035 C 0.20069 0.27322 0.673 0.0
C1036 C 0.20982 0.24658 0.76027 0.0
C1037 C 0.21145 0.27462 0.73422 0.0
C1038 C 0.22536 0.23431 0.86922 0.0
C1039 C 0.21098 0.20506 0.83826 0.0
N1040 N 0.21569 0.26149 0.77549 0.0
N1041 N 0.20813 0.21801 0.79365 0.0
H1042 H 0.99279 0.91858 0.93287 0.0
H1043 H 0.03262 0.97231 0.26057 0.0
H1044 H 0.96702 0.95544 0.05472 0.0
H1045 H 0.05629 0.93262 0.15019 0.0
H1046 H 0.00879 0.96735 0.18182 0.0
H1047 H 0.01631 0.92392 0.01137 0.0
C1048 C 0.99199 0.92765 0.97666 0.0
C1049 C 0.97785 0.93655 0.98694 0.0
C1050 C 0.01924 0.95979 0.17473 0.0
C1051 C 0.0049 0.94296 0.07645 0.0
C1052 C 0.03287 0.96271 0.21914 0.0
C1053 C 0.0464 0.95281 0.21211 0.0
C1054 C 0.01924 0.94694 0.12286 0.0
C1055 C 0.04606 0.94046 0.15798 0.0
C1056 C 0.00547 0.93079 0.02126 0.0
C1057 C 0.97762 0.94824 0.04457 0.0
N1058 N 0.03272 0.93785 0.11573 0.0
N1059 N 0.99095 0.95117 0.08678 0.0
H1060 H 0.31193 0.7429 0.11221 0.0
H1061 H 0.26397 0.77868 0.46912 0.0
H1062 H 0.28027 0.71446 0.25224 0.0
H1063 H 0.29703 0.80576 0.33132 0.0
H1064 H 0.26772 0.75552 0.38438 0.0
H1065 H 0.30549 0.76637 0.18916 0.0
C1066 C 0.30376 0.74152 0.15956 0.0
C1067 C 0.29672 0.72661 0.17575 0.0
C1068 C 0.27399 0.76661 0.37222 0.0
C1069 C 0.28904 0.75359 0.26369 0.0
C1070 C 0.27166 0.77986 0.41996 0.0
C1071 C 0.28021 0.79409 0.40706 0.0
C1072 C 0.28492 0.7677 0.31148 0.0
C1073 C 0.29028 0.79494 0.34344 0.0
C1074 C 0.29998 0.75498 0.20324 0.0
C1075 C 0.28608 0.72567 0.23765 0.0
N1076 N 0.29245 0.78192 0.29847 0.0
N1077 N 0.28255 0.73896 0.2792 0.0
H1078 H 0.54617 0.05027 0.55907 0.0
H1079 H 0.45442 0.07136 0.64697 0.0
H1080 H 0.5192 0.08725 0.44394 0.0
H1081 H 0.48024 0.0342 0.76589 0.0
H1082 H 0.47822 0.07696 0.57186 0.0
H1083 H 0.52271 0.04452 0.63763 0.0
C1084 C 0.53541 0.05735 0.55085 0.0
C1085 C 0.5347 0.06927 0.49437 0.0
C1086 C 0.47875 0.06753 0.61406 0.0
C1087 C 0.50769 0.06252 0.58374 0.0
C1088 C 0.46511 0.06428 0.65691 0.0
C1089 C 0.46537 0.05234 0.71304 0.0
C1090 C 0.49287 0.05881 0.62724 0.0
C1091 C 0.47952 0.04346 0.72293 0.0
C1092 C 0.52197 0.05396 0.59552 0.0
C1093 C 0.52037 0.07796 0.48654 0.0
N1094 N 0.49278 0.04695 0.68069 0.0
N1095 N 0.50745 0.07435 0.53033 0.0
H1096 H 0.21835 0.70934 0.7301 0.0
H1097 H 0.21559 0.80459 0.67395 0.0
H1098 H 0.19125 0.7418 0.87183 0.0
H1099 H 0.23594 0.77269 0.50737 0.0
H1100 H 0.21028 0.78168 0.75635 0.0
H1101 H 0.22738 0.7322 0.65425 0.0
C1102 C 0.21414 0.72124 0.74493 0.0
C1103 C 0.20391 0.7236 0.80747 0.0
C1104 C 0.21613 0.77964 0.70235 0.0
C1105 C 0.21452 0.74986 0.72139 0.0
C1106 C 0.21933 0.79274 0.6557 0.0
C1107 C 0.22631 0.79049 0.58418 0.0
C1108 C 0.21976 0.76409 0.67699 0.0
C1109 C 0.23081 0.77493 0.56277 0.0
C1110 C 0.21941 0.73429 0.70174 0.0
C1111 C 0.199 0.73933 0.82397 0.0
N1112 N 0.22727 0.76224 0.6087 0.0
N1113 N 0.2044 0.75183 0.78143 0.0
H1114 H 0.47781 0.96981 0.73189 0.0
H1115 H 0.51701 0.91502 0.05741 0.0
H1116 H 0.45273 0.93259 0.85401 0.0
H1117 H 0.54299 0.95273 0.9424 0.0
H1118 H 0.49362 0.92098 0.97943 0.0
H1119 H 0.50187 0.9642 0.80818 0.0
C1120 C 0.4773 0.96065 0.77539 0.0
C1121 C 0.4633 0.9516 0.78643 0.0
C1122 C 0.50446 0.92791 0.97088 0.0
C1123 C 0.49071 0.94493 0.87265 0.0
C1124 C 0.51789 0.92442 0.01513 0.0
C1125 C 0.53203 0.93339 0.00683 0.0
C1126 C 0.50509 0.9405 0.91782 0.0
C1127 C 0.53237 0.94548 0.95101 0.0
C1128 C 0.49105 0.95734 0.8184 0.0
C1129 C 0.46332 0.93976 0.84307 0.0
N1130 N 0.51907 0.94874 0.90898 0.0
N1131 N 0.47679 0.93673 0.88366 0.0
H1132 H 0.28861 0.18972 0.17013 0.0
H1133 H 0.27738 0.2841 0.23419 0.0
H1134 H 0.26334 0.22 0.01224 0.0
H1135 H 0.30637 0.25348 0.37673 0.0
H1136 H 0.2701 0.26075 0.15775 0.0
H1137 H 0.29212 0.21262 0.25458 0.0
C1138 C 0.28345 0.20118 0.15421 0.0
C1139 C 0.27558 0.203 0.08451 0.0
C1140 C 0.27808 0.25916 0.20559 0.0
C1141 C 0.28003 0.22946 0.17964 0.0
C1142 C 0.28236 0.27251 0.24913 0.0
C1143 C 0.29263 0.27082 0.31201 0.0
C1144 C 0.28405 0.24396 0.22504 0.0
C1145 C 0.29854 0.25545 0.32863 0.0
C1146 C 0.28559 0.21429 0.20207 0.0
C1147 C 0.26921 0.21808 0.06618 0.0
N1148 N 0.29415 0.24265 0.28555 0.0
N1149 N 0.27176 0.23083 0.11311 0.0
H1150 H 0.05347 0.06313 0.38457 0.0
H1151 H 0.96076 0.045 0.46519 0.0
H1152 H 0.02633 0.0287 0.25456 0.0
H1153 H 0.98835 0.08165 0.57922 0.0
H1154 H 0.98429 0.03843 0.38835 0.0
H1155 H 0.02976 0.06882 0.4602 0.0
C1156 C 0.04251 0.05662 0.37246 0.0
C1157 C 0.04186 0.04547 0.31293 0.0
C1158 C 0.98515 0.04797 0.42985 0.0
C1159 C 0.01444 0.05212 0.3991 0.0
C1160 C 0.97168 0.05183 0.47354 0.0
C1161 C 0.97253 0.06393 0.5291 0.0
C1162 C 0.99961 0.05621 0.44187 0.0
C1163 C 0.98706 0.07226 0.53724 0.0
C1164 C 0.02892 0.05995 0.4155 0.0
C1165 C 0.02737 0.03733 0.30019 0.0
N1166 N 1.0 0.06819 0.49451 0.0
N1167 N 0.01415 0.0409 0.34264 0.0
H1168 H 0.79862 0.80946 0.17713 0.0
H1169 H 0.7818 0.71643 0.25451 0.0
H1170 H 0.76729 0.78096 0.03696 0.0
H1171 H 0.8128 0.74592 0.39277 0.0
H1172 H 0.77547 0.73985 0.17695 0.0
H1173 H 0.80216 0.78665 0.26192 0.0
C1174 C 0.79223 0.79842 0.16507 0.0
C1175 C 0.78266 0.79705 0.10003 0.0
C1176 C 0.78369 0.74119 0.22409 0.0
C1177 C 0.78698 0.77067 0.19592 0.0
C1178 C 0.78743 0.72778 0.26825 0.0
C1179 C 0.79795 0.72913 0.33037 0.0
C1180 C 0.7905 0.75612 0.2419 0.0
C1181 C 0.80472 0.74422 0.34538 0.0
C1182 C 0.79434 0.78536 0.21324 0.0
C1183 C 0.77465 0.78252 0.08697 0.0
N1184 N 0.80086 0.75709 0.30157 0.0
N1185 N 0.77715 0.76978 0.13407 0.0
H1186 H 0.01266 0.08284 0.09241 0.0
H1187 H 0.97357 0.02891 0.76353 0.0
H1188 H 0.03893 0.04648 0.96956 0.0
H1189 H 0.94903 0.06747 0.87851 0.0
H1190 H 0.99742 0.03424 0.84157 0.0
H1191 H 0.98919 0.07718 0.01418 0.0
C1192 C 0.01358 0.07381 0.04843 0.0
C1193 C 0.02783 0.06513 0.03787 0.0
C1194 C 0.98677 0.04147 0.84984 0.0
C1195 C 0.00084 0.05835 0.9487 0.0
C1196 C 0.97313 0.03832 0.80584 0.0
C1197 C 0.95936 0.04781 0.81438 0.0
C1198 C 0.98653 0.05413 0.90273 0.0
C1199 C 0.95946 0.05995 0.86958 0.0
C1200 C 1.00012 0.0705 0.00402 0.0
C1201 C 0.02822 0.05349 0.98 0.0
N1202 N 0.97281 0.06279 0.91133 0.0
N1203 N 0.01491 0.05039 0.93797 0.0
H1204 H 0.68622 0.26424 0.89739 0.0
H1205 H 0.73967 0.22979 0.55533 0.0
H1206 H 0.71845 0.29347 0.76403 0.0
H1207 H 0.70427 0.20214 0.6769 0.0
H1208 H 0.73418 0.25265 0.63934 0.0
H1209 H 0.69399 0.24093 0.82184 0.0
C1210 C 0.69479 0.26582 0.85181 0.0
C1211 C 0.70159 0.2809 0.83702 0.0
C1212 C 0.72774 0.24151 0.64804 0.0
C1213 C 0.71079 0.25414 0.75092 0.0
C1214 C 0.73102 0.22842 0.60067 0.0
C1215 C 0.72236 0.21411 0.60902 0.0
C1216 C 0.71574 0.24019 0.70398 0.0
C1217 C 0.71112 0.21303 0.66812 0.0
C1218 C 0.69932 0.25246 0.80895 0.0
C1219 C 0.71279 0.28212 0.77745 0.0
N1220 N 0.70806 0.22591 0.71289 0.0
N1221 N 0.71705 0.26893 0.73681 0.0
H1222 H 0.49085 0.91506 0.55628 0.0
H1223 H 0.52993 0.96989 0.2304 0.0
H1224 H 0.46482 0.95287 0.44232 0.0
H1225 H 0.55521 0.93311 0.35451 0.0
H1226 H 0.50585 0.96423 0.30666 0.0
H1227 H 0.51422 0.92112 0.47832 0.0
C1228 C 0.48995 0.9245 0.51424 0.0
C1229 C 0.47581 0.93347 0.50624 0.0
C1230 C 0.51672 0.95748 0.31733 0.0
C1231 C 0.50273 0.94069 0.41721 0.0
C1232 C 0.53048 0.96082 0.27435 0.0
C1233 C 0.54455 0.9519 0.28595 0.0
C1234 C 0.51712 0.94518 0.3721 0.0
C1235 C 0.54458 0.94018 0.34313 0.0
C1236 C 0.50337 0.92805 0.47 0.0
C1237 C 0.47546 0.94562 0.4507 0.0
N1238 N 0.53109 0.93712 0.38365 0.0
N1239 N 0.48874 0.94893 0.40865 0.0
H1240 H 0.77816 0.28677 0.26625 0.0
H1241 H 0.7978 0.19467 0.3513 0.0
H1242 H 0.81078 0.25806 0.13262 0.0
H1243 H 0.76269 0.22162 0.47778 0.0
H1244 H 0.80167 0.21758 0.26755 0.0
H1245 H 0.77207 0.26325 0.34355 0.0
C1246 C 0.7842 0.27558 0.25351 0.0
C1247 C 0.7951 0.27447 0.19273 0.0
C1248 C 0.79298 0.2185 0.31298 0.0
C1249 C 0.78794 0.24738 0.28094 0.0
C1250 C 0.79069 0.20539 0.36063 0.0
C1251 C 0.77991 0.20629 0.42156 0.0
C1252 C 0.78455 0.23278 0.32667 0.0
C1253 C 0.77101 0.22042 0.43106 0.0
C1254 C 0.78059 0.26211 0.29749 0.0
C1255 C 0.80239 0.25957 0.17894 0.0
N1256 N 0.77366 0.23323 0.38455 0.0
N1257 N 0.79867 0.24664 0.22263 0.0
H1258 H 0.4921 0.08861 0.94751 0.0
H1259 H 0.53194 0.03308 0.2685 0.0
H1260 H 0.46657 0.05004 0.05825 0.0
H1261 H 0.55689 0.07018 0.14501 0.0
H1262 H 0.50769 0.03884 0.19365 0.0
H1263 H 0.51555 0.08256 0.0249 0.0
C1264 C 0.49132 0.079 0.98875 0.0
C1265 C 0.4773 0.06981 0.99595 0.0
C1266 C 0.51853 0.04564 0.18282 0.0
C1267 C 0.50432 0.0626 0.08428 0.0
C1268 C 0.53238 0.04225 0.225 0.0
C1269 C 0.5464 0.05122 0.21316 0.0
C1270 C 0.51879 0.05807 0.12865 0.0
C1271 C 0.54629 0.06307 0.15657 0.0
C1272 C 0.50479 0.07546 0.03265 0.0
C1273 C 0.4771 0.05746 0.05049 0.0
N1274 N 0.53272 0.06619 0.11685 0.0
N1275 N 0.49043 0.05415 0.0922 0.0
H1276 H 0.73975 0.77421 0.9901 0.0
H1277 H 0.69101 0.74158 0.62942 0.0
H1278 H 0.71216 0.80397 0.83857 0.0
H1279 H 0.72055 0.71106 0.76986 0.0
H1280 H 0.69915 0.76459 0.70569 0.0
H1281 H 0.73449 0.75106 0.90704 0.0
C1282 C 0.73303 0.77596 0.9382 0.0
C1283 C 0.72641 0.79098 0.92085 0.0
C1284 C 0.70383 0.75286 0.72003 0.0
C1285 C 0.71989 0.76463 0.82736 0.0
C1286 C 0.69905 0.73966 0.67678 0.0
C1287 C 0.70502 0.7243 0.69315 0.0
C1288 C 0.71467 0.75075 0.7804 0.0
C1289 C 0.71557 0.72265 0.75509 0.0
C1290 C 0.72982 0.76272 0.89142 0.0
C1291 C 0.71744 0.79255 0.85398 0.0
N1292 N 0.72006 0.7357 0.79633 0.0
N1293 N 0.71433 0.77955 0.81016 0.0
H1294 H 0.0446 0.95647 0.56184 0.0
H1295 H 0.95141 0.94026 0.6381 0.0
H1296 H 0.01643 0.92034 0.44717 0.0
H1297 H 0.97924 0.97298 0.7745 0.0
H1298 H 0.97504 0.93459 0.56193 0.0
H1299 H 0.02108 0.96355 0.63786 0.0
C1300 C 0.03355 0.94987 0.55317 0.0
C1301 C 0.03254 0.93775 0.49773 0.0
C1302 C 0.97604 0.94309 0.60812 0.0
C1303 C 0.0055 0.94606 0.5839 0.0
C1304 C 0.9625 0.94642 0.6514 0.0
C1305 C 0.96339 0.95705 0.71291 0.0
C1306 C 0.99071 0.95038 0.62634 0.0
C1307 C 0.97804 0.96476 0.72728 0.0
C1308 C 0.0201 0.95401 0.59639 0.0
C1309 C 0.01786 0.92972 0.48911 0.0
N1310 N 0.99122 0.96117 0.68461 0.0
N1311 N 0.00494 0.93408 0.53133 0.0
H1312 H 0.7231 0.78561 0.26983 0.0
H1313 H 0.7096 0.69175 0.33985 0.0
H1314 H 0.69275 0.75541 0.1318 0.0
H1315 H 0.73823 0.72111 0.48879 0.0
H1316 H 0.70578 0.71469 0.25629 0.0
H1317 H 0.73017 0.76225 0.34676 0.0
C1318 C 0.71777 0.77412 0.25603 0.0
C1319 C 0.70721 0.77254 0.19415 0.0
C1320 C 0.71305 0.71616 0.30669 0.0
C1321 C 0.71553 0.74567 0.28166 0.0
C1322 C 0.71534 0.70302 0.35412 0.0
C1323 C 0.72419 0.70459 0.4213 0.0
C1324 C 0.71949 0.73112 0.32685 0.0
C1325 C 0.7314 0.71942 0.43717 0.0
C1326 C 0.72193 0.76076 0.2998 0.0
C1327 C 0.70083 0.75729 0.17901 0.0
N1328 N 0.72871 0.73223 0.39067 0.0
N1329 N 0.70512 0.74449 0.22229 0.0
H1330 H 0.45536 0.45246 0.54181 0.0
H1331 H 0.54752 0.4336 0.63066 0.0
H1332 H 0.48326 0.41678 0.42251 0.0
H1333 H 0.52124 0.47199 0.73815 0.0
H1334 H 0.52388 0.42709 0.55553 0.0
H1335 H 0.47884 0.45894 0.61842 0.0
C1336 C 0.46635 0.44583 0.53221 0.0
C1337 C 0.4673 0.43406 0.4752 0.0
C1338 C 0.52326 0.437 0.59517 0.0
C1339 C 0.49434 0.44163 0.5625 0.0
C1340 C 0.53677 0.44076 0.638 0.0
C1341 C 0.53632 0.45332 0.69093 0.0
C1342 C 0.50908 0.44581 0.60542 0.0
C1343 C 0.52213 0.46225 0.6977 0.0
C1344 C 0.4798 0.44964 0.57577 0.0
C1345 C 0.48191 0.42593 0.46564 0.0
N1346 N 0.50901 0.45825 0.65576 0.0
N1347 N 0.49486 0.42992 0.50857 0.0
H1348 H 0.78507 0.30658 0.83686 0.0
H1349 H 0.78057 0.21135 0.78182 0.0
H1350 H 0.76295 0.27528 1.00103 0.0
H1351 H 0.80793 0.24335 0.63889 0.0
H1352 H 0.7718 0.23439 0.8571 0.0
H1353 H 0.7902 0.28353 0.75525 0.0
C1354 C 0.78094 0.29484 0.85477 0.0
C1355 C 0.7735 0.2928 0.92543 0.0
C1356 C 0.77976 0.23634 0.80943 0.0
C1357 C 0.77982 0.26621 0.83344 0.0
C1358 C 0.78486 0.22319 0.76651 0.0
C1359 C 0.79508 0.22536 0.70375 0.0
C1360 C 0.78484 0.25184 0.78939 0.0
C1361 C 0.80017 0.24101 0.68689 0.0
C1362 C 0.78402 0.28165 0.80855 0.0
C1363 C 0.76847 0.27736 0.94634 0.0
N1364 N 0.79496 0.25361 0.72921 0.0
N1365 N 0.7719 0.26457 0.90085 0.0
H1366 H 0.94477 0.56781 0.13493 0.0
H1367 H 0.03613 0.5452 0.04612 0.0
H1368 H 0.96984 0.52969 0.25064 0.0
H1369 H 0.00939 0.58167 0.92629 0.0
H1370 H 0.01247 0.53966 0.12363 0.0
H1371 H 0.96845 0.57268 0.05763 0.0
C1372 C 0.95526 0.56034 0.14355 0.0
C1373 C 0.95536 0.54836 0.19948 0.0
C1374 C 0.01181 0.54892 0.08063 0.0
C1375 C 0.98272 0.55403 0.11143 0.0
C1376 C 0.02536 0.5522 0.03656 0.0
C1377 C 0.0248 0.56395 0.97925 0.0
C1378 C 0.99756 0.55744 0.06752 0.0
C1379 C 0.01045 0.57253 0.96965 0.0
C1380 C 0.96882 0.56317 0.09949 0.0
C1381 C 0.96924 0.53899 0.20785 0.0
N1382 N 0.99742 0.56906 0.01306 0.0
N1383 N 0.98244 0.54212 0.16462 0.0
H1384 H 0.7057 0.31401 0.18466 0.0
H1385 H 0.72273 0.22081 0.25744 0.0
H1386 H 0.73554 0.28548 0.03743 0.0
H1387 H 0.6901 0.24956 0.39075 0.0
H1388 H 0.72917 0.24444 0.18127 0.0
H1389 H 0.70239 0.29097 0.26831 0.0
C1390 C 0.7118 0.30291 0.17076 0.0
C1391 C 0.7209 0.3016 0.10413 0.0
C1392 C 0.72058 0.24556 0.22703 0.0
C1393 C 0.71683 0.27497 0.1987 0.0
C1394 C 0.71679 0.23204 0.27042 0.0
C1395 C 0.70576 0.23313 0.33067 0.0
C1396 C 0.71332 0.26032 0.24391 0.0
C1397 C 0.69857 0.24806 0.34476 0.0
C1398 C 0.70982 0.28972 0.21826 0.0
C1399 C 0.72857 0.28699 0.08874 0.0
N1400 N 0.7025 0.26104 0.30185 0.0
N1401 N 0.72621 0.27414 0.1353 0.0
H1402 H 0.97041 0.47161 0.23813 0.0
H1403 H 0.0085 0.4169 0.56674 0.0
H1404 H 0.9444 0.43581 0.36521 0.0
H1405 H 0.03519 0.45401 0.45104 0.0
H1406 H 0.98514 0.42344 0.48971 0.0
H1407 H 0.9943 0.46593 0.31552 0.0
C1408 C 0.96965 0.46278 0.28305 0.0
C1409 C 0.95545 0.45411 0.29509 0.0
C1410 C 0.99612 0.43012 0.48084 0.0
C1411 C 0.98266 0.44734 0.38248 0.0
C1412 C 0.00953 0.42629 0.52455 0.0
C1413 C 0.02388 0.4349 0.51567 0.0
C1414 C 0.99697 0.44268 0.42766 0.0
C1415 C 0.02441 0.44702 0.46003 0.0
C1416 C 0.98331 0.45942 0.32667 0.0
C1417 C 0.95515 0.44267 0.35352 0.0
N1418 N 0.01113 0.45059 0.41841 0.0
N1419 N 0.96854 0.43956 0.39458 0.0
H1420 H 0.78529 0.69502 0.69188 0.0
H1421 H 0.81642 0.75988 0.88231 0.0
H1422 H 0.76938 0.72891 0.5234 0.0
H1423 H 0.78288 0.789 0.75605 0.0
H1424 H 0.8083 0.73668 0.80798 0.0
H1425 H 0.79106 0.71712 0.77804 0.0
C1426 C 0.78277 0.70719 0.67372 0.0
C1427 C 0.77685 0.71021 0.60079 0.0
C1428 C 0.80245 0.74803 0.79726 0.0
C1429 C 0.78456 0.73573 0.69682 0.0
C1430 C 0.80734 0.7614 0.83899 0.0
C1431 C 0.8003 0.77644 0.82597 0.0
C1432 C 0.79028 0.74961 0.74234 0.0
C1433 C 0.78864 0.77765 0.76844 0.0
C1434 C 0.78642 0.71985 0.72224 0.0
C1435 C 0.77379 0.72613 0.57966 0.0
N1436 N 0.784 0.76442 0.72887 0.0
N1437 N 0.77788 0.73837 0.62724 0.0
H1438 H 0.54967 0.56938 0.85463 0.0
H1439 H 0.45839 0.54672 0.94419 0.0
H1440 H 0.52487 0.53045 0.74383 0.0
H1441 H 0.48495 0.58356 0.06238 0.0
H1442 H 0.48196 0.54137 0.86597 0.0
H1443 H 0.52576 0.57487 0.92937 0.0
C1444 C 0.53918 0.56189 0.8464 0.0
C1445 C 0.53923 0.54947 0.79271 0.0
C1446 C 0.48259 0.55069 0.9087 0.0
C1447 C 0.51165 0.55581 0.87799 0.0
C1448 C 0.46909 0.55385 0.95316 0.0
C1449 C 0.46966 0.5656 0.01041 0.0
C1450 C 0.49678 0.55932 0.92135 0.0
C1451 C 0.4839 0.57439 0.01915 0.0
C1452 C 0.5255 0.56507 0.88905 0.0
C1453 C 0.52535 0.54009 0.78489 0.0
N1454 N 0.4969 0.57101 0.97543 0.0
N1455 N 0.51205 0.54352 0.82681 0.0
H1456 H 0.30778 0.24226 0.88619 0.0
H1457 H 0.26099 0.2734 0.5169 0.0
H1458 H 0.28081 0.211 0.73808 0.0
H1459 H 0.28781 0.30391 0.66801 0.0
H1460 H 0.26589 0.25065 0.60269 0.0
H1461 H 0.29945 0.26516 0.8093 0.0
C1462 C 0.30026 0.24017 0.83709 0.0
C1463 C 0.2951 0.22463 0.81856 0.0
C1464 C 0.27047 0.26239 0.61769 0.0
C1465 C 0.28525 0.2509 0.73067 0.0
C1466 C 0.26743 0.2754 0.56935 0.0
C1467 C 0.27393 0.2905 0.58585 0.0
C1468 C 0.28011 0.26461 0.68247 0.0
C1469 C 0.28262 0.2924 0.65334 0.0
C1470 C 0.29537 0.25328 0.79348 0.0
C1471 C 0.28518 0.22274 0.75453 0.0
N1472 N 0.28557 0.2796 0.69877 0.0
N1473 N 0.28058 0.2357 0.713 0.0
H1474 H 0.51216 0.58407 0.55244 0.0
H1475 H 0.47263 0.52833 0.23169 0.0
H1476 H 0.53779 0.54507 0.44572 0.0
H1477 H 0.44742 0.56488 0.35763 0.0
H1478 H 0.49686 0.53407 0.30683 0.0
H1479 H 0.48883 0.5778 0.47498 0.0
C1480 C 0.51298 0.5743 0.51212 0.0
C1481 C 0.527 0.56506 0.50613 0.0
C1482 C 0.48597 0.54075 0.31812 0.0
C1483 C 0.50007 0.5576 0.41753 0.0
C1484 C 0.47212 0.53737 0.27576 0.0
C1485 C 0.45802 0.54621 0.28817 0.0
C1486 C 0.48563 0.55302 0.373 0.0
C1487 C 0.45806 0.55788 0.34552 0.0
C1488 C 0.49957 0.57063 0.46816 0.0
C1489 C 0.52724 0.55251 0.45265 0.0
N1490 N 0.47163 0.56099 0.38533 0.0
N1491 N 0.51396 0.54909 0.41072 0.0
H1492 H 0.18858 0.75513 0.38557 0.0
H1493 H 0.23632 0.71946 0.02754 0.0
H1494 H 0.21983 0.78364 0.24379 0.0
H1495 H 0.20228 0.69267 0.16115 0.0
H1496 H 0.2326 0.74252 0.11292 0.0
H1497 H 0.19472 0.73172 0.30755 0.0
C1498 C 0.19659 0.75653 0.33763 0.0
C1499 C 0.2036 0.77144 0.32126 0.0
C1500 C 0.2261 0.73152 0.12401 0.0
C1501 C 0.21095 0.74454 0.23217 0.0
C1502 C 0.22841 0.71832 0.07592 0.0
C1503 C 0.21961 0.7042 0.08749 0.0
C1504 C 0.21493 0.73047 0.18384 0.0
C1505 C 0.20924 0.7034 0.15008 0.0
C1506 C 0.2002 0.74311 0.29333 0.0
C1507 C 0.21404 0.77243 0.25857 0.0
N1508 N 0.20711 0.71636 0.1955 0.0
N1509 N 0.21742 0.75917 0.21653 0.0
H1510 H 0.02387 0.47073 0.74261 0.0
H1511 H 0.98458 0.41696 0.07183 0.0
H1512 H 0.04857 0.43293 0.86241 0.0
H1513 H 0.95858 0.454 0.95222 0.0
H1514 H 0.00807 0.42271 0.99399 0.0
H1515 H 0.99996 0.4656 0.82072 0.0
C1516 C 0.02434 0.46155 0.78605 0.0
C1517 C 0.03817 0.45219 0.79587 0.0
C1518 C 0.9972 0.42954 0.98444 0.0
C1519 C 0.01093 0.44608 0.88421 0.0
C1520 C 0.98372 0.42617 0.02864 0.0
C1521 C 0.96954 0.435 0.01886 0.0
C1522 C 0.99657 0.44187 0.93002 0.0
C1523 C 0.96923 0.44686 0.96196 0.0
C1524 C 0.01067 0.45851 0.83008 0.0
C1525 C 0.0381 0.44034 0.85246 0.0
N1526 N 0.98257 0.45 0.92001 0.0
N1527 N 0.02471 0.43758 0.89411 0.0
H1528 H 0.2633 0.72458 0.9815 0.0
H1529 H 0.31149 0.7567 0.61868 0.0
H1530 H 0.28912 0.6943 0.82538 0.0
H1531 H 0.28183 0.78739 0.75775 0.0
H1532 H 0.3031 0.73374 0.69477 0.0
H1533 H 0.2685 0.74766 0.89808 0.0
C1534 C 0.26958 0.72271 0.92848 0.0
C1535 C 0.27571 0.70754 0.90989 0.0
C1536 C 0.29843 0.7455 0.70881 0.0
C1537 C 0.28225 0.73384 0.81602 0.0
C1538 C 0.30335 0.75867 0.66569 0.0
C1539 C 0.29745 0.77406 0.6818 0.0
C1540 C 0.28754 0.74767 0.76888 0.0
C1541 C 0.28677 0.77577 0.74323 0.0
C1542 C 0.27278 0.7359 0.88148 0.0
C1543 C 0.28421 0.70583 0.84173 0.0
N1544 N 0.28217 0.76275 0.78448 0.0
N1545 N 0.28736 0.71881 0.79773 0.0
H1546 H 0.95813 0.54505 0.54848 0.0
H1547 H 0.05093 0.56268 0.62806 0.0
H1548 H 0.98609 0.58113 0.43219 0.0
H1549 H 0.02364 0.52849 0.7589 0.0
H1550 H 0.02735 0.56816 0.55129 0.0
H1551 H 0.98168 0.53822 0.62463 0.0
C1552 C 0.96915 0.55168 0.53943 0.0
C1553 C 0.97009 0.56371 0.48355 0.0
C1554 C 0.02646 0.55937 0.59636 0.0
C1555 C 0.99716 0.55572 0.56998 0.0
C1556 C 0.03997 0.55616 0.64002 0.0
C1557 C 0.03921 0.54516 0.70012 0.0
C1558 C 0.01195 0.55159 0.61285 0.0
C1559 C 0.02473 0.537 0.71279 0.0
C1560 C 0.98262 0.54768 0.58273 0.0
C1561 C 0.98473 0.5718 0.47448 0.0
N1562 N 0.01158 0.54049 0.66983 0.0
N1563 N 0.99766 0.5676 0.5169 0.0
H1564 H 0.20574 0.30659 0.32089 0.0
H1565 H 0.2194 0.21269 0.25237 0.0
H1566 H 0.2335 0.27705 0.47256 0.0
H1567 H 0.18828 0.24251 0.11625 0.0
H1568 H 0.22652 0.23616 0.32827 0.0
H1569 H 0.20203 0.28361 0.23725 0.0
C1570 C 0.21135 0.29528 0.33566 0.0
C1571 C 0.21998 0.29368 0.40346 0.0
C1572 C 0.2181 0.23754 0.28197 0.0
C1573 C 0.21539 0.26713 0.3091 0.0
C1574 C 0.21392 0.22412 0.23876 0.0
C1575 C 0.20311 0.22556 0.17781 0.0
C1576 C 0.21148 0.25256 0.26413 0.0
C1577 C 0.19655 0.24074 0.16281 0.0
C1578 C 0.20912 0.28212 0.28823 0.0
C1579 C 0.22697 0.2788 0.42017 0.0
N1580 N 0.20086 0.25362 0.20552 0.0
N1581 N 0.22436 0.26599 0.37368 0.0
H1582 H 0.44241 0.43314 0.12812 0.0
H1583 H 0.5333 0.45759 0.03926 0.0
H1584 H 0.4672 0.47061 0.24962 0.0
H1585 H 0.50782 0.41936 0.9259 0.0
H1586 H 0.50954 0.46274 0.11675 0.0
H1587 H 0.46621 0.4288 0.051 0.0
C1588 C 0.45287 0.44057 0.13813 0.0
C1589 C 0.45286 0.4522 0.19568 0.0
C1590 C 0.50919 0.45318 0.07519 0.0
C1591 C 0.48035 0.44716 0.10767 0.0
C1592 C 0.52279 0.45015 0.03107 0.0
C1593 C 0.5226 0.438 0.97562 0.0
C1594 C 0.49526 0.44404 0.06382 0.0
C1595 C 0.50859 0.42882 0.9678 0.0
C1596 C 0.46649 0.43804 0.09416 0.0
C1597 C 0.46669 0.46156 0.20563 0.0
N1598 N 0.49549 0.43208 0.01108 0.0
N1599 N 0.47996 0.45876 0.16235 0.0
loop_
_geom_bond_atom_site_label_1
_geom_bond_atom_site_label_2
_geom_bond_distance
_geom_bond_site_symmetry_2
_ccdc_geom_bond_type
Mg0 O1 2.028 . S
Mg0 O7 1.986 . S
Mg0 O9 2.114 . S
Mg0 O10 2.251 . S
Mg0 O13 2.010 . S
O1 Mg0 2.028 . S
O1 C4 1.250 . S
O2 Mg3 2.028 . S
O2 C4 1.248 . S
Mg3 O2 2.028 . S
Mg3 O8 2.032 . S
Mg3 O10 2.079 . S
C4 O1 1.250 . S
C4 O2 1.248 . S
C5 O6 1.264 . S
C5 O13 1.249 . S
O6 C5 1.264 . S
O7 Mg0 1.986 . S
O7 C11 1.246 . S
O8 Mg3 2.032 . S
O8 C11 1.259 . S
O9 Mg0 2.114 . S
O9 C12 1.252 . S
O10 Mg0 2.251 . S
O10 Mg3 2.079 . S
O10 C12 1.273 . S
C11 O7 1.246 . S
C11 O8 1.259 . S
C12 O9 1.252 . S
C12 O10 1.273 . S
O13 Mg0 2.010 . S
O13 C5 1.249 . S
Mg14 O15 2.028 . S
Mg14 O21 1.986 . S
Mg14 O23 2.114 . S
Mg14 O24 2.251 . S
Mg14 O27 2.010 . S
O15 Mg14 2.028 . S
O15 C18 1.250 . S
O16 Mg17 2.028 . S
O16 C18 1.248 . S
Mg17 O16 2.028 . S
Mg17 O22 2.032 . S
Mg17 O24 2.079 . S
C18 O15 1.250 . S
C18 O16 1.248 . S
C19 O20 1.264 . S
C19 O27 1.249 . S
O20 C19 1.264 . S
O21 Mg14 1.986 . S
O21 C25 1.246 . S
O22 Mg17 2.032 . S
O22 C25 1.259 . S
O23 Mg14 2.114 . S
O23 C26 1.252 . S
O24 Mg14 2.251 . S
O24 Mg17 2.079 . S
O24 C26 1.273 . S
C25 O21 1.246 . S
C25 O22 1.259 . S
C26 O23 1.252 . S
C26 O24 1.273 . S
O27 Mg14 2.010 . S
O27 C19 1.249 . S
Mg28 O29 2.028 . S
Mg28 O35 1.986 . S
Mg28 O37 2.114 . S
Mg28 O38 2.251 . S
Mg28 O41 2.010 . S
O29 Mg28 2.028 . S
O29 C32 1.250 . S
O30 Mg31 2.028 . S
O30 C32 1.248 . S
Mg31 O30 2.028 . S
Mg31 O36 2.032 . S
Mg31 O38 2.079 . S
C32 O29 1.250 . S
C32 O30 1.248 . S
C33 O34 1.264 . S
C33 O41 1.249 . S
O34 C33 1.264 . S
O35 Mg28 1.986 . S
O35 C39 1.246 . S
O36 Mg31 2.032 . S
O36 C39 1.259 . S
O37 Mg28 2.114 . S
O37 C40 1.252 . S
O38 Mg28 2.251 . S
O38 Mg31 2.079 . S
O38 C40 1.273 . S
C39 O35 1.246 . S
C39 O36 1.259 . S
C40 O37 1.252 . S
C40 O38 1.273 . S
O41 Mg28 2.010 . S
O41 C33 1.249 . S
Mg42 O43 2.028 1_556 S
Mg42 O49 1.986 . S
Mg42 O51 2.114 . S
Mg42 O52 2.251 . S
Mg42 O55 2.010 1_556 S
O43 Mg42 2.028 1_554 S
O43 C46 1.250 . S
O44 Mg45 2.028 1_554 S
O44 C46 1.248 . S
Mg45 O44 2.028 1_556 S
Mg45 O50 2.032 . S
Mg45 O52 2.079 . S
C46 O43 1.250 . S
C46 O44 1.248 . S
C47 O48 1.265 1_554 S
C47 O55 1.249 . S
O48 C47 1.265 1_556 S
O49 Mg42 1.986 . S
O49 C53 1.246 . S
O50 Mg45 2.032 . S
O50 C53 1.259 . S
O51 Mg42 2.114 . S
O51 C54 1.252 . S
O52 Mg42 2.251 . S
O52 Mg45 2.079 . S
O52 C54 1.273 . S
C53 O49 1.246 . S
C53 O50 1.259 . S
C54 O51 1.252 . S
C54 O52 1.273 . S
O55 Mg42 2.010 1_554 S
O55 C47 1.249 . S
Mg56 O57 2.028 . S
Mg56 O63 1.986 . S
Mg56 O65 2.114 . S
Mg56 O66 2.251 . S
Mg56 O69 2.010 . S
O57 Mg56 2.028 . S
O57 C60 1.250 . S
O58 Mg59 2.028 . S
O58 C60 1.248 . S
Mg59 O58 2.028 . S
Mg59 O64 2.032 . S
Mg59 O66 2.079 . S
C60 O57 1.250 . S
C60 O58 1.248 . S
C61 O62 1.264 . S
C61 O69 1.249 . S
O62 C61 1.264 . S
O63 Mg56 1.986 . S
O63 C67 1.246 . S
O64 Mg59 2.032 . S
O64 C67 1.259 . S
O65 Mg56 2.114 . S
O65 C68 1.252 . S
O66 Mg56 2.251 . S
O66 Mg59 2.079 . S
O66 C68 1.273 . S
C67 O63 1.246 . S
C67 O64 1.259 . S
C68 O65 1.252 . S
C68 O66 1.273 . S
O69 Mg56 2.010 . S
O69 C61 1.249 . S
Mg70 O71 2.028 . S
Mg70 O77 1.986 . S
Mg70 O79 2.114 . S
Mg70 O80 2.251 . S
Mg70 O83 2.010 . S
O71 Mg70 2.028 . S
O71 C74 1.250 . S
O72 Mg73 2.028 . S
O72 C74 1.248 . S
Mg73 O72 2.028 . S
Mg73 O78 2.032 . S
Mg73 O80 2.079 . S
C74 O71 1.250 . S
C74 O72 1.248 . S
C75 O76 1.264 . S
C75 O83 1.249 . S
O76 C75 1.264 . S
O77 Mg70 1.986 . S
O77 C81 1.246 . S
O78 Mg73 2.032 . S
O78 C81 1.259 . S
O79 Mg70 2.114 . S
O79 C82 1.252 . S
O80 Mg70 2.251 . S
O80 Mg73 2.079 . S
O80 C82 1.273 . S
C81 O77 1.246 . S
C81 O78 1.259 . S
C82 O79 1.252 . S
C82 O80 1.273 . S
O83 Mg70 2.010 . S
O83 C75 1.249 . S
Mg84 O85 2.028 . S
Mg84 O91 1.986 . S
Mg84 O93 2.114 . S
Mg84 O94 2.251 . S
Mg84 O97 2.010 . S
O85 Mg84 2.028 . S
O85 C88 1.250 . S
O86 Mg87 2.028 . S
O86 C88 1.248 . S
Mg87 O86 2.028 . S
Mg87 O92 2.032 . S
Mg87 O94 2.079 . S
C88 O85 1.250 . S
C88 O86 1.248 . S
C89 O90 1.264 . S
C89 O97 1.249 . S
O90 C89 1.264 . S
O91 Mg84 1.986 . S
O91 C95 1.246 . S
O92 Mg87 2.032 . S
O92 C95 1.259 . S
O93 Mg84 2.114 . S
O93 C96 1.252 . S
O94 Mg84 2.251 . S
O94 Mg87 2.079 . S
O94 C96 1.273 . S
C95 O91 1.246 . S
C95 O92 1.259 . S
C96 O93 1.252 . S
C96 O94 1.273 . S
O97 Mg84 2.010 . S
O97 C89 1.249 . S
Mg98 O99 2.028 1_554 S
Mg98 O105 1.986 . S
Mg98 O107 2.114 . S
Mg98 O108 2.251 . S
Mg98 O111 2.010 1_554 S
O99 Mg98 2.028 1_556 S
O99 C102 1.250 . S
O100 Mg101 2.028 1_556 S
O100 C102 1.248 . S
Mg101 O100 2.028 1_554 S
Mg101 O106 2.032 . S
Mg101 O108 2.079 . S
C102 O99 1.250 . S
C102 O100 1.248 . S
C103 O104 1.263 . S
C103 O111 1.249 . S
O104 C103 1.263 . S
O105 Mg98 1.986 . S
O105 C109 1.246 . S
O106 Mg101 2.032 . S
O106 C109 1.259 . S
O107 Mg98 2.114 . S
O107 C110 1.252 . S
O108 Mg98 2.251 . S
O108 Mg101 2.079 . S
O108 C110 1.273 . S
C109 O105 1.246 . S
C109 O106 1.259 . S
C110 O107 1.252 . S
C110 O108 1.273 . S
O111 Mg98 2.010 1_556 S
O111 C103 1.249 . S
Mg112 O113 2.028 . S
Mg112 O119 1.986 . S
Mg112 O121 2.114 . S
Mg112 O122 2.251 . S
Mg112 O125 2.010 . S
O113 Mg112 2.028 . S
O113 C116 1.250 . S
O114 Mg115 2.028 . S
O114 C116 1.248 . S
Mg115 O114 2.028 . S
Mg115 O120 2.032 . S
Mg115 O122 2.079 . S
C116 O113 1.250 . S
C116 O114 1.248 . S
C117 O118 1.264 . S
C117 O125 1.249 . S
O118 C117 1.264 . S
O119 Mg112 1.986 . S
O119 C123 1.246 . S
O120 Mg115 2.032 . S
O120 C123 1.259 . S
O121 Mg112 2.114 . S
O121 C124 1.252 . S
O122 Mg112 2.251 . S
O122 Mg115 2.079 . S
O122 C124 1.273 . S
C123 O119 1.246 . S
C123 O120 1.259 . S
C124 O121 1.252 . S
C124 O122 1.273 . S
O125 Mg112 2.010 . S
O125 C117 1.249 . S
Mg126 O127 2.028 . S
Mg126 O133 1.986 . S
Mg126 O135 2.114 . S
Mg126 O136 2.251 . S
Mg126 O139 2.010 . S
O127 Mg126 2.028 . S
O127 C130 1.250 . S
O128 Mg129 2.028 . S
O128 C130 1.248 . S
Mg129 O128 2.028 . S
Mg129 O134 2.032 . S
Mg129 O136 2.079 . S
C130 O127 1.250 . S
C130 O128 1.248 . S
C131 O132 1.264 . S
C131 O139 1.249 . S
O132 C131 1.264 . S
O133 Mg126 1.986 . S
O133 C137 1.246 . S
O134 Mg129 2.032 . S
O134 C137 1.259 . S
O135 Mg126 2.114 . S
O135 C138 1.252 . S
O136 Mg126 2.251 . S
O136 Mg129 2.079 . S
O136 C138 1.273 . S
C137 O133 1.246 . S
C137 O134 1.259 . S
C138 O135 1.252 . S
C138 O136 1.273 . S
O139 Mg126 2.010 . S
O139 C131 1.249 . S
Mg140 O141 2.028 . S
Mg140 O147 1.986 . S
Mg140 O149 2.114 . S
Mg140 O150 2.251 . S
Mg140 O153 2.010 . S
O141 Mg140 2.028 . S
O141 C144 1.250 . S
O142 Mg143 2.028 . S
O142 C144 1.248 . S
Mg143 O142 2.028 . S
Mg143 O148 2.032 . S
Mg143 O150 2.079 . S
C144 O141 1.250 . S
C144 O142 1.248 . S
C145 O146 1.264 . S
C145 O153 1.249 . S
O146 C145 1.264 . S
O147 Mg140 1.986 . S
O147 C151 1.246 . S
O148 Mg143 2.032 . S
O148 C151 1.259 . S
O149 Mg140 2.114 . S
O149 C152 1.252 . S
O150 Mg140 2.251 . S
O150 Mg143 2.079 . S
O150 C152 1.273 . S
C151 O147 1.246 . S
C151 O148 1.259 . S
C152 O149 1.252 . S
C152 O150 1.273 . S
O153 Mg140 2.010 . S
O153 C145 1.249 . S
Mg154 O155 2.028 1_554 S
Mg154 O161 1.986 . S
Mg154 O163 2.114 . S
Mg154 O164 2.251 . S
Mg154 O167 2.010 1_554 S
O155 Mg154 2.028 1_556 S
O155 C158 1.250 . S
O156 Mg157 2.028 1_556 S
O156 C158 1.248 . S
Mg157 O156 2.028 1_554 S
Mg157 O162 2.032 . S
Mg157 O164 2.079 . S
C158 O155 1.250 . S
C158 O156 1.248 . S
C159 O160 1.265 1_556 S
C159 O167 1.249 . S
O160 C159 1.265 1_554 S
O161 Mg154 1.986 . S
O161 C165 1.246 . S
O162 Mg157 2.032 . S
O162 C165 1.259 . S
O163 Mg154 2.114 . S
O163 C166 1.252 . S
O164 Mg154 2.251 . S
O164 Mg157 2.079 . S
O164 C166 1.273 . S
C165 O161 1.246 . S
C165 O162 1.259 . S
C166 O163 1.252 . S
C166 O164 1.273 . S
O167 Mg154 2.010 1_556 S
O167 C159 1.249 . S
Mg168 O169 2.028 . S
Mg168 O175 1.986 . S
Mg168 O177 2.114 . S
Mg168 O178 2.251 . S
Mg168 O181 2.010 . S
O169 Mg168 2.028 . S
O169 C172 1.250 . S
O170 Mg171 2.028 . S
O170 C172 1.248 . S
Mg171 O170 2.028 . S
Mg171 O176 2.032 . S
Mg171 O178 2.079 . S
C172 O169 1.250 . S
C172 O170 1.248 . S
C173 O174 1.264 . S
C173 O181 1.249 . S
O174 C173 1.264 . S
O175 Mg168 1.986 . S
O175 C179 1.246 . S
O176 Mg171 2.032 . S
O176 C179 1.259 . S
O177 Mg168 2.114 . S
O177 C180 1.252 . S
O178 Mg168 2.251 . S
O178 Mg171 2.079 . S
O178 C180 1.273 . S
C179 O175 1.246 . S
C179 O176 1.259 . S
C180 O177 1.252 . S
C180 O178 1.273 . S
O181 Mg168 2.010 . S
O181 C173 1.249 . S
Mg182 O183 2.028 . S
Mg182 O189 1.986 . S
Mg182 O191 2.114 . S
Mg182 O192 2.251 . S
Mg182 O195 2.010 . S
O183 Mg182 2.028 . S
O183 C186 1.250 . S
O184 Mg185 2.028 . S
O184 C186 1.248 . S
Mg185 O184 2.028 . S
Mg185 O190 2.032 . S
Mg185 O192 2.079 . S
C186 O183 1.250 . S
C186 O184 1.248 . S
C187 O188 1.264 . S
C187 O195 1.249 . S
O188 C187 1.264 . S
O189 Mg182 1.986 . S
O189 C193 1.246 . S
O190 Mg185 2.032 . S
O190 C193 1.259 . S
O191 Mg182 2.114 . S
O191 C194 1.252 . S
O192 Mg182 2.251 . S
O192 Mg185 2.079 . S
O192 C194 1.273 . S
C193 O189 1.246 . S
C193 O190 1.259 . S
C194 O191 1.252 . S
C194 O192 1.273 . S
O195 Mg182 2.010 . S
O195 C187 1.249 . S
Mg196 O197 2.028 . S
Mg196 O203 1.986 . S
Mg196 O205 2.114 . S
Mg196 O206 2.251 . S
Mg196 O209 2.010 . S
O197 Mg196 2.028 . S
O197 C200 1.250 . S
O198 Mg199 2.028 . S
O198 C200 1.248 . S
Mg199 O198 2.028 . S
Mg199 O204 2.032 . S
Mg199 O206 2.079 . S
C200 O197 1.250 . S
C200 O198 1.248 . S
C201 O202 1.264 . S
C201 O209 1.249 . S
O202 C201 1.264 . S
O203 Mg196 1.986 . S
O203 C207 1.246 . S
O204 Mg199 2.032 . S
O204 C207 1.259 . S
O205 Mg196 2.114 . S
O205 C208 1.252 . S
O206 Mg196 2.251 . S
O206 Mg199 2.079 . S
O206 C208 1.273 . S
C207 O203 1.246 . S
C207 O204 1.259 . S
C208 O205 1.252 . S
C208 O206 1.273 . S
O209 Mg196 2.010 . S
O209 C201 1.249 . S
Mg210 O211 2.028 1_556 S
Mg210 O217 1.986 . S
Mg210 O219 2.114 . S
Mg210 O220 2.251 . S
Mg210 O223 2.010 1_556 S
O211 Mg210 2.028 1_554 S
O211 C214 1.250 . S
O212 Mg213 2.028 1_554 S
O212 C214 1.248 . S
Mg213 O212 2.028 1_556 S
Mg213 O218 2.032 . S
Mg213 O220 2.079 . S
C214 O211 1.250 . S
C214 O212 1.248 . S
C215 O216 1.263 . S
C215 O223 1.249 . S
O216 C215 1.263 . S
O217 Mg210 1.986 . S
O217 C221 1.246 . S
O218 Mg213 2.032 . S
O218 C221 1.259 . S
O219 Mg210 2.114 . S
O219 C222 1.252 . S
O220 Mg210 2.251 . S
O220 Mg213 2.079 . S
O220 C222 1.273 . S
C221 O217 1.246 . S
C221 O218 1.259 . S
C222 O219 1.252 . S
C222 O220 1.273 . S
O223 Mg210 2.010 1_554 S
O223 C215 1.249 . S
Mg224 O225 2.028 . S
Mg224 O231 1.986 . S
Mg224 O233 2.114 . S
Mg224 O234 2.251 . S
Mg224 O237 2.010 . S
O225 Mg224 2.028 . S
O225 C228 1.250 . S
O226 Mg227 2.028 . S
O226 C228 1.248 . S
Mg227 O226 2.028 . S
Mg227 O232 2.032 . S
Mg227 O234 2.079 . S
C228 O225 1.250 . S
C228 O226 1.248 . S
C229 O230 1.264 . S
C229 O237 1.249 . S
O230 C229 1.264 . S
O231 Mg224 1.986 . S
O231 C235 1.246 . S
O232 Mg227 2.032 . S
O232 C235 1.259 . S
O233 Mg224 2.114 . S
O233 C236 1.252 . S
O234 Mg224 2.251 . S
O234 Mg227 2.079 . S
O234 C236 1.273 . S
C235 O231 1.246 . S
C235 O232 1.259 . S
C236 O233 1.252 . S
C236 O234 1.273 . S
O237 Mg224 2.010 . S
O237 C229 1.249 . S
Mg238 O239 2.028 1_556 S
Mg238 O245 1.986 . S
Mg238 O247 2.114 . S
Mg238 O248 2.251 . S
Mg238 O251 2.010 1_556 S
O239 Mg238 2.028 1_554 S
O239 C242 1.250 . S
O240 Mg241 2.028 1_554 S
O240 C242 1.248 . S
Mg241 O240 2.028 1_556 S
Mg241 O246 2.032 . S
Mg241 O248 2.079 . S
C242 O239 1.250 . S
C242 O240 1.248 . S
C243 O244 1.263 . S
C243 O251 1.249 . S
O244 C243 1.263 . S
O245 Mg238 1.986 . S
O245 C249 1.246 . S
O246 Mg241 2.032 . S
O246 C249 1.259 . S
O247 Mg238 2.114 . S
O247 C250 1.252 . S
O248 Mg238 2.251 . S
O248 Mg241 2.079 . S
O248 C250 1.273 . S
C249 O245 1.246 . S
C249 O246 1.259 . S
C250 O247 1.252 . S
C250 O248 1.273 . S
O251 Mg238 2.010 1_554 S
O251 C243 1.249 . S
Mg252 O253 2.028 . S
Mg252 O259 1.986 . S
Mg252 O261 2.114 . S
Mg252 O262 2.251 . S
Mg252 O265 2.010 . S
O253 Mg252 2.028 . S
O253 C256 1.250 . S
O254 Mg255 2.028 . S
O254 C256 1.248 . S
Mg255 O254 2.028 . S
Mg255 O260 2.032 . S
Mg255 O262 2.079 . S
C256 O253 1.250 . S
C256 O254 1.248 . S
C257 O258 1.264 . S
C257 O265 1.249 . S
O258 C257 1.264 . S
O259 Mg252 1.986 . S
O259 C263 1.246 . S
O260 Mg255 2.032 . S
O260 C263 1.259 . S
O261 Mg252 2.114 . S
O261 C264 1.252 . S
O262 Mg252 2.251 . S
O262 Mg255 2.079 . S
O262 C264 1.273 . S
C263 O259 1.246 . S
C263 O260 1.259 . S
C264 O261 1.252 . S
C264 O262 1.273 . S
O265 Mg252 2.010 . S
O265 C257 1.249 . S
Mg266 O267 2.028 . S
Mg266 O273 1.986 . S
Mg266 O275 2.114 . S
Mg266 O276 2.251 . S
Mg266 O279 2.010 . S
O267 Mg266 2.028 . S
O267 C270 1.250 . S
O268 Mg269 2.028 . S
O268 C270 1.248 . S
Mg269 O268 2.028 . S
Mg269 O274 2.032 . S
Mg269 O276 2.079 . S
C270 O267 1.250 . S
C270 O268 1.248 . S
C271 O272 1.264 . S
C271 O279 1.249 . S
O272 C271 1.264 . S
O273 Mg266 1.986 . S
O273 C277 1.246 . S
O274 Mg269 2.032 . S
O274 C277 1.259 . S
O275 Mg266 2.114 . S
O275 C278 1.252 . S
O276 Mg266 2.251 . S
O276 Mg269 2.079 . S
O276 C278 1.273 . S
C277 O273 1.246 . S
C277 O274 1.259 . S
C278 O275 1.252 . S
C278 O276 1.273 . S
O279 Mg266 2.010 . S
O279 C271 1.249 . S
Mg280 O281 2.028 . S
Mg280 O287 1.986 . S
Mg280 O289 2.114 . S
Mg280 O290 2.251 . S
Mg280 O293 2.010 . S
O281 Mg280 2.028 . S
O281 C284 1.250 . S
O282 Mg283 2.028 . S
O282 C284 1.248 . S
Mg283 O282 2.028 . S
Mg283 O288 2.032 . S
Mg283 O290 2.079 . S
C284 O281 1.250 . S
C284 O282 1.248 . S
C285 O286 1.264 . S
C285 O293 1.249 . S
O286 C285 1.264 . S
O287 Mg280 1.986 . S
O287 C291 1.246 . S
O288 Mg283 2.032 . S
O288 C291 1.259 . S
O289 Mg280 2.114 . S
O289 C292 1.252 . S
O290 Mg280 2.251 . S
O290 Mg283 2.079 . S
O290 C292 1.273 . S
C291 O287 1.246 . S
C291 O288 1.259 . S
C292 O289 1.252 . S
C292 O290 1.273 . S
O293 Mg280 2.010 . S
O293 C285 1.249 . S
Mg294 O295 2.028 1_554 S
Mg294 O301 1.986 . S
Mg294 O303 2.114 . S
Mg294 O304 2.251 . S
Mg294 O307 2.010 1_554 S
O295 Mg294 2.028 1_556 S
O295 C298 1.250 . S
O296 Mg297 2.028 1_556 S
O296 C298 1.248 . S
Mg297 O296 2.028 1_554 S
Mg297 O302 2.032 . S
Mg297 O304 2.079 . S
C298 O295 1.250 . S
C298 O296 1.248 . S
C299 O300 1.265 1_556 S
C299 O307 1.249 . S
O300 C299 1.265 1_554 S
O301 Mg294 1.986 . S
O301 C305 1.246 . S
O302 Mg297 2.032 . S
O302 C305 1.259 . S
O303 Mg294 2.114 . S
O303 C306 1.252 . S
O304 Mg294 2.251 . S
O304 Mg297 2.079 . S
O304 C306 1.273 . S
C305 O301 1.246 . S
C305 O302 1.259 . S
C306 O303 1.252 . S
C306 O304 1.273 . S
O307 Mg294 2.010 1_556 S
O307 C299 1.249 . S
Mg308 O309 2.028 . S
Mg308 O315 1.986 . S
Mg308 O317 2.114 . S
Mg308 O318 2.251 . S
Mg308 O321 2.010 . S
O309 Mg308 2.028 . S
O309 C312 1.250 . S
O310 Mg311 2.028 . S
O310 C312 1.248 . S
Mg311 O310 2.028 . S
Mg311 O316 2.032 . S
Mg311 O318 2.079 . S
C312 O309 1.250 . S
C312 O310 1.248 . S
C313 O314 1.264 . S
C313 O321 1.249 . S
O314 C313 1.264 . S
O315 Mg308 1.986 . S
O315 C319 1.246 . S
O316 Mg311 2.032 . S
O316 C319 1.259 . S
O317 Mg308 2.114 . S
O317 C320 1.252 . S
O318 Mg308 2.251 . S
O318 Mg311 2.079 . S
O318 C320 1.273 . S
C319 O315 1.246 . S
C319 O316 1.259 . S
C320 O317 1.252 . S
C320 O318 1.273 . S
O321 Mg308 2.010 . S
O321 C313 1.249 . S
Mg322 O323 2.028 . S
Mg322 O329 1.986 . S
Mg322 O331 2.114 . S
Mg322 O332 2.251 . S
Mg322 O335 2.010 . S
O323 Mg322 2.028 . S
O323 C326 1.250 . S
O324 Mg325 2.028 . S
O324 C326 1.248 . S
Mg325 O324 2.028 . S
Mg325 O330 2.032 . S
Mg325 O332 2.079 . S
C326 O323 1.250 . S
C326 O324 1.248 . S
C327 O328 1.264 . S
C327 O335 1.249 . S
O328 C327 1.264 . S
O329 Mg322 1.986 . S
O329 C333 1.246 . S
O330 Mg325 2.032 . S
O330 C333 1.259 . S
O331 Mg322 2.114 . S
O331 C334 1.252 . S
O332 Mg322 2.251 . S
O332 Mg325 2.079 . S
O332 C334 1.273 . S
C333 O329 1.246 . S
C333 O330 1.259 . S
C334 O331 1.252 . S
C334 O332 1.273 . S
O335 Mg322 2.010 . S
O335 C327 1.249 . S
Mg336 O337 2.028 . S
Mg336 O343 1.986 . S
Mg336 O345 2.114 . S
Mg336 O346 2.251 . S
Mg336 O349 2.010 . S
O337 Mg336 2.028 . S
O337 C340 1.250 . S
O338 Mg339 2.028 . S
O338 C340 1.248 . S
Mg339 O338 2.028 . S
Mg339 O344 2.032 . S
Mg339 O346 2.079 . S
C340 O337 1.250 . S
C340 O338 1.248 . S
C341 O342 1.264 . S
C341 O349 1.249 . S
O342 C341 1.264 . S
O343 Mg336 1.986 . S
O343 C347 1.246 . S
O344 Mg339 2.032 . S
O344 C347 1.259 . S
O345 Mg336 2.114 . S
O345 C348 1.252 . S
O346 Mg336 2.251 . S
O346 Mg339 2.079 . S
O346 C348 1.273 . S
C347 O343 1.246 . S
C347 O344 1.259 . S
C348 O345 1.252 . S
C348 O346 1.273 . S
O349 Mg336 2.010 . S
O349 C341 1.249 . S
Mg350 O351 2.028 1_554 S
Mg350 O357 1.986 . S
Mg350 O359 2.114 . S
Mg350 O360 2.251 . S
Mg350 O363 2.010 1_554 S
O351 Mg350 2.028 1_556 S
O351 C354 1.250 . S
O352 Mg353 2.028 1_556 S
O352 C354 1.248 . S
Mg353 O352 2.028 1_554 S
Mg353 O358 2.032 . S
Mg353 O360 2.079 . S
C354 O351 1.250 . S
C354 O352 1.248 . S
C355 O356 1.263 . S
C355 O363 1.249 . S
O356 C355 1.263 . S
O357 Mg350 1.986 . S
O357 C361 1.246 . S
O358 Mg353 2.032 . S
O358 C361 1.259 . S
O359 Mg350 2.114 . S
O359 C362 1.252 . S
O360 Mg350 2.251 . S
O360 Mg353 2.079 . S
O360 C362 1.273 . S
C361 O357 1.246 . S
C361 O358 1.259 . S
C362 O359 1.252 . S
C362 O360 1.273 . S
O363 Mg350 2.010 1_556 S
O363 C355 1.249 . S
Mg364 O365 2.028 . S
Mg364 O371 1.986 . S
Mg364 O373 2.114 . S
Mg364 O374 2.251 . S
Mg364 O377 2.010 . S
O365 Mg364 2.028 . S
O365 C368 1.250 . S
O366 Mg367 2.028 . S
O366 C368 1.248 . S
Mg367 O366 2.028 . S
Mg367 O372 2.032 . S
Mg367 O374 2.079 . S
C368 O365 1.250 . S
C368 O366 1.248 . S
C369 O370 1.264 . S
C369 O377 1.249 . S
O370 C369 1.264 . S
O371 Mg364 1.986 . S
O371 C375 1.246 . S
O372 Mg367 2.032 . S
O372 C375 1.259 . S
O373 Mg364 2.114 . S
O373 C376 1.252 . S
O374 Mg364 2.251 . S
O374 Mg367 2.079 . S
O374 C376 1.273 . S
C375 O371 1.246 . S
C375 O372 1.259 . S
C376 O373 1.252 . S
C376 O374 1.273 . S
O377 Mg364 2.010 . S
O377 C369 1.249 . S
Mg378 O379 2.028 . S
Mg378 O385 1.986 . S
Mg378 O387 2.114 . S
Mg378 O388 2.251 . S
Mg378 O391 2.010 . S
O379 Mg378 2.028 . S
O379 C382 1.250 . S
O380 Mg381 2.028 . S
O380 C382 1.248 . S
Mg381 O380 2.028 . S
Mg381 O386 2.032 . S
Mg381 O388 2.079 . S
C382 O379 1.250 . S
C382 O380 1.248 . S
C383 O384 1.264 . S
C383 O391 1.249 . S
O384 C383 1.264 . S
O385 Mg378 1.986 . S
O385 C389 1.246 . S
O386 Mg381 2.032 . S
O386 C389 1.259 . S
O387 Mg378 2.114 . S
O387 C390 1.252 . S
O388 Mg378 2.251 . S
O388 Mg381 2.079 . S
O388 C390 1.273 . S
C389 O385 1.246 . S
C389 O386 1.259 . S
C390 O387 1.252 . S
C390 O388 1.273 . S
O391 Mg378 2.010 . S
O391 C383 1.249 . S
Mg392 O393 2.028 . S
Mg392 O399 1.986 . S
Mg392 O401 2.114 . S
Mg392 O402 2.251 . S
Mg392 O405 2.010 . S
O393 Mg392 2.028 . S
O393 C396 1.250 . S
O394 Mg395 2.028 . S
O394 C396 1.248 . S
Mg395 O394 2.028 . S
Mg395 O400 2.032 . S
Mg395 O402 2.079 . S
C396 O393 1.250 . S
C396 O394 1.248 . S
C397 O398 1.264 . S
C397 O405 1.249 . S
O398 C397 1.264 . S
O399 Mg392 1.986 . S
O399 C403 1.246 . S
O400 Mg395 2.032 . S
O400 C403 1.259 . S
O401 Mg392 2.114 . S
O401 C404 1.252 . S
O402 Mg392 2.251 . S
O402 Mg395 2.079 . S
O402 C404 1.273 . S
C403 O399 1.246 . S
C403 O400 1.259 . S
C404 O401 1.252 . S
C404 O402 1.273 . S
O405 Mg392 2.010 . S
O405 C397 1.249 . S
Mg406 O407 2.028 1_556 S
Mg406 O413 1.986 . S
Mg406 O415 2.114 . S
Mg406 O416 2.251 . S
Mg406 O419 2.010 1_556 S
O407 Mg406 2.028 1_554 S
O407 C410 1.250 . S
O408 Mg409 2.028 1_554 S
O408 C410 1.248 . S
Mg409 O408 2.028 1_556 S
Mg409 O414 2.032 . S
Mg409 O416 2.079 . S
C410 O407 1.250 . S
C410 O408 1.248 . S
C411 O412 1.265 1_554 S
C411 O419 1.249 . S
O412 C411 1.265 1_556 S
O413 Mg406 1.986 . S
O413 C417 1.246 . S
O414 Mg409 2.032 . S
O414 C417 1.259 . S
O415 Mg406 2.114 . S
O415 C418 1.252 . S
O416 Mg406 2.251 . S
O416 Mg409 2.079 . S
O416 C418 1.273 . S
C417 O413 1.246 . S
C417 O414 1.259 . S
C418 O415 1.252 . S
C418 O416 1.273 . S
O419 Mg406 2.010 1_554 S
O419 C411 1.249 . S
Mg420 O421 2.028 . S
Mg420 O427 1.986 . S
Mg420 O429 2.114 . S
Mg420 O430 2.251 . S
Mg420 O433 2.010 . S
O421 Mg420 2.028 . S
O421 C424 1.250 . S
O422 Mg423 2.028 . S
O422 C424 1.248 . S
Mg423 O422 2.028 . S
Mg423 O428 2.032 . S
Mg423 O430 2.079 . S
C424 O421 1.250 . S
C424 O422 1.248 . S
C425 O426 1.264 . S
C425 O433 1.249 . S
O426 C425 1.264 . S
O427 Mg420 1.986 . S
O427 C431 1.246 . S
O428 Mg423 2.032 . S
O428 C431 1.259 . S
O429 Mg420 2.114 . S
O429 C432 1.252 . S
O430 Mg420 2.251 . S
O430 Mg423 2.079 . S
O430 C432 1.273 . S
C431 O427 1.246 . S
C431 O428 1.259 . S
C432 O429 1.252 . S
C432 O430 1.273 . S
O433 Mg420 2.010 . S
O433 C425 1.249 . S
Mg434 O435 2.028 . S
Mg434 O441 1.986 . S
Mg434 O443 2.114 . S
Mg434 O444 2.251 . S
Mg434 O447 2.010 . S
O435 Mg434 2.028 . S
O435 C438 1.250 . S
O436 Mg437 2.028 . S
O436 C438 1.248 . S
Mg437 O436 2.028 . S
Mg437 O442 2.032 . S
Mg437 O444 2.079 . S
C438 O435 1.250 . S
C438 O436 1.248 . S
C439 O440 1.264 . S
C439 O447 1.249 . S
O440 C439 1.264 . S
O441 Mg434 1.986 . S
O441 C445 1.246 . S
O442 Mg437 2.032 . S
O442 C445 1.259 . S
O443 Mg434 2.114 . S
O443 C446 1.252 . S
O444 Mg434 2.251 . S
O444 Mg437 2.079 . S
O444 C446 1.273 . S
C445 O441 1.246 . S
C445 O442 1.259 . S
C446 O443 1.252 . S
C446 O444 1.273 . S
O447 Mg434 2.010 . S
O447 C439 1.249 . S
H448 C454 0.930 . S
H449 C458 0.930 . S
H450 C463 0.929 . S
H451 C461 0.929 . S
H452 C456 0.929 . S
H453 C462 0.929 . S
C454 H448 0.930 . S
C454 C455 1.367 . S
C454 C462 1.378 . S
C455 C454 1.367 . S
C455 C463 1.433 . S
C456 H452 0.929 . S
C456 C458 1.378 . S
C456 C460 1.350 . S
C457 C460 1.463 . S
C457 C462 1.350 . S
C457 N465 1.427 . S
C458 H449 0.930 . S
C458 C456 1.378 . S
C458 C459 1.367 . S
C459 C458 1.367 . S
C459 C461 1.433 . S
C460 C456 1.350 . S
C460 C457 1.463 . S
C460 N464 1.427 . S
C461 H451 0.929 . S
C461 C459 1.433 . S
C461 N464 1.384 . S
C462 H453 0.929 . S
C462 C454 1.378 . S
C462 C457 1.350 . S
C463 H450 0.929 . S
C463 C455 1.433 . S
C463 N465 1.384 . S
N464 C460 1.427 . S
N464 C461 1.384 . S
N465 C457 1.427 . S
N465 C463 1.384 . S
H466 C472 0.930 . S
H467 C476 0.930 . S
H468 C481 0.929 . S
H469 C479 0.929 . S
H470 C474 0.929 . S
H471 C480 0.929 . S
C472 H466 0.930 . S
C472 C473 1.367 . S
C472 C480 1.378 . S
C473 C472 1.367 . S
C473 C481 1.433 . S
C474 H470 0.929 . S
C474 C476 1.378 . S
C474 C478 1.350 . S
C475 C478 1.463 1_565 S
C475 C480 1.350 . S
C475 N483 1.427 . S
C476 H467 0.930 . S
C476 C474 1.378 . S
C476 C477 1.367 . S
C477 C476 1.367 . S
C477 C479 1.433 . S
C478 C474 1.350 . S
C478 C475 1.463 1_545 S
C478 N482 1.427 . S
C479 H469 0.929 . S
C479 C477 1.433 . S
C479 N482 1.384 . S
C480 H471 0.929 . S
C480 C472 1.378 . S
C480 C475 1.350 . S
C481 H468 0.929 . S
C481 C473 1.433 . S
C481 N483 1.384 . S
N482 C478 1.427 . S
N482 C479 1.384 . S
N483 C475 1.427 . S
N483 C481 1.384 . S
H484 C490 0.930 . S
H485 C494 0.930 . S
H486 C499 0.929 . S
H487 C497 0.929 . S
H488 C492 0.929 . S
H489 C498 0.929 . S
C490 H484 0.930 . S
C490 C491 1.367 . S
C490 C498 1.378 . S
C491 C490 1.367 . S
C491 C499 1.433 . S
C492 H488 0.929 . S
C492 C494 1.378 . S
C492 C496 1.350 . S
C493 C496 1.463 1_554 S
C493 C498 1.350 . S
C493 N501 1.427 . S
C494 H485 0.930 . S
C494 C492 1.378 . S
C494 C495 1.367 . S
C495 C494 1.367 . S
C495 C497 1.433 . S
C496 C492 1.350 . S
C496 C493 1.463 1_556 S
C496 N500 1.427 . S
C497 H487 0.929 . S
C497 C495 1.433 . S
C497 N500 1.384 . S
C498 H489 0.929 . S
C498 C490 1.378 . S
C498 C493 1.350 . S
C499 H486 0.929 . S
C499 C491 1.433 . S
C499 N501 1.384 . S
N500 C496 1.427 . S
N500 C497 1.384 . S
N501 C493 1.427 . S
N501 C499 1.384 . S
H502 C508 0.930 . S
H503 C512 0.930 . S
H504 C517 0.929 . S
H505 C515 0.929 . S
H506 C510 0.906 1_545 S
H507 C516 0.882 1_565 S
C508 H502 0.930 . S
C508 C509 1.367 . S
C508 C516 1.410 . S
C509 C508 1.367 . S
C509 C517 1.433 . S
C510 H506 0.906 1_565 S
C510 C512 1.393 . S
C510 C514 1.357 . S
C511 C514 1.463 1_545 S
C511 C516 1.365 . S
C511 N519 1.427 . S
C512 H503 0.930 . S
C512 C510 1.393 . S
C512 C513 1.367 . S
C513 C512 1.367 . S
C513 C515 1.433 . S
C514 C510 1.357 . S
C514 C511 1.463 1_565 S
C514 N518 1.427 . S
C515 H505 0.929 . S
C515 C513 1.433 . S
C515 N518 1.384 . S
C516 H507 0.882 1_545 S
C516 C508 1.410 . S
C516 C511 1.365 . S
C517 H504 0.929 . S
C517 C509 1.433 . S
C517 N519 1.384 . S
N518 C514 1.427 . S
N518 C515 1.384 . S
N519 C511 1.427 . S
N519 C517 1.384 . S
H520 C526 0.930 . S
H521 C530 0.930 . S
H522 C535 0.929 . S
H523 C533 0.929 . S
H524 C528 0.929 . S
H525 C534 0.929 . S
C526 H520 0.930 . S
C526 C527 1.367 . S
C526 C534 1.378 . S
C527 C526 1.367 . S
C527 C535 1.433 . S
C528 H524 0.929 . S
C528 C530 1.378 . S
C528 C532 1.350 . S
C529 C532 1.463 . S
C529 C534 1.350 . S
C529 N537 1.427 . S
C530 H521 0.930 . S
C530 C528 1.378 . S
C530 C531 1.367 . S
C531 C530 1.367 . S
C531 C533 1.433 . S
C532 C528 1.350 . S
C532 C529 1.463 . S
C532 N536 1.427 . S
C533 H523 0.929 . S
C533 C531 1.433 . S
C533 N536 1.384 . S
C534 H525 0.929 . S
C534 C526 1.378 . S
C534 C529 1.350 . S
C535 H522 0.929 . S
C535 C527 1.433 . S
C535 N537 1.384 . S
N536 C532 1.427 . S
N536 C533 1.384 . S
N537 C529 1.427 . S
N537 C535 1.384 . S
H538 C544 0.930 . S
H539 C548 0.930 . S
H540 C553 0.929 . S
H541 C551 0.929 . S
H542 C546 0.929 1_545 S
H543 C552 0.929 1_565 S
C544 H538 0.930 . S
C544 C545 1.367 . S
C544 C552 1.378 . S
C545 C544 1.367 . S
C545 C553 1.433 . S
C546 H542 0.929 1_565 S
C546 C548 1.378 . S
C546 C550 1.350 . S
C547 C550 1.463 1_545 S
C547 C552 1.350 . S
C547 N555 1.427 . S
C548 H539 0.930 . S
C548 C546 1.378 . S
C548 C549 1.367 . S
C549 C548 1.367 . S
C549 C551 1.433 . S
C550 C546 1.350 . S
C550 C547 1.463 1_565 S
C550 N554 1.427 . S
C551 H541 0.929 . S
C551 C549 1.433 . S
C551 N554 1.384 . S
C552 H543 0.929 1_545 S
C552 C544 1.378 . S
C552 C547 1.350 . S
C553 H540 0.929 . S
C553 C545 1.433 . S
C553 N555 1.384 . S
N554 C550 1.427 . S
N554 C551 1.384 . S
N555 C547 1.427 . S
N555 C553 1.384 . S
H556 C562 0.930 . S
H557 C566 0.930 . S
H558 C571 0.929 . S
H559 C569 0.929 . S
H560 C564 0.929 . S
H561 C570 0.929 . S
C562 H556 0.930 . S
C562 C563 1.367 . S
C562 C570 1.378 . S
C563 C562 1.367 . S
C563 C571 1.433 . S
C564 H560 0.929 . S
C564 C566 1.378 . S
C564 C568 1.350 . S
C565 C568 1.463 1_556 S
C565 C570 1.350 . S
C565 N573 1.427 . S
C566 H557 0.930 . S
C566 C564 1.378 . S
C566 C567 1.367 . S
C567 C566 1.367 . S
C567 C569 1.433 . S
C568 C564 1.350 . S
C568 C565 1.463 1_554 S
C568 N572 1.427 . S
C569 H559 0.929 . S
C569 C567 1.433 . S
C569 N572 1.384 . S
C570 H561 0.929 . S
C570 C562 1.378 . S
C570 C565 1.350 . S
C571 H558 0.929 . S
C571 C563 1.433 . S
C571 N573 1.384 . S
N572 C568 1.427 . S
N572 C569 1.384 . S
N573 C565 1.427 . S
N573 C571 1.384 . S
H574 C580 0.930 . S
H575 C584 0.930 . S
H576 C589 0.929 . S
H577 C587 0.929 . S
H578 C582 0.879 1_565 S
H579 C588 0.929 1_545 S
C580 H574 0.930 . S
C580 C581 1.367 . S
C580 C588 1.378 . S
C581 C580 1.367 . S
C581 C589 1.433 . S
C582 H578 0.879 1_545 S
C582 C584 1.413 . S
C582 C586 1.366 . S
C583 C586 1.463 1_565 S
C583 C588 1.350 . S
C583 N591 1.427 . S
C584 H575 0.930 . S
C584 C582 1.413 . S
C584 C585 1.367 . S
C585 C584 1.367 . S
C585 C587 1.433 . S
C586 C582 1.366 . S
C586 C583 1.463 1_545 S
C586 N590 1.427 . S
C587 H577 0.929 . S
C587 C585 1.433 . S
C587 N590 1.384 . S
C588 H579 0.929 1_565 S
C588 C580 1.378 . S
C588 C583 1.350 . S
C589 H576 0.929 . S
C589 C581 1.433 . S
C589 N591 1.384 . S
N590 C586 1.427 . S
N590 C587 1.384 . S
N591 C583 1.427 . S
N591 C589 1.384 . S
H592 C598 0.930 . S
H593 C602 0.930 . S
H594 C607 0.929 . S
H595 C605 0.929 . S
H596 C600 0.929 . S
H597 C606 0.929 . S
C598 H592 0.930 . S
C598 C599 1.367 . S
C598 C606 1.378 . S
C599 C598 1.367 . S
C599 C607 1.433 . S
C600 H596 0.929 . S
C600 C602 1.378 . S
C600 C604 1.350 . S
C601 C604 1.463 1_556 S
C601 C606 1.350 . S
C601 N609 1.427 . S
C602 H593 0.930 . S
C602 C600 1.378 . S
C602 C603 1.367 . S
C603 C602 1.367 . S
C603 C605 1.433 . S
C604 C600 1.350 . S
C604 C601 1.463 1_554 S
C604 N608 1.427 . S
C605 H595 0.929 . S
C605 C603 1.433 . S
C605 N608 1.384 . S
C606 H597 0.929 . S
C606 C598 1.378 . S
C606 C601 1.350 . S
C607 H594 0.929 . S
C607 C599 1.433 . S
C607 N609 1.384 . S
N608 C604 1.427 . S
N608 C605 1.384 . S
N609 C601 1.427 . S
N609 C607 1.384 . S
H610 C616 0.930 . S
H611 C620 0.930 . S
H612 C625 0.929 . S
H613 C623 0.929 . S
H614 C618 0.929 . S
H615 C624 0.929 . S
C616 H610 0.930 . S
C616 C617 1.367 . S
C616 C624 1.378 . S
C617 C616 1.367 . S
C617 C625 1.433 . S
C618 H614 0.929 . S
C618 C620 1.378 . S
C618 C622 1.350 . S
C619 C622 1.463 . S
C619 C624 1.350 . S
C619 N627 1.427 . S
C620 H611 0.930 . S
C620 C618 1.378 . S
C620 C621 1.367 . S
C621 C620 1.367 . S
C621 C623 1.433 . S
C622 C618 1.350 . S
C622 C619 1.463 . S
C622 N626 1.427 . S
C623 H613 0.929 . S
C623 C621 1.433 . S
C623 N626 1.384 . S
C624 H615 0.929 . S
C624 C616 1.378 . S
C624 C619 1.350 . S
C625 H612 0.929 . S
C625 C617 1.433 . S
C625 N627 1.384 . S
N626 C622 1.427 . S
N626 C623 1.384 . S
N627 C619 1.427 . S
N627 C625 1.384 . S
H628 C634 0.930 . S
H629 C638 0.930 . S
H630 C643 0.929 . S
H631 C641 0.929 . S
H632 C636 0.929 . S
H633 C642 0.929 . S
C634 H628 0.930 . S
C634 C635 1.367 . S
C634 C642 1.378 . S
C635 C634 1.367 . S
C635 C643 1.433 . S
C636 H632 0.929 . S
C636 C638 1.378 . S
C636 C640 1.350 . S
C637 C640 1.463 . S
C637 C642 1.350 . S
C637 N645 1.427 . S
C638 H629 0.930 . S
C638 C636 1.378 . S
C638 C639 1.367 . S
C639 C638 1.367 . S
C639 C641 1.433 . S
C640 C636 1.350 . S
C640 C637 1.463 . S
C640 N644 1.427 . S
C641 H631 0.929 . S
C641 C639 1.433 . S
C641 N644 1.384 . S
C642 H633 0.929 . S
C642 C634 1.378 . S
C642 C637 1.350 . S
C643 H630 0.929 . S
C643 C635 1.433 . S
C643 N645 1.384 . S
N644 C640 1.427 . S
N644 C641 1.384 . S
N645 C637 1.427 . S
N645 C643 1.384 . S
H646 C652 0.930 . S
H647 C656 0.930 . S
H648 C661 0.929 . S
H649 C659 0.929 . S
H650 C654 0.929 . S
H651 C660 0.929 . S
C652 H646 0.930 . S
C652 C653 1.367 . S
C652 C660 1.378 . S
C653 C652 1.367 . S
C653 C661 1.433 . S
C654 H650 0.929 . S
C654 C656 1.378 . S
C654 C658 1.350 . S
C655 C658 1.463 . S
C655 C660 1.350 . S
C655 N663 1.427 . S
C656 H647 0.930 . S
C656 C654 1.378 . S
C656 C657 1.367 . S
C657 C656 1.367 . S
C657 C659 1.433 . S
C658 C654 1.350 . S
C658 C655 1.463 . S
C658 N662 1.427 . S
C659 H649 0.929 . S
C659 C657 1.433 . S
C659 N662 1.384 . S
C660 H651 0.929 . S
C660 C652 1.378 . S
C660 C655 1.350 . S
C661 H648 0.929 . S
C661 C653 1.433 . S
C661 N663 1.384 . S
N662 C658 1.427 . S
N662 C659 1.384 . S
N663 C655 1.427 . S
N663 C661 1.384 . S
H664 C670 0.930 . S
H665 C674 0.930 . S
H666 C679 0.929 . S
H667 C677 0.929 . S
H668 C672 0.929 1_556 S
H669 C678 0.929 1_554 S
C670 H664 0.930 . S
C670 C671 1.367 . S
C670 C678 1.378 . S
C671 C670 1.367 . S
C671 C679 1.433 . S
C672 H668 0.929 1_554 S
C672 C674 1.378 . S
C672 C676 1.350 . S
C673 C676 1.463 1_556 S
C673 C678 1.350 . S
C673 N681 1.427 . S
C674 H665 0.930 . S
C674 C672 1.378 . S
C674 C675 1.367 . S
C675 C674 1.367 . S
C675 C677 1.433 . S
C676 C672 1.350 . S
C676 C673 1.463 1_554 S
C676 N680 1.427 . S
C677 H667 0.929 . S
C677 C675 1.433 . S
C677 N680 1.384 . S
C678 H669 0.929 1_556 S
C678 C670 1.378 . S
C678 C673 1.350 . S
C679 H666 0.929 . S
C679 C671 1.433 . S
C679 N681 1.384 . S
N680 C676 1.427 . S
N680 C677 1.384 . S
N681 C673 1.427 . S
N681 C679 1.384 . S
H682 C688 0.930 . S
H683 C692 0.930 . S
H684 C697 0.929 . S
H685 C695 0.929 . S
H686 C690 0.929 . S
H687 C696 0.929 . S
C688 H682 0.930 . S
C688 C689 1.367 . S
C688 C696 1.378 . S
C689 C688 1.367 . S
C689 C697 1.433 . S
C690 H686 0.929 . S
C690 C692 1.378 . S
C690 C694 1.350 . S
C691 C694 1.463 . S
C691 C696 1.350 . S
C691 N699 1.427 . S
C692 H683 0.930 . S
C692 C690 1.378 . S
C692 C693 1.367 . S
C693 C692 1.367 . S
C693 C695 1.433 . S
C694 C690 1.350 . S
C694 C691 1.463 . S
C694 N698 1.427 . S
C695 H685 0.929 . S
C695 C693 1.433 . S
C695 N698 1.384 . S
C696 H687 0.929 . S
C696 C688 1.378 . S
C696 C691 1.350 . S
C697 H684 0.929 . S
C697 C689 1.433 . S
C697 N699 1.384 . S
N698 C694 1.427 . S
N698 C695 1.384 . S
N699 C691 1.427 . S
N699 C697 1.384 . S
H700 C706 0.930 . S
H701 C710 0.930 . S
H702 C715 0.929 . S
H703 C713 0.929 . S
H704 C708 0.929 . S
H705 C714 0.929 . S
C706 H700 0.930 . S
C706 C707 1.367 . S
C706 C714 1.378 . S
C707 C706 1.367 . S
C707 C715 1.433 . S
C708 H704 0.929 . S
C708 C710 1.378 . S
C708 C712 1.350 . S
C709 C712 1.463 . S
C709 C714 1.350 . S
C709 N717 1.427 . S
C710 H701 0.930 . S
C710 C708 1.378 . S
C710 C711 1.367 . S
C711 C710 1.367 . S
C711 C713 1.433 . S
C712 C708 1.350 . S
C712 C709 1.463 . S
C712 N716 1.427 . S
C713 H703 0.929 . S
C713 C711 1.433 . S
C713 N716 1.384 . S
C714 H705 0.929 . S
C714 C706 1.378 . S
C714 C709 1.350 . S
C715 H702 0.929 . S
C715 C707 1.433 . S
C715 N717 1.384 . S
N716 C712 1.427 . S
N716 C713 1.384 . S
N717 C709 1.427 . S
N717 C715 1.384 . S
H718 C724 0.930 . S
H719 C728 0.930 . S
H720 C733 0.929 . S
H721 C731 0.929 . S
H722 C726 0.929 . S
H723 C732 0.929 . S
C724 H718 0.930 . S
C724 C725 1.367 . S
C724 C732 1.378 . S
C725 C724 1.367 . S
C725 C733 1.433 . S
C726 H722 0.929 . S
C726 C728 1.378 . S
C726 C730 1.350 . S
C727 C730 1.463 . S
C727 C732 1.350 . S
C727 N735 1.427 . S
C728 H719 0.930 . S
C728 C726 1.378 . S
C728 C729 1.367 . S
C729 C728 1.367 . S
C729 C731 1.433 . S
C730 C726 1.350 . S
C730 C727 1.463 . S
C730 N734 1.427 . S
C731 H721 0.929 . S
C731 C729 1.433 . S
C731 N734 1.384 . S
C732 H723 0.929 . S
C732 C724 1.378 . S
C732 C727 1.350 . S
C733 H720 0.929 . S
C733 C725 1.433 . S
C733 N735 1.384 . S
N734 C730 1.427 . S
N734 C731 1.384 . S
N735 C727 1.427 . S
N735 C733 1.384 . S
H736 C742 0.930 . S
H737 C746 0.930 . S
H738 C751 0.929 . S
H739 C749 0.929 . S
H740 C744 0.929 . S
H741 C750 0.929 . S
C742 H736 0.930 . S
C742 C743 1.367 . S
C742 C750 1.378 . S
C743 C742 1.367 . S
C743 C751 1.433 . S
C744 H740 0.929 . S
C744 C746 1.378 . S
C744 C748 1.350 . S
C745 C748 1.463 . S
C745 C750 1.350 . S
C745 N753 1.427 . S
C746 H737 0.930 . S
C746 C744 1.378 . S
C746 C747 1.367 . S
C747 C746 1.367 . S
C747 C749 1.433 . S
C748 C744 1.350 . S
C748 C745 1.463 . S
C748 N752 1.427 . S
C749 H739 0.929 . S
C749 C747 1.433 . S
C749 N752 1.384 . S
C750 H741 0.929 . S
C750 C742 1.378 . S
C750 C745 1.350 . S
C751 H738 0.929 . S
C751 C743 1.433 . S
C751 N753 1.384 . S
N752 C748 1.427 . S
N752 C749 1.384 . S
N753 C745 1.427 . S
N753 C751 1.384 . S
H754 C760 0.930 . S
H755 C764 0.930 . S
H756 C769 0.929 . S
H757 C767 0.929 . S
H758 C762 0.929 . S
H759 C768 0.929 . S
C760 H754 0.930 . S
C760 C761 1.367 . S
C760 C768 1.378 . S
C761 C760 1.367 . S
C761 C769 1.433 . S
C762 H758 0.929 . S
C762 C764 1.378 . S
C762 C766 1.350 . S
C763 C766 1.463 . S
C763 C768 1.350 . S
C763 N771 1.427 . S
C764 H755 0.930 . S
C764 C762 1.378 . S
C764 C765 1.367 . S
C765 C764 1.367 . S
C765 C767 1.433 . S
C766 C762 1.350 . S
C766 C763 1.463 . S
C766 N770 1.427 . S
C767 H757 0.929 . S
C767 C765 1.433 . S
C767 N770 1.384 . S
C768 H759 0.929 . S
C768 C760 1.378 . S
C768 C763 1.350 . S
C769 H756 0.929 . S
C769 C761 1.433 . S
C769 N771 1.384 . S
N770 C766 1.427 . S
N770 C767 1.384 . S
N771 C763 1.427 . S
N771 C769 1.384 . S
H772 C778 0.930 . S
H773 C782 0.930 . S
H774 C787 0.929 . S
H775 C785 0.929 . S
H776 C780 0.929 . S
H777 C786 0.929 . S
C778 H772 0.930 . S
C778 C779 1.367 . S
C778 C786 1.378 . S
C779 C778 1.367 . S
C779 C787 1.433 . S
C780 H776 0.929 . S
C780 C782 1.378 . S
C780 C784 1.350 . S
C781 C784 1.463 . S
C781 C786 1.350 . S
C781 N789 1.427 . S
C782 H773 0.930 . S
C782 C780 1.378 . S
C782 C783 1.367 . S
C783 C782 1.367 . S
C783 C785 1.433 . S
C784 C780 1.350 . S
C784 C781 1.463 . S
C784 N788 1.427 . S
C785 H775 0.929 . S
C785 C783 1.433 . S
C785 N788 1.384 . S
C786 H777 0.929 . S
C786 C778 1.378 . S
C786 C781 1.350 . S
C787 H774 0.929 . S
C787 C779 1.433 . S
C787 N789 1.384 . S
N788 C784 1.427 . S
N788 C785 1.384 . S
N789 C781 1.427 . S
N789 C787 1.384 . S
H790 C796 0.930 . S
H791 C800 0.930 . S
H792 C805 0.929 . S
H793 C803 0.929 . S
H794 C798 0.929 1_554 S
H795 C804 0.929 . S
C796 H790 0.930 . S
C796 C797 1.367 . S
C796 C804 1.378 . S
C797 C796 1.367 . S
C797 C805 1.433 . S
C798 H794 0.929 1_556 S
C798 C800 1.378 1_556 S
C798 C802 1.350 . S
C799 C802 1.463 . S
C799 C804 1.350 . S
C799 N807 1.427 . S
C800 H791 0.930 . S
C800 C798 1.378 1_554 S
C800 C801 1.367 1_554 S
C801 C800 1.367 1_556 S
C801 C803 1.433 . S
C802 C798 1.350 . S
C802 C799 1.463 . S
C802 N806 1.427 . S
C803 H793 0.929 . S
C803 C801 1.433 . S
C803 N806 1.384 . S
C804 H795 0.929 . S
C804 C796 1.378 . S
C804 C799 1.350 . S
C805 H792 0.929 . S
C805 C797 1.433 . S
C805 N807 1.384 . S
N806 C802 1.427 . S
N806 C803 1.384 . S
N807 C799 1.427 . S
N807 C805 1.384 . S
H808 C814 0.930 . S
H809 C818 0.930 . S
H810 C823 0.929 1_554 S
H811 C821 0.929 . S
H812 C816 0.929 . S
H813 C822 0.929 . S
C814 H808 0.930 . S
C814 C815 1.367 . S
C814 C822 1.378 . S
C815 C814 1.367 . S
C815 C823 1.433 . S
C816 H812 0.929 . S
C816 C818 1.378 . S
C816 C820 1.350 . S
C817 C820 1.463 . S
C817 C822 1.350 . S
C817 N825 1.427 . S
C818 H809 0.930 . S
C818 C816 1.378 . S
C818 C819 1.367 . S
C819 C818 1.367 . S
C819 C821 1.433 . S
C820 C816 1.350 . S
C820 C817 1.463 . S
C820 N824 1.427 . S
C821 H811 0.929 . S
C821 C819 1.433 . S
C821 N824 1.384 . S
C822 H813 0.929 . S
C822 C814 1.378 . S
C822 C817 1.350 . S
C823 H810 0.929 1_556 S
C823 C815 1.433 . S
C823 N825 1.384 . S
N824 C820 1.427 . S
N824 C821 1.384 . S
N825 C817 1.427 . S
N825 C823 1.384 . S
H826 C832 0.930 . S
H827 C836 0.930 . S
H828 C841 0.929 . S
H829 C839 0.929 . S
H830 C834 0.929 . S
H831 C840 0.929 . S
C832 H826 0.930 . S
C832 C833 1.367 . S
C832 C840 1.378 . S
C833 C832 1.367 . S
C833 C841 1.433 . S
C834 H830 0.929 . S
C834 C836 1.378 . S
C834 C838 1.350 . S
C835 C838 1.463 . S
C835 C840 1.350 . S
C835 N843 1.427 . S
C836 H827 0.930 . S
C836 C834 1.378 . S
C836 C837 1.367 . S
C837 C836 1.367 . S
C837 C839 1.433 . S
C838 C834 1.350 . S
C838 C835 1.463 . S
C838 N842 1.427 . S
C839 H829 0.929 . S
C839 C837 1.433 . S
C839 N842 1.384 . S
C840 H831 0.929 . S
C840 C832 1.378 . S
C840 C835 1.350 . S
C841 H828 0.929 . S
C841 C833 1.433 . S
C841 N843 1.384 . S
N842 C838 1.427 . S
N842 C839 1.384 . S
N843 C835 1.427 . S
N843 C841 1.384 . S
H844 C850 0.930 . S
H845 C854 0.930 . S
H846 C859 0.929 . S
H847 C857 0.929 . S
H848 C852 0.929 . S
H849 C858 0.929 . S
C850 H844 0.930 . S
C850 C851 1.367 . S
C850 C858 1.378 . S
C851 C850 1.367 . S
C851 C859 1.433 . S
C852 H848 0.929 . S
C852 C854 1.378 . S
C852 C856 1.350 . S
C853 C856 1.463 . S
C853 C858 1.350 . S
C853 N861 1.427 . S
C854 H845 0.930 . S
C854 C852 1.378 . S
C854 C855 1.367 . S
C855 C854 1.367 . S
C855 C857 1.433 . S
C856 C852 1.350 . S
C856 C853 1.463 . S
C856 N860 1.427 . S
C857 H847 0.929 . S
C857 C855 1.433 . S
C857 N860 1.384 . S
C858 H849 0.929 . S
C858 C850 1.378 . S
C858 C853 1.350 . S
C859 H846 0.929 . S
C859 C851 1.433 . S
C859 N861 1.384 . S
N860 C856 1.427 . S
N860 C857 1.384 . S
N861 C853 1.427 . S
N861 C859 1.384 . S
H862 C868 0.930 . S
H863 C872 0.930 . S
H864 C877 0.929 . S
H865 C875 0.929 . S
H866 C870 0.929 . S
H867 C876 0.937 . S
C868 H862 0.930 . S
C868 C869 1.367 1_556 S
C868 C876 1.378 1_556 S
C869 C868 1.367 1_554 S
C869 C877 1.433 . S
C870 H866 0.929 . S
C870 C872 1.378 . S
C870 C874 1.350 . S
C871 C874 1.463 . S
C871 C876 1.350 . S
C871 N879 1.427 . S
C872 H863 0.930 . S
C872 C870 1.378 . S
C872 C873 1.367 . S
C873 C872 1.367 . S
C873 C875 1.433 . S
C874 C870 1.350 . S
C874 C871 1.463 . S
C874 N878 1.427 . S
C875 H865 0.929 . S
C875 C873 1.433 . S
C875 N878 1.384 . S
C876 H867 0.937 . S
C876 C868 1.378 1_554 S
C876 C871 1.350 . S
C877 H864 0.929 . S
C877 C869 1.433 . S
C877 N879 1.384 . S
N878 C874 1.427 . S
N878 C875 1.384 . S
N879 C871 1.427 . S
N879 C877 1.384 . S
H880 C886 0.930 . S
H881 C890 0.930 . S
H882 C895 0.929 . S
H883 C893 0.929 . S
H884 C888 0.929 . S
H885 C894 0.929 . S
C886 H880 0.930 . S
C886 C887 1.367 . S
C886 C894 1.378 . S
C887 C886 1.367 . S
C887 C895 1.433 . S
C888 H884 0.929 . S
C888 C890 1.378 . S
C888 C892 1.350 . S
C889 C892 1.463 . S
C889 C894 1.350 . S
C889 N897 1.427 . S
C890 H881 0.930 . S
C890 C888 1.378 . S
C890 C891 1.367 . S
C891 C890 1.367 . S
C891 C893 1.433 . S
C892 C888 1.350 . S
C892 C889 1.463 . S
C892 N896 1.427 . S
C893 H883 0.929 . S
C893 C891 1.433 . S
C893 N896 1.384 . S
C894 H885 0.929 . S
C894 C886 1.378 . S
C894 C889 1.350 . S
C895 H882 0.929 . S
C895 C887 1.433 . S
C895 N897 1.384 . S
N896 C892 1.427 . S
N896 C893 1.384 . S
N897 C889 1.427 . S
N897 C895 1.384 . S
H898 C904 0.930 . S
H899 C908 0.930 . S
H900 C913 0.921 1_554 S
H901 C911 0.929 . S
H902 C906 0.929 . S
H903 C912 0.929 . S
C904 H898 0.930 . S
C904 C905 1.367 . S
C904 C912 1.378 . S
C905 C904 1.367 . S
C905 C913 1.438 . S
C906 H902 0.929 . S
C906 C908 1.378 . S
C906 C910 1.350 . S
C907 C910 1.463 . S
C907 C912 1.350 . S
C907 N915 1.427 . S
C908 H899 0.930 . S
C908 C906 1.378 . S
C908 C909 1.367 . S
C909 C908 1.367 . S
C909 C911 1.433 . S
C910 C906 1.350 . S
C910 C907 1.463 . S
C910 N914 1.427 . S
C911 H901 0.929 . S
C911 C909 1.433 . S
C911 N914 1.384 . S
C912 H903 0.929 . S
C912 C904 1.378 . S
C912 C907 1.350 . S
C913 H900 0.921 1_556 S
C913 C905 1.438 . S
C913 N915 1.387 . S
N914 C910 1.427 . S
N914 C911 1.384 . S
N915 C907 1.427 . S
N915 C913 1.387 . S
H916 C922 0.930 . S
H917 C926 0.930 . S
H918 C931 0.929 . S
H919 C929 0.929 . S
H920 C924 0.929 . S
H921 C930 0.929 . S
C922 H916 0.930 . S
C922 C923 1.367 . S
C922 C930 1.378 . S
C923 C922 1.367 . S
C923 C931 1.433 . S
C924 H920 0.929 . S
C924 C926 1.378 . S
C924 C928 1.350 . S
C925 C928 1.463 . S
C925 C930 1.350 . S
C925 N933 1.427 . S
C926 H917 0.930 . S
C926 C924 1.378 . S
C926 C927 1.367 . S
C927 C926 1.367 . S
C927 C929 1.433 1_554 S
C928 C924 1.350 . S
C928 C925 1.463 . S
C928 N932 1.427 . S
C929 H919 0.929 . S
C929 C927 1.433 1_556 S
C929 N932 1.384 1_556 S
C930 H921 0.929 . S
C930 C922 1.378 . S
C930 C925 1.350 . S
C931 H918 0.929 . S
C931 C923 1.433 . S
C931 N933 1.384 . S
N932 C928 1.427 . S
N932 C929 1.384 1_554 S
N933 C925 1.427 . S
N933 C931 1.384 . S
H934 C940 0.930 . S
H935 C944 0.930 . S
H936 C949 0.929 . S
H937 C947 0.929 . S
H938 C942 0.929 . S
H939 C948 0.929 . S
C940 H934 0.930 . S
C940 C941 1.367 . S
C940 C948 1.378 . S
C941 C940 1.367 . S
C941 C949 1.433 . S
C942 H938 0.929 . S
C942 C944 1.378 . S
C942 C946 1.350 . S
C943 C946 1.463 . S
C943 C948 1.350 . S
C943 N951 1.427 . S
C944 H935 0.930 . S
C944 C942 1.378 . S
C944 C945 1.367 . S
C945 C944 1.367 . S
C945 C947 1.433 . S
C946 C942 1.350 . S
C946 C943 1.463 . S
C946 N950 1.427 . S
C947 H937 0.929 . S
C947 C945 1.433 . S
C947 N950 1.384 . S
C948 H939 0.929 . S
C948 C940 1.378 . S
C948 C943 1.350 . S
C949 H936 0.929 . S
C949 C941 1.433 . S
C949 N951 1.384 . S
N950 C946 1.427 . S
N950 C947 1.384 . S
N951 C943 1.427 . S
N951 C949 1.384 . S
H952 C958 0.930 . S
H953 C962 0.930 . S
H954 C967 0.929 . S
H955 C965 0.929 . S
H956 C960 0.929 . S
H957 C966 0.929 . S
C958 H952 0.930 . S
C958 C959 1.367 . S
C958 C966 1.378 . S
C959 C958 1.367 . S
C959 C967 1.433 . S
C960 H956 0.929 . S
C960 C962 1.378 . S
C960 C964 1.350 . S
C961 C964 1.463 . S
C961 C966 1.350 . S
C961 N969 1.427 . S
C962 H953 0.930 . S
C962 C960 1.378 . S
C962 C963 1.367 . S
C963 C962 1.367 . S
C963 C965 1.433 . S
C964 C960 1.350 . S
C964 C961 1.463 . S
C964 N968 1.427 . S
C965 H955 0.929 . S
C965 C963 1.433 . S
C965 N968 1.384 . S
C966 H957 0.929 . S
C966 C958 1.378 . S
C966 C961 1.350 . S
C967 H954 0.929 . S
C967 C959 1.433 . S
C967 N969 1.384 . S
N968 C964 1.427 . S
N968 C965 1.384 . S
N969 C961 1.427 . S
N969 C967 1.384 . S
H970 C976 0.930 . S
H971 C980 0.930 . S
H972 C985 0.929 . S
H973 C983 0.929 . S
H974 C978 0.929 . S
H975 C984 0.935 . S
C976 H970 0.930 . S
C976 C977 1.367 1_556 S
C976 C984 1.378 1_556 S
C977 C976 1.367 1_554 S
C977 C985 1.433 . S
C978 H974 0.929 . S
C978 C980 1.378 . S
C978 C982 1.350 . S
C979 C982 1.463 . S
C979 C984 1.350 . S
C979 N987 1.427 . S
C980 H971 0.930 . S
C980 C978 1.378 . S
C980 C981 1.367 . S
C981 C980 1.367 . S
C981 C983 1.433 . S
C982 C978 1.350 . S
C982 C979 1.463 . S
C982 N986 1.427 . S
C983 H973 0.929 . S
C983 C981 1.433 . S
C983 N986 1.384 . S
C984 H975 0.935 . S
C984 C976 1.378 1_554 S
C984 C979 1.350 . S
C985 H972 0.929 . S
C985 C977 1.433 . S
C985 N987 1.384 . S
N986 C982 1.427 . S
N986 C983 1.384 . S
N987 C979 1.427 . S
N987 C985 1.384 . S
H988 C994 0.930 . S
H989 C998 0.930 . S
H990 C1003 0.929 . S
H991 C1001 0.929 . S
H992 C996 0.929 . S
H993 C1002 0.929 . S
C994 H988 0.930 . S
C994 C995 1.367 . S
C994 C1002 1.378 . S
C995 C994 1.367 . S
C995 C1003 1.433 . S
C996 H992 0.929 . S
C996 C998 1.378 1_556 S
C996 C1000 1.350 . S
C997 C1000 1.463 . S
C997 C1002 1.350 . S
C997 N1005 1.427 . S
C998 H989 0.930 . S
C998 C996 1.378 1_554 S
C998 C999 1.367 1_554 S
C999 C998 1.367 1_556 S
C999 C1001 1.433 . S
C1000 C996 1.350 . S
C1000 C997 1.463 . S
C1000 N1004 1.427 . S
C1001 H991 0.929 . S
C1001 C999 1.433 . S
C1001 N1004 1.384 . S
C1002 H993 0.929 . S
C1002 C994 1.378 . S
C1002 C997 1.350 . S
C1003 H990 0.929 . S
C1003 C995 1.433 . S
C1003 N1005 1.384 . S
N1004 C1000 1.427 . S
N1004 C1001 1.384 . S
N1005 C997 1.427 . S
N1005 C1003 1.384 . S
H1006 C1012 0.930 . S
H1007 C1016 0.930 . S
H1008 C1021 0.929 . S
H1009 C1019 0.929 . S
H1010 C1014 0.929 . S
H1011 C1020 0.929 . S
C1012 H1006 0.930 . S
C1012 C1013 1.367 . S
C1012 C1020 1.378 . S
C1013 C1012 1.367 . S
C1013 C1021 1.433 . S
C1014 H1010 0.929 . S
C1014 C1016 1.378 . S
C1014 C1018 1.350 . S
C1015 C1018 1.463 . S
C1015 C1020 1.350 . S
C1015 N1023 1.427 . S
C1016 H1007 0.930 . S
C1016 C1014 1.378 . S
C1016 C1017 1.367 . S
C1017 C1016 1.367 . S
C1017 C1019 1.433 . S
C1018 C1014 1.350 . S
C1018 C1015 1.463 . S
C1018 N1022 1.427 . S
C1019 H1009 0.929 . S
C1019 C1017 1.433 . S
C1019 N1022 1.384 . S
C1020 H1011 0.929 . S
C1020 C1012 1.378 . S
C1020 C1015 1.350 . S
C1021 H1008 0.929 . S
C1021 C1013 1.433 . S
C1021 N1023 1.384 . S
N1022 C1018 1.427 . S
N1022 C1019 1.384 . S
N1023 C1015 1.427 . S
N1023 C1021 1.384 . S
H1024 C1030 0.930 . S
H1025 C1034 0.930 . S
H1026 C1039 0.929 . S
H1027 C1037 0.929 . S
H1028 C1032 0.929 . S
H1029 C1038 0.929 . S
C1030 H1024 0.930 . S
C1030 C1031 1.367 . S
C1030 C1038 1.378 . S
C1031 C1030 1.367 . S
C1031 C1039 1.433 1_554 S
C1032 H1028 0.929 . S
C1032 C1034 1.378 . S
C1032 C1036 1.350 . S
C1033 C1036 1.463 . S
C1033 C1038 1.350 1_556 S
C1033 N1041 1.427 . S
C1034 H1025 0.930 . S
C1034 C1032 1.378 . S
C1034 C1035 1.367 . S
C1035 C1034 1.367 . S
C1035 C1037 1.433 . S
C1036 C1032 1.350 . S
C1036 C1033 1.463 . S
C1036 N1040 1.427 . S
C1037 H1027 0.929 . S
C1037 C1035 1.433 . S
C1037 N1040 1.384 . S
C1038 H1029 0.929 . S
C1038 C1030 1.378 . S
C1038 C1033 1.350 1_554 S
C1039 H1026 0.929 . S
C1039 C1031 1.433 1_556 S
C1039 N1041 1.384 . S
N1040 C1036 1.427 . S
N1040 C1037 1.384 . S
N1041 C1033 1.427 . S
N1041 C1039 1.384 . S
H1042 C1048 0.930 . S
H1043 C1052 0.930 . S
H1044 C1057 0.929 . S
H1045 C1055 0.929 . S
H1046 C1050 0.929 1_655 S
H1047 C1056 0.929 1_455 S
C1048 H1042 0.930 . S
C1048 C1049 1.367 . S
C1048 C1056 1.378 . S
C1049 C1048 1.367 . S
C1049 C1057 1.433 . S
C1050 H1046 0.929 1_455 S
C1050 C1052 1.378 . S
C1050 C1054 1.350 . S
C1051 C1054 1.463 1_655 S
C1051 C1056 1.350 . S
C1051 N1059 1.427 . S
C1052 H1043 0.930 . S
C1052 C1050 1.378 . S
C1052 C1053 1.367 . S
C1053 C1052 1.367 . S
C1053 C1055 1.433 . S
C1054 C1050 1.350 . S
C1054 C1051 1.463 1_455 S
C1054 N1058 1.427 . S
C1055 H1045 0.929 . S
C1055 C1053 1.433 . S
C1055 N1058 1.384 . S
C1056 H1047 0.929 1_655 S
C1056 C1048 1.378 . S
C1056 C1051 1.350 . S
C1057 H1044 0.929 . S
C1057 C1049 1.433 . S
C1057 N1059 1.384 . S
N1058 C1054 1.427 . S
N1058 C1055 1.384 . S
N1059 C1051 1.427 . S
N1059 C1057 1.384 . S
H1060 C1066 0.930 . S
H1061 C1070 0.930 . S
H1062 C1075 0.929 . S
H1063 C1073 0.929 . S
H1064 C1068 0.929 . S
H1065 C1074 0.929 . S
C1066 H1060 0.930 . S
C1066 C1067 1.367 . S
C1066 C1074 1.378 . S
C1067 C1066 1.367 . S
C1067 C1075 1.433 . S
C1068 H1064 0.929 . S
C1068 C1070 1.378 . S
C1068 C1072 1.350 . S
C1069 C1072 1.463 . S
C1069 C1074 1.350 . S
C1069 N1077 1.427 . S
C1070 H1061 0.930 . S
C1070 C1068 1.378 . S
C1070 C1071 1.367 . S
C1071 C1070 1.367 . S
C1071 C1073 1.433 . S
C1072 C1068 1.350 . S
C1072 C1069 1.463 . S
C1072 N1076 1.427 . S
C1073 H1063 0.929 . S
C1073 C1071 1.433 . S
C1073 N1076 1.384 . S
C1074 H1065 0.929 . S
C1074 C1066 1.378 . S
C1074 C1069 1.350 . S
C1075 H1062 0.929 . S
C1075 C1067 1.433 . S
C1075 N1077 1.384 . S
N1076 C1072 1.427 . S
N1076 C1073 1.384 . S
N1077 C1069 1.427 . S
N1077 C1075 1.384 . S
H1078 C1084 0.930 . S
H1079 C1088 0.930 . S
H1080 C1093 0.929 . S
H1081 C1091 0.929 . S
H1082 C1086 0.929 . S
H1083 C1092 0.929 . S
C1084 H1078 0.930 . S
C1084 C1085 1.367 . S
C1084 C1092 1.378 . S
C1085 C1084 1.367 . S
C1085 C1093 1.433 . S
C1086 H1082 0.929 . S
C1086 C1088 1.378 . S
C1086 C1090 1.350 . S
C1087 C1090 1.463 . S
C1087 C1092 1.350 . S
C1087 N1095 1.427 . S
C1088 H1079 0.930 . S
C1088 C1086 1.378 . S
C1088 C1089 1.367 . S
C1089 C1088 1.367 . S
C1089 C1091 1.433 . S
C1090 C1086 1.350 . S
C1090 C1087 1.463 . S
C1090 N1094 1.427 . S
C1091 H1081 0.929 . S
C1091 C1089 1.433 . S
C1091 N1094 1.384 . S
C1092 H1083 0.929 . S
C1092 C1084 1.378 . S
C1092 C1087 1.350 . S
C1093 H1080 0.929 . S
C1093 C1085 1.433 . S
C1093 N1095 1.384 . S
N1094 C1090 1.427 . S
N1094 C1091 1.384 . S
N1095 C1087 1.427 . S
N1095 C1093 1.384 . S
H1096 C1102 0.930 . S
H1097 C1106 0.930 . S
H1098 C1111 0.929 . S
H1099 C1109 0.929 . S
H1100 C1104 0.929 . S
H1101 C1110 0.929 . S
C1102 H1096 0.930 . S
C1102 C1103 1.367 . S
C1102 C1110 1.378 . S
C1103 C1102 1.367 . S
C1103 C1111 1.433 . S
C1104 H1100 0.929 . S
C1104 C1106 1.378 . S
C1104 C1108 1.350 . S
C1105 C1108 1.463 . S
C1105 C1110 1.350 . S
C1105 N1113 1.427 . S
C1106 H1097 0.930 . S
C1106 C1104 1.378 . S
C1106 C1107 1.367 . S
C1107 C1106 1.367 . S
C1107 C1109 1.433 . S
C1108 C1104 1.350 . S
C1108 C1105 1.463 . S
C1108 N1112 1.427 . S
C1109 H1099 0.929 . S
C1109 C1107 1.433 . S
C1109 N1112 1.384 . S
C1110 H1101 0.929 . S
C1110 C1102 1.378 . S
C1110 C1105 1.350 . S
C1111 H1098 0.929 . S
C1111 C1103 1.433 . S
C1111 N1113 1.384 . S
N1112 C1108 1.427 . S
N1112 C1109 1.384 . S
N1113 C1105 1.427 . S
N1113 C1111 1.384 . S
H1114 C1120 0.930 . S
H1115 C1124 0.930 . S
H1116 C1129 0.929 . S
H1117 C1127 0.929 . S
H1118 C1122 0.929 . S
H1119 C1128 0.929 . S
C1120 H1114 0.930 . S
C1120 C1121 1.367 . S
C1120 C1128 1.378 . S
C1121 C1120 1.367 . S
C1121 C1129 1.433 . S
C1122 H1118 0.929 . S
C1122 C1124 1.378 . S
C1122 C1126 1.350 . S
C1123 C1126 1.463 . S
C1123 C1128 1.350 . S
C1123 N1131 1.427 . S
C1124 H1115 0.930 . S
C1124 C1122 1.378 . S
C1124 C1125 1.367 . S
C1125 C1124 1.367 . S
C1125 C1127 1.433 . S
C1126 C1122 1.350 . S
C1126 C1123 1.463 . S
C1126 N1130 1.427 . S
C1127 H1117 0.929 . S
C1127 C1125 1.433 . S
C1127 N1130 1.384 . S
C1128 H1119 0.929 . S
C1128 C1120 1.378 . S
C1128 C1123 1.350 . S
C1129 H1116 0.929 . S
C1129 C1121 1.433 . S
C1129 N1131 1.384 . S
N1130 C1126 1.427 . S
N1130 C1127 1.384 . S
N1131 C1123 1.427 . S
N1131 C1129 1.384 . S
H1132 C1138 0.930 . S
H1133 C1142 0.930 . S
H1134 C1147 0.929 . S
H1135 C1145 0.929 . S
H1136 C1140 0.929 . S
H1137 C1146 0.929 . S
C1138 H1132 0.930 . S
C1138 C1139 1.367 . S
C1138 C1146 1.378 1_556 S
C1139 C1138 1.367 . S
C1139 C1147 1.433 . S
C1140 H1136 0.929 . S
C1140 C1142 1.378 . S
C1140 C1144 1.350 . S
C1141 C1144 1.463 . S
C1141 C1146 1.350 . S
C1141 N1149 1.427 1_554 S
C1142 H1133 0.930 . S
C1142 C1140 1.378 . S
C1142 C1143 1.367 . S
C1143 C1142 1.367 . S
C1143 C1145 1.433 . S
C1144 C1140 1.350 . S
C1144 C1141 1.463 . S
C1144 N1148 1.427 . S
C1145 H1135 0.929 . S
C1145 C1143 1.433 . S
C1145 N1148 1.384 . S
C1146 H1137 0.929 . S
C1146 C1138 1.378 1_554 S
C1146 C1141 1.350 . S
C1147 H1134 0.929 . S
C1147 C1139 1.433 . S
C1147 N1149 1.384 . S
N1148 C1144 1.427 . S
N1148 C1145 1.384 . S
N1149 C1141 1.427 1_556 S
N1149 C1147 1.384 . S
H1150 C1156 0.930 . S
H1151 C1160 0.930 . S
H1152 C1165 0.929 . S
H1153 C1163 0.929 . S
H1154 C1158 0.929 . S
H1155 C1164 0.929 . S
C1156 H1150 0.930 . S
C1156 C1157 1.367 . S
C1156 C1164 1.378 . S
C1157 C1156 1.367 . S
C1157 C1165 1.433 . S
C1158 H1154 0.929 . S
C1158 C1160 1.378 . S
C1158 C1162 1.350 . S
C1159 C1162 1.463 1_455 S
C1159 C1164 1.350 . S
C1159 N1167 1.427 . S
C1160 H1151 0.930 . S
C1160 C1158 1.378 . S
C1160 C1161 1.367 . S
C1161 C1160 1.367 . S
C1161 C1163 1.433 . S
C1162 C1158 1.350 . S
C1162 C1159 1.463 1_655 S
C1162 N1166 1.427 . S
C1163 H1153 0.929 . S
C1163 C1161 1.433 . S
C1163 N1166 1.384 . S
C1164 H1155 0.929 . S
C1164 C1156 1.378 . S
C1164 C1159 1.350 . S
C1165 H1152 0.929 . S
C1165 C1157 1.433 . S
C1165 N1167 1.384 . S
N1166 C1162 1.427 . S
N1166 C1163 1.384 . S
N1167 C1159 1.427 . S
N1167 C1165 1.384 . S
H1168 C1174 0.930 . S
H1169 C1178 0.930 . S
H1170 C1183 0.933 . S
H1171 C1181 0.929 . S
H1172 C1176 0.929 . S
H1173 C1182 0.929 . S
C1174 H1168 0.930 . S
C1174 C1175 1.367 . S
C1174 C1182 1.378 . S
C1175 C1174 1.367 . S
C1175 C1183 1.425 1_556 S
C1176 H1172 0.929 . S
C1176 C1178 1.378 . S
C1176 C1180 1.350 . S
C1177 C1180 1.463 . S
C1177 C1182 1.350 1_554 S
C1177 N1185 1.427 . S
C1178 H1169 0.930 . S
C1178 C1176 1.378 . S
C1178 C1179 1.367 . S
C1179 C1178 1.367 . S
C1179 C1181 1.433 . S
C1180 C1176 1.350 . S
C1180 C1177 1.463 . S
C1180 N1184 1.427 . S
C1181 H1171 0.929 . S
C1181 C1179 1.433 . S
C1181 N1184 1.384 . S
C1182 H1173 0.929 . S
C1182 C1174 1.378 . S
C1182 C1177 1.350 1_556 S
C1183 H1170 0.933 . S
C1183 C1175 1.425 1_554 S
C1183 N1185 1.389 . S
N1184 C1180 1.427 . S
N1184 C1181 1.384 . S
N1185 C1177 1.427 . S
N1185 C1183 1.389 . S
H1186 C1192 0.930 . S
H1187 C1196 0.930 . S
H1188 C1201 0.929 . S
H1189 C1199 0.929 . S
H1190 C1194 0.929 . S
H1191 C1200 0.929 . S
C1192 H1186 0.930 . S
C1192 C1193 1.367 . S
C1192 C1200 1.378 . S
C1193 C1192 1.367 . S
C1193 C1201 1.433 . S
C1194 H1190 0.929 . S
C1194 C1196 1.378 . S
C1194 C1198 1.350 . S
C1195 C1198 1.463 1_455 S
C1195 C1200 1.350 . S
C1195 N1203 1.427 . S
C1196 H1187 0.930 . S
C1196 C1194 1.378 . S
C1196 C1197 1.367 . S
C1197 C1196 1.367 . S
C1197 C1199 1.433 . S
C1198 C1194 1.350 . S
C1198 C1195 1.463 1_655 S
C1198 N1202 1.427 . S
C1199 H1189 0.929 . S
C1199 C1197 1.433 . S
C1199 N1202 1.384 . S
C1200 H1191 0.929 . S
C1200 C1192 1.378 . S
C1200 C1195 1.350 . S
C1201 H1188 0.929 . S
C1201 C1193 1.433 . S
C1201 N1203 1.384 . S
N1202 C1198 1.427 . S
N1202 C1199 1.384 . S
N1203 C1195 1.427 . S
N1203 C1201 1.384 . S
H1204 C1210 0.930 . S
H1205 C1214 0.930 . S
H1206 C1219 0.929 . S
H1207 C1217 0.929 . S
H1208 C1212 0.929 . S
H1209 C1218 0.929 . S
C1210 H1204 0.930 . S
C1210 C1211 1.367 . S
C1210 C1218 1.378 . S
C1211 C1210 1.367 . S
C1211 C1219 1.433 . S
C1212 H1208 0.929 . S
C1212 C1214 1.378 . S
C1212 C1216 1.350 . S
C1213 C1216 1.463 . S
C1213 C1218 1.350 . S
C1213 N1221 1.427 . S
C1214 H1205 0.930 . S
C1214 C1212 1.378 . S
C1214 C1215 1.367 . S
C1215 C1214 1.367 . S
C1215 C1217 1.433 . S
C1216 C1212 1.350 . S
C1216 C1213 1.463 . S
C1216 N1220 1.427 . S
C1217 H1207 0.929 . S
C1217 C1215 1.433 . S
C1217 N1220 1.384 . S
C1218 H1209 0.929 . S
C1218 C1210 1.378 . S
C1218 C1213 1.350 . S
C1219 H1206 0.929 . S
C1219 C1211 1.433 . S
C1219 N1221 1.384 . S
N1220 C1216 1.427 . S
N1220 C1217 1.384 . S
N1221 C1213 1.427 . S
N1221 C1219 1.384 . S
H1222 C1228 0.930 . S
H1223 C1232 0.930 . S
H1224 C1237 0.929 . S
H1225 C1235 0.929 . S
H1226 C1230 0.929 . S
H1227 C1236 0.929 . S
C1228 H1222 0.930 . S
C1228 C1229 1.367 . S
C1228 C1236 1.378 . S
C1229 C1228 1.367 . S
C1229 C1237 1.433 . S
C1230 H1226 0.929 . S
C1230 C1232 1.378 . S
C1230 C1234 1.350 . S
C1231 C1234 1.463 . S
C1231 C1236 1.350 . S
C1231 N1239 1.427 . S
C1232 H1223 0.930 . S
C1232 C1230 1.378 . S
C1232 C1233 1.367 . S
C1233 C1232 1.367 . S
C1233 C1235 1.433 . S
C1234 C1230 1.350 . S
C1234 C1231 1.463 . S
C1234 N1238 1.427 . S
C1235 H1225 0.929 . S
C1235 C1233 1.433 . S
C1235 N1238 1.384 . S
C1236 H1227 0.929 . S
C1236 C1228 1.378 . S
C1236 C1231 1.350 . S
C1237 H1224 0.929 . S
C1237 C1229 1.433 . S
C1237 N1239 1.384 . S
N1238 C1234 1.427 . S
N1238 C1235 1.384 . S
N1239 C1231 1.427 . S
N1239 C1237 1.384 . S
H1240 C1246 0.930 . S
H1241 C1250 0.930 . S
H1242 C1255 0.929 . S
H1243 C1253 0.929 . S
H1244 C1248 0.929 . S
H1245 C1254 0.929 . S
C1246 H1240 0.930 . S
C1246 C1247 1.367 . S
C1246 C1254 1.378 . S
C1247 C1246 1.367 . S
C1247 C1255 1.433 . S
C1248 H1244 0.929 . S
C1248 C1250 1.378 . S
C1248 C1252 1.350 . S
C1249 C1252 1.463 . S
C1249 C1254 1.350 . S
C1249 N1257 1.427 . S
C1250 H1241 0.930 . S
C1250 C1248 1.378 . S
C1250 C1251 1.367 . S
C1251 C1250 1.367 . S
C1251 C1253 1.433 . S
C1252 C1248 1.350 . S
C1252 C1249 1.463 . S
C1252 N1256 1.427 . S
C1253 H1243 0.929 . S
C1253 C1251 1.433 . S
C1253 N1256 1.384 . S
C1254 H1245 0.929 . S
C1254 C1246 1.378 . S
C1254 C1249 1.350 . S
C1255 H1242 0.929 . S
C1255 C1247 1.433 . S
C1255 N1257 1.384 . S
N1256 C1252 1.427 . S
N1256 C1253 1.384 . S
N1257 C1249 1.427 . S
N1257 C1255 1.384 . S
H1258 C1264 0.930 . S
H1259 C1268 0.930 . S
H1260 C1273 0.929 . S
H1261 C1271 0.929 . S
H1262 C1266 0.929 . S
H1263 C1272 0.929 . S
C1264 H1258 0.930 . S
C1264 C1265 1.367 . S
C1264 C1272 1.378 . S
C1265 C1264 1.367 . S
C1265 C1273 1.433 . S
C1266 H1262 0.929 . S
C1266 C1268 1.378 . S
C1266 C1270 1.350 . S
C1267 C1270 1.463 . S
C1267 C1272 1.350 . S
C1267 N1275 1.427 . S
C1268 H1259 0.930 . S
C1268 C1266 1.378 . S
C1268 C1269 1.367 . S
C1269 C1268 1.367 . S
C1269 C1271 1.433 . S
C1270 C1266 1.350 . S
C1270 C1267 1.463 . S
C1270 N1274 1.427 . S
C1271 H1261 0.929 . S
C1271 C1269 1.433 . S
C1271 N1274 1.384 . S
C1272 H1263 0.929 . S
C1272 C1264 1.378 . S
C1272 C1267 1.350 . S
C1273 H1260 0.929 . S
C1273 C1265 1.433 . S
C1273 N1275 1.384 . S
N1274 C1270 1.427 . S
N1274 C1271 1.384 . S
N1275 C1267 1.427 . S
N1275 C1273 1.384 . S
H1276 C1282 0.930 . S
H1277 C1286 0.930 . S
H1278 C1291 0.929 . S
H1279 C1289 0.929 . S
H1280 C1284 0.929 . S
H1281 C1290 0.929 . S
C1282 H1276 0.930 . S
C1282 C1283 1.367 . S
C1282 C1290 1.378 . S
C1283 C1282 1.367 . S
C1283 C1291 1.433 1_554 S
C1284 H1280 0.929 . S
C1284 C1286 1.378 . S
C1284 C1288 1.350 . S
C1285 C1288 1.463 . S
C1285 C1290 1.350 1_556 S
C1285 N1293 1.427 . S
C1286 H1277 0.930 . S
C1286 C1284 1.378 . S
C1286 C1287 1.367 . S
C1287 C1286 1.367 . S
C1287 C1289 1.433 . S
C1288 C1284 1.350 . S
C1288 C1285 1.463 . S
C1288 N1292 1.427 . S
C1289 H1279 0.929 . S
C1289 C1287 1.433 . S
C1289 N1292 1.384 . S
C1290 H1281 0.929 . S
C1290 C1282 1.378 . S
C1290 C1285 1.350 1_554 S
C1291 H1278 0.929 . S
C1291 C1283 1.433 1_556 S
C1291 N1293 1.384 . S
N1292 C1288 1.427 . S
N1292 C1289 1.384 . S
N1293 C1285 1.427 . S
N1293 C1291 1.384 . S
H1294 C1300 0.930 . S
H1295 C1304 0.930 . S
H1296 C1309 0.929 . S
H1297 C1307 0.929 . S
H1298 C1302 0.929 . S
H1299 C1308 0.929 . S
C1300 H1294 0.930 . S
C1300 C1301 1.367 . S
C1300 C1308 1.378 . S
C1301 C1300 1.367 . S
C1301 C1309 1.433 . S
C1302 H1298 0.929 . S
C1302 C1304 1.378 . S
C1302 C1306 1.350 . S
C1303 C1306 1.463 1_455 S
C1303 C1308 1.350 . S
C1303 N1311 1.427 . S
C1304 H1295 0.930 . S
C1304 C1302 1.378 . S
C1304 C1305 1.367 . S
C1305 C1304 1.367 . S
C1305 C1307 1.433 . S
C1306 C1302 1.350 . S
C1306 C1303 1.463 1_655 S
C1306 N1310 1.427 . S
C1307 H1297 0.929 . S
C1307 C1305 1.433 . S
C1307 N1310 1.384 . S
C1308 H1299 0.929 . S
C1308 C1300 1.378 . S
C1308 C1303 1.350 . S
C1309 H1296 0.929 . S
C1309 C1301 1.433 . S
C1309 N1311 1.384 . S
N1310 C1306 1.427 . S
N1310 C1307 1.384 . S
N1311 C1303 1.427 . S
N1311 C1309 1.384 . S
H1312 C1318 0.930 . S
H1313 C1322 0.930 . S
H1314 C1327 0.929 . S
H1315 C1325 0.929 . S
H1316 C1320 0.929 . S
H1317 C1326 0.929 . S
C1318 H1312 0.930 . S
C1318 C1319 1.367 . S
C1318 C1326 1.378 . S
C1319 C1318 1.367 . S
C1319 C1327 1.433 . S
C1320 H1316 0.929 . S
C1320 C1322 1.378 . S
C1320 C1324 1.350 . S
C1321 C1324 1.463 . S
C1321 C1326 1.350 . S
C1321 N1329 1.427 . S
C1322 H1313 0.930 . S
C1322 C1320 1.378 . S
C1322 C1323 1.367 . S
C1323 C1322 1.367 . S
C1323 C1325 1.433 . S
C1324 C1320 1.350 . S
C1324 C1321 1.463 . S
C1324 N1328 1.427 . S
C1325 H1315 0.929 . S
C1325 C1323 1.433 . S
C1325 N1328 1.384 . S
C1326 H1317 0.929 . S
C1326 C1318 1.378 . S
C1326 C1321 1.350 . S
C1327 H1314 0.929 . S
C1327 C1319 1.433 . S
C1327 N1329 1.384 . S
N1328 C1324 1.427 . S
N1328 C1325 1.384 . S
N1329 C1321 1.427 . S
N1329 C1327 1.384 . S
H1330 C1336 0.930 . S
H1331 C1340 0.930 . S
H1332 C1345 0.929 . S
H1333 C1343 0.929 . S
H1334 C1338 0.929 . S
H1335 C1344 0.929 . S
C1336 H1330 0.930 . S
C1336 C1337 1.367 . S
C1336 C1344 1.378 . S
C1337 C1336 1.367 . S
C1337 C1345 1.433 . S
C1338 H1334 0.929 . S
C1338 C1340 1.378 . S
C1338 C1342 1.350 . S
C1339 C1342 1.463 . S
C1339 C1344 1.350 . S
C1339 N1347 1.427 . S
C1340 H1331 0.930 . S
C1340 C1338 1.378 . S
C1340 C1341 1.367 . S
C1341 C1340 1.367 . S
C1341 C1343 1.433 . S
C1342 C1338 1.350 . S
C1342 C1339 1.463 . S
C1342 N1346 1.427 . S
C1343 H1333 0.929 . S
C1343 C1341 1.433 . S
C1343 N1346 1.384 . S
C1344 H1335 0.929 . S
C1344 C1336 1.378 . S
C1344 C1339 1.350 . S
C1345 H1332 0.929 . S
C1345 C1337 1.433 . S
C1345 N1347 1.384 . S
N1346 C1342 1.427 . S
N1346 C1343 1.384 . S
N1347 C1339 1.427 . S
N1347 C1345 1.384 . S
H1348 C1354 0.930 . S
H1349 C1358 0.930 . S
H1350 C1363 0.929 . S
H1351 C1361 0.929 . S
H1352 C1356 0.929 1_554 S
H1353 C1362 0.929 . S
C1354 H1348 0.930 . S
C1354 C1355 1.367 1_556 S
C1354 C1362 1.378 . S
C1355 C1354 1.367 1_554 S
C1355 C1363 1.433 . S
C1356 H1352 0.929 1_556 S
C1356 C1358 1.378 . S
C1356 C1360 1.350 . S
C1357 C1360 1.463 . S
C1357 C1362 1.350 . S
C1357 N1365 1.427 1_556 S
C1358 H1349 0.930 . S
C1358 C1356 1.378 . S
C1358 C1359 1.367 . S
C1359 C1358 1.367 . S
C1359 C1361 1.433 . S
C1360 C1356 1.350 . S
C1360 C1357 1.463 . S
C1360 N1364 1.427 . S
C1361 H1351 0.929 . S
C1361 C1359 1.433 . S
C1361 N1364 1.384 . S
C1362 H1353 0.929 . S
C1362 C1354 1.378 . S
C1362 C1357 1.350 . S
C1363 H1350 0.929 . S
C1363 C1355 1.433 . S
C1363 N1365 1.384 . S
N1364 C1360 1.427 . S
N1364 C1361 1.384 . S
N1365 C1357 1.427 1_554 S
N1365 C1363 1.384 . S
H1366 C1372 0.930 . S
H1367 C1376 0.930 . S
H1368 C1381 0.929 . S
H1369 C1379 0.929 . S
H1370 C1374 0.929 . S
H1371 C1380 0.929 . S
C1372 H1366 0.930 . S
C1372 C1373 1.367 . S
C1372 C1380 1.378 . S
C1373 C1372 1.367 . S
C1373 C1381 1.433 . S
C1374 H1370 0.929 . S
C1374 C1376 1.378 . S
C1374 C1378 1.350 . S
C1375 C1378 1.463 1_655 S
C1375 C1380 1.350 . S
C1375 N1383 1.427 . S
C1376 H1367 0.930 . S
C1376 C1374 1.378 . S
C1376 C1377 1.367 . S
C1377 C1376 1.367 . S
C1377 C1379 1.433 . S
C1378 C1374 1.350 . S
C1378 C1375 1.463 1_455 S
C1378 N1382 1.427 . S
C1379 H1369 0.929 . S
C1379 C1377 1.433 . S
C1379 N1382 1.384 . S
C1380 H1371 0.929 . S
C1380 C1372 1.378 . S
C1380 C1375 1.350 . S
C1381 H1368 0.929 . S
C1381 C1373 1.433 . S
C1381 N1383 1.384 . S
N1382 C1378 1.427 . S
N1382 C1379 1.384 . S
N1383 C1375 1.427 . S
N1383 C1381 1.384 . S
H1384 C1390 0.930 . S
H1385 C1394 0.930 . S
H1386 C1399 0.929 . S
H1387 C1397 0.929 . S
H1388 C1392 0.929 1_556 S
H1389 C1398 0.929 . S
C1390 H1384 0.930 . S
C1390 C1391 1.367 1_554 S
C1390 C1398 1.378 . S
C1391 C1390 1.367 1_556 S
C1391 C1399 1.433 . S
C1392 H1388 0.929 1_554 S
C1392 C1394 1.378 . S
C1392 C1396 1.350 . S
C1393 C1396 1.463 . S
C1393 C1398 1.350 . S
C1393 N1401 1.427 1_554 S
C1394 H1385 0.930 . S
C1394 C1392 1.378 . S
C1394 C1395 1.367 . S
C1395 C1394 1.367 . S
C1395 C1397 1.433 . S
C1396 C1392 1.350 . S
C1396 C1393 1.463 . S
C1396 N1400 1.427 . S
C1397 H1387 0.929 . S
C1397 C1395 1.433 . S
C1397 N1400 1.384 . S
C1398 H1389 0.929 . S
C1398 C1390 1.378 . S
C1398 C1393 1.350 . S
C1399 H1386 0.929 . S
C1399 C1391 1.433 . S
C1399 N1401 1.384 . S
N1400 C1396 1.427 . S
N1400 C1397 1.384 . S
N1401 C1393 1.427 1_556 S
N1401 C1399 1.384 . S
H1402 C1408 0.930 . S
H1403 C1412 0.930 . S
H1404 C1417 0.929 . S
H1405 C1415 0.929 . S
H1406 C1410 0.929 . S
H1407 C1416 0.929 . S
C1408 H1402 0.930 . S
C1408 C1409 1.367 . S
C1408 C1416 1.378 . S
C1409 C1408 1.367 . S
C1409 C1417 1.433 . S
C1410 H1406 0.929 . S
C1410 C1412 1.378 . S
C1410 C1414 1.350 . S
C1411 C1414 1.463 1_655 S
C1411 C1416 1.350 . S
C1411 N1419 1.427 . S
C1412 H1403 0.930 . S
C1412 C1410 1.378 . S
C1412 C1413 1.367 . S
C1413 C1412 1.367 . S
C1413 C1415 1.433 . S
C1414 C1410 1.350 . S
C1414 C1411 1.463 1_455 S
C1414 N1418 1.427 . S
C1415 H1405 0.929 . S
C1415 C1413 1.433 . S
C1415 N1418 1.384 . S
C1416 H1407 0.929 . S
C1416 C1408 1.378 . S
C1416 C1411 1.350 . S
C1417 H1404 0.929 . S
C1417 C1409 1.433 . S
C1417 N1419 1.384 . S
N1418 C1414 1.427 . S
N1418 C1415 1.384 . S
N1419 C1411 1.427 . S
N1419 C1417 1.384 . S
H1420 C1426 0.930 . S
H1421 C1430 0.930 . S
H1422 C1435 0.929 . S
H1423 C1433 0.929 . S
H1424 C1428 0.929 . S
H1425 C1434 0.929 . S
C1426 H1420 0.930 . S
C1426 C1427 1.367 . S
C1426 C1434 1.378 . S
C1427 C1426 1.367 . S
C1427 C1435 1.433 . S
C1428 H1424 0.929 . S
C1428 C1430 1.378 . S
C1428 C1432 1.350 . S
C1429 C1432 1.463 . S
C1429 C1434 1.350 . S
C1429 N1437 1.427 . S
C1430 H1421 0.930 . S
C1430 C1428 1.378 . S
C1430 C1431 1.367 . S
C1431 C1430 1.367 . S
C1431 C1433 1.433 . S
C1432 C1428 1.350 . S
C1432 C1429 1.463 . S
C1432 N1436 1.427 . S
C1433 H1423 0.929 . S
C1433 C1431 1.433 . S
C1433 N1436 1.384 . S
C1434 H1425 0.929 . S
C1434 C1426 1.378 . S
C1434 C1429 1.350 . S
C1435 H1422 0.929 . S
C1435 C1427 1.433 . S
C1435 N1437 1.384 . S
N1436 C1432 1.427 . S
N1436 C1433 1.384 . S
N1437 C1429 1.427 . S
N1437 C1435 1.384 . S
H1438 C1444 0.930 . S
H1439 C1448 0.930 . S
H1440 C1453 0.929 . S
H1441 C1451 0.929 . S
H1442 C1446 0.929 . S
H1443 C1452 0.929 . S
C1444 H1438 0.930 . S
C1444 C1445 1.367 . S
C1444 C1452 1.378 . S
C1445 C1444 1.367 . S
C1445 C1453 1.433 . S
C1446 H1442 0.929 . S
C1446 C1448 1.378 . S
C1446 C1450 1.350 . S
C1447 C1450 1.463 . S
C1447 C1452 1.350 . S
C1447 N1455 1.427 . S
C1448 H1439 0.930 . S
C1448 C1446 1.378 . S
C1448 C1449 1.367 . S
C1449 C1448 1.367 . S
C1449 C1451 1.433 . S
C1450 C1446 1.350 . S
C1450 C1447 1.463 . S
C1450 N1454 1.427 . S
C1451 H1441 0.929 . S
C1451 C1449 1.433 . S
C1451 N1454 1.384 . S
C1452 H1443 0.929 . S
C1452 C1444 1.378 . S
C1452 C1447 1.350 . S
C1453 H1440 0.929 . S
C1453 C1445 1.433 . S
C1453 N1455 1.384 . S
N1454 C1450 1.427 . S
N1454 C1451 1.384 . S
N1455 C1447 1.427 . S
N1455 C1453 1.384 . S
H1456 C1462 0.930 . S
H1457 C1466 0.930 . S
H1458 C1471 0.929 . S
H1459 C1469 0.929 . S
H1460 C1464 0.929 . S
H1461 C1470 0.929 . S
C1462 H1456 0.930 . S
C1462 C1463 1.367 . S
C1462 C1470 1.378 . S
C1463 C1462 1.367 . S
C1463 C1471 1.433 . S
C1464 H1460 0.929 . S
C1464 C1466 1.378 . S
C1464 C1468 1.350 . S
C1465 C1468 1.463 . S
C1465 C1470 1.350 . S
C1465 N1473 1.427 . S
C1466 H1457 0.930 . S
C1466 C1464 1.378 . S
C1466 C1467 1.367 . S
C1467 C1466 1.367 . S
C1467 C1469 1.433 . S
C1468 C1464 1.350 . S
C1468 C1465 1.463 . S
C1468 N1472 1.427 . S
C1469 H1459 0.929 . S
C1469 C1467 1.433 . S
C1469 N1472 1.384 . S
C1470 H1461 0.929 . S
C1470 C1462 1.378 . S
C1470 C1465 1.350 . S
C1471 H1458 0.929 . S
C1471 C1463 1.433 . S
C1471 N1473 1.384 . S
N1472 C1468 1.427 . S
N1472 C1469 1.384 . S
N1473 C1465 1.427 . S
N1473 C1471 1.384 . S
H1474 C1480 0.930 . S
H1475 C1484 0.930 . S
H1476 C1489 0.929 . S
H1477 C1487 0.929 . S
H1478 C1482 0.929 . S
H1479 C1488 0.929 . S
C1480 H1474 0.930 . S
C1480 C1481 1.367 . S
C1480 C1488 1.378 . S
C1481 C1480 1.367 . S
C1481 C1489 1.433 . S
C1482 H1478 0.929 . S
C1482 C1484 1.378 . S
C1482 C1486 1.350 . S
C1483 C1486 1.463 . S
C1483 C1488 1.350 . S
C1483 N1491 1.427 . S
C1484 H1475 0.930 . S
C1484 C1482 1.378 . S
C1484 C1485 1.367 . S
C1485 C1484 1.367 . S
C1485 C1487 1.433 . S
C1486 C1482 1.350 . S
C1486 C1483 1.463 . S
C1486 N1490 1.427 . S
C1487 H1477 0.929 . S
C1487 C1485 1.433 . S
C1487 N1490 1.384 . S
C1488 H1479 0.929 . S
C1488 C1480 1.378 . S
C1488 C1483 1.350 . S
C1489 H1476 0.929 . S
C1489 C1481 1.433 . S
C1489 N1491 1.384 . S
N1490 C1486 1.427 . S
N1490 C1487 1.384 . S
N1491 C1483 1.427 . S
N1491 C1489 1.384 . S
H1492 C1498 0.930 . S
H1493 C1502 0.930 . S
H1494 C1507 0.929 . S
H1495 C1505 0.929 1_554 S
H1496 C1500 0.929 . S
H1497 C1506 0.929 . S
C1498 H1492 0.930 . S
C1498 C1499 1.367 . S
C1498 C1506 1.378 . S
C1499 C1498 1.367 . S
C1499 C1507 1.433 . S
C1500 H1496 0.929 . S
C1500 C1502 1.378 . S
C1500 C1504 1.350 1_556 S
C1501 C1504 1.463 . S
C1501 C1506 1.350 . S
C1501 N1509 1.427 . S
C1502 H1493 0.930 . S
C1502 C1500 1.378 . S
C1502 C1503 1.367 . S
C1503 C1502 1.367 . S
C1503 C1505 1.433 . S
C1504 C1500 1.350 1_554 S
C1504 C1501 1.463 . S
C1504 N1508 1.427 . S
C1505 H1495 0.929 1_556 S
C1505 C1503 1.433 . S
C1505 N1508 1.384 1_556 S
C1506 H1497 0.929 . S
C1506 C1498 1.378 . S
C1506 C1501 1.350 . S
C1507 H1494 0.929 . S
C1507 C1499 1.433 . S
C1507 N1509 1.384 . S
N1508 C1504 1.427 . S
N1508 C1505 1.384 1_554 S
N1509 C1501 1.427 . S
N1509 C1507 1.384 . S
H1510 C1516 0.930 . S
H1511 C1520 0.930 . S
H1512 C1525 0.929 . S
H1513 C1523 0.929 . S
H1514 C1518 0.956 . S
H1515 C1524 0.929 1_655 S
C1516 H1510 0.930 . S
C1516 C1517 1.367 . S
C1516 C1524 1.378 . S
C1517 C1516 1.367 . S
C1517 C1525 1.433 . S
C1518 H1514 0.956 . S
C1518 C1520 1.378 . S
C1518 C1522 1.350 . S
C1519 C1522 1.463 1_455 S
C1519 C1524 1.350 . S
C1519 N1527 1.427 . S
C1520 H1511 0.930 . S
C1520 C1518 1.378 . S
C1520 C1521 1.367 . S
C1521 C1520 1.367 . S
C1521 C1523 1.433 . S
C1522 C1518 1.350 . S
C1522 C1519 1.463 1_655 S
C1522 N1526 1.427 . S
C1523 H1513 0.929 . S
C1523 C1521 1.433 . S
C1523 N1526 1.384 . S
C1524 H1515 0.929 1_455 S
C1524 C1516 1.378 . S
C1524 C1519 1.350 . S
C1525 H1512 0.929 . S
C1525 C1517 1.433 . S
C1525 N1527 1.384 . S
N1526 C1522 1.427 . S
N1526 C1523 1.384 . S
N1527 C1519 1.427 . S
N1527 C1525 1.384 . S
H1528 C1534 0.930 . S
H1529 C1538 0.930 . S
H1530 C1543 0.929 1_556 S
H1531 C1541 0.929 . S
H1532 C1536 0.929 . S
H1533 C1542 0.929 . S
C1534 H1528 0.930 . S
C1534 C1535 1.367 . S
C1534 C1542 1.378 . S
C1535 C1534 1.367 . S
C1535 C1543 1.433 . S
C1536 H1532 0.929 . S
C1536 C1538 1.378 . S
C1536 C1540 1.350 . S
C1537 C1540 1.463 . S
C1537 C1542 1.350 1_556 S
C1537 N1545 1.427 . S
C1538 H1529 0.930 . S
C1538 C1536 1.378 . S
C1538 C1539 1.367 . S
C1539 C1538 1.367 . S
C1539 C1541 1.433 . S
C1540 C1536 1.350 . S
C1540 C1537 1.463 . S
C1540 N1544 1.427 . S
C1541 H1531 0.929 . S
C1541 C1539 1.433 . S
C1541 N1544 1.384 . S
C1542 H1533 0.929 . S
C1542 C1534 1.378 . S
C1542 C1537 1.350 1_554 S
C1543 H1530 0.929 1_554 S
C1543 C1535 1.433 . S
C1543 N1545 1.384 1_554 S
N1544 C1540 1.427 . S
N1544 C1541 1.384 . S
N1545 C1537 1.427 . S
N1545 C1543 1.384 1_556 S
H1546 C1552 0.930 . S
H1547 C1556 0.930 . S
H1548 C1561 0.929 . S
H1549 C1559 0.929 . S
H1550 C1554 0.929 . S
H1551 C1560 0.929 . S
C1552 H1546 0.930 . S
C1552 C1553 1.367 . S
C1552 C1560 1.378 . S
C1553 C1552 1.367 . S
C1553 C1561 1.433 . S
C1554 H1550 0.929 . S
C1554 C1556 1.378 . S
C1554 C1558 1.350 . S
C1555 C1558 1.463 1_655 S
C1555 C1560 1.350 . S
C1555 N1563 1.427 . S
C1556 H1547 0.930 . S
C1556 C1554 1.378 . S
C1556 C1557 1.367 . S
C1557 C1556 1.367 . S
C1557 C1559 1.433 . S
C1558 C1554 1.350 . S
C1558 C1555 1.463 1_455 S
C1558 N1562 1.427 . S
C1559 H1549 0.929 . S
C1559 C1557 1.433 . S
C1559 N1562 1.384 . S
C1560 H1551 0.929 . S
C1560 C1552 1.378 . S
C1560 C1555 1.350 . S
C1561 H1548 0.929 . S
C1561 C1553 1.433 . S
C1561 N1563 1.384 . S
N1562 C1558 1.427 . S
N1562 C1559 1.384 . S
N1563 C1555 1.427 . S
N1563 C1561 1.384 . S
H1564 C1570 0.930 . S
H1565 C1574 0.930 . S
H1566 C1579 0.929 . S
H1567 C1577 0.929 . S
H1568 C1572 0.929 . S
H1569 C1578 0.929 . S
C1570 H1564 0.930 . S
C1570 C1571 1.367 . S
C1570 C1578 1.378 . S
C1571 C1570 1.367 . S
C1571 C1579 1.433 . S
C1572 H1568 0.929 . S
C1572 C1574 1.378 . S
C1572 C1576 1.350 . S
C1573 C1576 1.463 . S
C1573 C1578 1.350 . S
C1573 N1581 1.427 . S
C1574 H1565 0.930 . S
C1574 C1572 1.378 . S
C1574 C1575 1.367 . S
C1575 C1574 1.367 . S
C1575 C1577 1.433 . S
C1576 C1572 1.350 . S
C1576 C1573 1.463 . S
C1576 N1580 1.427 . S
C1577 H1567 0.929 . S
C1577 C1575 1.433 . S
C1577 N1580 1.384 . S
C1578 H1569 0.929 . S
C1578 C1570 1.378 . S
C1578 C1573 1.350 . S
C1579 H1566 0.929 . S
C1579 C1571 1.433 . S
C1579 N1581 1.384 . S
N1580 C1576 1.427 . S
N1580 C1577 1.384 . S
N1581 C1573 1.427 . S
N1581 C1579 1.384 . S
H1582 C1588 0.930 . S
H1583 C1592 0.930 . S
H1584 C1597 0.929 . S
H1585 C1595 0.929 . S
H1586 C1590 0.929 . S
H1587 C1596 0.929 . S
C1588 H1582 0.930 . S
C1588 C1589 1.367 . S
C1588 C1596 1.378 . S
C1589 C1588 1.367 . S
C1589 C1597 1.433 . S
C1590 H1586 0.929 . S
C1590 C1592 1.378 . S
C1590 C1594 1.350 . S
C1591 C1594 1.463 . S
C1591 C1596 1.350 . S
C1591 N1599 1.427 . S
C1592 H1583 0.930 . S
C1592 C1590 1.378 . S
C1592 C1593 1.367 . S
C1593 C1592 1.367 . S
C1593 C1595 1.433 . S
C1594 C1590 1.350 . S
C1594 C1591 1.463 . S
C1594 N1598 1.427 . S
C1595 H1585 0.929 . S
C1595 C1593 1.433 . S
C1595 N1598 1.384 . S
C1596 H1587 0.929 . S
C1596 C1588 1.378 . S
C1596 C1591 1.350 . S
C1597 H1584 0.929 . S
C1597 C1589 1.433 . S
C1597 N1599 1.384 . S
N1598 C1594 1.427 . S
N1598 C1595 1.384 . S
N1599 C1591 1.427 . S
N1599 C1597 1.384 . S
C455 C89 1.497 . S
C459 C5 1.490 . S
C473 C19 1.470 . S
C477 C103 1.459 . S
C491 C61 1.482 . S
C495 C33 1.490 . S
C509 C47 1.461 . S
C513 C75 1.459 . S
C527 C201 1.490 . S
C531 C117 1.497 . S
C545 C131 1.459 . S
C549 C215 1.464 . S
C563 C173 1.487 . S
C567 C145 1.496 . S
C581 C159 1.462 . S
C585 C187 1.458 . S
C599 C229 1.488 . S
C603 C313 1.496 . S
C617 C327 1.466 . S
C621 C243 1.458 . S
C635 C257 1.483 . S
C639 C285 1.484 . S
C653 C299 1.466 . S
C657 C271 1.458 . S
C671 C425 1.490 . S
C675 C341 1.497 . S
C689 C439 1.476 . S
C693 C355 1.469 . S
C707 C397 1.482 . S
C711 C369 1.486 . S
C725 C383 1.464 . S
C729 C411 1.458 . S
C743 C109 1.075 . S
C747 C11 1.060 . S
C761 C67 1.067 . S
C765 C25 1.078 . S
C779 C81 1.069 . S
C783 C39 1.057 . S
C797 C95 1.072 . S
C801 C53 1.076 . S
C815 C221 1.068 . S
C819 C123 1.057 . S
C833 C179 1.067 . S
C837 C137 1.078 . S
C851 C193 1.076 . S
C855 C151 1.072 . S
C869 C165 1.077 . S
C873 C207 1.071 . S
C887 C333 1.072 . S
C891 C235 1.075 . S
C905 C249 1.067 . S
C909 C291 1.058 . S
C923 C263 1.062 . S
C927 C305 1.060 . S
C941 C319 1.075 . S
C945 C277 1.062 . S
C959 C445 1.061 . S
C963 C347 1.061 . S
C977 C361 1.077 . S
C981 C403 1.071 . S
C995 C375 1.076 . S
C999 C417 1.072 . S
C1013 C431 1.077 . S
C1017 C389 1.065 . S
C1031 C12 0.908 . S
C1035 C424 0.900 . S
C1049 C214 0.874 . S
C1053 C26 0.880 . S
C1067 C396 0.914 . S
C1071 C40 0.921 . S
C1085 C186 0.891 . S
C1089 C54 0.898 . S
C1103 C368 0.917 . S
C1107 C68 0.919 . S
C1121 C82 0.893 . S
C1125 C158 0.885 . S
C1139 C96 0.917 . S
C1143 C340 0.915 . S
C1157 C110 0.915 . S
C1161 C130 0.912 . S
C1175 C124 0.905 . S
C1179 C312 0.899 . S
C1193 C102 0.889 . S
C1197 C138 0.894 . S
C1211 C284 0.905 . S
C1215 C152 0.913 . S
C1229 C74 0.907 . S
C1233 C166 0.915 . S
C1247 C256 0.903 . S
C1251 C180 0.907 . S
C1265 C46 0.895 . S
C1269 C194 0.898 . S
C1283 C208 0.907 . S
C1287 C228 0.899 . S
C1301 C18 0.898 . S
C1305 C222 0.903 . S
C1319 C200 0.901 . S
C1323 C236 0.906 . S
C1337 C438 0.892 . S
C1341 C250 0.899 . S
C1355 C264 0.925 . S
C1359 C172 0.921 . S
C1373 C278 0.886 . S
C1377 C410 0.880 . S
C1391 C292 0.924 . S
C1395 C144 0.921 . S
C1409 C306 0.911 . S
C1413 C382 0.906 . S
C1427 C320 0.925 . S
C1431 C116 0.922 . S
C1445 C334 0.890 . S
C1449 C354 0.886 . S
C1463 C88 0.902 . S
C1467 C348 0.910 . S
C1481 C326 0.905 . S
C1485 C362 0.913 . S
C1499 C60 0.902 . S
C1503 C376 0.910 . S
C1517 C390 0.891 . S
C1521 C298 0.881 . S
C1535 C404 0.911 . S
C1539 C32 0.903 . S
C1553 C270 0.911 . S
C1557 C418 0.915 . S
C1571 C432 0.925 . S
C1575 C4 0.922 . S
C1589 C446 0.889 . S
C1593 C242 0.884 . S
