# Generated by pormake.
# Topology uob, (4)-cn, num edge types: 1
# Building blocks:
#     Node 0, Type 0, BuildingBlock: QUQFOY_clean_sbu_3, # of connection points: 4
#     Node 1, Type 0, BuildingBlock: QUQFOY_clean_sbu_3, # of connection points: 4
#     Node 2, Type 0, BuildingBlock: QUQFOY_clean_sbu_3, # of connection points: 4
#     Node 3, Type 0, BuildingBlock: QUQFOY_clean_sbu_3, # of connection points: 4
#     Node 4, Type 0, BuildingBlock: QUQFOY_clean_sbu_3, # of connection points: 4
#     Node 5, Type 0, BuildingBlock: QUQFOY_clean_sbu_3, # of connection points: 4
#     Node 6, Type 0, BuildingBlock: QUQFOY_clean_sbu_3, # of connection points: 4
#     Node 7, Type 0, BuildingBlock: QUQFOY_clean_sbu_3, # of connection points: 4
#     Node 8, Type 0, BuildingBlock: QUQFOY_clean_sbu_3, # of connection points: 4
#     Node 9, Type 0, BuildingBlock: QUQFOY_clean_sbu_3, # of connection points: 4
#     Node 10, Type 0, BuildingBlock: QUQFOY_clean_sbu_3, # of connection points: 4
#     Node 11, Type 0, BuildingBlock: QUQFOY_clean_sbu_3, # of connection points: 4
#     Node 12, Type 0, BuildingBlock: QUQFOY_clean_sbu_3, # of connection points: 4
#     Node 13, Type 0, BuildingBlock: QUQFOY_clean_sbu_3, # of connection points: 4
#     Node 14, Type 0, BuildingBlock: QUQFOY_clean_sbu_3, # of connection points: 4
#     Node 15, Type 0, BuildingBlock: QUQFOY_clean_sbu_3, # of connection points: 4
#     Edge 16, Type (0, 0), BuildingBlock: KIFKEQ_clean_linker_1, # of connection points: 2
#     Edge 17, Type (0, 0), BuildingBlock: KIFKEQ_clean_linker_1, # of connection points: 2
#     Edge 18, Type (0, 0), BuildingBlock: KIFKEQ_clean_linker_1, # of connection points: 2
#     Edge 19, Type (0, 0), BuildingBlock: KIFKEQ_clean_linker_1, # of connection points: 2
#     Edge 20, Type (0, 0), BuildingBlock: KIFKEQ_clean_linker_1, # of connection points: 2
#     Edge 21, Type (0, 0), BuildingBlock: KIFKEQ_clean_linker_1, # of connection points: 2
#     Edge 22, Type (0, 0), BuildingBlock: KIFKEQ_clean_linker_1, # of connection points: 2
#     Edge 23, Type (0, 0), BuildingBlock: KIFKEQ_clean_linker_1, # of connection points: 2
#     Edge 24, Type (0, 0), BuildingBlock: KIFKEQ_clean_linker_1, # of connection points: 2
#     Edge 25, Type (0, 0), BuildingBlock: KIFKEQ_clean_linker_1, # of connection points: 2
#     Edge 26, Type (0, 0), BuildingBlock: KIFKEQ_clean_linker_1, # of connection points: 2
#     Edge 27, Type (0, 0), BuildingBlock: KIFKEQ_clean_linker_1, # of connection points: 2
#     Edge 28, Type (0, 0), BuildingBlock: KIFKEQ_clean_linker_1, # of connection points: 2
#     Edge 29, Type (0, 0), BuildingBlock: KIFKEQ_clean_linker_1, # of connection points: 2
#     Edge 30, Type (0, 0), BuildingBlock: KIFKEQ_clean_linker_1, # of connection points: 2
#     Edge 31, Type (0, 0), BuildingBlock: KIFKEQ_clean_linker_1, # of connection points: 2
#     Edge 32, Type (0, 0), BuildingBlock: KIFKEQ_clean_linker_1, # of connection points: 2
#     Edge 33, Type (0, 0), BuildingBlock: KIFKEQ_clean_linker_1, # of connection points: 2
#     Edge 34, Type (0, 0), BuildingBlock: KIFKEQ_clean_linker_1, # of connection points: 2
#     Edge 35, Type (0, 0), BuildingBlock: KIFKEQ_clean_linker_1, # of connection points: 2
#     Edge 36, Type (0, 0), BuildingBlock: KIFKEQ_clean_linker_1, # of connection points: 2
#     Edge 37, Type (0, 0), BuildingBlock: KIFKEQ_clean_linker_1, # of connection points: 2
#     Edge 38, Type (0, 0), BuildingBlock: KIFKEQ_clean_linker_1, # of connection points: 2
#     Edge 39, Type (0, 0), BuildingBlock: KIFKEQ_clean_linker_1, # of connection points: 2
#     Edge 40, Type (0, 0), BuildingBlock: KIFKEQ_clean_linker_1, # of connection points: 2
#     Edge 41, Type (0, 0), BuildingBlock: KIFKEQ_clean_linker_1, # of connection points: 2
#     Edge 42, Type (0, 0), BuildingBlock: KIFKEQ_clean_linker_1, # of connection points: 2
#     Edge 43, Type (0, 0), BuildingBlock: KIFKEQ_clean_linker_1, # of connection points: 2
#     Edge 44, Type (0, 0), BuildingBlock: KIFKEQ_clean_linker_1, # of connection points: 2
#     Edge 45, Type (0, 0), BuildingBlock: KIFKEQ_clean_linker_1, # of connection points: 2
#     Edge 46, Type (0, 0), BuildingBlock: KIFKEQ_clean_linker_1, # of connection points: 2
#     Edge 47, Type (0, 0), BuildingBlock: KIFKEQ_clean_linker_1, # of connection points: 2
# Relax obj value: 0.169
# Max RMSD: 0.202
# Mean RMSD: 0.202
data_MOF--net-uob--node1-QUQFOY_clean_sbu_3--edge1-KIFKEQ_clean_linker_1
_symmetry_space_group_name_H-M    P1
_symmetry_Int_Tables_number       1
_symmetry_cell_setting            triclinic
loop_
_symmetry_equiv_pos_as_xyz
'x, y, z'
_cell_length_a     55.890472
_cell_length_b     55.847773
_cell_length_c     27.938095
_cell_angle_alpha  89.967821
_cell_angle_beta   89.853533
_cell_angle_gamma 90.106375
loop_
_atom_site_label
_atom_site_type_symbol
_atom_site_fract_x
_atom_site_fract_y
_atom_site_fract_z
_atom_type_partial_charge
C0 C 0.11561 0.08984 0.19421 0.0
O1 O 0.10493 0.1039 0.22285 0.0
Cd2 Cd 0.10159 0.10122 0.30709 0.0
O3 O 0.12692 0.07151 0.20977 0.0
Cd4 Cd 0.1344 0.05447 0.29202 0.0
C5 C 0.07462 0.04586 0.31061 0.0
O6 O 0.1414 0.09301 0.33048 0.0
O7 O 0.13626 0.06295 0.37742 0.0
O8 O 0.17607 0.04328 0.27553 0.0
C9 C 0.14235 0.08464 0.37244 0.0
O10 O 0.07358 0.06823 0.31919 0.0
C11 C 0.17514 0.02393 0.29949 0.0
O12 O 0.09421 0.03622 0.29725 0.0
O13 O 0.15457 0.01727 0.31364 0.0
C14 C 0.9101 0.6146 0.44733 0.0
O15 O 0.89684 0.60306 0.47627 0.0
Cd16 Cd 0.89824 0.60184 0.56102 0.0
O17 O 0.9273 0.62771 0.46244 0.0
Cd18 Cd 0.94416 0.63595 0.54429 0.0
C19 C 0.95381 0.57643 0.56635 0.0
O20 O 0.90545 0.64222 0.58281 0.0
O21 O 0.93573 0.63896 0.62952 0.0
O22 O 0.95539 0.6776 0.52698 0.0
C23 C 0.91382 0.64401 0.62463 0.0
O24 O 0.93158 0.57496 0.57596 0.0
C25 C 0.97495 0.67668 0.55006 0.0
O26 O 0.96286 0.596 0.55108 0.0
O27 O 0.98155 0.65613 0.56428 0.0
C28 C 0.37981 0.41022 0.69119 0.0
O29 O 0.38988 0.39572 0.71976 0.0
Cd30 Cd 0.39262 0.39745 0.80426 0.0
O31 O 0.36878 0.42871 0.70689 0.0
Cd32 Cd 0.36097 0.44544 0.78927 0.0
C33 C 0.42082 0.45212 0.81052 0.0
O34 O 0.353 0.40689 0.8273 0.0
O35 O 0.35785 0.43687 0.87439 0.0
O36 O 0.31974 0.45805 0.77295 0.0
C37 C 0.35187 0.41517 0.86931 0.0
O38 O 0.42127 0.42965 0.81829 0.0
C39 C 0.3214 0.47749 0.7964 0.0
O40 O 0.40162 0.46235 0.79681 0.0
O41 O 0.34222 0.48347 0.81013 0.0
C42 C 0.5898 0.88528 0.93938 0.0
O43 O 0.60459 0.89602 0.96641 0.0
Cd44 Cd 0.60667 0.8974 0.05109 0.0
O45 O 0.5727 0.87272 0.95692 0.0
Cd46 Cd 0.55964 0.86313 0.04125 0.0
C47 C 0.55166 0.92263 0.06888 0.0
O48 O 0.6002 0.85669 0.07059 0.0
O49 O 0.57246 0.85616 0.12371 0.0
O50 O 0.54624 0.82199 0.02469 0.0
C51 C 0.59421 0.85272 0.11342 0.0
O52 O 0.57426 0.92428 0.07324 0.0
C53 C 0.52779 0.82345 0.05133 0.0
O54 O 0.54199 0.90307 0.05536 0.0
O55 O 0.52258 0.84412 0.06708 0.0
C56 C 0.11831 0.40991 0.09004 0.0
O57 O 0.10801 0.39546 0.06166 0.0
Cd58 Cd 0.10458 0.39767 0.97739 0.0
O59 O 0.12916 0.42852 0.07422 0.0
Cd60 Cd 0.13626 0.44562 -0.00811 0.0
C61 C 0.0762 0.45219 0.97345 0.0
O62 O 0.14415 0.4072 0.9537 0.0
O63 O 0.1388 0.43712 0.90662 0.0
O64 O 0.17753 0.45836 0.00779 0.0
C65 C 0.14508 0.41552 0.91169 0.0
O66 O 0.07567 0.42977 0.96528 0.0
C67 C 0.17587 0.47772 -0.01595 0.0
O68 O 0.09557 0.46243 -0.01363 0.0
O69 O 0.15505 0.48362 0.97033 0.0
C70 C 0.59006 0.61418 0.34336 0.0
O71 O 0.60362 0.60272 0.31495 0.0
Cd72 Cd 0.60339 0.60176 0.23012 0.0
O73 O 0.57313 0.62737 0.32754 0.0
Cd74 Cd 0.55742 0.63567 0.24482 0.0
C75 C 0.54801 0.57612 0.22164 0.0
O76 O 0.59664 0.6422 0.20814 0.0
O77 O 0.56681 0.63896 0.16022 0.0
O78 O 0.54605 0.67734 0.2611 0.0
C79 C 0.58864 0.64419 0.16607 0.0
O80 O 0.57034 0.57473 0.21306 0.0
C81 C 0.52679 0.67632 0.23703 0.0
O82 O 0.53881 0.59563 0.23668 0.0
O83 O 0.52028 0.65571 0.22293 0.0
C84 C 0.38446 0.08891 0.59262 0.0
O85 O 0.39505 0.1037 0.56521 0.0
Cd86 Cd 0.39625 0.10563 0.48047 0.0
O87 O 0.37194 0.0717 0.57551 0.0
Cd88 Cd 0.36219 0.05836 0.49154 0.0
C89 C 0.42162 0.0506 0.46306 0.0
O90 O 0.35561 0.09883 0.46154 0.0
O91 O 0.35499 0.07092 0.40892 0.0
O92 O 0.32115 0.04488 0.50896 0.0
C93 C 0.3516 0.09272 0.41885 0.0
O94 O 0.42314 0.07323 0.4584 0.0
C95 C 0.3226 0.02632 0.48271 0.0
O96 O 0.40215 0.04085 0.47702 0.0
O97 O 0.34324 0.02111 0.46674 0.0
C98 C 0.90883 0.88427 0.83399 0.0
O99 O 0.8948 0.89484 0.80525 0.0
Cd100 Cd 0.89749 0.89773 0.72089 0.0
O101 O 0.92716 0.8729 0.81853 0.0
Cd102 Cd 0.94432 0.86518 0.73647 0.0
C103 C 0.95261 0.92496 0.7168 0.0
O104 O 0.90588 0.85776 0.69816 0.0
O105 O 0.93596 0.86257 0.65113 0.0
O106 O 0.95616 0.82377 0.75365 0.0
C107 C 0.91428 0.85652 0.65623 0.0
O108 O 0.93028 0.92594 0.70813 0.0
C109 C 0.97556 0.82496 0.72988 0.0
O110 O 0.96224 0.90544 0.73051 0.0
O111 O 0.98187 0.8456 0.71544 0.0
C112 C 0.61497 0.58771 0.69719 0.0
O113 O 0.6037 0.6014 0.72563 0.0
Cd114 Cd 0.60247 0.60073 0.81042 0.0
O115 O 0.62773 0.57044 0.71298 0.0
Cd116 Cd 0.63535 0.55429 0.79568 0.0
C117 C 0.57561 0.54588 0.8177 0.0
O118 O 0.64271 0.59323 0.83266 0.0
O119 O 0.63827 0.56339 0.88045 0.0
O120 O 0.67678 0.54205 0.77958 0.0
C121 C 0.6443 0.58505 0.8747 0.0
O122 O 0.57464 0.56819 0.82674 0.0
C123 C 0.67531 0.52281 0.80379 0.0
O124 O 0.59499 0.53638 0.80277 0.0
O125 O 0.65455 0.51672 0.81787 0.0
C126 C 0.41182 0.11022 0.94725 0.0
O127 O 0.39773 0.09915 0.97536 0.0
Cd128 Cd 0.39732 0.09807 0.06014 0.0
O129 O 0.42894 0.1231 0.96357 0.0
Cd130 Cd 0.44326 0.13274 0.04694 0.0
C131 C 0.45283 0.07352 0.07393 0.0
O132 O 0.40307 0.13903 0.07859 0.0
O133 O 0.43139 0.13939 0.13028 0.0
O134 O 0.45553 0.17405 0.02836 0.0
C135 C 0.4096 0.1431 0.12098 0.0
O136 O 0.43035 0.07163 0.08021 0.0
C137 C 0.47415 0.17333 0.05442 0.0
O138 O 0.462 0.09317 0.05942 0.0
O139 O 0.48 0.15296 0.07076 0.0
C140 C 0.87972 0.90862 0.18706 0.0
O141 O 0.89005 0.89412 0.21527 0.0
Cd142 Cd 0.8931 0.89567 0.29975 0.0
O143 O 0.86849 0.92689 0.20317 0.0
Cd144 Cd 0.86057 0.94321 0.28578 0.0
C145 C 0.92043 0.95082 0.30582 0.0
O146 O 0.85342 0.90439 0.32343 0.0
O147 O 0.8578 0.93436 0.37077 0.0
O148 O 0.81912 0.95509 0.26954 0.0
C149 C 0.85223 0.91256 0.36552 0.0
O150 O 0.92127 0.92835 0.3134 0.0
C151 C 0.82038 0.97445 0.29338 0.0
O152 O 0.901 0.96078 0.29265 0.0
O153 O 0.84105 0.98074 0.30742 0.0
C154 C 0.09258 0.38245 0.44315 0.0
O155 O 0.10692 0.39286 0.47156 0.0
Cd156 Cd 0.10501 0.39588 0.556 0.0
O157 O 0.0742 0.37122 0.459 0.0
Cd158 Cd 0.05741 0.36357 0.54137 0.0
C159 C 0.05022 0.42352 0.5616 0.0
O160 O 0.09599 0.3561 0.5791 0.0
O161 O 0.06601 0.36058 0.62646 0.0
O162 O 0.04481 0.32223 0.52535 0.0
C163 C 0.08774 0.35484 0.62116 0.0
O164 O 0.07264 0.42435 0.56949 0.0
C165 C 0.02538 0.32391 0.5489 0.0
O166 O 0.04026 0.40407 0.54828 0.0
O167 O 0.01944 0.34475 0.56256 0.0
C168 C 0.61028 0.91247 0.58427 0.0
O169 O 0.59939 0.89822 0.55634 0.0
Cd170 Cd 0.59841 0.89774 0.47155 0.0
O171 O 0.62297 0.92973 0.56773 0.0
Cd172 Cd 0.63243 0.94413 0.48425 0.0
C173 C 0.57314 0.95291 0.45738 0.0
O174 O 0.63931 0.90396 0.45298 0.0
O175 O 0.63939 0.93229 0.40106 0.0
O176 O 0.67351 0.95704 0.50239 0.0
C177 C 0.6434 0.91054 0.41055 0.0
O178 O 0.57152 0.93039 0.45126 0.0
C179 C 0.67247 0.97569 0.47628 0.0
O180 O 0.59266 0.96232 0.47172 0.0
O181 O 0.652 0.98124 0.46017 0.0
C182 C 0.09055 0.11892 0.84153 0.0
O183 O 0.1049 0.1086 0.81291 0.0
Cd184 Cd 0.10323 0.10601 0.72835 0.0
O185 O 0.07232 0.13033 0.82589 0.0
Cd186 Cd 0.05587 0.13853 0.74361 0.0
C187 C 0.04815 0.07876 0.72202 0.0
O188 O 0.09457 0.14584 0.7056 0.0
O189 O 0.06454 0.14164 0.65853 0.0
O190 O 0.04375 0.17993 0.76 0.0
C191 C 0.08634 0.14718 0.66361 0.0
O192 O 0.07058 0.07789 0.71406 0.0
C193 C 0.0243 0.17843 0.73663 0.0
O194 O 0.03832 0.09816 0.73596 0.0
O195 O 0.01811 0.15765 0.72296 0.0
C196 C 0.88271 0.58822 0.0943 0.0
O197 O 0.89398 0.60184 0.06561 0.0
Cd198 Cd 0.89535 0.6011 0.98084 0.0
O199 O 0.86987 0.57089 0.07885 0.0
Cd200 Cd 0.86192 0.55442 -0.00351 0.0
C201 C 0.92159 0.54589 0.97403 0.0
O202 O 0.85524 0.59325 0.95868 0.0
O203 O 0.85901 0.56314 0.9115 0.0
O204 O 0.82033 0.54268 0.01287 0.0
C205 C 0.85372 0.58499 0.9167 0.0
O206 O 0.92268 0.56822 0.96505 0.0
C207 C 0.82158 0.52321 -0.01059 0.0
O208 O 0.90219 0.53639 -0.0109 0.0
O209 O 0.84226 0.51683 0.97557 0.0
C210 C 0.407 0.38308 0.33822 0.0
O211 O 0.39288 0.39367 0.30968 0.0
Cd212 Cd 0.39518 0.39672 0.22529 0.0
O213 O 0.4252 0.3716 0.3225 0.0
Cd214 Cd 0.44199 0.36357 0.24014 0.0
C215 C 0.45067 0.42337 0.22052 0.0
O216 O 0.40337 0.35684 0.202 0.0
O217 O 0.43349 0.36125 0.1549 0.0
O218 O 0.45314 0.32189 0.25692 0.0
C219 C 0.41168 0.35568 0.15998 0.0
O220 O 0.42828 0.42452 0.21245 0.0
C221 C 0.47256 0.32279 0.23315 0.0
O222 O 0.46025 0.40374 0.23383 0.0
O223 O 0.47921 0.34334 0.21884 0.0
H224 H 0.27611 0.03091 0.51278 0.0
H225 H 0.31988 0.99732 0.40436 0.0
H226 H 0.24035 0.02185 0.46588 0.0
H227 H 0.28417 0.98888 0.35711 0.0
H228 H 0.1786 0.99489 0.37765 0.0
H229 H 0.21452 0.98762 0.42512 0.0
H230 H 0.25741 0.02231 0.31674 0.0
H231 H 0.22145 0.03019 0.2697 0.0
C232 C 0.27805 0.02092 0.47978 0.0
C233 C 0.30087 0.01499 0.46226 0.0
C234 C 0.25757 0.01574 0.45287 0.0
C235 C 0.25956 0.00489 0.40761 0.0
C236 C 0.28216 0.99737 0.39174 0.0
C237 C 0.30259 0.0021 0.41906 0.0
C238 C 0.19577 0.00026 0.36308 0.0
C239 C 0.19715 0.01327 0.31995 0.0
C240 C 0.21629 0.99624 0.39053 0.0
C241 C 0.23868 0.00458 0.37482 0.0
C242 C 0.24038 0.01557 0.32962 0.0
C243 C 0.21979 0.02007 0.30263 0.0
H244 H 0.97035 0.77868 0.76065 0.0
H245 H 0.00467 0.8217 0.65171 0.0
H246 H 0.9789 0.74262 0.71412 0.0
H247 H 0.01254 0.78568 0.60473 0.0
H248 H 0.96884 0.72291 0.51978 0.0
H249 H 0.97776 0.75908 0.56573 0.0
H250 H 0.0133 0.71643 0.67278 0.0
H251 H 0.00505 0.68031 0.62635 0.0
C252 C 0.98041 0.78037 0.72763 0.0
C253 C 0.98671 0.80307 0.70985 0.0
C254 C 0.98529 0.75973 0.70094 0.0
C255 C 0.99617 0.76144 0.65561 0.0
C256 C 0.00406 0.78391 0.63946 0.0
C257 C -0.00034 0.8045 0.66662 0.0
C258 C 0.97938 0.72134 0.55212 0.0
C259 C 0.98611 0.69872 0.56946 0.0
C260 C 0.98447 0.74204 0.57847 0.0
C261 C 0.99601 0.74046 0.62303 0.0
C262 C 0.0043 0.71809 0.63864 0.0
C263 C -0.00032 0.69745 0.6118 0.0
H264 H 0.27479 0.47244 0.76806 0.0
H265 H 0.3192 0.50737 0.87346 0.0
H266 H 0.23936 0.4815 0.81615 0.0
H267 H 0.2838 0.51581 0.92199 0.0
H268 H 0.22248 0.47298 0.01245 0.0
H269 H 0.25791 0.48191 0.96414 0.0
H270 H 0.21346 0.51551 0.85755 0.0
H271 H 0.17807 0.5072 0.90629 0.0
C272 C 0.27692 0.48276 0.80061 0.0
C273 C 0.29983 0.48904 0.817 0.0
C274 C 0.25663 0.48794 0.82819 0.0
C275 C 0.25891 0.49913 0.87305 0.0
C276 C 0.28158 0.50706 0.88768 0.0
C277 C 0.30181 0.50234 0.85962 0.0
C278 C 0.22036 0.48311 0.97968 0.0
C279 C 0.19744 0.48923 0.96316 0.0
C280 C 0.24064 0.48822 0.95196 0.0
C281 C 0.23836 0.49917 0.90685 0.0
C282 C 0.21569 0.50695 0.89205 0.0
C283 C 0.19546 0.50231 0.92023 0.0
H284 H 0.53241 0.77686 0.02191 0.0
H285 H 0.49921 0.82083 0.13045 0.0
H286 H 0.52374 0.74117 0.06966 0.0
H287 H 0.49116 0.78518 0.17852 0.0
H288 H 0.5331 0.72277 0.26588 0.0
H289 H 0.5249 0.75862 0.21847 0.0
H290 H 0.48979 0.71533 0.11172 0.0
H291 H 0.49738 0.67954 0.15955 0.0
C292 C 0.52259 0.77885 0.05513 0.0
C293 C 0.51665 0.80171 0.07241 0.0
C294 C 0.51763 0.75841 0.08252 0.0
C295 C 0.50701 0.76048 0.12804 0.0
C296 C 0.49948 0.78312 0.14371 0.0
C297 C 0.50398 0.8035 0.11592 0.0
C298 C 0.52283 0.721 0.23324 0.0
C299 C 0.51601 0.69828 0.21646 0.0
C300 C 0.51815 0.74152 0.20604 0.0
C301 C 0.50693 0.73967 0.16117 0.0
C302 C 0.49858 0.71722 0.14604 0.0
C303 C 0.5028 0.69676 0.1737 0.0
H304 H 0.67773 0.49374 0.88207 0.0
H305 H 0.72189 0.52794 0.77479 0.0
H306 H 0.71321 0.48581 0.93035 0.0
H307 H 0.75742 0.51935 0.82265 0.0
H308 H 0.81878 0.49331 0.91249 0.0
H309 H 0.78319 0.48515 0.86462 0.0
H310 H 0.73942 0.52023 0.97077 0.0
H311 H 0.77506 0.52904 0.0182 0.0
C312 C 0.69508 0.49872 0.8678 0.0
C313 C 0.69697 0.51165 0.82465 0.0
C314 C 0.71536 0.4943 0.89571 0.0
C315 C 0.73799 0.50214 0.88043 0.0
C316 C 0.74018 0.513 0.83519 0.0
C317 C 0.71984 0.5179 0.80773 0.0
C318 C 0.8015 0.49859 0.92653 0.0
C319 C 0.79978 0.512 0.96908 0.0
C320 C 0.78116 0.49403 0.89885 0.0
C321 C 0.75863 0.50223 0.91378 0.0
C322 C 0.75658 0.51359 0.95852 0.0
C323 C 0.77699 0.51862 -0.01428 0.0
H324 H 0.46656 0.27659 0.2639 0.0
H325 H 0.50197 0.31905 0.1555 0.0
H326 H 0.47526 0.24032 0.21812 0.0
H327 H 0.51004 0.28282 0.10927 0.0
H328 H 0.46847 0.21945 0.02281 0.0
H329 H 0.47635 0.25588 0.06871 0.0
H330 H 0.50982 0.21389 0.17942 0.0
H331 H 0.50259 0.17752 0.13317 0.0
C332 C 0.47685 0.27812 0.23113 0.0
C333 C 0.48348 0.30072 0.21334 0.0
C334 C 0.48183 0.25735 0.20487 0.0
C335 C 0.49312 0.25883 0.15992 0.0
C336 C 0.50122 0.28122 0.14369 0.0
C337 C 0.49672 0.30192 0.17043 0.0
C338 C 0.47832 0.21807 0.05603 0.0
C339 C 0.48477 0.19555 0.07436 0.0
C340 C 0.48281 0.23893 0.08236 0.0
C341 C 0.49346 0.23763 0.12786 0.0
C342 C 0.50147 0.21535 0.14459 0.0
C343 C 0.49744 0.19456 0.11784 0.0
H344 H 0.81736 0.00382 0.37109 0.0
H345 H 0.77401 0.96903 0.26379 0.0
H346 H 0.7815 0.01206 0.41843 0.0
H347 H 0.73812 0.97789 0.31069 0.0
H348 H 0.67601 0.00455 0.39778 0.0
H349 H 0.71203 0.01212 0.3505 0.0
H350 H 0.75482 0.97852 0.45974 0.0
H351 H 0.71875 0.97032 0.50669 0.0
C352 C 0.80011 0.99876 0.35662 0.0
C353 C 0.79855 0.98562 0.31373 0.0
C354 C 0.77962 0.00335 0.384 0.0
C355 C 0.7571 0.99544 0.36844 0.0
C356 C 0.75526 0.9843 0.32345 0.0
C357 C 0.77581 0.97924 0.29654 0.0
C358 C 0.69316 0.99946 0.41259 0.0
C359 C 0.69447 0.98662 0.45593 0.0
C360 C 0.71375 0.00368 0.38525 0.0
C361 C 0.73614 0.99571 0.40123 0.0
C362 C 0.73778 0.98496 0.44665 0.0
C363 C 0.71712 0.98028 0.47358 0.0
H364 H 0.99557 0.32187 0.62621 0.0
H365 H 0.03025 0.27721 0.52071 0.0
H366 H 0.987 0.28654 0.67493 0.0
H367 H 0.02103 0.24184 0.56899 0.0
H368 H 0.99458 0.18078 0.65954 0.0
H369 H 0.98655 0.21619 0.61088 0.0
H370 H 0.02107 0.26054 0.71662 0.0
H371 H 0.02976 0.22508 0.76484 0.0
C372 C 0.00051 0.30444 0.6124 0.0
C373 C 0.01378 0.30236 0.56967 0.0
C374 C 0.99572 0.28425 0.64056 0.0
C375 C 0.00353 0.26153 0.62593 0.0
C376 C 0.01469 0.25915 0.58101 0.0
C377 C 0.01996 0.2794 0.55332 0.0
C378 C -0.00026 0.19815 0.67333 0.0
C379 C 0.013 0.20009 0.71597 0.0
C380 C 0.99525 0.21839 0.6452 0.0
C381 C 0.00337 0.24103 0.65978 0.0
C382 C 0.01451 0.24329 0.70464 0.0
C383 C 0.01947 0.22299 0.73229 0.0
H384 H 0.03061 0.0604 0.34192 0.0
H385 H 0.06805 0.99862 0.28665 0.0
H386 H 0.99351 0.0376 0.34365 0.0
H387 H 0.03071 0.97592 0.28747 0.0
H388 H 0.96423 0.93553 0.33655 0.0
H389 H 0.00137 0.9582 0.34066 0.0
H390 H 0.9647 0.02098 0.28833 0.0
H391 H 0.92734 0.99841 0.28513 0.0
C392 C 0.03097 0.04193 0.33016 0.0
C393 C 0.05237 0.03138 0.31403 0.0
C394 C 0.00961 0.0289 0.33086 0.0
C395 C 0.00905 0.00497 0.31542 0.0
C396 C 0.03053 0.99425 0.3001 0.0
C397 C 0.05194 0.0073 0.29945 0.0
C398 C 0.964 0.95421 0.32613 0.0
C399 C 0.94274 0.96512 0.31042 0.0
C400 C 0.98538 0.96717 0.3282 0.0
C401 C 0.9861 0.99138 0.3146 0.0
C402 C 0.96476 0.00242 0.2996 0.0
C403 C 0.94333 0.98945 0.29757 0.0
H404 H 0.00085 0.57052 0.54024 0.0
H405 H 0.9405 0.53265 0.60119 0.0
H406 H 0.02408 0.53356 0.54125 0.0
H407 H 0.96383 0.49597 0.603 0.0
H408 H 0.00248 0.42991 0.54303 0.0
H409 H 0.97976 0.46709 0.54659 0.0
H410 H 0.04288 0.50477 0.59448 0.0
H411 H 0.06571 0.46777 0.59007 0.0
C412 C 0.99262 0.55442 0.55437 0.0
C413 C 0.96876 0.55458 0.5704 0.0
C414 C 0.00596 0.53323 0.5551 0.0
C415 C 0.99575 0.51174 0.57192 0.0
C416 C 0.9721 0.51208 0.58901 0.0
C417 C 0.95878 0.53321 0.58826 0.0
C418 C 0.01149 0.44608 0.55455 0.0
C419 C 0.03595 0.4458 0.56615 0.0
C420 C 0.99844 0.4674 0.5568 0.0
C421 C 0.00951 0.48895 0.57075 0.0
C422 C 0.03388 0.48859 0.58294 0.0
C423 C 0.04693 0.46729 0.5807 0.0
H424 H 0.42829 0.49979 0.79148 0.0
H425 H 0.4644 0.43607 0.84101 0.0
H426 H 0.46587 0.52194 0.79595 0.0
H427 H 0.50176 0.45833 0.84632 0.0
H428 H 0.56878 0.49879 0.79288 0.0
H429 H 0.53131 0.47631 0.79352 0.0
H430 H 0.49471 0.53765 0.85263 0.0
H431 H 0.53195 0.56025 0.85119 0.0
C432 C 0.44415 0.49055 0.80374 0.0
C433 C 0.44328 0.46612 0.81571 0.0
C434 C 0.4657 0.50328 0.80652 0.0
C435 C 0.48687 0.49189 0.82138 0.0
C436 C 0.48589 0.46756 0.83405 0.0
C437 C 0.46439 0.45485 0.83127 0.0
C438 C 0.55279 0.50742 0.80638 0.0
C439 C 0.55341 0.53138 0.82176 0.0
C440 C 0.5313 0.49451 0.80689 0.0
C441 C 0.50995 0.50523 0.82285 0.0
C442 C 0.51072 0.52898 0.83932 0.0
C443 C 0.53216 0.54188 0.83879 0.0
H444 H 0.56615 0.96641 0.10191 0.0
H445 H 0.50355 0.9281 0.05301 0.0
H446 H 0.54263 0.00288 0.10878 0.0
H447 H 0.48016 0.96477 0.0589 0.0
H448 H 0.43953 0.02987 0.10962 0.0
H449 H 0.46331 0.99349 0.11398 0.0
H450 H 0.52413 0.03164 0.05593 0.0
H451 H 0.50048 0.06823 0.05253 0.0
C452 C 0.54734 0.96571 0.09279 0.0
C453 C 0.53678 0.94429 0.07669 0.0
C454 C 0.53389 0.98671 0.09645 0.0
C455 C 0.50954 0.98685 0.08408 0.0
C456 C 0.49881 0.96527 0.06924 0.0
C457 C 0.51226 0.94424 0.06566 0.0
C458 C 0.45804 0.0306 0.09817 0.0
C459 C 0.46804 0.052 0.08047 0.0
C460 C 0.47164 0.00966 0.1004 0.0
C461 C 0.49558 0.00954 0.08493 0.0
C462 C 0.50581 0.03111 0.0686 0.0
C463 C 0.49222 0.05211 0.06647 0.0
H464 H 0.03212 0.43606 0.9457 0.0
H465 H 0.06906 0.49977 -0.00662 0.0
H466 H 0.99472 0.45825 0.94282 0.0
H467 H 0.03147 0.52184 -0.00866 0.0
H468 H 0.965 0.56018 0.93896 0.0
H469 H 0.00208 0.53755 0.93607 0.0
H470 H 0.96583 0.47627 -0.00301 0.0
H471 H 0.92846 0.49881 -0.00091 0.0
C472 C 0.03231 0.45482 0.95555 0.0
C473 C 0.05367 0.46612 0.96981 0.0
C474 C 0.01078 0.46749 0.95419 0.0
C475 C 0.01004 0.4918 0.967 0.0
C476 C 0.03144 0.5032 0.98068 0.0
C477 C 0.053 0.49051 -0.01796 0.0
C478 C 0.96482 0.54182 0.95149 0.0
C479 C 0.94369 0.53135 0.96942 0.0
C480 C 0.98618 0.5289 0.95012 0.0
C481 C 0.98701 0.50516 0.96664 0.0
C482 C 0.96578 0.49447 -0.01643 0.0
C483 C 0.94436 0.50741 -0.01508 0.0
H484 H 0.43604 0.46767 0.19099 0.0
H485 H 0.4983 0.42943 0.2412 0.0
H486 H 0.45921 0.50455 0.18791 0.0
H487 H 0.52137 0.46653 0.23896 0.0
H488 H 0.56173 0.53238 0.18751 0.0
H489 H 0.53834 0.49567 0.18411 0.0
H490 H 0.47731 0.5331 0.24241 0.0
H491 H 0.50061 0.57008 0.245 0.0
C492 C 0.45469 0.46708 0.20133 0.0
C493 C 0.46528 0.44552 0.21644 0.0
C494 C 0.46793 0.48832 0.19985 0.0
C495 C 0.49212 0.48857 0.2134 0.0
C496 C 0.50284 0.46694 0.22776 0.0
C497 C 0.48958 0.44566 0.22924 0.0
C498 C 0.54327 0.53289 0.19934 0.0
C499 C 0.53309 0.55424 0.21667 0.0
C500 C 0.52991 0.51174 0.19768 0.0
C501 C 0.506 0.51135 0.21331 0.0
C502 C 0.49562 0.53281 0.22965 0.0
C503 C 0.509 0.55401 0.23129 0.0
H504 H 0.46513 0.06528 0.42879 0.0
H505 H 0.42745 0.00255 0.47972 0.0
H506 H 0.50171 0.04198 0.4217 0.0
H507 H 0.46424 0.97937 0.47359 0.0
H508 H 0.52955 0.93905 0.42268 0.0
H509 H 0.49297 0.96251 0.4184 0.0
H510 H 0.53068 0.02393 0.47457 0.0
H511 H 0.56746 0.00061 0.47789 0.0
C512 C 0.46459 0.04648 0.43831 0.0
C513 C 0.44331 0.03583 0.45506 0.0
C514 C 0.48565 0.03316 0.43451 0.0
C515 C 0.48601 0.00884 0.44741 0.0
C516 C 0.46457 0.998 0.46286 0.0
C517 C 0.44347 0.01132 0.46658 0.0
C518 C 0.53014 0.95763 0.43372 0.0
C519 C 0.55148 0.9679 0.45087 0.0
C520 C 0.50908 0.97104 0.43154 0.0
C521 C 0.50879 0.99505 0.4465 0.0
C522 C 0.53029 0.00554 0.46229 0.0
C523 C 0.55139 0.99214 0.46438 0.0
H524 H 0.06314 0.03504 0.68988 0.0
H525 H 0.00061 0.07203 0.74303 0.0
H526 H 0.04027 0.99801 0.68524 0.0
H527 H 0.97786 0.03477 0.73928 0.0
H528 H 0.93806 0.96903 0.68577 0.0
H529 H 0.96098 0.0061 0.68373 0.0
H530 H 0.02267 0.96869 0.73869 0.0
H531 H -0.00011 0.93141 0.73984 0.0
C532 C 0.04449 0.03532 0.70055 0.0
C533 C 0.03374 0.05656 0.71696 0.0
C534 C 0.03143 0.014 0.69816 0.0
C535 C 0.00727 0.01335 0.71213 0.0
C536 C 0.99637 0.03468 0.72773 0.0
C537 C 0.00945 0.05604 0.73009 0.0
C538 C 0.95657 0.96862 0.69717 0.0
C539 C 0.9671 0.94719 0.71309 0.0
C540 C 0.96966 0.98996 0.69628 0.0
C541 C 0.99362 0.99044 0.71131 0.0
C542 C 0.00432 0.96892 0.72638 0.0
C543 C 0.99122 0.94754 0.72722 0.0
H544 H 0.07387 0.1589 0.57303 0.0
H545 H 0.1344 0.13868 0.6599 0.0
H546 H 0.09719 0.15154 0.50102 0.0
H547 H 0.15784 0.13117 0.58744 0.0
H548 H 0.15203 0.07133 0.46363 0.0
H549 H 0.14723 0.09564 0.53511 0.0
H550 H 0.13325 0.15776 0.44733 0.0
H551 H 0.13817 0.13332 0.37541 0.0
C552 C 0.09242 0.15359 0.57662 0.0
C553 C 0.10219 0.14873 0.62174 0.0
C554 C 0.10589 0.14966 0.53542 0.0
C555 C 0.12922 0.14052 0.53879 0.0
C556 C 0.13982 0.13808 0.58405 0.0
C557 C 0.1264 0.14233 0.62539 0.0
C558 C 0.14861 0.09032 0.4596 0.0
C559 C 0.14482 0.10036 0.41426 0.0
C560 C 0.14618 0.10433 0.50049 0.0
C561 C 0.13966 0.12853 0.49663 0.0
C562 C 0.13818 0.1391 0.45112 0.0
C563 C 0.1409 0.12511 0.4101 0.0
H564 H 0.8654 0.63752 0.62848 0.0
H565 H 0.92687 0.65473 0.71548 0.0
H566 H 0.84149 0.6314 0.70088 0.0
H567 H 0.90312 0.64866 0.78742 0.0
H568 H 0.84254 0.57223 0.82598 0.0
H569 H 0.84911 0.59586 0.75411 0.0
H570 H 0.86777 0.65712 0.84085 0.0
H571 H 0.86113 0.63332 0.91318 0.0
C572 C 0.87358 0.64073 0.663 0.0
C573 C 0.8981 0.64594 0.66666 0.0
C574 C 0.85989 0.63729 0.70431 0.0
C575 C 0.87053 0.6393 0.74963 0.0
C576 C 0.89437 0.64713 0.753 0.0
C577 C 0.90807 0.65032 0.71181 0.0
C578 C 0.84735 0.59094 0.82969 0.0
C579 C 0.85196 0.60081 0.87487 0.0
C580 C 0.85082 0.60459 0.78856 0.0
C581 C 0.85921 0.62825 0.79201 0.0
C582 C 0.86145 0.63885 0.83736 0.0
C583 C 0.8577 0.62523 0.87863 0.0
H584 H 0.42458 0.34531 0.06881 0.0
H585 H 0.36328 0.3621 0.15706 0.0
H586 H 0.40069 0.35149 -0.00267 0.0
H587 H 0.33926 0.3684 0.08513 0.0
H588 H 0.35838 0.36676 0.87258 0.0
H589 H 0.36483 0.34286 0.94474 0.0
H590 H 0.34737 0.40428 0.03196 0.0
H591 H 0.34105 0.42806 0.96023 0.0
C592 C 0.4058 0.34965 0.07283 0.0
C593 C 0.3959 0.35385 0.1182 0.0
C594 C 0.39201 0.35289 0.03193 0.0
C595 C 0.36819 0.36065 0.03582 0.0
C596 C 0.35764 0.36254 0.08132 0.0
C597 C 0.37139 0.359 0.12235 0.0
C598 C 0.35516 0.37487 0.90721 0.0
C599 C 0.34986 0.39937 0.91113 0.0
C600 C 0.35879 0.36119 0.94838 0.0
C601 C 0.35685 0.37181 -0.00623 0.0
C602 C 0.34885 0.39557 -0.00256 0.0
C603 C 0.34551 0.40928 0.9564 0.0
H604 H 0.61654 0.87114 0.39595 0.0
H605 H 0.67596 0.91127 0.33856 0.0
H606 H 0.61342 0.84888 0.32228 0.0
H607 H 0.67492 0.8872 0.26582 0.0
H608 H 0.63094 0.88324 0.12684 0.0
H609 H 0.65187 0.88971 0.20103 0.0
H610 H 0.61979 0.82516 0.25935 0.0
H611 H 0.59678 0.82059 0.18591 0.0
C612 C 0.62964 0.87436 0.368 0.0
C613 C 0.64605 0.89316 0.37192 0.0
C614 C 0.6281 0.8614 0.32556 0.0
C615 C 0.64346 0.86662 0.28671 0.0
C616 C 0.66201 0.88338 0.29374 0.0
C617 C 0.66285 0.89703 0.33551 0.0
C618 C 0.62888 0.87018 0.15525 0.0
C619 C 0.61195 0.85183 0.1516 0.0
C620 C 0.64109 0.87369 0.19806 0.0
C621 C 0.637 0.85845 0.23758 0.0
C622 C 0.62255 0.83801 0.23085 0.0
C623 C 0.60957 0.83513 0.18865 0.0
H624 H 0.07502 0.34344 0.71194 0.0
H625 H 0.13602 0.36216 0.62421 0.0
H626 H 0.09867 0.35 0.78361 0.0
H627 H 0.15979 0.36888 0.69633 0.0
H628 H 0.15548 0.42873 0.82068 0.0
H629 H 0.15024 0.40461 0.7491 0.0
H630 H 0.13472 0.34266 0.83662 0.0
H631 H 0.1401 0.3669 0.90865 0.0
C632 C 0.09371 0.34825 0.70807 0.0
C633 C 0.10356 0.35293 0.66283 0.0
C634 C 0.10737 0.35172 0.74907 0.0
C635 C 0.13098 0.36021 0.74539 0.0
C636 C 0.14157 0.36246 0.69997 0.0
C637 C 0.12796 0.35868 0.65883 0.0
C638 C 0.15166 0.4098 0.82462 0.0
C639 C 0.14755 0.39978 0.86992 0.0
C640 C 0.14897 0.39589 0.78367 0.0
C641 C 0.14184 0.37183 0.78745 0.0
C642 C 0.14011 0.36121 0.83291 0.0
C643 C 0.14311 0.3751 0.87399 0.0
H644 H 0.63691 0.63671 0.16268 0.0
H645 H 0.57635 0.65709 0.07606 0.0
H646 H 0.66079 0.63084 0.09018 0.0
H647 H 0.60002 0.65126 0.00407 0.0
H648 H 0.63968 0.63373 0.8779 0.0
H649 H 0.6353 0.65799 0.95022 0.0
H650 H 0.65164 0.596 0.03676 0.0
H651 H 0.656 0.57195 0.96495 0.0
C652 C 0.62898 0.64072 0.12826 0.0
C653 C 0.60465 0.64665 0.12461 0.0
C654 C 0.64265 0.63742 0.08689 0.0
C655 C 0.63216 0.64026 0.04159 0.0
C656 C 0.60867 0.64904 0.03845 0.0
C657 C 0.59498 0.65207 0.07965 0.0
C658 C 0.64309 0.62555 0.91237 0.0
C659 C 0.64746 0.60087 0.91619 0.0
C660 C 0.64067 0.63943 0.95364 0.0
C661 C 0.64282 0.6288 -0.00099 0.0
C662 C 0.65 0.60476 0.00232 0.0
C663 C 0.65218 0.59088 0.96122 0.0
H664 H 0.31987 0.09476 0.34583 0.0
H665 H 0.38177 0.1298 0.40526 0.0
H666 H 0.32449 0.11775 0.27219 0.0
H667 H 0.38831 0.15073 0.3309 0.0
H668 H 0.40978 0.17545 0.19323 0.0
H669 H 0.38569 0.17382 0.26603 0.0
H670 H 0.34848 0.11179 0.20945 0.0
H671 H 0.37072 0.11547 0.13571 0.0
C672 C 0.33426 0.10773 0.34311 0.0
C673 C 0.35073 0.11038 0.38035 0.0
C674 C 0.33716 0.1207 0.3008 0.0
C675 C 0.35743 0.13542 0.29416 0.0
C676 C 0.37243 0.13974 0.3338 0.0
C677 C 0.36888 0.12754 0.37672 0.0
C678 C 0.39578 0.16208 0.19627 0.0
C679 C 0.3922 0.14532 0.15979 0.0
C680 C 0.38212 0.1609 0.23808 0.0
C681 C 0.36565 0.14205 0.24506 0.0
C682 C 0.36075 0.12668 0.20619 0.0
C683 C 0.37371 0.12855 0.16372 0.0
H684 H 0.86562 0.86055 0.65326 0.0
H685 H 0.92766 0.84652 0.56511 0.0
H686 H 0.84129 0.86537 0.58132 0.0
H687 H 0.90345 0.85124 0.49361 0.0
H688 H 0.86072 0.86445 0.36876 0.0
H689 H 0.86807 0.84087 0.44101 0.0
H690 H 0.84764 0.90146 0.528 0.0
H691 H 0.84046 0.92492 0.45621 0.0
C692 C 0.87387 0.85775 0.61859 0.0
C693 C 0.89861 0.85384 0.61445 0.0
C694 C 0.85994 0.86042 0.57755 0.0
C695 C 0.87055 0.85891 0.53204 0.0
C696 C 0.89473 0.85233 0.52821 0.0
C697 C 0.90868 0.84995 0.56912 0.0
C698 C 0.85704 0.87241 0.40336 0.0
C699 C 0.85066 0.89664 0.40724 0.0
C700 C 0.86118 0.85891 0.44457 0.0
C701 C 0.85868 0.86945 0.48994 0.0
C702 C 0.84958 0.89281 0.49351 0.0
C703 C 0.84575 0.90635 0.45244 0.0
H704 H 0.13024 0.1007 0.8845 0.0
H705 H 0.06102 0.13135 0.91627 0.0
H706 H 0.13717 0.09424 0.96922 0.0
H707 H 0.06784 0.12438 0.0015 0.0
H708 H 0.09803 0.13004 0.15194 0.0
H709 H 0.0926 0.1379 0.06728 0.0
H710 H 0.12291 0.06878 0.03368 0.0
H711 H 0.12885 0.06102 0.11893 0.0
C712 C 0.11645 0.10608 0.90957 0.0
C713 C 0.095 0.11651 0.89353 0.0
C714 C 0.1204 0.10218 0.95819 0.0
C715 C 0.10301 0.10859 -0.00791 0.0
C716 C 0.08171 0.11943 0.97625 0.0
C717 C 0.07776 0.12339 0.92745 0.0
C718 C 0.10365 0.11648 0.12661 0.0
C719 C 0.11383 0.09481 0.14229 0.0
C720 C 0.10036 0.12097 0.07801 0.0
C721 C 0.1071 0.10391 0.04374 0.0
C722 C 0.1177 0.0824 0.05923 0.0
C723 C 0.12107 0.07791 0.10804 0.0
H724 H 0.92236 0.645 0.37399 0.0
H725 H 0.88773 0.57741 0.40388 0.0
H726 H 0.91396 0.63978 0.28888 0.0
H727 H 0.8805 0.5715 0.31927 0.0
H728 H 0.85273 0.5751 0.16786 0.0
H729 H 0.8581 0.58316 0.25311 0.0
H730 H 0.92577 0.61771 0.22236 0.0
H731 H 0.9197 0.61082 0.13772 0.0
C732 C 0.91316 0.62896 0.36228 0.0
C733 C 0.90567 0.61168 0.39556 0.0
C734 C 0.90841 0.62586 0.3135 0.0
C735 C 0.8965 0.60517 0.29694 0.0
C736 C 0.88919 0.5879 0.3305 0.0
C737 C 0.89353 0.59121 0.37914 0.0
C738 C 0.86867 0.58447 0.17953 0.0
C739 C 0.88572 0.59238 0.14615 0.0
C740 C 0.87185 0.58902 0.22838 0.0
C741 C 0.8924 0.60116 0.24488 0.0
C742 C 0.90947 0.60885 0.2112 0.0
C743 C 0.90607 0.6047 0.16253 0.0
H744 H 0.36756 0.4397 0.61631 0.0
H745 H 0.39732 0.37012 0.64831 0.0
H746 H 0.37407 0.43242 0.53101 0.0
H747 H 0.40332 0.36275 0.56357 0.0
H748 H 0.36727 0.40148 0.38108 0.0
H749 H 0.35991 0.40751 0.46582 0.0
H750 H 0.42869 0.37639 0.49841 0.0
H751 H 0.43596 0.36986 0.41311 0.0
C752 C 0.37523 0.4228 0.60519 0.0
C753 C 0.382 0.40558 0.63918 0.0
C754 C 0.37893 0.41858 0.55634 0.0
C755 C 0.38939 0.39704 0.54055 0.0
C756 C 0.39568 0.37969 0.57455 0.0
C757 C 0.39205 0.3839 0.62319 0.0
C758 C 0.38086 0.3958 0.40621 0.0
C759 C 0.40229 0.38522 0.39023 0.0
C760 C 0.37665 0.39944 0.45485 0.0
C761 C 0.39376 0.39264 0.48885 0.0
C762 C 0.41504 0.38165 0.47307 0.0
C763 C 0.41925 0.37794 0.42422 0.0
H764 H 0.62445 0.94197 0.65775 0.0
H765 H 0.59005 0.8741 0.62897 0.0
H766 H 0.61868 0.93545 0.74351 0.0
H767 H 0.58493 0.86736 0.71408 0.0
H768 H 0.55795 0.87378 0.86808 0.0
H769 H 0.56257 0.88111 0.78226 0.0
H770 H 0.6331 0.91037 0.807 0.0
H771 H 0.62828 0.90369 0.8922 0.0
C772 C 0.61583 0.92563 0.66967 0.0
C773 C 0.6077 0.90862 0.63647 0.0
C774 C 0.61258 0.92183 0.71879 0.0
C775 C 0.60126 0.90088 0.73567 0.0
C776 C 0.5933 0.88387 0.70238 0.0
C777 C 0.59642 0.8877 0.65347 0.0
C778 C 0.57444 0.88168 0.85508 0.0
C779 C 0.59267 0.88821 0.88701 0.0
C780 C 0.57714 0.88586 0.80593 0.0
C781 C 0.59817 0.8965 0.78779 0.0
C782 C 0.61648 0.90264 0.81978 0.0
C783 C 0.61375 0.89861 0.8687 0.0
H784 H 0.13237 0.40065 0.39988 0.0
H785 H 0.06337 0.36927 0.36863 0.0
H786 H 0.13957 0.40663 0.31503 0.0
H787 H 0.07048 0.37574 0.28325 0.0
H788 H 0.10124 0.36956 0.13303 0.0
H789 H 0.09573 0.362 0.21786 0.0
H790 H 0.12511 0.43174 0.25015 0.0
H791 H 0.13111 0.43924 0.16476 0.0
C792 C 0.11869 0.395 0.37491 0.0
C793 C 0.09721 0.38453 0.39112 0.0
C794 C 0.1228 0.39861 0.32622 0.0
C795 C 0.10554 0.39187 0.29243 0.0
C796 C 0.08423 0.38095 0.30844 0.0
C797 C 0.08012 0.37729 0.35733 0.0
C798 C 0.10666 0.38332 0.15811 0.0
C799 C 0.11656 0.40509 0.14204 0.0
C800 C 0.10332 0.37899 0.2068 0.0
C801 C 0.10976 0.39632 0.24072 0.0
C802 C 0.12013 0.41793 0.22485 0.0
C803 C 0.12353 0.42226 0.17596 0.0
H804 H 0.5782 0.6102 0.653 0.0
H805 H 0.64514 0.57443 0.62423 0.0
H806 H 0.5725 0.61699 0.56818 0.0
H807 H 0.64016 0.58237 0.53885 0.0
H808 H 0.61159 0.57676 0.38749 0.0
H809 H 0.61802 0.5707 0.47232 0.0
H810 H 0.58482 0.63906 0.50179 0.0
H811 H 0.57722 0.64444 0.4164 0.0
C812 C 0.5919 0.60404 0.62845 0.0
C813 C 0.61214 0.59175 0.64526 0.0
C814 C 0.58872 0.60813 0.57969 0.0
C815 C 0.6059 0.6004 0.54636 0.0
C816 C 0.62632 0.58826 0.56329 0.0
C817 C 0.62929 0.58377 0.61223 0.0
C818 C 0.60566 0.59054 0.41207 0.0
C819 C 0.59387 0.6111 0.3953 0.0
C820 C 0.60955 0.58714 0.46085 0.0
C821 C 0.6021 0.60441 0.49421 0.0
C822 C 0.59047 0.62515 0.47731 0.0
C823 C 0.58618 0.62834 0.42838 0.0
H824 H 0.40293 0.12754 0.63897 0.0
H825 H 0.37313 0.05719 0.66458 0.0
H826 H 0.40968 0.1326 0.72402 0.0
H827 H 0.38054 0.06204 0.75023 0.0
H828 H 0.44123 0.12442 0.87336 0.0
H829 H 0.43472 0.11846 0.78771 0.0
H830 H 0.36678 0.08455 0.81808 0.0
H831 H 0.37352 0.08985 0.90306 0.0
C832 C 0.39788 0.11305 0.66276 0.0
C833 C 0.38749 0.0919 0.64491 0.0
C834 C 0.40196 0.11592 0.71161 0.0
C835 C 0.39586 0.09768 0.74397 0.0
C836 C 0.38525 0.07656 0.72627 0.0
C837 C 0.38103 0.07373 0.67722 0.0
C838 C 0.42492 0.11573 0.86166 0.0
C839 C 0.40796 0.1076 0.89509 0.0
C840 C 0.42113 0.11237 0.81261 0.0
C841 C 0.40023 0.10093 0.79602 0.0
C842 C 0.38326 0.09299 0.82955 0.0
C843 C 0.38709 0.09623 0.87838 0.0
H844 H 0.86774 0.93869 0.11301 0.0
H845 H 0.89708 0.86872 0.14318 0.0
H846 H 0.87468 0.93215 0.02761 0.0
H847 H 0.9035 0.86208 0.0583 0.0
H848 H 0.93727 0.87049 0.90924 0.0
H849 H 0.9294 0.8763 -0.00548 0.0
H850 H 0.86097 0.90796 0.96101 0.0
H851 H 0.86895 0.90266 0.87629 0.0
C852 C 0.87539 0.92185 0.10144 0.0
C853 C 0.88195 0.90432 0.13495 0.0
C854 C 0.87934 0.91806 0.05254 0.0
C855 C 0.88983 0.89664 0.03622 0.0
C856 C 0.89585 0.87895 0.06972 0.0
C857 C 0.89198 0.88274 0.11842 0.0
C858 C 0.92051 0.87855 0.92014 0.0
C859 C 0.90382 0.88618 0.88591 0.0
C860 C 0.91595 0.88184 0.96897 0.0
C861 C 0.89459 0.89274 -0.01549 0.0
C862 C 0.87777 0.89994 0.95025 0.0
C863 C 0.88233 0.89672 0.90161 0.0
loop_
_geom_bond_atom_site_label_1
_geom_bond_atom_site_label_2
_geom_bond_distance
_geom_bond_site_symmetry_2
_ccdc_geom_bond_type
C0 O1 1.306 . S
C0 O3 1.160 . S
O1 C0 1.306 . S
O1 Cd2 2.228 . S
Cd2 O1 2.228 . S
Cd2 O6 2.273 . S
Cd2 O10 2.277 . S
O3 C0 1.160 . S
O3 Cd4 2.203 . S
Cd4 O3 2.203 . S
Cd4 O6 2.411 . S
Cd4 O7 2.333 . S
Cd4 O8 2.352 . S
Cd4 O12 2.277 . S
Cd4 O13 2.356 . S
C5 O10 1.209 . S
C5 O12 1.226 . S
O6 Cd2 2.273 . S
O6 Cd4 2.411 . S
O6 C9 1.320 . S
O7 Cd4 2.333 . S
O7 C9 1.214 . S
O8 Cd4 2.352 . S
O8 C11 1.258 . S
C9 O6 1.320 . S
C9 O7 1.214 . S
O10 Cd2 2.277 . S
O10 C5 1.209 . S
C11 O8 1.258 . S
C11 O13 1.282 . S
O12 Cd4 2.277 . S
O12 C5 1.226 . S
O13 Cd4 2.356 . S
O13 C11 1.282 . S
C14 O15 1.306 . S
C14 O17 1.160 . S
O15 C14 1.306 . S
O15 Cd16 2.228 . S
Cd16 O15 2.228 . S
Cd16 O20 2.273 . S
Cd16 O24 2.277 . S
O17 C14 1.160 . S
O17 Cd18 2.203 . S
Cd18 O17 2.203 . S
Cd18 O20 2.411 . S
Cd18 O21 2.333 . S
Cd18 O22 2.352 . S
Cd18 O26 2.277 . S
Cd18 O27 2.356 . S
C19 O24 1.209 . S
C19 O26 1.226 . S
O20 Cd16 2.273 . S
O20 Cd18 2.411 . S
O20 C23 1.320 . S
O21 Cd18 2.333 . S
O21 C23 1.214 . S
O22 Cd18 2.352 . S
O22 C25 1.258 . S
C23 O20 1.320 . S
C23 O21 1.214 . S
O24 Cd16 2.277 . S
O24 C19 1.209 . S
C25 O22 1.258 . S
C25 O27 1.282 . S
O26 Cd18 2.277 . S
O26 C19 1.226 . S
O27 Cd18 2.356 . S
O27 C25 1.282 . S
C28 O29 1.306 . S
C28 O31 1.160 . S
O29 C28 1.306 . S
O29 Cd30 2.228 . S
Cd30 O29 2.228 . S
Cd30 O34 2.273 . S
Cd30 O38 2.277 . S
O31 C28 1.160 . S
O31 Cd32 2.203 . S
Cd32 O31 2.203 . S
Cd32 O34 2.411 . S
Cd32 O35 2.333 . S
Cd32 O36 2.352 . S
Cd32 O40 2.277 . S
Cd32 O41 2.356 . S
C33 O38 1.209 . S
C33 O40 1.226 . S
O34 Cd30 2.273 . S
O34 Cd32 2.411 . S
O34 C37 1.320 . S
O35 Cd32 2.333 . S
O35 C37 1.214 . S
O36 Cd32 2.352 . S
O36 C39 1.258 . S
C37 O34 1.320 . S
C37 O35 1.214 . S
O38 Cd30 2.277 . S
O38 C33 1.209 . S
C39 O36 1.258 . S
C39 O41 1.282 . S
O40 Cd32 2.277 . S
O40 C33 1.226 . S
O41 Cd32 2.356 . S
O41 C39 1.282 . S
C42 O43 1.306 . S
C42 O45 1.160 . S
O43 C42 1.306 . S
O43 Cd44 2.228 1_556 S
Cd44 O43 2.228 1_554 S
Cd44 O48 2.273 . S
Cd44 O52 2.277 . S
O45 C42 1.160 . S
O45 Cd46 2.203 1_556 S
Cd46 O45 2.203 1_554 S
Cd46 O48 2.411 . S
Cd46 O49 2.333 . S
Cd46 O50 2.352 . S
Cd46 O54 2.277 . S
Cd46 O55 2.356 . S
C47 O52 1.209 . S
C47 O54 1.226 . S
O48 Cd44 2.273 . S
O48 Cd46 2.411 . S
O48 C51 1.320 . S
O49 Cd46 2.333 . S
O49 C51 1.214 . S
O50 Cd46 2.352 . S
O50 C53 1.258 . S
C51 O48 1.320 . S
C51 O49 1.214 . S
O52 Cd44 2.277 . S
O52 C47 1.209 . S
C53 O50 1.258 . S
C53 O55 1.282 . S
O54 Cd46 2.277 . S
O54 C47 1.226 . S
O55 Cd46 2.356 . S
O55 C53 1.282 . S
C56 O57 1.306 . S
C56 O59 1.160 . S
O57 C56 1.306 . S
O57 Cd58 2.228 . S
Cd58 O57 2.228 . S
Cd58 O62 2.273 1_554 S
Cd58 O66 2.277 . S
O59 C56 1.160 . S
O59 Cd60 2.203 . S
Cd60 O59 2.203 . S
Cd60 O62 2.411 1_554 S
Cd60 O63 2.333 1_554 S
Cd60 O64 2.352 . S
Cd60 O68 2.277 . S
Cd60 O69 2.356 1_554 S
C61 O66 1.209 . S
C61 O68 1.226 . S
O62 Cd58 2.273 1_556 S
O62 Cd60 2.411 1_556 S
O62 C65 1.320 . S
O63 Cd60 2.333 1_556 S
O63 C65 1.214 . S
O64 Cd60 2.352 . S
O64 C67 1.256 1_554 S
C65 O62 1.320 . S
C65 O63 1.214 . S
O66 Cd58 2.277 . S
O66 C61 1.209 . S
C67 O64 1.256 1_556 S
C67 O69 1.282 . S
O68 Cd60 2.277 . S
O68 C61 1.226 . S
O69 Cd60 2.356 1_556 S
O69 C67 1.282 . S
C70 O71 1.306 . S
C70 O73 1.160 . S
O71 C70 1.306 . S
O71 Cd72 2.228 . S
Cd72 O71 2.228 . S
Cd72 O76 2.273 . S
Cd72 O80 2.277 . S
O73 C70 1.160 . S
O73 Cd74 2.203 . S
Cd74 O73 2.203 . S
Cd74 O76 2.411 . S
Cd74 O77 2.333 . S
Cd74 O78 2.352 . S
Cd74 O82 2.277 . S
Cd74 O83 2.356 . S
C75 O80 1.209 . S
C75 O82 1.226 . S
O76 Cd72 2.273 . S
O76 Cd74 2.411 . S
O76 C79 1.320 . S
O77 Cd74 2.333 . S
O77 C79 1.214 . S
O78 Cd74 2.352 . S
O78 C81 1.258 . S
C79 O76 1.320 . S
C79 O77 1.214 . S
O80 Cd72 2.277 . S
O80 C75 1.209 . S
C81 O78 1.258 . S
C81 O83 1.282 . S
O82 Cd74 2.277 . S
O82 C75 1.226 . S
O83 Cd74 2.356 . S
O83 C81 1.282 . S
C84 O85 1.306 . S
C84 O87 1.160 . S
O85 C84 1.306 . S
O85 Cd86 2.228 . S
Cd86 O85 2.228 . S
Cd86 O90 2.273 . S
Cd86 O94 2.277 . S
O87 C84 1.160 . S
O87 Cd88 2.203 . S
Cd88 O87 2.203 . S
Cd88 O90 2.411 . S
Cd88 O91 2.333 . S
Cd88 O92 2.352 . S
Cd88 O96 2.277 . S
Cd88 O97 2.356 . S
C89 O94 1.209 . S
C89 O96 1.226 . S
O90 Cd86 2.273 . S
O90 Cd88 2.411 . S
O90 C93 1.320 . S
O91 Cd88 2.333 . S
O91 C93 1.214 . S
O92 Cd88 2.352 . S
O92 C95 1.258 . S
C93 O90 1.320 . S
C93 O91 1.214 . S
O94 Cd86 2.277 . S
O94 C89 1.209 . S
C95 O92 1.258 . S
C95 O97 1.282 . S
O96 Cd88 2.277 . S
O96 C89 1.226 . S
O97 Cd88 2.356 . S
O97 C95 1.282 . S
C98 O99 1.306 . S
C98 O101 1.160 . S
O99 C98 1.306 . S
O99 Cd100 2.228 . S
Cd100 O99 2.228 . S
Cd100 O104 2.273 . S
Cd100 O108 2.277 . S
O101 C98 1.160 . S
O101 Cd102 2.203 . S
Cd102 O101 2.203 . S
Cd102 O104 2.411 . S
Cd102 O105 2.333 . S
Cd102 O106 2.352 . S
Cd102 O110 2.277 . S
Cd102 O111 2.356 . S
C103 O108 1.209 . S
C103 O110 1.226 . S
O104 Cd100 2.273 . S
O104 Cd102 2.411 . S
O104 C107 1.320 . S
O105 Cd102 2.333 . S
O105 C107 1.214 . S
O106 Cd102 2.352 . S
O106 C109 1.258 . S
C107 O104 1.320 . S
C107 O105 1.214 . S
O108 Cd100 2.277 . S
O108 C103 1.209 . S
C109 O106 1.258 . S
C109 O111 1.282 . S
O110 Cd102 2.277 . S
O110 C103 1.226 . S
O111 Cd102 2.356 . S
O111 C109 1.282 . S
C112 O113 1.306 . S
C112 O115 1.160 . S
O113 C112 1.306 . S
O113 Cd114 2.228 . S
Cd114 O113 2.228 . S
Cd114 O118 2.273 . S
Cd114 O122 2.277 . S
O115 C112 1.160 . S
O115 Cd116 2.203 . S
Cd116 O115 2.203 . S
Cd116 O118 2.411 . S
Cd116 O119 2.333 . S
Cd116 O120 2.352 . S
Cd116 O124 2.277 . S
Cd116 O125 2.356 . S
C117 O122 1.209 . S
C117 O124 1.226 . S
O118 Cd114 2.273 . S
O118 Cd116 2.411 . S
O118 C121 1.320 . S
O119 Cd116 2.333 . S
O119 C121 1.214 . S
O120 Cd116 2.352 . S
O120 C123 1.258 . S
C121 O118 1.320 . S
C121 O119 1.214 . S
O122 Cd114 2.277 . S
O122 C117 1.209 . S
C123 O120 1.258 . S
C123 O125 1.282 . S
O124 Cd116 2.277 . S
O124 C117 1.226 . S
O125 Cd116 2.356 . S
O125 C123 1.282 . S
C126 O127 1.306 . S
C126 O129 1.160 . S
O127 C126 1.306 . S
O127 Cd128 2.228 1_556 S
Cd128 O127 2.228 1_554 S
Cd128 O132 2.273 . S
Cd128 O136 2.277 . S
O129 C126 1.160 . S
O129 Cd130 2.203 1_556 S
Cd130 O129 2.203 1_554 S
Cd130 O132 2.411 . S
Cd130 O133 2.333 . S
Cd130 O134 2.352 . S
Cd130 O138 2.277 . S
Cd130 O139 2.356 . S
C131 O136 1.209 . S
C131 O138 1.226 . S
O132 Cd128 2.273 . S
O132 Cd130 2.411 . S
O132 C135 1.320 . S
O133 Cd130 2.333 . S
O133 C135 1.214 . S
O134 Cd130 2.352 . S
O134 C137 1.258 . S
C135 O132 1.320 . S
C135 O133 1.214 . S
O136 Cd128 2.277 . S
O136 C131 1.209 . S
C137 O134 1.258 . S
C137 O139 1.282 . S
O138 Cd130 2.277 . S
O138 C131 1.226 . S
O139 Cd130 2.356 . S
O139 C137 1.282 . S
C140 O141 1.306 . S
C140 O143 1.160 . S
O141 C140 1.306 . S
O141 Cd142 2.228 . S
Cd142 O141 2.228 . S
Cd142 O146 2.273 . S
Cd142 O150 2.277 . S
O143 C140 1.160 . S
O143 Cd144 2.203 . S
Cd144 O143 2.203 . S
Cd144 O146 2.411 . S
Cd144 O147 2.333 . S
Cd144 O148 2.352 . S
Cd144 O152 2.277 . S
Cd144 O153 2.356 . S
C145 O150 1.209 . S
C145 O152 1.226 . S
O146 Cd142 2.273 . S
O146 Cd144 2.411 . S
O146 C149 1.320 . S
O147 Cd144 2.333 . S
O147 C149 1.214 . S
O148 Cd144 2.352 . S
O148 C151 1.258 . S
C149 O146 1.320 . S
C149 O147 1.214 . S
O150 Cd142 2.277 . S
O150 C145 1.209 . S
C151 O148 1.258 . S
C151 O153 1.282 . S
O152 Cd144 2.277 . S
O152 C145 1.226 . S
O153 Cd144 2.356 . S
O153 C151 1.282 . S
C154 O155 1.306 . S
C154 O157 1.160 . S
O155 C154 1.306 . S
O155 Cd156 2.228 . S
Cd156 O155 2.228 . S
Cd156 O160 2.273 . S
Cd156 O164 2.277 . S
O157 C154 1.160 . S
O157 Cd158 2.203 . S
Cd158 O157 2.203 . S
Cd158 O160 2.411 . S
Cd158 O161 2.333 . S
Cd158 O162 2.352 . S
Cd158 O166 2.277 . S
Cd158 O167 2.356 . S
C159 O164 1.209 . S
C159 O166 1.226 . S
O160 Cd156 2.273 . S
O160 Cd158 2.411 . S
O160 C163 1.320 . S
O161 Cd158 2.333 . S
O161 C163 1.214 . S
O162 Cd158 2.352 . S
O162 C165 1.258 . S
C163 O160 1.320 . S
C163 O161 1.214 . S
O164 Cd156 2.277 . S
O164 C159 1.209 . S
C165 O162 1.258 . S
C165 O167 1.282 . S
O166 Cd158 2.277 . S
O166 C159 1.226 . S
O167 Cd158 2.356 . S
O167 C165 1.282 . S
C168 O169 1.306 . S
C168 O171 1.160 . S
O169 C168 1.306 . S
O169 Cd170 2.228 . S
Cd170 O169 2.228 . S
Cd170 O174 2.273 . S
Cd170 O178 2.277 . S
O171 C168 1.160 . S
O171 Cd172 2.203 . S
Cd172 O171 2.203 . S
Cd172 O174 2.411 . S
Cd172 O175 2.333 . S
Cd172 O176 2.352 . S
Cd172 O180 2.277 . S
Cd172 O181 2.356 . S
C173 O178 1.209 . S
C173 O180 1.226 . S
O174 Cd170 2.273 . S
O174 Cd172 2.411 . S
O174 C177 1.320 . S
O175 Cd172 2.333 . S
O175 C177 1.214 . S
O176 Cd172 2.352 . S
O176 C179 1.258 . S
C177 O174 1.320 . S
C177 O175 1.214 . S
O178 Cd170 2.277 . S
O178 C173 1.209 . S
C179 O176 1.258 . S
C179 O181 1.282 . S
O180 Cd172 2.277 . S
O180 C173 1.226 . S
O181 Cd172 2.356 . S
O181 C179 1.282 . S
C182 O183 1.306 . S
C182 O185 1.160 . S
O183 C182 1.306 . S
O183 Cd184 2.228 . S
Cd184 O183 2.228 . S
Cd184 O188 2.273 . S
Cd184 O192 2.277 . S
O185 C182 1.160 . S
O185 Cd186 2.203 . S
Cd186 O185 2.203 . S
Cd186 O188 2.411 . S
Cd186 O189 2.333 . S
Cd186 O190 2.352 . S
Cd186 O194 2.277 . S
Cd186 O195 2.356 . S
C187 O192 1.209 . S
C187 O194 1.226 . S
O188 Cd184 2.273 . S
O188 Cd186 2.411 . S
O188 C191 1.320 . S
O189 Cd186 2.333 . S
O189 C191 1.214 . S
O190 Cd186 2.352 . S
O190 C193 1.258 . S
C191 O188 1.320 . S
C191 O189 1.214 . S
O192 Cd184 2.277 . S
O192 C187 1.209 . S
C193 O190 1.258 . S
C193 O195 1.282 . S
O194 Cd186 2.277 . S
O194 C187 1.226 . S
O195 Cd186 2.356 . S
O195 C193 1.282 . S
C196 O197 1.306 . S
C196 O199 1.160 . S
O197 C196 1.306 . S
O197 Cd198 2.228 . S
Cd198 O197 2.228 . S
Cd198 O202 2.273 1_554 S
Cd198 O206 2.277 . S
O199 C196 1.160 . S
O199 Cd200 2.203 . S
Cd200 O199 2.203 . S
Cd200 O202 2.411 1_554 S
Cd200 O203 2.333 1_554 S
Cd200 O204 2.352 . S
Cd200 O208 2.277 . S
Cd200 O209 2.356 1_554 S
C201 O206 1.209 . S
C201 O208 1.226 . S
O202 Cd198 2.273 1_556 S
O202 Cd200 2.411 1_556 S
O202 C205 1.320 . S
O203 Cd200 2.333 1_556 S
O203 C205 1.214 . S
O204 Cd200 2.352 . S
O204 C207 1.256 1_554 S
C205 O202 1.320 . S
C205 O203 1.214 . S
O206 Cd198 2.277 . S
O206 C201 1.209 . S
C207 O204 1.256 1_556 S
C207 O209 1.282 . S
O208 Cd200 2.277 . S
O208 C201 1.226 . S
O209 Cd200 2.356 1_556 S
O209 C207 1.282 . S
C210 O211 1.306 . S
C210 O213 1.160 . S
O211 C210 1.306 . S
O211 Cd212 2.228 . S
Cd212 O211 2.228 . S
Cd212 O216 2.273 . S
Cd212 O220 2.277 . S
O213 C210 1.160 . S
O213 Cd214 2.203 . S
Cd214 O213 2.203 . S
Cd214 O216 2.411 . S
Cd214 O217 2.333 . S
Cd214 O218 2.352 . S
Cd214 O222 2.277 . S
Cd214 O223 2.356 . S
C215 O220 1.209 . S
C215 O222 1.226 . S
O216 Cd212 2.273 . S
O216 Cd214 2.411 . S
O216 C219 1.320 . S
O217 Cd214 2.333 . S
O217 C219 1.214 . S
O218 Cd214 2.352 . S
O218 C221 1.258 . S
C219 O216 1.320 . S
C219 O217 1.214 . S
O220 Cd212 2.277 . S
O220 C215 1.209 . S
C221 O218 1.258 . S
C221 O223 1.282 . S
O222 Cd214 2.277 . S
O222 C215 1.226 . S
O223 Cd214 2.356 . S
O223 C221 1.282 . S
H224 C232 0.950 . S
H225 C237 0.950 . S
H226 C234 0.950 . S
H227 C236 0.950 . S
H228 C238 0.950 . S
H229 C240 0.950 . S
H230 C242 0.950 . S
H231 C243 0.950 . S
C232 H224 0.950 . S
C232 C233 1.386 . S
C232 C234 1.391 . S
C233 C232 1.386 . S
C233 C237 1.393 . S
C234 H226 0.950 . S
C234 C232 1.391 . S
C234 C235 1.400 . S
C235 C234 1.400 . S
C235 C236 1.398 . S
C235 C241 1.491 . S
C236 H227 0.950 . S
C236 C235 1.398 . S
C236 C237 1.391 . S
C237 H225 0.950 . S
C237 C233 1.393 . S
C237 C236 1.391 . S
C238 H228 0.950 . S
C238 C239 1.386 . S
C238 C240 1.391 . S
C239 C238 1.386 . S
C239 C243 1.393 . S
C240 H229 0.950 . S
C240 C238 1.391 . S
C240 C241 1.400 . S
C241 C235 1.491 . S
C241 C240 1.400 . S
C241 C242 1.398 . S
C242 H230 0.950 . S
C242 C241 1.398 . S
C242 C243 1.391 . S
C243 H231 0.950 . S
C243 C239 1.393 . S
C243 C242 1.391 . S
H244 C252 0.950 . S
H245 C257 0.950 . S
H246 C254 0.950 . S
H247 C256 0.950 . S
H248 C258 0.950 . S
H249 C260 0.950 . S
H250 C262 0.950 . S
H251 C263 0.950 . S
C252 H244 0.950 . S
C252 C253 1.386 . S
C252 C254 1.391 . S
C253 C252 1.386 . S
C253 C257 1.393 . S
C254 H246 0.950 . S
C254 C252 1.391 . S
C254 C255 1.400 . S
C255 C254 1.400 . S
C255 C256 1.398 . S
C255 C261 1.491 . S
C256 H247 0.950 . S
C256 C255 1.398 . S
C256 C257 1.391 . S
C257 H245 0.950 . S
C257 C253 1.393 . S
C257 C256 1.391 . S
C258 H248 0.950 . S
C258 C259 1.386 . S
C258 C260 1.391 . S
C259 C258 1.386 . S
C259 C263 1.393 . S
C260 H249 0.950 . S
C260 C258 1.391 . S
C260 C261 1.400 . S
C261 C255 1.491 . S
C261 C260 1.400 . S
C261 C262 1.398 . S
C262 H250 0.950 . S
C262 C261 1.398 . S
C262 C263 1.391 . S
C263 H251 0.950 . S
C263 C259 1.393 . S
C263 C262 1.391 . S
H264 C272 0.950 . S
H265 C277 0.950 . S
H266 C274 0.950 . S
H267 C276 0.950 . S
H268 C278 0.950 1_554 S
H269 C280 0.950 . S
H270 C282 0.950 . S
H271 C283 0.950 . S
C272 H264 0.950 . S
C272 C273 1.386 . S
C272 C274 1.391 . S
C273 C272 1.386 . S
C273 C277 1.393 . S
C274 H266 0.950 . S
C274 C272 1.391 . S
C274 C275 1.400 . S
C275 C274 1.400 . S
C275 C276 1.398 . S
C275 C281 1.491 . S
C276 H267 0.950 . S
C276 C275 1.398 . S
C276 C277 1.391 . S
C277 H265 0.950 . S
C277 C273 1.393 . S
C277 C276 1.391 . S
C278 H268 0.950 1_556 S
C278 C279 1.386 . S
C278 C280 1.391 . S
C279 C278 1.386 . S
C279 C283 1.393 . S
C280 H269 0.950 . S
C280 C278 1.391 . S
C280 C281 1.400 . S
C281 C275 1.491 . S
C281 C280 1.400 . S
C281 C282 1.398 . S
C282 H270 0.950 . S
C282 C281 1.398 . S
C282 C283 1.391 . S
C283 H271 0.950 . S
C283 C279 1.393 . S
C283 C282 1.391 . S
H284 C292 0.950 . S
H285 C297 0.950 . S
H286 C294 0.950 . S
H287 C296 0.950 . S
H288 C298 0.950 . S
H289 C300 0.950 . S
H290 C302 0.950 . S
H291 C303 0.950 . S
C292 H284 0.950 . S
C292 C293 1.386 . S
C292 C294 1.391 . S
C293 C292 1.386 . S
C293 C297 1.393 . S
C294 H286 0.950 . S
C294 C292 1.391 . S
C294 C295 1.400 . S
C295 C294 1.400 . S
C295 C296 1.398 . S
C295 C301 1.491 . S
C296 H287 0.950 . S
C296 C295 1.398 . S
C296 C297 1.391 . S
C297 H285 0.950 . S
C297 C293 1.393 . S
C297 C296 1.391 . S
C298 H288 0.950 . S
C298 C299 1.386 . S
C298 C300 1.391 . S
C299 C298 1.386 . S
C299 C303 1.393 . S
C300 H289 0.950 . S
C300 C298 1.391 . S
C300 C301 1.400 . S
C301 C295 1.491 . S
C301 C300 1.400 . S
C301 C302 1.398 . S
C302 H290 0.950 . S
C302 C301 1.398 . S
C302 C303 1.391 . S
C303 H291 0.950 . S
C303 C299 1.393 . S
C303 C302 1.391 . S
H304 C312 0.950 . S
H305 C317 0.950 . S
H306 C314 0.950 . S
H307 C316 0.950 . S
H308 C318 0.950 . S
H309 C320 0.950 . S
H310 C322 0.950 . S
H311 C323 0.950 1_554 S
C312 H304 0.950 . S
C312 C313 1.386 . S
C312 C314 1.391 . S
C313 C312 1.386 . S
C313 C317 1.393 . S
C314 H306 0.950 . S
C314 C312 1.391 . S
C314 C315 1.400 . S
C315 C314 1.400 . S
C315 C316 1.398 . S
C315 C321 1.491 . S
C316 H307 0.950 . S
C316 C315 1.398 . S
C316 C317 1.391 . S
C317 H305 0.950 . S
C317 C313 1.393 . S
C317 C316 1.391 . S
C318 H308 0.950 . S
C318 C319 1.386 . S
C318 C320 1.391 . S
C319 C318 1.386 . S
C319 C323 1.393 . S
C320 H309 0.950 . S
C320 C318 1.391 . S
C320 C321 1.400 . S
C321 C315 1.491 . S
C321 C320 1.400 . S
C321 C322 1.398 . S
C322 H310 0.950 . S
C322 C321 1.398 . S
C322 C323 1.391 . S
C323 H311 0.950 1_556 S
C323 C319 1.393 . S
C323 C322 1.391 . S
H324 C332 0.950 . S
H325 C337 0.950 . S
H326 C334 0.950 . S
H327 C336 0.950 . S
H328 C338 0.950 . S
H329 C340 0.950 . S
H330 C342 0.950 . S
H331 C343 0.950 . S
C332 H324 0.950 . S
C332 C333 1.386 . S
C332 C334 1.391 . S
C333 C332 1.386 . S
C333 C337 1.393 . S
C334 H326 0.950 . S
C334 C332 1.391 . S
C334 C335 1.400 . S
C335 C334 1.400 . S
C335 C336 1.398 . S
C335 C341 1.491 . S
C336 H327 0.950 . S
C336 C335 1.398 . S
C336 C337 1.391 . S
C337 H325 0.950 . S
C337 C333 1.393 . S
C337 C336 1.391 . S
C338 H328 0.950 . S
C338 C339 1.386 . S
C338 C340 1.391 . S
C339 C338 1.386 . S
C339 C343 1.393 . S
C340 H329 0.950 . S
C340 C338 1.391 . S
C340 C341 1.400 . S
C341 C335 1.491 . S
C341 C340 1.400 . S
C341 C342 1.398 . S
C342 H330 0.950 . S
C342 C341 1.398 . S
C342 C343 1.391 . S
C343 H331 0.950 . S
C343 C339 1.393 . S
C343 C342 1.391 . S
H344 C352 0.950 . S
H345 C357 0.950 . S
H346 C354 0.950 . S
H347 C356 0.950 . S
H348 C358 0.950 . S
H349 C360 0.950 . S
H350 C362 0.950 . S
H351 C363 0.950 . S
C352 H344 0.950 . S
C352 C353 1.386 . S
C352 C354 1.391 . S
C353 C352 1.386 . S
C353 C357 1.393 . S
C354 H346 0.950 . S
C354 C352 1.391 . S
C354 C355 1.400 . S
C355 C354 1.400 . S
C355 C356 1.398 . S
C355 C361 1.491 . S
C356 H347 0.950 . S
C356 C355 1.398 . S
C356 C357 1.391 . S
C357 H345 0.950 . S
C357 C353 1.393 . S
C357 C356 1.391 . S
C358 H348 0.950 . S
C358 C359 1.386 . S
C358 C360 1.391 . S
C359 C358 1.386 . S
C359 C363 1.393 . S
C360 H349 0.950 . S
C360 C358 1.391 . S
C360 C361 1.400 . S
C361 C355 1.491 . S
C361 C360 1.400 . S
C361 C362 1.398 . S
C362 H350 0.950 . S
C362 C361 1.398 . S
C362 C363 1.391 . S
C363 H351 0.950 . S
C363 C359 1.393 . S
C363 C362 1.391 . S
H364 C372 0.950 . S
H365 C377 0.950 . S
H366 C374 0.950 . S
H367 C376 0.950 . S
H368 C378 0.950 . S
H369 C380 0.950 . S
H370 C382 0.950 . S
H371 C383 0.950 . S
C372 H364 0.950 . S
C372 C373 1.386 . S
C372 C374 1.391 . S
C373 C372 1.386 . S
C373 C377 1.393 . S
C374 H366 0.950 . S
C374 C372 1.391 . S
C374 C375 1.400 . S
C375 C374 1.400 . S
C375 C376 1.398 . S
C375 C381 1.491 . S
C376 H367 0.950 . S
C376 C375 1.398 . S
C376 C377 1.391 . S
C377 H365 0.950 . S
C377 C373 1.393 . S
C377 C376 1.391 . S
C378 H368 0.950 . S
C378 C379 1.386 . S
C378 C380 1.391 . S
C379 C378 1.386 . S
C379 C383 1.393 . S
C380 H369 0.950 . S
C380 C378 1.391 . S
C380 C381 1.400 . S
C381 C375 1.491 . S
C381 C380 1.400 . S
C381 C382 1.398 . S
C382 H370 0.950 . S
C382 C381 1.398 . S
C382 C383 1.391 . S
C383 H371 0.950 . S
C383 C379 1.393 . S
C383 C382 1.391 . S
H384 C392 0.950 . S
H385 C397 0.950 . S
H386 C394 0.950 . S
H387 C396 0.950 . S
H388 C398 0.950 . S
H389 C400 0.950 . S
H390 C402 0.950 . S
H391 C403 0.950 . S
C392 H384 0.950 . S
C392 C393 1.386 . S
C392 C394 1.391 . S
C393 C392 1.386 . S
C393 C397 1.393 . S
C394 H386 0.950 . S
C394 C392 1.391 . S
C394 C395 1.400 . S
C395 C394 1.400 . S
C395 C396 1.398 1_545 S
C395 C401 1.491 1_445 S
C396 H387 0.950 . S
C396 C395 1.398 1_565 S
C396 C397 1.391 1_565 S
C397 H385 0.950 . S
C397 C393 1.393 . S
C397 C396 1.391 1_545 S
C398 H388 0.950 . S
C398 C399 1.386 . S
C398 C400 1.391 . S
C399 C398 1.386 . S
C399 C403 1.393 . S
C400 H389 0.950 . S
C400 C398 1.391 . S
C400 C401 1.400 . S
C401 C395 1.491 1_665 S
C401 C400 1.400 . S
C401 C402 1.398 1_565 S
C402 H390 0.950 . S
C402 C401 1.398 1_545 S
C402 C403 1.391 1_545 S
C403 H391 0.950 . S
C403 C399 1.393 . S
C403 C402 1.391 1_565 S
H404 C412 0.950 1_455 S
H405 C417 0.950 . S
H406 C414 0.950 . S
H407 C416 0.950 . S
H408 C418 0.950 1_655 S
H409 C420 0.950 . S
H410 C422 0.950 . S
H411 C423 0.950 . S
C412 H404 0.950 1_655 S
C412 C413 1.386 . S
C412 C414 1.391 1_655 S
C413 C412 1.386 . S
C413 C417 1.393 . S
C414 H406 0.950 . S
C414 C412 1.391 1_455 S
C414 C415 1.400 1_455 S
C415 C414 1.400 1_655 S
C415 C416 1.398 . S
C415 C421 1.491 1_655 S
C416 H407 0.950 . S
C416 C415 1.398 . S
C416 C417 1.391 . S
C417 H405 0.950 . S
C417 C413 1.393 . S
C417 C416 1.391 . S
C418 H408 0.950 1_455 S
C418 C419 1.386 . S
C418 C420 1.391 1_455 S
C419 C418 1.386 . S
C419 C423 1.393 . S
C420 H409 0.950 . S
C420 C418 1.391 1_655 S
C420 C421 1.400 1_655 S
C421 C415 1.491 1_455 S
C421 C420 1.400 1_455 S
C421 C422 1.398 . S
C422 H410 0.950 . S
C422 C421 1.398 . S
C422 C423 1.391 . S
C423 H411 0.950 . S
C423 C419 1.393 . S
C423 C422 1.391 . S
H424 C432 0.950 . S
H425 C437 0.950 . S
H426 C434 0.950 . S
H427 C436 0.950 . S
H428 C438 0.950 . S
H429 C440 0.950 . S
H430 C442 0.950 . S
H431 C443 0.950 . S
C432 H424 0.950 . S
C432 C433 1.386 . S
C432 C434 1.391 . S
C433 C432 1.386 . S
C433 C437 1.393 . S
C434 H426 0.950 . S
C434 C432 1.391 . S
C434 C435 1.400 . S
C435 C434 1.400 . S
C435 C436 1.398 . S
C435 C441 1.491 . S
C436 H427 0.950 . S
C436 C435 1.398 . S
C436 C437 1.391 . S
C437 H425 0.950 . S
C437 C433 1.393 . S
C437 C436 1.391 . S
C438 H428 0.950 . S
C438 C439 1.386 . S
C438 C440 1.391 . S
C439 C438 1.386 . S
C439 C443 1.393 . S
C440 H429 0.950 . S
C440 C438 1.391 . S
C440 C441 1.400 . S
C441 C435 1.491 . S
C441 C440 1.400 . S
C441 C442 1.398 . S
C442 H430 0.950 . S
C442 C441 1.398 . S
C442 C443 1.391 . S
C443 H431 0.950 . S
C443 C439 1.393 . S
C443 C442 1.391 . S
H444 C452 0.950 . S
H445 C457 0.950 . S
H446 C454 0.950 . S
H447 C456 0.950 . S
H448 C458 0.950 . S
H449 C460 0.950 . S
H450 C462 0.950 . S
H451 C463 0.950 . S
C452 H444 0.950 . S
C452 C453 1.386 . S
C452 C454 1.391 . S
C453 C452 1.386 . S
C453 C457 1.393 . S
C454 H446 0.950 . S
C454 C452 1.391 . S
C454 C455 1.400 . S
C455 C454 1.400 . S
C455 C456 1.398 . S
C455 C461 1.491 1_565 S
C456 H447 0.950 . S
C456 C455 1.398 . S
C456 C457 1.391 . S
C457 H445 0.950 . S
C457 C453 1.393 . S
C457 C456 1.391 . S
C458 H448 0.950 . S
C458 C459 1.386 . S
C458 C460 1.391 . S
C459 C458 1.386 . S
C459 C463 1.393 . S
C460 H449 0.950 . S
C460 C458 1.391 . S
C460 C461 1.400 . S
C461 C455 1.491 1_545 S
C461 C460 1.400 . S
C461 C462 1.398 . S
C462 H450 0.950 . S
C462 C461 1.398 . S
C462 C463 1.391 . S
C463 H451 0.950 . S
C463 C459 1.393 . S
C463 C462 1.391 . S
H464 C472 0.950 . S
H465 C477 0.950 . S
H466 C474 0.950 . S
H467 C476 0.950 . S
H468 C478 0.950 . S
H469 C480 0.950 . S
H470 C482 0.950 . S
H471 C483 0.950 . S
C472 H464 0.950 . S
C472 C473 1.386 . S
C472 C474 1.391 . S
C473 C472 1.386 . S
C473 C477 1.393 1_554 S
C474 H466 0.950 . S
C474 C472 1.391 . S
C474 C475 1.400 . S
C475 C474 1.400 . S
C475 C476 1.398 1_554 S
C475 C481 1.491 1_455 S
C476 H467 0.950 . S
C476 C475 1.398 1_556 S
C476 C477 1.391 . S
C477 H465 0.950 . S
C477 C473 1.393 1_556 S
C477 C476 1.391 . S
C478 H468 0.950 . S
C478 C479 1.386 1_556 S
C478 C480 1.391 . S
C479 C478 1.386 1_554 S
C479 C483 1.393 . S
C480 H469 0.950 . S
C480 C478 1.391 . S
C480 C481 1.400 1_556 S
C481 C475 1.491 1_655 S
C481 C480 1.400 1_554 S
C481 C482 1.398 . S
C482 H470 0.950 . S
C482 C481 1.398 . S
C482 C483 1.391 . S
C483 H471 0.950 . S
C483 C479 1.393 . S
C483 C482 1.391 . S
H484 C492 0.950 . S
H485 C497 0.950 . S
H486 C494 0.950 . S
H487 C496 0.950 . S
H488 C498 0.950 . S
H489 C500 0.950 . S
H490 C502 0.950 . S
H491 C503 0.950 . S
C492 H484 0.950 . S
C492 C493 1.386 . S
C492 C494 1.391 . S
C493 C492 1.386 . S
C493 C497 1.393 . S
C494 H486 0.950 . S
C494 C492 1.391 . S
C494 C495 1.400 . S
C495 C494 1.400 . S
C495 C496 1.398 . S
C495 C501 1.491 . S
C496 H487 0.950 . S
C496 C495 1.398 . S
C496 C497 1.391 . S
C497 H485 0.950 . S
C497 C493 1.393 . S
C497 C496 1.391 . S
C498 H488 0.950 . S
C498 C499 1.386 . S
C498 C500 1.391 . S
C499 C498 1.386 . S
C499 C503 1.393 . S
C500 H489 0.950 . S
C500 C498 1.391 . S
C500 C501 1.400 . S
C501 C495 1.491 . S
C501 C500 1.400 . S
C501 C502 1.398 . S
C502 H490 0.950 . S
C502 C501 1.398 . S
C502 C503 1.391 . S
C503 H491 0.950 . S
C503 C499 1.393 . S
C503 C502 1.391 . S
H504 C512 0.950 . S
H505 C517 0.950 1_565 S
H506 C514 0.950 . S
H507 C516 0.950 . S
H508 C518 0.950 . S
H509 C520 0.950 . S
H510 C522 0.950 . S
H511 C523 0.950 1_545 S
C512 H504 0.950 . S
C512 C513 1.386 . S
C512 C514 1.391 . S
C513 C512 1.386 . S
C513 C517 1.393 . S
C514 H506 0.950 . S
C514 C512 1.391 . S
C514 C515 1.400 . S
C515 C514 1.400 . S
C515 C516 1.398 1_545 S
C515 C521 1.491 1_545 S
C516 H507 0.950 . S
C516 C515 1.398 1_565 S
C516 C517 1.391 1_565 S
C517 H505 0.950 1_545 S
C517 C513 1.393 . S
C517 C516 1.391 1_545 S
C518 H508 0.950 . S
C518 C519 1.386 . S
C518 C520 1.391 . S
C519 C518 1.386 . S
C519 C523 1.393 . S
C520 H509 0.950 . S
C520 C518 1.391 . S
C520 C521 1.400 . S
C521 C515 1.491 1_565 S
C521 C520 1.400 . S
C521 C522 1.398 1_565 S
C522 H510 0.950 . S
C522 C521 1.398 1_545 S
C522 C523 1.391 1_545 S
C523 H511 0.950 1_565 S
C523 C519 1.393 . S
C523 C522 1.391 1_565 S
H524 C532 0.950 . S
H525 C537 0.950 1_655 S
H526 C534 0.950 . S
H527 C536 0.950 . S
H528 C538 0.950 . S
H529 C540 0.950 . S
H530 C542 0.950 . S
H531 C543 0.950 1_455 S
C532 H524 0.950 . S
C532 C533 1.386 . S
C532 C534 1.391 . S
C533 C532 1.386 . S
C533 C537 1.393 . S
C534 H526 0.950 . S
C534 C532 1.391 . S
C534 C535 1.400 . S
C535 C534 1.400 . S
C535 C536 1.398 1_455 S
C535 C541 1.491 1_445 S
C536 H527 0.950 . S
C536 C535 1.398 1_655 S
C536 C537 1.391 1_655 S
C537 H525 0.950 1_455 S
C537 C533 1.393 . S
C537 C536 1.391 1_455 S
C538 H528 0.950 . S
C538 C539 1.386 . S
C538 C540 1.391 . S
C539 C538 1.386 . S
C539 C543 1.393 . S
C540 H529 0.950 . S
C540 C538 1.391 . S
C540 C541 1.400 . S
C541 C535 1.491 1_665 S
C541 C540 1.400 . S
C541 C542 1.398 1_655 S
C542 H530 0.950 . S
C542 C541 1.398 1_455 S
C542 C543 1.391 1_455 S
C543 H531 0.950 1_655 S
C543 C539 1.393 . S
C543 C542 1.391 1_655 S
H544 C552 0.950 . S
H545 C557 0.950 . S
H546 C554 0.950 . S
H547 C556 0.950 . S
H548 C558 0.950 . S
H549 C560 0.950 . S
H550 C562 0.950 . S
H551 C563 0.950 . S
C552 H544 0.950 . S
C552 C553 1.386 . S
C552 C554 1.391 . S
C553 C552 1.386 . S
C553 C557 1.393 . S
C554 H546 0.950 . S
C554 C552 1.391 . S
C554 C555 1.400 . S
C555 C554 1.400 . S
C555 C556 1.398 . S
C555 C561 1.491 . S
C556 H547 0.950 . S
C556 C555 1.398 . S
C556 C557 1.391 . S
C557 H545 0.950 . S
C557 C553 1.393 . S
C557 C556 1.391 . S
C558 H548 0.950 . S
C558 C559 1.386 . S
C558 C560 1.391 . S
C559 C558 1.386 . S
C559 C563 1.393 . S
C560 H549 0.950 . S
C560 C558 1.391 . S
C560 C561 1.400 . S
C561 C555 1.491 . S
C561 C560 1.400 . S
C561 C562 1.398 . S
C562 H550 0.950 . S
C562 C561 1.398 . S
C562 C563 1.391 . S
C563 H551 0.950 . S
C563 C559 1.393 . S
C563 C562 1.391 . S
H564 C572 0.950 . S
H565 C577 0.950 . S
H566 C574 0.950 . S
H567 C576 0.950 . S
H568 C578 0.950 . S
H569 C580 0.950 . S
H570 C582 0.950 . S
H571 C583 0.950 . S
C572 H564 0.950 . S
C572 C573 1.386 . S
C572 C574 1.391 . S
C573 C572 1.386 . S
C573 C577 1.393 . S
C574 H566 0.950 . S
C574 C572 1.391 . S
C574 C575 1.400 . S
C575 C574 1.400 . S
C575 C576 1.398 . S
C575 C581 1.491 . S
C576 H567 0.950 . S
C576 C575 1.398 . S
C576 C577 1.391 . S
C577 H565 0.950 . S
C577 C573 1.393 . S
C577 C576 1.391 . S
C578 H568 0.950 . S
C578 C579 1.386 . S
C578 C580 1.391 . S
C579 C578 1.386 . S
C579 C583 1.393 . S
C580 H569 0.950 . S
C580 C578 1.391 . S
C580 C581 1.400 . S
C581 C575 1.491 . S
C581 C580 1.400 . S
C581 C582 1.398 . S
C582 H570 0.950 . S
C582 C581 1.398 . S
C582 C583 1.391 . S
C583 H571 0.950 . S
C583 C579 1.393 . S
C583 C582 1.391 . S
H584 C592 0.950 . S
H585 C597 0.950 . S
H586 C594 0.950 . S
H587 C596 0.950 . S
H588 C598 0.950 . S
H589 C600 0.950 . S
H590 C602 0.949 1_554 S
H591 C603 0.950 . S
C592 H584 0.950 . S
C592 C593 1.386 . S
C592 C594 1.391 . S
C593 C592 1.386 . S
C593 C597 1.393 . S
C594 H586 0.950 . S
C594 C592 1.391 . S
C594 C595 1.400 . S
C595 C594 1.400 . S
C595 C596 1.398 . S
C595 C601 1.491 . S
C596 H587 0.950 . S
C596 C595 1.398 . S
C596 C597 1.391 . S
C597 H585 0.950 . S
C597 C593 1.393 . S
C597 C596 1.391 . S
C598 H588 0.950 . S
C598 C599 1.386 . S
C598 C600 1.391 . S
C599 C598 1.386 . S
C599 C603 1.393 . S
C600 H589 0.950 . S
C600 C598 1.391 . S
C600 C601 1.400 1_556 S
C601 C595 1.491 . S
C601 C600 1.400 1_554 S
C601 C602 1.398 1_554 S
C602 H590 0.949 1_556 S
C602 C601 1.398 1_556 S
C602 C603 1.391 . S
C603 H591 0.950 . S
C603 C599 1.393 . S
C603 C602 1.391 . S
H604 C612 0.950 . S
H605 C617 0.950 . S
H606 C614 0.950 . S
H607 C616 0.950 . S
H608 C618 0.950 . S
H609 C620 0.950 . S
H610 C622 0.950 . S
H611 C623 0.950 . S
C612 H604 0.950 . S
C612 C613 1.386 . S
C612 C614 1.391 . S
C613 C612 1.386 . S
C613 C617 1.393 . S
C614 H606 0.950 . S
C614 C612 1.391 . S
C614 C615 1.400 . S
C615 C614 1.400 . S
C615 C616 1.398 . S
C615 C621 1.491 . S
C616 H607 0.950 . S
C616 C615 1.398 . S
C616 C617 1.391 . S
C617 H605 0.950 . S
C617 C613 1.393 . S
C617 C616 1.391 . S
C618 H608 0.950 . S
C618 C619 1.386 . S
C618 C620 1.391 . S
C619 C618 1.386 . S
C619 C623 1.393 . S
C620 H609 0.950 . S
C620 C618 1.391 . S
C620 C621 1.400 . S
C621 C615 1.491 . S
C621 C620 1.400 . S
C621 C622 1.398 . S
C622 H610 0.950 . S
C622 C621 1.398 . S
C622 C623 1.391 . S
C623 H611 0.950 . S
C623 C619 1.393 . S
C623 C622 1.391 . S
H624 C632 0.950 . S
H625 C637 0.950 . S
H626 C634 0.950 . S
H627 C636 0.950 . S
H628 C638 0.950 . S
H629 C640 0.950 . S
H630 C642 0.950 . S
H631 C643 0.950 . S
C632 H624 0.950 . S
C632 C633 1.386 . S
C632 C634 1.391 . S
C633 C632 1.386 . S
C633 C637 1.393 . S
C634 H626 0.950 . S
C634 C632 1.391 . S
C634 C635 1.400 . S
C635 C634 1.400 . S
C635 C636 1.398 . S
C635 C641 1.491 . S
C636 H627 0.950 . S
C636 C635 1.398 . S
C636 C637 1.391 . S
C637 H625 0.950 . S
C637 C633 1.393 . S
C637 C636 1.391 . S
C638 H628 0.950 . S
C638 C639 1.386 . S
C638 C640 1.391 . S
C639 C638 1.386 . S
C639 C643 1.393 . S
C640 H629 0.950 . S
C640 C638 1.391 . S
C640 C641 1.400 . S
C641 C635 1.491 . S
C641 C640 1.400 . S
C641 C642 1.398 . S
C642 H630 0.950 . S
C642 C641 1.398 . S
C642 C643 1.391 . S
C643 H631 0.950 . S
C643 C639 1.393 . S
C643 C642 1.391 . S
H644 C652 0.950 . S
H645 C657 0.950 . S
H646 C654 0.950 . S
H647 C656 0.950 . S
H648 C658 0.950 . S
H649 C660 0.950 . S
H650 C662 0.950 . S
H651 C663 0.950 . S
C652 H644 0.950 . S
C652 C653 1.386 . S
C652 C654 1.391 . S
C653 C652 1.386 . S
C653 C657 1.393 . S
C654 H646 0.950 . S
C654 C652 1.391 . S
C654 C655 1.400 . S
C655 C654 1.400 . S
C655 C656 1.398 . S
C655 C661 1.491 . S
C656 H647 0.950 . S
C656 C655 1.398 . S
C656 C657 1.391 . S
C657 H645 0.950 . S
C657 C653 1.393 . S
C657 C656 1.391 . S
C658 H648 0.950 . S
C658 C659 1.386 . S
C658 C660 1.391 . S
C659 C658 1.386 . S
C659 C663 1.393 . S
C660 H649 0.950 . S
C660 C658 1.391 . S
C660 C661 1.400 1_556 S
C661 C655 1.491 . S
C661 C660 1.400 1_554 S
C661 C662 1.398 1_554 S
C662 H650 0.950 . S
C662 C661 1.398 1_556 S
C662 C663 1.391 . S
C663 H651 0.950 . S
C663 C659 1.393 . S
C663 C662 1.391 . S
H664 C672 0.950 . S
H665 C677 0.950 . S
H666 C674 0.950 . S
H667 C676 0.950 . S
H668 C678 0.950 . S
H669 C680 0.950 . S
H670 C682 0.950 . S
H671 C683 0.950 . S
C672 H664 0.950 . S
C672 C673 1.386 . S
C672 C674 1.391 . S
C673 C672 1.386 . S
C673 C677 1.393 . S
C674 H666 0.950 . S
C674 C672 1.391 . S
C674 C675 1.400 . S
C675 C674 1.400 . S
C675 C676 1.398 . S
C675 C681 1.491 . S
C676 H667 0.950 . S
C676 C675 1.398 . S
C676 C677 1.391 . S
C677 H665 0.950 . S
C677 C673 1.393 . S
C677 C676 1.391 . S
C678 H668 0.950 . S
C678 C679 1.386 . S
C678 C680 1.391 . S
C679 C678 1.386 . S
C679 C683 1.393 . S
C680 H669 0.950 . S
C680 C678 1.391 . S
C680 C681 1.400 . S
C681 C675 1.491 . S
C681 C680 1.400 . S
C681 C682 1.398 . S
C682 H670 0.950 . S
C682 C681 1.398 . S
C682 C683 1.391 . S
C683 H671 0.950 . S
C683 C679 1.393 . S
C683 C682 1.391 . S
H684 C692 0.950 . S
H685 C697 0.950 . S
H686 C694 0.950 . S
H687 C696 0.950 . S
H688 C698 0.950 . S
H689 C700 0.950 . S
H690 C702 0.950 . S
H691 C703 0.950 . S
C692 H684 0.950 . S
C692 C693 1.386 . S
C692 C694 1.391 . S
C693 C692 1.386 . S
C693 C697 1.393 . S
C694 H686 0.950 . S
C694 C692 1.391 . S
C694 C695 1.400 . S
C695 C694 1.400 . S
C695 C696 1.398 . S
C695 C701 1.491 . S
C696 H687 0.950 . S
C696 C695 1.398 . S
C696 C697 1.391 . S
C697 H685 0.950 . S
C697 C693 1.393 . S
C697 C696 1.391 . S
C698 H688 0.950 . S
C698 C699 1.386 . S
C698 C700 1.391 . S
C699 C698 1.386 . S
C699 C703 1.393 . S
C700 H689 0.950 . S
C700 C698 1.391 . S
C700 C701 1.400 . S
C701 C695 1.491 . S
C701 C700 1.400 . S
C701 C702 1.398 . S
C702 H690 0.950 . S
C702 C701 1.398 . S
C702 C703 1.391 . S
C703 H691 0.950 . S
C703 C699 1.393 . S
C703 C702 1.391 . S
H704 C712 0.950 . S
H705 C717 0.950 . S
H706 C714 0.950 . S
H707 C716 0.950 1_554 S
H708 C718 0.950 . S
H709 C720 0.950 . S
H710 C722 0.950 . S
H711 C723 0.950 . S
C712 H704 0.950 . S
C712 C713 1.386 . S
C712 C714 1.391 . S
C713 C712 1.386 . S
C713 C717 1.393 . S
C714 H706 0.950 . S
C714 C712 1.391 . S
C714 C715 1.400 1_556 S
C715 C714 1.400 1_554 S
C715 C716 1.398 1_554 S
C715 C721 1.491 . S
C716 H707 0.950 1_556 S
C716 C715 1.398 1_556 S
C716 C717 1.391 . S
C717 H705 0.950 . S
C717 C713 1.393 . S
C717 C716 1.391 . S
C718 H708 0.950 . S
C718 C719 1.386 . S
C718 C720 1.391 . S
C719 C718 1.386 . S
C719 C723 1.393 . S
C720 H709 0.950 . S
C720 C718 1.391 . S
C720 C721 1.400 . S
C721 C715 1.491 . S
C721 C720 1.400 . S
C721 C722 1.398 . S
C722 H710 0.950 . S
C722 C721 1.398 . S
C722 C723 1.391 . S
C723 H711 0.950 . S
C723 C719 1.393 . S
C723 C722 1.391 . S
H724 C732 0.950 . S
H725 C737 0.950 . S
H726 C734 0.950 . S
H727 C736 0.950 . S
H728 C738 0.950 . S
H729 C740 0.950 . S
H730 C742 0.950 . S
H731 C743 0.950 . S
C732 H724 0.950 . S
C732 C733 1.386 . S
C732 C734 1.391 . S
C733 C732 1.386 . S
C733 C737 1.393 . S
C734 H726 0.950 . S
C734 C732 1.391 . S
C734 C735 1.400 . S
C735 C734 1.400 . S
C735 C736 1.398 . S
C735 C741 1.491 . S
C736 H727 0.950 . S
C736 C735 1.398 . S
C736 C737 1.391 . S
C737 H725 0.950 . S
C737 C733 1.393 . S
C737 C736 1.391 . S
C738 H728 0.950 . S
C738 C739 1.386 . S
C738 C740 1.391 . S
C739 C738 1.386 . S
C739 C743 1.393 . S
C740 H729 0.950 . S
C740 C738 1.391 . S
C740 C741 1.400 . S
C741 C735 1.491 . S
C741 C740 1.400 . S
C741 C742 1.398 . S
C742 H730 0.950 . S
C742 C741 1.398 . S
C742 C743 1.391 . S
C743 H731 0.950 . S
C743 C739 1.393 . S
C743 C742 1.391 . S
H744 C752 0.950 . S
H745 C757 0.950 . S
H746 C754 0.950 . S
H747 C756 0.950 . S
H748 C758 0.950 . S
H749 C760 0.950 . S
H750 C762 0.950 . S
H751 C763 0.950 . S
C752 H744 0.950 . S
C752 C753 1.386 . S
C752 C754 1.391 . S
C753 C752 1.386 . S
C753 C757 1.393 . S
C754 H746 0.950 . S
C754 C752 1.391 . S
C754 C755 1.400 . S
C755 C754 1.400 . S
C755 C756 1.398 . S
C755 C761 1.491 . S
C756 H747 0.950 . S
C756 C755 1.398 . S
C756 C757 1.391 . S
C757 H745 0.950 . S
C757 C753 1.393 . S
C757 C756 1.391 . S
C758 H748 0.950 . S
C758 C759 1.386 . S
C758 C760 1.391 . S
C759 C758 1.386 . S
C759 C763 1.393 . S
C760 H749 0.950 . S
C760 C758 1.391 . S
C760 C761 1.400 . S
C761 C755 1.491 . S
C761 C760 1.400 . S
C761 C762 1.398 . S
C762 H750 0.950 . S
C762 C761 1.398 . S
C762 C763 1.391 . S
C763 H751 0.950 . S
C763 C759 1.393 . S
C763 C762 1.391 . S
H764 C772 0.950 . S
H765 C777 0.950 . S
H766 C774 0.950 . S
H767 C776 0.950 . S
H768 C778 0.950 . S
H769 C780 0.950 . S
H770 C782 0.950 . S
H771 C783 0.950 . S
C772 H764 0.950 . S
C772 C773 1.386 . S
C772 C774 1.391 . S
C773 C772 1.386 . S
C773 C777 1.393 . S
C774 H766 0.950 . S
C774 C772 1.391 . S
C774 C775 1.400 . S
C775 C774 1.400 . S
C775 C776 1.398 . S
C775 C781 1.491 . S
C776 H767 0.950 . S
C776 C775 1.398 . S
C776 C777 1.391 . S
C777 H765 0.950 . S
C777 C773 1.393 . S
C777 C776 1.391 . S
C778 H768 0.950 . S
C778 C779 1.386 . S
C778 C780 1.391 . S
C779 C778 1.386 . S
C779 C783 1.393 . S
C780 H769 0.950 . S
C780 C778 1.391 . S
C780 C781 1.400 . S
C781 C775 1.491 . S
C781 C780 1.400 . S
C781 C782 1.398 . S
C782 H770 0.950 . S
C782 C781 1.398 . S
C782 C783 1.391 . S
C783 H771 0.950 . S
C783 C779 1.393 . S
C783 C782 1.391 . S
H784 C792 0.950 . S
H785 C797 0.950 . S
H786 C794 0.950 . S
H787 C796 0.950 . S
H788 C798 0.950 . S
H789 C800 0.950 . S
H790 C802 0.950 . S
H791 C803 0.950 . S
C792 H784 0.950 . S
C792 C793 1.386 . S
C792 C794 1.391 . S
C793 C792 1.386 . S
C793 C797 1.393 . S
C794 H786 0.950 . S
C794 C792 1.391 . S
C794 C795 1.400 . S
C795 C794 1.400 . S
C795 C796 1.398 . S
C795 C801 1.491 . S
C796 H787 0.950 . S
C796 C795 1.398 . S
C796 C797 1.391 . S
C797 H785 0.950 . S
C797 C793 1.393 . S
C797 C796 1.391 . S
C798 H788 0.950 . S
C798 C799 1.386 . S
C798 C800 1.391 . S
C799 C798 1.386 . S
C799 C803 1.393 . S
C800 H789 0.950 . S
C800 C798 1.391 . S
C800 C801 1.400 . S
C801 C795 1.491 . S
C801 C800 1.400 . S
C801 C802 1.398 . S
C802 H790 0.950 . S
C802 C801 1.398 . S
C802 C803 1.391 . S
C803 H791 0.950 . S
C803 C799 1.393 . S
C803 C802 1.391 . S
H804 C812 0.950 . S
H805 C817 0.950 . S
H806 C814 0.950 . S
H807 C816 0.950 . S
H808 C818 0.950 . S
H809 C820 0.950 . S
H810 C822 0.950 . S
H811 C823 0.950 . S
C812 H804 0.950 . S
C812 C813 1.386 . S
C812 C814 1.391 . S
C813 C812 1.386 . S
C813 C817 1.393 . S
C814 H806 0.950 . S
C814 C812 1.391 . S
C814 C815 1.400 . S
C815 C814 1.400 . S
C815 C816 1.398 . S
C815 C821 1.491 . S
C816 H807 0.950 . S
C816 C815 1.398 . S
C816 C817 1.391 . S
C817 H805 0.950 . S
C817 C813 1.393 . S
C817 C816 1.391 . S
C818 H808 0.950 . S
C818 C819 1.386 . S
C818 C820 1.391 . S
C819 C818 1.386 . S
C819 C823 1.393 . S
C820 H809 0.950 . S
C820 C818 1.391 . S
C820 C821 1.400 . S
C821 C815 1.491 . S
C821 C820 1.400 . S
C821 C822 1.398 . S
C822 H810 0.950 . S
C822 C821 1.398 . S
C822 C823 1.391 . S
C823 H811 0.950 . S
C823 C819 1.393 . S
C823 C822 1.391 . S
H824 C832 0.950 . S
H825 C837 0.950 . S
H826 C834 0.950 . S
H827 C836 0.950 . S
H828 C838 0.950 . S
H829 C840 0.950 . S
H830 C842 0.950 . S
H831 C843 0.950 . S
C832 H824 0.950 . S
C832 C833 1.386 . S
C832 C834 1.391 . S
C833 C832 1.386 . S
C833 C837 1.393 . S
C834 H826 0.950 . S
C834 C832 1.391 . S
C834 C835 1.400 . S
C835 C834 1.400 . S
C835 C836 1.398 . S
C835 C841 1.491 . S
C836 H827 0.950 . S
C836 C835 1.398 . S
C836 C837 1.391 . S
C837 H825 0.950 . S
C837 C833 1.393 . S
C837 C836 1.391 . S
C838 H828 0.950 . S
C838 C839 1.386 . S
C838 C840 1.391 . S
C839 C838 1.386 . S
C839 C843 1.393 . S
C840 H829 0.950 . S
C840 C838 1.391 . S
C840 C841 1.400 . S
C841 C835 1.491 . S
C841 C840 1.400 . S
C841 C842 1.398 . S
C842 H830 0.950 . S
C842 C841 1.398 . S
C842 C843 1.391 . S
C843 H831 0.950 . S
C843 C839 1.393 . S
C843 C842 1.391 . S
H844 C852 0.950 . S
H845 C857 0.950 . S
H846 C854 0.950 . S
H847 C856 0.950 . S
H848 C858 0.950 . S
H849 C860 0.950 1_554 S
H850 C862 0.950 . S
H851 C863 0.950 . S
C852 H844 0.950 . S
C852 C853 1.386 . S
C852 C854 1.391 . S
C853 C852 1.386 . S
C853 C857 1.393 . S
C854 H846 0.950 . S
C854 C852 1.391 . S
C854 C855 1.400 . S
C855 C854 1.400 . S
C855 C856 1.398 . S
C855 C861 1.491 . S
C856 H847 0.950 . S
C856 C855 1.398 . S
C856 C857 1.391 . S
C857 H845 0.950 . S
C857 C853 1.393 . S
C857 C856 1.391 . S
C858 H848 0.950 . S
C858 C859 1.386 . S
C858 C860 1.391 . S
C859 C858 1.386 . S
C859 C863 1.393 . S
C860 H849 0.950 1_556 S
C860 C858 1.391 . S
C860 C861 1.400 1_556 S
C861 C855 1.491 . S
C861 C860 1.400 1_554 S
C861 C862 1.398 1_554 S
C862 H850 0.950 . S
C862 C861 1.398 1_556 S
C862 C863 1.391 . S
C863 H851 0.950 . S
C863 C859 1.393 . S
C863 C862 1.391 . S
C233 C95 1.467 . S
C239 C11 1.467 . S
C253 C109 1.487 . S
C259 C25 1.488 . S
C273 C39 1.480 . S
C279 C67 1.482 . S
C293 C53 1.487 . S
C299 C81 1.488 . S
C313 C123 1.485 . S
C319 C207 1.483 . S
C333 C221 1.488 . S
C339 C137 1.488 . S
C353 C151 1.477 . S
C359 C179 1.475 . S
C373 C165 1.485 . S
C379 C193 1.484 . S
C393 C5 1.417 . S
C399 C145 1.414 . S
C413 C19 1.424 . S
C419 C159 1.426 . S
C433 C33 1.413 . S
C439 C117 1.415 . S
C453 C47 1.429 . S
C459 C131 1.427 . S
C473 C61 1.427 . S
C479 C201 1.425 . S
C493 C215 1.429 . S
C499 C75 1.428 . S
C513 C89 1.423 . S
C519 C173 1.420 . S
C533 C187 1.427 . S
C539 C103 1.424 . S
C553 C191 0.528 . S
C559 C9 0.520 . S
C573 C23 0.527 . S
C579 C205 0.531 . S
C593 C219 0.454 . S
C599 C37 0.471 . S
C613 C177 0.473 . S
C619 C51 0.491 . S
C633 C163 0.453 . S
C639 C65 0.442 . S
C653 C79 0.448 . S
C659 C121 0.462 . S
C673 C93 0.501 . S
C679 C135 0.483 . S
C693 C107 0.523 . S
C699 C149 0.530 . S
C713 C182 1.504 . S
C719 C0 1.492 . S
C733 C14 1.491 . S
C739 C196 1.505 . S
C753 C28 1.498 . S
C759 C210 1.498 . S
C773 C168 1.491 . S
C779 C42 1.505 . S
C793 C154 1.505 . S
C799 C56 1.490 . S
C813 C112 1.505 . S
C819 C70 1.491 . S
C833 C84 1.498 . S
C839 C126 1.498 . S
C853 C140 1.491 . S
C859 C98 1.505 . S
