# Generated by pormake.
# Topology smd, (6)-cn, num edge types: 1
# Building blocks:
#     Node 0, Type 0, BuildingBlock: INOVEN_clean_sbu_0, # of connection points: 6
#     Node 1, Type 0, BuildingBlock: INOVEN_clean_sbu_0, # of connection points: 6
#     Node 2, Type 0, BuildingBlock: INOVEN_clean_sbu_0, # of connection points: 6
#     Node 3, Type 0, BuildingBlock: INOVEN_clean_sbu_0, # of connection points: 6
#     Node 4, Type 0, BuildingBlock: INOVEN_clean_sbu_0, # of connection points: 6
#     Node 5, Type 0, BuildingBlock: INOVEN_clean_sbu_0, # of connection points: 6
#     Node 6, Type 0, BuildingBlock: INOVEN_clean_sbu_0, # of connection points: 6
#     Node 7, Type 0, BuildingBlock: INOVEN_clean_sbu_0, # of connection points: 6
#     Node 8, Type 0, BuildingBlock: INOVEN_clean_sbu_0, # of connection points: 6
#     Node 9, Type 0, BuildingBlock: INOVEN_clean_sbu_0, # of connection points: 6
#     Node 10, Type 0, BuildingBlock: INOVEN_clean_sbu_0, # of connection points: 6
#     Node 11, Type 0, BuildingBlock: INOVEN_clean_sbu_0, # of connection points: 6
#     Node 12, Type 0, BuildingBlock: INOVEN_clean_sbu_0, # of connection points: 6
#     Node 13, Type 0, BuildingBlock: INOVEN_clean_sbu_0, # of connection points: 6
#     Node 14, Type 0, BuildingBlock: INOVEN_clean_sbu_0, # of connection points: 6
#     Node 15, Type 0, BuildingBlock: INOVEN_clean_sbu_0, # of connection points: 6
#     Node 16, Type 0, BuildingBlock: INOVEN_clean_sbu_0, # of connection points: 6
#     Node 17, Type 0, BuildingBlock: INOVEN_clean_sbu_0, # of connection points: 6
#     Edge 18, Type (0, 0), None
#     Edge 19, Type (0, 0), None
#     Edge 20, Type (0, 0), None
#     Edge 21, Type (0, 0), None
#     Edge 22, Type (0, 0), None
#     Edge 23, Type (0, 0), None
#     Edge 24, Type (0, 0), None
#     Edge 25, Type (0, 0), None
#     Edge 26, Type (0, 0), None
#     Edge 27, Type (0, 0), None
#     Edge 28, Type (0, 0), None
#     Edge 29, Type (0, 0), None
#     Edge 30, Type (0, 0), None
#     Edge 31, Type (0, 0), None
#     Edge 32, Type (0, 0), None
#     Edge 33, Type (0, 0), None
#     Edge 34, Type (0, 0), None
#     Edge 35, Type (0, 0), None
#     Edge 36, Type (0, 0), None
#     Edge 37, Type (0, 0), None
#     Edge 38, Type (0, 0), None
#     Edge 39, Type (0, 0), None
#     Edge 40, Type (0, 0), None
#     Edge 41, Type (0, 0), None
#     Edge 42, Type (0, 0), None
#     Edge 43, Type (0, 0), None
#     Edge 44, Type (0, 0), None
#     Edge 45, Type (0, 0), None
#     Edge 46, Type (0, 0), None
#     Edge 47, Type (0, 0), None
#     Edge 48, Type (0, 0), None
#     Edge 49, Type (0, 0), None
#     Edge 50, Type (0, 0), None
#     Edge 51, Type (0, 0), None
#     Edge 52, Type (0, 0), None
#     Edge 53, Type (0, 0), None
#     Edge 54, Type (0, 0), None
#     Edge 55, Type (0, 0), None
#     Edge 56, Type (0, 0), None
#     Edge 57, Type (0, 0), None
#     Edge 58, Type (0, 0), None
#     Edge 59, Type (0, 0), None
#     Edge 60, Type (0, 0), None
#     Edge 61, Type (0, 0), None
#     Edge 62, Type (0, 0), None
#     Edge 63, Type (0, 0), None
#     Edge 64, Type (0, 0), None
#     Edge 65, Type (0, 0), None
#     Edge 66, Type (0, 0), None
#     Edge 67, Type (0, 0), None
#     Edge 68, Type (0, 0), None
#     Edge 69, Type (0, 0), None
#     Edge 70, Type (0, 0), None
#     Edge 71, Type (0, 0), None
# Relax obj value: 0.373
# Max RMSD: 0.451
# Mean RMSD: 0.423
data_MOF--net-smd--node1-INOVEN_clean_sbu_0--edge1-none
_symmetry_space_group_name_H-M    P1
_symmetry_Int_Tables_number       1
_symmetry_cell_setting            triclinic
loop_
_symmetry_equiv_pos_as_xyz
'x, y, z'
_cell_length_a     28.824548
_cell_length_b     29.353001
_cell_length_c     15.343554
_cell_angle_alpha  92.63534
_cell_angle_beta   92.840196
_cell_angle_gamma 119.77215
loop_
_atom_site_label
_atom_site_type_symbol
_atom_site_fract_x
_atom_site_fract_y
_atom_site_fract_z
_atom_type_partial_charge
Gd0 Gd 0.02126 0.25663 0.64229 0.0
Gd1 Gd 0.96268 0.23241 0.51773 0.0
C2 C 0.91962 0.13799 0.6227 0.0
C3 C 0.06841 0.28658 0.80071 0.0
C4 C 0.04328 0.26641 0.88375 0.0
C5 C 0.07379 0.27834 0.9642 0.0
C6 C 0.98769 0.23267 0.88223 0.0
C7 C -0.00731 0.22671 1.04024 0.0
C8 C 0.9628 0.21271 0.95843 0.0
C9 C 0.04896 0.25899 1.04137 0.0
C10 C 0.05617 0.20359 0.54015 0.0
C11 C 0.06464 0.32438 0.45965 0.0
C12 C 0.90425 0.21484 0.37505 0.0
C13 C 0.92183 0.20781 0.28806 0.0
C14 C 0.89294 0.20461 0.21022 0.0
C15 C 0.96981 0.20647 0.28216 0.0
C16 C 0.96523 0.21204 0.12396 0.0
C17 C -0.008 0.21005 0.20171 0.0
C18 C 0.91305 0.20413 0.12913 0.0
C19 C 0.92436 0.26013 0.70175 0.0
O20 O 0.94706 0.17858 0.68065 0.0
O21 O 0.92815 0.14833 0.5421 0.0
O22 O 0.0724 0.25297 0.74834 0.0
O23 O 0.05095 0.31289 0.75743 0.0
O24 O 0.03753 0.18988 0.61525 0.0
O25 O 0.04269 0.23612 0.51577 0.0
O26 O 0.02111 0.28374 0.42753 0.0
O27 O 0.07375 0.3269 0.54823 0.0
O28 O 0.93305 0.2621 0.41456 0.0
O29 O 0.89442 0.17804 0.42845 0.0
O30 O 0.95662 0.27846 0.63785 0.0
O31 O 0.95523 0.27597 0.63787 0.0
H32 H 0.11696 0.3023 0.96782 0.0
H33 H 0.96289 0.22172 0.82208 0.0
H34 H 0.91987 0.18648 0.95229 0.0
H35 H 0.07415 0.27105 0.10215 0.0
H36 H 0.85547 0.20401 0.21179 0.0
H37 H -0.00933 0.20319 0.33988 0.0
H38 H 0.0303 0.21166 0.20102 0.0
H39 H 0.88867 0.20127 1.0712 0.0
Gd40 Gd 0.77611 0.751 0.54552 0.0
Gd41 Gd 0.74919 0.77357 0.64896 0.0
C42 C 0.8023 0.87474 0.57387 0.0
C43 C 0.793 0.73849 0.38428 0.0
C44 C 0.78352 0.75782 0.3011 0.0
C45 C 0.81503 0.81103 0.28304 0.0
C46 C 0.7437 0.72254 0.23719 0.0
C47 C 0.77003 0.79131 0.13694 0.0
C48 C 0.73808 0.73888 0.15545 0.0
C49 C 0.80836 0.82764 0.20136 0.0
C50 C 0.86487 0.77395 0.64452 0.0
C51 C 0.74253 0.67709 0.71986 0.0
C52 C 0.70421 0.78717 0.78011 0.0
C53 C 0.727 0.79949 0.87221 0.0
C54 C 0.69829 0.80465 0.93878 0.0
C55 C 0.77697 0.80355 0.89506 0.0
C56 C 0.76238 0.80601 1.04904 0.0
C57 C 0.79377 0.80519 0.98287 0.0
C58 C 0.71669 0.80964 1.02667 0.0
C59 C 0.68668 0.76319 0.45825 0.0
O60 O 0.79222 0.83671 0.51317 0.0
O61 O 0.79593 0.85955 0.6515 0.0
O62 O 0.82943 0.7737 0.44157 0.0
O63 O 0.75102 0.704 0.42069 0.0
O64 O 0.83903 0.73237 0.59082 0.0
O65 O 0.83937 0.79958 0.65283 0.0
O66 O 0.75643 0.72371 0.74977 0.0
O67 O 0.7409 0.67356 0.63114 0.0
O68 O 0.69308 0.74057 0.74764 0.0
O69 O 0.7284 0.82384 0.72626 0.0
O70 O 0.69252 0.73617 0.52094 0.0
O71 O 0.69371 0.73797 0.52114 0.0
H72 H 0.84568 0.83968 0.33113 0.0
H73 H 0.71703 0.68211 0.24969 0.0
H74 H 0.7093 0.71037 0.10539 0.0
H75 H 0.83337 0.86842 0.18819 0.0
H76 H 0.66143 0.80398 0.92251 0.0
H77 H 0.80225 0.80368 0.84526 0.0
H78 H 0.82972 0.80315 0.99878 0.0
H79 H 0.69386 0.81352 1.07739 0.0
Gd80 Gd 0.2198 0.98161 0.62639 0.0
Gd81 Gd 0.25647 0.03347 0.52779 0.0
C82 C 0.18937 0.06926 0.60308 0.0
C83 C 0.1958 0.93743 0.7723 0.0
C84 C 0.20008 0.96179 0.86084 0.0
C85 C 0.15951 0.93657 0.91661 0.0
C86 C 0.24093 0.01308 0.88637 0.0
C87 C 0.20824 0.00755 1.03053 0.0
C88 C 0.24554 0.0359 0.97057 0.0
C89 C 0.1639 0.95829 1.00148 0.0
C90 C 0.13094 0.93357 0.51949 0.0
C91 C 0.26395 0.9454 0.44377 0.0
C92 C 0.27927 0.08498 0.39014 0.0
C93 C 0.25332 0.0651 0.30052 0.0
C94 C 0.25596 0.09939 0.23795 0.0
C95 C 0.22695 0.0109 0.27602 0.0
C96 C 0.21793 0.02707 0.12415 0.0
C97 C 0.21001 0.99206 0.18871 0.0
C98 C 0.23927 0.08081 0.14999 0.0
C99 C 0.32293 0.08011 0.69391 0.0
O100 O 0.21205 0.05456 0.66293 0.0
O101 O 0.1887 0.04964 0.52621 0.0
O102 O 0.16148 0.93957 0.71818 0.0
O103 O 0.24011 0.94917 0.73659 0.0
O104 O 0.13545 0.96211 0.58941 0.0
O105 O 0.17903 0.94807 0.49954 0.0
O106 O 0.29123 -0.00419 0.44494 0.0
O107 O 0.23238 0.92814 0.51177 0.0
O108 O 0.30651 0.06352 0.42075 0.0
O109 O 0.24953 0.08941 0.44742 0.0
O110 O 0.30754 0.10271 0.63789 0.0
O111 O 0.30559 0.03472 0.65629 0.0
H112 H 0.12398 0.90081 0.89363 0.0
H113 H 0.26818 0.03544 0.84002 0.0
H114 H 0.27891 0.075 0.98905 0.0
H115 H 0.13271 0.93656 1.04427 0.0
H116 H 0.27367 0.14093 0.2561 0.0
H117 H 0.22082 0.98302 0.32377 0.0
H118 H 0.19323 0.95033 0.17144 0.0
H119 H 0.24444 0.10863 0.10211 0.0
Gd120 Gd 0.02959 0.78779 0.64058 0.0
Gd121 Gd 0.97558 0.76815 0.53441 0.0
C122 C 0.9392 0.68547 0.69162 0.0
C123 C 0.07682 0.80549 0.79648 0.0
C124 C 0.05275 0.80016 0.88264 0.0
C125 C 0.0839 0.81179 0.96271 0.0
C126 C -0.00222 0.78314 0.88571 0.0
C127 C 0.00524 0.78424 1.04493 0.0
C128 C 0.97422 0.77501 0.96566 0.0
C129 C 0.06051 0.80364 1.04249 0.0
C130 C 0.06637 0.76631 0.45005 0.0
C131 C 0.09203 0.87681 0.53097 0.0
C132 C 0.92084 0.75408 0.38636 0.0
C133 C 0.93861 0.75798 0.29648 0.0
C134 C 0.92593 0.78537 0.23581 0.0
C135 C 0.97151 0.73765 0.2723 0.0
C136 C 0.9806 0.77387 0.13023 0.0
C137 C -0.00744 0.74581 0.19058 0.0
C138 C 0.94611 0.79269 0.15305 0.0
C139 C 0.92009 0.79124 0.68687 0.0
O140 O 0.98738 0.71978 0.71764 0.0
O141 O 0.92225 0.6922 0.61255 0.0
O142 O 0.05984 0.76146 0.74806 0.0
O143 O 0.07967 0.84306 0.74991 0.0
O144 O 0.04001 0.74492 0.51958 0.0
O145 O 0.04082 0.74755 0.51912 0.0
O146 O 0.04435 0.84763 0.48747 0.0
O147 O 0.09858 0.86011 0.60444 0.0
O148 O 0.94423 0.79829 0.43448 0.0
O149 O 0.91758 0.71565 0.43013 0.0
O150 O 0.96339 0.81157 0.64477 0.0
O151 O 0.96279 0.81009 0.64354 0.0
H152 H 0.12681 0.82892 0.96483 0.0
H153 H 0.97269 0.77586 0.82634 0.0
H154 H 0.93156 0.76061 0.96532 0.0
H155 H 0.08593 0.81309 0.10268 0.0
H156 H 0.9014 0.8021 0.25311 0.0
H157 H 0.98036 0.71481 0.31633 0.0
H158 H 0.01765 0.72949 0.17399 0.0
H159 H 0.93619 0.81457 0.10811 0.0
Gd160 Gd 0.22999 0.22173 0.55265 0.0
Gd161 Gd 0.20238 0.23122 0.59835 0.0
C162 C 0.25292 0.30672 0.44611 0.0
C163 C 0.24126 0.19058 0.39606 0.0
C164 C 0.23006 0.19914 0.30412 0.0
C165 C 0.2689 0.24074 0.26107 0.0
C166 C 0.18104 0.1634 0.2565 0.0
C167 C 0.21125 0.20971 0.12497 0.0
C168 C 0.1715 0.16905 0.16832 0.0
C169 C 0.2601 0.24547 0.17216 0.0
C170 C 0.30295 0.26213 0.703 0.0
C171 C 0.19851 0.12286 0.60882 0.0
C172 C 0.16878 0.22063 0.75551 0.0
C173 C 0.18275 0.22102 0.84998 0.0
C174 C 0.14838 0.22202 0.91048 0.0
C175 C 0.22516 0.21362 0.88016 0.0
C176 C 0.20186 0.21431 1.03054 0.0
C177 C 0.23519 0.21118 0.96969 0.0
C178 C 0.1579 0.21912 0.99995 0.0
C179 C 0.1133 0.21956 0.53658 0.0
O180 O 0.28349 0.30301 0.50592 0.0
O181 O 0.20448 0.27092 0.46053 0.0
O182 O 0.2802 0.22931 0.44526 0.0
O183 O 0.1996 0.16413 0.43892 0.0
O184 O 0.27834 0.21371 0.67004 0.0
O185 O 0.28545 0.28609 0.65667 0.0
O186 O 0.16492 0.13827 0.58453 0.0
O187 O 0.24619 0.16183 0.61176 0.0
O188 O 0.16711 0.18298 0.7053 0.0
O189 O 0.18802 0.26478 0.71778 0.0
O190 O 0.1499 0.2656 0.5724 0.0
O191 O 0.13226 0.18861 0.52792 0.0
H192 H 0.30631 0.26956 0.29604 0.0
H193 H 0.15019 0.13046 0.28698 0.0
H194 H 0.13356 0.14076 0.13327 0.0
H195 H 0.29141 0.27728 0.14048 0.0
H196 H 0.11321 0.22344 0.88762 0.0
H197 H 0.24901 0.20727 0.83467 0.0
H198 H 0.26751 0.2045 0.991 0.0
H199 H 0.13068 0.22012 1.04518 0.0
Gd200 Gd 0.75516 0.9848 0.63168 0.0
Gd201 Gd 0.78781 0.02268 0.5404 0.0
C202 C 0.7405 0.06507 0.71376 0.0
C203 C 0.74174 0.94287 0.77763 0.0
C204 C 0.77217 0.96556 0.86331 0.0
C205 C 0.78603 0.93558 0.91526 0.0
C206 C 0.78543 0.01628 0.89608 0.0
C207 C 0.80967 -0.00065 1.03864 0.0
C208 C 0.80386 0.03313 0.98342 0.0
C209 C 0.80301 0.95137 1.00368 0.0
C210 C 0.67933 0.93618 0.47622 0.0
C211 C 0.80929 0.92894 0.56344 0.0
C212 C 0.81435 0.06644 0.39437 0.0
C213 C 0.81403 0.04612 0.30534 0.0
C214 C 0.85924 0.07375 0.25904 0.0
C215 C 0.77131 -0.00177 0.26794 0.0
C216 C 0.81503 0.01156 0.13317 0.0
C217 C 0.77195 0.98078 0.18224 0.0
C218 C 0.85925 0.05768 0.17236 0.0
C219 C 0.87844 0.08259 0.64022 0.0
O220 O 0.71265 0.01486 0.71203 0.0
O221 O 0.77496 0.08029 0.6494 0.0
O222 O 0.71265 0.96264 0.74823 0.0
O223 O 0.767 0.9339 0.71738 0.0
O224 O 0.69492 0.91313 0.53106 0.0
O225 O 0.7022 0.98302 0.50814 0.0
O226 O 0.78707 0.9428 0.5018 0.0
O227 O 0.81573 0.95721 0.63451 0.0
O228 O 0.84739 0.06338 0.44992 0.0
O229 O 0.76868 0.053 0.42599 0.0
O230 O 0.87347 0.04696 0.58145 0.0
O231 O 0.83086 0.071 0.65705 0.0
H232 H 0.78147 0.89923 0.88803 0.0
H233 H 0.77998 0.04223 0.85541 0.0
H234 H 0.8101 0.07098 1.00904 0.0
H235 H 0.80907 0.9256 1.0452 0.0
H236 H 0.89434 0.10772 0.29031 0.0
H237 H 0.73776 0.97459 0.30474 0.0
H238 H 0.73792 0.94452 0.15305 0.0
H239 H 0.8932 0.08145 0.13565 0.0
Gd240 Gd 0.63519 0.55051 0.8587 0.0
Gd241 Gd 0.68943 0.57139 0.97117 0.0
C242 C 0.72848 0.51828 0.85447 0.0
C243 C 0.58486 0.5382 0.70414 0.0
C244 C 0.60589 0.53959 0.61617 0.0
C245 C 0.57474 0.531 0.53708 0.0
C246 C 0.65742 0.54643 0.61076 0.0
C247 C 0.6487 0.54156 0.45157 0.0
C248 C 0.67876 0.54802 0.53048 0.0
C249 C 0.59565 0.5313 0.45564 0.0
C250 C 0.58897 0.46045 0.95036 0.0
C251 C 0.60339 0.58664 1.04897 0.0
C252 C 0.74487 0.60118 0.12027 0.0
C253 C 0.72313 0.58177 0.2062 0.0
C254 C 0.74738 0.61316 0.28444 0.0
C255 C 0.67528 0.53331 0.21046 0.0
C256 C 0.67514 0.55185 0.36738 0.0
C257 C 0.65034 0.51959 0.2894 0.0
C258 C 0.72564 0.59678 0.36429 0.0
C259 C 0.72974 0.63263 0.78478 0.0
O260 O 0.70421 0.53812 0.80905 0.0
O261 O 0.71366 0.51227 0.93294 0.0
O262 O 0.58021 0.50013 0.74894 0.0
O263 O 0.60662 0.58195 0.7542 0.0
O264 O 0.60557 0.46286 0.87304 0.0
O265 O 0.60504 0.50733 0.97641 0.0
O266 O 0.63196 0.56609 1.07019 0.0
O267 O 0.60281 0.59238 0.96191 0.0
O268 O 0.72766 0.62977 0.0828 0.0
O269 O 0.74538 0.56645 1.06413 0.0
O270 O 0.71044 0.63213 0.86317 0.0
O271 O 0.71047 0.62927 0.86119 0.0
H272 H 0.53457 0.5245 0.53756 0.0
H273 H 0.68196 0.55107 0.66857 0.0
H274 H 0.71936 0.555 0.53035 0.0
H275 H 0.57108 0.52556 0.39594 0.0
H276 H 0.78245 0.65144 0.28417 0.0
H277 H 0.65581 0.507 0.15201 0.0
H278 H 0.612 0.48378 0.28955 0.0
H279 H 0.74726 0.62085 0.42373 0.0
Gd280 Gd 0.44961 0.0923 0.85827 0.0
Gd281 Gd 0.42801 0.12319 0.97045 0.0
C282 C 0.47642 0.21542 0.86743 0.0
C283 C 0.45854 0.05579 0.70516 0.0
C284 C 0.45768 0.07747 0.61941 0.0
C285 C 0.47098 0.06001 0.54324 0.0
C286 C 0.44664 0.11877 0.61435 0.0
C287 C 0.45949 0.12282 0.45838 0.0
C288 C 0.44777 0.14133 0.53567 0.0
C289 C 0.47234 0.08253 0.46381 0.0
C290 C 0.54417 0.13738 0.96026 0.0
C291 C 0.41789 0.02561 1.04434 0.0
C292 C 0.39748 0.14957 0.10879 0.0
C293 C 0.42053 0.15357 0.19995 0.0
C294 C 0.39276 0.15447 0.27102 0.0
C295 C 0.4679 0.15136 0.2169 0.0
C296 C 0.45167 0.14058 0.37155 0.0
C297 C 0.48229 0.14305 0.30124 0.0
C298 C 0.40935 0.15066 0.35587 0.0
C299 C 0.35792 0.10743 0.78352 0.0
O300 O 0.45855 0.17227 0.81527 0.0
O301 O 0.48301 0.20742 0.94789 0.0
O302 O 0.49888 0.08663 0.76023 0.0
O303 O 0.41423 0.03472 0.74392 0.0
O304 O 0.5376 0.15354 0.88612 0.0
O305 O 0.49769 0.10776 0.98342 0.0
O306 O 0.43082 0.07236 1.0723 0.0
O307 O 0.41668 0.01983 0.95546 0.0
O308 O 0.37105 0.10186 1.07002 0.0
O309 O 0.42941 0.1839 1.05721 0.0
O310 O 0.36728 0.0827 0.8469 0.0
O311 O 0.36869 0.08497 0.84686 0.0
H312 H 0.47923 0.02823 0.54436 0.0
H313 H 0.4365 0.13355 0.67095 0.0
H314 H 0.43876 0.17301 0.53562 0.0
H315 H 0.48126 0.06674 0.40596 0.0
H316 H 0.3573 0.15681 0.26114 0.0
H317 H 0.49247 0.15354 0.16441 0.0
H318 H 0.51678 0.13783 0.31098 0.0
H319 H 0.38659 0.15241 0.40833 0.0
Gd320 Gd 0.898 0.3616 0.87544 0.0
Gd321 Gd 0.89108 0.32803 0.96544 0.0
C322 C 0.77976 0.27212 0.88719 0.0
C323 C 0.92548 0.40941 0.73405 0.0
C324 C 0.91385 0.39034 0.64228 0.0
C325 C 0.93036 0.42712 0.58065 0.0
C326 C 0.88001 0.33682 0.61597 0.0
C327 C 0.88433 0.35732 0.46424 0.0
C328 C 0.86631 0.32018 0.52726 0.0
C329 C 0.91545 0.41122 0.49224 0.0
C330 C 0.87168 0.42542 0.96475 0.0
C331 C -0.00705 0.39959 1.04727 0.0
C332 C 0.86133 0.27985 0.10534 0.0
C333 C 0.86371 0.30185 0.19462 0.0
C334 C 0.82154 0.27629 0.24763 0.0
C335 C 0.90828 0.34954 0.22719 0.0
C336 C 0.8744 0.34 0.36993 0.0
C337 C 0.91414 0.36814 0.3137 0.0
C338 C 0.82695 0.29456 0.33538 0.0
C339 C 0.93178 0.29751 0.78268 0.0
O340 O 0.81459 0.28571 0.82904 0.0
O341 O 0.80299 0.30106 0.95903 0.0
O342 O 0.88294 0.40031 0.77193 0.0
O343 O 0.95777 0.39956 0.78146 0.0
O344 O 0.84042 0.39126 0.90161 0.0
O345 O 0.90637 0.41253 0.98857 0.0
O346 O 0.96619 0.34972 1.04663 0.0
O347 O 0.97453 0.4165 0.98154 0.0
O348 O 0.90754 0.29333 1.07458 0.0
O349 O 0.82775 0.28204 1.04857 0.0
O350 O 0.89655 0.28196 0.84284 0.0
O351 O 0.89895 0.28581 0.84348 0.0
H352 H 0.95425 0.46807 0.60253 0.0
H353 H 0.86362 0.3081 0.66377 0.0
H354 H 0.84236 0.27837 0.50835 0.0
H355 H 0.92861 0.4412 0.44614 0.0
H356 H 0.78483 0.24249 0.22095 0.0
H357 H 0.93895 0.37259 0.18624 0.0
H358 H 0.95075 0.40391 0.33639 0.0
H359 H 0.79426 0.27313 0.37577 0.0
Gd360 Gd 0.69566 0.11906 0.98119 0.0
Gd361 Gd 0.64174 0.09099 0.86918 0.0
C362 C 0.60503 0.02776 1.05164 0.0
C363 C 0.75274 0.1303 0.12338 0.0
C364 C 0.74034 0.14047 0.21259 0.0
C365 C 0.76787 0.13693 0.28723 0.0
C366 C 0.69747 0.14982 0.2238 0.0
C367 C 0.70421 0.14171 0.38037 0.0
C368 C 0.67845 0.14866 0.30632 0.0
C369 C 0.75163 0.14029 0.37071 0.0
C370 C 0.73859 0.09972 0.79342 0.0
C371 C 0.73693 0.21676 0.8984 0.0
C372 C 0.60433 0.07364 0.70523 0.0
C373 C 0.63032 0.09276 0.62276 0.0
C374 C 0.60051 0.07271 0.54164 0.0
C375 C 0.68432 0.13272 0.62379 0.0
C376 C 0.67837 0.12895 0.46435 0.0
C377 C 0.70838 0.15002 0.54557 0.0
C378 C 0.62382 0.09093 0.46355 0.0
C379 C 0.58263 0.11755 0.96473 0.0
O380 O 0.63359 0.07667 1.07526 0.0
O381 O 0.60623 0.01857 0.96461 0.0
O382 O 0.71765 0.08412 0.0855 0.0
O383 O 0.76645 0.16798 1.07024 0.0
O384 O 0.71094 0.07782 0.86161 0.0
O385 O 0.7116 0.07985 0.86113 0.0
O386 O 0.70836 0.17732 0.83818 0.0
O387 O 0.73362 0.20342 0.977 0.0
O388 O 0.60546 0.1095 0.75934 0.0
O389 O 0.61488 0.04141 0.74607 0.0
O390 O 0.56549 0.07093 0.92709 0.0
O391 O 0.63341 0.14597 0.96101 0.0
H392 H 0.80127 0.1306 0.28081 0.0
H393 H 0.67783 0.15692 0.16857 0.0
H394 H 0.643 0.15212 0.31198 0.0
H395 H 0.77417 0.13842 0.42743 0.0
H396 H 0.55936 0.04211 0.53781 0.0
H397 H 0.70835 0.15053 0.68462 0.0
H398 H 0.75044 0.17974 0.54863 0.0
H399 H 0.59957 0.07337 0.40216 0.0
Gd400 Gd 0.8909 0.59223 0.94128 0.0
Gd401 Gd 0.90938 0.55691 0.84305 0.0
C402 C 0.9884 0.59389 1.02686 0.0
C403 C 0.8782 0.63346 0.08167 0.0
C404 C 0.86726 0.60845 0.16575 0.0
C405 C 0.86002 0.63317 0.23897 0.0
C406 C 0.86511 0.55988 0.17408 0.0
C407 C 0.86058 0.56824 0.33184 0.0
C408 C 0.86345 0.54079 0.25658 0.0
C409 C 0.85498 0.61241 0.32082 0.0
C410 C 0.90748 0.64482 0.75642 0.0
C411 C 0.78736 0.5422 0.84951 0.0
C412 C 0.9158 0.53038 0.6808 0.0
C413 C 0.90008 0.54036 0.59277 0.0
C414 C 0.92767 0.53882 0.52131 0.0
C415 C 0.85708 0.54983 0.57777 0.0
C416 C 0.87069 0.55537 0.42134 0.0
C417 C 0.84297 0.558 0.49297 0.0
C418 C 0.91277 0.5451 0.43699 0.0
C419 C 0.89072 0.48182 0.951 0.0
O420 O 0.94693 0.59508 1.0484 0.0
O421 O 0.98843 0.5848 0.94032 0.0
O422 O 0.92599 0.64836 1.05564 0.0
O423 O 0.84023 0.60923 1.01824 0.0
O424 O 0.93255 0.64237 0.82969 0.0
O425 O 0.92988 0.64055 0.82897 0.0
O426 O 0.81423 0.51858 0.82452 0.0
O427 O 0.81492 0.58462 0.89839 0.0
O428 O 0.87703 0.50145 0.72775 0.0
O429 O 0.95533 0.56988 0.72793 0.0
O430 O 0.93371 0.50579 0.9098 0.0
O431 O 0.86099 0.50272 0.93893 0.0
H432 H 0.85818 0.6686 0.23194 0.0
H433 H 0.86636 0.53729 0.11753 0.0
H434 H 0.8656 0.50518 0.26174 0.0
H435 H 0.84808 0.63157 0.37613 0.0
H436 H 0.96109 0.53278 0.52976 0.0
H437 H 0.83468 0.55125 0.63143 0.0
H438 H 0.81038 0.5661 0.4834 0.0
H439 H 0.93561 0.54357 0.38413 0.0
Gd440 Gd 0.41655 0.31169 0.93373 0.0
Gd441 Gd 0.44842 0.36381 0.86084 0.0
C442 C 0.4074 0.39643 1.03575 0.0
C443 C 0.40539 0.26841 1.07793 0.0
C444 C 0.41987 0.2892 0.16964 0.0
C445 C 0.38819 0.25855 0.23242 0.0
C446 C 0.46454 0.33895 0.1953 0.0
C447 C 0.44549 0.32569 0.34768 0.0
C448 C 0.47698 0.35734 0.28384 0.0
C449 C 0.40186 0.27544 0.32088 0.0
C450 C 0.34312 0.2812 0.78328 0.0
C451 C 0.45496 0.25219 0.8524 0.0
C452 C 0.47874 0.40282 0.71071 0.0
C453 C 0.4703 0.38384 0.61795 0.0
C454 C 0.51465 0.39683 0.56937 0.0
C455 C 0.41853 0.35221 0.57753 0.0
C456 C 0.45508 0.34585 0.44105 0.0
C457 C 0.41113 0.33334 0.49035 0.0
C458 C 0.50717 0.37818 0.48133 0.0
C459 C 0.53279 0.42162 0.96362 0.0
O460 O 0.38278 0.34581 1.02884 0.0
O461 O 0.43692 0.4173 0.96936 0.0
O462 O 0.36673 0.27265 1.03773 0.0
O463 O 0.44591 0.27984 1.03093 0.0
O464 O 0.36498 0.25523 0.81313 0.0
O465 O 0.36137 0.32245 0.83385 0.0
O466 O 0.48355 0.30425 0.85155 0.0
O467 O 0.40786 0.23743 0.87574 0.0
O468 O 0.50516 0.38788 0.76057 0.0
O469 O 0.43831 0.40017 0.74816 0.0
O470 O 0.49945 0.43765 0.94223 0.0
O471 O 0.51103 0.3716 0.94635 0.0
H472 H 0.35213 0.22176 0.21213 0.0
H473 H 0.48911 0.36384 0.14695 0.0
H474 H 0.51028 0.39662 0.30189 0.0
H475 H 0.37708 0.24955 0.36797 0.0
H476 H 0.55508 0.42112 0.59968 0.0
H477 H 0.38375 0.34252 0.61288 0.0
H478 H 0.37078 0.31034 0.46043 0.0
H479 H 0.54202 0.38844 0.44545 0.0
Gd480 Gd 0.35828 0.91348 0.28884 0.0
Gd481 Gd 0.3036 0.88827 0.17381 0.0
C482 C 0.25375 0.79588 0.27547 0.0
C483 C 0.40488 0.92817 0.44668 0.0
C484 C 0.3788 0.91404 0.53185 0.0
C485 C 0.40893 0.93074 0.61319 0.0
C486 C 0.32317 0.88032 0.53276 0.0
C487 C 0.32882 0.88066 0.69203 0.0
C488 C 0.29863 0.86362 0.6106 0.0
C489 C 0.38467 0.91457 0.692 0.0
C490 C 0.41405 0.87998 0.14797 0.0
C491 C 0.39754 0.98226 0.11101 0.0
C492 C 0.24541 0.87073 1.02975 0.0
C493 C 0.2597 0.86047 0.94175 0.0
C494 C 0.23113 0.86017 0.86526 0.0
C495 C 0.30634 0.85704 0.93336 0.0
C496 C 0.30197 0.8665 0.77625 0.0
C497 C 0.32826 0.86189 0.85227 0.0
C498 C 0.2507 0.86057 0.78318 0.0
C499 C 0.263 0.91107 0.36156 0.0
O500 O 0.28564 0.8358 0.33176 0.0
O501 O 0.25924 0.80483 0.19431 0.0
O502 O 0.39341 0.88851 0.39168 0.0
O503 O 0.40378 0.96573 0.40595 0.0
O504 O 0.36986 0.86513 0.18585 0.0
O505 O 0.37035 0.8662 0.18692 0.0
O506 O 0.36369 0.93537 1.08094 0.0
O507 O 0.40104 0.9884 0.19993 0.0
O508 O 0.27741 0.91826 1.06648 0.0
O509 O 0.23445 0.83466 0.085 0.0
O510 O 0.292 0.93234 0.29405 0.0
O511 O 0.291 0.92983 0.29467 0.0
H512 H 0.45116 0.95699 0.61654 0.0
H513 H 0.29769 0.86633 0.47379 0.0
H514 H 0.25573 0.83699 0.60621 0.0
H515 H 0.40976 0.92995 0.75298 0.0
H516 H 0.19417 0.86074 0.86893 0.0
H517 H 0.32739 0.85309 0.99018 0.0
H518 H 0.36616 0.86278 0.84956 0.0
H519 H 0.22693 0.85976 0.72586 0.0
Gd520 Gd 0.12704 0.4331 0.2119 0.0
Gd521 Gd 0.10658 0.45284 0.31408 0.0
C522 C 0.14983 0.55108 0.23297 0.0
C523 C 0.14242 0.40207 1.05878 0.0
C524 C 0.13509 0.4173 0.97064 0.0
C525 C 0.15321 0.40214 0.89788 0.0
C526 C 0.11379 0.45075 0.95941 0.0
C527 C 0.12012 0.4456 0.80281 0.0
C528 C 0.10501 0.46369 0.87601 0.0
C529 C 0.14612 0.41639 0.81449 0.0
C530 C 0.22456 0.47609 0.30205 0.0
C531 C 0.09706 0.36493 0.39438 0.0
C532 C 0.0612 0.46399 0.44709 0.0
C533 C 0.07505 0.46292 0.541 0.0
C534 C 0.04059 0.41978 0.58607 0.0
C535 C 0.12459 0.50154 0.58402 0.0
C536 C 0.10461 0.45311 0.71401 0.0
C537 C 0.13917 0.49667 0.67008 0.0
C538 C 0.05507 0.41522 0.6719 0.0
C539 C 0.03363 0.4336 0.12557 0.0
O540 O 0.1282 0.51077 0.1748 0.0
O541 O 0.15841 0.53876 0.30872 0.0
O542 O 0.17914 0.4401 0.11036 0.0
O543 O 0.09993 0.37442 0.09954 0.0
O544 O 0.21281 0.49905 0.24225 0.0
O545 O 0.18012 0.43972 0.32363 0.0
O546 O 0.12499 0.41344 0.42092 0.0
O547 O 0.08637 0.35967 0.30624 0.0
O548 O 0.04227 0.41913 0.40071 0.0
O549 O 0.09574 0.50375 0.40656 0.0
O550 O 0.04225 0.41184 0.19458 0.0
O551 O 0.04377 0.41428 0.19344 0.0
H552 H 0.17192 0.37853 0.90522 0.0
H553 H 0.10425 0.46727 1.01486 0.0
H554 H 0.08601 0.48736 0.86855 0.0
H555 H 0.15878 0.40266 0.75867 0.0
H556 H 0.00307 0.38863 0.55395 0.0
H557 H 0.15247 0.53503 0.55087 0.0
H558 H 0.17763 0.52636 0.70178 0.0
H559 H 0.02794 0.3815 0.70499 0.0
Gd560 Gd 0.54011 0.64779 0.30372 0.0
Gd561 Gd 0.57309 0.69238 0.21239 0.0
C562 C 0.51774 0.74246 0.29041 0.0
C563 C 0.51038 0.59742 0.44385 0.0
C564 C 0.51585 0.61545 0.53655 0.0
C565 C 0.4716 0.59183 0.58657 0.0
C566 C 0.56217 0.66075 0.5722 0.0
C567 C 0.52316 0.65351 0.71088 0.0
C568 C 0.56562 0.68015 0.65826 0.0
C569 C 0.47579 0.6093 0.67434 0.0
C570 C 0.45179 0.59115 0.19424 0.0
C571 C 0.59081 0.61585 0.12291 0.0
C572 C 0.58595 0.73673 1.068 0.0
C573 C 0.56036 0.71257 0.97932 0.0
C574 C 0.55928 0.74405 0.91498 0.0
C575 C 0.53784 0.65833 0.95697 0.0
C576 C 0.52919 0.67199 0.80372 0.0
C577 C 0.52282 0.63814 0.86947 0.0
C578 C 0.54545 0.72473 0.82739 0.0
C579 C 0.64838 0.738 0.37113 0.0
O580 O 0.54167 0.72769 0.34806 0.0
O581 O 0.50927 0.71472 0.21823 0.0
O582 O 0.48069 0.60932 0.39551 0.0
O583 O 0.55333 0.6058 0.40683 0.0
O584 O 0.45466 0.6232 0.25763 0.0
O585 O 0.50044 0.60552 0.18076 0.0
O586 O 0.61213 0.66544 0.12182 0.0
O587 O 0.5611 0.5972 0.19297 0.0
O588 O 0.61962 0.72323 0.10141 0.0
O589 O 0.55412 0.73772 0.12445 0.0
O590 O 0.63388 0.76227 0.31656 0.0
O591 O 0.62571 0.6916 0.33624 0.0
H592 H 0.43343 0.5608 0.55712 0.0
H593 H 0.59461 0.68184 0.53223 0.0
H594 H 0.60142 0.71585 0.68374 0.0
H595 H 0.44172 0.58937 0.7128 0.0
H596 H 0.57185 0.7842 0.93217 0.0
H597 H 0.53258 0.63163 1.00622 0.0
H598 H 0.50869 0.59679 0.85289 0.0
H599 H 0.54887 0.75125 0.77803 0.0
Gd600 Gd 0.36154 0.43737 0.30595 0.0
Gd601 Gd 0.30815 0.41613 0.19619 0.0
C602 C 0.27703 0.34054 0.36856 0.0
C603 C 0.4152 0.46186 0.45677 0.0
C604 C 0.39243 0.45662 0.543 0.0
C605 C 0.42502 0.47291 0.6218 0.0
C606 C 0.33707 0.43662 0.54672 0.0
C607 C 0.3467 0.44257 0.70638 0.0
C608 C 0.31429 0.42846 0.62709 0.0
C609 C 0.40267 0.46822 0.7023 0.0
C610 C 0.40492 0.42742 0.11717 0.0
C611 C 0.41377 0.53461 0.20851 0.0
C612 C 0.25705 0.37768 1.04168 0.0
C613 C 0.27923 0.3941 0.9555 0.0
C614 C 0.25337 0.36289 0.87757 0.0
C615 C 0.32646 0.44252 0.95035 0.0
C616 C 0.3224 0.42746 0.79205 0.0
C617 C 0.34796 0.45891 0.87028 0.0
C618 C 0.27442 0.37966 0.79693 0.0
C619 C 0.27321 0.47082 0.29115 0.0
O620 O 0.32817 0.36648 0.37574 0.0
O621 O 0.25523 0.35199 0.29906 0.0
O622 O 0.40026 0.41758 0.41053 0.0
O623 O 0.41279 0.49666 0.40926 0.0
O624 O 0.37874 0.40222 0.1838 0.0
O625 O 0.37928 0.40495 0.18373 0.0
O626 O 0.37267 0.49972 0.15535 0.0
O627 O 0.41711 0.51995 0.28504 0.0
O628 O 0.25422 0.41338 0.08995 0.0
O629 O 0.27629 0.35393 0.08809 0.0
O630 O 0.29643 0.48556 0.21936 0.0
O631 O 0.2802 0.43385 0.31684 0.0
H632 H 0.4678 0.48963 0.62183 0.0
H633 H 0.31112 0.42671 0.48734 0.0
H634 H 0.27122 0.41114 0.62685 0.0
H635 H 0.42943 0.48164 0.76151 0.0
H636 H 0.21625 0.32628 0.8789 0.0
H637 H 0.34705 0.46815 1.00812 0.0
H638 H 0.38439 0.49655 0.86996 0.0
H639 H 0.25374 0.35505 0.73795 0.0
Gd640 Gd 0.5818 0.89766 0.1983 0.0
Gd641 Gd 0.55317 0.92162 0.304 0.0
C642 C 0.58258 0.98733 0.12302 0.0
C643 C 0.63013 0.88996 1.06747 0.0
C644 C 0.6077 0.88001 0.9755 0.0
C645 C 0.63876 0.88285 0.90681 0.0
C646 C 0.5543 0.86768 0.95534 0.0
C647 C 0.56815 0.87263 0.80054 0.0
C648 C 0.53558 0.8666 0.86903 0.0
C649 C 0.61746 0.87527 0.81981 0.0
C650 C 0.64328 0.91039 0.38861 0.0
C651 C 0.52979 0.79815 0.27899 0.0
C652 C 0.53517 0.93803 0.4636 0.0
C653 C 0.54438 0.92058 0.54879 0.0
C654 C 0.53876 0.94345 0.62635 0.0
C655 C 0.55537 0.87904 0.55392 0.0
C656 C 0.55531 0.88485 0.71281 0.0
C657 C 0.56188 0.86202 0.63528 0.0
C658 C 0.54263 0.92502 0.70708 0.0
C659 C 0.46723 0.89776 0.19684 0.0
O660 O 0.55979 0.93855 0.09904 0.0
O661 O 0.59354 -0.00462 0.21116 0.0
O662 O 0.64075 0.93549 0.10444 0.0
O663 O 0.60556 0.85129 0.11771 0.0
O664 O 0.6367 0.93714 0.32646 0.0
O665 O 0.63558 0.93524 0.32637 0.0
O666 O 0.53471 0.83532 0.33748 0.0
O667 O 0.5406 0.81305 0.20183 0.0
O668 O 0.49996 0.90061 0.40791 0.0
O669 O 0.57708 0.97192 0.42618 0.0
O670 O 0.49185 0.94021 0.24898 0.0
O671 O 0.49198 0.87128 0.1961 0.0
H672 H 0.6787 0.88962 0.92093 0.0
H673 H 0.52729 0.85999 1.00616 0.0
H674 H 0.49612 0.86197 0.85592 0.0
H675 H 0.64026 0.87394 0.7672 0.0
H676 H 0.53211 0.97624 0.62503 0.0
H677 H 0.5594 0.8599 0.49558 0.0
H678 H 0.57196 0.8311 0.6376 0.0
H679 H 0.53823 0.94406 0.76574 0.0
Gd680 Gd 0.09149 0.64905 0.30191 0.0
Gd681 Gd 0.11532 0.68843 0.20356 0.0
C682 C 0.07685 0.73263 0.38181 0.0
C683 C 0.05823 0.58854 0.42804 0.0
C684 C 0.08363 0.60194 0.51859 0.0
C685 C 0.06173 0.56712 0.58342 0.0
C686 C 0.12612 0.65301 0.54301 0.0
C687 C 0.11387 0.6379 0.69719 0.0
C688 C 0.1414 0.67071 0.63134 0.0
C689 C 0.07584 0.58484 0.67213 0.0
C690 C 0.03141 0.60355 0.09976 0.0
C691 C 0.14722 0.60022 0.22984 0.0
C692 C 0.13219 0.72769 1.05114 0.0
C693 C 0.12545 0.70301 0.96151 0.0
C694 C 0.13329 0.73291 0.89007 0.0
C695 C 0.11758 0.65187 0.9468 0.0
C696 C 0.12064 0.66043 0.78931 0.0
C697 C 0.11452 0.6305 0.86152 0.0
C698 C 0.13072 0.71221 0.80537 0.0
C699 C 0.21144 0.74242 0.29457 0.0
O700 O 0.07098 0.68912 0.40415 0.0
O701 O 0.09353 0.74315 0.30022 0.0
O702 O 0.03781 0.61761 0.40475 0.0
O703 O 0.08584 0.58301 0.36779 0.0
O704 O 0.02999 0.62227 0.17992 0.0
O705 O 0.03266 0.62234 0.17844 0.0
O706 O 0.12012 0.61098 0.17147 0.0
O707 O 0.154 0.62587 0.30354 0.0
O708 O 0.16786 0.72577 0.10233 0.0
O709 O 0.08965 0.71715 0.0912 0.0
O710 O 0.20071 0.70831 0.22966 0.0
O711 O 0.16644 0.73346 0.32065 0.0
H712 H 0.03214 0.52676 0.56523 0.0
H713 H 0.14561 0.68022 0.49389 0.0
H714 H 0.17306 0.711 0.64765 0.0
H715 H 0.05451 0.55768 0.72027 0.0
H716 H 0.14265 0.77284 0.89947 0.0
H717 H 0.11472 0.62868 1.00107 0.0
H718 H 0.10817 0.59095 0.85254 0.0
H719 H 0.13594 0.73699 0.75242 0.0
loop_
_geom_bond_atom_site_label_1
_geom_bond_atom_site_label_2
_geom_bond_distance
_geom_bond_site_symmetry_2
_ccdc_geom_bond_type
Gd0 C3 2.818 . S
Gd0 O20 2.377 1_455 S
Gd0 O22 2.448 . S
Gd0 O23 2.506 . S
Gd0 O24 2.435 . S
Gd0 O25 2.717 . S
Gd0 O27 2.395 . S
Gd0 O31 2.327 1_455 S
Gd1 C12 2.818 . S
Gd1 O21 2.395 . S
Gd1 O25 2.327 1_655 S
Gd1 O26 2.377 1_655 S
Gd1 O28 2.448 . S
Gd1 O29 2.506 1_655 S
Gd1 O30 2.435 . S
Gd1 O31 2.717 . S
C2 O20 1.240 . S
C2 O21 1.240 . S
C3 Gd0 2.818 . S
C3 C4 1.510 . S
C3 O22 1.249 . S
C3 O23 1.252 . S
C4 C3 1.510 . S
C4 C5 1.404 . S
C4 C6 1.352 1_455 S
C5 C4 1.404 . S
C5 C9 1.389 . S
C5 H32 0.930 . S
C6 C4 1.352 1_655 S
C6 C8 1.374 . S
C6 H33 0.931 . S
C7 C8 1.359 1_455 S
C7 C9 1.364 . S
C8 C6 1.374 . S
C8 C7 1.359 1_655 S
C8 H34 0.931 . S
C9 C5 1.389 . S
C9 C7 1.364 . S
C9 H35 0.931 . S
C10 O24 1.256 . S
C10 O25 1.257 . S
C11 O26 1.240 . S
C11 O27 1.240 . S
C12 Gd1 2.818 . S
C12 C13 1.510 . S
C12 O28 1.249 . S
C12 O29 1.252 1_655 S
C13 C12 1.510 . S
C13 C14 1.404 . S
C13 C15 1.352 1_655 S
C14 C13 1.404 . S
C14 C18 1.389 . S
C14 H36 0.930 . S
C15 C13 1.352 1_455 S
C15 C17 1.374 . S
C15 H37 0.931 . S
C16 C17 1.359 1_655 S
C16 C18 1.364 . S
C17 C15 1.374 . S
C17 C16 1.359 1_455 S
C17 H38 0.931 . S
C18 C14 1.389 . S
C18 C16 1.364 . S
C18 H39 0.931 . S
C19 O30 1.256 . S
C19 O31 1.257 . S
O20 Gd0 2.377 1_655 S
O20 C2 1.240 . S
O21 Gd1 2.395 . S
O21 C2 1.240 . S
O22 Gd0 2.448 . S
O22 C3 1.249 . S
O23 Gd0 2.506 . S
O23 C3 1.252 . S
O24 Gd0 2.435 . S
O24 C10 1.256 . S
O25 Gd0 2.717 . S
O25 Gd1 2.327 1_455 S
O25 C10 1.257 . S
O26 Gd1 2.377 1_455 S
O26 C11 1.240 . S
O27 Gd0 2.395 . S
O27 C11 1.240 . S
O28 Gd1 2.448 . S
O28 C12 1.249 . S
O29 Gd1 2.506 1_455 S
O29 C12 1.252 1_455 S
O30 Gd1 2.435 . S
O30 C19 1.256 . S
O31 Gd0 2.327 1_655 S
O31 Gd1 2.717 . S
O31 C19 1.257 . S
H32 C5 0.930 . S
H33 C6 0.931 . S
H34 C8 0.931 . S
H35 C9 0.931 . S
H36 C14 0.930 . S
H37 C15 0.931 . S
H38 C17 0.931 . S
H39 C18 0.931 . S
Gd40 C43 2.818 . S
Gd40 O60 2.377 . S
Gd40 O62 2.448 . S
Gd40 O63 2.506 . S
Gd40 O64 2.435 . S
Gd40 O65 2.717 . S
Gd40 O67 2.395 . S
Gd40 O71 2.327 . S
Gd41 C52 2.818 . S
Gd41 O61 2.395 . S
Gd41 O65 2.327 . S
Gd41 O66 2.377 . S
Gd41 O68 2.448 . S
Gd41 O69 2.506 . S
Gd41 O70 2.435 . S
Gd41 O71 2.717 . S
C42 O60 1.240 . S
C42 O61 1.240 . S
C43 Gd40 2.818 . S
C43 C44 1.510 . S
C43 O62 1.249 . S
C43 O63 1.252 . S
C44 C43 1.510 . S
C44 C45 1.404 . S
C44 C46 1.352 . S
C45 C44 1.404 . S
C45 C49 1.389 . S
C45 H72 0.930 . S
C46 C44 1.352 . S
C46 C48 1.374 . S
C46 H73 0.931 . S
C47 C48 1.359 . S
C47 C49 1.364 . S
C48 C46 1.374 . S
C48 C47 1.359 . S
C48 H74 0.931 . S
C49 C45 1.389 . S
C49 C47 1.364 . S
C49 H75 0.931 . S
C50 O64 1.256 . S
C50 O65 1.257 . S
C51 O66 1.240 . S
C51 O67 1.240 . S
C52 Gd41 2.818 . S
C52 C53 1.510 . S
C52 O68 1.249 . S
C52 O69 1.252 . S
C53 C52 1.510 . S
C53 C54 1.404 . S
C53 C55 1.352 . S
C54 C53 1.404 . S
C54 C58 1.389 . S
C54 H76 0.930 . S
C55 C53 1.352 . S
C55 C57 1.374 . S
C55 H77 0.931 . S
C56 C57 1.359 . S
C56 C58 1.364 . S
C57 C55 1.374 . S
C57 C56 1.359 . S
C57 H78 0.931 . S
C58 C54 1.389 . S
C58 C56 1.364 . S
C58 H79 0.931 . S
C59 O70 1.256 . S
C59 O71 1.257 . S
O60 Gd40 2.377 . S
O60 C42 1.240 . S
O61 Gd41 2.395 . S
O61 C42 1.240 . S
O62 Gd40 2.448 . S
O62 C43 1.249 . S
O63 Gd40 2.506 . S
O63 C43 1.252 . S
O64 Gd40 2.435 . S
O64 C50 1.256 . S
O65 Gd40 2.717 . S
O65 Gd41 2.327 . S
O65 C50 1.257 . S
O66 Gd41 2.377 . S
O66 C51 1.240 . S
O67 Gd40 2.395 . S
O67 C51 1.240 . S
O68 Gd41 2.448 . S
O68 C52 1.249 . S
O69 Gd41 2.506 . S
O69 C52 1.252 . S
O70 Gd41 2.435 . S
O70 C59 1.256 . S
O71 Gd40 2.327 . S
O71 Gd41 2.717 . S
O71 C59 1.257 . S
H72 C45 0.930 . S
H73 C46 0.931 . S
H74 C48 0.931 . S
H75 C49 0.931 . S
H76 C54 0.930 . S
H77 C55 0.931 . S
H78 C57 0.931 . S
H79 C58 0.931 . S
Gd80 C83 2.818 . S
Gd80 O100 2.377 1_565 S
Gd80 O102 2.448 . S
Gd80 O103 2.506 1_565 S
Gd80 O104 2.435 . S
Gd80 O105 2.717 . S
Gd80 O107 2.395 . S
Gd80 O111 2.327 1_565 S
Gd81 C92 2.818 . S
Gd81 O101 2.395 . S
Gd81 O105 2.327 1_545 S
Gd81 O106 2.377 1_545 S
Gd81 O108 2.448 . S
Gd81 O109 2.506 1_545 S
Gd81 O110 2.435 . S
Gd81 O111 2.717 . S
C82 O100 1.240 . S
C82 O101 1.240 . S
C83 Gd80 2.818 . S
C83 C84 1.510 . S
C83 O102 1.249 . S
C83 O103 1.252 1_565 S
C84 C83 1.510 . S
C84 C85 1.404 . S
C84 C86 1.352 1_565 S
C85 C84 1.404 . S
C85 C89 1.389 . S
C85 H112 0.930 . S
C86 C84 1.352 1_545 S
C86 C88 1.374 . S
C86 H113 0.931 . S
C87 C88 1.359 . S
C87 C89 1.364 1_545 S
C88 C86 1.374 . S
C88 C87 1.359 . S
C88 H114 0.931 . S
C89 C85 1.389 . S
C89 C87 1.364 1_565 S
C89 H115 0.931 . S
C90 O104 1.256 . S
C90 O105 1.257 . S
C91 O106 1.240 . S
C91 O107 1.240 . S
C92 Gd81 2.818 . S
C92 C93 1.510 . S
C92 O108 1.249 . S
C92 O109 1.252 1_545 S
C93 C92 1.510 . S
C93 C94 1.404 . S
C93 C95 1.352 1_545 S
C94 C93 1.404 . S
C94 C98 1.389 . S
C94 H116 0.930 . S
C95 C93 1.352 1_565 S
C95 C97 1.374 . S
C95 H117 0.931 . S
C96 C97 1.359 1_545 S
C96 C98 1.364 . S
C97 C95 1.374 . S
C97 C96 1.359 1_565 S
C97 H118 0.931 . S
C98 C94 1.389 . S
C98 C96 1.364 . S
C98 H119 0.931 . S
C99 O110 1.256 . S
C99 O111 1.257 . S
O100 Gd80 2.377 1_545 S
O100 C82 1.240 . S
O101 Gd81 2.395 . S
O101 C82 1.240 . S
O102 Gd80 2.448 . S
O102 C83 1.249 . S
O103 Gd80 2.506 1_545 S
O103 C83 1.252 1_545 S
O104 Gd80 2.435 . S
O104 C90 1.256 . S
O105 Gd80 2.717 . S
O105 Gd81 2.327 1_565 S
O105 C90 1.257 . S
O106 Gd81 2.377 1_565 S
O106 C91 1.240 . S
O107 Gd80 2.395 . S
O107 C91 1.240 . S
O108 Gd81 2.448 . S
O108 C92 1.249 . S
O109 Gd81 2.506 1_565 S
O109 C92 1.252 1_565 S
O110 Gd81 2.435 . S
O110 C99 1.256 . S
O111 Gd80 2.327 1_545 S
O111 Gd81 2.717 . S
O111 C99 1.257 . S
H112 C85 0.930 . S
H113 C86 0.931 . S
H114 C88 0.931 . S
H115 C89 0.931 . S
H116 C94 0.930 . S
H117 C95 0.931 . S
H118 C97 0.931 . S
H119 C98 0.931 . S
Gd120 C123 2.818 . S
Gd120 O140 2.377 1_455 S
Gd120 O142 2.448 . S
Gd120 O143 2.506 . S
Gd120 O144 2.435 . S
Gd120 O145 2.717 . S
Gd120 O147 2.395 . S
Gd120 O151 2.327 1_455 S
Gd121 C132 2.818 . S
Gd121 O141 2.395 . S
Gd121 O145 2.327 1_655 S
Gd121 O146 2.377 1_655 S
Gd121 O148 2.448 . S
Gd121 O149 2.506 1_655 S
Gd121 O150 2.435 . S
Gd121 O151 2.717 . S
C122 O140 1.240 . S
C122 O141 1.240 . S
C123 Gd120 2.818 . S
C123 C124 1.510 . S
C123 O142 1.249 . S
C123 O143 1.252 . S
C124 C123 1.510 . S
C124 C125 1.404 . S
C124 C126 1.352 1_455 S
C125 C124 1.404 . S
C125 C129 1.389 . S
C125 H152 0.930 . S
C126 C124 1.352 1_655 S
C126 C128 1.374 . S
C126 H153 0.931 . S
C127 C128 1.354 1_454 S
C127 C129 1.359 1_554 S
C128 C126 1.374 . S
C128 C127 1.354 1_656 S
C128 H154 0.931 . S
C129 C125 1.389 . S
C129 C127 1.359 1_556 S
C129 H155 0.931 . S
C130 O144 1.256 . S
C130 O145 1.257 . S
C131 O146 1.240 . S
C131 O147 1.240 . S
C132 Gd121 2.818 . S
C132 C133 1.510 . S
C132 O148 1.249 . S
C132 O149 1.252 1_655 S
C133 C132 1.510 . S
C133 C134 1.404 . S
C133 C135 1.352 1_655 S
C134 C133 1.404 . S
C134 C138 1.389 . S
C134 H156 0.930 . S
C135 C133 1.352 1_455 S
C135 C137 1.374 . S
C135 H157 0.931 . S
C136 C137 1.359 1_655 S
C136 C138 1.364 . S
C137 C135 1.374 . S
C137 C136 1.359 1_455 S
C137 H158 0.931 . S
C138 C134 1.389 . S
C138 C136 1.364 . S
C138 H159 0.931 . S
C139 O150 1.256 . S
C139 O151 1.257 . S
O140 Gd120 2.377 1_655 S
O140 C122 1.240 . S
O141 Gd121 2.395 . S
O141 C122 1.240 . S
O142 Gd120 2.448 . S
O142 C123 1.249 . S
O143 Gd120 2.506 . S
O143 C123 1.252 . S
O144 Gd120 2.435 . S
O144 C130 1.256 . S
O145 Gd120 2.717 . S
O145 Gd121 2.327 1_455 S
O145 C130 1.257 . S
O146 Gd121 2.377 1_455 S
O146 C131 1.240 . S
O147 Gd120 2.395 . S
O147 C131 1.240 . S
O148 Gd121 2.448 . S
O148 C132 1.249 . S
O149 Gd121 2.506 1_455 S
O149 C132 1.252 1_455 S
O150 Gd121 2.435 . S
O150 C139 1.256 . S
O151 Gd120 2.327 1_655 S
O151 Gd121 2.717 . S
O151 C139 1.257 . S
H152 C125 0.930 . S
H153 C126 0.931 . S
H154 C128 0.931 . S
H155 C129 0.931 . S
H156 C134 0.930 . S
H157 C135 0.931 . S
H158 C137 0.931 . S
H159 C138 0.931 . S
Gd160 C163 2.818 . S
Gd160 O180 2.377 . S
Gd160 O182 2.448 . S
Gd160 O183 2.506 . S
Gd160 O184 2.435 . S
Gd160 O185 2.717 . S
Gd160 O187 2.395 . S
Gd160 O191 2.327 . S
Gd161 C172 2.818 . S
Gd161 O181 2.395 . S
Gd161 O185 2.327 . S
Gd161 O186 2.377 . S
Gd161 O188 2.448 . S
Gd161 O189 2.506 . S
Gd161 O190 2.435 . S
Gd161 O191 2.717 . S
C162 O180 1.240 . S
C162 O181 1.240 . S
C163 Gd160 2.818 . S
C163 C164 1.510 . S
C163 O182 1.249 . S
C163 O183 1.252 . S
C164 C163 1.510 . S
C164 C165 1.404 . S
C164 C166 1.352 . S
C165 C164 1.404 . S
C165 C169 1.389 . S
C165 H192 0.930 . S
C166 C164 1.352 . S
C166 C168 1.374 . S
C166 H193 0.931 . S
C167 C168 1.359 . S
C167 C169 1.364 . S
C168 C166 1.374 . S
C168 C167 1.359 . S
C168 H194 0.931 . S
C169 C165 1.389 . S
C169 C167 1.364 . S
C169 H195 0.931 . S
C170 O184 1.256 . S
C170 O185 1.257 . S
C171 O186 1.240 . S
C171 O187 1.240 . S
C172 Gd161 2.818 . S
C172 C173 1.510 . S
C172 O188 1.249 . S
C172 O189 1.252 . S
C173 C172 1.510 . S
C173 C174 1.404 . S
C173 C175 1.352 . S
C174 C173 1.404 . S
C174 C178 1.389 . S
C174 H196 0.930 . S
C175 C173 1.352 . S
C175 C177 1.374 . S
C175 H197 0.931 . S
C176 C177 1.359 1_554 S
C176 C178 1.364 1_554 S
C177 C175 1.374 . S
C177 C176 1.359 1_556 S
C177 H198 0.924 1_556 S
C178 C174 1.389 . S
C178 C176 1.364 1_556 S
C178 H199 0.931 . S
C179 O190 1.256 . S
C179 O191 1.257 . S
O180 Gd160 2.377 . S
O180 C162 1.240 . S
O181 Gd161 2.395 . S
O181 C162 1.240 . S
O182 Gd160 2.448 . S
O182 C163 1.249 . S
O183 Gd160 2.506 . S
O183 C163 1.252 . S
O184 Gd160 2.435 . S
O184 C170 1.256 . S
O185 Gd160 2.717 . S
O185 Gd161 2.327 . S
O185 C170 1.257 . S
O186 Gd161 2.377 . S
O186 C171 1.240 . S
O187 Gd160 2.395 . S
O187 C171 1.240 . S
O188 Gd161 2.448 . S
O188 C172 1.249 . S
O189 Gd161 2.506 . S
O189 C172 1.252 . S
O190 Gd161 2.435 . S
O190 C179 1.256 . S
O191 Gd160 2.327 . S
O191 Gd161 2.717 . S
O191 C179 1.257 . S
H192 C165 0.930 . S
H193 C166 0.931 . S
H194 C168 0.931 . S
H195 C169 0.931 . S
H196 C174 0.930 . S
H197 C175 0.931 . S
H198 C177 0.924 1_554 S
H199 C178 0.931 . S
Gd200 C203 2.818 . S
Gd200 O220 2.377 1_565 S
Gd200 O222 2.448 . S
Gd200 O223 2.506 1_565 S
Gd200 O224 2.435 . S
Gd200 O225 2.717 . S
Gd200 O227 2.395 . S
Gd200 O231 2.327 1_565 S
Gd201 C212 2.818 . S
Gd201 O221 2.395 . S
Gd201 O225 2.327 1_545 S
Gd201 O226 2.377 1_545 S
Gd201 O228 2.448 . S
Gd201 O229 2.506 . S
Gd201 O230 2.435 . S
Gd201 O231 2.717 . S
C202 O220 1.240 . S
C202 O221 1.240 . S
C203 Gd200 2.818 . S
C203 C204 1.510 . S
C203 O222 1.249 . S
C203 O223 1.252 1_565 S
C204 C203 1.510 . S
C204 C205 1.404 . S
C204 C206 1.352 1_565 S
C205 C204 1.404 . S
C205 C209 1.389 . S
C205 H232 0.930 . S
C206 C204 1.352 1_545 S
C206 C208 1.374 . S
C206 H233 0.931 . S
C207 C208 1.359 . S
C207 C209 1.364 1_545 S
C208 C206 1.374 . S
C208 C207 1.359 . S
C208 H234 0.931 . S
C209 C205 1.389 . S
C209 C207 1.364 1_565 S
C209 H235 0.931 . S
C210 O224 1.256 . S
C210 O225 1.257 . S
C211 O226 1.240 . S
C211 O227 1.240 . S
C212 Gd201 2.818 . S
C212 C213 1.510 . S
C212 O228 1.249 . S
C212 O229 1.252 . S
C213 C212 1.510 . S
C213 C214 1.404 . S
C213 C215 1.352 1_545 S
C214 C213 1.404 . S
C214 C218 1.389 . S
C214 H236 0.930 . S
C215 C213 1.352 1_565 S
C215 C217 1.374 . S
C215 H237 0.931 . S
C216 C217 1.359 1_545 S
C216 C218 1.364 . S
C217 C215 1.374 . S
C217 C216 1.359 1_565 S
C217 H238 0.931 . S
C218 C214 1.389 . S
C218 C216 1.364 . S
C218 H239 0.931 . S
C219 O230 1.256 . S
C219 O231 1.257 . S
O220 Gd200 2.377 1_545 S
O220 C202 1.240 . S
O221 Gd201 2.395 . S
O221 C202 1.240 . S
O222 Gd200 2.448 . S
O222 C203 1.249 . S
O223 Gd200 2.506 1_545 S
O223 C203 1.252 1_545 S
O224 Gd200 2.435 . S
O224 C210 1.256 . S
O225 Gd200 2.717 . S
O225 Gd201 2.327 1_565 S
O225 C210 1.257 . S
O226 Gd201 2.377 1_565 S
O226 C211 1.240 . S
O227 Gd200 2.395 . S
O227 C211 1.240 . S
O228 Gd201 2.448 . S
O228 C212 1.249 . S
O229 Gd201 2.506 . S
O229 C212 1.252 . S
O230 Gd201 2.435 . S
O230 C219 1.256 . S
O231 Gd200 2.327 1_545 S
O231 Gd201 2.717 . S
O231 C219 1.257 . S
H232 C205 0.930 . S
H233 C206 0.931 . S
H234 C208 0.931 . S
H235 C209 0.931 . S
H236 C214 0.930 . S
H237 C215 0.931 . S
H238 C217 0.931 . S
H239 C218 0.931 . S
Gd240 C243 2.818 . S
Gd240 O260 2.377 . S
Gd240 O262 2.448 . S
Gd240 O263 2.506 . S
Gd240 O264 2.435 . S
Gd240 O265 2.717 . S
Gd240 O267 2.395 . S
Gd240 O271 2.327 . S
Gd241 C252 2.818 1_556 S
Gd241 O261 2.395 . S
Gd241 O265 2.327 . S
Gd241 O266 2.377 . S
Gd241 O268 2.448 1_556 S
Gd241 O269 2.506 1_556 S
Gd241 O270 2.435 . S
Gd241 O271 2.717 . S
C242 O260 1.240 . S
C242 O261 1.240 . S
C243 Gd240 2.818 . S
C243 C244 1.510 . S
C243 O262 1.249 . S
C243 O263 1.252 . S
C244 C243 1.510 . S
C244 C245 1.404 . S
C244 C246 1.352 . S
C245 C244 1.404 . S
C245 C249 1.389 . S
C245 H272 0.930 . S
C246 C244 1.352 . S
C246 C248 1.374 . S
C246 H273 0.931 . S
C247 C248 1.359 . S
C247 C249 1.364 . S
C248 C246 1.374 . S
C248 C247 1.359 . S
C248 H274 0.931 . S
C249 C245 1.389 . S
C249 C247 1.364 . S
C249 H275 0.931 . S
C250 O264 1.256 . S
C250 O265 1.257 . S
C251 O266 1.240 . S
C251 O267 1.240 . S
C252 Gd241 2.818 1_554 S
C252 C253 1.510 . S
C252 O268 1.249 . S
C252 O269 1.252 . S
C253 C252 1.510 . S
C253 C254 1.404 . S
C253 C255 1.352 . S
C254 C253 1.404 . S
C254 C258 1.389 . S
C254 H276 0.930 . S
C255 C253 1.352 . S
C255 C257 1.374 . S
C255 H277 0.931 . S
C256 C257 1.359 . S
C256 C258 1.364 . S
C257 C255 1.374 . S
C257 C256 1.359 . S
C257 H278 0.931 . S
C258 C254 1.389 . S
C258 C256 1.364 . S
C258 H279 0.931 . S
C259 O270 1.256 . S
C259 O271 1.257 . S
O260 Gd240 2.377 . S
O260 C242 1.240 . S
O261 Gd241 2.395 . S
O261 C242 1.240 . S
O262 Gd240 2.448 . S
O262 C243 1.249 . S
O263 Gd240 2.506 . S
O263 C243 1.252 . S
O264 Gd240 2.435 . S
O264 C250 1.256 . S
O265 Gd240 2.717 . S
O265 Gd241 2.327 . S
O265 C250 1.257 . S
O266 Gd241 2.377 . S
O266 C251 1.240 . S
O267 Gd240 2.395 . S
O267 C251 1.240 . S
O268 Gd241 2.448 1_554 S
O268 C252 1.249 . S
O269 Gd241 2.506 1_554 S
O269 C252 1.252 . S
O270 Gd241 2.435 . S
O270 C259 1.256 . S
O271 Gd240 2.327 . S
O271 Gd241 2.717 . S
O271 C259 1.257 . S
H272 C245 0.930 . S
H273 C246 0.931 . S
H274 C248 0.931 . S
H275 C249 0.931 . S
H276 C254 0.930 . S
H277 C255 0.931 . S
H278 C257 0.931 . S
H279 C258 0.931 . S
Gd280 C283 2.818 . S
Gd280 O300 2.377 . S
Gd280 O302 2.448 . S
Gd280 O303 2.506 . S
Gd280 O304 2.435 . S
Gd280 O305 2.717 . S
Gd280 O307 2.395 . S
Gd280 O311 2.327 . S
Gd281 C292 2.818 1_556 S
Gd281 O301 2.395 . S
Gd281 O305 2.327 . S
Gd281 O306 2.377 . S
Gd281 O308 2.448 . S
Gd281 O309 2.506 1_556 S
Gd281 O310 2.435 . S
Gd281 O311 2.717 . S
C282 O300 1.240 . S
C282 O301 1.240 . S
C283 Gd280 2.818 . S
C283 C284 1.510 . S
C283 O302 1.249 . S
C283 O303 1.252 . S
C284 C283 1.510 . S
C284 C285 1.404 . S
C284 C286 1.352 . S
C285 C284 1.404 . S
C285 C289 1.389 . S
C285 H312 0.930 . S
C286 C284 1.352 . S
C286 C288 1.374 . S
C286 H313 0.931 . S
C287 C288 1.359 . S
C287 C289 1.364 . S
C288 C286 1.374 . S
C288 C287 1.359 . S
C288 H314 0.931 . S
C289 C285 1.389 . S
C289 C287 1.364 . S
C289 H315 0.931 . S
C290 O304 1.256 . S
C290 O305 1.257 . S
C291 O306 1.240 . S
C291 O307 1.240 . S
C292 Gd281 2.818 1_554 S
C292 C293 1.510 . S
C292 O308 1.249 1_554 S
C292 O309 1.252 . S
C293 C292 1.510 . S
C293 C294 1.404 . S
C293 C295 1.352 . S
C294 C293 1.404 . S
C294 C298 1.389 . S
C294 H316 0.930 . S
C295 C293 1.352 . S
C295 C297 1.374 . S
C295 H317 0.931 . S
C296 C297 1.359 . S
C296 C298 1.364 . S
C297 C295 1.374 . S
C297 C296 1.359 . S
C297 H318 0.931 . S
C298 C294 1.389 . S
C298 C296 1.364 . S
C298 H319 0.931 . S
C299 O310 1.256 . S
C299 O311 1.257 . S
O300 Gd280 2.377 . S
O300 C282 1.240 . S
O301 Gd281 2.395 . S
O301 C282 1.240 . S
O302 Gd280 2.448 . S
O302 C283 1.249 . S
O303 Gd280 2.506 . S
O303 C283 1.252 . S
O304 Gd280 2.435 . S
O304 C290 1.256 . S
O305 Gd280 2.717 . S
O305 Gd281 2.327 . S
O305 C290 1.257 . S
O306 Gd281 2.377 . S
O306 C291 1.240 . S
O307 Gd280 2.395 . S
O307 C291 1.240 . S
O308 Gd281 2.448 . S
O308 C292 1.249 1_556 S
O309 Gd281 2.506 1_554 S
O309 C292 1.252 . S
O310 Gd281 2.435 . S
O310 C299 1.256 . S
O311 Gd280 2.327 . S
O311 Gd281 2.717 . S
O311 C299 1.257 . S
H312 C285 0.930 . S
H313 C286 0.931 . S
H314 C288 0.931 . S
H315 C289 0.931 . S
H316 C294 0.930 . S
H317 C295 0.931 . S
H318 C297 0.931 . S
H319 C298 0.931 . S
Gd320 C323 2.818 . S
Gd320 O340 2.377 . S
Gd320 O342 2.448 . S
Gd320 O343 2.506 . S
Gd320 O344 2.435 . S
Gd320 O345 2.717 . S
Gd320 O347 2.395 1_655 S
Gd320 O351 2.327 . S
Gd321 C332 2.818 1_556 S
Gd321 O341 2.395 . S
Gd321 O345 2.327 . S
Gd321 O346 2.377 . S
Gd321 O348 2.448 1_556 S
Gd321 O349 2.506 1_556 S
Gd321 O350 2.435 . S
Gd321 O351 2.717 . S
C322 O340 1.240 . S
C322 O341 1.240 . S
C323 Gd320 2.818 . S
C323 C324 1.510 . S
C323 O342 1.249 . S
C323 O343 1.252 . S
C324 C323 1.510 . S
C324 C325 1.404 . S
C324 C326 1.352 . S
C325 C324 1.404 . S
C325 C329 1.389 . S
C325 H352 0.930 . S
C326 C324 1.352 . S
C326 C328 1.374 . S
C326 H353 0.931 . S
C327 C328 1.359 . S
C327 C329 1.364 . S
C328 C326 1.374 . S
C328 C327 1.359 . S
C328 H354 0.931 . S
C329 C325 1.389 . S
C329 C327 1.364 . S
C329 H355 0.931 . S
C330 O344 1.256 . S
C330 O345 1.257 . S
C331 O346 1.240 1_455 S
C331 O347 1.240 . S
C332 Gd321 2.818 1_554 S
C332 C333 1.510 . S
C332 O348 1.249 . S
C332 O349 1.252 . S
C333 C332 1.510 . S
C333 C334 1.404 . S
C333 C335 1.352 . S
C334 C333 1.404 . S
C334 C338 1.389 . S
C334 H356 0.930 . S
C335 C333 1.352 . S
C335 C337 1.374 . S
C335 H357 0.931 . S
C336 C337 1.359 . S
C336 C338 1.364 . S
C337 C335 1.374 . S
C337 C336 1.359 . S
C337 H358 0.931 . S
C338 C334 1.389 . S
C338 C336 1.364 . S
C338 H359 0.931 . S
C339 O350 1.256 . S
C339 O351 1.257 . S
O340 Gd320 2.377 . S
O340 C322 1.240 . S
O341 Gd321 2.395 . S
O341 C322 1.240 . S
O342 Gd320 2.448 . S
O342 C323 1.249 . S
O343 Gd320 2.506 . S
O343 C323 1.252 . S
O344 Gd320 2.435 . S
O344 C330 1.256 . S
O345 Gd320 2.717 . S
O345 Gd321 2.327 . S
O345 C330 1.257 . S
O346 Gd321 2.377 . S
O346 C331 1.240 1_655 S
O347 Gd320 2.395 1_455 S
O347 C331 1.240 . S
O348 Gd321 2.448 1_554 S
O348 C332 1.249 . S
O349 Gd321 2.506 1_554 S
O349 C332 1.252 . S
O350 Gd321 2.435 . S
O350 C339 1.256 . S
O351 Gd320 2.327 . S
O351 Gd321 2.717 . S
O351 C339 1.257 . S
H352 C325 0.930 . S
H353 C326 0.931 . S
H354 C328 0.931 . S
H355 C329 0.931 . S
H356 C334 0.930 . S
H357 C335 0.931 . S
H358 C337 0.931 . S
H359 C338 0.931 . S
Gd360 C363 2.818 1_556 S
Gd360 O380 2.377 . S
Gd360 O382 2.448 1_556 S
Gd360 O383 2.506 1_556 S
Gd360 O384 2.435 . S
Gd360 O385 2.717 . S
Gd360 O387 2.395 . S
Gd360 O391 2.327 . S
Gd361 C372 2.818 . S
Gd361 O381 2.395 . S
Gd361 O385 2.327 . S
Gd361 O386 2.377 . S
Gd361 O388 2.448 . S
Gd361 O389 2.506 . S
Gd361 O390 2.435 . S
Gd361 O391 2.717 . S
C362 O380 1.240 . S
C362 O381 1.240 . S
C363 Gd360 2.818 1_554 S
C363 C364 1.510 . S
C363 O382 1.249 . S
C363 O383 1.252 . S
C364 C363 1.510 . S
C364 C365 1.404 . S
C364 C366 1.352 . S
C365 C364 1.404 . S
C365 C369 1.389 . S
C365 H392 0.930 . S
C366 C364 1.352 . S
C366 C368 1.374 . S
C366 H393 0.931 . S
C367 C368 1.359 . S
C367 C369 1.364 . S
C368 C366 1.374 . S
C368 C367 1.359 . S
C368 H394 0.931 . S
C369 C365 1.389 . S
C369 C367 1.364 . S
C369 H395 0.931 . S
C370 O384 1.256 . S
C370 O385 1.257 . S
C371 O386 1.240 . S
C371 O387 1.240 . S
C372 Gd361 2.818 . S
C372 C373 1.510 . S
C372 O388 1.249 . S
C372 O389 1.252 . S
C373 C372 1.510 . S
C373 C374 1.404 . S
C373 C375 1.352 . S
C374 C373 1.404 . S
C374 C378 1.389 . S
C374 H396 0.930 . S
C375 C373 1.352 . S
C375 C377 1.374 . S
C375 H397 0.931 . S
C376 C377 1.359 . S
C376 C378 1.364 . S
C377 C375 1.374 . S
C377 C376 1.359 . S
C377 H398 0.931 . S
C378 C374 1.389 . S
C378 C376 1.364 . S
C378 H399 0.931 . S
C379 O390 1.256 . S
C379 O391 1.257 . S
O380 Gd360 2.377 . S
O380 C362 1.240 . S
O381 Gd361 2.395 . S
O381 C362 1.240 . S
O382 Gd360 2.448 1_554 S
O382 C363 1.249 . S
O383 Gd360 2.506 1_554 S
O383 C363 1.252 . S
O384 Gd360 2.435 . S
O384 C370 1.256 . S
O385 Gd360 2.717 . S
O385 Gd361 2.327 . S
O385 C370 1.257 . S
O386 Gd361 2.377 . S
O386 C371 1.240 . S
O387 Gd360 2.395 . S
O387 C371 1.240 . S
O388 Gd361 2.448 . S
O388 C372 1.249 . S
O389 Gd361 2.506 . S
O389 C372 1.252 . S
O390 Gd361 2.435 . S
O390 C379 1.256 . S
O391 Gd360 2.327 . S
O391 Gd361 2.717 . S
O391 C379 1.257 . S
H392 C365 0.930 . S
H393 C366 0.931 . S
H394 C368 0.931 . S
H395 C369 0.931 . S
H396 C374 0.930 . S
H397 C375 0.931 . S
H398 C377 0.931 . S
H399 C378 0.931 . S
Gd400 C403 2.818 1_556 S
Gd400 O420 2.377 . S
Gd400 O422 2.448 1_556 S
Gd400 O423 2.506 1_556 S
Gd400 O424 2.435 . S
Gd400 O425 2.717 . S
Gd400 O427 2.395 . S
Gd400 O431 2.327 . S
Gd401 C412 2.818 . S
Gd401 O421 2.395 1_655 S
Gd401 O425 2.327 . S
Gd401 O426 2.377 . S
Gd401 O428 2.448 . S
Gd401 O429 2.506 . S
Gd401 O430 2.435 . S
Gd401 O431 2.717 . S
C402 O420 1.240 1_455 S
C402 O421 1.240 . S
C403 Gd400 2.818 1_554 S
C403 C404 1.510 . S
C403 O422 1.249 . S
C403 O423 1.252 . S
C404 C403 1.510 . S
C404 C405 1.404 . S
C404 C406 1.352 . S
C405 C404 1.404 . S
C405 C409 1.389 . S
C405 H432 0.930 . S
C406 C404 1.352 . S
C406 C408 1.374 . S
C406 H433 0.931 . S
C407 C408 1.359 . S
C407 C409 1.364 . S
C408 C406 1.374 . S
C408 C407 1.359 . S
C408 H434 0.931 . S
C409 C405 1.389 . S
C409 C407 1.364 . S
C409 H435 0.931 . S
C410 O424 1.256 . S
C410 O425 1.257 . S
C411 O426 1.240 . S
C411 O427 1.240 . S
C412 Gd401 2.818 . S
C412 C413 1.510 . S
C412 O428 1.249 . S
C412 O429 1.252 . S
C413 C412 1.510 . S
C413 C414 1.404 . S
C413 C415 1.352 . S
C414 C413 1.404 . S
C414 C418 1.389 . S
C414 H436 0.930 . S
C415 C413 1.352 . S
C415 C417 1.374 . S
C415 H437 0.931 . S
C416 C417 1.359 . S
C416 C418 1.364 . S
C417 C415 1.374 . S
C417 C416 1.359 . S
C417 H438 0.931 . S
C418 C414 1.389 . S
C418 C416 1.364 . S
C418 H439 0.931 . S
C419 O430 1.256 . S
C419 O431 1.257 . S
O420 Gd400 2.377 . S
O420 C402 1.240 1_655 S
O421 Gd401 2.395 1_455 S
O421 C402 1.240 . S
O422 Gd400 2.448 1_554 S
O422 C403 1.249 . S
O423 Gd400 2.506 1_554 S
O423 C403 1.252 . S
O424 Gd400 2.435 . S
O424 C410 1.256 . S
O425 Gd400 2.717 . S
O425 Gd401 2.327 . S
O425 C410 1.257 . S
O426 Gd401 2.377 . S
O426 C411 1.240 . S
O427 Gd400 2.395 . S
O427 C411 1.240 . S
O428 Gd401 2.448 . S
O428 C412 1.249 . S
O429 Gd401 2.506 . S
O429 C412 1.252 . S
O430 Gd401 2.435 . S
O430 C419 1.256 . S
O431 Gd400 2.327 . S
O431 Gd401 2.717 . S
O431 C419 1.257 . S
H432 C405 0.930 . S
H433 C406 0.931 . S
H434 C408 0.931 . S
H435 C409 0.931 . S
H436 C414 0.930 . S
H437 C415 0.931 . S
H438 C417 0.931 . S
H439 C418 0.931 . S
Gd440 C443 2.818 1_556 S
Gd440 O460 2.377 . S
Gd440 O462 2.448 1_556 S
Gd440 O463 2.506 1_556 S
Gd440 O464 2.435 . S
Gd440 O465 2.717 . S
Gd440 O467 2.395 . S
Gd440 O471 2.327 . S
Gd441 C452 2.818 . S
Gd441 O461 2.395 . S
Gd441 O465 2.327 . S
Gd441 O466 2.377 . S
Gd441 O468 2.448 . S
Gd441 O469 2.506 . S
Gd441 O470 2.435 . S
Gd441 O471 2.717 . S
C442 O460 1.240 . S
C442 O461 1.240 . S
C443 Gd440 2.818 1_554 S
C443 C444 1.510 . S
C443 O462 1.249 . S
C443 O463 1.252 . S
C444 C443 1.510 . S
C444 C445 1.404 . S
C444 C446 1.352 . S
C445 C444 1.404 . S
C445 C449 1.389 . S
C445 H472 0.930 . S
C446 C444 1.352 . S
C446 C448 1.374 . S
C446 H473 0.931 . S
C447 C448 1.359 . S
C447 C449 1.364 . S
C448 C446 1.374 . S
C448 C447 1.359 . S
C448 H474 0.931 . S
C449 C445 1.389 . S
C449 C447 1.364 . S
C449 H475 0.931 . S
C450 O464 1.256 . S
C450 O465 1.257 . S
C451 O466 1.240 . S
C451 O467 1.240 . S
C452 Gd441 2.818 . S
C452 C453 1.510 . S
C452 O468 1.249 . S
C452 O469 1.252 . S
C453 C452 1.510 . S
C453 C454 1.404 . S
C453 C455 1.352 . S
C454 C453 1.404 . S
C454 C458 1.389 . S
C454 H476 0.930 . S
C455 C453 1.352 . S
C455 C457 1.374 . S
C455 H477 0.931 . S
C456 C457 1.359 . S
C456 C458 1.364 . S
C457 C455 1.374 . S
C457 C456 1.359 . S
C457 H478 0.931 . S
C458 C454 1.389 . S
C458 C456 1.364 . S
C458 H479 0.931 . S
C459 O470 1.256 . S
C459 O471 1.257 . S
O460 Gd440 2.377 . S
O460 C442 1.240 . S
O461 Gd441 2.395 . S
O461 C442 1.240 . S
O462 Gd440 2.448 1_554 S
O462 C443 1.249 . S
O463 Gd440 2.506 1_554 S
O463 C443 1.252 . S
O464 Gd440 2.435 . S
O464 C450 1.256 . S
O465 Gd440 2.717 . S
O465 Gd441 2.327 . S
O465 C450 1.257 . S
O466 Gd441 2.377 . S
O466 C451 1.240 . S
O467 Gd440 2.395 . S
O467 C451 1.240 . S
O468 Gd441 2.448 . S
O468 C452 1.249 . S
O469 Gd441 2.506 . S
O469 C452 1.252 . S
O470 Gd441 2.435 . S
O470 C459 1.256 . S
O471 Gd440 2.327 . S
O471 Gd441 2.717 . S
O471 C459 1.257 . S
H472 C445 0.930 . S
H473 C446 0.931 . S
H474 C448 0.931 . S
H475 C449 0.931 . S
H476 C454 0.930 . S
H477 C455 0.931 . S
H478 C457 0.931 . S
H479 C458 0.931 . S
Gd480 C483 2.818 . S
Gd480 O500 2.377 . S
Gd480 O502 2.448 . S
Gd480 O503 2.506 . S
Gd480 O504 2.435 . S
Gd480 O505 2.717 . S
Gd480 O507 2.395 1_565 S
Gd480 O511 2.327 . S
Gd481 C492 2.818 1_554 S
Gd481 O501 2.395 . S
Gd481 O505 2.327 . S
Gd481 O506 2.377 . S
Gd481 O508 2.448 1_554 S
Gd481 O509 2.506 1_554 S
Gd481 O510 2.435 . S
Gd481 O511 2.717 . S
C482 O500 1.240 . S
C482 O501 1.240 . S
C483 Gd480 2.818 . S
C483 C484 1.510 . S
C483 O502 1.249 . S
C483 O503 1.252 . S
C484 C483 1.510 . S
C484 C485 1.404 . S
C484 C486 1.352 . S
C485 C484 1.404 . S
C485 C489 1.389 . S
C485 H512 0.930 . S
C486 C484 1.352 . S
C486 C488 1.374 . S
C486 H513 0.931 . S
C487 C488 1.359 . S
C487 C489 1.364 . S
C488 C486 1.374 . S
C488 C487 1.359 . S
C488 H514 0.931 . S
C489 C485 1.389 . S
C489 C487 1.364 . S
C489 H515 0.931 . S
C490 O504 1.256 . S
C490 O505 1.257 . S
C491 O506 1.240 1_545 S
C491 O507 1.240 . S
C492 Gd481 2.818 1_556 S
C492 C493 1.510 . S
C492 O508 1.249 . S
C492 O509 1.252 . S
C493 C492 1.510 . S
C493 C494 1.404 . S
C493 C495 1.352 . S
C494 C493 1.404 . S
C494 C498 1.389 . S
C494 H516 0.930 . S
C495 C493 1.352 . S
C495 C497 1.374 . S
C495 H517 0.931 . S
C496 C497 1.359 . S
C496 C498 1.364 . S
C497 C495 1.374 . S
C497 C496 1.359 . S
C497 H518 0.931 . S
C498 C494 1.389 . S
C498 C496 1.364 . S
C498 H519 0.931 . S
C499 O510 1.256 . S
C499 O511 1.257 . S
O500 Gd480 2.377 . S
O500 C482 1.240 . S
O501 Gd481 2.395 . S
O501 C482 1.240 . S
O502 Gd480 2.448 . S
O502 C483 1.249 . S
O503 Gd480 2.506 . S
O503 C483 1.252 . S
O504 Gd480 2.435 . S
O504 C490 1.256 . S
O505 Gd480 2.717 . S
O505 Gd481 2.327 . S
O505 C490 1.257 . S
O506 Gd481 2.377 . S
O506 C491 1.240 1_565 S
O507 Gd480 2.395 1_545 S
O507 C491 1.240 . S
O508 Gd481 2.448 1_556 S
O508 C492 1.249 . S
O509 Gd481 2.506 1_556 S
O509 C492 1.252 . S
O510 Gd481 2.435 . S
O510 C499 1.256 . S
O511 Gd480 2.327 . S
O511 Gd481 2.717 . S
O511 C499 1.257 . S
H512 C485 0.930 . S
H513 C486 0.931 . S
H514 C488 0.931 . S
H515 C489 0.931 . S
H516 C494 0.930 . S
H517 C495 0.931 . S
H518 C497 0.931 . S
H519 C498 0.931 . S
Gd520 C523 2.818 1_554 S
Gd520 O540 2.377 . S
Gd520 O542 2.448 1_554 S
Gd520 O543 2.506 1_554 S
Gd520 O544 2.435 . S
Gd520 O545 2.717 . S
Gd520 O547 2.395 . S
Gd520 O551 2.327 . S
Gd521 C532 2.818 . S
Gd521 O541 2.395 . S
Gd521 O545 2.327 . S
Gd521 O546 2.377 . S
Gd521 O548 2.448 . S
Gd521 O549 2.506 . S
Gd521 O550 2.435 . S
Gd521 O551 2.717 . S
C522 O540 1.240 . S
C522 O541 1.240 . S
C523 Gd520 2.818 1_556 S
C523 C524 1.510 . S
C523 O542 1.249 . S
C523 O543 1.252 . S
C524 C523 1.510 . S
C524 C525 1.404 . S
C524 C526 1.352 . S
C525 C524 1.404 . S
C525 C529 1.389 . S
C525 H552 0.930 . S
C526 C524 1.352 . S
C526 C528 1.374 . S
C526 H553 0.931 . S
C527 C528 1.359 . S
C527 C529 1.364 . S
C528 C526 1.374 . S
C528 C527 1.359 . S
C528 H554 0.931 . S
C529 C525 1.389 . S
C529 C527 1.364 . S
C529 H555 0.931 . S
C530 O544 1.256 . S
C530 O545 1.257 . S
C531 O546 1.240 . S
C531 O547 1.240 . S
C532 Gd521 2.818 . S
C532 C533 1.510 . S
C532 O548 1.249 . S
C532 O549 1.252 . S
C533 C532 1.510 . S
C533 C534 1.404 . S
C533 C535 1.352 . S
C534 C533 1.404 . S
C534 C538 1.389 . S
C534 H556 0.930 . S
C535 C533 1.352 . S
C535 C537 1.374 . S
C535 H557 0.931 . S
C536 C537 1.359 . S
C536 C538 1.364 . S
C537 C535 1.374 . S
C537 C536 1.359 . S
C537 H558 0.931 . S
C538 C534 1.389 . S
C538 C536 1.364 . S
C538 H559 0.930 1_455 S
C539 O550 1.256 . S
C539 O551 1.257 . S
O540 Gd520 2.377 . S
O540 C522 1.240 . S
O541 Gd521 2.395 . S
O541 C522 1.240 . S
O542 Gd520 2.448 1_556 S
O542 C523 1.249 . S
O543 Gd520 2.506 1_556 S
O543 C523 1.252 . S
O544 Gd520 2.435 . S
O544 C530 1.256 . S
O545 Gd520 2.717 . S
O545 Gd521 2.327 . S
O545 C530 1.257 . S
O546 Gd521 2.377 . S
O546 C531 1.240 . S
O547 Gd520 2.395 . S
O547 C531 1.240 . S
O548 Gd521 2.448 . S
O548 C532 1.249 . S
O549 Gd521 2.506 . S
O549 C532 1.252 . S
O550 Gd521 2.435 . S
O550 C539 1.256 . S
O551 Gd520 2.327 . S
O551 Gd521 2.717 . S
O551 C539 1.257 . S
H552 C525 0.930 . S
H553 C526 0.931 . S
H554 C528 0.931 . S
H555 C529 0.931 . S
H556 C534 0.930 . S
H557 C535 0.931 . S
H558 C537 0.931 . S
H559 C538 0.930 1_655 S
Gd560 C563 2.818 . S
Gd560 O580 2.377 . S
Gd560 O582 2.448 . S
Gd560 O583 2.506 . S
Gd560 O584 2.435 . S
Gd560 O585 2.717 . S
Gd560 O587 2.395 . S
Gd560 O591 2.327 . S
Gd561 C572 2.818 1_554 S
Gd561 O581 2.395 . S
Gd561 O585 2.327 . S
Gd561 O586 2.377 . S
Gd561 O588 2.448 1_554 S
Gd561 O589 2.506 1_554 S
Gd561 O590 2.435 . S
Gd561 O591 2.717 . S
C562 O580 1.240 . S
C562 O581 1.240 . S
C563 Gd560 2.818 . S
C563 C564 1.510 . S
C563 O582 1.249 . S
C563 O583 1.252 . S
C564 C563 1.510 . S
C564 C565 1.404 . S
C564 C566 1.352 . S
C565 C564 1.404 . S
C565 C569 1.389 . S
C565 H592 0.930 . S
C566 C564 1.352 . S
C566 C568 1.374 . S
C566 H593 0.931 . S
C567 C568 1.359 . S
C567 C569 1.364 . S
C568 C566 1.374 . S
C568 C567 1.359 . S
C568 H594 0.931 . S
C569 C565 1.389 . S
C569 C567 1.364 . S
C569 H595 0.931 . S
C570 O584 1.256 . S
C570 O585 1.257 . S
C571 O586 1.240 . S
C571 O587 1.240 . S
C572 Gd561 2.818 1_556 S
C572 C573 1.510 . S
C572 O588 1.249 . S
C572 O589 1.252 . S
C573 C572 1.510 . S
C573 C574 1.404 . S
C573 C575 1.352 . S
C574 C573 1.404 . S
C574 C578 1.389 . S
C574 H596 0.930 . S
C575 C573 1.352 . S
C575 C577 1.374 . S
C575 H597 0.931 . S
C576 C577 1.359 . S
C576 C578 1.364 . S
C577 C575 1.374 . S
C577 C576 1.359 . S
C577 H598 0.931 . S
C578 C574 1.389 . S
C578 C576 1.364 . S
C578 H599 0.931 . S
C579 O590 1.256 . S
C579 O591 1.257 . S
O580 Gd560 2.377 . S
O580 C562 1.240 . S
O581 Gd561 2.395 . S
O581 C562 1.240 . S
O582 Gd560 2.448 . S
O582 C563 1.249 . S
O583 Gd560 2.506 . S
O583 C563 1.252 . S
O584 Gd560 2.435 . S
O584 C570 1.256 . S
O585 Gd560 2.717 . S
O585 Gd561 2.327 . S
O585 C570 1.257 . S
O586 Gd561 2.377 . S
O586 C571 1.240 . S
O587 Gd560 2.395 . S
O587 C571 1.240 . S
O588 Gd561 2.448 1_556 S
O588 C572 1.249 . S
O589 Gd561 2.506 1_556 S
O589 C572 1.252 . S
O590 Gd561 2.435 . S
O590 C579 1.256 . S
O591 Gd560 2.327 . S
O591 Gd561 2.717 . S
O591 C579 1.257 . S
H592 C565 0.930 . S
H593 C566 0.931 . S
H594 C568 0.931 . S
H595 C569 0.931 . S
H596 C574 0.930 . S
H597 C575 0.931 . S
H598 C577 0.931 . S
H599 C578 0.931 . S
Gd600 C603 2.818 . S
Gd600 O620 2.377 . S
Gd600 O622 2.448 . S
Gd600 O623 2.506 . S
Gd600 O624 2.435 . S
Gd600 O625 2.717 . S
Gd600 O627 2.395 . S
Gd600 O631 2.327 . S
Gd601 C612 2.818 1_554 S
Gd601 O621 2.395 . S
Gd601 O625 2.327 . S
Gd601 O626 2.377 . S
Gd601 O628 2.448 1_554 S
Gd601 O629 2.506 1_554 S
Gd601 O630 2.435 . S
Gd601 O631 2.717 . S
C602 O620 1.240 . S
C602 O621 1.240 . S
C603 Gd600 2.818 . S
C603 C604 1.510 . S
C603 O622 1.249 . S
C603 O623 1.252 . S
C604 C603 1.510 . S
C604 C605 1.404 . S
C604 C606 1.352 . S
C605 C604 1.404 . S
C605 C609 1.389 . S
C605 H632 0.930 . S
C606 C604 1.352 . S
C606 C608 1.374 . S
C606 H633 0.931 . S
C607 C608 1.359 . S
C607 C609 1.364 . S
C608 C606 1.374 . S
C608 C607 1.359 . S
C608 H634 0.931 . S
C609 C605 1.389 . S
C609 C607 1.364 . S
C609 H635 0.931 . S
C610 O624 1.256 . S
C610 O625 1.257 . S
C611 O626 1.240 . S
C611 O627 1.240 . S
C612 Gd601 2.818 1_556 S
C612 C613 1.510 . S
C612 O628 1.249 . S
C612 O629 1.252 . S
C613 C612 1.510 . S
C613 C614 1.404 . S
C613 C615 1.352 . S
C614 C613 1.404 . S
C614 C618 1.389 . S
C614 H636 0.930 . S
C615 C613 1.352 . S
C615 C617 1.374 . S
C615 H637 0.931 . S
C616 C617 1.359 . S
C616 C618 1.364 . S
C617 C615 1.374 . S
C617 C616 1.359 . S
C617 H638 0.931 . S
C618 C614 1.389 . S
C618 C616 1.364 . S
C618 H639 0.931 . S
C619 O630 1.256 . S
C619 O631 1.257 . S
O620 Gd600 2.377 . S
O620 C602 1.240 . S
O621 Gd601 2.395 . S
O621 C602 1.240 . S
O622 Gd600 2.448 . S
O622 C603 1.249 . S
O623 Gd600 2.506 . S
O623 C603 1.252 . S
O624 Gd600 2.435 . S
O624 C610 1.256 . S
O625 Gd600 2.717 . S
O625 Gd601 2.327 . S
O625 C610 1.257 . S
O626 Gd601 2.377 . S
O626 C611 1.240 . S
O627 Gd600 2.395 . S
O627 C611 1.240 . S
O628 Gd601 2.448 1_556 S
O628 C612 1.249 . S
O629 Gd601 2.506 1_556 S
O629 C612 1.252 . S
O630 Gd601 2.435 . S
O630 C619 1.256 . S
O631 Gd600 2.327 . S
O631 Gd601 2.717 . S
O631 C619 1.257 . S
H632 C605 0.930 . S
H633 C606 0.931 . S
H634 C608 0.931 . S
H635 C609 0.931 . S
H636 C614 0.930 . S
H637 C615 0.931 . S
H638 C617 0.931 . S
H639 C618 0.931 . S
Gd640 C643 2.818 1_554 S
Gd640 O660 2.377 . S
Gd640 O662 2.448 1_554 S
Gd640 O663 2.506 1_554 S
Gd640 O664 2.435 . S
Gd640 O665 2.717 . S
Gd640 O667 2.395 . S
Gd640 O671 2.327 . S
Gd641 C652 2.818 . S
Gd641 O661 2.395 1_565 S
Gd641 O665 2.327 . S
Gd641 O666 2.377 . S
Gd641 O668 2.448 . S
Gd641 O669 2.506 . S
Gd641 O670 2.435 . S
Gd641 O671 2.717 . S
C642 O660 1.240 1_545 S
C642 O661 1.240 . S
C643 Gd640 2.818 1_556 S
C643 C644 1.510 . S
C643 O662 1.249 . S
C643 O663 1.252 . S
C644 C643 1.510 . S
C644 C645 1.404 . S
C644 C646 1.352 . S
C645 C644 1.404 . S
C645 C649 1.389 . S
C645 H672 0.930 . S
C646 C644 1.352 . S
C646 C648 1.374 . S
C646 H673 0.931 . S
C647 C648 1.359 . S
C647 C649 1.364 . S
C648 C646 1.374 . S
C648 C647 1.359 . S
C648 H674 0.931 . S
C649 C645 1.389 . S
C649 C647 1.364 . S
C649 H675 0.931 . S
C650 O664 1.256 . S
C650 O665 1.257 . S
C651 O666 1.240 . S
C651 O667 1.240 . S
C652 Gd641 2.818 . S
C652 C653 1.510 . S
C652 O668 1.249 . S
C652 O669 1.252 . S
C653 C652 1.510 . S
C653 C654 1.404 . S
C653 C655 1.352 . S
C654 C653 1.404 . S
C654 C658 1.389 . S
C654 H676 0.930 . S
C655 C653 1.352 . S
C655 C657 1.374 . S
C655 H677 0.931 . S
C656 C657 1.359 . S
C656 C658 1.364 . S
C657 C655 1.374 . S
C657 C656 1.359 . S
C657 H678 0.931 . S
C658 C654 1.389 . S
C658 C656 1.364 . S
C658 H679 0.931 . S
C659 O670 1.256 . S
C659 O671 1.257 . S
O660 Gd640 2.377 . S
O660 C642 1.240 1_565 S
O661 Gd641 2.395 1_545 S
O661 C642 1.240 . S
O662 Gd640 2.448 1_556 S
O662 C643 1.249 . S
O663 Gd640 2.506 1_556 S
O663 C643 1.252 . S
O664 Gd640 2.435 . S
O664 C650 1.256 . S
O665 Gd640 2.717 . S
O665 Gd641 2.327 . S
O665 C650 1.257 . S
O666 Gd641 2.377 . S
O666 C651 1.240 . S
O667 Gd640 2.395 . S
O667 C651 1.240 . S
O668 Gd641 2.448 . S
O668 C652 1.249 . S
O669 Gd641 2.506 . S
O669 C652 1.252 . S
O670 Gd641 2.435 . S
O670 C659 1.256 . S
O671 Gd640 2.327 . S
O671 Gd641 2.717 . S
O671 C659 1.257 . S
H672 C645 0.930 . S
H673 C646 0.931 . S
H674 C648 0.931 . S
H675 C649 0.931 . S
H676 C654 0.930 . S
H677 C655 0.931 . S
H678 C657 0.931 . S
H679 C658 0.931 . S
Gd680 C683 2.818 . S
Gd680 O700 2.377 . S
Gd680 O702 2.448 . S
Gd680 O703 2.506 . S
Gd680 O704 2.435 . S
Gd680 O705 2.717 . S
Gd680 O707 2.395 . S
Gd680 O711 2.327 . S
Gd681 C692 2.818 1_554 S
Gd681 O701 2.395 . S
Gd681 O705 2.327 . S
Gd681 O706 2.377 . S
Gd681 O708 2.448 1_554 S
Gd681 O709 2.506 1_554 S
Gd681 O710 2.435 . S
Gd681 O711 2.717 . S
C682 O700 1.240 . S
C682 O701 1.240 . S
C683 Gd680 2.818 . S
C683 C684 1.510 . S
C683 O702 1.249 . S
C683 O703 1.252 . S
C684 C683 1.510 . S
C684 C685 1.404 . S
C684 C686 1.352 . S
C685 C684 1.404 . S
C685 C689 1.389 . S
C685 H712 0.930 . S
C686 C684 1.352 . S
C686 C688 1.374 . S
C686 H713 0.931 . S
C687 C688 1.359 . S
C687 C689 1.364 . S
C688 C686 1.374 . S
C688 C687 1.359 . S
C688 H714 0.931 . S
C689 C685 1.389 . S
C689 C687 1.364 . S
C689 H715 0.931 . S
C690 O704 1.256 . S
C690 O705 1.257 . S
C691 O706 1.240 . S
C691 O707 1.240 . S
C692 Gd681 2.818 1_556 S
C692 C693 1.510 . S
C692 O708 1.249 . S
C692 O709 1.252 . S
C693 C692 1.510 . S
C693 C694 1.404 . S
C693 C695 1.352 . S
C694 C693 1.404 . S
C694 C698 1.389 . S
C694 H716 0.930 . S
C695 C693 1.352 . S
C695 C697 1.374 . S
C695 H717 0.931 . S
C696 C697 1.359 . S
C696 C698 1.364 . S
C697 C695 1.374 . S
C697 C696 1.359 . S
C697 H718 0.931 . S
C698 C694 1.389 . S
C698 C696 1.364 . S
C698 H719 0.931 . S
C699 O710 1.256 . S
C699 O711 1.257 . S
O700 Gd680 2.377 . S
O700 C682 1.240 . S
O701 Gd681 2.395 . S
O701 C682 1.240 . S
O702 Gd680 2.448 . S
O702 C683 1.249 . S
O703 Gd680 2.506 . S
O703 C683 1.252 . S
O704 Gd680 2.435 . S
O704 C690 1.256 . S
O705 Gd680 2.717 . S
O705 Gd681 2.327 . S
O705 C690 1.257 . S
O706 Gd681 2.377 . S
O706 C691 1.240 . S
O707 Gd680 2.395 . S
O707 C691 1.240 . S
O708 Gd681 2.448 1_556 S
O708 C692 1.249 . S
O709 Gd681 2.506 1_556 S
O709 C692 1.252 . S
O710 Gd681 2.435 . S
O710 C699 1.256 . S
O711 Gd680 2.327 . S
O711 Gd681 2.717 . S
O711 C699 1.257 . S
H712 C685 0.930 . S
H713 C686 0.931 . S
H714 C688 0.931 . S
H715 C689 0.931 . S
H716 C694 0.930 . S
H717 C695 0.931 . S
H718 C697 0.931 . S
H719 C698 0.931 . S
C531 C11 4.236 . S
C59 C579 4.268 . S
C91 C499 4.225 . S
C99 C299 4.057 . S
C339 C19 4.450 . S
C51 C259 4.366 . S
C122 C410 4.186 . S
C170 C450 3.831 . S
C370 C202 3.751 . S
C650 C210 4.286 . S
C130 C682 4.241 . S
C602 C162 4.250 . S
C331 C539 4.082 1_556 S
C251 C571 4.048 1_556 S
C291 C491 4.463 1_556 S
C362 C642 4.670 1_556 S
C690 C402 4.326 1_554 S
C610 C442 4.704 1_554 S
C10 C179 1.396 . S
C211 C42 2.448 . S
C131 C90 1.832 . S
C171 C82 2.504 . S
C219 C2 2.079 . S
C139 C50 1.602 . S
C411 C242 2.512 . S
C451 C282 2.646 . S
C371 C322 2.622 . S
C419 C330 1.527 . S
C459 C250 1.580 . S
C379 C290 1.413 . S
C659 C490 1.548 . S
C691 C522 2.463 . S
C570 C611 2.041 . S
C562 C651 2.680 . S
C482 C699 2.026 . S
C619 C530 1.529 . S
C16 C7 2.202 1_654 S
C47 C56 2.505 1_554 S
C96 C87 1.807 1_554 S
C127 C136 2.539 1_455 S
C167 C176 1.947 . S
C216 C207 2.492 1_554 S
C256 C247 3.270 . S
C287 C296 1.933 . S
C336 C327 2.992 . S
C367 C376 2.102 . S
C407 C416 2.963 . S
C447 C456 1.734 . S
C487 C496 2.201 . S
C527 C536 2.393 . S
C576 C567 1.980 . S
C616 C607 2.685 . S
C647 C656 2.065 . S
C687 C696 2.213 . S
