# Generated by pormake.
# Topology crs, (6)-cn, num edge types: 1
# Building blocks:
#     Node 0, Type 0, BuildingBlock: UKALOJ_clean_sbu_0, # of connection points: 6
#     Node 1, Type 0, BuildingBlock: UKALOJ_clean_sbu_0, # of connection points: 6
#     Node 2, Type 0, BuildingBlock: UKALOJ_clean_sbu_0, # of connection points: 6
#     Node 3, Type 0, BuildingBlock: UKALOJ_clean_sbu_0, # of connection points: 6
#     Node 4, Type 0, BuildingBlock: UKALOJ_clean_sbu_0, # of connection points: 6
#     Node 5, Type 0, BuildingBlock: UKALOJ_clean_sbu_0, # of connection points: 6
#     Node 6, Type 0, BuildingBlock: UKALOJ_clean_sbu_0, # of connection points: 6
#     Node 7, Type 0, BuildingBlock: UKALOJ_clean_sbu_0, # of connection points: 6
#     Node 8, Type 0, BuildingBlock: UKALOJ_clean_sbu_0, # of connection points: 6
#     Node 9, Type 0, BuildingBlock: UKALOJ_clean_sbu_0, # of connection points: 6
#     Node 10, Type 0, BuildingBlock: UKALOJ_clean_sbu_0, # of connection points: 6
#     Node 11, Type 0, BuildingBlock: UKALOJ_clean_sbu_0, # of connection points: 6
#     Node 12, Type 0, BuildingBlock: UKALOJ_clean_sbu_0, # of connection points: 6
#     Node 13, Type 0, BuildingBlock: UKALOJ_clean_sbu_0, # of connection points: 6
#     Node 14, Type 0, BuildingBlock: UKALOJ_clean_sbu_0, # of connection points: 6
#     Node 15, Type 0, BuildingBlock: UKALOJ_clean_sbu_0, # of connection points: 6
#     Edge 16, Type (0, 0), BuildingBlock: XUDNAN_clean_linker_2, # of connection points: 2
#     Edge 17, Type (0, 0), BuildingBlock: XUDNAN_clean_linker_2, # of connection points: 2
#     Edge 18, Type (0, 0), BuildingBlock: XUDNAN_clean_linker_2, # of connection points: 2
#     Edge 19, Type (0, 0), BuildingBlock: XUDNAN_clean_linker_2, # of connection points: 2
#     Edge 20, Type (0, 0), BuildingBlock: XUDNAN_clean_linker_2, # of connection points: 2
#     Edge 21, Type (0, 0), BuildingBlock: XUDNAN_clean_linker_2, # of connection points: 2
#     Edge 22, Type (0, 0), BuildingBlock: XUDNAN_clean_linker_2, # of connection points: 2
#     Edge 23, Type (0, 0), BuildingBlock: XUDNAN_clean_linker_2, # of connection points: 2
#     Edge 24, Type (0, 0), BuildingBlock: XUDNAN_clean_linker_2, # of connection points: 2
#     Edge 25, Type (0, 0), BuildingBlock: XUDNAN_clean_linker_2, # of connection points: 2
#     Edge 26, Type (0, 0), BuildingBlock: XUDNAN_clean_linker_2, # of connection points: 2
#     Edge 27, Type (0, 0), BuildingBlock: XUDNAN_clean_linker_2, # of connection points: 2
#     Edge 28, Type (0, 0), BuildingBlock: XUDNAN_clean_linker_2, # of connection points: 2
#     Edge 29, Type (0, 0), BuildingBlock: XUDNAN_clean_linker_2, # of connection points: 2
#     Edge 30, Type (0, 0), BuildingBlock: XUDNAN_clean_linker_2, # of connection points: 2
#     Edge 31, Type (0, 0), BuildingBlock: XUDNAN_clean_linker_2, # of connection points: 2
#     Edge 32, Type (0, 0), BuildingBlock: XUDNAN_clean_linker_2, # of connection points: 2
#     Edge 33, Type (0, 0), BuildingBlock: XUDNAN_clean_linker_2, # of connection points: 2
#     Edge 34, Type (0, 0), BuildingBlock: XUDNAN_clean_linker_2, # of connection points: 2
#     Edge 35, Type (0, 0), BuildingBlock: XUDNAN_clean_linker_2, # of connection points: 2
#     Edge 36, Type (0, 0), BuildingBlock: XUDNAN_clean_linker_2, # of connection points: 2
#     Edge 37, Type (0, 0), BuildingBlock: XUDNAN_clean_linker_2, # of connection points: 2
#     Edge 38, Type (0, 0), BuildingBlock: XUDNAN_clean_linker_2, # of connection points: 2
#     Edge 39, Type (0, 0), BuildingBlock: XUDNAN_clean_linker_2, # of connection points: 2
#     Edge 40, Type (0, 0), BuildingBlock: XUDNAN_clean_linker_2, # of connection points: 2
#     Edge 41, Type (0, 0), BuildingBlock: XUDNAN_clean_linker_2, # of connection points: 2
#     Edge 42, Type (0, 0), BuildingBlock: XUDNAN_clean_linker_2, # of connection points: 2
#     Edge 43, Type (0, 0), BuildingBlock: XUDNAN_clean_linker_2, # of connection points: 2
#     Edge 44, Type (0, 0), BuildingBlock: XUDNAN_clean_linker_2, # of connection points: 2
#     Edge 45, Type (0, 0), BuildingBlock: XUDNAN_clean_linker_2, # of connection points: 2
#     Edge 46, Type (0, 0), BuildingBlock: XUDNAN_clean_linker_2, # of connection points: 2
#     Edge 47, Type (0, 0), BuildingBlock: XUDNAN_clean_linker_2, # of connection points: 2
#     Edge 48, Type (0, 0), BuildingBlock: XUDNAN_clean_linker_2, # of connection points: 2
#     Edge 49, Type (0, 0), BuildingBlock: XUDNAN_clean_linker_2, # of connection points: 2
#     Edge 50, Type (0, 0), BuildingBlock: XUDNAN_clean_linker_2, # of connection points: 2
#     Edge 51, Type (0, 0), BuildingBlock: XUDNAN_clean_linker_2, # of connection points: 2
#     Edge 52, Type (0, 0), BuildingBlock: XUDNAN_clean_linker_2, # of connection points: 2
#     Edge 53, Type (0, 0), BuildingBlock: XUDNAN_clean_linker_2, # of connection points: 2
#     Edge 54, Type (0, 0), BuildingBlock: XUDNAN_clean_linker_2, # of connection points: 2
#     Edge 55, Type (0, 0), BuildingBlock: XUDNAN_clean_linker_2, # of connection points: 2
#     Edge 56, Type (0, 0), BuildingBlock: XUDNAN_clean_linker_2, # of connection points: 2
#     Edge 57, Type (0, 0), BuildingBlock: XUDNAN_clean_linker_2, # of connection points: 2
#     Edge 58, Type (0, 0), BuildingBlock: XUDNAN_clean_linker_2, # of connection points: 2
#     Edge 59, Type (0, 0), BuildingBlock: XUDNAN_clean_linker_2, # of connection points: 2
#     Edge 60, Type (0, 0), BuildingBlock: XUDNAN_clean_linker_2, # of connection points: 2
#     Edge 61, Type (0, 0), BuildingBlock: XUDNAN_clean_linker_2, # of connection points: 2
#     Edge 62, Type (0, 0), BuildingBlock: XUDNAN_clean_linker_2, # of connection points: 2
#     Edge 63, Type (0, 0), BuildingBlock: XUDNAN_clean_linker_2, # of connection points: 2
# Relax obj value: 0.488
# Max RMSD: 0.349
# Mean RMSD: 0.257
data_MOF--net-crs--node1-UKALOJ_clean_sbu_0--edge1-XUDNAN_clean_linker_2
_symmetry_space_group_name_H-M    P1
_symmetry_Int_Tables_number       1
_symmetry_cell_setting            triclinic
loop_
_symmetry_equiv_pos_as_xyz
'x, y, z'
_cell_length_a     45.430799
_cell_length_b     45.449805
_cell_length_c     40.771668
_cell_angle_alpha  86.546077
_cell_angle_beta   93.344275
_cell_angle_gamma 102.77529
loop_
_atom_site_label
_atom_site_type_symbol
_atom_site_fract_x
_atom_site_fract_y
_atom_site_fract_z
_atom_type_partial_charge
Zn0 Zn 0.9864 0.01176 0.00403 0.0
O1 O 0.02909 0.01451 0.02656 0.0
C2 C 0.01187 0.06421 0.95879 0.0
Zn3 Zn 0.00374 -0.00141 0.95842 0.0
C4 C 0.0509 0.00841 0.0123 0.0
O5 O 0.04726 0.00032 0.98276 0.0
C6 C 0.93874 0.00217 0.95133 0.0
O7 O 0.9902 0.95349 0.97468 0.0
O8 O 0.97381 0.96547 0.02066 0.0
N9 N 0.0189 0.98608 0.91671 0.0
C10 C 0.00465 0.9676 0.89342 0.0
C11 C 0.05003 0.98419 0.87922 0.0
N12 N 0.0471 -0.00358 0.90787 0.0
N13 N 0.02352 0.96647 0.86957 0.0
C14 C 0.98184 0.05074 0.06257 0.0
C15 C 0.94336 0.02533 0.08684 0.0
N16 N 0.97148 0.0255 0.04586 0.0
N17 N 0.94757 0.00972 0.061 0.0
N18 N 0.96438 0.05133 0.088 0.0
H19 H 0.02141 0.08351 0.07835 0.0
H20 H 0.00353 0.09293 0.03993 0.0
H21 H 0.02599 0.0648 0.04199 0.0
C22 C 0.00992 0.07413 0.05528 0.0
C23 C 0.97291 0.94915 0.89462 0.0
H24 H 0.96434 0.94698 0.91962 0.0
H25 H 0.97176 0.92621 0.88596 0.0
H26 H 0.95801 0.96002 0.87775 0.0
O27 O 0.96026 -0.00264 0.93533 0.0
O28 O 0.94351 0.00872 0.98127 0.0
C29 C 0.978 0.94548 0.00193 0.0
O30 O -0.00076 0.05732 0.98601 0.0
O31 O 0.01701 0.04361 0.94183 0.0
Zn32 Zn 0.05908 0.27348 0.2639 0.0
O33 O 0.04168 0.2327 0.24176 0.0
C34 C 0.09001 0.3024 0.20325 0.0
Zn35 Zn 0.03004 0.29547 0.23012 0.0
C36 C 0.02517 0.23116 0.21552 0.0
O37 O 0.01801 0.25501 0.20277 0.0
C38 C 0.06366 0.33651 0.28111 0.0
O39 O 0.99392 0.27729 0.26012 0.0
O40 O 0.02407 0.26226 0.29843 0.0
N41 N 0.00304 0.31506 0.19783 0.0
C42 C 0.98106 0.33026 0.20099 0.0
C43 C 0.9833 0.32391 0.14989 0.0
N44 N 0.0045 0.31141 0.16605 0.0
N45 N 0.96821 0.33601 0.17112 0.0
C46 C 0.08248 0.22553 0.30849 0.0
C47 C 0.13 0.24034 0.30458 0.0
N48 N 0.08755 0.25301 0.29287 0.0
N49 N 0.11714 0.26243 0.29098 0.0
N50 N 0.10877 0.21668 0.31549 0.0
H51 H 0.04246 0.22308 0.33459 0.0
H52 H 0.05353 0.18774 0.3342 0.0
H53 H 0.03641 0.20289 0.29754 0.0
C54 C 0.05206 0.20857 0.31918 0.0
C55 C 0.97151 0.33818 0.23333 0.0
H56 H 0.98145 0.32655 0.25428 0.0
H57 H 0.94651 0.33255 0.23411 0.0
H58 H 0.97956 0.36279 0.23624 0.0
O59 O 0.04234 0.33513 0.25905 0.0
O60 O 0.07615 0.31419 0.28646 0.0
C61 C -0.00229 0.26499 0.28837 0.0
O62 O 0.09313 0.28452 0.22777 0.0
O63 O 0.06614 0.31258 0.19965 0.0
Zn64 Zn 0.77533 0.26771 0.55101 0.0
O65 O 0.73256 0.24944 0.53102 0.0
C66 C 0.78025 0.20624 0.58018 0.0
Zn67 Zn 0.79545 0.24051 0.51851 0.0
C68 C 0.72905 0.23196 0.50738 0.0
O69 O 0.75174 0.22388 0.49689 0.0
C70 C 0.8416 0.27767 0.5616 0.0
O71 O 0.79987 0.27741 0.48469 0.0
O72 O 0.77856 0.30442 0.51486 0.0
N73 N 0.81409 0.21781 0.48621 0.0
C74 C 0.83913 0.22646 0.46866 0.0
C75 C 0.81593 0.18327 0.45282 0.0
N76 N 0.79986 0.19086 0.47648 0.0
N77 N 0.84086 0.2051 0.44769 0.0
C78 C 0.73593 0.28073 0.60516 0.0
C79 C 0.74801 0.32871 0.60714 0.0
N80 N 0.75691 0.29089 0.58273 0.0
N81 N 0.7644 0.32072 0.58395 0.0
N82 N 0.73032 0.3039 0.62095 0.0
H83 H 0.69623 0.24704 0.618 0.0
H84 H 0.73164 0.23791 0.63113 0.0
H85 H 0.71879 0.23541 0.58852 0.0
C86 C 0.71967 0.24842 0.61073 0.0
C87 C 0.86087 0.25656 0.47026 0.0
H88 H 0.85186 0.27315 0.48301 0.0
H89 H 0.86677 0.26586 0.44511 0.0
H90 H 0.88197 0.25348 0.48379 0.0
O91 O 0.83825 0.25768 0.54046 0.0
O92 O 0.81871 0.28651 0.57032 0.0
C93 C 0.79068 0.30136 0.48829 0.0
O94 O 0.77242 0.23047 0.58618 0.0
O95 O 0.79063 0.2037 0.55251 0.0
Zn96 Zn 0.69325 0.99177 0.78495 0.0
O97 O 0.70996 0.03449 0.75889 0.0
C98 C 0.65483 0.97689 0.72492 0.0
Zn99 Zn 0.71585 0.96893 0.75049 0.0
C100 C 0.72942 0.03508 0.73747 0.0
O101 O 0.73636 0.01074 0.73054 0.0
C102 C 0.68416 0.9249 0.79902 0.0
O103 O 0.75319 0.97124 0.78553 0.0
O104 O 0.7319 -0.00138 0.81557 0.0
N105 N 0.73587 0.94882 0.71671 0.0
C106 C 0.75479 0.92957 0.71904 0.0
C107 C 0.74673 0.93983 0.66803 0.0
N108 N 0.73084 0.95498 0.685 0.0
N109 N 0.76188 0.92355 0.68871 0.0
C110 C 0.65595 0.03394 0.81301 0.0
C111 C 0.65235 0.01771 0.86307 0.0
N112 N 0.67172 0.01193 0.81742 0.0
N113 N 0.66952 0.00201 0.84858 0.0
N114 N 0.64366 0.03805 0.84135 0.0
H115 H 0.65489 0.03749 0.75959 0.0
H116 H 0.66727 0.07234 0.77954 0.0
H117 H 0.62783 0.05417 0.77804 0.0
C118 C 0.65109 0.05014 0.78062 0.0
C119 C 0.76827 0.9193 0.75097 0.0
H120 H 0.78677 0.93784 0.75966 0.0
H121 H 0.77791 0.89927 0.74848 0.0
H122 H 0.75099 0.91416 0.76983 0.0
O123 O 0.69598 0.92672 0.77131 0.0
O124 O 0.67937 0.94867 0.81081 0.0
C125 C 0.75362 0.98611 0.81114 0.0
O126 O 0.65412 0.98447 0.75422 0.0
O127 O 0.67812 0.96878 0.71609 0.0
Zn128 Zn 0.56694 0.7707 0.30705 0.0
O129 O 0.54726 0.72974 0.28508 0.0
C130 C 0.59781 0.79576 0.24661 0.0
Zn131 Zn 0.53801 0.7932 0.27245 0.0
C132 C 0.52742 0.72827 0.2616 0.0
O133 O 0.51991 0.75222 0.24986 0.0
C134 C 0.57702 0.83563 0.31763 0.0
O135 O 0.50338 0.78235 0.30615 0.0
O136 O 0.53258 0.76124 0.34077 0.0
N137 N 0.5137 0.81556 0.24001 0.0
C138 C 0.48406 0.81244 0.23171 0.0
C139 C 0.50803 0.8484 0.20101 0.0
N140 N 0.52848 0.83789 0.22086 0.0
N141 N 0.47998 0.83279 0.2073 0.0
C142 C 0.5956 0.72229 0.3467 0.0
C143 C 0.63696 0.74936 0.36505 0.0
N144 N 0.59494 0.75123 0.33822 0.0
N145 N 0.62053 0.76804 0.35009 0.0
N146 N 0.62175 0.7205 0.36328 0.0
H147 H 0.54845 0.70169 0.34131 0.0
H148 H 0.57216 0.67619 0.35649 0.0
H149 H 0.57248 0.68896 0.31387 0.0
C150 C 0.57063 0.6957 0.33923 0.0
C151 C 0.45942 0.78863 0.24629 0.0
H152 H 0.46786 0.76817 0.25441 0.0
H153 H 0.44008 0.78251 0.22824 0.0
H154 H 0.45133 0.79761 0.26795 0.0
O155 O 0.55638 0.83407 0.29502 0.0
O156 O 0.58553 0.81189 0.32805 0.0
C157 C 0.50726 0.76807 0.33334 0.0
O158 O 0.60129 0.78033 0.27296 0.0
O159 O 0.57295 0.80355 0.24005 0.0
Zn160 Zn 0.2497 0.80266 0.51066 0.0
O161 O 0.20934 0.76889 0.51727 0.0
C162 C 0.28501 0.77153 0.55713 0.0
Zn163 Zn 0.26909 0.77038 0.48451 0.0
C164 C 0.2083 0.74296 0.50673 0.0
O165 O 0.23058 0.73798 0.49244 0.0
C166 C 0.31162 0.82895 0.48857 0.0
O167 O 0.25017 0.78237 0.4382 0.0
O168 O 0.23127 0.81399 0.46481 0.0
N169 N 0.28702 0.7387 0.46468 0.0
C170 C 0.3065 0.74079 0.44059 0.0
C171 C 0.30348 0.69772 0.46544 0.0
N172 N 0.28472 0.7117 0.47969 0.0
N173 N 0.31747 0.71544 0.44074 0.0
C174 C 0.21035 0.83135 0.55294 0.0
C175 C 0.21312 0.87446 0.52825 0.0
N176 N 0.23118 0.83431 0.53013 0.0
N177 N 0.23327 0.86133 0.51518 0.0
N178 N 0.1985 0.85617 0.55214 0.0
H179 H 0.17656 0.79123 0.56291 0.0
H180 H 0.19638 0.80788 0.59888 0.0
H181 H 0.21488 0.78745 0.57357 0.0
C182 C 0.19904 0.80278 0.57315 0.0
C183 C 0.31652 0.7685 0.41857 0.0
H184 H 0.31203 0.76263 0.39252 0.0
H185 H 0.34118 0.77738 0.42252 0.0
H186 H 0.30417 0.78627 0.42247 0.0
O187 O 0.30836 0.80289 0.47766 0.0
O188 O 0.29008 0.83563 0.50304 0.0
C189 C 0.23421 0.80206 0.4382 0.0
O190 O 0.26883 0.79108 0.5567 0.0
O191 O 0.28777 0.75907 0.53075 0.0
Zn192 Zn 0.33557 0.62986 0.78251 0.0
O193 O 0.35136 0.6713 0.75902 0.0
C194 C 0.30934 0.60403 0.71786 0.0
Zn195 Zn 0.36595 0.60826 0.75599 0.0
C196 C 0.37114 0.67419 0.73772 0.0
O197 O 0.38221 0.65168 0.73207 0.0
C198 C 0.32768 0.56474 0.80127 0.0
O199 O 0.39741 0.61828 0.79555 0.0
O200 O 0.36827 0.64099 0.8215 0.0
N201 N 0.39554 0.59109 0.7311 0.0
C202 C 0.40707 0.56627 0.73648 0.0
C203 C 0.42131 0.58617 0.68974 0.0
N204 N 0.40459 0.60352 0.70215 0.0
N205 N 0.42309 0.56256 0.71074 0.0
C206 C 0.28026 0.65621 0.79285 0.0
C207 C 0.27309 0.64621 0.84383 0.0
N208 N 0.30433 0.64612 0.80591 0.0
N209 N 0.30003 0.64027 0.83773 0.0
N210 N 0.26025 0.65615 0.81597 0.0
H211 H 0.29757 0.67309 0.74532 0.0
H212 H 0.26371 0.68463 0.75541 0.0
H213 H 0.2615 0.64678 0.74406 0.0
C214 C 0.27576 0.6658 0.75736 0.0
C215 C 0.404 0.54671 0.76757 0.0
H216 H 0.40301 0.56041 0.78893 0.0
H217 H 0.42328 0.5354 0.77164 0.0
H218 H 0.38282 0.52909 0.76572 0.0
O219 O 0.347 0.56479 0.77985 0.0
O220 O 0.31991 0.58901 0.8065 0.0
C221 C 0.39274 0.63183 0.82047 0.0
O222 O 0.30296 0.61669 0.74264 0.0
O223 O 0.33516 0.59808 0.71697 0.0
Zn224 Zn 0.01868 0.49674 0.49499 0.0
O225 O 0.03635 0.47774 0.45709 0.0
C226 C 0.00924 0.43828 0.53416 0.0
Zn227 Zn 0.05829 0.49102 0.52672 0.0
C228 C 0.06008 0.46736 0.46061 0.0
O229 O 0.07491 0.46947 0.48818 0.0
C230 C 0.0148 0.52014 0.55939 0.0
O231 O 0.08066 0.53264 0.50773 0.0
O232 O 0.04047 0.5412 0.48005 0.0
N233 N 0.09574 0.48843 0.55567 0.0
C234 C 0.11449 0.50912 0.57395 0.0
C235 C 0.13493 0.47131 0.57243 0.0
N236 N 0.10836 0.46486 0.55503 0.0
N237 N 0.13911 0.49883 0.58476 0.0
C238 C 0.98038 0.50855 0.43311 0.0
C239 C 0.93619 0.50141 0.45139 0.0
N240 N 0.98241 0.50047 0.46536 0.0
N241 N 0.95498 0.49605 0.47671 0.0
N242 N 0.95161 0.50921 0.42381 0.0
H243 H 0.02817 0.52536 0.42492 0.0
H244 H 0.00294 0.53514 0.39249 0.0
H245 H 0.00869 0.49724 0.39789 0.0
C246 C 0.00661 0.51727 0.41106 0.0
C247 C 0.11027 0.54034 0.57919 0.0
H248 H 0.09094 0.54597 0.56453 0.0
H249 H 0.1311 0.55724 0.57307 0.0
H250 H 0.10651 0.54214 0.60556 0.0
O251 O 0.04033 0.51302 0.56466 0.0
O252 O 0.00056 0.51472 0.53206 0.0
C253 C 0.06778 0.55023 0.48984 0.0
O254 O -0.00313 0.4533 0.51224 0.0
O255 O 0.03582 0.44879 0.54549 0.0
Zn256 Zn 0.21476 0.29599 0.93551 0.0
O257 O 0.25614 0.32497 0.94994 0.0
C258 C 0.24668 0.26474 0.89317 0.0
Zn259 Zn 0.22941 0.25809 0.96379 0.0
C260 C 0.2761 0.31396 0.96616 0.0
O261 O 0.27055 0.28628 0.97499 0.0
C262 C 0.16783 0.23957 0.93468 0.0
O263 O 0.21226 0.26825 0.00824 0.0
O264 O 0.19666 0.30504 0.97968 0.0
N265 N 0.24744 0.22444 0.98533 0.0
C266 C 0.24109 0.20235 0.00909 0.0
C267 C 0.28396 0.20115 0.99111 0.0
N268 N 0.27404 0.22353 0.97436 0.0
N269 N 0.26387 0.18735 0.01317 0.0
C270 C 0.21801 0.3546 0.8924 0.0
C271 C 0.17678 0.36702 0.90134 0.0
N272 N 0.20183 0.33209 0.91136 0.0
N273 N 0.17603 0.33968 0.91653 0.0
N274 N 0.20275 0.37668 0.88566 0.0
H275 H 0.26464 0.37801 0.89281 0.0
H276 H 0.25116 0.35868 0.85608 0.0
H277 H 0.25966 0.33772 0.89242 0.0
C278 C 0.25012 0.35703 0.88325 0.0
C279 C 0.21227 0.19516 0.02687 0.0
H280 H 0.19407 0.20302 0.01188 0.0
H281 H 0.21575 0.20715 0.05017 0.0
H282 H 0.20528 0.17052 0.03271 0.0
O283 O 0.18788 0.22991 0.95261 0.0
O284 O 0.17313 0.26659 0.92258 0.0
C285 C 0.19898 0.29025 0.00692 0.0
O286 O 0.2332 0.2864 0.89198 0.0
O287 O 0.2469 0.24865 0.9196 0.0
Zn288 Zn 0.24789 0.0017 0.2389 0.0
O289 O 0.27008 0.04062 0.21224 0.0
C290 C 0.20691 0.98755 0.1798 0.0
Zn291 Zn 0.2646 0.97249 0.20567 0.0
C292 C 0.28402 0.03756 0.18692 0.0
O293 O 0.28604 0.01136 0.17937 0.0
C294 C 0.22713 0.93618 0.2563 0.0
O295 O 0.30393 0.97463 0.238 0.0
O296 O 0.28659 0.00319 0.27011 0.0
N297 N 0.27893 0.94504 0.17516 0.0
C298 C 0.30679 0.94197 0.16882 0.0
C299 C 0.27569 0.90444 0.14905 0.0
N300 N 0.25956 0.92191 0.16236 0.0
N301 N 0.30542 0.91671 0.15258 0.0
C302 C 0.21388 0.04611 0.26762 0.0
C303 C 0.22328 0.04016 0.31914 0.0
N304 N 0.2324 0.02665 0.27147 0.0
N305 N 0.23835 0.02313 0.30352 0.0
N306 N 0.20767 0.05465 0.29706 0.0
H307 H 0.22027 0.05944 0.2167 0.0
H308 H 0.19786 0.08036 0.23719 0.0
H309 H 0.18194 0.04202 0.22672 0.0
C310 C 0.20295 0.05778 0.23512 0.0
C311 C 0.33563 0.96256 0.17995 0.0
H312 H 0.33204 0.98517 0.18492 0.0
H313 H 0.35258 0.96486 0.16089 0.0
H314 H 0.3448 0.95231 0.20249 0.0
O315 O 0.24266 0.93377 0.23216 0.0
O316 O 0.2252 0.96218 0.26446 0.0
C317 C 0.30726 0.99003 0.26354 0.0
O318 O 0.21011 0.001 0.20662 0.0
O319 O 0.22561 0.97182 0.17349 0.0
Zn320 Zn 0.49155 0.25757 0.77952 0.0
O321 O 0.47087 0.2247 0.74541 0.0
C322 C 0.54459 0.27844 0.73568 0.0
Zn323 Zn 0.48506 0.29136 0.73925 0.0
C324 C 0.46194 0.2312 0.71627 0.0
O325 O 0.46552 0.25866 0.70612 0.0
C326 C 0.51455 0.31851 0.80192 0.0
O327 O 0.44215 0.28807 0.75794 0.0
O328 O 0.44807 0.25499 0.79795 0.0
N329 N 0.47828 0.32511 0.70619 0.0
C330 C 0.46746 0.34994 0.71023 0.0
C331 C 0.48416 0.35398 0.662 0.0
N332 N 0.48845 0.32757 0.67613 0.0
N333 N 0.4708 0.36833 0.6828 0.0
C334 C 0.51585 0.20246 0.80902 0.0
C335 C 0.50296 0.19855 0.85876 0.0
N336 N 0.50022 0.22405 0.81264 0.0
N337 N 0.49218 0.22151 0.84358 0.0
N338 N 0.51819 0.18644 0.83766 0.0
H339 H 0.51504 0.20393 0.75563 0.0
H340 H 0.52582 0.17127 0.77564 0.0
H341 H 0.55159 0.20742 0.77577 0.0
C342 C 0.52749 0.19589 0.77712 0.0
C343 C 0.45573 0.35742 0.74173 0.0
H344 H 0.46085 0.34294 0.76296 0.0
H345 H 0.43081 0.35421 0.73898 0.0
H346 H 0.46532 0.38139 0.74711 0.0
O347 O 0.50557 0.32379 0.77258 0.0
O348 O 0.51124 0.29132 0.81315 0.0
C349 C 0.43172 0.27117 0.78244 0.0
O350 O 0.53507 0.26147 0.76049 0.0
O351 O 0.52747 0.2939 0.72066 0.0
Zn352 Zn 0.99436 0.73691 0.71773 0.0
O353 O 0.99325 0.69915 0.69019 0.0
C354 C 0.01461 0.77576 0.65749 0.0
Zn355 Zn 0.95675 0.74646 0.68436 0.0
C356 C 0.97328 0.69034 0.66766 0.0
O357 O 0.95335 0.70566 0.65971 0.0
C358 C 0.97959 0.79335 0.73392 0.0
O359 O 0.92784 0.72184 0.71994 0.0
O360 O 0.96507 0.71015 0.75115 0.0
N361 N 0.92031 0.75736 0.65781 0.0
C362 C 0.89856 0.77054 0.66757 0.0
C363 C 0.89663 0.77304 0.61524 0.0
N364 N 0.91875 0.7586 0.62525 0.0
N365 N 0.88347 0.78073 0.64131 0.0
C366 C 0.04205 0.70498 0.75351 0.0
C367 C 0.07614 0.74301 0.76745 0.0
N368 N 0.03162 0.72996 0.74451 0.0
N369 N 0.05275 0.75352 0.75339 0.0
N370 N 0.07019 0.7126 0.76774 0.0
H371 H -0.00052 0.67267 0.7511 0.0
H372 H 0.03077 0.6578 0.76925 0.0
H373 H 0.0276 0.66563 0.72541 0.0
C374 C 0.02392 0.67342 0.74979 0.0
C375 C 0.89361 0.77602 0.70263 0.0
H376 H 0.90963 0.768 0.72041 0.0
H377 H 0.87056 0.76387 0.70904 0.0
H378 H 0.89519 0.80046 0.70542 0.0
O379 O 0.96179 0.78703 0.709 0.0
O380 O -0.00437 0.77498 0.74457 0.0
C381 C 0.93695 0.70837 0.74547 0.0
O382 O 0.02308 0.76406 0.68445 0.0
O383 O 0.98663 0.77096 0.64912 0.0
Zn384 Zn 0.73289 0.48938 0.27008 0.0
O385 O 0.72766 0.5226 0.23096 0.0
C386 C 0.68059 0.44596 0.24103 0.0
Zn387 Zn 0.74653 0.46141 0.23334 0.0
C388 C 0.73376 0.51799 0.20182 0.0
O389 O 0.74144 0.49358 0.19629 0.0
C390 C 0.74882 0.43329 0.30062 0.0
O391 O 0.79184 0.4842 0.24268 0.0
O392 O 0.77764 0.51198 0.27832 0.0
N393 N 0.75925 0.43452 0.20098 0.0
C394 C 0.78391 0.43835 0.18304 0.0
C395 C 0.76169 0.39198 0.18183 0.0
N396 N 0.74525 0.40575 0.19981 0.0
N397 N 0.7862 0.41191 0.17113 0.0
C398 C 0.71962 0.54239 0.30765 0.0
C399 C 0.69911 0.51881 0.35019 0.0
N400 N 0.71926 0.51294 0.30506 0.0
N401 N 0.70667 0.49836 0.33161 0.0
N402 N 0.70702 0.5466 0.33568 0.0
H403 H 0.75358 0.56156 0.27312 0.0
H404 H 0.74056 0.58896 0.29565 0.0
H405 H 0.7168 0.56937 0.26334 0.0
C406 C 0.73361 0.56706 0.28364 0.0
C407 C 0.80492 0.46812 0.17577 0.0
H408 H 0.79319 0.48695 0.17692 0.0
H409 H 0.81409 0.46851 0.15107 0.0
H410 H 0.82415 0.47139 0.19402 0.0
O411 O 0.75247 0.42955 0.2707 0.0
O412 O 0.73954 0.45632 0.30805 0.0
C413 C 0.79853 0.50484 0.26325 0.0
O414 O 0.6878 0.46632 0.26184 0.0
O415 O 0.70106 0.43912 0.22498 0.0
Zn416 Zn 0.76554 0.75574 0.02137 0.0
O417 O 0.71928 0.74024 0.0191 0.0
C418 C 0.77744 0.69774 0.05067 0.0
Zn419 Zn 0.77427 0.72676 0.98391 0.0
C420 C 0.70981 0.71579 0.00473 0.0
O421 O 0.72789 0.70537 0.98831 0.0
C422 C 0.83078 0.7656 0.0053 0.0
O423 O 0.76241 0.75578 0.94628 0.0
O424 O 0.76014 0.78898 0.98227 0.0
N425 N 0.77824 0.69603 0.95111 0.0
C426 C 0.79241 0.69886 0.92264 0.0
C427 C 0.77724 0.65173 0.93419 0.0
N428 N 0.76856 0.66675 0.95807 0.0
N429 N 0.79197 0.6714 0.91149 0.0
C430 C 0.74863 0.78447 0.08259 0.0
C431 C 0.77164 0.83039 0.07429 0.0
N432 N 0.76335 0.78618 0.05466 0.0
N433 N 0.77788 0.81462 0.0497 0.0
N434 N 0.75365 0.81192 0.09548 0.0
H435 H 0.72314 0.7382 0.07859 0.0
H436 H 0.70622 0.76167 0.10249 0.0
H437 H 0.73856 0.74799 0.11878 0.0
C438 C 0.72786 0.75646 0.09606 0.0
C439 C 0.80872 0.72828 0.90706 0.0
H440 H 0.80982 0.74745 0.92281 0.0
H441 H 0.79667 0.73289 0.88352 0.0
H442 H 0.83195 0.72681 0.90146 0.0
O443 O 0.82135 0.74814 0.98194 0.0
O444 O 0.81209 0.77123 0.02453 0.0
C445 C 0.7576 0.78127 0.95252 0.0
O446 O 0.76886 0.72078 0.05954 0.0
O447 O 0.78445 0.69711 0.02113 0.0
Zn448 Zn 0.49441 0.06439 0.49041 0.0
O449 O 0.5182 0.06263 0.53689 0.0
C450 C 0.5387 0.11515 0.46433 0.0
Zn451 Zn 0.52986 0.04781 0.46697 0.0
C452 C 0.54346 0.05484 0.53876 0.0
O453 O 0.55453 0.04923 0.51259 0.0
C454 C 0.47934 0.05303 0.41943 0.0
O455 O 0.51047 0.00218 0.47815 0.0
O456 O 0.47403 0.01891 0.49863 0.0
N457 N 0.56557 0.03779 0.44618 0.0
C458 C 0.56786 0.01813 0.42366 0.0
C459 C 0.61269 0.04032 0.43859 0.0
N460 N 0.5934 0.05172 0.45527 0.0
N461 N 0.59719 0.01952 0.41824 0.0
C462 C 0.45886 0.09712 0.53293 0.0
C463 C 0.41416 0.06996 0.52869 0.0
N464 N 0.4594 0.07547 0.51203 0.0
N465 N 0.4316 0.05871 0.50925 0.0
N466 N 0.43073 0.09431 0.5434 0.0
H467 H 0.5074 0.11267 0.54108 0.0
H468 H 0.48495 0.12279 0.57173 0.0
H469 H 0.48669 0.14173 0.53174 0.0
C470 C 0.48616 0.11962 0.5451 0.0
C471 C 0.54154 -0.00381 0.40869 0.0
H472 H 0.54657 0.97337 0.40887 0.0
H473 H 0.53744 0.00368 0.38277 0.0
H474 H 0.52061 0.99477 0.42171 0.0
O475 O 0.50461 0.04527 0.42186 0.0
O476 O 0.47015 0.06373 0.4441 0.0
C477 C 0.48516 -0.00302 0.49147 0.0
O478 O 0.5155 0.11054 0.48141 0.0
O479 O 0.54854 0.09297 0.45563 0.0
Zn480 Zn 0.48621 0.51354 0.07449 0.0
O481 O 0.49907 0.48459 0.11244 0.0
C482 C 0.54828 0.55254 0.07403 0.0
Zn483 Zn 0.51602 0.499 0.04043 0.0
C484 C 0.51796 0.46885 0.10703 0.0
O485 O 0.52878 0.47073 0.07878 0.0
C486 C 0.48445 0.54464 0.00866 0.0
O487 O 0.48072 0.46413 0.02745 0.0
O488 O 0.44993 0.47817 0.05992 0.0
N489 N 0.54335 0.48409 0.01046 0.0
C490 C 0.53947 0.47635 0.97889 0.0
C491 C 0.57996 0.46408 -0.00174 0.0
N492 N 0.56863 0.47664 0.02239 0.0
N493 N 0.56222 0.46401 0.97066 0.0
C494 C 0.46519 0.53975 0.13463 0.0
C495 C 0.4213 0.54559 0.11848 0.0
N496 N 0.45899 0.52796 0.10488 0.0
N497 N 0.43153 0.53123 0.09502 0.0
N498 N 0.44187 0.55074 0.14379 0.0
H499 H 0.49241 0.5388 0.17953 0.0
H500 H 0.50718 0.56833 0.14993 0.0
H501 H 0.50975 0.53 0.14401 0.0
C502 C 0.4954 0.54424 0.1529 0.0
C503 C 0.51247 0.47874 0.95669 0.0
H504 H 0.50525 0.45827 0.94218 0.0
H505 H 0.51882 0.49845 0.93912 0.0
H506 H 0.49324 0.48177 0.9705 0.0
O507 O 0.50282 0.52853 0.00224 0.0
O508 O 0.47368 0.54206 0.03695 0.0
C509 C 0.4549 0.46025 0.03921 0.0
O510 O 0.52308 0.54978 0.08721 0.0
O511 O 0.55145 0.53341 0.0539 0.0
H512 H 0.97108 0.11169 0.07633 0.0
H513 H 0.96612 0.04148 0.15373 0.0
H514 H 0.9785 0.08045 0.1954 0.0
H515 H 0.03416 0.16205 0.10989 0.0
H516 H 0.02117 0.19592 0.09741 0.0
H517 H 0.00905 0.16264 0.07407 0.0
H518 H 0.95306 0.16383 0.08145 0.0
H519 H 0.96498 0.19728 0.10465 0.0
H520 H 0.93996 0.16445 0.12225 0.0
H521 H -0.00302 0.12643 0.22731 0.0
H522 H 0.01603 0.17678 0.24896 0.0
H523 H 0.00784 0.21808 0.15102 0.0
C524 C 0.97239 0.10466 0.10211 0.0
C525 C 0.96803 0.07376 0.11209 0.0
C526 C 0.96935 0.06512 0.1459 0.0
C527 C 0.97647 0.08705 0.16956 0.0
C528 C 0.9817 0.11742 0.15885 0.0
C529 C 0.97933 0.12628 0.12598 0.0
C530 C 0.9871 0.16041 0.12096 0.0
C531 C 0.01449 0.17085 0.09931 0.0
C532 C 0.95963 0.17218 0.10647 0.0
C533 C 0.99481 0.16938 0.15615 0.0
C534 C 0.99159 0.14415 0.17751 0.0
C535 C -0.00088 0.14636 0.21094 0.0
C536 C 0.0101 0.17509 0.22295 0.0
C537 C 0.01323 0.20134 0.2017 0.0
C538 C 0.00524 0.19842 0.16787 0.0
H539 H 0.9023 0.22055 0.44985 0.0
H540 H 0.8231 0.19604 0.38447 0.0
H541 H 0.85541 0.20625 0.33652 0.0
H542 H 0.94062 0.28177 0.40074 0.0
H543 H 0.97787 0.27484 0.40981 0.0
H544 H 0.94901 0.26298 0.43923 0.0
H545 H 0.95659 0.20811 0.4396 0.0
H546 H 0.98565 0.21982 0.41031 0.0
H547 H 0.95374 0.1895 0.40136 0.0
H548 H 0.89487 0.2246 0.29611 0.0
H549 H 0.94017 0.24544 0.26479 0.0
H550 H 0.99506 0.2565 0.35585 0.0
C551 C 0.89195 0.2171 0.42541 0.0
C552 C 0.86028 0.20774 0.4206 0.0
C553 C 0.84736 0.20304 0.38844 0.0
C554 C 0.86549 0.2089 0.36117 0.0
C555 C 0.89655 0.21901 0.36661 0.0
C556 C 0.90982 0.22264 0.3979 0.0
C557 C 0.9437 0.23463 0.3967 0.0
C558 C 0.95335 0.26538 0.41256 0.0
C559 C 0.96093 0.21163 0.41295 0.0
C560 C 0.94726 0.23783 0.35982 0.0
C561 C 0.91969 0.22874 0.34304 0.0
C562 C 0.91666 0.23132 0.30891 0.0
C563 C 0.9425 0.24336 0.29138 0.0
C564 C 0.97109 0.2524 0.30792 0.0
C565 C 0.97352 0.24937 0.3426 0.0
H566 H 0.70601 0.08499 0.71861 0.0
H567 H 0.78573 0.04756 0.71529 0.0
H568 H 0.80871 0.08978 0.67795 0.0
H569 H 0.7026 0.1068 0.63558 0.0
H570 H 0.69067 0.14155 0.64018 0.0
H571 H 0.68168 0.11095 0.67061 0.0
H572 H 0.70776 0.14617 0.71637 0.0
H573 H 0.71657 0.17705 0.68611 0.0
H574 H 0.74631 0.16659 0.71235 0.0
H575 H 0.82009 0.13057 0.63551 0.0
H576 H 0.82149 0.17192 0.59314 0.0
H577 H 0.73572 0.18516 0.62386 0.0
C578 C 0.72868 0.08637 0.71082 0.0
C579 C 0.74421 0.06319 0.71987 0.0
C580 C 0.7735 0.06514 0.70857 0.0
C581 C 0.78678 0.08904 0.68741 0.0
C582 C 0.77054 0.11093 0.67785 0.0
C583 C 0.74233 0.11019 0.6894 0.0
C584 C 0.72905 0.13555 0.67307 0.0
C585 C 0.69925 0.12295 0.65371 0.0
C586 C 0.72467 0.15766 0.6985 0.0
C587 C 0.75393 0.15004 0.65016 0.0
C588 C 0.77759 0.13535 0.65341 0.0
C589 C 0.80207 0.14276 0.63317 0.0
C590 C 0.80257 0.16605 0.60906 0.0
C591 C 0.77895 0.18183 0.60571 0.0
C592 C 0.7544 0.17386 0.6266 0.0
H593 H 0.91969 0.98716 0.88798 0.0
H594 H 0.88884 0.012 0.97918 0.0
H595 H 0.83791 0.00839 0.95342 0.0
H596 H 0.87756 0.02797 0.83373 0.0
H597 H 0.86876 -0.00027 0.80333 0.0
H598 H 0.90275 0.00305 0.82914 0.0
H599 H 0.88655 0.94666 0.84827 0.0
H600 H 0.85248 0.94312 0.82246 0.0
H601 H 0.85024 0.93296 0.86581 0.0
H602 H 0.7915 0.00437 0.91803 0.0
H603 H 0.75121 -0.00013 0.87454 0.0
H604 H 0.81098 0.97629 0.80593 0.0
C605 C 0.9022 0.99162 0.9026 0.0
C606 C 0.90827 -0.00017 0.93561 0.0
C607 C 0.88476 0.00568 0.95385 0.0
C608 C 0.85572 0.00362 0.93949 0.0
C609 C 0.85052 0.99549 0.90696 0.0
C610 C 0.87297 0.98947 0.8887 0.0
C611 C 0.8613 0.98176 0.85396 0.0
C612 C 0.87862 0.00449 0.82855 0.0
C613 C 0.86273 0.94919 0.84724 0.0
C614 C 0.82894 0.98503 0.85545 0.0
C615 C 0.8233 0.99283 0.88636 0.0
C616 C 0.79553 -0.00186 0.89375 0.0
C617 C 0.77286 0.99567 0.8688 0.0
C618 C 0.77805 0.98788 0.83682 0.0
C619 C 0.80637 0.98214 0.83019 0.0
H620 H 0.08335 0.96527 0.0297 0.0
H621 H 0.08228 0.05966 0.03777 0.0
H622 H 0.12519 0.06496 0.07851 0.0
H623 H 0.09503 0.9496 0.1122 0.0
H624 H 0.12004 0.92426 0.109 0.0
H625 H 0.09321 0.92852 0.07578 0.0
H626 H 0.13626 0.94324 0.035 0.0
H627 H 0.16326 0.93841 0.06798 0.0
H628 H 0.16806 0.97366 0.04404 0.0
H629 H 0.16204 0.05879 0.12301 0.0
H630 H 0.19475 0.04258 0.16715 0.0
H631 H 0.17312 0.95159 0.13242 0.0
C632 C 0.09317 0.98726 0.0391 0.0
C633 C 0.08021 0.0123 0.03033 0.0
C634 C 0.09244 0.04048 0.04398 0.0
C635 C 0.11671 0.04365 0.06711 0.0
C636 C 0.12833 0.01834 0.07635 0.0
C637 C 0.11738 0.99074 0.06258 0.0
C638 C 0.13227 0.96663 0.07937 0.0
C639 C 0.10873 0.94073 0.09501 0.0
C640 C 0.15109 0.95479 0.05515 0.0
C641 C 0.15236 0.9848 0.10543 0.0
C642 C 0.14974 0.0146 0.10291 0.0
C643 C 0.16449 0.03559 0.12511 0.0
C644 C 0.18261 0.026 0.15052 0.0
C645 C 0.18587 0.99568 0.15371 0.0
C646 C 0.17084 0.97486 0.1306 0.0
H647 H 0.02631 0.44951 0.40479 0.0
H648 H 0.11333 0.44906 0.45454 0.0
H649 H 0.12626 0.42082 0.40932 0.0
H650 H 0.0123 0.37581 0.37936 0.0
H651 H 0.99386 0.3836 0.34048 0.0
H652 H 0.99312 0.40666 0.37461 0.0
H653 H 0.01635 0.4545 0.33922 0.0
H654 H 0.01727 0.43152 0.30491 0.0
H655 H 0.0514 0.45644 0.31974 0.0
H656 H 0.1277 0.38898 0.36141 0.0
H657 H 0.11682 0.35375 0.31637 0.0
H658 H 0.02875 0.37519 0.29766 0.0
C659 C 0.04841 0.44414 0.40591 0.0
C660 C 0.069 0.45184 0.43307 0.0
C661 C 0.09729 0.44356 0.43392 0.0
C662 C 0.10486 0.42767 0.40827 0.0
C663 C 0.08391 0.42031 0.38196 0.0
C664 C 0.05623 0.42824 0.38066 0.0
C665 C 0.03669 0.41552 0.35118 0.0
C666 C 0.00727 0.39413 0.36207 0.0
C667 C 0.03005 0.44102 0.32735 0.0
C668 C 0.0574 0.39846 0.33642 0.0
C669 C 0.08468 0.40185 0.35433 0.0
C670 C 0.10663 0.38652 0.34696 0.0
C671 C 0.10022 0.36655 0.32131 0.0
C672 C 0.07206 0.36196 0.30329 0.0
C673 C 0.05074 0.37879 0.31044 0.0
H674 H 0.68088 0.32743 0.61536 0.0
H675 H 0.73074 0.27537 0.68049 0.0
H676 H 0.6894 0.26559 0.71951 0.0
H677 H 0.64446 0.35996 0.67971 0.0
H678 H 0.60946 0.35638 0.65552 0.0
H679 H 0.64477 0.36266 0.63542 0.0
H680 H 0.62431 0.31471 0.60256 0.0
H681 H 0.58916 0.308 0.62286 0.0
H682 H 0.61074 0.27905 0.62444 0.0
H683 H 0.64099 0.25786 0.74848 0.0
H684 H 0.58922 0.25355 0.76643 0.0
H685 H 0.57015 0.30934 0.68101 0.0
C686 C 0.68331 0.3149 0.63843 0.0
C687 C 0.70885 0.3025 0.64557 0.0
C688 C 0.71126 0.28525 0.67521 0.0
C689 C 0.68797 0.27961 0.69732 0.0
C690 C 0.66252 0.29138 0.68918 0.0
C691 C 0.6601 0.30883 0.66055 0.0
C692 C 0.62937 0.31664 0.65628 0.0
C693 C 0.6322 0.35095 0.65678 0.0
C694 C 0.61241 0.30382 0.62467 0.0
C695 C 0.61475 0.30048 0.68668 0.0
C696 C 0.6343 0.28625 0.70545 0.0
C697 C 0.62553 0.26909 0.73411 0.0
C698 C 0.596 0.26656 0.74396 0.0
C699 C 0.57557 0.28092 0.72501 0.0
C700 C 0.58523 0.29814 0.69607 0.0
H701 H 0.69686 0.92102 0.86535 0.0
H702 H 0.67476 0.86737 0.77928 0.0
H703 H 0.68995 0.82444 0.81037 0.0
H704 H 0.7624 0.89771 0.88839 0.0
H705 H 0.75866 0.89655 0.93224 0.0
H706 H 0.74119 0.92161 0.90581 0.0
H707 H 0.68894 0.89778 0.92904 0.0
H708 H 0.70634 0.87317 0.95629 0.0
H709 H 0.67497 0.85744 0.9289 0.0
H710 H 0.71455 0.79072 0.84703 0.0
H711 H 0.74025 0.76436 0.89022 0.0
H712 H 0.74656 0.83895 0.95403 0.0
C713 C 0.69375 0.89972 0.85362 0.0
C714 C 0.68396 0.89725 0.82009 0.0
C715 C 0.68162 0.8695 0.80509 0.0
C716 C 0.69045 0.8451 0.82248 0.0
C717 C 0.70159 0.8488 0.85489 0.0
C718 C 0.70274 0.87514 0.87063 0.0
C719 C 0.71785 0.87388 0.90481 0.0
C720 C 0.74673 0.89892 0.90798 0.0
C721 C 0.69569 0.87567 0.93133 0.0
C722 C 0.72529 0.84287 0.9056 0.0
C723 C 0.71583 0.829 0.87639 0.0
C724 C 0.72153 0.80106 0.87026 0.0
C725 C 0.73642 0.78637 0.89497 0.0
C726 C 0.74533 0.79942 0.92574 0.0
C727 C 0.73991 0.82827 0.93091 0.0
H728 H 0.18703 0.25728 0.06562 0.0
H729 H 0.18168 0.34293 0.01502 0.0
H730 H 0.15856 0.35744 0.06294 0.0
H731 H 0.11606 0.24499 0.1009 0.0
H732 H 0.12763 0.22803 0.13922 0.0
H733 H 0.14664 0.22547 0.10234 0.0
H734 H 0.19789 0.24957 0.13119 0.0
H735 H 0.17898 0.25237 0.16817 0.0
H736 H 0.20243 0.2856 0.14934 0.0
H737 H 0.13219 0.36118 0.11346 0.0
H738 H 0.10257 0.35315 0.1633 0.0
H739 H 0.12508 0.26563 0.1826 0.0
C740 C 0.18145 0.27928 0.06489 0.0
C741 C 0.18631 0.29903 0.03659 0.0
C742 C 0.17818 0.3274 0.03636 0.0
C743 C 0.16518 0.33595 0.06356 0.0
C744 C 0.16042 0.31593 0.09091 0.0
C745 C 0.16822 0.28815 0.09187 0.0
C746 C 0.15856 0.27006 0.12344 0.0
C747 C 0.13587 0.24039 0.11602 0.0
C748 C 0.18611 0.26405 0.14427 0.0
C749 C 0.14362 0.29181 0.13971 0.0
C750 C 0.14523 0.31822 0.12056 0.0
C751 C 0.13119 0.34084 0.12897 0.0
C752 C 0.11443 0.33609 0.15731 0.0
C753 C 0.11197 0.30903 0.17703 0.0
C754 C 0.12733 0.2869 0.16848 0.0
H755 H 0.73289 0.42324 0.36559 0.0
H756 H 0.78816 0.39751 0.29352 0.0
H757 H 0.80823 0.3654 0.33572 0.0
H758 H 0.78618 0.42361 0.43623 0.0
H759 H 0.75753 0.40699 0.46472 0.0
H760 H 0.74842 0.42989 0.42956 0.0
H761 H 0.70499 0.38593 0.41112 0.0
H762 H 0.71374 0.36308 0.4464 0.0
H763 H 0.71301 0.34945 0.40568 0.0
H764 H 0.82222 0.33607 0.38409 0.0
H765 H 0.82491 0.30534 0.43528 0.0
H766 H 0.75931 0.34708 0.47719 0.0
C767 C 0.74925 0.41086 0.35883 0.0
C768 C 0.75897 0.4129 0.32626 0.0
C769 C 0.7802 0.39617 0.31821 0.0
C770 C 0.79198 0.37806 0.34208 0.0
C771 C 0.78216 0.37664 0.37391 0.0
C772 C 0.76097 0.39212 0.38237 0.0
C773 C 0.75292 0.38469 0.41802 0.0
C774 C 0.7618 0.41299 0.43833 0.0
C775 C 0.71916 0.3699 0.42044 0.0
C776 C 0.77266 0.36236 0.42794 0.0
C777 C 0.78968 0.35862 0.40213 0.0
C778 C 0.80905 0.33876 0.40455 0.0
C779 C 0.8104 0.3214 0.43379 0.0
C780 C 0.79227 0.32373 0.46024 0.0
C781 C 0.77368 0.34505 0.45754 0.0
H782 H 0.59728 0.03731 0.55088 0.0
H783 H 0.52076 0.0546 0.59966 0.0
H784 H 0.53969 0.03386 0.6521 0.0
H785 H 0.59987 0.96777 0.59186 0.0
H786 H 0.6405 0.97409 0.59536 0.0
H787 H 0.62241 0.99226 0.56197 0.0
H788 H 0.65306 0.04482 0.57874 0.0
H789 H 0.67183 0.02674 0.61163 0.0
H790 H 0.65242 0.05571 0.62044 0.0
H791 H 0.56535 0.00856 0.69844 0.0
H792 H 0.59929 0.9864 0.73707 0.0
H793 H 0.65881 0.9851 0.65791 0.0
C794 C 0.58476 0.03728 0.57269 0.0
C795 C 0.55748 0.04759 0.57111 0.0
C796 C 0.54177 0.047 0.60025 0.0
C797 C 0.55223 0.03504 0.63011 0.0
C798 C 0.57853 0.02397 0.63048 0.0
C799 C 0.59491 0.02552 0.60269 0.0
C800 C 0.62246 0.01207 0.60969 0.0
C801 C 0.62121 0.98494 0.58845 0.0
C802 C 0.65166 0.03628 0.60485 0.0
C803 C 0.61873 0.00218 0.64563 0.0
C804 C 0.59323 0.00925 0.65713 0.0
C805 C 0.58538 0.00294 0.68971 0.0
C806 C 0.60469 0.99011 0.71141 0.0
C807 C 0.63154 0.98366 0.70047 0.0
C808 C 0.63816 0.98913 0.66691 0.0
H809 H 0.04967 0.92079 0.85894 0.0
H810 H 0.98239 0.96923 0.82013 0.0
H811 H 0.9654 0.93124 0.77794 0.0
H812 H 0.06696 0.89286 0.77953 0.0
H813 H 0.07054 0.85694 0.79865 0.0
H814 H 0.08023 0.89047 0.82195 0.0
H815 H 0.04291 0.86425 0.86598 0.0
H816 H 0.03266 0.83089 0.84258 0.0
H817 H 0.00387 0.84958 0.85381 0.0
H818 H 0.9528 0.88562 0.74412 0.0
H819 H 0.94614 0.83611 0.71956 0.0
H820 H 0.02072 0.81659 0.78238 0.0
C821 C 0.03218 0.92379 0.84066 0.0
C822 C 0.01752 0.94784 0.84198 0.0
C823 C 0.99392 0.95091 0.8188 0.0
C824 C 0.9842 0.92952 0.79496 0.0
C825 C -0.00159 0.90532 0.79493 0.0
C826 C 0.02204 0.90244 0.81701 0.0
C827 C 0.03159 0.87298 0.81377 0.0
C828 C 0.06427 0.87866 0.80281 0.0
C829 C 0.02749 0.85327 0.84594 0.0
C830 C 0.00926 0.85948 0.7869 0.0
C831 C 0.99052 0.87858 0.77612 0.0
C832 C 0.96752 0.87057 0.75211 0.0
C833 C 0.96381 0.84236 0.73846 0.0
C834 C 0.98284 0.82249 0.74917 0.0
C835 C 0.00577 0.83125 0.77374 0.0
H836 H 0.04084 0.1075 -0.00139 0.0
H837 H 0.0138 0.09052 0.89679 0.0
H838 H 0.04445 0.14068 0.87989 0.0
H839 H 0.05137 0.19321 0.99347 0.0
H840 H 0.08448 0.19678 0.02082 0.0
H841 H 0.05358 0.16443 0.02537 0.0
H842 H 0.09067 0.12915 0.0209 0.0
H843 H 0.12149 0.16114 0.01574 0.0
H844 H 0.11311 0.13303 0.9852 0.0
H845 H 0.08442 0.18824 0.87362 0.0
H846 H 0.13262 0.2266 0.87831 0.0
H847 H 0.13593 0.209 0.98387 0.0
C848 C 0.03999 0.11513 0.97302 0.0
C849 C 0.02438 0.09583 0.94906 0.0
C850 C 0.02527 0.1055 0.91546 0.0
C851 C 0.04247 0.13393 0.90572 0.0
C852 C 0.05876 0.15208 0.92993 0.0
C853 C 0.05762 0.14298 0.96297 0.0
C854 C 0.08143 0.16336 0.98359 0.0
C855 C 0.06683 0.18047 0.00719 0.0
C856 C 0.10293 0.1456 0.00242 0.0
C857 C 0.0972 0.18437 0.95685 0.0
C858 C 0.08323 0.17831 0.92619 0.0
C859 C 0.09524 0.19355 0.89753 0.0
C860 C 0.12254 0.21513 0.90033 0.0
C861 C 0.13764 0.22025 0.93138 0.0
C862 C 0.12454 0.20523 0.95989 0.0
H863 H 0.67862 0.58369 0.29838 0.0
H864 H 0.71494 0.56777 0.3967 0.0
H865 H 0.69719 0.61162 0.41549 0.0
H866 H 0.69629 0.66571 0.2974 0.0
H867 H 0.66179 0.66855 0.27449 0.0
H868 H 0.67895 0.63713 0.26921 0.0
H869 H 0.62874 0.6001 0.28375 0.0
H870 H 0.61156 0.63139 0.28957 0.0
H871 H 0.61214 0.60294 0.32222 0.0
H872 H 0.67507 0.65759 0.42282 0.0
H873 H 0.64912 0.70064 0.41824 0.0
H874 H 0.62678 0.68426 0.31539 0.0
C875 C 0.68352 0.59 0.32361 0.0
C876 C 0.69879 0.57313 0.34601 0.0
C877 C 0.70362 0.58096 0.37925 0.0
C878 C 0.69364 0.60569 0.39003 0.0
C879 C 0.67858 0.62194 0.36723 0.0
C880 C 0.67351 0.61433 0.33472 0.0
C881 C 0.65576 0.63444 0.31531 0.0
C882 C 0.67431 0.65253 0.28747 0.0
C883 C 0.62524 0.61611 0.30194 0.0
C884 C 0.65153 0.65459 0.34195 0.0
C885 C 0.66494 0.64727 0.37172 0.0
C886 C 0.6643 0.66336 0.39969 0.0
C887 C 0.64957 0.68759 0.39699 0.0
C888 C 0.63542 0.69491 0.36677 0.0
C889 C 0.63662 0.67832 0.339 0.0
H890 H 0.32909 0.88388 0.51601 0.0
H891 H 0.36102 0.82146 0.45758 0.0
H892 H 0.41152 0.8553 0.45757 0.0
H893 H 0.36879 0.95092 0.4761 0.0
H894 H 0.37671 0.97153 0.51317 0.0
H895 H 0.34369 0.94143 0.50965 0.0
H896 H 0.36144 0.91543 0.56334 0.0
H897 H 0.39485 0.94526 0.5666 0.0
H898 H 0.39828 0.90653 0.56611 0.0
H899 H 0.4578 0.89703 0.46172 0.0
H900 H 0.49486 0.94565 0.46583 0.0
H901 H 0.43267 0.9794 0.52289 0.0
C902 C 0.34667 0.87733 0.50318 0.0
C903 C 0.34114 0.85011 0.48677 0.0
C904 C 0.36475 0.84229 0.47028 0.0
C905 C 0.39358 0.86121 0.47034 0.0
C906 C 0.3984 0.88769 0.4872 0.0
C907 C 0.37556 0.89582 0.50313 0.0
C908 C 0.38618 0.92614 0.51807 0.0
C909 C 0.36776 0.94884 0.50335 0.0
C910 C 0.38513 0.92314 0.55577 0.0
C911 C 0.41832 0.93414 0.50728 0.0
C912 C 0.42514 0.91154 0.48989 0.0
C913 C 0.45291 0.91478 0.47563 0.0
C914 C 0.47385 0.94237 0.47822 0.0
C915 C 0.46659 0.96619 0.4947 0.0
C916 C 0.43893 0.96152 0.51032 0.0
H917 H 0.11465 0.72415 0.81498 0.0
H918 H 0.07779 0.66257 0.73824 0.0
H919 H 0.11937 0.63646 0.7492 0.0
H920 H 0.18784 0.73536 0.7918 0.0
H921 H 0.20553 0.7385 0.83255 0.0
H922 H 0.16941 0.74817 0.82446 0.0
H923 H 0.14653 0.70993 0.87084 0.0
H924 H 0.18273 0.70029 0.87934 0.0
H925 H 0.14978 0.67114 0.8703 0.0
H926 H 0.16773 0.62112 0.76298 0.0
H927 H 0.22079 0.6189 0.7774 0.0
H928 H 0.22916 0.69274 0.84203 0.0
C929 C 0.11483 0.70449 0.80132 0.0
C930 C 0.09202 0.69455 0.77687 0.0
C931 C 0.0937 0.66956 0.75846 0.0
C932 C 0.1176 0.65477 0.76424 0.0
C933 C 0.1399 0.66549 0.78816 0.0
C934 C 0.13883 0.68984 0.80639 0.0
C935 C 0.16765 0.69944 0.82737 0.0
C936 C 0.18353 0.73231 0.81849 0.0
C937 C 0.16128 0.69492 0.86415 0.0
C938 C 0.18553 0.67735 0.81719 0.0
C939 C 0.16881 0.65761 0.79501 0.0
C940 C 0.18093 0.63626 0.78053 0.0
C941 C 0.21105 0.63535 0.78856 0.0
C942 C 0.22881 0.65597 0.81035 0.0
C943 C 0.21576 0.67675 0.82544 0.0
H944 H 0.85707 0.33405 0.58364 0.0
H945 H 0.8947 0.25899 0.55884 0.0
H946 H 0.94588 0.29175 0.56154 0.0
H947 H 0.89455 0.38199 0.5303 0.0
H948 H 0.90077 0.41553 0.5535 0.0
H949 H 0.86931 0.38499 0.56187 0.0
H950 H 0.88759 0.38148 0.62309 0.0
H951 H 0.919 0.41266 0.61514 0.0
H952 H 0.92568 0.3775 0.63349 0.0
H953 H 0.99065 0.33437 0.55527 0.0
H954 H 0.02399 0.38317 0.53792 0.0
H955 H 0.95533 0.43032 0.56077 0.0
C956 C 0.87624 0.32411 0.58053 0.0
C957 C 0.87213 0.29402 0.57151 0.0
C958 C 0.89755 0.282 0.56621 0.0
C959 C 0.92669 0.30041 0.56783 0.0
C960 C 0.92984 0.33068 0.57464 0.0
C961 C 0.90521 0.3424 0.58108 0.0
C962 C 0.91319 0.37649 0.5807 0.0
C963 C 0.89329 0.39053 0.55506 0.0
C964 C 0.91126 0.38769 0.61516 0.0
C965 C 0.94549 0.38221 0.57081 0.0
C966 C 0.95518 0.35561 0.56877 0.0
C967 C 0.98354 0.35535 0.55746 0.0
C968 C 0.00221 0.38297 0.54753 0.0
C969 C 0.99178 0.40996 0.54804 0.0
C970 C 0.96351 0.40969 0.56036 0.0
H971 H 0.3289 0.89112 0.20553 0.0
H972 H 0.33452 0.90604 0.10016 0.0
H973 H 0.37793 0.88069 0.1018 0.0
H974 H 0.4063 0.90734 0.22463 0.0
H975 H 0.40491 0.87925 0.25799 0.0
H976 H 0.37259 0.8953 0.2475 0.0
H977 H 0.33932 0.84166 0.24018 0.0
H978 H 0.37163 0.8254 0.25057 0.0
H979 H 0.35024 0.81705 0.21234 0.0
H980 H 0.42383 0.85895 0.11646 0.0
H981 H 0.46816 0.84169 0.1425 0.0
H982 H 0.4315 0.84054 0.23828 0.0
C983 C 0.3391 0.88846 0.18285 0.0
C984 C 0.32878 0.9002 0.15269 0.0
C985 C 0.34237 0.89686 0.12332 0.0
C986 C 0.36685 0.88253 0.12413 0.0
C987 C 0.37693 0.87155 0.1545 0.0
C988 C 0.36331 0.87419 0.1833 0.0
C989 C 0.3795 0.86244 0.21302 0.0
C990 C 0.39154 0.88758 0.23719 0.0
C991 C 0.35894 0.835 0.23002 0.0
C992 C 0.4049 0.85337 0.19661 0.0
C993 C 0.40295 0.8586 0.16283 0.0
C994 C 0.42523 0.85417 0.14276 0.0
C995 C 0.45026 0.84445 0.15766 0.0
C996 C 0.45263 0.8391 0.19215 0.0
C997 C 0.42953 0.84334 0.21175 0.0
H998 H 0.39589 0.50348 0.71862 0.0
H999 H 0.47682 0.56463 0.68489 0.0
H1000 H 0.49686 0.52093 0.66982 0.0
H1001 H 0.43176 0.44583 0.75477 0.0
H1002 H 0.40132 0.41528 0.74241 0.0
H1003 H 0.39367 0.45148 0.74975 0.0
H1004 H 0.36858 0.45351 0.69112 0.0
H1005 H 0.37647 0.41745 0.68346 0.0
H1006 H 0.38966 0.44972 0.65607 0.0
H1007 H 0.50846 0.47023 0.66057 0.0
H1008 H 0.51154 0.41652 0.65974 0.0
H1009 H 0.42184 0.38922 0.69724 0.0
C1010 C 0.41807 0.50759 0.70869 0.0
C1011 C 0.43529 0.53723 0.70364 0.0
C1012 C 0.46363 0.54193 0.68925 0.0
C1013 C 0.47505 0.51733 0.68056 0.0
C1014 C 0.45753 0.48831 0.68602 0.0
C1015 C 0.42964 0.48337 0.69975 0.0
C1016 C 0.41534 0.45006 0.70337 0.0
C1017 C 0.41024 0.44009 0.73973 0.0
C1018 C 0.38576 0.44224 0.68224 0.0
C1019 C 0.43976 0.43693 0.69006 0.0
C1020 C 0.46386 0.45931 0.68001 0.0
C1021 C 0.48964 0.45253 0.66817 0.0
C1022 C 0.49114 0.42206 0.66756 0.0
C1023 C 0.46711 0.39894 0.67887 0.0
C1024 C 0.44075 0.40652 0.68914 0.0
H1025 H 0.18227 0.8509 0.61506 0.0
H1026 H 0.14947 0.86228 0.51446 0.0
H1027 H 0.09688 0.85066 0.53232 0.0
H1028 H 0.13187 0.78708 0.63217 0.0
H1029 H 0.12637 0.79358 0.67434 0.0
H1030 H 0.16118 0.81135 0.65585 0.0
H1031 H 0.15403 0.86412 0.66986 0.0
H1032 H 0.11935 0.84649 0.68913 0.0
H1033 H 0.11941 0.87552 0.65698 0.0
H1034 H 0.04824 0.82761 0.55927 0.0
H1035 H 0.00797 0.79724 0.59343 0.0
H1036 H 0.07326 0.79844 0.67569 0.0
C1037 C 0.16395 0.85192 0.59714 0.0
C1038 C 0.16959 0.8574 0.56356 0.0
C1039 C 0.14536 0.85854 0.54044 0.0
C1040 C 0.11549 0.85184 0.55036 0.0
C1041 C 0.11043 0.84437 0.58351 0.0
C1042 C 0.13408 0.84484 0.60666 0.0
C1043 C 0.12281 0.83166 0.63969 0.0
C1044 C 0.13635 0.8043 0.65115 0.0
C1045 C 0.12928 0.8559 0.66543 0.0
C1046 C 0.08939 0.82222 0.63107 0.0
C1047 C 0.08248 0.8303 0.59882 0.0
C1048 C 0.05327 0.82173 0.58478 0.0
C1049 C 0.0306 0.80436 0.60424 0.0
C1050 C 0.03754 0.7954 0.6371 0.0
C1051 C 0.06721 0.80492 0.65063 0.0
H1052 H 0.24878 0.88521 0.26613 0.0
H1053 H 0.17868 0.92812 0.29485 0.0
H1054 H 0.1643 0.88779 0.33787 0.0
H1055 H 0.21019 0.80297 0.29139 0.0
H1056 H 0.24608 0.79562 0.30655 0.0
H1057 H 0.24426 0.82137 0.27143 0.0
H1058 H 0.28335 0.86286 0.30099 0.0
H1059 H 0.28509 0.83754 0.33613 0.0
H1060 H 0.27561 0.87347 0.341 0.0
H1061 H 0.16568 0.85205 0.38451 0.0
H1062 H 0.18362 0.82458 0.43268 0.0
H1063 H 0.25402 0.80478 0.37588 0.0
C1064 C 0.22943 0.88519 0.28046 0.0
C1065 C 0.21449 0.90937 0.27706 0.0
C1066 C 0.19015 0.90953 0.29701 0.0
C1067 C 0.18171 0.8866 0.3213 0.0
C1068 C 0.19793 0.8638 0.32527 0.0
C1069 C 0.22122 0.86279 0.30526 0.0
C1070 C 0.23892 0.83969 0.3186 0.0
C1071 C 0.23459 0.81334 0.29562 0.0
C1072 C 0.27271 0.85429 0.32455 0.0
C1073 C 0.22351 0.82969 0.35056 0.0
C1074 C 0.19923 0.84307 0.35329 0.0
C1075 C 0.18403 0.84073 0.38232 0.0
C1076 C 0.19452 0.82528 0.40961 0.0
C1077 C 0.22007 0.81254 0.40772 0.0
C1078 C 0.23397 0.81371 0.37754 0.0
H1079 H 0.02132 0.66444 0.66153 0.0
H1080 H 0.92503 0.65217 0.63855 0.0
H1081 H 0.92464 0.60304 0.61525 0.0
H1082 H 0.0383 0.63525 0.58774 0.0
H1083 H 0.06739 0.61783 0.60685 0.0
H1084 H 0.05935 0.6506 0.624 0.0
H1085 H 0.05044 0.62097 0.6802 0.0
H1086 H 0.05804 0.58794 0.66298 0.0
H1087 H 0.02294 0.58569 0.68246 0.0
H1088 H 0.93484 0.55663 0.59323 0.0
H1089 H 0.95577 0.51917 0.56642 0.0
H1090 H 0.04601 0.56189 0.60216 0.0
C1091 C 0.0001 0.65125 0.65184 0.0
C1092 C 0.9731 0.66187 0.65204 0.0
C1093 C 0.94592 0.6444 0.63854 0.0
C1094 C 0.94546 0.61638 0.62561 0.0
C1095 C 0.9724 0.60638 0.62619 0.0
C1096 C -0.00067 0.62349 0.63845 0.0
C1097 C 0.02555 0.60879 0.63356 0.0
C1098 C 0.04902 0.62933 0.61173 0.0
C1099 C 0.04009 0.60035 0.66678 0.0
C1100 C 0.00922 0.58088 0.61611 0.0
C1101 C 0.97849 0.57974 0.61273 0.0
C1102 C 0.95878 0.55715 0.59591 0.0
C1103 C 0.9709 0.53593 0.58086 0.0
C1104 C 0.00246 0.53755 0.58246 0.0
C1105 C 0.02174 0.5597 0.60126 0.0
H1106 H 0.33456 0.72638 0.37761 0.0
H1107 H 0.36421 0.69976 0.47564 0.0
H1108 H 0.41627 0.70663 0.45746 0.0
H1109 H 0.38906 0.69716 0.3306 0.0
H1110 H 0.39433 0.72952 0.30201 0.0
H1111 H 0.35858 0.71623 0.32087 0.0
H1112 H 0.36228 0.76967 0.34196 0.0
H1113 H 0.39825 0.78295 0.32378 0.0
H1114 H 0.39484 0.7867 0.36708 0.0
H1115 H 0.46584 0.72309 0.43098 0.0
H1116 H 0.50924 0.74498 0.3968 0.0
H1117 H 0.44747 0.76498 0.31758 0.0
C1118 C 0.35197 0.72172 0.39506 0.0
C1119 C 0.34559 0.713 0.42808 0.0
C1120 C 0.36871 0.70623 0.45012 0.0
C1121 C 0.39833 0.71027 0.44009 0.0
C1122 C 0.40431 0.72098 0.40793 0.0
C1123 C 0.38173 0.72628 0.38559 0.0
C1124 C 0.39453 0.74059 0.35356 0.0
C1125 C 0.38347 0.71961 0.32508 0.0
C1126 C 0.38703 0.77183 0.34619 0.0
C1127 C 0.42786 0.74327 0.36175 0.0
C1128 C 0.43302 0.73147 0.39302 0.0
C1129 C 0.4621 0.73213 0.40631 0.0
C1130 C 0.48657 0.74477 0.38682 0.0
C1131 C 0.4817 0.75689 0.35465 0.0
C1132 C 0.45195 0.75621 0.34217 0.0
H1133 H 0.26343 0.08989 0.18174 0.0
H1134 H 0.32077 0.041 0.13581 0.0
H1135 H 0.32217 0.07537 0.0866 0.0
H1136 H 0.21859 0.09893 0.11326 0.0
H1137 H 0.21425 0.13647 0.12033 0.0
H1138 H 0.22151 0.11173 0.15455 0.0
H1139 H 0.26889 0.15126 0.17347 0.0
H1140 H 0.26123 0.17662 0.13996 0.0
H1141 H 0.29759 0.16669 0.1446 0.0
H1142 H 0.31035 0.10825 0.03987 0.0
H1143 H 0.29402 0.1452 0.00045 0.0
H1144 H 0.24646 0.17513 0.07699 0.0
C1145 C 0.27734 0.08722 0.16192 0.0
C1146 C 0.29207 0.06285 0.16255 0.0
C1147 C 0.30942 0.05961 0.13581 0.0
C1148 C 0.31021 0.07889 0.10771 0.0
C1149 C 0.29378 0.1014 0.10699 0.0
C1150 C 0.27833 0.10627 0.13362 0.0
C1151 C 0.26104 0.13095 0.12551 0.0
C1152 C 0.22683 0.11878 0.1286 0.0
C1153 C 0.27291 0.15799 0.14716 0.0
C1154 C 0.26878 0.13872 0.08996 0.0
C1155 C 0.28745 0.12113 0.07984 0.0
C1156 C 0.2963 0.12267 0.04766 0.0
C1157 C 0.28676 0.14359 0.02544 0.0
C1158 C 0.26881 0.163 0.03546 0.0
C1159 C 0.25949 0.16028 0.06818 0.0
H1160 H 0.79234 0.6921 0.84808 0.0
H1161 H 0.83237 0.63607 0.91903 0.0
H1162 H 0.87056 0.63256 0.87943 0.0
H1163 H 0.80987 0.65704 0.77143 0.0
H1164 H 0.81796 0.69339 0.74958 0.0
H1165 H 0.79003 0.68564 0.78043 0.0
H1166 H 0.81861 0.73289 0.81071 0.0
H1167 H 0.84671 0.74058 0.78027 0.0
H1168 H 0.85791 0.73622 0.82313 0.0
H1169 H 0.90992 0.64418 0.83759 0.0
H1170 H 0.94549 0.66687 0.79466 0.0
H1171 H 0.87935 0.7149 0.75052 0.0
C1172 C 0.8087 0.67846 0.85473 0.0
C1173 C 0.80975 0.66444 0.88637 0.0
C1174 C 0.83124 0.64665 0.89462 0.0
C1175 C 0.85296 0.64462 0.87235 0.0
C1176 C 0.8524 0.66011 0.84184 0.0
C1177 C 0.83047 0.67626 0.83276 0.0
C1178 C 0.83679 0.69366 0.80023 0.0
C1179 C 0.8122 0.6817 0.77385 0.0
C1180 C 0.84022 0.72784 0.80383 0.0
C1181 C 0.86651 0.68608 0.79329 0.0
C1182 C 0.87499 0.6664 0.81733 0.0
C1183 C 0.90318 0.6589 0.81811 0.0
C1184 C 0.92329 0.67203 0.79381 0.0
C1185 C 0.915 0.69237 0.76918 0.0
C1186 C 0.88604 0.69891 0.76864 0.0
H1187 H 0.37631 0.67409 0.67212 0.0
H1188 H 0.36841 0.73154 0.75064 0.0
H1189 H 0.35168 0.76769 0.71017 0.0
H1190 H 0.39478 0.73658 0.60321 0.0
H1191 H 0.37144 0.71201 0.57429 0.0
H1192 H 0.39222 0.69639 0.60742 0.0
H1193 H 0.3423 0.66085 0.62512 0.0
H1194 H 0.32109 0.67704 0.59314 0.0
H1195 H 0.31128 0.67689 0.63537 0.0
H1196 H 0.32364 0.78993 0.6645 0.0
H1197 H 0.2926 0.80047 0.6152 0.0
H1198 H 0.317 0.7273 0.56687 0.0
C1199 C 0.3731 0.6953 0.68047 0.0
C1200 C 0.37413 0.7004 0.71431 0.0
C1201 C 0.36826 0.72762 0.72467 0.0
C1202 C 0.35855 0.74816 0.70186 0.0
C1203 C 0.35501 0.74112 0.66887 0.0
C1204 C 0.3628 0.71567 0.65803 0.0
C1205 C 0.35222 0.71052 0.62252 0.0
C1206 C 0.37928 0.71411 0.60056 0.0
C1207 C 0.33044 0.67951 0.61887 0.0
C1208 C 0.33597 0.73604 0.61569 0.0
C1209 C 0.33815 0.7537 0.64251 0.0
C1210 C 0.32248 0.77681 0.643 0.0
C1211 C 0.30462 0.78239 0.61507 0.0
C1212 C 0.30248 0.76477 0.5872 0.0
C1213 C 0.31844 0.74138 0.58766 0.0
H1214 H 0.32033 0.02115 0.31997 0.0
H1215 H 0.3591 0.97071 0.25333 0.0
H1216 H 0.40825 0.98413 0.28394 0.0
H1217 H 0.38425 0.08168 0.33025 0.0
H1218 H 0.37948 0.08489 0.37338 0.0
H1219 H 0.34711 0.07104 0.34651 0.0
H1220 H 0.33309 0.02215 0.38368 0.0
H1221 H 0.3651 0.03609 0.41097 0.0
H1222 H 0.36093 -0.00019 0.39353 0.0
H1223 H 0.45368 0.00467 0.32079 0.0
H1224 H 0.49042 0.02548 0.36496 0.0
H1225 H 0.42154 0.06161 0.40822 0.0
C1226 C 0.33905 0.0127 0.31187 0.0
C1227 C 0.33586 0.99507 0.28392 0.0
C1228 C 0.36096 0.98439 0.2744 0.0
C1229 C 0.38904 0.992 0.29162 0.0
C1230 C 0.39157 0.01012 0.31847 0.0
C1231 C 0.36713 0.01991 0.32888 0.0
C1232 C 0.37563 0.0385 0.35897 0.0
C1233 C 0.37137 0.07095 0.35183 0.0
C1234 C 0.35762 0.02322 0.38853 0.0
C1235 C 0.40875 0.03776 0.3638 0.0
C1236 C 0.41756 0.02148 0.34002 0.0
C1237 C 0.44702 0.01741 0.33958 0.0
C1238 C 0.46778 0.02948 0.36471 0.0
C1239 C 0.45893 0.04526 0.39008 0.0
C1240 C 0.42914 0.04991 0.38909 0.0
H1241 H 0.86986 0.79318 0.95859 0.0
H1242 H 0.86154 0.77504 0.06349 0.0
H1243 H 0.90747 0.81408 0.07417 0.0
H1244 H 0.95825 0.81853 0.9617 0.0
H1245 H 0.95595 0.84716 0.92967 0.0
H1246 H 0.92871 0.81164 0.9298 0.0
H1247 H 0.8855 0.84058 0.92807 0.0
H1248 H 0.91241 0.87598 0.92856 0.0
H1249 H 0.8848 0.8665 0.95968 0.0
H1250 H 0.94243 0.86353 0.07414 0.0
H1251 H 0.969 0.91651 0.06263 0.0
H1252 H 0.95789 0.90225 0.95807 0.0
C1253 C 0.87894 0.79626 0.98361 0.0
C1254 C 0.86257 0.78109 0.01022 0.0
C1255 C 0.87409 0.7864 0.04282 0.0
C1256 C 0.90019 0.80849 0.04913 0.0
C1257 C 0.91473 0.82483 0.02252 0.0
C1258 C 0.90508 0.81849 0.99029 0.0
C1259 C 0.92181 0.8424 0.96646 0.0
C1260 C 0.94241 0.82913 0.94569 0.0
C1261 C 0.89981 0.85723 0.94445 0.0
C1262 C 0.94021 0.86427 0.99042 0.0
C1263 C 0.93624 0.85351 0.02263 0.0
C1264 C 0.94683 0.87177 0.04905 0.0
C1265 C 0.96164 0.90187 0.04236 0.0
C1266 C 0.96587 0.91317 0.00956 0.0
C1267 C 0.95576 0.89386 0.98343 0.0
H1268 H 0.67534 0.22375 0.53628 0.0
H1269 H 0.71508 0.21791 0.44345 0.0
H1270 H 0.66413 0.20083 0.41754 0.0
H1271 H 0.62557 0.15724 0.53268 0.0
H1272 H 0.59534 0.16838 0.5521 0.0
H1273 H 0.63365 0.18777 0.5604 0.0
H1274 H 0.61905 0.23852 0.542 0.0
H1275 H 0.58064 0.2189 0.53288 0.0
H1276 H 0.60172 0.24295 0.50161 0.0
H1277 H 0.61188 0.17634 0.40447 0.0
H1278 H 0.56464 0.13771 0.40773 0.0
H1279 H 0.55734 0.15779 0.50892 0.0
C1280 C 0.67313 0.21965 0.51026 0.0
C1281 C 0.69887 0.22226 0.49167 0.0
C1282 C 0.69548 0.21593 0.45801 0.0
C1283 C 0.66664 0.20675 0.44301 0.0
C1284 C 0.64157 0.20399 0.4621 0.0
C1285 C 0.64455 0.20991 0.49514 0.0
C1286 C 0.61481 0.19951 0.5117 0.0
C1287 C 0.61752 0.17687 0.54089 0.0
C1288 C 0.60339 0.22659 0.52269 0.0
C1289 C 0.59514 0.18463 0.48341 0.0
C1290 C 0.61069 0.18881 0.45463 0.0
C1291 C 0.59914 0.17355 0.42648 0.0
C1292 C 0.57224 0.15174 0.42848 0.0
C1293 C 0.55746 0.14535 0.45845 0.0
C1294 C 0.56783 0.16328 0.48549 0.0
H1295 H 0.84329 0.42778 0.19696 0.0
H1296 H 0.7875 0.37447 0.12275 0.0
H1297 H 0.83079 0.35259 0.1104 0.0
H1298 H 0.9165 0.44152 0.15379 0.0
H1299 H 0.93759 0.43841 0.19221 0.0
H1300 H 0.90383 0.45321 0.19101 0.0
H1301 H 0.88199 0.41295 0.23596 0.0
H1302 H 0.91522 0.3975 0.23684 0.0
H1303 H 0.87851 0.3735 0.22896 0.0
H1304 H 0.87768 0.33208 0.11155 0.0
H1305 H 0.925 0.31488 0.12511 0.0
H1306 H 0.95095 0.3835 0.19709 0.0
C1307 C 0.84067 0.41285 0.17684 0.0
C1308 C 0.81245 0.40361 0.15983 0.0
C1309 C 0.80924 0.38225 0.13536 0.0
C1310 C 0.83364 0.36978 0.12827 0.0
C1311 C 0.86104 0.37899 0.14595 0.0
C1312 C 0.86478 0.4003 0.16951 0.0
C1313 C 0.89552 0.40418 0.18729 0.0
C1314 C 0.91449 0.43624 0.18066 0.0
C1315 C 0.89261 0.39657 0.22445 0.0
C1316 C 0.90812 0.38094 0.17088 0.0
C1317 C 0.888 0.36688 0.14691 0.0
C1318 C 0.89379 0.34327 0.1299 0.0
C1319 C 0.92069 0.33366 0.13779 0.0
C1320 C 0.94143 0.34741 0.16264 0.0
C1321 C 0.93526 0.37185 0.17877 0.0
H1322 H 0.12783 0.57244 0.49713 0.0
H1323 H 0.04273 0.59954 0.47533 0.0
H1324 H 0.06885 0.65313 0.48107 0.0
H1325 H 0.15452 0.62258 0.55886 0.0
H1326 H 0.19349 0.63045 0.54804 0.0
H1327 H 0.16914 0.59457 0.53935 0.0
H1328 H 0.18027 0.60187 0.47757 0.0
H1329 H 0.20606 0.63705 0.48596 0.0
H1330 H 0.17577 0.63616 0.45519 0.0
H1331 H 0.10489 0.70379 0.49278 0.0
H1332 H 0.14869 0.74689 0.50099 0.0
H1333 H 0.20803 0.68412 0.51629 0.0
C1334 C 0.11472 0.58965 0.49285 0.0
C1335 C 0.08338 0.58202 0.48568 0.0
C1336 C 0.06694 0.6051 0.48042 0.0
C1337 C 0.08148 0.63548 0.48406 0.0
C1338 C 0.11229 0.64204 0.49281 0.0
C1339 C 0.12871 0.61972 0.4965 0.0
C1340 C 0.1614 0.63214 0.50606 0.0
C1341 C 0.17011 0.61916 0.5401 0.0
C1342 C 0.18208 0.62649 0.47961 0.0
C1343 C 0.16101 0.6651 0.50703 0.0
C1344 C 0.13255 0.67057 0.4997 0.0
C1345 C 0.12726 0.69975 0.49852 0.0
C1346 C 0.15208 0.72399 0.50353 0.0
C1347 C 0.18144 0.71852 0.5092 0.0
C1348 C 0.18568 0.68876 0.512 0.0
H1349 H 0.64803 0.09716 0.82162 0.0
H1350 H 0.59271 0.02155 0.87488 0.0
H1351 H 0.55537 0.0525 0.88284 0.0
H1352 H 0.63257 0.15642 0.86993 0.0
H1353 H 0.63179 0.18226 0.83473 0.0
H1354 H 0.6549 0.15471 0.83524 0.0
H1355 H 0.6282 0.13463 0.78053 0.0
H1356 H 0.60499 0.16207 0.77991 0.0
H1357 H 0.58761 0.12249 0.77789 0.0
H1358 H 0.52261 0.09102 0.88194 0.0
H1359 H 0.49731 0.13412 0.87222 0.0
H1360 H 0.57454 0.18439 0.8203 0.0
C1361 C 0.62796 0.08709 0.83472 0.0
C1362 C 0.62291 0.05681 0.84715 0.0
C1363 C 0.59687 0.04471 0.86513 0.0
C1364 C 0.57557 0.06208 0.86969 0.0
C1365 C 0.58084 0.09166 0.85641 0.0
C1366 C 0.6065 0.10412 0.83944 0.0
C1367 C 0.60645 0.13614 0.82684 0.0
C1368 C 0.633 0.15872 0.84264 0.0
C1369 C 0.60683 0.13898 0.78906 0.0
C1370 C 0.57651 0.13955 0.83881 0.0
C1371 C 0.56211 0.11374 0.85599 0.0
C1372 C 0.53374 0.11138 0.86863 0.0
C1373 C 0.51957 0.13589 0.8631 0.0
C1374 C 0.53366 0.16219 0.84488 0.0
C1375 C 0.5628 0.16419 0.83336 0.0
H1376 H 0.73252 0.5789 0.20472 0.0
H1377 H 0.7396 0.51041 0.13738 0.0
H1378 H 0.75168 0.54941 0.09324 0.0
H1379 H 0.6984 0.62639 0.14158 0.0
H1380 H 0.71854 0.66146 0.15815 0.0
H1381 H 0.70819 0.62818 0.18498 0.0
H1382 H 0.7639 0.63374 0.20543 0.0
H1383 H 0.77471 0.6669 0.17861 0.0
H1384 H 0.79249 0.63542 0.17609 0.0
H1385 H 0.77011 0.59437 0.05915 0.0
H1386 H 0.78412 0.64391 0.03102 0.0
H1387 H 0.76135 0.68603 0.11638 0.0
C1388 C 0.73582 0.57209 0.18048 0.0
C1389 C 0.7353 0.54149 0.17471 0.0
C1390 C 0.74005 0.53359 0.14264 0.0
C1391 C 0.74701 0.55562 0.1173 0.0
C1392 C 0.74871 0.58555 0.12408 0.0
C1393 C 0.74247 0.59398 0.15443 0.0
C1394 C 0.74628 0.62817 0.15446 0.0
C1395 C 0.71605 0.63654 0.16011 0.0
C1396 C 0.77081 0.64185 0.18019 0.0
C1397 C 0.75636 0.63739 0.11963 0.0
C1398 C 0.75788 0.61221 0.10302 0.0
C1399 C 0.76839 0.61428 0.07153 0.0
C1400 C 0.77659 0.64278 0.05587 0.0
C1401 C 0.77372 0.66915 0.07126 0.0
C1402 C 0.76378 0.6664 0.10389 0.0
H1403 H 0.90999 0.54242 0.4109 0.0
H1404 H 0.96302 0.48912 0.36566 0.0
H1405 H 0.93733 0.49663 0.31207 0.0
H1406 H 0.84463 0.50939 0.37612 0.0
H1407 H 0.82808 0.54202 0.37031 0.0
H1408 H 0.85698 0.5411 0.4019 0.0
H1409 H 0.88879 0.59116 0.37701 0.0
H1410 H 0.85983 0.59197 0.34496 0.0
H1411 H 0.89819 0.59371 0.33443 0.0
H1412 H 0.899 0.49868 0.26832 0.0
H1413 H 0.84909 0.49126 0.23994 0.0
H1414 H 0.81933 0.54331 0.3121 0.0
C1415 C 0.91683 0.53341 0.38929 0.0
C1416 C 0.93913 0.51619 0.39199 0.0
C1417 C 0.947 0.50361 0.36375 0.0
C1418 C 0.93247 0.50776 0.3332 0.0
C1419 C 0.91009 0.52447 0.33137 0.0
C1420 C 0.90231 0.53718 0.35872 0.0
C1421 C 0.87376 0.54885 0.35189 0.0
C1422 C 0.84946 0.53445 0.37648 0.0
C1423 C 0.88057 0.58349 0.35208 0.0
C1424 C 0.86519 0.53817 0.31752 0.0
C1425 C 0.88706 0.52528 0.30562 0.0
C1426 C 0.88211 0.50955 0.27681 0.0
C1427 C 0.85356 0.50539 0.26079 0.0
C1428 C 0.83029 0.51669 0.27379 0.0
C1429 C 0.83683 0.53479 0.30133 0.0
H1430 H 0.24743 0.59244 0.71965 0.0
H1431 H 0.32075 0.59289 0.6558 0.0
H1432 H 0.28414 0.56903 0.61317 0.0
H1433 H 0.20593 0.52172 0.70204 0.0
H1434 H 0.16906 0.53031 0.70224 0.0
H1435 H 0.20011 0.55176 0.72615 0.0
H1436 H 0.19165 0.60148 0.69671 0.0
H1437 H 0.16017 0.58029 0.67298 0.0
H1438 H 0.19079 0.60523 0.65239 0.0
H1439 H 0.24144 0.53912 0.58101 0.0
H1440 H 0.19336 0.50843 0.55859 0.0
H1441 H 0.14713 0.52733 0.64215 0.0
C1442 C 0.25561 0.58836 0.69629 0.0
C1443 C 0.28685 0.59445 0.69096 0.0
C1444 C 0.29687 0.58825 0.66038 0.0
C1445 C 0.27627 0.57479 0.63598 0.0
C1446 C 0.24573 0.56788 0.64245 0.0
C1447 C 0.23527 0.5748 0.67159 0.0
C1448 C 0.20144 0.56291 0.67307 0.0
C1449 C 0.1937 0.54033 0.70263 0.0
C1450 C 0.18505 0.58904 0.67382 0.0
C1451 C 0.19483 0.54733 0.64078 0.0
C1452 C 0.22072 0.55069 0.62347 0.0
C1453 C 0.22087 0.53676 0.59399 0.0
C1454 C 0.19369 0.51919 0.58163 0.0
C1455 C 0.16687 0.51587 0.59867 0.0
C1456 C 0.16741 0.53008 0.62857 0.0
H1457 H 0.64869 0.77341 0.24359 0.0
H1458 H 0.60334 0.84212 0.20042 0.0
H1459 H 0.6452 0.86025 0.16346 0.0
H1460 H 0.72784 0.81793 0.2359 0.0
H1461 H 0.74102 0.78535 0.22502 0.0
H1462 H 0.71014 0.78084 0.25205 0.0
H1463 H 0.67651 0.74266 0.2132 0.0
H1464 H 0.7073 0.74686 0.18634 0.0
H1465 H 0.67145 0.7537 0.17037 0.0
H1466 H 0.68774 0.867 0.12718 0.0
H1467 H 0.72548 0.85813 0.08995 0.0
H1468 H 0.74444 0.78612 0.15661 0.0
C1469 C 0.64792 0.79263 0.22677 0.0
C1470 C 0.62295 0.80644 0.22484 0.0
C1471 C 0.6223 0.83115 0.20215 0.0
C1472 C 0.64611 0.84186 0.18136 0.0
C1473 C 0.67036 0.82766 0.18367 0.0
C1474 C 0.67139 0.80344 0.20561 0.0
C1475 C 0.69809 0.78977 0.20021 0.0
C1476 C 0.72061 0.79373 0.23008 0.0
C1477 C 0.6877 0.75629 0.19203 0.0
C1478 C 0.711 0.8092 0.17081 0.0
C1479 C 0.69513 0.83142 0.16224 0.0
C1480 C 0.70077 0.85013 0.13395 0.0
C1481 C 0.72224 0.84504 0.11305 0.0
C1482 C 0.73735 0.82124 0.12045 0.0
C1483 C 0.7328 0.80419 0.15043 0.0
H1484 H 0.65735 0.41894 0.18482 0.0
H1485 H 0.63173 0.44822 0.27611 0.0
H1486 H 0.57921 0.44183 0.25413 0.0
H1487 H 0.6248 0.46138 0.1371 0.0
H1488 H 0.61162 0.43654 0.10393 0.0
H1489 H 0.64313 0.43106 0.1301 0.0
H1490 H 0.61575 0.37587 0.1444 0.0
H1491 H 0.584 0.38106 0.11774 0.0
H1492 H 0.57838 0.36815 0.16005 0.0
H1493 H 0.53568 0.44793 0.21833 0.0
H1494 H 0.5058 0.46614 0.17233 0.0
H1495 H 0.55893 0.43387 0.10311 0.0
C1496 C 0.64029 0.42236 0.20078 0.0
C1497 C 0.64846 0.43398 0.23209 0.0
C1498 C 0.62585 0.43918 0.25203 0.0
C1499 C 0.59588 0.4354 0.2398 0.0
C1500 C 0.5889 0.42623 0.20771 0.0
C1501 C 0.61043 0.41925 0.18859 0.0
C1502 C 0.59923 0.41634 0.15298 0.0
C1503 C 0.62096 0.43762 0.12973 0.0
C1504 C 0.59402 0.38339 0.14323 0.0
C1505 C 0.56956 0.42598 0.15443 0.0
C1506 C 0.56334 0.43029 0.18639 0.0
C1507 C 0.53972 0.44368 0.19333 0.0
C1508 C 0.52293 0.45412 0.167 0.0
C1509 C 0.53018 0.45147 0.13418 0.0
C1510 C 0.55272 0.43586 0.12798 0.0
H1511 H 0.39435 0.45784 0.02986 0.0
H1512 H 0.46312 0.40578 0.02397 0.0
H1513 H 0.42456 0.363 0.00334 0.0
H1514 H 0.33379 0.39657 0.0548 0.0
H1515 H 0.30517 0.41017 0.02963 0.0
H1516 H 0.33803 0.43646 0.04504 0.0
H1517 H 0.34954 0.45742 0.98549 0.0
H1518 H 0.31684 0.43101 0.96988 0.0
H1519 H 0.35351 0.43191 0.95468 0.0
H1520 H 0.37935 0.32582 0.98562 0.0
H1521 H 0.32901 0.296 0.96907 0.0
H1522 H 0.28974 0.37313 0.98191 0.0
C1523 C 0.40106 0.43725 0.02454 0.0
C1524 C 0.4314 0.43472 0.02871 0.0
C1525 C 0.4398 0.40788 0.02093 0.0
C1526 C 0.41816 0.38357 0.00922 0.0
C1527 C 0.38846 0.38681 0.00497 0.0
C1528 C 0.37982 0.41295 0.01209 0.0
C1529 C 0.34645 0.41067 0.0042 0.0
C1530 C 0.32989 0.41363 0.03527 0.0
C1531 C 0.3413 0.43415 0.97694 0.0
C1532 C 0.33772 0.37896 0.99211 0.0
C1533 C 0.36233 0.36564 0.99295 0.0
C1534 C 0.35989 0.33599 0.98453 0.0
C1535 C 0.33131 0.31928 0.97529 0.0
C1536 C 0.30586 0.33253 0.97418 0.0
C1537 C 0.30909 0.36281 0.9822 0.0
H1538 H 0.15725 0.20028 0.34636 0.0
H1539 H 0.07358 0.16565 0.29113 0.0
H1540 H 0.08687 0.11646 0.28981 0.0
H1541 H 0.20051 0.17047 0.29894 0.0
H1542 H 0.22661 0.16116 0.33081 0.0
H1543 H 0.2075 0.19108 0.33607 0.0
H1544 H 0.18629 0.16489 0.39058 0.0
H1545 H 0.20575 0.13498 0.38578 0.0
H1546 H 0.16558 0.12616 0.39103 0.0
H1547 H 0.11249 0.07498 0.28457 0.0
H1548 H 0.14918 0.04341 0.27674 0.0
H1549 H 0.21782 0.10436 0.33273 0.0
C1550 C 0.14119 0.18181 0.33542 0.0
C1551 C 0.11365 0.18647 0.32046 0.0
C1552 C 0.09385 0.1623 0.30468 0.0
C1553 C 0.10142 0.13424 0.30339 0.0
C1554 C 0.12909 0.13068 0.31757 0.0
C1555 C 0.1487 0.15372 0.33347 0.0
C1556 C 0.1789 0.14553 0.34213 0.0
C1557 C 0.20489 0.16841 0.32601 0.0
C1558 C 0.18445 0.14272 0.37962 0.0
C1559 C 0.17367 0.11502 0.3271 0.0
C1560 C 0.14457 0.10669 0.31361 0.0
C1561 C 0.13513 0.08091 0.29561 0.0
C1562 C 0.15607 0.06331 0.291 0.0
C1563 C 0.18604 0.07173 0.3041 0.0
C1564 C 0.19479 0.09746 0.32298 0.0
H1565 H 0.22902 0.39701 0.82806 0.0
H1566 H 0.20763 0.42489 0.92192 0.0
H1567 H 0.23993 0.47552 0.91105 0.0
H1568 H 0.30613 0.43416 0.83103 0.0
H1569 H 0.30782 0.44557 0.78794 0.0
H1570 H 0.28101 0.41216 0.80132 0.0
H1571 H 0.23688 0.43336 0.77317 0.0
H1572 H 0.26363 0.46647 0.75897 0.0
H1573 H 0.23256 0.47036 0.78269 0.0
H1574 H 0.27702 0.52066 0.89274 0.0
H1575 H 0.31113 0.56235 0.86371 0.0
H1576 H 0.3098 0.50618 0.78098 0.0
C1577 C 0.23082 0.41409 0.8459 0.0
C1578 C 0.21596 0.40734 0.87581 0.0
C1579 C 0.21856 0.42999 0.89872 0.0
C1580 C 0.23713 0.45855 0.89293 0.0
C1581 C 0.2527 0.46403 0.86398 0.0
C1582 C 0.24932 0.44278 0.84045 0.0
C1583 C 0.26891 0.45468 0.81155 0.0
C1584 C 0.29235 0.43549 0.80775 0.0
C1585 C 0.24932 0.45632 0.77971 0.0
C1586 C 0.28391 0.48592 0.82266 0.0
C1587 C 0.27433 0.49053 0.85316 0.0
C1588 C 0.28455 0.51746 0.86877 0.0
C1589 C 0.30403 0.54091 0.85214 0.0
C1590 C 0.31304 0.53738 0.82019 0.0
C1591 C 0.30359 0.50925 0.80559 0.0
H1592 H 0.29063 0.23221 0.89647 0.0
H1593 H 0.24995 0.29311 0.83179 0.0
H1594 H 0.29104 0.29735 0.79353 0.0
H1595 H 0.36312 0.27221 0.89054 0.0
H1596 H 0.38079 0.24032 0.89166 0.0
H1597 H 0.3454 0.23687 0.91071 0.0
H1598 H 0.32093 0.19146 0.87555 0.0
H1599 H 0.35646 0.19429 0.85676 0.0
H1600 H 0.3228 0.19532 0.83141 0.0
H1601 H 0.33971 0.30071 0.76672 0.0
H1602 H 0.39142 0.30126 0.75147 0.0
H1603 H 0.40144 0.23927 0.83462 0.0
C1604 C 0.28965 0.2455 0.87363 0.0
C1605 C 0.26684 0.26203 0.86688 0.0
C1606 C 0.26697 0.27995 0.83724 0.0
C1607 C 0.29025 0.28254 0.81541 0.0
C1608 C 0.31316 0.26705 0.82361 0.0
C1609 C 0.31288 0.24861 0.85184 0.0
C1610 C 0.34173 0.23701 0.85678 0.0
C1611 C 0.35875 0.24723 0.88934 0.0
C1612 C 0.33507 0.20247 0.855 0.0
C1613 C 0.35869 0.2525 0.8274 0.0
C1614 C 0.34165 0.26944 0.80843 0.0
C1615 C 0.35306 0.28714 0.78108 0.0
C1616 C 0.38259 0.28742 0.77275 0.0
C1617 C 0.40053 0.27024 0.79182 0.0
C1618 C 0.38826 0.25246 0.81943 0.0
H1619 H 0.48988 0.54723 0.94172 0.0
H1620 H 0.45836 0.59121 0.02015 0.0
H1621 H 0.43964 0.62568 0.97937 0.0
H1622 H 0.51021 0.61626 0.8847 0.0
H1623 H 0.49655 0.59484 0.849 0.0
H1624 H 0.51252 0.57719 0.88443 0.0
H1625 H 0.46356 0.53523 0.88739 0.0
H1626 H 0.44765 0.55262 0.85197 0.0
H1627 H 0.42773 0.54574 0.88959 0.0
H1628 H 0.41746 0.6498 0.93086 0.0
H1629 H 0.39162 0.66009 0.87785 0.0
H1630 H 0.43826 0.60164 0.83057 0.0
C1631 C 0.47977 0.56466 0.95028 0.0
C1632 C 0.47563 0.5666 0.98403 0.0
C1633 C 0.4617 0.58926 0.99434 0.0
C1634 C 0.45123 0.60916 0.9714 0.0
C1635 C 0.45502 0.60628 0.93823 0.0
C1636 C 0.46901 0.58465 0.92763 0.0
C1637 C 0.46695 0.58395 0.8905 0.0
C1638 C 0.49843 0.59365 0.87633 0.0
C1639 C 0.45048 0.55254 0.87922 0.0
C1640 C 0.44834 0.60746 0.88209 0.0
C1641 C 0.44223 0.62053 0.9099 0.0
C1642 C 0.42264 0.64031 0.90875 0.0
C1643 C 0.40805 0.64603 0.87854 0.0
C1644 C 0.41308 0.63187 0.85005 0.0
C1645 C 0.4344 0.61333 0.85175 0.0
H1646 H 0.69582 0.65472 0.00712 0.0
H1647 H 0.66069 0.73284 0.02714 0.0
H1648 H 0.61762 0.69927 0.0546 0.0
H1649 H 0.62569 0.60312 0.99116 0.0
H1650 H 0.63864 0.57162 0.01141 0.0
H1651 H 0.66527 0.60239 0.99271 0.0
H1652 H 0.69604 0.60886 0.0485 0.0
H1653 H 0.66878 0.57888 0.06778 0.0
H1654 H 0.67795 0.61577 0.08452 0.0
H1655 H 0.5781 0.65654 0.07901 0.0
H1656 H 0.54254 0.60812 0.09201 0.0
H1657 H 0.60681 0.55949 0.05953 0.0
C1658 C 0.67864 0.66476 0.01644 0.0
C1659 C 0.68111 0.69624 0.01444 0.0
C1660 C 0.65878 0.70862 0.02799 0.0
C1661 C 0.63456 0.68982 0.04398 0.0
C1662 C 0.63351 0.6589 0.04671 0.0
C1663 C 0.65488 0.64651 0.03308 0.0
C1664 C 0.64894 0.61273 0.03934 0.0
C1665 C 0.64434 0.59652 0.00672 0.0
C1666 C 0.67444 0.60353 0.06134 0.0
C1667 C 0.62002 0.60778 0.05736 0.0
C1668 C 0.61168 0.63466 0.06196 0.0
C1669 C 0.58453 0.63536 0.07589 0.0
C1670 C 0.5646 0.60779 0.08348 0.0
C1671 C 0.57202 0.58019 0.0767 0.0
C1672 C 0.60068 0.5803 0.06515 0.0
H1673 H 0.83321 0.77946 0.67554 0.0
H1674 H 0.89417 0.83377 0.60633 0.0
H1675 H 0.86893 0.87618 0.61065 0.0
H1676 H 0.76631 0.80891 0.64899 0.0
H1677 H 0.75382 0.80828 0.69024 0.0
H1678 H 0.77513 0.78145 0.6796 0.0
H1679 H 0.81422 0.79897 0.72718 0.0
H1680 H 0.79327 0.82614 0.7377 0.0
H1681 H 0.83261 0.83833 0.72874 0.0
H1682 H 0.83984 0.91368 0.62532 0.0
H1683 H 0.80598 0.94313 0.64661 0.0
H1684 H 0.76355 0.86502 0.70652 0.0
C1685 C 0.84113 0.80027 0.6613 0.0
C1686 C 0.86583 0.80351 0.64081 0.0
C1687 C 0.87515 0.83082 0.62193 0.0
C1688 C 0.86111 0.85507 0.62444 0.0
C1689 C 0.83761 0.85157 0.6458 0.0
C1690 C 0.82739 0.82478 0.66362 0.0
C1691 C 0.80212 0.8273 0.68535 0.0
C1692 C 0.77259 0.80517 0.67544 0.0
C1693 C 0.8111 0.8224 0.72191 0.0
C1694 C 0.80003 0.85982 0.67722 0.0
C1695 C 0.82076 0.87334 0.65436 0.0
C1696 C 0.82346 0.90333 0.64316 0.0
C1697 C 0.80426 0.91988 0.6554 0.0
C1698 C 0.78276 0.90655 0.67871 0.0
C1699 C 0.7805 0.87604 0.68957 0.0
H1700 H 0.45748 0.23521 0.64936 0.0
H1701 H 0.43612 0.17248 0.73347 0.0
H1702 H 0.41583 0.13127 0.69603 0.0
H1703 H 0.39353 0.19998 0.59251 0.0
H1704 H 0.41727 0.20685 0.55771 0.0
H1705 H 0.42456 0.23247 0.5908 0.0
H1706 H 0.47963 0.22505 0.59821 0.0
H1707 H 0.47254 0.19971 0.5651 0.0
H1708 H 0.48612 0.18736 0.60484 0.0
H1709 H 0.40406 0.09603 0.65014 0.0
H1710 H 0.40695 0.06895 0.59988 0.0
H1711 H 0.43688 0.15423 0.54604 0.0
C1712 C 0.44775 0.21297 0.65988 0.0
C1713 C 0.44801 0.20701 0.69421 0.0
C1714 C 0.43597 0.17748 0.70715 0.0
C1715 C 0.42415 0.15403 0.68611 0.0
C1716 C 0.42463 0.16055 0.65227 0.0
C1717 C 0.4363 0.1893 0.63925 0.0
C1718 C 0.43823 0.18961 0.60234 0.0
C1719 C 0.41713 0.20834 0.58481 0.0
C1720 C 0.47107 0.20109 0.59205 0.0
C1721 C 0.427 0.15636 0.59676 0.0
C1722 C 0.41848 0.14005 0.62572 0.0
C1723 C 0.41006 0.10859 0.62721 0.0
C1724 C 0.41161 0.0934 0.59866 0.0
C1725 C 0.42196 0.10976 0.56947 0.0
C1726 C 0.42856 0.14152 0.56817 0.0
H1727 H 0.52895 0.3178 0.86854 0.0
H1728 H 0.53001 0.37772 0.78127 0.0
H1729 H 0.54882 0.42161 0.81494 0.0
H1730 H 0.5012 0.36246 0.92006 0.0
H1731 H 0.52337 0.35459 0.95631 0.0
H1732 H 0.51381 0.32745 0.92495 0.0
H1733 H 0.57058 0.32811 0.91996 0.0
H1734 H 0.58032 0.35537 0.95134 0.0
H1735 H 0.59676 0.36351 0.91173 0.0
H1736 H 0.56108 0.45913 0.85798 0.0
H1737 H 0.56641 0.48774 0.9087 0.0
H1738 H 0.55896 0.40451 0.968 0.0
C1739 C 0.53378 0.34012 0.85647 0.0
C1740 C 0.5281 0.34428 0.82229 0.0
C1741 C 0.5342 0.3739 0.80744 0.0
C1742 C 0.54505 0.39904 0.82631 0.0
C1743 C 0.54991 0.39425 0.85999 0.0
C1744 C 0.54464 0.36557 0.875 0.0
C1745 C 0.54938 0.36694 0.912 0.0
C1746 C 0.5202 0.35198 0.92933 0.0
C1747 C 0.57584 0.35263 0.92449 0.0
C1748 C 0.55714 0.40082 0.91539 0.0
C1749 C 0.55762 0.41615 0.88503 0.0
C1750 C 0.56149 0.44748 0.88189 0.0
C1751 C 0.56446 0.46353 0.9106 0.0
C1752 C 0.56364 0.44816 0.94177 0.0
C1753 C 0.56055 0.41659 0.94423 0.0
H1754 H 0.56537 0.89077 0.29929 0.0
H1755 H 0.62079 0.84624 0.3671 0.0
H1756 H 0.64213 0.89466 0.3925 0.0
H1757 H 0.62072 0.96675 0.29304 0.0
H1758 H 0.59025 0.9864 0.29181 0.0
H1759 H 0.58453 0.95005 0.27405 0.0
H1760 H 0.5387 0.92967 0.31044 0.0
H1761 H 0.54418 0.96583 0.32798 0.0
H1762 H 0.54372 0.93252 0.35443 0.0
H1763 H 0.64924 0.9439 0.41743 0.0
H1764 H 0.63899 0.989 0.4415 0.0
H1765 H 0.58193 0.00333 0.35607 0.0
C1766 C 0.58257 0.89137 0.31894 0.0
C1767 C 0.59139 0.86483 0.3313 0.0
C1768 C 0.61369 0.86637 0.35726 0.0
C1769 C 0.62619 0.89382 0.37161 0.0
C1770 C 0.6165 0.91952 0.35933 0.0
C1771 C 0.59531 0.91857 0.33341 0.0
C1772 C 0.58548 0.9482 0.32785 0.0
C1773 C 0.59588 0.96377 0.29471 0.0
C1774 C 0.551 0.94377 0.33036 0.0
C1775 C 0.60267 0.96515 0.35627 0.0
C1776 C 0.62113 0.94858 0.37359 0.0
C1777 C 0.63562 0.95752 0.4036 0.0
C1778 C 0.62976 0.98313 0.41707 0.0
C1779 C 0.60941 -0.00093 0.40062 0.0
C1780 C 0.59735 0.99114 0.36902 0.0
H1781 H 0.44583 0.60995 0.13198 0.0
H1782 H 0.44488 0.54051 0.20936 0.0
H1783 H 0.46227 0.57976 0.25009 0.0
H1784 H 0.51172 0.65476 0.15597 0.0
H1785 H 0.50206 0.69077 0.1462 0.0
H1786 H 0.48299 0.6582 0.12444 0.0
H1787 H 0.43101 0.66547 0.14113 0.0
H1788 H 0.44979 0.69869 0.16226 0.0
H1789 H 0.42461 0.66849 0.1839 0.0
H1790 H 0.48862 0.62522 0.27927 0.0
H1791 H 0.51698 0.67471 0.2972 0.0
H1792 H 0.50066 0.71529 0.20073 0.0
C1793 C 0.44778 0.60328 0.15783 0.0
C1794 C 0.44365 0.57255 0.16803 0.0
C1795 C 0.44757 0.56413 0.2016 0.0
C1796 C 0.4575 0.58621 0.22468 0.0
C1797 C 0.46302 0.61646 0.21359 0.0
C1798 C 0.45771 0.62509 0.18106 0.0
C1799 C 0.46857 0.65884 0.17481 0.0
C1800 C 0.49277 0.66604 0.14883 0.0
C1801 C 0.4419 0.67375 0.16495 0.0
C1802 C 0.48195 0.66765 0.20857 0.0
C1803 C 0.47835 0.64289 0.23058 0.0
C1804 C 0.49106 0.64487 0.26247 0.0
C1805 C 0.50754 0.67299 0.27227 0.0
C1806 C 0.51118 0.69869 0.25025 0.0
C1807 C 0.49799 0.69599 0.2181 0.0
loop_
_geom_bond_atom_site_label_1
_geom_bond_atom_site_label_2
_geom_bond_distance
_geom_bond_site_symmetry_2
_ccdc_geom_bond_type
Zn0 O1 2.055 . S
Zn0 O8 2.046 1_455 S
Zn0 N16 2.036 1_455 S
Zn0 O28 2.053 1_454 S
Zn0 O30 2.066 . S
O1 Zn0 2.055 . S
O1 C4 1.259 . S
C2 O30 1.256 1_556 S
C2 O31 1.244 . S
Zn3 O5 2.043 1_546 S
Zn3 O7 2.051 1_446 S
Zn3 N9 2.029 1_545 S
Zn3 O27 2.071 1_455 S
Zn3 O31 2.061 . S
C4 O1 1.259 . S
C4 O5 1.254 1_545 S
O5 Zn3 2.043 1_564 S
O5 C4 1.254 1_565 S
C6 O27 1.256 . S
C6 O28 1.244 . S
O7 Zn3 2.051 1_664 S
O7 C29 1.259 . S
O8 Zn0 2.046 1_655 S
O8 C29 1.254 1_545 S
N9 Zn3 2.029 1_565 S
N9 C10 1.298 . S
N9 N12 1.398 . S
C10 N9 1.298 . S
C10 N13 1.367 . S
C10 C23 1.481 1_455 S
C11 N12 1.299 . S
C11 N13 1.379 . S
N12 N9 1.398 . S
N12 C11 1.299 . S
N13 C10 1.367 . S
N13 C11 1.379 . S
C14 N16 1.298 1_455 S
C14 N18 1.367 1_455 S
C14 C22 1.481 . S
C15 N17 1.299 . S
C15 N18 1.379 . S
N16 Zn0 2.036 1_655 S
N16 C14 1.298 1_655 S
N16 N17 1.398 . S
N17 C15 1.299 . S
N17 N16 1.398 . S
N18 C14 1.367 1_655 S
N18 C15 1.379 . S
H19 C22 0.980 . S
H20 C22 0.981 . S
H21 C22 0.981 . S
C22 C14 1.481 . S
C22 H19 0.980 . S
C22 H20 0.981 . S
C22 H21 0.981 . S
C23 C10 1.481 1_655 S
C23 H24 0.980 . S
C23 H25 0.981 . S
C23 H26 0.981 . S
H24 C23 0.980 . S
H25 C23 0.981 . S
H26 C23 0.981 . S
O27 Zn3 2.071 1_655 S
O27 C6 1.256 . S
O28 Zn0 2.053 1_656 S
O28 C6 1.244 . S
C29 O7 1.259 . S
C29 O8 1.254 1_565 S
O30 Zn0 2.066 . S
O30 C2 1.256 1_554 S
O31 C2 1.244 . S
O31 Zn3 2.061 . S
Zn32 O33 2.055 . S
Zn32 O40 2.046 . S
Zn32 N48 2.036 . S
Zn32 O60 2.053 . S
Zn32 O62 2.066 . S
O33 Zn32 2.055 . S
O33 C36 1.259 . S
C34 O62 1.256 . S
C34 O63 1.244 . S
Zn35 O37 2.046 . S
Zn35 O39 2.055 1_455 S
Zn35 N41 2.037 1_455 S
Zn35 O59 2.066 . S
Zn35 O63 2.053 . S
C36 O33 1.259 . S
C36 O37 1.254 . S
O37 Zn35 2.046 . S
O37 C36 1.254 . S
C38 O59 1.256 . S
C38 O60 1.244 . S
O39 Zn35 2.055 1_655 S
O39 C61 1.259 1_655 S
O40 Zn32 2.046 . S
O40 C61 1.254 . S
N41 Zn35 2.037 1_655 S
N41 C42 1.297 . S
N41 N44 1.398 1_655 S
C42 N41 1.297 . S
C42 N45 1.367 . S
C42 C55 1.481 . S
C43 N44 1.299 1_655 S
C43 N45 1.379 . S
N44 N41 1.398 1_455 S
N44 C43 1.299 1_455 S
N45 C42 1.367 . S
N45 C43 1.379 . S
C46 N48 1.298 . S
C46 N50 1.367 . S
C46 C54 1.481 . S
C47 N49 1.299 . S
C47 N50 1.379 . S
N48 Zn32 2.036 . S
N48 C46 1.298 . S
N48 N49 1.398 . S
N49 C47 1.299 . S
N49 N48 1.398 . S
N50 C46 1.367 . S
N50 C47 1.379 . S
H51 C54 0.980 . S
H52 C54 0.981 . S
H53 C54 0.981 . S
C54 C46 1.481 . S
C54 H51 0.980 . S
C54 H52 0.981 . S
C54 H53 0.981 . S
C55 C42 1.481 . S
C55 H56 0.980 . S
C55 H57 0.981 . S
C55 H58 0.981 . S
H56 C55 0.980 . S
H57 C55 0.981 . S
H58 C55 0.981 . S
O59 Zn35 2.066 . S
O59 C38 1.256 . S
O60 Zn32 2.053 . S
O60 C38 1.244 . S
C61 O39 1.259 1_455 S
C61 O40 1.254 . S
O62 Zn32 2.066 . S
O62 C34 1.256 . S
O63 C34 1.244 . S
O63 Zn35 2.053 . S
Zn64 O65 2.055 . S
Zn64 O72 2.046 . S
Zn64 N80 2.036 . S
Zn64 O92 2.053 . S
Zn64 O94 2.066 . S
O65 Zn64 2.055 . S
O65 C68 1.259 . S
C66 O94 1.256 . S
C66 O95 1.244 . S
Zn67 O69 2.046 . S
Zn67 O71 2.055 . S
Zn67 N73 2.036 . S
Zn67 O91 2.066 . S
Zn67 O95 2.053 . S
C68 O65 1.259 . S
C68 O69 1.254 . S
O69 Zn67 2.046 . S
O69 C68 1.254 . S
C70 O91 1.256 . S
C70 O92 1.244 . S
O71 Zn67 2.055 . S
O71 C93 1.259 . S
O72 Zn64 2.046 . S
O72 C93 1.254 . S
N73 Zn67 2.036 . S
N73 C74 1.298 . S
N73 N76 1.398 . S
C74 N73 1.298 . S
C74 N77 1.367 . S
C74 C87 1.481 . S
C75 N76 1.299 . S
C75 N77 1.379 . S
N76 N73 1.398 . S
N76 C75 1.299 . S
N77 C74 1.367 . S
N77 C75 1.379 . S
C78 N80 1.298 . S
C78 N82 1.367 . S
C78 C86 1.481 . S
C79 N81 1.299 . S
C79 N82 1.379 . S
N80 Zn64 2.036 . S
N80 C78 1.298 . S
N80 N81 1.398 . S
N81 C79 1.299 . S
N81 N80 1.398 . S
N82 C78 1.367 . S
N82 C79 1.379 . S
H83 C86 0.980 . S
H84 C86 0.981 . S
H85 C86 0.981 . S
C86 C78 1.481 . S
C86 H83 0.980 . S
C86 H84 0.981 . S
C86 H85 0.981 . S
C87 C74 1.481 . S
C87 H88 0.980 . S
C87 H89 0.981 . S
C87 H90 0.981 . S
H88 C87 0.980 . S
H89 C87 0.981 . S
H90 C87 0.981 . S
O91 Zn67 2.066 . S
O91 C70 1.256 . S
O92 Zn64 2.053 . S
O92 C70 1.244 . S
C93 O71 1.259 . S
C93 O72 1.254 . S
O94 Zn64 2.066 . S
O94 C66 1.256 . S
O95 C66 1.244 . S
O95 Zn67 2.053 . S
Zn96 O97 2.055 . S
Zn96 O104 2.046 . S
Zn96 N112 2.036 . S
Zn96 O124 2.053 . S
Zn96 O126 2.066 . S
O97 Zn96 2.055 . S
O97 C100 1.259 . S
C98 O126 1.256 . S
C98 O127 1.249 . S
Zn99 O101 2.046 . S
Zn99 O103 2.055 . S
Zn99 N105 2.036 1_545 S
Zn99 O123 2.066 1_545 S
Zn99 O127 2.052 . S
C100 O97 1.259 . S
C100 O101 1.254 . S
O101 Zn99 2.046 . S
O101 C100 1.254 . S
C102 O123 1.256 . S
C102 O124 1.244 1_565 S
O103 Zn99 2.055 . S
O103 C125 1.259 . S
O104 Zn96 2.046 . S
O104 C125 1.254 . S
N105 Zn99 2.036 1_565 S
N105 C106 1.298 . S
N105 N108 1.398 . S
C106 N105 1.298 . S
C106 N109 1.367 . S
C106 C119 1.481 . S
C107 N108 1.299 . S
C107 N109 1.379 . S
N108 N105 1.398 . S
N108 C107 1.299 . S
N109 C106 1.367 . S
N109 C107 1.379 . S
C110 N112 1.298 . S
C110 N114 1.367 . S
C110 C118 1.481 . S
C111 N113 1.299 . S
C111 N114 1.379 . S
N112 Zn96 2.036 . S
N112 C110 1.298 . S
N112 N113 1.398 . S
N113 C111 1.299 . S
N113 N112 1.398 . S
N114 C110 1.367 . S
N114 C111 1.379 . S
H115 C118 0.980 . S
H116 C118 0.981 . S
H117 C118 0.981 . S
C118 C110 1.481 . S
C118 H115 0.980 . S
C118 H116 0.981 . S
C118 H117 0.981 . S
C119 C106 1.481 . S
C119 H120 0.980 . S
C119 H121 0.981 . S
C119 H122 0.981 . S
H120 C119 0.980 . S
H121 C119 0.981 . S
H122 C119 0.981 . S
O123 Zn99 2.066 1_565 S
O123 C102 1.256 . S
O124 Zn96 2.053 . S
O124 C102 1.244 1_545 S
C125 O103 1.259 . S
C125 O104 1.254 . S
O126 Zn96 2.066 . S
O126 C98 1.256 . S
O127 C98 1.249 . S
O127 Zn99 2.052 . S
Zn128 O129 2.055 . S
Zn128 O136 2.046 . S
Zn128 N144 2.036 . S
Zn128 O156 2.053 . S
Zn128 O158 2.066 . S
O129 Zn128 2.055 . S
O129 C132 1.259 . S
C130 O158 1.256 . S
C130 O159 1.244 . S
Zn131 O133 2.046 . S
Zn131 O135 2.055 . S
Zn131 N137 2.036 . S
Zn131 O155 2.066 . S
Zn131 O159 2.053 . S
C132 O129 1.259 . S
C132 O133 1.254 . S
O133 Zn131 2.046 . S
O133 C132 1.254 . S
C134 O155 1.256 . S
C134 O156 1.244 . S
O135 Zn131 2.055 . S
O135 C157 1.259 . S
O136 Zn128 2.046 . S
O136 C157 1.254 . S
N137 Zn131 2.036 . S
N137 C138 1.298 . S
N137 N140 1.398 . S
C138 N137 1.298 . S
C138 N141 1.367 . S
C138 C151 1.481 . S
C139 N140 1.299 . S
C139 N141 1.379 . S
N140 N137 1.398 . S
N140 C139 1.299 . S
N141 C138 1.367 . S
N141 C139 1.379 . S
C142 N144 1.298 . S
C142 N146 1.367 . S
C142 C150 1.481 . S
C143 N145 1.299 . S
C143 N146 1.379 . S
N144 Zn128 2.036 . S
N144 C142 1.298 . S
N144 N145 1.398 . S
N145 C143 1.299 . S
N145 N144 1.398 . S
N146 C142 1.367 . S
N146 C143 1.379 . S
H147 C150 0.980 . S
H148 C150 0.981 . S
H149 C150 0.981 . S
C150 C142 1.481 . S
C150 H147 0.980 . S
C150 H148 0.981 . S
C150 H149 0.981 . S
C151 C138 1.481 . S
C151 H152 0.980 . S
C151 H153 0.981 . S
C151 H154 0.981 . S
H152 C151 0.980 . S
H153 C151 0.981 . S
H154 C151 0.981 . S
O155 Zn131 2.066 . S
O155 C134 1.256 . S
O156 Zn128 2.053 . S
O156 C134 1.244 . S
C157 O135 1.259 . S
C157 O136 1.254 . S
O158 Zn128 2.066 . S
O158 C130 1.256 . S
O159 C130 1.244 . S
O159 Zn131 2.053 . S
Zn160 O161 2.055 . S
Zn160 O168 2.046 . S
Zn160 N176 2.036 . S
Zn160 O188 2.053 . S
Zn160 O190 2.066 . S
O161 Zn160 2.055 . S
O161 C164 1.259 . S
C162 O190 1.256 . S
C162 O191 1.244 . S
Zn163 O165 2.046 . S
Zn163 O167 2.055 . S
Zn163 N169 2.036 . S
Zn163 O187 2.066 . S
Zn163 O191 2.053 . S
C164 O161 1.259 . S
C164 O165 1.254 . S
O165 Zn163 2.046 . S
O165 C164 1.254 . S
C166 O187 1.256 . S
C166 O188 1.244 . S
O167 Zn163 2.055 . S
O167 C189 1.259 . S
O168 Zn160 2.046 . S
O168 C189 1.254 . S
N169 Zn163 2.036 . S
N169 C170 1.298 . S
N169 N172 1.398 . S
C170 N169 1.298 . S
C170 N173 1.367 . S
C170 C183 1.481 . S
C171 N172 1.299 . S
C171 N173 1.379 . S
N172 N169 1.398 . S
N172 C171 1.299 . S
N173 C170 1.367 . S
N173 C171 1.379 . S
C174 N176 1.298 . S
C174 N178 1.367 . S
C174 C182 1.481 . S
C175 N177 1.299 . S
C175 N178 1.379 . S
N176 Zn160 2.036 . S
N176 C174 1.298 . S
N176 N177 1.398 . S
N177 C175 1.299 . S
N177 N176 1.398 . S
N178 C174 1.367 . S
N178 C175 1.379 . S
H179 C182 0.980 . S
H180 C182 0.981 . S
H181 C182 0.981 . S
C182 C174 1.481 . S
C182 H179 0.980 . S
C182 H180 0.981 . S
C182 H181 0.981 . S
C183 C170 1.481 . S
C183 H184 0.980 . S
C183 H185 0.981 . S
C183 H186 0.981 . S
H184 C183 0.980 . S
H185 C183 0.981 . S
H186 C183 0.981 . S
O187 Zn163 2.066 . S
O187 C166 1.256 . S
O188 Zn160 2.053 . S
O188 C166 1.244 . S
C189 O167 1.259 . S
C189 O168 1.254 . S
O190 Zn160 2.066 . S
O190 C162 1.256 . S
O191 C162 1.244 . S
O191 Zn163 2.053 . S
Zn192 O193 2.055 . S
Zn192 O200 2.046 . S
Zn192 N208 2.036 . S
Zn192 O220 2.053 . S
Zn192 O222 2.066 . S
O193 Zn192 2.055 . S
O193 C196 1.259 . S
C194 O222 1.256 . S
C194 O223 1.244 . S
Zn195 O197 2.046 . S
Zn195 O199 2.055 . S
Zn195 N201 2.036 . S
Zn195 O219 2.066 . S
Zn195 O223 2.053 . S
C196 O193 1.259 . S
C196 O197 1.254 . S
O197 Zn195 2.046 . S
O197 C196 1.254 . S
C198 O219 1.256 . S
C198 O220 1.244 . S
O199 Zn195 2.055 . S
O199 C221 1.259 . S
O200 Zn192 2.046 . S
O200 C221 1.254 . S
N201 Zn195 2.036 . S
N201 C202 1.298 . S
N201 N204 1.398 . S
C202 N201 1.298 . S
C202 N205 1.367 . S
C202 C215 1.481 . S
C203 N204 1.299 . S
C203 N205 1.379 . S
N204 N201 1.398 . S
N204 C203 1.299 . S
N205 C202 1.367 . S
N205 C203 1.379 . S
C206 N208 1.298 . S
C206 N210 1.367 . S
C206 C214 1.481 . S
C207 N209 1.299 . S
C207 N210 1.379 . S
N208 Zn192 2.036 . S
N208 C206 1.298 . S
N208 N209 1.398 . S
N209 C207 1.299 . S
N209 N208 1.398 . S
N210 C206 1.367 . S
N210 C207 1.379 . S
H211 C214 0.980 . S
H212 C214 0.981 . S
H213 C214 0.981 . S
C214 C206 1.481 . S
C214 H211 0.980 . S
C214 H212 0.981 . S
C214 H213 0.981 . S
C215 C202 1.481 . S
C215 H216 0.980 . S
C215 H217 0.981 . S
C215 H218 0.981 . S
H216 C215 0.980 . S
H217 C215 0.981 . S
H218 C215 0.981 . S
O219 Zn195 2.066 . S
O219 C198 1.256 . S
O220 Zn192 2.053 . S
O220 C198 1.244 . S
C221 O199 1.259 . S
C221 O200 1.254 . S
O222 Zn192 2.066 . S
O222 C194 1.256 . S
O223 C194 1.244 . S
O223 Zn195 2.053 . S
Zn224 O225 2.055 1_655 S
Zn224 O232 2.046 1_655 S
Zn224 N240 2.036 . S
Zn224 O252 2.053 . S
Zn224 O254 2.066 . S
O225 Zn224 2.055 1_455 S
O225 C228 1.259 . S
C226 O254 1.256 . S
C226 O255 1.243 . S
Zn227 O229 2.046 . S
Zn227 O231 2.055 . S
Zn227 N233 2.036 . S
Zn227 O251 2.066 . S
Zn227 O255 2.054 1_455 S
C228 O225 1.259 . S
C228 O229 1.254 . S
O229 Zn227 2.046 . S
O229 C228 1.254 . S
C230 O251 1.256 . S
C230 O252 1.244 1_455 S
O231 Zn227 2.055 . S
O231 C253 1.259 . S
O232 Zn224 2.046 1_455 S
O232 C253 1.254 . S
N233 Zn227 2.036 . S
N233 C234 1.298 . S
N233 N236 1.398 . S
C234 N233 1.298 . S
C234 N237 1.367 . S
C234 C247 1.481 . S
C235 N236 1.299 . S
C235 N237 1.379 . S
N236 N233 1.398 . S
N236 C235 1.299 . S
N237 C234 1.367 . S
N237 C235 1.379 . S
C238 N240 1.298 . S
C238 N242 1.367 . S
C238 C246 1.481 . S
C239 N241 1.299 . S
C239 N242 1.379 . S
N240 Zn224 2.036 . S
N240 C238 1.298 . S
N240 N241 1.398 . S
N241 C239 1.299 . S
N241 N240 1.398 . S
N242 C238 1.367 . S
N242 C239 1.379 . S
H243 C246 0.980 . S
H244 C246 0.981 . S
H245 C246 0.981 . S
C246 C238 1.481 . S
C246 H243 0.980 . S
C246 H244 0.981 . S
C246 H245 0.981 . S
C247 C234 1.481 . S
C247 H248 0.980 . S
C247 H249 0.981 . S
C247 H250 0.981 . S
H248 C247 0.980 . S
H249 C247 0.981 . S
H250 C247 0.981 . S
O251 Zn227 2.066 . S
O251 C230 1.256 . S
O252 Zn224 2.053 . S
O252 C230 1.244 1_655 S
C253 O231 1.259 . S
C253 O232 1.254 . S
O254 Zn224 2.066 . S
O254 C226 1.256 . S
O255 C226 1.243 . S
O255 Zn227 2.054 1_655 S
Zn256 O257 2.055 1_556 S
Zn256 O264 2.046 1_556 S
Zn256 N272 2.036 . S
Zn256 O284 2.053 . S
Zn256 O286 2.066 . S
O257 Zn256 2.055 1_554 S
O257 C260 1.259 . S
C258 O286 1.256 . S
C258 O287 1.244 . S
Zn259 O261 2.046 . S
Zn259 O263 2.055 . S
Zn259 N265 2.036 . S
Zn259 O283 2.066 . S
Zn259 O287 2.053 1_554 S
C260 O257 1.259 . S
C260 O261 1.254 . S
O261 Zn259 2.046 . S
O261 C260 1.254 . S
C262 O283 1.256 1_556 S
C262 O284 1.244 . S
O263 Zn259 2.055 . S
O263 C285 1.259 . S
O264 Zn256 2.046 1_554 S
O264 C285 1.254 . S
N265 Zn259 2.036 . S
N265 C266 1.298 . S
N265 N268 1.398 . S
C266 N265 1.298 . S
C266 N269 1.367 . S
C266 C279 1.481 . S
C267 N268 1.299 . S
C267 N269 1.379 . S
N268 N265 1.398 . S
N268 C267 1.299 . S
N269 C266 1.367 . S
N269 C267 1.379 . S
C270 N272 1.298 . S
C270 N274 1.367 . S
C270 C278 1.481 . S
C271 N273 1.299 . S
C271 N274 1.379 . S
N272 Zn256 2.036 . S
N272 C270 1.298 . S
N272 N273 1.398 . S
N273 C271 1.299 . S
N273 N272 1.398 . S
N274 C270 1.367 . S
N274 C271 1.379 . S
H275 C278 0.980 . S
H276 C278 0.981 . S
H277 C278 0.981 . S
C278 C270 1.481 . S
C278 H275 0.980 . S
C278 H276 0.981 . S
C278 H277 0.981 . S
C279 C266 1.481 . S
C279 H280 0.980 . S
C279 H281 0.981 . S
C279 H282 0.981 . S
H280 C279 0.980 . S
H281 C279 0.981 . S
H282 C279 0.981 . S
O283 Zn259 2.066 . S
O283 C262 1.256 1_554 S
O284 Zn256 2.053 . S
O284 C262 1.244 . S
C285 O263 1.259 . S
C285 O264 1.254 . S
O286 Zn256 2.066 . S
O286 C258 1.256 . S
O287 C258 1.244 . S
O287 Zn259 2.053 1_556 S
Zn288 O289 2.055 . S
Zn288 O296 2.046 . S
Zn288 N304 2.036 . S
Zn288 O316 2.053 1_545 S
Zn288 O318 2.066 . S
O289 Zn288 2.055 . S
O289 C292 1.259 . S
C290 O318 1.256 1_565 S
C290 O319 1.244 . S
Zn291 O293 2.046 1_565 S
Zn291 O295 2.055 1_565 S
Zn291 N297 2.036 . S
Zn291 O315 2.066 . S
Zn291 O319 2.053 . S
C292 O289 1.259 . S
C292 O293 1.254 . S
O293 Zn291 2.046 1_545 S
O293 C292 1.254 . S
C294 O315 1.256 . S
C294 O316 1.244 . S
O295 Zn291 2.055 1_545 S
O295 C317 1.259 . S
O296 Zn288 2.046 . S
O296 C317 1.254 . S
N297 Zn291 2.036 . S
N297 C298 1.298 . S
N297 N300 1.398 . S
C298 N297 1.298 . S
C298 N301 1.367 . S
C298 C311 1.481 . S
C299 N300 1.299 . S
C299 N301 1.379 . S
N300 N297 1.398 . S
N300 C299 1.299 . S
N301 C298 1.367 . S
N301 C299 1.379 . S
C302 N304 1.298 . S
C302 N306 1.367 . S
C302 C310 1.481 . S
C303 N305 1.299 . S
C303 N306 1.379 . S
N304 Zn288 2.036 . S
N304 C302 1.298 . S
N304 N305 1.398 . S
N305 C303 1.299 . S
N305 N304 1.398 . S
N306 C302 1.367 . S
N306 C303 1.379 . S
H307 C310 0.980 . S
H308 C310 0.981 . S
H309 C310 0.981 . S
C310 C302 1.481 . S
C310 H307 0.980 . S
C310 H308 0.981 . S
C310 H309 0.981 . S
C311 C298 1.481 . S
C311 H312 0.980 . S
C311 H313 0.981 . S
C311 H314 0.981 . S
H312 C311 0.980 . S
H313 C311 0.981 . S
H314 C311 0.981 . S
O315 Zn291 2.066 . S
O315 C294 1.256 . S
O316 Zn288 2.053 1_565 S
O316 C294 1.244 . S
C317 O295 1.259 . S
C317 O296 1.254 . S
O318 Zn288 2.066 . S
O318 C290 1.256 1_545 S
O319 C290 1.244 . S
O319 Zn291 2.053 . S
Zn320 O321 2.055 . S
Zn320 O328 2.046 . S
Zn320 N336 2.036 . S
Zn320 O348 2.053 . S
Zn320 O350 2.066 . S
O321 Zn320 2.055 . S
O321 C324 1.259 . S
C322 O350 1.256 . S
C322 O351 1.244 . S
Zn323 O325 2.046 . S
Zn323 O327 2.055 . S
Zn323 N329 2.036 . S
Zn323 O347 2.066 . S
Zn323 O351 2.053 . S
C324 O321 1.259 . S
C324 O325 1.254 . S
O325 Zn323 2.046 . S
O325 C324 1.254 . S
C326 O347 1.256 . S
C326 O348 1.244 . S
O327 Zn323 2.055 . S
O327 C349 1.259 . S
O328 Zn320 2.046 . S
O328 C349 1.254 . S
N329 Zn323 2.036 . S
N329 C330 1.298 . S
N329 N332 1.398 . S
C330 N329 1.298 . S
C330 N333 1.367 . S
C330 C343 1.481 . S
C331 N332 1.299 . S
C331 N333 1.379 . S
N332 N329 1.398 . S
N332 C331 1.299 . S
N333 C330 1.367 . S
N333 C331 1.379 . S
C334 N336 1.298 . S
C334 N338 1.367 . S
C334 C342 1.481 . S
C335 N337 1.299 . S
C335 N338 1.379 . S
N336 Zn320 2.036 . S
N336 C334 1.298 . S
N336 N337 1.398 . S
N337 C335 1.299 . S
N337 N336 1.398 . S
N338 C334 1.367 . S
N338 C335 1.379 . S
H339 C342 0.980 . S
H340 C342 0.981 . S
H341 C342 0.981 . S
C342 C334 1.481 . S
C342 H339 0.980 . S
C342 H340 0.981 . S
C342 H341 0.981 . S
C343 C330 1.481 . S
C343 H344 0.980 . S
C343 H345 0.981 . S
C343 H346 0.981 . S
H344 C343 0.980 . S
H345 C343 0.981 . S
H346 C343 0.981 . S
O347 Zn323 2.066 . S
O347 C326 1.256 . S
O348 Zn320 2.053 . S
O348 C326 1.244 . S
C349 O327 1.259 . S
C349 O328 1.254 . S
O350 Zn320 2.066 . S
O350 C322 1.256 . S
O351 C322 1.244 . S
O351 Zn323 2.053 . S
Zn352 O353 2.055 . S
Zn352 O360 2.046 1_455 S
Zn352 N368 2.036 . S
Zn352 O380 2.053 . S
Zn352 O382 2.066 . S
O353 Zn352 2.055 . S
O353 C356 1.259 1_455 S
C354 O382 1.256 . S
C354 O383 1.244 . S
Zn355 O357 2.046 . S
Zn355 O359 2.055 . S
Zn355 N361 2.036 . S
Zn355 O379 2.066 1_655 S
Zn355 O383 2.053 1_655 S
C356 O353 1.259 1_655 S
C356 O357 1.254 . S
O357 Zn355 2.046 . S
O357 C356 1.254 . S
C358 O379 1.256 . S
C358 O380 1.244 . S
O359 Zn355 2.055 . S
O359 C381 1.259 . S
O360 Zn352 2.046 1_655 S
O360 C381 1.254 . S
N361 Zn355 2.036 . S
N361 C362 1.298 . S
N361 N364 1.398 . S
C362 N361 1.298 . S
C362 N365 1.367 . S
C362 C375 1.481 . S
C363 N364 1.299 . S
C363 N365 1.379 . S
N364 N361 1.398 . S
N364 C363 1.299 . S
N365 C362 1.367 . S
N365 C363 1.379 . S
C366 N368 1.298 . S
C366 N370 1.367 . S
C366 C374 1.481 . S
C367 N369 1.299 . S
C367 N370 1.379 . S
N368 Zn352 2.036 . S
N368 C366 1.298 . S
N368 N369 1.398 . S
N369 C367 1.299 . S
N369 N368 1.398 . S
N370 C366 1.367 . S
N370 C367 1.379 . S
H371 C374 0.980 . S
H372 C374 0.981 . S
H373 C374 0.981 . S
C374 C366 1.481 . S
C374 H371 0.980 . S
C374 H372 0.981 . S
C374 H373 0.981 . S
C375 C362 1.481 . S
C375 H376 0.980 . S
C375 H377 0.981 . S
C375 H378 0.981 . S
H376 C375 0.980 . S
H377 C375 0.981 . S
H378 C375 0.981 . S
O379 Zn355 2.066 1_455 S
O379 C358 1.256 . S
O380 Zn352 2.053 . S
O380 C358 1.244 . S
C381 O359 1.259 . S
C381 O360 1.254 . S
O382 Zn352 2.066 . S
O382 C354 1.256 . S
O383 C354 1.244 . S
O383 Zn355 2.053 1_455 S
Zn384 O385 2.055 . S
Zn384 O392 2.046 . S
Zn384 N400 2.036 . S
Zn384 O412 2.053 . S
Zn384 O414 2.066 . S
O385 Zn384 2.055 . S
O385 C388 1.259 . S
C386 O414 1.256 . S
C386 O415 1.244 . S
Zn387 O389 2.046 . S
Zn387 O391 2.055 . S
Zn387 N393 2.036 . S
Zn387 O411 2.066 . S
Zn387 O415 2.053 . S
C388 O385 1.259 . S
C388 O389 1.254 . S
O389 Zn387 2.046 . S
O389 C388 1.254 . S
C390 O411 1.256 . S
C390 O412 1.244 . S
O391 Zn387 2.055 . S
O391 C413 1.259 . S
O392 Zn384 2.046 . S
O392 C413 1.254 . S
N393 Zn387 2.036 . S
N393 C394 1.298 . S
N393 N396 1.398 . S
C394 N393 1.298 . S
C394 N397 1.367 . S
C394 C407 1.481 . S
C395 N396 1.299 . S
C395 N397 1.379 . S
N396 N393 1.398 . S
N396 C395 1.299 . S
N397 C394 1.367 . S
N397 C395 1.379 . S
C398 N400 1.298 . S
C398 N402 1.367 . S
C398 C406 1.481 . S
C399 N401 1.299 . S
C399 N402 1.379 . S
N400 Zn384 2.036 . S
N400 C398 1.298 . S
N400 N401 1.398 . S
N401 C399 1.299 . S
N401 N400 1.398 . S
N402 C398 1.367 . S
N402 C399 1.379 . S
H403 C406 0.980 . S
H404 C406 0.981 . S
H405 C406 0.981 . S
C406 C398 1.481 . S
C406 H403 0.980 . S
C406 H404 0.981 . S
C406 H405 0.981 . S
C407 C394 1.481 . S
C407 H408 0.980 . S
C407 H409 0.981 . S
C407 H410 0.981 . S
H408 C407 0.980 . S
H409 C407 0.981 . S
H410 C407 0.981 . S
O411 Zn387 2.066 . S
O411 C390 1.256 . S
O412 Zn384 2.053 . S
O412 C390 1.244 . S
C413 O391 1.259 . S
C413 O392 1.254 . S
O414 Zn384 2.066 . S
O414 C386 1.256 . S
O415 C386 1.244 . S
O415 Zn387 2.053 . S
Zn416 O417 2.055 . S
Zn416 O424 2.046 1_554 S
Zn416 N432 2.036 . S
Zn416 O444 2.053 . S
Zn416 O446 2.066 . S
O417 Zn416 2.055 . S
O417 C420 1.259 1_554 S
C418 O446 1.256 . S
C418 O447 1.244 . S
Zn419 O421 2.046 . S
Zn419 O423 2.055 . S
Zn419 N425 2.036 . S
Zn419 O443 2.066 . S
Zn419 O447 2.053 1_556 S
C420 O417 1.259 1_556 S
C420 O421 1.254 . S
O421 Zn419 2.046 . S
O421 C420 1.254 . S
C422 O443 1.256 1_554 S
C422 O444 1.244 . S
O423 Zn419 2.055 . S
O423 C445 1.259 . S
O424 Zn416 2.046 1_556 S
O424 C445 1.254 . S
N425 Zn419 2.036 . S
N425 C426 1.298 . S
N425 N428 1.398 . S
C426 N425 1.298 . S
C426 N429 1.367 . S
C426 C439 1.481 . S
C427 N428 1.299 . S
C427 N429 1.379 . S
N428 N425 1.398 . S
N428 C427 1.299 . S
N429 C426 1.367 . S
N429 C427 1.379 . S
C430 N432 1.298 . S
C430 N434 1.367 . S
C430 C438 1.481 . S
C431 N433 1.299 . S
C431 N434 1.379 . S
N432 Zn416 2.036 . S
N432 C430 1.298 . S
N432 N433 1.398 . S
N433 C431 1.299 . S
N433 N432 1.398 . S
N434 C430 1.367 . S
N434 C431 1.379 . S
H435 C438 0.980 . S
H436 C438 0.981 . S
H437 C438 0.981 . S
C438 C430 1.481 . S
C438 H435 0.980 . S
C438 H436 0.981 . S
C438 H437 0.981 . S
C439 C426 1.481 . S
C439 H440 0.980 . S
C439 H441 0.981 . S
C439 H442 0.981 . S
H440 C439 0.980 . S
H441 C439 0.981 . S
H442 C439 0.981 . S
O443 Zn419 2.066 . S
O443 C422 1.256 1_556 S
O444 Zn416 2.053 . S
O444 C422 1.244 . S
C445 O423 1.259 . S
C445 O424 1.254 . S
O446 Zn416 2.066 . S
O446 C418 1.256 . S
O447 C418 1.244 . S
O447 Zn419 2.053 1_554 S
Zn448 O449 2.055 . S
Zn448 O456 2.046 . S
Zn448 N464 2.036 . S
Zn448 O476 2.053 . S
Zn448 O478 2.066 . S
O449 Zn448 2.055 . S
O449 C452 1.259 . S
C450 O478 1.256 . S
C450 O479 1.244 . S
Zn451 O453 2.046 1_545 S
Zn451 O455 2.055 1_545 S
Zn451 N457 2.036 1_545 S
Zn451 O475 2.066 . S
Zn451 O479 2.053 . S
C452 O449 1.259 . S
C452 O453 1.254 1_545 S
O453 Zn451 2.046 1_565 S
O453 C452 1.254 1_565 S
C454 O475 1.256 . S
C454 O476 1.244 . S
O455 Zn451 2.055 1_565 S
O455 C477 1.259 . S
O456 Zn448 2.046 . S
O456 C477 1.254 1_545 S
N457 Zn451 2.036 1_565 S
N457 C458 1.298 . S
N457 N460 1.398 . S
C458 N457 1.298 . S
C458 N461 1.367 . S
C458 C471 1.481 . S
C459 N460 1.299 . S
C459 N461 1.379 . S
N460 N457 1.398 . S
N460 C459 1.299 . S
N461 C458 1.367 . S
N461 C459 1.379 . S
C462 N464 1.298 . S
C462 N466 1.367 . S
C462 C470 1.481 . S
C463 N465 1.299 . S
C463 N466 1.379 . S
N464 Zn448 2.036 . S
N464 C462 1.298 . S
N464 N465 1.398 . S
N465 C463 1.299 . S
N465 N464 1.398 . S
N466 C462 1.367 . S
N466 C463 1.379 . S
H467 C470 0.980 . S
H468 C470 0.981 . S
H469 C470 0.981 . S
C470 C462 1.481 . S
C470 H467 0.980 . S
C470 H468 0.981 . S
C470 H469 0.981 . S
C471 C458 1.481 . S
C471 H472 0.980 . S
C471 H473 0.981 . S
C471 H474 0.981 . S
H472 C471 0.980 . S
H473 C471 0.981 . S
H474 C471 0.981 . S
O475 Zn451 2.066 . S
O475 C454 1.256 . S
O476 Zn448 2.053 . S
O476 C454 1.244 . S
C477 O455 1.259 . S
C477 O456 1.254 1_565 S
O478 Zn448 2.066 . S
O478 C450 1.256 . S
O479 C450 1.244 . S
O479 Zn451 2.053 . S
Zn480 O481 2.055 . S
Zn480 O488 2.046 . S
Zn480 N496 2.036 . S
Zn480 O508 2.053 1_554 S
Zn480 O510 2.066 . S
O481 Zn480 2.055 . S
O481 C484 1.259 . S
C482 O510 1.256 1_556 S
C482 O511 1.244 . S
Zn483 O485 2.046 1_556 S
Zn483 O487 2.055 1_556 S
Zn483 N489 2.036 . S
Zn483 O507 2.066 . S
Zn483 O511 2.053 . S
C484 O481 1.259 . S
C484 O485 1.254 . S
O485 Zn483 2.046 1_554 S
O485 C484 1.254 . S
C486 O507 1.256 . S
C486 O508 1.244 . S
O487 Zn483 2.055 1_554 S
O487 C509 1.259 . S
O488 Zn480 2.046 . S
O488 C509 1.254 . S
N489 Zn483 2.036 . S
N489 C490 1.298 . S
N489 N492 1.398 . S
C490 N489 1.298 . S
C490 N493 1.367 . S
C490 C503 1.481 . S
C491 N492 1.299 . S
C491 N493 1.379 . S
N492 N489 1.398 . S
N492 C491 1.299 . S
N493 C490 1.367 . S
N493 C491 1.379 . S
C494 N496 1.298 . S
C494 N498 1.367 . S
C494 C502 1.481 . S
C495 N497 1.299 . S
C495 N498 1.379 . S
N496 Zn480 2.036 . S
N496 C494 1.298 . S
N496 N497 1.398 . S
N497 C495 1.299 . S
N497 N496 1.398 . S
N498 C494 1.367 . S
N498 C495 1.379 . S
H499 C502 0.980 . S
H500 C502 0.981 . S
H501 C502 0.981 . S
C502 C494 1.481 . S
C502 H499 0.980 . S
C502 H500 0.981 . S
C502 H501 0.981 . S
C503 C490 1.481 . S
C503 H504 0.980 . S
C503 H505 0.981 . S
C503 H506 0.981 . S
H504 C503 0.980 . S
H505 C503 0.981 . S
H506 C503 0.981 . S
O507 Zn483 2.066 . S
O507 C486 1.256 . S
O508 Zn480 2.053 1_556 S
O508 C486 1.244 . S
C509 O487 1.259 . S
C509 O488 1.254 . S
O510 Zn480 2.066 . S
O510 C482 1.256 1_554 S
O511 C482 1.244 . S
O511 Zn483 2.053 . S
H512 C524 0.930 . S
H513 C526 0.930 . S
H514 C527 0.930 . S
H515 C531 0.959 . S
H516 C531 0.959 . S
H517 C531 0.961 . S
H518 C532 0.960 . S
H519 C532 0.961 1_455 S
H520 C532 0.959 . S
H521 C535 0.929 . S
H522 C536 0.922 1_655 S
H523 C538 0.930 . S
C524 H512 0.930 . S
C524 C525 1.399 1_455 S
C524 C529 1.399 . S
C525 C524 1.399 1_655 S
C525 C526 1.376 . S
C526 H513 0.930 . S
C526 C525 1.376 . S
C526 C527 1.388 . S
C527 H514 0.930 . S
C527 C526 1.388 . S
C527 C528 1.390 . S
C528 C527 1.390 . S
C528 C529 1.394 1_655 S
C528 C534 1.465 1_655 S
C529 C524 1.399 . S
C529 C528 1.394 1_455 S
C529 C530 1.516 . S
C530 C529 1.516 . S
C530 C531 1.502 . S
C530 C532 1.561 1_455 S
C530 C533 1.526 . S
C531 H515 0.959 . S
C531 H516 0.959 . S
C531 H517 0.961 . S
C531 C530 1.502 . S
C532 H518 0.960 . S
C532 H519 0.961 1_655 S
C532 H520 0.959 . S
C532 C530 1.561 1_655 S
C533 C530 1.526 . S
C533 C534 1.396 . S
C533 C538 1.390 . S
C534 C528 1.465 1_455 S
C534 C533 1.396 . S
C534 C535 1.399 1_455 S
C535 H521 0.929 . S
C535 C534 1.399 1_655 S
C535 C536 1.385 1_655 S
C536 H522 0.922 1_455 S
C536 C535 1.385 1_455 S
C536 C537 1.389 . S
C537 C536 1.389 . S
C537 C538 1.387 . S
C538 H523 0.930 . S
C538 C533 1.390 . S
C538 C537 1.387 . S
H539 C551 0.930 . S
H540 C553 0.930 . S
H541 C554 0.930 . S
H542 C558 0.959 . S
H543 C558 0.959 . S
H544 C558 0.961 . S
H545 C559 0.960 . S
H546 C559 0.961 . S
H547 C559 0.959 . S
H548 C562 0.929 . S
H549 C563 0.931 . S
H550 C565 0.936 . S
C551 H539 0.930 . S
C551 C552 1.399 . S
C551 C556 1.399 . S
C552 C551 1.399 . S
C552 C553 1.376 . S
C553 H540 0.930 . S
C553 C552 1.376 . S
C553 C554 1.388 . S
C554 H541 0.930 . S
C554 C553 1.388 . S
C554 C555 1.390 . S
C555 C554 1.390 . S
C555 C556 1.394 . S
C555 C561 1.465 . S
C556 C551 1.399 . S
C556 C555 1.394 . S
C556 C557 1.516 . S
C557 C556 1.516 . S
C557 C558 1.502 . S
C557 C559 1.561 . S
C557 C560 1.526 . S
C558 H542 0.959 . S
C558 H543 0.959 . S
C558 H544 0.961 . S
C558 C557 1.502 . S
C559 H545 0.960 . S
C559 H546 0.961 . S
C559 H547 0.959 . S
C559 C557 1.561 . S
C560 C557 1.526 . S
C560 C561 1.396 . S
C560 C565 1.390 . S
C561 C555 1.465 . S
C561 C560 1.396 . S
C561 C562 1.399 . S
C562 H548 0.929 . S
C562 C561 1.399 . S
C562 C563 1.385 . S
C563 H549 0.931 . S
C563 C562 1.385 . S
C563 C564 1.389 . S
C564 C563 1.389 . S
C564 C565 1.387 . S
C565 H550 0.936 . S
C565 C560 1.390 . S
C565 C564 1.387 . S
H566 C578 0.930 . S
H567 C580 0.930 . S
H568 C581 0.930 . S
H569 C585 0.959 . S
H570 C585 0.959 . S
H571 C585 0.961 . S
H572 C586 0.960 . S
H573 C586 0.961 . S
H574 C586 0.959 . S
H575 C589 0.929 . S
H576 C590 0.931 . S
H577 C592 0.930 . S
C578 H566 0.930 . S
C578 C579 1.399 . S
C578 C583 1.399 . S
C579 C578 1.399 . S
C579 C580 1.376 . S
C580 H567 0.930 . S
C580 C579 1.376 . S
C580 C581 1.388 . S
C581 H568 0.930 . S
C581 C580 1.388 . S
C581 C582 1.390 . S
C582 C581 1.390 . S
C582 C583 1.394 . S
C582 C588 1.465 . S
C583 C578 1.399 . S
C583 C582 1.394 . S
C583 C584 1.516 . S
C584 C583 1.516 . S
C584 C585 1.502 . S
C584 C586 1.561 . S
C584 C587 1.526 . S
C585 H569 0.959 . S
C585 H570 0.959 . S
C585 H571 0.961 . S
C585 C584 1.502 . S
C586 H572 0.960 . S
C586 H573 0.961 . S
C586 H574 0.959 . S
C586 C584 1.561 . S
C587 C584 1.526 . S
C587 C588 1.396 . S
C587 C592 1.390 . S
C588 C582 1.465 . S
C588 C587 1.396 . S
C588 C589 1.399 . S
C589 H575 0.929 . S
C589 C588 1.399 . S
C589 C590 1.385 . S
C590 H576 0.931 . S
C590 C589 1.385 . S
C590 C591 1.389 . S
C591 C590 1.389 . S
C591 C592 1.387 . S
C592 H577 0.930 . S
C592 C587 1.390 . S
C592 C591 1.387 . S
H593 C605 0.938 . S
H594 C607 0.930 . S
H595 C608 0.930 . S
H596 C612 0.959 1_545 S
H597 C612 0.959 . S
H598 C612 0.961 . S
H599 C613 0.960 . S
H600 C613 0.961 . S
H601 C613 0.959 . S
H602 C616 0.929 . S
H603 C617 0.931 . S
H604 C619 0.930 . S
C605 H593 0.938 . S
C605 C606 1.399 . S
C605 C610 1.399 . S
C606 C605 1.399 . S
C606 C607 1.376 . S
C607 H594 0.930 . S
C607 C606 1.376 . S
C607 C608 1.388 . S
C608 H595 0.930 . S
C608 C607 1.388 . S
C608 C609 1.390 . S
C609 C608 1.390 . S
C609 C610 1.394 . S
C609 C615 1.465 . S
C610 C605 1.399 . S
C610 C609 1.394 . S
C610 C611 1.516 . S
C611 C610 1.516 . S
C611 C612 1.502 1_545 S
C611 C613 1.561 1_545 S
C611 C614 1.526 . S
C612 H596 0.959 1_565 S
C612 H597 0.959 . S
C612 H598 0.961 . S
C612 C611 1.502 1_565 S
C613 H599 0.960 . S
C613 H600 0.961 . S
C613 H601 0.959 . S
C613 C611 1.561 1_565 S
C614 C611 1.526 . S
C614 C615 1.396 . S
C614 C619 1.390 . S
C615 C609 1.465 . S
C615 C614 1.396 . S
C615 C616 1.399 . S
C616 H602 0.929 . S
C616 C615 1.399 . S
C616 C617 1.385 . S
C617 H603 0.931 . S
C617 C616 1.385 . S
C617 C618 1.389 . S
C618 C617 1.389 . S
C618 C619 1.387 . S
C619 H604 0.930 . S
C619 C614 1.390 . S
C619 C618 1.387 . S
H620 C632 0.930 . S
H621 C634 0.930 . S
H622 C635 0.930 . S
H623 C639 0.959 . S
H624 C639 0.959 . S
H625 C639 0.961 . S
H626 C640 0.960 . S
H627 C640 0.961 . S
H628 C640 0.959 . S
H629 C643 0.929 . S
H630 C644 0.931 . S
H631 C646 0.930 . S
C632 H620 0.930 . S
C632 C633 1.399 1_565 S
C632 C637 1.399 . S
C633 C632 1.399 1_545 S
C633 C634 1.376 . S
C634 H621 0.930 . S
C634 C633 1.376 . S
C634 C635 1.388 . S
C635 H622 0.930 . S
C635 C634 1.388 . S
C635 C636 1.390 . S
C636 C635 1.390 . S
C636 C637 1.394 1_545 S
C636 C642 1.465 . S
C637 C632 1.399 . S
C637 C636 1.394 1_565 S
C637 C638 1.516 . S
C638 C637 1.516 . S
C638 C639 1.502 . S
C638 C640 1.561 . S
C638 C641 1.526 . S
C639 H623 0.959 . S
C639 H624 0.959 . S
C639 H625 0.961 . S
C639 C638 1.502 . S
C640 H626 0.960 . S
C640 H627 0.961 . S
C640 H628 0.959 . S
C640 C638 1.561 . S
C641 C638 1.526 . S
C641 C642 1.396 1_565 S
C641 C646 1.390 . S
C642 C636 1.465 . S
C642 C641 1.396 1_545 S
C642 C643 1.399 . S
C643 H629 0.929 . S
C643 C642 1.399 . S
C643 C644 1.385 . S
C644 H630 0.931 . S
C644 C643 1.385 . S
C644 C645 1.389 1_545 S
C645 C644 1.389 1_565 S
C645 C646 1.387 . S
C646 H631 0.930 . S
C646 C641 1.390 . S
C646 C645 1.387 . S
H647 C659 0.930 1_655 S
H648 C661 0.930 . S
H649 C662 0.930 . S
H650 C666 0.959 1_455 S
H651 C666 0.959 . S
H652 C666 0.961 . S
H653 C667 0.960 . S
H654 C667 0.961 . S
H655 C667 0.959 1_455 S
H656 C670 0.929 . S
H657 C671 0.931 . S
H658 C673 0.930 . S
C659 H647 0.930 1_455 S
C659 C660 1.399 . S
C659 C664 1.399 . S
C660 C659 1.399 . S
C660 C661 1.376 . S
C661 H648 0.930 . S
C661 C660 1.376 . S
C661 C662 1.388 . S
C662 H649 0.930 . S
C662 C661 1.388 . S
C662 C663 1.390 . S
C663 C662 1.390 . S
C663 C664 1.394 . S
C663 C669 1.465 . S
C664 C659 1.399 . S
C664 C663 1.394 . S
C664 C665 1.516 . S
C665 C664 1.516 . S
C665 C666 1.502 1_455 S
C665 C667 1.561 1_455 S
C665 C668 1.526 . S
C666 H650 0.959 1_655 S
C666 H651 0.959 . S
C666 H652 0.961 . S
C666 C665 1.502 1_655 S
C667 H653 0.960 . S
C667 H654 0.961 . S
C667 H655 0.959 1_655 S
C667 C665 1.561 1_655 S
C668 C665 1.526 . S
C668 C669 1.396 . S
C668 C673 1.390 . S
C669 C663 1.465 . S
C669 C668 1.396 . S
C669 C670 1.399 . S
C670 H656 0.929 . S
C670 C669 1.399 . S
C670 C671 1.385 . S
C671 H657 0.931 . S
C671 C670 1.385 . S
C671 C672 1.389 . S
C672 C671 1.389 . S
C672 C673 1.387 . S
C673 H658 0.930 . S
C673 C668 1.390 . S
C673 C672 1.387 . S
H674 C686 0.930 . S
H675 C688 0.930 . S
H676 C689 0.930 . S
H677 C693 0.959 . S
H678 C693 0.959 . S
H679 C693 0.961 . S
H680 C694 0.960 . S
H681 C694 0.961 . S
H682 C694 0.959 . S
H683 C697 0.929 . S
H684 C698 0.931 . S
H685 C700 0.930 . S
C686 H674 0.930 . S
C686 C687 1.399 . S
C686 C691 1.399 . S
C687 C686 1.399 . S
C687 C688 1.376 . S
C688 H675 0.930 . S
C688 C687 1.376 . S
C688 C689 1.388 . S
C689 H676 0.930 . S
C689 C688 1.388 . S
C689 C690 1.390 . S
C690 C689 1.390 . S
C690 C691 1.394 . S
C690 C696 1.465 . S
C691 C686 1.399 . S
C691 C690 1.394 . S
C691 C692 1.516 . S
C692 C691 1.516 . S
C692 C693 1.502 . S
C692 C694 1.561 . S
C692 C695 1.526 . S
C693 H677 0.959 . S
C693 H678 0.959 . S
C693 H679 0.961 . S
C693 C692 1.502 . S
C694 H680 0.960 . S
C694 H681 0.961 . S
C694 H682 0.959 . S
C694 C692 1.561 . S
C695 C692 1.526 . S
C695 C696 1.396 . S
C695 C700 1.390 . S
C696 C690 1.465 . S
C696 C695 1.396 . S
C696 C697 1.399 . S
C697 H683 0.929 . S
C697 C696 1.399 . S
C697 C698 1.385 . S
C698 H684 0.931 . S
C698 C697 1.385 . S
C698 C699 1.389 . S
C699 C698 1.389 . S
C699 C700 1.387 . S
C700 H685 0.930 . S
C700 C695 1.390 . S
C700 C699 1.387 . S
H701 C713 0.930 . S
H702 C715 0.930 . S
H703 C716 0.930 . S
H704 C720 0.959 . S
H705 C720 0.959 . S
H706 C720 0.961 . S
H707 C721 0.960 . S
H708 C721 0.961 . S
H709 C721 0.959 . S
H710 C724 0.929 . S
H711 C725 0.931 . S
H712 C727 0.930 . S
C713 H701 0.930 . S
C713 C714 1.399 . S
C713 C718 1.399 . S
C714 C713 1.399 . S
C714 C715 1.376 . S
C715 H702 0.930 . S
C715 C714 1.376 . S
C715 C716 1.388 . S
C716 H703 0.930 . S
C716 C715 1.388 . S
C716 C717 1.390 . S
C717 C716 1.390 . S
C717 C718 1.394 . S
C717 C723 1.465 . S
C718 C713 1.399 . S
C718 C717 1.394 . S
C718 C719 1.516 . S
C719 C718 1.516 . S
C719 C720 1.502 . S
C719 C721 1.561 . S
C719 C722 1.526 . S
C720 H704 0.959 . S
C720 H705 0.959 . S
C720 H706 0.961 . S
C720 C719 1.502 . S
C721 H707 0.960 . S
C721 H708 0.961 . S
C721 H709 0.959 . S
C721 C719 1.561 . S
C722 C719 1.526 . S
C722 C723 1.396 . S
C722 C727 1.390 . S
C723 C717 1.465 . S
C723 C722 1.396 . S
C723 C724 1.399 . S
C724 H710 0.929 . S
C724 C723 1.399 . S
C724 C725 1.385 . S
C725 H711 0.931 . S
C725 C724 1.385 . S
C725 C726 1.389 . S
C726 C725 1.389 . S
C726 C727 1.387 . S
C727 H712 0.930 . S
C727 C722 1.390 . S
C727 C726 1.387 . S
H728 C740 0.930 . S
H729 C742 0.930 . S
H730 C743 0.930 . S
H731 C747 0.959 . S
H732 C747 0.959 . S
H733 C747 0.961 . S
H734 C748 0.960 . S
H735 C748 0.961 . S
H736 C748 0.959 . S
H737 C751 0.929 . S
H738 C752 0.931 . S
H739 C754 0.930 . S
C740 H728 0.930 . S
C740 C741 1.399 . S
C740 C745 1.399 . S
C741 C740 1.399 . S
C741 C742 1.376 . S
C742 H729 0.930 . S
C742 C741 1.376 . S
C742 C743 1.388 . S
C743 H730 0.930 . S
C743 C742 1.388 . S
C743 C744 1.390 . S
C744 C743 1.390 . S
C744 C745 1.394 . S
C744 C750 1.465 . S
C745 C740 1.399 . S
C745 C744 1.394 . S
C745 C746 1.516 . S
C746 C745 1.516 . S
C746 C747 1.502 . S
C746 C748 1.561 . S
C746 C749 1.526 . S
C747 H731 0.959 . S
C747 H732 0.959 . S
C747 H733 0.961 . S
C747 C746 1.502 . S
C748 H734 0.960 . S
C748 H735 0.961 . S
C748 H736 0.959 . S
C748 C746 1.561 . S
C749 C746 1.526 . S
C749 C750 1.396 . S
C749 C754 1.390 . S
C750 C744 1.465 . S
C750 C749 1.396 . S
C750 C751 1.399 . S
C751 H737 0.929 . S
C751 C750 1.399 . S
C751 C752 1.385 . S
C752 H738 0.931 . S
C752 C751 1.385 . S
C752 C753 1.389 . S
C753 C752 1.389 . S
C753 C754 1.387 . S
C754 H739 0.930 . S
C754 C749 1.390 . S
C754 C753 1.387 . S
H755 C767 0.930 . S
H756 C769 0.930 . S
H757 C770 0.930 . S
H758 C774 0.959 . S
H759 C774 0.959 . S
H760 C774 0.961 . S
H761 C775 0.960 . S
H762 C775 0.961 . S
H763 C775 0.959 . S
H764 C778 0.929 . S
H765 C779 0.931 . S
H766 C781 0.930 . S
C767 H755 0.930 . S
C767 C768 1.399 . S
C767 C772 1.399 . S
C768 C767 1.399 . S
C768 C769 1.376 . S
C769 H756 0.930 . S
C769 C768 1.376 . S
C769 C770 1.388 . S
C770 H757 0.930 . S
C770 C769 1.388 . S
C770 C771 1.390 . S
C771 C770 1.390 . S
C771 C772 1.394 . S
C771 C777 1.465 . S
C772 C767 1.399 . S
C772 C771 1.394 . S
C772 C773 1.516 . S
C773 C772 1.516 . S
C773 C774 1.502 . S
C773 C775 1.561 . S
C773 C776 1.526 . S
C774 H758 0.959 . S
C774 H759 0.959 . S
C774 H760 0.961 . S
C774 C773 1.502 . S
C775 H761 0.960 . S
C775 H762 0.961 . S
C775 H763 0.959 . S
C775 C773 1.561 . S
C776 C773 1.526 . S
C776 C777 1.396 . S
C776 C781 1.390 . S
C777 C771 1.465 . S
C777 C776 1.396 . S
C777 C778 1.399 . S
C778 H764 0.929 . S
C778 C777 1.399 . S
C778 C779 1.385 . S
C779 H765 0.931 . S
C779 C778 1.385 . S
C779 C780 1.389 . S
C780 C779 1.389 . S
C780 C781 1.387 . S
C781 H766 0.930 . S
C781 C776 1.390 . S
C781 C780 1.387 . S
H782 C794 0.930 . S
H783 C796 0.930 . S
H784 C797 0.930 . S
H785 C801 0.959 . S
H786 C801 0.959 . S
H787 C801 0.961 . S
H788 C802 0.960 . S
H789 C802 0.961 . S
H790 C802 0.959 . S
H791 C805 0.929 . S
H792 C806 0.931 . S
H793 C808 0.930 . S
C794 H782 0.930 . S
C794 C795 1.399 1_565 S
C794 C799 1.399 . S
C795 C794 1.399 1_545 S
C795 C796 1.376 . S
C796 H783 0.930 . S
C796 C795 1.376 . S
C796 C797 1.388 . S
C797 H784 0.930 . S
C797 C796 1.388 . S
C797 C798 1.390 . S
C798 C797 1.390 . S
C798 C799 1.394 1_545 S
C798 C804 1.465 . S
C799 C794 1.399 . S
C799 C798 1.394 1_565 S
C799 C800 1.516 . S
C800 C799 1.516 . S
C800 C801 1.502 . S
C800 C802 1.561 . S
C800 C803 1.526 . S
C801 H785 0.959 . S
C801 H786 0.959 . S
C801 H787 0.961 . S
C801 C800 1.502 . S
C802 H788 0.960 . S
C802 H789 0.961 . S
C802 H790 0.959 . S
C802 C800 1.561 . S
C803 C800 1.526 . S
C803 C804 1.396 1_565 S
C803 C808 1.390 . S
C804 C798 1.465 . S
C804 C803 1.396 1_545 S
C804 C805 1.399 . S
C805 H791 0.929 . S
C805 C804 1.399 . S
C805 C806 1.385 . S
C806 H792 0.931 . S
C806 C805 1.385 . S
C806 C807 1.389 . S
C807 C806 1.389 . S
C807 C808 1.387 1_545 S
C808 H793 0.930 . S
C808 C803 1.390 . S
C808 C807 1.387 1_565 S
H809 C821 0.930 . S
H810 C823 0.930 . S
H811 C824 0.930 . S
H812 C828 0.959 . S
H813 C828 0.959 . S
H814 C828 0.961 . S
H815 C829 0.960 . S
H816 C829 0.961 . S
H817 C829 0.959 . S
H818 C832 0.937 . S
H819 C833 0.931 . S
H820 C835 0.930 . S
C821 H809 0.930 . S
C821 C822 1.399 . S
C821 C826 1.399 . S
C822 C821 1.399 . S
C822 C823 1.376 . S
C823 H810 0.930 . S
C823 C822 1.376 . S
C823 C824 1.388 . S
C824 H811 0.930 . S
C824 C823 1.388 . S
C824 C825 1.390 . S
C825 C824 1.390 . S
C825 C826 1.394 . S
C825 C831 1.465 . S
C826 C821 1.399 . S
C826 C825 1.394 . S
C826 C827 1.516 . S
C827 C826 1.516 . S
C827 C828 1.502 . S
C827 C829 1.561 . S
C827 C830 1.526 . S
C828 H812 0.959 . S
C828 H813 0.959 . S
C828 H814 0.961 . S
C828 C827 1.502 . S
C829 H815 0.960 . S
C829 H816 0.961 . S
C829 H817 0.959 . S
C829 C827 1.561 . S
C830 C827 1.526 . S
C830 C831 1.396 . S
C830 C835 1.390 . S
C831 C825 1.465 . S
C831 C830 1.396 . S
C831 C832 1.399 . S
C832 H818 0.937 . S
C832 C831 1.399 . S
C832 C833 1.385 . S
C833 H819 0.931 . S
C833 C832 1.385 . S
C833 C834 1.389 . S
C834 C833 1.389 . S
C834 C835 1.387 . S
C835 H820 0.930 . S
C835 C830 1.390 . S
C835 C834 1.387 . S
H836 C848 0.930 . S
H837 C850 0.930 . S
H838 C851 0.930 . S
H839 C855 0.959 . S
H840 C855 0.959 . S
H841 C855 0.961 . S
H842 C856 0.960 . S
H843 C856 0.961 . S
H844 C856 0.959 . S
H845 C859 0.929 . S
H846 C860 0.931 . S
H847 C862 0.930 . S
C848 H836 0.930 . S
C848 C849 1.399 1_554 S
C848 C853 1.399 . S
C849 C848 1.399 1_556 S
C849 C850 1.376 . S
C850 H837 0.930 . S
C850 C849 1.376 . S
C850 C851 1.388 . S
C851 H838 0.930 . S
C851 C850 1.388 . S
C851 C852 1.390 . S
C852 C851 1.390 . S
C852 C853 1.394 1_556 S
C852 C858 1.465 . S
C853 C848 1.399 . S
C853 C852 1.394 1_554 S
C853 C854 1.516 . S
C854 C853 1.516 . S
C854 C855 1.502 . S
C854 C856 1.561 . S
C854 C857 1.526 . S
C855 H839 0.959 . S
C855 H840 0.959 . S
C855 H841 0.961 . S
C855 C854 1.502 . S
C856 H842 0.960 . S
C856 H843 0.961 . S
C856 H844 0.959 . S
C856 C854 1.561 . S
C857 C854 1.526 . S
C857 C858 1.396 1_554 S
C857 C862 1.390 . S
C858 C852 1.465 . S
C858 C857 1.396 1_556 S
C858 C859 1.399 . S
C859 H845 0.929 . S
C859 C858 1.399 . S
C859 C860 1.385 . S
C860 H846 0.931 . S
C860 C859 1.385 . S
C860 C861 1.389 . S
C861 C860 1.389 . S
C861 C862 1.387 1_556 S
C862 H847 0.930 . S
C862 C857 1.390 . S
C862 C861 1.387 1_554 S
H863 C875 0.930 . S
H864 C877 0.930 . S
H865 C878 0.930 . S
H866 C882 0.959 . S
H867 C882 0.959 . S
H868 C882 0.961 . S
H869 C883 0.960 . S
H870 C883 0.961 . S
H871 C883 0.959 . S
H872 C886 0.929 . S
H873 C887 0.931 . S
H874 C889 0.930 . S
C875 H863 0.930 . S
C875 C876 1.399 . S
C875 C880 1.399 . S
C876 C875 1.399 . S
C876 C877 1.376 . S
C877 H864 0.930 . S
C877 C876 1.376 . S
C877 C878 1.388 . S
C878 H865 0.930 . S
C878 C877 1.388 . S
C878 C879 1.390 . S
C879 C878 1.390 . S
C879 C880 1.394 . S
C879 C885 1.465 . S
C880 C875 1.399 . S
C880 C879 1.394 . S
C880 C881 1.516 . S
C881 C880 1.516 . S
C881 C882 1.502 . S
C881 C883 1.561 . S
C881 C884 1.526 . S
C882 H866 0.959 . S
C882 H867 0.959 . S
C882 H868 0.961 . S
C882 C881 1.502 . S
C883 H869 0.960 . S
C883 H870 0.961 . S
C883 H871 0.959 . S
C883 C881 1.561 . S
C884 C881 1.526 . S
C884 C885 1.396 . S
C884 C889 1.390 . S
C885 C879 1.465 . S
C885 C884 1.396 . S
C885 C886 1.399 . S
C886 H872 0.929 . S
C886 C885 1.399 . S
C886 C887 1.385 . S
C887 H873 0.931 . S
C887 C886 1.385 . S
C887 C888 1.389 . S
C888 C887 1.389 . S
C888 C889 1.387 . S
C889 H874 0.930 . S
C889 C884 1.390 . S
C889 C888 1.387 . S
H890 C902 0.930 . S
H891 C904 0.930 . S
H892 C905 0.930 . S
H893 C909 0.959 . S
H894 C909 0.959 . S
H895 C909 0.961 . S
H896 C910 0.960 . S
H897 C910 0.961 . S
H898 C910 0.959 . S
H899 C913 0.929 . S
H900 C914 0.931 . S
H901 C916 0.930 . S
C902 H890 0.930 . S
C902 C903 1.399 . S
C902 C907 1.399 . S
C903 C902 1.399 . S
C903 C904 1.376 . S
C904 H891 0.930 . S
C904 C903 1.376 . S
C904 C905 1.388 . S
C905 H892 0.930 . S
C905 C904 1.388 . S
C905 C906 1.390 . S
C906 C905 1.390 . S
C906 C907 1.394 . S
C906 C912 1.465 . S
C907 C902 1.399 . S
C907 C906 1.394 . S
C907 C908 1.516 . S
C908 C907 1.516 . S
C908 C909 1.502 . S
C908 C910 1.561 . S
C908 C911 1.526 . S
C909 H893 0.959 . S
C909 H894 0.959 . S
C909 H895 0.961 . S
C909 C908 1.502 . S
C910 H896 0.960 . S
C910 H897 0.961 . S
C910 H898 0.959 . S
C910 C908 1.561 . S
C911 C908 1.526 . S
C911 C912 1.396 . S
C911 C916 1.390 . S
C912 C906 1.465 . S
C912 C911 1.396 . S
C912 C913 1.399 . S
C913 H899 0.929 . S
C913 C912 1.399 . S
C913 C914 1.385 . S
C914 H900 0.931 . S
C914 C913 1.385 . S
C914 C915 1.389 . S
C915 C914 1.389 . S
C915 C916 1.387 . S
C916 H901 0.930 . S
C916 C911 1.390 . S
C916 C915 1.387 . S
H917 C929 0.930 . S
H918 C931 0.930 . S
H919 C932 0.930 . S
H920 C936 0.959 . S
H921 C936 0.959 . S
H922 C936 0.961 . S
H923 C937 0.960 . S
H924 C937 0.961 . S
H925 C937 0.959 . S
H926 C940 0.929 . S
H927 C941 0.931 . S
H928 C943 0.930 . S
C929 H917 0.930 . S
C929 C930 1.399 . S
C929 C934 1.399 . S
C930 C929 1.399 . S
C930 C931 1.376 . S
C931 H918 0.930 . S
C931 C930 1.376 . S
C931 C932 1.388 . S
C932 H919 0.930 . S
C932 C931 1.388 . S
C932 C933 1.390 . S
C933 C932 1.390 . S
C933 C934 1.394 . S
C933 C939 1.465 . S
C934 C929 1.399 . S
C934 C933 1.394 . S
C934 C935 1.516 . S
C935 C934 1.516 . S
C935 C936 1.502 . S
C935 C937 1.561 . S
C935 C938 1.526 . S
C936 H920 0.959 . S
C936 H921 0.959 . S
C936 H922 0.961 . S
C936 C935 1.502 . S
C937 H923 0.960 . S
C937 H924 0.961 . S
C937 H925 0.959 . S
C937 C935 1.561 . S
C938 C935 1.526 . S
C938 C939 1.396 . S
C938 C943 1.390 . S
C939 C933 1.465 . S
C939 C938 1.396 . S
C939 C940 1.399 . S
C940 H926 0.929 . S
C940 C939 1.399 . S
C940 C941 1.385 . S
C941 H927 0.931 . S
C941 C940 1.385 . S
C941 C942 1.389 . S
C942 C941 1.389 . S
C942 C943 1.387 . S
C943 H928 0.930 . S
C943 C938 1.390 . S
C943 C942 1.387 . S
H944 C956 0.930 . S
H945 C958 0.930 . S
H946 C959 0.930 . S
H947 C963 0.959 . S
H948 C963 0.959 . S
H949 C963 0.961 . S
H950 C964 0.960 . S
H951 C964 0.961 . S
H952 C964 0.959 . S
H953 C967 0.929 . S
H954 C968 0.931 . S
H955 C970 0.930 . S
C956 H944 0.930 . S
C956 C957 1.399 . S
C956 C961 1.399 . S
C957 C956 1.399 . S
C957 C958 1.376 . S
C958 H945 0.930 . S
C958 C957 1.376 . S
C958 C959 1.388 . S
C959 H946 0.930 . S
C959 C958 1.388 . S
C959 C960 1.390 . S
C960 C959 1.390 . S
C960 C961 1.394 . S
C960 C966 1.465 . S
C961 C956 1.399 . S
C961 C960 1.394 . S
C961 C962 1.516 . S
C962 C961 1.516 . S
C962 C963 1.502 . S
C962 C964 1.561 . S
C962 C965 1.526 . S
C963 H947 0.959 . S
C963 H948 0.959 . S
C963 H949 0.961 . S
C963 C962 1.502 . S
C964 H950 0.960 . S
C964 H951 0.961 . S
C964 H952 0.959 . S
C964 C962 1.561 . S
C965 C962 1.526 . S
C965 C966 1.396 . S
C965 C970 1.390 . S
C966 C960 1.465 . S
C966 C965 1.396 . S
C966 C967 1.399 . S
C967 H953 0.929 . S
C967 C966 1.399 . S
C967 C968 1.385 . S
C968 H954 0.931 . S
C968 C967 1.385 . S
C968 C969 1.389 . S
C969 C968 1.389 . S
C969 C970 1.387 . S
C970 H955 0.930 . S
C970 C965 1.390 . S
C970 C969 1.387 . S
H971 C983 0.930 . S
H972 C985 0.930 . S
H973 C986 0.930 . S
H974 C990 0.959 . S
H975 C990 0.959 . S
H976 C990 0.961 . S
H977 C991 0.960 . S
H978 C991 0.961 . S
H979 C991 0.959 . S
H980 C994 0.929 . S
H981 C995 0.931 . S
H982 C997 0.930 . S
C983 H971 0.930 . S
C983 C984 1.399 . S
C983 C988 1.399 . S
C984 C983 1.399 . S
C984 C985 1.376 . S
C985 H972 0.930 . S
C985 C984 1.376 . S
C985 C986 1.388 . S
C986 H973 0.930 . S
C986 C985 1.388 . S
C986 C987 1.390 . S
C987 C986 1.390 . S
C987 C988 1.394 . S
C987 C993 1.465 . S
C988 C983 1.399 . S
C988 C987 1.394 . S
C988 C989 1.516 . S
C989 C988 1.516 . S
C989 C990 1.502 . S
C989 C991 1.561 . S
C989 C992 1.526 . S
C990 H974 0.959 . S
C990 H975 0.959 . S
C990 H976 0.961 . S
C990 C989 1.502 . S
C991 H977 0.960 . S
C991 H978 0.961 . S
C991 H979 0.959 . S
C991 C989 1.561 . S
C992 C989 1.526 . S
C992 C993 1.396 . S
C992 C997 1.390 . S
C993 C987 1.465 . S
C993 C992 1.396 . S
C993 C994 1.399 . S
C994 H980 0.929 . S
C994 C993 1.399 . S
C994 C995 1.385 . S
C995 H981 0.931 . S
C995 C994 1.385 . S
C995 C996 1.389 . S
C996 C995 1.389 . S
C996 C997 1.387 . S
C997 H982 0.930 . S
C997 C992 1.390 . S
C997 C996 1.387 . S
H998 C1010 0.930 . S
H999 C1012 0.930 . S
H1000 C1013 0.930 . S
H1001 C1017 0.959 . S
H1002 C1017 0.959 . S
H1003 C1017 0.961 . S
H1004 C1018 0.960 . S
H1005 C1018 0.961 . S
H1006 C1018 0.959 . S
H1007 C1021 0.929 . S
H1008 C1022 0.931 . S
H1009 C1024 0.930 . S
C1010 H998 0.930 . S
C1010 C1011 1.399 . S
C1010 C1015 1.399 . S
C1011 C1010 1.399 . S
C1011 C1012 1.376 . S
C1012 H999 0.930 . S
C1012 C1011 1.376 . S
C1012 C1013 1.388 . S
C1013 H1000 0.930 . S
C1013 C1012 1.388 . S
C1013 C1014 1.390 . S
C1014 C1013 1.390 . S
C1014 C1015 1.394 . S
C1014 C1020 1.465 . S
C1015 C1010 1.399 . S
C1015 C1014 1.394 . S
C1015 C1016 1.516 . S
C1016 C1015 1.516 . S
C1016 C1017 1.502 . S
C1016 C1018 1.561 . S
C1016 C1019 1.526 . S
C1017 H1001 0.959 . S
C1017 H1002 0.959 . S
C1017 H1003 0.961 . S
C1017 C1016 1.502 . S
C1018 H1004 0.960 . S
C1018 H1005 0.961 . S
C1018 H1006 0.959 . S
C1018 C1016 1.561 . S
C1019 C1016 1.526 . S
C1019 C1020 1.396 . S
C1019 C1024 1.390 . S
C1020 C1014 1.465 . S
C1020 C1019 1.396 . S
C1020 C1021 1.399 . S
C1021 H1007 0.929 . S
C1021 C1020 1.399 . S
C1021 C1022 1.385 . S
C1022 H1008 0.931 . S
C1022 C1021 1.385 . S
C1022 C1023 1.389 . S
C1023 C1022 1.389 . S
C1023 C1024 1.387 . S
C1024 H1009 0.930 . S
C1024 C1019 1.390 . S
C1024 C1023 1.387 . S
H1025 C1037 0.930 . S
H1026 C1039 0.930 . S
H1027 C1040 0.930 . S
H1028 C1044 0.959 . S
H1029 C1044 0.959 . S
H1030 C1044 0.961 . S
H1031 C1045 0.960 . S
H1032 C1045 0.961 . S
H1033 C1045 0.959 . S
H1034 C1048 0.929 . S
H1035 C1049 0.931 . S
H1036 C1051 0.930 . S
C1037 H1025 0.930 . S
C1037 C1038 1.399 . S
C1037 C1042 1.399 . S
C1038 C1037 1.399 . S
C1038 C1039 1.376 . S
C1039 H1026 0.930 . S
C1039 C1038 1.376 . S
C1039 C1040 1.388 . S
C1040 H1027 0.930 . S
C1040 C1039 1.388 . S
C1040 C1041 1.390 . S
C1041 C1040 1.390 . S
C1041 C1042 1.394 . S
C1041 C1047 1.465 . S
C1042 C1037 1.399 . S
C1042 C1041 1.394 . S
C1042 C1043 1.516 . S
C1043 C1042 1.516 . S
C1043 C1044 1.502 . S
C1043 C1045 1.561 . S
C1043 C1046 1.526 . S
C1044 H1028 0.959 . S
C1044 H1029 0.959 . S
C1044 H1030 0.961 . S
C1044 C1043 1.502 . S
C1045 H1031 0.960 . S
C1045 H1032 0.961 . S
C1045 H1033 0.959 . S
C1045 C1043 1.561 . S
C1046 C1043 1.526 . S
C1046 C1047 1.396 . S
C1046 C1051 1.390 . S
C1047 C1041 1.465 . S
C1047 C1046 1.396 . S
C1047 C1048 1.399 . S
C1048 H1034 0.929 . S
C1048 C1047 1.399 . S
C1048 C1049 1.385 . S
C1049 H1035 0.931 . S
C1049 C1048 1.385 . S
C1049 C1050 1.389 . S
C1050 C1049 1.389 . S
C1050 C1051 1.387 . S
C1051 H1036 0.930 . S
C1051 C1046 1.390 . S
C1051 C1050 1.387 . S
H1052 C1064 0.930 . S
H1053 C1066 0.930 . S
H1054 C1067 0.930 . S
H1055 C1071 0.959 . S
H1056 C1071 0.959 . S
H1057 C1071 0.961 . S
H1058 C1072 0.960 . S
H1059 C1072 0.961 . S
H1060 C1072 0.959 . S
H1061 C1075 0.929 . S
H1062 C1076 0.931 . S
H1063 C1078 0.930 . S
C1064 H1052 0.930 . S
C1064 C1065 1.399 . S
C1064 C1069 1.399 . S
C1065 C1064 1.399 . S
C1065 C1066 1.376 . S
C1066 H1053 0.930 . S
C1066 C1065 1.376 . S
C1066 C1067 1.388 . S
C1067 H1054 0.930 . S
C1067 C1066 1.388 . S
C1067 C1068 1.390 . S
C1068 C1067 1.390 . S
C1068 C1069 1.394 . S
C1068 C1074 1.465 . S
C1069 C1064 1.399 . S
C1069 C1068 1.394 . S
C1069 C1070 1.516 . S
C1070 C1069 1.516 . S
C1070 C1071 1.502 . S
C1070 C1072 1.561 . S
C1070 C1073 1.526 . S
C1071 H1055 0.959 . S
C1071 H1056 0.959 . S
C1071 H1057 0.961 . S
C1071 C1070 1.502 . S
C1072 H1058 0.960 . S
C1072 H1059 0.961 . S
C1072 H1060 0.959 . S
C1072 C1070 1.561 . S
C1073 C1070 1.526 . S
C1073 C1074 1.396 . S
C1073 C1078 1.390 . S
C1074 C1068 1.465 . S
C1074 C1073 1.396 . S
C1074 C1075 1.399 . S
C1075 H1061 0.929 . S
C1075 C1074 1.399 . S
C1075 C1076 1.385 . S
C1076 H1062 0.931 . S
C1076 C1075 1.385 . S
C1076 C1077 1.389 . S
C1077 C1076 1.389 . S
C1077 C1078 1.387 . S
C1078 H1063 0.930 . S
C1078 C1073 1.390 . S
C1078 C1077 1.387 . S
H1079 C1091 0.930 . S
H1080 C1093 0.930 . S
H1081 C1094 0.930 . S
H1082 C1098 0.959 . S
H1083 C1098 0.959 . S
H1084 C1098 0.961 . S
H1085 C1099 0.960 . S
H1086 C1099 0.961 . S
H1087 C1099 0.959 . S
H1088 C1102 0.929 . S
H1089 C1103 0.931 . S
H1090 C1105 0.930 . S
C1091 H1079 0.930 . S
C1091 C1092 1.399 1_455 S
C1091 C1096 1.399 . S
C1092 C1091 1.399 1_655 S
C1092 C1093 1.376 . S
C1093 H1080 0.930 . S
C1093 C1092 1.376 . S
C1093 C1094 1.388 . S
C1094 H1081 0.930 . S
C1094 C1093 1.388 . S
C1094 C1095 1.390 . S
C1095 C1094 1.390 . S
C1095 C1096 1.394 1_655 S
C1095 C1101 1.465 . S
C1096 C1091 1.399 . S
C1096 C1095 1.394 1_455 S
C1096 C1097 1.516 . S
C1097 C1096 1.516 . S
C1097 C1098 1.502 . S
C1097 C1099 1.561 . S
C1097 C1100 1.526 . S
C1098 H1082 0.959 . S
C1098 H1083 0.959 . S
C1098 H1084 0.961 . S
C1098 C1097 1.502 . S
C1099 H1085 0.960 . S
C1099 H1086 0.961 . S
C1099 H1087 0.959 . S
C1099 C1097 1.561 . S
C1100 C1097 1.526 . S
C1100 C1101 1.396 1_455 S
C1100 C1105 1.390 . S
C1101 C1095 1.465 . S
C1101 C1100 1.396 1_655 S
C1101 C1102 1.399 . S
C1102 H1088 0.929 . S
C1102 C1101 1.399 . S
C1102 C1103 1.385 . S
C1103 H1089 0.931 . S
C1103 C1102 1.385 . S
C1103 C1104 1.402 . S
C1104 C1103 1.402 . S
C1104 C1105 1.380 1_655 S
C1105 H1090 0.930 . S
C1105 C1100 1.390 . S
C1105 C1104 1.380 1_455 S
H1106 C1118 0.930 . S
H1107 C1120 0.930 . S
H1108 C1121 0.930 . S
H1109 C1125 0.959 . S
H1110 C1125 0.959 . S
H1111 C1125 0.961 . S
H1112 C1126 0.960 . S
H1113 C1126 0.961 . S
H1114 C1126 0.959 . S
H1115 C1129 0.929 . S
H1116 C1130 0.931 . S
H1117 C1132 0.930 . S
C1118 H1106 0.930 . S
C1118 C1119 1.399 . S
C1118 C1123 1.399 . S
C1119 C1118 1.399 . S
C1119 C1120 1.376 . S
C1120 H1107 0.930 . S
C1120 C1119 1.376 . S
C1120 C1121 1.388 . S
C1121 H1108 0.930 . S
C1121 C1120 1.388 . S
C1121 C1122 1.390 . S
C1122 C1121 1.390 . S
C1122 C1123 1.394 . S
C1122 C1128 1.465 . S
C1123 C1118 1.399 . S
C1123 C1122 1.394 . S
C1123 C1124 1.516 . S
C1124 C1123 1.516 . S
C1124 C1125 1.502 . S
C1124 C1126 1.561 . S
C1124 C1127 1.526 . S
C1125 H1109 0.959 . S
C1125 H1110 0.959 . S
C1125 H1111 0.961 . S
C1125 C1124 1.502 . S
C1126 H1112 0.960 . S
C1126 H1113 0.961 . S
C1126 H1114 0.959 . S
C1126 C1124 1.561 . S
C1127 C1124 1.526 . S
C1127 C1128 1.396 . S
C1127 C1132 1.390 . S
C1128 C1122 1.465 . S
C1128 C1127 1.396 . S
C1128 C1129 1.399 . S
C1129 H1115 0.929 . S
C1129 C1128 1.399 . S
C1129 C1130 1.385 . S
C1130 H1116 0.931 . S
C1130 C1129 1.385 . S
C1130 C1131 1.389 . S
C1131 C1130 1.389 . S
C1131 C1132 1.387 . S
C1132 H1117 0.930 . S
C1132 C1127 1.390 . S
C1132 C1131 1.387 . S
H1133 C1145 0.930 . S
H1134 C1147 0.930 . S
H1135 C1148 0.930 . S
H1136 C1152 0.959 . S
H1137 C1152 0.959 . S
H1138 C1152 0.961 . S
H1139 C1153 0.960 . S
H1140 C1153 0.961 . S
H1141 C1153 0.959 . S
H1142 C1156 0.929 . S
H1143 C1157 0.931 . S
H1144 C1159 0.930 . S
C1145 H1133 0.930 . S
C1145 C1146 1.399 . S
C1145 C1150 1.399 . S
C1146 C1145 1.399 . S
C1146 C1147 1.376 . S
C1147 H1134 0.930 . S
C1147 C1146 1.376 . S
C1147 C1148 1.388 . S
C1148 H1135 0.930 . S
C1148 C1147 1.388 . S
C1148 C1149 1.390 . S
C1149 C1148 1.390 . S
C1149 C1150 1.394 . S
C1149 C1155 1.465 . S
C1150 C1145 1.399 . S
C1150 C1149 1.394 . S
C1150 C1151 1.516 . S
C1151 C1150 1.516 . S
C1151 C1152 1.502 . S
C1151 C1153 1.561 . S
C1151 C1154 1.526 . S
C1152 H1136 0.959 . S
C1152 H1137 0.959 . S
C1152 H1138 0.961 . S
C1152 C1151 1.502 . S
C1153 H1139 0.960 . S
C1153 H1140 0.961 . S
C1153 H1141 0.959 . S
C1153 C1151 1.561 . S
C1154 C1151 1.526 . S
C1154 C1155 1.396 . S
C1154 C1159 1.390 . S
C1155 C1149 1.465 . S
C1155 C1154 1.396 . S
C1155 C1156 1.399 . S
C1156 H1142 0.929 . S
C1156 C1155 1.399 . S
C1156 C1157 1.385 . S
C1157 H1143 0.931 . S
C1157 C1156 1.385 . S
C1157 C1158 1.389 . S
C1158 C1157 1.389 . S
C1158 C1159 1.387 . S
C1159 H1144 0.930 . S
C1159 C1154 1.390 . S
C1159 C1158 1.387 . S
H1160 C1172 0.930 . S
H1161 C1174 0.930 . S
H1162 C1175 0.930 . S
H1163 C1179 0.959 . S
H1164 C1179 0.959 . S
H1165 C1179 0.961 . S
H1166 C1180 0.960 . S
H1167 C1180 0.961 . S
H1168 C1180 0.959 . S
H1169 C1183 0.929 . S
H1170 C1184 0.931 . S
H1171 C1186 0.930 . S
C1172 H1160 0.930 . S
C1172 C1173 1.399 . S
C1172 C1177 1.399 . S
C1173 C1172 1.399 . S
C1173 C1174 1.376 . S
C1174 H1161 0.930 . S
C1174 C1173 1.376 . S
C1174 C1175 1.388 . S
C1175 H1162 0.930 . S
C1175 C1174 1.388 . S
C1175 C1176 1.390 . S
C1176 C1175 1.390 . S
C1176 C1177 1.394 . S
C1176 C1182 1.465 . S
C1177 C1172 1.399 . S
C1177 C1176 1.394 . S
C1177 C1178 1.516 . S
C1178 C1177 1.516 . S
C1178 C1179 1.502 . S
C1178 C1180 1.561 . S
C1178 C1181 1.526 . S
C1179 H1163 0.959 . S
C1179 H1164 0.959 . S
C1179 H1165 0.961 . S
C1179 C1178 1.502 . S
C1180 H1166 0.960 . S
C1180 H1167 0.961 . S
C1180 H1168 0.959 . S
C1180 C1178 1.561 . S
C1181 C1178 1.526 . S
C1181 C1182 1.396 . S
C1181 C1186 1.390 . S
C1182 C1176 1.465 . S
C1182 C1181 1.396 . S
C1182 C1183 1.399 . S
C1183 H1169 0.929 . S
C1183 C1182 1.399 . S
C1183 C1184 1.385 . S
C1184 H1170 0.931 . S
C1184 C1183 1.385 . S
C1184 C1185 1.389 . S
C1185 C1184 1.389 . S
C1185 C1186 1.387 . S
C1186 H1171 0.930 . S
C1186 C1181 1.390 . S
C1186 C1185 1.387 . S
H1187 C1199 0.930 . S
H1188 C1201 0.930 . S
H1189 C1202 0.930 . S
H1190 C1206 0.959 . S
H1191 C1206 0.959 . S
H1192 C1206 0.961 . S
H1193 C1207 0.960 . S
H1194 C1207 0.961 . S
H1195 C1207 0.959 . S
H1196 C1210 0.929 . S
H1197 C1211 0.931 . S
H1198 C1213 0.930 . S
C1199 H1187 0.930 . S
C1199 C1200 1.399 . S
C1199 C1204 1.399 . S
C1200 C1199 1.399 . S
C1200 C1201 1.376 . S
C1201 H1188 0.930 . S
C1201 C1200 1.376 . S
C1201 C1202 1.388 . S
C1202 H1189 0.930 . S
C1202 C1201 1.388 . S
C1202 C1203 1.390 . S
C1203 C1202 1.390 . S
C1203 C1204 1.394 . S
C1203 C1209 1.465 . S
C1204 C1199 1.399 . S
C1204 C1203 1.394 . S
C1204 C1205 1.516 . S
C1205 C1204 1.516 . S
C1205 C1206 1.502 . S
C1205 C1207 1.561 . S
C1205 C1208 1.526 . S
C1206 H1190 0.959 . S
C1206 H1191 0.959 . S
C1206 H1192 0.961 . S
C1206 C1205 1.502 . S
C1207 H1193 0.960 . S
C1207 H1194 0.961 . S
C1207 H1195 0.959 . S
C1207 C1205 1.561 . S
C1208 C1205 1.526 . S
C1208 C1209 1.396 . S
C1208 C1213 1.390 . S
C1209 C1203 1.465 . S
C1209 C1208 1.396 . S
C1209 C1210 1.399 . S
C1210 H1196 0.929 . S
C1210 C1209 1.399 . S
C1210 C1211 1.385 . S
C1211 H1197 0.931 . S
C1211 C1210 1.385 . S
C1211 C1212 1.389 . S
C1212 C1211 1.389 . S
C1212 C1213 1.387 . S
C1213 H1198 0.930 . S
C1213 C1208 1.390 . S
C1213 C1212 1.387 . S
H1214 C1226 0.930 1_565 S
H1215 C1228 0.930 . S
H1216 C1229 0.930 . S
H1217 C1233 0.959 1_545 S
H1218 C1233 0.959 . S
H1219 C1233 0.961 . S
H1220 C1234 0.960 . S
H1221 C1234 0.961 . S
H1222 C1234 0.959 . S
H1223 C1237 0.929 . S
H1224 C1238 0.931 . S
H1225 C1240 0.930 . S
C1226 H1214 0.930 1_545 S
C1226 C1227 1.399 . S
C1226 C1231 1.399 . S
C1227 C1226 1.399 . S
C1227 C1228 1.376 . S
C1228 H1215 0.930 . S
C1228 C1227 1.376 . S
C1228 C1229 1.388 . S
C1229 H1216 0.930 . S
C1229 C1228 1.388 . S
C1229 C1230 1.390 . S
C1230 C1229 1.390 . S
C1230 C1231 1.394 . S
C1230 C1236 1.465 . S
C1231 C1226 1.399 . S
C1231 C1230 1.394 . S
C1231 C1232 1.516 . S
C1232 C1231 1.516 . S
C1232 C1233 1.502 1_545 S
C1232 C1234 1.561 1_545 S
C1232 C1235 1.526 . S
C1233 H1217 0.959 1_565 S
C1233 H1218 0.959 . S
C1233 H1219 0.961 . S
C1233 C1232 1.502 1_565 S
C1234 H1220 0.960 . S
C1234 H1221 0.961 . S
C1234 H1222 0.959 . S
C1234 C1232 1.561 1_565 S
C1235 C1232 1.526 . S
C1235 C1236 1.396 . S
C1235 C1240 1.390 . S
C1236 C1230 1.465 . S
C1236 C1235 1.396 . S
C1236 C1237 1.399 . S
C1237 H1223 0.929 . S
C1237 C1236 1.399 . S
C1237 C1238 1.385 . S
C1238 H1224 0.931 . S
C1238 C1237 1.385 . S
C1238 C1239 1.389 . S
C1239 C1238 1.389 . S
C1239 C1240 1.387 . S
C1240 H1225 0.930 . S
C1240 C1235 1.390 . S
C1240 C1239 1.387 . S
H1241 C1253 0.914 1_556 S
H1242 C1255 0.930 . S
H1243 C1256 0.930 . S
H1244 C1260 0.959 . S
H1245 C1260 0.954 1_556 S
H1246 C1260 0.961 . S
H1247 C1261 0.960 . S
H1248 C1261 0.961 . S
H1249 C1261 0.959 . S
H1250 C1264 0.929 . S
H1251 C1265 0.931 . S
H1252 C1267 0.947 . S
C1253 H1241 0.914 1_554 S
C1253 C1254 1.399 . S
C1253 C1258 1.399 . S
C1254 C1253 1.399 . S
C1254 C1255 1.376 . S
C1255 H1242 0.930 . S
C1255 C1254 1.376 . S
C1255 C1256 1.388 . S
C1256 H1243 0.930 . S
C1256 C1255 1.388 . S
C1256 C1257 1.390 . S
C1257 C1256 1.390 . S
C1257 C1258 1.394 . S
C1257 C1263 1.465 . S
C1258 C1253 1.399 . S
C1258 C1257 1.394 . S
C1258 C1259 1.506 1_554 S
C1259 C1258 1.506 1_556 S
C1259 C1260 1.497 1_556 S
C1259 C1261 1.589 . S
C1259 C1262 1.514 1_556 S
C1260 H1244 0.959 . S
C1260 H1245 0.954 1_554 S
C1260 H1246 0.961 . S
C1260 C1259 1.497 1_554 S
C1261 H1247 0.960 . S
C1261 H1248 0.961 . S
C1261 H1249 0.959 . S
C1261 C1259 1.589 . S
C1262 C1259 1.514 1_554 S
C1262 C1263 1.396 . S
C1262 C1267 1.390 . S
C1263 C1257 1.465 . S
C1263 C1262 1.396 . S
C1263 C1264 1.399 . S
C1264 H1250 0.929 . S
C1264 C1263 1.399 . S
C1264 C1265 1.385 . S
C1265 H1251 0.931 . S
C1265 C1264 1.385 . S
C1265 C1266 1.389 . S
C1266 C1265 1.389 . S
C1266 C1267 1.387 . S
C1267 H1252 0.947 . S
C1267 C1262 1.390 . S
C1267 C1266 1.387 . S
H1268 C1280 0.930 . S
H1269 C1282 0.930 . S
H1270 C1283 0.930 . S
H1271 C1287 0.959 . S
H1272 C1287 0.959 . S
H1273 C1287 0.961 . S
H1274 C1288 0.960 . S
H1275 C1288 0.961 . S
H1276 C1288 0.959 . S
H1277 C1291 0.929 . S
H1278 C1292 0.931 . S
H1279 C1294 0.930 . S
C1280 H1268 0.930 . S
C1280 C1281 1.399 . S
C1280 C1285 1.399 . S
C1281 C1280 1.399 . S
C1281 C1282 1.376 . S
C1282 H1269 0.930 . S
C1282 C1281 1.376 . S
C1282 C1283 1.388 . S
C1283 H1270 0.930 . S
C1283 C1282 1.388 . S
C1283 C1284 1.390 . S
C1284 C1283 1.390 . S
C1284 C1285 1.394 . S
C1284 C1290 1.465 . S
C1285 C1280 1.399 . S
C1285 C1284 1.394 . S
C1285 C1286 1.516 . S
C1286 C1285 1.516 . S
C1286 C1287 1.502 . S
C1286 C1288 1.561 . S
C1286 C1289 1.526 . S
C1287 H1271 0.959 . S
C1287 H1272 0.959 . S
C1287 H1273 0.961 . S
C1287 C1286 1.502 . S
C1288 H1274 0.960 . S
C1288 H1275 0.961 . S
C1288 H1276 0.959 . S
C1288 C1286 1.561 . S
C1289 C1286 1.526 . S
C1289 C1290 1.396 . S
C1289 C1294 1.390 . S
C1290 C1284 1.465 . S
C1290 C1289 1.396 . S
C1290 C1291 1.399 . S
C1291 H1277 0.929 . S
C1291 C1290 1.399 . S
C1291 C1292 1.385 . S
C1292 H1278 0.931 . S
C1292 C1291 1.385 . S
C1292 C1293 1.389 . S
C1293 C1292 1.389 . S
C1293 C1294 1.387 . S
C1294 H1279 0.930 . S
C1294 C1289 1.390 . S
C1294 C1293 1.387 . S
H1295 C1307 0.930 . S
H1296 C1309 0.930 . S
H1297 C1310 0.930 . S
H1298 C1314 0.959 . S
H1299 C1314 0.959 . S
H1300 C1314 0.961 . S
H1301 C1315 0.960 . S
H1302 C1315 0.961 . S
H1303 C1315 0.959 . S
H1304 C1318 0.929 . S
H1305 C1319 0.931 . S
H1306 C1321 0.930 . S
C1307 H1295 0.930 . S
C1307 C1308 1.399 . S
C1307 C1312 1.399 . S
C1308 C1307 1.399 . S
C1308 C1309 1.376 . S
C1309 H1296 0.930 . S
C1309 C1308 1.376 . S
C1309 C1310 1.388 . S
C1310 H1297 0.930 . S
C1310 C1309 1.388 . S
C1310 C1311 1.390 . S
C1311 C1310 1.390 . S
C1311 C1312 1.394 . S
C1311 C1317 1.465 . S
C1312 C1307 1.399 . S
C1312 C1311 1.394 . S
C1312 C1313 1.516 . S
C1313 C1312 1.516 . S
C1313 C1314 1.502 . S
C1313 C1315 1.561 . S
C1313 C1316 1.526 . S
C1314 H1298 0.959 . S
C1314 H1299 0.959 . S
C1314 H1300 0.961 . S
C1314 C1313 1.502 . S
C1315 H1301 0.960 . S
C1315 H1302 0.961 . S
C1315 H1303 0.959 . S
C1315 C1313 1.561 . S
C1316 C1313 1.526 . S
C1316 C1317 1.396 . S
C1316 C1321 1.390 . S
C1317 C1311 1.465 . S
C1317 C1316 1.396 . S
C1317 C1318 1.399 . S
C1318 H1304 0.929 . S
C1318 C1317 1.399 . S
C1318 C1319 1.385 . S
C1319 H1305 0.931 . S
C1319 C1318 1.385 . S
C1319 C1320 1.389 . S
C1320 C1319 1.389 . S
C1320 C1321 1.387 . S
C1321 H1306 0.930 . S
C1321 C1316 1.390 . S
C1321 C1320 1.387 . S
H1322 C1334 0.930 . S
H1323 C1336 0.930 . S
H1324 C1337 0.930 . S
H1325 C1341 0.959 . S
H1326 C1341 0.959 . S
H1327 C1341 0.961 . S
H1328 C1342 0.960 . S
H1329 C1342 0.961 . S
H1330 C1342 0.959 . S
H1331 C1345 0.929 . S
H1332 C1346 0.931 . S
H1333 C1348 0.930 . S
C1334 H1322 0.930 . S
C1334 C1335 1.399 . S
C1334 C1339 1.399 . S
C1335 C1334 1.399 . S
C1335 C1336 1.376 . S
C1336 H1323 0.930 . S
C1336 C1335 1.376 . S
C1336 C1337 1.388 . S
C1337 H1324 0.930 . S
C1337 C1336 1.388 . S
C1337 C1338 1.390 . S
C1338 C1337 1.390 . S
C1338 C1339 1.394 . S
C1338 C1344 1.465 . S
C1339 C1334 1.399 . S
C1339 C1338 1.394 . S
C1339 C1340 1.516 . S
C1340 C1339 1.516 . S
C1340 C1341 1.502 . S
C1340 C1342 1.561 . S
C1340 C1343 1.526 . S
C1341 H1325 0.959 . S
C1341 H1326 0.959 . S
C1341 H1327 0.961 . S
C1341 C1340 1.502 . S
C1342 H1328 0.960 . S
C1342 H1329 0.961 . S
C1342 H1330 0.959 . S
C1342 C1340 1.561 . S
C1343 C1340 1.526 . S
C1343 C1344 1.396 . S
C1343 C1348 1.390 . S
C1344 C1338 1.465 . S
C1344 C1343 1.396 . S
C1344 C1345 1.399 . S
C1345 H1331 0.929 . S
C1345 C1344 1.399 . S
C1345 C1346 1.385 . S
C1346 H1332 0.931 . S
C1346 C1345 1.385 . S
C1346 C1347 1.389 . S
C1347 C1346 1.389 . S
C1347 C1348 1.387 . S
C1348 H1333 0.930 . S
C1348 C1343 1.390 . S
C1348 C1347 1.387 . S
H1349 C1361 0.930 . S
H1350 C1363 0.930 . S
H1351 C1364 0.930 . S
H1352 C1368 0.959 . S
H1353 C1368 0.959 . S
H1354 C1368 0.961 . S
H1355 C1369 0.960 . S
H1356 C1369 0.961 . S
H1357 C1369 0.959 . S
H1358 C1372 0.929 . S
H1359 C1373 0.931 . S
H1360 C1375 0.930 . S
C1361 H1349 0.930 . S
C1361 C1362 1.399 . S
C1361 C1366 1.399 . S
C1362 C1361 1.399 . S
C1362 C1363 1.376 . S
C1363 H1350 0.930 . S
C1363 C1362 1.376 . S
C1363 C1364 1.388 . S
C1364 H1351 0.930 . S
C1364 C1363 1.388 . S
C1364 C1365 1.390 . S
C1365 C1364 1.390 . S
C1365 C1366 1.394 . S
C1365 C1371 1.465 . S
C1366 C1361 1.399 . S
C1366 C1365 1.394 . S
C1366 C1367 1.516 . S
C1367 C1366 1.516 . S
C1367 C1368 1.502 . S
C1367 C1369 1.561 . S
C1367 C1370 1.526 . S
C1368 H1352 0.959 . S
C1368 H1353 0.959 . S
C1368 H1354 0.961 . S
C1368 C1367 1.502 . S
C1369 H1355 0.960 . S
C1369 H1356 0.961 . S
C1369 H1357 0.959 . S
C1369 C1367 1.561 . S
C1370 C1367 1.526 . S
C1370 C1371 1.396 . S
C1370 C1375 1.390 . S
C1371 C1365 1.465 . S
C1371 C1370 1.396 . S
C1371 C1372 1.399 . S
C1372 H1358 0.929 . S
C1372 C1371 1.399 . S
C1372 C1373 1.385 . S
C1373 H1359 0.931 . S
C1373 C1372 1.385 . S
C1373 C1374 1.389 . S
C1374 C1373 1.389 . S
C1374 C1375 1.387 . S
C1375 H1360 0.930 . S
C1375 C1370 1.390 . S
C1375 C1374 1.387 . S
H1376 C1388 0.930 . S
H1377 C1390 0.930 . S
H1378 C1391 0.930 . S
H1379 C1395 0.959 . S
H1380 C1395 0.959 . S
H1381 C1395 0.961 . S
H1382 C1396 0.960 . S
H1383 C1396 0.961 . S
H1384 C1396 0.959 . S
H1385 C1399 0.929 . S
H1386 C1400 0.931 . S
H1387 C1402 0.930 . S
C1388 H1376 0.930 . S
C1388 C1389 1.399 . S
C1388 C1393 1.399 . S
C1389 C1388 1.399 . S
C1389 C1390 1.376 . S
C1390 H1377 0.930 . S
C1390 C1389 1.376 . S
C1390 C1391 1.388 . S
C1391 H1378 0.930 . S
C1391 C1390 1.388 . S
C1391 C1392 1.390 . S
C1392 C1391 1.390 . S
C1392 C1393 1.394 . S
C1392 C1398 1.465 . S
C1393 C1388 1.399 . S
C1393 C1392 1.394 . S
C1393 C1394 1.516 . S
C1394 C1393 1.516 . S
C1394 C1395 1.502 . S
C1394 C1396 1.561 . S
C1394 C1397 1.526 . S
C1395 H1379 0.959 . S
C1395 H1380 0.959 . S
C1395 H1381 0.961 . S
C1395 C1394 1.502 . S
C1396 H1382 0.960 . S
C1396 H1383 0.961 . S
C1396 H1384 0.959 . S
C1396 C1394 1.561 . S
C1397 C1394 1.526 . S
C1397 C1398 1.396 . S
C1397 C1402 1.390 . S
C1398 C1392 1.465 . S
C1398 C1397 1.396 . S
C1398 C1399 1.399 . S
C1399 H1385 0.929 . S
C1399 C1398 1.399 . S
C1399 C1400 1.385 . S
C1400 H1386 0.931 . S
C1400 C1399 1.385 . S
C1400 C1401 1.389 . S
C1401 C1400 1.389 . S
C1401 C1402 1.387 . S
C1402 H1387 0.930 . S
C1402 C1397 1.390 . S
C1402 C1401 1.387 . S
H1403 C1415 0.930 . S
H1404 C1417 0.930 . S
H1405 C1418 0.930 . S
H1406 C1422 0.959 . S
H1407 C1422 0.959 . S
H1408 C1422 0.961 . S
H1409 C1423 0.960 . S
H1410 C1423 0.961 . S
H1411 C1423 0.959 . S
H1412 C1426 0.929 . S
H1413 C1427 0.931 . S
H1414 C1429 0.930 . S
C1415 H1403 0.930 . S
C1415 C1416 1.399 . S
C1415 C1420 1.399 . S
C1416 C1415 1.399 . S
C1416 C1417 1.376 . S
C1417 H1404 0.930 . S
C1417 C1416 1.376 . S
C1417 C1418 1.388 . S
C1418 H1405 0.930 . S
C1418 C1417 1.388 . S
C1418 C1419 1.390 . S
C1419 C1418 1.390 . S
C1419 C1420 1.394 . S
C1419 C1425 1.465 . S
C1420 C1415 1.399 . S
C1420 C1419 1.394 . S
C1420 C1421 1.516 . S
C1421 C1420 1.516 . S
C1421 C1422 1.502 . S
C1421 C1423 1.561 . S
C1421 C1424 1.526 . S
C1422 H1406 0.959 . S
C1422 H1407 0.959 . S
C1422 H1408 0.961 . S
C1422 C1421 1.502 . S
C1423 H1409 0.960 . S
C1423 H1410 0.961 . S
C1423 H1411 0.959 . S
C1423 C1421 1.561 . S
C1424 C1421 1.526 . S
C1424 C1425 1.396 . S
C1424 C1429 1.390 . S
C1425 C1419 1.465 . S
C1425 C1424 1.396 . S
C1425 C1426 1.399 . S
C1426 H1412 0.929 . S
C1426 C1425 1.399 . S
C1426 C1427 1.385 . S
C1427 H1413 0.931 . S
C1427 C1426 1.385 . S
C1427 C1428 1.389 . S
C1428 C1427 1.389 . S
C1428 C1429 1.387 . S
C1429 H1414 0.930 . S
C1429 C1424 1.390 . S
C1429 C1428 1.387 . S
H1430 C1442 0.930 . S
H1431 C1444 0.930 . S
H1432 C1445 0.930 . S
H1433 C1449 0.959 . S
H1434 C1449 0.959 . S
H1435 C1449 0.961 . S
H1436 C1450 0.960 . S
H1437 C1450 0.961 . S
H1438 C1450 0.959 . S
H1439 C1453 0.929 . S
H1440 C1454 0.931 . S
H1441 C1456 0.930 . S
C1442 H1430 0.930 . S
C1442 C1443 1.399 . S
C1442 C1447 1.399 . S
C1443 C1442 1.399 . S
C1443 C1444 1.376 . S
C1444 H1431 0.930 . S
C1444 C1443 1.376 . S
C1444 C1445 1.388 . S
C1445 H1432 0.930 . S
C1445 C1444 1.388 . S
C1445 C1446 1.390 . S
C1446 C1445 1.390 . S
C1446 C1447 1.394 . S
C1446 C1452 1.465 . S
C1447 C1442 1.399 . S
C1447 C1446 1.394 . S
C1447 C1448 1.516 . S
C1448 C1447 1.516 . S
C1448 C1449 1.502 . S
C1448 C1450 1.561 . S
C1448 C1451 1.526 . S
C1449 H1433 0.959 . S
C1449 H1434 0.959 . S
C1449 H1435 0.961 . S
C1449 C1448 1.502 . S
C1450 H1436 0.960 . S
C1450 H1437 0.961 . S
C1450 H1438 0.959 . S
C1450 C1448 1.561 . S
C1451 C1448 1.526 . S
C1451 C1452 1.396 . S
C1451 C1456 1.390 . S
C1452 C1446 1.465 . S
C1452 C1451 1.396 . S
C1452 C1453 1.399 . S
C1453 H1439 0.929 . S
C1453 C1452 1.399 . S
C1453 C1454 1.385 . S
C1454 H1440 0.931 . S
C1454 C1453 1.385 . S
C1454 C1455 1.389 . S
C1455 C1454 1.389 . S
C1455 C1456 1.387 . S
C1456 H1441 0.930 . S
C1456 C1451 1.390 . S
C1456 C1455 1.387 . S
H1457 C1469 0.930 . S
H1458 C1471 0.930 . S
H1459 C1472 0.930 . S
H1460 C1476 0.959 . S
H1461 C1476 0.959 . S
H1462 C1476 0.961 . S
H1463 C1477 0.960 . S
H1464 C1477 0.961 . S
H1465 C1477 0.959 . S
H1466 C1480 0.929 . S
H1467 C1481 0.931 . S
H1468 C1483 0.930 . S
C1469 H1457 0.930 . S
C1469 C1470 1.399 . S
C1469 C1474 1.399 . S
C1470 C1469 1.399 . S
C1470 C1471 1.376 . S
C1471 H1458 0.930 . S
C1471 C1470 1.376 . S
C1471 C1472 1.388 . S
C1472 H1459 0.930 . S
C1472 C1471 1.388 . S
C1472 C1473 1.390 . S
C1473 C1472 1.390 . S
C1473 C1474 1.394 . S
C1473 C1479 1.465 . S
C1474 C1469 1.399 . S
C1474 C1473 1.394 . S
C1474 C1475 1.516 . S
C1475 C1474 1.516 . S
C1475 C1476 1.502 . S
C1475 C1477 1.561 . S
C1475 C1478 1.526 . S
C1476 H1460 0.959 . S
C1476 H1461 0.959 . S
C1476 H1462 0.961 . S
C1476 C1475 1.502 . S
C1477 H1463 0.960 . S
C1477 H1464 0.961 . S
C1477 H1465 0.959 . S
C1477 C1475 1.561 . S
C1478 C1475 1.526 . S
C1478 C1479 1.396 . S
C1478 C1483 1.390 . S
C1479 C1473 1.465 . S
C1479 C1478 1.396 . S
C1479 C1480 1.399 . S
C1480 H1466 0.929 . S
C1480 C1479 1.399 . S
C1480 C1481 1.385 . S
C1481 H1467 0.931 . S
C1481 C1480 1.385 . S
C1481 C1482 1.389 . S
C1482 C1481 1.389 . S
C1482 C1483 1.387 . S
C1483 H1468 0.930 . S
C1483 C1478 1.390 . S
C1483 C1482 1.387 . S
H1484 C1496 0.930 . S
H1485 C1498 0.930 . S
H1486 C1499 0.930 . S
H1487 C1503 0.959 . S
H1488 C1503 0.959 . S
H1489 C1503 0.961 . S
H1490 C1504 0.960 . S
H1491 C1504 0.961 . S
H1492 C1504 0.959 . S
H1493 C1507 0.929 . S
H1494 C1508 0.931 . S
H1495 C1510 0.930 . S
C1496 H1484 0.930 . S
C1496 C1497 1.399 . S
C1496 C1501 1.399 . S
C1497 C1496 1.399 . S
C1497 C1498 1.376 . S
C1498 H1485 0.930 . S
C1498 C1497 1.376 . S
C1498 C1499 1.388 . S
C1499 H1486 0.930 . S
C1499 C1498 1.388 . S
C1499 C1500 1.390 . S
C1500 C1499 1.390 . S
C1500 C1501 1.394 . S
C1500 C1506 1.465 . S
C1501 C1496 1.399 . S
C1501 C1500 1.394 . S
C1501 C1502 1.516 . S
C1502 C1501 1.516 . S
C1502 C1503 1.502 . S
C1502 C1504 1.561 . S
C1502 C1505 1.526 . S
C1503 H1487 0.959 . S
C1503 H1488 0.959 . S
C1503 H1489 0.961 . S
C1503 C1502 1.502 . S
C1504 H1490 0.960 . S
C1504 H1491 0.961 . S
C1504 H1492 0.959 . S
C1504 C1502 1.561 . S
C1505 C1502 1.526 . S
C1505 C1506 1.396 . S
C1505 C1510 1.390 . S
C1506 C1500 1.465 . S
C1506 C1505 1.396 . S
C1506 C1507 1.399 . S
C1507 H1493 0.929 . S
C1507 C1506 1.399 . S
C1507 C1508 1.385 . S
C1508 H1494 0.931 . S
C1508 C1507 1.385 . S
C1508 C1509 1.389 . S
C1509 C1508 1.389 . S
C1509 C1510 1.387 . S
C1510 H1495 0.930 . S
C1510 C1505 1.390 . S
C1510 C1509 1.387 . S
H1511 C1523 0.930 1_556 S
H1512 C1525 0.930 . S
H1513 C1526 0.930 . S
H1514 C1530 0.959 1_554 S
H1515 C1530 0.959 . S
H1516 C1530 0.961 . S
H1517 C1531 0.960 . S
H1518 C1531 0.961 . S
H1519 C1531 0.959 . S
H1520 C1534 0.929 . S
H1521 C1535 0.931 . S
H1522 C1537 0.930 1_556 S
C1523 H1511 0.930 1_554 S
C1523 C1524 1.399 . S
C1523 C1528 1.399 . S
C1524 C1523 1.399 . S
C1524 C1525 1.376 . S
C1525 H1512 0.930 . S
C1525 C1524 1.376 . S
C1525 C1526 1.388 . S
C1526 H1513 0.930 . S
C1526 C1525 1.388 . S
C1526 C1527 1.390 . S
C1527 C1526 1.390 . S
C1527 C1528 1.394 . S
C1527 C1533 1.465 . S
C1528 C1523 1.399 . S
C1528 C1527 1.394 . S
C1528 C1529 1.516 1_554 S
C1529 C1528 1.516 1_556 S
C1529 C1530 1.502 . S
C1529 C1531 1.561 . S
C1529 C1532 1.526 1_556 S
C1530 H1514 0.959 1_556 S
C1530 H1515 0.959 . S
C1530 H1516 0.961 . S
C1530 C1529 1.502 . S
C1531 H1517 0.960 . S
C1531 H1518 0.961 . S
C1531 H1519 0.959 . S
C1531 C1529 1.561 . S
C1532 C1529 1.526 1_554 S
C1532 C1533 1.396 . S
C1532 C1537 1.390 . S
C1533 C1527 1.465 . S
C1533 C1532 1.396 . S
C1533 C1534 1.399 . S
C1534 H1520 0.929 . S
C1534 C1533 1.399 . S
C1534 C1535 1.385 . S
C1535 H1521 0.931 . S
C1535 C1534 1.385 . S
C1535 C1536 1.389 . S
C1536 C1535 1.389 . S
C1536 C1537 1.387 . S
C1537 H1522 0.930 1_554 S
C1537 C1532 1.390 . S
C1537 C1536 1.387 . S
H1538 C1550 0.930 . S
H1539 C1552 0.930 . S
H1540 C1553 0.930 . S
H1541 C1557 0.959 . S
H1542 C1557 0.959 . S
H1543 C1557 0.961 . S
H1544 C1558 0.960 . S
H1545 C1558 0.961 . S
H1546 C1558 0.959 . S
H1547 C1561 0.929 . S
H1548 C1562 0.931 . S
H1549 C1564 0.930 . S
C1550 H1538 0.930 . S
C1550 C1551 1.399 . S
C1550 C1555 1.399 . S
C1551 C1550 1.399 . S
C1551 C1552 1.376 . S
C1552 H1539 0.930 . S
C1552 C1551 1.376 . S
C1552 C1553 1.388 . S
C1553 H1540 0.930 . S
C1553 C1552 1.388 . S
C1553 C1554 1.390 . S
C1554 C1553 1.390 . S
C1554 C1555 1.394 . S
C1554 C1560 1.465 . S
C1555 C1550 1.399 . S
C1555 C1554 1.394 . S
C1555 C1556 1.516 . S
C1556 C1555 1.516 . S
C1556 C1557 1.502 . S
C1556 C1558 1.561 . S
C1556 C1559 1.526 . S
C1557 H1541 0.959 . S
C1557 H1542 0.959 . S
C1557 H1543 0.961 . S
C1557 C1556 1.502 . S
C1558 H1544 0.960 . S
C1558 H1545 0.961 . S
C1558 H1546 0.959 . S
C1558 C1556 1.561 . S
C1559 C1556 1.526 . S
C1559 C1560 1.396 . S
C1559 C1564 1.390 . S
C1560 C1554 1.465 . S
C1560 C1559 1.396 . S
C1560 C1561 1.399 . S
C1561 H1547 0.929 . S
C1561 C1560 1.399 . S
C1561 C1562 1.385 . S
C1562 H1548 0.931 . S
C1562 C1561 1.385 . S
C1562 C1563 1.389 . S
C1563 C1562 1.389 . S
C1563 C1564 1.387 . S
C1564 H1549 0.930 . S
C1564 C1559 1.390 . S
C1564 C1563 1.387 . S
H1565 C1577 0.930 . S
H1566 C1579 0.930 . S
H1567 C1580 0.930 . S
H1568 C1584 0.959 . S
H1569 C1584 0.959 . S
H1570 C1584 0.961 . S
H1571 C1585 0.960 . S
H1572 C1585 0.961 . S
H1573 C1585 0.959 . S
H1574 C1588 0.929 . S
H1575 C1589 0.931 . S
H1576 C1591 0.930 . S
C1577 H1565 0.930 . S
C1577 C1578 1.399 . S
C1577 C1582 1.399 . S
C1578 C1577 1.399 . S
C1578 C1579 1.376 . S
C1579 H1566 0.930 . S
C1579 C1578 1.376 . S
C1579 C1580 1.388 . S
C1580 H1567 0.930 . S
C1580 C1579 1.388 . S
C1580 C1581 1.390 . S
C1581 C1580 1.390 . S
C1581 C1582 1.394 . S
C1581 C1587 1.465 . S
C1582 C1577 1.399 . S
C1582 C1581 1.394 . S
C1582 C1583 1.516 . S
C1583 C1582 1.516 . S
C1583 C1584 1.502 . S
C1583 C1585 1.561 . S
C1583 C1586 1.526 . S
C1584 H1568 0.959 . S
C1584 H1569 0.959 . S
C1584 H1570 0.961 . S
C1584 C1583 1.502 . S
C1585 H1571 0.960 . S
C1585 H1572 0.961 . S
C1585 H1573 0.959 . S
C1585 C1583 1.561 . S
C1586 C1583 1.526 . S
C1586 C1587 1.396 . S
C1586 C1591 1.390 . S
C1587 C1581 1.465 . S
C1587 C1586 1.396 . S
C1587 C1588 1.399 . S
C1588 H1574 0.929 . S
C1588 C1587 1.399 . S
C1588 C1589 1.385 . S
C1589 H1575 0.931 . S
C1589 C1588 1.385 . S
C1589 C1590 1.389 . S
C1590 C1589 1.389 . S
C1590 C1591 1.387 . S
C1591 H1576 0.930 . S
C1591 C1586 1.390 . S
C1591 C1590 1.387 . S
H1592 C1604 0.930 . S
H1593 C1606 0.930 . S
H1594 C1607 0.930 . S
H1595 C1611 0.959 . S
H1596 C1611 0.959 . S
H1597 C1611 0.961 . S
H1598 C1612 0.960 . S
H1599 C1612 0.961 . S
H1600 C1612 0.959 . S
H1601 C1615 0.929 . S
H1602 C1616 0.931 . S
H1603 C1618 0.930 . S
C1604 H1592 0.930 . S
C1604 C1605 1.399 . S
C1604 C1609 1.399 . S
C1605 C1604 1.399 . S
C1605 C1606 1.376 . S
C1606 H1593 0.930 . S
C1606 C1605 1.376 . S
C1606 C1607 1.388 . S
C1607 H1594 0.930 . S
C1607 C1606 1.388 . S
C1607 C1608 1.390 . S
C1608 C1607 1.390 . S
C1608 C1609 1.394 . S
C1608 C1614 1.465 . S
C1609 C1604 1.399 . S
C1609 C1608 1.394 . S
C1609 C1610 1.516 . S
C1610 C1609 1.516 . S
C1610 C1611 1.502 . S
C1610 C1612 1.561 . S
C1610 C1613 1.526 . S
C1611 H1595 0.959 . S
C1611 H1596 0.959 . S
C1611 H1597 0.961 . S
C1611 C1610 1.502 . S
C1612 H1598 0.960 . S
C1612 H1599 0.961 . S
C1612 H1600 0.959 . S
C1612 C1610 1.561 . S
C1613 C1610 1.526 . S
C1613 C1614 1.396 . S
C1613 C1618 1.390 . S
C1614 C1608 1.465 . S
C1614 C1613 1.396 . S
C1614 C1615 1.399 . S
C1615 H1601 0.929 . S
C1615 C1614 1.399 . S
C1615 C1616 1.385 . S
C1616 H1602 0.931 . S
C1616 C1615 1.385 . S
C1616 C1617 1.389 . S
C1617 C1616 1.389 . S
C1617 C1618 1.387 . S
C1618 H1603 0.930 . S
C1618 C1613 1.390 . S
C1618 C1617 1.387 . S
H1619 C1631 0.930 . S
H1620 C1633 0.930 . S
H1621 C1634 0.930 . S
H1622 C1638 0.959 . S
H1623 C1638 0.959 . S
H1624 C1638 0.961 . S
H1625 C1639 0.960 . S
H1626 C1639 0.961 . S
H1627 C1639 0.959 . S
H1628 C1642 0.929 . S
H1629 C1643 0.931 . S
H1630 C1645 0.930 . S
C1631 H1619 0.930 . S
C1631 C1632 1.399 . S
C1631 C1636 1.399 . S
C1632 C1631 1.399 . S
C1632 C1633 1.376 . S
C1633 H1620 0.930 . S
C1633 C1632 1.376 . S
C1633 C1634 1.388 . S
C1634 H1621 0.930 . S
C1634 C1633 1.388 . S
C1634 C1635 1.390 . S
C1635 C1634 1.390 . S
C1635 C1636 1.394 . S
C1635 C1641 1.465 . S
C1636 C1631 1.399 . S
C1636 C1635 1.394 . S
C1636 C1637 1.516 . S
C1637 C1636 1.516 . S
C1637 C1638 1.502 . S
C1637 C1639 1.561 . S
C1637 C1640 1.526 . S
C1638 H1622 0.959 . S
C1638 H1623 0.959 . S
C1638 H1624 0.961 . S
C1638 C1637 1.502 . S
C1639 H1625 0.960 . S
C1639 H1626 0.961 . S
C1639 H1627 0.959 . S
C1639 C1637 1.561 . S
C1640 C1637 1.526 . S
C1640 C1641 1.396 . S
C1640 C1645 1.390 . S
C1641 C1635 1.465 . S
C1641 C1640 1.396 . S
C1641 C1642 1.399 . S
C1642 H1628 0.929 . S
C1642 C1641 1.399 . S
C1642 C1643 1.385 . S
C1643 H1629 0.931 . S
C1643 C1642 1.385 . S
C1643 C1644 1.389 . S
C1644 C1643 1.389 . S
C1644 C1645 1.387 . S
C1645 H1630 0.930 . S
C1645 C1640 1.390 . S
C1645 C1644 1.387 . S
H1646 C1658 0.930 . S
H1647 C1660 0.930 . S
H1648 C1661 0.930 . S
H1649 C1665 0.959 . S
H1650 C1665 0.959 . S
H1651 C1665 0.961 . S
H1652 C1666 0.960 . S
H1653 C1666 0.961 . S
H1654 C1666 0.959 . S
H1655 C1669 0.929 . S
H1656 C1670 0.931 . S
H1657 C1672 0.930 . S
C1658 H1646 0.930 . S
C1658 C1659 1.399 . S
C1658 C1663 1.399 . S
C1659 C1658 1.399 . S
C1659 C1660 1.376 1_556 S
C1660 H1647 0.930 . S
C1660 C1659 1.376 1_554 S
C1660 C1661 1.388 . S
C1661 H1648 0.930 . S
C1661 C1660 1.388 . S
C1661 C1662 1.390 . S
C1662 C1661 1.390 . S
C1662 C1663 1.394 1_554 S
C1662 C1668 1.465 . S
C1663 C1658 1.399 . S
C1663 C1662 1.394 1_556 S
C1663 C1664 1.516 . S
C1664 C1663 1.516 . S
C1664 C1665 1.502 . S
C1664 C1666 1.561 . S
C1664 C1667 1.526 . S
C1665 H1649 0.959 . S
C1665 H1650 0.959 . S
C1665 H1651 0.961 . S
C1665 C1664 1.502 . S
C1666 H1652 0.960 . S
C1666 H1653 0.961 . S
C1666 H1654 0.959 . S
C1666 C1664 1.561 . S
C1667 C1664 1.526 . S
C1667 C1668 1.396 1_556 S
C1667 C1672 1.390 . S
C1668 C1662 1.465 . S
C1668 C1667 1.396 1_554 S
C1668 C1669 1.399 . S
C1669 H1655 0.929 . S
C1669 C1668 1.399 . S
C1669 C1670 1.385 . S
C1670 H1656 0.931 . S
C1670 C1669 1.385 . S
C1670 C1671 1.389 1_554 S
C1671 C1670 1.389 1_556 S
C1671 C1672 1.387 . S
C1672 H1657 0.930 . S
C1672 C1667 1.390 . S
C1672 C1671 1.387 . S
H1673 C1685 0.930 . S
H1674 C1687 0.930 . S
H1675 C1688 0.930 . S
H1676 C1692 0.959 . S
H1677 C1692 0.959 . S
H1678 C1692 0.961 . S
H1679 C1693 0.960 . S
H1680 C1693 0.961 . S
H1681 C1693 0.959 . S
H1682 C1696 0.929 . S
H1683 C1697 0.931 . S
H1684 C1699 0.930 . S
C1685 H1673 0.930 . S
C1685 C1686 1.399 . S
C1685 C1690 1.399 . S
C1686 C1685 1.399 . S
C1686 C1687 1.376 . S
C1687 H1674 0.930 . S
C1687 C1686 1.376 . S
C1687 C1688 1.388 . S
C1688 H1675 0.930 . S
C1688 C1687 1.388 . S
C1688 C1689 1.390 . S
C1689 C1688 1.390 . S
C1689 C1690 1.394 . S
C1689 C1695 1.465 . S
C1690 C1685 1.399 . S
C1690 C1689 1.394 . S
C1690 C1691 1.516 . S
C1691 C1690 1.516 . S
C1691 C1692 1.502 . S
C1691 C1693 1.561 . S
C1691 C1694 1.526 . S
C1692 H1676 0.959 . S
C1692 H1677 0.959 . S
C1692 H1678 0.961 . S
C1692 C1691 1.502 . S
C1693 H1679 0.960 . S
C1693 H1680 0.961 . S
C1693 H1681 0.959 . S
C1693 C1691 1.561 . S
C1694 C1691 1.526 . S
C1694 C1695 1.396 . S
C1694 C1699 1.390 . S
C1695 C1689 1.465 . S
C1695 C1694 1.396 . S
C1695 C1696 1.399 . S
C1696 H1682 0.929 . S
C1696 C1695 1.399 . S
C1696 C1697 1.385 . S
C1697 H1683 0.931 . S
C1697 C1696 1.385 . S
C1697 C1698 1.389 . S
C1698 C1697 1.389 . S
C1698 C1699 1.387 . S
C1699 H1684 0.930 . S
C1699 C1694 1.390 . S
C1699 C1698 1.387 . S
H1700 C1712 0.930 . S
H1701 C1714 0.930 . S
H1702 C1715 0.930 . S
H1703 C1719 0.959 . S
H1704 C1719 0.959 . S
H1705 C1719 0.961 . S
H1706 C1720 0.960 . S
H1707 C1720 0.961 . S
H1708 C1720 0.959 . S
H1709 C1723 0.929 . S
H1710 C1724 0.931 . S
H1711 C1726 0.930 . S
C1712 H1700 0.930 . S
C1712 C1713 1.399 . S
C1712 C1717 1.399 . S
C1713 C1712 1.399 . S
C1713 C1714 1.376 . S
C1714 H1701 0.930 . S
C1714 C1713 1.376 . S
C1714 C1715 1.388 . S
C1715 H1702 0.930 . S
C1715 C1714 1.388 . S
C1715 C1716 1.390 . S
C1716 C1715 1.390 . S
C1716 C1717 1.394 . S
C1716 C1722 1.465 . S
C1717 C1712 1.399 . S
C1717 C1716 1.394 . S
C1717 C1718 1.516 . S
C1718 C1717 1.516 . S
C1718 C1719 1.502 . S
C1718 C1720 1.561 . S
C1718 C1721 1.526 . S
C1719 H1703 0.959 . S
C1719 H1704 0.959 . S
C1719 H1705 0.961 . S
C1719 C1718 1.502 . S
C1720 H1706 0.960 . S
C1720 H1707 0.961 . S
C1720 H1708 0.959 . S
C1720 C1718 1.561 . S
C1721 C1718 1.526 . S
C1721 C1722 1.396 . S
C1721 C1726 1.390 . S
C1722 C1716 1.465 . S
C1722 C1721 1.396 . S
C1722 C1723 1.399 . S
C1723 H1709 0.929 . S
C1723 C1722 1.399 . S
C1723 C1724 1.385 . S
C1724 H1710 0.931 . S
C1724 C1723 1.385 . S
C1724 C1725 1.389 . S
C1725 C1724 1.389 . S
C1725 C1726 1.387 . S
C1726 H1711 0.930 . S
C1726 C1721 1.390 . S
C1726 C1725 1.387 . S
H1727 C1739 0.930 . S
H1728 C1741 0.930 . S
H1729 C1742 0.930 . S
H1730 C1746 0.959 . S
H1731 C1746 0.959 . S
H1732 C1746 0.961 . S
H1733 C1747 0.960 . S
H1734 C1747 0.961 . S
H1735 C1747 0.959 . S
H1736 C1750 0.929 . S
H1737 C1751 0.931 . S
H1738 C1753 0.930 . S
C1739 H1727 0.930 . S
C1739 C1740 1.399 . S
C1739 C1744 1.399 . S
C1740 C1739 1.399 . S
C1740 C1741 1.376 . S
C1741 H1728 0.930 . S
C1741 C1740 1.376 . S
C1741 C1742 1.388 . S
C1742 H1729 0.930 . S
C1742 C1741 1.388 . S
C1742 C1743 1.390 . S
C1743 C1742 1.390 . S
C1743 C1744 1.394 . S
C1743 C1749 1.465 . S
C1744 C1739 1.399 . S
C1744 C1743 1.394 . S
C1744 C1745 1.516 . S
C1745 C1744 1.516 . S
C1745 C1746 1.502 . S
C1745 C1747 1.561 . S
C1745 C1748 1.526 . S
C1746 H1730 0.959 . S
C1746 H1731 0.959 . S
C1746 H1732 0.961 . S
C1746 C1745 1.502 . S
C1747 H1733 0.960 . S
C1747 H1734 0.961 . S
C1747 H1735 0.959 . S
C1747 C1745 1.561 . S
C1748 C1745 1.526 . S
C1748 C1749 1.396 . S
C1748 C1753 1.390 . S
C1749 C1743 1.465 . S
C1749 C1748 1.396 . S
C1749 C1750 1.399 . S
C1750 H1736 0.929 . S
C1750 C1749 1.399 . S
C1750 C1751 1.385 . S
C1751 H1737 0.931 . S
C1751 C1750 1.385 . S
C1751 C1752 1.389 . S
C1752 C1751 1.389 . S
C1752 C1753 1.387 . S
C1753 H1738 0.930 . S
C1753 C1748 1.390 . S
C1753 C1752 1.387 . S
H1754 C1766 0.930 . S
H1755 C1768 0.930 . S
H1756 C1769 0.930 . S
H1757 C1773 0.959 . S
H1758 C1773 0.959 . S
H1759 C1773 0.961 . S
H1760 C1774 0.960 . S
H1761 C1774 0.961 . S
H1762 C1774 0.959 . S
H1763 C1777 0.929 . S
H1764 C1778 0.931 . S
H1765 C1780 0.930 . S
C1766 H1754 0.930 . S
C1766 C1767 1.399 . S
C1766 C1771 1.399 . S
C1767 C1766 1.399 . S
C1767 C1768 1.376 . S
C1768 H1755 0.930 . S
C1768 C1767 1.376 . S
C1768 C1769 1.388 . S
C1769 H1756 0.930 . S
C1769 C1768 1.388 . S
C1769 C1770 1.390 . S
C1770 C1769 1.390 . S
C1770 C1771 1.394 . S
C1770 C1776 1.465 . S
C1771 C1766 1.399 . S
C1771 C1770 1.394 . S
C1771 C1772 1.516 . S
C1772 C1771 1.516 . S
C1772 C1773 1.502 . S
C1772 C1774 1.561 . S
C1772 C1775 1.526 . S
C1773 H1757 0.959 . S
C1773 H1758 0.959 . S
C1773 H1759 0.961 . S
C1773 C1772 1.502 . S
C1774 H1760 0.960 . S
C1774 H1761 0.961 . S
C1774 H1762 0.959 . S
C1774 C1772 1.561 . S
C1775 C1772 1.526 . S
C1775 C1776 1.396 . S
C1775 C1780 1.390 . S
C1776 C1770 1.465 . S
C1776 C1775 1.396 . S
C1776 C1777 1.399 . S
C1777 H1763 0.929 . S
C1777 C1776 1.399 . S
C1777 C1778 1.385 . S
C1778 H1764 0.931 . S
C1778 C1777 1.385 . S
C1778 C1779 1.389 . S
C1779 C1778 1.389 . S
C1779 C1780 1.387 . S
C1780 H1765 0.930 . S
C1780 C1775 1.390 . S
C1780 C1779 1.387 . S
H1781 C1793 0.930 . S
H1782 C1795 0.930 . S
H1783 C1796 0.930 . S
H1784 C1800 0.959 . S
H1785 C1800 0.959 . S
H1786 C1800 0.961 . S
H1787 C1801 0.960 . S
H1788 C1801 0.961 . S
H1789 C1801 0.959 . S
H1790 C1804 0.929 . S
H1791 C1805 0.931 . S
H1792 C1807 0.930 . S
C1793 H1781 0.930 . S
C1793 C1794 1.399 . S
C1793 C1798 1.399 . S
C1794 C1793 1.399 . S
C1794 C1795 1.376 . S
C1795 H1782 0.930 . S
C1795 C1794 1.376 . S
C1795 C1796 1.388 . S
C1796 H1783 0.930 . S
C1796 C1795 1.388 . S
C1796 C1797 1.390 . S
C1797 C1796 1.390 . S
C1797 C1798 1.394 . S
C1797 C1803 1.465 . S
C1798 C1793 1.399 . S
C1798 C1797 1.394 . S
C1798 C1799 1.516 . S
C1799 C1798 1.516 . S
C1799 C1800 1.502 . S
C1799 C1801 1.561 . S
C1799 C1802 1.526 . S
C1800 H1784 0.959 . S
C1800 H1785 0.959 . S
C1800 H1786 0.961 . S
C1800 C1799 1.502 . S
C1801 H1787 0.960 . S
C1801 H1788 0.961 . S
C1801 H1789 0.959 . S
C1801 C1799 1.561 . S
C1802 C1799 1.526 . S
C1802 C1803 1.396 . S
C1802 C1807 1.390 . S
C1803 C1797 1.465 . S
C1803 C1802 1.396 . S
C1803 C1804 1.399 . S
C1804 H1790 0.929 . S
C1804 C1803 1.399 . S
C1804 C1805 1.385 . S
C1805 H1791 0.931 . S
C1805 C1804 1.385 . S
C1805 C1806 1.389 . S
C1806 C1805 1.389 . S
C1806 C1807 1.387 . S
C1807 H1792 0.930 . S
C1807 C1802 1.390 . S
C1807 C1806 1.387 . S
C525 N18 0.761 . S
C537 C36 0.755 . S
C552 N77 0.780 . S
C564 C61 0.747 1_655 S
C579 C100 1.428 . S
C591 C66 1.434 . S
C606 C6 1.429 . S
C618 C125 1.435 . S
C633 C4 1.620 . S
C645 C290 1.571 . S
C660 C228 1.591 . S
C672 C38 1.591 . S
C687 N82 1.037 . S
C699 C322 1.027 . S
C714 C102 1.489 . S
C726 C445 1.496 . S
C741 C285 1.592 . S
C753 C34 1.594 . S
C768 C390 1.583 . S
C780 C93 1.605 . S
C795 C452 1.502 . S
C807 C98 1.466 . S
C822 N13 1.068 . S
C834 C358 1.015 . S
C849 C2 1.212 . S
C861 C262 1.201 . S
C876 N402 0.532 . S
C888 N146 0.404 . S
C903 C166 1.123 . S
C915 C477 1.121 . S
C930 N370 0.330 . S
C942 N210 0.235 . S
C957 C70 1.170 . S
C969 C226 1.185 . S
C984 N301 0.467 . S
C996 N141 0.462 . S
C1011 N205 0.184 . S
C1023 N333 0.130 . S
C1038 N178 0.637 . S
C1050 C354 0.634 . S
C1065 C294 0.980 . S
C1077 C189 1.009 . S
C1092 C356 1.425 . S
C1104 C230 1.431 1_655 S
C1119 N173 0.425 . S
C1131 C157 0.316 . S
C1146 C292 0.445 . S
C1158 N269 0.389 . S
C1173 N429 0.614 . S
C1185 C381 0.513 . S
C1200 C196 1.036 . S
C1212 C162 1.077 . S
C1227 C317 1.275 . S
C1239 C454 1.313 . S
C1254 C422 1.084 . S
C1266 C29 1.110 . S
C1281 C68 1.085 . S
C1293 C450 1.107 . S
C1308 N397 0.758 . S
C1320 N45 0.684 . S
C1335 C253 1.014 . S
C1347 C164 1.055 . S
C1362 N114 0.368 . S
C1374 N338 0.378 . S
C1389 C388 1.313 . S
C1401 C418 1.284 . S
C1416 N242 0.452 . S
C1428 C413 0.375 . S
C1443 C194 0.759 . S
C1455 N237 0.682 . S
C1470 C130 0.675 . S
C1482 N434 0.535 . S
C1497 C386 0.956 . S
C1509 C484 1.015 . S
C1524 C509 1.012 . S
C1536 C260 1.059 . S
C1551 N50 0.674 . S
C1563 N306 0.780 . S
C1578 N274 0.654 . S
C1590 C198 0.768 . S
C1605 C258 1.434 . S
C1617 C349 1.389 . S
C1632 C486 1.084 . S
C1644 C221 1.103 . S
C1659 C420 1.134 . S
C1671 C482 1.126 . S
C1686 N365 0.396 . S
C1698 N109 0.324 . S
C1713 C324 0.520 . S
C1725 N466 0.592 . S
C1740 C326 0.590 . S
C1752 N493 0.676 . S
C1767 C134 0.592 . S
C1779 N461 0.579 . S
C1794 N498 0.402 . S
C1806 C132 0.323 . S
