# Generated by pormake.
# Topology ecs, (8)-cn, num edge types: 1
# Building blocks:
#     Node 0, Type 0, BuildingBlock: TAGTUT_clean_sbu_1, # of connection points: 8
#     Node 1, Type 0, BuildingBlock: TAGTUT_clean_sbu_1, # of connection points: 8
#     Node 2, Type 0, BuildingBlock: TAGTUT_clean_sbu_1, # of connection points: 8
#     Node 3, Type 0, BuildingBlock: TAGTUT_clean_sbu_1, # of connection points: 8
#     Node 4, Type 0, BuildingBlock: TAGTUT_clean_sbu_1, # of connection points: 8
#     Node 5, Type 0, BuildingBlock: TAGTUT_clean_sbu_1, # of connection points: 8
#     Node 6, Type 0, BuildingBlock: TAGTUT_clean_sbu_1, # of connection points: 8
#     Node 7, Type 0, BuildingBlock: TAGTUT_clean_sbu_1, # of connection points: 8
#     Node 8, Type 0, BuildingBlock: TAGTUT_clean_sbu_1, # of connection points: 8
#     Node 9, Type 0, BuildingBlock: TAGTUT_clean_sbu_1, # of connection points: 8
#     Node 10, Type 0, BuildingBlock: TAGTUT_clean_sbu_1, # of connection points: 8
#     Node 11, Type 0, BuildingBlock: TAGTUT_clean_sbu_1, # of connection points: 8
#     Edge 12, Type (0, 0), BuildingBlock: OJICUG_clean_linker_0, # of connection points: 2
#     Edge 13, Type (0, 0), BuildingBlock: OJICUG_clean_linker_0, # of connection points: 2
#     Edge 14, Type (0, 0), BuildingBlock: OJICUG_clean_linker_0, # of connection points: 2
#     Edge 15, Type (0, 0), BuildingBlock: OJICUG_clean_linker_0, # of connection points: 2
#     Edge 16, Type (0, 0), BuildingBlock: OJICUG_clean_linker_0, # of connection points: 2
#     Edge 17, Type (0, 0), BuildingBlock: OJICUG_clean_linker_0, # of connection points: 2
#     Edge 18, Type (0, 0), BuildingBlock: OJICUG_clean_linker_0, # of connection points: 2
#     Edge 19, Type (0, 0), BuildingBlock: OJICUG_clean_linker_0, # of connection points: 2
#     Edge 20, Type (0, 0), BuildingBlock: OJICUG_clean_linker_0, # of connection points: 2
#     Edge 21, Type (0, 0), BuildingBlock: OJICUG_clean_linker_0, # of connection points: 2
#     Edge 22, Type (0, 0), BuildingBlock: OJICUG_clean_linker_0, # of connection points: 2
#     Edge 23, Type (0, 0), BuildingBlock: OJICUG_clean_linker_0, # of connection points: 2
#     Edge 24, Type (0, 0), BuildingBlock: OJICUG_clean_linker_0, # of connection points: 2
#     Edge 25, Type (0, 0), BuildingBlock: OJICUG_clean_linker_0, # of connection points: 2
#     Edge 26, Type (0, 0), BuildingBlock: OJICUG_clean_linker_0, # of connection points: 2
#     Edge 27, Type (0, 0), BuildingBlock: OJICUG_clean_linker_0, # of connection points: 2
#     Edge 28, Type (0, 0), BuildingBlock: OJICUG_clean_linker_0, # of connection points: 2
#     Edge 29, Type (0, 0), BuildingBlock: OJICUG_clean_linker_0, # of connection points: 2
#     Edge 30, Type (0, 0), BuildingBlock: OJICUG_clean_linker_0, # of connection points: 2
#     Edge 31, Type (0, 0), BuildingBlock: OJICUG_clean_linker_0, # of connection points: 2
#     Edge 32, Type (0, 0), BuildingBlock: OJICUG_clean_linker_0, # of connection points: 2
#     Edge 33, Type (0, 0), BuildingBlock: OJICUG_clean_linker_0, # of connection points: 2
#     Edge 34, Type (0, 0), BuildingBlock: OJICUG_clean_linker_0, # of connection points: 2
#     Edge 35, Type (0, 0), BuildingBlock: OJICUG_clean_linker_0, # of connection points: 2
#     Edge 36, Type (0, 0), BuildingBlock: OJICUG_clean_linker_0, # of connection points: 2
#     Edge 37, Type (0, 0), BuildingBlock: OJICUG_clean_linker_0, # of connection points: 2
#     Edge 38, Type (0, 0), BuildingBlock: OJICUG_clean_linker_0, # of connection points: 2
#     Edge 39, Type (0, 0), BuildingBlock: OJICUG_clean_linker_0, # of connection points: 2
#     Edge 40, Type (0, 0), BuildingBlock: OJICUG_clean_linker_0, # of connection points: 2
#     Edge 41, Type (0, 0), BuildingBlock: OJICUG_clean_linker_0, # of connection points: 2
#     Edge 42, Type (0, 0), BuildingBlock: OJICUG_clean_linker_0, # of connection points: 2
#     Edge 43, Type (0, 0), BuildingBlock: OJICUG_clean_linker_0, # of connection points: 2
#     Edge 44, Type (0, 0), BuildingBlock: OJICUG_clean_linker_0, # of connection points: 2
#     Edge 45, Type (0, 0), BuildingBlock: OJICUG_clean_linker_0, # of connection points: 2
#     Edge 46, Type (0, 0), BuildingBlock: OJICUG_clean_linker_0, # of connection points: 2
#     Edge 47, Type (0, 0), BuildingBlock: OJICUG_clean_linker_0, # of connection points: 2
#     Edge 48, Type (0, 0), BuildingBlock: OJICUG_clean_linker_0, # of connection points: 2
#     Edge 49, Type (0, 0), BuildingBlock: OJICUG_clean_linker_0, # of connection points: 2
#     Edge 50, Type (0, 0), BuildingBlock: OJICUG_clean_linker_0, # of connection points: 2
#     Edge 51, Type (0, 0), BuildingBlock: OJICUG_clean_linker_0, # of connection points: 2
#     Edge 52, Type (0, 0), BuildingBlock: OJICUG_clean_linker_0, # of connection points: 2
#     Edge 53, Type (0, 0), BuildingBlock: OJICUG_clean_linker_0, # of connection points: 2
#     Edge 54, Type (0, 0), BuildingBlock: OJICUG_clean_linker_0, # of connection points: 2
#     Edge 55, Type (0, 0), BuildingBlock: OJICUG_clean_linker_0, # of connection points: 2
#     Edge 56, Type (0, 0), BuildingBlock: OJICUG_clean_linker_0, # of connection points: 2
#     Edge 57, Type (0, 0), BuildingBlock: OJICUG_clean_linker_0, # of connection points: 2
#     Edge 58, Type (0, 0), BuildingBlock: OJICUG_clean_linker_0, # of connection points: 2
#     Edge 59, Type (0, 0), BuildingBlock: OJICUG_clean_linker_0, # of connection points: 2
# Relax obj value: 0.349
# Max RMSD: 0.278
# Mean RMSD: 0.278
data_MOF--net-ecs--node1-TAGTUT_clean_sbu_1--edge1-OJICUG_clean_linker_0
_symmetry_space_group_name_H-M    P1
_symmetry_Int_Tables_number       1
_symmetry_cell_setting            triclinic
loop_
_symmetry_equiv_pos_as_xyz
'x, y, z'
_cell_length_a     40.553919
_cell_length_b     40.545902
_cell_length_c     21.257102
_cell_angle_alpha  89.782295
_cell_angle_beta   90.166291
_cell_angle_gamma 119.89511
loop_
_atom_site_label
_atom_site_type_symbol
_atom_site_fract_x
_atom_site_fract_y
_atom_site_fract_z
_atom_type_partial_charge
C0 C 0.48375 0.44454 0.06676 0.0
C1 C 0.55205 0.40499 0.02764 0.0
C2 C 0.4346 0.26184 0.08323 0.0
Mg3 Mg 0.52517 0.41986 0.15713 0.0
O4 O 0.48 0.37384 0.15378 0.0
Mg5 Mg 0.46 0.3522 0.06743 0.0
Mg6 Mg 0.47948 0.32881 0.19173 0.0
O7 O 0.47943 0.28419 0.2274 0.0
Mg8 Mg 0.45241 0.2328 0.20807 0.0
Mg9 Mg 0.50786 0.30064 0.30688 0.0
C10 C 0.52781 0.38981 0.3001 0.0
C11 C 0.5707 0.35673 0.20937 0.0
O12 O 0.46662 0.41051 0.04492 0.0
O13 O 0.50343 0.45364 0.11769 0.0
O14 O 0.51856 0.37674 0.01894 0.0
O15 O 0.56102 0.42403 0.07871 0.0
O16 O 0.53942 0.41538 0.2563 0.0
O17 O 0.49998 0.35543 0.29164 0.0
C18 C 0.39389 0.31791 0.17492 0.0
O19 O 0.41544 0.31106 0.2114 0.0
O20 O 0.4044 0.33119 0.11921 0.0
O21 O 0.52637 0.25491 0.29298 0.0
O22 O 0.4987 0.22338 0.2039 0.0
O23 O 0.45171 0.25626 0.35622 0.0
C24 C 0.52458 0.23432 0.24569 0.0
O25 O 0.42149 0.20651 0.29059 0.0
O26 O 0.42791 0.23444 0.1207 0.0
C27 C 0.42612 0.22163 0.34466 0.0
O28 O 0.45791 0.29687 0.09771 0.0
O29 O 0.54569 0.35556 0.17063 0.0
O30 O 0.56072 0.33808 0.26015 0.0
C31 C 0.56536 0.04268 0.06614 0.0
C32 C 0.60768 0.15119 0.0264 0.0
C33 C 0.74884 0.17523 0.08336 0.0
Mg34 Mg 0.5917 0.10891 0.15592 0.0
O35 O 0.63638 0.10675 0.15375 0.0
Mg36 Mg 0.6583 0.10911 0.06725 0.0
Mg37 Mg 0.68116 0.15118 0.19141 0.0
O38 O 0.72505 0.19594 0.2272 0.0
Mg39 Mg 0.77561 0.22532 0.20454 0.0
Mg40 Mg 0.70729 0.20936 0.30411 0.0
C41 C 0.61968 0.13872 0.29992 0.0
C42 C 0.65082 0.2127 0.20312 0.0
O43 O 0.59953 0.05807 0.04486 0.0
O44 O 0.55662 0.05434 0.11601 0.0
O45 O 0.6344 0.14362 0.01736 0.0
O46 O 0.58955 0.14294 0.07826 0.0
O47 O 0.59444 0.12526 0.25577 0.0
O48 O 0.65423 0.14581 0.29134 0.0
C49 C 0.69286 0.07725 0.17537 0.0
O50 O 0.6996 0.10545 0.21194 0.0
O51 O 0.67922 0.07447 0.11988 0.0
O52 O 0.75192 0.27375 0.2897 0.0
O53 O 0.77787 0.27797 0.19508 0.0
O54 O 0.75295 0.1999 0.35425 0.0
C55 C 0.76781 0.29233 0.23897 0.0
O56 O 0.80345 0.22475 0.28891 0.0
O57 O 0.77576 0.19802 0.11967 0.0
C58 C 0.78837 0.21215 0.34266 0.0
O59 O 0.71352 0.16186 0.09784 0.0
O60 O 0.65368 0.18886 0.16735 0.0
O61 O 0.66838 0.22303 0.2549 0.0
C62 C 0.96402 0.52001 0.07025 0.0
C63 C 0.85602 0.45538 0.0302 0.0
C64 C 0.83591 0.57773 0.08253 0.0
Mg65 Mg 0.8977 0.48171 0.15984 0.0
O66 O 0.89901 0.52804 0.15482 0.0
Mg67 Mg 0.89837 0.54808 0.06809 0.0
Mg68 Mg 0.85652 0.53212 0.1926 0.0
O69 O 0.81445 0.5361 0.22901 0.0
Mg70 Mg 0.78767 0.56007 0.20539 0.0
Mg71 Mg 0.80004 0.50633 0.30748 0.0
C72 C 0.86626 0.48176 0.30231 0.0
C73 C 0.78953 0.44236 0.21001 0.0
O74 O 0.94819 0.53811 0.04742 0.0
O75 O 0.95282 0.50066 0.12145 0.0
O76 O 0.86227 0.48927 0.02087 0.0
O77 O 0.86539 0.44598 0.0818 0.0
O78 O 0.87902 0.46881 0.25893 0.0
O79 O 0.86136 0.51071 0.29318 0.0
C80 C 0.9335 0.61565 0.17313 0.0
O81 O 0.90535 0.59539 0.21061 0.0
O82 O 0.93514 0.6039 0.11797 0.0
O83 O 0.73662 0.49115 0.29397 0.0
O84 O 0.73373 0.51148 0.19721 0.0
O85 O 0.8142 0.56339 0.35495 0.0
C86 C 0.71852 0.48803 0.24239 0.0
O87 O 0.78954 0.58932 0.28931 0.0
O88 O 0.8153 0.58493 0.11913 0.0
C89 C 0.8021 0.58674 0.34315 0.0
O90 O 0.84698 0.55391 0.09789 0.0
O91 O 0.81403 0.46677 0.17162 0.0
O92 O 0.78194 0.45292 0.26101 0.0
C93 C 0.44856 0.48741 0.37872 0.0
C94 C 0.40532 0.55269 0.41816 0.0
C95 C 0.26369 0.43013 0.36917 0.0
Mg96 Mg 0.42006 0.52577 0.28892 0.0
O97 O 0.37533 0.47916 0.29429 0.0
Mg98 Mg 0.35523 0.45959 0.38145 0.0
Mg99 Mg 0.32861 0.47569 0.2579 0.0
O100 O 0.2825 0.47286 0.2234 0.0
Mg101 Mg 0.23144 0.44483 0.24481 0.0
Mg102 Mg 0.29742 0.50138 0.14372 0.0
C103 C 0.38757 0.52499 0.14673 0.0
C104 C 0.35213 0.56562 0.24023 0.0
O105 O 0.41473 0.46907 0.40127 0.0
O106 O 0.45664 0.50723 0.328 0.0
O107 O 0.37842 0.51861 0.42829 0.0
O108 O 0.42347 0.56207 0.36613 0.0
O109 O 0.41371 0.53821 0.18956 0.0
O110 O 0.35386 0.49633 0.15687 0.0
C111 C 0.3215 0.39183 0.27664 0.0
O112 O 0.31327 0.41218 0.23967 0.0
O113 O 0.33551 0.40356 0.33157 0.0
O114 O 0.24984 0.51712 0.15844 0.0
O115 O 0.22104 0.49052 0.24993 0.0
O116 O 0.25454 0.44428 0.09592 0.0
C117 C 0.23054 0.51579 0.20733 0.0
O118 O 0.20508 0.41367 0.16219 0.0
O119 O 0.23546 0.42174 0.33261 0.0
C120 C 0.22011 0.41832 0.10795 0.0
O121 O 0.29819 0.45425 0.35303 0.0
O122 O 0.35233 0.54118 0.27867 0.0
O123 O 0.33345 0.55505 0.18958 0.0
C124 C 0.52673 0.96394 0.38673 0.0
C125 C 0.4623 0.85523 0.42584 0.0
C126 C 0.58082 0.83291 0.36924 0.0
Mg127 Mg 0.48797 0.89775 0.29662 0.0
O128 O 0.53512 0.9006 0.29931 0.0
Mg129 Mg 0.555 0.89856 0.38582 0.0
Mg130 Mg 0.53644 0.8567 0.26158 0.0
O131 O 0.53661 0.81257 0.225 0.0
Mg132 Mg 0.55592 0.78168 0.24906 0.0
Mg133 Mg 0.50413 0.79817 0.14903 0.0
C134 C 0.48641 0.86826 0.15282 0.0
C135 C 0.44505 0.79418 0.25124 0.0
O136 O 0.54598 0.94897 0.40825 0.0
O137 O 0.50645 0.95211 0.33663 0.0
O138 O 0.4967 0.8632 0.43521 0.0
O139 O 0.45221 0.86334 0.37389 0.0
O140 O 0.47431 0.88144 0.19676 0.0
O141 O 0.51414 0.86156 0.16171 0.0
C142 C 0.62118 0.93159 0.27784 0.0
O143 O 0.60007 0.90334 0.24108 0.0
O144 O 0.61026 0.93402 0.33336 0.0
O145 O 0.48488 0.73389 0.16332 0.0
O146 O 0.50474 0.72994 0.25982 0.0
O147 O 0.55877 0.80736 0.09866 0.0
C148 C 0.48101 0.71555 0.21489 0.0
O149 O 0.58289 0.78061 0.16393 0.0
O150 O 0.58429 0.80961 0.3332 0.0
C151 C 0.58084 0.79368 0.11018 0.0
O152 O 0.55884 0.8464 0.35502 0.0
O153 O 0.47187 0.81817 0.28661 0.0
O154 O 0.45193 0.78424 0.19895 0.0
C155 C 0.04261 0.562 0.38569 0.0
C156 C 0.15079 0.60282 0.42685 0.0
C157 C 0.17671 0.74455 0.36859 0.0
Mg158 Mg 0.10905 0.58727 0.29674 0.0
O159 O 0.10772 0.6324 0.29815 0.0
Mg160 Mg 0.11015 0.65451 0.38459 0.0
Mg161 Mg 0.1531 0.67661 0.26127 0.0
O162 O 0.19937 0.71989 0.22699 0.0
Mg163 Mg 0.22508 0.77147 0.24529 0.0
Mg164 Mg 0.21197 0.70167 0.14971 0.0
C165 C 0.14026 0.6149 0.15323 0.0
C166 C 0.21294 0.64417 0.2517 0.0
O167 O 0.05843 0.59619 0.40696 0.0
O168 O 0.05412 0.55302 0.3359 0.0
O169 O 0.14376 0.62993 0.43554 0.0
O170 O 0.1423 0.58454 0.37518 0.0
O171 O 0.126 0.5896 0.19725 0.0
O172 O 0.14796 0.64964 0.16165 0.0
C173 C 0.07975 0.6895 0.27481 0.0
O174 O 0.10826 0.69609 0.239 0.0
O175 O 0.07649 0.67602 0.33058 0.0
O176 O 0.27629 0.74536 0.16633 0.0
O177 O 0.2805 0.77992 0.25157 0.0
O178 O 0.20368 0.74757 0.09686 0.0
C179 C 0.29522 0.76746 0.2121 0.0
O180 O 0.22139 0.79751 0.16149 0.0
O181 O 0.19868 0.77144 0.33139 0.0
C182 C 0.21197 0.78211 0.10743 0.0
O183 O 0.16353 0.70921 0.35442 0.0
O184 O 0.18918 0.64762 0.28682 0.0
O185 O 0.22413 0.66191 0.20011 0.0
C186 C 0.49206 0.77755 0.70609 0.0
C187 C 0.58969 0.78801 0.60731 0.0
C188 C 0.48377 0.62064 0.64711 0.0
Mg189 Mg 0.56306 0.77691 0.74402 0.0
O190 O 0.5348 0.72577 0.72339 0.0
Mg191 Mg 0.50671 0.71056 0.64344 0.0
Mg192 Mg 0.53255 0.67997 0.75814 0.0
O193 O 0.52965 0.63346 0.79473 0.0
Mg194 Mg 0.48319 0.58849 0.78958 0.0
Mg195 Mg 0.5489 0.65386 0.88187 0.0
C196 C 0.57805 0.74503 0.86852 0.0
C197 C 0.61689 0.68854 0.77735 0.0
O198 O 0.49065 0.75795 0.65758 0.0
O199 O 0.51741 0.78733 0.74859 0.0
O200 O 0.56379 0.75355 0.59552 0.0
O201 O 0.59431 0.80312 0.66143 0.0
O202 O 0.58639 0.77315 0.83166 0.0
O203 O 0.55357 0.71052 0.85313 0.0
C204 C 0.44249 0.65573 0.74002 0.0
O205 O 0.46689 0.65562 0.77859 0.0
O206 O 0.45309 0.67441 0.6893 0.0
O207 O 0.54007 0.59467 0.90277 0.0
O208 O 0.50173 0.55222 0.8304 0.0
O209 O 0.48974 0.63022 0.92828 0.0
C210 C 0.52168 0.56067 0.881 0.0
O211 O 0.44647 0.58526 0.86594 0.0
O212 O 0.47069 0.59447 0.68998 0.0
C213 C 0.45568 0.6034 0.91793 0.0
O214 O 0.51226 0.65443 0.65731 0.0
O215 O 0.59627 0.69632 0.74029 0.0
O216 O 0.60517 0.67427 0.83221 0.0
C217 C 0.24029 0.71334 0.71278 0.0
C218 C 0.22591 0.79671 0.60743 0.0
C219 C 0.39305 0.8681 0.65185 0.0
Mg220 Mg 0.2367 0.78381 0.74532 0.0
O221 O 0.28825 0.80933 0.72672 0.0
Mg222 Mg 0.30625 0.79648 0.64939 0.0
Mg223 Mg 0.33168 0.85553 0.76082 0.0
O224 O 0.37612 0.90076 0.79738 0.0
Mg225 Mg 0.42119 0.89927 0.79518 0.0
Mg226 Mg 0.35433 0.89809 0.88425 0.0
C227 C 0.26409 0.8322 0.86847 0.0
C228 C 0.31895 0.92902 0.7761 0.0
O229 O 0.26243 0.73214 0.66686 0.0
O230 O 0.22796 0.72826 0.75211 0.0
O231 O 0.2604 0.80486 0.59677 0.0
O232 O 0.21055 0.7874 0.66157 0.0
O233 O 0.23712 0.81056 0.83121 0.0
O234 O 0.29938 0.84487 0.85446 0.0
C235 C 0.3639 0.79546 0.75071 0.0
O236 O 0.36061 0.81932 0.78576 0.0
O237 O 0.34601 0.7842 0.69933 0.0
O238 O 0.41287 0.94967 0.90606 0.0
O239 O 0.45582 0.95411 0.83434 0.0
O240 O 0.37876 0.86411 0.93417 0.0
C241 C 0.44699 0.96555 0.88438 0.0
O242 O 0.4241 0.86586 0.8733 0.0
O243 O 0.41851 0.88233 0.69558 0.0
C244 C 0.40583 0.85709 0.92503 0.0
O245 O 0.35841 0.86059 0.66079 0.0
O246 O 0.31225 0.90071 0.73967 0.0
O247 O 0.33272 0.93199 0.83153 0.0
C248 C 0.29202 0.52759 0.71571 0.0
C249 C 0.21448 0.42821 0.61073 0.0
C250 C 0.13893 0.52175 0.65493 0.0
Mg251 Mg 0.22601 0.45258 0.74982 0.0
O252 O 0.19507 0.47188 0.72618 0.0
Mg253 Mg 0.20925 0.50444 0.65025 0.0
Mg254 Mg 0.15087 0.47171 0.76327 0.0
O255 O 0.10681 0.47262 0.80143 0.0
Mg256 Mg 0.10961 0.51978 0.79914 0.0
Mg257 Mg 0.10911 0.45259 0.88779 0.0
C258 C 0.17485 0.42714 0.87016 0.0
C259 C 0.07632 0.38669 0.77948 0.0
O260 O 0.27358 0.52395 0.66438 0.0
O261 O 0.27768 0.50377 0.7606 0.0
O262 O 0.2005 0.45005 0.5994 0.0
O263 O 0.22743 0.42606 0.66449 0.0
O264 O 0.19808 0.42377 0.83376 0.0
O265 O 0.16153 0.44936 0.85657 0.0
C266 C 0.21303 0.5633 0.75271 0.0
O267 O 0.18916 0.53641 0.78823 0.0
O268 O 0.22293 0.55647 0.70033 0.0
O269 O 0.0584 0.46098 0.91127 0.0
O270 O 0.05549 0.50117 0.84069 0.0
O271 O 0.14428 0.51083 0.93705 0.0
C272 C 0.04349 0.4804 0.89034 0.0
O273 O 0.14467 0.55558 0.87564 0.0
O274 O 0.12568 0.53368 0.69907 0.0
C275 C 0.15263 0.54534 0.92758 0.0
O276 O 0.1457 0.49406 0.66366 0.0
O277 O 0.10453 0.40803 0.74274 0.0
O278 O 0.07384 0.39736 0.83517 0.0
C279 C 0.77249 0.48321 0.74108 0.0
C280 C 0.78659 0.58064 0.84318 0.0
C281 C 0.61969 0.48466 0.79849 0.0
Mg282 Mg 0.77605 0.55683 0.70549 0.0
O283 O 0.72457 0.53111 0.72424 0.0
Mg284 Mg 0.70647 0.50047 0.80205 0.0
Mg285 Mg 0.68098 0.53338 0.68927 0.0
O286 O 0.63628 0.53374 0.65216 0.0
Mg287 Mg 0.59183 0.48668 0.65447 0.0
Mg288 Mg 0.65831 0.55325 0.56545 0.0
C289 C 0.74874 0.57842 0.5822 0.0
C290 C 0.69262 0.61892 0.6742 0.0
O291 O 0.75082 0.48061 0.78717 0.0
O292 O 0.78441 0.50977 0.70027 0.0
O293 O 0.75191 0.55487 0.85401 0.0
O294 O 0.80198 0.58628 0.78914 0.0
O295 O 0.7757 0.58341 0.6194 0.0
O296 O 0.71348 0.5555 0.59586 0.0
C297 C 0.64995 0.4415 0.7003 0.0
O298 O 0.65308 0.46852 0.66474 0.0
O299 O 0.66728 0.44818 0.75232 0.0
O300 O 0.5997 0.54583 0.54227 0.0
O301 O 0.55657 0.50573 0.61251 0.0
O302 O 0.63457 0.49485 0.51605 0.0
C303 C 0.56544 0.5266 0.56295 0.0
O304 O 0.59064 0.45052 0.57813 0.0
O305 O 0.59417 0.47273 0.75474 0.0
C306 C 0.60853 0.46041 0.52604 0.0
O307 O 0.65413 0.5119 0.78905 0.0
O308 O 0.69969 0.59732 0.71027 0.0
O309 O 0.67905 0.60852 0.61856 0.0
C310 C 0.52632 0.2917 0.73811 0.0
C311 C 0.42994 0.20901 0.84386 0.0
C312 C 0.52583 0.1377 0.79907 0.0
Mg313 Mg 0.45256 0.22134 0.70535 0.0
O314 O 0.478 0.19521 0.72446 0.0
Mg315 Mg 0.50965 0.20864 0.80127 0.0
Mg316 Mg 0.47606 0.14942 0.6898 0.0
O317 O 0.47618 0.10465 0.65322 0.0
Mg318 Mg 0.52311 0.10687 0.65595 0.0
Mg319 Mg 0.45683 0.10708 0.56631 0.0
C320 C 0.43077 0.17218 0.58268 0.0
C321 C 0.39071 0.07502 0.67423 0.0
O322 O 0.52938 0.27287 0.78444 0.0
O323 O 0.49948 0.27677 0.69794 0.0
O324 O 0.45574 0.20001 0.85433 0.0
O325 O 0.42388 0.21858 0.78977 0.0
O326 O 0.42571 0.19399 0.61993 0.0
O327 O 0.45371 0.15972 0.59628 0.0
C328 C 0.56783 0.21051 0.69881 0.0
O329 O 0.54066 0.18642 0.66411 0.0
O330 O 0.56144 0.22144 0.75061 0.0
O331 O 0.46507 0.05611 0.54445 0.0
O332 O 0.50391 0.05224 0.61661 0.0
O333 O 0.51519 0.14188 0.51694 0.0
C334 C 0.48377 0.04064 0.56634 0.0
O335 O 0.5591 0.14068 0.57829 0.0
O336 O 0.53741 0.12376 0.75556 0.0
C337 C 0.5494 0.14929 0.52643 0.0
O338 O 0.4984 0.14478 0.78978 0.0
O339 O 0.41195 0.10339 0.71084 0.0
O340 O 0.40159 0.07239 0.61879 0.0
C341 C 0.71624 0.23413 0.7404 0.0
C342 C 0.8008 0.22131 0.84434 0.0
C343 C 0.86905 0.38801 0.80215 0.0
Mg344 Mg 0.78724 0.23193 0.70661 0.0
O345 O 0.81159 0.28344 0.72551 0.0
Mg346 Mg 0.79866 0.30077 0.80346 0.0
Mg347 Mg 0.85737 0.32752 0.69198 0.0
O348 O 0.90228 0.37269 0.65603 0.0
Mg349 Mg 0.89994 0.41737 0.65906 0.0
Mg350 Mg 0.89993 0.3515 0.56884 0.0
C351 C 0.83552 0.26097 0.58332 0.0
C352 C 0.93111 0.31572 0.6762 0.0
O353 O 0.7348 0.25594 0.78671 0.0
O354 O 0.73138 0.22237 0.70048 0.0
O355 O 0.8085 0.25564 0.85513 0.0
O356 O 0.7915 0.20596 0.79022 0.0
O357 O 0.8143 0.23349 0.62021 0.0
O358 O 0.84729 0.29598 0.59795 0.0
C359 C 0.79612 0.35796 0.70271 0.0
O360 O 0.82037 0.35539 0.66765 0.0
O361 O 0.78511 0.33998 0.75413 0.0
O362 O 0.95089 0.41038 0.54769 0.0
O363 O 0.95451 0.45303 0.61921 0.0
O364 O 0.86521 0.37557 0.51948 0.0
C365 C 0.96626 0.44446 0.56924 0.0
O366 O 0.86598 0.41994 0.58162 0.0
O367 O 0.88287 0.41387 0.75892 0.0
C368 C 0.85747 0.40209 0.52955 0.0
O369 O 0.86217 0.35365 0.79234 0.0
O370 O 0.90263 0.30851 0.7125 0.0
O371 O 0.93431 0.33008 0.62112 0.0
C372 C 0.55132 0.19542 0.20361 0.0
C373 C 0.55706 0.22908 0.23173 0.0
H374 H 0.57686 0.16339 0.17449 0.0
C375 C 0.59422 0.25962 0.23889 0.0
H376 H 0.52282 0.17166 0.197 0.0
C377 C 0.62523 0.25587 0.22074 0.0
C378 C 0.6197 0.22122 0.19653 0.0
H379 H 0.5993 0.28642 0.25838 0.0
H380 H 0.65369 0.27919 0.22978 0.0
C381 C 0.58238 0.19127 0.18751 0.0
C382 C 0.75608 0.37811 0.25888 0.0
C383 C 0.77657 0.40114 0.2071 0.0
H384 H 0.73893 0.3271 0.31098 0.0
C385 C 0.7904 0.386 0.16218 0.0
H386 H 0.7437 0.38799 0.29398 0.0
C387 C 0.78798 0.35074 0.17258 0.0
C388 C 0.77092 0.32973 0.22777 0.0
H389 H 0.80383 0.40169 0.12014 0.0
H390 H 0.79995 0.34027 0.13777 0.0
C391 C 0.75375 0.3432 0.26947 0.0
C392 C 0.65988 0.45037 0.17657 0.0
C393 C 0.68132 0.45367 0.23097 0.0
H394 H 0.6094 0.41541 0.12354 0.0
C395 C 0.66898 0.42209 0.2706 0.0
H396 H 0.66949 0.47368 0.14334 0.0
C397 C 0.63492 0.38893 0.25852 0.0
C398 C 0.61147 0.38665 0.20742 0.0
H399 H 0.68551 0.42291 0.3113 0.0
H400 H 0.62602 0.36578 0.29191 0.0
C401 C 0.6254 0.41701 0.16482 0.0
C402 C 0.18963 0.57522 0.26699 0.0
C403 C 0.22031 0.61228 0.25855 0.0
H404 H 0.16857 0.51539 0.25659 0.0
C405 C 0.25473 0.61694 0.23487 0.0
H406 H 0.16194 0.57037 0.2797 0.0
C407 C 0.25749 0.58548 0.21609 0.0
C408 C 0.22622 0.54868 0.22235 0.0
H409 H 0.27865 0.64513 0.22646 0.0
H410 H 0.28411 0.58996 0.1967 0.0
C411 C 0.19285 0.54365 0.2505 0.0
C412 C 0.38475 0.62933 0.18939 0.0
C413 C 0.38072 0.60673 0.24278 0.0
H414 H 0.41982 0.68002 0.1376 0.0
C415 C 0.40819 0.62229 0.29028 0.0
H416 H 0.36375 0.61913 0.15207 0.0
C417 C 0.44109 0.65762 0.28132 0.0
C418 C 0.44656 0.67824 0.22498 0.0
H419 H 0.40463 0.60698 0.33347 0.0
H420 H 0.46236 0.66847 0.3182 0.0
C421 C 0.41735 0.66429 0.18032 0.0
C422 C 0.36113 0.80861 0.25156 0.0
C423 C 0.33335 0.77384 0.22641 0.0
H424 H 0.41912 0.84273 0.27708 0.0
C425 C 0.34096 0.74381 0.22112 0.0
H426 H 0.35571 0.83209 0.25639 0.0
C427 C 0.3765 0.74906 0.23823 0.0
C428 C 0.40534 0.78471 0.25948 0.0
H429 H 0.3195 0.71633 0.2035 0.0
H430 H 0.38239 0.72608 0.23046 0.0
C431 C 0.39706 0.81423 0.26657 0.0
C432 C 0.46435 0.81546 0.74862 0.0
C433 C 0.45923 0.78196 0.72092 0.0
H434 H 0.43779 0.84656 0.77738 0.0
C435 C 0.4224 0.75068 0.71509 0.0
H436 H 0.49264 0.83975 0.7543 0.0
C437 C 0.39102 0.75356 0.73393 0.0
C438 C 0.39578 0.78808 0.75729 0.0
H439 H 0.41786 0.72397 0.69604 0.0
H440 H 0.36279 0.72962 0.72589 0.0
C441 C 0.43286 0.81878 0.76516 0.0
C442 C 0.25829 0.63182 0.73969 0.0
C443 C 0.2226 0.60305 0.76103 0.0
H444 H 0.29119 0.68876 0.70461 0.0
C445 C 0.19317 0.61148 0.76809 0.0
H446 H 0.2812 0.62583 0.732 0.0
C447 C 0.19893 0.64747 0.75281 0.0
C448 C 0.23374 0.67515 0.72746 0.0
H449 H 0.16465 0.5895 0.7789 0.0
H450 H 0.17554 0.65302 0.75761 0.0
C451 C 0.26368 0.66739 0.72232 0.0
C452 C 0.35014 0.5672 0.78175 0.0
C453 C 0.3295 0.56183 0.72551 0.0
H454 H 0.40094 0.60337 0.83355 0.0
C455 C 0.34367 0.59094 0.68058 0.0
H456 H 0.33914 0.546 0.81881 0.0
C457 C 0.37881 0.62333 0.68934 0.0
C458 C 0.40135 0.62726 0.74269 0.0
H459 H 0.32797 0.58854 0.63789 0.0
H460 H 0.38912 0.64425 0.65183 0.0
C461 C 0.38564 0.59989 0.7904 0.0
C462 C 0.81287 0.45732 0.70273 0.0
C463 C 0.77834 0.45111 0.72772 0.0
H464 H 0.84608 0.43231 0.67817 0.0
C465 C 0.74788 0.41383 0.73366 0.0
H466 H 0.83669 0.48594 0.69758 0.0
C467 C 0.75233 0.38309 0.71679 0.0
C468 C 0.78766 0.38903 0.69547 0.0
H469 H 0.72066 0.40848 0.7515 0.0
H470 H 0.72892 0.35455 0.72458 0.0
C471 C 0.81774 0.42651 0.68831 0.0
C472 C 0.62583 0.3727 0.71289 0.0
C473 C 0.6193 0.40192 0.6922 0.0
H474 H 0.60138 0.3155 0.74692 0.0
C475 C 0.58161 0.39403 0.68516 0.0
H476 H 0.65454 0.37817 0.7204 0.0
C477 C 0.55118 0.35803 0.69951 0.0
C478 C 0.558 0.32987 0.72412 0.0
H479 H 0.57535 0.41634 0.67486 0.0
H480 H 0.52238 0.35283 0.6946 0.0
C481 C 0.59551 0.3372 0.72955 0.0
C482 C 0.61468 0.18875 0.68484 0.0
C483 C 0.60725 0.21894 0.69074 0.0
H484 H 0.65509 0.16972 0.69651 0.0
C485 C 0.63664 0.25446 0.7112 0.0
H486 H 0.5922 0.16036 0.67489 0.0
C487 C 0.67171 0.25894 0.72922 0.0
C488 C 0.67844 0.22829 0.72526 0.0
H489 H 0.63151 0.278 0.71782 0.0
H490 H 0.69353 0.28631 0.74654 0.0
C491 C 0.65028 0.19364 0.70045 0.0
C492 C 0.48339 0.49319 0.91604 0.0
C493 C 0.51462 0.52982 0.92524 0.0
H494 H 0.44758 0.43804 0.95512 0.0
C495 C 0.53375 0.53868 -0.01665 0.0
H496 H 0.46742 0.48561 0.87243 0.0
C497 C 0.52164 0.5118 0.03143 0.0
C498 C 0.49045 0.47516 0.02226 0.0
H499 H 0.55763 0.56678 -0.0076 0.0
H500 H 0.53764 0.51947 0.075 0.0
C501 C 0.47136 0.46621 0.9641 0.0
C502 C 0.49706 0.01069 0.03551 0.0
C503 C 0.53441 0.01921 0.02214 0.0
H504 H 0.44061 0.98933 0.00131 0.0
C505 C 0.54314 0.01243 0.96131 0.0
H506 H 0.48942 0.0162 0.08148 0.0
C507 C 0.51532 0.99791 0.91476 0.0
C508 C 0.47794 0.9893 0.92816 0.0
H509 H 0.57175 0.01924 0.94896 0.0
H510 H 0.52296 0.99238 0.8688 0.0
C511 C 0.46923 0.99616 -0.01104 0.0
C512 C 0.99638 0.52949 0.96713 0.0
C513 C 0.988 0.51267 0.02719 0.0
H514 H 0.01831 0.53101 0.87563 0.0
C515 C 0.99582 0.48325 0.04027 0.0
H516 H 0.99027 0.55188 0.95504 0.0
C517 C 0.01131 0.47072 -0.0059 0.0
C518 C 0.01958 0.48751 0.93398 0.0
H519 H 0.98902 0.46909 0.08559 0.0
H520 H 0.01758 0.44844 0.00612 0.0
C521 C 0.01168 0.51688 0.92097 0.0
C522 C 0.4712 0.47562 0.48042 0.0
C523 C 0.4797 0.49467 0.42225 0.0
H524 H 0.49076 0.47217 0.57187 0.0
C525 C 0.51617 0.52606 0.41248 0.0
H526 H 0.44323 0.4516 0.48987 0.0
C527 C 0.54335 0.53839 0.46017 0.0
C528 C 0.53471 0.51944 0.51849 0.0
H529 H 0.52346 0.54194 0.36875 0.0
H530 H 0.57138 0.56231 0.45079 0.0
C531 C 0.49823 0.48805 0.52813 0.0
C532 C 0.49049 0.99635 0.41554 0.0
C533 C 0.51879 0.98722 0.43038 0.0
H534 H 0.45546 0.0182 0.44786 0.0
C535 C 0.53336 0.99335 0.49196 0.0
H536 H 0.47808 0.99138 0.36892 0.0
C537 C 0.51966 0.00785 0.53776 0.0
C538 C 0.49143 0.01707 0.52289 0.0
H539 H 0.55471 0.98604 0.50545 0.0
H540 H 0.53209 0.01284 0.58437 0.0
C541 C 0.4768 0.01087 0.46135 0.0
C542 C 0.99692 0.51252 0.53715 0.0
C543 C 0.98969 0.47543 0.52518 0.0
H544 H 0.01709 0.56849 0.50115 0.0
C545 C 0.99754 0.46664 0.46517 0.0
H546 H 0.99051 0.52014 0.58242 0.0
C547 C 0.01173 0.49408 0.41796 0.0
C548 C 0.01905 0.53119 0.42991 0.0
H549 H 0.9918 0.43822 0.45392 0.0
H550 H 0.01807 0.48638 0.3727 0.0
C551 C 0.01123 0.54002 0.48995 0.0
C552 C 0.5649 0.40373 0.91283 0.0
C553 C 0.57707 0.42174 0.97149 0.0
H554 H 0.5686 0.40956 0.81296 0.0
C555 C 0.60828 0.45925 0.97277 0.0
H556 H 0.54131 0.37487 0.90957 0.0
C557 C 0.62426 0.47932 0.91654 0.0
C558 C 0.60907 0.46236 0.85813 0.0
H559 H 0.61856 0.47412 0.01701 0.0
H560 H 0.64657 0.50882 0.91889 0.0
C561 C 0.58044 0.42384 0.8571 0.0
C562 C 0.60789 0.16392 0.9111 0.0
C563 C 0.59076 0.15944 0.97023 0.0
H564 H 0.60075 0.16024 0.81157 0.0
C565 C 0.55357 0.15411 0.97233 0.0
H566 H 0.63645 0.16835 0.90721 0.0
C567 C 0.53287 0.14958 0.91661 0.0
C568 C 0.54887 0.14996 0.85791 0.0
H569 H 0.53933 0.15052 0.01696 0.0
H570 H 0.50359 0.14312 0.91973 0.0
C571 C 0.58717 0.15894 0.85593 0.0
C572 C 0.84683 0.42692 0.85989 0.0
C573 C 0.85679 0.39826 0.86144 0.0
H574 H 0.8368 0.4661 0.91162 0.0
C575 C 0.8583 0.38297 0.92007 0.0
H576 H 0.84464 0.43891 0.8156 0.0
C577 C 0.85394 0.39891 -0.02397 0.0
C578 C 0.84766 0.43021 0.97425 0.0
H579 H 0.86556 0.36066 0.92287 0.0
H580 H 0.8584 0.38858 0.02049 0.0
C581 C 0.84201 0.44243 0.91531 0.0
C582 C 0.47961 0.62518 0.52871 0.0
C583 C 0.46188 0.61108 0.58707 0.0
H584 H 0.47523 0.61822 0.4284 0.0
C585 C 0.42294 0.5835 0.58771 0.0
H586 H 0.50945 0.64658 0.52661 0.0
C587 C 0.40319 0.56758 0.53186 0.0
C588 C 0.42188 0.57846 0.47353 0.0
H589 H 0.4081 0.57255 0.63187 0.0
H590 H 0.374 0.5446 0.53491 0.0
C591 C 0.45981 0.60895 0.47239 0.0
C592 C 0.4341 0.84781 0.59592 0.0
C593 C 0.40418 0.85596 0.59334 0.0
H594 H 0.47459 0.83913 0.54557 0.0
C595 C 0.38828 0.85564 0.5344 0.0
H596 H 0.44672 0.84718 0.64042 0.0
C597 C 0.4047 0.85124 0.47903 0.0
C598 C 0.43708 0.84673 0.48175 0.0
H599 H 0.36502 0.86146 0.53078 0.0
H600 H 0.39378 0.8543 0.43415 0.0
C601 C 0.45005 0.84291 0.54115 0.0
C602 C 0.15951 0.58286 0.59744 0.0
C603 C 0.15058 0.54455 0.59574 0.0
H604 H 0.16842 0.63191 0.5458 0.0
C605 C 0.14969 0.5283 0.53708 0.0
H606 H 0.16124 0.59665 0.64177 0.0
C607 C 0.15375 0.54876 0.48121 0.0
C608 C 0.15908 0.58597 0.4831 0.0
H609 H 0.14325 0.49902 0.53416 0.0
H610 H 0.14986 0.53436 0.43669 0.0
C611 C 0.16396 0.60333 0.54208 0.0
C612 C 0.38306 0.52911 0.02838 0.0
C613 C 0.39705 0.54688 0.08669 0.0
H614 H 0.39019 0.53346 0.92809 0.0
C615 C 0.42449 0.58586 0.08725 0.0
H616 H 0.36175 0.49923 0.02636 0.0
C617 C 0.44044 0.60562 0.03136 0.0
C618 C 0.42973 0.58687 0.97312 0.0
H619 H 0.43537 0.60073 0.13136 0.0
H620 H 0.46334 0.63485 0.03435 0.0
C621 C 0.39932 0.54891 0.97202 0.0
C622 C 0.40498 0.84283 0.03984 0.0
C623 C 0.42263 0.84846 -0.01907 0.0
H624 H 0.41131 0.84483 0.13956 0.0
C625 C 0.46 0.85426 -0.02098 0.0
H626 H 0.37625 0.83797 0.04354 0.0
C627 C 0.48034 0.85814 0.03489 0.0
C628 C 0.46377 0.85657 0.09356 0.0
H629 H 0.47461 0.85872 0.93453 0.0
H630 H 0.50976 0.86502 0.03203 0.0
C631 C 0.42532 0.84708 0.09522 0.0
C632 C 0.16491 0.55741 0.04283 0.0
C633 C 0.16138 0.57059 -0.01659 0.0
H634 H 0.16046 0.56066 0.1421 0.0
C635 C 0.15729 0.60321 -0.01938 0.0
H636 H 0.1684 0.53268 0.04728 0.0
C637 C 0.15295 0.61967 0.03593 0.0
C638 C 0.15227 0.60357 0.09486 0.0
H639 H 0.15449 0.6143 0.93571 0.0
H640 H 0.14746 0.64315 0.03226 0.0
C641 C 0.16006 0.57341 0.09756 0.0
C642 C 0.58921 0.42975 0.3566 0.0
C643 C 0.55083 0.4007 0.35892 0.0
H644 H 0.63818 0.47034 0.40751 0.0
C645 C 0.53454 0.38592 0.41789 0.0
H646 H 0.60303 0.44121 0.31187 0.0
C647 C 0.55496 0.40278 0.47338 0.0
C648 C 0.5921 0.4346 0.47078 0.0
H649 H 0.5052 0.36334 0.42123 0.0
H650 H 0.54049 0.3928 0.51803 0.0
C651 C 0.6096 0.44634 0.41166 0.0
C652 C 0.60692 0.15307 0.47335 0.0
C653 C 0.57488 0.15814 0.4708 0.0
H654 H 0.64658 0.14303 0.4212 0.0
C655 C 0.56257 0.16317 0.41158 0.0
H656 H 0.61732 0.14908 0.51809 0.0
C657 C 0.57887 0.15901 0.3566 0.0
C658 C 0.60841 0.15029 0.35887 0.0
H659 H 0.53832 0.16744 0.40736 0.0
H660 H 0.56681 0.16067 0.31209 0.0
C661 C 0.62364 0.14934 0.41782 0.0
C662 C 0.85788 0.47667 0.42058 0.0
C663 C 0.85417 0.45938 0.36189 0.0
H664 H 0.86097 0.47169 0.52066 0.0
C665 C 0.84323 0.4205 0.36048 0.0
H666 H 0.866 0.50645 0.42327 0.0
C667 C 0.84008 0.40047 0.41591 0.0
C668 C 0.84793 0.41879 0.47449 0.0
H669 H 0.83922 0.40595 0.31604 0.0
H670 H 0.83426 0.37141 0.41232 0.0
C671 C 0.85482 0.45656 0.47642 0.0
C672 C 0.33848 0.34057 0.29143 0.0
C673 C 0.32471 0.35911 0.25169 0.0
H674 H 0.37111 0.31229 0.29849 0.0
C675 C 0.32385 0.35278 0.1867 0.0
H676 H 0.33885 0.3439 0.34201 0.0
C677 C 0.34169 0.33366 0.1618 0.0
C678 C 0.36144 0.32111 0.20123 0.0
H679 H 0.31304 0.36595 0.15456 0.0
H680 H 0.34361 0.33263 0.11111 0.0
C681 C 0.35693 0.32207 0.2665 0.0
C682 C 0.65938 0.9728 0.18704 0.0
C683 C 0.65381 0.96729 0.25218 0.0
H684 H 0.67834 0.01273 0.1112 0.0
C685 C 0.67277 0.99948 0.29162 0.0
H686 H 0.64593 0.94889 0.15513 0.0
C687 C 0.69061 0.03639 0.26646 0.0
C688 C 0.69057 0.04186 0.20127 0.0
H689 H 0.6701 0.99645 0.34229 0.0
H690 H 0.7006 0.06026 0.29835 0.0
C691 C 0.67795 0.00972 0.16189 0.0
C692 C 0.03873 0.68478 0.18241 0.0
C693 C 0.04437 0.68667 0.24773 0.0
H694 H 0.99866 0.66212 0.10706 0.0
C695 C 0.01227 0.67502 0.28694 0.0
H696 H 0.06254 0.69386 0.15057 0.0
C697 C 0.97529 0.6557 0.26213 0.0
C698 C 0.96962 0.6484 0.19739 0.0
H699 H 0.01539 0.67684 0.33764 0.0
H700 H 0.95144 0.6432 0.29433 0.0
C701 C 1.00176 0.66617 0.15752 0.0
C702 C 0.65703 0.68813 0.68758 0.0
C703 C 0.65016 0.68633 0.75251 0.0
H704 H 0.67812 0.66969 0.6115 0.0
C705 C 0.66887 0.67263 0.79195 0.0
H706 H 0.64379 0.69901 0.65571 0.0
C707 C 0.68798 0.65493 0.76656 0.0
C708 C 0.68933 0.65113 0.70117 0.0
H709 H 0.66518 0.67163 0.8425 0.0
H710 H 0.69782 0.64063 0.79818 0.0
C711 C 0.67675 0.67105 0.66225 0.0
C712 C 0.33381 0.99655 0.78982 0.0
C713 C 0.32122 0.96446 0.75026 0.0
H714 H 0.36588 0.05739 0.79702 0.0
C715 C 0.3213 0.97011 0.68513 0.0
H716 H 0.33332 0.99343 0.84049 0.0
C717 C 0.33909 0.00712 0.66024 0.0
C718 C 0.35803 0.03927 0.69985 0.0
H719 H 0.31139 0.94631 0.65309 0.0
H720 H 0.34175 0.01024 0.60958 0.0
C721 C 0.35243 0.03356 0.76494 0.0
C722 C 0.99854 0.33034 0.66304 0.0
C723 C 0.9663 0.31769 0.70222 0.0
H724 H 0.05937 0.36223 0.65663 0.0
C725 C 0.97155 0.31742 0.76744 0.0
H726 H 0.99568 0.3301 0.61233 0.0
C727 C 0.00838 0.33511 0.79283 0.0
C728 C 0.04069 0.35413 0.7536 0.0
H729 H 0.94759 0.3074 0.79918 0.0
H730 H 0.01124 0.33764 0.84352 0.0
C731 C 0.03537 0.34874 0.68842 0.0
C732 C 0.39656 0.19708 0.94589 0.0
C733 C 0.41771 0.22217 0.8979 0.0
H734 H 0.38236 0.19092 0.04299 0.0
C735 C 0.43557 0.26166 0.90796 0.0
H736 H 0.38255 0.16661 0.93869 0.0
C737 C 0.43717 0.27583 0.96828 0.0
C738 C 0.42027 0.25045 0.01849 0.0
H739 H 0.45216 0.28142 0.87092 0.0
H740 H 0.45506 0.30604 -0.02359 0.0
C741 C 0.39681 0.21127 0.00553 0.0
C742 C 0.73523 0.16085 0.96904 0.0
C743 C 0.76068 0.17126 0.01959 0.0
H744 H 0.72928 0.16828 0.8709 0.0
C745 C 0.80002 0.18801 0.00702 0.0
H746 H 0.70491 0.14764 -0.0231 0.0
C747 C 0.81401 0.20134 0.94696 0.0
C748 C 0.78865 0.19572 0.89835 0.0
H749 H 0.82044 0.19534 0.04487 0.0
H750 H 0.8444 0.21886 0.93986 0.0
C751 C 0.74928 0.17276 0.90836 0.0
C752 C 0.82391 0.61571 0.00352 0.0
C753 C 0.83907 0.59176 0.01748 0.0
H754 H 0.7933 0.62975 0.93613 0.0
C755 C 0.84662 0.57379 0.96801 0.0
H756 H 0.81879 0.63099 0.04038 0.0
C757 C 0.83349 0.57475 0.90771 0.0
C758 C 0.81227 0.59307 0.89695 0.0
H759 H 0.85852 0.55553 -0.0231 0.0
H760 H 0.83591 0.55737 0.87138 0.0
C761 C 0.80937 0.61531 0.94394 0.0
C762 C 0.27989 0.43522 0.48352 0.0
C763 C 0.25374 0.41691 0.43481 0.0
H764 H 0.28696 0.45192 0.58012 0.0
C765 C 0.21497 0.39292 0.45001 0.0
H766 H 0.30984 0.45354 0.47368 0.0
C767 C 0.20173 0.39334 0.51017 0.0
C768 C 0.22741 0.41578 0.55656 0.0
H769 H 0.19408 0.37742 0.41382 0.0
H770 H 0.17138 0.37874 0.51896 0.0
C771 C 0.26672 0.43433 0.54443 0.0
C772 C 0.58661 0.83696 0.54404 0.0
C773 C 0.6031 0.81391 0.55362 0.0
H774 H 0.56619 0.86154 0.47598 0.0
C775 C 0.62219 0.80801 0.50445 0.0
H776 H 0.57158 0.84166 0.58189 0.0
C777 C 0.62061 0.82095 0.44438 0.0
C778 C 0.59771 0.83754 0.43242 0.0
H779 H 0.6351 0.79043 0.51115 0.0
H780 H 0.63313 0.81333 0.40618 0.0
C781 C 0.58351 0.84842 0.48337 0.0
C782 C 0.17716 0.74511 0.54373 0.0
C783 C 0.20032 0.78447 0.55348 0.0
H784 H 0.15074 0.70072 0.47558 0.0
C785 C 0.20544 0.80987 0.50513 0.0
H786 H 0.17304 0.7251 0.58104 0.0
C787 C 0.19117 0.7959 0.44548 0.0
C788 C 0.17394 0.75651 0.4329 0.0
H789 H 0.22307 0.84026 0.51208 0.0
H790 H 0.19803 0.81634 0.40776 0.0
C791 C 0.16426 0.73108 0.48341 0.0
C792 C 0.61545 0.79397 0.94883 0.0
C793 C 0.59176 0.75514 0.93386 0.0
H794 H 0.62962 0.83738 0.018 0.0
C795 C 0.57431 0.72885 -0.01719 0.0
H796 H 0.63034 0.81499 0.91245 0.0
C797 C 0.57563 0.74189 0.04394 0.0
C798 C 0.59368 0.78117 0.05603 0.0
H799 H 0.55627 0.69885 0.97317 0.0
H800 H 0.55856 0.72148 0.07989 0.0
C801 C 0.61542 0.80704 0.00926 0.0
C802 C 0.27762 0.84405 -0.01668 0.0
C803 C 0.25217 0.8347 0.93297 0.0
H804 H 0.28363 0.83477 0.0807 0.0
C805 C 0.2128 0.81747 0.94577 0.0
H806 H 0.30796 0.85758 0.97533 0.0
C807 C 0.19885 0.8029 0.00534 0.0
C808 C 0.22425 0.80773 0.05344 0.0
H809 H 0.19235 0.81088 0.9082 0.0
H810 H 0.16846 0.78533 0.0124 0.0
C811 C 0.26361 0.83085 0.04358 0.0
C812 C 0.18735 0.38756 0.94503 0.0
C813 C 0.17042 0.41017 0.9333 0.0
H814 H 0.21816 0.3733 0.01154 0.0
C815 C 0.15931 0.42404 -0.01558 0.0
H816 H 0.19516 0.37528 0.9067 0.0
C817 C 0.17082 0.42091 0.04502 0.0
C818 C 0.19417 0.40476 0.05439 0.0
H819 H 0.14591 0.44112 -0.02278 0.0
H820 H 0.1659 0.43572 0.08298 0.0
C821 C 0.20033 0.38596 0.00504 0.0
C822 C 0.81431 0.61897 0.44617 0.0
C823 C 0.78928 0.59947 0.39714 0.0
H824 H 0.82029 0.63047 0.54423 0.0
C825 C 0.7498 0.58251 0.40689 0.0
H826 H 0.84478 0.63229 0.43935 0.0
C827 C 0.73548 0.57959 0.46755 0.0
C828 C 0.7607 0.59443 0.5184 0.0
H829 H 0.73 0.56715 0.36922 0.0
H830 H 0.70516 0.56212 0.47508 0.0
C831 C 0.80002 0.6175 0.5062 0.0
C832 C 0.39274 0.20052 0.44686 0.0
C833 C 0.41286 0.19566 0.39826 0.0
H834 H 0.37941 0.19283 0.54429 0.0
C835 C 0.42928 0.17254 0.40762 0.0
H836 H 0.3798 0.21809 0.44025 0.0
C837 C 0.43093 0.15961 0.46784 0.0
C838 C 0.41541 0.16916 0.5186 0.0
H839 H 0.44505 0.16858 0.37015 0.0
H840 H 0.44801 0.14625 0.47537 0.0
C841 C 0.39288 0.18614 0.50638 0.0
C842 C 0.83691 0.26297 0.40803 0.0
C843 C 0.81392 0.22376 0.3967 0.0
H844 H 0.86238 0.30633 0.478 0.0
C845 C 0.80845 0.19771 0.44414 0.0
H846 H 0.84133 0.28353 0.37154 0.0
C847 C 0.82195 0.21079 0.50445 0.0
C848 C 0.83884 0.24994 0.51858 0.0
H849 H 0.79097 0.16741 0.43598 0.0
H850 H 0.81474 0.18979 0.54135 0.0
C851 C 0.84904 0.2761 0.46902 0.0
loop_
_geom_bond_atom_site_label_1
_geom_bond_atom_site_label_2
_geom_bond_distance
_geom_bond_site_symmetry_2
_ccdc_geom_bond_type
C0 O12 1.241 . S
C0 O13 1.280 . S
C1 O14 1.277 . S
C1 O15 1.245 1_556 S
C2 O26 1.247 . S
C2 O28 1.289 . S
Mg3 O4 1.926 . S
Mg3 O13 1.984 . S
Mg3 O15 1.988 . S
Mg3 O16 2.061 . S
O4 Mg3 1.926 . S
O4 Mg5 1.986 . S
O4 Mg6 1.917 . S
Mg5 O4 1.986 . S
Mg5 O12 2.042 . S
Mg5 O14 2.041 1_554 S
Mg5 O20 2.038 . S
Mg5 O28 2.238 . S
Mg6 O4 1.917 . S
Mg6 O7 1.917 . S
Mg6 O17 2.106 . S
Mg6 O19 2.079 . S
Mg6 O28 2.106 . S
Mg6 O29 2.079 . S
O7 Mg6 1.917 . S
O7 Mg8 1.926 . S
O7 Mg9 1.986 . S
Mg8 O7 1.926 . S
Mg8 O22 1.984 . S
Mg8 O25 1.988 . S
Mg8 O26 2.061 . S
Mg9 O7 1.986 . S
Mg9 O17 2.238 . S
Mg9 O21 2.042 . S
Mg9 O23 2.041 . S
Mg9 O30 2.038 . S
C10 O16 1.247 . S
C10 O17 1.289 . S
C11 O29 1.245 . S
C11 O30 1.274 . S
O12 C0 1.241 . S
O12 Mg5 2.042 . S
O13 C0 1.280 . S
O13 Mg3 1.984 . S
O14 C1 1.277 . S
O14 Mg5 2.041 1_556 S
O15 C1 1.245 1_554 S
O15 Mg3 1.988 . S
O16 Mg3 2.061 . S
O16 C10 1.247 . S
O17 Mg6 2.106 . S
O17 Mg9 2.238 . S
O17 C10 1.289 . S
C18 O19 1.245 . S
C18 O20 1.274 . S
O19 Mg6 2.079 . S
O19 C18 1.245 . S
O20 Mg5 2.038 . S
O20 C18 1.274 . S
O21 Mg9 2.042 . S
O21 C24 1.241 . S
O22 Mg8 1.984 . S
O22 C24 1.280 . S
O23 Mg9 2.041 . S
O23 C27 1.277 . S
C24 O21 1.241 . S
C24 O22 1.280 . S
O25 Mg8 1.988 . S
O25 C27 1.245 . S
O26 C2 1.247 . S
O26 Mg8 2.061 . S
C27 O23 1.277 . S
C27 O25 1.245 . S
O28 C2 1.289 . S
O28 Mg5 2.238 . S
O28 Mg6 2.106 . S
O29 Mg6 2.079 . S
O29 C11 1.245 . S
O30 Mg9 2.038 . S
O30 C11 1.274 . S
C31 O43 1.241 . S
C31 O44 1.280 . S
C32 O45 1.277 . S
C32 O46 1.245 1_556 S
C33 O57 1.247 . S
C33 O59 1.289 . S
Mg34 O35 1.926 . S
Mg34 O44 1.984 . S
Mg34 O46 1.988 . S
Mg34 O47 2.061 . S
O35 Mg34 1.926 . S
O35 Mg36 1.986 . S
O35 Mg37 1.917 . S
Mg36 O35 1.986 . S
Mg36 O43 2.042 . S
Mg36 O45 2.041 1_554 S
Mg36 O51 2.038 . S
Mg36 O59 2.238 . S
Mg37 O35 1.917 . S
Mg37 O38 1.917 . S
Mg37 O48 2.106 . S
Mg37 O50 2.079 . S
Mg37 O59 2.106 . S
Mg37 O60 2.079 . S
O38 Mg37 1.917 . S
O38 Mg39 1.926 . S
O38 Mg40 1.986 . S
Mg39 O38 1.926 . S
Mg39 O53 1.984 . S
Mg39 O56 1.988 . S
Mg39 O57 2.061 . S
Mg40 O38 1.986 . S
Mg40 O48 2.238 . S
Mg40 O52 2.042 . S
Mg40 O54 2.041 . S
Mg40 O61 2.038 . S
C41 O47 1.247 . S
C41 O48 1.289 . S
C42 O60 1.245 . S
C42 O61 1.274 . S
O43 C31 1.241 . S
O43 Mg36 2.042 . S
O44 C31 1.280 . S
O44 Mg34 1.984 . S
O45 C32 1.277 . S
O45 Mg36 2.041 1_556 S
O46 C32 1.245 1_554 S
O46 Mg34 1.988 . S
O47 Mg34 2.061 . S
O47 C41 1.247 . S
O48 Mg37 2.106 . S
O48 Mg40 2.238 . S
O48 C41 1.289 . S
C49 O50 1.245 . S
C49 O51 1.274 . S
O50 Mg37 2.079 . S
O50 C49 1.245 . S
O51 Mg36 2.038 . S
O51 C49 1.274 . S
O52 Mg40 2.042 . S
O52 C55 1.241 . S
O53 Mg39 1.984 . S
O53 C55 1.280 . S
O54 Mg40 2.041 . S
O54 C58 1.277 . S
C55 O52 1.241 . S
C55 O53 1.280 . S
O56 Mg39 1.988 . S
O56 C58 1.245 . S
O57 C33 1.247 . S
O57 Mg39 2.061 . S
C58 O54 1.277 . S
C58 O56 1.245 . S
O59 C33 1.289 . S
O59 Mg36 2.238 . S
O59 Mg37 2.106 . S
O60 Mg37 2.079 . S
O60 C42 1.245 . S
O61 Mg40 2.038 . S
O61 C42 1.274 . S
C62 O74 1.241 . S
C62 O75 1.280 . S
C63 O76 1.277 . S
C63 O77 1.245 1_556 S
C64 O88 1.247 . S
C64 O90 1.289 . S
Mg65 O66 1.926 . S
Mg65 O75 1.984 . S
Mg65 O77 1.988 . S
Mg65 O78 2.061 . S
O66 Mg65 1.926 . S
O66 Mg67 1.986 . S
O66 Mg68 1.917 . S
Mg67 O66 1.986 . S
Mg67 O74 2.042 . S
Mg67 O76 2.041 1_554 S
Mg67 O82 2.038 . S
Mg67 O90 2.238 . S
Mg68 O66 1.917 . S
Mg68 O69 1.917 . S
Mg68 O79 2.106 . S
Mg68 O81 2.079 . S
Mg68 O90 2.106 . S
Mg68 O91 2.079 . S
O69 Mg68 1.917 . S
O69 Mg70 1.926 . S
O69 Mg71 1.986 . S
Mg70 O69 1.926 . S
Mg70 O84 1.984 . S
Mg70 O87 1.988 . S
Mg70 O88 2.061 . S
Mg71 O69 1.986 . S
Mg71 O79 2.238 . S
Mg71 O83 2.042 . S
Mg71 O85 2.041 . S
Mg71 O92 2.038 . S
C72 O78 1.247 . S
C72 O79 1.289 . S
C73 O91 1.245 . S
C73 O92 1.274 . S
O74 C62 1.241 . S
O74 Mg67 2.042 . S
O75 C62 1.280 . S
O75 Mg65 1.984 . S
O76 C63 1.277 . S
O76 Mg67 2.041 1_556 S
O77 C63 1.245 1_554 S
O77 Mg65 1.988 . S
O78 Mg65 2.061 . S
O78 C72 1.247 . S
O79 Mg68 2.106 . S
O79 Mg71 2.238 . S
O79 C72 1.289 . S
C80 O81 1.245 . S
C80 O82 1.274 . S
O81 Mg68 2.079 . S
O81 C80 1.245 . S
O82 Mg67 2.038 . S
O82 C80 1.274 . S
O83 Mg71 2.042 . S
O83 C86 1.241 . S
O84 Mg70 1.984 . S
O84 C86 1.280 . S
O85 Mg71 2.041 . S
O85 C89 1.277 . S
C86 O83 1.241 . S
C86 O84 1.280 . S
O87 Mg70 1.988 . S
O87 C89 1.245 . S
O88 C64 1.247 . S
O88 Mg70 2.061 . S
C89 O85 1.277 . S
C89 O87 1.245 . S
O90 C64 1.289 . S
O90 Mg67 2.238 . S
O90 Mg68 2.106 . S
O91 Mg68 2.079 . S
O91 C73 1.245 . S
O92 Mg71 2.038 . S
O92 C73 1.274 . S
C93 O105 1.241 . S
C93 O106 1.280 . S
C94 O107 1.277 . S
C94 O108 1.245 . S
C95 O119 1.247 . S
C95 O121 1.289 . S
Mg96 O97 1.926 . S
Mg96 O106 1.984 . S
Mg96 O108 1.988 . S
Mg96 O109 2.061 . S
O97 Mg96 1.926 . S
O97 Mg98 1.986 . S
O97 Mg99 1.917 . S
Mg98 O97 1.986 . S
Mg98 O105 2.042 . S
Mg98 O107 2.041 . S
Mg98 O113 2.038 . S
Mg98 O121 2.238 . S
Mg99 O97 1.917 . S
Mg99 O100 1.917 . S
Mg99 O110 2.106 . S
Mg99 O112 2.079 . S
Mg99 O121 2.106 . S
Mg99 O122 2.079 . S
O100 Mg99 1.917 . S
O100 Mg101 1.926 . S
O100 Mg102 1.986 . S
Mg101 O100 1.926 . S
Mg101 O115 1.984 . S
Mg101 O118 1.988 . S
Mg101 O119 2.061 . S
Mg102 O100 1.986 . S
Mg102 O110 2.238 . S
Mg102 O114 2.042 . S
Mg102 O116 2.041 . S
Mg102 O123 2.038 . S
C103 O109 1.247 . S
C103 O110 1.289 . S
C104 O122 1.245 . S
C104 O123 1.274 . S
O105 C93 1.241 . S
O105 Mg98 2.042 . S
O106 C93 1.280 . S
O106 Mg96 1.984 . S
O107 C94 1.277 . S
O107 Mg98 2.041 . S
O108 C94 1.245 . S
O108 Mg96 1.988 . S
O109 Mg96 2.061 . S
O109 C103 1.247 . S
O110 Mg99 2.106 . S
O110 Mg102 2.238 . S
O110 C103 1.289 . S
C111 O112 1.245 . S
C111 O113 1.274 . S
O112 Mg99 2.079 . S
O112 C111 1.245 . S
O113 Mg98 2.038 . S
O113 C111 1.274 . S
O114 Mg102 2.042 . S
O114 C117 1.241 . S
O115 Mg101 1.984 . S
O115 C117 1.280 . S
O116 Mg102 2.041 . S
O116 C120 1.277 . S
C117 O114 1.241 . S
C117 O115 1.280 . S
O118 Mg101 1.988 . S
O118 C120 1.245 . S
O119 C95 1.247 . S
O119 Mg101 2.061 . S
C120 O116 1.277 . S
C120 O118 1.245 . S
O121 C95 1.289 . S
O121 Mg98 2.238 . S
O121 Mg99 2.106 . S
O122 Mg99 2.079 . S
O122 C104 1.245 . S
O123 Mg102 2.038 . S
O123 C104 1.274 . S
C124 O136 1.241 . S
C124 O137 1.280 . S
C125 O138 1.277 . S
C125 O139 1.245 . S
C126 O150 1.247 . S
C126 O152 1.289 . S
Mg127 O128 1.926 . S
Mg127 O137 1.984 . S
Mg127 O139 1.988 . S
Mg127 O140 2.061 . S
O128 Mg127 1.926 . S
O128 Mg129 1.986 . S
O128 Mg130 1.917 . S
Mg129 O128 1.986 . S
Mg129 O136 2.042 . S
Mg129 O138 2.041 . S
Mg129 O144 2.038 . S
Mg129 O152 2.238 . S
Mg130 O128 1.917 . S
Mg130 O131 1.917 . S
Mg130 O141 2.106 . S
Mg130 O143 2.079 . S
Mg130 O152 2.106 . S
Mg130 O153 2.079 . S
O131 Mg130 1.917 . S
O131 Mg132 1.926 . S
O131 Mg133 1.986 . S
Mg132 O131 1.926 . S
Mg132 O146 1.984 . S
Mg132 O149 1.988 . S
Mg132 O150 2.061 . S
Mg133 O131 1.986 . S
Mg133 O141 2.238 . S
Mg133 O145 2.042 . S
Mg133 O147 2.041 . S
Mg133 O154 2.038 . S
C134 O140 1.247 . S
C134 O141 1.289 . S
C135 O153 1.245 . S
C135 O154 1.274 . S
O136 C124 1.241 . S
O136 Mg129 2.042 . S
O137 C124 1.280 . S
O137 Mg127 1.984 . S
O138 C125 1.277 . S
O138 Mg129 2.041 . S
O139 C125 1.245 . S
O139 Mg127 1.988 . S
O140 Mg127 2.061 . S
O140 C134 1.247 . S
O141 Mg130 2.106 . S
O141 Mg133 2.238 . S
O141 C134 1.289 . S
C142 O143 1.245 . S
C142 O144 1.274 . S
O143 Mg130 2.079 . S
O143 C142 1.245 . S
O144 Mg129 2.038 . S
O144 C142 1.274 . S
O145 Mg133 2.042 . S
O145 C148 1.241 . S
O146 Mg132 1.984 . S
O146 C148 1.280 . S
O147 Mg133 2.041 . S
O147 C151 1.277 . S
C148 O145 1.241 . S
C148 O146 1.280 . S
O149 Mg132 1.988 . S
O149 C151 1.245 . S
O150 C126 1.247 . S
O150 Mg132 2.061 . S
C151 O147 1.277 . S
C151 O149 1.245 . S
O152 C126 1.289 . S
O152 Mg129 2.238 . S
O152 Mg130 2.106 . S
O153 Mg130 2.079 . S
O153 C135 1.245 . S
O154 Mg133 2.038 . S
O154 C135 1.274 . S
C155 O167 1.241 . S
C155 O168 1.280 . S
C156 O169 1.277 . S
C156 O170 1.245 . S
C157 O181 1.247 . S
C157 O183 1.289 . S
Mg158 O159 1.926 . S
Mg158 O168 1.984 . S
Mg158 O170 1.988 . S
Mg158 O171 2.061 . S
O159 Mg158 1.926 . S
O159 Mg160 1.986 . S
O159 Mg161 1.917 . S
Mg160 O159 1.986 . S
Mg160 O167 2.042 . S
Mg160 O169 2.041 . S
Mg160 O175 2.038 . S
Mg160 O183 2.238 . S
Mg161 O159 1.917 . S
Mg161 O162 1.917 . S
Mg161 O172 2.106 . S
Mg161 O174 2.079 . S
Mg161 O183 2.106 . S
Mg161 O184 2.079 . S
O162 Mg161 1.917 . S
O162 Mg163 1.926 . S
O162 Mg164 1.986 . S
Mg163 O162 1.926 . S
Mg163 O177 1.984 . S
Mg163 O180 1.988 . S
Mg163 O181 2.061 . S
Mg164 O162 1.986 . S
Mg164 O172 2.238 . S
Mg164 O176 2.042 . S
Mg164 O178 2.041 . S
Mg164 O185 2.038 . S
C165 O171 1.247 . S
C165 O172 1.289 . S
C166 O184 1.245 . S
C166 O185 1.274 . S
O167 C155 1.241 . S
O167 Mg160 2.042 . S
O168 C155 1.280 . S
O168 Mg158 1.984 . S
O169 C156 1.277 . S
O169 Mg160 2.041 . S
O170 C156 1.245 . S
O170 Mg158 1.988 . S
O171 Mg158 2.061 . S
O171 C165 1.247 . S
O172 Mg161 2.106 . S
O172 Mg164 2.238 . S
O172 C165 1.289 . S
C173 O174 1.245 . S
C173 O175 1.274 . S
O174 Mg161 2.079 . S
O174 C173 1.245 . S
O175 Mg160 2.038 . S
O175 C173 1.274 . S
O176 Mg164 2.042 . S
O176 C179 1.241 . S
O177 Mg163 1.984 . S
O177 C179 1.280 . S
O178 Mg164 2.041 . S
O178 C182 1.277 . S
C179 O176 1.241 . S
C179 O177 1.280 . S
O180 Mg163 1.988 . S
O180 C182 1.245 . S
O181 C157 1.247 . S
O181 Mg163 2.061 . S
C182 O178 1.277 . S
C182 O180 1.245 . S
O183 C157 1.289 . S
O183 Mg160 2.238 . S
O183 Mg161 2.106 . S
O184 Mg161 2.079 . S
O184 C166 1.245 . S
O185 Mg164 2.038 . S
O185 C166 1.274 . S
C186 O198 1.241 . S
C186 O199 1.280 . S
C187 O200 1.277 . S
C187 O201 1.245 . S
C188 O212 1.247 . S
C188 O214 1.289 . S
Mg189 O190 1.926 . S
Mg189 O199 1.984 . S
Mg189 O201 1.988 . S
Mg189 O202 2.061 . S
O190 Mg189 1.926 . S
O190 Mg191 1.986 . S
O190 Mg192 1.917 . S
Mg191 O190 1.986 . S
Mg191 O198 2.042 . S
Mg191 O200 2.041 . S
Mg191 O206 2.038 . S
Mg191 O214 2.238 . S
Mg192 O190 1.917 . S
Mg192 O193 1.917 . S
Mg192 O203 2.106 . S
Mg192 O205 2.079 . S
Mg192 O214 2.106 . S
Mg192 O215 2.079 . S
O193 Mg192 1.917 . S
O193 Mg194 1.926 . S
O193 Mg195 1.986 . S
Mg194 O193 1.926 . S
Mg194 O208 1.984 . S
Mg194 O211 1.988 . S
Mg194 O212 2.061 . S
Mg195 O193 1.986 . S
Mg195 O203 2.238 . S
Mg195 O207 2.042 . S
Mg195 O209 2.041 1_556 S
Mg195 O216 2.038 . S
C196 O202 1.247 . S
C196 O203 1.289 . S
C197 O215 1.245 . S
C197 O216 1.274 . S
O198 C186 1.241 . S
O198 Mg191 2.042 . S
O199 C186 1.280 . S
O199 Mg189 1.984 . S
O200 C187 1.277 . S
O200 Mg191 2.041 . S
O201 C187 1.245 . S
O201 Mg189 1.988 . S
O202 Mg189 2.061 . S
O202 C196 1.247 . S
O203 Mg192 2.106 . S
O203 Mg195 2.238 . S
O203 C196 1.289 . S
C204 O205 1.245 . S
C204 O206 1.274 . S
O205 Mg192 2.079 . S
O205 C204 1.245 . S
O206 Mg191 2.038 . S
O206 C204 1.274 . S
O207 Mg195 2.042 . S
O207 C210 1.241 . S
O208 Mg194 1.984 . S
O208 C210 1.280 . S
O209 Mg195 2.041 1_554 S
O209 C213 1.277 . S
C210 O207 1.241 . S
C210 O208 1.280 . S
O211 Mg194 1.988 . S
O211 C213 1.245 1_556 S
O212 C188 1.247 . S
O212 Mg194 2.061 . S
C213 O209 1.277 . S
C213 O211 1.245 1_554 S
O214 C188 1.289 . S
O214 Mg191 2.238 . S
O214 Mg192 2.106 . S
O215 Mg192 2.079 . S
O215 C197 1.245 . S
O216 Mg195 2.038 . S
O216 C197 1.274 . S
C217 O229 1.241 . S
C217 O230 1.280 . S
C218 O231 1.277 . S
C218 O232 1.245 . S
C219 O243 1.247 . S
C219 O245 1.289 . S
Mg220 O221 1.926 . S
Mg220 O230 1.984 . S
Mg220 O232 1.988 . S
Mg220 O233 2.061 . S
O221 Mg220 1.926 . S
O221 Mg222 1.986 . S
O221 Mg223 1.917 . S
Mg222 O221 1.986 . S
Mg222 O229 2.042 . S
Mg222 O231 2.041 . S
Mg222 O237 2.038 . S
Mg222 O245 2.238 . S
Mg223 O221 1.917 . S
Mg223 O224 1.917 . S
Mg223 O234 2.106 . S
Mg223 O236 2.079 . S
Mg223 O245 2.106 . S
Mg223 O246 2.079 . S
O224 Mg223 1.917 . S
O224 Mg225 1.926 . S
O224 Mg226 1.986 . S
Mg225 O224 1.926 . S
Mg225 O239 1.984 . S
Mg225 O242 1.988 . S
Mg225 O243 2.061 . S
Mg226 O224 1.986 . S
Mg226 O234 2.238 . S
Mg226 O238 2.042 . S
Mg226 O240 2.041 1_556 S
Mg226 O247 2.038 . S
C227 O233 1.247 . S
C227 O234 1.289 . S
C228 O246 1.245 . S
C228 O247 1.274 . S
O229 C217 1.241 . S
O229 Mg222 2.042 . S
O230 C217 1.280 . S
O230 Mg220 1.984 . S
O231 C218 1.277 . S
O231 Mg222 2.041 . S
O232 C218 1.245 . S
O232 Mg220 1.988 . S
O233 Mg220 2.061 . S
O233 C227 1.247 . S
O234 Mg223 2.106 . S
O234 Mg226 2.238 . S
O234 C227 1.289 . S
C235 O236 1.245 . S
C235 O237 1.274 . S
O236 Mg223 2.079 . S
O236 C235 1.245 . S
O237 Mg222 2.038 . S
O237 C235 1.274 . S
O238 Mg226 2.042 . S
O238 C241 1.241 . S
O239 Mg225 1.984 . S
O239 C241 1.280 . S
O240 Mg226 2.041 1_554 S
O240 C244 1.277 . S
C241 O238 1.241 . S
C241 O239 1.280 . S
O242 Mg225 1.988 . S
O242 C244 1.245 1_556 S
O243 C219 1.247 . S
O243 Mg225 2.061 . S
C244 O240 1.277 . S
C244 O242 1.245 1_554 S
O245 C219 1.289 . S
O245 Mg222 2.238 . S
O245 Mg223 2.106 . S
O246 Mg223 2.079 . S
O246 C228 1.245 . S
O247 Mg226 2.038 . S
O247 C228 1.274 . S
C248 O260 1.241 . S
C248 O261 1.280 . S
C249 O262 1.277 . S
C249 O263 1.245 . S
C250 O274 1.247 . S
C250 O276 1.289 . S
Mg251 O252 1.926 . S
Mg251 O261 1.984 . S
Mg251 O263 1.988 . S
Mg251 O264 2.061 . S
O252 Mg251 1.926 . S
O252 Mg253 1.986 . S
O252 Mg254 1.917 . S
Mg253 O252 1.986 . S
Mg253 O260 2.042 . S
Mg253 O262 2.041 . S
Mg253 O268 2.038 . S
Mg253 O276 2.238 . S
Mg254 O252 1.917 . S
Mg254 O255 1.917 . S
Mg254 O265 2.106 . S
Mg254 O267 2.079 . S
Mg254 O276 2.106 . S
Mg254 O277 2.079 . S
O255 Mg254 1.917 . S
O255 Mg256 1.926 . S
O255 Mg257 1.986 . S
Mg256 O255 1.926 . S
Mg256 O270 1.984 . S
Mg256 O273 1.988 . S
Mg256 O274 2.061 . S
Mg257 O255 1.986 . S
Mg257 O265 2.238 . S
Mg257 O269 2.042 . S
Mg257 O271 2.041 1_556 S
Mg257 O278 2.038 . S
C258 O264 1.247 . S
C258 O265 1.289 . S
C259 O277 1.245 . S
C259 O278 1.274 . S
O260 C248 1.241 . S
O260 Mg253 2.042 . S
O261 C248 1.280 . S
O261 Mg251 1.984 . S
O262 C249 1.277 . S
O262 Mg253 2.041 . S
O263 C249 1.245 . S
O263 Mg251 1.988 . S
O264 Mg251 2.061 . S
O264 C258 1.247 . S
O265 Mg254 2.106 . S
O265 Mg257 2.238 . S
O265 C258 1.289 . S
C266 O267 1.245 . S
C266 O268 1.274 . S
O267 Mg254 2.079 . S
O267 C266 1.245 . S
O268 Mg253 2.038 . S
O268 C266 1.274 . S
O269 Mg257 2.042 . S
O269 C272 1.241 . S
O270 Mg256 1.984 . S
O270 C272 1.280 . S
O271 Mg257 2.041 1_554 S
O271 C275 1.277 . S
C272 O269 1.241 . S
C272 O270 1.280 . S
O273 Mg256 1.988 . S
O273 C275 1.245 1_556 S
O274 C250 1.247 . S
O274 Mg256 2.061 . S
C275 O271 1.277 . S
C275 O273 1.245 1_554 S
O276 C250 1.289 . S
O276 Mg253 2.238 . S
O276 Mg254 2.106 . S
O277 Mg254 2.079 . S
O277 C259 1.245 . S
O278 Mg257 2.038 . S
O278 C259 1.274 . S
C279 O291 1.241 . S
C279 O292 1.280 . S
C280 O293 1.277 . S
C280 O294 1.245 . S
C281 O305 1.247 . S
C281 O307 1.289 . S
Mg282 O283 1.926 . S
Mg282 O292 1.984 . S
Mg282 O294 1.988 . S
Mg282 O295 2.061 . S
O283 Mg282 1.926 . S
O283 Mg284 1.986 . S
O283 Mg285 1.917 . S
Mg284 O283 1.986 . S
Mg284 O291 2.042 . S
Mg284 O293 2.041 . S
Mg284 O299 2.038 . S
Mg284 O307 2.238 . S
Mg285 O283 1.917 . S
Mg285 O286 1.917 . S
Mg285 O296 2.106 . S
Mg285 O298 2.079 . S
Mg285 O307 2.106 . S
Mg285 O308 2.079 . S
O286 Mg285 1.917 . S
O286 Mg287 1.926 . S
O286 Mg288 1.986 . S
Mg287 O286 1.926 . S
Mg287 O301 1.984 . S
Mg287 O304 1.988 . S
Mg287 O305 2.061 . S
Mg288 O286 1.986 . S
Mg288 O296 2.238 . S
Mg288 O300 2.042 . S
Mg288 O302 2.041 . S
Mg288 O309 2.038 . S
C289 O295 1.247 . S
C289 O296 1.289 . S
C290 O308 1.245 . S
C290 O309 1.274 . S
O291 C279 1.241 . S
O291 Mg284 2.042 . S
O292 C279 1.280 . S
O292 Mg282 1.984 . S
O293 C280 1.277 . S
O293 Mg284 2.041 . S
O294 C280 1.245 . S
O294 Mg282 1.988 . S
O295 Mg282 2.061 . S
O295 C289 1.247 . S
O296 Mg285 2.106 . S
O296 Mg288 2.238 . S
O296 C289 1.289 . S
C297 O298 1.245 . S
C297 O299 1.274 . S
O298 Mg285 2.079 . S
O298 C297 1.245 . S
O299 Mg284 2.038 . S
O299 C297 1.274 . S
O300 Mg288 2.042 . S
O300 C303 1.241 . S
O301 Mg287 1.984 . S
O301 C303 1.280 . S
O302 Mg288 2.041 . S
O302 C306 1.277 . S
C303 O300 1.241 . S
C303 O301 1.280 . S
O304 Mg287 1.988 . S
O304 C306 1.245 . S
O305 C281 1.247 . S
O305 Mg287 2.061 . S
C306 O302 1.277 . S
C306 O304 1.245 . S
O307 C281 1.289 . S
O307 Mg284 2.238 . S
O307 Mg285 2.106 . S
O308 Mg285 2.079 . S
O308 C290 1.245 . S
O309 Mg288 2.038 . S
O309 C290 1.274 . S
C310 O322 1.241 . S
C310 O323 1.280 . S
C311 O324 1.277 . S
C311 O325 1.245 . S
C312 O336 1.247 . S
C312 O338 1.289 . S
Mg313 O314 1.926 . S
Mg313 O323 1.984 . S
Mg313 O325 1.988 . S
Mg313 O326 2.061 . S
O314 Mg313 1.926 . S
O314 Mg315 1.986 . S
O314 Mg316 1.917 . S
Mg315 O314 1.986 . S
Mg315 O322 2.042 . S
Mg315 O324 2.041 . S
Mg315 O330 2.038 . S
Mg315 O338 2.238 . S
Mg316 O314 1.917 . S
Mg316 O317 1.917 . S
Mg316 O327 2.106 . S
Mg316 O329 2.079 . S
Mg316 O338 2.106 . S
Mg316 O339 2.079 . S
O317 Mg316 1.917 . S
O317 Mg318 1.926 . S
O317 Mg319 1.986 . S
Mg318 O317 1.926 . S
Mg318 O332 1.984 . S
Mg318 O335 1.988 . S
Mg318 O336 2.061 . S
Mg319 O317 1.986 . S
Mg319 O327 2.238 . S
Mg319 O331 2.042 . S
Mg319 O333 2.041 . S
Mg319 O340 2.038 . S
C320 O326 1.247 . S
C320 O327 1.289 . S
C321 O339 1.245 . S
C321 O340 1.274 . S
O322 C310 1.241 . S
O322 Mg315 2.042 . S
O323 C310 1.280 . S
O323 Mg313 1.984 . S
O324 C311 1.277 . S
O324 Mg315 2.041 . S
O325 C311 1.245 . S
O325 Mg313 1.988 . S
O326 Mg313 2.061 . S
O326 C320 1.247 . S
O327 Mg316 2.106 . S
O327 Mg319 2.238 . S
O327 C320 1.289 . S
C328 O329 1.245 . S
C328 O330 1.274 . S
O329 Mg316 2.079 . S
O329 C328 1.245 . S
O330 Mg315 2.038 . S
O330 C328 1.274 . S
O331 Mg319 2.042 . S
O331 C334 1.241 . S
O332 Mg318 1.984 . S
O332 C334 1.280 . S
O333 Mg319 2.041 . S
O333 C337 1.277 . S
C334 O331 1.241 . S
C334 O332 1.280 . S
O335 Mg318 1.988 . S
O335 C337 1.245 . S
O336 C312 1.247 . S
O336 Mg318 2.061 . S
C337 O333 1.277 . S
C337 O335 1.245 . S
O338 C312 1.289 . S
O338 Mg315 2.238 . S
O338 Mg316 2.106 . S
O339 Mg316 2.079 . S
O339 C321 1.245 . S
O340 Mg319 2.038 . S
O340 C321 1.274 . S
C341 O353 1.241 . S
C341 O354 1.280 . S
C342 O355 1.277 . S
C342 O356 1.245 . S
C343 O367 1.247 . S
C343 O369 1.289 . S
Mg344 O345 1.926 . S
Mg344 O354 1.984 . S
Mg344 O356 1.988 . S
Mg344 O357 2.061 . S
O345 Mg344 1.926 . S
O345 Mg346 1.986 . S
O345 Mg347 1.917 . S
Mg346 O345 1.986 . S
Mg346 O353 2.042 . S
Mg346 O355 2.041 . S
Mg346 O361 2.038 . S
Mg346 O369 2.238 . S
Mg347 O345 1.917 . S
Mg347 O348 1.917 . S
Mg347 O358 2.106 . S
Mg347 O360 2.079 . S
Mg347 O369 2.106 . S
Mg347 O370 2.079 . S
O348 Mg347 1.917 . S
O348 Mg349 1.926 . S
O348 Mg350 1.986 . S
Mg349 O348 1.926 . S
Mg349 O363 1.984 . S
Mg349 O366 1.988 . S
Mg349 O367 2.061 . S
Mg350 O348 1.986 . S
Mg350 O358 2.238 . S
Mg350 O362 2.042 . S
Mg350 O364 2.041 . S
Mg350 O371 2.038 . S
C351 O357 1.247 . S
C351 O358 1.289 . S
C352 O370 1.245 . S
C352 O371 1.274 . S
O353 C341 1.241 . S
O353 Mg346 2.042 . S
O354 C341 1.280 . S
O354 Mg344 1.984 . S
O355 C342 1.277 . S
O355 Mg346 2.041 . S
O356 C342 1.245 . S
O356 Mg344 1.988 . S
O357 Mg344 2.061 . S
O357 C351 1.247 . S
O358 Mg347 2.106 . S
O358 Mg350 2.238 . S
O358 C351 1.289 . S
C359 O360 1.245 . S
C359 O361 1.274 . S
O360 Mg347 2.079 . S
O360 C359 1.245 . S
O361 Mg346 2.038 . S
O361 C359 1.274 . S
O362 Mg350 2.042 . S
O362 C365 1.241 . S
O363 Mg349 1.984 . S
O363 C365 1.280 . S
O364 Mg350 2.041 . S
O364 C368 1.277 . S
C365 O362 1.241 . S
C365 O363 1.280 . S
O366 Mg349 1.988 . S
O366 C368 1.245 . S
O367 C343 1.247 . S
O367 Mg349 2.061 . S
C368 O364 1.277 . S
C368 O366 1.245 . S
O369 C343 1.289 . S
O369 Mg346 2.238 . S
O369 Mg347 2.106 . S
O370 Mg347 2.079 . S
O370 C352 1.245 . S
O371 Mg350 2.038 . S
O371 C352 1.274 . S
C372 C373 1.387 . S
C372 H376 0.950 . S
C372 C381 1.390 . S
C373 C372 1.387 . S
C373 C375 1.387 . S
H374 C381 0.950 . S
C375 C373 1.387 . S
C375 C377 1.390 . S
C375 H379 0.950 . S
H376 C372 0.950 . S
C377 C375 1.390 . S
C377 C378 1.387 . S
C377 H380 0.950 . S
C378 C377 1.387 . S
C378 C381 1.387 . S
H379 C375 0.950 . S
H380 C377 0.950 . S
C381 C372 1.390 . S
C381 H374 0.950 . S
C381 C378 1.387 . S
C382 C383 1.387 . S
C382 H386 0.950 . S
C382 C391 1.390 . S
C383 C382 1.387 . S
C383 C385 1.387 . S
H384 C391 0.950 . S
C385 C383 1.387 . S
C385 C387 1.390 . S
C385 H389 0.950 . S
H386 C382 0.950 . S
C387 C385 1.390 . S
C387 C388 1.387 . S
C387 H390 0.950 . S
C388 C387 1.387 . S
C388 C391 1.387 . S
H389 C385 0.950 . S
H390 C387 0.950 . S
C391 C382 1.390 . S
C391 H384 0.950 . S
C391 C388 1.387 . S
C392 C393 1.387 . S
C392 H396 0.950 . S
C392 C401 1.390 . S
C393 C392 1.387 . S
C393 C395 1.387 . S
H394 C401 0.950 . S
C395 C393 1.387 . S
C395 C397 1.390 . S
C395 H399 0.950 . S
H396 C392 0.950 . S
C397 C395 1.390 . S
C397 C398 1.387 . S
C397 H400 0.950 . S
C398 C397 1.387 . S
C398 C401 1.387 . S
H399 C395 0.950 . S
H400 C397 0.950 . S
C401 C392 1.390 . S
C401 H394 0.950 . S
C401 C398 1.387 . S
C402 C403 1.387 . S
C402 H406 0.950 . S
C402 C411 1.390 . S
C403 C402 1.387 . S
C403 C405 1.387 . S
H404 C411 0.950 . S
C405 C403 1.387 . S
C405 C407 1.390 . S
C405 H409 0.950 . S
H406 C402 0.950 . S
C407 C405 1.390 . S
C407 C408 1.387 . S
C407 H410 0.950 . S
C408 C407 1.387 . S
C408 C411 1.387 . S
H409 C405 0.950 . S
H410 C407 0.950 . S
C411 C402 1.390 . S
C411 H404 0.950 . S
C411 C408 1.387 . S
C412 C413 1.387 . S
C412 H416 0.950 . S
C412 C421 1.390 . S
C413 C412 1.387 . S
C413 C415 1.387 . S
H414 C421 0.950 . S
C415 C413 1.387 . S
C415 C417 1.390 . S
C415 H419 0.950 . S
H416 C412 0.950 . S
C417 C415 1.390 . S
C417 C418 1.387 . S
C417 H420 0.950 . S
C418 C417 1.387 . S
C418 C421 1.387 . S
H419 C415 0.950 . S
H420 C417 0.950 . S
C421 C412 1.390 . S
C421 H414 0.950 . S
C421 C418 1.387 . S
C422 C423 1.387 . S
C422 H426 0.950 . S
C422 C431 1.390 . S
C423 C422 1.387 . S
C423 C425 1.387 . S
H424 C431 0.950 . S
C425 C423 1.387 . S
C425 C427 1.390 . S
C425 H429 0.950 . S
H426 C422 0.950 . S
C427 C425 1.390 . S
C427 C428 1.387 . S
C427 H430 0.950 . S
C428 C427 1.387 . S
C428 C431 1.387 . S
H429 C425 0.950 . S
H430 C427 0.950 . S
C431 C422 1.390 . S
C431 H424 0.950 . S
C431 C428 1.387 . S
C432 C433 1.387 . S
C432 H436 0.950 . S
C432 C441 1.390 . S
C433 C432 1.387 . S
C433 C435 1.387 . S
H434 C441 0.950 . S
C435 C433 1.387 . S
C435 C437 1.390 . S
C435 H439 0.950 . S
H436 C432 0.950 . S
C437 C435 1.390 . S
C437 C438 1.387 . S
C437 H440 0.950 . S
C438 C437 1.387 . S
C438 C441 1.387 . S
H439 C435 0.950 . S
H440 C437 0.950 . S
C441 C432 1.390 . S
C441 H434 0.950 . S
C441 C438 1.387 . S
C442 C443 1.387 . S
C442 H446 0.950 . S
C442 C451 1.390 . S
C443 C442 1.387 . S
C443 C445 1.387 . S
H444 C451 0.950 . S
C445 C443 1.387 . S
C445 C447 1.390 . S
C445 H449 0.950 . S
H446 C442 0.950 . S
C447 C445 1.390 . S
C447 C448 1.387 . S
C447 H450 0.950 . S
C448 C447 1.387 . S
C448 C451 1.387 . S
H449 C445 0.950 . S
H450 C447 0.950 . S
C451 C442 1.390 . S
C451 H444 0.950 . S
C451 C448 1.387 . S
C452 C453 1.387 . S
C452 H456 0.950 . S
C452 C461 1.390 . S
C453 C452 1.387 . S
C453 C455 1.387 . S
H454 C461 0.950 . S
C455 C453 1.387 . S
C455 C457 1.390 . S
C455 H459 0.950 . S
H456 C452 0.950 . S
C457 C455 1.390 . S
C457 C458 1.387 . S
C457 H460 0.950 . S
C458 C457 1.387 . S
C458 C461 1.387 . S
H459 C455 0.950 . S
H460 C457 0.950 . S
C461 C452 1.390 . S
C461 H454 0.950 . S
C461 C458 1.387 . S
C462 C463 1.387 . S
C462 H466 0.950 . S
C462 C471 1.390 . S
C463 C462 1.387 . S
C463 C465 1.387 . S
H464 C471 0.950 . S
C465 C463 1.387 . S
C465 C467 1.390 . S
C465 H469 0.950 . S
H466 C462 0.950 . S
C467 C465 1.390 . S
C467 C468 1.387 . S
C467 H470 0.950 . S
C468 C467 1.387 . S
C468 C471 1.387 . S
H469 C465 0.950 . S
H470 C467 0.950 . S
C471 C462 1.390 . S
C471 H464 0.950 . S
C471 C468 1.387 . S
C472 C473 1.387 . S
C472 H476 0.950 . S
C472 C481 1.390 . S
C473 C472 1.387 . S
C473 C475 1.387 . S
H474 C481 0.950 . S
C475 C473 1.387 . S
C475 C477 1.390 . S
C475 H479 0.950 . S
H476 C472 0.950 . S
C477 C475 1.390 . S
C477 C478 1.387 . S
C477 H480 0.950 . S
C478 C477 1.387 . S
C478 C481 1.387 . S
H479 C475 0.950 . S
H480 C477 0.950 . S
C481 C472 1.390 . S
C481 H474 0.950 . S
C481 C478 1.387 . S
C482 C483 1.387 . S
C482 H486 0.950 . S
C482 C491 1.390 . S
C483 C482 1.387 . S
C483 C485 1.387 . S
H484 C491 0.950 . S
C485 C483 1.387 . S
C485 C487 1.390 . S
C485 H489 0.950 . S
H486 C482 0.950 . S
C487 C485 1.390 . S
C487 C488 1.387 . S
C487 H490 0.950 . S
C488 C487 1.387 . S
C488 C491 1.387 . S
H489 C485 0.950 . S
H490 C487 0.950 . S
C491 C482 1.390 . S
C491 H484 0.950 . S
C491 C488 1.387 . S
C492 C493 1.387 . S
C492 H496 0.950 . S
C492 C501 1.390 . S
C493 C492 1.387 . S
C493 C495 1.387 1_556 S
H494 C501 0.950 . S
C495 C493 1.387 1_554 S
C495 C497 1.390 . S
C495 H499 0.950 . S
H496 C492 0.950 . S
C497 C495 1.390 . S
C497 C498 1.387 . S
C497 H500 0.950 . S
C498 C497 1.387 . S
C498 C501 1.387 1_554 S
H499 C495 0.950 . S
H500 C497 0.950 . S
C501 C492 1.390 . S
C501 H494 0.950 . S
C501 C498 1.387 1_556 S
C502 C503 1.387 . S
C502 H506 0.950 . S
C502 C511 1.390 1_554 S
C503 C502 1.387 . S
C503 C505 1.387 1_545 S
H504 C511 0.950 . S
C505 C503 1.387 1_565 S
C505 C507 1.390 1_554 S
C505 H509 0.950 . S
H506 C502 0.950 . S
C507 C505 1.390 1_556 S
C507 C508 1.387 . S
C507 H510 0.950 . S
C508 C507 1.387 . S
C508 C511 1.387 1_565 S
H509 C505 0.950 . S
H510 C507 0.950 . S
C511 C502 1.390 1_556 S
C511 H504 0.950 . S
C511 C508 1.387 1_545 S
C512 C513 1.387 1_455 S
C512 H516 0.950 . S
C512 C521 1.390 1_554 S
C513 C512 1.387 1_655 S
C513 C515 1.387 . S
H514 C521 0.950 . S
C515 C513 1.387 . S
C515 C517 1.390 1_554 S
C515 H519 0.950 . S
H516 C512 0.950 . S
C517 C515 1.390 1_556 S
C517 C518 1.387 1_655 S
C517 H520 0.950 . S
C518 C517 1.387 1_455 S
C518 C521 1.387 . S
H519 C515 0.950 . S
H520 C517 0.950 . S
C521 C512 1.390 1_556 S
C521 H514 0.950 . S
C521 C518 1.387 . S
C522 C523 1.387 . S
C522 H526 0.950 . S
C522 C531 1.390 . S
C523 C522 1.387 . S
C523 C525 1.387 . S
H524 C531 0.950 . S
C525 C523 1.387 . S
C525 C527 1.390 . S
C525 H529 0.950 . S
H526 C522 0.950 . S
C527 C525 1.390 . S
C527 C528 1.387 . S
C527 H530 0.950 . S
C528 C527 1.387 . S
C528 C531 1.387 . S
H529 C525 0.950 . S
H530 C527 0.950 . S
C531 C522 1.390 . S
C531 H524 0.950 . S
C531 C528 1.387 . S
C532 C533 1.387 . S
C532 H536 0.950 . S
C532 C541 1.390 . S
C533 C532 1.387 . S
C533 C535 1.387 1_565 S
H534 C541 0.950 . S
C535 C533 1.387 1_545 S
C535 C537 1.390 . S
C535 H539 0.950 . S
H536 C532 0.950 . S
C537 C535 1.390 . S
C537 C538 1.387 . S
C537 H540 0.950 . S
C538 C537 1.387 . S
C538 C541 1.387 1_545 S
H539 C535 0.950 . S
H540 C537 0.950 . S
C541 C532 1.390 . S
C541 H534 0.950 . S
C541 C538 1.387 1_565 S
C542 C543 1.387 1_455 S
C542 H546 0.950 . S
C542 C551 1.390 . S
C543 C542 1.387 1_655 S
C543 C545 1.387 . S
H544 C551 0.950 . S
C545 C543 1.387 . S
C545 C547 1.390 . S
C545 H549 0.950 . S
H546 C542 0.950 . S
C547 C545 1.390 . S
C547 C548 1.387 1_655 S
C547 H550 0.950 . S
C548 C547 1.387 1_455 S
C548 C551 1.387 . S
H549 C545 0.950 . S
H550 C547 0.950 . S
C551 C542 1.390 . S
C551 H544 0.950 . S
C551 C548 1.387 . S
C552 C553 1.387 . S
C552 H556 0.950 . S
C552 C561 1.390 . S
C553 C552 1.387 . S
C553 C555 1.387 . S
H554 C561 0.950 . S
C555 C553 1.387 . S
C555 C557 1.390 . S
C555 H559 0.950 . S
H556 C552 0.950 . S
C557 C555 1.390 . S
C557 C558 1.387 . S
C557 H560 0.950 . S
C558 C557 1.387 . S
C558 C561 1.387 . S
H559 C555 0.950 . S
H560 C557 0.950 . S
C561 C552 1.390 . S
C561 H554 0.950 . S
C561 C558 1.387 . S
C562 C563 1.387 . S
C562 H566 0.950 . S
C562 C571 1.390 . S
C563 C562 1.387 . S
C563 C565 1.387 . S
H564 C571 0.950 . S
C565 C563 1.387 . S
C565 C567 1.390 . S
C565 H569 0.950 . S
H566 C562 0.950 . S
C567 C565 1.390 . S
C567 C568 1.387 . S
C567 H570 0.950 . S
C568 C567 1.387 . S
C568 C571 1.387 . S
H569 C565 0.950 . S
H570 C567 0.950 . S
C571 C562 1.390 . S
C571 H564 0.950 . S
C571 C568 1.387 . S
C572 C573 1.387 . S
C572 H576 0.950 . S
C572 C581 1.390 . S
C573 C572 1.387 . S
C573 C575 1.387 . S
H574 C581 0.950 . S
C575 C573 1.387 . S
C575 C577 1.390 . S
C575 H579 0.950 . S
H576 C572 0.950 . S
C577 C575 1.390 . S
C577 C578 1.387 . S
C577 H580 0.950 . S
C578 C577 1.387 . S
C578 C581 1.387 . S
H579 C575 0.950 . S
H580 C577 0.950 . S
C581 C572 1.390 . S
C581 H574 0.950 . S
C581 C578 1.387 . S
C582 C583 1.387 . S
C582 H586 0.950 . S
C582 C591 1.390 . S
C583 C582 1.387 . S
C583 C585 1.387 . S
H584 C591 0.950 . S
C585 C583 1.387 . S
C585 C587 1.390 . S
C585 H589 0.950 . S
H586 C582 0.950 . S
C587 C585 1.390 . S
C587 C588 1.387 . S
C587 H590 0.950 . S
C588 C587 1.387 . S
C588 C591 1.387 . S
H589 C585 0.950 . S
H590 C587 0.950 . S
C591 C582 1.390 . S
C591 H584 0.950 . S
C591 C588 1.387 . S
C592 C593 1.387 . S
C592 H596 0.950 . S
C592 C601 1.390 . S
C593 C592 1.387 . S
C593 C595 1.387 . S
H594 C601 0.950 . S
C595 C593 1.387 . S
C595 C597 1.390 . S
C595 H599 0.950 . S
H596 C592 0.950 . S
C597 C595 1.390 . S
C597 C598 1.387 . S
C597 H600 0.950 . S
C598 C597 1.387 . S
C598 C601 1.387 . S
H599 C595 0.950 . S
H600 C597 0.950 . S
C601 C592 1.390 . S
C601 H594 0.950 . S
C601 C598 1.387 . S
C602 C603 1.387 . S
C602 H606 0.950 . S
C602 C611 1.390 . S
C603 C602 1.387 . S
C603 C605 1.387 . S
H604 C611 0.950 . S
C605 C603 1.387 . S
C605 C607 1.390 . S
C605 H609 0.950 . S
H606 C602 0.950 . S
C607 C605 1.390 . S
C607 C608 1.387 . S
C607 H610 0.950 . S
C608 C607 1.387 . S
C608 C611 1.387 . S
H609 C605 0.950 . S
H610 C607 0.950 . S
C611 C602 1.390 . S
C611 H604 0.950 . S
C611 C608 1.387 . S
C612 C613 1.387 . S
C612 H616 0.950 . S
C612 C621 1.390 . S
C613 C612 1.387 . S
C613 C615 1.387 . S
H614 C621 0.950 . S
C615 C613 1.387 . S
C615 C617 1.390 . S
C615 H619 0.950 . S
H616 C612 0.950 . S
C617 C615 1.390 . S
C617 C618 1.387 . S
C617 H620 0.950 . S
C618 C617 1.387 . S
C618 C621 1.387 . S
H619 C615 0.950 . S
H620 C617 0.950 . S
C621 C612 1.390 . S
C621 H614 0.950 . S
C621 C618 1.387 . S
C622 C623 1.387 . S
C622 H626 0.950 . S
C622 C631 1.390 . S
C623 C622 1.387 . S
C623 C625 1.387 . S
H624 C631 0.950 . S
C625 C623 1.387 . S
C625 C627 1.390 . S
C625 H629 0.950 . S
H626 C622 0.950 . S
C627 C625 1.390 . S
C627 C628 1.387 . S
C627 H630 0.950 . S
C628 C627 1.387 . S
C628 C631 1.387 . S
H629 C625 0.950 . S
H630 C627 0.950 . S
C631 C622 1.390 . S
C631 H624 0.950 . S
C631 C628 1.387 . S
C632 C633 1.387 . S
C632 H636 0.950 . S
C632 C641 1.390 . S
C633 C632 1.387 . S
C633 C635 1.387 . S
H634 C641 0.950 . S
C635 C633 1.387 . S
C635 C637 1.390 . S
C635 H639 0.950 . S
H636 C632 0.950 . S
C637 C635 1.390 . S
C637 C638 1.387 . S
C637 H640 0.950 . S
C638 C637 1.387 . S
C638 C641 1.387 . S
H639 C635 0.950 . S
H640 C637 0.950 . S
C641 C632 1.390 . S
C641 H634 0.950 . S
C641 C638 1.387 . S
C642 C643 1.387 . S
C642 H646 0.950 . S
C642 C651 1.390 . S
C643 C642 1.387 . S
C643 C645 1.387 . S
H644 C651 0.950 . S
C645 C643 1.387 . S
C645 C647 1.390 . S
C645 H649 0.950 . S
H646 C642 0.950 . S
C647 C645 1.390 . S
C647 C648 1.387 . S
C647 H650 0.950 . S
C648 C647 1.387 . S
C648 C651 1.387 . S
H649 C645 0.950 . S
H650 C647 0.950 . S
C651 C642 1.390 . S
C651 H644 0.950 . S
C651 C648 1.387 . S
C652 C653 1.387 . S
C652 H656 0.950 . S
C652 C661 1.390 . S
C653 C652 1.387 . S
C653 C655 1.387 . S
H654 C661 0.950 . S
C655 C653 1.387 . S
C655 C657 1.390 . S
C655 H659 0.950 . S
H656 C652 0.950 . S
C657 C655 1.390 . S
C657 C658 1.387 . S
C657 H660 0.950 . S
C658 C657 1.387 . S
C658 C661 1.387 . S
H659 C655 0.950 . S
H660 C657 0.950 . S
C661 C652 1.390 . S
C661 H654 0.950 . S
C661 C658 1.387 . S
C662 C663 1.387 . S
C662 H666 0.950 . S
C662 C671 1.390 . S
C663 C662 1.387 . S
C663 C665 1.387 . S
H664 C671 0.950 . S
C665 C663 1.387 . S
C665 C667 1.390 . S
C665 H669 0.950 . S
H666 C662 0.950 . S
C667 C665 1.390 . S
C667 C668 1.387 . S
C667 H670 0.950 . S
C668 C667 1.387 . S
C668 C671 1.387 . S
H669 C665 0.950 . S
H670 C667 0.950 . S
C671 C662 1.390 . S
C671 H664 0.950 . S
C671 C668 1.387 . S
C672 C673 1.387 . S
C672 H676 0.950 . S
C672 C681 1.390 . S
C673 C672 1.387 . S
C673 C675 1.387 . S
H674 C681 0.950 . S
C675 C673 1.387 . S
C675 C677 1.390 . S
C675 H679 0.950 . S
H676 C672 0.950 . S
C677 C675 1.390 . S
C677 C678 1.387 . S
C677 H680 0.950 . S
C678 C677 1.387 . S
C678 C681 1.387 . S
H679 C675 0.950 . S
H680 C677 0.950 . S
C681 C672 1.390 . S
C681 H674 0.950 . S
C681 C678 1.387 . S
C682 C683 1.387 . S
C682 H686 0.950 . S
C682 C691 1.390 1_565 S
C683 C682 1.387 . S
C683 C685 1.387 . S
H684 C691 0.950 . S
C685 C683 1.387 . S
C685 C687 1.390 1_565 S
C685 H689 0.950 . S
H686 C682 0.950 . S
C687 C685 1.390 1_545 S
C687 C688 1.387 . S
C687 H690 0.950 . S
C688 C687 1.387 . S
C688 C691 1.387 . S
H689 C685 0.950 . S
H690 C687 0.950 . S
C691 C682 1.390 1_545 S
C691 H684 0.950 . S
C691 C688 1.387 . S
C692 C693 1.387 . S
C692 H696 0.950 . S
C692 C701 1.390 1_455 S
C693 C692 1.387 . S
C693 C695 1.387 . S
H694 C701 0.950 . S
C695 C693 1.387 . S
C695 C697 1.390 1_455 S
C695 H699 0.950 . S
H696 C692 0.950 . S
C697 C695 1.390 1_655 S
C697 C698 1.387 . S
C697 H700 0.950 . S
C698 C697 1.387 . S
C698 C701 1.387 . S
H699 C695 0.950 . S
H700 C697 0.950 . S
C701 C692 1.390 1_655 S
C701 H694 0.950 . S
C701 C698 1.387 . S
C702 C703 1.387 . S
C702 H706 0.950 . S
C702 C711 1.390 . S
C703 C702 1.387 . S
C703 C705 1.387 . S
H704 C711 0.950 . S
C705 C703 1.387 . S
C705 C707 1.390 . S
C705 H709 0.950 . S
H706 C702 0.950 . S
C707 C705 1.390 . S
C707 C708 1.387 . S
C707 H710 0.950 . S
C708 C707 1.387 . S
C708 C711 1.387 . S
H709 C705 0.950 . S
H710 C707 0.950 . S
C711 C702 1.390 . S
C711 H704 0.950 . S
C711 C708 1.387 . S
C712 C713 1.387 . S
C712 H716 0.950 . S
C712 C721 1.390 1_565 S
C713 C712 1.387 . S
C713 C715 1.387 . S
H714 C721 0.950 . S
C715 C713 1.387 . S
C715 C717 1.390 1_565 S
C715 H719 0.950 . S
H716 C712 0.950 . S
C717 C715 1.390 1_545 S
C717 C718 1.387 . S
C717 H720 0.950 . S
C718 C717 1.387 . S
C718 C721 1.387 . S
H719 C715 0.950 . S
H720 C717 0.950 . S
C721 C712 1.390 1_545 S
C721 H714 0.950 . S
C721 C718 1.387 . S
C722 C723 1.387 . S
C722 H726 0.950 . S
C722 C731 1.390 1_655 S
C723 C722 1.387 . S
C723 C725 1.387 . S
H724 C731 0.950 . S
C725 C723 1.387 . S
C725 C727 1.390 1_655 S
C725 H729 0.950 . S
H726 C722 0.950 . S
C727 C725 1.390 1_455 S
C727 C728 1.387 . S
C727 H730 0.950 . S
C728 C727 1.387 . S
C728 C731 1.387 . S
H729 C725 0.950 . S
H730 C727 0.950 . S
C731 C722 1.390 1_455 S
C731 H724 0.950 . S
C731 C728 1.387 . S
C732 C733 1.387 . S
C732 H736 0.950 . S
C732 C741 1.390 . S
C733 C732 1.387 . S
C733 C735 1.387 . S
H734 C741 0.950 1_554 S
C735 C733 1.387 . S
C735 C737 1.390 . S
C735 H739 0.950 . S
H736 C732 0.950 . S
C737 C735 1.390 . S
C737 C738 1.387 . S
C737 H740 0.950 . S
C738 C737 1.387 . S
C738 C741 1.387 . S
H739 C735 0.950 . S
H740 C737 0.950 . S
C741 C732 1.390 . S
C741 H734 0.950 1_556 S
C741 C738 1.387 . S
C742 C743 1.387 . S
C742 H746 0.950 . S
C742 C751 1.390 . S
C743 C742 1.387 . S
C743 C745 1.387 . S
H744 C751 0.950 . S
C745 C743 1.387 . S
C745 C747 1.390 . S
C745 H749 0.950 . S
H746 C742 0.950 . S
C747 C745 1.390 . S
C747 C748 1.387 . S
C747 H750 0.950 . S
C748 C747 1.387 . S
C748 C751 1.387 . S
H749 C745 0.950 . S
H750 C747 0.950 . S
C751 C742 1.390 . S
C751 H744 0.950 . S
C751 C748 1.387 . S
C752 C753 1.387 . S
C752 H756 0.950 . S
C752 C761 1.390 . S
C753 C752 1.387 . S
C753 C755 1.387 . S
H754 C761 0.950 . S
C755 C753 1.387 . S
C755 C757 1.390 . S
C755 H759 0.950 . S
H756 C752 0.950 . S
C757 C755 1.390 . S
C757 C758 1.387 . S
C757 H760 0.950 . S
C758 C757 1.387 . S
C758 C761 1.387 . S
H759 C755 0.950 . S
H760 C757 0.950 . S
C761 C752 1.390 . S
C761 H754 0.950 . S
C761 C758 1.387 . S
C762 C763 1.387 . S
C762 H766 0.950 . S
C762 C771 1.390 . S
C763 C762 1.387 . S
C763 C765 1.387 . S
H764 C771 0.950 . S
C765 C763 1.387 . S
C765 C767 1.390 . S
C765 H769 0.950 . S
H766 C762 0.950 . S
C767 C765 1.390 . S
C767 C768 1.387 . S
C767 H770 0.950 . S
C768 C767 1.387 . S
C768 C771 1.387 . S
H769 C765 0.950 . S
H770 C767 0.950 . S
C771 C762 1.390 . S
C771 H764 0.950 . S
C771 C768 1.387 . S
C772 C773 1.387 . S
C772 H776 0.950 . S
C772 C781 1.390 . S
C773 C772 1.387 . S
C773 C775 1.387 . S
H774 C781 0.950 . S
C775 C773 1.387 . S
C775 C777 1.390 . S
C775 H779 0.950 . S
H776 C772 0.950 . S
C777 C775 1.390 . S
C777 C778 1.387 . S
C777 H780 0.950 . S
C778 C777 1.387 . S
C778 C781 1.387 . S
H779 C775 0.950 . S
H780 C777 0.950 . S
C781 C772 1.390 . S
C781 H774 0.950 . S
C781 C778 1.387 . S
C782 C783 1.387 . S
C782 H786 0.950 . S
C782 C791 1.390 . S
C783 C782 1.387 . S
C783 C785 1.387 . S
H784 C791 0.950 . S
C785 C783 1.387 . S
C785 C787 1.390 . S
C785 H789 0.950 . S
H786 C782 0.950 . S
C787 C785 1.390 . S
C787 C788 1.387 . S
C787 H790 0.950 . S
C788 C787 1.387 . S
C788 C791 1.387 . S
H789 C785 0.950 . S
H790 C787 0.950 . S
C791 C782 1.390 . S
C791 H784 0.950 . S
C791 C788 1.387 . S
C792 C793 1.387 . S
C792 H796 0.950 . S
C792 C801 1.390 . S
C793 C792 1.387 . S
C793 C795 1.387 . S
H794 C801 0.950 . S
C795 C793 1.387 . S
C795 C797 1.390 . S
C795 H799 0.950 . S
H796 C792 0.950 . S
C797 C795 1.390 . S
C797 C798 1.387 . S
C797 H800 0.950 . S
C798 C797 1.387 . S
C798 C801 1.387 . S
H799 C795 0.950 . S
H800 C797 0.950 . S
C801 C792 1.390 . S
C801 H794 0.950 . S
C801 C798 1.387 . S
C802 C803 1.387 . S
C802 H806 0.950 . S
C802 C811 1.390 . S
C803 C802 1.387 . S
C803 C805 1.387 . S
H804 C811 0.950 . S
C805 C803 1.387 . S
C805 C807 1.390 . S
C805 H809 0.950 . S
H806 C802 0.950 . S
C807 C805 1.390 . S
C807 C808 1.387 . S
C807 H810 0.950 . S
C808 C807 1.387 . S
C808 C811 1.387 . S
H809 C805 0.950 . S
H810 C807 0.950 . S
C811 C802 1.390 . S
C811 H804 0.950 . S
C811 C808 1.387 . S
C812 C813 1.387 . S
C812 H816 0.950 1_554 S
C812 C821 1.390 . S
C813 C812 1.387 . S
C813 C815 1.387 . S
H814 C821 0.950 . S
C815 C813 1.387 . S
C815 C817 1.390 . S
C815 H819 0.950 . S
H816 C812 0.950 1_556 S
C817 C815 1.390 . S
C817 C818 1.387 . S
C817 H820 0.950 . S
C818 C817 1.387 . S
C818 C821 1.387 . S
H819 C815 0.950 . S
H820 C817 0.950 . S
C821 C812 1.390 . S
C821 H814 0.950 . S
C821 C818 1.387 . S
C822 C823 1.387 . S
C822 H826 0.950 . S
C822 C831 1.390 . S
C823 C822 1.387 . S
C823 C825 1.387 . S
H824 C831 0.950 . S
C825 C823 1.387 . S
C825 C827 1.390 . S
C825 H829 0.950 . S
H826 C822 0.950 . S
C827 C825 1.390 . S
C827 C828 1.387 . S
C827 H830 0.950 . S
C828 C827 1.387 . S
C828 C831 1.387 . S
H829 C825 0.950 . S
H830 C827 0.950 . S
C831 C822 1.390 . S
C831 H824 0.950 . S
C831 C828 1.387 . S
C832 C833 1.387 . S
C832 H836 0.950 . S
C832 C841 1.390 . S
C833 C832 1.387 . S
C833 C835 1.387 . S
H834 C841 0.950 . S
C835 C833 1.387 . S
C835 C837 1.390 . S
C835 H839 0.950 . S
H836 C832 0.950 . S
C837 C835 1.390 . S
C837 C838 1.387 . S
C837 H840 0.950 . S
C838 C837 1.387 . S
C838 C841 1.387 . S
H839 C835 0.950 . S
H840 C837 0.950 . S
C841 C832 1.390 . S
C841 H834 0.950 . S
C841 C838 1.387 . S
C842 C843 1.387 . S
C842 H846 0.950 . S
C842 C851 1.390 . S
C843 C842 1.387 . S
C843 C845 1.387 . S
H844 C851 0.950 . S
C845 C843 1.387 . S
C845 C847 1.390 . S
C845 H849 0.950 . S
H846 C842 0.950 . S
C847 C845 1.390 . S
C847 C848 1.387 . S
C847 H850 0.950 . S
C848 C847 1.387 . S
C848 C851 1.387 . S
H849 C845 0.950 . S
H850 C847 0.950 . S
C851 C842 1.390 . S
C851 H844 0.950 . S
C851 C848 1.387 . S
C373 C24 1.685 . S
C378 C42 1.396 . S
C383 C73 1.392 . S
C388 C55 1.684 . S
C393 C86 1.686 . S
C398 C11 1.396 . S
C403 C166 1.396 . S
C408 C117 1.686 . S
C413 C104 1.393 . S
C418 C148 1.684 . S
C423 C179 1.686 . S
C428 C135 1.396 . S
C433 C186 1.685 . S
C438 C235 1.391 . S
C443 C266 1.397 . S
C448 C217 1.686 . S
C453 C248 1.684 . S
C458 C204 1.394 . S
C463 C279 1.684 . S
C468 C359 1.391 . S
C473 C297 1.396 . S
C478 C310 1.686 . S
C483 C328 1.391 . S
C488 C341 1.685 . S
C493 C210 1.291 . S
C498 C0 1.291 . S
C503 C31 1.295 . S
C508 C241 1.295 . S
C513 C62 1.292 . S
C518 C272 1.292 . S
C523 C93 1.290 . S
C528 C303 1.290 . S
C533 C124 1.295 . S
C538 C334 1.295 . S
C543 C365 1.293 . S
C548 C155 1.293 . S
C553 C1 1.206 . S
C558 C281 1.183 . S
C563 C32 1.204 . S
C568 C312 1.181 . S
C573 C343 1.183 . S
C578 C63 1.206 . S
C583 C188 1.182 . S
C588 C94 1.203 . S
C593 C219 1.181 . S
C598 C125 1.204 . S
C603 C250 1.183 . S
C608 C156 1.206 . S
C613 C103 1.182 . S
C618 C213 1.205 . S
C623 C244 1.205 . S
C628 C134 1.184 . S
C633 C275 1.203 . S
C638 C165 1.181 . S
C643 C10 1.181 . S
C648 C306 1.203 . S
C653 C337 1.204 . S
C658 C41 1.181 . S
C663 C72 1.182 . S
C668 C368 1.205 . S
C673 C111 2.424 . S
C678 C18 2.426 . S
C683 C142 2.426 . S
C688 C49 2.426 . S
C693 C173 2.426 . S
C698 C80 2.424 . S
C703 C197 2.425 . S
C708 C290 2.427 . S
C713 C228 2.426 . S
C718 C321 2.426 . S
C723 C352 2.426 . S
C728 C259 2.424 . S
C733 C311 1.523 . S
C738 C2 1.700 1_556 S
C743 C33 1.702 1_556 S
C748 C342 1.523 . S
C753 C64 1.699 1_556 S
C758 C280 1.520 . S
C763 C95 1.702 . S
C768 C249 1.523 . S
C773 C187 1.520 . S
C778 C126 1.700 . S
C783 C218 1.520 . S
C788 C157 1.700 . S
C793 C196 1.699 1_554 S
C798 C151 1.519 . S
C803 C227 1.702 1_554 S
C808 C182 1.524 . S
C813 C258 1.700 1_554 S
C818 C120 1.521 . S
C823 C89 1.524 . S
C828 C289 1.702 . S
C833 C27 1.519 . S
C838 C320 1.699 . S
C843 C58 1.522 . S
C848 C351 1.700 . S
