# Generated by pormake.
# Topology une, (4)-cn, num edge types: 1
# Building blocks:
#     Node 0, Type 0, BuildingBlock: UXUYUI_clean_sbu_0, # of connection points: 4
#     Node 1, Type 0, BuildingBlock: UXUYUI_clean_sbu_0, # of connection points: 4
#     Node 2, Type 0, BuildingBlock: UXUYUI_clean_sbu_0, # of connection points: 4
#     Node 3, Type 0, BuildingBlock: UXUYUI_clean_sbu_0, # of connection points: 4
#     Node 4, Type 0, BuildingBlock: UXUYUI_clean_sbu_0, # of connection points: 4
#     Node 5, Type 0, BuildingBlock: UXUYUI_clean_sbu_0, # of connection points: 4
#     Node 6, Type 0, BuildingBlock: UXUYUI_clean_sbu_0, # of connection points: 4
#     Node 7, Type 0, BuildingBlock: UXUYUI_clean_sbu_0, # of connection points: 4
#     Node 8, Type 0, BuildingBlock: UXUYUI_clean_sbu_0, # of connection points: 4
#     Node 9, Type 0, BuildingBlock: UXUYUI_clean_sbu_0, # of connection points: 4
#     Node 10, Type 0, BuildingBlock: UXUYUI_clean_sbu_0, # of connection points: 4
#     Node 11, Type 0, BuildingBlock: UXUYUI_clean_sbu_0, # of connection points: 4
#     Node 12, Type 0, BuildingBlock: UXUYUI_clean_sbu_0, # of connection points: 4
#     Node 13, Type 0, BuildingBlock: UXUYUI_clean_sbu_0, # of connection points: 4
#     Node 14, Type 0, BuildingBlock: UXUYUI_clean_sbu_0, # of connection points: 4
#     Node 15, Type 0, BuildingBlock: UXUYUI_clean_sbu_0, # of connection points: 4
#     Node 16, Type 0, BuildingBlock: UXUYUI_clean_sbu_0, # of connection points: 4
#     Node 17, Type 0, BuildingBlock: UXUYUI_clean_sbu_0, # of connection points: 4
#     Edge 18, Type (0, 0), BuildingBlock: MIFKUJ_clean_linker_0, # of connection points: 2
#     Edge 19, Type (0, 0), BuildingBlock: MIFKUJ_clean_linker_0, # of connection points: 2
#     Edge 20, Type (0, 0), BuildingBlock: MIFKUJ_clean_linker_0, # of connection points: 2
#     Edge 21, Type (0, 0), BuildingBlock: MIFKUJ_clean_linker_0, # of connection points: 2
#     Edge 22, Type (0, 0), BuildingBlock: MIFKUJ_clean_linker_0, # of connection points: 2
#     Edge 23, Type (0, 0), BuildingBlock: MIFKUJ_clean_linker_0, # of connection points: 2
#     Edge 24, Type (0, 0), BuildingBlock: MIFKUJ_clean_linker_0, # of connection points: 2
#     Edge 25, Type (0, 0), BuildingBlock: MIFKUJ_clean_linker_0, # of connection points: 2
#     Edge 26, Type (0, 0), BuildingBlock: MIFKUJ_clean_linker_0, # of connection points: 2
#     Edge 27, Type (0, 0), BuildingBlock: MIFKUJ_clean_linker_0, # of connection points: 2
#     Edge 28, Type (0, 0), BuildingBlock: MIFKUJ_clean_linker_0, # of connection points: 2
#     Edge 29, Type (0, 0), BuildingBlock: MIFKUJ_clean_linker_0, # of connection points: 2
#     Edge 30, Type (0, 0), BuildingBlock: MIFKUJ_clean_linker_0, # of connection points: 2
#     Edge 31, Type (0, 0), BuildingBlock: MIFKUJ_clean_linker_0, # of connection points: 2
#     Edge 32, Type (0, 0), BuildingBlock: MIFKUJ_clean_linker_0, # of connection points: 2
#     Edge 33, Type (0, 0), BuildingBlock: MIFKUJ_clean_linker_0, # of connection points: 2
#     Edge 34, Type (0, 0), BuildingBlock: MIFKUJ_clean_linker_0, # of connection points: 2
#     Edge 35, Type (0, 0), BuildingBlock: MIFKUJ_clean_linker_0, # of connection points: 2
#     Edge 36, Type (0, 0), BuildingBlock: MIFKUJ_clean_linker_0, # of connection points: 2
#     Edge 37, Type (0, 0), BuildingBlock: MIFKUJ_clean_linker_0, # of connection points: 2
#     Edge 38, Type (0, 0), BuildingBlock: MIFKUJ_clean_linker_0, # of connection points: 2
#     Edge 39, Type (0, 0), BuildingBlock: MIFKUJ_clean_linker_0, # of connection points: 2
#     Edge 40, Type (0, 0), BuildingBlock: MIFKUJ_clean_linker_0, # of connection points: 2
#     Edge 41, Type (0, 0), BuildingBlock: MIFKUJ_clean_linker_0, # of connection points: 2
#     Edge 42, Type (0, 0), BuildingBlock: MIFKUJ_clean_linker_0, # of connection points: 2
#     Edge 43, Type (0, 0), BuildingBlock: MIFKUJ_clean_linker_0, # of connection points: 2
#     Edge 44, Type (0, 0), BuildingBlock: MIFKUJ_clean_linker_0, # of connection points: 2
#     Edge 45, Type (0, 0), BuildingBlock: MIFKUJ_clean_linker_0, # of connection points: 2
#     Edge 46, Type (0, 0), BuildingBlock: MIFKUJ_clean_linker_0, # of connection points: 2
#     Edge 47, Type (0, 0), BuildingBlock: MIFKUJ_clean_linker_0, # of connection points: 2
#     Edge 48, Type (0, 0), BuildingBlock: MIFKUJ_clean_linker_0, # of connection points: 2
#     Edge 49, Type (0, 0), BuildingBlock: MIFKUJ_clean_linker_0, # of connection points: 2
#     Edge 50, Type (0, 0), BuildingBlock: MIFKUJ_clean_linker_0, # of connection points: 2
#     Edge 51, Type (0, 0), BuildingBlock: MIFKUJ_clean_linker_0, # of connection points: 2
#     Edge 52, Type (0, 0), BuildingBlock: MIFKUJ_clean_linker_0, # of connection points: 2
#     Edge 53, Type (0, 0), BuildingBlock: MIFKUJ_clean_linker_0, # of connection points: 2
# Relax obj value: 0.347
# Max RMSD: 0.226
# Mean RMSD: 0.222
data_MOF--net-une--node1-UXUYUI_clean_sbu_0--edge1-MIFKUJ_clean_linker_0
_symmetry_space_group_name_H-M    P1
_symmetry_Int_Tables_number       1
_symmetry_cell_setting            triclinic
loop_
_symmetry_equiv_pos_as_xyz
'x, y, z'
_cell_length_a     66.134519
_cell_length_b     66.069529
_cell_length_c     94.470975
_cell_angle_alpha  89.941235
_cell_angle_beta   89.940669
_cell_angle_gamma 120.01052
loop_
_atom_site_label
_atom_site_type_symbol
_atom_site_fract_x
_atom_site_fract_y
_atom_site_fract_z
_atom_type_partial_charge
Li0 Li 0.34262 0.04826 0.05761 0.0
Li1 Li 0.34474 0.04398 0.08361 0.0
Li2 Li 0.36443 0.03043 0.06611 0.0
Li3 Li 0.32261 0.00958 0.0687 0.0
C4 C 0.38147 0.08527 0.06511 0.0
N5 N 0.40111 0.13036 0.05475 0.0
C6 C 0.37952 0.10232 0.07276 0.0
C7 C 0.39344 0.09118 0.0522 0.0
C8 C 0.38959 0.12502 0.06735 0.0
C9 C 0.40321 0.11405 0.04713 0.0
C10 C 0.29355 0.02641 0.07056 0.0
C11 C 0.25466 0.00095 0.07955 0.0
N12 N 0.24557 0.0045 0.06753 0.0
C13 C 0.28378 0.02981 0.0583 0.0
C14 C 0.27884 0.0119 0.0813 0.0
C15 C 0.2595 0.0186 0.05697 0.0
C16 C 0.34265 0.06391 0.0296 0.0
N17 N 0.34051 0.06768 0.04351 0.0
C18 C 0.33453 0.0995 0.03775 0.0
C19 C 0.33639 0.08496 0.04774 0.0
C20 C 0.33693 0.09618 0.0233 0.0
C21 C 0.34109 0.07815 0.01925 0.0
H22 H 0.34532 0.04971 0.0265 0.0
H23 H 0.33443 0.08732 0.05888 0.0
C24 C 0.36684 0.07294 0.10774 0.0
N25 N 0.34625 0.0593 0.10096 0.0
C26 C 0.36774 0.08667 0.11927 0.0
C27 C 0.32612 0.07103 0.11701 0.0
C28 C 0.32612 0.05808 0.1054 0.0
C29 C 0.34717 0.08588 0.12392 0.0
H30 H 0.38267 0.07393 0.1038 0.0
H31 H 0.31014 0.04763 0.09964 0.0
C32 C 0.34801 0.00907 0.0413 0.0
N33 N 0.36397 0.98836 0.02231 0.0
C34 C 0.33736 0.98471 0.0406 0.0
C35 C 0.36677 0.02287 0.03231 0.0
C36 C 0.34567 0.97459 0.03092 0.0
C37 C 0.37461 0.01207 0.02281 0.0
C38 C 0.33723 0.99788 0.09401 0.0
C39 C 0.34297 0.98021 0.09457 0.0
C40 C 0.32268 0.99886 0.1044 0.0
C41 C 0.33381 0.96362 0.10543 0.0
C42 C 0.31389 0.98197 0.11509 0.0
N43 N 0.31957 0.96483 0.11538 0.0
C44 C 0.41119 0.04452 0.05791 0.0
C45 C 0.38555 0.00373 0.06035 0.0
C46 C 0.42775 0.04064 0.05115 0.0
N47 N 0.39023 0.02612 0.06183 0.0
C48 C 0.40147 0.99904 0.05354 0.0
C49 C 0.4225 0.01763 0.04837 0.0
H50 H 0.41449 0.06215 0.05924 0.0
H51 H 0.36865 0.98944 0.06339 0.0
C52 C 0.28366 0.97902 0.05414 0.0
N53 N 0.29464 0.98007 0.0665 0.0
C54 C 0.26241 0.95942 0.05083 0.0
C55 C 0.26442 0.94154 0.07272 0.0
C56 C 0.28556 0.9618 0.07576 0.0
C57 C 0.25253 0.9404 0.06019 0.0
H58 H 0.29143 0.99363 0.04687 0.0
H59 H 0.29448 0.9628 0.08548 0.0
O60 O 0.3713 0.06281 0.07009 0.0
O61 O 0.31732 0.03686 0.07192 0.0
O62 O 0.34033 0.01933 0.05086 0.0
O63 O 0.34622 0.01437 0.08351 0.0
H64 H 0.37008 0.09806 0.08266 0.0
H65 H 0.39483 0.07816 0.04602 0.0
H66 H 0.38814 0.13836 0.07313 0.0
H67 H 0.41237 0.1188 0.03711 0.0
H68 H 0.24312 0.98954 0.08773 0.0
H69 H 0.29473 0.04071 0.04979 0.0
H70 H 0.28596 0.00871 0.09077 0.0
H71 H 0.25175 0.02101 0.04751 0.0
H72 H 0.33143 0.1133 0.0413 0.0
H73 H 0.34265 0.0748 0.0082 0.0
H74 H 0.38432 0.09807 0.12432 0.0
H75 H 0.30999 0.07031 0.1201 0.0
H76 H 0.32304 0.9737 0.04757 0.0
H77 H 0.3755 0.04172 0.03283 0.0
H78 H 0.33764 0.95578 0.03032 0.0
H79 H 0.38924 0.02255 0.01589 0.0
H80 H 0.35438 0.97928 0.08673 0.0
H81 H 0.31809 0.01238 0.10418 0.0
H82 H 0.33806 0.94981 0.10596 0.0
H83 H 0.30252 0.98247 0.12315 0.0
H84 H 0.44378 0.05543 0.04729 0.0
H85 H 0.3969 0.98106 0.05173 0.0
H86 H 0.25396 0.95898 0.04092 0.0
H87 H 0.25729 0.92707 0.08013 0.0
Li88 Li 0.96277 0.33525 0.06418 0.0
Li89 Li 0.98731 0.31872 0.06425 0.0
Li90 Li 0.95012 0.29893 0.0522 0.0
Li91 Li 0.95204 0.29916 0.07871 0.0
C92 C 0.98462 0.34943 0.03997 0.0
N93 N -0.00085 0.39075 0.02532 0.0
C94 C 0.00757 0.36791 0.04132 0.0
C95 C 0.96907 0.35207 0.03119 0.0
C96 C 0.01459 0.38861 0.03379 0.0
C97 C 0.97674 0.37307 0.02388 0.0
C98 C 0.99812 0.3395 0.08962 0.0
C99 C 0.01654 0.33593 0.11076 0.0
N100 N 0.03664 0.35564 0.10707 0.0
C101 C 0.01894 0.35976 0.08606 0.0
C102 C 0.99688 0.32749 0.10208 0.0
C103 C 0.03823 0.36762 0.09501 0.0
C104 C 0.94252 0.36322 0.05805 0.0
N105 N 0.96204 0.36374 0.06302 0.0
C106 C 0.98453 0.40495 0.05929 0.0
C107 C 0.98244 0.38422 0.06449 0.0
C108 C 0.9653 0.40457 0.05269 0.0
C109 C 0.94374 0.38358 0.05283 0.0
H110 H 0.92644 0.34676 0.05716 0.0
H111 H 0.9977 0.38416 0.06844 0.0
C112 C 0.02636 0.32787 0.04857 0.0
N113 N 0.01843 0.32376 0.06213 0.0
C114 C 0.04818 0.33084 0.04527 0.0
C115 C 0.05315 0.32423 0.06985 0.0
C116 C 0.03113 0.32144 0.0727 0.0
C117 C 0.06198 0.32923 0.05599 0.0
H118 H 0.0155 0.32834 0.04021 0.0
H119 H 0.02404 0.31694 0.08327 0.0
C120 C 0.90972 0.29232 0.06102 0.0
N121 N 0.86565 0.26325 0.05015 0.0
C122 C 0.89405 0.27193 0.06824 0.0
C123 C 0.90286 0.29801 0.04832 0.0
C124 C 0.87187 0.25746 0.06257 0.0
C125 C 0.88056 0.28305 0.04298 0.0
C126 C 0.97635 0.27449 0.0628 0.0
C127 C 0.98156 0.27089 0.04901 0.0
C128 C 0.98533 0.2682 0.0743 0.0
C129 C 0.99584 0.26116 0.04696 0.0
C130 C -0.00048 0.25848 0.07179 0.0
N131 N 0.00446 0.25522 0.05829 0.0
C132 C 0.93567 0.28605 0.02341 0.0
C133 C 0.9192 0.25577 0.04056 0.0
C134 C 0.92262 0.27036 0.0127 0.0
N135 N 0.93345 0.27856 0.03703 0.0
C136 C 0.90599 0.23949 0.03021 0.0
C137 C 0.90755 0.24675 0.01608 0.0
H138 H 0.9476 0.30412 0.02083 0.0
H139 H 0.91799 0.25032 0.05148 0.0
C140 C 0.92892 0.28868 0.10546 0.0
N141 N 0.93657 0.28051 0.09474 0.0
C142 C 0.91515 0.27362 0.1163 0.0
C143 C 0.91787 0.2423 0.10492 0.0
C144 C 0.93148 0.25789 0.09433 0.0
C145 C 0.90915 0.24998 0.11598 0.0
H146 H 0.93294 0.30669 0.10536 0.0
H147 H 0.93738 0.25176 0.08552 0.0
O148 O 0.97733 0.32906 0.04739 0.0
O149 O 0.97891 0.33168 0.08113 0.0
O150 O 0.93173 0.30645 0.06624 0.0
O151 O 0.96305 0.28472 0.06502 0.0
H152 H 0.01977 0.36651 0.04829 0.0
H153 H 0.95113 0.33826 0.03023 0.0
H154 H 0.03226 0.40305 0.03479 0.0
H155 H 0.96483 0.3754 0.01715 0.0
H156 H 0.01584 0.32679 0.12042 0.0
H157 H 0.02037 0.36908 0.07636 0.0
H158 H 0.98093 0.31181 0.10502 0.0
H159 H 0.05449 0.38317 0.09233 0.0
H160 H 0.00156 0.42059 0.05936 0.0
H161 H 0.9283 0.38258 0.0482 0.0
H162 H 0.05392 0.3338 0.03434 0.0
H163 H 0.06312 0.32249 0.07837 0.0
H164 H 0.89893 0.26722 0.07809 0.0
H165 H 0.91479 0.31354 0.04248 0.0
H166 H 0.85963 0.24158 0.06803 0.0
H167 H 0.87514 0.28714 0.0331 0.0
H168 H 0.97492 0.27588 0.04 0.0
H169 H 0.9817 0.27116 0.08504 0.0
H170 H 0.00016 0.25842 0.03635 0.0
H171 H 0.00673 0.25367 0.08059 0.0
H172 H 0.9245 0.27654 0.00189 0.0
H173 H 0.8944 0.22148 0.03326 0.0
H174 H 0.9086 0.28022 0.12454 0.0
H175 H 0.91396 0.22433 0.10434 0.0
Li176 Li 0.68326 0.67433 0.06598 0.0
Li177 Li 0.69777 0.6505 0.07729 0.0
Li178 Li 0.70071 0.65568 0.05189 0.0
Li179 Li 0.66308 0.63244 0.064 0.0
C180 C 0.731 0.70092 0.06025 0.0
N181 N 0.76173 0.74321 0.04778 0.0
C182 C 0.75306 0.71511 0.06614 0.0
C183 C 0.7246 0.70816 0.04797 0.0
C184 C 0.76835 0.73645 0.05969 0.0
C185 C 0.74037 0.72962 0.04185 0.0
C186 C 0.647 0.64014 0.08756 0.0
C187 C 0.61745 0.60919 0.10188 0.0
N188 N 0.60249 0.61712 0.09893 0.0
C189 C 0.63143 0.64815 0.08483 0.0
C190 C 0.64005 0.62066 0.09629 0.0
C191 C 0.60897 0.63622 0.09061 0.0
C192 C 0.6619 0.70031 0.05957 0.0
N193 N 0.68014 0.70128 0.06675 0.0
C194 C 0.69522 0.7417 0.07195 0.0
C195 C 0.69642 0.72124 0.07317 0.0
C196 C 0.67686 0.74131 0.06428 0.0
C197 C 0.65979 0.72018 0.05829 0.0
H198 H 0.6493 0.68419 0.05454 0.0
H199 H 0.71077 0.72149 0.0788 0.0
C200 C 0.73759 0.654 0.0887 0.0
N201 N 0.7159 0.64947 0.09248 0.0
C202 C 0.75299 0.65439 0.09887 0.0
C203 C 0.72355 0.64571 0.11676 0.0
C204 C 0.70859 0.64534 0.10617 0.0
C205 C 0.74609 0.65031 0.11313 0.0
H206 H 0.74297 0.65752 0.07774 0.0
H207 H 0.6913 0.64201 0.10888 0.0
C208 C 0.66086 0.64551 0.03601 0.0
N209 N 0.63904 0.6237 0.01107 0.0
C210 C 0.65986 0.62466 0.03194 0.0
C211 C 0.6508 0.65526 0.02736 0.0
C212 C 0.64872 0.6139 0.01931 0.0
C213 C 0.63988 0.64398 0.01479 0.0
C214 C 0.69567 0.61149 0.06866 0.0
C215 C 0.7143 0.60965 0.06313 0.0
C216 C 0.68389 0.59846 0.08063 0.0
C217 C 0.72123 0.59531 0.06991 0.0
C218 C 0.69134 0.58432 0.08712 0.0
N219 N 0.70974 0.58309 0.08168 0.0
C220 C 0.74148 0.66178 0.04019 0.0
C221 C 0.71605 0.66171 0.02252 0.0
C222 C 0.75761 0.66391 0.02996 0.0
N223 N 0.72089 0.66002 0.03633 0.0
C224 C 0.73175 0.6639 0.0119 0.0
C225 C 0.75264 0.66455 0.01558 0.0
H226 H 0.74524 0.66128 0.05127 0.0
H227 H 0.70005 0.66127 0.01967 0.0
C228 C 0.61611 0.61148 0.05661 0.0
N229 N 0.63272 0.60646 0.0609 0.0
C230 C 0.59538 0.59417 0.05062 0.0
C231 C 0.60866 0.56648 0.05429 0.0
C232 C 0.62921 0.58439 0.06018 0.0
C233 C 0.59178 0.57147 0.04896 0.0
H234 H 0.61971 0.62935 0.05684 0.0
H235 H 0.64294 0.58099 0.06329 0.0
O236 O 0.71593 0.67996 0.06646 0.0
O237 O 0.66897 0.65144 0.08181 0.0
O238 O 0.67097 0.65602 0.04856 0.0
O239 O 0.68893 0.62587 0.06237 0.0
H240 H 0.75829 0.70968 0.0756 0.0
H241 H 0.70764 0.69738 0.04322 0.0
H242 H 0.78547 0.74764 0.06414 0.0
H243 H 0.73563 0.73547 0.03237 0.0
H244 H 0.61182 0.59403 0.1086 0.0
H245 H 0.63652 0.66329 0.07823 0.0
H246 H 0.65198 0.61451 0.09882 0.0
H247 H 0.5967 0.64213 0.08848 0.0
H248 H 0.7087 0.75772 0.07668 0.0
H249 H 0.64558 0.71929 0.05211 0.0
H250 H 0.77034 0.65845 0.09564 0.0
H251 H 0.71757 0.64242 0.12764 0.0
H252 H 0.66753 0.61681 0.03844 0.0
H253 H 0.65141 0.67136 0.03033 0.0
H254 H 0.64775 0.59774 0.01607 0.0
H255 H 0.63202 0.65134 0.00801 0.0
H256 H 0.72327 0.61908 0.05368 0.0
H257 H 0.66922 0.59935 0.08489 0.0
H258 H 0.73572 0.59385 0.06579 0.0
H259 H 0.68249 0.57433 0.09647 0.0
H260 H 0.7738 0.66502 0.03329 0.0
H261 H 0.72735 0.66452 0.00093 0.0
H262 H 0.58312 0.59897 0.04644 0.0
H263 H 0.6065 0.54918 0.05333 0.0
Li264 Li 0.62936 0.96451 0.93621 0.0
Li265 Li 0.67048 0.98655 0.92996 0.0
Li266 Li 0.64754 0.94986 0.91726 0.0
Li267 Li 0.65685 0.95082 0.9422 0.0
C268 C 0.65065 0.99914 0.91068 0.0
N269 N 0.66717 0.04228 0.89798 0.0
C270 C 0.64299 0.01424 0.91535 0.0
C271 C 0.66661 0.00591 0.89951 0.0
C272 C 0.65156 0.03599 0.90879 0.0
C273 C 0.6748 0.02782 0.89324 0.0
C274 C 0.66943 0.99584 0.95803 0.0
C275 C 0.70423 0.01696 0.97212 0.0
N276 N 0.69689 0.03196 0.97623 0.0
C277 C 0.6621 0.01131 0.96251 0.0
C278 C 0.69053 0.99852 0.96298 0.0
C279 C 0.67628 0.02952 0.97168 0.0
C280 C 0.60246 0.96476 0.95804 0.0
N281 N 0.60371 0.96629 0.94369 0.0
C282 C 0.57242 0.97456 0.943 0.0
C283 C 0.5889 0.97066 0.93605 0.0
C284 C 0.57149 0.97407 0.95788 0.0
C285 C 0.58644 0.9686 0.96537 0.0
H286 H 0.61447 0.96123 0.96382 0.0
H287 H 0.59037 0.97188 0.92464 0.0
C288 C 0.71736 0.02061 0.92449 0.0
N289 N 0.69641 0.01768 0.92869 0.0
C290 C 0.73771 0.04208 0.9264 0.0
C291 C 0.71424 0.05773 0.93562 0.0
C292 C 0.69438 0.03594 0.93357 0.0
C293 C 0.73634 0.0607 0.93256 0.0
H294 H 0.71844 0.00598 0.92031 0.0
H295 H 0.6775 0.03326 0.93668 0.0
C296 C 0.61737 0.91168 0.93994 0.0
N297 N 0.60282 0.87036 0.9545 0.0
C298 C 0.62405 0.89578 0.93532 0.0
C299 C 0.60318 0.90651 0.95191 0.0
C300 C 0.61652 0.87499 0.94282 0.0
C301 C 0.59605 0.88555 0.95915 0.0
C302 C 0.6941 0.95451 0.92701 0.0
C303 C 0.6906 0.93476 0.91951 0.0
C304 C 0.71384 0.96642 0.93558 0.0
C305 C 0.70684 0.92721 0.92078 0.0
C306 C 0.72963 0.95828 0.9366 0.0
N307 N 0.72584 0.93901 0.92925 0.0
C308 C 0.66165 0.94292 0.8907 0.0
C309 C 0.62535 0.91142 0.8984 0.0
C310 C 0.66248 0.92956 0.87954 0.0
N311 N 0.64364 0.93345 0.90008 0.0
C312 C 0.62551 0.89735 0.88741 0.0
C313 C 0.64469 0.90614 0.8781 0.0
H314 H 0.67619 0.96032 0.89247 0.0
H315 H 0.61134 0.90428 0.90609 0.0
C316 C 0.65542 0.93815 0.97053 0.0
N317 N 0.66221 0.93494 0.95752 0.0
C318 C 0.65725 0.92643 0.98232 0.0
C319 C 0.67313 0.90833 0.96718 0.0
C320 C 0.67073 0.92017 0.95566 0.0
C321 C 0.66624 0.91134 0.9807 0.0
H322 H 0.64813 0.94949 0.97171 0.0
H323 H 0.67495 0.91687 0.94524 0.0
O324 O 0.64271 0.97792 0.91709 0.0
O325 O 0.65595 0.97812 0.94889 0.0
O326 O 0.62513 0.93244 0.93297 0.0
O327 O 0.67861 0.96244 0.92571 0.0
H328 H 0.63083 0.00939 0.92408 0.0
H329 H 0.67279 0.99448 0.89581 0.0
H330 H 0.64589 0.04791 0.91235 0.0
H331 H 0.68726 0.03335 0.88464 0.0
H332 H 0.72067 0.01932 0.97597 0.0
H333 H 0.64583 0.00952 0.95876 0.0
H334 H 0.69622 0.98646 0.95981 0.0
H335 H 0.67094 0.04175 0.97513 0.0
H336 H 0.56119 0.97877 0.93686 0.0
H337 H 0.586 0.96763 0.97682 0.0
H338 H 0.75441 0.0438 0.92366 0.0
H339 H 0.71238 0.07157 0.94046 0.0
H340 H 0.63531 0.89966 0.92619 0.0
H341 H 0.59788 0.91863 0.95564 0.0
H342 H 0.6217 0.86261 0.93943 0.0
H343 H 0.58518 0.88138 0.96848 0.0
H344 H 0.67535 0.92507 0.91297 0.0
H345 H 0.71704 0.98186 0.94134 0.0
H346 H 0.70426 0.91189 0.9151 0.0
H347 H 0.74494 0.96732 0.94322 0.0
H348 H 0.67741 0.93717 0.87249 0.0
H349 H 0.61151 0.87937 0.88678 0.0
H350 H 0.65165 0.92911 0.99259 0.0
H351 H 0.67959 0.89636 0.96545 0.0
Li352 Li 0.04253 0.69252 0.91521 0.0
Li353 Li 0.04268 0.70383 0.93972 0.0
Li354 Li 0.0287 0.66204 0.93559 0.0
Li355 Li 0.00655 0.68053 0.92838 0.0
C356 C 0.08158 0.70242 0.93788 0.0
N357 N 0.1235 0.72921 0.95175 0.0
C358 C 0.09835 0.72396 0.93226 0.0
C359 C 0.08619 0.69447 0.95051 0.0
C360 C 0.11944 0.73724 0.93943 0.0
C361 C 0.10746 0.70829 0.95738 0.0
C362 C 0.0388 0.73568 0.92321 0.0
C363 C 0.03623 0.76866 0.93188 0.0
N364 N 0.05507 0.78322 0.92386 0.0
C365 C 0.05808 0.75098 0.91499 0.0
C366 C 0.02769 0.74459 0.93165 0.0
C367 C 0.06605 0.77494 0.91548 0.0
C368 C 0.04711 0.7095 0.88773 0.0
N369 N 0.05784 0.70303 0.89752 0.0
C370 C 0.09348 0.72172 0.88437 0.0
C371 C 0.08024 0.70796 0.89577 0.0
C372 C 0.08339 0.73022 0.87463 0.0
C373 C 0.05954 0.72295 0.87607 0.0
H374 H 0.02941 0.7057 0.88953 0.0
H375 H 0.08833 0.70259 0.90374 0.0
C376 C 0.05532 0.71994 0.96756 0.0
N377 N 0.05948 0.72713 0.95383 0.0
C378 C 0.06802 0.73532 0.97846 0.0
C379 C 0.08922 0.76524 0.96091 0.0
C380 C 0.07608 0.74931 0.95038 0.0
C381 C 0.08538 0.75825 0.97516 0.0
H382 H 0.04254 0.70204 0.97005 0.0
H383 H 0.07981 0.75452 0.93945 0.0
C384 C 0.99278 0.6451 0.91106 0.0
N385 N 0.94876 0.61563 0.90034 0.0
C386 C 0.97848 0.62329 0.91732 0.0
C387 C 0.98475 0.65188 0.89931 0.0
C388 C 0.95627 0.60865 0.91174 0.0
C389 C 0.96241 0.63675 0.89407 0.0
C390 C 0.99765 0.67244 0.95654 0.0
C391 C 0.98259 0.64986 0.96158 0.0
C392 C 0.99432 0.69085 0.96072 0.0
C393 C 0.96418 0.64603 0.97053 0.0
C394 C 0.97568 0.6863 0.96966 0.0
N395 N 0.96112 0.66417 0.97434 0.0
C396 C 0.02923 0.63668 0.95838 0.0
C397 C 0.02461 0.61639 0.93686 0.0
C398 C 0.02709 0.61783 0.96617 0.0
N399 N 0.02773 0.63556 0.94404 0.0
C400 C 0.02232 0.59698 0.94428 0.0
C401 C 0.02339 0.59753 0.95916 0.0
H402 H 0.03159 0.65212 0.96379 0.0
H403 H 0.02344 0.61599 0.92543 0.0
C404 C 0.97302 0.69335 0.92146 0.0
N405 N 0.97559 0.67569 0.92685 0.0
C406 C 0.95168 0.69272 0.92264 0.0
C407 C 0.9355 0.65482 0.9338 0.0
C408 C 0.95713 0.65619 0.93238 0.0
C409 C 0.93282 0.67365 0.92937 0.0
H410 H 0.98781 0.70842 0.91679 0.0
H411 H 0.95948 0.64221 0.9364 0.0
O412 O 0.06061 0.6894 0.93119 0.0
O413 O 0.0305 0.7121 0.92273 0.0
O414 O 0.01445 0.65979 0.91648 0.0
O415 O 0.01568 0.67651 0.94767 0.0
H416 H 0.09493 0.73065 0.92266 0.0
H417 H 0.07343 0.67789 0.95503 0.0
H418 H 0.13248 0.75403 0.93527 0.0
H419 H 0.1112 0.7024 0.96721 0.0
H420 H 0.02782 0.77577 0.93841 0.0
H421 H 0.0671 0.74457 0.90849 0.0
H422 H 0.01255 0.73304 0.93791 0.0
H423 H 0.08104 0.78697 0.90925 0.0
H424 H 0.11179 0.72692 0.88379 0.0
H425 H 0.05084 0.72858 0.86868 0.0
H426 H 0.06477 0.72914 0.9893 0.0
H427 H 0.10237 0.7828 0.95791 0.0
H428 H 0.98431 0.61787 0.92651 0.0
H429 H 0.99554 0.66872 0.89438 0.0
H430 H 0.94497 0.59178 0.91652 0.0
H431 H 0.95592 0.64182 0.88502 0.0
H432 H 0.98485 0.63538 0.95842 0.0
H433 H 0.00605 0.70846 0.95712 0.0
H434 H 0.95227 0.62862 0.97442 0.0
H435 H 0.97281 0.70036 0.97291 0.0
H436 H 0.02758 0.61891 0.97762 0.0
H437 H 0.01962 0.58171 0.93846 0.0
H438 H 0.95023 0.70742 0.91885 0.0
H439 H 0.92152 0.63985 0.93916 0.0
Li440 Li 0.3003 0.34336 0.94219 0.0
Li441 Li 0.31672 0.32608 0.92718 0.0
Li442 Li 0.34018 0.36672 0.93338 0.0
Li443 Li 0.30514 0.35192 0.91677 0.0
C444 C 0.32261 0.32277 0.95619 0.0
N445 N 0.31317 0.28759 0.97544 0.0
C446 C 0.30073 0.30242 0.95633 0.0
C447 C 0.33966 0.32523 0.96587 0.0
C448 C 0.29631 0.28482 0.96613 0.0
C449 C 0.33455 0.30725 0.97552 0.0
C450 C 0.26606 0.30397 0.92051 0.0
C451 C 0.24473 0.28167 0.90007 0.0
N452 N 0.22671 0.26708 0.90862 0.0
C453 C 0.24729 0.28879 0.92909 0.0
C454 C 0.26476 0.30041 0.90588 0.0
C455 C 0.22758 0.27022 0.92288 0.0
C456 C 0.25876 0.33672 0.95318 0.0
N457 N 0.2797 0.33957 0.95724 0.0
C458 C 0.27024 0.33991 0.98162 0.0
C459 C 0.28571 0.3411 0.97112 0.0
C460 C 0.24862 0.33742 0.97769 0.0
C461 C 0.24287 0.33556 0.96327 0.0
H462 H 0.25462 0.33581 0.94204 0.0
H463 H 0.3027 0.34382 0.97403 0.0
C464 C 0.33929 0.30062 0.93042 0.0
N465 N 0.31907 0.29855 0.92542 0.0
C466 C 0.34096 0.28076 0.93309 0.0
C467 C 0.30144 0.25699 0.92459 0.0
C468 C 0.30058 0.27735 0.92202 0.0
C469 C 0.32152 0.25857 0.93071 0.0
H470 H 0.35352 0.31763 0.93337 0.0
H471 H 0.28462 0.27598 0.91819 0.0
C472 C 0.31005 0.3871 0.94251 0.0
N473 N 0.29911 0.41043 0.96264 0.0
C474 C 0.2929 0.39302 0.93974 0.0
C475 C 0.32174 0.39315 0.95549 0.0
C476 C 0.28759 0.40478 0.95006 0.0
C477 C 0.31594 0.40493 0.96553 0.0
C478 C 0.34661 0.34335 0.90636 0.0
C479 C 0.36963 0.34952 0.90949 0.0
C480 C 0.33471 0.32726 0.89558 0.0
C481 C 0.38024 0.33913 0.90195 0.0
C482 C 0.34591 0.31725 0.88829 0.0
N483 N 0.36825 0.32332 0.89161 0.0
C484 C 0.38453 0.38456 0.94479 0.0
C485 C 0.37534 0.41375 0.93838 0.0
C486 C 0.40504 0.40116 0.95136 0.0
N487 N 0.37002 0.39104 0.93873 0.0
C488 C 0.39563 0.43094 0.94493 0.0
C489 C 0.41049 0.4246 0.95182 0.0
H490 H 0.37961 0.36629 0.94506 0.0
H491 H 0.36328 0.41831 0.93363 0.0
C492 C 0.26925 0.3556 0.90523 0.0
N493 N 0.28999 0.35747 0.90162 0.0
C494 C 0.25481 0.35658 0.89488 0.0
C495 C 0.28341 0.36154 0.87718 0.0
C496 C 0.29745 0.3606 0.88796 0.0
C497 C 0.26168 0.3593 0.88062 0.0
H498 H 0.26353 0.35241 0.91614 0.0
H499 H 0.31388 0.3616 0.8854 0.0
O500 O 0.3277 0.33989 0.94634 0.0
O501 O 0.28536 0.3224 0.92644 0.0
O502 O 0.31495 0.37486 0.93275 0.0
O503 O 0.33582 0.35305 0.9138 0.0
H504 H 0.28738 0.30009 0.94889 0.0
H505 H 0.35671 0.34082 0.96588 0.0
H506 H 0.2795 0.26894 0.9663 0.0
H507 H 0.3476 0.3089 0.98305 0.0
H508 H 0.24352 0.27873 0.88877 0.0
H509 H 0.24793 0.29129 0.94043 0.0
H510 H 0.27903 0.31195 0.89906 0.0
H511 H 0.21295 0.25832 0.9294 0.0
H512 H 0.27539 0.34164 0.99263 0.0
H513 H 0.22627 0.33333 0.95981 0.0
H514 H 0.35662 0.28275 0.93803 0.0
H515 H 0.28613 0.24016 0.92255 0.0
H516 H 0.28372 0.38852 0.92975 0.0
H517 H 0.33482 0.3884 0.95789 0.0
H518 H 0.27429 0.40939 0.94809 0.0
H519 H 0.32472 0.40957 0.97566 0.0
H520 H 0.37916 0.36208 0.91771 0.0
H521 H 0.317 0.32248 0.89291 0.0
H522 H 0.398 0.34363 0.90434 0.0
H523 H 0.33685 0.30466 0.87999 0.0
H524 H 0.41582 0.39546 0.9567 0.0
H525 H 0.39931 0.44886 0.94498 0.0
H526 H 0.23799 0.35423 0.89797 0.0
H527 H 0.28931 0.36364 0.8663 0.0
Li528 Li 0.01927 0.38603 0.38986 0.0
Li529 Li 0.02331 0.38355 0.41559 0.0
Li530 Li 0.03922 0.36652 0.39914 0.0
Li531 Li 0.99722 0.34777 0.40231 0.0
C532 C 0.05884 0.42401 0.40182 0.0
N533 N 0.07884 0.47204 0.4029 0.0
C534 C 0.04495 0.4341 0.40424 0.0
C535 C 0.08289 0.43834 0.39989 0.0
C536 C 0.05538 0.45841 0.40477 0.0
C537 C 0.09267 0.4626 0.40049 0.0
C538 C 0.97693 0.37896 0.40842 0.0
C539 C 0.94047 0.36521 0.42086 0.0
N540 N 0.93961 0.38432 0.41633 0.0
C541 C 0.97555 0.39833 0.40376 0.0
C542 C 0.95911 0.36213 0.41691 0.0
C543 C 0.9566 0.40077 0.40792 0.0
C544 C 0.9945 0.39335 0.36882 0.0
N545 N 0.01618 0.40284 0.37454 0.0
C546 C 0.03104 0.43429 0.35789 0.0
C547 C 0.03445 0.42268 0.36918 0.0
C548 C 0.0087 0.42514 0.35189 0.0
C549 C 0.99035 0.40421 0.35743 0.0
H550 H 0.98043 0.37728 0.37314 0.0
H551 H 0.05168 0.42955 0.37364 0.0
C552 C 0.04382 0.41974 0.43686 0.0
N553 N 0.02498 0.39899 0.43309 0.0
C554 C 0.04201 0.43289 0.44787 0.0
C555 C 0.00237 0.40191 0.45188 0.0
C556 C 0.00497 0.38942 0.44082 0.0
C557 C 0.02071 0.4244 0.45513 0.0
H558 H 0.05989 0.42671 0.43091 0.0
H559 H 0.99063 0.37245 0.43802 0.0
C560 C 0.02319 0.3569 0.37084 0.0
N561 N 0.04016 0.36054 0.34367 0.0
C562 C 0.01003 0.33991 0.36076 0.0
C563 C 0.04496 0.37579 0.3671 0.0
C564 C 0.01893 0.34205 0.34707 0.0
C565 C 0.05324 0.3773 0.35331 0.0
C566 C 0.02177 0.33258 0.42026 0.0
C567 C 0.01434 0.31441 0.41046 0.0
C568 C 0.03031 0.33061 0.4334 0.0
C569 C 0.01552 0.29449 0.414 0.0
C570 C 0.03121 0.3104 0.43655 0.0
N571 N 0.02386 0.29292 0.42686 0.0
C572 C 0.086 0.37444 0.39847 0.0
C573 C 0.05744 0.34094 0.38635 0.0
C574 C 0.10373 0.37067 0.39334 0.0
N575 N 0.06343 0.35982 0.39471 0.0
C576 C 0.0745 0.33676 0.38081 0.0
C577 C 0.09814 0.35189 0.38407 0.0
H578 H 0.09031 0.3894 0.4051 0.0
H579 H 0.03942 0.32964 0.3834 0.0
C580 C 0.9559 0.31585 0.38976 0.0
N581 N 0.96816 0.31965 0.40193 0.0
C582 C 0.93493 0.29506 0.38783 0.0
C583 C 0.93933 0.28262 0.41116 0.0
C584 C 0.96016 0.30384 0.4127 0.0
C585 C 0.92659 0.27798 0.39852 0.0
H586 H 0.96273 0.32885 0.38143 0.0
H587 H 0.97015 0.3075 0.42236 0.0
O588 O 0.04902 0.40026 0.40104 0.0
O589 O 0.99521 0.37611 0.40429 0.0
O590 O 0.01462 0.35508 0.38425 0.0
O591 O 0.02101 0.35237 0.41701 0.0
H592 H 0.02638 0.42327 0.40582 0.0
H593 H 0.09385 0.43079 0.39791 0.0
H594 H 0.04484 0.46644 0.4067 0.0
H595 H 0.11127 0.47391 0.39902 0.0
H596 H 0.92666 0.3524 0.42752 0.0
H597 H 0.98887 0.41132 0.39693 0.0
H598 H 0.95977 0.34695 0.42055 0.0
H599 H 0.95537 0.41572 0.40443 0.0
H600 H 0.0457 0.45045 0.35409 0.0
H601 H 0.97296 0.3962 0.35298 0.0
H602 H 0.05667 0.45007 0.45008 0.0
H603 H 0.9859 0.39436 0.45751 0.0
H604 H 0.99313 0.32521 0.36349 0.0
H605 H 0.05538 0.38914 0.37475 0.0
H606 H 0.00894 0.32902 0.33916 0.0
H607 H 0.07006 0.3918 0.35028 0.0
H608 H 0.00771 0.31564 0.40023 0.0
H609 H 0.03619 0.34457 0.44109 0.0
H610 H 0.00982 0.28029 0.40651 0.0
H611 H 0.03777 0.30864 0.44668 0.0
H612 H 0.1216 0.38263 0.39638 0.0
H613 H 0.06914 0.32237 0.3735 0.0
H614 H 0.92579 0.29204 0.37786 0.0
H615 H 0.93335 0.26991 0.41966 0.0
Li616 Li 0.63975 0.66974 0.39951 0.0
Li617 Li 0.65693 0.64363 0.40314 0.0
Li618 Li 0.61979 0.62932 0.39126 0.0
Li619 Li 0.622 0.63474 0.41597 0.0
C620 C 0.6529 0.6518 0.37164 0.0
N621 N 0.65597 0.64301 0.34338 0.0
C622 C 0.65767 0.63422 0.36773 0.0
C623 C 0.64974 0.66496 0.36119 0.0
C624 C 0.65913 0.63003 0.35338 0.0
C625 C 0.65136 0.66024 0.34696 0.0
C626 C 0.67432 0.67584 0.42367 0.0
C627 C 0.70451 0.67598 0.43804 0.0
N628 N 0.71793 0.69945 0.43607 0.0
C629 C 0.68835 0.69999 0.42186 0.0
C630 C 0.68238 0.66374 0.4319 0.0
C631 C 0.71037 0.7116 0.42819 0.0
C632 C 0.63402 0.70999 0.39852 0.0
N633 N 0.64766 0.70077 0.39498 0.0
C634 C 0.67225 0.73408 0.3808 0.0
C635 C 0.66686 0.7126 0.38667 0.0
C636 C 0.65769 0.74345 0.38351 0.0
C637 C 0.63866 0.73142 0.39277 0.0
H638 H 0.61891 0.70019 0.40523 0.0
H639 H 0.67743 0.70483 0.38409 0.0
C640 C 0.68568 0.62347 0.40065 0.0
N641 N 0.68584 0.64405 0.40179 0.0
C642 C 0.70627 0.62331 0.3977 0.0
C643 C 0.72688 0.66555 0.39722 0.0
C644 C 0.70586 0.66488 0.40009 0.0
C645 C 0.72716 0.64454 0.39574 0.0
H646 H 0.66938 0.60713 0.40134 0.0
H647 H 0.70533 0.68096 0.4004 0.0
C648 C 0.58603 0.63894 0.39484 0.0
N649 N 0.54552 0.62555 0.37967 0.0
C650 C 0.56729 0.61606 0.39583 0.0
C651 C 0.58409 0.65502 0.38613 0.0
C652 C 0.547 0.60962 0.38807 0.0
C653 C 0.56348 0.64792 0.37856 0.0
C654 C 0.61983 0.59411 0.41406 0.0
C655 C 0.59596 0.57771 0.41395 0.0
C656 C 0.63445 0.59139 0.42362 0.0
C657 C 0.58708 0.55902 0.42349 0.0
C658 C 0.62491 0.5724 0.43295 0.0
N659 N 0.60161 0.55678 0.43271 0.0
C660 C 0.59737 0.58771 0.37537 0.0
C661 C 0.59512 0.61916 0.36497 0.0
C662 C 0.58423 0.5729 0.36438 0.0
N663 N 0.60212 0.61023 0.37563 0.0
C664 C 0.58185 0.60495 0.35379 0.0
C665 C 0.576 0.58139 0.35349 0.0
H666 H 0.60386 0.58124 0.38367 0.0
H667 H 0.59973 0.63731 0.36516 0.0
C668 C 0.58236 0.61524 0.43385 0.0
N669 N 0.60551 0.62237 0.43338 0.0
C670 C 0.56848 0.60098 0.44488 0.0
C671 C 0.60289 0.6033 0.45537 0.0
C672 C 0.61613 0.61771 0.4442 0.0
C673 C 0.57861 0.59407 0.4555 0.0
H674 H 0.57441 0.61958 0.4253 0.0
H675 H 0.6346 0.62382 0.44368 0.0
O676 O 0.65088 0.6558 0.38563 0.0
O677 O 0.65277 0.66418 0.41748 0.0
O678 O 0.60613 0.64559 0.40234 0.0
O679 O 0.62877 0.61282 0.40498 0.0
H680 H 0.65988 0.6237 0.37568 0.0
H681 H 0.64576 0.67845 0.36404 0.0
H682 H 0.66269 0.61639 0.35019 0.0
H683 H 0.64885 0.6702 0.33875 0.0
H684 H 0.71105 0.6668 0.44433 0.0
H685 H 0.68232 0.70967 0.41562 0.0
H686 H 0.67186 0.64505 0.43332 0.0
H687 H 0.72144 0.73027 0.42684 0.0
H688 H 0.68694 0.74261 0.37361 0.0
H689 H 0.62716 0.73819 0.39524 0.0
H690 H 0.70573 0.60673 0.39657 0.0
H691 H 0.74249 0.68228 0.39545 0.0
H692 H 0.56846 0.60329 0.40239 0.0
H693 H 0.59844 0.67266 0.38499 0.0
H694 H 0.53244 0.59193 0.3887 0.0
H695 H 0.56182 0.66017 0.37173 0.0
H696 H 0.58436 0.57943 0.40664 0.0
H697 H 0.65288 0.60406 0.42408 0.0
H698 H 0.56861 0.54632 0.42357 0.0
H699 H 0.636 0.57022 0.44046 0.0
H700 H 0.58068 0.55502 0.36438 0.0
H701 H 0.57585 0.61225 0.34565 0.0
H702 H 0.54982 0.59427 0.44461 0.0
H703 H 0.6114 0.59865 0.46349 0.0
Li704 Li 0.353 0.00459 0.39573 0.0
Li705 Li 0.36679 0.98182 0.40642 0.0
Li706 Li 0.37022 0.98696 0.38057 0.0
Li707 Li 0.3299 0.96316 0.39242 0.0
C708 C 0.4051 0.03018 0.39873 0.0
N709 N 0.44596 0.07065 0.40548 0.0
C710 C 0.41047 0.03704 0.41286 0.0
C711 C 0.42058 0.04385 0.38804 0.0
C712 C 0.4312 0.05756 0.41605 0.0
C713 C 0.44112 0.06427 0.39167 0.0
C714 C 0.32764 0.99058 0.41903 0.0
C715 C 0.295 0.99381 0.42758 0.0
N716 N 0.30986 0.01266 0.43546 0.0
C717 C 0.34255 0.00976 0.42737 0.0
C718 C 0.30364 0.98234 0.41926 0.0
C719 C 0.33325 0.02078 0.43554 0.0
C720 C 0.32702 0.02713 0.39415 0.0
N721 N 0.34902 0.03134 0.39667 0.0
C722 C 0.36399 0.07256 0.39568 0.0
C723 C 0.3673 0.05351 0.39788 0.0
C724 C 0.34172 0.06862 0.39207 0.0
C725 C 0.32295 0.0456 0.39175 0.0
H726 H 0.31283 0.00933 0.39315 0.0
H727 H 0.38465 0.05655 0.39979 0.0
C728 C 0.40594 0.98338 0.41772 0.0
N729 N 0.38453 0.97969 0.42148 0.0
C730 C 0.42167 0.98492 0.42803 0.0
C731 C 0.39284 0.97829 0.44595 0.0
C732 C 0.37757 0.97686 0.43523 0.0
C733 C 0.4154 0.98283 0.44238 0.0
H734 H 0.41102 0.98583 0.40669 0.0
H735 H 0.36051 0.97424 0.43789 0.0
C736 C 0.33978 0.00315 0.36838 0.0
N737 N 0.33752 0.03555 0.35093 0.0
C738 C 0.31829 0.99888 0.36305 0.0
C739 C 0.36015 0.02378 0.3647 0.0
C740 C 0.31751 0.01551 0.35426 0.0
C741 C 0.35863 0.03998 0.3559 0.0
C742 C 0.36124 0.94135 0.39794 0.0
C743 C 0.38012 0.93887 0.39368 0.0
C744 C 0.34744 0.92831 0.40938 0.0
C745 C 0.385 0.92345 0.40103 0.0
C746 C 0.35289 0.91308 0.41646 0.0
N747 N 0.37141 0.911 0.41218 0.0
C748 C 0.40998 0.99214 0.36726 0.0
C749 C 0.38014 0.98704 0.35129 0.0
C750 C 0.424 0.99268 0.35609 0.0
N751 N 0.38848 0.98919 0.36468 0.0
C752 C 0.39371 0.98772 0.33975 0.0
C753 C 0.41581 0.99026 0.34213 0.0
H754 H 0.41607 0.99379 0.37806 0.0
H755 H 0.36284 0.98446 0.34958 0.0
C756 C 0.28286 0.94344 0.38578 0.0
N757 N 0.29975 0.93797 0.38841 0.0
C758 C 0.26179 0.927 0.37967 0.0
C759 C 0.27541 0.89917 0.37979 0.0
C760 C 0.29633 0.91624 0.38583 0.0
C761 C 0.25816 0.90476 0.37621 0.0
H762 H 0.28629 0.96101 0.38769 0.0
H763 H 0.31031 0.91257 0.38766 0.0
O764 O 0.385 0.01006 0.3953 0.0
O765 O 0.33645 0.97974 0.41082 0.0
O766 O 0.34087 0.98758 0.37747 0.0
O767 O 0.35654 0.9568 0.39115 0.0
H768 H 0.39888 0.02663 0.42129 0.0
H769 H 0.41679 0.03876 0.37705 0.0
H770 H 0.43557 0.06305 0.42694 0.0
H771 H 0.45323 0.07504 0.38351 0.0
H772 H 0.27647 0.98771 0.42778 0.0
H773 H 0.3611 0.01619 0.42744 0.0
H774 H 0.2918 0.96725 0.41309 0.0
H775 H 0.34462 0.03578 0.44194 0.0
H776 H 0.37893 0.09008 0.39588 0.0
H777 H 0.30551 0.04189 0.38907 0.0
H778 H 0.43872 0.98807 0.42479 0.0
H779 H 0.38739 0.97679 0.45689 0.0
H780 H 0.30236 0.98299 0.36573 0.0
H781 H 0.37689 0.02739 0.36878 0.0
H782 H 0.30098 0.0125 0.35013 0.0
H783 H 0.37424 0.0561 0.35308 0.0
H784 H 0.39098 0.94886 0.38484 0.0
H785 H 0.33283 0.93016 0.41285 0.0
H786 H 0.39961 0.92141 0.39788 0.0
H787 H 0.34244 0.90298 0.42539 0.0
H788 H 0.44107 0.99495 0.35833 0.0
H789 H 0.38675 0.98562 0.32914 0.0
H790 H 0.24885 0.93192 0.37716 0.0
H791 H 0.27339 0.88232 0.37713 0.0
Li792 Li 0.34937 0.33098 0.26242 0.0
Li793 Li 0.3079 0.30952 0.26837 0.0
Li794 Li 0.3344 0.29573 0.27659 0.0
Li795 Li 0.32605 0.29379 0.25148 0.0
C796 C 0.33563 0.33328 0.29447 0.0
N797 N 0.33697 0.35087 0.32124 0.0
C798 C 0.31561 0.32348 0.30296 0.0
C799 C 0.35634 0.3521 0.29963 0.0
C800 C 0.31664 0.33258 0.31645 0.0
C801 C 0.35666 0.36072 0.31317 0.0
C802 C 0.33193 0.3404 0.2404 0.0
C803 C 0.35933 0.3625 0.22188 0.0
N804 N 0.35315 0.37921 0.223 0.0
C805 C 0.32573 0.35771 0.24129 0.0
C806 C 0.34875 0.34271 0.23056 0.0
C807 C 0.33669 0.37723 0.23242 0.0
C808 C 0.39496 0.36686 0.25398 0.0
N809 N 0.37459 0.36205 0.26036 0.0
C810 C 0.39092 0.40165 0.2678 0.0
C811 C 0.37196 0.37905 0.26666 0.0
C812 C 0.41273 0.40676 0.2623 0.0
C813 C 0.41442 0.38926 0.25487 0.0
H814 H 0.39638 0.35313 0.24869 0.0
H815 H 0.35543 0.3747 0.27149 0.0
C816 C 0.26263 0.29423 0.27929 0.0
N817 N 0.28252 0.31304 0.27447 0.0
C818 C 0.24642 0.29737 0.28706 0.0
C819 C 0.27072 0.3391 0.28384 0.0
C820 C 0.28665 0.33516 0.27639 0.0
C821 C 0.25064 0.32011 0.28977 0.0
H822 H 0.26014 0.2769 0.27795 0.0
H823 H 0.30301 0.34983 0.2729 0.0
C824 C 0.37912 0.31276 0.26527 0.0
N825 N 0.42384 0.32747 0.27487 0.0
C826 C 0.3943 0.3083 0.25731 0.0
C827 C 0.38665 0.32452 0.27817 0.0
C828 C 0.41685 0.31592 0.26233 0.0
C829 C 0.40932 0.33187 0.28282 0.0
C830 C 0.297 0.25389 0.26785 0.0
C831 C 0.31277 0.24682 0.26356 0.0
C832 C 0.27486 0.23718 0.27271 0.0
C833 C 0.3061 0.22316 0.26415 0.0
C834 C 0.26885 0.21368 0.27315 0.0
N835 N 0.28445 0.20721 0.26889 0.0
C836 C 0.32792 0.27638 0.30425 0.0
C837 C 0.35194 0.26865 0.2892 0.0
C838 C 0.32922 0.26236 0.31486 0.0
N839 N 0.33921 0.27929 0.29172 0.0
C840 C 0.35343 0.25421 0.29942 0.0
C841 C 0.34178 0.25078 0.31238 0.0
H842 H 0.31712 0.28412 0.30582 0.0
H843 H 0.36022 0.27058 0.27904 0.0
C844 C 0.34264 0.28087 0.2283 0.0
N845 N 0.32246 0.27591 0.23495 0.0
C846 C 0.34261 0.26643 0.21757 0.0
C847 C 0.30077 0.2424 0.22028 0.0
C848 C 0.30162 0.25743 0.23098 0.0
C849 C 0.32156 0.24657 0.21363 0.0
H850 H 0.35895 0.29557 0.23175 0.0
H851 H 0.28585 0.25377 0.23656 0.0
O852 O 0.33478 0.32515 0.281 0.0
O853 O 0.32186 0.32144 0.24924 0.0
O854 O 0.35703 0.30555 0.2604 0.0
O855 O 0.30324 0.27703 0.2675 0.0
H856 H 0.29949 0.30878 0.29929 0.0
H857 H 0.37204 0.36008 0.29326 0.0
H858 H 0.30127 0.32509 0.32312 0.0
H859 H 0.37257 0.37528 0.31726 0.0
H860 H 0.37252 0.3646 0.2143 0.0
H861 H 0.31259 0.35612 0.24874 0.0
H862 H 0.35386 0.32957 0.22979 0.0
H863 H 0.33212 0.39081 0.23304 0.0
H864 H 0.38884 0.4145 0.27375 0.0
H865 H 0.43084 0.39259 0.2503 0.0
H866 H 0.23149 0.28216 0.29156 0.0
H867 H 0.2746 0.35692 0.28537 0.0
H868 H 0.38877 0.29903 0.24737 0.0
H869 H 0.37511 0.32777 0.28458 0.0
H870 H 0.42878 0.31263 0.25626 0.0
H871 H 0.41535 0.34102 0.29278 0.0
H872 H 0.33002 0.25943 0.25984 0.0
H873 H 0.26244 0.24226 0.27614 0.0
H874 H 0.31814 0.2175 0.26086 0.0
H875 H 0.25177 0.20057 0.27689 0.0
H876 H 0.31964 0.25973 0.32464 0.0
H877 H 0.36321 0.24547 0.29712 0.0
H878 H 0.35911 0.27016 0.21293 0.0
H879 H 0.28414 0.2274 0.21748 0.0
Li880 Li 0.71732 0.03328 0.25748 0.0
Li881 Li 0.71749 0.03758 0.28378 0.0
Li882 Li 0.70387 0.99889 0.27235 0.0
Li883 Li 0.6813 0.01819 0.27011 0.0
C884 C 0.75086 0.02136 0.26582 0.0
N885 N 0.78162 0.00991 0.25339 0.0
C886 C 0.77271 0.02883 0.2719 0.0
C887 C 0.74459 0.00801 0.25345 0.0
C888 C 0.78804 0.02288 0.26545 0.0
C889 C 0.76041 0.00243 0.24732 0.0
C890 C 0.69407 0.06216 0.26781 0.0
C891 C 0.67338 0.07968 0.27847 0.0
N892 N 0.66619 0.08212 0.26542 0.0
C893 C 0.68658 0.06492 0.2545 0.0
C894 C 0.68753 0.06965 0.2799 0.0
C895 C 0.67245 0.07503 0.25351 0.0
C896 C 0.72519 0.04838 0.2286 0.0
N897 N 0.73495 0.05036 0.24154 0.0
C898 C 0.77146 0.0817 0.23346 0.0
C899 C 0.75762 0.06645 0.24411 0.0
C900 C 0.76179 0.0807 0.22007 0.0
C901 C 0.73841 0.06347 0.21761 0.0
H902 H 0.70698 0.03562 0.22695 0.0
H903 H 0.7648 0.06781 0.25458 0.0
C904 C 0.73649 0.04689 0.31135 0.0
N905 N 0.73366 0.05657 0.29935 0.0
C906 C 0.74855 0.06104 0.32286 0.0
C907 C 0.755 0.0948 0.30925 0.0
C908 C 0.74265 0.07999 0.29807 0.0
C909 C 0.75805 0.08538 0.32189 0.0
H910 H 0.72928 0.02818 0.31197 0.0
H911 H 0.7404 0.08717 0.2883 0.0
C912 C 0.66996 0.98112 0.25116 0.0
N913 N 0.6319 0.93847 0.24408 0.0
C914 C 0.65276 0.96825 0.26125 0.0
C915 C 0.66777 0.97232 0.23746 0.0
C916 C 0.63365 0.94674 0.25746 0.0
C917 C 0.64841 0.9507 0.23409 0.0
C918 C 0.67744 0.99781 0.29964 0.0
C919 C 0.66533 0.97351 0.30129 0.0
C920 C 0.67756 0.01192 0.3107 0.0
C921 C 0.65343 0.96375 0.31394 0.0
C922 C 0.66542 0.00149 0.32318 0.0
N923 N 0.65371 0.97782 0.32453 0.0
C924 C 0.7153 0.97296 0.28922 0.0
C925 C 0.69141 0.94992 0.27027 0.0
C926 C 0.71386 0.95334 0.29569 0.0
N927 N 0.70371 0.97085 0.27696 0.0
C928 C 0.6893 0.92971 0.27647 0.0
C929 C 0.70022 0.93127 0.28951 0.0
H930 H 0.72472 0.98982 0.29435 0.0
H931 H 0.6825 0.94867 0.26047 0.0
C932 C 0.63782 0.00933 0.25781 0.0
N933 N 0.65044 0.01389 0.26995 0.0
C934 C 0.61494 0.00533 0.25826 0.0
C935 C 0.61889 0.01137 0.28357 0.0
C936 C 0.6416 0.01547 0.28261 0.0
C937 C 0.60516 0.00588 0.27134 0.0
H938 H 0.64542 0.00856 0.24783 0.0
H939 H 0.65222 0.02004 0.29197 0.0
O940 O 0.73565 0.02698 0.27207 0.0
O941 O 0.70726 0.05161 0.26902 0.0
O942 O 0.68885 0.0023 0.25452 0.0
O943 O 0.68971 0.00779 0.28746 0.0
H944 H 0.77776 0.03912 0.28151 0.0
H945 H 0.72773 0.00201 0.24861 0.0
H946 H 0.80503 0.02855 0.27003 0.0
H947 H 0.75581 0.99213 0.23773 0.0
H948 H 0.66803 0.08542 0.28774 0.0
H949 H 0.6914 0.05905 0.24505 0.0
H950 H 0.69302 0.06742 0.2903 0.0
H951 H 0.6664 0.07716 0.24329 0.0
H952 H 0.78949 0.09438 0.23577 0.0
H953 H 0.73017 0.06222 0.2075 0.0
H954 H 0.75031 0.05298 0.33241 0.0
H955 H 0.76247 0.11347 0.30786 0.0
H956 H 0.65406 0.97481 0.27185 0.0
H957 H 0.68093 0.98209 0.22952 0.0
H958 H 0.62022 0.93661 0.26517 0.0
H959 H 0.64652 0.94366 0.22353 0.0
H960 H 0.66513 0.96224 0.29294 0.0
H961 H 0.68674 0.03075 0.30961 0.0
H962 H 0.64401 0.94498 0.31535 0.0
H963 H 0.6653 0.01222 0.33178 0.0
H964 H 0.72229 0.9553 0.30582 0.0
H965 H 0.67879 0.91299 0.27133 0.0
H966 H 0.60485 0.00131 0.2486 0.0
H967 H 0.61212 0.01255 0.2938 0.0
Li968 Li 0.96106 0.66583 0.27505 0.0
Li969 Li 0.97741 0.64898 0.25984 0.0
Li970 Li 0.00092 0.68959 0.26625 0.0
Li971 Li 0.96558 0.67483 0.24969 0.0
C972 C 0.98399 0.6462 0.28919 0.0
N973 N 0.97531 0.61298 0.3097 0.0
C974 C 0.96316 0.62476 0.28901 0.0
C975 C 0.00041 0.65075 0.29981 0.0
C976 C 0.9591 0.60818 0.29946 0.0
C977 C 0.99569 0.63373 0.31009 0.0
C978 C 0.92743 0.62556 0.25343 0.0
C979 C 0.90621 0.60274 0.23311 0.0
N980 N 0.88978 0.58646 0.24187 0.0
C981 C 0.91022 0.60868 0.26222 0.0
C982 C 0.92534 0.62264 0.23875 0.0
C983 C 0.89138 0.589 0.25618 0.0
C984 C 0.91866 0.65558 0.28725 0.0
N985 N 0.94095 0.66152 0.29048 0.0
C986 C 0.93406 0.66427 0.31504 0.0
C987 C 0.94884 0.66568 0.30404 0.0
C988 C 0.911 0.65853 0.312 0.0
C989 C 0.90328 0.65386 0.29789 0.0
H990 H 0.91299 0.65264 0.27633 0.0
H991 H 0.96681 0.6708 0.30626 0.0
C992 C 0.00017 0.62385 0.26335 0.0
N993 N 0.98044 0.62182 0.25756 0.0
C994 C 0.00257 0.60422 0.26507 0.0
C995 C 0.96498 0.5809 0.25394 0.0
C996 C 0.96333 0.60105 0.25241 0.0
C997 C 0.98444 0.58223 0.2608 0.0
H998 H 0.01346 0.64054 0.26744 0.0
H999 H 0.94787 0.59973 0.24776 0.0
C1000 C 0.96951 0.709 0.27559 0.0
N1001 N 0.95644 0.73067 0.29568 0.0
C1002 C 0.95071 0.71257 0.27302 0.0
C1003 C 0.98175 0.71658 0.28834 0.0
C1004 C 0.94435 0.72351 0.28333 0.0
C1005 C 0.97487 0.72748 0.29836 0.0
C1006 C 0.00637 0.66618 0.2387 0.0
C1007 C 0.02898 0.67089 0.24178 0.0
C1008 C 0.99402 0.65109 0.22759 0.0
C1009 C 0.03872 0.66007 0.23383 0.0
C1010 C 0.00437 0.6406 0.21988 0.0
N1011 N 0.02631 0.64525 0.22315 0.0
C1012 C 0.04515 0.70631 0.27733 0.0
C1013 C 0.03652 0.7363 0.27215 0.0
C1014 C 0.06569 0.72219 0.28418 0.0
N1015 N 0.03088 0.71351 0.27176 0.0
C1016 C 0.05685 0.75279 0.27902 0.0
C1017 C 0.07141 0.74565 0.28551 0.0
H1018 H 0.04003 0.688 0.27699 0.0
H1019 H 0.02459 0.74142 0.26783 0.0
C1020 C 0.92901 0.67704 0.2378 0.0
N1021 N 0.95058 0.68067 0.23457 0.0
C1022 C 0.91499 0.67842 0.22731 0.0
C1023 C 0.94566 0.68727 0.21027 0.0
C1024 C 0.95923 0.68587 0.22118 0.0
C1025 C 0.92315 0.68336 0.21331 0.0
H1026 H 0.92239 0.67224 0.24848 0.0
H1027 H 0.97634 0.68828 0.21891 0.0
O1028 O 0.98855 0.66262 0.27895 0.0
O1029 O 0.94581 0.6451 0.2592 0.0
O1030 O 0.97555 0.69763 0.26585 0.0
O1031 O 0.99634 0.67619 0.24659 0.0
H1032 H 0.95036 0.62089 0.28083 0.0
H1033 H 0.01664 0.66727 0.3001 0.0
H1034 H 0.94309 0.59147 0.29941 0.0
H1035 H 0.00824 0.637 0.31838 0.0
H1036 H 0.90443 0.60025 0.22177 0.0
H1037 H 0.91135 0.61076 0.27361 0.0
H1038 H 0.93833 0.6355 0.23176 0.0
H1039 H 0.87799 0.57578 0.26286 0.0
H1040 H 0.94085 0.66834 0.32572 0.0
H1041 H 0.88556 0.64904 0.29508 0.0
H1042 H 0.01773 0.60604 0.2706 0.0
H1043 H 0.95073 0.5643 0.25036 0.0
H1044 H 0.94107 0.70688 0.26322 0.0
H1045 H 0.9961 0.71362 0.29061 0.0
H1046 H 0.92977 0.72629 0.28151 0.0
H1047 H 0.98407 0.73326 0.30832 0.0
H1048 H 0.03883 0.68264 0.25028 0.0
H1049 H 0.97662 0.64743 0.22497 0.0
H1050 H 0.05615 0.66343 0.23616 0.0
H1051 H 0.99495 0.62877 0.21131 0.0
H1052 H 0.07658 0.71597 0.28878 0.0
H1053 H 0.06042 0.77062 0.27991 0.0
H1054 H 0.89756 0.67474 0.23005 0.0
H1055 H 0.95256 0.6911 0.19959 0.0
Li1056 Li 0.67391 0.71361 0.72246 0.0
Li1057 Li 0.67623 0.70905 0.74739 0.0
Li1058 Li 0.69138 0.69113 0.73045 0.0
Li1059 Li 0.64859 0.67509 0.7337 0.0
C1060 C 0.71781 0.74667 0.72882 0.0
N1061 N 0.74765 0.79083 0.71818 0.0
C1062 C 0.71273 0.76466 0.73063 0.0
C1063 C 0.73815 0.75121 0.72163 0.0
C1064 C 0.72799 0.78684 0.72516 0.0
C1065 C 0.753 0.77363 0.71632 0.0
C1066 C 0.63673 0.71133 0.74498 0.0
C1067 C 0.60633 0.70205 0.76219 0.0
N1068 N 0.61317 0.72513 0.7632 0.0
C1069 C 0.64323 0.73492 0.74602 0.0
C1070 C 0.61797 0.69471 0.75301 0.0
C1071 C 0.6312 0.74157 0.75536 0.0
C1072 C 0.65269 0.73301 0.70609 0.0
N1073 N 0.67311 0.73296 0.70764 0.0
C1074 C 0.6903 0.76006 0.68852 0.0
C1075 C 0.69158 0.74571 0.69889 0.0
C1076 C 0.66961 0.76078 0.68691 0.0
C1077 C 0.6505 0.7468 0.69568 0.0
H1078 H 0.63812 0.72241 0.713 0.0
H1079 H 0.70741 0.74497 0.69997 0.0
C1080 C 0.69578 0.74661 0.76699 0.0
N1081 N 0.6792 0.72382 0.76521 0.0
C1082 C 0.69441 0.75927 0.7784 0.0
C1083 C 0.66006 0.72427 0.78657 0.0
C1084 C 0.66222 0.71225 0.77506 0.0
C1085 C 0.67581 0.74831 0.78805 0.0
H1086 H 0.70937 0.75531 0.75919 0.0
H1087 H 0.64943 0.69402 0.77346 0.0
C1088 C 0.67172 0.68367 0.70174 0.0
N1089 N 0.6812 0.68686 0.67307 0.0
C1090 C 0.65366 0.67145 0.69206 0.0
C1091 C 0.6946 0.69743 0.69683 0.0
C1092 C 0.65881 0.67331 0.67761 0.0
C1093 C 0.69904 0.69884 0.6823 0.0
C1094 C 0.66997 0.65548 0.75054 0.0
C1095 C 0.6626 0.63875 0.7398 0.0
C1096 C 0.67598 0.65059 0.76377 0.0
C1097 C 0.66131 0.61734 0.74249 0.0
C1098 C 0.67446 0.62897 0.76604 0.0
N1099 N 0.66722 0.61293 0.75544 0.0
C1100 C 0.73647 0.69507 0.73037 0.0
C1101 C 0.70743 0.66444 0.71654 0.0
C1102 C 0.75363 0.69083 0.72482 0.0
N1103 N 0.71403 0.68235 0.72584 0.0
C1104 C 0.7239 0.65951 0.71081 0.0
C1105 C 0.74746 0.67318 0.71464 0.0
H1106 H 0.74123 0.70917 0.73782 0.0
H1107 H 0.68954 0.65469 0.71299 0.0
C1108 C 0.60582 0.64914 0.72135 0.0
N1109 N 0.61826 0.64858 0.7326 0.0
C1110 C 0.58386 0.63016 0.71846 0.0
C1111 C 0.58732 0.61071 0.73924 0.0
C1112 C 0.60928 0.63022 0.74178 0.0
C1113 C 0.57448 0.61042 0.72731 0.0
H1114 H 0.61326 0.66425 0.71446 0.0
H1115 H 0.61925 0.6305 0.7509 0.0
O1116 O 0.70306 0.72481 0.73411 0.0
O1117 O 0.6487 0.70455 0.73619 0.0
O1118 O 0.667 0.68216 0.71594 0.0
O1119 O 0.6717 0.67671 0.74814 0.0
H1120 H 0.69705 0.76148 0.73609 0.0
H1121 H 0.74236 0.73755 0.72001 0.0
H1122 H 0.72418 0.80087 0.72644 0.0
H1123 H 0.76874 0.77734 0.71069 0.0
H1124 H 0.59193 0.6894 0.76857 0.0
H1125 H 0.65744 0.74797 0.73973 0.0
H1126 H 0.61268 0.67638 0.75234 0.0
H1127 H 0.6362 0.75979 0.75638 0.0
H1128 H 0.7053 0.77045 0.68181 0.0
H1129 H 0.63428 0.74701 0.69475 0.0
H1130 H 0.70694 0.77778 0.77914 0.0
H1131 H 0.64569 0.71509 0.79391 0.0
H1132 H 0.63587 0.66056 0.69565 0.0
H1133 H 0.70877 0.70714 0.70415 0.0
H1134 H 0.645 0.66396 0.67 0.0
H1135 H 0.71666 0.70952 0.67837 0.0
H1136 H 0.65773 0.64216 0.72953 0.0
H1137 H 0.68179 0.66341 0.77218 0.0
H1138 H 0.65559 0.60422 0.73427 0.0
H1139 H 0.67906 0.62495 0.77623 0.0
H1140 H 0.77158 0.7016 0.72818 0.0
H1141 H 0.71838 0.64595 0.70288 0.0
H1142 H 0.57473 0.63064 0.70907 0.0
H1143 H 0.58056 0.59597 0.74643 0.0
Li1144 Li 0.3139 0.98042 0.73624 0.0
Li1145 Li 0.29601 0.00483 0.73241 0.0
Li1146 Li 0.27865 0.97021 0.74818 0.0
Li1147 Li 0.27654 0.96408 0.72299 0.0
C1148 C 0.33008 0.01099 0.75681 0.0
N1149 N 0.37388 0.03312 0.76904 0.0
C1150 C 0.34491 0.035 0.75492 0.0
C1151 C 0.33741 0.99829 0.76507 0.0
C1152 C 0.36701 0.04586 0.76116 0.0
C1153 C 0.35966 0.00978 0.77111 0.0
C1154 C 0.31672 0.99262 0.70515 0.0
C1155 C 0.32594 0.00867 0.68152 0.0
N1156 N 0.3361 0.99559 0.67874 0.0
C1157 C 0.32735 0.97942 0.70206 0.0
C1158 C 0.31609 0.00746 0.69481 0.0
C1159 C 0.337 0.98112 0.68865 0.0
C1160 C 0.34514 0.96278 0.73792 0.0
N1161 N 0.34347 0.98224 0.73585 0.0
C1162 C 0.38366 0.0043 0.72925 0.0
C1163 C 0.36221 0.00286 0.73181 0.0
C1164 C 0.38571 0.98424 0.73072 0.0
C1165 C 0.36626 0.96342 0.73545 0.0
H1166 H 0.32983 0.9465 0.74081 0.0
H1167 H 0.36017 0.01789 0.72992 0.0
C1168 C 0.28747 0.0432 0.72917 0.0
N1169 N 0.30305 0.03563 0.72763 0.0
C1170 C 0.29179 0.06413 0.72284 0.0
C1171 C 0.32889 0.06989 0.71451 0.0
C1172 C 0.32375 0.04879 0.72086 0.0
C1173 C 0.31248 0.07744 0.71509 0.0
H1174 H 0.27123 0.03253 0.73474 0.0
H1175 H 0.33579 0.04229 0.7198 0.0
C1176 C 0.27409 0.92863 0.7447 0.0
N1177 N 0.24855 0.88815 0.76028 0.0
C1178 C 0.25108 0.91262 0.74092 0.0
C1179 C 0.28417 0.92396 0.75633 0.0
C1180 C 0.23844 0.89228 0.74895 0.0
C1181 C 0.27095 0.90342 0.76409 0.0
C1182 C 0.24885 0.98546 0.72594 0.0
C1183 C 0.22882 0.98436 0.73165 0.0
C1184 C 0.25533 0.99303 0.71199 0.0
C1185 C 0.21559 0.99087 0.72328 0.0
C1186 C 0.24167 -0.00059 0.70397 0.0
N1187 N 0.22224 0.99821 0.70973 0.0
C1188 C 0.27082 0.95466 0.77685 0.0
C1189 C 0.237 0.94366 0.763 0.0
C1190 C 0.25731 0.93917 0.78756 0.0
N1191 N 0.26056 0.95594 0.76468 0.0
C1192 C 0.22281 0.9282 0.7735 0.0
C1193 C 0.23307 0.92522 0.78573 0.0
H1194 H 0.28959 0.96444 0.77785 0.0
H1195 H 0.2294 0.9447 0.75308 0.0
C1196 C 0.26899 0.93492 0.69934 0.0
N1197 N 0.25865 0.94373 0.70783 0.0
C1198 C 0.25651 0.91964 0.68835 0.0
C1199 C 0.22262 0.92202 0.69534 0.0
C1200 C 0.23574 0.93719 0.7062 0.0
C1201 C 0.23299 0.91303 0.68622 0.0
H1202 H 0.28676 0.93925 0.7013 0.0
H1203 H 0.22742 0.94336 0.71346 0.0
O1204 O 0.30848 2e-05 0.75065 0.0
O1205 O 0.30756 0.99157 0.71834 0.0
O1206 O 0.28649 0.94898 0.73722 0.0
O1207 O 0.26217 0.97951 0.7341 0.0
H1208 H 0.33943 0.04515 0.7487 0.0
H1209 H 0.32627 0.97966 0.76653 0.0
H1210 H 0.37871 0.06441 0.75973 0.0
H1211 H 0.36565 0.00011 0.77739 0.0
H1212 H 0.32554 0.02006 0.67343 0.0
H1213 H 0.32785 0.96766 0.70983 0.0
H1214 H 0.30814 0.01799 0.69698 0.0
H1215 H 0.34517 0.9709 0.68611 0.0
H1216 H 0.39806 0.02058 0.72537 0.0
H1217 H 0.36714 0.94759 0.73676 0.0
H1218 H 0.27883 0.06953 0.72367 0.0
H1219 H 0.34495 0.07951 0.70854 0.0
H1220 H 0.24292 0.916 0.73203 0.0
H1221 H 0.30185 0.93628 0.75953 0.0
H1222 H 0.22056 0.87983 0.74621 0.0
H1223 H 0.27845 0.8997 0.7732 0.0
H1224 H 0.22362 0.97862 0.74245 0.0
H1225 H 0.27067 0.99385 0.7074 0.0
H1226 H 0.20006 0.99013 0.72757 0.0
H1227 H 0.2465 0.0053 0.69316 0.0
H1228 H 0.26579 0.93741 0.7969 0.0
H1229 H 0.20421 0.91757 0.77164 0.0
H1230 H 0.26502 0.91259 0.68185 0.0
H1231 H 0.20452 0.91735 0.69413 0.0
Li1232 Li 0.02896 0.31792 0.74821 0.0
Li1233 Li 0.01502 0.33914 0.73568 0.0
Li1234 Li 0.99169 0.29771 0.73553 0.0
Li1235 Li 0.02968 0.31791 0.72292 0.0
C1236 C 0.99653 0.33356 0.7603 0.0
N1237 N 0.99062 0.36597 0.77545 0.0
C1238 C 0.01537 0.35157 0.76752 0.0
C1239 C 0.97465 0.33195 0.76085 0.0
C1240 C 0.01203 0.3678 0.77511 0.0
C1241 C 0.97203 0.34854 0.76855 0.0
C1242 C 0.06187 0.36401 0.72787 0.0
C1243 C 0.06937 0.38897 0.70756 0.0
N1244 N 0.09163 0.403 0.71213 0.0
C1245 C 0.08482 0.37866 0.73235 0.0
C1246 C 0.05406 0.36917 0.71536 0.0
C1247 C 0.0996 0.39829 0.72425 0.0
C1248 C 0.06859 0.32127 0.75949 0.0
N1249 N 0.04727 0.31758 0.76346 0.0
C1250 C 0.05583 0.31543 0.78779 0.0
C1251 C 0.04051 0.31449 0.77726 0.0
C1252 C 0.07807 0.31935 0.78396 0.0
C1253 C 0.0843 0.32214 0.76959 0.0
H1254 H 0.07342 0.32374 0.74841 0.0
H1255 H 0.02338 0.31154 0.78008 0.0
C1256 C 0.9921 0.36296 0.72851 0.0
N1257 N 0.01199 0.3662 0.73474 0.0
C1258 C 0.9897 0.38211 0.72497 0.0
C1259 C 0.02762 0.40752 0.73528 0.0
C1260 C 0.02928 0.3878 0.73863 0.0
C1261 C 0.008 0.40477 0.72787 0.0
H1262 H 0.97852 0.34551 0.72576 0.0
H1263 H 0.04485 0.38982 0.74369 0.0
C1264 C 0.0183 0.27441 0.7443 0.0
N1265 N 0.0214 0.24419 0.76324 0.0
C1266 C 0.03545 0.26816 0.74255 0.0
C1267 C 0.00265 0.26521 0.75563 0.0
C1268 C 0.03675 0.25287 0.75225 0.0
C1269 C 0.00452 0.24998 0.7651 0.0
C1270 C 0.98938 0.3068 0.70726 0.0
C1271 C 0.98954 0.28632 0.70373 0.0
C1272 C 0.9766 0.31398 0.69897 0.0
C1273 C 0.97685 0.27335 0.69199 0.0
C1274 C 0.96414 0.30053 0.68732 0.0
N1275 N 0.9645 0.28065 0.68411 0.0
C1276 C 0.94476 0.27989 0.73081 0.0
C1277 C 0.95608 0.25103 0.73003 0.0
C1278 C 0.92354 0.26474 0.72435 0.0
N1279 N 0.96072 0.27304 0.73311 0.0
C1280 C 0.935 0.23526 0.72356 0.0
C1281 C 0.91887 0.24245 0.72012 0.0
H1282 H 0.94936 0.29779 0.73284 0.0
H1283 H 0.96949 0.2464 0.73142 0.0
C1284 C 0.06542 0.314 0.71035 0.0
N1285 N 0.04774 0.31806 0.70721 0.0
C1286 C 0.08024 0.31441 0.69971 0.0
C1287 C 0.0587 0.32372 0.68278 0.0
C1288 C 0.0443 0.32317 0.69378 0.0
C1289 C 0.07693 0.31922 0.68569 0.0
H1290 H 0.06824 0.31084 0.7212 0.0
H1291 H 0.03059 0.32708 0.6916 0.0
O1292 O -0.00036 0.31788 0.75254 0.0
O1293 O 0.04734 0.34473 0.73576 0.0
O1294 O 0.01718 0.28996 0.73522 0.0
O1295 O 0.00069 0.31923 0.71911 0.0
H1296 H 0.03248 0.3532 0.76708 0.0
H1297 H 0.95989 0.3181 0.75534 0.0
H1298 H 0.02649 0.38191 0.78068 0.0
H1299 H 0.95522 0.34756 0.76902 0.0
H1300 H 0.06354 0.39318 0.69788 0.0
H1301 H 0.09113 0.37487 0.742 0.0
H1302 H 0.03639 0.35812 0.7117 0.0
H1303 H 0.1174 0.40979 0.7276 0.0
H1304 H 0.05037 0.31309 0.79877 0.0
H1305 H 0.10138 0.32556 0.7662 0.0
H1306 H 0.97414 0.37927 0.71947 0.0
H1307 H 0.04212 0.42473 0.73765 0.0
H1308 H 0.04767 0.27506 0.73384 0.0
H1309 H 0.98938 0.27002 0.75719 0.0
H1310 H 0.04998 0.24794 0.75106 0.0
H1311 H 0.9926 0.24282 0.77396 0.0
H1312 H -0.00083 0.28034 0.71002 0.0
H1313 H 0.97617 0.32971 0.70157 0.0
H1314 H 0.97674 0.25743 0.68919 0.0
H1315 H 0.95411 0.30585 0.68085 0.0
H1316 H 0.91152 0.2709 0.72194 0.0
H1317 H 0.93222 0.21836 0.72027 0.0
H1318 H 0.09444 0.31147 0.70251 0.0
H1319 H 0.05553 0.32751 0.67213 0.0
Li1320 Li 0.96227 0.63408 0.60161 0.0
Li1321 Li 0.00346 0.65908 0.59634 0.0
Li1322 Li 0.98368 0.62345 0.58283 0.0
Li1323 Li 0.99109 0.62258 0.60806 0.0
C1324 C 0.98489 0.67108 0.57669 0.0
N1325 N 0.00357 0.71491 0.56462 0.0
C1326 C 0.97976 0.68752 0.58238 0.0
C1327 C -0.00059 0.67685 0.56484 0.0
C1328 C 0.9894 0.7096 0.57612 0.0
C1329 C 0.00872 0.69913 0.5589 0.0
C1330 C 0.99155 0.66308 0.62606 0.0
C1331 C 0.00921 0.67941 0.64863 0.0
N1332 N 0.99743 0.69137 0.64905 0.0
C1333 C 0.97952 0.67545 0.62678 0.0
C1334 C 0.00641 0.66496 0.63713 0.0
C1335 C 0.98277 0.68969 0.63846 0.0
C1336 C 0.93016 0.62409 0.62239 0.0
N1337 N 0.93488 0.63247 0.60894 0.0
C1338 C 0.9061 0.64418 0.61045 0.0
C1339 C 0.92297 0.64194 0.60272 0.0
C1340 C 0.90182 0.6368 0.62466 0.0
C1341 C 0.91359 0.62601 0.63046 0.0
H1342 H 0.94032 0.61717 0.62713 0.0
H1343 H 0.92738 0.6488 0.59207 0.0
C1344 C 0.04793 0.69595 0.58773 0.0
N1345 N 0.02854 0.69093 0.5954 0.0
C1346 C 0.06817 0.71773 0.58902 0.0
C1347 C 0.04736 0.72954 0.60494 0.0
C1348 C 0.02761 0.70757 0.60334 0.0
C1349 C 0.06829 0.73454 0.59817 0.0
H1350 H 0.04805 0.68268 0.58111 0.0
H1351 H 0.01181 0.7036 0.60886 0.0
C1352 C 0.95483 0.58157 0.60241 0.0
N1353 N 0.94396 0.53798 0.61246 0.0
C1354 C 0.96628 0.57028 0.59701 0.0
C1355 C 0.93775 0.57062 0.61286 0.0
C1356 C 0.96056 0.54826 0.60224 0.0
C1357 C 0.93253 0.5486 0.61782 0.0
C1358 C 0.03584 0.64218 0.59686 0.0
C1359 C 0.049 0.63462 0.58929 0.0
C1360 C 0.04516 0.65565 0.60905 0.0
C1361 C 0.07133 0.64072 0.59405 0.0
C1362 C 0.06757 0.66143 0.61344 0.0
N1363 N 0.08008 0.65389 0.60592 0.0
C1364 C 0.00329 0.61737 0.5584 0.0
C1365 C 0.96416 0.58733 0.56216 0.0
C1366 C 0.00599 0.60458 0.54758 0.0
N1367 N 0.98285 0.60832 0.56566 0.0
C1368 C 0.9661 0.57388 0.5514 0.0
C1369 C 0.98752 0.58217 0.54428 0.0
H1370 H 0.01793 0.634 0.56156 0.0
H1371 H 0.94826 0.58038 0.56832 0.0
C1372 C 0.98709 0.60394 0.63528 0.0
N1373 N 0.99717 0.60621 0.62239 0.0
C1374 C 0.98986 0.59085 0.64592 0.0
C1375 C 0.01323 0.58265 0.62975 0.0
C1376 C 0.0101 0.59596 0.61947 0.0
C1377 C 0.00288 0.57982 0.64314 0.0
H1378 H 0.9765 0.61191 0.63719 0.0
H1379 H 0.01746 0.59757 0.60903 0.0
O1380 O 0.97618 0.64961 0.5829 0.0
O1381 O 0.9881 0.64849 0.61488 0.0
O1382 O 0.96072 0.60343 0.5977 0.0
O1383 O 0.01386 0.63614 0.59239 0.0
H1384 H 0.96873 0.68338 0.59163 0.0
H1385 H 0.00362 0.66433 0.56037 0.0
H1386 H 0.9857 0.72256 0.58046 0.0
H1387 H 0.02008 0.7039 0.54976 0.0
H1388 H 0.02069 0.68103 0.65725 0.0
H1389 H 0.96806 0.6744 0.6183 0.0
H1390 H 0.0156 0.65526 0.63692 0.0
H1391 H 0.97365 0.69944 0.6391 0.0
H1392 H 0.89746 0.65271 0.60564 0.0
H1393 H 0.91061 0.61984 0.6413 0.0
H1394 H 0.08377 0.72104 0.58336 0.0
H1395 H 0.04655 0.7419 0.61209 0.0
H1396 H 0.97981 0.57865 0.58908 0.0
H1397 H 0.92864 0.57904 0.61712 0.0
H1398 H 0.96942 0.53942 0.59824 0.0
H1399 H 0.91941 0.53996 0.62594 0.0
H1400 H 0.04198 0.62405 0.57988 0.0
H1401 H 0.03529 0.66177 0.61495 0.0
H1402 H 0.0817 0.63496 0.5883 0.0
H1403 H 0.07502 0.67193 0.62283 0.0
H1404 H 0.02267 0.61179 0.54222 0.0
H1405 H 0.95149 0.55662 0.54931 0.0
H1406 H 0.98132 0.5888 0.65604 0.0
H1407 H 0.0235 0.57451 0.62722 0.0
Li1408 Li 0.36938 0.37293 0.6064 0.0
Li1409 Li 0.37038 0.36364 0.58157 0.0
Li1410 Li 0.33378 0.34902 0.59464 0.0
Li1411 Li 0.35739 0.33185 0.60109 0.0
C1412 C 0.36281 0.40439 0.59094 0.0
N1413 N 0.3747 0.45077 0.59321 0.0
C1414 C 0.38131 0.42154 0.58297 0.0
C1415 C 0.35027 0.41086 0.59999 0.0
C1416 C 0.38706 0.44488 0.58428 0.0
C1417 C 0.35659 0.43439 0.60102 0.0
C1418 C 0.40982 0.37531 0.60351 0.0
C1419 C 0.43835 0.38389 0.62183 0.0
N1420 N 0.45187 0.40561 0.61626 0.0
C1421 C 0.42403 0.39769 0.59794 0.0
C1422 C 0.41706 0.3683 0.61552 0.0
C1423 C 0.44522 0.41276 0.60454 0.0
C1424 C 0.38177 0.38677 0.63455 0.0
N1425 N 0.38477 0.39542 0.62116 0.0
C1426 C 0.40997 0.43418 0.62957 0.0
C1427 C 0.39885 0.41861 0.6185 0.0
C1428 C 0.40701 0.42575 0.64349 0.0
C1429 C 0.39286 0.40171 0.64595 0.0
H1430 H 0.37097 0.3682 0.63638 0.0
H1431 H 0.40204 0.42506 0.6078 0.0
C1432 C 0.37735 0.38443 0.55481 0.0
N1433 N 0.38653 0.37574 0.56427 0.0
C1434 C 0.39091 0.39841 0.54361 0.0
C1435 C 0.42259 0.39293 0.55156 0.0
C1436 C 0.40834 0.37892 0.56257 0.0
C1437 C 0.4142 0.40362 0.54221 0.0
H1438 H 0.36008 0.38193 0.55656 0.0
H1439 H 0.41521 0.37187 0.57031 0.0
C1440 C 0.32482 0.33794 0.62276 0.0
N1441 N 0.28755 0.32493 0.64092 0.0
C1442 C 0.31127 0.31464 0.62704 0.0
C1443 C 0.31969 0.35468 0.62791 0.0
C1444 C 0.29243 0.3084 0.63619 0.0
C1445 C 0.30068 0.34773 0.63702 0.0
C1446 C 0.32233 0.31677 0.57546 0.0
C1447 C 0.307 0.29421 0.5804 0.0
C1448 C 0.31599 0.32556 0.56388 0.0
C1449 C 0.28549 0.28083 0.5737 0.0
C1450 C 0.29431 0.31165 0.55747 0.0
N1451 N 0.27963 0.28976 0.56247 0.0
C1452 C 0.29845 0.35976 0.58853 0.0
C1453 C 0.28446 0.32222 0.5986 0.0
C1454 C 0.27658 0.35783 0.59016 0.0
N1455 N 0.30222 0.34253 0.59334 0.0
C1456 C 0.2623 0.31949 0.60036 0.0
C1457 C 0.25843 0.33784 0.59663 0.0
H1458 H 0.31268 0.37548 0.58404 0.0
H1459 H 0.28776 0.3086 0.60214 0.0
C1460 C 0.36258 0.307 0.62268 0.0
N1461 N 0.35761 0.30544 0.60864 0.0
C1462 C 0.36133 0.28801 0.62989 0.0
C1463 C 0.34978 0.266 0.60805 0.0
C1464 C 0.35161 0.28564 0.60118 0.0
C1465 C 0.35454 0.26708 0.62261 0.0
H1466 H 0.36685 0.32285 0.62836 0.0
H1467 H 0.34771 0.2849 0.59001 0.0
O1468 O 0.35671 0.38138 0.58968 0.0
O1469 O 0.38873 0.36053 0.5974 0.0
O1470 O 0.34318 0.34433 0.61369 0.0
O1471 O 0.34332 0.33027 0.58201 0.0
H1472 H 0.39146 0.41702 0.57606 0.0
H1473 H 0.33575 0.39787 0.60611 0.0
H1474 H 0.40143 0.45832 0.57825 0.0
H1475 H 0.34706 0.43963 0.60801 0.0
H1476 H 0.44412 0.37873 0.63117 0.0
H1477 H 0.41854 0.40357 0.5888 0.0
H1478 H 0.40632 0.35105 0.61996 0.0
H1479 H 0.4563 0.43019 0.60041 0.0
H1480 H 0.42128 0.45257 0.62724 0.0
H1481 H 0.39033 0.39458 0.65655 0.0
H1482 H 0.38359 0.40595 0.53651 0.0
H1483 H 0.44046 0.39657 0.55098 0.0
H1484 H 0.31503 0.30146 0.62317 0.0
H1485 H 0.33029 0.37283 0.62493 0.0
H1486 H 0.28164 0.2904 0.63949 0.0
H1487 H 0.29639 0.36047 0.641 0.0
H1488 H 0.31147 0.28725 0.58948 0.0
H1489 H 0.3276 0.343 0.55996 0.0
H1490 H 0.27339 0.2634 0.57747 0.0
H1491 H 0.28913 0.31827 0.54854 0.0
H1492 H 0.27416 0.37223 0.58695 0.0
H1493 H 0.24884 0.30384 0.60549 0.0
H1494 H 0.36477 0.28941 0.64116 0.0
H1495 H 0.34453 0.25013 0.6021 0.0
Li1496 Li 0.64565 -0.00063 0.59842 0.0
Li1497 Li 0.62854 0.01703 0.61246 0.0
Li1498 Li 0.63199 0.0227 0.58681 0.0
Li1499 Li 0.66814 0.04097 0.60293 0.0
C1500 C 0.59501 0.97366 0.59291 0.0
N1501 N 0.5571 0.93262 0.58345 0.0
C1502 C 0.57819 0.95829 0.6025 0.0
C1503 C 0.59244 0.96817 0.57849 0.0
C1504 C 0.55919 0.93762 0.59752 0.0
C1505 C 0.57318 0.94735 0.57392 0.0
C1506 C 0.65468 0.00035 0.62726 0.0
C1507 C 0.67158 0.98894 0.64605 0.0
N1508 N 0.65088 0.96877 0.64776 0.0
C1509 C 0.63357 0.97954 0.62922 0.0
C1510 C 0.67385 0.00513 0.63574 0.0
C1511 C 0.632 0.96379 0.63962 0.0
C1512 C 0.67176 0.9774 0.60146 0.0
N1513 N 0.6499 0.9728 0.59808 0.0
C1514 C 0.63516 0.93175 0.60044 0.0
C1515 C 0.63184 0.95047 0.59709 0.0
C1516 C 0.65727 0.93608 0.60482 0.0
C1517 C 0.67592 0.95923 0.60473 0.0
H1518 H 0.6857 0.99531 0.60248 0.0
H1519 H 0.61454 0.94709 0.59462 0.0
C1520 C 0.58591 0.00633 0.62417 0.0
N1521 N 0.60832 0.01323 0.62773 0.0
C1522 C 0.56962 0.00279 0.63463 0.0
C1523 C 0.59996 0.01426 0.65224 0.0
C1524 C 0.61567 0.01735 0.64141 0.0
C1525 C 0.57656 0.00665 0.64887 0.0
H1526 H 0.58074 0.00359 0.61317 0.0
H1527 H 0.63371 0.02312 0.64389 0.0
C1528 C 0.67423 0.01556 0.5765 0.0
N1529 N 0.6963 0.99614 0.56156 0.0
C1530 C 0.69834 0.0249 0.57771 0.0
C1531 C 0.66142 0.99662 0.56748 0.0
C1532 C 0.70916 0.01477 0.57013 0.0
C1533 C 0.67286 0.98696 0.56008 0.0
C1534 C 0.6348 0.05914 0.61084 0.0
C1535 C 0.61578 0.06194 0.60746 0.0
C1536 C 0.64639 0.06764 0.62372 0.0
C1537 C 0.60855 0.07309 0.61709 0.0
C1538 C 0.63863 0.07871 0.63305 0.0
N1539 N 0.62001 0.08116 0.62958 0.0
C1540 C 0.59372 0.02079 0.57432 0.0
C1541 C 0.62332 0.0279 0.55759 0.0
C1542 C 0.57843 0.01872 0.56356 0.0
N1543 N 0.61554 0.02506 0.57117 0.0
C1544 C 0.60853 0.02594 0.54643 0.0
C1545 C 0.58559 0.02084 0.54938 0.0
H1546 H 0.58789 0.01808 0.58521 0.0
H1547 H 0.64063 0.03077 0.55541 0.0
C1548 C 0.71344 0.05905 0.61212 0.0
N1549 N 0.69812 0.06577 0.60774 0.0
C1550 C 0.73404 0.0749 0.61891 0.0
C1551 C 0.72326 0.10464 0.61602 0.0
C1552 C 0.70286 0.08819 0.60916 0.0
C1553 C 0.73876 0.09781 0.62143 0.0
H1554 H 0.70902 0.04101 0.611 0.0
H1555 H 0.69016 0.09293 0.60577 0.0
O1556 O 0.61363 0.99408 0.59763 0.0
O1557 O 0.65684 0.01568 0.61681 0.0
O1558 O 0.6633 0.02506 0.584 0.0
O1559 O 0.64174 0.04764 0.60177 0.0
H1560 H 0.57976 0.96222 0.61369 0.0
H1561 H 0.60507 0.97986 0.57087 0.0
H1562 H 0.54609 0.92556 0.60483 0.0
H1563 H 0.57099 0.94292 0.56279 0.0
H1564 H 0.68629 0.99239 0.65268 0.0
H1565 H 0.61864 0.97549 0.62268 0.0
H1566 H 0.69035 0.02114 0.63436 0.0
H1567 H 0.61579 0.94757 0.6412 0.0
H1568 H 0.62018 0.91425 0.60051 0.0
H1569 H 0.69334 0.9634 0.60782 0.0
H1570 H 0.55183 0.99734 0.6316 0.0
H1571 H 0.60592 0.01745 0.66311 0.0
H1572 H 0.70861 0.03981 0.58443 0.0
H1573 H 0.64283 0.98932 0.56629 0.0
H1574 H 0.72779 0.02174 0.57104 0.0
H1575 H 0.66311 0.97216 0.55316 0.0
H1576 H 0.60666 0.05554 0.59754 0.0
H1577 H 0.66092 0.0653 0.62659 0.0
H1578 H 0.5938 0.07531 0.61464 0.0
H1579 H 0.64732 0.08521 0.6431 0.0
H1580 H 0.56103 0.01508 0.56633 0.0
H1581 H 0.61464 0.02746 0.53563 0.0
H1582 H 0.74568 0.06897 0.62267 0.0
H1583 H 0.72607 0.12205 0.61784 0.0
H1584 H 0.47009 0.03729 0.04927 0.0
H1585 H 0.49484 0.03038 0.03295 0.0
H1586 H 0.43374 0.98141 0.00956 0.0
H1587 H 0.40901 0.9878 0.02603 0.0
H1588 H 0.46127 0.96444 0.01222 0.0
H1589 H 0.4717 0.03848 0.99768 0.0
H1590 H 0.48082 0.07926 0.00068 0.0
H1591 H 0.55031 0.09896 0.01402 0.0
H1592 H 0.54151 0.05821 0.01129 0.0
H1593 H 0.52524 0.95906 0.95282 0.0
H1594 H 0.49908 0.96734 0.967 0.0
H1595 H 0.55617 0.01061 0.99489 0.0
H1596 H 0.58235 0.00276 0.9807 0.0
H1597 H 0.52955 0.03046 0.98869 0.0
H1598 H 0.51753 0.95524 0.004 0.0
H1599 H 0.50783 0.91438 0.00045 0.0
H1600 H 0.44021 0.89709 0.98465 0.0
H1601 H 0.44964 0.93795 0.98793 0.0
C1602 C 0.46201 0.02503 0.04065 0.0
C1603 C 0.43765 0.013 0.03895 0.0
C1604 C 0.47613 0.02117 0.03129 0.0
C1605 C 0.46619 0.00562 0.01988 0.0
C1606 C 0.44183 0.99345 0.01828 0.0
C1607 C 0.42771 0.99706 0.02772 0.0
C1608 C 0.48108 0.00187 0.00963 0.0
C1609 C 0.47598 0.97889 0.00692 0.0
C1610 C 0.50047 0.02069 0.00282 0.0
C1611 C 0.50587 0.04525 0.0044 0.0
C1612 C 0.48888 0.05147 0.00135 0.0
C1613 C 0.494 0.07459 0.00299 0.0
C1614 C 0.51611 0.09168 0.00757 0.0
C1615 C 0.53318 0.0857 0.01049 0.0
C1616 C 0.52814 0.0626 0.00888 0.0
C1617 C 0.53222 0.97055 0.96188 0.0
C1618 C 0.55575 0.98004 0.96576 0.0
C1619 C 0.51726 0.97515 0.97 0.0
C1620 C 0.52565 0.98937 0.98209 0.0
C1621 C 0.54932 -0.00046 0.98564 0.0
C1622 C 0.5642 0.99487 0.97759 0.0
C1623 C 0.50976 0.99312 0.9914 0.0
C1624 C 0.5147 0.01607 0.99393 0.0
C1625 C 0.4901 0.97428 0.99795 0.0
C1626 C 0.48438 0.94969 0.99607 0.0
C1627 C 0.50066 0.94276 -0.00033 0.0
C1628 C 0.4952 0.9196 0.99772 0.0
C1629 C 0.47344 0.90316 0.99229 0.0
C1630 C 0.45707 0.90985 0.98883 0.0
C1631 C 0.46246 0.933 0.99074 0.0
H1632 H 0.46925 0.88524 0.99079 0.0
H1633 H 0.52004 0.10957 0.00883 0.0
H1634 H 0.94554 0.40368 0.02712 0.0
H1635 H 0.95469 0.43644 0.01148 0.0
H1636 H 0.0032 0.48414 0.04227 0.0
H1637 H 0.9931 0.45147 0.05842 0.0
H1638 H 0.98082 0.50311 0.02972 0.0
H1639 H 0.02226 0.46506 0.01406 0.0
H1640 H 0.02638 0.43144 0.00686 0.0
H1641 H 0.98038 0.41862 0.97173 0.0
H1642 H 0.97586 0.45211 0.97878 0.0
H1643 H 0.0466 0.59684 0.98295 0.0
H1644 H 0.03659 0.56366 0.9986 0.0
H1645 H 0.98169 0.5182 0.97008 0.0
H1646 H 0.99127 0.55143 0.95446 0.0
H1647 H 0.00759 0.4983 0.98135 0.0
H1648 H 0.9674 0.53807 0.9976 0.0
H1649 H 0.96512 0.57257 0.00518 0.0
H1650 H 0.01132 0.58312 0.03985 0.0
H1651 H 0.01416 0.54887 0.03233 0.0
C1652 C 0.95763 0.42116 0.03081 0.0
C1653 C 0.96862 0.42488 0.04407 0.0
C1654 C 0.96312 0.43988 0.02172 0.0
C1655 C 0.98006 0.46267 0.02555 0.0
C1656 C 0.99023 0.46665 0.03904 0.0
C1657 C 0.98455 0.44793 0.04822 0.0
C1658 C 0.9878 0.48215 0.01525 0.0
C1659 C 0.98693 0.50216 0.01921 0.0
C1660 C 0.99554 0.48083 0.00146 0.0
C1661 C 0.99857 0.46096 0.99702 0.0
C1662 C 0.01294 0.455 0.00484 0.0
C1663 C 0.01535 0.43598 0.00078 0.0
C1664 C 0.00356 0.42283 0.98888 0.0
C1665 C 0.98946 0.42879 0.98096 0.0
C1666 C 0.98701 0.44783 0.98496 0.0
C1667 C 0.03243 0.57978 0.97997 0.0
C1668 C 0.01952 0.57684 0.96755 0.0
C1669 C 0.0268 0.56084 0.9889 0.0
C1670 C 0.00818 0.5386 0.98559 0.0
C1671 C 0.9961 0.53527 0.97282 0.0
C1672 C 0.00166 0.55426 0.96388 0.0
C1673 C 0.00053 0.51914 0.99584 0.0
C1674 C 0.00145 0.49919 0.99186 0.0
C1675 C 0.99311 0.52063 0.00967 0.0
C1676 C 0.99116 0.54103 0.01432 0.0
C1677 C 0.9772 0.54784 0.00678 0.0
C1678 C 0.97579 0.56734 0.01107 0.0
C1679 C 0.98811 0.58006 0.02297 0.0
C1680 C 0.00181 0.57326 0.03062 0.0
C1681 C 0.00331 0.5538 0.02636 0.0
H1682 H 0.987 0.59516 0.02628 0.0
H1683 H 0.00541 0.40807 0.98579 0.0
H1684 H 0.411 0.45664 0.97022 0.0
H1685 H 0.44216 0.48192 0.98645 0.0
H1686 H 0.48583 0.45625 0.96968 0.0
H1687 H 0.45456 0.43072 0.95345 0.0
H1688 H 0.48594 0.4554 0.99766 0.0
H1689 H 0.49669 0.51206 0.96248 0.0
H1690 H 0.48505 0.53392 0.94646 0.0
H1691 H 0.46402 0.55936 0.9821 0.0
H1692 H 0.47524 0.53738 0.99833 0.0
H1693 H 0.59221 0.54131 0.02935 0.0
H1694 H 0.56092 0.51578 0.0133 0.0
H1695 H 0.51545 0.53745 0.03227 0.0
H1696 H 0.54661 0.56281 0.04861 0.0
H1697 H 0.51637 0.54046 0.00326 0.0
H1698 H 0.50621 0.48353 0.03838 0.0
H1699 H 0.51872 0.46202 0.05407 0.0
H1700 H 0.53979 0.43755 0.01798 0.0
H1701 H 0.5277 0.45919 0.00207 0.0
C1702 C 0.42742 0.45675 0.96977 0.0
C1703 C 0.43036 0.44175 0.96052 0.0
C1704 C 0.44521 0.47118 0.97908 0.0
C1705 C 0.4664 0.47111 0.97922 0.0
C1706 C 0.46959 0.45654 0.96978 0.0
C1707 C 0.45174 0.44199 0.96052 0.0
C1708 C 0.48476 0.48538 0.9897 0.0
C1709 C 0.49286 0.47407 0.99873 0.0
C1710 C 0.49335 0.50963 0.99135 0.0
C1711 C 0.4866 0.52288 0.98161 0.0
C1712 C 0.48941 0.52216 0.96689 0.0
C1713 C 0.48292 0.5346 0.95777 0.0
C1714 C 0.47375 0.54797 0.96325 0.0
C1715 C 0.4711 0.54897 0.97787 0.0
C1716 C 0.47754 0.53654 0.98703 0.0
C1717 C 0.57538 0.54022 0.0304 0.0
C1718 C 0.5719 0.55405 0.04033 0.0
C1719 C 0.55755 0.5257 0.02114 0.0
C1720 C 0.53586 0.52468 0.02163 0.0
C1721 C 0.53212 0.53807 0.0317 0.0
C1722 C 0.54993 0.55254 0.04101 0.0
C1723 C 0.51749 0.51046 0.01118 0.0
C1724 C 0.50942 0.52178 0.00217 0.0
C1725 C 0.50903 0.48626 0.00949 0.0
C1726 C 0.51625 0.47317 0.01904 0.0
C1727 C 0.51369 0.47372 0.03379 0.0
C1728 C 0.52067 0.46147 0.04273 0.0
C1729 C 0.5301 0.44847 0.03703 0.0
C1730 C 0.53251 0.44765 0.02238 0.0
C1731 C 0.52557 0.45988 0.0134 0.0
H1732 H 0.53549 0.439 0.04397 0.0
H1733 H 0.46874 0.55759 0.95617 0.0
H1734 H 0.09627 0.31091 0.37612 0.0
H1735 H 0.12356 0.3064 0.36115 0.0
H1736 H 0.17043 0.38102 0.36186 0.0
H1737 H 0.14205 0.38593 0.37563 0.0
H1738 H 0.16843 0.36829 0.33687 0.0
H1739 H 0.18089 0.33843 0.37975 0.0
H1740 H 0.17075 0.31433 0.40137 0.0
H1741 H 0.13989 0.25193 0.37619 0.0
H1742 H 0.14957 0.27564 0.35441 0.0
H1743 H 0.26338 0.35625 0.30855 0.0
H1744 H 0.23858 0.36217 0.32514 0.0
H1745 H 0.17875 0.29833 0.31103 0.0
H1746 H 0.20305 0.29282 0.29367 0.0
H1747 H 0.18956 0.3066 0.34316 0.0
H1748 H 0.17752 0.33999 0.30016 0.0
H1749 H 0.19138 0.36644 0.27952 0.0
H1750 H 0.22676 0.42563 0.30711 0.0
H1751 H 0.21337 0.39947 0.32791 0.0
C1752 C 0.11228 0.32646 0.37305 0.0
C1753 C 0.11664 0.34885 0.37699 0.0
C1754 C 0.12817 0.32378 0.36466 0.0
C1755 C 0.1493 0.34333 0.36044 0.0
C1756 C 0.15425 0.36562 0.36493 0.0
C1757 C 0.13807 0.36837 0.37302 0.0
C1758 C 0.16535 0.34064 0.35053 0.0
C1759 C 0.17331 0.35503 0.33845 0.0
C1760 C 0.17163 0.32318 0.35237 0.0
C1761 C 0.16579 0.30883 0.36544 0.0
C1762 C 0.17179 0.31957 0.37882 0.0
C1763 C 0.16615 0.30597 0.39111 0.0
C1764 C 0.15464 0.28162 0.39015 0.0
C1765 C 0.14879 0.2708 0.37691 0.0
C1766 C 0.15438 0.28431 0.36459 0.0
C1767 C 0.24487 0.34368 0.30864 0.0
C1768 C 0.23529 0.32409 0.2996 0.0
C1769 C 0.23079 0.34701 0.31828 0.0
C1770 C 0.20694 0.33065 0.31929 0.0
C1771 C 0.19721 0.31105 0.31042 0.0
C1772 C 0.21119 0.30791 0.30055 0.0
C1773 C 0.1922 0.33406 0.32968 0.0
C1774 C 0.18462 0.31986 0.34177 0.0
C1775 C 0.18676 0.35205 0.32807 0.0
C1776 C 0.19467 0.36776 0.31557 0.0
C1777 C 0.18844 0.35862 0.30182 0.0
C1778 C 0.19617 0.37356 0.29009 0.0
C1779 C 0.21 0.39769 0.292 0.0
C1780 C 0.21608 0.40693 0.30564 0.0
C1781 C 0.20841 0.39206 0.3174 0.0
H1782 H 0.21597 0.40923 0.28291 0.0
H1783 H 0.15028 0.27113 0.39968 0.0
H1784 H 0.62464 0.75046 0.37075 0.0
H1785 H 0.63108 0.78268 0.35512 0.0
H1786 H 0.70529 0.81558 0.36229 0.0
H1787 H 0.69894 0.78368 0.37821 0.0
H1788 H 0.69007 0.84739 0.3616 0.0
H1789 H 0.68188 0.78284 0.33342 0.0
H1790 H 0.66186 0.74186 0.32537 0.0
H1791 H 0.60324 0.74794 0.31166 0.0
H1792 H 0.62278 0.78888 0.31983 0.0
H1793 H 0.73208 0.92372 0.30342 0.0
H1794 H 0.72406 0.89127 0.31929 0.0
H1795 H 0.65064 0.85879 0.3096 0.0
H1796 H 0.65858 0.89115 0.29363 0.0
H1797 H 0.66419 0.82661 0.31177 0.0
H1798 H 0.67204 0.89094 0.33929 0.0
H1799 H 0.69136 0.93184 0.34743 0.0
H1800 H 0.74948 0.92615 0.36264 0.0
H1801 H 0.73066 0.8853 0.35438 0.0
C1802 C 0.64228 0.76483 0.36928 0.0
C1803 C 0.66131 0.76447 0.37565 0.0
C1804 C 0.64595 0.7831 0.36023 0.0
C1805 C 0.66869 0.80129 0.35736 0.0
C1806 C 0.68761 0.80163 0.3643 0.0
C1807 C 0.68397 0.78334 0.37332 0.0
C1808 C 0.67292 0.81933 0.34661 0.0
C1809 C 0.68464 0.84289 0.35067 0.0
C1810 C 0.66534 0.81336 0.33243 0.0
C1811 C 0.65369 0.78884 0.32736 0.0
C1812 C 0.66465 0.77539 0.32878 0.0
C1813 C 0.6534 0.75218 0.32418 0.0
C1814 C 0.63127 0.74229 0.31804 0.0
C1815 C 0.62037 0.75562 0.31644 0.0
C1816 C 0.63153 0.77883 0.32104 0.0
C1817 C 0.71427 0.90953 0.30456 0.0
C1818 C 0.69594 0.91004 0.29737 0.0
C1819 C 0.7097 0.89104 0.31365 0.0
C1820 C 0.68669 0.87288 0.31585 0.0
C1821 C 0.66851 0.87268 0.30809 0.0
C1822 C 0.67309 0.89113 0.29892 0.0
C1823 C 0.68151 0.85471 0.32673 0.0
C1824 C 0.66958 0.83113 0.3227 0.0
C1825 C 0.68878 0.86065 0.34097 0.0
C1826 C 0.70003 0.88513 0.3461 0.0
C1827 C 0.68901 0.89846 0.34428 0.0
C1828 C 0.69986 0.92163 0.34893 0.0
C1829 C 0.72166 0.93161 0.35552 0.0
C1830 C 0.73261 0.91841 0.35752 0.0
C1831 C 0.72185 0.89524 0.35286 0.0
H1832 H 0.73003 0.94955 0.35911 0.0
H1833 H 0.62258 0.72431 0.31449 0.0
H1834 H 0.10258 0.79221 0.28084 0.0
H1835 H 0.13402 0.81925 0.29644 0.0
H1836 H 0.11711 0.7631 0.32596 0.0
H1837 H 0.08509 0.73628 0.31079 0.0
H1838 H 0.12365 0.80052 0.33965 0.0
H1839 H 0.16522 0.78433 0.30407 0.0
H1840 H 0.17726 0.78116 0.27985 0.0
H1841 H 0.20457 0.85467 0.2734 0.0
H1842 H 0.19239 0.85822 0.29753 0.0
H1843 H 0.22954 0.85758 0.37999 0.0
H1844 H 0.19728 0.83054 0.36472 0.0
H1845 H 0.20875 0.88803 0.33771 0.0
H1846 H 0.24098 0.91503 0.35283 0.0
H1847 H 0.20517 0.85003 0.32288 0.0
H1848 H 0.16343 0.86557 0.35899 0.0
H1849 H 0.15183 0.86801 0.38346 0.0
H1850 H 0.12546 0.7945 0.38914 0.0
H1851 H 0.13722 0.79168 0.36475 0.0
C1852 C 0.1055 0.78564 0.29067 0.0
C1853 C 0.09139 0.76202 0.29449 0.0
C1854 C 0.12361 0.80107 0.29953 0.0
C1855 C 0.12809 0.79314 0.31231 0.0
C1856 C 0.11404 0.7696 0.31613 0.0
C1857 C 0.0959 0.75421 0.30734 0.0
C1858 C 0.14707 0.80942 0.32187 0.0
C1859 C 0.14153 0.81111 0.33602 0.0
C1860 C 0.17033 0.82356 0.31708 0.0
C1861 C 0.17767 0.82149 0.30256 0.0
C1862 C 0.17361 0.79978 0.29745 0.0
C1863 C 0.1805 0.79792 0.28374 0.0
C1864 C 0.19162 0.81769 0.27507 0.0
C1865 C 0.19592 0.83937 0.28011 0.0
C1866 C 0.18905 0.84132 0.29381 0.0
C1867 C 0.22507 0.86442 0.37084 0.0
C1868 C 0.23765 0.88841 0.36765 0.0
C1869 C 0.20663 0.84901 0.36216 0.0
C1870 C 0.20062 0.85734 0.35013 0.0
C1871 C 0.21311 0.88128 0.34697 0.0
C1872 C 0.23136 0.89669 0.35568 0.0
C1873 C 0.1817 0.84107 0.3406 0.0
C1874 C 0.18727 0.8394 0.32647 0.0
C1875 C 0.15853 0.82681 0.34543 0.0
C1876 C 0.15144 0.82847 0.36009 0.0
C1877 C 0.15535 0.84996 0.3655 0.0
C1878 C 0.14871 0.85141 0.37934 0.0
C1879 C 0.13797 0.83144 0.38786 0.0
C1880 C 0.13381 0.80996 0.38254 0.0
C1881 C 0.14045 0.80843 0.3687 0.0
H1882 H 0.13283 0.83259 0.39858 0.0
H1883 H 0.19694 0.81622 0.26447 0.0
H1884 H 0.8584 0.63047 0.61868 0.0
H1885 H 0.8332 0.63779 0.63443 0.0
H1886 H 0.88609 0.66205 0.66687 0.0
H1887 H 0.91108 0.6546 0.65131 0.0
H1888 H 0.84531 0.63357 0.67802 0.0
H1889 H 0.87629 0.70014 0.64712 0.0
H1890 H 0.88509 0.72066 0.62416 0.0
H1891 H 0.81183 0.68777 0.61493 0.0
H1892 H 0.8026 0.66681 0.63776 0.0
H1893 H 0.78965 0.70723 0.70452 0.0
H1894 H 0.81754 0.70219 0.69008 0.0
H1895 H 0.77333 0.62731 0.69264 0.0
H1896 H 0.74573 0.6322 0.70743 0.0
H1897 H 0.81128 0.6828 0.66446 0.0
H1898 H 0.80693 0.60178 0.69135 0.0
H1899 H 0.80117 0.58433 0.71517 0.0
H1900 H 0.82694 0.65193 0.73403 0.0
H1901 H 0.83315 0.66982 0.71034 0.0
C1902 C 0.86464 0.63749 0.62914 0.0
C1903 C 0.88658 0.64174 0.63382 0.0
C1904 C 0.85027 0.64169 0.63812 0.0
C1905 C 0.85779 0.65053 0.65183 0.0
C1906 C 0.87983 0.65504 0.6564 0.0
C1907 C 0.89407 0.65072 0.6475 0.0
C1908 C 0.84269 0.65478 0.66158 0.0
C1909 C 0.83785 0.64431 0.67504 0.0
C1910 C 0.83326 0.66911 0.6578 0.0
C1911 C 0.83877 0.68174 0.64408 0.0
C1912 C 0.86206 0.69715 0.64014 0.0
C1913 C 0.86713 0.70888 0.62716 0.0
C1914 C 0.84904 0.70547 0.61807 0.0
C1915 C 0.82583 0.69037 0.62197 0.0
C1916 C 0.82067 0.67857 0.63493 0.0
C1917 C 0.78613 0.68969 0.70229 0.0
C1918 C 0.7655 0.67011 0.70716 0.0
C1919 C 0.80195 0.68684 0.6939 0.0
C1920 C 0.79753 0.66439 0.69029 0.0
C1921 C 0.7772 0.64481 0.69539 0.0
C1922 C 0.76138 0.64763 0.70377 0.0
C1923 C 0.81379 0.66143 0.68084 0.0
C1924 C 0.81875 0.67206 0.66743 0.0
C1925 C 0.82374 0.64764 0.68477 0.0
C1926 C 0.82027 0.63708 0.69907 0.0
C1927 C 0.81144 0.61292 0.70058 0.0
C1928 C 0.80808 0.60296 0.71406 0.0
C1929 C 0.81361 0.617 0.7261 0.0
C1930 C 0.82257 0.64106 0.72469 0.0
C1931 C 0.82598 0.65111 0.71125 0.0
H1932 H 0.81099 0.60925 0.73652 0.0
H1933 H 0.853 0.71458 0.60803 0.0
H1934 H 0.38441 0.26456 0.64146 0.0
H1935 H 0.37707 0.23133 0.65649 0.0
H1936 H 0.30967 0.18969 0.63695 0.0
H1937 H 0.31696 0.22292 0.62186 0.0
H1938 H 0.30828 0.18942 0.66667 0.0
H1939 H 0.35056 0.17744 0.62948 0.0
H1940 H 0.38336 0.18868 0.61294 0.0
H1941 H 0.43032 0.20473 0.64794 0.0
H1942 H 0.39784 0.1939 0.6647 0.0
H1943 H 0.28109 0.08088 0.69805 0.0
H1944 H 0.28818 0.11297 0.68218 0.0
H1945 H 0.35938 0.15222 0.69687 0.0
H1946 H 0.35243 0.11993 0.71265 0.0
H1947 H 0.35843 0.1534 0.66912 0.0
H1948 H 0.31736 0.1667 0.70637 0.0
H1949 H 0.28529 0.15655 0.72333 0.0
H1950 H 0.23705 0.13949 0.68894 0.0
H1951 H 0.26878 0.14925 0.67177 0.0
C1952 C 0.36815 0.24823 0.64028 0.0
C1953 C 0.35125 0.24627 0.63051 0.0
C1954 C 0.36401 0.22927 0.64882 0.0
C1955 C 0.34285 0.20808 0.6478 0.0
C1956 C 0.32612 0.20591 0.63786 0.0
C1957 C 0.33037 0.22481 0.62919 0.0
C1958 C 0.33777 0.18862 0.65763 0.0
C1959 C 0.31899 0.18124 0.66708 0.0
C1960 C 0.35223 0.17855 0.65841 0.0
C1961 C 0.3718 0.18507 0.64835 0.0
C1962 C 0.36791 0.18357 0.63365 0.0
C1963 C 0.38644 0.18982 0.62423 0.0
C1964 C 0.40892 0.19747 0.62938 0.0
C1965 C 0.4129 0.19883 0.64396 0.0
C1966 C 0.39444 0.19261 0.65343 0.0
C1967 C 0.29812 0.09654 0.69811 0.0
C1968 C 0.31618 0.09795 0.70664 0.0
C1969 C 0.30217 0.11487 0.689 0.0
C1970 C 0.32427 0.13512 0.6884 0.0
C1971 C 0.34221 0.13675 0.69712 0.0
C1972 C 0.33822 0.11833 0.70614 0.0
C1973 C 0.32893 0.15417 0.67826 0.0
C1974 C 0.34766 0.1615 0.66873 0.0
C1975 C 0.31454 0.16435 0.6775 0.0
C1976 C 0.29541 0.15849 0.68779 0.0
C1977 C 0.29988 0.16061 0.70243 0.0
C1978 C 0.28177 0.15495 0.71208 0.0
C1979 C 0.25914 0.14732 0.70721 0.0
C1980 C 0.25458 0.14538 0.69269 0.0
C1981 C 0.27263 0.15099 0.683 0.0
H1982 H 0.24514 0.14295 0.7147 0.0
H1983 H 0.42324 0.20229 0.62207 0.0
H1984 H 0.75279 0.08611 0.64572 0.0
H1985 H 0.78346 0.1118 0.66197 0.0
H1986 H 0.79909 0.17105 0.63544 0.0
H1987 H 0.76875 0.14517 0.61873 0.0
H1988 H 0.83876 0.17268 0.64522 0.0
H1989 H 0.76745 0.16168 0.66492 0.0
H1990 H 0.72663 0.13929 0.67314 0.0
H1991 H 0.74611 0.10515 0.70453 0.0
H1992 H 0.78702 0.12709 0.69634 0.0
H1993 H 0.90464 0.25716 0.69726 0.0
H1994 H 0.87358 0.2334 0.68056 0.0
H1995 H 0.85752 0.17136 0.70436 0.0
H1996 H 0.88842 0.19519 0.72135 0.0
H1997 H 0.81787 0.17262 0.69572 0.0
H1998 H 0.88949 0.18374 0.67535 0.0
H1999 H 0.93032 0.20737 0.66735 0.0
H2000 H 0.91003 0.24259 0.63721 0.0
H2001 H 0.8691 0.21943 0.64522 0.0
C2002 C 0.763 0.10453 0.64314 0.0
C2003 C 0.75835 0.11357 0.63086 0.0
C2004 C 0.78037 0.11924 0.65256 0.0
C2005 C 0.79331 0.14337 0.65003 0.0
C2006 C 0.78919 0.15247 0.63762 0.0
C2007 C 0.77177 0.1377 0.62814 0.0
C2008 C 0.81083 0.15899 0.66052 0.0
C2009 C 0.83414 0.17295 0.65621 0.0
C2010 C 0.80484 0.15903 0.67492 0.0
C2011 C 0.78027 0.14588 0.67993 0.0
C2012 C 0.763 0.14926 0.6735 0.0
C2013 C 0.73985 0.13667 0.67817 0.0
C2014 C 0.73377 0.12077 0.68933 0.0
C2015 C 0.75085 0.11746 0.69587 0.0
C2016 C 0.77402 0.12998 0.69123 0.0
C2017 C 0.8942 0.23852 0.69912 0.0
C2018 C 0.89886 0.22803 0.71068 0.0
C2019 C 0.87663 0.22495 0.68948 0.0
C2020 C 0.86344 0.20062 0.69116 0.0
C2021 C 0.86757 0.19013 0.70288 0.0
C2022 C 0.88526 0.20371 0.71253 0.0
C2023 C 0.84578 0.18611 0.68044 0.0
C2024 C 0.82245 0.17238 0.68472 0.0
C2025 C 0.85174 0.1864 0.66601 0.0
C2026 C 0.87626 0.2 0.66098 0.0
C2027 C 0.89375 0.19663 0.66709 0.0
C2028 C 0.91691 0.20993 0.66254 0.0
C2029 C 0.92278 0.22652 0.6518 0.0
C2030 C 0.90547 0.22976 0.64555 0.0
C2031 C 0.88228 0.21654 0.65008 0.0
H2032 H 0.94073 0.23681 0.64831 0.0
H2033 H 0.71584 0.11104 0.69293 0.0
H2034 H 0.31894 0.07462 0.14709 0.0
H2035 H 0.31534 0.1016 0.16324 0.0
H2036 H 0.37172 0.16008 0.14143 0.0
H2037 H 0.3758 0.13305 0.12555 0.0
H2038 H 0.37419 0.169 0.16872 0.0
H2039 H 0.31364 0.14085 0.13372 0.0
H2040 H 0.2805 0.11086 0.11999 0.0
H2041 H 0.24031 0.08436 0.15815 0.0
H2042 H 0.27336 0.11399 0.17214 0.0
H2043 H 0.34727 0.25577 0.18926 0.0
H2044 H 0.35172 0.22789 0.17448 0.0
H2045 H 0.30111 0.17101 0.20016 0.0
H2046 H 0.29686 0.19878 0.21518 0.0
H2047 H 0.29562 0.16123 0.17125 0.0
H2048 H 0.35711 0.19101 0.206 0.0
H2049 H 0.39048 0.22211 0.21902 0.0
H2050 H 0.42913 0.24697 0.18022 0.0
H2051 H 0.39583 0.21622 0.16692 0.0
C2052 C 0.33081 0.09323 0.14594 0.0
C2053 C 0.34756 0.10181 0.13506 0.0
C2054 C 0.32866 0.10863 0.15509 0.0
C2055 C 0.34285 0.13289 0.15331 0.0
C2056 C 0.36049 0.14143 0.14296 0.0
C2057 C 0.36287 0.126 0.13392 0.0
C2058 C 0.33848 0.14933 0.16169 0.0
C2059 C 0.35707 0.16743 0.16914 0.0
C2060 C 0.31606 0.14716 0.1624 0.0
C2061 C 0.29605 0.1295 0.15399 0.0
C2062 C 0.29779 0.12853 0.13919 0.0
C2063 C 0.27901 0.11161 0.13136 0.0
C2064 C 0.25833 0.09568 0.13819 0.0
C2065 C 0.25635 0.09669 0.15287 0.0
C2066 C 0.2751 0.11356 0.16076 0.0
C2067 C 0.33702 0.23732 0.19175 0.0
C2068 C 0.32186 0.22953 0.20349 0.0
C2069 C 0.33957 0.22143 0.18328 0.0
C2070 C 0.32702 0.19745 0.18638 0.0
C2071 C 0.31099 0.18947 0.19762 0.0
C2072 C 0.30848 0.20537 0.20614 0.0
C2073 C 0.3313 0.1808 0.17823 0.0
C2074 C 0.31271 0.16271 0.17083 0.0
C2075 C 0.35375 0.18314 0.17745 0.0
C2076 C 0.3739 0.20145 0.18545 0.0
C2077 C 0.37266 0.20321 0.20023 0.0
C2078 C 0.39157 0.22076 0.20766 0.0
C2079 C 0.41189 0.23654 0.20045 0.0
C2080 C 0.41337 0.23475 0.18579 0.0
C2081 C 0.39449 0.21726 0.1783 0.0
H2082 H 0.42651 0.25012 0.20622 0.0
H2083 H 0.24382 0.08258 0.13211 0.0
H2084 H 0.87381 0.20518 0.11172 0.0
H2085 H 0.84825 0.17701 0.12938 0.0
H2086 H 0.88202 0.22846 0.16222 0.0
H2087 H 0.90835 0.25658 0.14462 0.0
H2088 H 0.87646 0.18717 0.17014 0.0
H2089 H 0.82762 0.21399 0.15022 0.0
H2090 H 0.80809 0.22331 0.13118 0.0
H2091 H 0.77145 0.15132 0.11843 0.0
H2092 H 0.79102 0.14162 0.13727 0.0
H2093 H 0.79234 0.12736 0.22362 0.0
H2094 H 0.81661 0.15593 0.20576 0.0
H2095 H 0.78706 0.10278 0.17352 0.0
H2096 H 0.76292 0.07379 0.19144 0.0
H2097 H 0.79017 0.14494 0.16539 0.0
H2098 H 0.83972 0.11861 0.18547 0.0
H2099 H 0.85906 0.10974 0.20484 0.0
H2100 H 0.89422 0.18171 0.21764 0.0
H2101 H 0.87482 0.19095 0.19847 0.0
C2102 C 0.87598 0.21048 0.12271 0.0
C2103 C 0.89323 0.23312 0.12677 0.0
C2104 C 0.86114 0.19442 0.13278 0.0
C2105 C 0.86303 0.2007 0.1471 0.0
C2106 C 0.8802 0.22328 0.15121 0.0
C2107 C 0.89512 0.23937 0.14113 0.0
C2108 C 0.84743 0.18347 0.1578 0.0
C2109 C 0.85759 0.17821 0.16921 0.0
C2110 C 0.82281 0.17136 0.15641 0.0
C2111 C 0.81096 0.17712 0.14508 0.0
C2112 C 0.81554 0.20018 0.14329 0.0
C2113 C 0.80444 0.20552 0.13254 0.0
C2114 C 0.78859 0.18793 0.12358 0.0
C2115 C 0.78376 0.16494 0.12537 0.0
C2116 C 0.79483 0.1595 0.13609 0.0
C2117 C 0.79115 0.12161 0.21277 0.0
C2118 C 0.77589 0.09817 0.209 0.0
C2119 C 0.80496 0.13802 0.20256 0.0
C2120 C 0.80383 0.1314 0.18836 0.0
C2121 C 0.78819 0.10821 0.18445 0.0
C2122 C 0.77438 0.0917 0.19469 0.0
C2123 C 0.81924 0.14872 0.17768 0.0
C2124 C 0.80905 0.15396 0.16629 0.0
C2125 C 0.84384 0.1609 0.17912 0.0
C2126 C 0.85564 0.15542 0.19061 0.0
C2127 C 0.85143 0.13251 0.19249 0.0
C2128 C 0.86243 0.12742 0.20342 0.0
C2129 C 0.87782 0.14514 0.21249 0.0
C2130 C 0.88228 0.168 0.21062 0.0
C2131 C 0.8713 0.17318 0.19971 0.0
H2132 H 0.88632 0.14117 0.22095 0.0
H2133 H 0.78001 0.1921 0.11527 0.0
H2134 H 0.89504 0.70266 0.21379 0.0
H2135 H 0.86551 0.69757 0.19641 0.0
H2136 H 0.886 0.65776 0.16988 0.0
H2137 H 0.91562 0.66279 0.18726 0.0
H2138 H 0.87677 0.687 0.15437 0.0
H2139 H 0.8393 0.63002 0.19119 0.0
H2140 H 0.8289 0.61649 0.21585 0.0
H2141 H 0.79572 0.65778 0.22052 0.0
H2142 H 0.80624 0.67185 0.19594 0.0
H2143 H 0.77538 0.63238 0.11202 0.0
H2144 H 0.80575 0.63827 0.12897 0.0
H2145 H 0.78526 0.67771 0.15586 0.0
H2146 H 0.75481 0.67187 0.13892 0.0
H2147 H 0.7946 0.64859 0.17111 0.0
H2148 H 0.83212 0.7055 0.13416 0.0
H2149 H 0.84253 0.71885 0.10947 0.0
H2150 H 0.87553 0.67736 0.10499 0.0
H2151 H 0.86501 0.66349 0.12961 0.0
C2152 C 0.89335 0.69295 0.20421 0.0
C2153 C 0.90748 0.68293 0.20194 0.0
C2154 C 0.87648 0.69005 0.1943 0.0
C2155 C 0.87328 0.67691 0.18199 0.0
C2156 C 0.88815 0.6679 0.17934 0.0
C2157 C 0.90511 0.67086 0.18925 0.0
C2158 C 0.85375 0.67171 0.17223 0.0
C2159 C 0.85877 0.67835 0.15798 0.0
C2160 C 0.83032 0.66078 0.17702 0.0
C2161 C 0.82376 0.65216 0.19176 0.0
C2162 C 0.82993 0.63635 0.19751 0.0
C2163 C 0.824 0.62857 0.21147 0.0
C2164 C 0.81171 0.63631 0.21976 0.0
C2165 C 0.80527 0.65181 0.21409 0.0
C2166 C 0.8112 0.65969 0.20014 0.0
C2167 C 0.77732 0.64227 0.12156 0.0
C2168 C 0.76286 0.65185 0.12408 0.0
C2169 C 0.79467 0.64563 0.13123 0.0
C2170 C 0.79803 0.6588 0.14354 0.0
C2171 C 0.783 0.66755 0.14639 0.0
C2172 C 0.76557 0.66413 0.13674 0.0
C2173 C 0.81761 0.66394 0.15326 0.0
C2174 C 0.81259 0.65726 0.1675 0.0
C2175 C 0.84104 0.67479 0.14845 0.0
C2176 C 0.84758 0.68329 0.13369 0.0
C2177 C 0.84145 0.6991 0.12788 0.0
C2178 C 0.84739 0.70677 0.1139 0.0
C2179 C 0.85964 0.69891 0.10565 0.0
C2180 C 0.86602 0.68341 0.11138 0.0
C2181 C 0.86009 0.67565 0.12536 0.0
H2182 H 0.86421 0.70487 0.09483 0.0
H2183 H 0.80713 0.63027 0.23057 0.0
H2184 H 0.61087 0.87153 0.86156 0.0
H2185 H 0.61509 0.84401 0.84619 0.0
H2186 H 0.68838 0.87753 0.85638 0.0
H2187 H 0.68431 0.90482 0.87181 0.0
H2188 H 0.68111 0.86815 0.82844 0.0
H2189 H 0.64944 0.82687 0.87232 0.0
H2190 H 0.62087 0.81098 0.89184 0.0
H2191 H 0.5665 0.76903 0.86236 0.0
H2192 H 0.59471 0.78494 0.84262 0.0
H2193 H 0.70789 0.78299 0.80514 0.0
H2194 H 0.70152 0.80898 0.82061 0.0
H2195 H 0.62824 0.77192 0.81008 0.0
H2196 H 0.63447 0.74582 0.79468 0.0
H2197 H 0.63426 0.78286 0.83765 0.0
H2198 H 0.66568 0.82325 0.79383 0.0
H2199 H 0.69397 0.83904 0.77416 0.0
H2200 H 0.74831 0.88275 0.8032 0.0
H2201 H 0.72041 0.86695 0.82309 0.0
C2202 C 0.62788 0.87303 0.86052 0.0
C2203 C 0.64725 0.89043 0.8679 0.0
C2204 C 0.63026 0.85731 0.85173 0.0
C2205 C 0.65202 0.8586 0.85025 0.0
C2206 C 0.67146 0.87627 0.85733 0.0
C2207 C 0.66911 0.89196 0.86609 0.0
C2208 C 0.6546 0.84132 0.84157 0.0
C2209 C 0.67104 0.84952 0.83054 0.0
C2210 C 0.64107 0.81697 0.84411 0.0
C2211 C 0.62413 0.80727 0.85598 0.0
C2212 C 0.63136 0.81439 0.86998 0.0
C2213 C 0.61523 0.80536 0.88109 0.0
C2214 C 0.59187 0.78905 0.87834 0.0
C2215 C 0.58459 0.78169 0.86447 0.0
C2216 C 0.60064 0.79069 0.85332 0.0
C2217 C 0.6904 0.7803 0.80621 0.0
C2218 C 0.6717 0.7624 0.79867 0.0
C2219 C 0.68678 0.79517 0.81503 0.0
C2220 C 0.66446 0.79264 0.81631 0.0
C2221 C 0.6456 0.7742 0.80925 0.0
C2222 C 0.64918 0.75924 0.80049 0.0
C2223 C 0.66094 0.80971 0.82459 0.0
C2224 C 0.64429 0.80148 0.83552 0.0
C2225 C 0.67422 0.83404 0.82193 0.0
C2226 C 0.691 0.84375 0.80997 0.0
C2227 C 0.6837 0.83611 0.79604 0.0
C2228 C 0.69966 0.84508 0.78484 0.0
C2229 C 0.72293 0.86185 0.78743 0.0
C2230 C 0.73028 0.86974 0.80121 0.0
C2231 C 0.7144 0.86079 0.81245 0.0
H2232 H 0.73527 0.86877 0.77875 0.0
H2233 H 0.57941 0.78208 0.88695 0.0
H2234 H 0.07973 0.76788 0.86618 0.0
H2235 H 0.10519 0.79927 0.85019 0.0
H2236 H 0.14697 0.76671 0.84375 0.0
H2237 H 0.12097 0.7345 0.85942 0.0
H2238 H 0.1729 0.81486 0.85081 0.0
H2239 H 0.11398 0.76494 0.81772 0.0
H2240 H 0.07374 0.74064 0.80895 0.0
H2241 H 0.06399 0.80019 0.80969 0.0
H2242 H 0.10408 0.82479 0.81866 0.0
H2243 H 0.24258 0.89245 0.79604 0.0
H2244 H 0.21759 0.85864 0.81083 0.0
H2245 H 0.1663 0.88078 0.81273 0.0
H2246 H 0.19107 0.91433 0.79757 0.0
H2247 H 0.14551 0.83636 0.80751 0.0
H2248 H 0.20246 0.88603 0.84149 0.0
H2249 H 0.24195 0.91111 0.85117 0.0
H2250 H 0.25469 0.85347 0.84993 0.0
H2251 H 0.21537 0.82811 0.84006 0.0
C2252 C 0.09391 0.76692 0.8611 0.0
C2253 C 0.0981 0.74843 0.86404 0.0
C2254 C 0.10858 0.78505 0.85203 0.0
C2255 C 0.12787 0.78524 0.84575 0.0
C2256 C 0.13215 0.76685 0.84853 0.0
C2257 C 0.11731 0.74851 0.85752 0.0
C2258 C 0.14396 0.80518 0.8367 0.0
C2259 C 0.16709 0.81938 0.84119 0.0
C2260 C 0.13607 0.8114 0.82444 0.0
C2261 C 0.11198 0.79667 0.81898 0.0
C2262 C 0.10319 0.77282 0.81612 0.0
C2263 C 0.08042 0.759 0.81109 0.0
C2264 C 0.0663 0.76885 0.80879 0.0
C2265 C 0.07494 0.79257 0.81149 0.0
C2266 C 0.0977 0.80647 0.81653 0.0
C2267 C 0.22615 0.8903 0.79983 0.0
C2268 C 0.21882 0.90609 0.79578 0.0
C2269 C 0.21187 0.87097 0.80828 0.0
C2270 C 0.19015 0.86727 0.81306 0.0
C2271 C 0.18296 0.88324 0.80917 0.0
C2272 C 0.19712 0.90242 0.80056 0.0
C2273 C 0.17454 0.8463 0.82165 0.0
C2274 C 0.15145 0.83187 0.81708 0.0
C2275 C 0.18241 0.84004 0.83395 0.0
C2276 C 0.20606 0.85524 0.8399 0.0
C2277 C 0.21375 0.87875 0.84317 0.0
C2278 C 0.23609 0.89301 0.84871 0.0
C2279 C 0.25084 0.8839 0.85113 0.0
C2280 C 0.24326 0.8605 0.84804 0.0
C2281 C 0.22094 0.84618 0.84248 0.0
H2282 H 0.26813 0.89497 0.85542 0.0
H2283 H 0.04868 0.75812 0.8049 0.0
H2284 H 0.23519 0.38044 0.88058 0.0
H2285 H 0.20442 0.37423 0.86386 0.0
H2286 H 0.22017 0.32919 0.83891 0.0
H2287 H 0.25097 0.33527 0.85563 0.0
H2288 H 0.21088 0.35753 0.82234 0.0
H2289 H 0.17568 0.30588 0.86196 0.0
H2290 H 0.16744 0.29593 0.88727 0.0
H2291 H 0.1368 0.33973 0.89049 0.0
H2292 H 0.1452 0.35023 0.86524 0.0
H2293 H 0.10619 0.30008 0.78345 0.0
H2294 H 0.13753 0.30717 0.79993 0.0
H2295 H 0.12039 0.35081 0.82529 0.0
H2296 H 0.08889 0.34368 0.80885 0.0
H2297 H 0.13052 0.3235 0.84166 0.0
H2298 H 0.16551 0.375 0.802 0.0
H2299 H 0.17383 0.38501 0.7767 0.0
H2300 H 0.2049 0.3416 0.77355 0.0
H2301 H 0.19645 0.33104 0.79879 0.0
C2302 C 0.2322 0.36934 0.87148 0.0
C2303 C 0.24534 0.35817 0.86948 0.0
C2304 C 0.21463 0.36581 0.86195 0.0
C2305 C 0.20974 0.3509 0.8503 0.0
C2306 C 0.22362 0.3407 0.84786 0.0
C2307 C 0.24127 0.34427 0.85739 0.0
C2308 C 0.18948 0.34514 0.84106 0.0
C2309 C 0.19328 0.34983 0.82652 0.0
C2310 C 0.16657 0.33551 0.84659 0.0
C2311 C 0.16127 0.32902 0.86174 0.0
C2312 C 0.16734 0.31352 0.86809 0.0
C2313 C 0.16262 0.30777 0.88242 0.0
C2314 C 0.15166 0.31724 0.89049 0.0
C2315 C 0.14533 0.33243 0.88423 0.0
C2316 C 0.15004 0.33828 0.86991 0.0
C2317 C 0.10905 0.31111 0.79258 0.0
C2318 C 0.09525 0.32152 0.79479 0.0
C2319 C 0.12696 0.31516 0.80197 0.0
C2320 C 0.13159 0.3299 0.81367 0.0
C2321 C 0.11717 0.33946 0.81628 0.0
C2322 C 0.09914 0.33531 0.80692 0.0
C2323 C 0.15191 0.33589 0.82293 0.0
C2324 C 0.14813 0.33122 0.83747 0.0
C2325 C 0.17483 0.34556 0.8174 0.0
C2326 C 0.18015 0.35206 0.80225 0.0
C2327 C 0.17397 0.36746 0.79588 0.0
C2328 C 0.17873 0.37325 0.78156 0.0
C2329 C 0.18984 0.3639 0.77352 0.0
C2330 C 0.19627 0.3488 0.77979 0.0
C2331 C 0.19152 0.34292 0.79411 0.0
H2332 H 0.1935 0.3684 0.76243 0.0
H2333 H 0.14802 0.31276 0.90158 0.0
H2334 H 0.05077 0.45417 0.47531 0.0
H2335 H 0.04504 0.48087 0.49057 0.0
H2336 H 0.97651 0.45559 0.47277 0.0
H2337 H 0.98231 0.42938 0.45728 0.0
H2338 H 0.00076 0.50266 0.47372 0.0
H2339 H 0.98269 0.43924 0.50565 0.0
H2340 H 0.98976 0.41078 0.5184 0.0
H2341 H 0.05029 0.46688 0.53817 0.0
H2342 H 0.04377 0.4957 0.52538 0.0
H2343 H 0.95761 0.55235 0.52407 0.0
H2344 H 0.96334 0.52549 0.50898 0.0
H2345 H 0.03154 0.55038 0.52719 0.0
H2346 H 0.0257 0.5767 0.54254 0.0
H2347 H 0.00755 0.50353 0.52603 0.0
H2348 H 0.02578 0.56696 0.49416 0.0
H2349 H 0.01895 0.59554 0.48137 0.0
H2350 H 0.95845 0.53964 0.46146 0.0
H2351 H 0.96473 0.5107 0.47428 0.0
C2352 C 0.03448 0.4543 0.47467 0.0
C2353 C 0.01695 0.43954 0.46515 0.0
C2354 C 0.03117 0.46944 0.48345 0.0
C2355 C 0.01027 0.4701 0.48287 0.0
C2356 C 0.99274 0.45533 0.47342 0.0
C2357 C 0.996 0.44018 0.46468 0.0
C2358 C 0.00683 0.48657 0.49183 0.0
C2359 C 0.00194 0.50265 0.48518 0.0
C2360 C 0.00892 0.48691 0.50674 0.0
C2361 C 0.01288 0.46962 0.51444 0.0
C2362 C 0.99763 0.44551 0.51262 0.0
C2363 C 0.00151 0.42931 0.51987 0.0
C2364 C 0.0205 0.43702 0.52906 0.0
C2365 C 0.03561 0.46094 0.53103 0.0
C2366 C 0.03182 0.47721 0.5238 0.0
C2367 C 0.97382 0.55209 0.52485 0.0
C2368 C 0.99126 0.5668 0.53444 0.0
C2369 C 0.97713 0.53685 0.51616 0.0
C2370 C 0.99795 0.53607 0.51688 0.0
C2371 C 0.01537 0.55073 0.52642 0.0
C2372 C 0.01209 0.56597 0.53508 0.0
C2373 C 0.00146 0.51962 0.50793 0.0
C2374 C 0.00637 0.50354 0.51458 0.0
C2375 C -0.00058 0.5193 0.49301 0.0
C2376 C 0.99559 0.53666 0.4853 0.0
C2377 C 0.0109 0.56076 0.48715 0.0
C2378 C 0.00715 0.57702 0.47987 0.0
C2379 C 0.98824 0.56941 0.47064 0.0
C2380 C 0.97307 0.54551 0.46863 0.0
C2381 C 0.97672 0.52916 0.47589 0.0
H2382 H 0.98537 0.58203 0.46501 0.0
H2383 H 0.02347 0.42445 0.53467 0.0
H2384 H 0.54168 0.59035 0.47076 0.0
H2385 H 0.5148 0.55769 0.48588 0.0
H2386 H 0.55452 0.52321 0.47816 0.0
H2387 H 0.5813 0.55567 0.46296 0.0
H2388 H 0.50713 0.49417 0.47413 0.0
H2389 H 0.55816 0.54678 0.50951 0.0
H2390 H 0.57977 0.58429 0.52216 0.0
H2391 H 0.51524 0.58147 0.53273 0.0
H2392 H 0.49325 0.54409 0.51996 0.0
H2393 H 0.44917 0.40431 0.52605 0.0
H2394 H 0.4779 0.4365 0.51142 0.0
H2395 H 0.44426 0.47649 0.52092 0.0
H2396 H 0.4162 0.44494 0.53597 0.0
H2397 H 0.48991 0.50254 0.52421 0.0
H2398 H 0.4388 0.45097 0.48835 0.0
H2399 H 0.41677 0.41379 0.47542 0.0
H2400 H 0.48067 0.41489 0.46546 0.0
H2401 H 0.50308 0.45195 0.4785 0.0
C2402 C 0.54476 0.57588 0.4724 0.0
C2403 C 0.56364 0.5756 0.46576 0.0
C2404 C 0.52947 0.55731 0.48106 0.0
C2405 C 0.53275 0.5381 0.48317 0.0
C2406 C 0.55174 0.5379 0.47668 0.0
C2407 C 0.56713 0.55655 0.46812 0.0
C2408 C 0.51586 0.51782 0.49171 0.0
C2409 C 0.50359 0.49589 0.48515 0.0
C2410 C 0.5109 0.52025 0.50597 0.0
C2411 C 0.52408 0.54274 0.51365 0.0
C2412 C 0.54859 0.55426 0.51442 0.0
C2413 C 0.5609 0.57548 0.52163 0.0
C2414 C 0.54889 0.58529 0.52821 0.0
C2415 C 0.52453 0.57387 0.52761 0.0
C2416 C 0.51213 0.55265 0.5204 0.0
C2417 C 0.44788 0.41994 0.525 0.0
C2418 C 0.43029 0.42196 0.53214 0.0
C2419 C 0.46419 0.43826 0.51654 0.0
C2420 C 0.46314 0.45886 0.515 0.0
C2421 C 0.4454 0.46075 0.52194 0.0
C2422 C 0.42917 0.44253 0.53041 0.0
C2423 C 0.48097 0.47885 0.5066 0.0
C2424 C 0.49346 0.50076 0.5132 0.0
C2425 C 0.48603 0.47641 0.49236 0.0
C2426 C 0.47259 0.4541 0.48453 0.0
C2427 C 0.44814 0.44318 0.48351 0.0
C2428 C 0.43559 0.42215 0.47614 0.0
C2429 C 0.44731 0.41195 0.46966 0.0
C2430 C 0.47162 0.42279 0.4705 0.0
C2431 C 0.48425 0.44382 0.47787 0.0
H2432 H 0.43756 0.39567 0.46395 0.0
H2433 H 0.55845 0.60171 0.5338 0.0
H2434 H 0.5398 0.98668 0.54803 0.0
H2435 H 0.51153 0.98033 0.52955 0.0
H2436 H 0.56485 0.03844 0.50585 0.0
H2437 H 0.59321 0.04539 0.5246 0.0
H2438 H 0.52466 0.03984 0.50695 0.0
H2439 H 0.54643 0.98267 0.49564 0.0
H2440 H 0.55338 0.94994 0.50036 0.0
H2441 H 0.48121 0.90598 0.51148 0.0
H2442 H 0.47389 0.93855 0.50701 0.0
H2443 H 0.46156 0.01611 0.44294 0.0
H2444 H 0.49047 0.02204 0.46091 0.0
H2445 H 0.43758 0.96449 0.48518 0.0
H2446 H 0.40856 0.95797 0.46695 0.0
H2447 H 0.47784 0.96284 0.48356 0.0
H2448 H 0.4562 0.02012 0.49515 0.0
H2449 H 0.44923 0.05284 0.49046 0.0
H2450 H 0.5212 0.0966 0.47885 0.0
H2451 H 0.52854 0.06402 0.48328 0.0
C2452 C 0.54551 0.99825 0.53894 0.0
C2453 C 0.56873 0.01665 0.53782 0.0
C2454 C 0.52937 0.99442 0.52831 0.0
C2455 C 0.53613 0.00876 0.51625 0.0
C2456 C 0.5593 0.02713 0.51506 0.0
C2457 C 0.57551 0.03098 0.52572 0.0
C2458 C 0.51879 0.00482 0.50509 0.0
C2459 C 0.51469 0.02312 0.50167 0.0
C2460 C 0.50534 0.9828 0.49848 0.0
C2461 C 0.50966 0.96313 0.50111 0.0
C2462 C 0.53208 0.96608 0.4992 0.0
C2463 C 0.53608 0.94755 0.50181 0.0
C2464 C 0.51776 0.92591 0.50625 0.0
C2465 C 0.49539 0.92275 0.50805 0.0
C2466 C 0.4913 0.94124 0.50547 0.0
C2467 C 0.45609 0.00454 0.45203 0.0
C2468 C 0.43277 0.98649 0.45349 0.0
C2469 C 0.4726 0.00811 0.46236 0.0
C2470 C 0.46613 0.99386 0.47444 0.0
C2471 C 0.44291 0.97573 0.47594 0.0
C2472 C 0.42633 0.97214 0.46558 0.0
C2473 C 0.48372 0.99786 0.48544 0.0
C2474 C 0.48785 0.97957 0.48883 0.0
C2475 C 0.4972 0.01989 0.49203 0.0
C2476 C 0.49287 0.03955 0.48942 0.0
C2477 C 0.4705 0.03666 0.49149 0.0
C2478 C 0.46649 0.05519 0.4889 0.0
C2479 C 0.48475 0.07677 0.48433 0.0
C2480 C 0.50707 0.07987 0.48237 0.0
C2481 C 0.51117 0.06138 0.48494 0.0
H2482 H 0.4816 0.09109 0.48232 0.0
H2483 H 0.5209 0.91158 0.50827 0.0
H2484 H 0.21216 0.93829 0.05202 0.0
H2485 H 0.17782 0.90477 0.04175 0.0
H2486 H 0.20919 0.8619 0.0488 0.0
H2487 H 0.24329 0.89532 0.05942 0.0
H2488 H 0.17905 0.88564 0.01833 0.0
H2489 H 0.16791 0.80438 0.04936 0.0
H2490 H 0.17058 0.79334 0.07394 0.0
H2491 H 0.15675 0.84629 0.08947 0.0
H2492 H 0.15366 0.85743 0.065 0.0
H2493 H 0.13245 0.78773 0.97489 0.0
H2494 H 0.15621 0.81655 0.99274 0.0
H2495 H 0.09515 0.7946 0.01885 0.0
H2496 H 0.07113 0.76566 0.00093 0.0
H2497 H 0.13421 0.80319 0.03452 0.0
H2498 H 0.11317 0.84209 -0.0001 0.0
H2499 H 0.10837 0.85337 0.97579 0.0
H2500 H 0.18238 0.88651 0.96895 0.0
H2501 H 0.18758 0.87511 0.99296 0.0
C2502 C 0.21141 0.92153 0.05166 0.0
C2503 C 0.23034 0.91932 0.05639 0.0
C2504 C 0.19184 0.90243 0.0458 0.0
C2505 C 0.19092 0.88082 0.04447 0.0
C2506 C 0.2093 0.87828 0.04991 0.0
C2507 C 0.2288 0.89736 0.05594 0.0
C2508 C 0.17234 0.86203 0.0358 0.0
C2509 C 0.16913 0.86767 0.02197 0.0
C2510 C 0.15915 0.8386 0.04055 0.0
C2511 C 0.16074 0.83185 0.05532 0.0
C2512 C 0.16532 0.81359 0.05802 0.0
C2513 C 0.16693 0.80733 0.07194 0.0
C2514 C 0.1639 0.81915 0.08326 0.0
C2515 C 0.15918 0.83721 0.08069 0.0
C2516 C 0.15754 0.84353 0.06679 0.0
C2517 C 0.12405 0.78908 0.9844 0.0
C2518 C 0.09988 0.7747 0.98642 0.0
C2519 C 0.13765 0.80545 0.99462 0.0
C2520 C 0.12735 0.80789 0.007 0.0
C2521 C 0.10339 0.79296 0.00934 0.0
C2522 C 0.08973 0.77648 0.99911 0.0
C2523 C 0.14156 0.82689 0.01707 0.0
C2524 C 0.14398 0.82126 0.03106 0.0
C2525 C 0.15375 0.85047 0.0126 0.0
C2526 C 0.15074 0.85761 0.9982 0.0
C2527 C 0.1284 0.85166 0.99322 0.0
C2528 C 0.12561 0.85809 0.97958 0.0
C2529 C 0.14505 0.87062 0.97084 0.0
C2530 C 0.16733 0.8768 0.97574 0.0
C2531 C 0.17022 0.87038 0.98937 0.0
H2532 H 0.14285 0.87558 0.96027 0.0
H2533 H 0.16516 0.81428 0.09403 0.0
H2534 H 0.0953 0.36212 0.03884 0.0
H2535 H 0.12971 0.36241 0.02926 0.0
H2536 H 0.11545 0.30298 0.0552 0.0
H2537 H 0.08048 0.30223 0.0647 0.0
H2538 H 0.16702 0.34176 0.05085 0.0
H2539 H 0.0966 0.28737 0.02637 0.0
H2540 H 0.05872 0.27546 0.01502 0.0
H2541 H 0.09274 0.33045 0.98436 0.0
H2542 H 0.13078 0.34297 0.99571 0.0
H2543 H 0.23563 0.3138 0.00299 0.0
H2544 H 0.20627 0.31177 0.01975 0.0
H2545 H 0.19557 0.35888 0.99331 0.0
H2546 H 0.22472 0.36097 0.97664 0.0
H2547 H 0.15508 0.32075 -0.00011 0.0
H2548 H 0.2248 0.37653 0.02464 0.0
H2549 H 0.26285 0.39029 0.03624 0.0
H2550 H 0.23091 0.33397 0.06623 0.0
H2551 H 0.1927 0.31968 0.05467 0.0
C2552 C 0.09963 0.34929 0.04266 0.0
C2553 C 0.08498 0.33189 0.05232 0.0
C2554 C 0.11937 0.3496 0.03726 0.0
C2555 C 0.12491 0.3326 0.04146 0.0
C2556 C 0.11142 0.31628 0.05191 0.0
C2557 C 0.09149 0.31588 0.0573 0.0
C2558 C 0.14282 0.33028 0.03345 0.0
C2559 C 0.16437 0.33674 0.03978 0.0
C2560 C 0.13929 0.32399 0.019 0.0
C2561 C 0.11651 0.31622 0.01196 0.0
C2562 C 0.09598 0.29704 0.01728 0.0
C2563 C 0.07448 0.29016 0.01084 0.0
C2564 C 0.07331 0.30222 0.999 0.0
C2565 C 0.09366 0.32114 0.99354 0.0
C2566 C 0.1152 0.32812 -3e-05 0.0
C2567 C 0.22721 0.32394 0.00089 0.0
C2568 C 0.23224 0.33732 0.98844 0.0
C2569 C 0.21047 0.32277 0.01045 0.0
C2570 C 0.19872 0.33514 0.00774 0.0
C2571 C 0.20428 0.34904 0.99554 0.0
C2572 C 0.22087 0.35015 0.986 0.0
C2573 C 0.17971 0.33286 0.01712 0.0
C2574 C 0.15778 0.32544 0.01101 0.0
C2575 C 0.18301 0.33829 0.03174 0.0
C2576 C 0.20595 0.34688 0.03869 0.0
C2577 C 0.22593 0.36696 0.03363 0.0
C2578 C 0.24752 0.37488 0.04021 0.0
C2579 C 0.24931 0.36297 0.05194 0.0
C2580 C 0.2295 0.34315 0.05713 0.0
C2581 C 0.20788 0.33514 0.05057 0.0
H2582 H 0.26604 0.36913 0.05702 0.0
H2583 H 0.05665 0.29688 0.99403 0.0
H2584 H 0.64017 0.74905 0.06696 0.0
H2585 H 0.63775 0.78241 0.0577 0.0
H2586 H 0.70997 0.81532 0.04477 0.0
H2587 H 0.7126 0.78234 0.05437 0.0
H2588 H 0.69941 0.84772 0.05256 0.0
H2589 H 0.66573 0.77988 0.02228 0.0
H2590 H 0.63914 0.73838 0.01657 0.0
H2591 H 0.57994 0.74659 0.02542 0.0
H2592 H 0.60622 0.78808 0.0314 0.0
H2593 H 0.70289 0.9058 0.98842 0.0
H2594 H 0.70384 0.88097 0.00737 0.0
H2595 H 0.63343 0.86161 0.01924 0.0
H2596 H 0.63236 0.88641 0.00026 0.0
H2597 H 0.63993 0.82376 0.01463 0.0
H2598 H 0.67587 0.89476 0.0411 0.0
H2599 H 0.70405 0.93632 0.04556 0.0
H2600 H 0.76081 0.92254 0.04225 0.0
H2601 H 0.73299 0.88093 0.03756 0.0
C2602 C 0.65563 0.76368 0.06243 0.0
C2603 C 0.6765 0.76308 0.06123 0.0
C2604 C 0.65424 0.78268 0.05713 0.0
C2605 C 0.67353 0.80109 0.05025 0.0
C2606 C 0.69486 0.80129 0.05 0.0
C2607 C 0.69635 0.78245 0.05549 0.0
C2608 C 0.67089 0.81866 0.04193 0.0
C2609 C 0.68645 0.84252 0.04425 0.0
C2610 C 0.65375 0.81185 0.0312 0.0
C2611 C 0.63793 0.78699 0.02745 0.0
C2612 C 0.64704 0.77279 0.0231 0.0
C2613 C 0.63203 0.74928 0.01981 0.0
C2614 C 0.60787 0.73984 0.02067 0.0
C2615 C 0.59866 0.75391 0.02479 0.0
C2616 C 0.6136 0.77743 0.02813 0.0
C2617 C 0.68771 0.89641 0.99517 0.0
C2618 C 0.66754 0.89795 0.99289 0.0
C2619 C 0.68834 0.88241 0.00604 0.0
C2620 C 0.66876 0.86963 0.01475 0.0
C2621 C 0.64875 0.87148 0.01267 0.0
C2622 C 0.6482 0.88569 0.00189 0.0
C2623 C 0.66858 0.85281 0.02517 0.0
C2624 C 0.65257 0.82903 0.02315 0.0
C2625 C 0.68552 0.85973 0.036 0.0
C2626 C 0.70233 0.88473 0.03888 0.0
C2627 C 0.69437 0.90061 0.04121 0.0
C2628 C 0.71028 0.92418 0.0438 0.0
C2629 C 0.73421 0.93207 0.04416 0.0
C2630 C 0.74227 0.9164 0.04197 0.0
C2631 C 0.72643 0.89281 0.03936 0.0
H2632 H 0.7465 0.95033 0.04617 0.0
H2633 H 0.59627 0.72163 0.01812 0.0
H2634 H 0.74712 0.1065 0.93054 0.0
H2635 H 0.77961 0.14037 0.94211 0.0
H2636 H 0.80579 0.09639 0.95757 0.0
H2637 H 0.77338 0.06257 0.94624 0.0
H2638 H 0.79855 0.12114 0.97862 0.0
H2639 H 0.83555 0.13569 0.93293 0.0
H2640 H 0.83849 0.14223 0.90713 0.0
H2641 H 0.83213 0.20329 0.91276 0.0
H2642 H 0.82882 0.19693 0.9386 0.0
H2643 H 0.90127 0.20318 0.01193 0.0
H2644 H 0.87499 0.17365 0.99512 0.0
H2645 H 0.85508 0.22208 0.97859 0.0
H2646 H 0.88164 0.25187 0.99533 0.0
H2647 H 0.85886 0.19614 0.95753 0.0
H2648 H 0.82095 0.18197 0.00251 0.0
H2649 H 0.81698 0.17598 0.02835 0.0
H2650 H 0.82299 0.1145 0.02408 0.0
H2651 H 0.82737 0.12034 0.99822 0.0
C2652 C 0.76003 0.10417 0.93623 0.0
C2653 C 0.75771 0.08189 0.93748 0.0
C2654 C 0.77862 0.12352 0.94275 0.0
C2655 C 0.79506 0.12083 0.95067 0.0
C2656 C 0.79328 0.0988 0.95147 0.0
C2657 C 0.77486 0.07954 0.94489 0.0
C2658 C 0.81282 0.14034 0.95926 0.0
C2659 C 0.81197 0.13741 0.97399 0.0
C2660 C 0.8297 0.16183 0.95322 0.0
C2661 C 0.83168 0.16568 0.93769 0.0
C2662 C 0.83455 0.15039 0.92866 0.0
C2663 C 0.83634 0.15409 0.91403 0.0
C2664 C 0.83543 0.17313 0.90831 0.0
C2665 C 0.8328 0.18853 0.91721 0.0
C2666 C 0.83099 0.1849 0.93185 0.0
C2667 C 0.89137 0.20756 0.00467 0.0
C2668 C 0.89325 0.22969 0.00504 0.0
C2669 C 0.87641 0.19071 0.99506 0.0
C2670 C 0.86278 0.19556 0.98579 0.0
C2671 C 0.86542 0.21799 0.98568 0.0
C2672 C 0.88056 0.23496 0.99524 0.0
C2673 C 0.84484 0.17673 0.97687 0.0
C2674 C 0.8455 0.17983 0.96213 0.0
C2675 C 0.82752 0.1554 0.98289 0.0
C2676 C 0.82471 0.15172 0.99844 0.0
C2677 C 0.8216 0.16727 0.00709 0.0
C2678 C 0.81926 0.16389 0.02174 0.0
C2679 C 0.81979 0.1449 0.02786 0.0
C2680 C 0.82261 0.12922 0.01933 0.0
C2681 C 0.82502 0.13255 0.00467 0.0
H2682 H 0.81797 0.14231 0.03921 0.0
H2683 H 0.83682 0.17597 0.89698 0.0
H2684 H 0.76713 0.69132 0.99145 0.0
H2685 H 0.79551 0.69345 0.97392 0.0
H2686 H 0.80331 0.64171 0.99739 0.0
H2687 H 0.7751 0.63951 0.01486 0.0
H2688 H 0.8446 0.67776 0.99095 0.0
H2689 H 0.77285 0.62813 0.96639 0.0
H2690 H 0.73458 0.61744 0.95604 0.0
H2691 H 0.76735 0.67658 0.92807 0.0
H2692 H 0.8058 0.6878 0.9384 0.0
H2693 H 0.88707 0.63833 0.92862 0.0
H2694 H 0.85377 0.63819 0.94012 0.0
H2695 H 0.89748 0.71086 0.95095 0.0
H2696 H 0.93085 0.71105 0.93984 0.0
H2697 H 0.83 0.66462 0.93933 0.0
H2698 H 0.8899 0.71442 0.98601 0.0
H2699 H 0.92722 0.72175 0.9964 0.0
H2700 H 0.91526 0.65568 0.9807 0.0
H2701 H 0.87786 0.64791 0.97036 0.0
C2702 C 0.77473 0.68023 0.99276 0.0
C2703 C 0.76905 0.66539 0.00458 0.0
C2704 C 0.79092 0.68146 0.98275 0.0
C2705 C 0.80148 0.6677 0.98435 0.0
C2706 C 0.79549 0.6526 0.99601 0.0
C2707 C 0.77944 0.65143 0.006 0.0
C2708 C 0.81948 0.66954 0.97425 0.0
C2709 C 0.84137 0.67498 0.97967 0.0
C2710 C 0.81524 0.6657 0.95953 0.0
C2711 C 0.79217 0.65894 0.95327 0.0
C2712 C 0.77187 0.63896 0.95811 0.0
C2713 C 0.75015 0.63279 0.95223 0.0
C2714 C 0.74853 0.64636 0.94143 0.0
C2715 C 0.76863 0.6661 0.93646 0.0
C2716 C 0.7904 0.67237 0.94231 0.0
C2717 C 0.88945 0.65438 0.93322 0.0
C2718 C 0.91165 0.67461 0.93346 0.0
C2719 C 0.87038 0.65433 0.93965 0.0
C2720 C 0.8733 0.67445 0.94648 0.0
C2721 C 0.89495 0.69515 0.94576 0.0
C2722 C 0.91398 0.69523 0.93933 0.0
C2723 C 0.85494 0.67295 0.95609 0.0
C2724 C 0.83314 0.66762 0.9506 0.0
C2725 C 0.85901 0.67642 0.97082 0.0
C2726 C 0.88123 0.68072 0.9773 0.0
C2727 C 0.89523 0.70145 0.98483 0.0
C2728 C 0.91641 0.70569 0.99069 0.0
C2729 C 0.92368 0.68925 0.98915 0.0
C2730 C 0.90972 0.66848 0.98181 0.0
C2731 C 0.88854 0.66415 0.97594 0.0
H2732 H 0.94008 0.69257 0.99369 0.0
H2733 H 0.7317 0.64155 0.93689 0.0
H2734 H 0.28696 0.22404 0.94633 0.0
H2735 H 0.2889 0.19356 0.95984 0.0
H2736 H 0.35731 0.21572 0.94269 0.0
H2737 H 0.35545 0.24636 0.92899 0.0
H2738 H 0.3265 0.1648 0.94603 0.0
H2739 H 0.35716 0.23718 0.97192 0.0
H2740 H 0.35593 0.27117 0.98163 0.0
H2741 H 0.29486 0.22544 0.00585 0.0
H2742 H 0.29546 0.19113 0.99606 0.0
H2743 H 0.36497 0.11687 0.00033 0.0
H2744 H 0.36156 0.14213 0.98268 0.0
H2745 H 0.30041 0.13436 0.00414 0.0
H2746 H 0.30398 0.10941 0.02191 0.0
H2747 H 0.32845 0.17824 0.99783 0.0
H2748 H 0.29704 0.10591 0.97253 0.0
H2749 H 0.29676 0.07121 0.9627 0.0
H2750 H 0.35709 0.11534 0.93746 0.0
H2751 H 0.35793 0.15034 0.94728 0.0
C2752 C 0.30211 0.22198 0.94506 0.0
C2753 C 0.32109 0.23759 0.93662 0.0
C2754 C 0.30324 0.20466 0.95285 0.0
C2755 C 0.32333 0.20262 0.95233 0.0
C2756 C 0.34168 0.21709 0.9432 0.0
C2757 C 0.34064 0.2346 0.93546 0.0
C2758 C 0.32608 0.18712 0.96246 0.0
C2759 C 0.32722 0.16781 0.95736 0.0
C2760 C 0.32654 0.19094 0.9772 0.0
C2761 C 0.32622 0.21157 0.98315 0.0
C2762 C 0.34333 0.23436 0.97921 0.0
C2763 C 0.34277 0.25369 0.98475 0.0
C2764 C 0.32532 0.25046 0.99435 0.0
C2765 C 0.30837 0.2279 0.99841 0.0
C2766 C 0.30881 0.20851 0.99288 0.0
C2767 C 0.3507 0.12042 0.0012 0.0
C2768 C 0.33474 0.11122 0.01249 0.0
C2769 C 0.34873 0.1348 0.9911 0.0
C2770 C 0.33056 0.13992 0.99199 0.0
C2771 C 0.31459 0.13067 0.00325 0.0
C2772 C 0.31667 0.11648 0.01341 0.0
C2773 C 0.3286 0.15556 0.9815 0.0
C2774 C 0.3277 0.17507 0.98652 0.0
C2775 C 0.32818 0.15176 0.96671 0.0
C2776 C 0.32769 0.13075 0.96075 0.0
C2777 C 0.31036 0.10822 0.96496 0.0
C2778 C 0.31008 0.0885 0.95938 0.0
C2779 C 0.32693 0.09107 0.94949 0.0
C2780 C 0.34407 0.11338 0.94513 0.0
C2781 C 0.34444 0.13316 0.9507 0.0
H2782 H 0.32668 0.07577 0.94518 0.0
H2783 H 0.32496 0.26544 0.99867 0.0
H2784 H 0.88501 0.2692 0.38721 0.0
H2785 H 0.85292 0.23148 0.37942 0.0
H2786 H 0.8887 0.19705 0.39601 0.0
H2787 H 0.92106 0.23484 0.40366 0.0
H2788 H 0.87713 0.18708 0.36832 0.0
H2789 H 0.83797 0.18644 0.41082 0.0
H2790 H 0.82297 0.20229 0.42903 0.0
H2791 H 0.77936 0.20934 0.39809 0.0
H2792 H 0.79434 0.19385 0.37964 0.0
H2793 H 0.78862 0.08133 0.3397 0.0
H2794 H 0.81341 0.10892 0.35779 0.0
H2795 H 0.78425 0.15306 0.3485 0.0
H2796 H 0.75841 0.1249 0.33101 0.0
H2797 H 0.79208 0.1538 0.37595 0.0
H2798 H 0.83586 0.16216 0.3332 0.0
H2799 H 0.85154 0.14858 0.31404 0.0
H2800 H 0.88717 0.12956 0.34462 0.0
H2801 H 0.87144 0.14277 0.36397 0.0
C2802 C 0.88584 0.25353 0.3894 0.0
C2803 C 0.90557 0.25494 0.39595 0.0
C2804 C 0.86742 0.23198 0.38506 0.0
C2805 C 0.86839 0.21146 0.3872 0.0
C2806 C 0.88759 0.21268 0.39432 0.0
C2807 C 0.90598 0.23425 0.39874 0.0
C2808 C 0.85078 0.18937 0.38049 0.0
C2809 C 0.85854 0.17943 0.37026 0.0
C2810 C 0.82654 0.17984 0.38274 0.0
C2811 C 0.8174 0.1891 0.39382 0.0
C2812 C 0.82531 0.19153 0.40787 0.0
C2813 C 0.81678 0.20043 0.41824 0.0
C2814 C 0.80025 0.20685 0.41471 0.0
C2815 C 0.79217 0.20435 0.40081 0.0
C2816 C 0.80065 0.19548 0.39039 0.0
C2817 C 0.78703 0.0966 0.34173 0.0
C2818 C 0.77172 0.10104 0.33374 0.0
C2819 C 0.8014 0.11248 0.352 0.0
C2820 C 0.80103 0.13329 0.3543 0.0
C2821 C 0.78495 0.13719 0.34686 0.0
C2822 C 0.7704 0.12121 0.33671 0.0
C2823 C 0.81847 0.15183 0.36363 0.0
C2824 C 0.81068 0.16115 0.37428 0.0
C2825 C 0.84275 0.16107 0.36165 0.0
C2826 C 0.85225 0.15317 0.35003 0.0
C2827 C 0.8469 0.15492 0.33583 0.0
C2828 C 0.85581 0.14731 0.32494 0.0
C2829 C 0.87028 0.13814 0.32811 0.0
C2830 C 0.87592 0.13662 0.34218 0.0
C2831 C 0.86702 0.14417 0.35311 0.0
H2832 H 0.87717 0.13227 0.31967 0.0
H2833 H 0.79367 0.21373 0.42276 0.0
H2834 H 0.88002 0.67439 0.31059 0.0
H2835 H 0.85315 0.67254 0.32885 0.0
H2836 H 0.88 0.64093 0.35765 0.0
H2837 H 0.90628 0.64168 0.33911 0.0
H2838 H 0.83437 0.61882 0.35907 0.0
H2839 H 0.89368 0.6981 0.36192 0.0
H2840 H 0.92206 0.73749 0.35322 0.0
H2841 H 0.8661 0.74602 0.33708 0.0
H2842 H 0.83738 0.70654 0.34549 0.0
H2843 H 0.77212 0.67269 0.40484 0.0
H2844 H 0.80767 0.67504 0.39519 0.0
H2845 H 0.76598 0.62006 0.3656 0.0
H2846 H 0.73062 0.61745 0.37529 0.0
H2847 H 0.82539 0.68733 0.37008 0.0
H2848 H 0.79072 0.58908 0.35653 0.0
H2849 H 0.76441 0.55035 0.36695 0.0
H2850 H 0.7754 0.58112 0.40826 0.0
H2851 H 0.80204 0.61998 0.39813 0.0
C2852 C 0.8801 0.66683 0.32076 0.0
C2853 C 0.89522 0.65806 0.32336 0.0
C2854 C 0.86495 0.6661 0.33127 0.0
C2855 C 0.86481 0.65694 0.3447 0.0
C2856 C 0.87992 0.64821 0.34738 0.0
C2857 C 0.89503 0.64881 0.33681 0.0
C2858 C 0.84812 0.65567 0.35565 0.0
C2859 C 0.83252 0.63383 0.36159 0.0
C2860 C 0.84618 0.67541 0.35929 0.0
C2861 C 0.86337 0.69928 0.35429 0.0
C2862 C 0.88742 0.70831 0.35644 0.0
C2863 C 0.90357 0.73067 0.35157 0.0
C2864 C 0.89588 0.74424 0.34459 0.0
C2865 C 0.87202 0.73549 0.3425 0.0
C2866 C 0.85579 0.71313 0.34734 0.0
C2867 C 0.7706 0.66095 0.39639 0.0
C2868 C 0.7486 0.64479 0.39088 0.0
C2869 C 0.79088 0.66228 0.3909 0.0
C2870 C 0.7895 0.64752 0.37979 0.0
C2871 C 0.7675 0.63121 0.37442 0.0
C2872 C 0.74726 0.62974 0.37996 0.0
C2873 C 0.81097 0.65026 0.37299 0.0
C2874 C 0.82748 0.67239 0.36781 0.0
C2875 C 0.81408 0.6309 0.37034 0.0
C2876 C 0.7983 0.60749 0.37654 0.0
C2877 C 0.78765 0.58758 0.36785 0.0
C2878 C 0.77265 0.5656 0.3737 0.0
C2879 C 0.7682 0.56328 0.38825 0.0
C2880 C 0.7788 0.58294 0.39698 0.0
C2881 C 0.79384 0.60496 0.39119 0.0
H2882 H 0.75657 0.54626 0.39275 0.0
H2883 H 0.90842 0.76154 0.34082 0.0
H2884 H 0.33122 0.2061 0.30746 0.0
H2885 H 0.32933 0.17748 0.32466 0.0
H2886 H 0.34933 0.22854 0.35798 0.0
H2887 H 0.35097 0.2573 0.34076 0.0
H2888 H 0.37478 0.20208 0.35629 0.0
H2889 H 0.29726 0.19051 0.3589 0.0
H2890 H 0.26019 0.18463 0.34905 0.0
H2891 H 0.24758 0.12059 0.32966 0.0
H2892 H 0.28476 0.12628 0.33922 0.0
H2893 H 0.35754 0.11159 0.40426 0.0
H2894 H 0.35533 0.1448 0.39437 0.0
H2895 H 0.31799 0.10288 0.3582 0.0
H2896 H 0.31959 0.0697 0.3682 0.0
H2897 H 0.30023 0.12857 0.36519 0.0
H2898 H 0.37851 0.14213 0.35822 0.0
H2899 H 0.41647 0.14733 0.36588 0.0
H2900 H 0.42865 0.20646 0.39105 0.0
H2901 H 0.39059 0.2014 0.38368 0.0
C2902 C 0.33535 0.21125 0.31844 0.0
C2903 C 0.34133 0.23388 0.32281 0.0
C2904 C 0.33413 0.1949 0.32824 0.0
C2905 C 0.33907 0.20094 0.34255 0.0
C2906 C 0.34541 0.22362 0.34696 0.0
C2907 C 0.34627 0.23993 0.33716 0.0
C2908 C 0.33768 0.18335 0.35276 0.0
C2909 C 0.35845 0.18621 0.35855 0.0
C2910 C 0.31639 0.16252 0.35536 0.0
C2911 C 0.29389 0.15892 0.34971 0.0
C2912 C 0.28667 0.17527 0.35245 0.0
C2913 C 0.26562 0.17195 0.34693 0.0
C2914 C 0.25156 0.15227 0.33871 0.0
C2915 C 0.25849 0.13583 0.33603 0.0
C2916 C 0.27954 0.13908 0.34151 0.0
C2917 C 0.34864 0.10949 0.39429 0.0
C2918 C 0.33868 0.08812 0.387 0.0
C2919 C 0.34744 0.12844 0.38863 0.0
C2920 C 0.33677 0.12644 0.37544 0.0
C2921 C 0.32621 0.10484 0.36841 0.0
C2922 C 0.32711 0.08587 0.37414 0.0
C2923 C 0.33748 0.14692 0.36847 0.0
C2924 C 0.31655 0.14462 0.36325 0.0
C2925 C 0.35871 0.16809 0.36615 0.0
C2926 C 0.3816 0.1712 0.37054 0.0
C2927 C 0.38922 0.15613 0.36547 0.0
C2928 C 0.41075 0.15906 0.36974 0.0
C2929 C 0.42493 0.17716 0.37898 0.0
C2930 C 0.41763 0.19241 0.38392 0.0
C2931 C 0.39608 0.18952 0.3797 0.0
H2932 H 0.4416 0.17942 0.38228 0.0
H2933 H 0.23527 0.14973 0.33445 0.0
H2934 H 0.54101 0.53605 0.35605 0.0
H2935 H 0.51633 0.5099 0.33742 0.0
H2936 H 0.55131 0.56498 0.30659 0.0
H2937 H 0.57685 0.59103 0.32513 0.0
H2938 H 0.48552 0.51193 0.321 0.0
H2939 H 0.55107 0.53984 0.27453 0.0
H2940 H 0.59339 0.55671 0.27059 0.0
H2941 H 0.59942 0.52826 0.31021 0.0
H2942 H 0.55711 0.51097 0.31429 0.0
H2943 H 0.41836 0.45081 0.26265 0.0
H2944 H 0.44983 0.48527 0.27428 0.0
H2945 H 0.48607 0.44739 0.28242 0.0
H2946 H 0.45477 0.41296 0.27093 0.0
H2947 H 0.51676 0.49416 0.2779 0.0
H2948 H 0.44854 0.44486 0.30603 0.0
H2949 H 0.40626 0.42389 0.31106 0.0
H2950 H 0.4063 0.48891 0.31097 0.0
H2951 H 0.44853 0.51022 0.30567 0.0
C2952 C 0.54373 0.54253 0.34528 0.0
C2953 C 0.56102 0.56559 0.34207 0.0
C2954 C 0.52943 0.52763 0.33466 0.0
C2955 C 0.53205 0.53544 0.3206 0.0
C2956 C 0.54915 0.5585 0.31734 0.0
C2957 C 0.56358 0.57343 0.32798 0.0
C2958 C 0.51663 0.51932 0.30947 0.0
C2959 C 0.49239 0.50823 0.31153 0.0
C2960 C 0.52557 0.51427 0.29718 0.0
C2961 C 0.55098 0.52438 0.29478 0.0
C2962 C 0.56143 0.53715 0.28238 0.0
C2963 C 0.58541 0.54678 0.28013 0.0
C2964 C 0.5991 0.54364 0.29017 0.0
C2965 C 0.58882 0.53077 0.30247 0.0
C2966 C 0.56484 0.52108 0.30476 0.0
C2967 C 0.43331 0.45003 0.26663 0.0
C2968 C 0.43392 0.42907 0.26607 0.0
C2969 C 0.45129 0.46973 0.27321 0.0
C2970 C 0.47004 0.4687 0.27941 0.0
C2971 C 0.47176 0.44854 0.27768 0.0
C2972 C 0.45383 0.42886 0.27109 0.0
C2973 C 0.48578 0.48693 0.28947 0.0
C2974 C 0.50998 0.49832 0.28724 0.0
C2975 C 0.47689 0.49181 0.30184 0.0
C2976 C 0.45161 0.4791 0.3053 0.0
C2977 C 0.43949 0.45466 0.30699 0.0
C2978 C 0.41555 0.44272 0.30989 0.0
C2979 C 0.40359 0.45505 0.3113 0.0
C2980 C 0.41558 0.47937 0.30985 0.0
C2981 C 0.43951 0.4914 0.30689 0.0
H2982 H 0.38505 0.44578 0.31354 0.0
H2983 H 0.61766 0.55112 0.28841 0.0
H2984 H 0.58328 0.02491 0.25631 0.0
H2985 H 0.54458 0.0201 0.26124 0.0
H2986 H 0.53391 0.97052 0.29426 0.0
H2987 H 0.57219 0.9751 0.28931 0.0
H2988 H 0.49354 0.95801 0.27986 0.0
H2989 H 0.55761 0.02801 0.30163 0.0
H2990 H 0.59374 0.06639 0.30067 0.0
H2991 H 0.5595 0.0932 0.27439 0.0
H2992 H 0.52324 0.05483 0.27505 0.0
H2993 H 0.43844 0.96552 0.34053 0.0
H2994 H 0.46407 0.96632 0.32169 0.0
H2995 H 0.45118 0.0145 0.2979 0.0
H2996 H 0.42551 0.01393 0.31693 0.0
H2997 H 0.49785 0.02918 0.30038 0.0
H2998 H 0.43016 0.96068 0.28518 0.0
H2999 H 0.39444 0.92224 0.28748 0.0
H3000 H 0.43507 0.89216 0.30213 0.0
H3001 H 0.47102 0.93049 0.30013 0.0
C3002 C 0.57235 0.01259 0.26437 0.0
C3003 C 0.58071 0.00058 0.27257 0.0
C3004 C 0.55035 0.00991 0.2672 0.0
C3005 C 0.53651 0.99513 0.27821 0.0
C3006 C 0.54428 0.98199 0.28571 0.0
C3007 C 0.5662 0.98475 0.28296 0.0
C3008 C 0.51522 0.99503 0.2832 0.0
C3009 C 0.49435 0.97356 0.28426 0.0
C3010 C 0.51615 0.01547 0.28855 0.0
C3011 C 0.53786 0.03852 0.28823 0.0
C3012 C 0.55786 0.04205 0.29557 0.0
C3013 C 0.57834 0.0638 0.29509 0.0
C3014 C 0.57894 0.0822 0.28743 0.0
C3015 C 0.55903 0.07891 0.28028 0.0
C3016 C 0.53852 0.05717 0.2807 0.0
C3017 C 0.44098 0.97622 0.33126 0.0
C3018 C 0.43013 0.98978 0.33022 0.0
C3019 C 0.45541 0.97646 0.32043 0.0
C3020 C 0.45928 0.99025 0.30831 0.0
C3021 C 0.44824 0.00361 0.30712 0.0
C3022 C 0.43358 0.00322 0.31795 0.0
C3023 C 0.47644 0.99194 0.29761 0.0
C3024 C 0.4966 0.01372 0.29551 0.0
C3025 C 0.47487 0.97174 0.29138 0.0
C3026 C 0.45331 0.94853 0.29253 0.0
C3027 C 0.43148 0.94591 0.28897 0.0
C3028 C 0.41118 0.92412 0.29021 0.0
C3029 C 0.41248 0.90477 0.29495 0.0
C3030 C 0.4341 0.90716 0.29845 0.0
C3031 C 0.45445 0.92891 0.29723 0.0
H3032 H 0.39675 0.88792 0.29591 0.0
H3033 H 0.59481 0.09903 0.28708 0.0
H3034 H 0.94823 0.54265 0.27201 0.0
H3035 H 0.95028 0.5111 0.2841 0.0
H3036 H 0.02299 0.54215 0.27279 0.0
H3037 H 0.02099 0.57366 0.26034 0.0
H3038 H 0.99786 0.49168 0.27309 0.0
H3039 H 0.01164 0.55739 0.30247 0.0
H3040 H 0.00183 0.58596 0.31232 0.0
H3041 H 0.9384 0.53011 0.32983 0.0
H3042 H 0.94765 0.50117 0.31986 0.0
H3043 H 0.03773 0.44938 0.32969 0.0
H3044 H 0.03165 0.47215 0.31158 0.0
H3045 H 0.96355 0.45099 0.32897 0.0
H3046 H 0.97008 0.42948 0.34763 0.0
H3047 H 0.98544 0.49536 0.32463 0.0
H3048 H 0.97191 0.42934 0.29671 0.0
H3049 H 0.98073 0.40017 0.28668 0.0
H3050 H 0.04192 0.45483 0.26641 0.0
H3051 H 0.03364 0.48437 0.27648 0.0
C3052 C 0.96445 0.54236 0.27162 0.0
C3053 C 0.98453 0.56078 0.26533 0.0
C3054 C 0.96562 0.52438 0.27862 0.0
C3055 C 0.98687 0.52455 0.2795 0.0
C3056 C 0.00646 0.54179 0.27224 0.0
C3057 C 0.00533 0.55985 0.26524 0.0
C3058 C 0.98938 0.50874 0.28951 0.0
C3059 C 0.99533 0.49251 0.28438 0.0
C3060 C 0.98568 0.50969 0.30419 0.0
C3061 C 0.98023 0.52711 0.3103 0.0
C3062 C 0.99551 0.55119 0.30832 0.0
C3063 C 0.99006 0.56746 0.31394 0.0
C3064 C 0.96948 0.55985 0.32168 0.0
C3065 C 0.95432 0.53597 0.32382 0.0
C3066 C 0.95966 0.51963 0.31819 0.0
C3067 C 0.0215 0.44967 0.32973 0.0
C3068 C 0.00444 0.43763 0.34019 0.0
C3069 C 0.0179 0.46242 0.31921 0.0
C3070 C 0.99701 0.46306 0.31879 0.0
C3071 C 0.97978 0.45069 0.32904 0.0
C3072 C 0.98347 0.43819 0.33965 0.0
C3073 C 0.99368 0.47786 0.30828 0.0
C3074 C 0.98775 0.49418 0.31335 0.0
C3075 C 0.99728 0.47682 0.29357 0.0
C3076 C 0.00226 0.45909 0.28746 0.0
C3077 C 0.98734 0.43516 0.2902 0.0
C3078 C 0.99223 0.41855 0.28449 0.0
C3079 C 0.0119 0.42564 0.27594 0.0
C3080 C 0.0267 0.44936 0.27305 0.0
C3081 C 0.0219 0.46604 0.27874 0.0
H3082 H 0.01565 0.41276 0.27153 0.0
H3083 H 0.9653 0.57244 0.32607 0.0
H3084 H 0.40807 0.46656 0.64931 0.0
H3085 H 0.43176 0.49565 0.66713 0.0
H3086 H 0.45801 0.45116 0.68163 0.0
H3087 H 0.43376 0.42169 0.66403 0.0
H3088 H 0.45234 0.47366 0.70356 0.0
H3089 H 0.48878 0.49455 0.65797 0.0
H3090 H 0.49117 0.50257 0.63234 0.0
H3091 H 0.47817 0.55916 0.63985 0.0
H3092 H 0.47534 0.55123 0.66553 0.0
H3093 H 0.56426 0.56487 0.72825 0.0
H3094 H 0.53048 0.53102 0.71778 0.0
H3095 H 0.50115 0.57429 0.70657 0.0
H3096 H 0.53466 0.60813 0.7172 0.0
H3097 H 0.50717 0.55203 0.68383 0.0
H3098 H 0.47419 0.53183 0.73055 0.0
H3099 H 0.47379 0.52326 0.75599 0.0
H3100 H 0.48339 0.46516 0.74621 0.0
H3101 H 0.48418 0.47358 0.72071 0.0
C3102 C 0.4187 0.46292 0.65642 0.0
C3103 C 0.41934 0.44207 0.65523 0.0
C3104 C 0.43221 0.4795 0.66658 0.0
C3105 C 0.447 0.47576 0.67551 0.0
C3106 C 0.44675 0.4544 0.67483 0.0
C3107 C 0.43295 0.43763 0.66478 0.0
C3108 C 0.46402 0.49486 0.6847 0.0
C3109 C 0.46447 0.49075 0.69926 0.0
C3110 C 0.47974 0.5172 0.67908 0.0
C3111 C 0.48161 0.52214 0.66365 0.0
C3112 C 0.48626 0.50859 0.65414 0.0
C3113 C 0.48771 0.51313 0.63961 0.0
C3114 C 0.48476 0.53132 0.63447 0.0
C3115 C 0.48041 0.54505 0.64385 0.0
C3116 C 0.4789 0.54055 0.65839 0.0
C3117 C 0.55027 0.56703 0.72396 0.0
C3118 C 0.55225 0.58923 0.72339 0.0
C3119 C 0.53099 0.54767 0.71797 0.0
C3120 C 0.51338 0.55021 0.71137 0.0
C3121 C 0.51463 0.57203 0.71156 0.0
C3122 C 0.53383 0.59134 0.71758 0.0
C3123 C 0.4953 0.531 0.70275 0.0
C3124 C 0.49486 0.53504 0.68821 0.0
C3125 C 0.47996 0.50858 0.70838 0.0
C3126 C 0.47945 0.50347 0.72371 0.0
C3127 C 0.47642 0.51735 0.73382 0.0
C3128 C 0.47608 0.51249 0.74826 0.0
C3129 C 0.47862 0.49372 0.75272 0.0
C3130 C 0.48145 0.47972 0.74274 0.0
C3131 C 0.48182 0.48451 0.7283 0.0
H3132 H 0.47835 0.48998 0.76389 0.0
H3133 H 0.48589 0.53481 0.62321 0.0
H3134 H 0.53303 0.96906 0.652 0.0
H3135 H 0.5028 0.96442 0.66872 0.0
H3136 H 0.55062 0.031 0.68752 0.0
H3137 H 0.58114 0.0356 0.67084 0.0
H3138 H 0.52258 0.99881 0.70754 0.0
H3139 H 0.51297 0.02846 0.6634 0.0
H3140 H 0.50938 0.02956 0.63748 0.0
H3141 H 0.44716 0.96217 0.63852 0.0
H3142 H 0.45058 0.96051 0.66444 0.0
H3143 H 0.4314 0.01808 0.73498 0.0
H3144 H 0.46606 0.02066 0.72376 0.0
H3145 H 0.42293 0.95372 0.70396 0.0
H3146 H 0.3883 0.95123 0.71484 0.0
H3147 H 0.45 0.98794 0.68508 0.0
H3148 H 0.45994 0.9592 0.72987 0.0
H3149 H 0.46407 0.95936 0.75581 0.0
H3150 H 0.5259 0.02697 0.75365 0.0
H3151 H 0.52194 0.02736 0.7277 0.0
C3152 C 0.53714 0.98262 0.65977 0.0
C3153 C 0.55928 0.00284 0.66002 0.0
C3154 C 0.5199 0.97994 0.66932 0.0
C3155 C 0.52436 0.99758 0.67917 0.0
C3156 C 0.54683 0.01723 0.67997 0.0
C3157 C 0.56421 0.01984 0.67045 0.0
C3158 C 0.50502 0.99613 0.68784 0.0
C3159 C 0.5068 0.99671 0.70266 0.0
C3160 C 0.4844 0.99323 0.68144 0.0
C3161 C 0.48215 0.99427 0.66585 0.0
C3162 C 0.49861 0.0138 0.65809 0.0
C3163 C 0.4966 0.01454 0.6434 0.0
C3164 C 0.47808 0.99592 0.63635 0.0
C3165 C 0.46151 0.97656 0.64399 0.0
C3166 C 0.46346 0.97572 0.65869 0.0
C3167 C 0.42938 0.0038 0.72837 0.0
C3168 C 0.40712 0.98447 0.72577 0.0
C3169 C 0.44919 0.00522 0.72206 0.0
C3170 C 0.44702 0.98736 0.71306 0.0
C3171 C 0.42495 0.96766 0.71091 0.0
C3172 C 0.4052 0.96619 0.71723 0.0
C3173 C 0.46726 0.99007 0.70481 0.0
C3174 C 0.46573 0.98996 0.69 0.0
C3175 C 0.48809 0.99362 0.71125 0.0
C3176 C 0.4905 0.99341 0.72685 0.0
C3177 C 0.47429 0.9742 0.73493 0.0
C3178 C 0.47663 0.97417 0.74964 0.0
C3179 C 0.4952 0.99319 0.75638 0.0
C3180 C 0.5115 0.01226 0.74842 0.0
C3181 C 0.50923 0.01238 0.73371 0.0
H3182 H 0.49698 0.99313 0.76776 0.0
H3183 H 0.47656 0.99652 0.62497 0.0
H3184 H 0.01967 0.44674 0.74049 0.0
H3185 H 0.02148 0.48118 0.72912 0.0
H3186 H 0.99835 0.44323 0.68982 0.0
H3187 H 0.99656 0.40912 0.70098 0.0
H3188 H 0.03921 0.48784 0.68767 0.0
H3189 H 0.96106 0.45019 0.7084 0.0
H3190 H 0.93335 0.4352 0.72839 0.0
H3191 H 0.96747 0.5033 0.74743 0.0
H3192 H 0.99561 0.51862 0.72762 0.0
H3193 H 0.99802 0.53688 0.63909 0.0
H3194 H 0.00205 0.51192 0.65653 0.0
H3195 H 0.01598 0.56308 0.68904 0.0
H3196 H 0.01186 0.58827 0.67152 0.0
H3197 H 0.98636 0.5189 0.69838 0.0
H3198 H 0.06052 0.55822 0.67611 0.0
H3199 H 0.0885 0.57389 0.65628 0.0
H3200 H 0.06384 0.50431 0.64086 0.0
H3201 H 0.03545 0.48822 0.66048 0.0
C3202 C 0.01486 0.4458 0.72945 0.0
C3203 C 0.00779 0.42523 0.72164 0.0
C3204 C 0.01584 0.46539 0.72301 0.0
C3205 C 0.01005 0.46465 0.70865 0.0
C3206 C 0.00289 0.44409 0.70091 0.0
C3207 C 0.00166 0.42456 0.70734 0.0
C3208 C 0.01195 0.48528 0.70132 0.0
C3209 C 0.02768 0.49467 0.68999 0.0
C3210 C 0.99753 0.4947 0.70476 0.0
C3211 C 0.98062 0.48547 0.71664 0.0
C3212 C 0.9628 0.46191 0.71692 0.0
C3213 C 0.94698 0.45336 0.7282 0.0
C3214 C 0.9487 0.46827 0.7392 0.0
C3215 C 0.9662 0.49176 0.73892 0.0
C3216 C 0.98208 0.50039 0.72767 0.0
C3217 C 0.00217 0.54294 0.64992 0.0
C3218 C 0.00495 0.56465 0.65391 0.0
C3219 C 0.00443 0.52866 0.65988 0.0
C3220 C 0.00977 0.53587 0.67402 0.0
C3221 C 0.01198 0.55728 0.67816 0.0
C3222 C 0.00961 0.5716 0.66816 0.0
C3223 C 0.01293 0.52077 0.68431 0.0
C3224 C 0.99829 0.5125 0.69623 0.0
C3225 C 0.02854 0.51247 0.68151 0.0
C3226 C 0.04577 0.52202 0.66974 0.0
C3227 C 0.06096 0.54626 0.66844 0.0
C3228 C 0.07691 0.55522 0.65724 0.0
C3229 C 0.07793 0.54011 0.64731 0.0
C3230 C 0.06304 0.516 0.64857 0.0
C3231 C 0.04704 0.50694 0.65974 0.0
H3232 H 0.09028 0.54708 0.63864 0.0
H3233 H 0.93643 0.46162 0.74792 0.0
H3234 H 0.18793 0.87702 0.68779 0.0
H3235 H 0.16522 0.84892 0.66941 0.0
H3236 H 0.22396 0.88191 0.64087 0.0
H3237 H 0.24664 0.91078 0.65911 0.0
H3238 H 0.18372 0.87084 0.62743 0.0
H3239 H 0.21168 0.83156 0.65679 0.0
H3240 H 0.21957 0.81763 0.6792 0.0
H3241 H 0.14599 0.77708 0.68763 0.0
H3242 H 0.13767 0.79104 0.66537 0.0
H3243 H 0.11082 0.73843 0.60291 0.0
H3244 H 0.14514 0.77136 0.61344 0.0
H3245 H 0.10977 0.81131 0.61377 0.0
H3246 H 0.07574 0.77881 0.60264 0.0
H3247 H 0.14536 0.78627 0.63882 0.0
H3248 H 0.14823 0.86916 0.61485 0.0
H3249 H 0.14275 0.88294 0.59168 0.0
H3250 H 0.15943 0.83563 0.57054 0.0
H3251 H 0.16535 0.8218 0.59357 0.0
C3252 C 0.19596 0.87855 0.67755 0.0
C3253 C 0.21912 0.89615 0.67492 0.0
C3254 C 0.18303 0.86231 0.6671 0.0
C3255 C 0.19302 0.86314 0.65385 0.0
C3256 C 0.21597 0.88091 0.65106 0.0
C3257 C 0.22895 0.89724 0.66152 0.0
C3258 C 0.17941 0.8452 0.64304 0.0
C3259 C 0.17541 0.85233 0.62985 0.0
C3260 C 0.16916 0.82107 0.64608 0.0
C3261 C 0.17407 0.81247 0.65944 0.0
C3262 C 0.19719 0.81979 0.66346 0.0
C3263 C 0.20174 0.81187 0.67614 0.0
C3264 C 0.1833 0.79651 0.68484 0.0
C3265 C 0.16026 0.78899 0.68088 0.0
C3266 C 0.15562 0.79687 0.66822 0.0
C3267 C 0.11062 0.75452 0.60472 0.0
C3268 C 0.09045 0.75592 0.60201 0.0
C3269 C 0.13021 0.77327 0.61088 0.0
C3270 C 0.13004 0.79379 0.61444 0.0
C3271 C 0.11045 0.79577 0.61098 0.0
C3272 C 0.09089 0.77706 0.60476 0.0
C3273 C 0.14892 0.81184 0.62333 0.0
C3274 C 0.1539 0.80474 0.63624 0.0
C3275 C 0.16038 0.83592 0.61988 0.0
C3276 C 0.15707 0.84432 0.60597 0.0
C3277 C 0.15085 0.86178 0.60527 0.0
C3278 C 0.14764 0.86958 0.59215 0.0
C3279 C 0.15068 0.86013 0.57965 0.0
C3280 C 0.157 0.84288 0.58023 0.0
C3281 C 0.16025 0.83503 0.59332 0.0
H3282 H 0.14818 0.86619 0.56951 0.0
H3283 H 0.18685 0.7904 0.69465 0.0
H3284 H 0.09549 0.35043 0.66371 0.0
H3285 H 0.12324 0.3527 0.64574 0.0
H3286 H 0.12224 0.29239 0.66407 0.0
H3287 H 0.09427 0.28976 0.6819 0.0
H3288 H 0.16633 0.32827 0.66009 0.0
H3289 H 0.09538 0.28772 0.63313 0.0
H3290 H 0.05861 0.28196 0.62286 0.0
H3291 H 0.09657 0.34589 0.59936 0.0
H3292 H 0.13356 0.3522 0.60964 0.0
H3293 H 0.21329 0.30163 0.59472 0.0
H3294 H 0.17905 0.29866 0.60683 0.0
H3295 H 0.22072 0.36961 0.62148 0.0
H3296 H 0.25491 0.3727 0.60955 0.0
H3297 H 0.15515 0.32689 0.60806 0.0
H3298 H 0.21192 0.3649 0.6574 0.0
H3299 H 0.24859 0.36977 0.66738 0.0
H3300 H 0.23719 0.30753 0.64609 0.0
H3301 H 0.20033 0.30211 0.63619 0.0
C3302 C 0.10086 0.3374 0.66376 0.0
C3303 C 0.09275 0.31997 0.67428 0.0
C3304 C 0.11675 0.33877 0.65351 0.0
C3305 C 0.12473 0.32268 0.65357 0.0
C3306 C 0.11636 0.30504 0.66389 0.0
C3307 C 0.10047 0.30363 0.67411 0.0
C3308 C 0.1427 0.32486 0.64335 0.0
C3309 C 0.16381 0.32794 0.64873 0.0
C3310 C 0.13942 0.32438 0.62851 0.0
C3311 C 0.11722 0.32053 0.62225 0.0
C3312 C 0.09587 0.30064 0.62585 0.0
C3313 C 0.07499 0.29726 0.62002 0.0
C3314 C 0.07524 0.31358 0.61049 0.0
C3315 C 0.09639 0.33328 0.60675 0.0
C3316 C 0.11733 0.33675 0.61256 0.0
C3317 C 0.21497 0.31675 0.60025 0.0
C3318 C 0.23678 0.33734 0.60127 0.0
C3319 C 0.1954 0.31508 0.60705 0.0
C3320 C 0.1975 0.33387 0.61509 0.0
C3321 C 0.21883 0.35496 0.6153 0.0
C3322 C 0.23831 0.3567 0.60843 0.0
C3323 C 0.17863 0.33045 0.62488 0.0
C3324 C 0.15752 0.32723 0.61943 0.0
C3325 C 0.18174 0.33058 0.63969 0.0
C3326 C 0.20351 0.33325 0.64596 0.0
C3327 C 0.2172 0.3522 0.65492 0.0
C3328 C 0.23802 0.35507 0.66055 0.0
C3329 C 0.24526 0.33902 0.65733 0.0
C3330 C 0.23163 0.32001 0.64853 0.0
C3331 C 0.21078 0.31704 0.64291 0.0
H3332 H 0.26139 0.34129 0.66168 0.0
H3333 H 0.05906 0.31093 0.60599 0.0
H3334 H 0.69989 0.80723 0.68395 0.0
H3335 H 0.69661 0.8346 0.6679 0.0
H3336 H 0.63334 0.77798 0.65044 0.0
H3337 H 0.63628 0.75048 0.66673 0.0
H3338 H 0.67172 0.81468 0.63012 0.0
H3339 H 0.62121 0.80436 0.66983 0.0
H3340 H 0.61189 0.80215 0.69526 0.0
H3341 H 0.66796 0.87257 0.70096 0.0
H3342 H 0.67787 0.87505 0.67558 0.0
H3343 H 0.63714 0.8902 0.59626 0.0
H3344 H 0.63858 0.85824 0.60845 0.0
H3345 H 0.68577 0.90698 0.63936 0.0
H3346 H 0.68344 0.9386 0.62778 0.0
H3347 H 0.65218 0.87094 0.65214 0.0
H3348 H 0.70379 0.88212 0.61331 0.0
H3349 H 0.71548 0.88517 0.58826 0.0
H3350 H 0.66025 0.81485 0.58096 0.0
H3351 H 0.64803 0.81149 0.60595 0.0
C3352 C 0.68544 0.80061 0.67657 0.0
C3353 C 0.6683 0.77683 0.67655 0.0
C3354 C 0.68359 0.8162 0.66745 0.0
C3355 C 0.66476 0.8082 0.65804 0.0
C3356 C 0.64802 0.78436 0.65763 0.0
C3357 C 0.64963 0.76878 0.66696 0.0
C3358 C 0.66201 0.82519 0.64931 0.0
C3359 C 0.66706 0.82678 0.63481 0.0
C3360 C 0.65645 0.84116 0.65561 0.0
C3361 C 0.65044 0.83979 0.67084 0.0
C3362 C 0.63171 0.81929 0.67653 0.0
C3363 C 0.62628 0.818 0.69093 0.0
C3364 C 0.63936 0.83718 0.69973 0.0
C3365 C 0.65786 0.85771 0.69413 0.0
C3366 C 0.66338 0.85907 0.67974 0.0
C3367 C 0.64787 0.8941 0.60564 0.0
C3368 C 0.66021 0.91702 0.611 0.0
C3369 C 0.64884 0.87585 0.61252 0.0
C3370 C 0.66238 0.88024 0.62479 0.0
C3371 C 0.67521 0.90317 0.62991 0.0
C3372 C 0.67409 0.92133 0.62314 0.0
C3373 C 0.66229 0.86091 0.63283 0.0
C3374 C 0.65666 0.85881 0.6473 0.0
C3375 C 0.66754 0.84466 0.62648 0.0
C3376 C 0.67483 0.84665 0.61146 0.0
C3377 C 0.69401 0.86738 0.60634 0.0
C3378 C 0.70076 0.86915 0.59216 0.0
C3379 C 0.68857 0.85024 0.58301 0.0
C3380 C 0.66965 0.8295 0.58805 0.0
C3381 C 0.66281 0.82764 0.60222 0.0
H3382 H 0.69383 0.85165 0.57204 0.0
H3383 H 0.63513 0.83616 0.71087 0.0
loop_
_geom_bond_atom_site_label_1
_geom_bond_atom_site_label_2
_geom_bond_distance
_geom_bond_site_symmetry_2
_ccdc_geom_bond_type
Li0 N17 1.990 . S
Li0 O60 1.956 . S
Li0 O61 1.970 . S
Li0 O62 1.961 . S
Li1 N25 1.990 . S
Li1 O60 1.970 . S
Li1 O61 1.956 . S
Li1 O63 1.961 . S
Li2 N47 1.990 . S
Li2 O60 1.961 . S
Li2 O62 1.956 . S
Li2 O63 1.970 . S
Li3 N53 1.990 1_545 S
Li3 O61 1.961 . S
Li3 O62 1.970 . S
Li3 O63 1.956 . S
C4 C6 1.348 . S
C4 C7 1.356 . S
C4 O60 1.325 . S
N5 C8 1.314 . S
N5 C9 1.279 . S
C6 C4 1.348 . S
C6 C8 1.353 . S
C6 H64 0.929 . S
C7 C4 1.356 . S
C7 C9 1.358 . S
C7 H65 0.930 . S
C8 N5 1.314 . S
C8 C6 1.353 . S
C8 H66 0.930 . S
C9 N5 1.279 . S
C9 C7 1.358 . S
C9 H67 0.930 . S
C10 C13 1.348 . S
C10 C14 1.356 . S
C10 O61 1.325 . S
C11 N12 1.279 . S
C11 C14 1.358 . S
C11 H68 0.930 . S
N12 C11 1.279 . S
N12 C15 1.314 . S
C13 C10 1.348 . S
C13 C15 1.353 . S
C13 H69 0.929 . S
C14 C10 1.356 . S
C14 C11 1.358 . S
C14 H70 0.930 . S
C15 N12 1.314 . S
C15 C13 1.353 . S
C15 H71 0.930 . S
C16 N17 1.314 . S
C16 C21 1.353 . S
C16 H22 0.930 . S
N17 Li0 1.990 . S
N17 C16 1.314 . S
N17 C19 1.279 . S
C18 C19 1.358 . S
C18 C20 1.356 . S
C18 H72 0.930 . S
C19 N17 1.279 . S
C19 C18 1.358 . S
C19 H23 0.930 . S
C20 C18 1.356 . S
C20 C21 1.348 . S
C21 C16 1.353 . S
C21 C20 1.348 . S
C21 H73 0.929 . S
H22 C16 0.930 . S
H23 C19 0.930 . S
C24 N25 1.314 . S
C24 C26 1.353 . S
C24 H30 0.930 . S
N25 Li1 1.990 . S
N25 C24 1.314 . S
N25 C28 1.279 . S
C26 C24 1.353 . S
C26 C29 1.348 . S
C26 H74 0.929 . S
C27 C28 1.358 . S
C27 C29 1.356 . S
C27 H75 0.930 . S
C28 N25 1.279 . S
C28 C27 1.358 . S
C28 H31 0.930 . S
C29 C26 1.348 . S
C29 C27 1.356 . S
H30 C24 0.930 . S
H31 C28 0.930 . S
C32 C34 1.312 1_545 S
C32 C35 1.356 . S
C32 O62 1.325 . S
N33 C36 1.314 1_546 S
N33 C37 1.249 1_556 S
C34 C32 1.312 1_565 S
C34 C36 1.364 . S
C34 H76 0.956 . S
C35 C32 1.356 . S
C35 C37 1.440 . S
C35 H77 0.930 . S
C36 N33 1.314 1_564 S
C36 C34 1.364 . S
C36 H78 0.930 . S
C37 N33 1.249 1_554 S
C37 C35 1.440 . S
C37 H79 0.879 1_554 S
C38 C39 1.348 . S
C38 C40 1.356 . S
C38 O63 1.325 1_565 S
C39 C38 1.348 . S
C39 C41 1.353 . S
C39 H80 0.929 . S
C40 C38 1.356 . S
C40 C42 1.358 . S
C40 H81 0.930 . S
C41 C39 1.353 . S
C41 N43 1.314 . S
C41 H82 0.930 . S
C42 C40 1.358 . S
C42 N43 1.279 . S
C42 H83 0.930 . S
N43 C41 1.314 . S
N43 C42 1.279 . S
C44 C46 1.353 . S
C44 N47 1.314 . S
C44 H50 0.930 . S
C45 N47 1.279 . S
C45 C48 1.358 . S
C45 H51 0.930 . S
C46 C44 1.353 . S
C46 C49 1.348 . S
C46 H84 0.929 . S
N47 Li2 1.990 . S
N47 C44 1.314 . S
N47 C45 1.279 . S
C48 C45 1.358 . S
C48 C49 1.356 . S
C48 H85 0.930 . S
C49 C46 1.348 . S
C49 C48 1.356 . S
H50 C44 0.930 . S
H51 C45 0.930 . S
C52 N53 1.314 . S
C52 C54 1.353 . S
C52 H58 0.930 . S
N53 Li3 1.990 1_565 S
N53 C52 1.314 . S
N53 C56 1.279 . S
C54 C52 1.353 . S
C54 C57 1.348 . S
C54 H86 0.929 . S
C55 C56 1.358 . S
C55 C57 1.356 . S
C55 H87 0.930 . S
C56 N53 1.279 . S
C56 C55 1.358 . S
C56 H59 0.930 . S
C57 C54 1.348 . S
C57 C55 1.356 . S
H58 C52 0.930 . S
H59 C56 0.930 . S
O60 Li0 1.956 . S
O60 Li1 1.970 . S
O60 Li2 1.961 . S
O60 C4 1.325 . S
O61 Li0 1.970 . S
O61 Li1 1.956 . S
O61 Li3 1.961 . S
O61 C10 1.325 . S
O62 Li0 1.961 . S
O62 Li2 1.956 . S
O62 Li3 1.970 . S
O62 C32 1.325 . S
O63 Li1 1.961 . S
O63 Li2 1.970 . S
O63 Li3 1.956 . S
O63 C38 1.325 1_545 S
H64 C6 0.929 . S
H65 C7 0.930 . S
H66 C8 0.930 . S
H67 C9 0.930 . S
H68 C11 0.930 . S
H69 C13 0.929 . S
H70 C14 0.930 . S
H71 C15 0.930 . S
H72 C18 0.930 . S
H73 C21 0.929 . S
H74 C26 0.929 . S
H75 C27 0.930 . S
H76 C34 0.956 . S
H77 C35 0.930 . S
H78 C36 0.930 . S
H79 C37 0.879 1_556 S
H80 C39 0.929 . S
H81 C40 0.930 . S
H82 C41 0.930 . S
H83 C42 0.930 . S
H84 C46 0.929 . S
H85 C48 0.930 . S
H86 C54 0.929 . S
H87 C55 0.930 . S
Li88 N105 1.990 . S
Li88 O148 1.956 . S
Li88 O149 1.970 . S
Li88 O150 1.961 . S
Li89 N113 1.990 1_655 S
Li89 O148 1.970 . S
Li89 O149 1.956 . S
Li89 O151 1.961 . S
Li90 N135 1.990 . S
Li90 O148 1.961 . S
Li90 O150 1.956 . S
Li90 O151 1.970 . S
Li91 N141 1.990 . S
Li91 O149 1.961 . S
Li91 O150 1.970 . S
Li91 O151 1.956 . S
C92 C94 1.348 1_655 S
C92 C95 1.356 . S
C92 O148 1.325 . S
N93 C96 1.314 1_656 S
N93 C97 1.276 1_556 S
C94 C92 1.348 1_455 S
C94 C96 1.353 . S
C94 H152 0.929 . S
C95 C92 1.356 . S
C95 C97 1.366 . S
C95 H153 0.930 . S
C96 N93 1.314 1_454 S
C96 C94 1.353 . S
C96 H154 0.930 . S
C97 N93 1.276 1_554 S
C97 C95 1.366 . S
C97 H155 0.926 1_554 S
C98 C101 1.348 . S
C98 C102 1.356 . S
C98 O149 1.325 1_455 S
C99 N100 1.279 . S
C99 C102 1.358 . S
C99 H156 0.930 . S
N100 C99 1.279 . S
N100 C103 1.314 . S
C101 C98 1.348 . S
C101 C103 1.353 . S
C101 H157 0.929 . S
C102 C98 1.356 . S
C102 C99 1.358 . S
C102 H158 0.930 . S
C103 N100 1.314 . S
C103 C101 1.353 . S
C103 H159 0.930 . S
C104 N105 1.314 . S
C104 C109 1.353 . S
C104 H110 0.930 . S
N105 Li88 1.990 . S
N105 C104 1.314 . S
N105 C107 1.279 . S
C106 C107 1.358 . S
C106 C108 1.356 . S
C106 H160 0.930 . S
C107 N105 1.279 . S
C107 C106 1.358 . S
C107 H111 0.930 . S
C108 C106 1.356 . S
C108 C109 1.348 . S
C109 C104 1.353 . S
C109 C108 1.348 . S
C109 H161 0.929 . S
H110 C104 0.930 . S
H111 C107 0.930 . S
C112 N113 1.314 . S
C112 C114 1.353 . S
C112 H118 0.930 . S
N113 Li89 1.990 1_455 S
N113 C112 1.314 . S
N113 C116 1.279 . S
C114 C112 1.353 . S
C114 C117 1.348 . S
C114 H162 0.929 . S
C115 C116 1.358 . S
C115 C117 1.356 . S
C115 H163 0.930 . S
C116 N113 1.279 . S
C116 C115 1.358 . S
C116 H119 0.930 . S
C117 C114 1.348 . S
C117 C115 1.356 . S
H118 C112 0.930 . S
H119 C116 0.930 . S
C120 C122 1.348 . S
C120 C123 1.356 . S
C120 O150 1.325 . S
N121 C124 1.314 . S
N121 C125 1.279 . S
C122 C120 1.348 . S
C122 C124 1.353 . S
C122 H164 0.929 . S
C123 C120 1.356 . S
C123 C125 1.358 . S
C123 H165 0.930 . S
C124 N121 1.314 . S
C124 C122 1.353 . S
C124 H166 0.930 . S
C125 N121 1.279 . S
C125 C123 1.358 . S
C125 H167 0.930 . S
C126 C127 1.348 . S
C126 C128 1.356 . S
C126 O151 1.325 . S
C127 C126 1.348 . S
C127 C129 1.353 . S
C127 H168 0.929 . S
C128 C126 1.356 . S
C128 C130 1.358 . S
C128 H169 0.930 . S
C129 C127 1.353 . S
C129 N131 1.314 . S
C129 H170 0.930 . S
C130 C128 1.358 . S
C130 N131 1.279 . S
C130 H171 0.930 . S
N131 C129 1.314 . S
N131 C130 1.279 . S
C132 C134 1.353 . S
C132 N135 1.314 . S
C132 H138 0.930 . S
C133 N135 1.279 . S
C133 C136 1.358 . S
C133 H139 0.930 . S
C134 C132 1.353 . S
C134 C137 1.348 . S
C134 H172 0.929 . S
N135 Li90 1.990 . S
N135 C132 1.314 . S
N135 C133 1.279 . S
C136 C133 1.358 . S
C136 C137 1.356 . S
C136 H173 0.930 . S
C137 C134 1.348 . S
C137 C136 1.356 . S
H138 C132 0.930 . S
H139 C133 0.930 . S
C140 N141 1.314 . S
C140 C142 1.353 . S
C140 H146 0.930 . S
N141 Li91 1.990 . S
N141 C140 1.314 . S
N141 C144 1.279 . S
C142 C140 1.353 . S
C142 C145 1.348 . S
C142 H174 0.929 . S
C143 C144 1.358 . S
C143 C145 1.356 . S
C143 H175 0.930 . S
C144 N141 1.279 . S
C144 C143 1.358 . S
C144 H147 0.930 . S
C145 C142 1.348 . S
C145 C143 1.356 . S
H146 C140 0.930 . S
H147 C144 0.930 . S
O148 Li88 1.956 . S
O148 Li89 1.970 . S
O148 Li90 1.961 . S
O148 C92 1.325 . S
O149 Li88 1.970 . S
O149 Li89 1.956 . S
O149 Li91 1.961 . S
O149 C98 1.325 1_655 S
O150 Li88 1.961 . S
O150 Li90 1.956 . S
O150 Li91 1.970 . S
O150 C120 1.325 . S
O151 Li89 1.961 . S
O151 Li90 1.970 . S
O151 Li91 1.956 . S
O151 C126 1.325 . S
H152 C94 0.929 . S
H153 C95 0.930 . S
H154 C96 0.930 . S
H155 C97 0.926 1_556 S
H156 C99 0.930 . S
H157 C101 0.929 . S
H158 C102 0.930 . S
H159 C103 0.930 . S
H160 C106 0.930 . S
H161 C109 0.929 . S
H162 C114 0.929 . S
H163 C115 0.930 . S
H164 C122 0.929 . S
H165 C123 0.930 . S
H166 C124 0.930 . S
H167 C125 0.930 . S
H168 C127 0.929 . S
H169 C128 0.930 . S
H170 C129 0.930 . S
H171 C130 0.930 . S
H172 C134 0.929 . S
H173 C136 0.930 . S
H174 C142 0.929 . S
H175 C143 0.930 . S
Li176 N193 1.990 . S
Li176 O236 1.956 . S
Li176 O237 1.970 . S
Li176 O238 1.961 . S
Li177 N201 1.990 . S
Li177 O236 1.970 . S
Li177 O237 1.956 . S
Li177 O239 1.961 . S
Li178 N223 1.990 . S
Li178 O236 1.961 . S
Li178 O238 1.956 . S
Li178 O239 1.970 . S
Li179 N229 1.990 . S
Li179 O237 1.961 . S
Li179 O238 1.970 . S
Li179 O239 1.956 . S
C180 C182 1.348 . S
C180 C183 1.356 . S
C180 O236 1.325 . S
N181 C184 1.314 . S
N181 C185 1.279 . S
C182 C180 1.348 . S
C182 C184 1.353 . S
C182 H240 0.929 . S
C183 C180 1.356 . S
C183 C185 1.358 . S
C183 H241 0.930 . S
C184 N181 1.314 . S
C184 C182 1.353 . S
C184 H242 0.930 . S
C185 N181 1.279 . S
C185 C183 1.358 . S
C185 H243 0.930 . S
C186 C189 1.348 . S
C186 C190 1.356 . S
C186 O237 1.325 . S
C187 N188 1.279 . S
C187 C190 1.358 . S
C187 H244 0.930 . S
N188 C187 1.279 . S
N188 C191 1.314 . S
C189 C186 1.348 . S
C189 C191 1.353 . S
C189 H245 0.929 . S
C190 C186 1.356 . S
C190 C187 1.358 . S
C190 H246 0.930 . S
C191 N188 1.314 . S
C191 C189 1.353 . S
C191 H247 0.930 . S
C192 N193 1.314 . S
C192 C197 1.353 . S
C192 H198 0.930 . S
N193 Li176 1.990 . S
N193 C192 1.314 . S
N193 C195 1.279 . S
C194 C195 1.358 . S
C194 C196 1.356 . S
C194 H248 0.930 . S
C195 N193 1.279 . S
C195 C194 1.358 . S
C195 H199 0.930 . S
C196 C194 1.356 . S
C196 C197 1.348 . S
C197 C192 1.353 . S
C197 C196 1.348 . S
C197 H249 0.929 . S
H198 C192 0.930 . S
H199 C195 0.930 . S
C200 N201 1.314 . S
C200 C202 1.353 . S
C200 H206 0.930 . S
N201 Li177 1.990 . S
N201 C200 1.314 . S
N201 C204 1.279 . S
C202 C200 1.353 . S
C202 C205 1.348 . S
C202 H250 0.929 . S
C203 C204 1.358 . S
C203 C205 1.356 . S
C203 H251 0.930 . S
C204 N201 1.279 . S
C204 C203 1.358 . S
C204 H207 0.930 . S
C205 C202 1.348 . S
C205 C203 1.356 . S
H206 C200 0.930 . S
H207 C204 0.930 . S
C208 C210 1.348 . S
C208 C211 1.356 . S
C208 O238 1.325 . S
N209 C212 1.314 1_556 S
N209 C213 1.279 1_556 S
C210 C208 1.348 . S
C210 C212 1.353 . S
C210 H252 0.929 . S
C211 C208 1.356 . S
C211 C213 1.358 . S
C211 H253 0.930 . S
C212 N209 1.314 1_554 S
C212 C210 1.353 . S
C212 H254 0.930 1_554 S
C213 N209 1.279 1_554 S
C213 C211 1.358 . S
C213 H255 0.930 1_554 S
C214 C215 1.348 . S
C214 C216 1.356 . S
C214 O239 1.325 . S
C215 C214 1.348 . S
C215 C217 1.353 . S
C215 H256 0.929 . S
C216 C214 1.356 . S
C216 C218 1.358 . S
C216 H257 0.930 . S
C217 C215 1.353 . S
C217 N219 1.314 . S
C217 H258 0.930 . S
C218 C216 1.358 . S
C218 N219 1.279 . S
C218 H259 0.930 . S
N219 C217 1.314 . S
N219 C218 1.279 . S
C220 C222 1.353 . S
C220 N223 1.314 . S
C220 H226 0.930 . S
C221 N223 1.279 . S
C221 C224 1.358 . S
C221 H227 0.930 . S
C222 C220 1.353 . S
C222 C225 1.348 . S
C222 H260 0.929 . S
N223 Li178 1.990 . S
N223 C220 1.314 . S
N223 C221 1.279 . S
C224 C221 1.358 . S
C224 C225 1.356 . S
C224 H261 0.930 . S
C225 C222 1.348 . S
C225 C224 1.356 . S
H226 C220 0.930 . S
H227 C221 0.930 . S
C228 N229 1.314 . S
C228 C230 1.353 . S
C228 H234 0.930 . S
N229 Li179 1.990 . S
N229 C228 1.314 . S
N229 C232 1.279 . S
C230 C228 1.353 . S
C230 C233 1.348 . S
C230 H262 0.929 . S
C231 C232 1.358 . S
C231 C233 1.356 . S
C231 H263 0.930 . S
C232 N229 1.279 . S
C232 C231 1.358 . S
C232 H235 0.930 . S
C233 C230 1.348 . S
C233 C231 1.356 . S
H234 C228 0.930 . S
H235 C232 0.930 . S
O236 Li176 1.956 . S
O236 Li177 1.970 . S
O236 Li178 1.961 . S
O236 C180 1.325 . S
O237 Li176 1.970 . S
O237 Li177 1.956 . S
O237 Li179 1.961 . S
O237 C186 1.325 . S
O238 Li176 1.961 . S
O238 Li178 1.956 . S
O238 Li179 1.970 . S
O238 C208 1.325 . S
O239 Li177 1.961 . S
O239 Li178 1.970 . S
O239 Li179 1.956 . S
O239 C214 1.325 . S
H240 C182 0.929 . S
H241 C183 0.930 . S
H242 C184 0.930 . S
H243 C185 0.930 . S
H244 C187 0.930 . S
H245 C189 0.929 . S
H246 C190 0.930 . S
H247 C191 0.930 . S
H248 C194 0.930 . S
H249 C197 0.929 . S
H250 C202 0.929 . S
H251 C203 0.930 . S
H252 C210 0.929 . S
H253 C211 0.930 . S
H254 C212 0.930 1_556 S
H255 C213 0.930 1_556 S
H256 C215 0.929 . S
H257 C216 0.930 . S
H258 C217 0.930 . S
H259 C218 0.930 . S
H260 C222 0.929 . S
H261 C224 0.930 . S
H262 C230 0.929 . S
H263 C231 0.930 . S
Li264 N281 1.990 . S
Li264 O324 1.956 . S
Li264 O325 1.970 . S
Li264 O326 1.961 . S
Li265 N289 1.990 1_565 S
Li265 O324 1.970 . S
Li265 O325 1.956 . S
Li265 O327 1.961 . S
Li266 N311 1.990 . S
Li266 O324 1.961 . S
Li266 O326 1.956 . S
Li266 O327 1.970 . S
Li267 N317 1.990 . S
Li267 O325 1.961 . S
Li267 O326 1.970 . S
Li267 O327 1.956 . S
C268 C270 1.348 . S
C268 C271 1.356 1_545 S
C268 O324 1.325 1_545 S
N269 C272 1.314 . S
N269 C273 1.279 . S
C270 C268 1.348 . S
C270 C272 1.353 . S
C270 H328 0.929 . S
C271 C268 1.356 1_565 S
C271 C273 1.358 1_565 S
C271 H329 0.930 . S
C272 N269 1.314 . S
C272 C270 1.353 . S
C272 H330 0.930 . S
C273 N269 1.279 . S
C273 C271 1.358 1_545 S
C273 H331 0.930 . S
C274 C277 1.348 . S
C274 C278 1.356 . S
C274 O325 1.325 . S
C275 N276 1.269 1_556 S
C275 C278 1.383 . S
C275 H332 0.915 1_556 S
N276 C275 1.269 1_554 S
N276 C279 1.314 1_554 S
C277 C274 1.348 . S
C277 C279 1.353 . S
C277 H333 0.929 . S
C278 C274 1.356 . S
C278 C275 1.383 . S
C278 H334 0.930 . S
C279 N276 1.314 1_556 S
C279 C277 1.353 . S
C279 H335 0.966 . S
C280 N281 1.314 . S
C280 C285 1.353 . S
C280 H286 0.930 . S
N281 Li264 1.990 . S
N281 C280 1.314 . S
N281 C283 1.279 . S
C282 C283 1.358 . S
C282 C284 1.356 . S
C282 H336 0.930 1_565 S
C283 N281 1.279 . S
C283 C282 1.358 . S
C283 H287 0.956 . S
C284 C282 1.356 . S
C284 C285 1.348 . S
C285 C280 1.353 . S
C285 C284 1.348 . S
C285 H337 0.929 . S
H286 C280 0.930 . S
H287 C283 0.956 . S
C288 N289 1.314 . S
C288 C290 1.353 . S
C288 H294 0.930 . S
N289 Li265 1.990 1_545 S
N289 C288 1.314 . S
N289 C292 1.279 . S
C290 C288 1.353 . S
C290 C293 1.348 . S
C290 H338 0.929 . S
C291 C292 1.358 . S
C291 C293 1.356 . S
C291 H339 0.930 . S
C292 N289 1.279 . S
C292 C291 1.358 . S
C292 H295 0.930 . S
C293 C290 1.348 . S
C293 C291 1.356 . S
H294 C288 0.930 . S
H295 C292 0.930 . S
C296 C298 1.348 . S
C296 C299 1.356 . S
C296 O326 1.325 . S
N297 C300 1.314 . S
N297 C301 1.279 . S
C298 C296 1.348 . S
C298 C300 1.353 . S
C298 H340 0.929 . S
C299 C296 1.356 . S
C299 C301 1.358 . S
C299 H341 0.930 . S
C300 N297 1.314 . S
C300 C298 1.353 . S
C300 H342 0.930 . S
C301 N297 1.279 . S
C301 C299 1.358 . S
C301 H343 0.930 . S
C302 C303 1.348 . S
C302 C304 1.356 . S
C302 O327 1.325 . S
C303 C302 1.348 . S
C303 C305 1.353 . S
C303 H344 0.929 . S
C304 C302 1.356 . S
C304 C306 1.358 . S
C304 H345 0.930 . S
C305 C303 1.353 . S
C305 N307 1.314 . S
C305 H346 0.930 . S
C306 C304 1.358 . S
C306 N307 1.279 . S
C306 H347 0.930 . S
N307 C305 1.314 . S
N307 C306 1.279 . S
C308 C310 1.353 . S
C308 N311 1.314 . S
C308 H314 0.930 . S
C309 N311 1.279 . S
C309 C312 1.358 . S
C309 H315 0.930 . S
C310 C308 1.353 . S
C310 C313 1.348 . S
C310 H348 0.929 . S
N311 Li266 1.990 . S
N311 C308 1.314 . S
N311 C309 1.279 . S
C312 C309 1.358 . S
C312 C313 1.356 . S
C312 H349 0.930 . S
C313 C310 1.348 . S
C313 C312 1.356 . S
H314 C308 0.930 . S
H315 C309 0.930 . S
C316 N317 1.314 . S
C316 C318 1.353 . S
C316 H322 0.930 . S
N317 Li267 1.990 . S
N317 C316 1.314 . S
N317 C320 1.279 . S
C318 C316 1.353 . S
C318 C321 1.348 . S
C318 H350 0.929 . S
C319 C320 1.358 . S
C319 C321 1.356 . S
C319 H351 0.930 . S
C320 N317 1.279 . S
C320 C319 1.358 . S
C320 H323 0.930 . S
C321 C318 1.348 . S
C321 C319 1.356 . S
H322 C316 0.930 . S
H323 C320 0.930 . S
O324 Li264 1.956 . S
O324 Li265 1.970 . S
O324 Li266 1.961 . S
O324 C268 1.325 1_565 S
O325 Li264 1.970 . S
O325 Li265 1.956 . S
O325 Li267 1.961 . S
O325 C274 1.325 . S
O326 Li264 1.961 . S
O326 Li266 1.956 . S
O326 Li267 1.970 . S
O326 C296 1.325 . S
O327 Li265 1.961 . S
O327 Li266 1.970 . S
O327 Li267 1.956 . S
O327 C302 1.325 . S
H328 C270 0.929 . S
H329 C271 0.930 . S
H330 C272 0.930 . S
H331 C273 0.930 . S
H332 C275 0.915 1_554 S
H333 C277 0.929 . S
H334 C278 0.930 . S
H335 C279 0.966 . S
H336 C282 0.930 1_545 S
H337 C285 0.929 . S
H338 C290 0.929 . S
H339 C291 0.930 . S
H340 C298 0.929 . S
H341 C299 0.930 . S
H342 C300 0.930 . S
H343 C301 0.930 . S
H344 C303 0.929 . S
H345 C304 0.930 . S
H346 C305 0.930 . S
H347 C306 0.930 . S
H348 C310 0.929 . S
H349 C312 0.930 . S
H350 C318 0.929 . S
H351 C319 0.930 . S
Li352 N369 1.990 . S
Li352 O412 1.956 . S
Li352 O413 1.970 . S
Li352 O414 1.961 . S
Li353 N377 1.990 . S
Li353 O412 1.970 . S
Li353 O413 1.956 . S
Li353 O415 1.961 . S
Li354 N399 1.990 . S
Li354 O412 1.961 . S
Li354 O414 1.956 . S
Li354 O415 1.970 . S
Li355 N405 1.990 1_455 S
Li355 O413 1.961 . S
Li355 O414 1.970 . S
Li355 O415 1.956 . S
C356 C358 1.348 . S
C356 C359 1.356 . S
C356 O412 1.325 . S
N357 C360 1.314 . S
N357 C361 1.279 . S
C358 C356 1.348 . S
C358 C360 1.353 . S
C358 H416 0.929 . S
C359 C356 1.356 . S
C359 C361 1.358 . S
C359 H417 0.930 . S
C360 N357 1.314 . S
C360 C358 1.353 . S
C360 H418 0.930 . S
C361 N357 1.279 . S
C361 C359 1.358 . S
C361 H419 0.930 . S
C362 C365 1.348 . S
C362 C366 1.356 . S
C362 O413 1.325 . S
C363 N364 1.279 . S
C363 C366 1.358 . S
C363 H420 0.930 . S
N364 C363 1.279 . S
N364 C367 1.314 . S
C365 C362 1.348 . S
C365 C367 1.353 . S
C365 H421 0.929 . S
C366 C362 1.356 . S
C366 C363 1.358 . S
C366 H422 0.930 . S
C367 N364 1.314 . S
C367 C365 1.353 . S
C367 H423 0.930 . S
C368 N369 1.314 . S
C368 C373 1.353 . S
C368 H374 0.930 . S
N369 Li352 1.990 . S
N369 C368 1.314 . S
N369 C371 1.279 . S
C370 C371 1.358 . S
C370 C372 1.356 . S
C370 H424 0.930 . S
C371 N369 1.279 . S
C371 C370 1.358 . S
C371 H375 0.930 . S
C372 C370 1.356 . S
C372 C373 1.348 . S
C373 C368 1.353 . S
C373 C372 1.348 . S
C373 H425 0.929 . S
H374 C368 0.930 . S
H375 C371 0.930 . S
C376 N377 1.314 . S
C376 C378 1.353 . S
C376 H382 0.930 . S
N377 Li353 1.990 . S
N377 C376 1.314 . S
N377 C380 1.279 . S
C378 C376 1.353 . S
C378 C381 1.348 . S
C378 H426 0.929 . S
C379 C380 1.358 . S
C379 C381 1.356 . S
C379 H427 0.930 . S
C380 N377 1.279 . S
C380 C379 1.358 . S
C380 H383 0.930 . S
C381 C378 1.348 . S
C381 C379 1.356 . S
H382 C376 0.930 . S
H383 C380 0.930 . S
C384 C386 1.348 . S
C384 C387 1.361 . S
C384 O414 1.325 1_655 S
N385 C388 1.314 . S
N385 C389 1.279 . S
C386 C384 1.348 . S
C386 C388 1.353 . S
C386 H428 0.929 . S
C387 C384 1.361 . S
C387 C389 1.362 . S
C387 H429 0.921 1_655 S
C388 N385 1.314 . S
C388 C386 1.353 . S
C388 H430 0.930 . S
C389 N385 1.279 . S
C389 C387 1.362 . S
C389 H431 0.930 . S
C390 C391 1.348 . S
C390 C392 1.356 . S
C390 O415 1.325 . S
C391 C390 1.348 . S
C391 C393 1.353 . S
C391 H432 0.929 . S
C392 C390 1.356 . S
C392 C394 1.401 . S
C392 H433 0.930 . S
C393 C391 1.353 . S
C393 N395 1.314 1_556 S
C393 H434 0.930 1_455 S
C394 C392 1.401 . S
C394 N395 1.262 1_556 S
C394 H435 0.904 1_556 S
N395 C393 1.314 1_554 S
N395 C394 1.262 1_554 S
C396 C398 1.353 . S
C396 N399 1.314 . S
C396 H402 0.930 . S
C397 N399 1.279 . S
C397 C400 1.358 . S
C397 H403 0.881 1_455 S
C398 C396 1.353 . S
C398 C401 1.348 . S
C398 H436 0.929 . S
N399 Li354 1.990 . S
N399 C396 1.314 . S
N399 C397 1.279 . S
C400 C397 1.358 . S
C400 C401 1.356 . S
C400 H437 0.930 1_455 S
C401 C398 1.348 . S
C401 C400 1.356 . S
H402 C396 0.930 . S
H403 C397 0.881 1_655 S
C404 N405 1.314 . S
C404 C406 1.353 . S
C404 H410 0.930 . S
N405 Li355 1.990 1_655 S
N405 C404 1.314 . S
N405 C408 1.279 . S
C406 C404 1.353 . S
C406 C409 1.348 . S
C406 H438 0.929 . S
C407 C408 1.358 . S
C407 C409 1.356 . S
C407 H439 0.930 . S
C408 N405 1.279 . S
C408 C407 1.358 . S
C408 H411 0.930 . S
C409 C406 1.348 . S
C409 C407 1.356 . S
H410 C404 0.930 . S
H411 C408 0.930 . S
O412 Li352 1.956 . S
O412 Li353 1.970 . S
O412 Li354 1.961 . S
O412 C356 1.325 . S
O413 Li352 1.970 . S
O413 Li353 1.956 . S
O413 Li355 1.961 . S
O413 C362 1.325 . S
O414 Li352 1.961 . S
O414 Li354 1.956 . S
O414 Li355 1.970 . S
O414 C384 1.325 1_455 S
O415 Li353 1.961 . S
O415 Li354 1.970 . S
O415 Li355 1.956 . S
O415 C390 1.325 . S
H416 C358 0.929 . S
H417 C359 0.930 . S
H418 C360 0.930 . S
H419 C361 0.930 . S
H420 C363 0.930 . S
H421 C365 0.929 . S
H422 C366 0.930 . S
H423 C367 0.930 . S
H424 C370 0.930 . S
H425 C373 0.929 . S
H426 C378 0.929 . S
H427 C379 0.930 . S
H428 C386 0.929 . S
H429 C387 0.921 1_455 S
H430 C388 0.930 . S
H431 C389 0.930 . S
H432 C391 0.929 . S
H433 C392 0.930 . S
H434 C393 0.930 1_655 S
H435 C394 0.904 1_554 S
H436 C398 0.929 . S
H437 C400 0.930 1_655 S
H438 C406 0.929 . S
H439 C407 0.930 . S
Li440 N457 1.990 . S
Li440 O500 1.956 . S
Li440 O501 1.970 . S
Li440 O502 1.961 . S
Li441 N465 1.990 . S
Li441 O500 1.970 . S
Li441 O501 1.956 . S
Li441 O503 1.961 . S
Li442 N487 1.990 . S
Li442 O500 1.961 . S
Li442 O502 1.956 . S
Li442 O503 1.970 . S
Li443 N493 1.990 . S
Li443 O501 1.961 . S
Li443 O502 1.970 . S
Li443 O503 1.956 . S
C444 C446 1.348 . S
C444 C447 1.356 . S
C444 O500 1.325 . S
N445 C448 1.314 1_554 S
N445 C449 1.279 1_554 S
C446 C444 1.348 . S
C446 C448 1.353 . S
C446 H504 0.929 . S
C447 C444 1.356 . S
C447 C449 1.358 . S
C447 H505 0.930 . S
C448 N445 1.314 1_556 S
C448 C446 1.353 . S
C448 H506 0.930 . S
C449 N445 1.279 1_556 S
C449 C447 1.358 . S
C449 H507 0.930 1_556 S
C450 C453 1.348 . S
C450 C454 1.356 . S
C450 O501 1.325 . S
C451 N452 1.279 . S
C451 C454 1.358 . S
C451 H508 0.930 . S
N452 C451 1.279 . S
N452 C455 1.314 . S
C453 C450 1.348 . S
C453 C455 1.353 . S
C453 H509 0.929 . S
C454 C450 1.356 . S
C454 C451 1.358 . S
C454 H510 0.930 . S
C455 N452 1.314 . S
C455 C453 1.353 . S
C455 H511 0.930 . S
C456 N457 1.314 . S
C456 C461 1.353 . S
C456 H462 0.930 . S
N457 Li440 1.990 . S
N457 C456 1.314 . S
N457 C459 1.279 . S
C458 C459 1.358 . S
C458 C460 1.356 . S
C458 H512 0.930 . S
C459 N457 1.279 . S
C459 C458 1.358 . S
C459 H463 0.930 . S
C460 C458 1.356 . S
C460 C461 1.348 . S
C461 C456 1.353 . S
C461 C460 1.348 . S
C461 H513 0.929 . S
H462 C456 0.930 . S
H463 C459 0.930 . S
C464 N465 1.314 . S
C464 C466 1.353 . S
C464 H470 0.930 . S
N465 Li441 1.990 . S
N465 C464 1.314 . S
N465 C468 1.279 . S
C466 C464 1.353 . S
C466 C469 1.348 . S
C466 H514 0.929 . S
C467 C468 1.358 . S
C467 C469 1.356 . S
C467 H515 0.930 . S
C468 N465 1.279 . S
C468 C467 1.358 . S
C468 H471 0.930 . S
C469 C466 1.348 . S
C469 C467 1.356 . S
H470 C464 0.930 . S
H471 C468 0.930 . S
C472 C474 1.348 . S
C472 C475 1.356 . S
C472 O502 1.325 . S
N473 C476 1.314 . S
N473 C477 1.279 . S
C474 C472 1.348 . S
C474 C476 1.353 . S
C474 H516 0.929 . S
C475 C472 1.356 . S
C475 C477 1.358 . S
C475 H517 0.930 . S
C476 N473 1.314 . S
C476 C474 1.353 . S
C476 H518 0.930 . S
C477 N473 1.279 . S
C477 C475 1.358 . S
C477 H519 0.930 . S
C478 C479 1.348 . S
C478 C480 1.356 . S
C478 O503 1.325 . S
C479 C478 1.348 . S
C479 C481 1.353 . S
C479 H520 0.929 . S
C480 C478 1.356 . S
C480 C482 1.358 . S
C480 H521 0.930 . S
C481 C479 1.353 . S
C481 N483 1.314 . S
C481 H522 0.930 . S
C482 C480 1.358 . S
C482 N483 1.279 . S
C482 H523 0.930 . S
N483 C481 1.314 . S
N483 C482 1.279 . S
C484 C486 1.353 . S
C484 N487 1.314 . S
C484 H490 0.930 . S
C485 N487 1.279 . S
C485 C488 1.358 . S
C485 H491 0.930 . S
C486 C484 1.353 . S
C486 C489 1.348 . S
C486 H524 0.929 . S
N487 Li442 1.990 . S
N487 C484 1.314 . S
N487 C485 1.279 . S
C488 C485 1.358 . S
C488 C489 1.356 . S
C488 H525 0.930 . S
C489 C486 1.348 . S
C489 C488 1.356 . S
H490 C484 0.930 . S
H491 C485 0.930 . S
C492 N493 1.314 . S
C492 C494 1.353 . S
C492 H498 0.930 . S
N493 Li443 1.990 . S
N493 C492 1.314 . S
N493 C496 1.279 . S
C494 C492 1.353 . S
C494 C497 1.348 . S
C494 H526 0.929 . S
C495 C496 1.358 . S
C495 C497 1.356 . S
C495 H527 0.930 . S
C496 N493 1.279 . S
C496 C495 1.358 . S
C496 H499 0.930 . S
C497 C494 1.348 . S
C497 C495 1.356 . S
H498 C492 0.930 . S
H499 C496 0.930 . S
O500 Li440 1.956 . S
O500 Li441 1.970 . S
O500 Li442 1.961 . S
O500 C444 1.325 . S
O501 Li440 1.970 . S
O501 Li441 1.956 . S
O501 Li443 1.961 . S
O501 C450 1.325 . S
O502 Li440 1.961 . S
O502 Li442 1.956 . S
O502 Li443 1.970 . S
O502 C472 1.325 . S
O503 Li441 1.961 . S
O503 Li442 1.970 . S
O503 Li443 1.956 . S
O503 C478 1.325 . S
H504 C446 0.929 . S
H505 C447 0.930 . S
H506 C448 0.930 . S
H507 C449 0.930 1_554 S
H508 C451 0.930 . S
H509 C453 0.929 . S
H510 C454 0.930 . S
H511 C455 0.930 . S
H512 C458 0.930 . S
H513 C461 0.929 . S
H514 C466 0.929 . S
H515 C467 0.930 . S
H516 C474 0.929 . S
H517 C475 0.930 . S
H518 C476 0.930 . S
H519 C477 0.930 . S
H520 C479 0.929 . S
H521 C480 0.930 . S
H522 C481 0.930 . S
H523 C482 0.930 . S
H524 C486 0.929 . S
H525 C488 0.930 . S
H526 C494 0.929 . S
H527 C495 0.930 . S
Li528 N545 1.981 . S
Li528 O588 1.974 . S
Li528 O589 1.957 1_455 S
Li528 O590 1.971 1_455 S
Li529 N553 1.997 . S
Li529 O588 1.950 1_655 S
Li529 O589 1.986 . S
Li529 O591 1.940 1_655 S
Li530 N575 1.990 . S
Li530 O588 1.961 . S
Li530 O590 1.956 1_455 S
Li530 O591 1.970 . S
Li531 N581 1.990 . S
Li531 O589 1.961 . S
Li531 O590 1.970 . S
Li531 O591 1.956 1_655 S
C532 C534 1.348 . S
C532 C535 1.356 . S
C532 O588 1.325 . S
N533 C536 1.314 . S
N533 C537 1.279 . S
C534 C532 1.348 . S
C534 C536 1.353 . S
C534 H592 0.929 . S
C535 C532 1.356 . S
C535 C537 1.358 . S
C535 H593 0.930 . S
C536 N533 1.314 . S
C536 C534 1.353 . S
C536 H594 0.930 . S
C537 N533 1.279 . S
C537 C535 1.358 . S
C537 H595 0.930 . S
C538 C541 1.348 . S
C538 C542 1.356 . S
C538 O589 1.325 . S
C539 N540 1.279 . S
C539 C542 1.358 . S
C539 H596 0.930 . S
N540 C539 1.279 . S
N540 C543 1.314 . S
C541 C538 1.348 . S
C541 C543 1.353 . S
C541 H597 0.929 . S
C542 C538 1.356 . S
C542 C539 1.358 . S
C542 H598 0.930 . S
C543 N540 1.314 . S
C543 C541 1.353 . S
C543 H599 0.930 . S
C544 N545 1.314 1_655 S
C544 C549 1.353 . S
C544 H550 0.930 . S
N545 Li528 1.981 . S
N545 C544 1.314 1_455 S
N545 C547 1.279 . S
C546 C547 1.358 . S
C546 C548 1.356 1_455 S
C546 H600 0.930 . S
C547 N545 1.279 . S
C547 C546 1.358 . S
C547 H551 0.930 . S
C548 C546 1.356 1_655 S
C548 C549 1.348 . S
C549 C544 1.353 . S
C549 C548 1.348 . S
C549 H601 0.929 . S
H550 C544 0.930 . S
H551 C547 0.930 . S
C552 N553 1.314 1_455 S
C552 C554 1.353 . S
C552 H558 0.930 . S
N553 Li529 1.997 . S
N553 C552 1.314 1_655 S
N553 C556 1.279 . S
C554 C552 1.353 . S
C554 C557 1.348 . S
C554 H602 0.929 . S
C555 C556 1.358 . S
C555 C557 1.356 1_655 S
C555 H603 0.930 . S
C556 N553 1.279 . S
C556 C555 1.358 . S
C556 H559 0.930 . S
C557 C554 1.348 . S
C557 C555 1.356 1_455 S
H558 C552 0.930 . S
H559 C556 0.930 . S
C560 C562 1.349 . S
C560 C563 1.351 1_655 S
C560 O590 1.328 . S
N561 C564 1.314 1_455 S
N561 C565 1.279 . S
C562 C560 1.349 . S
C562 C564 1.353 . S
C562 H604 0.929 . S
C563 C560 1.351 1_455 S
C563 C565 1.358 . S
C563 H605 0.930 . S
C564 N561 1.314 1_655 S
C564 C562 1.353 . S
C564 H606 0.930 . S
C565 N561 1.279 . S
C565 C563 1.358 . S
C565 H607 0.930 . S
C566 C567 1.348 . S
C566 C568 1.356 1_455 S
C566 O591 1.325 . S
C567 C566 1.348 . S
C567 C569 1.353 . S
C567 H608 0.929 . S
C568 C566 1.356 1_655 S
C568 C570 1.358 . S
C568 H609 0.930 . S
C569 C567 1.353 . S
C569 N571 1.310 1_455 S
C569 H610 0.930 . S
C570 C568 1.358 . S
C570 N571 1.289 . S
C570 H611 0.930 . S
N571 C569 1.310 1_655 S
N571 C570 1.289 . S
C572 C574 1.353 . S
C572 N575 1.314 . S
C572 H578 0.930 . S
C573 N575 1.279 . S
C573 C576 1.358 . S
C573 H579 0.930 . S
C574 C572 1.353 . S
C574 C577 1.348 . S
C574 H612 0.929 . S
N575 Li530 1.990 . S
N575 C572 1.314 . S
N575 C573 1.279 . S
C576 C573 1.358 . S
C576 C577 1.356 . S
C576 H613 0.930 . S
C577 C574 1.348 . S
C577 C576 1.356 . S
H578 C572 0.930 . S
H579 C573 0.930 . S
C580 N581 1.314 . S
C580 C582 1.353 . S
C580 H586 0.930 . S
N581 Li531 1.990 . S
N581 C580 1.314 . S
N581 C584 1.279 . S
C582 C580 1.353 . S
C582 C585 1.348 . S
C582 H614 0.929 . S
C583 C584 1.358 . S
C583 C585 1.356 . S
C583 H615 0.930 . S
C584 N581 1.279 . S
C584 C583 1.358 . S
C584 H587 0.930 . S
C585 C582 1.348 . S
C585 C583 1.356 . S
H586 C580 0.930 . S
H587 C584 0.930 . S
O588 Li528 1.974 . S
O588 Li529 1.950 1_455 S
O588 Li530 1.961 . S
O588 C532 1.325 . S
O589 Li528 1.957 1_655 S
O589 Li529 1.986 . S
O589 Li531 1.961 . S
O589 C538 1.325 . S
O590 Li528 1.971 1_655 S
O590 Li530 1.956 1_655 S
O590 Li531 1.970 . S
O590 C560 1.328 . S
O591 Li529 1.940 1_455 S
O591 Li530 1.970 . S
O591 Li531 1.956 1_455 S
O591 C566 1.325 . S
H592 C534 0.929 . S
H593 C535 0.930 . S
H594 C536 0.930 . S
H595 C537 0.930 . S
H596 C539 0.930 . S
H597 C541 0.929 . S
H598 C542 0.930 . S
H599 C543 0.930 . S
H600 C546 0.930 . S
H601 C549 0.929 . S
H602 C554 0.929 . S
H603 C555 0.930 . S
H604 C562 0.929 . S
H605 C563 0.930 . S
H606 C564 0.930 . S
H607 C565 0.930 . S
H608 C567 0.929 . S
H609 C568 0.930 . S
H610 C569 0.930 . S
H611 C570 0.930 . S
H612 C574 0.929 . S
H613 C576 0.930 . S
H614 C582 0.929 . S
H615 C583 0.930 . S
Li616 N633 1.990 . S
Li616 O676 1.956 . S
Li616 O677 1.970 . S
Li616 O678 1.961 . S
Li617 N641 1.990 . S
Li617 O676 1.970 . S
Li617 O677 1.956 . S
Li617 O679 1.961 . S
Li618 N663 1.990 . S
Li618 O676 1.961 . S
Li618 O678 1.956 . S
Li618 O679 1.970 . S
Li619 N669 1.990 . S
Li619 O677 1.961 . S
Li619 O678 1.970 . S
Li619 O679 1.956 . S
C620 C622 1.348 . S
C620 C623 1.356 . S
C620 O676 1.325 . S
N621 C624 1.314 . S
N621 C625 1.279 . S
C622 C620 1.348 . S
C622 C624 1.353 . S
C622 H680 0.929 . S
C623 C620 1.356 . S
C623 C625 1.358 . S
C623 H681 0.930 . S
C624 N621 1.314 . S
C624 C622 1.353 . S
C624 H682 0.930 . S
C625 N621 1.279 . S
C625 C623 1.358 . S
C625 H683 0.930 . S
C626 C629 1.348 . S
C626 C630 1.356 . S
C626 O677 1.325 . S
C627 N628 1.279 . S
C627 C630 1.358 . S
C627 H684 0.930 . S
N628 C627 1.279 . S
N628 C631 1.314 . S
C629 C626 1.348 . S
C629 C631 1.353 . S
C629 H685 0.929 . S
C630 C626 1.356 . S
C630 C627 1.358 . S
C630 H686 0.930 . S
C631 N628 1.314 . S
C631 C629 1.353 . S
C631 H687 0.930 . S
C632 N633 1.314 . S
C632 C637 1.353 . S
C632 H638 0.930 . S
N633 Li616 1.990 . S
N633 C632 1.314 . S
N633 C635 1.279 . S
C634 C635 1.358 . S
C634 C636 1.356 . S
C634 H688 0.930 . S
C635 N633 1.279 . S
C635 C634 1.358 . S
C635 H639 0.930 . S
C636 C634 1.356 . S
C636 C637 1.348 . S
C637 C632 1.353 . S
C637 C636 1.348 . S
C637 H689 0.929 . S
H638 C632 0.930 . S
H639 C635 0.930 . S
C640 N641 1.314 . S
C640 C642 1.353 . S
C640 H646 0.930 . S
N641 Li617 1.990 . S
N641 C640 1.314 . S
N641 C644 1.279 . S
C642 C640 1.353 . S
C642 C645 1.348 . S
C642 H690 0.929 . S
C643 C644 1.358 . S
C643 C645 1.356 . S
C643 H691 0.930 . S
C644 N641 1.279 . S
C644 C643 1.358 . S
C644 H647 0.930 . S
C645 C642 1.348 . S
C645 C643 1.356 . S
H646 C640 0.930 . S
H647 C644 0.930 . S
C648 C650 1.348 . S
C648 C651 1.356 . S
C648 O678 1.325 . S
N649 C652 1.314 . S
N649 C653 1.279 . S
C650 C648 1.348 . S
C650 C652 1.353 . S
C650 H692 0.929 . S
C651 C648 1.356 . S
C651 C653 1.358 . S
C651 H693 0.930 . S
C652 N649 1.314 . S
C652 C650 1.353 . S
C652 H694 0.930 . S
C653 N649 1.279 . S
C653 C651 1.358 . S
C653 H695 0.930 . S
C654 C655 1.348 . S
C654 C656 1.356 . S
C654 O679 1.325 . S
C655 C654 1.348 . S
C655 C657 1.353 . S
C655 H696 0.929 . S
C656 C654 1.356 . S
C656 C658 1.358 . S
C656 H697 0.930 . S
C657 C655 1.353 . S
C657 N659 1.314 . S
C657 H698 0.930 . S
C658 C656 1.358 . S
C658 N659 1.279 . S
C658 H699 0.930 . S
N659 C657 1.314 . S
N659 C658 1.279 . S
C660 C662 1.353 . S
C660 N663 1.314 . S
C660 H666 0.930 . S
C661 N663 1.279 . S
C661 C664 1.358 . S
C661 H667 0.930 . S
C662 C660 1.353 . S
C662 C665 1.348 . S
C662 H700 0.929 . S
N663 Li618 1.990 . S
N663 C660 1.314 . S
N663 C661 1.279 . S
C664 C661 1.358 . S
C664 C665 1.356 . S
C664 H701 0.930 . S
C665 C662 1.348 . S
C665 C664 1.356 . S
H666 C660 0.930 . S
H667 C661 0.930 . S
C668 N669 1.314 . S
C668 C670 1.353 . S
C668 H674 0.930 . S
N669 Li619 1.990 . S
N669 C668 1.314 . S
N669 C672 1.279 . S
C670 C668 1.353 . S
C670 C673 1.348 . S
C670 H702 0.929 . S
C671 C672 1.358 . S
C671 C673 1.356 . S
C671 H703 0.930 . S
C672 N669 1.279 . S
C672 C671 1.358 . S
C672 H675 0.930 . S
C673 C670 1.348 . S
C673 C671 1.356 . S
H674 C668 0.930 . S
H675 C672 0.930 . S
O676 Li616 1.956 . S
O676 Li617 1.970 . S
O676 Li618 1.961 . S
O676 C620 1.325 . S
O677 Li616 1.970 . S
O677 Li617 1.956 . S
O677 Li619 1.961 . S
O677 C626 1.325 . S
O678 Li616 1.961 . S
O678 Li618 1.956 . S
O678 Li619 1.970 . S
O678 C648 1.325 . S
O679 Li617 1.961 . S
O679 Li618 1.970 . S
O679 Li619 1.956 . S
O679 C654 1.325 . S
H680 C622 0.929 . S
H681 C623 0.930 . S
H682 C624 0.930 . S
H683 C625 0.930 . S
H684 C627 0.930 . S
H685 C629 0.929 . S
H686 C630 0.930 . S
H687 C631 0.930 . S
H688 C634 0.930 . S
H689 C637 0.929 . S
H690 C642 0.929 . S
H691 C643 0.930 . S
H692 C650 0.929 . S
H693 C651 0.930 . S
H694 C652 0.930 . S
H695 C653 0.930 . S
H696 C655 0.929 . S
H697 C656 0.930 . S
H698 C657 0.930 . S
H699 C658 0.930 . S
H700 C662 0.929 . S
H701 C664 0.930 . S
H702 C670 0.929 . S
H703 C671 0.930 . S
Li704 N721 1.990 . S
Li704 O764 1.956 . S
Li704 O765 1.957 1_545 S
Li704 O766 1.956 . S
Li705 N729 1.999 . S
Li705 O764 1.946 1_565 S
Li705 O765 1.947 . S
Li705 O767 2.000 . S
Li706 N751 1.971 . S
Li706 O764 2.001 . S
Li706 O766 1.985 . S
Li706 O767 1.938 1_545 S
Li707 N757 1.990 . S
Li707 O765 1.984 . S
Li707 O766 1.974 1_565 S
Li707 O767 1.956 . S
C708 C710 1.348 . S
C708 C711 1.356 . S
C708 O764 1.325 . S
N709 C712 1.314 . S
N709 C713 1.279 . S
C710 C708 1.348 . S
C710 C712 1.353 . S
C710 H768 0.929 . S
C711 C708 1.356 . S
C711 C713 1.358 . S
C711 H769 0.930 . S
C712 N709 1.314 . S
C712 C710 1.353 . S
C712 H770 0.930 . S
C713 N709 1.279 . S
C713 C711 1.358 . S
C713 H771 0.930 . S
C714 C717 1.348 1_565 S
C714 C718 1.356 . S
C714 O765 1.314 . S
C715 N716 1.279 . S
C715 C718 1.358 . S
C715 H772 0.930 . S
N716 C715 1.279 . S
N716 C719 1.314 1_565 S
C717 C714 1.348 1_545 S
C717 C719 1.353 . S
C717 H773 0.929 . S
C718 C714 1.356 . S
C718 C715 1.358 . S
C718 H774 0.930 . S
C719 N716 1.314 1_545 S
C719 C717 1.353 . S
C719 H775 0.930 . S
C720 N721 1.314 . S
C720 C725 1.353 . S
C720 H726 0.930 . S
N721 Li704 1.990 . S
N721 C720 1.314 . S
N721 C723 1.279 . S
C722 C723 1.358 . S
C722 C724 1.356 . S
C722 H776 0.930 . S
C723 N721 1.279 . S
C723 C722 1.358 . S
C723 H727 0.930 . S
C724 C722 1.356 . S
C724 C725 1.348 . S
C725 C720 1.353 . S
C725 C724 1.348 . S
C725 H777 0.929 . S
H726 C720 0.930 . S
H727 C723 0.930 . S
C728 N729 1.314 . S
C728 C730 1.353 . S
C728 H734 0.930 . S
N729 Li705 1.999 . S
N729 C728 1.314 . S
N729 C732 1.279 1_565 S
C730 C728 1.353 . S
C730 C733 1.348 . S
C730 H778 0.929 . S
C731 C732 1.358 . S
C731 C733 1.356 1_545 S
C731 H779 0.930 . S
C732 N729 1.279 1_545 S
C732 C731 1.358 . S
C732 H735 0.930 . S
C733 C730 1.348 . S
C733 C731 1.356 1_565 S
H734 C728 0.930 . S
H735 C732 0.930 . S
C736 C738 1.327 1_545 S
C736 C739 1.380 . S
C736 O766 1.320 . S
N737 C740 1.314 1_545 S
N737 C741 1.279 . S
C738 C736 1.327 1_565 S
C738 C740 1.353 . S
C738 H780 0.929 . S
C739 C736 1.380 . S
C739 C741 1.358 . S
C739 H781 0.930 . S
C740 N737 1.314 1_565 S
C740 C738 1.353 . S
C740 H782 0.930 . S
C741 N737 1.279 . S
C741 C739 1.358 . S
C741 H783 0.930 . S
C742 C743 1.348 . S
C742 C744 1.356 . S
C742 O767 1.325 . S
C743 C742 1.348 . S
C743 C745 1.353 . S
C743 H784 0.929 . S
C744 C742 1.356 . S
C744 C746 1.358 . S
C744 H785 0.930 . S
C745 C743 1.353 . S
C745 N747 1.314 . S
C745 H786 0.930 . S
C746 C744 1.358 . S
C746 N747 1.279 . S
C746 H787 0.930 . S
N747 C745 1.314 . S
N747 C746 1.279 . S
C748 C750 1.353 . S
C748 N751 1.314 . S
C748 H754 0.930 . S
C749 N751 1.279 1_565 S
C749 C752 1.358 . S
C749 H755 0.930 . S
C750 C748 1.353 . S
C750 C753 1.348 . S
C750 H788 0.929 . S
N751 Li706 1.971 . S
N751 C748 1.314 . S
N751 C749 1.279 1_545 S
C752 C749 1.358 . S
C752 C753 1.356 1_565 S
C752 H789 0.930 . S
C753 C750 1.348 . S
C753 C752 1.356 1_545 S
H754 C748 0.930 . S
H755 C749 0.930 . S
C756 N757 1.314 . S
C756 C758 1.353 . S
C756 H762 0.930 . S
N757 Li707 1.990 . S
N757 C756 1.314 . S
N757 C760 1.279 . S
C758 C756 1.353 . S
C758 C761 1.348 . S
C758 H790 0.929 . S
C759 C760 1.358 . S
C759 C761 1.356 . S
C759 H791 0.930 . S
C760 N757 1.279 . S
C760 C759 1.358 . S
C760 H763 0.930 . S
C761 C758 1.348 . S
C761 C759 1.356 . S
H762 C756 0.930 . S
H763 C760 0.930 . S
O764 Li704 1.956 . S
O764 Li705 1.946 1_545 S
O764 Li706 2.001 . S
O764 C708 1.325 . S
O765 Li704 1.957 1_565 S
O765 Li705 1.947 . S
O765 Li707 1.984 . S
O765 C714 1.314 . S
O766 Li704 1.956 . S
O766 Li706 1.985 . S
O766 Li707 1.974 1_545 S
O766 C736 1.320 . S
O767 Li705 2.000 . S
O767 Li706 1.938 1_565 S
O767 Li707 1.956 . S
O767 C742 1.325 . S
H768 C710 0.929 . S
H769 C711 0.930 . S
H770 C712 0.930 . S
H771 C713 0.930 . S
H772 C715 0.930 . S
H773 C717 0.929 . S
H774 C718 0.930 . S
H775 C719 0.930 . S
H776 C722 0.930 . S
H777 C725 0.929 . S
H778 C730 0.929 . S
H779 C731 0.930 . S
H780 C738 0.929 . S
H781 C739 0.930 . S
H782 C740 0.930 . S
H783 C741 0.930 . S
H784 C743 0.929 . S
H785 C744 0.930 . S
H786 C745 0.930 . S
H787 C746 0.930 . S
H788 C750 0.929 . S
H789 C752 0.930 . S
H790 C758 0.929 . S
H791 C759 0.930 . S
Li792 N809 1.990 . S
Li792 O852 1.956 . S
Li792 O853 1.970 . S
Li792 O854 1.961 . S
Li793 N817 1.990 . S
Li793 O852 1.970 . S
Li793 O853 1.956 . S
Li793 O855 1.961 . S
Li794 N839 1.990 . S
Li794 O852 1.961 . S
Li794 O854 1.956 . S
Li794 O855 1.970 . S
Li795 N845 1.990 . S
Li795 O853 1.961 . S
Li795 O854 1.970 . S
Li795 O855 1.956 . S
C796 C798 1.348 . S
C796 C799 1.356 . S
C796 O852 1.325 . S
N797 C800 1.314 . S
N797 C801 1.279 . S
C798 C796 1.348 . S
C798 C800 1.353 . S
C798 H856 0.929 . S
C799 C796 1.356 . S
C799 C801 1.358 . S
C799 H857 0.930 . S
C800 N797 1.314 . S
C800 C798 1.353 . S
C800 H858 0.930 . S
C801 N797 1.279 . S
C801 C799 1.358 . S
C801 H859 0.930 . S
C802 C805 1.348 . S
C802 C806 1.356 . S
C802 O853 1.325 . S
C803 N804 1.279 . S
C803 C806 1.358 . S
C803 H860 0.930 . S
N804 C803 1.279 . S
N804 C807 1.314 . S
C805 C802 1.348 . S
C805 C807 1.353 . S
C805 H861 0.929 . S
C806 C802 1.356 . S
C806 C803 1.358 . S
C806 H862 0.930 . S
C807 N804 1.314 . S
C807 C805 1.353 . S
C807 H863 0.930 . S
C808 N809 1.314 . S
C808 C813 1.353 . S
C808 H814 0.930 . S
N809 Li792 1.990 . S
N809 C808 1.314 . S
N809 C811 1.279 . S
C810 C811 1.358 . S
C810 C812 1.356 . S
C810 H864 0.930 . S
C811 N809 1.279 . S
C811 C810 1.358 . S
C811 H815 0.930 . S
C812 C810 1.356 . S
C812 C813 1.348 . S
C813 C808 1.353 . S
C813 C812 1.348 . S
C813 H865 0.929 . S
H814 C808 0.930 . S
H815 C811 0.930 . S
C816 N817 1.314 . S
C816 C818 1.353 . S
C816 H822 0.930 . S
N817 Li793 1.990 . S
N817 C816 1.314 . S
N817 C820 1.279 . S
C818 C816 1.353 . S
C818 C821 1.348 . S
C818 H866 0.929 . S
C819 C820 1.358 . S
C819 C821 1.356 . S
C819 H867 0.930 . S
C820 N817 1.279 . S
C820 C819 1.358 . S
C820 H823 0.930 . S
C821 C818 1.348 . S
C821 C819 1.356 . S
H822 C816 0.930 . S
H823 C820 0.930 . S
C824 C826 1.348 . S
C824 C827 1.356 . S
C824 O854 1.325 . S
N825 C828 1.314 . S
N825 C829 1.279 . S
C826 C824 1.348 . S
C826 C828 1.353 . S
C826 H868 0.929 . S
C827 C824 1.356 . S
C827 C829 1.358 . S
C827 H869 0.930 . S
C828 N825 1.314 . S
C828 C826 1.353 . S
C828 H870 0.930 . S
C829 N825 1.279 . S
C829 C827 1.358 . S
C829 H871 0.930 . S
C830 C831 1.348 . S
C830 C832 1.356 . S
C830 O855 1.325 . S
C831 C830 1.348 . S
C831 C833 1.353 . S
C831 H872 0.929 . S
C832 C830 1.356 . S
C832 C834 1.358 . S
C832 H873 0.930 . S
C833 C831 1.353 . S
C833 N835 1.314 . S
C833 H874 0.930 . S
C834 C832 1.358 . S
C834 N835 1.279 . S
C834 H875 0.930 . S
N835 C833 1.314 . S
N835 C834 1.279 . S
C836 C838 1.353 . S
C836 N839 1.314 . S
C836 H842 0.930 . S
C837 N839 1.279 . S
C837 C840 1.358 . S
C837 H843 0.930 . S
C838 C836 1.353 . S
C838 C841 1.348 . S
C838 H876 0.929 . S
N839 Li794 1.990 . S
N839 C836 1.314 . S
N839 C837 1.279 . S
C840 C837 1.358 . S
C840 C841 1.356 . S
C840 H877 0.930 . S
C841 C838 1.348 . S
C841 C840 1.356 . S
H842 C836 0.930 . S
H843 C837 0.930 . S
C844 N845 1.314 . S
C844 C846 1.353 . S
C844 H850 0.930 . S
N845 Li795 1.990 . S
N845 C844 1.314 . S
N845 C848 1.279 . S
C846 C844 1.353 . S
C846 C849 1.348 . S
C846 H878 0.929 . S
C847 C848 1.358 . S
C847 C849 1.356 . S
C847 H879 0.930 . S
C848 N845 1.279 . S
C848 C847 1.358 . S
C848 H851 0.930 . S
C849 C846 1.348 . S
C849 C847 1.356 . S
H850 C844 0.930 . S
H851 C848 0.930 . S
O852 Li792 1.956 . S
O852 Li793 1.970 . S
O852 Li794 1.961 . S
O852 C796 1.325 . S
O853 Li792 1.970 . S
O853 Li793 1.956 . S
O853 Li795 1.961 . S
O853 C802 1.325 . S
O854 Li792 1.961 . S
O854 Li794 1.956 . S
O854 Li795 1.970 . S
O854 C824 1.325 . S
O855 Li793 1.961 . S
O855 Li794 1.970 . S
O855 Li795 1.956 . S
O855 C830 1.325 . S
H856 C798 0.929 . S
H857 C799 0.930 . S
H858 C800 0.930 . S
H859 C801 0.930 . S
H860 C803 0.930 . S
H861 C805 0.929 . S
H862 C806 0.930 . S
H863 C807 0.930 . S
H864 C810 0.930 . S
H865 C813 0.929 . S
H866 C818 0.929 . S
H867 C819 0.930 . S
H868 C826 0.929 . S
H869 C827 0.930 . S
H870 C828 0.930 . S
H871 C829 0.930 . S
H872 C831 0.929 . S
H873 C832 0.930 . S
H874 C833 0.930 . S
H875 C834 0.930 . S
H876 C838 0.929 . S
H877 C840 0.930 . S
H878 C846 0.929 . S
H879 C847 0.930 . S
Li880 N897 1.990 . S
Li880 O940 1.956 . S
Li880 O941 1.970 . S
Li880 O942 1.961 . S
Li881 N905 1.990 . S
Li881 O940 1.970 . S
Li881 O941 1.956 . S
Li881 O943 1.961 . S
Li882 N927 1.990 1_545 S
Li882 O940 1.961 . S
Li882 O942 1.956 . S
Li882 O943 1.970 . S
Li883 N933 1.990 . S
Li883 O941 1.961 . S
Li883 O942 1.970 . S
Li883 O943 1.956 . S
C884 C886 1.348 . S
C884 C887 1.356 . S
C884 O940 1.325 . S
N885 C888 1.314 . S
N885 C889 1.279 . S
C886 C884 1.348 . S
C886 C888 1.353 . S
C886 H944 0.929 . S
C887 C884 1.356 . S
C887 C889 1.358 . S
C887 H945 0.930 . S
C888 N885 1.314 . S
C888 C886 1.353 . S
C888 H946 0.930 . S
C889 N885 1.279 . S
C889 C887 1.358 . S
C889 H947 0.930 . S
C890 C893 1.348 . S
C890 C894 1.356 . S
C890 O941 1.325 . S
C891 N892 1.279 . S
C891 C894 1.358 . S
C891 H948 0.930 . S
N892 C891 1.279 . S
N892 C895 1.314 . S
C893 C890 1.348 . S
C893 C895 1.353 . S
C893 H949 0.929 . S
C894 C890 1.356 . S
C894 C891 1.358 . S
C894 H950 0.930 . S
C895 N892 1.314 . S
C895 C893 1.353 . S
C895 H951 0.930 . S
C896 N897 1.314 . S
C896 C901 1.353 . S
C896 H902 0.930 . S
N897 Li880 1.990 . S
N897 C896 1.314 . S
N897 C899 1.279 . S
C898 C899 1.358 . S
C898 C900 1.356 . S
C898 H952 0.930 . S
C899 N897 1.279 . S
C899 C898 1.358 . S
C899 H903 0.930 . S
C900 C898 1.356 . S
C900 C901 1.348 . S
C901 C896 1.353 . S
C901 C900 1.348 . S
C901 H953 0.929 . S
H902 C896 0.930 . S
H903 C899 0.930 . S
C904 N905 1.314 . S
C904 C906 1.353 . S
C904 H910 0.930 . S
N905 Li881 1.990 . S
N905 C904 1.314 . S
N905 C908 1.279 . S
C906 C904 1.353 . S
C906 C909 1.348 . S
C906 H954 0.929 . S
C907 C908 1.358 . S
C907 C909 1.356 . S
C907 H955 0.930 . S
C908 N905 1.279 . S
C908 C907 1.358 . S
C908 H911 0.930 . S
C909 C906 1.348 . S
C909 C907 1.356 . S
H910 C904 0.930 . S
H911 C908 0.930 . S
C912 C914 1.348 1_545 S
C912 C915 1.356 1_545 S
C912 O942 1.325 . S
N913 C916 1.314 . S
N913 C917 1.279 . S
C914 C912 1.348 1_565 S
C914 C916 1.353 . S
C914 H956 0.929 . S
C915 C912 1.356 1_565 S
C915 C917 1.358 . S
C915 H957 0.930 . S
C916 N913 1.314 . S
C916 C914 1.353 . S
C916 H958 0.930 . S
C917 N913 1.279 . S
C917 C915 1.358 . S
C917 H959 0.930 . S
C918 C919 1.348 . S
C918 C920 1.356 . S
C918 O943 1.325 . S
C919 C918 1.348 . S
C919 C921 1.353 . S
C919 H960 0.929 1_545 S
C920 C918 1.356 . S
C920 C922 1.358 . S
C920 H961 0.930 . S
C921 C919 1.353 . S
C921 N923 1.314 . S
C921 H962 0.930 1_545 S
C922 C920 1.358 . S
C922 N923 1.279 . S
C922 H963 0.930 . S
N923 C921 1.314 . S
N923 C922 1.279 . S
C924 C926 1.353 . S
C924 N927 1.314 . S
C924 H930 0.930 . S
C925 N927 1.279 . S
C925 C928 1.358 . S
C925 H931 0.930 . S
C926 C924 1.353 . S
C926 C929 1.348 . S
C926 H964 0.929 . S
N927 Li882 1.990 1_565 S
N927 C924 1.314 . S
N927 C925 1.279 . S
C928 C925 1.358 . S
C928 C929 1.356 . S
C928 H965 0.930 . S
C929 C926 1.348 . S
C929 C928 1.356 . S
H930 C924 0.930 . S
H931 C925 0.930 . S
C932 N933 1.314 . S
C932 C934 1.353 . S
C932 H938 0.930 . S
N933 Li883 1.990 . S
N933 C932 1.314 . S
N933 C936 1.279 . S
C934 C932 1.353 . S
C934 C937 1.348 . S
C934 H966 0.929 . S
C935 C936 1.358 . S
C935 C937 1.356 . S
C935 H967 0.930 . S
C936 N933 1.279 . S
C936 C935 1.358 . S
C936 H939 0.930 . S
C937 C934 1.348 . S
C937 C935 1.356 . S
H938 C932 0.930 . S
H939 C936 0.930 . S
O940 Li880 1.956 . S
O940 Li881 1.970 . S
O940 Li882 1.961 . S
O940 C884 1.325 . S
O941 Li880 1.970 . S
O941 Li881 1.956 . S
O941 Li883 1.961 . S
O941 C890 1.325 . S
O942 Li880 1.961 . S
O942 Li882 1.956 . S
O942 Li883 1.970 . S
O942 C912 1.325 . S
O943 Li881 1.961 . S
O943 Li882 1.970 . S
O943 Li883 1.956 . S
O943 C918 1.325 . S
H944 C886 0.929 . S
H945 C887 0.930 . S
H946 C888 0.930 . S
H947 C889 0.930 . S
H948 C891 0.930 . S
H949 C893 0.929 . S
H950 C894 0.930 . S
H951 C895 0.930 . S
H952 C898 0.930 . S
H953 C901 0.929 . S
H954 C906 0.929 . S
H955 C907 0.930 . S
H956 C914 0.929 . S
H957 C915 0.930 . S
H958 C916 0.930 . S
H959 C917 0.930 . S
H960 C919 0.929 1_565 S
H961 C920 0.930 . S
H962 C921 0.930 1_565 S
H963 C922 0.930 . S
H964 C926 0.929 . S
H965 C928 0.930 . S
H966 C934 0.929 . S
H967 C935 0.930 . S
Li968 N985 1.990 . S
Li968 O1028 1.956 . S
Li968 O1029 1.970 . S
Li968 O1030 1.961 . S
Li969 N993 1.990 . S
Li969 O1028 1.970 . S
Li969 O1029 1.956 . S
Li969 O1031 1.961 . S
Li970 N1015 1.990 1_655 S
Li970 O1028 1.961 . S
Li970 O1030 1.956 . S
Li970 O1031 1.970 . S
Li971 N1021 1.990 . S
Li971 O1029 1.961 . S
Li971 O1030 1.970 . S
Li971 O1031 1.956 . S
C972 C974 1.348 . S
C972 C975 1.356 . S
C972 O1028 1.325 . S
N973 C976 1.314 . S
N973 C977 1.279 . S
C974 C972 1.348 . S
C974 C976 1.353 . S
C974 H1032 0.929 . S
C975 C972 1.356 . S
C975 C977 1.358 . S
C975 H1033 0.930 . S
C976 N973 1.314 . S
C976 C974 1.353 . S
C976 H1034 0.930 . S
C977 N973 1.279 . S
C977 C975 1.358 . S
C977 H1035 0.930 . S
C978 C981 1.348 . S
C978 C982 1.356 . S
C978 O1029 1.325 . S
C979 N980 1.279 . S
C979 C982 1.358 . S
C979 H1036 0.930 . S
N980 C979 1.279 . S
N980 C983 1.314 . S
C981 C978 1.348 . S
C981 C983 1.353 . S
C981 H1037 0.929 . S
C982 C978 1.356 . S
C982 C979 1.358 . S
C982 H1038 0.930 . S
C983 N980 1.314 . S
C983 C981 1.353 . S
C983 H1039 0.930 . S
C984 N985 1.314 . S
C984 C989 1.353 . S
C984 H990 0.930 . S
N985 Li968 1.990 . S
N985 C984 1.314 . S
N985 C987 1.279 . S
C986 C987 1.358 . S
C986 C988 1.356 . S
C986 H1040 0.930 . S
C987 N985 1.279 . S
C987 C986 1.358 . S
C987 H991 0.930 . S
C988 C986 1.356 . S
C988 C989 1.348 . S
C989 C984 1.353 . S
C989 C988 1.348 . S
C989 H1041 0.929 . S
H990 C984 0.930 . S
H991 C987 0.930 . S
C992 N993 1.314 . S
C992 C994 1.353 . S
C992 H998 0.930 . S
N993 Li969 1.990 . S
N993 C992 1.314 . S
N993 C996 1.279 . S
C994 C992 1.353 . S
C994 C997 1.348 . S
C994 H1042 0.929 1_655 S
C995 C996 1.358 . S
C995 C997 1.356 . S
C995 H1043 0.930 . S
C996 N993 1.279 . S
C996 C995 1.358 . S
C996 H999 0.930 . S
C997 C994 1.348 . S
C997 C995 1.356 . S
H998 C992 0.930 . S
H999 C996 0.930 . S
C1000 C1002 1.348 . S
C1000 C1003 1.356 . S
C1000 O1030 1.325 . S
N1001 C1004 1.314 . S
N1001 C1005 1.279 . S
C1002 C1000 1.348 . S
C1002 C1004 1.353 . S
C1002 H1044 0.929 . S
C1003 C1000 1.356 . S
C1003 C1005 1.358 . S
C1003 H1045 0.930 . S
C1004 N1001 1.314 . S
C1004 C1002 1.353 . S
C1004 H1046 0.930 . S
C1005 N1001 1.279 . S
C1005 C1003 1.358 . S
C1005 H1047 0.930 . S
C1006 C1007 1.348 1_655 S
C1006 C1008 1.356 . S
C1006 O1031 1.325 . S
C1007 C1006 1.348 1_455 S
C1007 C1009 1.353 . S
C1007 H1048 0.929 . S
C1008 C1006 1.356 . S
C1008 C1010 1.358 1_655 S
C1008 H1049 0.930 . S
C1009 C1007 1.353 . S
C1009 N1011 1.314 . S
C1009 H1050 0.930 . S
C1010 C1008 1.358 1_455 S
C1010 N1011 1.279 . S
C1010 H1051 0.930 . S
N1011 C1009 1.314 . S
N1011 C1010 1.279 . S
C1012 C1014 1.353 . S
C1012 N1015 1.314 . S
C1012 H1018 0.930 . S
C1013 N1015 1.279 . S
C1013 C1016 1.358 . S
C1013 H1019 0.930 . S
C1014 C1012 1.353 . S
C1014 C1017 1.348 . S
C1014 H1052 0.929 . S
N1015 Li970 1.990 1_455 S
N1015 C1012 1.314 . S
N1015 C1013 1.279 . S
C1016 C1013 1.358 . S
C1016 C1017 1.356 . S
C1016 H1053 0.930 . S
C1017 C1014 1.348 . S
C1017 C1016 1.356 . S
H1018 C1012 0.930 . S
H1019 C1013 0.930 . S
C1020 N1021 1.314 . S
C1020 C1022 1.353 . S
C1020 H1026 0.930 . S
N1021 Li971 1.990 . S
N1021 C1020 1.314 . S
N1021 C1024 1.279 . S
C1022 C1020 1.353 . S
C1022 C1025 1.348 . S
C1022 H1054 0.929 . S
C1023 C1024 1.358 . S
C1023 C1025 1.356 . S
C1023 H1055 0.930 . S
C1024 N1021 1.279 . S
C1024 C1023 1.358 . S
C1024 H1027 0.930 . S
C1025 C1022 1.348 . S
C1025 C1023 1.356 . S
H1026 C1020 0.930 . S
H1027 C1024 0.930 . S
O1028 Li968 1.956 . S
O1028 Li969 1.970 . S
O1028 Li970 1.961 . S
O1028 C972 1.325 . S
O1029 Li968 1.970 . S
O1029 Li969 1.956 . S
O1029 Li971 1.961 . S
O1029 C978 1.325 . S
O1030 Li968 1.961 . S
O1030 Li970 1.956 . S
O1030 Li971 1.970 . S
O1030 C1000 1.325 . S
O1031 Li969 1.961 . S
O1031 Li970 1.970 . S
O1031 Li971 1.956 . S
O1031 C1006 1.325 . S
H1032 C974 0.929 . S
H1033 C975 0.930 . S
H1034 C976 0.930 . S
H1035 C977 0.930 . S
H1036 C979 0.930 . S
H1037 C981 0.929 . S
H1038 C982 0.930 . S
H1039 C983 0.930 . S
H1040 C986 0.930 . S
H1041 C989 0.929 . S
H1042 C994 0.929 1_455 S
H1043 C995 0.930 . S
H1044 C1002 0.929 . S
H1045 C1003 0.930 . S
H1046 C1004 0.930 . S
H1047 C1005 0.930 . S
H1048 C1007 0.929 . S
H1049 C1008 0.930 . S
H1050 C1009 0.930 . S
H1051 C1010 0.930 . S
H1052 C1014 0.929 . S
H1053 C1016 0.930 . S
H1054 C1022 0.929 . S
H1055 C1023 0.930 . S
Li1056 N1073 1.990 . S
Li1056 O1116 1.956 . S
Li1056 O1117 1.970 . S
Li1056 O1118 1.961 . S
Li1057 N1081 1.990 . S
Li1057 O1116 1.970 . S
Li1057 O1117 1.956 . S
Li1057 O1119 1.961 . S
Li1058 N1103 1.990 . S
Li1058 O1116 1.961 . S
Li1058 O1118 1.956 . S
Li1058 O1119 1.970 . S
Li1059 N1109 1.990 . S
Li1059 O1117 1.961 . S
Li1059 O1118 1.970 . S
Li1059 O1119 1.956 . S
C1060 C1062 1.348 . S
C1060 C1063 1.356 . S
C1060 O1116 1.325 . S
N1061 C1064 1.314 . S
N1061 C1065 1.279 . S
C1062 C1060 1.348 . S
C1062 C1064 1.353 . S
C1062 H1120 0.929 . S
C1063 C1060 1.356 . S
C1063 C1065 1.358 . S
C1063 H1121 0.930 . S
C1064 N1061 1.314 . S
C1064 C1062 1.353 . S
C1064 H1122 0.930 . S
C1065 N1061 1.279 . S
C1065 C1063 1.358 . S
C1065 H1123 0.930 . S
C1066 C1069 1.348 . S
C1066 C1070 1.356 . S
C1066 O1117 1.325 . S
C1067 N1068 1.279 . S
C1067 C1070 1.358 . S
C1067 H1124 0.930 . S
N1068 C1067 1.279 . S
N1068 C1071 1.314 . S
C1069 C1066 1.348 . S
C1069 C1071 1.353 . S
C1069 H1125 0.929 . S
C1070 C1066 1.356 . S
C1070 C1067 1.358 . S
C1070 H1126 0.930 . S
C1071 N1068 1.314 . S
C1071 C1069 1.353 . S
C1071 H1127 0.930 . S
C1072 N1073 1.314 . S
C1072 C1077 1.353 . S
C1072 H1078 0.930 . S
N1073 Li1056 1.990 . S
N1073 C1072 1.314 . S
N1073 C1075 1.279 . S
C1074 C1075 1.358 . S
C1074 C1076 1.356 . S
C1074 H1128 0.930 . S
C1075 N1073 1.279 . S
C1075 C1074 1.358 . S
C1075 H1079 0.930 . S
C1076 C1074 1.356 . S
C1076 C1077 1.348 . S
C1077 C1072 1.353 . S
C1077 C1076 1.348 . S
C1077 H1129 0.929 . S
H1078 C1072 0.930 . S
H1079 C1075 0.930 . S
C1080 N1081 1.314 . S
C1080 C1082 1.353 . S
C1080 H1086 0.930 . S
N1081 Li1057 1.990 . S
N1081 C1080 1.314 . S
N1081 C1084 1.279 . S
C1082 C1080 1.353 . S
C1082 C1085 1.348 . S
C1082 H1130 0.929 . S
C1083 C1084 1.358 . S
C1083 C1085 1.356 . S
C1083 H1131 0.930 . S
C1084 N1081 1.279 . S
C1084 C1083 1.358 . S
C1084 H1087 0.930 . S
C1085 C1082 1.348 . S
C1085 C1083 1.356 . S
H1086 C1080 0.930 . S
H1087 C1084 0.930 . S
C1088 C1090 1.348 . S
C1088 C1091 1.356 . S
C1088 O1118 1.325 . S
N1089 C1092 1.314 . S
N1089 C1093 1.279 . S
C1090 C1088 1.348 . S
C1090 C1092 1.353 . S
C1090 H1132 0.929 . S
C1091 C1088 1.356 . S
C1091 C1093 1.358 . S
C1091 H1133 0.930 . S
C1092 N1089 1.314 . S
C1092 C1090 1.353 . S
C1092 H1134 0.930 . S
C1093 N1089 1.279 . S
C1093 C1091 1.358 . S
C1093 H1135 0.930 . S
C1094 C1095 1.348 . S
C1094 C1096 1.356 . S
C1094 O1119 1.325 . S
C1095 C1094 1.348 . S
C1095 C1097 1.353 . S
C1095 H1136 0.929 . S
C1096 C1094 1.356 . S
C1096 C1098 1.358 . S
C1096 H1137 0.930 . S
C1097 C1095 1.353 . S
C1097 N1099 1.314 . S
C1097 H1138 0.930 . S
C1098 C1096 1.358 . S
C1098 N1099 1.279 . S
C1098 H1139 0.930 . S
N1099 C1097 1.314 . S
N1099 C1098 1.279 . S
C1100 C1102 1.353 . S
C1100 N1103 1.314 . S
C1100 H1106 0.930 . S
C1101 N1103 1.279 . S
C1101 C1104 1.358 . S
C1101 H1107 0.930 . S
C1102 C1100 1.353 . S
C1102 C1105 1.348 . S
C1102 H1140 0.929 . S
N1103 Li1058 1.990 . S
N1103 C1100 1.314 . S
N1103 C1101 1.279 . S
C1104 C1101 1.358 . S
C1104 C1105 1.356 . S
C1104 H1141 0.930 . S
C1105 C1102 1.348 . S
C1105 C1104 1.356 . S
H1106 C1100 0.930 . S
H1107 C1101 0.930 . S
C1108 N1109 1.314 . S
C1108 C1110 1.353 . S
C1108 H1114 0.930 . S
N1109 Li1059 1.990 . S
N1109 C1108 1.314 . S
N1109 C1112 1.279 . S
C1110 C1108 1.353 . S
C1110 C1113 1.348 . S
C1110 H1142 0.929 . S
C1111 C1112 1.358 . S
C1111 C1113 1.356 . S
C1111 H1143 0.930 . S
C1112 N1109 1.279 . S
C1112 C1111 1.358 . S
C1112 H1115 0.930 . S
C1113 C1110 1.348 . S
C1113 C1111 1.356 . S
H1114 C1108 0.930 . S
H1115 C1112 0.930 . S
O1116 Li1056 1.956 . S
O1116 Li1057 1.970 . S
O1116 Li1058 1.961 . S
O1116 C1060 1.325 . S
O1117 Li1056 1.970 . S
O1117 Li1057 1.956 . S
O1117 Li1059 1.961 . S
O1117 C1066 1.325 . S
O1118 Li1056 1.961 . S
O1118 Li1058 1.956 . S
O1118 Li1059 1.970 . S
O1118 C1088 1.325 . S
O1119 Li1057 1.961 . S
O1119 Li1058 1.970 . S
O1119 Li1059 1.956 . S
O1119 C1094 1.325 . S
H1120 C1062 0.929 . S
H1121 C1063 0.930 . S
H1122 C1064 0.930 . S
H1123 C1065 0.930 . S
H1124 C1067 0.930 . S
H1125 C1069 0.929 . S
H1126 C1070 0.930 . S
H1127 C1071 0.930 . S
H1128 C1074 0.930 . S
H1129 C1077 0.929 . S
H1130 C1082 0.929 . S
H1131 C1083 0.930 . S
H1132 C1090 0.929 . S
H1133 C1091 0.930 . S
H1134 C1092 0.930 . S
H1135 C1093 0.930 . S
H1136 C1095 0.929 . S
H1137 C1096 0.930 . S
H1138 C1097 0.930 . S
H1139 C1098 0.930 . S
H1140 C1102 0.929 . S
H1141 C1104 0.930 . S
H1142 C1110 0.929 . S
H1143 C1111 0.930 . S
Li1144 N1161 1.990 . S
Li1144 O1204 1.956 . S
Li1144 O1205 1.970 . S
Li1144 O1206 1.961 . S
Li1145 N1169 1.990 1_565 S
Li1145 O1204 1.970 . S
Li1145 O1205 1.956 . S
Li1145 O1207 1.961 . S
Li1146 N1191 1.990 . S
Li1146 O1204 1.961 . S
Li1146 O1206 1.956 . S
Li1146 O1207 1.970 . S
Li1147 N1197 1.990 . S
Li1147 O1205 1.961 . S
Li1147 O1206 1.970 . S
Li1147 O1207 1.956 . S
C1148 C1150 1.304 1_565 S
C1148 C1151 1.381 . S
C1148 O1204 1.346 . S
N1149 C1152 1.314 . S
N1149 C1153 1.279 . S
C1150 C1148 1.304 1_545 S
C1150 C1152 1.353 . S
C1150 H1208 0.929 . S
C1151 C1148 1.381 . S
C1151 C1153 1.358 1_565 S
C1151 H1209 0.930 . S
C1152 N1149 1.314 . S
C1152 C1150 1.353 . S
C1152 H1210 0.930 . S
C1153 N1149 1.279 . S
C1153 C1151 1.358 1_545 S
C1153 H1211 0.930 . S
C1154 C1157 1.348 . S
C1154 C1158 1.356 . S
C1154 O1205 1.325 . S
C1155 N1156 1.279 . S
C1155 C1158 1.358 . S
C1155 H1212 0.930 . S
N1156 C1155 1.279 . S
N1156 C1159 1.314 . S
C1157 C1154 1.348 . S
C1157 C1159 1.353 . S
C1157 H1213 0.929 . S
C1158 C1154 1.356 . S
C1158 C1155 1.358 . S
C1158 H1214 0.930 . S
C1159 N1156 1.314 . S
C1159 C1157 1.353 . S
C1159 H1215 0.930 . S
C1160 N1161 1.314 . S
C1160 C1165 1.353 . S
C1160 H1166 0.930 . S
N1161 Li1144 1.990 . S
N1161 C1160 1.314 . S
N1161 C1163 1.279 . S
C1162 C1163 1.358 . S
C1162 C1164 1.356 . S
C1162 H1216 0.930 . S
C1163 N1161 1.279 . S
C1163 C1162 1.358 . S
C1163 H1167 0.930 . S
C1164 C1162 1.356 . S
C1164 C1165 1.348 . S
C1165 C1160 1.353 . S
C1165 C1164 1.348 . S
C1165 H1217 0.929 . S
H1166 C1160 0.930 . S
H1167 C1163 0.930 . S
C1168 N1169 1.314 . S
C1168 C1170 1.353 . S
C1168 H1174 0.930 . S
N1169 Li1145 1.990 1_545 S
N1169 C1168 1.314 . S
N1169 C1172 1.279 . S
C1170 C1168 1.353 . S
C1170 C1173 1.348 . S
C1170 H1218 0.929 . S
C1171 C1172 1.358 . S
C1171 C1173 1.356 . S
C1171 H1219 0.930 . S
C1172 N1169 1.279 . S
C1172 C1171 1.358 . S
C1172 H1175 0.930 . S
C1173 C1170 1.348 . S
C1173 C1171 1.356 . S
H1174 C1168 0.930 . S
H1175 C1172 0.930 . S
C1176 C1178 1.348 . S
C1176 C1179 1.356 . S
C1176 O1206 1.325 . S
N1177 C1180 1.314 . S
N1177 C1181 1.279 . S
C1178 C1176 1.348 . S
C1178 C1180 1.353 . S
C1178 H1220 0.929 . S
C1179 C1176 1.356 . S
C1179 C1181 1.358 . S
C1179 H1221 0.930 . S
C1180 N1177 1.314 . S
C1180 C1178 1.353 . S
C1180 H1222 0.930 . S
C1181 N1177 1.279 . S
C1181 C1179 1.358 . S
C1181 H1223 0.930 . S
C1182 C1183 1.348 . S
C1182 C1184 1.356 . S
C1182 O1207 1.325 . S
C1183 C1182 1.348 . S
C1183 C1185 1.353 . S
C1183 H1224 0.929 . S
C1184 C1182 1.356 . S
C1184 C1186 1.358 . S
C1184 H1225 0.930 . S
C1185 C1183 1.353 . S
C1185 N1187 1.314 . S
C1185 H1226 0.930 . S
C1186 C1184 1.358 . S
C1186 N1187 1.279 . S
C1186 H1227 0.930 . S
N1187 C1185 1.314 . S
N1187 C1186 1.279 . S
C1188 C1190 1.353 . S
C1188 N1191 1.314 . S
C1188 H1194 0.930 . S
C1189 N1191 1.279 . S
C1189 C1192 1.358 . S
C1189 H1195 0.930 . S
C1190 C1188 1.353 . S
C1190 C1193 1.348 . S
C1190 H1228 0.929 . S
N1191 Li1146 1.990 . S
N1191 C1188 1.314 . S
N1191 C1189 1.279 . S
C1192 C1189 1.358 . S
C1192 C1193 1.356 . S
C1192 H1229 0.930 . S
C1193 C1190 1.348 . S
C1193 C1192 1.356 . S
H1194 C1188 0.930 . S
H1195 C1189 0.930 . S
C1196 N1197 1.314 . S
C1196 C1198 1.353 . S
C1196 H1202 0.930 . S
N1197 Li1147 1.990 . S
N1197 C1196 1.314 . S
N1197 C1200 1.279 . S
C1198 C1196 1.353 . S
C1198 C1201 1.348 . S
C1198 H1230 0.929 . S
C1199 C1200 1.358 . S
C1199 C1201 1.356 . S
C1199 H1231 0.930 . S
C1200 N1197 1.279 . S
C1200 C1199 1.358 . S
C1200 H1203 0.930 . S
C1201 C1198 1.348 . S
C1201 C1199 1.356 . S
H1202 C1196 0.930 . S
H1203 C1200 0.930 . S
O1204 Li1144 1.956 . S
O1204 Li1145 1.970 . S
O1204 Li1146 1.961 . S
O1204 C1148 1.346 . S
O1205 Li1144 1.970 . S
O1205 Li1145 1.956 . S
O1205 Li1147 1.961 . S
O1205 C1154 1.325 . S
O1206 Li1144 1.961 . S
O1206 Li1146 1.956 . S
O1206 Li1147 1.970 . S
O1206 C1176 1.325 . S
O1207 Li1145 1.961 . S
O1207 Li1146 1.970 . S
O1207 Li1147 1.956 . S
O1207 C1182 1.325 . S
H1208 C1150 0.929 . S
H1209 C1151 0.930 . S
H1210 C1152 0.930 . S
H1211 C1153 0.930 . S
H1212 C1155 0.930 . S
H1213 C1157 0.929 . S
H1214 C1158 0.930 . S
H1215 C1159 0.930 . S
H1216 C1162 0.930 . S
H1217 C1165 0.929 . S
H1218 C1170 0.929 . S
H1219 C1171 0.930 . S
H1220 C1178 0.929 . S
H1221 C1179 0.930 . S
H1222 C1180 0.930 . S
H1223 C1181 0.930 . S
H1224 C1183 0.929 . S
H1225 C1184 0.930 . S
H1226 C1185 0.930 . S
H1227 C1186 0.930 . S
H1228 C1190 0.929 . S
H1229 C1192 0.930 . S
H1230 C1198 0.929 . S
H1231 C1199 0.930 . S
Li1232 N1249 1.990 . S
Li1232 O1292 1.956 . S
Li1232 O1293 1.970 . S
Li1232 O1294 1.961 . S
Li1233 N1257 1.990 . S
Li1233 O1292 1.970 . S
Li1233 O1293 1.956 . S
Li1233 O1295 1.961 . S
Li1234 N1279 1.990 1_455 S
Li1234 O1292 1.961 . S
Li1234 O1294 1.956 . S
Li1234 O1295 1.970 . S
Li1235 N1285 1.990 . S
Li1235 O1293 1.961 . S
Li1235 O1294 1.970 . S
Li1235 O1295 1.956 . S
C1236 C1238 1.337 1_455 S
C1236 C1239 1.351 1_455 S
C1236 O1292 1.341 . S
N1237 C1240 1.314 . S
N1237 C1241 1.279 . S
C1238 C1236 1.337 1_655 S
C1238 C1240 1.353 . S
C1238 H1296 0.929 1_655 S
C1239 C1236 1.351 1_655 S
C1239 C1241 1.358 . S
C1239 H1297 0.930 . S
C1240 N1237 1.314 . S
C1240 C1238 1.353 . S
C1240 H1298 0.930 . S
C1241 N1237 1.279 . S
C1241 C1239 1.358 . S
C1241 H1299 0.930 . S
C1242 C1245 1.348 . S
C1242 C1246 1.356 . S
C1242 O1293 1.325 . S
C1243 N1244 1.279 . S
C1243 C1246 1.358 . S
C1243 H1300 0.930 . S
N1244 C1243 1.279 . S
N1244 C1247 1.314 . S
C1245 C1242 1.348 . S
C1245 C1247 1.353 . S
C1245 H1301 0.929 . S
C1246 C1242 1.356 . S
C1246 C1243 1.358 . S
C1246 H1302 0.930 . S
C1247 N1244 1.314 . S
C1247 C1245 1.353 . S
C1247 H1303 0.930 . S
C1248 N1249 1.314 . S
C1248 C1253 1.353 . S
C1248 H1254 0.930 . S
N1249 Li1232 1.990 . S
N1249 C1248 1.314 . S
N1249 C1251 1.279 . S
C1250 C1251 1.358 . S
C1250 C1252 1.356 . S
C1250 H1304 0.930 . S
C1251 N1249 1.279 . S
C1251 C1250 1.358 . S
C1251 H1255 0.930 . S
C1252 C1250 1.356 . S
C1252 C1253 1.348 . S
C1253 C1248 1.353 . S
C1253 C1252 1.348 . S
C1253 H1305 0.929 . S
H1254 C1248 0.930 . S
H1255 C1251 0.930 . S
C1256 N1257 1.314 . S
C1256 C1258 1.353 . S
C1256 H1262 0.930 . S
N1257 Li1233 1.990 . S
N1257 C1256 1.314 . S
N1257 C1260 1.279 . S
C1258 C1256 1.353 . S
C1258 C1261 1.348 . S
C1258 H1306 0.929 . S
C1259 C1260 1.358 . S
C1259 C1261 1.356 . S
C1259 H1307 0.930 . S
C1260 N1257 1.279 . S
C1260 C1259 1.358 . S
C1260 H1263 0.930 . S
C1261 C1258 1.348 . S
C1261 C1259 1.356 . S
H1262 C1256 0.930 . S
H1263 C1260 0.930 . S
C1264 C1266 1.348 . S
C1264 C1267 1.356 . S
C1264 O1294 1.325 . S
N1265 C1268 1.314 . S
N1265 C1269 1.279 . S
C1266 C1264 1.348 . S
C1266 C1268 1.353 . S
C1266 H1308 0.929 . S
C1267 C1264 1.356 . S
C1267 C1269 1.358 . S
C1267 H1309 0.930 . S
C1268 N1265 1.314 . S
C1268 C1266 1.353 . S
C1268 H1310 0.930 . S
C1269 N1265 1.279 . S
C1269 C1267 1.358 . S
C1269 H1311 0.930 . S
C1270 C1271 1.348 . S
C1270 C1272 1.356 . S
C1270 O1295 1.325 . S
C1271 C1270 1.348 . S
C1271 C1273 1.353 . S
C1271 H1312 0.929 . S
C1272 C1270 1.356 . S
C1272 C1274 1.358 . S
C1272 H1313 0.930 . S
C1273 C1271 1.353 . S
C1273 N1275 1.314 . S
C1273 H1314 0.930 1_455 S
C1274 C1272 1.358 . S
C1274 N1275 1.279 . S
C1274 H1315 0.930 . S
N1275 C1273 1.314 . S
N1275 C1274 1.279 . S
C1276 C1278 1.353 . S
C1276 N1279 1.314 . S
C1276 H1282 0.930 . S
C1277 N1279 1.279 . S
C1277 C1280 1.358 . S
C1277 H1283 0.930 . S
C1278 C1276 1.353 . S
C1278 C1281 1.348 . S
C1278 H1316 0.929 . S
N1279 Li1234 1.990 1_655 S
N1279 C1276 1.314 . S
N1279 C1277 1.279 . S
C1280 C1277 1.358 . S
C1280 C1281 1.356 . S
C1280 H1317 0.930 . S
C1281 C1278 1.348 . S
C1281 C1280 1.356 . S
H1282 C1276 0.930 . S
H1283 C1277 0.930 . S
C1284 N1285 1.314 . S
C1284 C1286 1.353 . S
C1284 H1290 0.930 . S
N1285 Li1235 1.990 . S
N1285 C1284 1.314 . S
N1285 C1288 1.279 . S
C1286 C1284 1.353 . S
C1286 C1289 1.348 . S
C1286 H1318 0.929 . S
C1287 C1288 1.358 . S
C1287 C1289 1.356 . S
C1287 H1319 0.930 . S
C1288 N1285 1.279 . S
C1288 C1287 1.358 . S
C1288 H1291 0.930 . S
C1289 C1286 1.348 . S
C1289 C1287 1.356 . S
H1290 C1284 0.930 . S
H1291 C1288 0.930 . S
O1292 Li1232 1.956 . S
O1292 Li1233 1.970 . S
O1292 Li1234 1.961 . S
O1292 C1236 1.341 . S
O1293 Li1232 1.970 . S
O1293 Li1233 1.956 . S
O1293 Li1235 1.961 . S
O1293 C1242 1.325 . S
O1294 Li1232 1.961 . S
O1294 Li1234 1.956 . S
O1294 Li1235 1.970 . S
O1294 C1264 1.325 . S
O1295 Li1233 1.961 . S
O1295 Li1234 1.970 . S
O1295 Li1235 1.956 . S
O1295 C1270 1.325 . S
H1296 C1238 0.929 1_455 S
H1297 C1239 0.930 . S
H1298 C1240 0.930 . S
H1299 C1241 0.930 . S
H1300 C1243 0.930 . S
H1301 C1245 0.929 . S
H1302 C1246 0.930 . S
H1303 C1247 0.930 . S
H1304 C1250 0.930 . S
H1305 C1253 0.929 . S
H1306 C1258 0.929 . S
H1307 C1259 0.930 . S
H1308 C1266 0.929 . S
H1309 C1267 0.930 . S
H1310 C1268 0.930 . S
H1311 C1269 0.930 . S
H1312 C1271 0.929 . S
H1313 C1272 0.930 . S
H1314 C1273 0.930 1_655 S
H1315 C1274 0.930 . S
H1316 C1278 0.929 . S
H1317 C1280 0.930 . S
H1318 C1286 0.929 . S
H1319 C1287 0.930 . S
Li1320 N1337 1.990 . S
Li1320 O1380 1.956 1_655 S
Li1320 O1381 2.001 . S
Li1320 O1382 1.961 . S
Li1321 N1345 1.990 . S
Li1321 O1380 1.971 . S
Li1321 O1381 1.934 1_455 S
Li1321 O1383 1.961 . S
Li1322 N1367 1.990 . S
Li1322 O1380 1.961 1_655 S
Li1322 O1382 1.956 . S
Li1322 O1383 1.970 1_655 S
Li1323 N1373 1.990 . S
Li1323 O1381 1.938 1_455 S
Li1323 O1382 1.970 1_455 S
Li1323 O1383 1.956 . S
C1324 C1326 1.348 1_655 S
C1324 C1327 1.356 . S
C1324 O1380 1.325 1_655 S
N1325 C1328 1.314 1_655 S
N1325 C1329 1.279 . S
C1326 C1324 1.348 1_455 S
C1326 C1328 1.353 . S
C1326 H1384 0.929 . S
C1327 C1324 1.356 . S
C1327 C1329 1.358 . S
C1327 H1385 0.930 . S
C1328 N1325 1.314 1_455 S
C1328 C1326 1.353 . S
C1328 H1386 0.930 . S
C1329 N1325 1.279 . S
C1329 C1327 1.358 . S
C1329 H1387 0.930 . S
C1330 C1333 1.335 1_455 S
C1330 C1334 1.367 . S
C1330 O1381 1.332 1_455 S
C1331 N1332 1.279 . S
C1331 C1334 1.358 . S
C1331 H1388 0.930 . S
N1332 C1331 1.279 . S
N1332 C1335 1.314 1_455 S
C1333 C1330 1.335 1_655 S
C1333 C1335 1.353 . S
C1333 H1389 0.929 . S
C1334 C1330 1.367 . S
C1334 C1331 1.358 . S
C1334 H1390 0.930 . S
C1335 N1332 1.314 1_655 S
C1335 C1333 1.353 . S
C1335 H1391 0.930 . S
C1336 N1337 1.314 . S
C1336 C1341 1.353 . S
C1336 H1342 0.930 . S
N1337 Li1320 1.990 . S
N1337 C1336 1.314 . S
N1337 C1339 1.279 . S
C1338 C1339 1.358 . S
C1338 C1340 1.356 . S
C1338 H1392 0.930 . S
C1339 N1337 1.279 . S
C1339 C1338 1.358 . S
C1339 H1343 0.930 . S
C1340 C1338 1.356 . S
C1340 C1341 1.348 . S
C1341 C1336 1.353 . S
C1341 C1340 1.348 . S
C1341 H1393 0.929 . S
H1342 C1336 0.930 . S
H1343 C1339 0.930 . S
C1344 N1345 1.314 . S
C1344 C1346 1.353 . S
C1344 H1350 0.930 . S
N1345 Li1321 1.990 . S
N1345 C1344 1.314 . S
N1345 C1348 1.279 . S
C1346 C1344 1.353 . S
C1346 C1349 1.348 . S
C1346 H1394 0.929 . S
C1347 C1348 1.358 . S
C1347 C1349 1.356 . S
C1347 H1395 0.930 . S
C1348 N1345 1.279 . S
C1348 C1347 1.358 . S
C1348 H1351 0.930 . S
C1349 C1346 1.348 . S
C1349 C1347 1.356 . S
H1350 C1344 0.930 . S
H1351 C1348 0.930 . S
C1352 C1354 1.348 . S
C1352 C1355 1.356 . S
C1352 O1382 1.325 . S
N1353 C1356 1.314 . S
N1353 C1357 1.279 . S
C1354 C1352 1.348 . S
C1354 C1356 1.353 . S
C1354 H1396 0.929 . S
C1355 C1352 1.356 . S
C1355 C1357 1.358 . S
C1355 H1397 0.930 . S
C1356 N1353 1.314 . S
C1356 C1354 1.353 . S
C1356 H1398 0.930 . S
C1357 N1353 1.279 . S
C1357 C1355 1.358 . S
C1357 H1399 0.930 . S
C1358 C1359 1.348 . S
C1358 C1360 1.356 . S
C1358 O1383 1.325 . S
C1359 C1358 1.348 . S
C1359 C1361 1.353 . S
C1359 H1400 0.929 . S
C1360 C1358 1.356 . S
C1360 C1362 1.358 . S
C1360 H1401 0.930 . S
C1361 C1359 1.353 . S
C1361 N1363 1.314 . S
C1361 H1402 0.930 . S
C1362 C1360 1.358 . S
C1362 N1363 1.279 . S
C1362 H1403 0.930 . S
N1363 C1361 1.314 . S
N1363 C1362 1.279 . S
C1364 C1366 1.353 . S
C1364 N1367 1.314 1_455 S
C1364 H1370 0.930 . S
C1365 N1367 1.279 . S
C1365 C1368 1.358 . S
C1365 H1371 0.930 . S
C1366 C1364 1.353 . S
C1366 C1369 1.345 1_455 S
C1366 H1404 0.929 . S
N1367 Li1322 1.990 . S
N1367 C1364 1.314 1_655 S
N1367 C1365 1.279 . S
C1368 C1365 1.358 . S
C1368 C1369 1.376 . S
C1368 H1405 0.930 . S
C1369 C1366 1.345 1_655 S
C1369 C1368 1.376 . S
H1370 C1364 0.930 . S
H1371 C1365 0.930 . S
C1372 N1373 1.314 1_655 S
C1372 C1374 1.353 . S
C1372 H1378 0.930 . S
N1373 Li1323 1.990 . S
N1373 C1372 1.314 1_455 S
N1373 C1376 1.279 . S
C1374 C1372 1.353 . S
C1374 C1377 1.348 1_655 S
C1374 H1406 0.929 . S
C1375 C1376 1.358 . S
C1375 C1377 1.356 . S
C1375 H1407 0.930 . S
C1376 N1373 1.279 . S
C1376 C1375 1.358 . S
C1376 H1379 0.930 . S
C1377 C1374 1.348 1_455 S
C1377 C1375 1.356 . S
H1378 C1372 0.930 . S
H1379 C1376 0.930 . S
O1380 Li1320 1.956 1_455 S
O1380 Li1321 1.971 . S
O1380 Li1322 1.961 1_455 S
O1380 C1324 1.325 1_455 S
O1381 Li1320 2.001 . S
O1381 Li1321 1.934 1_655 S
O1381 Li1323 1.938 1_655 S
O1381 C1330 1.332 1_655 S
O1382 Li1320 1.961 . S
O1382 Li1322 1.956 . S
O1382 Li1323 1.970 1_655 S
O1382 C1352 1.325 . S
O1383 Li1321 1.961 . S
O1383 Li1322 1.970 1_455 S
O1383 Li1323 1.956 . S
O1383 C1358 1.325 . S
H1384 C1326 0.929 . S
H1385 C1327 0.930 . S
H1386 C1328 0.930 . S
H1387 C1329 0.930 . S
H1388 C1331 0.930 . S
H1389 C1333 0.929 . S
H1390 C1334 0.930 . S
H1391 C1335 0.930 . S
H1392 C1338 0.930 . S
H1393 C1341 0.929 . S
H1394 C1346 0.929 . S
H1395 C1347 0.930 . S
H1396 C1354 0.929 . S
H1397 C1355 0.930 . S
H1398 C1356 0.930 . S
H1399 C1357 0.930 . S
H1400 C1359 0.929 . S
H1401 C1360 0.930 . S
H1402 C1361 0.930 . S
H1403 C1362 0.930 . S
H1404 C1366 0.929 . S
H1405 C1368 0.930 . S
H1406 C1374 0.929 . S
H1407 C1375 0.930 . S
Li1408 N1425 1.990 . S
Li1408 O1468 1.956 . S
Li1408 O1469 1.970 . S
Li1408 O1470 1.961 . S
Li1409 N1433 1.990 . S
Li1409 O1468 1.970 . S
Li1409 O1469 1.956 . S
Li1409 O1471 1.961 . S
Li1410 N1455 1.990 . S
Li1410 O1468 1.961 . S
Li1410 O1470 1.956 . S
Li1410 O1471 1.970 . S
Li1411 N1461 1.990 . S
Li1411 O1469 1.961 . S
Li1411 O1470 1.970 . S
Li1411 O1471 1.956 . S
C1412 C1414 1.348 . S
C1412 C1415 1.356 . S
C1412 O1468 1.325 . S
N1413 C1416 1.314 . S
N1413 C1417 1.279 . S
C1414 C1412 1.348 . S
C1414 C1416 1.353 . S
C1414 H1472 0.929 . S
C1415 C1412 1.356 . S
C1415 C1417 1.358 . S
C1415 H1473 0.930 . S
C1416 N1413 1.314 . S
C1416 C1414 1.353 . S
C1416 H1474 0.930 . S
C1417 N1413 1.279 . S
C1417 C1415 1.358 . S
C1417 H1475 0.930 . S
C1418 C1421 1.348 . S
C1418 C1422 1.356 . S
C1418 O1469 1.325 . S
C1419 N1420 1.279 . S
C1419 C1422 1.358 . S
C1419 H1476 0.930 . S
N1420 C1419 1.279 . S
N1420 C1423 1.314 . S
C1421 C1418 1.348 . S
C1421 C1423 1.353 . S
C1421 H1477 0.929 . S
C1422 C1418 1.356 . S
C1422 C1419 1.358 . S
C1422 H1478 0.930 . S
C1423 N1420 1.314 . S
C1423 C1421 1.353 . S
C1423 H1479 0.930 . S
C1424 N1425 1.314 . S
C1424 C1429 1.353 . S
C1424 H1430 0.930 . S
N1425 Li1408 1.990 . S
N1425 C1424 1.314 . S
N1425 C1427 1.279 . S
C1426 C1427 1.358 . S
C1426 C1428 1.356 . S
C1426 H1480 0.930 . S
C1427 N1425 1.279 . S
C1427 C1426 1.358 . S
C1427 H1431 0.930 . S
C1428 C1426 1.356 . S
C1428 C1429 1.348 . S
C1429 C1424 1.353 . S
C1429 C1428 1.348 . S
C1429 H1481 0.929 . S
H1430 C1424 0.930 . S
H1431 C1427 0.930 . S
C1432 N1433 1.314 . S
C1432 C1434 1.353 . S
C1432 H1438 0.930 . S
N1433 Li1409 1.990 . S
N1433 C1432 1.314 . S
N1433 C1436 1.279 . S
C1434 C1432 1.353 . S
C1434 C1437 1.348 . S
C1434 H1482 0.929 . S
C1435 C1436 1.358 . S
C1435 C1437 1.356 . S
C1435 H1483 0.930 . S
C1436 N1433 1.279 . S
C1436 C1435 1.358 . S
C1436 H1439 0.930 . S
C1437 C1434 1.348 . S
C1437 C1435 1.356 . S
H1438 C1432 0.930 . S
H1439 C1436 0.930 . S
C1440 C1442 1.348 . S
C1440 C1443 1.356 . S
C1440 O1470 1.325 . S
N1441 C1444 1.314 . S
N1441 C1445 1.279 . S
C1442 C1440 1.348 . S
C1442 C1444 1.353 . S
C1442 H1484 0.929 . S
C1443 C1440 1.356 . S
C1443 C1445 1.358 . S
C1443 H1485 0.930 . S
C1444 N1441 1.314 . S
C1444 C1442 1.353 . S
C1444 H1486 0.930 . S
C1445 N1441 1.279 . S
C1445 C1443 1.358 . S
C1445 H1487 0.930 . S
C1446 C1447 1.348 . S
C1446 C1448 1.356 . S
C1446 O1471 1.325 . S
C1447 C1446 1.348 . S
C1447 C1449 1.353 . S
C1447 H1488 0.929 . S
C1448 C1446 1.356 . S
C1448 C1450 1.358 . S
C1448 H1489 0.930 . S
C1449 C1447 1.353 . S
C1449 N1451 1.314 . S
C1449 H1490 0.930 . S
C1450 C1448 1.358 . S
C1450 N1451 1.279 . S
C1450 H1491 0.930 . S
N1451 C1449 1.314 . S
N1451 C1450 1.279 . S
C1452 C1454 1.353 . S
C1452 N1455 1.314 . S
C1452 H1458 0.930 . S
C1453 N1455 1.279 . S
C1453 C1456 1.358 . S
C1453 H1459 0.930 . S
C1454 C1452 1.353 . S
C1454 C1457 1.348 . S
C1454 H1492 0.929 . S
N1455 Li1410 1.990 . S
N1455 C1452 1.314 . S
N1455 C1453 1.279 . S
C1456 C1453 1.358 . S
C1456 C1457 1.356 . S
C1456 H1493 0.930 . S
C1457 C1454 1.348 . S
C1457 C1456 1.356 . S
H1458 C1452 0.930 . S
H1459 C1453 0.930 . S
C1460 N1461 1.314 . S
C1460 C1462 1.353 . S
C1460 H1466 0.930 . S
N1461 Li1411 1.990 . S
N1461 C1460 1.314 . S
N1461 C1464 1.279 . S
C1462 C1460 1.353 . S
C1462 C1465 1.348 . S
C1462 H1494 0.929 . S
C1463 C1464 1.358 . S
C1463 C1465 1.356 . S
C1463 H1495 0.930 . S
C1464 N1461 1.279 . S
C1464 C1463 1.358 . S
C1464 H1467 0.930 . S
C1465 C1462 1.348 . S
C1465 C1463 1.356 . S
H1466 C1460 0.930 . S
H1467 C1464 0.930 . S
O1468 Li1408 1.956 . S
O1468 Li1409 1.970 . S
O1468 Li1410 1.961 . S
O1468 C1412 1.325 . S
O1469 Li1408 1.970 . S
O1469 Li1409 1.956 . S
O1469 Li1411 1.961 . S
O1469 C1418 1.325 . S
O1470 Li1408 1.961 . S
O1470 Li1410 1.956 . S
O1470 Li1411 1.970 . S
O1470 C1440 1.325 . S
O1471 Li1409 1.961 . S
O1471 Li1410 1.970 . S
O1471 Li1411 1.956 . S
O1471 C1446 1.325 . S
H1472 C1414 0.929 . S
H1473 C1415 0.930 . S
H1474 C1416 0.930 . S
H1475 C1417 0.930 . S
H1476 C1419 0.930 . S
H1477 C1421 0.929 . S
H1478 C1422 0.930 . S
H1479 C1423 0.930 . S
H1480 C1426 0.930 . S
H1481 C1429 0.929 . S
H1482 C1434 0.929 . S
H1483 C1435 0.930 . S
H1484 C1442 0.929 . S
H1485 C1443 0.930 . S
H1486 C1444 0.930 . S
H1487 C1445 0.930 . S
H1488 C1447 0.929 . S
H1489 C1448 0.930 . S
H1490 C1449 0.930 . S
H1491 C1450 0.930 . S
H1492 C1454 0.929 . S
H1493 C1456 0.930 . S
H1494 C1462 0.929 . S
H1495 C1463 0.930 . S
Li1496 N1513 1.990 . S
Li1496 O1556 1.956 . S
Li1496 O1557 1.986 . S
Li1496 O1558 1.961 1_565 S
Li1497 N1521 1.980 1_565 S
Li1497 O1556 1.973 . S
Li1497 O1557 1.947 . S
Li1497 O1559 1.959 1_565 S
Li1498 N1543 1.995 1_545 S
Li1498 O1556 1.963 1_545 S
Li1498 O1558 1.958 . S
Li1498 O1559 1.966 . S
Li1499 N1549 1.990 . S
Li1499 O1557 1.948 1_545 S
Li1499 O1558 1.970 . S
Li1499 O1559 1.956 . S
C1500 C1502 1.348 . S
C1500 C1503 1.356 . S
C1500 O1556 1.325 . S
N1501 C1504 1.314 . S
N1501 C1505 1.279 . S
C1502 C1500 1.348 . S
C1502 C1504 1.353 . S
C1502 H1560 0.929 . S
C1503 C1500 1.356 . S
C1503 C1505 1.358 . S
C1503 H1561 0.930 . S
C1504 N1501 1.314 . S
C1504 C1502 1.353 . S
C1504 H1562 0.930 . S
C1505 N1501 1.279 . S
C1505 C1503 1.358 . S
C1505 H1563 0.930 . S
C1506 C1509 1.363 . S
C1506 C1510 1.343 1_565 S
C1506 O1557 1.325 . S
C1507 N1508 1.278 . S
C1507 C1510 1.358 . S
C1507 H1564 0.930 . S
N1508 C1507 1.278 . S
N1508 C1511 1.316 1_545 S
C1509 C1506 1.363 . S
C1509 C1511 1.353 . S
C1509 H1565 0.929 . S
C1510 C1506 1.343 1_545 S
C1510 C1507 1.358 . S
C1510 H1566 0.930 . S
C1511 N1508 1.316 1_565 S
C1511 C1509 1.353 . S
C1511 H1567 0.930 . S
C1512 N1513 1.314 . S
C1512 C1517 1.353 . S
C1512 H1518 0.930 . S
N1513 Li1496 1.990 . S
N1513 C1512 1.314 . S
N1513 C1515 1.279 . S
C1514 C1515 1.358 . S
C1514 C1516 1.356 . S
C1514 H1568 0.930 . S
C1515 N1513 1.279 . S
C1515 C1514 1.358 . S
C1515 H1519 0.930 . S
C1516 C1514 1.356 . S
C1516 C1517 1.348 . S
C1517 C1512 1.353 . S
C1517 C1516 1.348 . S
C1517 H1569 0.929 . S
H1518 C1512 0.930 . S
H1519 C1515 0.930 . S
C1520 N1521 1.327 . S
C1520 C1522 1.353 . S
C1520 H1526 0.930 . S
N1521 Li1497 1.980 1_545 S
N1521 C1520 1.327 . S
N1521 C1524 1.275 1_545 S
C1522 C1520 1.353 . S
C1522 C1525 1.348 1_545 S
C1522 H1570 0.929 . S
C1523 C1524 1.358 . S
C1523 C1525 1.356 . S
C1523 H1571 0.930 . S
C1524 N1521 1.275 1_565 S
C1524 C1523 1.358 . S
C1524 H1527 0.930 . S
C1525 C1522 1.348 1_565 S
C1525 C1523 1.356 . S
H1526 C1520 0.930 . S
H1527 C1524 0.930 . S
C1528 C1530 1.348 . S
C1528 C1531 1.356 1_545 S
C1528 O1558 1.325 . S
N1529 C1532 1.314 . S
N1529 C1533 1.279 1_545 S
C1530 C1528 1.348 . S
C1530 C1532 1.353 . S
C1530 H1572 0.929 . S
C1531 C1528 1.356 1_565 S
C1531 C1533 1.358 . S
C1531 H1573 0.930 . S
C1532 N1529 1.314 . S
C1532 C1530 1.353 . S
C1532 H1574 0.930 . S
C1533 N1529 1.279 1_565 S
C1533 C1531 1.358 . S
C1533 H1575 0.930 . S
C1534 C1535 1.348 . S
C1534 C1536 1.356 . S
C1534 O1559 1.325 . S
C1535 C1534 1.348 . S
C1535 C1537 1.353 . S
C1535 H1576 0.929 . S
C1536 C1534 1.356 . S
C1536 C1538 1.358 . S
C1536 H1577 0.930 . S
C1537 C1535 1.353 . S
C1537 N1539 1.314 . S
C1537 H1578 0.930 . S
C1538 C1536 1.358 . S
C1538 N1539 1.279 . S
C1538 H1579 0.930 . S
N1539 C1537 1.314 . S
N1539 C1538 1.279 . S
C1540 C1542 1.353 . S
C1540 N1543 1.300 . S
C1540 H1546 0.930 . S
C1541 N1543 1.285 1_545 S
C1541 C1544 1.358 . S
C1541 H1547 0.930 . S
C1542 C1540 1.353 . S
C1542 C1545 1.348 1_565 S
C1542 H1580 0.929 . S
N1543 Li1498 1.995 1_565 S
N1543 C1540 1.300 . S
N1543 C1541 1.285 1_565 S
C1544 C1541 1.358 . S
C1544 C1545 1.356 . S
C1544 H1581 0.930 . S
C1545 C1542 1.348 1_545 S
C1545 C1544 1.356 . S
H1546 C1540 0.930 . S
H1547 C1541 0.930 . S
C1548 N1549 1.314 . S
C1548 C1550 1.353 . S
C1548 H1554 0.930 . S
N1549 Li1499 1.990 . S
N1549 C1548 1.314 . S
N1549 C1552 1.279 . S
C1550 C1548 1.353 . S
C1550 C1553 1.348 . S
C1550 H1582 0.929 . S
C1551 C1552 1.358 . S
C1551 C1553 1.356 . S
C1551 H1583 0.930 . S
C1552 N1549 1.279 . S
C1552 C1551 1.358 . S
C1552 H1555 0.930 . S
C1553 C1550 1.348 . S
C1553 C1551 1.356 . S
H1554 C1548 0.930 . S
H1555 C1552 0.930 . S
O1556 Li1496 1.956 . S
O1556 Li1497 1.973 . S
O1556 Li1498 1.963 1_565 S
O1556 C1500 1.325 . S
O1557 Li1496 1.986 . S
O1557 Li1497 1.947 . S
O1557 Li1499 1.948 1_565 S
O1557 C1506 1.325 . S
O1558 Li1496 1.961 1_545 S
O1558 Li1498 1.958 . S
O1558 Li1499 1.970 . S
O1558 C1528 1.325 . S
O1559 Li1497 1.959 1_545 S
O1559 Li1498 1.966 . S
O1559 Li1499 1.956 . S
O1559 C1534 1.325 . S
H1560 C1502 0.929 . S
H1561 C1503 0.930 . S
H1562 C1504 0.930 . S
H1563 C1505 0.930 . S
H1564 C1507 0.930 . S
H1565 C1509 0.929 . S
H1566 C1510 0.930 . S
H1567 C1511 0.930 . S
H1568 C1514 0.930 . S
H1569 C1517 0.929 . S
H1570 C1522 0.929 . S
H1571 C1523 0.930 . S
H1572 C1530 0.929 . S
H1573 C1531 0.930 . S
H1574 C1532 0.930 . S
H1575 C1533 0.930 . S
H1576 C1535 0.929 . S
H1577 C1536 0.930 . S
H1578 C1537 0.930 . S
H1579 C1538 0.930 . S
H1580 C1542 0.929 . S
H1581 C1544 0.930 . S
H1582 C1550 0.929 . S
H1583 C1551 0.930 . S
H1584 C1602 0.951 . S
H1585 C1604 0.951 . S
H1586 C1606 0.950 . S
H1587 C1607 0.950 . S
H1588 C1609 0.950 . S
H1589 C1612 0.950 . S
H1590 C1613 0.950 . S
H1591 C1615 0.950 . S
H1592 C1616 0.950 . S
H1593 C1617 0.951 . S
H1594 C1619 0.951 . S
H1595 C1621 0.923 1_554 S
H1596 C1622 0.950 . S
H1597 C1624 0.950 . S
H1598 C1627 0.950 . S
H1599 C1628 0.950 . S
H1600 C1630 0.950 . S
H1601 C1631 0.950 . S
C1602 H1584 0.951 . S
C1602 C1603 1.366 . S
C1602 C1604 1.388 . S
C1603 C1602 1.366 . S
C1603 C1607 1.385 . S
C1604 H1585 0.951 . S
C1604 C1602 1.388 . S
C1604 C1605 1.366 . S
C1605 C1604 1.366 . S
C1605 C1606 1.414 . S
C1605 C1608 1.499 . S
C1606 H1586 0.950 . S
C1606 C1605 1.414 . S
C1606 C1607 1.374 . S
C1607 H1587 0.950 . S
C1607 C1603 1.385 . S
C1607 C1606 1.374 . S
C1608 C1605 1.499 . S
C1608 C1609 1.413 1_545 S
C1608 C1610 1.389 . S
C1609 H1588 0.950 . S
C1609 C1608 1.413 1_565 S
C1609 C1625 1.341 1_554 S
C1610 C1608 1.389 . S
C1610 C1611 1.524 . S
C1610 C1624 1.412 . S
C1611 C1610 1.524 . S
C1611 C1612 1.397 . S
C1611 C1616 1.363 . S
C1612 H1589 0.950 . S
C1612 C1611 1.397 . S
C1612 C1613 1.334 . S
C1613 H1590 0.950 . S
C1613 C1612 1.334 . S
C1613 C1614 1.287 . S
C1614 C1613 1.287 . S
C1614 C1615 1.524 . S
C1614 H1633 0.913 . S
C1615 H1591 0.950 . S
C1615 C1614 1.524 . S
C1615 C1616 1.415 . S
C1616 H1592 0.950 . S
C1616 C1611 1.363 . S
C1616 C1615 1.415 . S
C1617 H1593 0.951 . S
C1617 C1618 1.366 . S
C1617 C1619 1.388 . S
C1618 C1617 1.366 . S
C1618 C1622 1.385 . S
C1619 H1594 0.951 . S
C1619 C1617 1.388 . S
C1619 C1620 1.366 . S
C1620 C1619 1.366 . S
C1620 C1621 1.414 . S
C1620 C1623 1.499 . S
C1621 H1595 0.923 1_556 S
C1621 C1620 1.414 . S
C1621 C1622 1.374 . S
C1622 H1596 0.950 . S
C1622 C1618 1.385 . S
C1622 C1621 1.374 . S
C1623 C1620 1.499 . S
C1623 C1624 1.340 1_566 S
C1623 C1625 1.389 . S
C1624 H1597 0.950 . S
C1624 C1610 1.412 . S
C1624 C1623 1.340 1_544 S
C1625 C1609 1.341 1_556 S
C1625 C1623 1.389 . S
C1625 C1626 1.524 . S
C1626 C1625 1.524 . S
C1626 C1627 1.397 . S
C1626 C1631 1.363 . S
C1627 H1598 0.950 . S
C1627 C1626 1.397 . S
C1627 C1628 1.334 . S
C1628 H1599 0.950 . S
C1628 C1627 1.334 . S
C1628 C1629 1.287 . S
C1629 C1628 1.287 . S
C1629 C1630 1.524 . S
C1629 H1632 0.999 . S
C1630 H1600 0.950 . S
C1630 C1629 1.524 . S
C1630 C1631 1.415 . S
C1631 H1601 0.950 . S
C1631 C1626 1.363 . S
C1631 C1630 1.415 . S
H1632 C1629 0.999 . S
H1633 C1614 0.913 . S
H1634 C1652 0.951 . S
H1635 C1654 0.951 . S
H1636 C1656 0.950 . S
H1637 C1657 0.987 . S
H1638 C1659 0.950 . S
H1639 C1662 0.950 . S
H1640 C1663 0.950 . S
H1641 C1665 0.950 . S
H1642 C1666 0.950 . S
H1643 C1667 0.951 . S
H1644 C1669 0.951 . S
H1645 C1671 0.950 . S
H1646 C1672 0.950 . S
H1647 C1674 0.950 . S
H1648 C1677 0.950 . S
H1649 C1678 0.950 . S
H1650 C1680 0.950 . S
H1651 C1681 0.950 . S
C1652 H1634 0.951 . S
C1652 C1653 1.366 . S
C1652 C1654 1.388 . S
C1653 C1652 1.366 . S
C1653 C1657 1.356 1_655 S
C1654 H1635 0.951 . S
C1654 C1652 1.388 . S
C1654 C1655 1.366 . S
C1655 C1654 1.366 . S
C1655 C1656 1.414 1_655 S
C1655 C1658 1.499 . S
C1656 H1636 0.950 . S
C1656 C1655 1.414 1_455 S
C1656 C1657 1.366 . S
C1657 H1637 0.987 . S
C1657 C1653 1.356 1_455 S
C1657 C1656 1.366 . S
C1658 C1655 1.499 . S
C1658 C1659 1.373 1_655 S
C1658 C1660 1.389 1_554 S
C1659 H1638 0.950 . S
C1659 C1658 1.373 1_455 S
C1659 C1675 1.377 . S
C1660 C1658 1.389 1_556 S
C1660 C1661 1.524 . S
C1660 C1674 1.377 . S
C1661 C1660 1.524 . S
C1661 C1662 1.397 . S
C1661 C1666 1.363 . S
C1662 H1639 0.950 . S
C1662 C1661 1.397 . S
C1662 C1663 1.334 . S
C1663 H1640 0.950 . S
C1663 C1662 1.334 . S
C1663 C1664 1.287 . S
C1664 C1663 1.287 . S
C1664 C1665 1.524 . S
C1664 H1683 0.913 . S
C1665 H1641 0.950 . S
C1665 C1664 1.524 . S
C1665 C1666 1.415 . S
C1666 H1642 0.950 . S
C1666 C1661 1.363 . S
C1666 C1665 1.415 . S
C1667 H1643 0.951 . S
C1667 C1668 1.366 . S
C1667 C1669 1.388 . S
C1668 C1667 1.366 . S
C1668 C1672 1.385 1_455 S
C1669 H1644 0.951 . S
C1669 C1667 1.388 . S
C1669 C1670 1.366 . S
C1670 C1669 1.366 . S
C1670 C1671 1.414 1_455 S
C1670 C1673 1.499 . S
C1671 H1645 0.950 . S
C1671 C1670 1.414 1_655 S
C1671 C1672 1.374 . S
C1672 H1646 0.950 . S
C1672 C1668 1.385 1_655 S
C1672 C1671 1.374 . S
C1673 C1670 1.499 . S
C1673 C1674 1.373 1_455 S
C1673 C1675 1.389 1_556 S
C1674 H1647 0.950 . S
C1674 C1660 1.377 . S
C1674 C1673 1.373 1_655 S
C1675 C1659 1.377 . S
C1675 C1673 1.389 1_554 S
C1675 C1676 1.524 . S
C1676 C1675 1.524 . S
C1676 C1677 1.397 . S
C1676 C1681 1.363 . S
C1677 H1648 0.950 . S
C1677 C1676 1.397 . S
C1677 C1678 1.334 . S
C1678 H1649 0.950 . S
C1678 C1677 1.334 . S
C1678 C1679 1.287 . S
C1679 C1678 1.287 . S
C1679 C1680 1.524 . S
C1679 H1682 0.999 . S
C1680 H1650 0.950 . S
C1680 C1679 1.524 . S
C1680 C1681 1.415 . S
C1681 H1651 0.950 . S
C1681 C1676 1.363 . S
C1681 C1680 1.415 . S
H1682 C1679 0.999 . S
H1683 C1664 0.913 . S
H1684 C1702 0.951 . S
H1685 C1704 0.951 . S
H1686 C1706 0.950 . S
H1687 C1707 0.950 . S
H1688 C1709 0.950 . S
H1689 C1712 0.950 . S
H1690 C1713 0.950 . S
H1691 C1715 0.950 . S
H1692 C1716 0.950 1_554 S
H1693 C1717 0.951 . S
H1694 C1719 0.951 . S
H1695 C1721 0.950 . S
H1696 C1722 0.950 . S
H1697 C1724 0.950 . S
H1698 C1727 0.950 . S
H1699 C1728 0.950 . S
H1700 C1730 0.950 . S
H1701 C1731 0.950 1_556 S
C1702 H1684 0.951 . S
C1702 C1703 1.366 . S
C1702 C1704 1.388 . S
C1703 C1702 1.366 . S
C1703 C1707 1.385 . S
C1704 H1685 0.951 . S
C1704 C1702 1.388 . S
C1704 C1705 1.366 . S
C1705 C1704 1.366 . S
C1705 C1706 1.414 . S
C1705 C1708 1.499 . S
C1706 H1686 0.950 . S
C1706 C1705 1.414 . S
C1706 C1707 1.374 . S
C1707 H1687 0.950 . S
C1707 C1703 1.385 . S
C1707 C1706 1.374 . S
C1708 C1705 1.499 . S
C1708 C1709 1.373 . S
C1708 C1710 1.389 . S
C1709 H1688 0.950 . S
C1709 C1708 1.373 . S
C1709 C1725 1.377 1_556 S
C1710 C1708 1.389 . S
C1710 C1711 1.524 . S
C1710 C1724 1.377 1_556 S
C1711 C1710 1.524 . S
C1711 C1712 1.397 . S
C1711 C1716 1.363 . S
C1712 H1689 0.950 . S
C1712 C1711 1.397 . S
C1712 C1713 1.334 . S
C1713 H1690 0.950 . S
C1713 C1712 1.334 . S
C1713 C1714 1.287 . S
C1714 C1713 1.287 . S
C1714 C1715 1.524 . S
C1714 H1733 0.913 . S
C1715 H1691 0.950 . S
C1715 C1714 1.524 . S
C1715 C1716 1.415 . S
C1716 H1692 0.950 1_556 S
C1716 C1711 1.363 . S
C1716 C1715 1.415 . S
C1717 H1693 0.951 . S
C1717 C1718 1.366 . S
C1717 C1719 1.388 . S
C1718 C1717 1.366 . S
C1718 C1722 1.385 . S
C1719 H1694 0.951 . S
C1719 C1717 1.388 . S
C1719 C1720 1.366 . S
C1720 C1719 1.366 . S
C1720 C1721 1.414 . S
C1720 C1723 1.499 . S
C1721 H1695 0.950 . S
C1721 C1720 1.414 . S
C1721 C1722 1.374 . S
C1722 H1696 0.950 . S
C1722 C1718 1.385 . S
C1722 C1721 1.374 . S
C1723 C1720 1.499 . S
C1723 C1724 1.373 . S
C1723 C1725 1.389 . S
C1724 H1697 0.950 . S
C1724 C1710 1.377 1_554 S
C1724 C1723 1.373 . S
C1725 C1709 1.377 1_554 S
C1725 C1723 1.389 . S
C1725 C1726 1.524 . S
C1726 C1725 1.524 . S
C1726 C1727 1.397 . S
C1726 C1731 1.363 . S
C1727 H1698 0.950 . S
C1727 C1726 1.397 . S
C1727 C1728 1.334 . S
C1728 H1699 0.950 . S
C1728 C1727 1.334 . S
C1728 C1729 1.287 . S
C1729 C1728 1.287 . S
C1729 C1730 1.524 . S
C1729 H1732 0.999 . S
C1730 H1700 0.950 . S
C1730 C1729 1.524 . S
C1730 C1731 1.415 . S
C1731 H1701 0.950 1_554 S
C1731 C1726 1.363 . S
C1731 C1730 1.415 . S
H1732 C1729 0.999 . S
H1733 C1714 0.913 . S
H1734 C1752 0.951 . S
H1735 C1754 0.951 . S
H1736 C1756 0.950 . S
H1737 C1757 0.950 . S
H1738 C1759 0.950 . S
H1739 C1762 0.950 . S
H1740 C1763 0.950 . S
H1741 C1765 0.950 . S
H1742 C1766 0.950 . S
H1743 C1767 0.951 . S
H1744 C1769 0.951 . S
H1745 C1771 0.950 . S
H1746 C1772 0.950 . S
H1747 C1774 0.950 . S
H1748 C1777 0.950 . S
H1749 C1778 0.950 . S
H1750 C1780 0.950 . S
H1751 C1781 0.950 . S
C1752 H1734 0.951 . S
C1752 C1753 1.366 . S
C1752 C1754 1.388 . S
C1753 C1752 1.366 . S
C1753 C1757 1.385 . S
C1754 H1735 0.951 . S
C1754 C1752 1.388 . S
C1754 C1755 1.366 . S
C1755 C1754 1.366 . S
C1755 C1756 1.414 . S
C1755 C1758 1.499 . S
C1756 H1736 0.950 . S
C1756 C1755 1.414 . S
C1756 C1757 1.374 . S
C1757 H1737 0.950 . S
C1757 C1753 1.385 . S
C1757 C1756 1.374 . S
C1758 C1755 1.499 . S
C1758 C1759 1.373 . S
C1758 C1760 1.389 . S
C1759 H1738 0.950 . S
C1759 C1758 1.373 . S
C1759 C1775 1.377 . S
C1760 C1758 1.389 . S
C1760 C1761 1.524 . S
C1760 C1774 1.377 . S
C1761 C1760 1.524 . S
C1761 C1762 1.397 . S
C1761 C1766 1.363 . S
C1762 H1739 0.950 . S
C1762 C1761 1.397 . S
C1762 C1763 1.334 . S
C1763 H1740 0.950 . S
C1763 C1762 1.334 . S
C1763 C1764 1.287 . S
C1764 C1763 1.287 . S
C1764 C1765 1.524 . S
C1764 H1783 0.913 . S
C1765 H1741 0.950 . S
C1765 C1764 1.524 . S
C1765 C1766 1.415 . S
C1766 H1742 0.950 . S
C1766 C1761 1.363 . S
C1766 C1765 1.415 . S
C1767 H1743 0.951 . S
C1767 C1768 1.366 . S
C1767 C1769 1.388 . S
C1768 C1767 1.366 . S
C1768 C1772 1.385 . S
C1769 H1744 0.951 . S
C1769 C1767 1.388 . S
C1769 C1770 1.366 . S
C1770 C1769 1.366 . S
C1770 C1771 1.414 . S
C1770 C1773 1.499 . S
C1771 H1745 0.950 . S
C1771 C1770 1.414 . S
C1771 C1772 1.374 . S
C1772 H1746 0.950 . S
C1772 C1768 1.385 . S
C1772 C1771 1.374 . S
C1773 C1770 1.499 . S
C1773 C1774 1.373 . S
C1773 C1775 1.389 . S
C1774 H1747 0.950 . S
C1774 C1760 1.377 . S
C1774 C1773 1.373 . S
C1775 C1759 1.377 . S
C1775 C1773 1.389 . S
C1775 C1776 1.524 . S
C1776 C1775 1.524 . S
C1776 C1777 1.397 . S
C1776 C1781 1.363 . S
C1777 H1748 0.950 . S
C1777 C1776 1.397 . S
C1777 C1778 1.334 . S
C1778 H1749 0.950 . S
C1778 C1777 1.334 . S
C1778 C1779 1.287 . S
C1779 C1778 1.287 . S
C1779 C1780 1.524 . S
C1779 H1782 0.999 . S
C1780 H1750 0.950 . S
C1780 C1779 1.524 . S
C1780 C1781 1.415 . S
C1781 H1751 0.950 . S
C1781 C1776 1.363 . S
C1781 C1780 1.415 . S
H1782 C1779 0.999 . S
H1783 C1764 0.913 . S
H1784 C1802 0.951 . S
H1785 C1804 0.951 . S
H1786 C1806 0.950 . S
H1787 C1807 0.950 . S
H1788 C1809 0.950 . S
H1789 C1812 0.950 . S
H1790 C1813 0.950 . S
H1791 C1815 0.950 . S
H1792 C1816 0.950 . S
H1793 C1817 0.951 . S
H1794 C1819 0.951 . S
H1795 C1821 0.950 . S
H1796 C1822 0.950 . S
H1797 C1824 0.950 . S
H1798 C1827 0.950 . S
H1799 C1828 0.950 . S
H1800 C1830 0.950 . S
H1801 C1831 0.950 . S
C1802 H1784 0.951 . S
C1802 C1803 1.366 . S
C1802 C1804 1.388 . S
C1803 C1802 1.366 . S
C1803 C1807 1.385 . S
C1804 H1785 0.951 . S
C1804 C1802 1.388 . S
C1804 C1805 1.366 . S
C1805 C1804 1.366 . S
C1805 C1806 1.414 . S
C1805 C1808 1.499 . S
C1806 H1786 0.950 . S
C1806 C1805 1.414 . S
C1806 C1807 1.374 . S
C1807 H1787 0.950 . S
C1807 C1803 1.385 . S
C1807 C1806 1.374 . S
C1808 C1805 1.499 . S
C1808 C1809 1.373 . S
C1808 C1810 1.389 . S
C1809 H1788 0.950 . S
C1809 C1808 1.373 . S
C1809 C1825 1.377 . S
C1810 C1808 1.389 . S
C1810 C1811 1.524 . S
C1810 C1824 1.377 . S
C1811 C1810 1.524 . S
C1811 C1812 1.397 . S
C1811 C1816 1.363 . S
C1812 H1789 0.950 . S
C1812 C1811 1.397 . S
C1812 C1813 1.334 . S
C1813 H1790 0.950 . S
C1813 C1812 1.334 . S
C1813 C1814 1.287 . S
C1814 C1813 1.287 . S
C1814 C1815 1.524 . S
C1814 H1833 0.913 . S
C1815 H1791 0.950 . S
C1815 C1814 1.524 . S
C1815 C1816 1.415 . S
C1816 H1792 0.950 . S
C1816 C1811 1.363 . S
C1816 C1815 1.415 . S
C1817 H1793 0.951 . S
C1817 C1818 1.366 . S
C1817 C1819 1.388 . S
C1818 C1817 1.366 . S
C1818 C1822 1.385 . S
C1819 H1794 0.951 . S
C1819 C1817 1.388 . S
C1819 C1820 1.366 . S
C1820 C1819 1.366 . S
C1820 C1821 1.414 . S
C1820 C1823 1.499 . S
C1821 H1795 0.950 . S
C1821 C1820 1.414 . S
C1821 C1822 1.374 . S
C1822 H1796 0.950 . S
C1822 C1818 1.385 . S
C1822 C1821 1.374 . S
C1823 C1820 1.499 . S
C1823 C1824 1.373 . S
C1823 C1825 1.389 . S
C1824 H1797 0.950 . S
C1824 C1810 1.377 . S
C1824 C1823 1.373 . S
C1825 C1809 1.377 . S
C1825 C1823 1.389 . S
C1825 C1826 1.524 . S
C1826 C1825 1.524 . S
C1826 C1827 1.397 . S
C1826 C1831 1.363 . S
C1827 H1798 0.950 . S
C1827 C1826 1.397 . S
C1827 C1828 1.334 . S
C1828 H1799 0.950 . S
C1828 C1827 1.334 . S
C1828 C1829 1.287 . S
C1829 C1828 1.287 . S
C1829 C1830 1.524 . S
C1829 H1832 0.999 . S
C1830 H1800 0.950 . S
C1830 C1829 1.524 . S
C1830 C1831 1.415 . S
C1831 H1801 0.950 . S
C1831 C1826 1.363 . S
C1831 C1830 1.415 . S
H1832 C1829 0.999 . S
H1833 C1814 0.913 . S
H1834 C1852 0.951 . S
H1835 C1854 0.951 . S
H1836 C1856 0.950 . S
H1837 C1857 0.950 . S
H1838 C1859 0.950 . S
H1839 C1862 0.950 . S
H1840 C1863 0.950 . S
H1841 C1865 0.950 . S
H1842 C1866 0.950 . S
H1843 C1867 0.951 . S
H1844 C1869 0.951 . S
H1845 C1871 0.950 . S
H1846 C1872 0.950 . S
H1847 C1874 0.950 . S
H1848 C1877 0.950 . S
H1849 C1878 0.950 . S
H1850 C1880 0.950 . S
H1851 C1881 0.950 . S
C1852 H1834 0.951 . S
C1852 C1853 1.366 . S
C1852 C1854 1.388 . S
C1853 C1852 1.366 . S
C1853 C1857 1.385 . S
C1854 H1835 0.951 . S
C1854 C1852 1.388 . S
C1854 C1855 1.366 . S
C1855 C1854 1.366 . S
C1855 C1856 1.414 . S
C1855 C1858 1.499 . S
C1856 H1836 0.950 . S
C1856 C1855 1.414 . S
C1856 C1857 1.374 . S
C1857 H1837 0.950 . S
C1857 C1853 1.385 . S
C1857 C1856 1.374 . S
C1858 C1855 1.499 . S
C1858 C1859 1.373 . S
C1858 C1860 1.389 . S
C1859 H1838 0.950 . S
C1859 C1858 1.373 . S
C1859 C1875 1.377 . S
C1860 C1858 1.389 . S
C1860 C1861 1.524 . S
C1860 C1874 1.377 . S
C1861 C1860 1.524 . S
C1861 C1862 1.397 . S
C1861 C1866 1.363 . S
C1862 H1839 0.950 . S
C1862 C1861 1.397 . S
C1862 C1863 1.334 . S
C1863 H1840 0.950 . S
C1863 C1862 1.334 . S
C1863 C1864 1.287 . S
C1864 C1863 1.287 . S
C1864 C1865 1.524 . S
C1864 H1883 0.913 . S
C1865 H1841 0.950 . S
C1865 C1864 1.524 . S
C1865 C1866 1.415 . S
C1866 H1842 0.950 . S
C1866 C1861 1.363 . S
C1866 C1865 1.415 . S
C1867 H1843 0.951 . S
C1867 C1868 1.366 . S
C1867 C1869 1.388 . S
C1868 C1867 1.366 . S
C1868 C1872 1.385 . S
C1869 H1844 0.951 . S
C1869 C1867 1.388 . S
C1869 C1870 1.366 . S
C1870 C1869 1.366 . S
C1870 C1871 1.414 . S
C1870 C1873 1.499 . S
C1871 H1845 0.950 . S
C1871 C1870 1.414 . S
C1871 C1872 1.374 . S
C1872 H1846 0.950 . S
C1872 C1868 1.385 . S
C1872 C1871 1.374 . S
C1873 C1870 1.499 . S
C1873 C1874 1.373 . S
C1873 C1875 1.389 . S
C1874 H1847 0.950 . S
C1874 C1860 1.377 . S
C1874 C1873 1.373 . S
C1875 C1859 1.377 . S
C1875 C1873 1.389 . S
C1875 C1876 1.524 . S
C1876 C1875 1.524 . S
C1876 C1877 1.397 . S
C1876 C1881 1.363 . S
C1877 H1848 0.950 . S
C1877 C1876 1.397 . S
C1877 C1878 1.334 . S
C1878 H1849 0.950 . S
C1878 C1877 1.334 . S
C1878 C1879 1.287 . S
C1879 C1878 1.287 . S
C1879 C1880 1.524 . S
C1879 H1882 0.999 . S
C1880 H1850 0.950 . S
C1880 C1879 1.524 . S
C1880 C1881 1.415 . S
C1881 H1851 0.950 . S
C1881 C1876 1.363 . S
C1881 C1880 1.415 . S
H1882 C1879 0.999 . S
H1883 C1864 0.913 . S
H1884 C1902 0.951 . S
H1885 C1904 0.951 . S
H1886 C1906 0.950 . S
H1887 C1907 0.950 . S
H1888 C1909 0.950 . S
H1889 C1912 0.950 . S
H1890 C1913 0.950 . S
H1891 C1915 0.950 . S
H1892 C1916 0.950 . S
H1893 C1917 0.951 . S
H1894 C1919 0.951 . S
H1895 C1921 0.950 . S
H1896 C1922 0.950 . S
H1897 C1924 0.950 . S
H1898 C1927 0.950 . S
H1899 C1928 0.950 . S
H1900 C1930 0.950 . S
H1901 C1931 0.950 . S
C1902 H1884 0.951 . S
C1902 C1903 1.366 . S
C1902 C1904 1.388 . S
C1903 C1902 1.366 . S
C1903 C1907 1.385 . S
C1904 H1885 0.951 . S
C1904 C1902 1.388 . S
C1904 C1905 1.366 . S
C1905 C1904 1.366 . S
C1905 C1906 1.414 . S
C1905 C1908 1.499 . S
C1906 H1886 0.950 . S
C1906 C1905 1.414 . S
C1906 C1907 1.374 . S
C1907 H1887 0.950 . S
C1907 C1903 1.385 . S
C1907 C1906 1.374 . S
C1908 C1905 1.499 . S
C1908 C1909 1.373 . S
C1908 C1910 1.389 . S
C1909 H1888 0.950 . S
C1909 C1908 1.373 . S
C1909 C1925 1.377 . S
C1910 C1908 1.389 . S
C1910 C1911 1.524 . S
C1910 C1924 1.377 . S
C1911 C1910 1.524 . S
C1911 C1912 1.397 . S
C1911 C1916 1.363 . S
C1912 H1889 0.950 . S
C1912 C1911 1.397 . S
C1912 C1913 1.334 . S
C1913 H1890 0.950 . S
C1913 C1912 1.334 . S
C1913 C1914 1.287 . S
C1914 C1913 1.287 . S
C1914 C1915 1.524 . S
C1914 H1933 0.913 . S
C1915 H1891 0.950 . S
C1915 C1914 1.524 . S
C1915 C1916 1.415 . S
C1916 H1892 0.950 . S
C1916 C1911 1.363 . S
C1916 C1915 1.415 . S
C1917 H1893 0.951 . S
C1917 C1918 1.366 . S
C1917 C1919 1.388 . S
C1918 C1917 1.366 . S
C1918 C1922 1.385 . S
C1919 H1894 0.951 . S
C1919 C1917 1.388 . S
C1919 C1920 1.366 . S
C1920 C1919 1.366 . S
C1920 C1921 1.414 . S
C1920 C1923 1.499 . S
C1921 H1895 0.950 . S
C1921 C1920 1.414 . S
C1921 C1922 1.374 . S
C1922 H1896 0.950 . S
C1922 C1918 1.385 . S
C1922 C1921 1.374 . S
C1923 C1920 1.499 . S
C1923 C1924 1.373 . S
C1923 C1925 1.389 . S
C1924 H1897 0.950 . S
C1924 C1910 1.377 . S
C1924 C1923 1.373 . S
C1925 C1909 1.377 . S
C1925 C1923 1.389 . S
C1925 C1926 1.524 . S
C1926 C1925 1.524 . S
C1926 C1927 1.397 . S
C1926 C1931 1.363 . S
C1927 H1898 0.950 . S
C1927 C1926 1.397 . S
C1927 C1928 1.334 . S
C1928 H1899 0.950 . S
C1928 C1927 1.334 . S
C1928 C1929 1.287 . S
C1929 C1928 1.287 . S
C1929 C1930 1.524 . S
C1929 H1932 0.999 . S
C1930 H1900 0.950 . S
C1930 C1929 1.524 . S
C1930 C1931 1.415 . S
C1931 H1901 0.950 . S
C1931 C1926 1.363 . S
C1931 C1930 1.415 . S
H1932 C1929 0.999 . S
H1933 C1914 0.913 . S
H1934 C1952 0.951 . S
H1935 C1954 0.951 . S
H1936 C1956 0.950 . S
H1937 C1957 0.950 . S
H1938 C1959 0.950 . S
H1939 C1962 0.950 . S
H1940 C1963 0.950 . S
H1941 C1965 0.950 . S
H1942 C1966 0.950 . S
H1943 C1967 0.951 . S
H1944 C1969 0.951 . S
H1945 C1971 0.950 . S
H1946 C1972 0.950 . S
H1947 C1974 0.950 . S
H1948 C1977 0.950 . S
H1949 C1978 0.950 . S
H1950 C1980 0.950 . S
H1951 C1981 0.950 . S
C1952 H1934 0.951 . S
C1952 C1953 1.366 . S
C1952 C1954 1.388 . S
C1953 C1952 1.366 . S
C1953 C1957 1.385 . S
C1954 H1935 0.951 . S
C1954 C1952 1.388 . S
C1954 C1955 1.366 . S
C1955 C1954 1.366 . S
C1955 C1956 1.414 . S
C1955 C1958 1.499 . S
C1956 H1936 0.950 . S
C1956 C1955 1.414 . S
C1956 C1957 1.374 . S
C1957 H1937 0.950 . S
C1957 C1953 1.385 . S
C1957 C1956 1.374 . S
C1958 C1955 1.499 . S
C1958 C1959 1.373 . S
C1958 C1960 1.389 . S
C1959 H1938 0.950 . S
C1959 C1958 1.373 . S
C1959 C1975 1.377 . S
C1960 C1958 1.389 . S
C1960 C1961 1.524 . S
C1960 C1974 1.377 . S
C1961 C1960 1.524 . S
C1961 C1962 1.397 . S
C1961 C1966 1.363 . S
C1962 H1939 0.950 . S
C1962 C1961 1.397 . S
C1962 C1963 1.334 . S
C1963 H1940 0.950 . S
C1963 C1962 1.334 . S
C1963 C1964 1.287 . S
C1964 C1963 1.287 . S
C1964 C1965 1.524 . S
C1964 H1983 0.913 . S
C1965 H1941 0.950 . S
C1965 C1964 1.524 . S
C1965 C1966 1.415 . S
C1966 H1942 0.950 . S
C1966 C1961 1.363 . S
C1966 C1965 1.415 . S
C1967 H1943 0.951 . S
C1967 C1968 1.366 . S
C1967 C1969 1.388 . S
C1968 C1967 1.366 . S
C1968 C1972 1.385 . S
C1969 H1944 0.951 . S
C1969 C1967 1.388 . S
C1969 C1970 1.366 . S
C1970 C1969 1.366 . S
C1970 C1971 1.414 . S
C1970 C1973 1.499 . S
C1971 H1945 0.950 . S
C1971 C1970 1.414 . S
C1971 C1972 1.374 . S
C1972 H1946 0.950 . S
C1972 C1968 1.385 . S
C1972 C1971 1.374 . S
C1973 C1970 1.499 . S
C1973 C1974 1.373 . S
C1973 C1975 1.389 . S
C1974 H1947 0.950 . S
C1974 C1960 1.377 . S
C1974 C1973 1.373 . S
C1975 C1959 1.377 . S
C1975 C1973 1.389 . S
C1975 C1976 1.524 . S
C1976 C1975 1.524 . S
C1976 C1977 1.397 . S
C1976 C1981 1.363 . S
C1977 H1948 0.950 . S
C1977 C1976 1.397 . S
C1977 C1978 1.334 . S
C1978 H1949 0.950 . S
C1978 C1977 1.334 . S
C1978 C1979 1.287 . S
C1979 C1978 1.287 . S
C1979 C1980 1.524 . S
C1979 H1982 0.999 . S
C1980 H1950 0.950 . S
C1980 C1979 1.524 . S
C1980 C1981 1.415 . S
C1981 H1951 0.950 . S
C1981 C1976 1.363 . S
C1981 C1980 1.415 . S
H1982 C1979 0.999 . S
H1983 C1964 0.913 . S
H1984 C2002 0.951 . S
H1985 C2004 0.951 . S
H1986 C2006 0.950 . S
H1987 C2007 0.950 . S
H1988 C2009 0.950 . S
H1989 C2012 0.950 . S
H1990 C2013 0.950 . S
H1991 C2015 0.950 . S
H1992 C2016 0.950 . S
H1993 C2017 0.951 . S
H1994 C2019 0.951 . S
H1995 C2021 0.950 . S
H1996 C2022 0.950 . S
H1997 C2024 0.950 . S
H1998 C2027 0.950 . S
H1999 C2028 0.950 . S
H2000 C2030 0.950 . S
H2001 C2031 0.950 . S
C2002 H1984 0.951 . S
C2002 C2003 1.366 . S
C2002 C2004 1.388 . S
C2003 C2002 1.366 . S
C2003 C2007 1.385 . S
C2004 H1985 0.951 . S
C2004 C2002 1.388 . S
C2004 C2005 1.366 . S
C2005 C2004 1.366 . S
C2005 C2006 1.414 . S
C2005 C2008 1.499 . S
C2006 H1986 0.950 . S
C2006 C2005 1.414 . S
C2006 C2007 1.374 . S
C2007 H1987 0.950 . S
C2007 C2003 1.385 . S
C2007 C2006 1.374 . S
C2008 C2005 1.499 . S
C2008 C2009 1.373 . S
C2008 C2010 1.389 . S
C2009 H1988 0.950 . S
C2009 C2008 1.373 . S
C2009 C2025 1.377 . S
C2010 C2008 1.389 . S
C2010 C2011 1.524 . S
C2010 C2024 1.377 . S
C2011 C2010 1.524 . S
C2011 C2012 1.397 . S
C2011 C2016 1.363 . S
C2012 H1989 0.950 . S
C2012 C2011 1.397 . S
C2012 C2013 1.334 . S
C2013 H1990 0.950 . S
C2013 C2012 1.334 . S
C2013 C2014 1.287 . S
C2014 C2013 1.287 . S
C2014 C2015 1.524 . S
C2014 H2033 0.913 . S
C2015 H1991 0.950 . S
C2015 C2014 1.524 . S
C2015 C2016 1.415 . S
C2016 H1992 0.950 . S
C2016 C2011 1.363 . S
C2016 C2015 1.415 . S
C2017 H1993 0.951 . S
C2017 C2018 1.366 . S
C2017 C2019 1.388 . S
C2018 C2017 1.366 . S
C2018 C2022 1.385 . S
C2019 H1994 0.951 . S
C2019 C2017 1.388 . S
C2019 C2020 1.366 . S
C2020 C2019 1.366 . S
C2020 C2021 1.414 . S
C2020 C2023 1.499 . S
C2021 H1995 0.950 . S
C2021 C2020 1.414 . S
C2021 C2022 1.374 . S
C2022 H1996 0.950 . S
C2022 C2018 1.385 . S
C2022 C2021 1.374 . S
C2023 C2020 1.499 . S
C2023 C2024 1.373 . S
C2023 C2025 1.389 . S
C2024 H1997 0.950 . S
C2024 C2010 1.377 . S
C2024 C2023 1.373 . S
C2025 C2009 1.377 . S
C2025 C2023 1.389 . S
C2025 C2026 1.524 . S
C2026 C2025 1.524 . S
C2026 C2027 1.397 . S
C2026 C2031 1.363 . S
C2027 H1998 0.950 . S
C2027 C2026 1.397 . S
C2027 C2028 1.334 . S
C2028 H1999 0.950 . S
C2028 C2027 1.334 . S
C2028 C2029 1.287 . S
C2029 C2028 1.287 . S
C2029 C2030 1.524 . S
C2029 H2032 0.999 . S
C2030 H2000 0.950 . S
C2030 C2029 1.524 . S
C2030 C2031 1.415 . S
C2031 H2001 0.950 . S
C2031 C2026 1.363 . S
C2031 C2030 1.415 . S
H2032 C2029 0.999 . S
H2033 C2014 0.913 . S
H2034 C2052 0.951 . S
H2035 C2054 0.951 . S
H2036 C2056 0.950 . S
H2037 C2057 0.950 . S
H2038 C2059 0.950 . S
H2039 C2062 0.950 . S
H2040 C2063 0.950 . S
H2041 C2065 0.950 . S
H2042 C2066 0.950 . S
H2043 C2067 0.951 . S
H2044 C2069 0.951 . S
H2045 C2071 0.950 . S
H2046 C2072 0.950 . S
H2047 C2074 0.950 . S
H2048 C2077 0.950 . S
H2049 C2078 0.950 . S
H2050 C2080 0.950 . S
H2051 C2081 0.950 . S
C2052 H2034 0.951 . S
C2052 C2053 1.366 . S
C2052 C2054 1.388 . S
C2053 C2052 1.366 . S
C2053 C2057 1.385 . S
C2054 H2035 0.951 . S
C2054 C2052 1.388 . S
C2054 C2055 1.366 . S
C2055 C2054 1.366 . S
C2055 C2056 1.414 . S
C2055 C2058 1.499 . S
C2056 H2036 0.950 . S
C2056 C2055 1.414 . S
C2056 C2057 1.374 . S
C2057 H2037 0.950 . S
C2057 C2053 1.385 . S
C2057 C2056 1.374 . S
C2058 C2055 1.499 . S
C2058 C2059 1.373 . S
C2058 C2060 1.389 . S
C2059 H2038 0.950 . S
C2059 C2058 1.373 . S
C2059 C2075 1.377 . S
C2060 C2058 1.389 . S
C2060 C2061 1.524 . S
C2060 C2074 1.377 . S
C2061 C2060 1.524 . S
C2061 C2062 1.397 . S
C2061 C2066 1.363 . S
C2062 H2039 0.950 . S
C2062 C2061 1.397 . S
C2062 C2063 1.334 . S
C2063 H2040 0.950 . S
C2063 C2062 1.334 . S
C2063 C2064 1.287 . S
C2064 C2063 1.287 . S
C2064 C2065 1.524 . S
C2064 H2083 0.913 . S
C2065 H2041 0.950 . S
C2065 C2064 1.524 . S
C2065 C2066 1.415 . S
C2066 H2042 0.950 . S
C2066 C2061 1.363 . S
C2066 C2065 1.415 . S
C2067 H2043 0.951 . S
C2067 C2068 1.366 . S
C2067 C2069 1.388 . S
C2068 C2067 1.366 . S
C2068 C2072 1.385 . S
C2069 H2044 0.951 . S
C2069 C2067 1.388 . S
C2069 C2070 1.366 . S
C2070 C2069 1.366 . S
C2070 C2071 1.414 . S
C2070 C2073 1.499 . S
C2071 H2045 0.950 . S
C2071 C2070 1.414 . S
C2071 C2072 1.374 . S
C2072 H2046 0.950 . S
C2072 C2068 1.385 . S
C2072 C2071 1.374 . S
C2073 C2070 1.499 . S
C2073 C2074 1.373 . S
C2073 C2075 1.389 . S
C2074 H2047 0.950 . S
C2074 C2060 1.377 . S
C2074 C2073 1.373 . S
C2075 C2059 1.377 . S
C2075 C2073 1.389 . S
C2075 C2076 1.524 . S
C2076 C2075 1.524 . S
C2076 C2077 1.397 . S
C2076 C2081 1.363 . S
C2077 H2048 0.950 . S
C2077 C2076 1.397 . S
C2077 C2078 1.334 . S
C2078 H2049 0.950 . S
C2078 C2077 1.334 . S
C2078 C2079 1.287 . S
C2079 C2078 1.287 . S
C2079 C2080 1.524 . S
C2079 H2082 0.999 . S
C2080 H2050 0.950 . S
C2080 C2079 1.524 . S
C2080 C2081 1.415 . S
C2081 H2051 0.950 . S
C2081 C2076 1.363 . S
C2081 C2080 1.415 . S
H2082 C2079 0.999 . S
H2083 C2064 0.913 . S
H2084 C2102 0.951 . S
H2085 C2104 0.951 . S
H2086 C2106 0.950 . S
H2087 C2107 0.950 . S
H2088 C2109 0.950 . S
H2089 C2112 0.950 . S
H2090 C2113 0.950 . S
H2091 C2115 0.950 . S
H2092 C2116 0.950 . S
H2093 C2117 0.951 . S
H2094 C2119 0.951 . S
H2095 C2121 0.950 . S
H2096 C2122 0.950 . S
H2097 C2124 0.950 . S
H2098 C2127 0.950 . S
H2099 C2128 0.950 . S
H2100 C2130 0.950 . S
H2101 C2131 0.950 . S
C2102 H2084 0.951 . S
C2102 C2103 1.366 . S
C2102 C2104 1.388 . S
C2103 C2102 1.366 . S
C2103 C2107 1.385 . S
C2104 H2085 0.951 . S
C2104 C2102 1.388 . S
C2104 C2105 1.366 . S
C2105 C2104 1.366 . S
C2105 C2106 1.414 . S
C2105 C2108 1.499 . S
C2106 H2086 0.950 . S
C2106 C2105 1.414 . S
C2106 C2107 1.374 . S
C2107 H2087 0.950 . S
C2107 C2103 1.385 . S
C2107 C2106 1.374 . S
C2108 C2105 1.499 . S
C2108 C2109 1.373 . S
C2108 C2110 1.389 . S
C2109 H2088 0.950 . S
C2109 C2108 1.373 . S
C2109 C2125 1.377 . S
C2110 C2108 1.389 . S
C2110 C2111 1.524 . S
C2110 C2124 1.377 . S
C2111 C2110 1.524 . S
C2111 C2112 1.397 . S
C2111 C2116 1.363 . S
C2112 H2089 0.950 . S
C2112 C2111 1.397 . S
C2112 C2113 1.334 . S
C2113 H2090 0.950 . S
C2113 C2112 1.334 . S
C2113 C2114 1.287 . S
C2114 C2113 1.287 . S
C2114 C2115 1.524 . S
C2114 H2133 0.913 . S
C2115 H2091 0.950 . S
C2115 C2114 1.524 . S
C2115 C2116 1.415 . S
C2116 H2092 0.950 . S
C2116 C2111 1.363 . S
C2116 C2115 1.415 . S
C2117 H2093 0.951 . S
C2117 C2118 1.366 . S
C2117 C2119 1.388 . S
C2118 C2117 1.366 . S
C2118 C2122 1.385 . S
C2119 H2094 0.951 . S
C2119 C2117 1.388 . S
C2119 C2120 1.366 . S
C2120 C2119 1.366 . S
C2120 C2121 1.414 . S
C2120 C2123 1.499 . S
C2121 H2095 0.950 . S
C2121 C2120 1.414 . S
C2121 C2122 1.374 . S
C2122 H2096 0.950 . S
C2122 C2118 1.385 . S
C2122 C2121 1.374 . S
C2123 C2120 1.499 . S
C2123 C2124 1.373 . S
C2123 C2125 1.389 . S
C2124 H2097 0.950 . S
C2124 C2110 1.377 . S
C2124 C2123 1.373 . S
C2125 C2109 1.377 . S
C2125 C2123 1.389 . S
C2125 C2126 1.524 . S
C2126 C2125 1.524 . S
C2126 C2127 1.397 . S
C2126 C2131 1.363 . S
C2127 H2098 0.950 . S
C2127 C2126 1.397 . S
C2127 C2128 1.334 . S
C2128 H2099 0.950 . S
C2128 C2127 1.334 . S
C2128 C2129 1.287 . S
C2129 C2128 1.287 . S
C2129 C2130 1.524 . S
C2129 H2132 0.999 . S
C2130 H2100 0.950 . S
C2130 C2129 1.524 . S
C2130 C2131 1.415 . S
C2131 H2101 0.950 . S
C2131 C2126 1.363 . S
C2131 C2130 1.415 . S
H2132 C2129 0.999 . S
H2133 C2114 0.913 . S
H2134 C2152 0.951 . S
H2135 C2154 0.951 . S
H2136 C2156 0.950 . S
H2137 C2157 0.950 . S
H2138 C2159 0.950 . S
H2139 C2162 0.950 . S
H2140 C2163 0.950 . S
H2141 C2165 0.950 . S
H2142 C2166 0.950 . S
H2143 C2167 0.951 . S
H2144 C2169 0.951 . S
H2145 C2171 0.950 . S
H2146 C2172 0.950 . S
H2147 C2174 0.950 . S
H2148 C2177 0.950 . S
H2149 C2178 0.950 . S
H2150 C2180 0.950 . S
H2151 C2181 0.950 . S
C2152 H2134 0.951 . S
C2152 C2153 1.366 . S
C2152 C2154 1.388 . S
C2153 C2152 1.366 . S
C2153 C2157 1.385 . S
C2154 H2135 0.951 . S
C2154 C2152 1.388 . S
C2154 C2155 1.366 . S
C2155 C2154 1.366 . S
C2155 C2156 1.414 . S
C2155 C2158 1.499 . S
C2156 H2136 0.950 . S
C2156 C2155 1.414 . S
C2156 C2157 1.374 . S
C2157 H2137 0.950 . S
C2157 C2153 1.385 . S
C2157 C2156 1.374 . S
C2158 C2155 1.499 . S
C2158 C2159 1.373 . S
C2158 C2160 1.389 . S
C2159 H2138 0.950 . S
C2159 C2158 1.373 . S
C2159 C2175 1.377 . S
C2160 C2158 1.389 . S
C2160 C2161 1.524 . S
C2160 C2174 1.377 . S
C2161 C2160 1.524 . S
C2161 C2162 1.397 . S
C2161 C2166 1.363 . S
C2162 H2139 0.950 . S
C2162 C2161 1.397 . S
C2162 C2163 1.334 . S
C2163 H2140 0.950 . S
C2163 C2162 1.334 . S
C2163 C2164 1.287 . S
C2164 C2163 1.287 . S
C2164 C2165 1.524 . S
C2164 H2183 0.913 . S
C2165 H2141 0.950 . S
C2165 C2164 1.524 . S
C2165 C2166 1.415 . S
C2166 H2142 0.950 . S
C2166 C2161 1.363 . S
C2166 C2165 1.415 . S
C2167 H2143 0.951 . S
C2167 C2168 1.366 . S
C2167 C2169 1.388 . S
C2168 C2167 1.366 . S
C2168 C2172 1.385 . S
C2169 H2144 0.951 . S
C2169 C2167 1.388 . S
C2169 C2170 1.366 . S
C2170 C2169 1.366 . S
C2170 C2171 1.414 . S
C2170 C2173 1.499 . S
C2171 H2145 0.950 . S
C2171 C2170 1.414 . S
C2171 C2172 1.374 . S
C2172 H2146 0.950 . S
C2172 C2168 1.385 . S
C2172 C2171 1.374 . S
C2173 C2170 1.499 . S
C2173 C2174 1.373 . S
C2173 C2175 1.389 . S
C2174 H2147 0.950 . S
C2174 C2160 1.377 . S
C2174 C2173 1.373 . S
C2175 C2159 1.377 . S
C2175 C2173 1.389 . S
C2175 C2176 1.524 . S
C2176 C2175 1.524 . S
C2176 C2177 1.397 . S
C2176 C2181 1.363 . S
C2177 H2148 0.950 . S
C2177 C2176 1.397 . S
C2177 C2178 1.334 . S
C2178 H2149 0.950 . S
C2178 C2177 1.334 . S
C2178 C2179 1.287 . S
C2179 C2178 1.287 . S
C2179 C2180 1.524 . S
C2179 H2182 0.999 . S
C2180 H2150 0.950 . S
C2180 C2179 1.524 . S
C2180 C2181 1.415 . S
C2181 H2151 0.950 . S
C2181 C2176 1.363 . S
C2181 C2180 1.415 . S
H2182 C2179 0.999 . S
H2183 C2164 0.913 . S
H2184 C2202 0.951 . S
H2185 C2204 0.951 . S
H2186 C2206 0.950 . S
H2187 C2207 0.950 . S
H2188 C2209 0.950 . S
H2189 C2212 0.950 . S
H2190 C2213 0.950 . S
H2191 C2215 0.950 . S
H2192 C2216 0.950 . S
H2193 C2217 0.951 . S
H2194 C2219 0.951 . S
H2195 C2221 0.950 . S
H2196 C2222 0.950 . S
H2197 C2224 0.950 . S
H2198 C2227 0.950 . S
H2199 C2228 0.950 . S
H2200 C2230 0.950 . S
H2201 C2231 0.950 . S
C2202 H2184 0.951 . S
C2202 C2203 1.366 . S
C2202 C2204 1.388 . S
C2203 C2202 1.366 . S
C2203 C2207 1.385 . S
C2204 H2185 0.951 . S
C2204 C2202 1.388 . S
C2204 C2205 1.366 . S
C2205 C2204 1.366 . S
C2205 C2206 1.414 . S
C2205 C2208 1.499 . S
C2206 H2186 0.950 . S
C2206 C2205 1.414 . S
C2206 C2207 1.374 . S
C2207 H2187 0.950 . S
C2207 C2203 1.385 . S
C2207 C2206 1.374 . S
C2208 C2205 1.499 . S
C2208 C2209 1.373 . S
C2208 C2210 1.389 . S
C2209 H2188 0.950 . S
C2209 C2208 1.373 . S
C2209 C2225 1.377 . S
C2210 C2208 1.389 . S
C2210 C2211 1.524 . S
C2210 C2224 1.377 . S
C2211 C2210 1.524 . S
C2211 C2212 1.397 . S
C2211 C2216 1.363 . S
C2212 H2189 0.950 . S
C2212 C2211 1.397 . S
C2212 C2213 1.334 . S
C2213 H2190 0.950 . S
C2213 C2212 1.334 . S
C2213 C2214 1.287 . S
C2214 C2213 1.287 . S
C2214 C2215 1.524 . S
C2214 H2233 0.913 . S
C2215 H2191 0.950 . S
C2215 C2214 1.524 . S
C2215 C2216 1.415 . S
C2216 H2192 0.950 . S
C2216 C2211 1.363 . S
C2216 C2215 1.415 . S
C2217 H2193 0.951 . S
C2217 C2218 1.366 . S
C2217 C2219 1.388 . S
C2218 C2217 1.366 . S
C2218 C2222 1.385 . S
C2219 H2194 0.951 . S
C2219 C2217 1.388 . S
C2219 C2220 1.366 . S
C2220 C2219 1.366 . S
C2220 C2221 1.414 . S
C2220 C2223 1.499 . S
C2221 H2195 0.950 . S
C2221 C2220 1.414 . S
C2221 C2222 1.374 . S
C2222 H2196 0.950 . S
C2222 C2218 1.385 . S
C2222 C2221 1.374 . S
C2223 C2220 1.499 . S
C2223 C2224 1.373 . S
C2223 C2225 1.389 . S
C2224 H2197 0.950 . S
C2224 C2210 1.377 . S
C2224 C2223 1.373 . S
C2225 C2209 1.377 . S
C2225 C2223 1.389 . S
C2225 C2226 1.524 . S
C2226 C2225 1.524 . S
C2226 C2227 1.397 . S
C2226 C2231 1.363 . S
C2227 H2198 0.950 . S
C2227 C2226 1.397 . S
C2227 C2228 1.334 . S
C2228 H2199 0.950 . S
C2228 C2227 1.334 . S
C2228 C2229 1.287 . S
C2229 C2228 1.287 . S
C2229 C2230 1.524 . S
C2229 H2232 0.999 . S
C2230 H2200 0.950 . S
C2230 C2229 1.524 . S
C2230 C2231 1.415 . S
C2231 H2201 0.950 . S
C2231 C2226 1.363 . S
C2231 C2230 1.415 . S
H2232 C2229 0.999 . S
H2233 C2214 0.913 . S
H2234 C2252 0.951 . S
H2235 C2254 0.951 . S
H2236 C2256 0.950 . S
H2237 C2257 0.950 . S
H2238 C2259 0.950 . S
H2239 C2262 0.950 . S
H2240 C2263 0.950 . S
H2241 C2265 0.950 . S
H2242 C2266 0.950 . S
H2243 C2267 0.951 . S
H2244 C2269 0.951 . S
H2245 C2271 0.950 . S
H2246 C2272 0.950 . S
H2247 C2274 0.950 . S
H2248 C2277 0.950 . S
H2249 C2278 0.950 . S
H2250 C2280 0.950 . S
H2251 C2281 0.950 . S
C2252 H2234 0.951 . S
C2252 C2253 1.366 . S
C2252 C2254 1.388 . S
C2253 C2252 1.366 . S
C2253 C2257 1.385 . S
C2254 H2235 0.951 . S
C2254 C2252 1.388 . S
C2254 C2255 1.366 . S
C2255 C2254 1.366 . S
C2255 C2256 1.414 . S
C2255 C2258 1.499 . S
C2256 H2236 0.950 . S
C2256 C2255 1.414 . S
C2256 C2257 1.374 . S
C2257 H2237 0.950 . S
C2257 C2253 1.385 . S
C2257 C2256 1.374 . S
C2258 C2255 1.499 . S
C2258 C2259 1.373 . S
C2258 C2260 1.389 . S
C2259 H2238 0.950 . S
C2259 C2258 1.373 . S
C2259 C2275 1.377 . S
C2260 C2258 1.389 . S
C2260 C2261 1.524 . S
C2260 C2274 1.377 . S
C2261 C2260 1.524 . S
C2261 C2262 1.397 . S
C2261 C2266 1.363 . S
C2262 H2239 0.950 . S
C2262 C2261 1.397 . S
C2262 C2263 1.334 . S
C2263 H2240 0.950 . S
C2263 C2262 1.334 . S
C2263 C2264 1.287 . S
C2264 C2263 1.287 . S
C2264 C2265 1.524 . S
C2264 H2283 0.913 . S
C2265 H2241 0.950 . S
C2265 C2264 1.524 . S
C2265 C2266 1.415 . S
C2266 H2242 0.950 . S
C2266 C2261 1.363 . S
C2266 C2265 1.415 . S
C2267 H2243 0.951 . S
C2267 C2268 1.366 . S
C2267 C2269 1.388 . S
C2268 C2267 1.366 . S
C2268 C2272 1.385 . S
C2269 H2244 0.951 . S
C2269 C2267 1.388 . S
C2269 C2270 1.366 . S
C2270 C2269 1.366 . S
C2270 C2271 1.414 . S
C2270 C2273 1.499 . S
C2271 H2245 0.950 . S
C2271 C2270 1.414 . S
C2271 C2272 1.374 . S
C2272 H2246 0.950 . S
C2272 C2268 1.385 . S
C2272 C2271 1.374 . S
C2273 C2270 1.499 . S
C2273 C2274 1.373 . S
C2273 C2275 1.389 . S
C2274 H2247 0.950 . S
C2274 C2260 1.377 . S
C2274 C2273 1.373 . S
C2275 C2259 1.377 . S
C2275 C2273 1.389 . S
C2275 C2276 1.524 . S
C2276 C2275 1.524 . S
C2276 C2277 1.397 . S
C2276 C2281 1.363 . S
C2277 H2248 0.950 . S
C2277 C2276 1.397 . S
C2277 C2278 1.334 . S
C2278 H2249 0.950 . S
C2278 C2277 1.334 . S
C2278 C2279 1.287 . S
C2279 C2278 1.287 . S
C2279 C2280 1.524 . S
C2279 H2282 0.999 . S
C2280 H2250 0.950 . S
C2280 C2279 1.524 . S
C2280 C2281 1.415 . S
C2281 H2251 0.950 . S
C2281 C2276 1.363 . S
C2281 C2280 1.415 . S
H2282 C2279 0.999 . S
H2283 C2264 0.913 . S
H2284 C2302 0.951 . S
H2285 C2304 0.951 . S
H2286 C2306 0.950 . S
H2287 C2307 0.950 . S
H2288 C2309 0.950 . S
H2289 C2312 0.950 . S
H2290 C2313 0.950 . S
H2291 C2315 0.950 . S
H2292 C2316 0.950 . S
H2293 C2317 0.951 . S
H2294 C2319 0.951 . S
H2295 C2321 0.950 . S
H2296 C2322 0.950 . S
H2297 C2324 0.950 . S
H2298 C2327 0.950 . S
H2299 C2328 0.950 . S
H2300 C2330 0.950 . S
H2301 C2331 0.950 . S
C2302 H2284 0.951 . S
C2302 C2303 1.366 . S
C2302 C2304 1.388 . S
C2303 C2302 1.366 . S
C2303 C2307 1.385 . S
C2304 H2285 0.951 . S
C2304 C2302 1.388 . S
C2304 C2305 1.366 . S
C2305 C2304 1.366 . S
C2305 C2306 1.414 . S
C2305 C2308 1.499 . S
C2306 H2286 0.950 . S
C2306 C2305 1.414 . S
C2306 C2307 1.374 . S
C2307 H2287 0.950 . S
C2307 C2303 1.385 . S
C2307 C2306 1.374 . S
C2308 C2305 1.499 . S
C2308 C2309 1.373 . S
C2308 C2310 1.389 . S
C2309 H2288 0.950 . S
C2309 C2308 1.373 . S
C2309 C2325 1.377 . S
C2310 C2308 1.389 . S
C2310 C2311 1.524 . S
C2310 C2324 1.377 . S
C2311 C2310 1.524 . S
C2311 C2312 1.397 . S
C2311 C2316 1.363 . S
C2312 H2289 0.950 . S
C2312 C2311 1.397 . S
C2312 C2313 1.334 . S
C2313 H2290 0.950 . S
C2313 C2312 1.334 . S
C2313 C2314 1.287 . S
C2314 C2313 1.287 . S
C2314 C2315 1.524 . S
C2314 H2333 0.913 . S
C2315 H2291 0.950 . S
C2315 C2314 1.524 . S
C2315 C2316 1.415 . S
C2316 H2292 0.950 . S
C2316 C2311 1.363 . S
C2316 C2315 1.415 . S
C2317 H2293 0.951 . S
C2317 C2318 1.366 . S
C2317 C2319 1.388 . S
C2318 C2317 1.366 . S
C2318 C2322 1.385 . S
C2319 H2294 0.951 . S
C2319 C2317 1.388 . S
C2319 C2320 1.366 . S
C2320 C2319 1.366 . S
C2320 C2321 1.414 . S
C2320 C2323 1.499 . S
C2321 H2295 0.950 . S
C2321 C2320 1.414 . S
C2321 C2322 1.374 . S
C2322 H2296 0.950 . S
C2322 C2318 1.385 . S
C2322 C2321 1.374 . S
C2323 C2320 1.499 . S
C2323 C2324 1.373 . S
C2323 C2325 1.389 . S
C2324 H2297 0.950 . S
C2324 C2310 1.377 . S
C2324 C2323 1.373 . S
C2325 C2309 1.377 . S
C2325 C2323 1.389 . S
C2325 C2326 1.524 . S
C2326 C2325 1.524 . S
C2326 C2327 1.397 . S
C2326 C2331 1.363 . S
C2327 H2298 0.950 . S
C2327 C2326 1.397 . S
C2327 C2328 1.334 . S
C2328 H2299 0.950 . S
C2328 C2327 1.334 . S
C2328 C2329 1.287 . S
C2329 C2328 1.287 . S
C2329 C2330 1.524 . S
C2329 H2332 0.999 . S
C2330 H2300 0.950 . S
C2330 C2329 1.524 . S
C2330 C2331 1.415 . S
C2331 H2301 0.950 . S
C2331 C2326 1.363 . S
C2331 C2330 1.415 . S
H2332 C2329 0.999 . S
H2333 C2314 0.913 . S
H2334 C2352 0.951 . S
H2335 C2354 0.951 . S
H2336 C2356 0.950 . S
H2337 C2357 0.950 . S
H2338 C2359 0.950 . S
H2339 C2362 0.950 . S
H2340 C2363 0.950 . S
H2341 C2365 0.950 . S
H2342 C2366 0.950 . S
H2343 C2367 0.951 . S
H2344 C2369 0.951 . S
H2345 C2371 0.950 . S
H2346 C2372 0.950 . S
H2347 C2374 0.950 . S
H2348 C2377 0.950 . S
H2349 C2378 0.950 . S
H2350 C2380 0.950 . S
H2351 C2381 0.950 . S
C2352 H2334 0.951 . S
C2352 C2353 1.366 . S
C2352 C2354 1.388 . S
C2353 C2352 1.366 . S
C2353 C2357 1.385 1_455 S
C2354 H2335 0.951 . S
C2354 C2352 1.388 . S
C2354 C2355 1.363 1_455 S
C2355 C2354 1.363 1_655 S
C2355 C2356 1.415 . S
C2355 C2358 1.482 . S
C2356 H2336 0.950 . S
C2356 C2355 1.415 . S
C2356 C2357 1.374 . S
C2357 H2337 0.950 . S
C2357 C2353 1.385 1_655 S
C2357 C2356 1.374 . S
C2358 C2355 1.482 . S
C2358 C2359 1.375 1_655 S
C2358 C2360 1.405 . S
C2359 H2338 0.950 . S
C2359 C2358 1.375 1_455 S
C2359 C2375 1.377 . S
C2360 C2358 1.405 . S
C2360 C2361 1.524 . S
C2360 C2374 1.377 . S
C2361 C2360 1.524 . S
C2361 C2362 1.397 . S
C2361 C2366 1.363 . S
C2362 H2339 0.950 . S
C2362 C2361 1.397 . S
C2362 C2363 1.334 . S
C2363 H2340 0.950 . S
C2363 C2362 1.334 . S
C2363 C2364 1.287 . S
C2364 C2363 1.287 . S
C2364 C2365 1.524 . S
C2364 H2383 0.913 . S
C2365 H2341 0.950 . S
C2365 C2364 1.524 . S
C2365 C2366 1.415 . S
C2366 H2342 0.950 . S
C2366 C2361 1.363 . S
C2366 C2365 1.415 . S
C2367 H2343 0.951 . S
C2367 C2368 1.367 . S
C2367 C2369 1.388 . S
C2368 C2367 1.367 . S
C2368 C2372 1.382 1_655 S
C2369 H2344 0.951 . S
C2369 C2367 1.388 . S
C2369 C2370 1.366 1_655 S
C2370 C2369 1.366 1_455 S
C2370 C2371 1.414 . S
C2370 C2373 1.499 . S
C2371 H2345 0.950 . S
C2371 C2370 1.414 . S
C2371 C2372 1.374 . S
C2372 H2346 0.950 . S
C2372 C2368 1.382 1_455 S
C2372 C2371 1.374 . S
C2373 C2370 1.499 . S
C2373 C2374 1.373 1_455 S
C2373 C2375 1.389 . S
C2374 H2347 0.950 . S
C2374 C2360 1.377 . S
C2374 C2373 1.373 1_655 S
C2375 C2359 1.377 . S
C2375 C2373 1.389 . S
C2375 C2376 1.524 . S
C2376 C2375 1.524 . S
C2376 C2377 1.397 . S
C2376 C2381 1.363 . S
C2377 H2348 0.950 . S
C2377 C2376 1.397 . S
C2377 C2378 1.334 . S
C2378 H2349 0.950 . S
C2378 C2377 1.334 . S
C2378 C2379 1.287 . S
C2379 C2378 1.287 . S
C2379 C2380 1.524 . S
C2379 H2382 0.999 . S
C2380 H2350 0.950 . S
C2380 C2379 1.524 . S
C2380 C2381 1.415 . S
C2381 H2351 0.950 . S
C2381 C2376 1.363 . S
C2381 C2380 1.415 . S
H2382 C2379 0.999 . S
H2383 C2364 0.913 . S
H2384 C2402 0.951 . S
H2385 C2404 0.951 . S
H2386 C2406 0.950 . S
H2387 C2407 0.950 . S
H2388 C2409 0.950 . S
H2389 C2412 0.950 . S
H2390 C2413 0.950 . S
H2391 C2415 0.950 . S
H2392 C2416 0.950 . S
H2393 C2417 0.951 . S
H2394 C2419 0.951 . S
H2395 C2421 0.950 . S
H2396 C2422 0.950 . S
H2397 C2424 0.950 . S
H2398 C2427 0.950 . S
H2399 C2428 0.950 . S
H2400 C2430 0.950 . S
H2401 C2431 0.950 . S
C2402 H2384 0.951 . S
C2402 C2403 1.366 . S
C2402 C2404 1.388 . S
C2403 C2402 1.366 . S
C2403 C2407 1.385 . S
C2404 H2385 0.951 . S
C2404 C2402 1.388 . S
C2404 C2405 1.366 . S
C2405 C2404 1.366 . S
C2405 C2406 1.414 . S
C2405 C2408 1.499 . S
C2406 H2386 0.950 . S
C2406 C2405 1.414 . S
C2406 C2407 1.374 . S
C2407 H2387 0.950 . S
C2407 C2403 1.385 . S
C2407 C2406 1.374 . S
C2408 C2405 1.499 . S
C2408 C2409 1.373 . S
C2408 C2410 1.389 . S
C2409 H2388 0.950 . S
C2409 C2408 1.373 . S
C2409 C2425 1.377 . S
C2410 C2408 1.389 . S
C2410 C2411 1.524 . S
C2410 C2424 1.377 . S
C2411 C2410 1.524 . S
C2411 C2412 1.397 . S
C2411 C2416 1.363 . S
C2412 H2389 0.950 . S
C2412 C2411 1.397 . S
C2412 C2413 1.334 . S
C2413 H2390 0.950 . S
C2413 C2412 1.334 . S
C2413 C2414 1.287 . S
C2414 C2413 1.287 . S
C2414 C2415 1.524 . S
C2414 H2433 0.913 . S
C2415 H2391 0.950 . S
C2415 C2414 1.524 . S
C2415 C2416 1.415 . S
C2416 H2392 0.950 . S
C2416 C2411 1.363 . S
C2416 C2415 1.415 . S
C2417 H2393 0.951 . S
C2417 C2418 1.366 . S
C2417 C2419 1.388 . S
C2418 C2417 1.366 . S
C2418 C2422 1.385 . S
C2419 H2394 0.951 . S
C2419 C2417 1.388 . S
C2419 C2420 1.366 . S
C2420 C2419 1.366 . S
C2420 C2421 1.414 . S
C2420 C2423 1.499 . S
C2421 H2395 0.950 . S
C2421 C2420 1.414 . S
C2421 C2422 1.374 . S
C2422 H2396 0.950 . S
C2422 C2418 1.385 . S
C2422 C2421 1.374 . S
C2423 C2420 1.499 . S
C2423 C2424 1.373 . S
C2423 C2425 1.389 . S
C2424 H2397 0.950 . S
C2424 C2410 1.377 . S
C2424 C2423 1.373 . S
C2425 C2409 1.377 . S
C2425 C2423 1.389 . S
C2425 C2426 1.524 . S
C2426 C2425 1.524 . S
C2426 C2427 1.397 . S
C2426 C2431 1.363 . S
C2427 H2398 0.950 . S
C2427 C2426 1.397 . S
C2427 C2428 1.334 . S
C2428 H2399 0.950 . S
C2428 C2427 1.334 . S
C2428 C2429 1.287 . S
C2429 C2428 1.287 . S
C2429 C2430 1.524 . S
C2429 H2432 0.999 . S
C2430 H2400 0.950 . S
C2430 C2429 1.524 . S
C2430 C2431 1.415 . S
C2431 H2401 0.950 . S
C2431 C2426 1.363 . S
C2431 C2430 1.415 . S
H2432 C2429 0.999 . S
H2433 C2414 0.913 . S
H2434 C2452 0.951 . S
H2435 C2454 0.951 . S
H2436 C2456 0.950 . S
H2437 C2457 0.950 . S
H2438 C2459 0.950 . S
H2439 C2462 0.950 . S
H2440 C2463 0.950 . S
H2441 C2465 0.950 . S
H2442 C2466 0.950 . S
H2443 C2467 0.951 . S
H2444 C2469 0.951 . S
H2445 C2471 0.950 . S
H2446 C2472 0.950 . S
H2447 C2474 0.950 . S
H2448 C2477 0.950 . S
H2449 C2478 0.950 . S
H2450 C2480 0.950 . S
H2451 C2481 0.950 . S
C2452 H2434 0.951 . S
C2452 C2453 1.366 1_565 S
C2452 C2454 1.388 . S
C2453 C2452 1.366 1_545 S
C2453 C2457 1.385 . S
C2454 H2435 0.951 . S
C2454 C2452 1.388 . S
C2454 C2455 1.365 1_565 S
C2455 C2454 1.365 1_545 S
C2455 C2456 1.414 . S
C2455 C2458 1.493 . S
C2456 H2436 0.950 . S
C2456 C2455 1.414 . S
C2456 C2457 1.374 . S
C2457 H2437 0.950 . S
C2457 C2453 1.385 . S
C2457 C2456 1.374 . S
C2458 C2455 1.493 . S
C2458 C2459 1.388 . S
C2458 C2460 1.382 1_545 S
C2459 H2438 0.950 . S
C2459 C2458 1.388 . S
C2459 C2475 1.377 . S
C2460 C2458 1.382 1_565 S
C2460 C2461 1.524 . S
C2460 C2474 1.377 . S
C2461 C2460 1.524 . S
C2461 C2462 1.397 . S
C2461 C2466 1.363 . S
C2462 H2439 0.950 . S
C2462 C2461 1.397 . S
C2462 C2463 1.334 . S
C2463 H2440 0.950 . S
C2463 C2462 1.334 . S
C2463 C2464 1.287 . S
C2464 C2463 1.287 . S
C2464 C2465 1.524 . S
C2464 H2483 0.913 . S
C2465 H2441 0.950 . S
C2465 C2464 1.524 . S
C2465 C2466 1.415 . S
C2466 H2442 0.950 . S
C2466 C2461 1.363 . S
C2466 C2465 1.415 . S
C2467 H2443 0.951 . S
C2467 C2468 1.356 1_545 S
C2467 C2469 1.388 . S
C2468 C2467 1.356 1_565 S
C2468 C2472 1.415 . S
C2469 H2444 0.951 . S
C2469 C2467 1.388 . S
C2469 C2470 1.383 . S
C2470 C2469 1.383 . S
C2470 C2471 1.407 1_545 S
C2470 C2473 1.493 . S
C2471 H2445 0.950 . S
C2471 C2470 1.407 1_565 S
C2471 C2472 1.374 . S
C2472 H2446 0.950 . S
C2472 C2468 1.415 . S
C2472 C2471 1.374 . S
C2473 C2470 1.493 . S
C2473 C2474 1.359 1_545 S
C2473 C2475 1.397 . S
C2474 H2447 0.950 . S
C2474 C2460 1.377 . S
C2474 C2473 1.359 1_565 S
C2475 C2459 1.377 . S
C2475 C2473 1.397 . S
C2475 C2476 1.524 . S
C2476 C2475 1.524 . S
C2476 C2477 1.397 . S
C2476 C2481 1.363 . S
C2477 H2448 0.950 . S
C2477 C2476 1.397 . S
C2477 C2478 1.334 . S
C2478 H2449 0.950 . S
C2478 C2477 1.334 . S
C2478 C2479 1.287 . S
C2479 C2478 1.287 . S
C2479 C2480 1.524 . S
C2479 H2482 0.999 . S
C2480 H2450 0.950 . S
C2480 C2479 1.524 . S
C2480 C2481 1.415 . S
C2481 H2451 0.950 . S
C2481 C2476 1.363 . S
C2481 C2480 1.415 . S
H2482 C2479 0.999 . S
H2483 C2464 0.913 . S
H2484 C2502 0.951 . S
H2485 C2504 0.951 . S
H2486 C2506 0.950 . S
H2487 C2507 0.950 . S
H2488 C2509 0.950 . S
H2489 C2512 0.950 . S
H2490 C2513 0.950 . S
H2491 C2515 0.950 . S
H2492 C2516 0.950 . S
H2493 C2517 0.951 . S
H2494 C2519 0.951 . S
H2495 C2521 0.995 . S
H2496 C2522 0.950 . S
H2497 C2524 0.950 . S
H2498 C2527 0.950 . S
H2499 C2528 0.950 . S
H2500 C2530 0.950 . S
H2501 C2531 0.950 . S
C2502 H2484 0.951 . S
C2502 C2503 1.366 . S
C2502 C2504 1.388 . S
C2503 C2502 1.366 . S
C2503 C2507 1.385 . S
C2504 H2485 0.951 . S
C2504 C2502 1.388 . S
C2504 C2505 1.366 . S
C2505 C2504 1.366 . S
C2505 C2506 1.414 . S
C2505 C2508 1.499 . S
C2506 H2486 0.950 . S
C2506 C2505 1.414 . S
C2506 C2507 1.374 . S
C2507 H2487 0.950 . S
C2507 C2503 1.385 . S
C2507 C2506 1.374 . S
C2508 C2505 1.499 . S
C2508 C2509 1.373 . S
C2508 C2510 1.389 . S
C2509 H2488 0.950 . S
C2509 C2508 1.373 . S
C2509 C2525 1.426 . S
C2510 C2508 1.389 . S
C2510 C2511 1.524 . S
C2510 C2524 1.377 . S
C2511 C2510 1.524 . S
C2511 C2512 1.397 . S
C2511 C2516 1.363 . S
C2512 H2489 0.950 . S
C2512 C2511 1.397 . S
C2512 C2513 1.334 . S
C2513 H2490 0.950 . S
C2513 C2512 1.334 . S
C2513 C2514 1.287 . S
C2514 C2513 1.287 . S
C2514 C2515 1.524 . S
C2514 H2533 0.913 . S
C2515 H2491 0.950 . S
C2515 C2514 1.524 . S
C2515 C2516 1.415 . S
C2516 H2492 0.950 . S
C2516 C2511 1.363 . S
C2516 C2515 1.415 . S
C2517 H2493 0.951 . S
C2517 C2518 1.366 . S
C2517 C2519 1.388 . S
C2518 C2517 1.366 . S
C2518 C2522 1.385 . S
C2519 H2494 0.951 . S
C2519 C2517 1.388 . S
C2519 C2520 1.366 . S
C2520 C2519 1.366 . S
C2520 C2521 1.404 1_556 S
C2520 C2523 1.499 1_556 S
C2521 H2495 0.995 . S
C2521 C2520 1.404 1_554 S
C2521 C2522 1.342 1_554 S
C2522 H2496 0.950 . S
C2522 C2518 1.385 . S
C2522 C2521 1.342 1_556 S
C2523 C2520 1.499 1_554 S
C2523 C2524 1.373 . S
C2523 C2525 1.424 . S
C2524 H2497 0.950 . S
C2524 C2510 1.377 . S
C2524 C2523 1.373 . S
C2525 C2509 1.426 . S
C2525 C2523 1.424 . S
C2525 C2526 1.443 1_554 S
C2526 C2525 1.443 1_556 S
C2526 C2527 1.397 . S
C2526 C2531 1.363 . S
C2527 H2498 0.950 . S
C2527 C2526 1.397 . S
C2527 C2528 1.334 . S
C2528 H2499 0.950 . S
C2528 C2527 1.334 . S
C2528 C2529 1.287 . S
C2529 C2528 1.287 . S
C2529 C2530 1.524 . S
C2529 H2532 0.999 . S
C2530 H2500 0.950 . S
C2530 C2529 1.524 . S
C2530 C2531 1.415 . S
C2531 H2501 0.950 . S
C2531 C2526 1.363 . S
C2531 C2530 1.415 . S
H2532 C2529 0.999 . S
H2533 C2514 0.913 . S
H2534 C2552 0.951 . S
H2535 C2554 0.951 . S
H2536 C2556 0.950 . S
H2537 C2557 0.950 . S
H2538 C2559 0.950 . S
H2539 C2562 0.950 . S
H2540 C2563 0.950 . S
H2541 C2565 0.950 . S
H2542 C2566 0.950 . S
H2543 C2567 0.951 . S
H2544 C2569 0.951 . S
H2545 C2571 0.950 . S
H2546 C2572 0.950 . S
H2547 C2574 0.995 . S
H2548 C2577 0.950 . S
H2549 C2578 0.950 . S
H2550 C2580 0.950 . S
H2551 C2581 0.950 . S
C2552 H2534 0.951 . S
C2552 C2553 1.366 . S
C2552 C2554 1.388 . S
C2553 C2552 1.366 . S
C2553 C2557 1.385 . S
C2554 H2535 0.951 . S
C2554 C2552 1.388 . S
C2554 C2555 1.366 . S
C2555 C2554 1.366 . S
C2555 C2556 1.414 . S
C2555 C2558 1.499 . S
C2556 H2536 0.950 . S
C2556 C2555 1.414 . S
C2556 C2557 1.374 . S
C2557 H2537 0.950 . S
C2557 C2553 1.385 . S
C2557 C2556 1.374 . S
C2558 C2555 1.499 . S
C2558 C2559 1.373 . S
C2558 C2560 1.389 . S
C2559 H2538 0.950 . S
C2559 C2558 1.373 . S
C2559 C2575 1.377 . S
C2560 C2558 1.389 . S
C2560 C2561 1.549 . S
C2560 C2574 1.351 1_554 S
C2561 C2560 1.549 . S
C2561 C2562 1.422 . S
C2561 C2566 1.314 1_554 S
C2562 H2539 0.950 . S
C2562 C2561 1.422 . S
C2562 C2563 1.334 . S
C2563 H2540 0.950 . S
C2563 C2562 1.334 . S
C2563 C2564 1.287 1_554 S
C2564 C2563 1.287 1_556 S
C2564 C2565 1.524 . S
C2564 H2583 0.913 . S
C2565 H2541 0.950 . S
C2565 C2564 1.524 . S
C2565 C2566 1.415 . S
C2566 H2542 0.950 . S
C2566 C2561 1.314 1_556 S
C2566 C2565 1.415 . S
C2567 H2543 0.951 . S
C2567 C2568 1.366 . S
C2567 C2569 1.388 1_556 S
C2568 C2567 1.366 . S
C2568 C2572 1.385 . S
C2569 H2544 0.951 . S
C2569 C2567 1.388 1_554 S
C2569 C2570 1.366 1_554 S
C2570 C2569 1.366 1_556 S
C2570 C2571 1.414 . S
C2570 C2573 1.499 1_556 S
C2571 H2545 0.950 . S
C2571 C2570 1.414 . S
C2571 C2572 1.374 . S
C2572 H2546 0.950 . S
C2572 C2568 1.385 . S
C2572 C2571 1.374 . S
C2573 C2570 1.499 1_554 S
C2573 C2574 1.356 1_554 S
C2573 C2575 1.389 . S
C2574 H2547 0.995 . S
C2574 C2560 1.351 1_556 S
C2574 C2573 1.356 1_556 S
C2575 C2559 1.377 . S
C2575 C2573 1.389 . S
C2575 C2576 1.524 . S
C2576 C2575 1.524 . S
C2576 C2577 1.397 . S
C2576 C2581 1.363 . S
C2577 H2548 0.950 . S
C2577 C2576 1.397 . S
C2577 C2578 1.334 . S
C2578 H2549 0.950 . S
C2578 C2577 1.334 . S
C2578 C2579 1.287 . S
C2579 C2578 1.287 . S
C2579 C2580 1.524 . S
C2579 H2582 0.999 . S
C2580 H2550 0.950 . S
C2580 C2579 1.524 . S
C2580 C2581 1.415 . S
C2581 H2551 0.950 . S
C2581 C2576 1.363 . S
C2581 C2580 1.415 . S
H2582 C2579 0.999 . S
H2583 C2564 0.913 . S
H2584 C2602 0.951 . S
H2585 C2604 0.951 . S
H2586 C2606 0.950 . S
H2587 C2607 0.950 . S
H2588 C2609 0.950 . S
H2589 C2612 0.950 . S
H2590 C2613 0.950 . S
H2591 C2615 0.950 . S
H2592 C2616 0.950 . S
H2593 C2617 0.951 . S
H2594 C2619 0.951 1_554 S
H2595 C2621 0.950 . S
H2596 C2622 0.950 . S
H2597 C2624 0.950 1_556 S
H2598 C2627 0.950 . S
H2599 C2628 0.950 . S
H2600 C2630 0.950 . S
H2601 C2631 0.950 . S
C2602 H2584 0.951 . S
C2602 C2603 1.366 . S
C2602 C2604 1.388 . S
C2603 C2602 1.366 . S
C2603 C2607 1.385 . S
C2604 H2585 0.951 . S
C2604 C2602 1.388 . S
C2604 C2605 1.366 . S
C2605 C2604 1.366 . S
C2605 C2606 1.414 . S
C2605 C2608 1.499 . S
C2606 H2586 0.950 . S
C2606 C2605 1.414 . S
C2606 C2607 1.374 . S
C2607 H2587 0.950 . S
C2607 C2603 1.385 . S
C2607 C2606 1.374 . S
C2608 C2605 1.499 . S
C2608 C2609 1.373 . S
C2608 C2610 1.389 . S
C2609 H2588 0.950 . S
C2609 C2608 1.373 . S
C2609 C2625 1.377 . S
C2610 C2608 1.389 . S
C2610 C2611 1.524 . S
C2610 C2624 1.377 . S
C2611 C2610 1.524 . S
C2611 C2612 1.397 . S
C2611 C2616 1.363 1_554 S
C2612 H2589 0.950 . S
C2612 C2611 1.397 . S
C2612 C2613 1.334 1_554 S
C2613 H2590 0.950 . S
C2613 C2612 1.334 1_556 S
C2613 C2614 1.287 . S
C2614 C2613 1.287 . S
C2614 C2615 1.524 . S
C2614 H2633 0.913 . S
C2615 H2591 0.950 . S
C2615 C2614 1.524 . S
C2615 C2616 1.415 . S
C2616 H2592 0.950 . S
C2616 C2611 1.363 1_556 S
C2616 C2615 1.415 . S
C2617 H2593 0.951 . S
C2617 C2618 1.366 . S
C2617 C2619 1.388 . S
C2618 C2617 1.366 . S
C2618 C2622 1.385 . S
C2619 H2594 0.951 1_556 S
C2619 C2617 1.388 . S
C2619 C2620 1.376 . S
C2620 C2619 1.376 . S
C2620 C2621 1.441 . S
C2620 C2623 1.467 1_556 S
C2621 H2595 0.950 . S
C2621 C2620 1.441 . S
C2621 C2622 1.374 . S
C2622 H2596 0.950 . S
C2622 C2618 1.385 . S
C2622 C2621 1.374 . S
C2623 C2620 1.467 1_554 S
C2623 C2624 1.373 . S
C2623 C2625 1.389 . S
C2624 H2597 0.950 1_554 S
C2624 C2610 1.377 . S
C2624 C2623 1.373 . S
C2625 C2609 1.377 . S
C2625 C2623 1.389 . S
C2625 C2626 1.524 . S
C2626 C2625 1.524 . S
C2626 C2627 1.397 . S
C2626 C2631 1.363 . S
C2627 H2598 0.950 . S
C2627 C2626 1.397 . S
C2627 C2628 1.334 . S
C2628 H2599 0.950 . S
C2628 C2627 1.334 . S
C2628 C2629 1.287 . S
C2629 C2628 1.287 . S
C2629 C2630 1.524 . S
C2629 H2632 0.999 . S
C2630 H2600 0.950 . S
C2630 C2629 1.524 . S
C2630 C2631 1.415 . S
C2631 H2601 0.950 . S
C2631 C2626 1.363 . S
C2631 C2630 1.415 . S
H2632 C2629 0.999 . S
H2633 C2614 0.913 . S
H2634 C2652 0.951 . S
H2635 C2654 0.951 . S
H2636 C2656 0.950 . S
H2637 C2657 0.950 . S
H2638 C2659 0.950 . S
H2639 C2662 0.950 . S
H2640 C2663 0.950 . S
H2641 C2665 0.950 . S
H2642 C2666 0.950 . S
H2643 C2667 0.951 . S
H2644 C2669 0.951 . S
H2645 C2671 0.950 . S
H2646 C2672 0.950 . S
H2647 C2674 0.950 . S
H2648 C2677 0.950 . S
H2649 C2678 0.950 . S
H2650 C2680 0.950 . S
H2651 C2681 0.950 . S
C2652 H2634 0.951 . S
C2652 C2653 1.366 . S
C2652 C2654 1.388 . S
C2653 C2652 1.366 . S
C2653 C2657 1.385 . S
C2654 H2635 0.951 . S
C2654 C2652 1.388 . S
C2654 C2655 1.366 . S
C2655 C2654 1.366 . S
C2655 C2656 1.414 . S
C2655 C2658 1.499 . S
C2656 H2636 0.950 . S
C2656 C2655 1.414 . S
C2656 C2657 1.374 . S
C2657 H2637 0.950 . S
C2657 C2653 1.385 . S
C2657 C2656 1.374 . S
C2658 C2655 1.499 . S
C2658 C2659 1.373 . S
C2658 C2660 1.389 . S
C2659 H2638 0.950 . S
C2659 C2658 1.373 . S
C2659 C2675 1.377 . S
C2660 C2658 1.389 . S
C2660 C2661 1.524 . S
C2660 C2674 1.377 . S
C2661 C2660 1.524 . S
C2661 C2662 1.397 . S
C2661 C2666 1.363 . S
C2662 H2639 0.950 . S
C2662 C2661 1.397 . S
C2662 C2663 1.334 . S
C2663 H2640 0.950 . S
C2663 C2662 1.334 . S
C2663 C2664 1.287 . S
C2664 C2663 1.287 . S
C2664 C2665 1.524 . S
C2664 H2683 0.913 . S
C2665 H2641 0.950 . S
C2665 C2664 1.524 . S
C2665 C2666 1.415 . S
C2666 H2642 0.950 . S
C2666 C2661 1.363 . S
C2666 C2665 1.415 . S
C2667 H2643 0.951 . S
C2667 C2668 1.366 . S
C2667 C2669 1.388 . S
C2668 C2667 1.366 . S
C2668 C2672 1.385 . S
C2669 H2644 0.951 . S
C2669 C2667 1.388 . S
C2669 C2670 1.366 . S
C2670 C2669 1.366 . S
C2670 C2671 1.414 1_554 S
C2670 C2673 1.499 1_554 S
C2671 H2645 0.950 . S
C2671 C2670 1.414 1_556 S
C2671 C2672 1.374 1_556 S
C2672 H2646 0.950 . S
C2672 C2668 1.385 . S
C2672 C2671 1.374 1_554 S
C2673 C2670 1.499 1_556 S
C2673 C2674 1.373 . S
C2673 C2675 1.389 . S
C2674 H2647 0.950 . S
C2674 C2660 1.377 . S
C2674 C2673 1.373 . S
C2675 C2659 1.377 . S
C2675 C2673 1.389 . S
C2675 C2676 1.524 1_556 S
C2676 C2675 1.524 1_554 S
C2676 C2677 1.397 . S
C2676 C2681 1.363 . S
C2677 H2648 0.950 . S
C2677 C2676 1.397 . S
C2677 C2678 1.334 . S
C2678 H2649 0.950 . S
C2678 C2677 1.334 . S
C2678 C2679 1.287 . S
C2679 C2678 1.287 . S
C2679 C2680 1.524 . S
C2679 H2682 0.999 . S
C2680 H2650 0.950 . S
C2680 C2679 1.524 . S
C2680 C2681 1.415 . S
C2681 H2651 0.950 . S
C2681 C2676 1.363 . S
C2681 C2680 1.415 . S
H2682 C2679 0.999 . S
H2683 C2664 0.913 . S
H2684 C2702 0.951 . S
H2685 C2704 0.901 1_556 S
H2686 C2706 0.950 . S
H2687 C2707 0.950 . S
H2688 C2709 0.956 . S
H2689 C2712 0.950 . S
H2690 C2713 0.950 . S
H2691 C2715 0.950 . S
H2692 C2716 0.950 . S
H2693 C2717 0.951 . S
H2694 C2719 0.951 . S
H2695 C2721 0.950 . S
H2696 C2722 0.950 . S
H2697 C2724 0.950 . S
H2698 C2727 0.950 . S
H2699 C2728 0.950 . S
H2700 C2730 0.950 . S
H2701 C2731 0.950 . S
C2702 H2684 0.951 . S
C2702 C2703 1.366 . S
C2702 C2704 1.431 . S
C2703 C2702 1.366 . S
C2703 C2707 1.385 . S
C2704 H2685 0.901 1_554 S
C2704 C2702 1.431 . S
C2704 C2705 1.376 . S
C2705 C2704 1.376 . S
C2705 C2706 1.414 . S
C2705 C2708 1.499 1_554 S
C2706 H2686 0.950 . S
C2706 C2705 1.414 . S
C2706 C2707 1.374 . S
C2707 H2687 0.950 . S
C2707 C2703 1.385 . S
C2707 C2706 1.374 . S
C2708 C2705 1.499 1_556 S
C2708 C2709 1.371 1_556 S
C2708 C2710 1.389 . S
C2709 H2688 0.956 . S
C2709 C2708 1.371 1_554 S
C2709 C2725 1.374 1_554 S
C2710 C2708 1.389 . S
C2710 C2711 1.524 . S
C2710 C2724 1.377 . S
C2711 C2710 1.524 . S
C2711 C2712 1.397 . S
C2711 C2716 1.363 . S
C2712 H2689 0.950 . S
C2712 C2711 1.397 . S
C2712 C2713 1.334 . S
C2713 H2690 0.950 . S
C2713 C2712 1.334 . S
C2713 C2714 1.287 . S
C2714 C2713 1.287 . S
C2714 C2715 1.524 . S
C2714 H2733 0.913 . S
C2715 H2691 0.950 . S
C2715 C2714 1.524 . S
C2715 C2716 1.415 . S
C2716 H2692 0.950 . S
C2716 C2711 1.363 . S
C2716 C2715 1.415 . S
C2717 H2693 0.951 . S
C2717 C2718 1.366 . S
C2717 C2719 1.388 . S
C2718 C2717 1.366 . S
C2718 C2722 1.385 . S
C2719 H2694 0.951 . S
C2719 C2717 1.388 . S
C2719 C2720 1.366 . S
C2720 C2719 1.366 . S
C2720 C2721 1.414 . S
C2720 C2723 1.499 . S
C2721 H2695 0.950 . S
C2721 C2720 1.414 . S
C2721 C2722 1.374 . S
C2722 H2696 0.950 . S
C2722 C2718 1.385 . S
C2722 C2721 1.374 . S
C2723 C2720 1.499 . S
C2723 C2724 1.373 . S
C2723 C2725 1.389 . S
C2724 H2697 0.950 . S
C2724 C2710 1.377 . S
C2724 C2723 1.373 . S
C2725 C2709 1.374 1_556 S
C2725 C2723 1.389 . S
C2725 C2726 1.496 1_556 S
C2726 C2725 1.496 1_554 S
C2726 C2727 1.390 1_554 S
C2726 C2731 1.402 . S
C2727 H2698 0.950 . S
C2727 C2726 1.390 1_556 S
C2727 C2728 1.334 1_556 S
C2728 H2699 0.950 . S
C2728 C2727 1.334 1_554 S
C2728 C2729 1.287 . S
C2729 C2728 1.287 . S
C2729 C2730 1.524 . S
C2729 H2732 0.999 . S
C2730 H2700 0.950 . S
C2730 C2729 1.524 . S
C2730 C2731 1.415 . S
C2731 H2701 0.950 . S
C2731 C2726 1.402 . S
C2731 C2730 1.415 . S
H2732 C2729 0.999 . S
H2733 C2714 0.913 . S
H2734 C2752 0.951 . S
H2735 C2754 0.951 . S
H2736 C2756 0.950 . S
H2737 C2757 0.950 . S
H2738 C2759 0.950 . S
H2739 C2762 0.950 . S
H2740 C2763 0.950 . S
H2741 C2765 0.950 . S
H2742 C2766 0.950 . S
H2743 C2767 0.951 . S
H2744 C2769 0.951 . S
H2745 C2771 0.950 . S
H2746 C2772 0.950 . S
H2747 C2774 0.950 1_554 S
H2748 C2777 0.950 . S
H2749 C2778 0.950 . S
H2750 C2780 0.950 . S
H2751 C2781 0.950 . S
C2752 H2734 0.951 . S
C2752 C2753 1.366 . S
C2752 C2754 1.388 . S
C2753 C2752 1.366 . S
C2753 C2757 1.385 . S
C2754 H2735 0.951 . S
C2754 C2752 1.388 . S
C2754 C2755 1.366 . S
C2755 C2754 1.366 . S
C2755 C2756 1.414 . S
C2755 C2758 1.499 . S
C2756 H2736 0.950 . S
C2756 C2755 1.414 . S
C2756 C2757 1.374 . S
C2757 H2737 0.950 . S
C2757 C2753 1.385 . S
C2757 C2756 1.374 . S
C2758 C2755 1.499 . S
C2758 C2759 1.373 . S
C2758 C2760 1.389 . S
C2759 H2738 0.950 . S
C2759 C2758 1.373 . S
C2759 C2775 1.377 . S
C2760 C2758 1.389 . S
C2760 C2761 1.524 . S
C2760 C2774 1.377 . S
C2761 C2760 1.524 . S
C2761 C2762 1.397 . S
C2761 C2766 1.363 1_556 S
C2762 H2739 0.950 . S
C2762 C2761 1.397 . S
C2762 C2763 1.334 . S
C2763 H2740 0.950 . S
C2763 C2762 1.334 . S
C2763 C2764 1.287 1_556 S
C2764 C2763 1.287 1_554 S
C2764 C2765 1.524 . S
C2764 H2783 0.913 . S
C2765 H2741 0.950 . S
C2765 C2764 1.524 . S
C2765 C2766 1.415 . S
C2766 H2742 0.950 . S
C2766 C2761 1.363 1_554 S
C2766 C2765 1.415 . S
C2767 H2743 0.951 . S
C2767 C2768 1.366 . S
C2767 C2769 1.388 1_554 S
C2768 C2767 1.366 . S
C2768 C2772 1.385 . S
C2769 H2744 0.951 . S
C2769 C2767 1.388 1_556 S
C2769 C2770 1.366 1_556 S
C2770 C2769 1.366 1_554 S
C2770 C2771 1.414 . S
C2770 C2773 1.499 1_554 S
C2771 H2745 0.950 . S
C2771 C2770 1.414 . S
C2771 C2772 1.374 . S
C2772 H2746 0.950 . S
C2772 C2768 1.385 . S
C2772 C2771 1.374 . S
C2773 C2770 1.499 1_556 S
C2773 C2774 1.373 . S
C2773 C2775 1.389 . S
C2774 H2747 0.950 1_556 S
C2774 C2760 1.377 . S
C2774 C2773 1.373 . S
C2775 C2759 1.377 . S
C2775 C2773 1.389 . S
C2775 C2776 1.524 . S
C2776 C2775 1.524 . S
C2776 C2777 1.397 . S
C2776 C2781 1.363 . S
C2777 H2748 0.950 . S
C2777 C2776 1.397 . S
C2777 C2778 1.334 . S
C2778 H2749 0.950 . S
C2778 C2777 1.334 . S
C2778 C2779 1.287 . S
C2779 C2778 1.287 . S
C2779 C2780 1.524 . S
C2779 H2782 0.999 . S
C2780 H2750 0.950 . S
C2780 C2779 1.524 . S
C2780 C2781 1.415 . S
C2781 H2751 0.950 . S
C2781 C2776 1.363 . S
C2781 C2780 1.415 . S
H2782 C2779 0.999 . S
H2783 C2764 0.913 . S
H2784 C2802 0.951 . S
H2785 C2804 0.951 . S
H2786 C2806 0.950 . S
H2787 C2807 0.950 . S
H2788 C2809 0.950 . S
H2789 C2812 0.950 . S
H2790 C2813 0.950 . S
H2791 C2815 0.950 . S
H2792 C2816 0.950 . S
H2793 C2817 0.951 . S
H2794 C2819 0.951 . S
H2795 C2821 0.950 . S
H2796 C2822 0.950 . S
H2797 C2824 0.950 . S
H2798 C2827 0.950 . S
H2799 C2828 0.950 . S
H2800 C2830 0.950 . S
H2801 C2831 0.950 . S
C2802 H2784 0.951 . S
C2802 C2803 1.366 . S
C2802 C2804 1.388 . S
C2803 C2802 1.366 . S
C2803 C2807 1.385 . S
C2804 H2785 0.951 . S
C2804 C2802 1.388 . S
C2804 C2805 1.366 . S
C2805 C2804 1.366 . S
C2805 C2806 1.414 . S
C2805 C2808 1.499 . S
C2806 H2786 0.950 . S
C2806 C2805 1.414 . S
C2806 C2807 1.374 . S
C2807 H2787 0.950 . S
C2807 C2803 1.385 . S
C2807 C2806 1.374 . S
C2808 C2805 1.499 . S
C2808 C2809 1.373 . S
C2808 C2810 1.389 . S
C2809 H2788 0.950 . S
C2809 C2808 1.373 . S
C2809 C2825 1.377 . S
C2810 C2808 1.389 . S
C2810 C2811 1.524 . S
C2810 C2824 1.377 . S
C2811 C2810 1.524 . S
C2811 C2812 1.397 . S
C2811 C2816 1.363 . S
C2812 H2789 0.950 . S
C2812 C2811 1.397 . S
C2812 C2813 1.334 . S
C2813 H2790 0.950 . S
C2813 C2812 1.334 . S
C2813 C2814 1.287 . S
C2814 C2813 1.287 . S
C2814 C2815 1.524 . S
C2814 H2833 0.913 . S
C2815 H2791 0.950 . S
C2815 C2814 1.524 . S
C2815 C2816 1.415 . S
C2816 H2792 0.950 . S
C2816 C2811 1.363 . S
C2816 C2815 1.415 . S
C2817 H2793 0.951 . S
C2817 C2818 1.366 . S
C2817 C2819 1.388 . S
C2818 C2817 1.366 . S
C2818 C2822 1.385 . S
C2819 H2794 0.951 . S
C2819 C2817 1.388 . S
C2819 C2820 1.366 . S
C2820 C2819 1.366 . S
C2820 C2821 1.414 . S
C2820 C2823 1.499 . S
C2821 H2795 0.950 . S
C2821 C2820 1.414 . S
C2821 C2822 1.374 . S
C2822 H2796 0.950 . S
C2822 C2818 1.385 . S
C2822 C2821 1.374 . S
C2823 C2820 1.499 . S
C2823 C2824 1.373 . S
C2823 C2825 1.389 . S
C2824 H2797 0.950 . S
C2824 C2810 1.377 . S
C2824 C2823 1.373 . S
C2825 C2809 1.377 . S
C2825 C2823 1.389 . S
C2825 C2826 1.524 . S
C2826 C2825 1.524 . S
C2826 C2827 1.397 . S
C2826 C2831 1.363 . S
C2827 H2798 0.950 . S
C2827 C2826 1.397 . S
C2827 C2828 1.334 . S
C2828 H2799 0.950 . S
C2828 C2827 1.334 . S
C2828 C2829 1.287 . S
C2829 C2828 1.287 . S
C2829 C2830 1.524 . S
C2829 H2832 0.999 . S
C2830 H2800 0.950 . S
C2830 C2829 1.524 . S
C2830 C2831 1.415 . S
C2831 H2801 0.950 . S
C2831 C2826 1.363 . S
C2831 C2830 1.415 . S
H2832 C2829 0.999 . S
H2833 C2814 0.913 . S
H2834 C2852 0.951 . S
H2835 C2854 0.951 . S
H2836 C2856 0.950 . S
H2837 C2857 0.950 . S
H2838 C2859 0.950 . S
H2839 C2862 0.950 . S
H2840 C2863 0.950 . S
H2841 C2865 0.950 . S
H2842 C2866 0.950 . S
H2843 C2867 0.951 . S
H2844 C2869 0.951 . S
H2845 C2871 0.950 . S
H2846 C2872 0.950 . S
H2847 C2874 0.950 . S
H2848 C2877 0.950 . S
H2849 C2878 0.950 . S
H2850 C2880 0.950 . S
H2851 C2881 0.950 . S
C2852 H2834 0.951 . S
C2852 C2853 1.366 . S
C2852 C2854 1.388 . S
C2853 C2852 1.366 . S
C2853 C2857 1.385 . S
C2854 H2835 0.951 . S
C2854 C2852 1.388 . S
C2854 C2855 1.366 . S
C2855 C2854 1.366 . S
C2855 C2856 1.414 . S
C2855 C2858 1.499 . S
C2856 H2836 0.950 . S
C2856 C2855 1.414 . S
C2856 C2857 1.374 . S
C2857 H2837 0.950 . S
C2857 C2853 1.385 . S
C2857 C2856 1.374 . S
C2858 C2855 1.499 . S
C2858 C2859 1.373 . S
C2858 C2860 1.389 . S
C2859 H2838 0.950 . S
C2859 C2858 1.373 . S
C2859 C2875 1.377 . S
C2860 C2858 1.389 . S
C2860 C2861 1.524 . S
C2860 C2874 1.377 . S
C2861 C2860 1.524 . S
C2861 C2862 1.397 . S
C2861 C2866 1.363 . S
C2862 H2839 0.950 . S
C2862 C2861 1.397 . S
C2862 C2863 1.334 . S
C2863 H2840 0.950 . S
C2863 C2862 1.334 . S
C2863 C2864 1.287 . S
C2864 C2863 1.287 . S
C2864 C2865 1.524 . S
C2864 H2883 0.913 . S
C2865 H2841 0.950 . S
C2865 C2864 1.524 . S
C2865 C2866 1.415 . S
C2866 H2842 0.950 . S
C2866 C2861 1.363 . S
C2866 C2865 1.415 . S
C2867 H2843 0.951 . S
C2867 C2868 1.366 . S
C2867 C2869 1.388 . S
C2868 C2867 1.366 . S
C2868 C2872 1.385 . S
C2869 H2844 0.951 . S
C2869 C2867 1.388 . S
C2869 C2870 1.366 . S
C2870 C2869 1.366 . S
C2870 C2871 1.414 . S
C2870 C2873 1.499 . S
C2871 H2845 0.950 . S
C2871 C2870 1.414 . S
C2871 C2872 1.374 . S
C2872 H2846 0.950 . S
C2872 C2868 1.385 . S
C2872 C2871 1.374 . S
C2873 C2870 1.499 . S
C2873 C2874 1.373 . S
C2873 C2875 1.389 . S
C2874 H2847 0.950 . S
C2874 C2860 1.377 . S
C2874 C2873 1.373 . S
C2875 C2859 1.377 . S
C2875 C2873 1.389 . S
C2875 C2876 1.524 . S
C2876 C2875 1.524 . S
C2876 C2877 1.397 . S
C2876 C2881 1.363 . S
C2877 H2848 0.950 . S
C2877 C2876 1.397 . S
C2877 C2878 1.334 . S
C2878 H2849 0.950 . S
C2878 C2877 1.334 . S
C2878 C2879 1.287 . S
C2879 C2878 1.287 . S
C2879 C2880 1.524 . S
C2879 H2882 0.999 . S
C2880 H2850 0.950 . S
C2880 C2879 1.524 . S
C2880 C2881 1.415 . S
C2881 H2851 0.950 . S
C2881 C2876 1.363 . S
C2881 C2880 1.415 . S
H2882 C2879 0.999 . S
H2883 C2864 0.913 . S
H2884 C2902 0.951 . S
H2885 C2904 0.951 . S
H2886 C2906 0.950 . S
H2887 C2907 0.950 . S
H2888 C2909 0.950 . S
H2889 C2912 0.950 . S
H2890 C2913 0.950 . S
H2891 C2915 0.950 . S
H2892 C2916 0.950 . S
H2893 C2917 0.951 . S
H2894 C2919 0.951 . S
H2895 C2921 0.950 . S
H2896 C2922 0.950 . S
H2897 C2924 0.950 . S
H2898 C2927 0.950 . S
H2899 C2928 0.950 . S
H2900 C2930 0.950 . S
H2901 C2931 0.950 . S
C2902 H2884 0.951 . S
C2902 C2903 1.366 . S
C2902 C2904 1.388 . S
C2903 C2902 1.366 . S
C2903 C2907 1.385 . S
C2904 H2885 0.951 . S
C2904 C2902 1.388 . S
C2904 C2905 1.366 . S
C2905 C2904 1.366 . S
C2905 C2906 1.414 . S
C2905 C2908 1.499 . S
C2906 H2886 0.950 . S
C2906 C2905 1.414 . S
C2906 C2907 1.374 . S
C2907 H2887 0.950 . S
C2907 C2903 1.385 . S
C2907 C2906 1.374 . S
C2908 C2905 1.499 . S
C2908 C2909 1.373 . S
C2908 C2910 1.389 . S
C2909 H2888 0.950 . S
C2909 C2908 1.373 . S
C2909 C2925 1.377 . S
C2910 C2908 1.389 . S
C2910 C2911 1.524 . S
C2910 C2924 1.377 . S
C2911 C2910 1.524 . S
C2911 C2912 1.397 . S
C2911 C2916 1.363 . S
C2912 H2889 0.950 . S
C2912 C2911 1.397 . S
C2912 C2913 1.334 . S
C2913 H2890 0.950 . S
C2913 C2912 1.334 . S
C2913 C2914 1.287 . S
C2914 C2913 1.287 . S
C2914 C2915 1.524 . S
C2914 H2933 0.913 . S
C2915 H2891 0.950 . S
C2915 C2914 1.524 . S
C2915 C2916 1.415 . S
C2916 H2892 0.950 . S
C2916 C2911 1.363 . S
C2916 C2915 1.415 . S
C2917 H2893 0.951 . S
C2917 C2918 1.366 . S
C2917 C2919 1.388 . S
C2918 C2917 1.366 . S
C2918 C2922 1.385 . S
C2919 H2894 0.951 . S
C2919 C2917 1.388 . S
C2919 C2920 1.366 . S
C2920 C2919 1.366 . S
C2920 C2921 1.414 . S
C2920 C2923 1.499 . S
C2921 H2895 0.950 . S
C2921 C2920 1.414 . S
C2921 C2922 1.374 . S
C2922 H2896 0.950 . S
C2922 C2918 1.385 . S
C2922 C2921 1.374 . S
C2923 C2920 1.499 . S
C2923 C2924 1.373 . S
C2923 C2925 1.389 . S
C2924 H2897 0.950 . S
C2924 C2910 1.377 . S
C2924 C2923 1.373 . S
C2925 C2909 1.377 . S
C2925 C2923 1.389 . S
C2925 C2926 1.524 . S
C2926 C2925 1.524 . S
C2926 C2927 1.397 . S
C2926 C2931 1.363 . S
C2927 H2898 0.950 . S
C2927 C2926 1.397 . S
C2927 C2928 1.334 . S
C2928 H2899 0.950 . S
C2928 C2927 1.334 . S
C2928 C2929 1.287 . S
C2929 C2928 1.287 . S
C2929 C2930 1.524 . S
C2929 H2932 0.999 . S
C2930 H2900 0.950 . S
C2930 C2929 1.524 . S
C2930 C2931 1.415 . S
C2931 H2901 0.950 . S
C2931 C2926 1.363 . S
C2931 C2930 1.415 . S
H2932 C2929 0.999 . S
H2933 C2914 0.913 . S
H2934 C2952 0.951 . S
H2935 C2954 0.951 . S
H2936 C2956 0.950 . S
H2937 C2957 0.950 . S
H2938 C2959 0.950 . S
H2939 C2962 0.950 . S
H2940 C2963 0.950 . S
H2941 C2965 0.950 . S
H2942 C2966 0.950 . S
H2943 C2967 0.951 . S
H2944 C2969 0.951 . S
H2945 C2971 0.950 . S
H2946 C2972 0.950 . S
H2947 C2974 0.950 . S
H2948 C2977 0.950 . S
H2949 C2978 0.950 . S
H2950 C2980 0.950 . S
H2951 C2981 0.950 . S
C2952 H2934 0.951 . S
C2952 C2953 1.366 . S
C2952 C2954 1.388 . S
C2953 C2952 1.366 . S
C2953 C2957 1.385 . S
C2954 H2935 0.951 . S
C2954 C2952 1.388 . S
C2954 C2955 1.366 . S
C2955 C2954 1.366 . S
C2955 C2956 1.414 . S
C2955 C2958 1.499 . S
C2956 H2936 0.950 . S
C2956 C2955 1.414 . S
C2956 C2957 1.374 . S
C2957 H2937 0.950 . S
C2957 C2953 1.385 . S
C2957 C2956 1.374 . S
C2958 C2955 1.499 . S
C2958 C2959 1.373 . S
C2958 C2960 1.389 . S
C2959 H2938 0.950 . S
C2959 C2958 1.373 . S
C2959 C2975 1.377 . S
C2960 C2958 1.389 . S
C2960 C2961 1.524 . S
C2960 C2974 1.377 . S
C2961 C2960 1.524 . S
C2961 C2962 1.397 . S
C2961 C2966 1.363 . S
C2962 H2939 0.950 . S
C2962 C2961 1.397 . S
C2962 C2963 1.334 . S
C2963 H2940 0.950 . S
C2963 C2962 1.334 . S
C2963 C2964 1.287 . S
C2964 C2963 1.287 . S
C2964 C2965 1.524 . S
C2964 H2983 0.913 . S
C2965 H2941 0.950 . S
C2965 C2964 1.524 . S
C2965 C2966 1.415 . S
C2966 H2942 0.950 . S
C2966 C2961 1.363 . S
C2966 C2965 1.415 . S
C2967 H2943 0.951 . S
C2967 C2968 1.366 . S
C2967 C2969 1.388 . S
C2968 C2967 1.366 . S
C2968 C2972 1.385 . S
C2969 H2944 0.951 . S
C2969 C2967 1.388 . S
C2969 C2970 1.366 . S
C2970 C2969 1.366 . S
C2970 C2971 1.414 . S
C2970 C2973 1.499 . S
C2971 H2945 0.950 . S
C2971 C2970 1.414 . S
C2971 C2972 1.374 . S
C2972 H2946 0.950 . S
C2972 C2968 1.385 . S
C2972 C2971 1.374 . S
C2973 C2970 1.499 . S
C2973 C2974 1.373 . S
C2973 C2975 1.389 . S
C2974 H2947 0.950 . S
C2974 C2960 1.377 . S
C2974 C2973 1.373 . S
C2975 C2959 1.377 . S
C2975 C2973 1.389 . S
C2975 C2976 1.524 . S
C2976 C2975 1.524 . S
C2976 C2977 1.397 . S
C2976 C2981 1.363 . S
C2977 H2948 0.950 . S
C2977 C2976 1.397 . S
C2977 C2978 1.334 . S
C2978 H2949 0.950 . S
C2978 C2977 1.334 . S
C2978 C2979 1.287 . S
C2979 C2978 1.287 . S
C2979 C2980 1.524 . S
C2979 H2982 0.999 . S
C2980 H2950 0.950 . S
C2980 C2979 1.524 . S
C2980 C2981 1.415 . S
C2981 H2951 0.950 . S
C2981 C2976 1.363 . S
C2981 C2980 1.415 . S
H2982 C2979 0.999 . S
H2983 C2964 0.913 . S
H2984 C3002 0.951 . S
H2985 C3004 0.951 . S
H2986 C3006 0.950 . S
H2987 C3007 0.950 . S
H2988 C3009 0.950 . S
H2989 C3012 0.950 . S
H2990 C3013 0.950 . S
H2991 C3015 0.950 . S
H2992 C3016 0.950 . S
H2993 C3017 0.951 . S
H2994 C3019 0.951 . S
H2995 C3021 0.950 . S
H2996 C3022 0.950 . S
H2997 C3024 0.950 . S
H2998 C3027 0.950 . S
H2999 C3028 0.950 . S
H3000 C3030 0.950 . S
H3001 C3031 0.950 . S
C3002 H2984 0.951 . S
C3002 C3003 1.366 . S
C3002 C3004 1.388 . S
C3003 C3002 1.366 . S
C3003 C3007 1.385 . S
C3004 H2985 0.951 . S
C3004 C3002 1.388 . S
C3004 C3005 1.366 . S
C3005 C3004 1.366 . S
C3005 C3006 1.414 . S
C3005 C3008 1.499 . S
C3006 H2986 0.950 . S
C3006 C3005 1.414 . S
C3006 C3007 1.374 . S
C3007 H2987 0.950 . S
C3007 C3003 1.385 . S
C3007 C3006 1.374 . S
C3008 C3005 1.499 . S
C3008 C3009 1.373 1_545 S
C3008 C3010 1.389 . S
C3009 H2988 0.950 . S
C3009 C3008 1.373 1_565 S
C3009 C3025 1.377 . S
C3010 C3008 1.389 . S
C3010 C3011 1.524 . S
C3010 C3024 1.377 . S
C3011 C3010 1.524 . S
C3011 C3012 1.397 . S
C3011 C3016 1.363 . S
C3012 H2989 0.950 . S
C3012 C3011 1.397 . S
C3012 C3013 1.334 . S
C3013 H2990 0.950 . S
C3013 C3012 1.334 . S
C3013 C3014 1.287 . S
C3014 C3013 1.287 . S
C3014 C3015 1.524 . S
C3014 H3033 0.913 . S
C3015 H2991 0.950 . S
C3015 C3014 1.524 . S
C3015 C3016 1.415 . S
C3016 H2992 0.950 . S
C3016 C3011 1.363 . S
C3016 C3015 1.415 . S
C3017 H2993 0.951 . S
C3017 C3018 1.404 . S
C3017 C3019 1.388 . S
C3018 C3017 1.404 . S
C3018 C3022 1.359 1_565 S
C3019 H2994 0.951 . S
C3019 C3017 1.388 . S
C3019 C3020 1.366 1_565 S
C3020 C3019 1.366 1_545 S
C3020 C3021 1.414 . S
C3020 C3023 1.499 . S
C3021 H2995 0.950 . S
C3021 C3020 1.414 . S
C3021 C3022 1.374 . S
C3022 H2996 0.950 . S
C3022 C3018 1.359 1_545 S
C3022 C3021 1.374 . S
C3023 C3020 1.499 . S
C3023 C3024 1.373 . S
C3023 C3025 1.389 1_545 S
C3024 H2997 0.950 . S
C3024 C3010 1.377 . S
C3024 C3023 1.373 . S
C3025 C3009 1.377 . S
C3025 C3023 1.389 1_565 S
C3025 C3026 1.524 . S
C3026 C3025 1.524 . S
C3026 C3027 1.397 . S
C3026 C3031 1.363 . S
C3027 H2998 0.950 . S
C3027 C3026 1.397 . S
C3027 C3028 1.334 . S
C3028 H2999 0.950 . S
C3028 C3027 1.334 . S
C3028 C3029 1.287 . S
C3029 C3028 1.287 . S
C3029 C3030 1.524 . S
C3029 H3032 0.999 . S
C3030 H3000 0.950 . S
C3030 C3029 1.524 . S
C3030 C3031 1.415 . S
C3031 H3001 0.950 . S
C3031 C3026 1.363 . S
C3031 C3030 1.415 . S
H3032 C3029 0.999 . S
H3033 C3014 0.913 . S
H3034 C3052 0.951 . S
H3035 C3054 0.951 . S
H3036 C3056 0.950 1_455 S
H3037 C3057 0.934 1_455 S
H3038 C3059 0.963 . S
H3039 C3062 0.950 . S
H3040 C3063 0.950 . S
H3041 C3065 0.950 . S
H3042 C3066 0.950 . S
H3043 C3067 0.951 . S
H3044 C3069 0.951 . S
H3045 C3071 0.950 . S
H3046 C3072 0.950 . S
H3047 C3074 0.950 . S
H3048 C3077 0.950 . S
H3049 C3078 0.953 1_655 S
H3050 C3080 0.950 . S
H3051 C3081 0.950 . S
C3052 H3034 0.951 . S
C3052 C3053 1.366 . S
C3052 C3054 1.388 . S
C3053 C3052 1.366 . S
C3053 C3057 1.385 . S
C3054 H3035 0.951 . S
C3054 C3052 1.388 . S
C3054 C3055 1.366 . S
C3055 C3054 1.366 . S
C3055 C3056 1.414 . S
C3055 C3058 1.499 . S
C3056 H3036 0.950 1_655 S
C3056 C3055 1.414 . S
C3056 C3057 1.374 . S
C3057 H3037 0.934 1_655 S
C3057 C3053 1.385 . S
C3057 C3056 1.374 . S
C3058 C3055 1.499 . S
C3058 C3059 1.373 . S
C3058 C3060 1.389 . S
C3059 H3038 0.963 . S
C3059 C3058 1.373 . S
C3059 C3075 1.377 . S
C3060 C3058 1.389 . S
C3060 C3061 1.524 . S
C3060 C3074 1.377 . S
C3061 C3060 1.524 . S
C3061 C3062 1.397 . S
C3061 C3066 1.363 . S
C3062 H3039 0.950 . S
C3062 C3061 1.397 . S
C3062 C3063 1.334 . S
C3063 H3040 0.950 . S
C3063 C3062 1.334 . S
C3063 C3064 1.287 . S
C3064 C3063 1.287 . S
C3064 C3065 1.524 . S
C3064 H3083 0.913 . S
C3065 H3041 0.950 . S
C3065 C3064 1.524 . S
C3065 C3066 1.415 . S
C3066 H3042 0.950 . S
C3066 C3061 1.363 . S
C3066 C3065 1.415 . S
C3067 H3043 0.951 . S
C3067 C3068 1.365 1_455 S
C3067 C3069 1.388 . S
C3068 C3067 1.365 1_655 S
C3068 C3072 1.386 . S
C3069 H3044 0.951 . S
C3069 C3067 1.388 . S
C3069 C3070 1.366 1_455 S
C3070 C3069 1.366 1_655 S
C3070 C3071 1.414 . S
C3070 C3073 1.499 . S
C3071 H3045 0.950 . S
C3071 C3070 1.414 . S
C3071 C3072 1.374 . S
C3072 H3046 0.950 . S
C3072 C3068 1.386 . S
C3072 C3071 1.374 . S
C3073 C3070 1.499 . S
C3073 C3074 1.373 . S
C3073 C3075 1.389 . S
C3074 H3047 0.950 . S
C3074 C3060 1.377 . S
C3074 C3073 1.373 . S
C3075 C3059 1.377 . S
C3075 C3073 1.389 . S
C3075 C3076 1.524 1_655 S
C3076 C3075 1.524 1_455 S
C3076 C3077 1.397 1_455 S
C3076 C3081 1.363 . S
C3077 H3048 0.950 . S
C3077 C3076 1.397 1_655 S
C3077 C3078 1.334 1_655 S
C3078 H3049 0.953 1_455 S
C3078 C3077 1.334 1_455 S
C3078 C3079 1.287 . S
C3079 C3078 1.287 . S
C3079 C3080 1.524 . S
C3079 H3082 0.999 . S
C3080 H3050 0.950 . S
C3080 C3079 1.524 . S
C3080 C3081 1.415 . S
C3081 H3051 0.950 . S
C3081 C3076 1.363 . S
C3081 C3080 1.415 . S
H3082 C3079 0.999 . S
H3083 C3064 0.913 . S
H3084 C3102 0.951 . S
H3085 C3104 0.951 . S
H3086 C3106 0.950 . S
H3087 C3107 0.950 . S
H3088 C3109 0.950 . S
H3089 C3112 0.950 . S
H3090 C3113 0.950 . S
H3091 C3115 0.950 . S
H3092 C3116 0.950 . S
H3093 C3117 0.951 . S
H3094 C3119 0.951 . S
H3095 C3121 0.950 . S
H3096 C3122 0.950 . S
H3097 C3124 0.950 . S
H3098 C3127 0.950 . S
H3099 C3128 0.950 . S
H3100 C3130 0.950 . S
H3101 C3131 0.950 . S
C3102 H3084 0.951 . S
C3102 C3103 1.366 . S
C3102 C3104 1.388 . S
C3103 C3102 1.366 . S
C3103 C3107 1.385 . S
C3104 H3085 0.951 . S
C3104 C3102 1.388 . S
C3104 C3105 1.366 . S
C3105 C3104 1.366 . S
C3105 C3106 1.414 . S
C3105 C3108 1.499 . S
C3106 H3086 0.950 . S
C3106 C3105 1.414 . S
C3106 C3107 1.374 . S
C3107 H3087 0.950 . S
C3107 C3103 1.385 . S
C3107 C3106 1.374 . S
C3108 C3105 1.499 . S
C3108 C3109 1.373 . S
C3108 C3110 1.389 . S
C3109 H3088 0.950 . S
C3109 C3108 1.373 . S
C3109 C3125 1.377 . S
C3110 C3108 1.389 . S
C3110 C3111 1.524 . S
C3110 C3124 1.377 . S
C3111 C3110 1.524 . S
C3111 C3112 1.397 . S
C3111 C3116 1.363 . S
C3112 H3089 0.950 . S
C3112 C3111 1.397 . S
C3112 C3113 1.334 . S
C3113 H3090 0.950 . S
C3113 C3112 1.334 . S
C3113 C3114 1.287 . S
C3114 C3113 1.287 . S
C3114 C3115 1.524 . S
C3114 H3133 0.913 . S
C3115 H3091 0.950 . S
C3115 C3114 1.524 . S
C3115 C3116 1.415 . S
C3116 H3092 0.950 . S
C3116 C3111 1.363 . S
C3116 C3115 1.415 . S
C3117 H3093 0.951 . S
C3117 C3118 1.366 . S
C3117 C3119 1.388 . S
C3118 C3117 1.366 . S
C3118 C3122 1.385 . S
C3119 H3094 0.951 . S
C3119 C3117 1.388 . S
C3119 C3120 1.366 . S
C3120 C3119 1.366 . S
C3120 C3121 1.414 . S
C3120 C3123 1.499 . S
C3121 H3095 0.950 . S
C3121 C3120 1.414 . S
C3121 C3122 1.374 . S
C3122 H3096 0.950 . S
C3122 C3118 1.385 . S
C3122 C3121 1.374 . S
C3123 C3120 1.499 . S
C3123 C3124 1.373 . S
C3123 C3125 1.389 . S
C3124 H3097 0.950 . S
C3124 C3110 1.377 . S
C3124 C3123 1.373 . S
C3125 C3109 1.377 . S
C3125 C3123 1.389 . S
C3125 C3126 1.524 . S
C3126 C3125 1.524 . S
C3126 C3127 1.397 . S
C3126 C3131 1.363 . S
C3127 H3098 0.950 . S
C3127 C3126 1.397 . S
C3127 C3128 1.334 . S
C3128 H3099 0.950 . S
C3128 C3127 1.334 . S
C3128 C3129 1.287 . S
C3129 C3128 1.287 . S
C3129 C3130 1.524 . S
C3129 H3132 0.999 . S
C3130 H3100 0.950 . S
C3130 C3129 1.524 . S
C3130 C3131 1.415 . S
C3131 H3101 0.950 . S
C3131 C3126 1.363 . S
C3131 C3130 1.415 . S
H3132 C3129 0.999 . S
H3133 C3114 0.913 . S
H3134 C3152 0.951 . S
H3135 C3154 0.951 . S
H3136 C3156 0.950 . S
H3137 C3157 0.950 . S
H3138 C3159 0.950 . S
H3139 C3162 0.950 . S
H3140 C3163 0.950 . S
H3141 C3165 0.950 . S
H3142 C3166 0.950 . S
H3143 C3167 0.951 . S
H3144 C3169 0.951 . S
H3145 C3171 0.950 . S
H3146 C3172 0.950 . S
H3147 C3174 0.950 . S
H3148 C3177 0.950 . S
H3149 C3178 0.950 . S
H3150 C3180 0.950 . S
H3151 C3181 0.967 . S
C3152 H3134 0.951 . S
C3152 C3153 1.367 1_565 S
C3152 C3154 1.388 . S
C3153 C3152 1.367 1_545 S
C3153 C3157 1.382 . S
C3154 H3135 0.951 . S
C3154 C3152 1.388 . S
C3154 C3155 1.366 . S
C3155 C3154 1.366 . S
C3155 C3156 1.414 1_565 S
C3155 C3158 1.499 . S
C3156 H3136 0.950 . S
C3156 C3155 1.414 1_545 S
C3156 C3157 1.374 . S
C3157 H3137 0.950 . S
C3157 C3153 1.382 . S
C3157 C3156 1.374 . S
C3158 C3155 1.499 . S
C3158 C3159 1.373 . S
C3158 C3160 1.389 . S
C3159 H3138 0.950 . S
C3159 C3158 1.373 . S
C3159 C3175 1.377 . S
C3160 C3158 1.389 . S
C3160 C3161 1.524 . S
C3160 C3174 1.377 . S
C3161 C3160 1.524 . S
C3161 C3162 1.397 1_565 S
C3161 C3166 1.363 . S
C3162 H3139 0.950 . S
C3162 C3161 1.397 1_545 S
C3162 C3163 1.334 . S
C3163 H3140 0.950 . S
C3163 C3162 1.334 . S
C3163 C3164 1.287 . S
C3164 C3163 1.287 . S
C3164 C3165 1.524 1_545 S
C3164 H3183 0.913 . S
C3165 H3141 0.950 . S
C3165 C3164 1.524 1_565 S
C3165 C3166 1.415 . S
C3166 H3142 0.950 . S
C3166 C3161 1.363 . S
C3166 C3165 1.415 . S
C3167 H3143 0.951 . S
C3167 C3168 1.366 . S
C3167 C3169 1.388 . S
C3168 C3167 1.366 . S
C3168 C3172 1.385 . S
C3169 H3144 0.951 . S
C3169 C3167 1.388 . S
C3169 C3170 1.366 . S
C3170 C3169 1.366 . S
C3170 C3171 1.414 . S
C3170 C3173 1.499 . S
C3171 H3145 0.950 . S
C3171 C3170 1.414 . S
C3171 C3172 1.374 . S
C3172 H3146 0.950 . S
C3172 C3168 1.385 . S
C3172 C3171 1.374 . S
C3173 C3170 1.499 . S
C3173 C3174 1.373 . S
C3173 C3175 1.389 . S
C3174 H3147 0.950 . S
C3174 C3160 1.377 . S
C3174 C3173 1.373 . S
C3175 C3159 1.377 . S
C3175 C3173 1.389 . S
C3175 C3176 1.524 . S
C3176 C3175 1.524 . S
C3176 C3177 1.397 . S
C3176 C3181 1.363 . S
C3177 H3148 0.950 . S
C3177 C3176 1.397 . S
C3177 C3178 1.334 . S
C3178 H3149 0.950 . S
C3178 C3177 1.334 . S
C3178 C3179 1.287 . S
C3179 C3178 1.287 . S
C3179 C3180 1.524 . S
C3179 H3182 0.999 . S
C3180 H3150 0.950 . S
C3180 C3179 1.524 . S
C3180 C3181 1.415 . S
C3181 H3151 0.967 . S
C3181 C3176 1.363 . S
C3181 C3180 1.415 . S
H3182 C3179 0.999 . S
H3183 C3164 0.913 . S
H3184 C3202 0.951 . S
H3185 C3204 0.951 . S
H3186 C3206 0.950 . S
H3187 C3207 0.950 . S
H3188 C3209 0.950 . S
H3189 C3212 0.950 . S
H3190 C3213 0.950 . S
H3191 C3215 0.950 . S
H3192 C3216 0.950 . S
H3193 C3217 0.951 . S
H3194 C3219 0.951 . S
H3195 C3221 0.950 . S
H3196 C3222 0.950 . S
H3197 C3224 0.956 . S
H3198 C3227 0.950 . S
H3199 C3228 0.950 . S
H3200 C3230 0.950 . S
H3201 C3231 0.950 . S
C3202 H3184 0.951 . S
C3202 C3203 1.366 . S
C3202 C3204 1.388 . S
C3203 C3202 1.366 . S
C3203 C3207 1.385 . S
C3204 H3185 0.951 . S
C3204 C3202 1.388 . S
C3204 C3205 1.366 . S
C3205 C3204 1.366 . S
C3205 C3206 1.414 . S
C3205 C3208 1.499 . S
C3206 H3186 0.950 . S
C3206 C3205 1.414 . S
C3206 C3207 1.374 . S
C3207 H3187 0.950 . S
C3207 C3203 1.385 . S
C3207 C3206 1.374 . S
C3208 C3205 1.499 . S
C3208 C3209 1.373 . S
C3208 C3210 1.389 . S
C3209 H3188 0.950 . S
C3209 C3208 1.373 . S
C3209 C3225 1.377 . S
C3210 C3208 1.389 . S
C3210 C3211 1.524 1_455 S
C3210 C3224 1.373 1_455 S
C3211 C3210 1.524 1_655 S
C3211 C3212 1.397 . S
C3211 C3216 1.363 . S
C3212 H3189 0.950 . S
C3212 C3211 1.397 . S
C3212 C3213 1.334 . S
C3213 H3190 0.950 . S
C3213 C3212 1.334 . S
C3213 C3214 1.287 . S
C3214 C3213 1.287 . S
C3214 C3215 1.524 . S
C3214 H3233 0.913 . S
C3215 H3191 0.950 . S
C3215 C3214 1.524 . S
C3215 C3216 1.415 . S
C3216 H3192 0.950 . S
C3216 C3211 1.363 . S
C3216 C3215 1.415 . S
C3217 H3193 0.951 . S
C3217 C3218 1.363 . S
C3217 C3219 1.391 1_655 S
C3218 C3217 1.363 . S
C3218 C3222 1.385 1_655 S
C3219 H3194 0.951 . S
C3219 C3217 1.391 1_455 S
C3219 C3220 1.366 . S
C3220 C3219 1.366 . S
C3220 C3221 1.414 . S
C3220 C3223 1.499 . S
C3221 H3195 0.950 . S
C3221 C3220 1.414 . S
C3221 C3222 1.374 . S
C3222 H3196 0.950 . S
C3222 C3218 1.385 1_455 S
C3222 C3221 1.374 . S
C3223 C3220 1.499 . S
C3223 C3224 1.371 1_455 S
C3223 C3225 1.389 . S
C3224 H3197 0.956 . S
C3224 C3210 1.373 1_655 S
C3224 C3223 1.371 1_655 S
C3225 C3209 1.377 . S
C3225 C3223 1.389 . S
C3225 C3226 1.524 . S
C3226 C3225 1.524 . S
C3226 C3227 1.397 . S
C3226 C3231 1.363 . S
C3227 H3198 0.950 . S
C3227 C3226 1.397 . S
C3227 C3228 1.334 . S
C3228 H3199 0.950 . S
C3228 C3227 1.334 . S
C3228 C3229 1.287 . S
C3229 C3228 1.287 . S
C3229 C3230 1.524 . S
C3229 H3232 0.999 . S
C3230 H3200 0.950 . S
C3230 C3229 1.524 . S
C3230 C3231 1.415 . S
C3231 H3201 0.950 . S
C3231 C3226 1.363 . S
C3231 C3230 1.415 . S
H3232 C3229 0.999 . S
H3233 C3214 0.913 . S
H3234 C3252 0.951 . S
H3235 C3254 0.951 . S
H3236 C3256 0.950 . S
H3237 C3257 0.950 . S
H3238 C3259 0.950 . S
H3239 C3262 0.950 . S
H3240 C3263 0.950 . S
H3241 C3265 0.950 . S
H3242 C3266 0.950 . S
H3243 C3267 0.951 . S
H3244 C3269 0.951 . S
H3245 C3271 0.950 . S
H3246 C3272 0.950 . S
H3247 C3274 0.950 . S
H3248 C3277 0.950 . S
H3249 C3278 0.950 . S
H3250 C3280 0.950 . S
H3251 C3281 0.950 . S
C3252 H3234 0.951 . S
C3252 C3253 1.366 . S
C3252 C3254 1.388 . S
C3253 C3252 1.366 . S
C3253 C3257 1.385 . S
C3254 H3235 0.951 . S
C3254 C3252 1.388 . S
C3254 C3255 1.366 . S
C3255 C3254 1.366 . S
C3255 C3256 1.414 . S
C3255 C3258 1.499 . S
C3256 H3236 0.950 . S
C3256 C3255 1.414 . S
C3256 C3257 1.374 . S
C3257 H3237 0.950 . S
C3257 C3253 1.385 . S
C3257 C3256 1.374 . S
C3258 C3255 1.499 . S
C3258 C3259 1.373 . S
C3258 C3260 1.389 . S
C3259 H3238 0.950 . S
C3259 C3258 1.373 . S
C3259 C3275 1.377 . S
C3260 C3258 1.389 . S
C3260 C3261 1.524 . S
C3260 C3274 1.377 . S
C3261 C3260 1.524 . S
C3261 C3262 1.397 . S
C3261 C3266 1.363 . S
C3262 H3239 0.950 . S
C3262 C3261 1.397 . S
C3262 C3263 1.334 . S
C3263 H3240 0.950 . S
C3263 C3262 1.334 . S
C3263 C3264 1.287 . S
C3264 C3263 1.287 . S
C3264 C3265 1.524 . S
C3264 H3283 0.913 . S
C3265 H3241 0.950 . S
C3265 C3264 1.524 . S
C3265 C3266 1.415 . S
C3266 H3242 0.950 . S
C3266 C3261 1.363 . S
C3266 C3265 1.415 . S
C3267 H3243 0.951 . S
C3267 C3268 1.366 . S
C3267 C3269 1.388 . S
C3268 C3267 1.366 . S
C3268 C3272 1.385 . S
C3269 H3244 0.951 . S
C3269 C3267 1.388 . S
C3269 C3270 1.366 . S
C3270 C3269 1.366 . S
C3270 C3271 1.414 . S
C3270 C3273 1.499 . S
C3271 H3245 0.950 . S
C3271 C3270 1.414 . S
C3271 C3272 1.374 . S
C3272 H3246 0.950 . S
C3272 C3268 1.385 . S
C3272 C3271 1.374 . S
C3273 C3270 1.499 . S
C3273 C3274 1.373 . S
C3273 C3275 1.389 . S
C3274 H3247 0.950 . S
C3274 C3260 1.377 . S
C3274 C3273 1.373 . S
C3275 C3259 1.377 . S
C3275 C3273 1.389 . S
C3275 C3276 1.524 . S
C3276 C3275 1.524 . S
C3276 C3277 1.397 . S
C3276 C3281 1.363 . S
C3277 H3248 0.950 . S
C3277 C3276 1.397 . S
C3277 C3278 1.334 . S
C3278 H3249 0.950 . S
C3278 C3277 1.334 . S
C3278 C3279 1.287 . S
C3279 C3278 1.287 . S
C3279 C3280 1.524 . S
C3279 H3282 0.999 . S
C3280 H3250 0.950 . S
C3280 C3279 1.524 . S
C3280 C3281 1.415 . S
C3281 H3251 0.950 . S
C3281 C3276 1.363 . S
C3281 C3280 1.415 . S
H3282 C3279 0.999 . S
H3283 C3264 0.913 . S
H3284 C3302 0.951 . S
H3285 C3304 0.951 . S
H3286 C3306 0.950 . S
H3287 C3307 0.950 . S
H3288 C3309 0.950 . S
H3289 C3312 0.950 . S
H3290 C3313 0.950 . S
H3291 C3315 0.950 . S
H3292 C3316 0.950 . S
H3293 C3317 0.951 . S
H3294 C3319 0.951 . S
H3295 C3321 0.950 . S
H3296 C3322 0.950 . S
H3297 C3324 0.950 . S
H3298 C3327 0.950 . S
H3299 C3328 0.950 . S
H3300 C3330 0.950 . S
H3301 C3331 0.950 . S
C3302 H3284 0.951 . S
C3302 C3303 1.366 . S
C3302 C3304 1.388 . S
C3303 C3302 1.366 . S
C3303 C3307 1.385 . S
C3304 H3285 0.951 . S
C3304 C3302 1.388 . S
C3304 C3305 1.366 . S
C3305 C3304 1.366 . S
C3305 C3306 1.414 . S
C3305 C3308 1.499 . S
C3306 H3286 0.950 . S
C3306 C3305 1.414 . S
C3306 C3307 1.374 . S
C3307 H3287 0.950 . S
C3307 C3303 1.385 . S
C3307 C3306 1.374 . S
C3308 C3305 1.499 . S
C3308 C3309 1.373 . S
C3308 C3310 1.389 . S
C3309 H3288 0.950 . S
C3309 C3308 1.373 . S
C3309 C3325 1.377 . S
C3310 C3308 1.389 . S
C3310 C3311 1.524 . S
C3310 C3324 1.377 . S
C3311 C3310 1.524 . S
C3311 C3312 1.397 . S
C3311 C3316 1.363 . S
C3312 H3289 0.950 . S
C3312 C3311 1.397 . S
C3312 C3313 1.334 . S
C3313 H3290 0.950 . S
C3313 C3312 1.334 . S
C3313 C3314 1.287 . S
C3314 C3313 1.287 . S
C3314 C3315 1.524 . S
C3314 H3333 0.913 . S
C3315 H3291 0.950 . S
C3315 C3314 1.524 . S
C3315 C3316 1.415 . S
C3316 H3292 0.950 . S
C3316 C3311 1.363 . S
C3316 C3315 1.415 . S
C3317 H3293 0.951 . S
C3317 C3318 1.366 . S
C3317 C3319 1.388 . S
C3318 C3317 1.366 . S
C3318 C3322 1.385 . S
C3319 H3294 0.951 . S
C3319 C3317 1.388 . S
C3319 C3320 1.366 . S
C3320 C3319 1.366 . S
C3320 C3321 1.414 . S
C3320 C3323 1.499 . S
C3321 H3295 0.950 . S
C3321 C3320 1.414 . S
C3321 C3322 1.374 . S
C3322 H3296 0.950 . S
C3322 C3318 1.385 . S
C3322 C3321 1.374 . S
C3323 C3320 1.499 . S
C3323 C3324 1.373 . S
C3323 C3325 1.389 . S
C3324 H3297 0.950 . S
C3324 C3310 1.377 . S
C3324 C3323 1.373 . S
C3325 C3309 1.377 . S
C3325 C3323 1.389 . S
C3325 C3326 1.524 . S
C3326 C3325 1.524 . S
C3326 C3327 1.397 . S
C3326 C3331 1.363 . S
C3327 H3298 0.950 . S
C3327 C3326 1.397 . S
C3327 C3328 1.334 . S
C3328 H3299 0.950 . S
C3328 C3327 1.334 . S
C3328 C3329 1.287 . S
C3329 C3328 1.287 . S
C3329 C3330 1.524 . S
C3329 H3332 0.999 . S
C3330 H3300 0.950 . S
C3330 C3329 1.524 . S
C3330 C3331 1.415 . S
C3331 H3301 0.950 . S
C3331 C3326 1.363 . S
C3331 C3330 1.415 . S
H3332 C3329 0.999 . S
H3333 C3314 0.913 . S
H3334 C3352 0.951 . S
H3335 C3354 0.951 . S
H3336 C3356 0.950 . S
H3337 C3357 0.950 . S
H3338 C3359 0.950 . S
H3339 C3362 0.950 . S
H3340 C3363 0.950 . S
H3341 C3365 0.950 . S
H3342 C3366 0.950 . S
H3343 C3367 0.951 . S
H3344 C3369 0.951 . S
H3345 C3371 0.950 . S
H3346 C3372 0.950 . S
H3347 C3374 0.950 . S
H3348 C3377 0.950 . S
H3349 C3378 0.950 . S
H3350 C3380 0.950 . S
H3351 C3381 0.950 . S
C3352 H3334 0.951 . S
C3352 C3353 1.366 . S
C3352 C3354 1.388 . S
C3353 C3352 1.366 . S
C3353 C3357 1.385 . S
C3354 H3335 0.951 . S
C3354 C3352 1.388 . S
C3354 C3355 1.366 . S
C3355 C3354 1.366 . S
C3355 C3356 1.414 . S
C3355 C3358 1.499 . S
C3356 H3336 0.950 . S
C3356 C3355 1.414 . S
C3356 C3357 1.374 . S
C3357 H3337 0.950 . S
C3357 C3353 1.385 . S
C3357 C3356 1.374 . S
C3358 C3355 1.499 . S
C3358 C3359 1.373 . S
C3358 C3360 1.389 . S
C3359 H3338 0.950 . S
C3359 C3358 1.373 . S
C3359 C3375 1.377 . S
C3360 C3358 1.389 . S
C3360 C3361 1.524 . S
C3360 C3374 1.377 . S
C3361 C3360 1.524 . S
C3361 C3362 1.397 . S
C3361 C3366 1.363 . S
C3362 H3339 0.950 . S
C3362 C3361 1.397 . S
C3362 C3363 1.334 . S
C3363 H3340 0.950 . S
C3363 C3362 1.334 . S
C3363 C3364 1.287 . S
C3364 C3363 1.287 . S
C3364 C3365 1.524 . S
C3364 H3383 0.913 . S
C3365 H3341 0.950 . S
C3365 C3364 1.524 . S
C3365 C3366 1.415 . S
C3366 H3342 0.950 . S
C3366 C3361 1.363 . S
C3366 C3365 1.415 . S
C3367 H3343 0.951 . S
C3367 C3368 1.366 . S
C3367 C3369 1.388 . S
C3368 C3367 1.366 . S
C3368 C3372 1.385 . S
C3369 H3344 0.951 . S
C3369 C3367 1.388 . S
C3369 C3370 1.366 . S
C3370 C3369 1.366 . S
C3370 C3371 1.414 . S
C3370 C3373 1.499 . S
C3371 H3345 0.950 . S
C3371 C3370 1.414 . S
C3371 C3372 1.374 . S
C3372 H3346 0.950 . S
C3372 C3368 1.385 . S
C3372 C3371 1.374 . S
C3373 C3370 1.499 . S
C3373 C3374 1.373 . S
C3373 C3375 1.389 . S
C3374 H3347 0.950 . S
C3374 C3360 1.377 . S
C3374 C3373 1.373 . S
C3375 C3359 1.377 . S
C3375 C3373 1.389 . S
C3375 C3376 1.524 . S
C3376 C3375 1.524 . S
C3376 C3377 1.397 . S
C3376 C3381 1.363 . S
C3377 H3348 0.950 . S
C3377 C3376 1.397 . S
C3377 C3378 1.334 . S
C3378 H3349 0.950 . S
C3378 C3377 1.334 . S
C3378 C3379 1.287 . S
C3379 C3378 1.287 . S
C3379 C3380 1.524 . S
C3379 H3382 0.999 . S
C3380 H3350 0.950 . S
C3380 C3379 1.524 . S
C3380 C3381 1.415 . S
C3381 H3351 0.950 . S
C3381 C3376 1.363 . S
C3381 C3380 1.415 . S
H3382 C3379 0.999 . S
H3383 C3364 0.913 . S
C1603 C49 1.933 . S
C1618 C284 1.944 . S
C1653 C108 1.970 . S
C1668 C401 1.980 . S
C1703 C489 1.960 . S
C1718 C233 1.968 . S
C1753 C577 1.899 . S
C1768 C821 1.908 . S
C1803 C636 1.940 . S
C1818 C929 1.949 . S
C1853 C1017 1.888 . S
C1868 C761 1.893 . S
C1903 C1340 1.910 . S
C1918 C1105 1.896 . S
C1953 C1465 1.950 . S
C1968 C1173 1.938 . S
C2003 C1553 1.888 . S
C2018 C1281 1.893 . S
C2053 C29 2.382 . S
C2068 C849 2.376 . S
C2103 C145 2.387 . S
C2118 C900 2.387 . S
C2153 C1025 2.460 . S
C2168 C205 2.457 . S
C2203 C313 2.380 . S
C2218 C1085 2.380 . S
C2253 C372 2.386 . S
C2268 C1193 2.388 . S
C2303 C497 2.458 . S
C2318 C1252 2.458 . S
C2353 C557 2.428 . S
C2368 C1369 2.411 . S
C2403 C673 2.447 . S
C2418 C1437 2.444 . S
C2453 C1545 2.345 . S
C2468 C733 2.325 . S
C2503 C57 0.508 . S
C2518 C381 0.390 . S
C2553 C117 0.521 . S
C2568 C460 0.390 . S
C2603 C196 0.570 . S
C2618 C321 0.409 . S
C2653 C293 0.578 . S
C2668 C137 0.401 . S
C2703 C225 0.421 . S
C2718 C409 0.583 . S
C2753 C469 0.493 . S
C2768 C20 0.333 . S
C2803 C585 0.413 . S
C2818 C909 0.284 . S
C2853 C988 0.352 . S
C2868 C645 0.510 . S
C2903 C841 0.359 . S
C2918 C724 0.485 . S
C2953 C665 0.402 . S
C2968 C812 0.580 . S
C3003 C937 0.542 . S
C3018 C753 0.395 1_565 S
C3053 C997 0.528 . S
C3068 C548 0.370 . S
C3103 C1428 0.392 . S
C3118 C1113 0.510 . S
C3153 C1525 0.360 1_545 S
C3168 C1164 0.482 . S
C3203 C1261 0.603 . S
C3218 C1377 0.451 1_655 S
C3253 C1201 0.294 . S
C3268 C1349 0.483 . S
C3303 C1289 0.383 . S
C3318 C1457 0.575 . S
C3353 C1076 0.285 . S
C3368 C1516 0.410 . S
