# Generated by pormake.
# Topology yfw, (5)-cn, num edge types: 1
# Building blocks:
#     Node 0, Type 0, BuildingBlock: XOMCOT_clean_sbu_1, # of connection points: 5
#     Node 1, Type 0, BuildingBlock: XOMCOT_clean_sbu_1, # of connection points: 5
#     Node 2, Type 0, BuildingBlock: XOMCOT_clean_sbu_1, # of connection points: 5
#     Node 3, Type 0, BuildingBlock: XOMCOT_clean_sbu_1, # of connection points: 5
#     Node 4, Type 0, BuildingBlock: XOMCOT_clean_sbu_1, # of connection points: 5
#     Node 5, Type 0, BuildingBlock: XOMCOT_clean_sbu_1, # of connection points: 5
#     Node 6, Type 0, BuildingBlock: XOMCOT_clean_sbu_1, # of connection points: 5
#     Node 7, Type 0, BuildingBlock: XOMCOT_clean_sbu_1, # of connection points: 5
#     Node 8, Type 0, BuildingBlock: XOMCOT_clean_sbu_1, # of connection points: 5
#     Node 9, Type 0, BuildingBlock: XOMCOT_clean_sbu_1, # of connection points: 5
#     Node 10, Type 0, BuildingBlock: XOMCOT_clean_sbu_1, # of connection points: 5
#     Node 11, Type 0, BuildingBlock: XOMCOT_clean_sbu_1, # of connection points: 5
#     Node 12, Type 0, BuildingBlock: XOMCOT_clean_sbu_1, # of connection points: 5
#     Node 13, Type 0, BuildingBlock: XOMCOT_clean_sbu_1, # of connection points: 5
#     Node 14, Type 0, BuildingBlock: XOMCOT_clean_sbu_1, # of connection points: 5
#     Node 15, Type 0, BuildingBlock: XOMCOT_clean_sbu_1, # of connection points: 5
#     Edge 16, Type (0, 0), BuildingBlock: TEMPAE_clean_linker_10, # of connection points: 2
#     Edge 17, Type (0, 0), BuildingBlock: TEMPAE_clean_linker_10, # of connection points: 2
#     Edge 18, Type (0, 0), BuildingBlock: TEMPAE_clean_linker_10, # of connection points: 2
#     Edge 19, Type (0, 0), BuildingBlock: TEMPAE_clean_linker_10, # of connection points: 2
#     Edge 20, Type (0, 0), BuildingBlock: TEMPAE_clean_linker_10, # of connection points: 2
#     Edge 21, Type (0, 0), BuildingBlock: TEMPAE_clean_linker_10, # of connection points: 2
#     Edge 22, Type (0, 0), BuildingBlock: TEMPAE_clean_linker_10, # of connection points: 2
#     Edge 23, Type (0, 0), BuildingBlock: TEMPAE_clean_linker_10, # of connection points: 2
#     Edge 24, Type (0, 0), BuildingBlock: TEMPAE_clean_linker_10, # of connection points: 2
#     Edge 25, Type (0, 0), BuildingBlock: TEMPAE_clean_linker_10, # of connection points: 2
#     Edge 26, Type (0, 0), BuildingBlock: TEMPAE_clean_linker_10, # of connection points: 2
#     Edge 27, Type (0, 0), BuildingBlock: TEMPAE_clean_linker_10, # of connection points: 2
#     Edge 28, Type (0, 0), BuildingBlock: TEMPAE_clean_linker_10, # of connection points: 2
#     Edge 29, Type (0, 0), BuildingBlock: TEMPAE_clean_linker_10, # of connection points: 2
#     Edge 30, Type (0, 0), BuildingBlock: TEMPAE_clean_linker_10, # of connection points: 2
#     Edge 31, Type (0, 0), BuildingBlock: TEMPAE_clean_linker_10, # of connection points: 2
#     Edge 32, Type (0, 0), BuildingBlock: TEMPAE_clean_linker_10, # of connection points: 2
#     Edge 33, Type (0, 0), BuildingBlock: TEMPAE_clean_linker_10, # of connection points: 2
#     Edge 34, Type (0, 0), BuildingBlock: TEMPAE_clean_linker_10, # of connection points: 2
#     Edge 35, Type (0, 0), BuildingBlock: TEMPAE_clean_linker_10, # of connection points: 2
#     Edge 36, Type (0, 0), BuildingBlock: TEMPAE_clean_linker_10, # of connection points: 2
#     Edge 37, Type (0, 0), BuildingBlock: TEMPAE_clean_linker_10, # of connection points: 2
#     Edge 38, Type (0, 0), BuildingBlock: TEMPAE_clean_linker_10, # of connection points: 2
#     Edge 39, Type (0, 0), BuildingBlock: TEMPAE_clean_linker_10, # of connection points: 2
#     Edge 40, Type (0, 0), BuildingBlock: TEMPAE_clean_linker_10, # of connection points: 2
#     Edge 41, Type (0, 0), BuildingBlock: TEMPAE_clean_linker_10, # of connection points: 2
#     Edge 42, Type (0, 0), BuildingBlock: TEMPAE_clean_linker_10, # of connection points: 2
#     Edge 43, Type (0, 0), BuildingBlock: TEMPAE_clean_linker_10, # of connection points: 2
#     Edge 44, Type (0, 0), BuildingBlock: TEMPAE_clean_linker_10, # of connection points: 2
#     Edge 45, Type (0, 0), BuildingBlock: TEMPAE_clean_linker_10, # of connection points: 2
#     Edge 46, Type (0, 0), BuildingBlock: TEMPAE_clean_linker_10, # of connection points: 2
#     Edge 47, Type (0, 0), BuildingBlock: TEMPAE_clean_linker_10, # of connection points: 2
#     Edge 48, Type (0, 0), BuildingBlock: TEMPAE_clean_linker_10, # of connection points: 2
#     Edge 49, Type (0, 0), BuildingBlock: TEMPAE_clean_linker_10, # of connection points: 2
#     Edge 50, Type (0, 0), BuildingBlock: TEMPAE_clean_linker_10, # of connection points: 2
#     Edge 51, Type (0, 0), BuildingBlock: TEMPAE_clean_linker_10, # of connection points: 2
#     Edge 52, Type (0, 0), BuildingBlock: TEMPAE_clean_linker_10, # of connection points: 2
#     Edge 53, Type (0, 0), BuildingBlock: TEMPAE_clean_linker_10, # of connection points: 2
#     Edge 54, Type (0, 0), BuildingBlock: TEMPAE_clean_linker_10, # of connection points: 2
#     Edge 55, Type (0, 0), BuildingBlock: TEMPAE_clean_linker_10, # of connection points: 2
# Relax obj value: 0.116
# Max RMSD: 0.160
# Mean RMSD: 0.160
data_MOF--net-yfw--node1-XOMCOT_clean_sbu_1--edge1-TEMPAE_clean_linker_10
_symmetry_space_group_name_H-M    P1
_symmetry_Int_Tables_number       1
_symmetry_cell_setting            triclinic
loop_
_symmetry_equiv_pos_as_xyz
'x, y, z'
_cell_length_a     57.87167
_cell_length_b     57.846727
_cell_length_c     25.502804
_cell_angle_alpha  89.991631
_cell_angle_beta   90.016547
_cell_angle_gamma 89.899928
loop_
_atom_site_label
_atom_site_type_symbol
_atom_site_fract_x
_atom_site_fract_y
_atom_site_fract_z
_atom_type_partial_charge
C0 C 0.08344 0.092 0.95864 0.0
C1 C 0.06272 0.08061 0.95443 0.0
N2 N 0.06445 0.06037 0.9804 0.0
N3 N 0.09806 0.07909 0.98752 0.0
C4 C 0.08613 0.05988 0.99996 0.0
H5 H 0.08768 0.1086 0.94169 0.0
Co6 Co 0.12829 0.08657 1.00217 0.0
C7 C 0.13233 0.07251 0.11503 0.0
O8 O 0.13813 0.09358 0.12851 0.0
N9 N 0.1598 0.09435 0.01604 0.0
C10 C 0.19196 0.11224 0.04256 0.0
C11 C 0.16848 0.11078 0.04851 0.0
C12 C 0.17881 0.08586 0.99157 0.0
N13 N 0.19837 0.09653 0.00677 0.0
O14 O 0.13752 0.05991 0.96224 0.0
H15 H 0.15853 0.12195 0.0738 0.0
H16 H 0.1785 0.07289 0.96116 0.0
O17 O 0.1277 0.06769 0.0671 0.0
C18 C 0.1386 0.0646 0.91336 0.0
O19 O 0.13603 0.08621 0.89855 0.0
N20 N 0.11764 0.11355 0.03543 0.0
C21 C 0.1001 0.15595 0.06965 0.0
C22 C 0.09232 0.13513 0.09182 0.0
C23 C 0.10101 0.11406 0.07345 0.0
C24 C 0.124 0.13345 0.01078 0.0
C25 C 0.116 0.15483 0.02816 0.0
H26 H 0.0941 0.09814 0.08913 0.0
H27 H 0.13574 0.13269 0.97781 0.0
H28 H 0.09344 0.04556 0.02166 0.0
H29 H 0.04754 0.08687 0.93405 0.0
H30 H 0.20338 0.12439 0.06177 0.0
H31 H 0.07937 0.13507 0.12244 0.0
H32 H 0.12253 0.17031 0.00954 0.0
C33 C 0.9059 0.60074 0.21974 0.0
C34 C 0.91421 0.5785 0.21766 0.0
N35 N 0.93602 0.57825 0.23668 0.0
N36 N 0.9223 0.61456 0.23993 0.0
C37 C 0.9404 0.60051 0.24983 0.0
H38 H 0.88914 0.60661 0.20646 0.0
Co39 Co 0.91996 0.64631 0.24744 0.0
C40 C 0.96007 0.65705 0.31459 0.0
O41 O 0.96743 0.67169 0.27893 0.0
N42 N 0.91726 0.67821 0.25438 0.0
C43 C 0.91387 0.71373 0.2866 0.0
C44 C 0.9176 0.69089 0.29885 0.0
C45 C 0.91271 0.69355 0.21587 0.0
N46 N 0.91069 0.71529 0.23446 0.0
O47 O 0.94451 0.65002 0.19684 0.0
H48 H 0.91986 0.68392 0.33787 0.0
H49 H 0.91064 0.68883 0.17508 0.0
O50 O 0.94168 0.64548 0.30613 0.0
C51 C 0.93795 0.64626 0.1498 0.0
O52 O 0.91603 0.64169 0.14133 0.0
N53 N 0.89504 0.64223 0.29301 0.0
C54 C 0.85448 0.63176 0.34656 0.0
C55 C 0.87584 0.62338 0.36445 0.0
C56 C 0.89602 0.62887 0.33709 0.0
C57 C 0.87448 0.65079 0.27555 0.0
C58 C 0.85399 0.64602 0.30216 0.0
H59 H 0.9122 0.62138 0.34979 0.0
H60 H 0.87388 0.66067 0.23957 0.0
H61 H 0.95652 0.60675 0.26572 0.0
H62 H 0.90492 0.56388 0.20185 0.0
H63 H 0.91273 0.72798 0.31401 0.0
H64 H 0.87685 0.61224 0.39851 0.0
H65 H 0.83779 0.65248 0.28665 0.0
C66 C 0.4197 0.40735 0.44254 0.0
C67 C 0.44083 0.41801 0.44354 0.0
N68 N 0.439 0.43767 0.47179 0.0
N69 N 0.40445 0.4201 0.46989 0.0
C70 C 0.4166 0.4385 0.48721 0.0
H71 H 0.41551 0.39157 0.42193 0.0
Co72 Co 0.37341 0.41267 0.47434 0.0
C73 C 0.35627 0.43225 0.57527 0.0
O74 O 0.34271 0.41431 0.5811 0.0
N75 N 0.34133 0.40463 0.47676 0.0
C76 C 0.30779 0.38658 0.49062 0.0
C77 C 0.33122 0.38559 0.4977 0.0
C78 C 0.32325 0.41674 0.45662 0.0
N79 N 0.30277 0.40615 0.46474 0.0
O80 O 0.36674 0.43755 0.42668 0.0
H81 H 0.33984 0.37194 0.51878 0.0
H82 H 0.32487 0.43313 0.43662 0.0
O83 O 0.3696 0.43358 0.53523 0.0
C84 C 0.36959 0.43093 0.37941 0.0
O85 O 0.375 0.40916 0.37102 0.0
N86 N 0.38158 0.38735 0.51633 0.0
C87 C 0.39547 0.34647 0.56475 0.0
C88 C 0.39718 0.36765 0.59128 0.0
C89 C 0.39037 0.38805 0.56605 0.0
C90 C 0.38162 0.36716 0.48877 0.0
C91 C 0.38794 0.34643 0.51259 0.0
H92 H 0.39262 0.40429 0.5862 0.0
H93 H 0.37603 0.36716 0.44828 0.0
H94 H 0.40901 0.45233 0.5099 0.0
H95 H 0.45608 0.41199 0.42318 0.0
H96 H 0.29542 0.37364 0.50278 0.0
H97 H 0.40347 0.36838 0.63125 0.0
H98 H 0.38701 0.3305 0.49036 0.0
C99 C 0.58288 0.90221 0.68148 0.0
C100 C 0.57424 0.92422 0.67492 0.0
N101 N 0.55604 0.92683 0.70732 0.0
N102 N 0.57014 0.89109 0.71779 0.0
C103 C 0.55382 0.90645 0.73251 0.0
H104 H 0.59746 0.89471 0.66105 0.0
Co105 Co 0.57393 0.86055 0.73887 0.0
C106 C 0.55969 0.86972 0.85194 0.0
O107 O 0.58097 0.87035 0.86946 0.0
N108 N 0.57715 0.8293 0.75886 0.0
C109 C 0.58558 0.79695 0.80234 0.0
C110 C 0.58201 0.82034 0.80665 0.0
C111 C 0.57752 0.81082 0.72638 0.0
N112 N 0.58265 0.79108 0.75188 0.0
O113 O 0.54638 0.85319 0.70089 0.0
H114 H 0.58434 0.8301 0.84211 0.0
H115 H 0.57548 0.81188 0.68434 0.0
O116 O 0.55546 0.86601 0.80328 0.0
C117 C 0.55128 0.85069 0.65244 0.0
O118 O 0.57309 0.85176 0.63819 0.0
N119 N 0.60258 0.86827 0.7708 0.0
C120 C 0.64669 0.87945 0.8065 0.0
C121 C 0.62844 0.8951 0.81238 0.0
C122 C 0.60656 0.8893 0.79374 0.0
C123 C 0.62072 0.85363 0.76168 0.0
C124 C 0.64275 0.85855 0.78062 0.0
H125 H 0.59268 0.90158 0.79902 0.0
H126 H 0.61839 0.83812 0.73874 0.0
H127 H 0.54021 0.90265 0.76027 0.0
H128 H 0.58089 0.93732 0.64864 0.0
H129 H 0.59071 0.78526 0.83342 0.0
H130 H 0.63103 0.9116 0.83158 0.0
H131 H 0.65674 0.84646 0.77371 0.0
C132 C 0.91639 0.09064 0.42123 0.0
C133 C 0.93823 0.08118 0.41951 0.0
N134 N 0.93861 0.06261 0.45137 0.0
N135 N 0.90312 0.07799 0.45375 0.0
C136 C 0.91714 0.06103 0.47155 0.0
H137 H 0.91044 0.10563 0.39972 0.0
Co138 Co 0.872 0.08304 0.46641 0.0
C139 C 0.86038 0.04671 0.54199 0.0
O140 O 0.84317 0.04051 0.51151 0.0
N141 N 0.84048 0.08846 0.47915 0.0
C142 C 0.80791 0.09894 0.51922 0.0
C143 C 0.83118 0.095 0.52551 0.0
C144 C 0.82245 0.08835 0.44538 0.0
N145 N 0.80257 0.09462 0.46896 0.0
O146 O 0.86494 0.05727 0.42207 0.0
H147 H 0.84079 0.09711 0.56156 0.0
H148 H 0.82383 0.08437 0.40409 0.0
O149 O 0.87342 0.06341 0.52825 0.0
C150 C 0.86453 0.06335 0.37402 0.0
O151 O 0.8673 0.08534 0.36272 0.0
N152 N 0.87948 0.10919 0.50521 0.0
C153 C 0.88974 0.15158 0.55144 0.0
C154 C 0.89547 0.13073 0.57675 0.0
C155 C 0.89035 0.10962 0.55268 0.0
C156 C 0.87421 0.12915 0.47964 0.0
C157 C 0.87915 0.15053 0.50201 0.0
H158 H 0.89524 0.09376 0.57211 0.0
H159 H 0.86617 0.12838 0.44138 0.0
H160 H 0.9116 0.04734 0.49756 0.0
H161 H 0.9527 0.08747 0.39675 0.0
H162 H 0.79585 0.10462 0.54901 0.0
H163 H 0.90362 0.1307 0.61497 0.0
H164 H 0.87494 0.16609 0.48039 0.0
C165 C 0.91144 0.41953 0.70242 0.0
C166 C 0.9198 0.44171 0.69932 0.0
N167 N 0.94125 0.44214 0.72021 0.0
N168 N 0.92748 0.40595 0.72505 0.0
C169 C 0.9454 0.4201 0.73549 0.0
H170 H 0.89496 0.41352 0.68782 0.0
Co171 Co 0.92522 0.37425 0.73408 0.0
C172 C 0.9636 0.36382 0.80558 0.0
O173 O 0.97088 0.34833 0.77168 0.0
N174 N 0.92257 0.34242 0.7432 0.0
C175 C 0.91756 0.3081 0.7802 0.0
C176 C 0.9203 0.33128 0.78938 0.0
C177 C 0.92084 0.32573 0.70644 0.0
N178 N 0.91777 0.30456 0.72795 0.0
O179 O 0.95095 0.37003 0.68682 0.0
H180 H 0.92034 0.33953 0.82743 0.0
H181 H 0.92109 0.32921 0.66476 0.0
O182 O 0.94572 0.37591 0.79499 0.0
C183 C 0.94593 0.37426 0.63902 0.0
O184 O 0.92456 0.37986 0.62706 0.0
N185 N 0.89911 0.37863 0.77568 0.0
C186 C 0.85657 0.3856 0.82461 0.0
C187 C 0.87726 0.39227 0.84932 0.0
C188 C 0.89843 0.38878 0.82395 0.0
C189 C 0.8793 0.37215 0.75105 0.0
C190 C 0.85787 0.37544 0.77474 0.0
H191 H 0.91411 0.39456 0.84277 0.0
H192 H 0.88019 0.36469 0.7122 0.0
H193 H 0.96126 0.41414 0.75334 0.0
H194 H 0.9109 0.45613 0.68138 0.0
H195 H 0.91556 0.29491 0.80994 0.0
H196 H 0.87711 0.4001 0.88788 0.0
H197 H 0.84242 0.37052 0.75355 0.0
C198 C 0.58623 0.40128 0.98596 0.0
C199 C 0.56421 0.41005 0.9812 0.0
N200 N 0.56476 0.43281 0.99266 0.0
N201 N 0.60062 0.41837 1.00066 0.0
C202 C 0.58708 0.43735 1.00444 0.0
H203 H 0.5915 0.38365 0.97836 0.0
Co204 Co 0.63259 0.41627 0.00843 0.0
C205 C 0.64273 0.45499 0.07812 0.0
O206 O 0.6575 0.46244 0.04285 0.0
N207 N 0.66462 0.41407 0.01646 0.0
C208 C 0.69916 0.40963 0.05288 0.0
C209 C 0.676 0.41217 0.06245 0.0
C210 C 0.68121 0.41236 0.97939 0.0
N211 N 0.70251 0.40959 1.00057 0.0
O212 O 0.63619 0.4418 0.96094 0.0
H213 H 0.6679 0.41229 0.10067 0.0
H214 H 0.67758 0.4124 0.93777 0.0
O215 O 0.63099 0.43677 0.06902 0.0
C216 C 0.63093 0.43703 0.91361 0.0
O217 O 0.62428 0.41595 0.90189 0.0
N218 N 0.62898 0.3902 0.05064 0.0
C219 C 0.62206 0.34753 0.09905 0.0
C220 C 0.61306 0.36793 0.1212 0.0
C221 C 0.61672 0.3892 0.09628 0.0
C222 C 0.63805 0.37069 0.02899 0.0
C223 C 0.63514 0.34928 0.05292 0.0
H224 H 0.60894 0.40464 0.1124 0.0
H225 H 0.64728 0.37173 0.9922 0.0
H226 H 0.59371 0.45435 0.0137 0.0
H227 H 0.54901 0.40037 0.96996 0.0
H228 H 0.71248 0.40792 0.08243 0.0
H229 H 0.60252 0.3674 0.15624 0.0
H230 H 0.64277 0.33417 0.03475 0.0
C231 C 0.58564 0.0751 0.22584 0.0
C232 C 0.57746 0.05272 0.22638 0.0
N233 N 0.55562 0.05297 0.24489 0.0
N234 N 0.56906 0.08932 0.24423 0.0
C235 C 0.55104 0.07539 0.25537 0.0
H236 H 0.60234 0.08072 0.21176 0.0
Co237 Co 0.56886 0.12138 0.24686 0.0
C238 C 0.55362 0.13262 0.35384 0.0
O239 O 0.57082 0.14742 0.35553 0.0
N240 N 0.5673 0.15426 0.24808 0.0
C241 C 0.54969 0.18847 0.25403 0.0
C242 C 0.54737 0.16516 0.26075 0.0
C243 C 0.58123 0.17165 0.23144 0.0
N244 N 0.57096 0.19267 0.23512 0.0
O245 O 0.54168 0.12137 0.204 0.0
H246 H 0.53167 0.1566 0.27287 0.0
H247 H 0.59795 0.1691 0.21388 0.0
O248 O 0.55053 0.12035 0.31251 0.0
C249 C 0.5479 0.12401 0.1564 0.0
O250 O 0.57004 0.12646 0.14638 0.0
N251 N 0.59712 0.12053 0.2841 0.0
C252 C 0.64187 0.11473 0.32454 0.0
C253 C 0.62258 0.10529 0.3503 0.0
C254 C 0.60044 0.10815 0.32917 0.0
C255 C 0.61573 0.12853 0.25702 0.0
C256 C 0.63804 0.12664 0.2773 0.0
H257 H 0.58614 0.09942 0.34781 0.0
H258 H 0.61349 0.13527 0.21796 0.0
H259 H 0.53444 0.0818 0.26846 0.0
H260 H 0.5868 0.03754 0.21342 0.0
H261 H 0.53642 0.20122 0.26167 0.0
H262 H 0.62454 0.09492 0.38536 0.0
H263 H 0.65215 0.13405 0.25517 0.0
C264 C 0.59181 0.58042 0.46269 0.0
C265 C 0.56944 0.57267 0.45774 0.0
N266 N 0.56764 0.55249 0.48376 0.0
N267 N 0.60398 0.56513 0.49155 0.0
C268 C 0.58882 0.54826 0.5037 0.0
H269 H 0.59893 0.59597 0.44561 0.0
Co270 Co 0.63552 0.56655 0.50517 0.0
C271 C 0.63627 0.55108 0.61619 0.0
O272 O 0.6466 0.57048 0.62907 0.0
N273 N 0.66787 0.56737 0.51607 0.0
C274 C 0.70413 0.55958 0.54 0.0
C275 C 0.68128 0.55452 0.54845 0.0
C276 C 0.68329 0.57883 0.48581 0.0
N277 N 0.70535 0.57494 0.50064 0.0
O278 O 0.63978 0.54009 0.4609 0.0
H279 H 0.67533 0.54121 0.57471 0.0
H280 H 0.67844 0.58967 0.45301 0.0
O281 O 0.63151 0.54676 0.56803 0.0
C282 C 0.63942 0.5468 0.41326 0.0
O283 O 0.63819 0.56912 0.40388 0.0
N284 N 0.63049 0.5941 0.54488 0.0
C285 C 0.61951 0.63664 0.59176 0.0
C286 C 0.60618 0.61688 0.60166 0.0
C287 C 0.61191 0.5959 0.57793 0.0
C288 C 0.64317 0.61334 0.53369 0.0
C289 C 0.63844 0.63448 0.55772 0.0
H290 H 0.60103 0.5811 0.5855 0.0
H291 H 0.65654 0.61289 0.50463 0.0
H292 H 0.59341 0.53274 0.52501 0.0
H293 H 0.55563 0.58109 0.43635 0.0
H294 H 0.71878 0.55177 0.55963 0.0
H295 H 0.59096 0.61762 0.62626 0.0
H296 H 0.64942 0.64907 0.54871 0.0
C297 C 0.41243 0.07799 0.70464 0.0
C298 C 0.42297 0.05683 0.70007 0.0
N299 N 0.4432 0.05748 0.72633 0.0
N300 N 0.42583 0.09196 0.73383 0.0
C301 C 0.44452 0.07911 0.74633 0.0
H302 H 0.39631 0.08316 0.68662 0.0
Co303 Co 0.41905 0.12275 0.74509 0.0
C304 C 0.43641 0.13305 0.85248 0.0
O305 O 0.41712 0.14402 0.86272 0.0
N306 N 0.41161 0.15499 0.75431 0.0
C307 C 0.39363 0.188 0.77477 0.0
C308 C 0.39402 0.16458 0.78195 0.0
C309 C 0.42155 0.17349 0.73044 0.0
N310 N 0.4109 0.19368 0.74214 0.0
O311 O 0.44476 0.1304 0.70156 0.0
H312 H 0.38194 0.15546 0.8066 0.0
H313 H 0.43616 0.17233 0.70427 0.0
O314 O 0.43928 0.12333 0.80779 0.0
C315 C 0.43951 0.13116 0.65305 0.0
O316 O 0.41766 0.12943 0.6396 0.0
N317 N 0.39312 0.11348 0.78349 0.0
C318 C 0.35207 0.09879 0.82995 0.0
C319 C 0.37357 0.0928 0.85175 0.0
C320 C 0.39393 0.10009 0.82754 0.0
C321 C 0.37259 0.1175 0.75899 0.0
C322 C 0.35184 0.11101 0.78233 0.0
H323 H 0.41029 0.0946 0.8437 0.0
H324 H 0.37235 0.12666 0.72199 0.0
H325 H 0.45894 0.08564 0.76886 0.0
H326 H 0.41656 0.04241 0.67733 0.0
H327 H 0.38091 0.19978 0.79077 0.0
H328 H 0.37473 0.08238 0.88693 0.0
H329 H 0.33584 0.1161 0.7636 0.0
C330 C 0.91557 0.91443 0.96676 0.0
C331 C 0.93806 0.9212 0.97494 0.0
N332 N 0.93803 0.94379 0.988 0.0
N333 N 0.90146 0.93263 0.97506 0.0
C334 C 0.9156 0.95022 0.98772 0.0
H335 H 0.90995 0.89746 0.95444 0.0
Co336 Co 0.86979 0.93435 0.96635 0.0
C337 C 0.85217 0.95517 0.06452 0.0
O338 O 0.83508 0.94023 0.06339 0.0
N339 N 0.83775 0.93682 0.9561 0.0
C340 C 0.80347 0.95398 0.9474 0.0
C341 C 0.82646 0.95733 0.95757 0.0
C342 C 0.82125 0.92136 0.94281 0.0
N343 N 0.8003 0.93138 0.93808 0.0
O344 O 0.87361 0.96039 0.92044 0.0
H345 H 0.83452 0.97382 0.96555 0.0
H346 H 0.82422 0.90319 0.93617 0.0
O347 O 0.86753 0.95477 0.02829 0.0
C348 C 0.87858 0.95399 0.87396 0.0
O349 O 0.88159 0.9318 0.8651 0.0
N350 N 0.86686 0.9074 0.00737 0.0
C351 C 0.87061 0.86387 0.05371 0.0
C352 C 0.87459 0.8839 0.08311 0.0
C353 C 0.87334 0.90549 0.0588 0.0
C354 C 0.86333 0.88798 0.97819 0.0
C355 C 0.86489 0.86603 1.00063 0.0
H356 H 0.87915 0.92032 0.08068 0.0
H357 H 0.86077 0.88946 0.93633 0.0
H358 H 0.90953 0.96769 0.99414 0.0
H359 H 0.95321 0.91039 0.9707 0.0
H360 H 0.7902 0.96717 0.94545 0.0
H361 H 0.88011 0.88278 0.12363 0.0
H362 H 0.86244 0.85088 0.97632 0.0
C363 C 0.08106 0.42938 0.19136 0.0
C364 C 0.06963 0.45016 0.18847 0.0
N365 N 0.04995 0.44839 0.21628 0.0
N366 N 0.06858 0.41458 0.22073 0.0
C367 C 0.0497 0.42666 0.23557 0.0
H368 H 0.0972 0.42508 0.17231 0.0
Co369 Co 0.07632 0.38381 0.23021 0.0
C370 C 0.06058 0.37512 0.34081 0.0
O371 O 0.08111 0.36754 0.35403 0.0
N372 N 0.0846 0.35197 0.23857 0.0
C373 C 0.10344 0.31963 0.26041 0.0
C374 C 0.10114 0.34278 0.27004 0.0
C375 C 0.07706 0.33356 0.21033 0.0
N376 N 0.08836 0.31387 0.22271 0.0
O377 O 0.05041 0.37548 0.18655 0.0
H378 H 0.1118 0.3522 0.29739 0.0
H379 H 0.06434 0.33457 0.17939 0.0
O380 O 0.05666 0.38217 0.29397 0.0
C381 C 0.0567 0.37784 0.13882 0.0
O382 O 0.07846 0.38288 0.1296 0.0
N383 N 0.10282 0.39343 0.26649 0.0
C384 C 0.1457 0.40605 0.30703 0.0
C385 C 0.1252 0.41281 0.33237 0.0
C386 C 0.10379 0.40677 0.31063 0.0
C387 C 0.12242 0.38889 0.23875 0.0
C388 C 0.14403 0.39468 0.25865 0.0
H389 H 0.08811 0.4126 0.32944 0.0
H390 H 0.12123 0.38003 0.20149 0.0
H391 H 0.03564 0.41945 0.25822 0.0
H392 H 0.07526 0.46536 0.16728 0.0
H393 H 0.1157 0.30801 0.27874 0.0
H394 H 0.12568 0.4222 0.36908 0.0
H395 H 0.15932 0.39006 0.23649 0.0
C396 C 0.41115 0.57563 0.94662 0.0
C397 C 0.43322 0.56672 0.94551 0.0
N398 N 0.43265 0.545 0.96473 0.0
N399 N 0.39674 0.55966 0.96667 0.0
C400 C 0.41026 0.54117 0.97707 0.0
H401 H 0.4059 0.59266 0.9337 0.0
Co402 Co 0.36504 0.5627 0.97558 0.0
C403 C 0.35417 0.52492 0.04762 0.0
O404 O 0.33858 0.5179 0.01373 0.0
N405 N 0.33305 0.56595 0.98474 0.0
C406 C 0.29951 0.57466 0.02245 0.0
C407 C 0.3224 0.56973 0.03112 0.0
C408 C 0.31622 0.5685 0.9484 0.0
N409 N 0.2957 0.57385 0.9705 0.0
O410 O 0.36063 0.53693 0.92922 0.0
H411 H 0.33098 0.56998 0.0688 0.0
H412 H 0.31913 0.56782 0.90655 0.0
O413 O 0.36644 0.54264 0.03708 0.0
C414 C 0.36098 0.54326 0.88132 0.0
O415 O 0.36319 0.5654 0.87086 0.0
N416 N 0.36968 0.58908 0.01638 0.0
C417 C 0.37625 0.63188 0.06469 0.0
C418 C 0.38518 0.6115 0.08721 0.0
C419 C 0.3817 0.59018 0.06233 0.0
C420 C 0.36104 0.60861 0.99386 0.0
C421 C 0.36376 0.63007 0.01771 0.0
H422 H 0.38917 0.57472 0.07913 0.0
H423 H 0.35199 0.60748 0.95684 0.0
H424 H 0.40368 0.52503 0.99234 0.0
H425 H 0.44851 0.57568 0.93205 0.0
H426 H 0.28677 0.57916 0.05183 0.0
H427 H 0.39534 0.61205 0.12283 0.0
H428 H 0.35621 0.64512 0.99912 0.0
C429 C 0.40902 0.90287 0.22569 0.0
C430 C 0.41756 0.92509 0.22747 0.0
N431 N 0.43971 0.9242 0.24394 0.0
N432 N 0.42567 0.88808 0.24129 0.0
C433 C 0.4441 0.90155 0.25205 0.0
H434 H 0.392 0.89775 0.21264 0.0
Co435 Co 0.4253 0.85588 0.24077 0.0
C436 C 0.44135 0.84294 0.34624 0.0
O437 O 0.42413 0.82814 0.34741 0.0
N438 N 0.42629 0.82306 0.23836 0.0
C439 C 0.44354 0.78858 0.23973 0.0
C440 C 0.44588 0.81152 0.25088 0.0
C441 C 0.41264 0.8065 0.21681 0.0
N442 N 0.42269 0.78529 0.21771 0.0
O443 O 0.45195 0.85616 0.19634 0.0
H444 H 0.46155 0.81944 0.26527 0.0
H445 H 0.39649 0.80995 0.19726 0.0
O446 O 0.44441 0.85553 0.30537 0.0
C447 C 0.44582 0.86045 0.1493 0.0
O448 O 0.42373 0.86351 0.13934 0.0
N449 N 0.39762 0.85664 0.28057 0.0
C450 C 0.35444 0.86599 0.32482 0.0
C451 C 0.37465 0.8741 0.34853 0.0
C452 C 0.39602 0.86948 0.32555 0.0
C453 C 0.37797 0.84908 0.2565 0.0
C454 C 0.35622 0.853 0.27871 0.0
H455 H 0.4111 0.87764 0.34218 0.0
H456 H 0.37886 0.84168 0.21785 0.0
H457 H 0.46081 0.89467 0.26307 0.0
H458 H 0.40825 0.94062 0.21672 0.0
H459 H 0.4566 0.77549 0.24617 0.0
H460 H 0.37386 0.88475 0.38343 0.0
H461 H 0.34086 0.84733 0.25815 0.0
C462 C 0.09249 0.92127 0.47787 0.0
C463 C 0.07041 0.9299 0.47477 0.0
N464 N 0.07023 0.95156 0.49458 0.0
N465 N 0.10628 0.9373 0.49973 0.0
C466 C 0.09234 0.95551 0.50956 0.0
H467 H 0.09838 0.90475 0.46312 0.0
Co468 Co 0.13827 0.93543 0.50436 0.0
C469 C 0.14746 0.95056 0.6135 0.0
O470 O 0.16011 0.93183 0.6192 0.0
N471 N 0.17098 0.9341 0.50585 0.0
C472 C 0.20814 0.94303 0.51741 0.0
C473 C 0.1858 0.94879 0.52986 0.0
C474 C 0.18493 0.92093 0.4753 0.0
N475 N 0.20753 0.92545 0.48313 0.0
O476 O 0.14063 0.96233 0.46037 0.0
H477 H 0.18093 0.96367 0.55288 0.0
H478 H 0.17873 0.90887 0.44617 0.0
O479 O 0.13773 0.95467 0.56916 0.0
C480 C 0.13613 0.95767 0.41254 0.0
O481 O 0.13134 0.93621 0.39969 0.0
N482 N 0.13503 0.90767 0.5443 0.0
C483 C 0.1248 0.86492 0.59116 0.0
C484 C 0.11443 0.88541 0.60905 0.0
C485 C 0.11968 0.90649 0.58507 0.0
C486 C 0.14472 0.88781 0.5256 0.0
C487 C 0.14045 0.8665 0.54929 0.0
H488 H 0.11053 0.92178 0.59791 0.0
H489 H 0.15485 0.88794 0.49046 0.0
H490 H 0.09864 0.97158 0.52569 0.0
H491 H 0.05596 0.92114 0.45673 0.0
H492 H 0.22362 0.95181 0.53047 0.0
H493 H 0.10159 0.88519 0.63989 0.0
H494 H 0.14898 0.85132 0.5337 0.0
C495 C 0.07964 0.59878 0.69136 0.0
C496 C 0.06986 0.57738 0.6839 0.0
N497 N 0.05027 0.57641 0.7123 0.0
N498 N 0.06624 0.61119 0.72423 0.0
C499 C 0.04842 0.59712 0.73625 0.0
H500 H 0.09541 0.60505 0.67361 0.0
Co501 Co 0.07119 0.64193 0.74261 0.0
C502 C 0.05382 0.63618 0.85467 0.0
O503 O 0.07474 0.63498 0.8742 0.0
N504 N 0.07576 0.67334 0.75944 0.0
C505 C 0.08497 0.70624 0.79979 0.0
C506 C 0.08028 0.68316 0.80651 0.0
C507 C 0.07751 0.69101 0.72487 0.0
N508 N 0.08305 0.71107 0.74853 0.0
O509 O 0.04506 0.65016 0.6991 0.0
H510 H 0.08156 0.67413 0.84324 0.0
H511 H 0.07596 0.68906 0.68285 0.0
O512 O 0.05065 0.63889 0.80519 0.0
C513 C 0.05166 0.64951 0.65129 0.0
O514 O 0.07378 0.64637 0.64186 0.0
N515 N 0.09865 0.63309 0.77941 0.0
C516 C 0.14196 0.61846 0.81685 0.0
C517 C 0.12222 0.60468 0.8234 0.0
C518 C 0.10088 0.61219 0.8042 0.0
C519 C 0.11791 0.64617 0.77068 0.0
C520 C 0.13944 0.63958 0.79033 0.0
H521 H 0.08607 0.60106 0.80936 0.0
H522 H 0.11694 0.66164 0.74709 0.0
H523 H 0.03403 0.60216 0.76083 0.0
H524 H 0.07662 0.5636 0.65962 0.0
H525 H 0.09014 0.7184 0.82984 0.0
H526 H 0.12323 0.5879 0.84203 0.0
H527 H 0.154 0.65095 0.78405 0.0
C528 C 0.97893 0.95342 0.97117 0.0
C529 C 0.95769 0.95875 0.99484 0.0
C530 C 0.99743 0.969 0.97291 0.0
C531 C 0.99454 0.99051 0.99848 0.0
C532 C 0.97355 0.99559 0.02446 0.0
C533 C 0.95543 0.97957 0.02262 0.0
C534 C 0.0197 0.96289 0.94526 0.0
C535 C 0.96982 0.01838 0.05212 0.0
C536 C 0.04717 0.02738 0.0277 0.0
C537 C 0.04701 0.04276 0.98511 0.0
C538 C 0.03025 0.01017 0.0326 0.0
C539 C 0.01271 0.00845 0.99418 0.0
C540 C 0.01243 0.0239 0.95118 0.0
C541 C 0.02963 0.04079 0.94707 0.0
C542 C 0.03112 0.99389 0.07884 0.0
C543 C 0.99395 0.02259 0.90941 0.0
H544 H 0.98086 0.93748 0.94938 0.0
H545 H 0.93931 0.9836 0.04213 0.0
H546 H 0.02193 0.97421 0.91051 0.0
H547 H 0.03469 0.96587 0.97152 0.0
H548 H 0.02001 0.9446 0.93199 0.0
H549 H 0.95321 0.01888 0.07393 0.0
H550 H 0.98413 0.02178 0.07999 0.0
H551 H 0.96981 0.03261 0.02293 0.0
H552 H 0.06034 0.02897 0.05762 0.0
H553 H 0.02959 0.05229 0.9136 0.0
H554 H 0.03213 0.97575 0.06489 0.0
H555 H 0.01505 0.99551 0.10226 0.0
H556 H 0.04613 0.99731 0.10485 0.0
H557 H 0.99443 0.00541 0.89012 0.0
H558 H 0.99604 0.03612 0.87886 0.0
H559 H 0.97662 0.02457 0.92749 0.0
C560 C 0.97522 0.56182 0.25103 0.0
C561 C 0.95167 0.55868 0.23939 0.0
C562 C 0.99074 0.54316 0.25112 0.0
C563 C 0.98271 0.52077 0.2385 0.0
C564 C 0.95899 0.51724 0.22804 0.0
C565 C 0.94376 0.53614 0.2291 0.0
C566 C 0.01591 0.54754 0.26321 0.0
C567 C 0.94981 0.49361 0.21399 0.0
C568 C 0.027 0.48018 0.17913 0.0
C569 C 0.0324 0.46583 0.22165 0.0
C570 C 0.01049 0.49779 0.18388 0.0
C571 C 0.99941 0.50139 0.23268 0.0
C572 C 0.00465 0.48682 0.27574 0.0
C573 C 0.02097 0.46901 0.26952 0.0
C574 C 0.00504 0.51265 0.13673 0.0
C575 C 0.99346 0.49038 0.32858 0.0
H576 H 0.98187 0.57888 0.25908 0.0
H577 H 0.92569 0.5331 0.22114 0.0
H578 H 0.02211 0.53534 0.29372 0.0
H579 H 0.02645 0.54452 0.22753 0.0
H580 H 0.01903 0.56549 0.27698 0.0
H581 H 0.93071 0.49351 0.20943 0.0
H582 H 0.9577 0.48773 0.17664 0.0
H583 H 0.95464 0.48085 0.24456 0.0
H584 H 0.03562 0.47746 0.14193 0.0
H585 H 0.02532 0.45798 0.30243 0.0
H586 H 0.00967 0.53089 0.14496 0.0
H587 H 0.98623 0.51219 0.1284 0.0
H588 H 0.0145 0.50695 0.10108 0.0
H589 H 0.99801 0.50773 0.34394 0.0
H590 H 0.99895 0.47715 0.35764 0.0
H591 H 0.97438 0.4898 0.3248 0.0
C592 C 0.54314 0.52502 0.53219 0.0
C593 C 0.5478 0.53761 0.48647 0.0
C594 C 0.5244 0.50967 0.53456 0.0
C595 C 0.51034 0.5065 0.48969 0.0
C596 C 0.51478 0.51948 0.44368 0.0
C597 C 0.53333 0.53504 0.44282 0.0
C598 C 0.51994 0.49651 0.58467 0.0
C599 C 0.50048 0.51627 0.39467 0.0
C600 C 0.48022 0.449 0.47063 0.0
C601 C 0.45697 0.45466 0.48026 0.0
C602 C 0.49772 0.46563 0.47427 0.0
C603 C 0.49206 0.48846 0.48933 0.0
C604 C 0.46889 0.49415 0.50161 0.0
C605 C 0.45159 0.47726 0.49647 0.0
C606 C 0.52222 0.45888 0.46047 0.0
C607 C 0.46228 0.51823 0.51892 0.0
H608 H 0.55419 0.52725 0.56613 0.0
H609 H 0.53709 0.54459 0.4073 0.0
H610 H 0.50162 0.49856 0.59669 0.0
H611 H 0.52301 0.4778 0.57819 0.0
H612 H 0.53121 0.5024 0.61729 0.0
H613 H 0.50563 0.52832 0.36284 0.0
H614 H 0.50241 0.49828 0.3802 0.0
H615 H 0.48191 0.51901 0.40348 0.0
H616 H 0.48489 0.43156 0.45961 0.0
H617 H 0.43384 0.48205 0.50405 0.0
H618 H 0.53392 0.46251 0.49388 0.0
H619 H 0.5283 0.46935 0.42675 0.0
H620 H 0.5238 0.44029 0.45006 0.0
H621 H 0.47361 0.52398 0.5515 0.0
H622 H 0.444 0.51927 0.53203 0.0
H623 H 0.46476 0.5305 0.48599 0.0
C624 C 0.53182 0.95235 0.7618 0.0
C625 C 0.54148 0.94686 0.71296 0.0
C626 C 0.51686 0.97131 0.76751 0.0
C627 C 0.51121 0.98487 0.7231 0.0
C628 C 0.52126 0.97964 0.67386 0.0
C629 C 0.53641 0.96078 0.66948 0.0
C630 C 0.50679 0.97655 0.82081 0.0
C631 C 0.5154 0.99349 0.62543 0.0
C632 C 0.45363 0.01616 0.72096 0.0
C633 C 0.46022 0.03924 0.72898 0.0
C634 C 0.47003 0.99833 0.71955 0.0
C635 C 0.49365 0.00357 0.72725 0.0
C636 C 0.50043 0.02666 0.73721 0.0
C637 C 0.48365 0.04425 0.73766 0.0
C638 C 0.4621 0.97392 0.70868 0.0
C639 C 0.52545 0.03284 0.74625 0.0
H640 H 0.53602 0.94181 0.7956 0.0
H641 H 0.5437 0.95643 0.63163 0.0
H642 H 0.50998 0.99488 0.83131 0.0
H643 H 0.48779 0.97404 0.81993 0.0
H644 H 0.51416 0.96533 0.85199 0.0
H645 H 0.52544 0.9878 0.59061 0.0
H646 H 0.49671 0.99172 0.61652 0.0
H647 H 0.51881 0.01211 0.63229 0.0
H648 H 0.43558 0.01198 0.71544 0.0
H649 H 0.48902 0.06197 0.74347 0.0
H650 H 0.46749 0.9623 0.74106 0.0
H651 H 0.47036 0.96742 0.67227 0.0
H652 H 0.44305 0.97271 0.70409 0.0
H653 H 0.53285 0.0219 0.77781 0.0
H654 H 0.52767 0.0513 0.75717 0.0
H655 H 0.53557 0.02941 0.71013 0.0
C656 C 0.02843 0.95999 0.48436 0.0
C657 C 0.05104 0.96771 0.49438 0.0
C658 C 0.00993 0.97555 0.47967 0.0
C659 C 0.01388 0.99948 0.48642 0.0
C660 C 0.03634 0.00741 0.49884 0.0
C661 C 0.05465 0.9915 0.5022 0.0
C662 C 0.98624 0.96642 0.46594 0.0
C663 C 0.04116 0.03279 0.50728 0.0
C664 C 0.97277 0.04141 0.41959 0.0
C665 C 0.9577 0.04716 0.46054 0.0
C666 C 0.99112 0.02591 0.42753 0.0
C667 C 0.99472 0.01627 0.47795 0.0
C668 C 0.97976 0.02233 0.51971 0.0
C669 C 0.96127 0.03753 0.51034 0.0
C670 C 0.0064 0.01954 0.38173 0.0
C671 C 0.98332 0.0128 0.57424 0.0
H672 H 0.02508 0.94174 0.47948 0.0
H673 H 0.07183 0.99796 0.5098 0.0
H674 H 0.97346 0.97192 0.49587 0.0
H675 H 0.98057 0.97376 0.42783 0.0
H676 H 0.98592 0.94726 0.46307 0.0
H677 H 0.05906 0.03594 0.52125 0.0
H678 H 0.03859 0.04233 0.46999 0.0
H679 H 0.02887 0.04009 0.53631 0.0
H680 H 0.96984 0.04863 0.38096 0.0
H681 H 0.94974 0.04219 0.54212 0.0
H682 H 0.00572 0.0006 0.37499 0.0
H683 H 0.02462 0.02401 0.39054 0.0
H684 H 0.0012 0.02848 0.34501 0.0
H685 H 0.98194 0.99368 0.57367 0.0
H686 H 0.97051 0.01971 0.60268 0.0
H687 H 0.00094 0.0171 0.5883 0.0
C688 C 0.9485 0.48431 0.71473 0.0
C689 C 0.95677 0.46172 0.72293 0.0
C690 C 0.96348 0.50335 0.71449 0.0
C691 C 0.98733 0.49989 0.7238 0.0
C692 C 0.99577 0.47736 0.73378 0.0
C693 C 0.98048 0.45856 0.73274 0.0
C694 C 0.95385 0.52712 0.70319 0.0
C695 C 0.02108 0.47304 0.74462 0.0
C696 C 0.02991 0.54389 0.67081 0.0
C697 C 0.03437 0.55739 0.71526 0.0
C698 C 0.01448 0.52526 0.67298 0.0
C699 C 0.00356 0.51975 0.72106 0.0
C700 C 0.00811 0.53325 0.76622 0.0
C701 C 0.02332 0.55207 0.76262 0.0
C702 C 0.00973 0.51157 0.62372 0.0
C703 C 0.99713 0.52765 0.81838 0.0
H704 H 0.93028 0.48725 0.70819 0.0
H705 H 0.98734 0.44137 0.73873 0.0
H706 H 0.95794 0.53905 0.73593 0.0
H707 H 0.96206 0.53426 0.66737 0.0
H708 H 0.93483 0.52694 0.69736 0.0
H709 H 0.02463 0.45476 0.75531 0.0
H710 H 0.03143 0.47743 0.70941 0.0
H711 H 0.02711 0.48433 0.777 0.0
H712 H 0.03824 0.5482 0.63406 0.0
H713 H 0.02698 0.56239 0.7971 0.0
H714 H 0.99097 0.51194 0.61473 0.0
H715 H 0.01466 0.49321 0.62967 0.0
H716 H 0.01932 0.51836 0.5893 0.0
H717 H 0.97804 0.5284 0.81498 0.0
H718 H 0.00265 0.53973 0.84983 0.0
H719 H 0.00175 0.50978 0.83025 0.0
C720 C 0.54593 0.46928 0.02048 0.0
C721 C 0.54575 0.44902 0.99018 0.0
C722 C 0.52762 0.48525 0.01796 0.0
C723 C 0.50863 0.48089 0.98437 0.0
C724 C 0.50828 0.46045 0.95386 0.0
C725 C 0.52682 0.44482 0.95707 0.0
C726 C 0.52863 0.50684 0.05114 0.0
C727 C 0.4884 0.45517 0.91743 0.0
C728 C 0.45128 0.51151 0.00811 0.0
C729 C 0.45183 0.52914 0.97027 0.0
C730 C 0.46972 0.49584 0.01352 0.0
C731 C 0.48925 0.49783 0.98036 0.0
C732 C 0.49001 0.51567 0.94241 0.0
C733 C 0.47132 0.53106 0.9378 0.0
C734 C 0.46825 0.47707 0.05453 0.0
C735 C 0.51048 0.51835 0.9062 0.0
H736 H 0.56029 0.47255 0.04664 0.0
H737 H 0.52664 0.42946 0.93285 0.0
H738 H 0.52808 0.52237 0.02563 0.0
H739 H 0.51334 0.50767 0.07732 0.0
H740 H 0.5445 0.5076 0.07558 0.0
H741 H 0.49054 0.43832 0.89712 0.0
H742 H 0.47195 0.45485 0.93974 0.0
H743 H 0.48683 0.46897 0.88742 0.0
H744 H 0.43651 0.51007 0.03394 0.0
H745 H 0.47182 0.54438 0.90801 0.0
H746 H 0.48319 0.47826 0.08165 0.0
H747 H 0.46908 0.45986 0.03545 0.0
H748 H 0.45206 0.47812 0.07784 0.0
H749 H 0.52657 0.52034 0.92943 0.0
H750 H 0.50869 0.53351 0.87975 0.0
H751 H 0.5125 0.50259 0.88186 0.0
C752 C 0.47505 0.94156 0.28163 0.0
C753 C 0.45598 0.94305 0.24773 0.0
C754 C 0.49162 0.95926 0.28389 0.0
C755 C 0.48908 0.97899 0.25153 0.0
C756 C 0.46969 0.98081 0.21791 0.0
C757 C 0.4534 0.96284 0.2164 0.0
C758 C 0.51201 0.95669 0.32041 0.0
C759 C 0.46634 0.00157 0.18279 0.0
C760 C 0.52121 0.0345 0.28419 0.0
C761 C 0.53968 0.03382 0.24854 0.0
C762 C 0.50482 0.01663 0.28621 0.0
C763 C 0.50695 0.99753 0.25183 0.0
C764 C 0.52581 0.99648 0.21653 0.0
C765 C 0.54192 0.01461 0.2153 0.0
C766 C 0.48502 0.01838 0.32456 0.0
C767 C 0.52871 0.97641 0.17922 0.0
H768 H 0.47701 0.92653 0.30657 0.0
H769 H 0.43894 0.96407 0.18961 0.0
H770 H 0.52829 0.95653 0.29744 0.0
H771 H 0.51287 0.97167 0.34749 0.0
H772 H 0.51114 0.94057 0.34403 0.0
H773 H 0.44997 0.00069 0.1601 0.0
H774 H 0.46624 0.01764 0.20653 0.0
H775 H 0.48096 0.00288 0.15482 0.0
H776 H 0.51953 0.04906 0.31063 0.0
H777 H 0.55593 0.01401 0.18722 0.0
H778 H 0.48459 0.00285 0.35005 0.0
H779 H 0.4684 0.019 0.30293 0.0
H780 H 0.48626 0.03399 0.3498 0.0
H781 H 0.52909 0.95989 0.20133 0.0
H782 H 0.54478 0.97774 0.15561 0.0
H783 H 0.51374 0.97564 0.15207 0.0
C784 C 0.15149 0.99267 0.36635 0.0
C785 C 0.13441 0.97576 0.37189 0.0
C786 C 0.15099 0.00819 0.32376 0.0
C787 C 0.13255 0.00717 0.28707 0.0
C788 C 0.11482 0.99062 0.29393 0.0
C789 C 0.1162 0.97488 0.33569 0.0
C790 C 0.17048 0.02523 0.31719 0.0
C791 C 0.09442 0.98947 0.25707 0.0
C792 C 0.12137 0.06113 0.20563 0.0
C793 C 0.1306 0.0549 0.1568 0.0
C794 C 0.12139 0.04558 0.24788 0.0
C795 C 0.13164 0.02351 0.24175 0.0
C796 C 0.14087 0.01707 0.19228 0.0
C797 C 0.13988 0.03274 0.15005 0.0
C798 C 0.11056 0.05285 0.29919 0.0
C799 C 0.15239 0.9939 0.18443 0.0
H800 H 0.1657 0.99314 0.39405 0.0
H801 H 0.10291 0.96183 0.34022 0.0
H802 H 0.17889 0.02262 0.27853 0.0
H803 H 0.16365 0.04315 0.31784 0.0
H804 H 0.18377 0.0235 0.34841 0.0
H805 H 0.08151 0.97638 0.26948 0.0
H806 H 0.08578 0.00659 0.25492 0.0
H807 H 0.10039 0.98512 0.21695 0.0
H808 H 0.1141 0.07827 0.21076 0.0
H809 H 0.14728 0.02806 0.11246 0.0
H810 H 0.12392 0.05348 0.33033 0.0
H811 H 0.09744 0.03997 0.31152 0.0
H812 H 0.10214 0.07008 0.29659 0.0
H813 H 0.16701 0.99203 0.21229 0.0
H814 H 0.15903 0.99167 0.14388 0.0
H815 H 0.14002 0.97977 0.19292 0.0
C816 C 0.04229 0.63919 0.55922 0.0
C817 C 0.03542 0.64981 0.60621 0.0
C818 C 0.02838 0.63988 0.5143 0.0
C819 C 0.00704 0.65181 0.51574 0.0
C820 C -0.00035 0.66217 0.56339 0.0
C821 C 0.01387 0.66087 0.60835 0.0
C822 C 0.03684 0.62823 0.46483 0.0
C823 C 0.97709 0.6752 0.56636 0.0
C824 C 0.98758 0.67289 0.38146 0.0
C825 C 0.97155 0.65592 0.36672 0.0
C826 C 0.99838 0.67235 0.43083 0.0
C827 C 0.99331 0.65422 0.46634 0.0
C828 C 0.97688 0.6372 0.45204 0.0
C829 C 0.96612 0.63832 0.40257 0.0
C830 C 0.01567 0.69092 0.44448 0.0
C831 C 0.97121 0.61739 0.48832 0.0
H832 H 0.05876 0.63026 0.55739 0.0
H833 H 0.00848 0.6691 0.64453 0.0
H834 H 0.02356 0.61611 0.44981 0.0
H835 H 0.03986 0.64139 0.43394 0.0
H836 H 0.05317 0.61848 0.47111 0.0
H837 H 0.97315 0.68111 0.60683 0.0
H838 H 0.97782 0.69052 0.54025 0.0
H839 H 0.96271 0.66416 0.55233 0.0
H840 H 0.99171 0.68673 0.35439 0.0
H841 H 0.95373 0.62514 0.39164 0.0
H842 H 0.03318 0.6832 0.44765 0.0
H843 H 0.01145 0.69866 0.48312 0.0
H844 H 0.0162 0.70491 0.41464 0.0
H845 H 0.98666 0.6062 0.49318 0.0
H846 H 0.95677 0.60663 0.47328 0.0
H847 H 0.96652 0.62399 0.52774 0.0
C848 C 0.37702 0.46282 0.62723 0.0
C849 C 0.35718 0.44955 0.61808 0.0
C850 C 0.3783 0.47782 0.67066 0.0
C851 C 0.35914 0.47985 0.70508 0.0
C852 C 0.33893 0.46684 0.69521 0.0
C853 C 0.33827 0.45176 0.65219 0.0
C854 C 0.40025 0.49123 0.68014 0.0
C855 C 0.31792 0.46887 0.73008 0.0
C856 C 0.36636 0.50339 0.84395 0.0
C857 C 0.35975 0.52653 0.83742 0.0
C858 C 0.36671 0.48807 0.80101 0.0
C859 C 0.35986 0.49601 0.7507 0.0
C860 C 0.3528 0.51927 0.74426 0.0
C861 C 0.35303 0.53425 0.78751 0.0
C862 C 0.3746 0.46346 0.80933 0.0
C863 C 0.34485 0.52833 0.6917 0.0
H864 H 0.39176 0.46101 0.60134 0.0
H865 H 0.32282 0.44165 0.64517 0.0
H866 H 0.39654 0.51005 0.67997 0.0
H867 H 0.40732 0.48689 0.71939 0.0
H868 H 0.41367 0.48755 0.65012 0.0
H869 H 0.30342 0.4578 0.71654 0.0
H870 H 0.32244 0.46385 0.7708 0.0
H871 H 0.31189 0.48708 0.73124 0.0
H872 H 0.37179 0.4974 0.88232 0.0
H873 H 0.34779 0.5521 0.78224 0.0
H874 H 0.38925 0.45947 0.78274 0.0
H875 H 0.3604 0.45136 0.79947 0.0
H876 H 0.38013 0.4602 0.85039 0.0
H877 H 0.35878 0.52624 0.66222 0.0
H878 H 0.33984 0.54687 0.6933 0.0
H879 H 0.32979 0.51819 0.67775 0.0
C880 C 0.48344 0.85043 0.1061 0.0
C881 C 0.46268 0.86288 0.10621 0.0
C882 C 0.4986 0.85168 0.06305 0.0
C883 C 0.49307 0.8662 0.01996 0.0
C884 C 0.47238 0.87923 0.02068 0.0
C885 C 0.45732 0.87718 0.06346 0.0
C886 C 0.52034 0.83723 0.06328 0.0
C887 C 0.46618 0.89543 0.97637 0.0
C888 C 0.54329 0.8852 0.93465 0.0
C889 C 0.54091 0.87075 0.89091 0.0
C890 C 0.52745 0.88437 0.97619 0.0
C891 C 0.50916 0.86818 0.9746 0.0
C892 C 0.50639 0.85384 0.92993 0.0
C893 C 0.52218 0.85552 0.88817 0.0
C894 C 0.53058 0.90048 0.02223 0.0
C895 C 0.48732 0.83612 0.92717 0.0
H896 H 0.4875 0.83923 0.13894 0.0
H897 H 0.44134 0.88699 0.06365 0.0
H898 H 0.52071 0.82589 0.02819 0.0
H899 H 0.53573 0.84859 0.0612 0.0
H900 H 0.52175 0.82626 0.09892 0.0
H901 H 0.44968 0.90475 0.98355 0.0
H902 H 0.48012 0.90836 0.97086 0.0
H903 H 0.46462 0.88563 0.93916 0.0
H904 H 0.5578 0.89701 0.93666 0.0
H905 H 0.52057 0.8441 0.85466 0.0
H906 H 0.53451 0.89034 0.05807 0.0
H907 H 0.51436 0.91019 0.02975 0.0
H908 H 0.54478 0.91307 0.01578 0.0
H909 H 0.48931 0.82352 0.95969 0.0
H910 H 0.48732 0.82654 0.88942 0.0
H911 H 0.47026 0.84461 0.93215 0.0
C912 C 0.88387 0.03941 0.62324 0.0
C913 C 0.86403 0.035 0.59317 0.0
C914 C 0.88753 0.0282 0.67151 0.0
C915 C 0.87091 0.01227 0.69029 0.0
C916 C 0.85068 0.00806 0.66051 0.0
C917 C 0.84753 0.0194 0.61234 0.0
C918 C 0.90939 0.03303 0.70184 0.0
C919 C 0.83252 0.99122 0.67908 0.0
C920 C 0.88794 0.96305 0.78081 0.0
C921 C 0.87901 0.97038 0.8292 0.0
C922 C 0.88624 0.97694 0.7359 0.0
C923 C 0.87524 0.99875 0.73919 0.0
C924 C 0.86703 0.00672 0.78839 0.0
C925 C 0.86907 0.99244 0.83293 0.0
C926 C 0.89539 0.9678 0.68442 0.0
C927 C 0.85524 0.02989 0.7935 0.0
H928 H 0.89675 0.0514 0.60875 0.0
H929 H 0.83208 0.01598 0.58963 0.0
H930 H 0.90515 0.03823 0.74259 0.0
H931 H 0.92001 0.01708 0.70421 0.0
H932 H 0.91994 0.04687 0.68347 0.0
H933 H 0.81725 0.99075 0.65271 0.0
H934 H 0.84002 0.97357 0.68125 0.0
H935 H 0.82666 0.9959 0.71911 0.0
H936 H 0.89584 0.9461 0.77762 0.0
H937 H 0.86208 0.99821 0.87015 0.0
H938 H 0.90705 0.98065 0.66599 0.0
H939 H 0.88081 0.96488 0.65695 0.0
H940 H 0.90497 0.95128 0.68921 0.0
H941 H 0.86605 0.04365 0.77579 0.0
H942 H 0.85168 0.03446 0.83503 0.0
H943 H 0.83863 0.02961 0.77179 0.0
C944 C 0.97062 0.38459 0.89074 0.0
C945 C 0.97486 0.36562 0.85781 0.0
C946 C 0.98165 0.38654 0.93977 0.0
C947 C 0.99706 0.36896 0.9566 0.0
C948 C 0.00072 0.34938 0.92428 0.0
C949 C 0.98974 0.34804 0.87524 0.0
C950 C 0.97749 0.40784 0.97264 0.0
C951 C 0.01683 0.33014 0.94078 0.0
C952 C 0.04757 0.38437 0.04463 0.0
C953 C 0.04049 0.37605 0.0938 0.0
C954 C 0.03335 0.38266 1.00036 0.0
C955 C 0.01139 0.37216 1.00482 0.0
C956 C 0.00387 0.36399 0.05445 0.0
C957 C 0.01848 0.36615 0.09855 0.0
C958 C 0.04206 0.39181 0.94849 0.0
C959 C 0.98063 0.35255 0.06067 0.0
H960 H 0.9591 0.39822 0.87767 0.0
H961 H 0.99287 0.33314 0.85047 0.0
H962 H 0.97286 0.4029 0.01333 0.0
H963 H 0.99359 0.41819 0.97475 0.0
H964 H 0.96353 0.41892 0.95636 0.0
H965 H 0.01607 0.31511 0.91372 0.0
H966 H 0.03485 0.33664 0.94171 0.0
H967 H 0.01251 0.32417 0.98093 0.0
H968 H 0.06443 0.39231 0.0405 0.0
H969 H 0.01288 0.3597 0.13637 0.0
H970 H 0.02949 0.40432 0.93183 0.0
H971 H 0.0438 0.3774 0.92007 0.0
H972 H 0.05909 0.4005 0.95217 0.0
H973 H 0.96677 0.36407 0.04573 0.0
H974 H 0.97683 0.34812 0.10217 0.0
H975 H 0.98011 0.33647 0.03697 0.0
C976 C 0.62791 0.53794 0.32172 0.0
C977 C 0.63824 0.53052 0.36857 0.0
C978 C 0.62752 0.52384 0.27713 0.0
C979 C 0.63809 0.50179 0.27889 0.0
C980 C 0.64802 0.49385 0.32652 0.0
C981 C 0.64778 0.50827 0.37112 0.0
C982 C 0.61638 0.53288 0.22758 0.0
C983 C 0.65966 0.47054 0.32975 0.0
C984 C 0.62357 0.46157 0.16529 0.0
C985 C 0.64168 0.46628 0.1303 0.0
C986 C 0.62251 0.47241 0.21464 0.0
C987 C 0.64013 0.48807 0.22958 0.0
C988 C 0.65878 0.49231 0.19499 0.0
C989 C 0.65923 0.48153 0.14573 0.0
C990 C 0.60216 0.46769 0.25004 0.0
C991 C 0.67802 0.50873 0.20948 0.0
H992 H 0.62015 0.555 0.31973 0.0
H993 H 0.65576 0.50248 0.40728 0.0
H994 H 0.62977 0.53546 0.197 0.0
H995 H 0.6038 0.52014 0.21213 0.0
H996 H 0.60729 0.54958 0.23394 0.0
H997 H 0.66493 0.46614 0.37044 0.0
H998 H 0.64796 0.45685 0.3149 0.0
H999 H 0.67526 0.47047 0.30446 0.0
H1000 H 0.60998 0.44975 0.1537 0.0
H1001 H 0.67346 0.48504 0.11929 0.0
H1002 H 0.5917 0.48366 0.25446 0.0
H1003 H 0.60821 0.46267 0.28972 0.0
H1004 H 0.59085 0.45378 0.2345 0.0
H1005 H 0.67111 0.52658 0.21251 0.0
H1006 H 0.69223 0.50865 0.1802 0.0
H1007 H 0.68528 0.50409 0.24837 0.0
C1008 C 0.53761 0.14915 0.43647 0.0
C1009 C 0.53752 0.1314 0.39895 0.0
C1010 C 0.52233 0.14894 0.47911 0.0
C1011 C 0.50673 0.13033 0.48501 0.0
C1012 C 0.50681 0.11209 0.44784 0.0
C1013 C 0.52209 0.11293 0.40492 0.0
C1014 C 0.52256 0.16894 0.51723 0.0
C1015 C 0.49064 0.09179 0.45321 0.0
C1016 C 0.47932 0.12263 0.61975 0.0
C1017 C 0.45737 0.13227 0.61174 0.0
C1018 C 0.49547 0.12148 0.5786 0.0
C1019 C 0.48965 0.13065 0.52875 0.0
C1020 C 0.46768 0.1409 0.52099 0.0
C1021 C 0.45174 0.14135 0.5624 0.0
C1022 C 0.5186 0.11014 0.58819 0.0
C1023 C 0.46099 0.1514 0.46892 0.0
H1024 H 0.54937 0.16358 0.43207 0.0
H1025 H 0.52204 0.09909 0.37625 0.0
H1026 H 0.50548 0.17769 0.51707 0.0
H1027 H 0.52562 0.16255 0.55765 0.0
H1028 H 0.53605 0.1819 0.50758 0.0
H1029 H 0.49373 0.0784 0.42275 0.0
H1030 H 0.49268 0.08375 0.49245 0.0
H1031 H 0.47247 0.09779 0.45004 0.0
H1032 H 0.48358 0.11529 0.65767 0.0
H1033 H 0.43477 0.14885 0.55615 0.0
H1034 H 0.5327 0.12274 0.58134 0.0
H1035 H 0.52115 0.0957 0.56013 0.0
H1036 H 0.52021 0.10328 0.62873 0.0
H1037 H 0.47346 0.16514 0.45806 0.0
H1038 H 0.44335 0.159 0.46958 0.0
H1039 H 0.46168 0.13805 0.43774 0.0
C1040 C 0.61149 0.45607 0.83847 0.0
C1041 C 0.63045 0.4549 0.87251 0.0
C1042 C 0.61103 0.47186 0.79674 0.0
C1043 C 0.63042 0.4862 0.7877 0.0
C1044 C 0.64966 0.48506 0.82215 0.0
C1045 C 0.64926 0.46965 0.86484 0.0
C1046 C 0.58983 0.47315 0.76229 0.0
C1047 C 0.67087 0.49966 0.8131 0.0
C1048 C 0.63851 0.51061 0.65014 0.0
C1049 C 0.63241 0.53379 0.65768 0.0
C1050 C 0.63801 0.49488 0.69221 0.0
C1051 C 0.63051 0.50244 0.74233 0.0
C1052 C 0.62332 0.52564 0.74927 0.0
C1053 C 0.62477 0.54112 0.70707 0.0
C1054 C 0.64632 0.47043 0.68353 0.0
C1055 C 0.6144 0.5342 0.80143 0.0
H1056 H 0.59688 0.44467 0.84478 0.0
H1057 H 0.664 0.46849 0.89098 0.0
H1058 H 0.58329 0.49118 0.76079 0.0
H1059 H 0.59432 0.46807 0.72162 0.0
H1060 H 0.57573 0.46173 0.77643 0.0
H1061 H 0.68459 0.49628 0.84263 0.0
H1062 H 0.67798 0.49614 0.77347 0.0
H1063 H 0.66625 0.51826 0.81452 0.0
H1064 H 0.64474 0.50508 0.61205 0.0
H1065 H 0.62002 0.5591 0.71274 0.0
H1066 H 0.6325 0.45798 0.69386 0.0
H1067 H 0.66125 0.46679 0.70961 0.0
H1068 H 0.65165 0.46731 0.64229 0.0
H1069 H 0.60019 0.52291 0.81543 0.0
H1070 H 0.60792 0.55226 0.79924 0.0
H1071 H 0.62837 0.53342 0.83114 0.0
C1072 C 0.50927 0.11449 0.11668 0.0
C1073 C 0.5312 0.12455 0.11242 0.0
C1074 C 0.49402 0.11428 0.07362 0.0
C1075 C 0.50073 0.12479 0.02573 0.0
C1076 C 0.52281 0.13507 0.02153 0.0
C1077 C 0.5378 0.13465 0.06469 0.0
C1078 C 0.47072 0.1029 0.07937 0.0
C1079 C 0.53047 0.14695 0.97172 0.0
C1080 C 0.4691 0.11226 0.8975 0.0
C1081 C 0.45373 0.13098 0.89495 0.0
C1082 C 0.48423 0.1097 0.94042 0.0
C1083 C 0.48422 0.12648 0.98099 0.0
C1084 C 0.46901 0.1456 0.97791 0.0
C1085 C 0.45387 0.1475 0.93524 0.0
C1086 C 0.50004 0.08896 0.94264 0.0
C1087 C 0.46881 0.16419 0.01953 0.0
H1088 H 0.5042 0.10646 0.15332 0.0
H1089 H 0.55469 0.14257 0.06118 0.0
H1090 H 0.45684 0.11601 0.07501 0.0
H1091 H 0.46824 0.08989 0.04789 0.0
H1092 H 0.46867 0.09425 0.11799 0.0
H1093 H 0.5484 0.15368 0.97449 0.0
H1094 H 0.52952 0.13478 0.93819 0.0
H1095 H 0.5187 0.16161 0.96285 0.0
H1096 H 0.46888 0.09934 0.86673 0.0
H1097 H 0.44212 0.1621 0.93332 0.0
H1098 H 0.49694 0.07916 0.97938 0.0
H1099 H 0.51833 0.09467 0.94324 0.0
H1100 H 0.49752 0.07716 0.90875 0.0
H1101 H 0.46477 0.15651 0.0583 0.0
H1102 H 0.45596 0.178 0.01116 0.0
H1103 H 0.48617 0.1722 0.02257 0.0
C1104 C 0.85529 0.05436 0.28094 0.0
C1105 C 0.86183 0.04648 0.33083 0.0
C1106 C 0.85401 0.03925 0.2381 0.0
C1107 C 0.85968 0.01565 0.245 0.0
C1108 C 0.86617 0.00749 0.29536 0.0
C1109 C 0.86699 0.023 0.33788 0.0
C1110 C 0.84658 0.04858 0.18537 0.0
C1111 C 0.87251 0.98247 0.30412 0.0
C1112 C 0.83558 0.97372 0.14444 0.0
C1113 C 0.85435 0.97086 0.11017 0.0
C1114 C 0.83722 0.98797 0.18876 0.0
C1115 C 0.85822 0.99953 0.19953 0.0
C1116 C 0.87732 0.99659 0.16535 0.0
C1117 C 0.87512 0.98239 0.12085 0.0
C1118 C 0.81633 0.99092 0.22367 0.0
C1119 C 0.90005 0.00852 0.17569 0.0
H1120 H 0.85116 0.07247 0.27527 0.0
H1121 H 0.87224 0.01688 0.37626 0.0
H1122 H 0.86046 0.04573 0.15607 0.0
H1123 H 0.83106 0.03919 0.17137 0.0
H1124 H 0.84252 0.06735 0.18673 0.0
H1125 H 0.87745 0.97892 0.34544 0.0
H1126 H 0.85774 0.9712 0.29353 0.0
H1127 H 0.88716 0.97762 0.27827 0.0
H1128 H 0.81944 0.96494 0.13642 0.0
H1129 H 0.88974 0.98011 0.09479 0.0
H1130 H 0.81098 0.00935 0.22428 0.0
H1131 H 0.82067 0.98599 0.26453 0.0
H1132 H 0.80143 0.98034 0.21045 0.0
H1133 H 0.89762 0.02754 0.17449 0.0
H1134 H 0.91352 0.00369 0.14661 0.0
H1135 H 0.90639 0.00406 0.21551 0.0
C1136 C 0.04941 0.38533 0.43194 0.0
C1137 C 0.04292 0.37706 0.38242 0.0
C1138 C 0.03378 0.38552 0.474 0.0
C1139 C 0.01129 0.37644 0.46695 0.0
C1140 C 0.00459 0.36815 0.4168 0.0
C1141 C 0.02041 0.36892 0.3748 0.0
C1142 C 0.04139 0.39536 0.52606 0.0
C1143 C 0.98098 0.35784 0.40794 0.0
C1144 C 0.97964 0.35713 0.59089 0.0
C1145 C 0.9637 0.37511 0.59752 0.0
C1146 C 0.99496 0.35708 0.54793 0.0
C1147 C 0.9948 0.37586 0.51204 0.0
C1148 C 0.97916 0.39439 0.51985 0.0
C1149 C 0.96354 0.39356 0.5619 0.0
C1150 C 0.01096 0.33674 0.54029 0.0
C1151 C 0.97897 0.41514 0.48392 0.0
H1152 H 0.06684 0.3917 0.43774 0.0
H1153 H 0.01551 0.36225 0.33666 0.0
H1154 H 0.02912 0.40897 0.539 0.0
H1155 H 0.04129 0.38161 0.55637 0.0
H1156 H 0.059 0.40292 0.52423 0.0
H1157 H 0.97857 0.35179 0.36697 0.0
H1158 H 0.97837 0.343 0.43488 0.0
H1159 H 0.96739 0.37078 0.41699 0.0
H1160 H 0.97952 0.34273 0.61812 0.0
H1161 H 0.95124 0.40752 0.56726 0.0
H1162 H 0.0292 0.34254 0.54182 0.0
H1163 H 0.00809 0.32901 0.50099 0.0
H1164 H 0.00838 0.32315 0.57051 0.0
H1165 H 0.99643 0.42303 0.48248 0.0
H1166 H 0.96639 0.42853 0.4967 0.0
H1167 H 0.97453 0.40974 0.44344 0.0
C1168 C 0.37492 0.51792 0.1328 0.0
C1169 C 0.35629 0.51319 0.09923 0.0
C1170 C 0.37718 0.5065 0.18128 0.0
C1171 C 0.36032 0.49012 0.19678 0.0
C1172 C 0.34116 0.48581 0.16369 0.0
C1173 C 0.33945 0.49727 0.1153 0.0
C1174 C 0.398 0.51143 0.21513 0.0
C1175 C 0.32273 0.46859 0.17876 0.0
C1176 C 0.37711 0.44023 0.28563 0.0
C1177 C 0.36783 0.44697 0.33415 0.0
C1178 C 0.37532 0.45442 0.24127 0.0
C1179 C 0.36371 0.4759 0.24505 0.0
C1180 C 0.35456 0.48304 0.29407 0.0
C1181 C 0.35686 0.46853 0.33823 0.0
C1182 C 0.38553 0.44618 0.19002 0.0
C1183 C 0.34191 0.50573 0.29954 0.0
H1184 H 0.38799 0.53022 0.12076 0.0
H1185 H 0.32486 0.49367 0.08995 0.0
H1186 H 0.3925 0.5158 0.2556 0.0
H1187 H 0.40899 0.49573 0.21765 0.0
H1188 H 0.40861 0.52585 0.19948 0.0
H1189 H 0.30802 0.46854 0.15074 0.0
H1190 H 0.33027 0.45095 0.18004 0.0
H1191 H 0.31601 0.47249 0.21853 0.0
H1192 H 0.38585 0.42372 0.28215 0.0
H1193 H 0.34963 0.47382 0.37557 0.0
H1194 H 0.39758 0.45934 0.17418 0.0
H1195 H 0.37158 0.4438 0.16067 0.0
H1196 H 0.39501 0.42957 0.19427 0.0
H1197 H 0.3529 0.52012 0.28528 0.0
H1198 H 0.33682 0.50933 0.34074 0.0
H1199 H 0.32611 0.50551 0.27488 0.0
C1200 C 0.47177 0.8635 0.39885 0.0
C1201 C 0.45669 0.84477 0.39256 0.0
C1202 C 0.48604 0.86518 0.44337 0.0
C1203 C 0.48541 0.84755 0.48202 0.0
C1204 C 0.47011 0.82871 0.47589 0.0
C1205 C 0.45589 0.82762 0.43147 0.0
C1206 C 0.502 0.88566 0.44876 0.0
C1207 C 0.46916 0.80936 0.51564 0.0
C1208 C 0.5394 0.838 0.56351 0.0
C1209 C 0.53341 0.84824 0.61145 0.0
C1210 C 0.52387 0.83754 0.52139 0.0
C1211 C 0.50184 0.84787 0.527 0.0
C1212 C 0.4955 0.85796 0.57561 0.0
C1213 C 0.51134 0.85786 0.61755 0.0
C1214 C 0.53116 0.82616 0.47068 0.0
C1215 C 0.47222 0.8693 0.58287 0.0
H1216 H 0.47232 0.87691 0.36917 0.0
H1217 H 0.44434 0.81303 0.42691 0.0
H1218 H 0.49928 0.8942 0.48722 0.0
H1219 H 0.52023 0.87972 0.44753 0.0
H1220 H 0.49934 0.89861 0.41714 0.0
H1221 H 0.45568 0.79638 0.50611 0.0
H1222 H 0.48614 0.80046 0.51742 0.0
H1223 H 0.46563 0.81643 0.55527 0.0
H1224 H 0.55644 0.83046 0.55872 0.0
H1225 H 0.50678 0.86605 0.65437 0.0
H1226 H 0.53097 0.83902 0.43841 0.0
H1227 H 0.51876 0.81232 0.46007 0.0
H1228 H 0.54874 0.81848 0.47314 0.0
H1229 H 0.47018 0.88364 0.55433 0.0
H1230 H 0.4699 0.8763 0.6231 0.0
H1231 H 0.45824 0.85668 0.57493 0.0
C1232 C 0.12786 0.9832 0.66155 0.0
C1233 C 0.14592 0.9671 0.65788 0.0
C1234 C 0.12627 0.99832 0.70475 0.0
C1235 C 0.14341 0.99765 0.74456 0.0
C1236 C 0.16175 0.98155 0.74065 0.0
C1237 C 0.16265 0.96638 0.69775 0.0
C1238 C 0.10625 0.01502 0.70783 0.0
C1239 C 0.18069 0.98058 0.78139 0.0
C1240 C 0.15242 0.05216 0.82536 0.0
C1241 C 0.1416 0.04652 0.87285 0.0
C1242 C 0.15341 0.03631 0.78376 0.0
C1243 C 0.1428 0.01441 0.78915 0.0
C1244 C 0.13202 0.0085 0.8373 0.0
C1245 C 0.13179 0.02455 0.87887 0.0
C1246 C 0.16567 0.04312 0.73381 0.0
C1247 C 0.12023 0.98546 0.84438 0.0
H1248 H 0.11479 0.98372 0.63111 0.0
H1249 H 0.17678 0.95411 0.69509 0.0
H1250 H 0.09697 0.01276 0.74556 0.0
H1251 H 0.11274 0.03304 0.70677 0.0
H1252 H 0.09379 0.01264 0.67513 0.0
H1253 H 0.1937 0.96695 0.77277 0.0
H1254 H 0.18963 0.9975 0.78343 0.0
H1255 H 0.1732 0.97719 0.82066 0.0
H1256 H 0.16005 0.06914 0.82063 0.0
H1257 H 0.12311 0.02028 0.91526 0.0
H1258 H 0.15326 0.04323 0.70065 0.0
H1259 H 0.17929 0.03026 0.72436 0.0
H1260 H 0.17377 0.06047 0.73662 0.0
H1261 H 0.10637 0.98348 0.81464 0.0
H1262 H 0.11251 0.98355 0.88402 0.0
H1263 H 0.13276 0.9712 0.83809 0.0
C1264 C 0.97567 0.65685 0.10675 0.0
C1265 C 0.95444 0.64526 0.10526 0.0
C1266 C 0.99094 0.65599 0.06372 0.0
C1267 C 0.98509 0.64272 0.0188 0.0
C1268 C 0.96374 0.63086 0.01747 0.0
C1269 C 0.94861 0.6325 0.06033 0.0
C1270 C 0.01336 0.66921 0.06633 0.0
C1271 C 0.95707 0.61598 0.97121 0.0
C1272 C 0.01676 0.65274 0.88923 0.0
C1273 C 0.03435 0.63613 0.89217 0.0
C1274 C 0.00058 0.65517 0.93021 0.0
C1275 C 0.00174 0.64024 0.97433 0.0
C1276 C 0.0189 0.62277 0.97604 0.0
C1277 C 0.03516 0.62119 0.9354 0.0
C1278 C 0.98282 0.67426 0.92729 0.0
C1279 C 0.02036 0.606 0.02132 0.0
H1280 H 0.98019 0.66684 0.1412 0.0
H1281 H 0.93232 0.62331 0.05903 0.0
H1282 H 0.02815 0.65699 0.06529 0.0
H1283 H 0.01497 0.68071 0.03168 0.0
H1284 H 0.01471 0.67986 0.10245 0.0
H1285 H 0.93973 0.60807 0.97601 0.0
H1286 H 0.9571 0.62641 0.93472 0.0
H1287 H 0.96997 0.60195 0.96603 0.0
H1288 H 0.01638 0.66458 0.85627 0.0
H1289 H 0.04882 0.60836 0.93771 0.0
H1290 H 0.98529 0.68636 0.96059 0.0
H1291 H 0.96517 0.667 0.93084 0.0
H1292 H 0.98395 0.68418 0.89007 0.0
H1293 H 0.02436 0.61546 0.05802 0.0
H1294 H 0.03384 0.59257 0.01518 0.0
H1295 H 0.00347 0.59729 0.02706 0.0
C1296 C 0.06551 0.28214 0.18415 0.0
C1297 C 0.08694 0.29179 0.19714 0.0
C1298 C 0.06415 0.25987 0.16217 0.0
C1299 C 0.08476 0.24735 0.15217 0.0
C1300 C 0.10643 0.25743 0.16377 0.0
C1301 C 0.10722 0.27943 0.18647 0.0
C1302 C 0.04075 0.24951 0.151 0.0
C1303 C 0.12885 0.2449 0.15274 0.0
C1304 C 0.0896 0.1822 0.14438 0.0
C1305 C 0.09233 0.17877 0.09025 0.0
C1306 C 0.08529 0.20431 0.16486 0.0
C1307 C 0.08407 0.2235 0.13052 0.0
C1308 C 0.0854 0.21998 0.07571 0.0
C1309 C 0.08929 0.19764 0.05623 0.0
C1310 C 0.08357 0.2073 0.22355 0.0
C1311 C 0.08433 0.24 0.03777 0.0
H1312 H 0.04986 0.29173 0.19272 0.0
H1313 H 0.12378 0.28711 0.19575 0.0
H1314 H 0.03973 0.24375 0.10958 0.0
H1315 H 0.03818 0.234 0.17591 0.0
H1316 H 0.02646 0.2619 0.15866 0.0
H1317 H 0.14423 0.25561 0.16208 0.0
H1318 H 0.12972 0.2288 0.17628 0.0
H1319 H 0.12969 0.23986 0.1108 0.0
H1320 H 0.09199 0.16784 0.17111 0.0
H1321 H 0.09067 0.19509 0.01426 0.0
H1322 H 0.06884 0.21874 0.23373 0.0
H1323 H 0.09954 0.21564 0.23838 0.0
H1324 H 0.08139 0.19052 0.24412 0.0
H1325 H 0.06947 0.25144 0.04694 0.0
H1326 H 0.08282 0.23414 0.99643 0.0
H1327 H 0.10026 0.25052 0.04159 0.0
C1328 C 0.82849 0.60078 0.38046 0.0
C1329 C 0.8326 0.62431 0.37149 0.0
C1330 C 0.80734 0.59321 0.40105 0.0
C1331 C 0.79003 0.60962 0.4137 0.0
C1332 C 0.79422 0.63345 0.4054 0.0
C1333 C 0.81541 0.64051 0.38393 0.0
C1334 C 0.80341 0.56762 0.40866 0.0
C1335 C 0.77634 0.65148 0.41928 0.0
C1336 C 0.72809 0.58828 0.42464 0.0
C1337 C 0.7261 0.5846 0.47874 0.0
C1338 C 0.74876 0.59662 0.40286 0.0
C1339 C 0.76767 0.60176 0.43619 0.0
C1340 C 0.76547 0.59866 0.491 0.0
C1341 C 0.74478 0.58993 0.51153 0.0
C1342 C 0.75057 0.59937 0.34414 0.0
C1343 C 0.78507 0.60432 0.52792 0.0
H1344 H 0.84163 0.58821 0.37008 0.0
H1345 H 0.81863 0.65872 0.37712 0.0
H1346 H 0.79991 0.5639 0.45057 0.0
H1347 H 0.78801 0.56205 0.38605 0.0
H1348 H 0.81849 0.5571 0.39597 0.0
H1349 H 0.78244 0.66932 0.41116 0.0
H1350 H 0.76027 0.64841 0.39664 0.0
H1351 H 0.77184 0.65014 0.46146 0.0
H1352 H 0.71372 0.58396 0.39927 0.0
H1353 H 0.7431 0.58737 0.55344 0.0
H1354 H 0.76441 0.58792 0.3288 0.0
H1355 H 0.75542 0.61738 0.33416 0.0
H1356 H 0.73414 0.5951 0.32381 0.0
H1357 H 0.80011 0.59302 0.51945 0.0
H1358 H 0.78016 0.60204 0.56971 0.0
H1359 H 0.79075 0.62245 0.52196 0.0
C1360 C 0.42187 0.32125 0.61805 0.0
C1361 C 0.40092 0.32435 0.59131 0.0
C1362 C 0.42704 0.30012 0.64277 0.0
C1363 C 0.41064 0.28198 0.64155 0.0
C1364 C 0.38946 0.28513 0.61458 0.0
C1365 C 0.38496 0.3062 0.58947 0.0
C1366 C 0.44995 0.29724 0.67028 0.0
C1367 C 0.37131 0.2664 0.61312 0.0
C1368 C 0.42364 0.21877 0.66897 0.0
C1369 C 0.41474 0.2163 0.71984 0.0
C1370 C 0.42391 0.24045 0.64404 0.0
C1371 C 0.41483 0.26001 0.67043 0.0
C1372 C 0.40723 0.25787 0.72291 0.0
C1373 C 0.40748 0.23611 0.74706 0.0
C1374 C 0.43258 0.24212 0.58837 0.0
C1375 C 0.39735 0.27824 0.75247 0.0
H1376 H 0.4343 0.33524 0.619 0.0
H1377 H 0.36868 0.30869 0.56915 0.0
H1378 H 0.44711 0.29439 0.7128 0.0
H1379 H 0.45907 0.28176 0.65495 0.0
H1380 H 0.4613 0.31255 0.66526 0.0
H1381 H 0.35586 0.27155 0.59004 0.0
H1382 H 0.37863 0.25041 0.59574 0.0
H1383 H 0.36574 0.26215 0.65362 0.0
H1384 H 0.42927 0.20362 0.64753 0.0
H1385 H 0.40116 0.23447 0.78684 0.0
H1386 H 0.44399 0.25738 0.58366 0.0
H1387 H 0.41772 0.24442 0.56138 0.0
H1388 H 0.44224 0.22638 0.57633 0.0
H1389 H 0.40918 0.29326 0.75016 0.0
H1390 H 0.39416 0.27418 0.79442 0.0
H1391 H 0.38073 0.28352 0.73427 0.0
C1392 C 0.68055 0.90578 0.81042 0.0
C1393 C 0.66993 0.88519 0.82601 0.0
C1394 C 0.70256 0.91161 0.82894 0.0
C1395 C 0.71388 0.89669 0.86474 0.0
C1396 C 0.70322 0.87582 0.8805 0.0
C1397 C 0.68139 0.87018 0.86041 0.0
C1398 C 0.71359 0.93382 0.81054 0.0
C1399 C 0.7146 0.85977 0.91943 0.0
C1400 C 0.7784 0.90531 0.88069 0.0
C1401 C 0.77902 0.92069 0.923 0.0
C1402 C 0.75728 0.89681 0.86193 0.0
C1403 C 0.7365 0.90352 0.88704 0.0
C1404 C 0.73722 0.91813 0.93151 0.0
C1405 C 0.75851 0.92679 0.94855 0.0
C1406 C 0.75711 0.8816 0.81383 0.0
C1407 C 0.71547 0.92523 0.96004 0.0
H1408 H 0.67168 0.91721 0.78334 0.0
H1409 H 0.67299 0.85431 0.87252 0.0
H1410 H 0.71598 0.9457 0.84425 0.0
H1411 H 0.73096 0.93023 0.79395 0.0
H1412 H 0.70304 0.94279 0.78033 0.0
H1413 H 0.70423 0.84394 0.9266 0.0
H1414 H 0.73195 0.85457 0.9052 0.0
H1415 H 0.71709 0.86889 0.95729 0.0
H1416 H 0.79435 0.90085 0.86084 0.0
H1417 H 0.7592 0.93853 0.98162 0.0
H1418 H 0.74838 0.89081 0.78116 0.0
H1419 H 0.74718 0.86557 0.82143 0.0
H1420 H 0.77482 0.87679 0.80102 0.0
H1421 H 0.70476 0.93638 0.93426 0.0
H1422 H 0.71924 0.93487 0.99671 0.0
H1423 H 0.70501 0.90977 0.96993 0.0
C1424 C 0.92272 0.27942 0.65017 0.0
C1425 C 0.91442 0.2828 0.7013 0.0
C1426 C 0.91951 0.25825 0.62413 0.0
C1427 C 0.90786 0.24002 0.64998 0.0
C1428 C 0.89955 0.24327 0.70159 0.0
C1429 C 0.9028 0.26462 0.72643 0.0
C1430 C 0.92848 0.25544 0.56891 0.0
C1431 C 0.88705 0.22423 0.73053 0.0
C1432 C 0.87871 0.19253 0.57179 0.0
C1433 C 0.89468 0.17433 0.57617 0.0
C1434 C 0.88308 0.21416 0.59448 0.0
C1435 C 0.90378 0.21764 0.62288 0.0
C1436 C 0.92002 0.19942 0.62742 0.0
C1437 C 0.91531 0.178 0.60385 0.0
C1438 C 0.86534 0.23319 0.58873 0.0
C1439 C 0.94222 0.20246 0.65774 0.0
H1440 H 0.93194 0.29322 0.63062 0.0
H1441 H 0.8959 0.2671 0.76544 0.0
H1442 H 0.94082 0.24076 0.56713 0.0
H1443 H 0.91398 0.2513 0.54204 0.0
H1444 H 0.93728 0.27124 0.5544 0.0
H1445 H 0.88231 0.22931 0.77114 0.0
H1446 H 0.87105 0.2195 0.70913 0.0
H1447 H 0.89805 0.20852 0.73237 0.0
H1448 H 0.86256 0.18978 0.55123 0.0
H1449 H 0.9279 0.16416 0.60677 0.0
H1450 H 0.87351 0.24889 0.57206 0.0
H1451 H 0.85838 0.23792 0.62781 0.0
H1452 H 0.8507 0.22806 0.5631 0.0
H1453 H 0.95214 0.21726 0.64174 0.0
H1454 H 0.95331 0.18677 0.65644 0.0
H1455 H 0.93826 0.20648 0.69931 0.0
C1456 C 0.8161 0.37292 0.84514 0.0
C1457 C 0.83369 0.38948 0.84993 0.0
C1458 C 0.79425 0.3765 0.86757 0.0
C1459 C 0.78991 0.39702 0.89614 0.0
C1460 C 0.80755 0.4138 0.90128 0.0
C1461 C 0.8292 0.40987 0.87797 0.0
C1462 C 0.77589 0.35819 0.86118 0.0
C1463 C 0.80362 0.43582 0.93181 0.0
C1464 C 0.72753 0.41457 0.92253 0.0
C1465 C 0.72425 0.40631 0.97374 0.0
C1466 C 0.7488 0.41168 0.89666 0.0
C1467 C 0.76726 0.40039 0.92272 0.0
C1468 C 0.76405 0.39199 0.97428 0.0
C1469 C 0.74261 0.39492 0.99895 0.0
C1470 C 0.75153 0.42073 0.84149 0.0
C1471 C 0.7833 0.37985 1.00346 0.0
H1472 H 0.81948 0.35695 0.82427 0.0
H1473 H 0.84252 0.42293 0.88121 0.0
H1474 H 0.77114 0.35107 0.90009 0.0
H1475 H 0.76003 0.3659 0.84401 0.0
H1476 H 0.78167 0.34372 0.8357 0.0
H1477 H 0.81896 0.44733 0.93131 0.0
H1478 H 0.78866 0.4454 0.91534 0.0
H1479 H 0.79939 0.43163 0.97316 0.0
H1480 H 0.71358 0.42357 0.90289 0.0
H1481 H 0.74022 0.38801 0.03799 0.0
H1482 H 0.75638 0.40638 0.81476 0.0
H1483 H 0.76571 0.43359 0.8401 0.0
H1484 H 0.73548 0.42897 0.82655 0.0
H1485 H 0.78865 0.3641 0.98181 0.0
H1486 H 0.77814 0.37476 0.0438 0.0
H1487 H 0.79863 0.39128 0.00605 0.0
C1488 C 0.6037 0.21869 0.21394 0.0
C1489 C 0.57983 0.21484 0.21839 0.0
C1490 C 0.61232 0.24015 0.19695 0.0
C1491 C 0.59671 0.25823 0.18461 0.0
C1492 C 0.57267 0.25459 0.18981 0.0
C1493 C 0.56456 0.23297 0.20613 0.0
C1494 C 0.63808 0.24336 0.19134 0.0
C1495 C 0.55543 0.27344 0.17713 0.0
C1496 C 0.61581 0.32101 0.17617 0.0
C1497 C 0.6168 0.32438 0.12171 0.0
C1498 C 0.60998 0.29936 0.19741 0.0
C1499 C 0.6052 0.28062 0.16338 0.0
C1500 C 0.60674 0.28376 0.1085 0.0
C1501 C 0.61229 0.30559 0.08839 0.0
C1502 C 0.60829 0.29671 0.25616 0.0
C1503 C 0.6018 0.26421 0.07084 0.0
H1504 H 0.61568 0.20498 0.22387 0.0
H1505 H 0.54611 0.23024 0.20824 0.0
H1506 H 0.6424 0.24701 0.14977 0.0
H1507 H 0.64384 0.25845 0.21474 0.0
H1508 H 0.64795 0.22788 0.20419 0.0
H1509 H 0.53739 0.26827 0.18628 0.0
H1510 H 0.55956 0.28934 0.19955 0.0
H1511 H 0.55644 0.27786 0.13487 0.0
H1512 H 0.61954 0.33532 0.20226 0.0
H1513 H 0.6125 0.30803 0.04627 0.0
H1514 H 0.61906 0.28195 0.26949 0.0
H1515 H 0.59017 0.29284 0.26727 0.0
H1516 H 0.61388 0.31253 0.27731 0.0
H1517 H 0.61219 0.24876 0.08134 0.0
H1518 H 0.60564 0.26896 0.02954 0.0
H1519 H 0.58333 0.25926 0.07354 0.0
C1520 C 0.68474 0.10927 0.31083 0.0
C1521 C 0.66584 0.11125 0.34526 0.0
C1522 C 0.70738 0.1066 0.32966 0.0
C1523 C 0.7113 0.10497 0.38427 0.0
C1524 C 0.69237 0.10632 0.4193 0.0
C1525 C 0.66997 0.10981 0.39949 0.0
C1526 C 0.72715 0.10573 0.29105 0.0
C1527 C 0.69578 0.10413 0.47781 0.0
C1528 C 0.76778 0.07774 0.42973 0.0
C1529 C 0.78027 0.09721 0.44535 0.0
C1530 C 0.74519 0.07995 0.41011 0.0
C1531 C 0.73526 0.10226 0.4048 0.0
C1532 C 0.74819 0.12202 0.41942 0.0
C1533 C 0.77045 0.11919 0.44035 0.0
C1534 C 0.73178 0.05844 0.39626 0.0
C1535 C 0.73852 0.14611 0.41303 0.0
H1536 H 0.68194 0.10964 0.26887 0.0
H1537 H 0.65574 0.11163 0.42674 0.0
H1538 H 0.73987 0.11948 0.30035 0.0
H1539 H 0.7363 0.08893 0.29419 0.0
H1540 H 0.72129 0.10803 0.24989 0.0
H1541 H 0.67915 0.1041 0.49952 0.0
H1542 H 0.70524 0.08792 0.48695 0.0
H1543 H 0.70645 0.11869 0.49237 0.0
H1544 H 0.77553 0.06079 0.43437 0.0
H1545 H 0.78035 0.13413 0.45267 0.0
H1546 H 0.72652 0.05896 0.35447 0.0
H1547 H 0.71574 0.05765 0.42001 0.0
H1548 H 0.74194 0.04241 0.40318 0.0
H1549 H 0.73313 0.14893 0.37175 0.0
H1550 H 0.75123 0.15965 0.42397 0.0
H1551 H 0.72292 0.14823 0.43785 0.0
C1552 C 0.60801 0.75752 0.73997 0.0
C1553 C 0.58725 0.76895 0.7289 0.0
C1554 C 0.61307 0.73608 0.71709 0.0
C1555 C 0.59659 0.72557 0.68371 0.0
C1556 C 0.5754 0.73695 0.67308 0.0
C1557 C 0.57116 0.75878 0.69517 0.0
C1558 C 0.63616 0.72487 0.72799 0.0
C1559 C 0.55715 0.72598 0.63892 0.0
C1560 C 0.6173 0.68007 0.58742 0.0
C1561 C 0.61328 0.65946 0.61519 0.0
C1562 C 0.61206 0.70167 0.60935 0.0
C1563 C 0.60174 0.70277 0.65954 0.0
C1564 C 0.59699 0.68213 0.68727 0.0
C1565 C 0.60317 0.66078 0.66519 0.0
C1566 C 0.61788 0.72334 0.57908 0.0
C1567 C 0.5855 0.68261 0.74043 0.0
H1568 H 0.62048 0.7657 0.76565 0.0
H1569 H 0.5551 0.76776 0.68708 0.0
H1570 H 0.63361 0.70785 0.74714 0.0
H1571 H 0.64542 0.72169 0.69057 0.0
H1572 H 0.64728 0.73567 0.75365 0.0
H1573 H 0.54129 0.73676 0.6361 0.0
H1574 H 0.56403 0.72317 0.59884 0.0
H1575 H 0.55241 0.70879 0.65489 0.0
H1576 H 0.62447 0.67942 0.54823 0.0
H1577 H 0.60028 0.64514 0.68758 0.0
H1578 H 0.62951 0.73447 0.60272 0.0
H1579 H 0.60196 0.73345 0.57123 0.0
H1580 H 0.62645 0.71952 0.54107 0.0
H1581 H 0.59696 0.69124 0.76925 0.0
H1582 H 0.58144 0.665 0.75509 0.0
H1583 H 0.56925 0.69279 0.73851 0.0
C1584 C 0.3098 0.08877 0.82867 0.0
C1585 C 0.33004 0.09319 0.85737 0.0
C1586 C 0.28832 0.08685 0.85369 0.0
C1587 C 0.28714 0.08858 0.90894 0.0
C1588 C 0.30765 0.09122 0.93849 0.0
C1589 C 0.3288 0.09384 0.91236 0.0
C1590 C 0.26677 0.0844 0.82072 0.0
C1591 C 0.30713 0.09253 0.99762 0.0
C1592 C 0.23289 0.11411 0.96835 0.0
C1593 C 0.22077 0.09429 0.98337 0.0
C1594 C 0.25443 0.11241 0.94371 0.0
C1595 C 0.26432 0.09032 0.93521 0.0
C1596 C 0.25231 0.07021 0.9512 0.0
C1597 C 0.23041 0.07244 0.97442 0.0
C1598 C 0.2664 0.13426 0.92604 0.0
C1599 C 0.26265 0.04644 0.94414 0.0
H1600 H 0.31057 0.08746 0.78634 0.0
H1601 H 0.34417 0.09741 0.93518 0.0
H1602 H 0.25609 0.06979 0.83491 0.0
H1603 H 0.25616 0.10032 0.8243 0.0
H1604 H 0.27079 0.08158 0.77861 0.0
H1605 H 0.32468 0.091 0.01496 0.0
H1606 H 0.2996 0.10932 0.00994 0.0
H1607 H 0.29606 0.07865 0.01399 0.0
H1608 H 0.22516 0.13095 0.97473 0.0
H1609 H 0.22093 0.05719 0.98641 0.0
H1610 H 0.26987 0.13344 0.88328 0.0
H1611 H 0.28331 0.13595 0.94614 0.0
H1612 H 0.256 0.15 0.93428 0.0
H1613 H 0.26567 0.04297 0.90193 0.0
H1614 H 0.25136 0.03263 0.96015 0.0
H1615 H 0.27969 0.04553 0.96403 0.0
C1616 C 0.86394 0.83447 0.12381 0.0
C1617 C 0.87486 0.84087 0.07706 0.0
C1618 C 0.8689 0.81319 0.1478 0.0
C1619 C 0.88562 0.79834 0.12509 0.0
C1620 C 0.89655 0.8047 0.07759 0.0
C1621 C 0.89085 0.82582 0.05385 0.0
C1622 C 0.85655 0.80678 0.19786 0.0
C1623 C 0.91483 0.78958 0.0528 0.0
C1624 C 0.91586 0.75676 0.21756 0.0
C1625 C 0.90499 0.73582 0.20554 0.0
C1626 C 0.91002 0.77715 0.19095 0.0
C1627 C 0.89245 0.77665 0.15229 0.0
C1628 C 0.88138 0.75551 0.14003 0.0
C1629 C 0.888 0.73525 0.16644 0.0
C1630 C 0.92261 0.79923 0.20425 0.0
C1631 C 0.86226 0.7544 0.09984 0.0
H1632 H 0.85153 0.84615 0.14157 0.0
H1633 H 0.8995 0.83097 0.018 0.0
H1634 H 0.84858 0.78944 0.19394 0.0
H1635 H 0.86912 0.80584 0.23064 0.0
H1636 H 0.84287 0.81946 0.20834 0.0
H1637 H 0.92121 0.79674 0.01508 0.0
H1638 H 0.92969 0.78772 0.08 0.0
H1639 H 0.90789 0.772 0.0456 0.0
H1640 H 0.92913 0.75705 0.24754 0.0
H1641 H 0.87943 0.71907 0.15772 0.0
H1642 H 0.91026 0.81218 0.21991 0.0
H1643 H 0.93043 0.8067 0.16833 0.0
H1644 H 0.93648 0.79646 0.23374 0.0
H1645 H 0.84787 0.76596 0.11175 0.0
H1646 H 0.8554 0.7366 0.09492 0.0
H1647 H 0.86861 0.76062 0.06133 0.0
C1648 C 0.2606 0.40722 0.47592 0.0
C1649 C 0.28021 0.41287 0.44638 0.0
C1650 C 0.23833 0.40988 0.45518 0.0
C1651 C 0.23561 0.41829 0.40343 0.0
C1652 C 0.25526 0.42565 0.37482 0.0
C1653 C 0.27739 0.42291 0.39677 0.0
C1654 C 0.21786 0.40205 0.48729 0.0
C1655 C 0.2531 0.43476 0.3196 0.0
C1656 C 0.18537 0.39218 0.32915 0.0
C1657 C 0.16877 0.40984 0.3312 0.0
C1658 C 0.20728 0.39501 0.35148 0.0
C1659 C 0.2128 0.41602 0.37698 0.0
C1660 C 0.1962 0.43402 0.37914 0.0
C1661 C 0.17431 0.43071 0.35627 0.0
C1662 C 0.22438 0.37528 0.34857 0.0
C1663 C 0.20151 0.45664 0.40598 0.0
H1664 H 0.26275 0.3999 0.51472 0.0
H1665 H 0.29252 0.42725 0.37381 0.0
H1666 H 0.20382 0.41511 0.4859 0.0
H1667 H 0.2109 0.38576 0.4706 0.0
H1668 H 0.22255 0.39888 0.52892 0.0
H1669 H 0.26932 0.44304 0.30591 0.0
H1670 H 0.24894 0.42027 0.2927 0.0
H1671 H 0.2388 0.4475 0.31679 0.0
H1672 H 0.18108 0.37584 0.31076 0.0
H1673 H 0.16163 0.4445 0.35761 0.0
H1674 H 0.22861 0.36916 0.38869 0.0
H1675 H 0.24072 0.38123 0.3303 0.0
H1676 H 0.21768 0.36041 0.3256 0.0
H1677 H 0.20499 0.45357 0.44819 0.0
H1678 H 0.18709 0.46925 0.40244 0.0
H1679 H 0.21733 0.46442 0.38894 0.0
C1680 C 0.39051 0.75987 0.1893 0.0
C1681 C 0.41426 0.76384 0.19579 0.0
C1682 C 0.38236 0.73877 0.16896 0.0
C1683 C 0.39833 0.72118 0.15527 0.0
C1684 C 0.42226 0.72509 0.16172 0.0
C1685 C 0.4299 0.74635 0.18131 0.0
C1686 C 0.3567 0.73531 0.16191 0.0
C1687 C 0.43991 0.70682 0.14765 0.0
C1688 C 0.381 0.65801 0.1431 0.0
C1689 C 0.38063 0.65504 0.08846 0.0
C1690 C 0.38593 0.67965 0.16552 0.0
C1691 C 0.39036 0.69886 0.13257 0.0
C1692 C 0.38932 0.69615 0.0775 0.0
C1693 C 0.38474 0.67429 0.05618 0.0
C1694 C 0.38714 0.68181 0.22444 0.0
C1695 C 0.39386 0.71619 0.04095 0.0
H1696 H 0.37827 0.77314 0.20063 0.0
H1697 H 0.44829 0.74926 0.18469 0.0
H1698 H 0.35281 0.73168 0.12011 0.0
H1699 H 0.35091 0.72011 0.18488 0.0
H1700 H 0.34654 0.75066 0.17444 0.0
H1701 H 0.45784 0.71225 0.15702 0.0
H1702 H 0.43616 0.69056 0.16908 0.0
H1703 H 0.43892 0.70289 0.10513 0.0
H1704 H 0.37752 0.64339 0.16844 0.0
H1705 H 0.38497 0.67223 0.01397 0.0
H1706 H 0.37594 0.69618 0.23805 0.0
H1707 H 0.40509 0.68598 0.23641 0.0
H1708 H 0.38178 0.66566 0.24464 0.0
H1709 H 0.3832 0.73134 0.0523 0.0
H1710 H 0.39008 0.71181 0.99941 0.0
H1711 H 0.41224 0.72144 0.0439 0.0
C1712 C 0.22718 0.90929 0.40546 0.0
C1713 C 0.22715 0.91449 0.4591 0.0
C1714 C 0.24697 0.90008 0.38123 0.0
C1715 C 0.26694 0.89551 0.41176 0.0
C1716 C 0.26659 0.89988 0.46637 0.0
C1717 C 0.24679 0.90957 0.48921 0.0
C1718 C 0.24684 0.89611 0.32274 0.0
C1719 C 0.28732 0.89483 0.50052 0.0
C1720 C 0.31487 0.85686 0.35878 0.0
C1721 C 0.33161 0.87324 0.34512 0.0
C1722 C 0.29354 0.86381 0.37999 0.0
C1723 C 0.28876 0.88769 0.38639 0.0
C1724 C 0.3054 0.90426 0.37093 0.0
C1725 C 0.32672 0.89682 0.35101 0.0
C1726 C 0.27641 0.84565 0.39695 0.0
C1727 C 0.30083 0.92988 0.37613 0.0
H1728 H 0.21201 0.91328 0.38221 0.0
H1729 H 0.24658 0.91335 0.53083 0.0
H1730 H 0.25954 0.90778 0.30379 0.0
H1731 H 0.25218 0.87812 0.31368 0.0
H1732 H 0.22957 0.89932 0.30513 0.0
H1733 H 0.28356 0.8974 0.54284 0.0
H1734 H 0.29321 0.87676 0.49451 0.0
H1735 H 0.30182 0.90634 0.48937 0.0
H1736 H 0.31875 0.83863 0.35416 0.0
H1737 H 0.3396 0.90946 0.33971 0.0
H1738 H 0.25948 0.84862 0.37767 0.0
H1739 H 0.27355 0.84689 0.43989 0.0
H1740 H 0.28239 0.82786 0.38755 0.0
H1741 H 0.28435 0.93447 0.35645 0.0
H1742 H 0.31491 0.94048 0.35893 0.0
H1743 H 0.29903 0.93451 0.41814 0.0
C1744 C 0.11787 0.82208 0.58235 0.0
C1745 C 0.11847 0.84198 0.61402 0.0
C1746 C 0.11218 0.80038 0.60324 0.0
C1747 C 0.10613 0.79852 0.65679 0.0
C1748 C 0.10618 0.8185 0.68884 0.0
C1749 C 0.11267 0.83988 0.66732 0.0
C1750 C 0.11282 0.77939 0.56801 0.0
C1751 C 0.09938 0.81729 0.74594 0.0
C1752 C 0.07183 0.74561 0.69883 0.0
C1753 C 0.08887 0.73249 0.72383 0.0
C1754 C 0.07712 0.76731 0.67722 0.0
C1755 C 0.10015 0.7756 0.6795 0.0
C1756 C 0.11751 0.76198 0.70368 0.0
C1757 C 0.11155 0.74071 0.72631 0.0
C1758 C 0.05803 0.78156 0.65296 0.0
C1759 C 0.14236 0.76984 0.70557 0.0
H1760 H 0.12165 0.82338 0.54088 0.0
H1761 H 0.11336 0.85492 0.69256 0.0
H1762 H 0.12464 0.76617 0.58466 0.0
H1763 H 0.0954 0.7715 0.56566 0.0
H1764 H 0.11865 0.78363 0.52765 0.0
H1765 H 0.09903 0.8346 0.76479 0.0
H1766 H 0.08202 0.80934 0.74984 0.0
H1767 H 0.11172 0.80616 0.76765 0.0
H1768 H 0.0543 0.7391 0.69758 0.0
H1769 H 0.12459 0.73029 0.74567 0.0
H1770 H 0.06205 0.78524 0.61128 0.0
H1771 H 0.05669 0.79844 0.67341 0.0
H1772 H 0.04101 0.77275 0.655 0.0
H1773 H 0.14866 0.77349 0.66531 0.0
H1774 H 0.1539 0.75675 0.72383 0.0
H1775 H 0.14371 0.78614 0.72824 0.0
C1776 C 0.26527 0.56584 0.90558 0.0
C1777 C 0.27463 0.58012 0.94439 0.0
C1778 C 0.2438 0.57108 0.8826 0.0
C1779 C 0.2319 0.59144 0.89787 0.0
C1780 C 0.2418 0.6063 0.93583 0.0
C1781 C 0.26289 0.60026 0.95916 0.0
C1782 C 0.23354 0.55453 0.84326 0.0
C1783 C 0.23004 0.6285 0.95209 0.0
C1784 C 0.18537 0.61653 0.80936 0.0
C1785 C 0.16504 0.61069 0.83649 0.0
C1786 C 0.20722 0.61022 0.82858 0.0
C1787 C 0.20887 0.5971 0.87524 0.0
C1788 C 0.18849 0.59042 0.90188 0.0
C1789 C 0.1669 0.59757 0.88268 0.0
C1790 C 0.22857 0.61808 0.79962 0.0
C1791 C 0.18951 0.57605 0.95129 0.0
H1792 H 0.27441 0.55019 0.89466 0.0
H1793 H 0.27038 0.61136 0.98885 0.0
H1794 H 0.21685 0.54782 0.85827 0.0
H1795 H 0.22986 0.56362 0.80589 0.0
H1796 H 0.24516 0.53966 0.83503 0.0
H1797 H 0.2407 0.63876 0.97982 0.0
H1798 H 0.22631 0.63927 0.91706 0.0
H1799 H 0.21327 0.62459 0.97113 0.0
H1800 H 0.1843 0.62609 0.77294 0.0
H1801 H 0.15149 0.59319 0.9046 0.0
H1802 H 0.23931 0.60297 0.78853 0.0
H1803 H 0.23923 0.62915 0.82563 0.0
H1804 H 0.22433 0.62801 0.76358 0.0
H1805 H 0.20028 0.56042 0.94479 0.0
H1806 H 0.1721 0.57055 0.96464 0.0
H1807 H 0.19775 0.58615 0.98317 0.0
loop_
_geom_bond_atom_site_label_1
_geom_bond_atom_site_label_2
_geom_bond_distance
_geom_bond_site_symmetry_2
_ccdc_geom_bond_type
C0 C1 1.351 . S
C0 N3 1.368 . S
C0 H5 0.931 . S
C1 C0 1.351 . S
C1 N2 1.373 1_556 S
C1 H29 0.930 . S
N2 C1 1.373 1_554 S
N2 C4 1.340 . S
N3 C0 1.368 . S
N3 C4 1.321 1_556 S
N3 Co6 2.135 . S
C4 N2 1.340 . S
C4 N3 1.321 1_554 S
C4 H28 0.930 . S
H5 C0 0.931 . S
Co6 N3 2.135 . S
Co6 N9 2.121 . S
Co6 O14 2.055 . S
Co6 O17 2.039 1_556 S
Co6 N20 2.140 1_556 S
C7 O8 1.227 . S
C7 O17 1.265 . S
O8 C7 1.227 . S
N9 Co6 2.121 . S
N9 C11 1.375 1_556 S
N9 C12 1.313 . S
C10 C11 1.338 . S
C10 N13 1.377 1_554 S
C10 H30 0.930 . S
C11 N9 1.375 1_554 S
C11 C10 1.338 . S
C11 H15 0.931 . S
C12 N9 1.313 . S
C12 N13 1.344 . S
C12 H16 0.930 . S
N13 C10 1.377 1_556 S
N13 C12 1.344 . S
O14 Co6 2.055 . S
O14 C18 1.253 . S
H15 C11 0.931 . S
H16 C12 0.930 . S
O17 Co6 2.039 1_554 S
O17 C7 1.265 . S
C18 O14 1.253 . S
C18 O19 1.227 . S
O19 C18 1.227 . S
N20 Co6 2.140 1_554 S
N20 C23 1.346 . S
N20 C24 1.345 1_554 S
C21 C22 1.387 . S
C21 C25 1.391 1_554 S
C22 C21 1.387 . S
C22 C23 1.369 . S
C22 H31 0.929 . S
C23 N20 1.346 . S
C23 C22 1.369 . S
C23 H26 0.928 . S
C24 N20 1.345 1_556 S
C24 C25 1.371 . S
C24 H27 0.931 . S
C25 C21 1.391 1_556 S
C25 C24 1.371 . S
C25 H32 0.930 . S
H26 C23 0.928 . S
H27 C24 0.931 . S
H28 C4 0.930 . S
H29 C1 0.930 . S
H30 C10 0.930 . S
H31 C22 0.929 . S
H32 C25 0.930 . S
C33 C34 1.351 . S
C33 N36 1.368 . S
C33 H38 0.931 . S
C34 C33 1.351 . S
C34 N35 1.373 . S
C34 H62 0.930 . S
N35 C34 1.373 . S
N35 C37 1.340 . S
N36 C33 1.368 . S
N36 C37 1.321 . S
N36 Co39 2.135 . S
C37 N35 1.340 . S
C37 N36 1.321 . S
C37 H61 0.930 . S
H38 C33 0.931 . S
Co39 N36 2.135 . S
Co39 N42 2.121 . S
Co39 O47 2.055 . S
Co39 O50 2.039 . S
Co39 N53 2.140 . S
C40 O41 1.227 . S
C40 O50 1.265 . S
O41 C40 1.227 . S
N42 Co39 2.121 . S
N42 C44 1.375 . S
N42 C45 1.313 . S
C43 C44 1.338 . S
C43 N46 1.377 . S
C43 H63 0.930 . S
C44 N42 1.375 . S
C44 C43 1.338 . S
C44 H48 0.931 . S
C45 N42 1.313 . S
C45 N46 1.344 . S
C45 H49 0.930 . S
N46 C43 1.377 . S
N46 C45 1.344 . S
O47 Co39 2.055 . S
O47 C51 1.253 . S
H48 C44 0.931 . S
H49 C45 0.930 . S
O50 Co39 2.039 . S
O50 C40 1.265 . S
C51 O47 1.253 . S
C51 O52 1.227 . S
O52 C51 1.227 . S
N53 Co39 2.140 . S
N53 C56 1.346 . S
N53 C57 1.345 . S
C54 C55 1.387 . S
C54 C58 1.391 . S
C55 C54 1.387 . S
C55 C56 1.369 . S
C55 H64 0.929 . S
C56 N53 1.346 . S
C56 C55 1.369 . S
C56 H59 0.928 . S
C57 N53 1.345 . S
C57 C58 1.371 . S
C57 H60 0.931 . S
C58 C54 1.391 . S
C58 C57 1.371 . S
C58 H65 0.930 . S
H59 C56 0.928 . S
H60 C57 0.931 . S
H61 C37 0.930 . S
H62 C34 0.930 . S
H63 C43 0.930 . S
H64 C55 0.929 . S
H65 C58 0.930 . S
C66 C67 1.351 . S
C66 N69 1.368 . S
C66 H71 0.931 . S
C67 C66 1.351 . S
C67 N68 1.373 . S
C67 H95 0.930 . S
N68 C67 1.373 . S
N68 C70 1.340 . S
N69 C66 1.368 . S
N69 C70 1.321 . S
N69 Co72 2.135 . S
C70 N68 1.340 . S
C70 N69 1.321 . S
C70 H94 0.930 . S
H71 C66 0.931 . S
Co72 N69 2.135 . S
Co72 N75 2.121 . S
Co72 O80 2.055 . S
Co72 O83 2.039 . S
Co72 N86 2.140 . S
C73 O74 1.227 . S
C73 O83 1.265 . S
O74 C73 1.227 . S
N75 Co72 2.121 . S
N75 C77 1.375 . S
N75 C78 1.313 . S
C76 C77 1.338 . S
C76 N79 1.377 . S
C76 H96 0.930 . S
C77 N75 1.375 . S
C77 C76 1.338 . S
C77 H81 0.931 . S
C78 N75 1.313 . S
C78 N79 1.344 . S
C78 H82 0.930 . S
N79 C76 1.377 . S
N79 C78 1.344 . S
O80 Co72 2.055 . S
O80 C84 1.253 . S
H81 C77 0.931 . S
H82 C78 0.930 . S
O83 Co72 2.039 . S
O83 C73 1.265 . S
C84 O80 1.253 . S
C84 O85 1.227 . S
O85 C84 1.227 . S
N86 Co72 2.140 . S
N86 C89 1.346 . S
N86 C90 1.345 . S
C87 C88 1.387 . S
C87 C91 1.391 . S
C88 C87 1.387 . S
C88 C89 1.369 . S
C88 H97 0.929 . S
C89 N86 1.346 . S
C89 C88 1.369 . S
C89 H92 0.928 . S
C90 N86 1.345 . S
C90 C91 1.371 . S
C90 H93 0.931 . S
C91 C87 1.391 . S
C91 C90 1.371 . S
C91 H98 0.930 . S
H92 C89 0.928 . S
H93 C90 0.931 . S
H94 C70 0.930 . S
H95 C67 0.930 . S
H96 C76 0.930 . S
H97 C88 0.929 . S
H98 C91 0.930 . S
C99 C100 1.351 . S
C99 N102 1.368 . S
C99 H104 0.931 . S
C100 C99 1.351 . S
C100 N101 1.373 . S
C100 H128 0.930 . S
N101 C100 1.373 . S
N101 C103 1.340 . S
N102 C99 1.368 . S
N102 C103 1.321 . S
N102 Co105 2.135 . S
C103 N101 1.340 . S
C103 N102 1.321 . S
C103 H127 0.930 . S
H104 C99 0.931 . S
Co105 N102 2.135 . S
Co105 N108 2.121 . S
Co105 O113 2.055 . S
Co105 O116 2.039 . S
Co105 N119 2.140 . S
C106 O107 1.227 . S
C106 O116 1.265 . S
O107 C106 1.227 . S
N108 Co105 2.121 . S
N108 C110 1.375 . S
N108 C111 1.313 . S
C109 C110 1.338 . S
C109 N112 1.377 . S
C109 H129 0.930 . S
C110 N108 1.375 . S
C110 C109 1.338 . S
C110 H114 0.931 . S
C111 N108 1.313 . S
C111 N112 1.344 . S
C111 H115 0.930 . S
N112 C109 1.377 . S
N112 C111 1.344 . S
O113 Co105 2.055 . S
O113 C117 1.253 . S
H114 C110 0.931 . S
H115 C111 0.930 . S
O116 Co105 2.039 . S
O116 C106 1.265 . S
C117 O113 1.253 . S
C117 O118 1.227 . S
O118 C117 1.227 . S
N119 Co105 2.140 . S
N119 C122 1.346 . S
N119 C123 1.345 . S
C120 C121 1.387 . S
C120 C124 1.391 . S
C121 C120 1.387 . S
C121 C122 1.369 . S
C121 H130 0.929 . S
C122 N119 1.346 . S
C122 C121 1.369 . S
C122 H125 0.928 . S
C123 N119 1.345 . S
C123 C124 1.371 . S
C123 H126 0.931 . S
C124 C120 1.391 . S
C124 C123 1.371 . S
C124 H131 0.930 . S
H125 C122 0.928 . S
H126 C123 0.931 . S
H127 C103 0.930 . S
H128 C100 0.930 . S
H129 C109 0.930 . S
H130 C121 0.929 . S
H131 C124 0.930 . S
C132 C133 1.351 . S
C132 N135 1.368 . S
C132 H137 0.931 . S
C133 C132 1.351 . S
C133 N134 1.373 . S
C133 H161 0.930 . S
N134 C133 1.373 . S
N134 C136 1.340 . S
N135 C132 1.368 . S
N135 C136 1.321 . S
N135 Co138 2.135 . S
C136 N134 1.340 . S
C136 N135 1.321 . S
C136 H160 0.930 . S
H137 C132 0.931 . S
Co138 N135 2.135 . S
Co138 N141 2.121 . S
Co138 O146 2.055 . S
Co138 O149 2.039 . S
Co138 N152 2.140 . S
C139 O140 1.227 . S
C139 O149 1.265 . S
O140 C139 1.227 . S
N141 Co138 2.121 . S
N141 C143 1.375 . S
N141 C144 1.313 . S
C142 C143 1.338 . S
C142 N145 1.377 . S
C142 H162 0.930 . S
C143 N141 1.375 . S
C143 C142 1.338 . S
C143 H147 0.931 . S
C144 N141 1.313 . S
C144 N145 1.344 . S
C144 H148 0.930 . S
N145 C142 1.377 . S
N145 C144 1.344 . S
O146 Co138 2.055 . S
O146 C150 1.253 . S
H147 C143 0.931 . S
H148 C144 0.930 . S
O149 Co138 2.039 . S
O149 C139 1.265 . S
C150 O146 1.253 . S
C150 O151 1.227 . S
O151 C150 1.227 . S
N152 Co138 2.140 . S
N152 C155 1.346 . S
N152 C156 1.345 . S
C153 C154 1.387 . S
C153 C157 1.391 . S
C154 C153 1.387 . S
C154 C155 1.369 . S
C154 H163 0.929 . S
C155 N152 1.346 . S
C155 C154 1.369 . S
C155 H158 0.928 . S
C156 N152 1.345 . S
C156 C157 1.371 . S
C156 H159 0.931 . S
C157 C153 1.391 . S
C157 C156 1.371 . S
C157 H164 0.930 . S
H158 C155 0.928 . S
H159 C156 0.931 . S
H160 C136 0.930 . S
H161 C133 0.930 . S
H162 C142 0.930 . S
H163 C154 0.929 . S
H164 C157 0.930 . S
C165 C166 1.351 . S
C165 N168 1.368 . S
C165 H170 0.931 . S
C166 C165 1.351 . S
C166 N167 1.373 . S
C166 H194 0.930 . S
N167 C166 1.373 . S
N167 C169 1.340 . S
N168 C165 1.368 . S
N168 C169 1.321 . S
N168 Co171 2.135 . S
C169 N167 1.340 . S
C169 N168 1.321 . S
C169 H193 0.930 . S
H170 C165 0.931 . S
Co171 N168 2.135 . S
Co171 N174 2.121 . S
Co171 O179 2.055 . S
Co171 O182 2.039 . S
Co171 N185 2.140 . S
C172 O173 1.227 . S
C172 O182 1.265 . S
O173 C172 1.227 . S
N174 Co171 2.121 . S
N174 C176 1.375 . S
N174 C177 1.313 . S
C175 C176 1.338 . S
C175 N178 1.377 . S
C175 H195 0.930 . S
C176 N174 1.375 . S
C176 C175 1.338 . S
C176 H180 0.931 . S
C177 N174 1.313 . S
C177 N178 1.344 . S
C177 H181 0.930 . S
N178 C175 1.377 . S
N178 C177 1.344 . S
O179 Co171 2.055 . S
O179 C183 1.253 . S
H180 C176 0.931 . S
H181 C177 0.930 . S
O182 Co171 2.039 . S
O182 C172 1.265 . S
C183 O179 1.253 . S
C183 O184 1.227 . S
O184 C183 1.227 . S
N185 Co171 2.140 . S
N185 C188 1.346 . S
N185 C189 1.345 . S
C186 C187 1.387 . S
C186 C190 1.391 . S
C187 C186 1.387 . S
C187 C188 1.369 . S
C187 H196 0.929 . S
C188 N185 1.346 . S
C188 C187 1.369 . S
C188 H191 0.928 . S
C189 N185 1.345 . S
C189 C190 1.371 . S
C189 H192 0.931 . S
C190 C186 1.391 . S
C190 C189 1.371 . S
C190 H197 0.930 . S
H191 C188 0.928 . S
H192 C189 0.931 . S
H193 C169 0.930 . S
H194 C166 0.930 . S
H195 C175 0.930 . S
H196 C187 0.929 . S
H197 C190 0.930 . S
C198 C199 1.351 . S
C198 N201 1.368 . S
C198 H203 0.931 . S
C199 C198 1.351 . S
C199 N200 1.373 1_556 S
C199 H227 0.930 . S
N200 C199 1.373 1_554 S
N200 C202 1.340 . S
N201 C198 1.368 . S
N201 C202 1.321 1_556 S
N201 Co204 2.135 . S
C202 N200 1.340 . S
C202 N201 1.321 1_554 S
C202 H226 0.930 . S
H203 C198 0.931 . S
Co204 N201 2.135 . S
Co204 N207 2.121 . S
Co204 O212 2.055 . S
Co204 O215 2.039 1_556 S
Co204 N218 2.140 1_556 S
C205 O206 1.227 . S
C205 O215 1.265 . S
O206 C205 1.227 . S
N207 Co204 2.121 . S
N207 C209 1.375 1_556 S
N207 C210 1.313 . S
C208 C209 1.338 . S
C208 N211 1.377 1_554 S
C208 H228 0.930 . S
C209 N207 1.375 1_554 S
C209 C208 1.338 . S
C209 H213 0.931 . S
C210 N207 1.313 . S
C210 N211 1.344 . S
C210 H214 0.930 . S
N211 C208 1.377 1_556 S
N211 C210 1.344 . S
O212 Co204 2.055 . S
O212 C216 1.253 . S
H213 C209 0.931 . S
H214 C210 0.930 . S
O215 Co204 2.039 1_554 S
O215 C205 1.265 . S
C216 O212 1.253 . S
C216 O217 1.227 . S
O217 C216 1.227 . S
N218 Co204 2.140 1_554 S
N218 C221 1.346 . S
N218 C222 1.345 1_554 S
C219 C220 1.387 . S
C219 C223 1.391 1_554 S
C220 C219 1.387 . S
C220 C221 1.369 . S
C220 H229 0.929 . S
C221 N218 1.346 . S
C221 C220 1.369 . S
C221 H224 0.928 . S
C222 N218 1.345 1_556 S
C222 C223 1.371 . S
C222 H225 0.931 . S
C223 C219 1.391 1_556 S
C223 C222 1.371 . S
C223 H230 0.930 . S
H224 C221 0.928 . S
H225 C222 0.931 . S
H226 C202 0.930 . S
H227 C199 0.930 . S
H228 C208 0.930 . S
H229 C220 0.929 . S
H230 C223 0.930 . S
C231 C232 1.351 . S
C231 N234 1.368 . S
C231 H236 0.931 . S
C232 C231 1.351 . S
C232 N233 1.373 . S
C232 H260 0.930 . S
N233 C232 1.373 . S
N233 C235 1.340 . S
N234 C231 1.368 . S
N234 C235 1.321 . S
N234 Co237 2.135 . S
C235 N233 1.340 . S
C235 N234 1.321 . S
C235 H259 0.930 . S
H236 C231 0.931 . S
Co237 N234 2.135 . S
Co237 N240 2.121 . S
Co237 O245 2.055 . S
Co237 O248 2.039 . S
Co237 N251 2.140 . S
C238 O239 1.227 . S
C238 O248 1.265 . S
O239 C238 1.227 . S
N240 Co237 2.121 . S
N240 C242 1.375 . S
N240 C243 1.313 . S
C241 C242 1.338 . S
C241 N244 1.377 . S
C241 H261 0.930 . S
C242 N240 1.375 . S
C242 C241 1.338 . S
C242 H246 0.931 . S
C243 N240 1.313 . S
C243 N244 1.344 . S
C243 H247 0.930 . S
N244 C241 1.377 . S
N244 C243 1.344 . S
O245 Co237 2.055 . S
O245 C249 1.253 . S
H246 C242 0.931 . S
H247 C243 0.930 . S
O248 Co237 2.039 . S
O248 C238 1.265 . S
C249 O245 1.253 . S
C249 O250 1.227 . S
O250 C249 1.227 . S
N251 Co237 2.140 . S
N251 C254 1.346 . S
N251 C255 1.345 . S
C252 C253 1.387 . S
C252 C256 1.391 . S
C253 C252 1.387 . S
C253 C254 1.369 . S
C253 H262 0.929 . S
C254 N251 1.346 . S
C254 C253 1.369 . S
C254 H257 0.928 . S
C255 N251 1.345 . S
C255 C256 1.371 . S
C255 H258 0.931 . S
C256 C252 1.391 . S
C256 C255 1.371 . S
C256 H263 0.930 . S
H257 C254 0.928 . S
H258 C255 0.931 . S
H259 C235 0.930 . S
H260 C232 0.930 . S
H261 C241 0.930 . S
H262 C253 0.929 . S
H263 C256 0.930 . S
C264 C265 1.351 . S
C264 N267 1.368 . S
C264 H269 0.931 . S
C265 C264 1.351 . S
C265 N266 1.373 . S
C265 H293 0.930 . S
N266 C265 1.373 . S
N266 C268 1.340 . S
N267 C264 1.368 . S
N267 C268 1.321 . S
N267 Co270 2.135 . S
C268 N266 1.340 . S
C268 N267 1.321 . S
C268 H292 0.930 . S
H269 C264 0.931 . S
Co270 N267 2.135 . S
Co270 N273 2.121 . S
Co270 O278 2.055 . S
Co270 O281 2.039 . S
Co270 N284 2.140 . S
C271 O272 1.227 . S
C271 O281 1.265 . S
O272 C271 1.227 . S
N273 Co270 2.121 . S
N273 C275 1.375 . S
N273 C276 1.313 . S
C274 C275 1.338 . S
C274 N277 1.377 . S
C274 H294 0.930 . S
C275 N273 1.375 . S
C275 C274 1.338 . S
C275 H279 0.931 . S
C276 N273 1.313 . S
C276 N277 1.344 . S
C276 H280 0.930 . S
N277 C274 1.377 . S
N277 C276 1.344 . S
O278 Co270 2.055 . S
O278 C282 1.253 . S
H279 C275 0.931 . S
H280 C276 0.930 . S
O281 Co270 2.039 . S
O281 C271 1.265 . S
C282 O278 1.253 . S
C282 O283 1.227 . S
O283 C282 1.227 . S
N284 Co270 2.140 . S
N284 C287 1.346 . S
N284 C288 1.345 . S
C285 C286 1.387 . S
C285 C289 1.391 . S
C286 C285 1.387 . S
C286 C287 1.369 . S
C286 H295 0.929 . S
C287 N284 1.346 . S
C287 C286 1.369 . S
C287 H290 0.928 . S
C288 N284 1.345 . S
C288 C289 1.371 . S
C288 H291 0.931 . S
C289 C285 1.391 . S
C289 C288 1.371 . S
C289 H296 0.930 . S
H290 C287 0.928 . S
H291 C288 0.931 . S
H292 C268 0.930 . S
H293 C265 0.930 . S
H294 C274 0.930 . S
H295 C286 0.929 . S
H296 C289 0.930 . S
C297 C298 1.351 . S
C297 N300 1.368 . S
C297 H302 0.931 . S
C298 C297 1.351 . S
C298 N299 1.373 . S
C298 H326 0.930 . S
N299 C298 1.373 . S
N299 C301 1.340 . S
N300 C297 1.368 . S
N300 C301 1.321 . S
N300 Co303 2.135 . S
C301 N299 1.340 . S
C301 N300 1.321 . S
C301 H325 0.930 . S
H302 C297 0.931 . S
Co303 N300 2.135 . S
Co303 N306 2.121 . S
Co303 O311 2.055 . S
Co303 O314 2.039 . S
Co303 N317 2.140 . S
C304 O305 1.227 . S
C304 O314 1.265 . S
O305 C304 1.227 . S
N306 Co303 2.121 . S
N306 C308 1.375 . S
N306 C309 1.313 . S
C307 C308 1.338 . S
C307 N310 1.377 . S
C307 H327 0.930 . S
C308 N306 1.375 . S
C308 C307 1.338 . S
C308 H312 0.931 . S
C309 N306 1.313 . S
C309 N310 1.344 . S
C309 H313 0.930 . S
N310 C307 1.377 . S
N310 C309 1.344 . S
O311 Co303 2.055 . S
O311 C315 1.253 . S
H312 C308 0.931 . S
H313 C309 0.930 . S
O314 Co303 2.039 . S
O314 C304 1.265 . S
C315 O311 1.253 . S
C315 O316 1.227 . S
O316 C315 1.227 . S
N317 Co303 2.140 . S
N317 C320 1.346 . S
N317 C321 1.345 . S
C318 C319 1.387 . S
C318 C322 1.391 . S
C319 C318 1.387 . S
C319 C320 1.369 . S
C319 H328 0.929 . S
C320 N317 1.346 . S
C320 C319 1.369 . S
C320 H323 0.928 . S
C321 N317 1.345 . S
C321 C322 1.371 . S
C321 H324 0.931 . S
C322 C318 1.391 . S
C322 C321 1.371 . S
C322 H329 0.930 . S
H323 C320 0.928 . S
H324 C321 0.931 . S
H325 C301 0.930 . S
H326 C298 0.930 . S
H327 C307 0.930 . S
H328 C319 0.929 . S
H329 C322 0.930 . S
C330 C331 1.351 . S
C330 N333 1.368 . S
C330 H335 0.931 . S
C331 C330 1.351 . S
C331 N332 1.373 1_556 S
C331 H359 0.930 . S
N332 C331 1.373 1_554 S
N332 C334 1.340 . S
N333 C330 1.368 . S
N333 C334 1.321 1_556 S
N333 Co336 2.135 . S
C334 N332 1.340 . S
C334 N333 1.321 1_554 S
C334 H358 0.930 . S
H335 C330 0.931 . S
Co336 N333 2.135 . S
Co336 N339 2.121 . S
Co336 O344 2.055 . S
Co336 O347 2.039 1_556 S
Co336 N350 2.140 1_556 S
C337 O338 1.227 . S
C337 O347 1.265 . S
O338 C337 1.227 . S
N339 Co336 2.121 . S
N339 C341 1.375 1_556 S
N339 C342 1.313 . S
C340 C341 1.338 . S
C340 N343 1.377 1_554 S
C340 H360 0.930 . S
C341 N339 1.375 1_554 S
C341 C340 1.338 . S
C341 H345 0.931 . S
C342 N339 1.313 . S
C342 N343 1.344 . S
C342 H346 0.930 . S
N343 C340 1.377 1_556 S
N343 C342 1.344 . S
O344 Co336 2.055 . S
O344 C348 1.253 . S
H345 C341 0.931 . S
H346 C342 0.930 . S
O347 Co336 2.039 1_554 S
O347 C337 1.265 . S
C348 O344 1.253 . S
C348 O349 1.227 . S
O349 C348 1.227 . S
N350 Co336 2.140 1_554 S
N350 C353 1.346 . S
N350 C354 1.345 1_554 S
C351 C352 1.387 . S
C351 C355 1.391 1_554 S
C352 C351 1.387 . S
C352 C353 1.369 . S
C352 H361 0.929 . S
C353 N350 1.346 . S
C353 C352 1.369 . S
C353 H356 0.928 . S
C354 N350 1.345 1_556 S
C354 C355 1.371 . S
C354 H357 0.931 . S
C355 C351 1.391 1_556 S
C355 C354 1.371 . S
C355 H362 0.930 . S
H356 C353 0.928 . S
H357 C354 0.931 . S
H358 C334 0.930 . S
H359 C331 0.930 . S
H360 C340 0.930 . S
H361 C352 0.929 . S
H362 C355 0.930 . S
C363 C364 1.351 . S
C363 N366 1.368 . S
C363 H368 0.931 . S
C364 C363 1.351 . S
C364 N365 1.373 . S
C364 H392 0.930 . S
N365 C364 1.373 . S
N365 C367 1.340 . S
N366 C363 1.368 . S
N366 C367 1.321 . S
N366 Co369 2.135 . S
C367 N365 1.340 . S
C367 N366 1.321 . S
C367 H391 0.930 . S
H368 C363 0.931 . S
Co369 N366 2.135 . S
Co369 N372 2.121 . S
Co369 O377 2.055 . S
Co369 O380 2.039 . S
Co369 N383 2.140 . S
C370 O371 1.227 . S
C370 O380 1.265 . S
O371 C370 1.227 . S
N372 Co369 2.121 . S
N372 C374 1.375 . S
N372 C375 1.313 . S
C373 C374 1.338 . S
C373 N376 1.377 . S
C373 H393 0.930 . S
C374 N372 1.375 . S
C374 C373 1.338 . S
C374 H378 0.931 . S
C375 N372 1.313 . S
C375 N376 1.344 . S
C375 H379 0.930 . S
N376 C373 1.377 . S
N376 C375 1.344 . S
O377 Co369 2.055 . S
O377 C381 1.253 . S
H378 C374 0.931 . S
H379 C375 0.930 . S
O380 Co369 2.039 . S
O380 C370 1.265 . S
C381 O377 1.253 . S
C381 O382 1.227 . S
O382 C381 1.227 . S
N383 Co369 2.140 . S
N383 C386 1.346 . S
N383 C387 1.345 . S
C384 C385 1.387 . S
C384 C388 1.391 . S
C385 C384 1.387 . S
C385 C386 1.369 . S
C385 H394 0.929 . S
C386 N383 1.346 . S
C386 C385 1.369 . S
C386 H389 0.928 . S
C387 N383 1.345 . S
C387 C388 1.371 . S
C387 H390 0.931 . S
C388 C384 1.391 . S
C388 C387 1.371 . S
C388 H395 0.930 . S
H389 C386 0.928 . S
H390 C387 0.931 . S
H391 C367 0.930 . S
H392 C364 0.930 . S
H393 C373 0.930 . S
H394 C385 0.929 . S
H395 C388 0.930 . S
C396 C397 1.351 . S
C396 N399 1.368 . S
C396 H401 0.931 . S
C397 C396 1.351 . S
C397 N398 1.373 1_556 S
C397 H425 0.930 . S
N398 C397 1.373 1_554 S
N398 C400 1.340 . S
N399 C396 1.368 . S
N399 C400 1.321 1_556 S
N399 Co402 2.135 . S
C400 N398 1.340 . S
C400 N399 1.321 1_554 S
C400 H424 0.930 . S
H401 C396 0.931 . S
Co402 N399 2.135 . S
Co402 N405 2.121 . S
Co402 O410 2.055 . S
Co402 O413 2.039 1_556 S
Co402 N416 2.140 1_556 S
C403 O404 1.227 . S
C403 O413 1.265 . S
O404 C403 1.227 . S
N405 Co402 2.121 . S
N405 C407 1.375 1_556 S
N405 C408 1.313 . S
C406 C407 1.338 . S
C406 N409 1.377 1_554 S
C406 H426 0.930 . S
C407 N405 1.375 1_554 S
C407 C406 1.338 . S
C407 H411 0.931 . S
C408 N405 1.313 . S
C408 N409 1.344 . S
C408 H412 0.930 . S
N409 C406 1.377 1_556 S
N409 C408 1.344 . S
O410 Co402 2.055 . S
O410 C414 1.253 . S
H411 C407 0.931 . S
H412 C408 0.930 . S
O413 Co402 2.039 1_554 S
O413 C403 1.265 . S
C414 O410 1.253 . S
C414 O415 1.227 . S
O415 C414 1.227 . S
N416 Co402 2.140 1_554 S
N416 C419 1.346 . S
N416 C420 1.345 1_554 S
C417 C418 1.387 . S
C417 C421 1.391 1_554 S
C418 C417 1.387 . S
C418 C419 1.369 . S
C418 H427 0.929 . S
C419 N416 1.346 . S
C419 C418 1.369 . S
C419 H422 0.928 . S
C420 N416 1.345 1_556 S
C420 C421 1.371 . S
C420 H423 0.931 . S
C421 C417 1.391 1_556 S
C421 C420 1.371 . S
C421 H428 0.930 . S
H422 C419 0.928 . S
H423 C420 0.931 . S
H424 C400 0.930 . S
H425 C397 0.930 . S
H426 C406 0.930 . S
H427 C418 0.929 . S
H428 C421 0.930 . S
C429 C430 1.351 . S
C429 N432 1.368 . S
C429 H434 0.931 . S
C430 C429 1.351 . S
C430 N431 1.373 . S
C430 H458 0.930 . S
N431 C430 1.373 . S
N431 C433 1.340 . S
N432 C429 1.368 . S
N432 C433 1.321 . S
N432 Co435 2.135 . S
C433 N431 1.340 . S
C433 N432 1.321 . S
C433 H457 0.930 . S
H434 C429 0.931 . S
Co435 N432 2.135 . S
Co435 N438 2.121 . S
Co435 O443 2.055 . S
Co435 O446 2.039 . S
Co435 N449 2.140 . S
C436 O437 1.227 . S
C436 O446 1.265 . S
O437 C436 1.227 . S
N438 Co435 2.121 . S
N438 C440 1.375 . S
N438 C441 1.313 . S
C439 C440 1.338 . S
C439 N442 1.377 . S
C439 H459 0.930 . S
C440 N438 1.375 . S
C440 C439 1.338 . S
C440 H444 0.931 . S
C441 N438 1.313 . S
C441 N442 1.344 . S
C441 H445 0.930 . S
N442 C439 1.377 . S
N442 C441 1.344 . S
O443 Co435 2.055 . S
O443 C447 1.253 . S
H444 C440 0.931 . S
H445 C441 0.930 . S
O446 Co435 2.039 . S
O446 C436 1.265 . S
C447 O443 1.253 . S
C447 O448 1.227 . S
O448 C447 1.227 . S
N449 Co435 2.140 . S
N449 C452 1.346 . S
N449 C453 1.345 . S
C450 C451 1.387 . S
C450 C454 1.391 . S
C451 C450 1.387 . S
C451 C452 1.369 . S
C451 H460 0.929 . S
C452 N449 1.346 . S
C452 C451 1.369 . S
C452 H455 0.928 . S
C453 N449 1.345 . S
C453 C454 1.371 . S
C453 H456 0.931 . S
C454 C450 1.391 . S
C454 C453 1.371 . S
C454 H461 0.930 . S
H455 C452 0.928 . S
H456 C453 0.931 . S
H457 C433 0.930 . S
H458 C430 0.930 . S
H459 C439 0.930 . S
H460 C451 0.929 . S
H461 C454 0.930 . S
C462 C463 1.351 . S
C462 N465 1.368 . S
C462 H467 0.931 . S
C463 C462 1.351 . S
C463 N464 1.373 . S
C463 H491 0.930 . S
N464 C463 1.373 . S
N464 C466 1.340 . S
N465 C462 1.368 . S
N465 C466 1.321 . S
N465 Co468 2.135 . S
C466 N464 1.340 . S
C466 N465 1.321 . S
C466 H490 0.930 . S
H467 C462 0.931 . S
Co468 N465 2.135 . S
Co468 N471 2.121 . S
Co468 O476 2.055 . S
Co468 O479 2.039 . S
Co468 N482 2.140 . S
C469 O470 1.227 . S
C469 O479 1.265 . S
O470 C469 1.227 . S
N471 Co468 2.121 . S
N471 C473 1.375 . S
N471 C474 1.313 . S
C472 C473 1.338 . S
C472 N475 1.377 . S
C472 H492 0.930 . S
C473 N471 1.375 . S
C473 C472 1.338 . S
C473 H477 0.931 . S
C474 N471 1.313 . S
C474 N475 1.344 . S
C474 H478 0.930 . S
N475 C472 1.377 . S
N475 C474 1.344 . S
O476 Co468 2.055 . S
O476 C480 1.253 . S
H477 C473 0.931 . S
H478 C474 0.930 . S
O479 Co468 2.039 . S
O479 C469 1.265 . S
C480 O476 1.253 . S
C480 O481 1.227 . S
O481 C480 1.227 . S
N482 Co468 2.140 . S
N482 C485 1.346 . S
N482 C486 1.345 . S
C483 C484 1.387 . S
C483 C487 1.391 . S
C484 C483 1.387 . S
C484 C485 1.369 . S
C484 H493 0.929 . S
C485 N482 1.346 . S
C485 C484 1.369 . S
C485 H488 0.928 . S
C486 N482 1.345 . S
C486 C487 1.371 . S
C486 H489 0.931 . S
C487 C483 1.391 . S
C487 C486 1.371 . S
C487 H494 0.930 . S
H488 C485 0.928 . S
H489 C486 0.931 . S
H490 C466 0.930 . S
H491 C463 0.930 . S
H492 C472 0.930 . S
H493 C484 0.929 . S
H494 C487 0.930 . S
C495 C496 1.351 . S
C495 N498 1.368 . S
C495 H500 0.931 . S
C496 C495 1.351 . S
C496 N497 1.373 . S
C496 H524 0.930 . S
N497 C496 1.373 . S
N497 C499 1.340 . S
N498 C495 1.368 . S
N498 C499 1.321 . S
N498 Co501 2.135 . S
C499 N497 1.340 . S
C499 N498 1.321 . S
C499 H523 0.930 . S
H500 C495 0.931 . S
Co501 N498 2.135 . S
Co501 N504 2.121 . S
Co501 O509 2.055 . S
Co501 O512 2.039 . S
Co501 N515 2.140 . S
C502 O503 1.227 . S
C502 O512 1.265 . S
O503 C502 1.227 . S
N504 Co501 2.121 . S
N504 C506 1.375 . S
N504 C507 1.313 . S
C505 C506 1.338 . S
C505 N508 1.377 . S
C505 H525 0.930 . S
C506 N504 1.375 . S
C506 C505 1.338 . S
C506 H510 0.931 . S
C507 N504 1.313 . S
C507 N508 1.344 . S
C507 H511 0.930 . S
N508 C505 1.377 . S
N508 C507 1.344 . S
O509 Co501 2.055 . S
O509 C513 1.253 . S
H510 C506 0.931 . S
H511 C507 0.930 . S
O512 Co501 2.039 . S
O512 C502 1.265 . S
C513 O509 1.253 . S
C513 O514 1.227 . S
O514 C513 1.227 . S
N515 Co501 2.140 . S
N515 C518 1.346 . S
N515 C519 1.345 . S
C516 C517 1.387 . S
C516 C520 1.391 . S
C517 C516 1.387 . S
C517 C518 1.369 . S
C517 H526 0.929 . S
C518 N515 1.346 . S
C518 C517 1.369 . S
C518 H521 0.928 . S
C519 N515 1.345 . S
C519 C520 1.371 . S
C519 H522 0.931 . S
C520 C516 1.391 . S
C520 C519 1.371 . S
C520 H527 0.930 . S
H521 C518 0.928 . S
H522 C519 0.931 . S
H523 C499 0.930 . S
H524 C496 0.930 . S
H525 C505 0.930 . S
H526 C517 0.929 . S
H527 C520 0.930 . S
C528 C529 1.391 . S
C528 C530 1.394 . S
C528 H544 0.931 . S
C529 C528 1.391 . S
C529 C533 1.376 . S
C530 C528 1.394 . S
C530 C531 1.369 . S
C530 C534 1.531 1_655 S
C531 C530 1.369 . S
C531 C532 1.410 1_565 S
C531 C539 1.503 1_665 S
C532 C531 1.410 1_545 S
C532 C533 1.392 1_545 S
C532 C535 1.511 1_554 S
C533 C529 1.376 . S
C533 C532 1.392 1_565 S
C533 H545 0.926 1_564 S
C534 C530 1.531 1_455 S
C534 H546 0.960 . S
C534 H547 0.962 . S
C534 H548 0.960 . S
C535 C532 1.511 1_556 S
C535 H549 0.961 . S
C535 H550 0.961 1_556 S
C535 H551 0.961 . S
C536 C537 1.370 . S
C536 C538 1.363 . S
C536 H552 0.931 . S
C537 C536 1.370 . S
C537 C541 1.408 1_554 S
C538 C536 1.363 . S
C538 C539 1.370 . S
C538 C542 1.524 . S
C539 C531 1.503 1_445 S
C539 C538 1.370 . S
C539 C540 1.403 1_554 S
C540 C539 1.403 1_556 S
C540 C541 1.404 . S
C540 C543 1.539 1_545 S
C541 C537 1.408 1_556 S
C541 C540 1.404 . S
C541 H553 0.930 . S
C542 C538 1.524 . S
C542 H554 0.956 1_545 S
C542 H555 0.961 1_455 S
C542 H556 0.961 . S
C543 C540 1.539 1_565 S
C543 H557 0.958 . S
C543 H558 0.961 1_565 S
C543 H559 0.960 . S
H544 C528 0.931 . S
H545 C533 0.926 1_546 S
H546 C534 0.960 . S
H547 C534 0.962 . S
H548 C534 0.960 . S
H549 C535 0.961 . S
H550 C535 0.961 1_554 S
H551 C535 0.961 . S
H552 C536 0.931 . S
H553 C541 0.930 . S
H554 C542 0.956 1_565 S
H555 C542 0.961 1_655 S
H556 C542 0.961 . S
H557 C543 0.958 . S
H558 C543 0.961 1_545 S
H559 C543 0.960 . S
C560 C561 1.432 . S
C560 C562 1.378 1_655 S
C560 H576 0.907 1_655 S
C561 C560 1.432 . S
C561 C565 1.376 . S
C562 C560 1.378 1_455 S
C562 C563 1.369 1_455 S
C562 C566 1.531 . S
C563 C562 1.369 1_655 S
C563 C564 1.410 . S
C563 C571 1.503 1_655 S
C564 C563 1.410 . S
C564 C565 1.392 . S
C564 C567 1.511 . S
C565 C561 1.376 . S
C565 C564 1.392 . S
C565 H577 0.929 . S
C566 C562 1.531 . S
C566 H578 0.960 . S
C566 H579 0.962 . S
C566 H580 0.960 . S
C567 C564 1.511 . S
C567 H581 0.961 . S
C567 H582 0.961 . S
C567 H583 0.961 . S
C568 C569 1.370 . S
C568 C570 1.363 . S
C568 H584 0.931 . S
C569 C568 1.370 . S
C569 C573 1.408 . S
C570 C568 1.363 . S
C570 C571 1.370 . S
C570 C574 1.524 . S
C571 C563 1.503 1_455 S
C571 C570 1.370 . S
C571 C572 1.403 . S
C572 C571 1.403 . S
C572 C573 1.404 . S
C572 C575 1.539 1_455 S
C573 C569 1.408 . S
C573 C572 1.404 . S
C573 H585 0.930 . S
C574 C570 1.524 . S
C574 H586 0.956 . S
C574 H587 0.961 1_455 S
C574 H588 0.961 . S
C575 C572 1.539 1_655 S
C575 H589 0.957 1_655 S
C575 H590 0.962 . S
C575 H591 0.960 . S
H576 C560 0.907 1_455 S
H577 C565 0.929 . S
H578 C566 0.960 . S
H579 C566 0.962 . S
H580 C566 0.960 . S
H581 C567 0.961 . S
H582 C567 0.961 . S
H583 C567 0.961 . S
H584 C568 0.931 . S
H585 C573 0.930 . S
H586 C574 0.956 . S
H587 C574 0.961 1_655 S
H588 C574 0.961 . S
H589 C575 0.957 1_455 S
H590 C575 0.962 . S
H591 C575 0.960 . S
C592 C593 1.391 . S
C592 C594 1.394 . S
C592 H608 0.931 . S
C593 C592 1.391 . S
C593 C597 1.376 . S
C594 C592 1.394 . S
C594 C595 1.369 . S
C594 C598 1.531 . S
C595 C594 1.369 . S
C595 C596 1.410 . S
C595 C603 1.503 . S
C596 C595 1.410 . S
C596 C597 1.392 . S
C596 C599 1.511 . S
C597 C593 1.376 . S
C597 C596 1.392 . S
C597 H609 0.929 . S
C598 C594 1.531 . S
C598 H610 0.960 . S
C598 H611 0.962 . S
C598 H612 0.960 . S
C599 C596 1.511 . S
C599 H613 0.961 . S
C599 H614 0.961 . S
C599 H615 0.961 . S
C600 C601 1.370 . S
C600 C602 1.363 . S
C600 H616 0.931 . S
C601 C600 1.370 . S
C601 C605 1.408 . S
C602 C600 1.363 . S
C602 C603 1.370 . S
C602 C606 1.524 . S
C603 C595 1.503 . S
C603 C602 1.370 . S
C603 C604 1.403 . S
C604 C603 1.403 . S
C604 C605 1.404 . S
C604 C607 1.539 . S
C605 C601 1.408 . S
C605 C604 1.404 . S
C605 H617 0.930 . S
C606 C602 1.524 . S
C606 H618 0.956 . S
C606 H619 0.961 . S
C606 H620 0.961 . S
C607 C604 1.539 . S
C607 H621 0.958 . S
C607 H622 0.961 . S
C607 H623 0.960 . S
H608 C592 0.931 . S
H609 C597 0.929 . S
H610 C598 0.960 . S
H611 C598 0.962 . S
H612 C598 0.960 . S
H613 C599 0.961 . S
H614 C599 0.961 . S
H615 C599 0.961 . S
H616 C600 0.931 . S
H617 C605 0.930 . S
H618 C606 0.956 . S
H619 C606 0.961 . S
H620 C606 0.961 . S
H621 C607 0.958 . S
H622 C607 0.961 . S
H623 C607 0.960 . S
C624 C625 1.391 . S
C624 C626 1.394 . S
C624 H640 0.931 . S
C625 C624 1.391 . S
C625 C629 1.376 . S
C626 C624 1.394 . S
C626 C627 1.369 . S
C626 C630 1.531 . S
C627 C626 1.369 . S
C627 C628 1.410 . S
C627 C635 1.503 1_565 S
C628 C627 1.410 . S
C628 C629 1.392 . S
C628 C631 1.511 . S
C629 C625 1.376 . S
C629 C628 1.392 . S
C629 H641 0.929 . S
C630 C626 1.531 . S
C630 H642 0.960 1_565 S
C630 H643 0.962 . S
C630 H644 0.960 . S
C631 C628 1.511 . S
C631 H645 0.961 . S
C631 H646 0.961 . S
C631 H647 0.961 . S
C632 C633 1.370 . S
C632 C634 1.363 . S
C632 H648 0.931 . S
C633 C632 1.370 . S
C633 C637 1.408 . S
C634 C632 1.363 . S
C634 C635 1.370 . S
C634 C638 1.524 1_545 S
C635 C627 1.503 1_545 S
C635 C634 1.370 . S
C635 C636 1.403 . S
C636 C635 1.403 . S
C636 C637 1.404 . S
C636 C639 1.539 . S
C637 C633 1.408 . S
C637 C636 1.404 . S
C637 H649 0.930 . S
C638 C634 1.524 1_565 S
C638 H650 0.956 . S
C638 H651 0.961 . S
C638 H652 0.961 . S
C639 C636 1.539 . S
C639 H653 0.958 . S
C639 H654 0.961 . S
C639 H655 0.960 . S
H640 C624 0.931 . S
H641 C629 0.929 . S
H642 C630 0.960 1_545 S
H643 C630 0.962 . S
H644 C630 0.960 . S
H645 C631 0.961 . S
H646 C631 0.961 . S
H647 C631 0.961 . S
H648 C632 0.931 . S
H649 C637 0.930 . S
H650 C638 0.956 . S
H651 C638 0.961 . S
H652 C638 0.961 . S
H653 C639 0.958 . S
H654 C639 0.961 . S
H655 C639 0.960 . S
C656 C657 1.391 . S
C656 C658 1.394 . S
C656 H672 0.931 . S
C657 C656 1.391 . S
C657 C661 1.376 . S
C658 C656 1.394 . S
C658 C659 1.369 . S
C658 C662 1.531 1_455 S
C659 C658 1.369 . S
C659 C660 1.410 1_565 S
C659 C667 1.503 1_465 S
C660 C659 1.410 1_545 S
C660 C661 1.392 1_545 S
C660 C663 1.511 . S
C661 C657 1.376 . S
C661 C660 1.392 1_565 S
C661 H673 0.929 1_565 S
C662 C658 1.531 1_655 S
C662 H674 0.960 . S
C662 H675 0.962 . S
C662 H676 0.960 . S
C663 C660 1.511 . S
C663 H677 0.961 . S
C663 H678 0.961 . S
C663 H679 0.961 . S
C664 C665 1.370 . S
C664 C666 1.363 . S
C664 H680 0.931 . S
C665 C664 1.370 . S
C665 C669 1.408 . S
C666 C664 1.363 . S
C666 C667 1.370 . S
C666 C670 1.524 . S
C667 C659 1.503 1_645 S
C667 C666 1.370 . S
C667 C668 1.403 . S
C668 C667 1.403 . S
C668 C669 1.404 . S
C668 C671 1.539 1_545 S
C669 C665 1.408 . S
C669 C668 1.404 . S
C669 H681 0.930 . S
C670 C666 1.524 . S
C670 H682 0.956 1_545 S
C670 H683 0.961 1_655 S
C670 H684 0.961 . S
C671 C668 1.539 1_565 S
C671 H685 0.958 . S
C671 H686 0.961 1_565 S
C671 H687 0.973 . S
H672 C656 0.931 . S
H673 C661 0.929 1_545 S
H674 C662 0.960 . S
H675 C662 0.962 . S
H676 C662 0.960 . S
H677 C663 0.961 . S
H678 C663 0.961 . S
H679 C663 0.961 . S
H680 C664 0.931 . S
H681 C669 0.930 . S
H682 C670 0.956 1_565 S
H683 C670 0.961 1_455 S
H684 C670 0.961 . S
H685 C671 0.958 . S
H686 C671 0.961 1_545 S
H687 C671 0.973 . S
C688 C689 1.391 . S
C688 C690 1.394 . S
C688 H704 0.931 . S
C689 C688 1.391 . S
C689 C693 1.376 . S
C690 C688 1.394 . S
C690 C691 1.369 . S
C690 C694 1.531 . S
C691 C690 1.369 . S
C691 C692 1.410 1_655 S
C691 C699 1.503 1_655 S
C692 C691 1.410 1_455 S
C692 C693 1.392 1_455 S
C692 C695 1.511 . S
C693 C689 1.376 . S
C693 C692 1.392 1_655 S
C693 H705 0.929 1_655 S
C694 C690 1.531 . S
C694 H706 0.960 . S
C694 H707 0.962 . S
C694 H708 0.960 . S
C695 C692 1.511 . S
C695 H709 0.961 . S
C695 H710 0.961 . S
C695 H711 0.961 . S
C696 C697 1.370 . S
C696 C698 1.363 . S
C696 H712 0.931 . S
C697 C696 1.370 . S
C697 C701 1.408 . S
C698 C696 1.363 . S
C698 C699 1.370 . S
C698 C702 1.524 1_455 S
C699 C691 1.503 1_455 S
C699 C698 1.370 . S
C699 C700 1.403 . S
C700 C699 1.403 . S
C700 C701 1.404 . S
C700 C703 1.539 . S
C701 C697 1.408 . S
C701 C700 1.404 . S
C701 H713 0.930 . S
C702 C698 1.524 1_655 S
C702 H714 0.956 . S
C702 H715 0.961 . S
C702 H716 0.961 . S
C703 C700 1.539 . S
C703 H717 0.958 . S
C703 H718 0.961 . S
C703 H719 0.960 . S
H704 C688 0.931 . S
H705 C693 0.929 1_455 S
H706 C694 0.960 . S
H707 C694 0.962 . S
H708 C694 0.960 . S
H709 C695 0.961 . S
H710 C695 0.961 . S
H711 C695 0.961 . S
H712 C696 0.931 . S
H713 C701 0.930 . S
H714 C702 0.956 . S
H715 C702 0.961 . S
H716 C702 0.961 . S
H717 C703 0.958 . S
H718 C703 0.961 . S
H719 C703 0.960 . S
C720 C721 1.391 1_556 S
C720 C722 1.394 . S
C720 H736 0.931 . S
C721 C720 1.391 1_554 S
C721 C725 1.376 . S
C722 C720 1.394 . S
C722 C723 1.369 1_556 S
C722 C726 1.531 . S
C723 C722 1.369 1_554 S
C723 C724 1.410 . S
C723 C731 1.503 . S
C724 C723 1.410 . S
C724 C725 1.392 . S
C724 C727 1.511 . S
C725 C721 1.376 . S
C725 C724 1.392 . S
C725 H737 0.929 . S
C726 C722 1.531 . S
C726 H738 0.960 . S
C726 H739 0.962 . S
C726 H740 0.960 . S
C727 C724 1.511 . S
C727 H741 0.961 . S
C727 H742 0.961 . S
C727 H743 0.961 . S
C728 C729 1.370 . S
C728 C730 1.363 . S
C728 H744 0.931 . S
C729 C728 1.370 . S
C729 C733 1.408 1_554 S
C730 C728 1.363 . S
C730 C731 1.370 . S
C730 C734 1.524 . S
C731 C723 1.503 . S
C731 C730 1.370 . S
C731 C732 1.403 1_554 S
C732 C731 1.403 1_556 S
C732 C733 1.404 . S
C732 C735 1.539 . S
C733 C729 1.408 1_556 S
C733 C732 1.404 . S
C733 H745 0.930 . S
C734 C730 1.524 . S
C734 H746 0.956 . S
C734 H747 0.961 . S
C734 H748 0.961 . S
C735 C732 1.539 . S
C735 H749 0.958 . S
C735 H750 0.961 . S
C735 H751 0.960 . S
H736 C720 0.931 . S
H737 C725 0.929 . S
H738 C726 0.960 . S
H739 C726 0.962 . S
H740 C726 0.960 . S
H741 C727 0.961 . S
H742 C727 0.961 . S
H743 C727 0.961 . S
H744 C728 0.931 . S
H745 C733 0.930 . S
H746 C734 0.956 . S
H747 C734 0.961 . S
H748 C734 0.961 . S
H749 C735 0.958 . S
H750 C735 0.961 . S
H751 C735 0.960 . S
C752 C753 1.391 . S
C752 C754 1.394 . S
C752 H768 0.931 . S
C753 C752 1.391 . S
C753 C757 1.376 . S
C754 C752 1.394 . S
C754 C755 1.369 . S
C754 C758 1.531 . S
C755 C754 1.369 . S
C755 C756 1.410 . S
C755 C763 1.503 1_565 S
C756 C755 1.410 . S
C756 C757 1.392 . S
C756 C759 1.511 1_565 S
C757 C753 1.376 . S
C757 C756 1.392 . S
C757 H769 0.929 . S
C758 C754 1.531 . S
C758 H770 0.960 . S
C758 H771 0.962 . S
C758 H772 0.960 . S
C759 C756 1.511 1_545 S
C759 H773 0.961 . S
C759 H774 0.961 . S
C759 H775 0.961 . S
C760 C761 1.370 . S
C760 C762 1.363 . S
C760 H776 0.931 . S
C761 C760 1.370 . S
C761 C765 1.408 . S
C762 C760 1.363 . S
C762 C763 1.370 . S
C762 C766 1.524 . S
C763 C755 1.503 1_545 S
C763 C762 1.370 . S
C763 C764 1.403 . S
C764 C763 1.403 . S
C764 C765 1.404 . S
C764 C767 1.539 . S
C765 C761 1.408 . S
C765 C764 1.404 . S
C765 H777 0.930 . S
C766 C762 1.524 . S
C766 H778 0.956 1_545 S
C766 H779 0.961 . S
C766 H780 0.961 . S
C767 C764 1.539 . S
C767 H781 0.958 . S
C767 H782 0.961 . S
C767 H783 0.960 . S
H768 C752 0.931 . S
H769 C757 0.929 . S
H770 C758 0.960 . S
H771 C758 0.962 . S
H772 C758 0.960 . S
H773 C759 0.961 . S
H774 C759 0.961 . S
H775 C759 0.961 . S
H776 C760 0.931 . S
H777 C765 0.930 . S
H778 C766 0.956 1_565 S
H779 C766 0.961 . S
H780 C766 0.961 . S
H781 C767 0.958 . S
H782 C767 0.961 . S
H783 C767 0.960 . S
C784 C785 1.391 . S
C784 C786 1.394 . S
C784 H800 0.931 . S
C785 C784 1.391 . S
C785 C789 1.376 . S
C786 C784 1.394 . S
C786 C787 1.369 . S
C786 C790 1.531 . S
C787 C786 1.369 . S
C787 C788 1.410 . S
C787 C795 1.503 . S
C788 C787 1.410 . S
C788 C789 1.392 . S
C788 C791 1.511 . S
C789 C785 1.376 . S
C789 C788 1.392 . S
C789 H801 0.929 . S
C790 C786 1.531 . S
C790 H802 0.960 . S
C790 H803 0.962 1_565 S
C790 H804 0.960 . S
C791 C788 1.511 . S
C791 H805 0.961 . S
C791 H806 0.961 . S
C791 H807 0.961 . S
C792 C793 1.370 . S
C792 C794 1.363 . S
C792 H808 0.931 . S
C793 C792 1.370 . S
C793 C797 1.408 . S
C794 C792 1.363 . S
C794 C795 1.370 1_545 S
C794 C798 1.524 . S
C795 C787 1.503 . S
C795 C794 1.370 1_565 S
C795 C796 1.403 . S
C796 C795 1.403 . S
C796 C797 1.404 1_565 S
C796 C799 1.539 . S
C797 C793 1.408 . S
C797 C796 1.404 1_545 S
C797 H809 0.930 1_545 S
C798 C794 1.524 . S
C798 H810 0.956 . S
C798 H811 0.961 . S
C798 H812 0.961 . S
C799 C796 1.539 . S
C799 H813 0.958 . S
C799 H814 0.961 . S
C799 H815 0.960 . S
H800 C784 0.931 . S
H801 C789 0.929 . S
H802 C790 0.960 . S
H803 C790 0.962 1_545 S
H804 C790 0.960 . S
H805 C791 0.961 . S
H806 C791 0.961 . S
H807 C791 0.961 . S
H808 C792 0.931 . S
H809 C797 0.930 1_565 S
H810 C798 0.956 . S
H811 C798 0.961 . S
H812 C798 0.961 . S
H813 C799 0.958 . S
H814 C799 0.961 . S
H815 C799 0.960 . S
C816 C817 1.391 . S
C816 C818 1.394 . S
C816 H832 0.931 . S
C817 C816 1.391 . S
C817 C821 1.376 . S
C818 C816 1.394 . S
C818 C819 1.369 . S
C818 C822 1.531 . S
C819 C818 1.369 . S
C819 C820 1.410 . S
C819 C827 1.491 1_455 S
C820 C819 1.410 . S
C820 C821 1.392 . S
C820 C823 1.511 1_455 S
C821 C817 1.376 . S
C821 C820 1.392 . S
C821 H833 0.929 . S
C822 C818 1.531 . S
C822 H834 0.960 . S
C822 H835 0.962 . S
C822 H836 0.960 . S
C823 C820 1.511 1_655 S
C823 H837 0.961 . S
C823 H838 0.961 . S
C823 H839 0.961 . S
C824 C825 1.370 . S
C824 C826 1.363 . S
C824 H840 0.931 . S
C825 C824 1.370 . S
C825 C829 1.408 . S
C826 C824 1.363 . S
C826 C827 1.376 . S
C826 C830 1.524 1_655 S
C827 C819 1.491 1_655 S
C827 C826 1.376 . S
C827 C828 1.410 . S
C828 C827 1.410 . S
C828 C829 1.404 . S
C828 C831 1.539 . S
C829 C825 1.408 . S
C829 C828 1.404 . S
C829 H841 0.930 . S
C830 C826 1.524 1_455 S
C830 H842 0.956 . S
C830 H843 0.961 1_455 S
C830 H844 0.961 1_455 S
C831 C828 1.539 . S
C831 H845 0.958 1_655 S
C831 H846 0.961 . S
C831 H847 0.960 . S
H832 C816 0.931 . S
H833 C821 0.929 . S
H834 C822 0.960 . S
H835 C822 0.962 . S
H836 C822 0.960 . S
H837 C823 0.961 . S
H838 C823 0.961 . S
H839 C823 0.961 . S
H840 C824 0.931 . S
H841 C829 0.930 . S
H842 C830 0.956 . S
H843 C830 0.961 1_655 S
H844 C830 0.961 1_655 S
H845 C831 0.958 1_455 S
H846 C831 0.961 . S
H847 C831 0.960 . S
C848 C849 1.391 . S
C848 C850 1.394 . S
C848 H864 0.931 . S
C849 C848 1.391 . S
C849 C853 1.376 . S
C850 C848 1.394 . S
C850 C851 1.369 . S
C850 C854 1.531 . S
C851 C850 1.369 . S
C851 C852 1.410 . S
C851 C859 1.503 . S
C852 C851 1.410 . S
C852 C853 1.392 . S
C852 C855 1.511 . S
C853 C849 1.376 . S
C853 C852 1.392 . S
C853 H865 0.929 . S
C854 C850 1.531 . S
C854 H866 0.960 . S
C854 H867 0.962 . S
C854 H868 0.960 . S
C855 C852 1.511 . S
C855 H869 0.961 . S
C855 H870 0.961 . S
C855 H871 0.961 . S
C856 C857 1.370 . S
C856 C858 1.363 . S
C856 H872 0.931 . S
C857 C856 1.370 . S
C857 C861 1.408 . S
C858 C856 1.363 . S
C858 C859 1.370 . S
C858 C862 1.524 . S
C859 C851 1.503 . S
C859 C858 1.370 . S
C859 C860 1.403 . S
C860 C859 1.403 . S
C860 C861 1.404 . S
C860 C863 1.539 . S
C861 C857 1.408 . S
C861 C860 1.404 . S
C861 H873 0.930 . S
C862 C858 1.524 . S
C862 H874 0.956 . S
C862 H875 0.961 . S
C862 H876 0.961 . S
C863 C860 1.539 . S
C863 H877 0.958 . S
C863 H878 0.961 . S
C863 H879 0.960 . S
H864 C848 0.931 . S
H865 C853 0.929 . S
H866 C854 0.960 . S
H867 C854 0.962 . S
H868 C854 0.960 . S
H869 C855 0.961 . S
H870 C855 0.961 . S
H871 C855 0.961 . S
H872 C856 0.931 . S
H873 C861 0.930 . S
H874 C862 0.956 . S
H875 C862 0.961 . S
H876 C862 0.961 . S
H877 C863 0.958 . S
H878 C863 0.961 . S
H879 C863 0.960 . S
C880 C881 1.391 . S
C880 C882 1.394 . S
C880 H896 0.931 . S
C881 C880 1.391 . S
C881 C885 1.376 . S
C882 C880 1.394 . S
C882 C883 1.369 . S
C882 C886 1.531 . S
C883 C882 1.369 . S
C883 C884 1.410 . S
C883 C891 1.503 1_554 S
C884 C883 1.410 . S
C884 C885 1.392 . S
C884 C887 1.511 1_554 S
C885 C881 1.376 . S
C885 C884 1.392 . S
C885 H897 0.929 . S
C886 C882 1.531 . S
C886 H898 0.960 1_554 S
C886 H899 0.962 . S
C886 H900 0.960 . S
C887 C884 1.511 1_556 S
C887 H901 0.961 . S
C887 H902 0.961 . S
C887 H903 0.961 . S
C888 C889 1.370 . S
C888 C890 1.363 . S
C888 H904 0.931 . S
C889 C888 1.370 . S
C889 C893 1.408 . S
C890 C888 1.363 . S
C890 C891 1.370 . S
C890 C894 1.524 1_556 S
C891 C883 1.503 1_556 S
C891 C890 1.370 . S
C891 C892 1.403 . S
C892 C891 1.403 . S
C892 C893 1.404 . S
C892 C895 1.539 . S
C893 C889 1.408 . S
C893 C892 1.404 . S
C893 H905 0.930 . S
C894 C890 1.524 1_554 S
C894 H906 0.956 . S
C894 H907 0.961 . S
C894 H908 0.961 . S
C895 C892 1.539 . S
C895 H909 0.958 . S
C895 H910 0.961 . S
C895 H911 0.960 . S
H896 C880 0.931 . S
H897 C885 0.929 . S
H898 C886 0.960 1_556 S
H899 C886 0.962 . S
H900 C886 0.960 . S
H901 C887 0.961 . S
H902 C887 0.961 . S
H903 C887 0.961 . S
H904 C888 0.931 . S
H905 C893 0.930 . S
H906 C894 0.956 . S
H907 C894 0.961 . S
H908 C894 0.961 . S
H909 C895 0.958 . S
H910 C895 0.961 . S
H911 C895 0.960 . S
C912 C913 1.391 . S
C912 C914 1.394 . S
C912 H928 0.931 . S
C913 C912 1.391 . S
C913 C917 1.376 . S
C914 C912 1.394 . S
C914 C915 1.369 . S
C914 C918 1.531 . S
C915 C914 1.369 . S
C915 C916 1.410 . S
C915 C923 1.503 1_545 S
C916 C915 1.410 . S
C916 C917 1.392 . S
C916 C919 1.511 . S
C917 C913 1.376 . S
C917 C916 1.392 . S
C917 H929 0.929 . S
C918 C914 1.531 . S
C918 H930 0.960 . S
C918 H931 0.962 1_545 S
C918 H932 0.960 . S
C919 C916 1.511 . S
C919 H933 0.961 . S
C919 H934 0.961 1_545 S
C919 H935 0.961 . S
C920 C921 1.370 . S
C920 C922 1.363 . S
C920 H936 0.931 . S
C921 C920 1.370 . S
C921 C925 1.408 . S
C922 C920 1.363 . S
C922 C923 1.370 . S
C922 C926 1.524 . S
C923 C915 1.503 1_565 S
C923 C922 1.370 . S
C923 C924 1.387 1_565 S
C924 C923 1.387 1_545 S
C924 C925 1.383 1_545 S
C924 C927 1.575 . S
C925 C921 1.408 . S
C925 C924 1.383 1_565 S
C925 H937 0.930 . S
C926 C922 1.524 . S
C926 H938 0.956 . S
C926 H939 0.961 . S
C926 H940 0.961 . S
C927 C924 1.575 . S
C927 H941 0.958 . S
C927 H942 0.961 . S
C927 H943 0.960 . S
H928 C912 0.931 . S
H929 C917 0.929 . S
H930 C918 0.960 . S
H931 C918 0.962 1_565 S
H932 C918 0.960 . S
H933 C919 0.961 . S
H934 C919 0.961 1_565 S
H935 C919 0.961 . S
H936 C920 0.931 . S
H937 C925 0.930 . S
H938 C926 0.956 . S
H939 C926 0.961 . S
H940 C926 0.961 . S
H941 C927 0.958 . S
H942 C927 0.961 . S
H943 C927 0.960 . S
C944 C945 1.391 . S
C944 C946 1.394 1_655 S
C944 H960 0.931 1_655 S
C945 C944 1.391 . S
C945 C949 1.376 . S
C946 C944 1.394 1_455 S
C946 C947 1.385 . S
C946 C950 1.531 . S
C947 C946 1.385 . S
C947 C948 1.374 1_455 S
C947 C955 1.522 1_556 S
C948 C947 1.374 1_655 S
C948 C949 1.392 . S
C948 C951 1.511 1_556 S
C949 C945 1.376 . S
C949 C948 1.392 . S
C949 H961 0.929 . S
C950 C946 1.531 . S
C950 H962 0.960 . S
C950 H963 0.962 . S
C950 H964 0.960 . S
C951 C948 1.511 1_554 S
C951 H965 0.961 . S
C951 H966 0.961 . S
C951 H967 0.961 . S
C952 C953 1.370 . S
C952 C954 1.363 . S
C952 H968 0.931 . S
C953 C952 1.370 . S
C953 C957 1.408 . S
C954 C952 1.363 . S
C954 C955 1.370 . S
C954 C958 1.524 . S
C955 C947 1.522 1_554 S
C955 C954 1.370 . S
C955 C956 1.403 . S
C956 C955 1.403 . S
C956 C957 1.404 . S
C956 C959 1.539 . S
C957 C953 1.408 . S
C957 C956 1.404 . S
C957 H969 0.930 . S
C958 C954 1.524 . S
C958 H970 0.956 1_554 S
C958 H971 0.961 1_455 S
C958 H972 0.961 . S
C959 C956 1.539 . S
C959 H973 0.958 1_554 S
C959 H974 0.961 . S
C959 H975 0.960 1_554 S
H960 C944 0.931 1_455 S
H961 C949 0.929 . S
H962 C950 0.960 . S
H963 C950 0.962 . S
H964 C950 0.960 . S
H965 C951 0.961 . S
H966 C951 0.961 . S
H967 C951 0.961 . S
H968 C952 0.931 . S
H969 C957 0.930 . S
H970 C958 0.956 1_556 S
H971 C958 0.961 1_655 S
H972 C958 0.961 . S
H973 C959 0.958 1_556 S
H974 C959 0.961 . S
H975 C959 0.960 1_556 S
C976 C977 1.391 . S
C976 C978 1.394 . S
C976 H992 0.931 . S
C977 C976 1.391 . S
C977 C981 1.376 . S
C978 C976 1.394 . S
C978 C979 1.369 . S
C978 C982 1.531 . S
C979 C978 1.369 . S
C979 C980 1.410 . S
C979 C987 1.503 . S
C980 C979 1.410 . S
C980 C981 1.392 . S
C980 C983 1.511 . S
C981 C977 1.376 . S
C981 C980 1.392 . S
C981 H993 0.929 . S
C982 C978 1.531 . S
C982 H994 0.960 . S
C982 H995 0.962 . S
C982 H996 0.960 . S
C983 C980 1.511 . S
C983 H997 0.961 . S
C983 H998 0.961 . S
C983 H999 0.961 . S
C984 C985 1.370 . S
C984 C986 1.363 . S
C984 H1000 0.931 . S
C985 C984 1.370 . S
C985 C989 1.408 . S
C986 C984 1.363 . S
C986 C987 1.370 . S
C986 C990 1.524 . S
C987 C979 1.503 . S
C987 C986 1.370 . S
C987 C988 1.403 . S
C988 C987 1.403 . S
C988 C989 1.404 . S
C988 C991 1.539 . S
C989 C985 1.408 . S
C989 C988 1.404 . S
C989 H1001 0.930 . S
C990 C986 1.524 . S
C990 H1002 0.956 . S
C990 H1003 0.961 . S
C990 H1004 0.961 . S
C991 C988 1.539 . S
C991 H1005 0.958 . S
C991 H1006 0.961 . S
C991 H1007 0.960 . S
H992 C976 0.931 . S
H993 C981 0.929 . S
H994 C982 0.960 . S
H995 C982 0.962 . S
H996 C982 0.960 . S
H997 C983 0.961 . S
H998 C983 0.961 . S
H999 C983 0.961 . S
H1000 C984 0.931 . S
H1001 C989 0.930 . S
H1002 C990 0.956 . S
H1003 C990 0.961 . S
H1004 C990 0.961 . S
H1005 C991 0.958 . S
H1006 C991 0.961 . S
H1007 C991 0.960 . S
C1008 C1009 1.391 . S
C1008 C1010 1.394 . S
C1008 H1024 0.931 . S
C1009 C1008 1.391 . S
C1009 C1013 1.376 . S
C1010 C1008 1.394 . S
C1010 C1011 1.369 . S
C1010 C1014 1.531 . S
C1011 C1010 1.369 . S
C1011 C1012 1.410 . S
C1011 C1019 1.503 . S
C1012 C1011 1.410 . S
C1012 C1013 1.392 . S
C1012 C1015 1.511 . S
C1013 C1009 1.376 . S
C1013 C1012 1.392 . S
C1013 H1025 0.929 . S
C1014 C1010 1.531 . S
C1014 H1026 0.960 . S
C1014 H1027 0.962 . S
C1014 H1028 0.960 . S
C1015 C1012 1.511 . S
C1015 H1029 0.961 . S
C1015 H1030 0.961 . S
C1015 H1031 0.961 . S
C1016 C1017 1.370 . S
C1016 C1018 1.363 . S
C1016 H1032 0.931 . S
C1017 C1016 1.370 . S
C1017 C1021 1.408 . S
C1018 C1016 1.363 . S
C1018 C1019 1.370 . S
C1018 C1022 1.524 . S
C1019 C1011 1.503 . S
C1019 C1018 1.370 . S
C1019 C1020 1.403 . S
C1020 C1019 1.403 . S
C1020 C1021 1.404 . S
C1020 C1023 1.539 . S
C1021 C1017 1.408 . S
C1021 C1020 1.404 . S
C1021 H1033 0.930 . S
C1022 C1018 1.524 . S
C1022 H1034 0.956 . S
C1022 H1035 0.961 . S
C1022 H1036 0.961 . S
C1023 C1020 1.539 . S
C1023 H1037 0.958 . S
C1023 H1038 0.961 . S
C1023 H1039 0.960 . S
H1024 C1008 0.931 . S
H1025 C1013 0.929 . S
H1026 C1014 0.960 . S
H1027 C1014 0.962 . S
H1028 C1014 0.960 . S
H1029 C1015 0.961 . S
H1030 C1015 0.961 . S
H1031 C1015 0.961 . S
H1032 C1016 0.931 . S
H1033 C1021 0.930 . S
H1034 C1022 0.956 . S
H1035 C1022 0.961 . S
H1036 C1022 0.961 . S
H1037 C1023 0.958 . S
H1038 C1023 0.961 . S
H1039 C1023 0.960 . S
C1040 C1041 1.391 . S
C1040 C1042 1.394 . S
C1040 H1056 0.931 . S
C1041 C1040 1.391 . S
C1041 C1045 1.376 . S
C1042 C1040 1.394 . S
C1042 C1043 1.369 . S
C1042 C1046 1.531 . S
C1043 C1042 1.369 . S
C1043 C1044 1.410 . S
C1043 C1051 1.503 . S
C1044 C1043 1.410 . S
C1044 C1045 1.392 . S
C1044 C1047 1.511 . S
C1045 C1041 1.376 . S
C1045 C1044 1.392 . S
C1045 H1057 0.929 . S
C1046 C1042 1.531 . S
C1046 H1058 0.960 . S
C1046 H1059 0.962 . S
C1046 H1060 0.960 . S
C1047 C1044 1.511 . S
C1047 H1061 0.961 . S
C1047 H1062 0.961 . S
C1047 H1063 0.961 . S
C1048 C1049 1.370 . S
C1048 C1050 1.363 . S
C1048 H1064 0.931 . S
C1049 C1048 1.370 . S
C1049 C1053 1.408 . S
C1050 C1048 1.363 . S
C1050 C1051 1.370 . S
C1050 C1054 1.524 . S
C1051 C1043 1.503 . S
C1051 C1050 1.370 . S
C1051 C1052 1.403 . S
C1052 C1051 1.403 . S
C1052 C1053 1.404 . S
C1052 C1055 1.539 . S
C1053 C1049 1.408 . S
C1053 C1052 1.404 . S
C1053 H1065 0.930 . S
C1054 C1050 1.524 . S
C1054 H1066 0.956 . S
C1054 H1067 0.961 . S
C1054 H1068 0.961 . S
C1055 C1052 1.539 . S
C1055 H1069 0.958 . S
C1055 H1070 0.961 . S
C1055 H1071 0.960 . S
H1056 C1040 0.931 . S
H1057 C1045 0.929 . S
H1058 C1046 0.960 . S
H1059 C1046 0.962 . S
H1060 C1046 0.960 . S
H1061 C1047 0.961 . S
H1062 C1047 0.961 . S
H1063 C1047 0.961 . S
H1064 C1048 0.931 . S
H1065 C1053 0.930 . S
H1066 C1054 0.956 . S
H1067 C1054 0.961 . S
H1068 C1054 0.961 . S
H1069 C1055 0.958 . S
H1070 C1055 0.961 . S
H1071 C1055 0.960 . S
C1072 C1073 1.391 . S
C1072 C1074 1.394 . S
C1072 H1088 0.931 . S
C1073 C1072 1.391 . S
C1073 C1077 1.376 . S
C1074 C1072 1.394 . S
C1074 C1075 1.369 . S
C1074 C1078 1.531 . S
C1075 C1074 1.369 . S
C1075 C1076 1.410 . S
C1075 C1083 1.503 1_554 S
C1076 C1075 1.410 . S
C1076 C1077 1.392 . S
C1076 C1079 1.511 1_554 S
C1077 C1073 1.376 . S
C1077 C1076 1.392 . S
C1077 H1089 0.929 . S
C1078 C1074 1.531 . S
C1078 H1090 0.960 . S
C1078 H1091 0.962 . S
C1078 H1092 0.960 . S
C1079 C1076 1.511 1_556 S
C1079 H1093 0.961 . S
C1079 H1094 0.961 . S
C1079 H1095 0.961 . S
C1080 C1081 1.370 . S
C1080 C1082 1.363 . S
C1080 H1096 0.931 . S
C1081 C1080 1.370 . S
C1081 C1085 1.408 . S
C1082 C1080 1.363 . S
C1082 C1083 1.370 . S
C1082 C1086 1.524 . S
C1083 C1075 1.503 1_556 S
C1083 C1082 1.370 . S
C1083 C1084 1.403 . S
C1084 C1083 1.403 . S
C1084 C1085 1.404 . S
C1084 C1087 1.539 . S
C1085 C1081 1.408 . S
C1085 C1084 1.404 . S
C1085 H1097 0.930 . S
C1086 C1082 1.524 . S
C1086 H1098 0.956 1_556 S
C1086 H1099 0.961 1_556 S
C1086 H1100 0.961 . S
C1087 C1084 1.539 . S
C1087 H1101 0.958 . S
C1087 H1102 0.961 . S
C1087 H1103 0.960 . S
H1088 C1072 0.931 . S
H1089 C1077 0.929 . S
H1090 C1078 0.960 . S
H1091 C1078 0.962 . S
H1092 C1078 0.960 . S
H1093 C1079 0.961 . S
H1094 C1079 0.961 . S
H1095 C1079 0.961 . S
H1096 C1080 0.931 . S
H1097 C1085 0.930 . S
H1098 C1086 0.956 1_554 S
H1099 C1086 0.961 1_554 S
H1100 C1086 0.961 . S
H1101 C1087 0.958 . S
H1102 C1087 0.961 . S
H1103 C1087 0.960 . S
C1104 C1105 1.391 . S
C1104 C1106 1.394 . S
C1104 H1120 0.931 . S
C1105 C1104 1.391 . S
C1105 C1109 1.376 . S
C1106 C1104 1.394 . S
C1106 C1107 1.369 . S
C1106 C1110 1.531 . S
C1107 C1106 1.369 . S
C1107 C1108 1.410 . S
C1107 C1115 1.503 . S
C1108 C1107 1.410 . S
C1108 C1109 1.392 . S
C1108 C1111 1.511 1_545 S
C1109 C1105 1.376 . S
C1109 C1108 1.392 . S
C1109 H1121 0.929 . S
C1110 C1106 1.531 . S
C1110 H1122 0.960 . S
C1110 H1123 0.962 . S
C1110 H1124 0.960 . S
C1111 C1108 1.511 1_565 S
C1111 H1125 0.961 . S
C1111 H1126 0.961 . S
C1111 H1127 0.961 1_565 S
C1112 C1113 1.370 . S
C1112 C1114 1.363 . S
C1112 H1128 0.931 . S
C1113 C1112 1.370 . S
C1113 C1117 1.408 . S
C1114 C1112 1.363 . S
C1114 C1115 1.370 1_565 S
C1114 C1118 1.524 . S
C1115 C1107 1.503 . S
C1115 C1114 1.370 1_545 S
C1115 C1116 1.403 . S
C1116 C1115 1.403 . S
C1116 C1117 1.404 1_545 S
C1116 C1119 1.539 . S
C1117 C1113 1.408 . S
C1117 C1116 1.404 1_565 S
C1117 H1129 0.934 . S
C1118 C1114 1.524 . S
C1118 H1130 0.956 . S
C1118 H1131 0.961 . S
C1118 H1132 0.961 . S
C1119 C1116 1.539 . S
C1119 H1133 0.958 . S
C1119 H1134 0.961 . S
C1119 H1135 0.960 . S
H1120 C1104 0.931 . S
H1121 C1109 0.929 . S
H1122 C1110 0.960 . S
H1123 C1110 0.962 . S
H1124 C1110 0.960 . S
H1125 C1111 0.961 . S
H1126 C1111 0.961 . S
H1127 C1111 0.961 1_545 S
H1128 C1112 0.931 . S
H1129 C1117 0.934 . S
H1130 C1118 0.956 . S
H1131 C1118 0.961 . S
H1132 C1118 0.961 . S
H1133 C1119 0.958 . S
H1134 C1119 0.961 . S
H1135 C1119 0.960 . S
C1136 C1137 1.391 . S
C1136 C1138 1.394 . S
C1136 H1152 0.931 . S
C1137 C1136 1.391 . S
C1137 C1141 1.376 . S
C1138 C1136 1.394 . S
C1138 C1139 1.369 1_455 S
C1138 C1142 1.531 . S
C1139 C1138 1.369 1_655 S
C1139 C1140 1.410 . S
C1139 C1147 1.503 . S
C1140 C1139 1.410 . S
C1140 C1141 1.392 1_655 S
C1140 C1143 1.511 . S
C1141 C1137 1.376 . S
C1141 C1140 1.392 1_455 S
C1141 H1153 0.929 1_455 S
C1142 C1138 1.531 . S
C1142 H1154 0.960 . S
C1142 H1155 0.962 . S
C1142 H1156 0.960 . S
C1143 C1140 1.511 . S
C1143 H1157 0.961 . S
C1143 H1158 0.961 . S
C1143 H1159 0.961 . S
C1144 C1145 1.370 . S
C1144 C1146 1.363 . S
C1144 H1160 0.931 . S
C1145 C1144 1.370 . S
C1145 C1149 1.408 . S
C1146 C1144 1.363 . S
C1146 C1147 1.370 . S
C1146 C1150 1.524 1_655 S
C1147 C1139 1.503 . S
C1147 C1146 1.370 . S
C1147 C1148 1.403 . S
C1148 C1147 1.403 . S
C1148 C1149 1.404 . S
C1148 C1151 1.539 . S
C1149 C1145 1.408 . S
C1149 C1148 1.404 . S
C1149 H1161 0.930 . S
C1150 C1146 1.524 1_455 S
C1150 H1162 0.956 . S
C1150 H1163 0.961 . S
C1150 H1164 0.961 . S
C1151 C1148 1.539 . S
C1151 H1165 0.958 . S
C1151 H1166 0.961 . S
C1151 H1167 0.960 . S
H1152 C1136 0.931 . S
H1153 C1141 0.929 1_655 S
H1154 C1142 0.960 . S
H1155 C1142 0.962 . S
H1156 C1142 0.960 . S
H1157 C1143 0.961 . S
H1158 C1143 0.961 . S
H1159 C1143 0.961 . S
H1160 C1144 0.931 . S
H1161 C1149 0.930 . S
H1162 C1150 0.956 . S
H1163 C1150 0.961 . S
H1164 C1150 0.961 . S
H1165 C1151 0.958 . S
H1166 C1151 0.961 . S
H1167 C1151 0.960 . S
C1168 C1169 1.391 . S
C1168 C1170 1.394 . S
C1168 H1184 0.931 . S
C1169 C1168 1.391 . S
C1169 C1173 1.376 . S
C1170 C1168 1.394 . S
C1170 C1171 1.369 . S
C1170 C1174 1.531 . S
C1171 C1170 1.369 . S
C1171 C1172 1.410 . S
C1171 C1179 1.503 . S
C1172 C1171 1.410 . S
C1172 C1173 1.392 . S
C1172 C1175 1.511 . S
C1173 C1169 1.376 . S
C1173 C1172 1.392 . S
C1173 H1185 0.929 . S
C1174 C1170 1.531 . S
C1174 H1186 0.960 . S
C1174 H1187 0.962 . S
C1174 H1188 0.960 . S
C1175 C1172 1.511 . S
C1175 H1189 0.961 . S
C1175 H1190 0.961 . S
C1175 H1191 0.961 . S
C1176 C1177 1.370 . S
C1176 C1178 1.363 . S
C1176 H1192 0.931 . S
C1177 C1176 1.370 . S
C1177 C1181 1.408 . S
C1178 C1176 1.363 . S
C1178 C1179 1.370 . S
C1178 C1182 1.524 . S
C1179 C1171 1.503 . S
C1179 C1178 1.370 . S
C1179 C1180 1.403 . S
C1180 C1179 1.403 . S
C1180 C1181 1.404 . S
C1180 C1183 1.539 . S
C1181 C1177 1.408 . S
C1181 C1180 1.404 . S
C1181 H1193 0.930 . S
C1182 C1178 1.524 . S
C1182 H1194 0.956 . S
C1182 H1195 0.961 . S
C1182 H1196 0.961 . S
C1183 C1180 1.539 . S
C1183 H1197 0.958 . S
C1183 H1198 0.961 . S
C1183 H1199 0.960 . S
H1184 C1168 0.931 . S
H1185 C1173 0.929 . S
H1186 C1174 0.960 . S
H1187 C1174 0.962 . S
H1188 C1174 0.960 . S
H1189 C1175 0.961 . S
H1190 C1175 0.961 . S
H1191 C1175 0.961 . S
H1192 C1176 0.931 . S
H1193 C1181 0.930 . S
H1194 C1182 0.956 . S
H1195 C1182 0.961 . S
H1196 C1182 0.961 . S
H1197 C1183 0.958 . S
H1198 C1183 0.961 . S
H1199 C1183 0.960 . S
C1200 C1201 1.391 . S
C1200 C1202 1.394 . S
C1200 H1216 0.931 . S
C1201 C1200 1.391 . S
C1201 C1205 1.376 . S
C1202 C1200 1.394 . S
C1202 C1203 1.369 . S
C1202 C1206 1.531 . S
C1203 C1202 1.369 . S
C1203 C1204 1.410 . S
C1203 C1211 1.503 . S
C1204 C1203 1.410 . S
C1204 C1205 1.392 . S
C1204 C1207 1.511 . S
C1205 C1201 1.376 . S
C1205 C1204 1.392 . S
C1205 H1217 0.929 . S
C1206 C1202 1.531 . S
C1206 H1218 0.960 . S
C1206 H1219 0.962 . S
C1206 H1220 0.960 . S
C1207 C1204 1.511 . S
C1207 H1221 0.961 . S
C1207 H1222 0.961 . S
C1207 H1223 0.961 . S
C1208 C1209 1.370 . S
C1208 C1210 1.363 . S
C1208 H1224 0.931 . S
C1209 C1208 1.370 . S
C1209 C1213 1.408 . S
C1210 C1208 1.363 . S
C1210 C1211 1.370 . S
C1210 C1214 1.524 . S
C1211 C1203 1.503 . S
C1211 C1210 1.370 . S
C1211 C1212 1.403 . S
C1212 C1211 1.403 . S
C1212 C1213 1.404 . S
C1212 C1215 1.539 . S
C1213 C1209 1.408 . S
C1213 C1212 1.404 . S
C1213 H1225 0.930 . S
C1214 C1210 1.524 . S
C1214 H1226 0.956 . S
C1214 H1227 0.961 . S
C1214 H1228 0.961 . S
C1215 C1212 1.539 . S
C1215 H1229 0.958 . S
C1215 H1230 0.961 . S
C1215 H1231 0.960 . S
H1216 C1200 0.931 . S
H1217 C1205 0.929 . S
H1218 C1206 0.960 . S
H1219 C1206 0.962 . S
H1220 C1206 0.960 . S
H1221 C1207 0.961 . S
H1222 C1207 0.961 . S
H1223 C1207 0.961 . S
H1224 C1208 0.931 . S
H1225 C1213 0.930 . S
H1226 C1214 0.956 . S
H1227 C1214 0.961 . S
H1228 C1214 0.961 . S
H1229 C1215 0.958 . S
H1230 C1215 0.961 . S
H1231 C1215 0.960 . S
C1232 C1233 1.391 . S
C1232 C1234 1.394 1_565 S
C1232 H1248 0.931 . S
C1233 C1232 1.391 . S
C1233 C1237 1.376 . S
C1234 C1232 1.394 1_545 S
C1234 C1235 1.369 . S
C1234 C1238 1.531 . S
C1235 C1234 1.369 . S
C1235 C1236 1.410 1_545 S
C1235 C1243 1.503 . S
C1236 C1235 1.410 1_565 S
C1236 C1237 1.392 . S
C1236 C1239 1.511 . S
C1237 C1233 1.376 . S
C1237 C1236 1.392 . S
C1237 H1249 0.929 . S
C1238 C1234 1.531 . S
C1238 H1250 0.960 . S
C1238 H1251 0.962 . S
C1238 H1252 0.960 . S
C1239 C1236 1.511 . S
C1239 H1253 0.961 . S
C1239 H1254 0.961 . S
C1239 H1255 0.971 . S
C1240 C1241 1.370 . S
C1240 C1242 1.363 . S
C1240 H1256 0.931 . S
C1241 C1240 1.370 . S
C1241 C1245 1.408 . S
C1242 C1240 1.363 . S
C1242 C1243 1.370 . S
C1242 C1246 1.524 1_545 S
C1243 C1235 1.503 . S
C1243 C1242 1.370 . S
C1243 C1244 1.403 . S
C1244 C1243 1.403 . S
C1244 C1245 1.404 . S
C1244 C1247 1.539 . S
C1245 C1241 1.408 . S
C1245 C1244 1.404 . S
C1245 H1257 0.930 . S
C1246 C1242 1.524 1_565 S
C1246 H1258 0.956 . S
C1246 H1259 0.961 . S
C1246 H1260 0.961 . S
C1247 C1244 1.539 . S
C1247 H1261 0.958 . S
C1247 H1262 0.961 . S
C1247 H1263 0.960 . S
H1248 C1232 0.931 . S
H1249 C1237 0.929 . S
H1250 C1238 0.960 . S
H1251 C1238 0.962 . S
H1252 C1238 0.960 . S
H1253 C1239 0.961 . S
H1254 C1239 0.961 . S
H1255 C1239 0.971 . S
H1256 C1240 0.931 . S
H1257 C1245 0.930 . S
H1258 C1246 0.956 . S
H1259 C1246 0.961 . S
H1260 C1246 0.961 . S
H1261 C1247 0.958 . S
H1262 C1247 0.961 . S
H1263 C1247 0.960 . S
C1264 C1265 1.391 . S
C1264 C1266 1.394 . S
C1264 H1280 0.931 . S
C1265 C1264 1.391 . S
C1265 C1269 1.376 . S
C1266 C1264 1.394 . S
C1266 C1267 1.369 . S
C1266 C1270 1.531 1_655 S
C1267 C1266 1.369 . S
C1267 C1268 1.410 . S
C1267 C1275 1.503 1_654 S
C1268 C1267 1.410 . S
C1268 C1269 1.392 . S
C1268 C1271 1.501 1_554 S
C1269 C1265 1.376 . S
C1269 C1268 1.392 . S
C1269 H1281 0.929 . S
C1270 C1266 1.531 1_455 S
C1270 H1282 0.960 . S
C1270 H1283 0.962 1_455 S
C1270 H1284 0.960 . S
C1271 C1268 1.501 1_556 S
C1271 H1285 0.959 1_556 S
C1271 H1286 0.979 . S
C1271 H1287 0.955 1_556 S
C1272 C1273 1.370 . S
C1272 C1274 1.363 1_455 S
C1272 H1288 0.931 1_455 S
C1273 C1272 1.370 . S
C1273 C1277 1.408 . S
C1274 C1272 1.363 1_655 S
C1274 C1275 1.370 1_655 S
C1274 C1278 1.524 . S
C1275 C1267 1.503 1_456 S
C1275 C1274 1.370 1_455 S
C1275 C1276 1.403 . S
C1276 C1275 1.403 . S
C1276 C1277 1.404 . S
C1276 C1279 1.539 1_556 S
C1277 C1273 1.408 . S
C1277 C1276 1.404 . S
C1277 H1289 0.930 . S
C1278 C1274 1.524 . S
C1278 H1290 0.956 . S
C1278 H1291 0.961 . S
C1278 H1292 0.961 . S
C1279 C1276 1.539 1_554 S
C1279 H1293 0.958 . S
C1279 H1294 0.963 . S
C1279 H1295 0.960 . S
H1280 C1264 0.931 . S
H1281 C1269 0.929 . S
H1282 C1270 0.960 . S
H1283 C1270 0.962 1_655 S
H1284 C1270 0.960 . S
H1285 C1271 0.959 1_554 S
H1286 C1271 0.979 . S
H1287 C1271 0.955 1_554 S
H1288 C1272 0.931 1_655 S
H1289 C1277 0.930 . S
H1290 C1278 0.956 . S
H1291 C1278 0.961 . S
H1292 C1278 0.961 . S
H1293 C1279 0.958 . S
H1294 C1279 0.963 . S
H1295 C1279 0.960 . S
C1296 C1297 1.391 . S
C1296 C1298 1.394 . S
C1296 H1312 0.931 . S
C1297 C1296 1.391 . S
C1297 C1301 1.376 . S
C1298 C1296 1.394 . S
C1298 C1299 1.369 . S
C1298 C1302 1.531 . S
C1299 C1298 1.369 . S
C1299 C1300 1.410 . S
C1299 C1307 1.503 . S
C1300 C1299 1.410 . S
C1300 C1301 1.392 . S
C1300 C1303 1.511 . S
C1301 C1297 1.376 . S
C1301 C1300 1.392 . S
C1301 H1313 0.929 . S
C1302 C1298 1.531 . S
C1302 H1314 0.960 . S
C1302 H1315 0.962 . S
C1302 H1316 0.960 . S
C1303 C1300 1.511 . S
C1303 H1317 0.961 . S
C1303 H1318 0.961 . S
C1303 H1319 0.961 . S
C1304 C1305 1.370 . S
C1304 C1306 1.363 . S
C1304 H1320 0.931 . S
C1305 C1304 1.370 . S
C1305 C1309 1.408 . S
C1306 C1304 1.363 . S
C1306 C1307 1.370 . S
C1306 C1310 1.524 . S
C1307 C1299 1.503 . S
C1307 C1306 1.370 . S
C1307 C1308 1.403 . S
C1308 C1307 1.403 . S
C1308 C1309 1.404 . S
C1308 C1311 1.539 . S
C1309 C1305 1.408 . S
C1309 C1308 1.404 . S
C1309 H1321 0.930 1_554 S
C1310 C1306 1.524 . S
C1310 H1322 0.956 . S
C1310 H1323 0.961 . S
C1310 H1324 0.961 . S
C1311 C1308 1.539 . S
C1311 H1325 0.958 1_554 S
C1311 H1326 0.961 1_554 S
C1311 H1327 0.960 . S
H1312 C1296 0.931 . S
H1313 C1301 0.929 . S
H1314 C1302 0.960 . S
H1315 C1302 0.962 . S
H1316 C1302 0.960 . S
H1317 C1303 0.961 . S
H1318 C1303 0.961 . S
H1319 C1303 0.961 . S
H1320 C1304 0.931 . S
H1321 C1309 0.930 1_556 S
H1322 C1310 0.956 . S
H1323 C1310 0.961 . S
H1324 C1310 0.961 . S
H1325 C1311 0.958 1_556 S
H1326 C1311 0.961 1_556 S
H1327 C1311 0.960 . S
C1328 C1329 1.391 . S
C1328 C1330 1.394 . S
C1328 H1344 0.931 . S
C1329 C1328 1.391 . S
C1329 C1333 1.376 . S
C1330 C1328 1.394 . S
C1330 C1331 1.369 . S
C1330 C1334 1.531 . S
C1331 C1330 1.369 . S
C1331 C1332 1.410 . S
C1331 C1339 1.503 . S
C1332 C1331 1.410 . S
C1332 C1333 1.392 . S
C1332 C1335 1.511 . S
C1333 C1329 1.376 . S
C1333 C1332 1.392 . S
C1333 H1345 0.929 . S
C1334 C1330 1.531 . S
C1334 H1346 0.960 . S
C1334 H1347 0.962 . S
C1334 H1348 0.960 . S
C1335 C1332 1.511 . S
C1335 H1349 0.961 . S
C1335 H1350 0.961 . S
C1335 H1351 0.961 . S
C1336 C1337 1.370 . S
C1336 C1338 1.363 . S
C1336 H1352 0.931 . S
C1337 C1336 1.370 . S
C1337 C1341 1.408 . S
C1338 C1336 1.363 . S
C1338 C1339 1.370 . S
C1338 C1342 1.524 . S
C1339 C1331 1.503 . S
C1339 C1338 1.370 . S
C1339 C1340 1.403 . S
C1340 C1339 1.403 . S
C1340 C1341 1.404 . S
C1340 C1343 1.539 . S
C1341 C1337 1.408 . S
C1341 C1340 1.404 . S
C1341 H1353 0.930 . S
C1342 C1338 1.524 . S
C1342 H1354 0.956 . S
C1342 H1355 0.961 . S
C1342 H1356 0.961 . S
C1343 C1340 1.539 . S
C1343 H1357 0.958 . S
C1343 H1358 0.961 . S
C1343 H1359 0.960 . S
H1344 C1328 0.931 . S
H1345 C1333 0.929 . S
H1346 C1334 0.960 . S
H1347 C1334 0.962 . S
H1348 C1334 0.960 . S
H1349 C1335 0.961 . S
H1350 C1335 0.961 . S
H1351 C1335 0.961 . S
H1352 C1336 0.931 . S
H1353 C1341 0.930 . S
H1354 C1342 0.956 . S
H1355 C1342 0.961 . S
H1356 C1342 0.961 . S
H1357 C1343 0.958 . S
H1358 C1343 0.961 . S
H1359 C1343 0.960 . S
C1360 C1361 1.391 . S
C1360 C1362 1.394 . S
C1360 H1376 0.931 . S
C1361 C1360 1.391 . S
C1361 C1365 1.376 . S
C1362 C1360 1.394 . S
C1362 C1363 1.369 . S
C1362 C1366 1.531 . S
C1363 C1362 1.369 . S
C1363 C1364 1.410 . S
C1363 C1371 1.503 . S
C1364 C1363 1.410 . S
C1364 C1365 1.392 . S
C1364 C1367 1.511 . S
C1365 C1361 1.376 . S
C1365 C1364 1.392 . S
C1365 H1377 0.929 . S
C1366 C1362 1.531 . S
C1366 H1378 0.960 . S
C1366 H1379 0.962 . S
C1366 H1380 0.960 . S
C1367 C1364 1.511 . S
C1367 H1381 0.961 . S
C1367 H1382 0.961 . S
C1367 H1383 0.961 . S
C1368 C1369 1.370 . S
C1368 C1370 1.363 . S
C1368 H1384 0.931 . S
C1369 C1368 1.370 . S
C1369 C1373 1.408 . S
C1370 C1368 1.363 . S
C1370 C1371 1.370 . S
C1370 C1374 1.524 . S
C1371 C1363 1.503 . S
C1371 C1370 1.370 . S
C1371 C1372 1.403 . S
C1372 C1371 1.403 . S
C1372 C1373 1.404 . S
C1372 C1375 1.539 . S
C1373 C1369 1.408 . S
C1373 C1372 1.404 . S
C1373 H1385 0.930 . S
C1374 C1370 1.524 . S
C1374 H1386 0.956 . S
C1374 H1387 0.961 . S
C1374 H1388 0.961 . S
C1375 C1372 1.539 . S
C1375 H1389 0.958 . S
C1375 H1390 0.961 . S
C1375 H1391 0.960 . S
H1376 C1360 0.931 . S
H1377 C1365 0.929 . S
H1378 C1366 0.960 . S
H1379 C1366 0.962 . S
H1380 C1366 0.960 . S
H1381 C1367 0.961 . S
H1382 C1367 0.961 . S
H1383 C1367 0.961 . S
H1384 C1368 0.931 . S
H1385 C1373 0.930 . S
H1386 C1374 0.956 . S
H1387 C1374 0.961 . S
H1388 C1374 0.961 . S
H1389 C1375 0.958 . S
H1390 C1375 0.961 . S
H1391 C1375 0.960 . S
C1392 C1393 1.391 . S
C1392 C1394 1.394 . S
C1392 H1408 0.931 . S
C1393 C1392 1.391 . S
C1393 C1397 1.376 . S
C1394 C1392 1.394 . S
C1394 C1395 1.369 . S
C1394 C1398 1.531 . S
C1395 C1394 1.369 . S
C1395 C1396 1.410 . S
C1395 C1403 1.503 . S
C1396 C1395 1.410 . S
C1396 C1397 1.392 . S
C1396 C1399 1.511 . S
C1397 C1393 1.376 . S
C1397 C1396 1.392 . S
C1397 H1409 0.929 . S
C1398 C1394 1.531 . S
C1398 H1410 0.960 . S
C1398 H1411 0.962 . S
C1398 H1412 0.960 . S
C1399 C1396 1.511 . S
C1399 H1413 0.961 . S
C1399 H1414 0.961 . S
C1399 H1415 0.961 . S
C1400 C1401 1.370 . S
C1400 C1402 1.363 . S
C1400 H1416 0.931 . S
C1401 C1400 1.370 . S
C1401 C1405 1.408 . S
C1402 C1400 1.363 . S
C1402 C1403 1.370 . S
C1402 C1406 1.524 . S
C1403 C1395 1.503 . S
C1403 C1402 1.370 . S
C1403 C1404 1.403 . S
C1404 C1403 1.403 . S
C1404 C1405 1.404 . S
C1404 C1407 1.539 . S
C1405 C1401 1.408 . S
C1405 C1404 1.404 . S
C1405 H1417 0.930 . S
C1406 C1402 1.524 . S
C1406 H1418 0.956 . S
C1406 H1419 0.961 . S
C1406 H1420 0.961 . S
C1407 C1404 1.539 . S
C1407 H1421 0.958 . S
C1407 H1422 0.961 . S
C1407 H1423 0.960 . S
H1408 C1392 0.931 . S
H1409 C1397 0.929 . S
H1410 C1398 0.960 . S
H1411 C1398 0.962 . S
H1412 C1398 0.960 . S
H1413 C1399 0.961 . S
H1414 C1399 0.961 . S
H1415 C1399 0.961 . S
H1416 C1400 0.931 . S
H1417 C1405 0.930 . S
H1418 C1406 0.956 . S
H1419 C1406 0.961 . S
H1420 C1406 0.961 . S
H1421 C1407 0.958 . S
H1422 C1407 0.961 . S
H1423 C1407 0.960 . S
C1424 C1425 1.391 . S
C1424 C1426 1.394 . S
C1424 H1440 0.931 . S
C1425 C1424 1.391 . S
C1425 C1429 1.376 . S
C1426 C1424 1.394 . S
C1426 C1427 1.369 . S
C1426 C1430 1.531 . S
C1427 C1426 1.369 . S
C1427 C1428 1.410 . S
C1427 C1435 1.503 . S
C1428 C1427 1.410 . S
C1428 C1429 1.392 . S
C1428 C1431 1.511 . S
C1429 C1425 1.376 . S
C1429 C1428 1.392 . S
C1429 H1441 0.929 . S
C1430 C1426 1.531 . S
C1430 H1442 0.960 . S
C1430 H1443 0.962 . S
C1430 H1444 0.960 . S
C1431 C1428 1.511 . S
C1431 H1445 0.961 . S
C1431 H1446 0.961 . S
C1431 H1447 0.961 . S
C1432 C1433 1.370 . S
C1432 C1434 1.363 . S
C1432 H1448 0.931 . S
C1433 C1432 1.370 . S
C1433 C1437 1.408 . S
C1434 C1432 1.363 . S
C1434 C1435 1.370 . S
C1434 C1438 1.524 . S
C1435 C1427 1.503 . S
C1435 C1434 1.370 . S
C1435 C1436 1.403 . S
C1436 C1435 1.403 . S
C1436 C1437 1.404 . S
C1436 C1439 1.539 . S
C1437 C1433 1.408 . S
C1437 C1436 1.404 . S
C1437 H1449 0.930 . S
C1438 C1434 1.524 . S
C1438 H1450 0.956 . S
C1438 H1451 0.961 . S
C1438 H1452 0.961 . S
C1439 C1436 1.539 . S
C1439 H1453 0.958 . S
C1439 H1454 0.961 . S
C1439 H1455 0.960 . S
H1440 C1424 0.931 . S
H1441 C1429 0.929 . S
H1442 C1430 0.960 . S
H1443 C1430 0.962 . S
H1444 C1430 0.960 . S
H1445 C1431 0.961 . S
H1446 C1431 0.961 . S
H1447 C1431 0.961 . S
H1448 C1432 0.931 . S
H1449 C1437 0.930 . S
H1450 C1438 0.956 . S
H1451 C1438 0.961 . S
H1452 C1438 0.961 . S
H1453 C1439 0.958 . S
H1454 C1439 0.961 . S
H1455 C1439 0.960 . S
C1456 C1457 1.391 . S
C1456 C1458 1.394 . S
C1456 H1472 0.931 . S
C1457 C1456 1.391 . S
C1457 C1461 1.376 . S
C1458 C1456 1.394 . S
C1458 C1459 1.369 . S
C1458 C1462 1.531 . S
C1459 C1458 1.369 . S
C1459 C1460 1.410 . S
C1459 C1467 1.503 . S
C1460 C1459 1.410 . S
C1460 C1461 1.392 . S
C1460 C1463 1.511 . S
C1461 C1457 1.376 . S
C1461 C1460 1.392 . S
C1461 H1473 0.929 . S
C1462 C1458 1.531 . S
C1462 H1474 0.960 . S
C1462 H1475 0.962 . S
C1462 H1476 0.960 . S
C1463 C1460 1.511 . S
C1463 H1477 0.961 . S
C1463 H1478 0.961 . S
C1463 H1479 0.961 . S
C1464 C1465 1.370 . S
C1464 C1466 1.363 . S
C1464 H1480 0.931 . S
C1465 C1464 1.370 . S
C1465 C1469 1.408 . S
C1466 C1464 1.363 . S
C1466 C1467 1.370 . S
C1466 C1470 1.524 . S
C1467 C1459 1.503 . S
C1467 C1466 1.370 . S
C1467 C1468 1.403 . S
C1468 C1467 1.403 . S
C1468 C1469 1.404 . S
C1468 C1471 1.539 . S
C1469 C1465 1.408 . S
C1469 C1468 1.404 . S
C1469 H1481 0.930 1_556 S
C1470 C1466 1.524 . S
C1470 H1482 0.956 . S
C1470 H1483 0.961 . S
C1470 H1484 0.961 . S
C1471 C1468 1.539 . S
C1471 H1485 0.958 . S
C1471 H1486 0.961 1_556 S
C1471 H1487 0.960 . S
H1472 C1456 0.931 . S
H1473 C1461 0.929 . S
H1474 C1462 0.960 . S
H1475 C1462 0.962 . S
H1476 C1462 0.960 . S
H1477 C1463 0.961 . S
H1478 C1463 0.961 . S
H1479 C1463 0.961 . S
H1480 C1464 0.931 . S
H1481 C1469 0.930 1_554 S
H1482 C1470 0.956 . S
H1483 C1470 0.961 . S
H1484 C1470 0.961 . S
H1485 C1471 0.958 . S
H1486 C1471 0.961 1_554 S
H1487 C1471 0.960 . S
C1488 C1489 1.391 . S
C1488 C1490 1.394 . S
C1488 H1504 0.931 . S
C1489 C1488 1.391 . S
C1489 C1493 1.376 . S
C1490 C1488 1.394 . S
C1490 C1491 1.369 . S
C1490 C1494 1.531 . S
C1491 C1490 1.369 . S
C1491 C1492 1.410 . S
C1491 C1499 1.503 . S
C1492 C1491 1.410 . S
C1492 C1493 1.392 . S
C1492 C1495 1.511 . S
C1493 C1489 1.376 . S
C1493 C1492 1.392 . S
C1493 H1505 0.929 . S
C1494 C1490 1.531 . S
C1494 H1506 0.960 . S
C1494 H1507 0.962 . S
C1494 H1508 0.960 . S
C1495 C1492 1.511 . S
C1495 H1509 0.961 . S
C1495 H1510 0.961 . S
C1495 H1511 0.961 . S
C1496 C1497 1.370 . S
C1496 C1498 1.363 . S
C1496 H1512 0.931 . S
C1497 C1496 1.370 . S
C1497 C1501 1.408 . S
C1498 C1496 1.363 . S
C1498 C1499 1.370 . S
C1498 C1502 1.524 . S
C1499 C1491 1.503 . S
C1499 C1498 1.370 . S
C1499 C1500 1.403 . S
C1500 C1499 1.403 . S
C1500 C1501 1.404 . S
C1500 C1503 1.539 . S
C1501 C1497 1.408 . S
C1501 C1500 1.404 . S
C1501 H1513 0.930 1_554 S
C1502 C1498 1.524 . S
C1502 H1514 0.956 . S
C1502 H1515 0.961 . S
C1502 H1516 0.961 . S
C1503 C1500 1.539 . S
C1503 H1517 0.958 . S
C1503 H1518 0.961 . S
C1503 H1519 0.960 . S
H1504 C1488 0.931 . S
H1505 C1493 0.929 . S
H1506 C1494 0.960 . S
H1507 C1494 0.962 . S
H1508 C1494 0.960 . S
H1509 C1495 0.961 . S
H1510 C1495 0.961 . S
H1511 C1495 0.961 . S
H1512 C1496 0.931 . S
H1513 C1501 0.930 1_556 S
H1514 C1502 0.956 . S
H1515 C1502 0.961 . S
H1516 C1502 0.961 . S
H1517 C1503 0.958 . S
H1518 C1503 0.961 . S
H1519 C1503 0.960 . S
C1520 C1521 1.391 . S
C1520 C1522 1.394 . S
C1520 H1536 0.931 . S
C1521 C1520 1.391 . S
C1521 C1525 1.376 . S
C1522 C1520 1.394 . S
C1522 C1523 1.369 . S
C1522 C1526 1.531 . S
C1523 C1522 1.369 . S
C1523 C1524 1.410 . S
C1523 C1531 1.503 . S
C1524 C1523 1.410 . S
C1524 C1525 1.392 . S
C1524 C1527 1.511 . S
C1525 C1521 1.376 . S
C1525 C1524 1.392 . S
C1525 H1537 0.929 . S
C1526 C1522 1.531 . S
C1526 H1538 0.960 . S
C1526 H1539 0.962 . S
C1526 H1540 0.960 . S
C1527 C1524 1.511 . S
C1527 H1541 0.961 . S
C1527 H1542 0.961 . S
C1527 H1543 0.961 . S
C1528 C1529 1.370 . S
C1528 C1530 1.363 . S
C1528 H1544 0.931 . S
C1529 C1528 1.370 . S
C1529 C1533 1.408 . S
C1530 C1528 1.363 . S
C1530 C1531 1.370 . S
C1530 C1534 1.524 . S
C1531 C1523 1.503 . S
C1531 C1530 1.370 . S
C1531 C1532 1.403 . S
C1532 C1531 1.403 . S
C1532 C1533 1.404 . S
C1532 C1535 1.539 . S
C1533 C1529 1.408 . S
C1533 C1532 1.404 . S
C1533 H1545 0.930 . S
C1534 C1530 1.524 . S
C1534 H1546 0.956 . S
C1534 H1547 0.961 . S
C1534 H1548 0.961 . S
C1535 C1532 1.539 . S
C1535 H1549 0.958 . S
C1535 H1550 0.961 . S
C1535 H1551 0.960 . S
H1536 C1520 0.931 . S
H1537 C1525 0.929 . S
H1538 C1526 0.960 . S
H1539 C1526 0.962 . S
H1540 C1526 0.960 . S
H1541 C1527 0.961 . S
H1542 C1527 0.961 . S
H1543 C1527 0.961 . S
H1544 C1528 0.931 . S
H1545 C1533 0.930 . S
H1546 C1534 0.956 . S
H1547 C1534 0.961 . S
H1548 C1534 0.961 . S
H1549 C1535 0.958 . S
H1550 C1535 0.961 . S
H1551 C1535 0.960 . S
C1552 C1553 1.391 . S
C1552 C1554 1.394 . S
C1552 H1568 0.931 . S
C1553 C1552 1.391 . S
C1553 C1557 1.376 . S
C1554 C1552 1.394 . S
C1554 C1555 1.369 . S
C1554 C1558 1.531 . S
C1555 C1554 1.369 . S
C1555 C1556 1.410 . S
C1555 C1563 1.503 . S
C1556 C1555 1.410 . S
C1556 C1557 1.392 . S
C1556 C1559 1.511 . S
C1557 C1553 1.376 . S
C1557 C1556 1.392 . S
C1557 H1569 0.929 . S
C1558 C1554 1.531 . S
C1558 H1570 0.960 . S
C1558 H1571 0.962 . S
C1558 H1572 0.960 . S
C1559 C1556 1.511 . S
C1559 H1573 0.961 . S
C1559 H1574 0.961 . S
C1559 H1575 0.961 . S
C1560 C1561 1.370 . S
C1560 C1562 1.363 . S
C1560 H1576 0.931 . S
C1561 C1560 1.370 . S
C1561 C1565 1.408 . S
C1562 C1560 1.363 . S
C1562 C1563 1.370 . S
C1562 C1566 1.524 . S
C1563 C1555 1.503 . S
C1563 C1562 1.370 . S
C1563 C1564 1.403 . S
C1564 C1563 1.403 . S
C1564 C1565 1.404 . S
C1564 C1567 1.539 . S
C1565 C1561 1.408 . S
C1565 C1564 1.404 . S
C1565 H1577 0.930 . S
C1566 C1562 1.524 . S
C1566 H1578 0.956 . S
C1566 H1579 0.961 . S
C1566 H1580 0.961 . S
C1567 C1564 1.539 . S
C1567 H1581 0.958 . S
C1567 H1582 0.961 . S
C1567 H1583 0.960 . S
H1568 C1552 0.931 . S
H1569 C1557 0.929 . S
H1570 C1558 0.960 . S
H1571 C1558 0.962 . S
H1572 C1558 0.960 . S
H1573 C1559 0.961 . S
H1574 C1559 0.961 . S
H1575 C1559 0.961 . S
H1576 C1560 0.931 . S
H1577 C1565 0.930 . S
H1578 C1566 0.956 . S
H1579 C1566 0.961 . S
H1580 C1566 0.961 . S
H1581 C1567 0.958 . S
H1582 C1567 0.961 . S
H1583 C1567 0.960 . S
C1584 C1585 1.391 . S
C1584 C1586 1.394 . S
C1584 H1600 0.931 . S
C1585 C1584 1.391 . S
C1585 C1589 1.376 . S
C1586 C1584 1.394 . S
C1586 C1587 1.369 . S
C1586 C1590 1.531 . S
C1587 C1586 1.369 . S
C1587 C1588 1.410 . S
C1587 C1595 1.503 . S
C1588 C1587 1.410 . S
C1588 C1589 1.392 . S
C1588 C1591 1.511 . S
C1589 C1585 1.376 . S
C1589 C1588 1.392 . S
C1589 H1601 0.929 . S
C1590 C1586 1.531 . S
C1590 H1602 0.960 . S
C1590 H1603 0.962 . S
C1590 H1604 0.960 . S
C1591 C1588 1.511 . S
C1591 H1605 0.961 . S
C1591 H1606 0.961 . S
C1591 H1607 0.961 . S
C1592 C1593 1.370 . S
C1592 C1594 1.363 . S
C1592 H1608 0.931 . S
C1593 C1592 1.370 . S
C1593 C1597 1.408 . S
C1594 C1592 1.363 . S
C1594 C1595 1.370 . S
C1594 C1598 1.524 . S
C1595 C1587 1.503 . S
C1595 C1594 1.370 . S
C1595 C1596 1.403 . S
C1596 C1595 1.403 . S
C1596 C1597 1.404 . S
C1596 C1599 1.539 . S
C1597 C1593 1.408 . S
C1597 C1596 1.404 . S
C1597 H1609 0.930 . S
C1598 C1594 1.524 . S
C1598 H1610 0.956 . S
C1598 H1611 0.961 . S
C1598 H1612 0.961 . S
C1599 C1596 1.539 . S
C1599 H1613 0.958 . S
C1599 H1614 0.961 . S
C1599 H1615 0.960 . S
H1600 C1584 0.931 . S
H1601 C1589 0.929 . S
H1602 C1590 0.960 . S
H1603 C1590 0.962 . S
H1604 C1590 0.960 . S
H1605 C1591 0.961 . S
H1606 C1591 0.961 . S
H1607 C1591 0.961 . S
H1608 C1592 0.931 . S
H1609 C1597 0.930 . S
H1610 C1598 0.956 . S
H1611 C1598 0.961 . S
H1612 C1598 0.961 . S
H1613 C1599 0.958 . S
H1614 C1599 0.961 . S
H1615 C1599 0.960 . S
C1616 C1617 1.391 . S
C1616 C1618 1.394 . S
C1616 H1632 0.931 . S
C1617 C1616 1.391 . S
C1617 C1621 1.376 . S
C1618 C1616 1.394 . S
C1618 C1619 1.369 . S
C1618 C1622 1.531 . S
C1619 C1618 1.369 . S
C1619 C1620 1.410 . S
C1619 C1627 1.503 . S
C1620 C1619 1.410 . S
C1620 C1621 1.392 . S
C1620 C1623 1.511 . S
C1621 C1617 1.376 . S
C1621 C1620 1.392 . S
C1621 H1633 0.929 . S
C1622 C1618 1.531 . S
C1622 H1634 0.960 . S
C1622 H1635 0.962 . S
C1622 H1636 0.960 . S
C1623 C1620 1.511 . S
C1623 H1637 0.961 . S
C1623 H1638 0.961 . S
C1623 H1639 0.961 . S
C1624 C1625 1.370 . S
C1624 C1626 1.363 . S
C1624 H1640 0.931 . S
C1625 C1624 1.370 . S
C1625 C1629 1.408 . S
C1626 C1624 1.363 . S
C1626 C1627 1.370 . S
C1626 C1630 1.524 . S
C1627 C1619 1.503 . S
C1627 C1626 1.370 . S
C1627 C1628 1.403 . S
C1628 C1627 1.403 . S
C1628 C1629 1.404 . S
C1628 C1631 1.539 . S
C1629 C1625 1.408 . S
C1629 C1628 1.404 . S
C1629 H1641 0.930 . S
C1630 C1626 1.524 . S
C1630 H1642 0.956 . S
C1630 H1643 0.961 . S
C1630 H1644 0.961 . S
C1631 C1628 1.539 . S
C1631 H1645 0.958 . S
C1631 H1646 0.961 . S
C1631 H1647 0.960 . S
H1632 C1616 0.931 . S
H1633 C1621 0.929 . S
H1634 C1622 0.960 . S
H1635 C1622 0.962 . S
H1636 C1622 0.960 . S
H1637 C1623 0.961 . S
H1638 C1623 0.961 . S
H1639 C1623 0.961 . S
H1640 C1624 0.931 . S
H1641 C1629 0.930 . S
H1642 C1630 0.956 . S
H1643 C1630 0.961 . S
H1644 C1630 0.961 . S
H1645 C1631 0.958 . S
H1646 C1631 0.961 . S
H1647 C1631 0.960 . S
C1648 C1649 1.391 . S
C1648 C1650 1.394 . S
C1648 H1664 0.931 . S
C1649 C1648 1.391 . S
C1649 C1653 1.376 . S
C1650 C1648 1.394 . S
C1650 C1651 1.369 . S
C1650 C1654 1.531 . S
C1651 C1650 1.369 . S
C1651 C1652 1.410 . S
C1651 C1659 1.503 . S
C1652 C1651 1.410 . S
C1652 C1653 1.392 . S
C1652 C1655 1.511 . S
C1653 C1649 1.376 . S
C1653 C1652 1.392 . S
C1653 H1665 0.929 . S
C1654 C1650 1.531 . S
C1654 H1666 0.960 . S
C1654 H1667 0.962 . S
C1654 H1668 0.960 . S
C1655 C1652 1.511 . S
C1655 H1669 0.961 . S
C1655 H1670 0.961 . S
C1655 H1671 0.961 . S
C1656 C1657 1.370 . S
C1656 C1658 1.363 . S
C1656 H1672 0.931 . S
C1657 C1656 1.370 . S
C1657 C1661 1.408 . S
C1658 C1656 1.363 . S
C1658 C1659 1.370 . S
C1658 C1662 1.524 . S
C1659 C1651 1.503 . S
C1659 C1658 1.370 . S
C1659 C1660 1.403 . S
C1660 C1659 1.403 . S
C1660 C1661 1.404 . S
C1660 C1663 1.539 . S
C1661 C1657 1.408 . S
C1661 C1660 1.404 . S
C1661 H1673 0.930 . S
C1662 C1658 1.524 . S
C1662 H1674 0.956 . S
C1662 H1675 0.961 . S
C1662 H1676 0.961 . S
C1663 C1660 1.539 . S
C1663 H1677 0.958 . S
C1663 H1678 0.961 . S
C1663 H1679 0.960 . S
H1664 C1648 0.931 . S
H1665 C1653 0.929 . S
H1666 C1654 0.960 . S
H1667 C1654 0.962 . S
H1668 C1654 0.960 . S
H1669 C1655 0.961 . S
H1670 C1655 0.961 . S
H1671 C1655 0.961 . S
H1672 C1656 0.931 . S
H1673 C1661 0.930 . S
H1674 C1662 0.956 . S
H1675 C1662 0.961 . S
H1676 C1662 0.961 . S
H1677 C1663 0.958 . S
H1678 C1663 0.961 . S
H1679 C1663 0.960 . S
C1680 C1681 1.391 . S
C1680 C1682 1.394 . S
C1680 H1696 0.931 . S
C1681 C1680 1.391 . S
C1681 C1685 1.376 . S
C1682 C1680 1.394 . S
C1682 C1683 1.369 . S
C1682 C1686 1.531 . S
C1683 C1682 1.369 . S
C1683 C1684 1.410 . S
C1683 C1691 1.503 . S
C1684 C1683 1.410 . S
C1684 C1685 1.392 . S
C1684 C1687 1.511 . S
C1685 C1681 1.376 . S
C1685 C1684 1.392 . S
C1685 H1697 0.929 . S
C1686 C1682 1.531 . S
C1686 H1698 0.960 . S
C1686 H1699 0.962 . S
C1686 H1700 0.960 . S
C1687 C1684 1.511 . S
C1687 H1701 0.961 . S
C1687 H1702 0.961 . S
C1687 H1703 0.961 . S
C1688 C1689 1.370 . S
C1688 C1690 1.363 . S
C1688 H1704 0.931 . S
C1689 C1688 1.370 . S
C1689 C1693 1.408 . S
C1690 C1688 1.363 . S
C1690 C1691 1.370 . S
C1690 C1694 1.524 . S
C1691 C1683 1.503 . S
C1691 C1690 1.370 . S
C1691 C1692 1.403 . S
C1692 C1691 1.403 . S
C1692 C1693 1.404 . S
C1692 C1695 1.539 . S
C1693 C1689 1.408 . S
C1693 C1692 1.404 . S
C1693 H1705 0.930 1_554 S
C1694 C1690 1.524 . S
C1694 H1706 0.956 . S
C1694 H1707 0.961 . S
C1694 H1708 0.961 . S
C1695 C1692 1.539 . S
C1695 H1709 0.958 1_554 S
C1695 H1710 0.961 1_554 S
C1695 H1711 0.960 . S
H1696 C1680 0.931 . S
H1697 C1685 0.929 . S
H1698 C1686 0.960 . S
H1699 C1686 0.962 . S
H1700 C1686 0.960 . S
H1701 C1687 0.961 . S
H1702 C1687 0.961 . S
H1703 C1687 0.961 . S
H1704 C1688 0.931 . S
H1705 C1693 0.930 1_556 S
H1706 C1694 0.956 . S
H1707 C1694 0.961 . S
H1708 C1694 0.961 . S
H1709 C1695 0.958 1_556 S
H1710 C1695 0.961 1_556 S
H1711 C1695 0.960 . S
C1712 C1713 1.391 . S
C1712 C1714 1.394 . S
C1712 H1728 0.931 . S
C1713 C1712 1.391 . S
C1713 C1717 1.376 . S
C1714 C1712 1.394 . S
C1714 C1715 1.369 . S
C1714 C1718 1.531 . S
C1715 C1714 1.369 . S
C1715 C1716 1.410 . S
C1715 C1723 1.503 . S
C1716 C1715 1.410 . S
C1716 C1717 1.392 . S
C1716 C1719 1.511 . S
C1717 C1713 1.376 . S
C1717 C1716 1.392 . S
C1717 H1729 0.929 . S
C1718 C1714 1.531 . S
C1718 H1730 0.960 . S
C1718 H1731 0.962 . S
C1718 H1732 0.960 . S
C1719 C1716 1.511 . S
C1719 H1733 0.961 . S
C1719 H1734 0.961 . S
C1719 H1735 0.961 . S
C1720 C1721 1.370 . S
C1720 C1722 1.363 . S
C1720 H1736 0.931 . S
C1721 C1720 1.370 . S
C1721 C1725 1.408 . S
C1722 C1720 1.363 . S
C1722 C1723 1.370 . S
C1722 C1726 1.524 . S
C1723 C1715 1.503 . S
C1723 C1722 1.370 . S
C1723 C1724 1.403 . S
C1724 C1723 1.403 . S
C1724 C1725 1.404 . S
C1724 C1727 1.539 . S
C1725 C1721 1.408 . S
C1725 C1724 1.404 . S
C1725 H1737 0.930 . S
C1726 C1722 1.524 . S
C1726 H1738 0.956 . S
C1726 H1739 0.961 . S
C1726 H1740 0.961 . S
C1727 C1724 1.539 . S
C1727 H1741 0.958 . S
C1727 H1742 0.961 . S
C1727 H1743 0.960 . S
H1728 C1712 0.931 . S
H1729 C1717 0.929 . S
H1730 C1718 0.960 . S
H1731 C1718 0.962 . S
H1732 C1718 0.960 . S
H1733 C1719 0.961 . S
H1734 C1719 0.961 . S
H1735 C1719 0.961 . S
H1736 C1720 0.931 . S
H1737 C1725 0.930 . S
H1738 C1726 0.956 . S
H1739 C1726 0.961 . S
H1740 C1726 0.961 . S
H1741 C1727 0.958 . S
H1742 C1727 0.961 . S
H1743 C1727 0.960 . S
C1744 C1745 1.391 . S
C1744 C1746 1.394 . S
C1744 H1760 0.931 . S
C1745 C1744 1.391 . S
C1745 C1749 1.376 . S
C1746 C1744 1.394 . S
C1746 C1747 1.369 . S
C1746 C1750 1.531 . S
C1747 C1746 1.369 . S
C1747 C1748 1.410 . S
C1747 C1755 1.503 . S
C1748 C1747 1.410 . S
C1748 C1749 1.392 . S
C1748 C1751 1.511 . S
C1749 C1745 1.376 . S
C1749 C1748 1.392 . S
C1749 H1761 0.929 . S
C1750 C1746 1.531 . S
C1750 H1762 0.960 . S
C1750 H1763 0.962 . S
C1750 H1764 0.960 . S
C1751 C1748 1.511 . S
C1751 H1765 0.961 . S
C1751 H1766 0.961 . S
C1751 H1767 0.961 . S
C1752 C1753 1.370 . S
C1752 C1754 1.363 . S
C1752 H1768 0.931 . S
C1753 C1752 1.370 . S
C1753 C1757 1.408 . S
C1754 C1752 1.363 . S
C1754 C1755 1.370 . S
C1754 C1758 1.524 . S
C1755 C1747 1.503 . S
C1755 C1754 1.370 . S
C1755 C1756 1.403 . S
C1756 C1755 1.403 . S
C1756 C1757 1.404 . S
C1756 C1759 1.539 . S
C1757 C1753 1.408 . S
C1757 C1756 1.404 . S
C1757 H1769 0.930 . S
C1758 C1754 1.524 . S
C1758 H1770 0.956 . S
C1758 H1771 0.961 . S
C1758 H1772 0.961 . S
C1759 C1756 1.539 . S
C1759 H1773 0.958 . S
C1759 H1774 0.961 . S
C1759 H1775 0.960 . S
H1760 C1744 0.931 . S
H1761 C1749 0.929 . S
H1762 C1750 0.960 . S
H1763 C1750 0.962 . S
H1764 C1750 0.960 . S
H1765 C1751 0.961 . S
H1766 C1751 0.961 . S
H1767 C1751 0.961 . S
H1768 C1752 0.931 . S
H1769 C1757 0.930 . S
H1770 C1758 0.956 . S
H1771 C1758 0.961 . S
H1772 C1758 0.961 . S
H1773 C1759 0.958 . S
H1774 C1759 0.961 . S
H1775 C1759 0.960 . S
C1776 C1777 1.391 . S
C1776 C1778 1.394 . S
C1776 H1792 0.931 . S
C1777 C1776 1.391 . S
C1777 C1781 1.376 . S
C1778 C1776 1.394 . S
C1778 C1779 1.369 . S
C1778 C1782 1.531 . S
C1779 C1778 1.369 . S
C1779 C1780 1.410 . S
C1779 C1787 1.503 . S
C1780 C1779 1.410 . S
C1780 C1781 1.392 . S
C1780 C1783 1.511 . S
C1781 C1777 1.376 . S
C1781 C1780 1.392 . S
C1781 H1793 0.929 . S
C1782 C1778 1.531 . S
C1782 H1794 0.960 . S
C1782 H1795 0.962 . S
C1782 H1796 0.960 . S
C1783 C1780 1.511 . S
C1783 H1797 0.961 . S
C1783 H1798 0.961 . S
C1783 H1799 0.961 . S
C1784 C1785 1.370 . S
C1784 C1786 1.363 . S
C1784 H1800 0.931 . S
C1785 C1784 1.370 . S
C1785 C1789 1.408 . S
C1786 C1784 1.363 . S
C1786 C1787 1.370 . S
C1786 C1790 1.524 . S
C1787 C1779 1.503 . S
C1787 C1786 1.370 . S
C1787 C1788 1.403 . S
C1788 C1787 1.403 . S
C1788 C1789 1.404 . S
C1788 C1791 1.539 . S
C1789 C1785 1.408 . S
C1789 C1788 1.404 . S
C1789 H1801 0.930 . S
C1790 C1786 1.524 . S
C1790 H1802 0.956 . S
C1790 H1803 0.961 . S
C1790 H1804 0.961 . S
C1791 C1788 1.539 . S
C1791 H1805 0.958 . S
C1791 H1806 0.961 . S
C1791 H1807 0.960 . S
H1792 C1776 0.931 . S
H1793 C1781 0.929 . S
H1794 C1782 0.960 . S
H1795 C1782 0.962 . S
H1796 C1782 0.960 . S
H1797 C1783 0.961 . S
H1798 C1783 0.961 . S
H1799 C1783 0.961 . S
H1800 C1784 0.931 . S
H1801 C1789 0.930 . S
H1802 C1790 0.956 . S
H1803 C1790 0.961 . S
H1804 C1790 0.961 . S
H1805 C1791 0.958 . S
H1806 C1791 0.961 . S
H1807 C1791 0.960 . S
C529 N332 1.381 . S
C537 N2 1.402 . S
C561 N35 1.450 . S
C569 N365 1.431 . S
C593 N266 1.393 . S
C601 N68 1.403 . S
C625 N101 1.412 . S
C633 N299 1.408 . S
C657 N464 1.450 . S
C665 N134 1.432 . S
C689 N167 1.442 . S
C697 N497 1.431 . S
C721 N200 1.386 . S
C729 N398 1.404 . S
C753 N431 1.378 . S
C761 N233 1.402 . S
C785 C480 0.968 . S
C793 C7 0.950 . S
C817 C513 0.948 . S
C825 C40 0.930 . S
C849 C73 0.969 . S
C857 C414 0.962 . S
C881 C447 0.967 . S
C889 C106 0.953 . S
C913 C139 0.933 . S
C921 C348 0.950 . S
C945 C172 0.912 . S
C953 C381 0.953 . S
C977 C282 0.945 . S
C985 C205 0.949 . S
C1009 C238 0.966 . S
C1017 C315 0.952 . S
C1041 C216 0.938 . S
C1049 C271 0.936 . S
C1073 C249 0.963 . S
C1081 C304 0.958 . S
C1105 C150 0.963 . S
C1113 C337 0.935 . S
C1137 C370 0.923 . S
C1145 C183 0.958 . S
C1169 C403 0.949 . S
C1177 C84 0.947 . S
C1201 C436 0.908 . S
C1209 C117 0.950 . S
C1233 C469 0.937 . S
C1241 C18 0.961 . S
C1265 C51 0.936 . S
C1273 C502 0.934 . S
C1297 N376 1.740 . S
C1305 C21 1.722 . S
C1329 C54 1.696 . S
C1337 N277 1.740 . S
C1361 C87 1.693 . S
C1369 N310 1.740 . S
C1393 C120 1.696 . S
C1401 N343 1.743 . S
C1425 N178 1.742 . S
C1433 C153 1.715 . S
C1457 C186 1.694 . S
C1465 N211 1.742 . S
C1489 N244 1.742 . S
C1497 C219 1.719 . S
C1521 C252 1.703 . S
C1529 N145 1.740 . S
C1553 N112 1.737 . S
C1561 C285 1.709 . S
C1585 C318 1.710 . S
C1593 N13 1.745 . S
C1617 C351 1.704 . S
C1625 N46 1.738 . S
C1649 N79 1.742 . S
C1657 C384 1.718 . S
C1681 N442 1.742 . S
C1689 C417 1.721 . S
C1713 N475 1.740 . S
C1721 C450 1.711 . S
C1745 C483 1.708 . S
C1753 N508 1.740 . S
C1777 N409 1.734 . S
C1785 C516 1.709 . S
