# Generated by pormake.
# Topology sma, (6)-cn, num edge types: 1
# Building blocks:
#     Node 0, Type 0, BuildingBlock: GEDQOX_clean_sbu_0, # of connection points: 6
#     Node 1, Type 0, BuildingBlock: GEDQOX_clean_sbu_0, # of connection points: 6
#     Node 2, Type 0, BuildingBlock: GEDQOX_clean_sbu_0, # of connection points: 6
#     Edge 3, Type (0, 0), BuildingBlock: EZIPEK_clean_linker_0, # of connection points: 2
#     Edge 4, Type (0, 0), BuildingBlock: EZIPEK_clean_linker_0, # of connection points: 2
#     Edge 5, Type (0, 0), BuildingBlock: EZIPEK_clean_linker_0, # of connection points: 2
#     Edge 6, Type (0, 0), BuildingBlock: EZIPEK_clean_linker_0, # of connection points: 2
#     Edge 7, Type (0, 0), BuildingBlock: EZIPEK_clean_linker_0, # of connection points: 2
#     Edge 8, Type (0, 0), BuildingBlock: EZIPEK_clean_linker_0, # of connection points: 2
#     Edge 9, Type (0, 0), BuildingBlock: EZIPEK_clean_linker_0, # of connection points: 2
#     Edge 10, Type (0, 0), BuildingBlock: EZIPEK_clean_linker_0, # of connection points: 2
#     Edge 11, Type (0, 0), BuildingBlock: EZIPEK_clean_linker_0, # of connection points: 2
# Relax obj value: 0.151
# Max RMSD: 0.282
# Mean RMSD: 0.208
data_MOF--net-sma--node1-GEDQOX_clean_sbu_0--edge1-EZIPEK_clean_linker_0
_symmetry_space_group_name_H-M    P1
_symmetry_Int_Tables_number       1
_symmetry_cell_setting            triclinic
loop_
_symmetry_equiv_pos_as_xyz
'x, y, z'
_cell_length_a     32.946253
_cell_length_b     23.15463
_cell_length_c     10.449645
_cell_angle_alpha  94.364903
_cell_angle_beta   91.019621
_cell_angle_gamma 94.077866
loop_
_atom_site_label
_atom_site_type_symbol
_atom_site_fract_x
_atom_site_fract_y
_atom_site_fract_z
_atom_type_partial_charge
Nd0 Nd 0.07462 0.64044 -0.01568 0.0
Nd1 Nd 0.05214 0.51199 0.00147 0.0
C2 C 0.09362 0.75164 -0.03655 0.0
C3 C 0.12591 0.79007 0.03349 0.0
C4 C 0.1577 0.81674 -0.03403 0.0
C5 C 0.19109 0.84681 0.03222 0.0
C6 C 0.19305 0.85078 0.16694 0.0
C7 C 0.16098 0.82549 0.23466 0.0
C8 C 0.12777 0.79527 0.16874 0.0
C9 C 0.07304 0.604 0.2283 0.0
C10 C 0.14885 0.55519 -0.01777 0.0
C11 C 1.0326 0.40783 0.07785 0.0
C12 C 0.99548 0.38403 0.13664 0.0
C13 C 0.96644 0.42143 0.18358 0.0
C14 C 0.92947 0.39887 0.22919 0.0
C15 C 0.9212 0.33862 0.22922 0.0
C16 C 0.9505 0.30125 0.18437 0.0
C17 C 0.98743 0.32386 0.13801 0.0
C18 C 0.05387 0.54493 0.75369 0.0
C19 C 0.97957 0.59307 -0.03598 0.0
O20 O 0.10639 0.71103 0.88329 0.0
O21 O 0.06305 0.73273 0.03103 0.0
O22 O 0.10114 0.64014 0.19011 0.0
O23 O 0.04712 0.58915 0.14033 0.0
O24 O 0.13711 0.60574 -0.04874 0.0
O25 O 0.12253 0.51447 0.0204 0.0
O26 O 0.05466 0.44801 0.14832 0.0
O27 O 1.02787 0.42077 -0.04087 0.0
O28 O 1.02951 0.50324 0.79029 0.0
O29 O 0.07863 0.5635 0.84304 0.0
O30 O 0.99109 0.55126 0.03188 0.0
O31 O 1.00704 0.62906 0.91455 0.0
H32 H 0.15726 0.81288 0.86197 0.0
H33 H 0.21568 0.86615 -0.02138 0.0
H34 H 0.16209 0.82814 0.33865 0.0
H35 H 0.10415 0.77465 0.22407 0.0
H36 H 0.97207 0.46802 0.18302 0.0
H37 H 0.90712 0.42825 0.26297 0.0
H38 H 0.94446 0.25461 0.18342 0.0
H39 H 1.00935 0.29443 0.10123 0.0
Nd40 Nd 0.50841 0.08271 0.61935 0.0
Nd41 Nd 0.60001 0.08939 0.58463 0.0
C42 C 0.43099 1.05882 0.67126 0.0
C43 C 0.39704 1.02591 0.59826 0.0
C44 C 0.36544 0.99742 0.66276 0.0
C45 C 0.33287 0.96692 0.5933 0.0
C46 C 0.33148 0.96493 0.45858 0.0
C47 C 0.36339 0.99263 0.39407 0.0
C48 C 0.39607 1.02255 0.46329 0.0
C49 C 0.53167 0.08594 0.3696 0.0
C50 C 0.5574 0.96199 0.6036 0.0
C51 C 0.67478 0.10493 0.49897 0.0
C52 C 0.70791 0.14783 0.47127 0.0
C53 C 0.70042 0.20009 0.41781 0.0
C54 C 0.73298 0.23709 0.38127 0.0
C55 C 0.77321 0.22202 0.39759 0.0
C56 C 0.78056 0.17068 0.45415 0.0
C57 C 0.74815 0.13387 0.49061 0.0
C58 C 0.57639 0.0838 0.83539 0.0
C59 C 0.55425 0.21073 0.62918 0.0
O60 O 0.46018 1.02854 0.71029 0.0
O61 O 0.44471 0.1071 0.62481 0.0
O62 O 0.50022 0.11016 0.41416 0.0
O63 O 0.54752 1.05729 0.45227 0.0
O64 O 0.52569 0.98879 0.64757 0.0
O65 O 0.58846 0.99073 0.55388 0.0
O66 O 0.64208 0.10127 0.42498 0.0
O67 O 0.66704 0.09789 0.61935 0.0
O68 O 0.6081 1.06011 0.78903 0.0
O69 O 0.56037 0.11293 0.75359 0.0
O70 O 0.58499 0.1852 0.575 0.0
O71 O 0.52343 0.18005 0.67681 0.0
H72 H 0.36583 0.99911 0.76667 0.0
H73 H 0.30847 0.94563 0.64441 0.0
H74 H 0.36283 0.99129 0.29019 0.0
H75 H 0.42042 1.04353 0.41138 0.0
H76 H 0.66953 0.21164 0.40195 0.0
H77 H 0.72687 0.27671 0.33795 0.0
H78 H 0.81142 0.15852 0.4675 0.0
H79 H 0.7545 0.09366 0.53116 0.0
Nd80 Nd 0.50694 0.58279 0.67747 0.0
Nd81 Nd 0.60044 0.59541 0.69831 0.0
C82 C 0.42756 0.58738 0.63663 0.0
C83 C 0.38894 0.57052 0.69729 0.0
C84 C 0.35227 0.57152 0.62763 0.0
C85 C 0.31501 0.5621 0.68748 0.0
C86 C 0.31389 0.55168 0.81802 0.0
C87 C 0.35059 0.54861 0.88685 0.0
C88 C 0.38793 0.5581 0.82688 0.0
C89 C 0.53793 0.57386 0.91706 0.0
C90 C 0.55634 0.71335 0.66714 0.0
C91 C 0.67839 0.59836 0.76189 0.0
C92 C 0.7223 0.59977 0.79597 0.0
C93 C 0.7367 0.61825 0.92102 0.0
C94 C 0.77837 0.62012 -0.04796 0.0
C95 C 0.80629 0.60396 0.85827 0.0
C96 C 0.79199 0.58598 0.73323 0.0
C97 C 0.7504 0.5838 0.70241 0.0
C98 C 0.56909 0.60151 0.45711 0.0
C99 C 0.55227 0.46338 0.6676 0.0
O100 O 0.44827 0.54587 0.58464 0.0
O101 O 0.45065 0.62851 0.69989 0.0
O102 O 0.50516 0.54486 0.87179 0.0
O103 O 0.55132 0.60978 0.84099 0.0
O104 O 0.52261 0.67958 0.64123 0.0
O105 O 0.5903 0.69188 0.70376 0.0
O106 O 0.65178 0.62167 0.83777 0.0
O107 O 0.66325 0.57276 0.65373 0.0
O108 O 0.60188 0.63144 0.50087 0.0
O109 O 0.55583 0.56698 0.53606 0.0
O110 O 0.58602 0.49584 0.70289 0.0
O111 O 0.51804 0.48676 0.64014 0.0
H112 H 0.35246 0.58124 0.52782 0.0
H113 H 0.28699 0.56449 0.63288 0.0
H114 H 0.35027 0.54049 -0.01244 0.0
H115 H 0.41595 0.55735 0.88238 0.0
H116 H 0.71576 0.63085 -0.00492 0.0
H117 H 0.78881 0.63359 0.04934 0.0
H118 H 0.81305 0.57297 0.65984 0.0
H119 H 0.74029 0.56971 0.6051 0.0
C120 C 0.2219 0.59024 0.01518 0.0
C121 C 0.19284 0.54512 -0.03218 0.0
C122 C 0.24749 0.49601 0.85641 0.0
C123 C 0.27398 0.54667 0.88256 0.0
N124 N 0.28586 0.64429 -0.0189 0.0
N125 N 0.17812 0.45385 0.84018 0.0
C126 C 0.26127 0.59416 -0.03807 0.0
C127 C 0.20574 0.49697 0.8896 0.0
N128 N 0.21191 0.62895 0.1128 0.0
N129 N 0.26244 0.44687 0.8004 0.0
H130 H 0.14757 0.45096 0.86377 0.0
H131 H 0.18494 0.42246 0.76866 0.0
H132 H 0.29281 0.44508 0.77461 0.0
H133 H 0.24593 0.40667 0.79069 0.0
H134 H 0.23299 0.65922 0.16019 0.0
H135 H 0.18359 0.62637 0.1559 0.0
H136 H 0.27615 0.68262 0.02514 0.0
H137 H 0.31503 0.64908 0.94441 0.0
C138 C 0.81742 0.25541 0.21993 0.0
C139 C 0.80815 0.25855 0.35233 0.0
C140 C 0.8725 0.31603 0.40462 0.0
C141 C 0.8812 0.3143 0.27187 0.0
N142 N 0.85809 0.29488 0.05155 0.0
N143 N 0.82174 0.30185 0.56706 0.0
C144 C 0.85239 0.28787 0.17892 0.0
C145 C 0.83413 0.29217 0.44359 0.0
N146 N 0.79389 0.21941 0.13411 0.0
N147 N 0.90153 0.33825 0.49361 0.0
H148 H 0.79375 0.28494 0.59831 0.0
H149 H 0.83736 0.33068 0.63527 0.0
H150 H 0.92992 0.35639 0.46881 0.0
H151 H 0.89874 0.33497 0.59192 0.0
H152 H 0.80186 0.21002 0.03921 0.0
H153 H 0.76771 0.19541 0.1598 0.0
H154 H 0.83615 0.28185 -0.01978 0.0
H155 H 0.88332 0.31857 0.0181 0.0
C156 C 0.53038 0.85846 0.54256 0.0
C157 C 0.55841 0.89818 0.61452 0.0
C158 C 0.58049 0.81805 0.73283 0.0
C159 C 0.55668 0.77713 0.64922 0.0
N160 N 0.5195 0.76043 0.44625 0.0
N161 N 0.61877 0.91112 0.75254 0.0
C162 C 0.53431 0.79778 0.54622 0.0
C163 C 0.58642 0.87653 0.70075 0.0
N164 N 0.50048 0.87814 0.46875 0.0
N165 N 0.59548 0.80257 0.84705 0.0
H166 H 0.62467 0.95411 0.73188 0.0
H167 H 0.64176 0.89514 0.8067 0.0
H168 H 0.58865 0.76196 0.8812 0.0
H169 H 0.61014 0.83257 0.91519 0.0
H170 H 0.47705 0.85063 0.42456 0.0
H171 H 0.49714 0.9221 0.46047 0.0
H172 H 0.50568 0.7742 0.36451 0.0
H173 H 0.52631 0.71719 0.43643 0.0
C174 C 0.87568 0.65418 0.916 0.0
C175 C 0.85032 0.60216 0.89182 0.0
C176 C 0.90996 0.54527 0.9017 0.0
C177 C 0.93509 0.59681 0.9383 0.0
N178 N 0.93923 0.6989 0.0093 0.0
N179 N 0.842 0.49794 0.89348 0.0
C180 C 0.91726 0.65102 -0.0467 0.0
C181 C 0.86708 0.54765 0.89468 0.0
N182 N 0.86038 0.70656 0.90038 0.0
N183 N 0.92682 0.49436 0.86644 0.0
H184 H 0.81033 0.49782 0.88941 0.0
H185 H 0.85248 0.45766 0.90982 0.0
H186 H 0.95798 0.49033 0.86338 0.0
H187 H 0.9099 0.45749 0.82617 0.0
H188 H 0.87851 0.7454 0.90305 0.0
H189 H 0.83008 0.71061 0.87406 0.0
H190 H 0.92651 0.73803 0.03392 0.0
H191 H 0.96902 0.69793 0.04386 0.0
C192 C 0.26061 0.96568 0.36643 0.0
C193 C 0.29598 0.93529 0.38433 0.0
C194 C 0.26355 0.84888 0.26209 0.0
C195 C 0.2291 0.88041 0.23828 0.0
N196 N 0.19629 0.97026 0.2517 0.0
N197 N 0.33363 0.85081 0.3397 0.0
C198 C 0.22803 0.93925 0.28616 0.0
C199 C 0.29818 0.87764 0.32924 0.0
N200 N 0.25796 1.01953 0.42802 0.0
N201 N 0.26257 0.79099 0.22347 0.0
H202 H 0.35894 0.86948 0.39305 0.0
H203 H 0.33905 0.8116 0.28975 0.0
H204 H 0.23825 0.769 0.17084 0.0
H205 H 0.28452 0.7637 0.24982 0.0
H206 H 0.23136 1.04122 0.43182 0.0
H207 H 0.28181 1.04142 0.48305 0.0
H208 H 0.19558 1.01491 0.27114 0.0
H209 H 0.17161 0.95203 0.1948 0.0
C210 C 0.53182 0.36437 0.55389 0.0
C211 C 0.55304 0.39847 0.65655 0.0
C212 C 0.58119 0.30989 0.72394 0.0
C213 C 0.55447 0.2753 0.63653 0.0
N214 N 0.49903 0.2705 0.48072 0.0
N215 N 0.58882 0.39876 0.86099 0.0
C216 C 0.52786 0.3028 0.55609 0.0
C217 C 0.57535 0.36994 0.74769 0.0
N218 N 0.51774 0.38997 0.44986 0.0
N219 N 0.61244 0.28609 0.78359 0.0
H220 H 0.58136 0.44075 0.88875 0.0
H221 H 0.60248 0.37823 0.93419 0.0
H222 H 0.61888 0.2429 0.76481 0.0
H223 H 0.63453 0.31099 0.84039 0.0
H224 H 0.50521 0.36625 0.36807 0.0
H225 H 0.52326 0.43408 0.43776 0.0
H226 H 0.4764 0.28905 0.4301 0.0
H227 H 0.49562 0.22532 0.47732 0.0
C228 C 1.02538 0.57828 0.54965 0.0
C229 C 0.05859 0.55792 0.61749 0.0
C230 C 0.10043 0.56361 0.42568 0.0
C231 C 0.0685 0.5892 0.36289 0.0
N232 N 1.00387 0.63212 0.37384 0.0
N233 N 0.12848 0.53247 0.62231 0.0
C234 C 1.03175 0.5993 0.42685 0.0
C235 C 0.09645 0.55145 0.55643 0.0
N236 N 0.98762 0.57752 0.60191 0.0
N237 N 0.13362 0.54781 0.35823 0.0
H238 H 0.1255 0.51501 0.71064 0.0
H239 H 0.15835 0.53554 0.59124 0.0
H240 H 0.13767 0.55569 0.26243 0.0
H241 H 0.1557 0.52277 0.39336 0.0
H242 H 0.96141 0.58519 0.55058 0.0
H243 H 0.98163 0.56447 0.69314 0.0
H244 H 0.97862 0.64632 0.42223 0.0
H245 H 1.00802 0.65059 0.28666 0.0
C246 C 0.54256 1.03192 0.15761 0.0
C247 C 0.54332 0.08529 0.23359 0.0
C248 C 0.56271 0.13836 0.04697 0.0
C249 C 0.56505 0.0846 -0.0272 0.0
N250 N 0.56099 0.97974 -0.03891 0.0
N251 N 0.55886 0.18889 0.25736 0.0
C252 C 0.55647 1.03129 0.02973 0.0
C253 C 0.55434 0.13844 0.17984 0.0
N254 N 0.52593 0.98225 0.20472 0.0
N255 N 0.56882 0.18963 -0.00878 0.0
H256 H 0.55248 0.19098 0.35453 0.0
H257 H 0.57185 0.22796 0.22854 0.0
H258 H 0.57998 0.19241 0.89963 0.0
H259 H 0.56123 0.22945 0.03371 0.0
H260 H 0.52028 0.943 0.14974 0.0
H261 H 0.5139 0.98139 0.29605 0.0
H262 H 0.5612 0.94008 0.00181 0.0
H263 H 0.56658 0.97696 0.8637 0.0
C264 C 0.52226 0.60454 0.26978 0.0
C265 C 0.56023 0.59081 0.3198 0.0
C266 C 0.58358 0.56377 0.10466 0.0
C267 C 0.5466 0.58152 0.05476 0.0
N268 N 0.4846 0.63025 0.08495 0.0
N269 N 0.62298 0.54403 0.29266 0.0
C270 C 0.51681 0.60473 0.13582 0.0
C271 C 0.59007 0.56709 0.23938 0.0
N272 N 0.49095 0.61541 0.34995 0.0
N273 N 0.61252 0.54464 0.02291 0.0
H274 H 0.62737 0.54252 0.39137 0.0
H275 H 0.64437 0.52178 0.2406 0.0
H276 H 0.60778 0.53942 0.92398 0.0
H277 H 0.64197 0.5369 0.05082 0.0
H278 H 0.46116 0.61891 0.31804 0.0
H279 H 0.49393 0.61583 0.44917 0.0
H280 H 0.46447 0.65361 0.14035 0.0
H281 H 0.48022 0.63351 -0.01324 0.0
loop_
_geom_bond_atom_site_label_1
_geom_bond_atom_site_label_2
_geom_bond_distance
_geom_bond_site_symmetry_2
_ccdc_geom_bond_type
Nd0 C2 2.836 . S
Nd0 O20 2.500 . S
Nd0 O21 2.492 . S
Nd0 O22 2.487 . S
Nd0 O23 2.682 . S
Nd0 O24 2.410 . S
Nd0 O29 2.414 1_554 S
Nd0 O31 2.424 1_455 S
Nd1 C11 2.836 1_455 S
Nd1 O23 2.414 . S
Nd1 O25 2.424 . S
Nd1 O26 2.500 1_455 S
Nd1 O27 2.492 1_454 S
Nd1 O28 2.487 1_554 S
Nd1 O29 2.682 1_554 S
Nd1 O30 2.410 1_455 S
C2 Nd0 2.836 . S
C2 C3 1.498 . S
C2 O20 1.258 . S
C2 O21 1.239 . S
C3 C2 1.498 . S
C3 C4 1.366 . S
C3 C8 1.407 . S
C4 C3 1.366 . S
C4 C5 1.392 . S
C4 H32 0.930 1_554 S
C5 C4 1.392 . S
C5 C6 1.398 . S
C5 H33 0.929 1_554 S
C6 C5 1.398 . S
C6 C7 1.352 . S
C7 C6 1.352 . S
C7 C8 1.384 . S
C7 H34 0.930 . S
C8 C3 1.407 . S
C8 C7 1.384 . S
C8 H35 0.929 . S
C9 O22 1.241 . S
C9 O23 1.273 . S
C10 O24 1.251 . S
C10 O25 1.268 . S
C11 Nd1 2.836 1_655 S
C11 C12 1.498 . S
C11 O26 1.258 . S
C11 O27 1.239 1_554 S
C12 C11 1.498 . S
C12 C13 1.366 . S
C12 C17 1.407 1_554 S
C13 C12 1.366 . S
C13 C14 1.392 . S
C13 H36 0.930 . S
C14 C13 1.392 . S
C14 C15 1.398 . S
C14 H37 0.929 . S
C15 C14 1.398 . S
C15 C16 1.352 1_554 S
C16 C15 1.352 1_556 S
C16 C17 1.384 . S
C16 H38 0.930 . S
C17 C12 1.407 1_556 S
C17 C16 1.384 . S
C17 H39 0.929 . S
C18 O28 1.241 . S
C18 O29 1.273 . S
C19 O30 1.251 . S
C19 O31 1.268 . S
O20 Nd0 2.500 . S
O20 C2 1.258 . S
O21 Nd0 2.492 . S
O21 C2 1.239 . S
O22 Nd0 2.487 . S
O22 C9 1.241 . S
O23 Nd0 2.682 . S
O23 Nd1 2.414 . S
O23 C9 1.273 . S
O24 Nd0 2.410 . S
O24 C10 1.251 . S
O25 Nd1 2.424 . S
O25 C10 1.268 . S
O26 Nd1 2.500 1_655 S
O26 C11 1.258 . S
O27 Nd1 2.492 1_656 S
O27 C11 1.239 1_556 S
O28 Nd1 2.487 1_556 S
O28 C18 1.241 . S
O29 Nd0 2.414 1_556 S
O29 Nd1 2.682 1_556 S
O29 C18 1.273 . S
O30 Nd1 2.410 1_655 S
O30 C19 1.251 . S
O31 Nd0 2.424 1_655 S
O31 C19 1.268 . S
H32 C4 0.930 1_556 S
H33 C5 0.929 1_556 S
H34 C7 0.930 . S
H35 C8 0.929 . S
H36 C13 0.930 . S
H37 C14 0.929 . S
H38 C16 0.930 . S
H39 C17 0.929 . S
Nd40 C42 2.836 1_545 S
Nd40 O60 2.500 1_545 S
Nd40 O61 2.492 1_545 S
Nd40 O62 2.487 1_545 S
Nd40 O63 2.682 . S
Nd40 O64 2.410 1_545 S
Nd40 O69 2.414 . S
Nd40 O71 2.424 . S
Nd41 C51 2.836 . S
Nd41 O63 2.414 . S
Nd41 O65 2.424 1_545 S
Nd41 O66 2.500 . S
Nd41 O67 2.492 . S
Nd41 O68 2.487 . S
Nd41 O69 2.682 . S
Nd41 O70 2.410 . S
C42 Nd40 2.836 1_565 S
C42 C43 1.498 . S
C42 O60 1.258 . S
C42 O61 1.239 . S
C43 C42 1.498 . S
C43 C44 1.366 . S
C43 C48 1.407 . S
C44 C43 1.366 . S
C44 C45 1.392 . S
C44 H72 0.930 . S
C45 C44 1.392 . S
C45 C46 1.398 . S
C45 H73 0.929 . S
C46 C45 1.398 . S
C46 C47 1.352 . S
C47 C46 1.352 . S
C47 C48 1.384 . S
C47 H74 0.930 . S
C48 C43 1.407 . S
C48 C47 1.384 . S
C48 H75 0.929 . S
C49 O62 1.241 1_545 S
C49 O63 1.273 . S
C50 O64 1.251 . S
C50 O65 1.268 . S
C51 Nd41 2.836 . S
C51 C52 1.498 . S
C51 O66 1.258 . S
C51 O67 1.239 . S
C52 C51 1.498 . S
C52 C53 1.366 . S
C52 C57 1.407 . S
C53 C52 1.366 . S
C53 C54 1.392 . S
C53 H76 0.930 . S
C54 C53 1.392 . S
C54 C55 1.398 . S
C54 H77 0.929 . S
C55 C54 1.398 . S
C55 C56 1.352 . S
C56 C55 1.352 . S
C56 C57 1.384 . S
C56 H78 0.930 . S
C57 C52 1.407 . S
C57 C56 1.384 . S
C57 H79 0.929 . S
C58 O68 1.241 . S
C58 O69 1.273 . S
C59 O70 1.251 . S
C59 O71 1.268 . S
O60 Nd40 2.500 1_565 S
O60 C42 1.258 . S
O61 Nd40 2.492 1_565 S
O61 C42 1.239 . S
O62 Nd40 2.487 1_565 S
O62 C49 1.241 1_565 S
O63 Nd40 2.682 . S
O63 Nd41 2.414 . S
O63 C49 1.273 . S
O64 Nd40 2.410 1_565 S
O64 C50 1.251 . S
O65 Nd41 2.424 1_565 S
O65 C50 1.268 . S
O66 Nd41 2.500 . S
O66 C51 1.258 . S
O67 Nd41 2.492 . S
O67 C51 1.239 . S
O68 Nd41 2.487 . S
O68 C58 1.241 . S
O69 Nd40 2.414 . S
O69 Nd41 2.682 . S
O69 C58 1.273 . S
O70 Nd41 2.410 . S
O70 C59 1.251 . S
O71 Nd40 2.424 . S
O71 C59 1.268 . S
H72 C44 0.930 . S
H73 C45 0.929 . S
H74 C47 0.930 . S
H75 C48 0.929 . S
H76 C53 0.930 . S
H77 C54 0.929 . S
H78 C56 0.930 . S
H79 C57 0.929 . S
Nd80 C82 2.836 . S
Nd80 O100 2.500 . S
Nd80 O101 2.492 . S
Nd80 O102 2.487 1_556 S
Nd80 O103 2.682 . S
Nd80 O104 2.410 . S
Nd80 O109 2.414 . S
Nd80 O111 2.424 . S
Nd81 C91 2.836 . S
Nd81 O103 2.414 . S
Nd81 O105 2.424 . S
Nd81 O106 2.500 . S
Nd81 O107 2.492 . S
Nd81 O108 2.487 . S
Nd81 O109 2.682 . S
Nd81 O110 2.410 . S
C82 Nd80 2.836 . S
C82 C83 1.498 . S
C82 O100 1.258 . S
C82 O101 1.239 . S
C83 C82 1.498 . S
C83 C84 1.366 . S
C83 C88 1.407 . S
C84 C83 1.366 . S
C84 C85 1.392 . S
C84 H112 0.930 . S
C85 C84 1.392 . S
C85 C86 1.398 . S
C85 H113 0.929 . S
C86 C85 1.398 . S
C86 C87 1.352 . S
C87 C86 1.352 . S
C87 C88 1.384 . S
C87 H114 0.930 . S
C88 C83 1.407 . S
C88 C87 1.384 . S
C88 H115 0.929 . S
C89 O102 1.241 . S
C89 O103 1.273 1_554 S
C90 O104 1.251 . S
C90 O105 1.268 . S
C91 Nd81 2.836 . S
C91 C92 1.498 . S
C91 O106 1.258 . S
C91 O107 1.239 . S
C92 C91 1.498 . S
C92 C93 1.366 . S
C92 C97 1.407 . S
C93 C92 1.366 . S
C93 C94 1.392 . S
C93 H116 0.930 1_556 S
C94 C93 1.392 . S
C94 C95 1.398 . S
C94 H117 0.929 1_556 S
C95 C94 1.398 . S
C95 C96 1.352 . S
C96 C95 1.352 . S
C96 C97 1.384 . S
C96 H118 0.930 . S
C97 C92 1.407 . S
C97 C96 1.384 . S
C97 H119 0.929 . S
C98 O108 1.241 . S
C98 O109 1.273 . S
C99 O110 1.251 . S
C99 O111 1.268 . S
O100 Nd80 2.500 . S
O100 C82 1.258 . S
O101 Nd80 2.492 . S
O101 C82 1.239 . S
O102 Nd80 2.487 1_554 S
O102 C89 1.241 . S
O103 Nd80 2.682 . S
O103 Nd81 2.414 . S
O103 C89 1.273 1_556 S
O104 Nd80 2.410 . S
O104 C90 1.251 . S
O105 Nd81 2.424 . S
O105 C90 1.268 . S
O106 Nd81 2.500 . S
O106 C91 1.258 . S
O107 Nd81 2.492 . S
O107 C91 1.239 . S
O108 Nd81 2.487 . S
O108 C98 1.241 . S
O109 Nd80 2.414 . S
O109 Nd81 2.682 . S
O109 C98 1.273 . S
O110 Nd81 2.410 . S
O110 C99 1.251 . S
O111 Nd80 2.424 . S
O111 C99 1.268 . S
H112 C84 0.930 . S
H113 C85 0.929 . S
H114 C87 0.930 . S
H115 C88 0.929 . S
H116 C93 0.930 1_554 S
H117 C94 0.929 1_554 S
H118 C96 0.930 . S
H119 C97 0.929 . S
C120 C121 1.363 . S
C120 C126 1.379 1_554 S
C120 N128 1.356 . S
C121 C120 1.363 . S
C121 C127 1.363 1_554 S
C122 C123 1.363 . S
C122 C127 1.379 . S
C122 N129 1.356 . S
C123 C122 1.363 . S
C123 C126 1.363 . S
N124 C126 1.356 . S
N124 H136 0.984 1_556 S
N124 H137 0.985 . S
N125 C127 1.356 . S
N125 H130 0.984 . S
N125 H131 0.985 . S
C126 C120 1.379 1_556 S
C126 C123 1.363 . S
C126 N124 1.356 . S
C127 C121 1.363 1_556 S
C127 C122 1.379 . S
C127 N125 1.356 . S
N128 C120 1.356 . S
N128 H134 0.984 . S
N128 H135 0.984 . S
N129 C122 1.356 . S
N129 H132 0.984 . S
N129 H133 0.985 . S
H130 N125 0.984 . S
H131 N125 0.985 . S
H132 N129 0.984 . S
H133 N129 0.985 . S
H134 N128 0.984 . S
H135 N128 0.984 . S
H136 N124 0.984 1_554 S
H137 N124 0.985 . S
C138 C139 1.363 . S
C138 C144 1.379 . S
C138 N146 1.356 . S
C139 C138 1.363 . S
C139 C145 1.363 . S
C140 C141 1.363 . S
C140 C145 1.379 . S
C140 N147 1.356 . S
C141 C140 1.363 . S
C141 C144 1.363 . S
N142 C144 1.356 . S
N142 H154 0.984 . S
N142 H155 0.985 1_554 S
N143 C145 1.356 . S
N143 H148 0.984 . S
N143 H149 0.985 . S
C144 C138 1.379 . S
C144 C141 1.363 . S
C144 N142 1.356 . S
C145 C139 1.363 . S
C145 C140 1.379 . S
C145 N143 1.356 . S
N146 C138 1.356 . S
N146 H152 0.984 . S
N146 H153 0.984 . S
N147 C140 1.356 . S
N147 H150 0.984 . S
N147 H151 0.985 . S
H148 N143 0.984 . S
H149 N143 0.985 . S
H150 N147 0.984 . S
H151 N147 0.985 . S
H152 N146 0.984 . S
H153 N146 0.984 . S
H154 N142 0.984 . S
H155 N142 0.985 1_556 S
C156 C157 1.363 . S
C156 C162 1.379 . S
C156 N164 1.356 . S
C157 C156 1.363 . S
C157 C163 1.363 . S
C158 C159 1.363 . S
C158 C163 1.379 . S
C158 N165 1.356 . S
C159 C158 1.363 . S
C159 C162 1.363 . S
N160 C162 1.356 . S
N160 H172 0.984 . S
N160 H173 0.985 . S
N161 C163 1.356 . S
N161 H166 0.984 . S
N161 H167 0.985 . S
C162 C156 1.379 . S
C162 C159 1.363 . S
C162 N160 1.356 . S
C163 C157 1.363 . S
C163 C158 1.379 . S
C163 N161 1.356 . S
N164 C156 1.356 . S
N164 H170 0.984 . S
N164 H171 0.984 . S
N165 C158 1.356 . S
N165 H168 0.984 . S
N165 H169 0.985 1_556 S
H166 N161 0.984 . S
H167 N161 0.985 . S
H168 N165 0.984 . S
H169 N165 0.985 1_554 S
H170 N164 0.984 . S
H171 N164 0.984 . S
H172 N160 0.984 . S
H173 N160 0.985 . S
C174 C175 1.363 1_554 S
C174 C180 1.379 . S
C174 N182 1.356 . S
C175 C174 1.363 1_556 S
C175 C181 1.363 . S
C176 C177 1.363 1_556 S
C176 C181 1.379 . S
C176 N183 1.356 . S
C177 C176 1.363 1_554 S
C177 C180 1.363 . S
N178 C180 1.356 . S
N178 H190 0.984 . S
N178 H191 0.985 . S
N179 C181 1.356 . S
N179 H184 0.984 . S
N179 H185 0.985 . S
C180 C174 1.379 . S
C180 C177 1.363 . S
C180 N178 1.356 . S
C181 C175 1.363 . S
C181 C176 1.379 . S
C181 N179 1.356 . S
N182 C174 1.356 . S
N182 H188 0.984 . S
N182 H189 0.984 . S
N183 C176 1.356 . S
N183 H186 0.984 1_556 S
N183 H187 0.985 . S
H184 N179 0.984 . S
H185 N179 0.985 . S
H186 N183 0.984 1_554 S
H187 N183 0.985 . S
H188 N182 0.984 . S
H189 N182 0.984 . S
H190 N178 0.984 . S
H191 N178 0.985 . S
C192 C193 1.363 . S
C192 C198 1.379 . S
C192 N200 1.356 . S
C193 C192 1.363 . S
C193 C199 1.363 . S
C194 C195 1.363 . S
C194 C199 1.379 . S
C194 N201 1.356 . S
C195 C194 1.363 . S
C195 C198 1.363 . S
N196 C198 1.356 . S
N196 H208 0.984 . S
N196 H209 0.985 . S
N197 C199 1.356 . S
N197 H202 0.984 . S
N197 H203 0.985 . S
C198 C192 1.379 . S
C198 C195 1.363 . S
C198 N196 1.356 . S
C199 C193 1.363 . S
C199 C194 1.379 . S
C199 N197 1.356 . S
N200 C192 1.356 . S
N200 H206 0.984 . S
N200 H207 0.984 . S
N201 C194 1.356 . S
N201 H204 0.984 . S
N201 H205 0.985 . S
H202 N197 0.984 . S
H203 N197 0.985 . S
H204 N201 0.984 . S
H205 N201 0.985 . S
H206 N200 0.984 . S
H207 N200 0.984 . S
H208 N196 0.984 . S
H209 N196 0.985 . S
C210 C211 1.363 . S
C210 C216 1.379 . S
C210 N218 1.356 . S
C211 C210 1.363 . S
C211 C217 1.363 . S
C212 C213 1.363 . S
C212 C217 1.379 . S
C212 N219 1.356 . S
C213 C212 1.363 . S
C213 C216 1.363 . S
N214 C216 1.356 . S
N214 H226 0.984 . S
N214 H227 0.985 . S
N215 C217 1.356 . S
N215 H220 0.984 . S
N215 H221 0.985 . S
C216 C210 1.379 . S
C216 C213 1.363 . S
C216 N214 1.356 . S
C217 C211 1.363 . S
C217 C212 1.379 . S
C217 N215 1.356 . S
N218 C210 1.356 . S
N218 H224 0.984 . S
N218 H225 0.984 . S
N219 C212 1.356 . S
N219 H222 0.984 . S
N219 H223 0.985 . S
H220 N215 0.984 . S
H221 N215 0.985 . S
H222 N219 0.984 . S
H223 N219 0.985 . S
H224 N218 0.984 . S
H225 N218 0.984 . S
H226 N214 0.984 . S
H227 N214 0.985 . S
C228 C229 1.363 . S
C228 C234 1.379 . S
C228 N236 1.356 . S
C229 C228 1.363 . S
C229 C235 1.363 . S
C230 C231 1.363 . S
C230 C235 1.379 . S
C230 N237 1.356 . S
C231 C230 1.363 . S
C231 C234 1.363 . S
N232 C234 1.356 1_655 S
N232 H244 0.984 . S
N232 H245 0.985 . S
N233 C235 1.356 . S
N233 H238 0.984 . S
N233 H239 0.985 . S
C234 C228 1.379 . S
C234 C231 1.363 . S
C234 N232 1.356 1_455 S
C235 C229 1.363 . S
C235 C230 1.379 . S
C235 N233 1.356 . S
N236 C228 1.356 . S
N236 H242 0.984 . S
N236 H243 0.984 . S
N237 C230 1.356 . S
N237 H240 0.984 . S
N237 H241 0.985 . S
H238 N233 0.984 . S
H239 N233 0.985 . S
H240 N237 0.984 . S
H241 N237 0.985 . S
H242 N236 0.984 . S
H243 N236 0.984 . S
H244 N232 0.984 . S
H245 N232 0.985 . S
C246 C247 1.363 1_565 S
C246 C252 1.379 1_554 S
C246 N254 1.356 . S
C247 C246 1.363 1_545 S
C247 C253 1.363 . S
C248 C249 1.363 . S
C248 C253 1.379 1_556 S
C248 N255 1.356 . S
C249 C248 1.363 . S
C249 C252 1.363 1_545 S
N250 C252 1.356 . S
N250 H262 0.984 . S
N250 H263 0.985 . S
N251 C253 1.356 . S
N251 H256 0.984 . S
N251 H257 0.985 . S
C252 C246 1.379 1_556 S
C252 C249 1.363 1_565 S
C252 N250 1.356 . S
C253 C247 1.363 . S
C253 C248 1.379 1_554 S
C253 N251 1.356 . S
N254 C246 1.356 . S
N254 H260 0.984 . S
N254 H261 0.984 . S
N255 C248 1.356 . S
N255 H258 0.984 . S
N255 H259 0.985 . S
H256 N251 0.984 . S
H257 N251 0.985 . S
H258 N255 0.984 . S
H259 N255 0.985 . S
H260 N254 0.984 . S
H261 N254 0.984 . S
H262 N250 0.984 . S
H263 N250 0.985 . S
C264 C265 1.363 . S
C264 C270 1.379 . S
C264 N272 1.356 . S
C265 C264 1.363 . S
C265 C271 1.363 . S
C266 C267 1.363 . S
C266 C271 1.379 . S
C266 N273 1.356 . S
C267 C266 1.363 . S
C267 C270 1.363 . S
N268 C270 1.356 . S
N268 H280 0.984 . S
N268 H281 0.985 . S
N269 C271 1.356 . S
N269 H274 0.984 . S
N269 H275 0.985 . S
C270 C264 1.379 . S
C270 C267 1.363 . S
C270 N268 1.356 . S
C271 C265 1.363 . S
C271 C266 1.379 . S
C271 N269 1.356 . S
N272 C264 1.356 . S
N272 H278 0.984 . S
N272 H279 0.984 . S
N273 C266 1.356 . S
N273 H276 0.984 . S
N273 H277 0.985 . S
H274 N269 0.984 . S
H275 N269 0.985 . S
H276 N273 0.984 . S
H277 N273 0.985 . S
H278 N272 0.984 . S
H279 N272 0.984 . S
H280 N268 0.984 . S
H281 N268 0.985 . S
C121 C10 2.807 . S
C123 C86 2.586 . S
C139 C55 1.779 . S
C141 C15 1.780 . S
C157 C50 2.961 . S
C159 C90 2.878 . S
C175 C95 2.325 . S
C177 C19 2.367 . S
C193 C46 1.595 . S
C195 C6 1.613 . S
C211 C99 2.614 . S
C213 C59 2.683 . S
C229 C18 0.774 . S
C231 C9 0.774 . S
C247 C49 0.762 . S
C249 C58 0.762 . S
C265 C98 0.770 . S
C267 C89 0.770 . S
