# Generated by pormake.
# Topology smm, (6)-cn, num edge types: 1
# Building blocks:
#     Node 0, Type 0, BuildingBlock: MIDCAF_clean_sbu_0, # of connection points: 6
#     Node 1, Type 0, BuildingBlock: MIDCAF_clean_sbu_0, # of connection points: 6
#     Node 2, Type 0, BuildingBlock: MIDCAF_clean_sbu_0, # of connection points: 6
#     Node 3, Type 0, BuildingBlock: MIDCAF_clean_sbu_0, # of connection points: 6
#     Node 4, Type 0, BuildingBlock: MIDCAF_clean_sbu_0, # of connection points: 6
#     Node 5, Type 0, BuildingBlock: MIDCAF_clean_sbu_0, # of connection points: 6
#     Node 6, Type 0, BuildingBlock: MIDCAF_clean_sbu_0, # of connection points: 6
#     Node 7, Type 0, BuildingBlock: MIDCAF_clean_sbu_0, # of connection points: 6
#     Node 8, Type 0, BuildingBlock: MIDCAF_clean_sbu_0, # of connection points: 6
#     Edge 9, Type (0, 0), BuildingBlock: AJUNOK_clean_linker_0, # of connection points: 2
#     Edge 10, Type (0, 0), BuildingBlock: AJUNOK_clean_linker_0, # of connection points: 2
#     Edge 11, Type (0, 0), BuildingBlock: AJUNOK_clean_linker_0, # of connection points: 2
#     Edge 12, Type (0, 0), BuildingBlock: AJUNOK_clean_linker_0, # of connection points: 2
#     Edge 13, Type (0, 0), BuildingBlock: AJUNOK_clean_linker_0, # of connection points: 2
#     Edge 14, Type (0, 0), BuildingBlock: AJUNOK_clean_linker_0, # of connection points: 2
#     Edge 15, Type (0, 0), BuildingBlock: AJUNOK_clean_linker_0, # of connection points: 2
#     Edge 16, Type (0, 0), BuildingBlock: AJUNOK_clean_linker_0, # of connection points: 2
#     Edge 17, Type (0, 0), BuildingBlock: AJUNOK_clean_linker_0, # of connection points: 2
#     Edge 18, Type (0, 0), BuildingBlock: AJUNOK_clean_linker_0, # of connection points: 2
#     Edge 19, Type (0, 0), BuildingBlock: AJUNOK_clean_linker_0, # of connection points: 2
#     Edge 20, Type (0, 0), BuildingBlock: AJUNOK_clean_linker_0, # of connection points: 2
#     Edge 21, Type (0, 0), BuildingBlock: AJUNOK_clean_linker_0, # of connection points: 2
#     Edge 22, Type (0, 0), BuildingBlock: AJUNOK_clean_linker_0, # of connection points: 2
#     Edge 23, Type (0, 0), BuildingBlock: AJUNOK_clean_linker_0, # of connection points: 2
#     Edge 24, Type (0, 0), BuildingBlock: AJUNOK_clean_linker_0, # of connection points: 2
#     Edge 25, Type (0, 0), BuildingBlock: AJUNOK_clean_linker_0, # of connection points: 2
#     Edge 26, Type (0, 0), BuildingBlock: AJUNOK_clean_linker_0, # of connection points: 2
#     Edge 27, Type (0, 0), BuildingBlock: AJUNOK_clean_linker_0, # of connection points: 2
#     Edge 28, Type (0, 0), BuildingBlock: AJUNOK_clean_linker_0, # of connection points: 2
#     Edge 29, Type (0, 0), BuildingBlock: AJUNOK_clean_linker_0, # of connection points: 2
#     Edge 30, Type (0, 0), BuildingBlock: AJUNOK_clean_linker_0, # of connection points: 2
#     Edge 31, Type (0, 0), BuildingBlock: AJUNOK_clean_linker_0, # of connection points: 2
#     Edge 32, Type (0, 0), BuildingBlock: AJUNOK_clean_linker_0, # of connection points: 2
#     Edge 33, Type (0, 0), BuildingBlock: AJUNOK_clean_linker_0, # of connection points: 2
#     Edge 34, Type (0, 0), BuildingBlock: AJUNOK_clean_linker_0, # of connection points: 2
#     Edge 35, Type (0, 0), BuildingBlock: AJUNOK_clean_linker_0, # of connection points: 2
# Relax obj value: 0.296
# Max RMSD: 0.257
# Mean RMSD: 0.256
data_MOF--net-smm--node1-MIDCAF_clean_sbu_0--edge1-AJUNOK_clean_linker_0
_symmetry_space_group_name_H-M    P1
_symmetry_Int_Tables_number       1
_symmetry_cell_setting            triclinic
loop_
_symmetry_equiv_pos_as_xyz
'x, y, z'
_cell_length_a     37.620176
_cell_length_b     37.390655
_cell_length_c     11.533917
_cell_angle_alpha  90.006165
_cell_angle_beta   89.894101
_cell_angle_gamma 119.5951
loop_
_atom_site_label
_atom_site_type_symbol
_atom_site_fract_x
_atom_site_fract_y
_atom_site_fract_z
_atom_type_partial_charge
Zn0 Zn 0.0649 0.21204 0.10925 0.0
Zn1 Zn 0.88304 0.105 0.83544 0.0
Zn2 Zn -0.01291 0.1796 0.01563 0.0
C3 C 0.93811 0.08987 -0.01013 0.0
C4 C 0.89601 0.15588 0.00824 0.0
O5 O 0.02537 0.24401 0.00402 0.0
O6 O 0.08398 0.24739 0.96772 0.0
C7 C 0.04634 0.13732 0.0383 0.0
O8 O 0.96804 0.11506 0.05383 0.0
O9 O 0.93402 0.10243 0.89176 0.0
O10 O 0.86291 0.12775 0.9655 0.0
O11 O 0.9291 0.16331 0.95785 0.0
O12 O 0.0696 0.16251 0.11313 0.0
O13 O 0.01716 0.14128 -0.00629 0.0
O14 O -0.01613 0.19702 0.19494 0.0
O15 O 0.0482 0.22861 0.25474 0.0
C16 C 0.01073 0.21577 0.27429 0.0
O17 O 0.96073 0.17913 0.8374 0.0
O18 O 0.90944 0.15081 0.7129 0.0
C19 C 0.06062 0.2624 0.95869 0.0
C20 C 0.94579 0.17891 0.73587 0.0
Zn21 Zn 0.76714 0.85482 0.10294 0.0
Zn22 Zn 0.83839 0.79271 0.90085 0.0
Zn23 Zn 0.8109 0.82758 -0.00766 0.0
C24 C 0.79562 0.79275 0.73564 0.0
C25 C 0.90145 0.86 0.96417 0.0
O26 O 0.79341 0.80846 0.17312 0.0
O27 O 0.74412 0.81927 0.23502 0.0
C28 C 0.72313 0.79597 0.93864 0.0
O29 O 0.79736 0.81971 0.80733 0.0
O30 O 0.80553 0.76661 0.76653 0.0
O31 O 0.89177 0.84346 0.86605 0.0
O32 O 0.87368 0.84948 0.04094 0.0
O33 O 0.73558 0.83383 0.95605 0.0
O34 O 0.74692 0.78134 0.96226 0.0
O35 O 0.82569 0.88905 0.94929 0.0
O36 O 0.82267 0.90376 0.12991 0.0
C37 C 0.83841 0.91498 0.03141 0.0
O38 O 0.77294 0.76462 0.05746 0.0
O39 O 0.82651 0.75612 0.03656 0.0
C40 C 0.76868 0.80615 0.25325 0.0
C41 C 0.78999 0.74222 0.07025 0.0
Zn42 Zn 0.20576 0.07735 0.84186 0.0
Zn43 Zn 0.12671 0.90582 0.17235 0.0
Zn44 Zn 0.16419 -0.00475 0.03094 0.0
C45 C 0.16845 0.97485 0.28861 0.0
C46 C 0.07503 0.93772 0.03776 0.0
O47 O 0.14024 0.98061 0.85585 0.0
O48 O 0.20453 0.0233 0.8159 0.0
C49 C 0.24747 0.08834 0.03224 0.0
O50 O 0.15624 -0.00889 0.21298 0.0
O51 O 0.17563 0.94644 0.26083 0.0
O52 O 0.08619 0.91781 0.10191 0.0
O53 O 0.10153 0.97115 0.988 0.0
O54 O 0.24903 0.11235 0.9529 0.0
O55 O 0.2175 0.05199 0.03963 0.0
O56 O 0.12113 0.01456 0.96949 0.0
O57 O 0.15117 0.07308 0.86704 0.0
C58 C 0.1202 0.0447 0.91818 0.0
O59 O 0.17957 0.95289 0.96419 0.0
O60 O 0.13276 0.88976 0.01787 0.0
C61 C 0.16916 -0.0021 0.78092 0.0
C62 C 0.16121 0.91396 0.95172 0.0
Zn63 Zn 0.59136 0.47559 0.21905 0.0
Zn64 Zn 0.7328 0.54165 0.45976 0.0
Zn65 Zn 0.65478 0.50386 0.32001 0.0
C66 C 0.68149 0.5559 0.58298 0.0
C67 C 0.7053 0.46213 0.40758 0.0
O68 O 0.65908 0.51954 0.13518 0.0
O69 O 0.59897 0.5121 0.08905 0.0
C70 C 0.58262 0.51052 0.41668 0.0
O71 O 0.65842 0.53467 0.49681 0.0
O72 O 0.7196 0.56975 0.57909 0.0
O73 O 0.7149 0.48291 0.49915 0.0
O74 O 0.68873 0.47109 0.3248 0.0
O75 O 0.56137 0.48014 0.35191 0.0
O76 O 0.62174 0.52658 0.42005 0.0
O77 O 0.61881 0.44047 0.36466 0.0
O78 O 0.59524 0.42542 0.18757 0.0
C79 C 0.6008 0.41403 0.28516 0.0
O80 O 0.6818 0.56723 0.34973 0.0
O81 O 0.73684 0.56496 0.30022 0.0
C82 C 0.63553 0.52359 0.06266 0.0
C83 C 0.71583 0.58299 0.29568 0.0
Zn84 Zn 0.44264 0.179 0.43328 0.0
Zn85 Zn 0.49872 0.11086 0.25105 0.0
Zn86 Zn 0.47388 0.15042 0.32284 0.0
C87 C 0.55981 0.17941 0.34256 0.0
C88 C 0.44073 0.06229 0.3895 0.0
O89 O 0.40952 0.10914 0.31176 0.0
O90 O 0.40616 0.16622 0.30253 0.0
C91 C 0.50321 0.2402 0.3283 0.0
O92 O 0.53043 0.16977 0.41525 0.0
O93 O 0.55241 0.16027 0.24794 0.0
O94 O 0.47889 0.07684 0.39148 0.0
O95 O 0.42631 0.08405 0.34406 0.0
O96 O 0.49253 0.23177 0.43288 0.0
O97 O 0.49067 0.21114 0.25249 0.0
O98 O 0.49773 0.16016 0.49829 0.0
O99 O 0.43396 0.13851 0.55277 0.0
C100 C 0.46986 0.14676 0.5775 0.0
O101 O 0.48982 0.16598 0.14171 0.0
O102 O 0.46527 0.09982 0.11029 0.0
C103 C 0.39099 0.12856 0.28041 0.0
C104 C 0.47718 0.13551 0.07093 0.0
Zn105 Zn 0.78665 0.23844 0.44262 0.0
Zn106 Zn 0.86139 0.40723 0.22673 0.0
Zn107 Zn 0.82459 0.31666 0.30642 0.0
C108 C 0.78687 0.36857 0.33029 0.0
C109 C 0.90589 0.3905 0.40005 0.0
O110 O 0.85125 0.27836 0.29674 0.0
O111 O 0.80142 0.21419 0.31271 0.0
C112 C 0.72907 0.26014 0.4011 0.0
O113 O 0.79067 0.34259 0.39465 0.0
O114 O 0.80075 0.37433 0.22884 0.0
O115 O 0.89624 0.41654 0.36399 0.0
O116 O 0.88317 0.35194 0.38336 0.0
O117 O 0.73261 0.23239 0.45278 0.0
O118 O 0.75936 0.28929 0.34749 0.0
O119 O 0.82627 0.3352 0.48492 0.0
O120 O 0.82789 0.27994 0.54978 0.0
C121 C 0.83032 0.31455 0.56829 0.0
O122 O 0.83584 0.33325 0.12564 0.0
O123 O 0.88251 0.39731 0.08277 0.0
C124 C 0.83706 0.24008 0.28081 0.0
C125 C 0.85831 0.36081 0.05151 0.0
Zn126 Zn 0.25022 0.80048 0.54077 0.0
Zn127 Zn 0.4313 0.88977 0.79905 0.0
Zn128 Zn 0.3191 0.84083 0.62877 0.0
C129 C 0.34109 0.87549 0.89109 0.0
C130 C 0.37014 0.80509 0.72902 0.0
O131 O 0.31951 0.86171 0.44822 0.0
O132 O 0.25465 0.83024 0.3996 0.0
C133 C 0.23851 0.83479 0.73053 0.0
O134 O 0.31718 0.86498 0.80145 0.0
O135 O 0.37787 0.88188 0.886 0.0
O136 O 0.37963 0.83263 0.80555 0.0
O137 O 0.34141 0.79859 0.65762 0.0
O138 O 0.21795 0.80686 0.65879 0.0
O139 O 0.2777 0.85158 0.73315 0.0
O140 O 0.29863 0.77488 0.63142 0.0
O141 O 0.24266 0.74535 0.52477 0.0
C142 C 0.26896 0.74265 0.58577 0.0
O143 O 0.37986 0.88398 0.64581 0.0
O144 O 0.4434 0.93069 0.66483 0.0
C145 C 0.29142 0.85392 0.37298 0.0
C146 C 0.40908 0.91885 0.61701 0.0
Zn147 Zn 0.09079 0.54157 0.78705 0.0
Zn148 Zn 0.19679 0.44344 0.52355 0.0
Zn149 Zn 0.13192 0.48109 0.67868 0.0
C150 C 0.1285 0.44282 0.40264 0.0
C151 C 0.22498 0.51952 0.64503 0.0
O152 O 0.10593 0.46111 0.85191 0.0
O153 O 0.08726 0.50526 0.92166 0.0
C154 C 0.05663 0.4833 0.6286 0.0
O155 O 0.12365 0.45922 0.49571 0.0
O156 O 0.15357 0.42921 0.39918 0.0
O157 O 0.21426 0.50316 0.54635 0.0
O158 O 0.19834 0.52246 0.70906 0.0
O159 O 0.05797 0.51738 0.643 0.0
O160 O 0.07304 0.47181 0.70539 0.0
O161 O 0.17477 0.54629 0.68303 0.0
O162 O 0.14802 0.58349 0.75689 0.0
C163 C 0.17758 0.58056 0.71471 0.0
O164 O 0.13208 0.42722 0.63265 0.0
O165 O 0.17784 0.40969 0.67088 0.0
C166 C 0.09464 0.47585 0.93625 0.0
C167 C 0.14553 0.4098 0.70065 0.0
Zn168 Zn 0.44077 0.57595 0.77857 0.0
Zn169 Zn 0.52544 0.75134 0.53571 0.0
Zn170 Zn 0.49479 0.65952 0.6647 0.0
C171 C 0.45216 0.7108 0.65795 0.0
C172 C 0.57264 0.73616 0.68397 0.0
O173 O 0.51069 0.61331 0.69159 0.0
O174 O 0.45515 0.56202 0.62074 0.0
C175 C 0.3999 0.61147 0.69337 0.0
O176 O 0.46346 0.6915 0.72711 0.0
O177 O 0.46421 0.71696 0.554 0.0
O178 O 0.56095 0.7626 0.6788 0.0
O179 O 0.55534 0.70475 0.61784 0.0
O180 O 0.4075 0.60343 0.79292 0.0
O181 O 0.42892 0.62872 0.61871 0.0
O182 O 0.51167 0.65637 0.84467 0.0
O183 O 0.48008 0.59216 0.91021 0.0
C184 C 0.50426 0.6302 0.92632 0.0
O185 O 0.51761 0.67388 0.48426 0.0
O186 O 0.54351 0.73377 0.39307 0.0
C187 C 0.49367 0.58269 0.62337 0.0
C188 C 0.53304 0.69593 0.39256 0.0
C189 C 0.05985 0.30853 0.80531 0.0
C190 C 0.07651 0.30322 0.90831 0.0
C191 C 0.08052 0.34548 0.74284 0.0
C192 C 0.11826 0.37769 0.78222 0.0
H193 H 0.03243 0.28315 0.76892 0.0
H194 H 0.06865 0.34754 0.65906 0.0
S195 S 0.16997 0.38033 0.05796 0.0
N196 N 0.12907 0.33414 0.05521 0.0
N197 N 0.16841 0.40344 0.93743 0.0
C198 C 0.13316 0.37355 0.88993 0.0
C199 C 0.11208 0.33621 0.95329 0.0
C200 C 0.65213 0.78327 0.92102 0.0
C201 C 0.68111 0.7712 0.89185 0.0
C202 C 0.61625 0.76997 0.8568 0.0
C203 C 0.6076 0.74387 0.76054 0.0
H204 H 0.65835 0.80519 -0.00974 0.0
H205 H 0.59596 0.78167 0.88002 0.0
S206 S 0.67172 0.70057 0.65477 0.0
N207 N 0.69667 0.7282 0.76898 0.0
N208 N 0.62977 0.70413 0.6445 0.0
C209 C 0.63463 0.72885 0.73629 0.0
C210 C 0.67116 0.74212 0.80335 0.0
C211 C 0.22208 0.91419 0.8788 0.0
C212 C 0.17944 0.89546 0.88178 0.0
C213 C 0.24091 0.89305 0.83614 0.0
C214 C 0.2176 0.85282 0.79375 0.0
H215 H 0.24109 0.94475 0.91396 0.0
H216 H 0.27401 0.90883 0.83418 0.0
S217 S 0.10392 0.79129 0.7787 0.0
N218 N 0.11379 0.83567 0.83617 0.0
N219 N 0.14902 0.79507 0.75586 0.0
C220 C 0.17449 0.83384 0.79516 0.0
C221 C 0.15542 0.85556 0.83841 0.0
C222 C 0.32182 0.11707 0.27367 0.0
C223 C 0.35157 0.10914 0.22524 0.0
C224 C 0.28842 0.11157 0.20888 0.0
C225 C 0.28405 0.0978 0.09488 0.0
H226 H 0.32562 0.12967 0.36036 0.0
H227 H 0.26629 0.11862 0.24713 0.0
S228 S 0.35387 0.07401 0.92686 0.0
N229 N 0.37523 0.08795 0.05622 0.0
N230 N 0.31129 0.0766 0.93378 0.0
C231 C 0.31317 0.08933 0.04518 0.0
C232 C 0.34727 0.09498 0.11117 0.0
C233 C 0.8698 0.23479 0.10199 0.0
C234 C 0.86147 0.22576 0.21998 0.0
C235 C 0.88588 0.21479 0.03615 0.0
C236 C 0.89397 0.18538 0.08676 0.0
H237 H 0.86129 0.25521 0.05898 0.0
H238 H 0.88893 0.21992 0.94324 0.0
S239 S 0.88234 0.15579 0.39683 0.0
N240 N 0.86619 0.18955 0.38839 0.0
N241 N 0.89625 0.15127 0.2639 0.0
C242 C 0.88848 0.17839 0.20658 0.0
C243 C 0.87213 0.19883 0.27359 0.0
C244 C 0.73392 0.68717 0.19144 0.0
C245 C 0.76845 0.70025 0.11988 0.0
C246 C 0.7158 0.64839 0.24548 0.0
C247 C 0.73165 0.6216 0.22907 0.0
H248 H 0.72168 0.70747 0.20882 0.0
H249 H 0.69014 0.63996 0.30335 0.0
S250 S 0.81715 0.63833 0.03311 0.0
N251 N 0.81442 0.68091 0.02359 0.0
N252 N 0.78066 0.60881 0.1246 0.0
C253 C 0.76449 0.63332 0.15156 0.0
C254 C 0.78283 0.67246 0.09705 0.0
C255 C -0.00987 0.41914 0.61546 0.0
C256 C 0.02266 0.45292 0.55964 0.0
C257 C 0.95242 0.39624 0.55999 0.0
C258 C 0.94673 0.40684 0.44796 0.0
H259 H -0.00721 0.41246 0.7054 0.0
H260 H 0.92701 0.37224 0.60763 0.0
S261 S 0.02442 0.48775 0.25794 0.0
N262 N 0.04826 0.49266 0.38214 0.0
N263 N -0.02231 0.44881 0.27633 0.0
C264 C -0.01989 0.43801 0.38751 0.0
C265 C 0.01816 0.46142 0.44403 0.0
C266 C 0.54464 0.55912 0.63476 0.0
C267 C 0.51759 0.56627 0.56796 0.0
C268 C 0.56608 0.54114 0.58543 0.0
C269 C 0.56216 0.53135 0.46762 0.0
H270 H 0.54776 0.56575 0.72675 0.0
H271 H 0.58417 0.53301 0.64026 0.0
S272 S 0.49569 0.54461 0.25467 0.0
N273 N 0.48719 0.56134 0.37861 0.0
N274 N 0.53003 0.53062 0.28372 0.0
C275 C 0.5358 0.53914 0.39911 0.0
C276 C 0.51289 0.55598 0.44997 0.0
C277 C 0.39351 0.00623 0.52216 0.0
C278 C 0.4164 0.01837 0.41903 0.0
C279 C 0.38692 0.97043 0.58093 0.0
C280 C 0.40369 0.94658 0.53865 0.0
H281 H 0.38457 0.02658 0.56376 0.0
H282 H 0.3722 0.96368 0.66519 0.0
S283 S 0.4615 0.96268 0.26628 0.0
N284 N 0.45106 0.0007 0.27018 0.0
N285 N 0.44063 0.93522 0.38437 0.0
C286 C 0.42356 0.95654 0.43163 0.0
C287 C 0.42911 -0.00811 0.37027 0.0
C288 C 0.08154 0.05966 0.06201 0.0
C289 C 0.08702 0.05301 0.94516 0.0
C290 C 0.06562 0.08516 0.09179 0.0
C291 C 0.05319 0.10329 0.00574 0.0
H292 H 0.0939 0.0491 0.13031 0.0
H293 H 0.06506 0.09253 0.18245 0.0
S294 S 0.05469 0.08887 0.68856 0.0
N295 N 0.0745 0.06188 0.74415 0.0
N296 N 0.04249 0.10848 0.80006 0.0
C297 C 0.05397 0.09277 0.88938 0.0
C298 C 0.07128 0.06769 0.85908 0.0
C299 C 0.84756 0.98314 0.98396 0.0
C300 C 0.86506 0.95881 0.01214 0.0
C301 C 0.87118 0.02603 0.98459 0.0
C302 C 0.91282 0.04581 0.0151 0.0
H303 H 0.81533 0.96893 0.96298 0.0
H304 H 0.85684 0.04386 0.95974 0.0
S305 S 0.97192 -0.00502 0.10114 0.0
N306 N 0.92554 0.95665 0.07411 0.0
N307 N 0.96983 0.03754 0.07861 0.0
C308 C 0.93015 0.02161 0.04727 0.0
C309 C 0.90627 0.97792 0.04447 0.0
C310 C 0.97211 0.91539 0.91931 0.0
C311 C 0.94485 0.88351 -0.00711 0.0
C312 C 0.01452 0.93404 0.93538 0.0
C313 C 0.03063 0.92042 0.02371 0.0
H314 H 0.96052 0.92551 0.84802 0.0
H315 H 0.03463 0.95823 0.8765 0.0
S316 S 0.97112 0.83506 0.23255 0.0
N317 N 0.93629 0.83819 0.15347 0.0
N318 N 0.01538 0.87143 0.18266 0.0
C319 C 0.00321 0.88804 0.09696 0.0
C320 C 0.9604 0.87007 0.08203 0.0
C321 C 0.7598 0.45262 0.32013 0.0
C322 C 0.72429 0.43679 0.38774 0.0
C323 C 0.78122 0.43118 0.30969 0.0
C324 C 0.76766 0.39294 0.36554 0.0
H325 H 0.77127 0.4819 0.27607 0.0
H326 H 0.8082 0.44428 0.25488 0.0
S327 S 0.67801 0.34091 0.55975 0.0
N328 N 0.67781 0.38299 0.51733 0.0
N329 N 0.71818 0.34212 0.49729 0.0
C330 C 0.73334 0.37796 0.43781 0.0
C331 C 0.7115 0.40001 0.44854 0.0
C332 C 0.53707 0.35239 0.33924 0.0
C333 C 0.57848 0.37037 0.30913 0.0
C334 C 0.51198 0.30973 0.33632 0.0
C335 C 0.52745 0.28398 0.30092 0.0
H336 H 0.52388 0.37147 0.36255 0.0
H337 H 0.48041 0.29665 0.36384 0.0
S338 S 0.63453 0.31744 0.2185 0.0
N339 N 0.63437 0.36063 0.24608 0.0
N340 N 0.58717 0.27988 0.24053 0.0
C341 C 0.56894 0.30193 0.27159 0.0
C342 C 0.59452 0.34538 0.27573 0.0
C343 C 0.62886 0.22742 0.26757 0.0
C344 C 0.60242 0.21083 0.36399 0.0
C345 C 0.67113 0.24975 0.28147 0.0
C346 C 0.68809 0.2547 0.39188 0.0
H347 H 0.61695 0.22128 0.17992 0.0
H348 H 0.69045 0.25906 0.20497 0.0
S349 S 0.63279 0.22425 0.67214 0.0
N350 N 0.59626 0.20707 0.57354 0.0
N351 N 0.67638 0.24735 0.59972 0.0
C352 C 0.66223 0.24217 0.48924 0.0
C353 C 0.61906 0.22048 0.47528 0.0
C354 C 0.39331 0.72177 0.63359 0.0
C355 C 0.42868 0.73043 0.69566 0.0
C356 C 0.37443 0.74561 0.64745 0.0
C357 C 0.39084 0.78005 0.72135 0.0
H358 H 0.38086 0.69711 0.57043 0.0
H359 H 0.34733 0.73744 0.59676 0.0
S360 S 0.48882 0.82114 0.88254 0.0
N361 N 0.48287 0.77862 0.82107 0.0
N362 N 0.44812 0.82458 0.84615 0.0
C363 C 0.42746 0.79017 0.78055 0.0
C364 C 0.44627 0.76517 0.76762 0.0
C365 C 0.2228 0.62929 0.56988 0.0
C366 C 0.21402 0.61892 0.68712 0.0
C367 C 0.2455 0.67043 0.53675 0.0
C368 C 0.26056 0.70175 0.62037 0.0
H369 H 0.2082 0.60609 0.50326 0.0
H370 H 0.24801 0.67795 0.44528 0.0
S371 S 0.25198 0.68886 0.93972 0.0
N372 N 0.2265 0.6416 0.88765 0.0
N373 N 0.27015 0.71942 0.82556 0.0
C374 C 0.25633 0.69124 0.73848 0.0
C375 C 0.23262 0.64941 0.77202 0.0
C376 C 0.33276 0.60859 0.68221 0.0
C377 C 0.35649 0.58971 0.66218 0.0
C378 C 0.28988 0.58561 0.68322 0.0
C379 C 0.26936 0.54285 0.66696 0.0
H380 H 0.34738 0.64099 0.70224 0.0
H381 H 0.27295 0.60151 0.69608 0.0
S382 S 0.31759 0.47744 0.63737 0.0
N383 N 0.35646 0.52493 0.6422 0.0
N384 N 0.27599 0.48172 0.64564 0.0
C385 C 0.29281 0.52327 0.65322 0.0
C386 C 0.33632 0.54666 0.65068 0.0
C387 C -0.00944 0.17701 0.58301 0.0
C388 C 0.97238 0.19823 0.63397 0.0
C389 C 0.00339 0.18374 0.46695 0.0
C390 C -0.00155 0.21188 0.3973 0.0
H391 H -0.00788 0.15281 0.63061 0.0
H392 H 0.01578 0.16553 0.42995 0.0
S393 S 0.95899 0.28007 0.49362 0.0
N394 N 0.95401 0.25161 0.60891 0.0
N395 N -0.0206 0.265 0.39092 0.0
C396 C -0.01679 0.23548 0.44889 0.0
C397 C 0.96978 0.22841 0.56729 0.0
C398 C 0.75355 0.79514 0.57525 0.0
C399 C 0.78886 0.79544 0.61295 0.0
C400 C 0.74552 0.79442 0.45729 0.0
C401 C 0.7739 0.79665 0.37339 0.0
H402 H 0.73195 0.79532 0.63695 0.0
H403 H 0.71762 0.79404 0.43199 0.0
S404 S 0.8748 0.80487 0.43251 0.0
N405 N 0.85406 0.8008 0.56159 0.0
N406 N 0.84072 0.80266 0.33841 0.0
C407 C 0.81023 0.79821 0.41097 0.0
C408 C 0.81753 0.79735 0.5314 0.0
C409 C 0.1393 0.95432 0.60511 0.0
C410 C 0.16299 -0.0066 0.65431 0.0
C411 C 0.14068 0.94854 0.4853 0.0
C412 C 0.16501 0.98185 0.41161 0.0
H413 H 0.12161 0.92779 0.66001 0.0
H414 H 0.12321 0.91774 0.45024 0.0
S415 S 0.23091 0.09048 0.49486 0.0
N416 N 0.21067 0.06629 0.61789 0.0
N417 N 0.21156 0.05489 0.39316 0.0
C418 C 0.18714 0.0212 0.45825 0.0
C419 C 0.18657 0.02712 0.57979 0.0
C420 C 0.66708 0.51522 0.76015 0.0
C421 C 0.66472 0.54694 0.70102 0.0
C422 C 0.65913 0.50897 0.8788 0.0
C423 C 0.64752 0.5336 0.94156 0.0
H424 H 0.67651 0.49587 0.71472 0.0
H425 H 0.66138 0.4843 0.92124 0.0
S426 S 0.63318 0.6179 0.82815 0.0
N427 N 0.64982 0.60309 0.71495 0.0
N428 N 0.63034 0.58802 0.93706 0.0
C429 C 0.64313 0.56406 0.8834 0.0
C430 C 0.65317 0.57182 0.76327 0.0
C431 C 0.47049 0.17318 0.77297 0.0
C432 C 0.47912 0.14819 0.7001 0.0
C433 C 0.47122 0.16998 0.89359 0.0
C434 C 0.47954 0.1409 0.94437 0.0
H435 H 0.46189 0.1945 0.73614 0.0
H436 H 0.46361 0.18909 0.94709 0.0
S437 S 0.50163 0.06669 0.78842 0.0
N438 N 0.49503 0.09318 0.68448 0.0
N439 N 0.49591 0.08594 0.9116 0.0
C440 C 0.48807 0.11555 0.8715 0.0
C441 C 0.48803 0.11954 0.74891 0.0
C442 C 0.82557 0.29855 0.77742 0.0
C443 C 0.83679 0.32853 0.68966 0.0
C444 C 0.83338 0.30943 0.89365 0.0
C445 C 0.85302 0.35079 0.92725 0.0
H446 H 0.81043 0.26607 0.75651 0.0
H447 H 0.82382 0.28512 0.95748 0.0
S448 S 0.88592 0.44111 0.73285 0.0
N449 N 0.86582 0.40109 0.64483 0.0
N450 N 0.88219 0.42217 0.86448 0.0
C451 C 0.86392 0.38127 0.84098 0.0
C452 C 0.85507 0.36996 0.72198 0.0
C453 C 0.33909 0.89613 0.21273 0.0
C454 C 0.30099 0.8639 0.24814 0.0
C455 C 0.35079 0.90143 0.09544 0.0
C456 C 0.32474 0.87465 0.00891 0.0
H457 H 0.36044 0.91657 0.27643 0.0
H458 H 0.38116 0.92579 0.07283 0.0
S459 S 0.2222 0.7837 0.05641 0.0
N460 N 0.23696 0.80434 0.18608 0.0
N461 N 0.25977 0.81364 0.96817 0.0
C462 C 0.28614 0.84277 0.04283 0.0
C463 C 0.27403 0.83758 0.16173 0.0
C464 C 0.09275 0.42683 0.08934 0.0
C465 C 0.09922 0.46589 0.05782 0.0
C466 C 0.10019 0.4188 0.20333 0.0
C467 C 0.11408 0.44945 0.28969 0.0
H468 H 0.08243 0.40255 0.02532 0.0
H469 H 0.09592 0.38863 0.22351 0.0
S470 S 0.1434 0.55906 0.24591 0.0
N471 N 0.1252 0.53703 0.1194 0.0
N472 N 0.13925 0.52179 0.33151 0.0
C473 C 0.12202 0.48903 0.25812 0.0
C474 C 0.11452 0.49726 0.14277 0.0
C475 C 0.55831 0.69474 0.19162 0.0
C476 C 0.52842 0.67584 0.27893 0.0
C477 C 0.55125 0.67921 0.07769 0.0
C478 C 0.51406 0.64439 0.04771 0.0
H479 H 0.58691 0.72226 0.21095 0.0
H480 H 0.57466 0.69486 0.01244 0.0
S481 S 0.42301 0.58877 0.23879 0.0
N482 N 0.45846 0.62378 0.32341 0.0
N483 N 0.44525 0.59446 0.11144 0.0
C484 C 0.48358 0.6259 0.13382 0.0
C485 C 0.49074 0.64167 0.24892 0.0
loop_
_geom_bond_atom_site_label_1
_geom_bond_atom_site_label_2
_geom_bond_distance
_geom_bond_site_symmetry_2
_ccdc_geom_bond_type
Zn0 O6 1.920 . S
Zn0 O12 1.898 . S
Zn0 O15 1.905 . S
Zn1 O9 1.905 . S
Zn1 O10 1.898 1_556 S
Zn1 O18 1.920 . S
Zn2 O5 2.080 1_554 S
Zn2 O8 2.114 1_455 S
Zn2 O11 2.120 1_455 S
Zn2 O13 2.120 1_554 S
Zn2 O14 2.114 . S
Zn2 O17 2.080 1_454 S
C3 O8 1.166 1_556 S
C3 O9 1.182 . S
C4 O10 1.167 . S
C4 O11 1.299 . S
O5 Zn2 2.080 1_556 S
O5 C19 1.305 . S
O6 Zn0 1.920 . S
O6 C19 1.234 1_554 S
C7 O12 1.167 . S
C7 O13 1.299 1_554 S
O8 Zn2 2.114 1_655 S
O8 C3 1.166 1_554 S
O9 Zn1 1.905 . S
O9 C3 1.182 . S
O10 Zn1 1.898 1_554 S
O10 C4 1.167 . S
O11 Zn2 2.120 1_655 S
O11 C4 1.299 . S
O12 Zn0 1.898 . S
O12 C7 1.167 . S
O13 Zn2 2.120 1_556 S
O13 C7 1.299 1_556 S
O14 Zn2 2.114 . S
O14 C16 1.166 . S
O15 Zn0 1.905 . S
O15 C16 1.182 . S
C16 O14 1.166 . S
C16 O15 1.182 . S
O17 Zn2 2.080 1_656 S
O17 C20 1.305 . S
O18 Zn1 1.920 . S
O18 C20 1.234 . S
C19 O5 1.305 . S
C19 O6 1.234 1_556 S
C20 O17 1.305 . S
C20 O18 1.234 . S
Zn21 O27 1.920 . S
Zn21 O33 1.898 . S
Zn21 O36 1.905 . S
Zn22 O30 1.905 . S
Zn22 O31 1.898 . S
Zn22 O39 1.920 1_556 S
Zn23 O26 2.080 . S
Zn23 O29 2.114 1_554 S
Zn23 O32 2.120 . S
Zn23 O34 2.120 . S
Zn23 O35 2.114 1_554 S
Zn23 O38 2.080 . S
C24 O29 1.166 . S
C24 O30 1.182 . S
C25 O31 1.167 . S
C25 O32 1.299 1_556 S
O26 Zn23 2.080 . S
O26 C40 1.305 . S
O27 Zn21 1.920 . S
O27 C40 1.234 . S
C28 O33 1.167 1_556 S
C28 O34 1.299 1_556 S
O29 Zn23 2.114 1_556 S
O29 C24 1.166 . S
O30 Zn22 1.905 . S
O30 C24 1.182 . S
O31 Zn22 1.898 . S
O31 C25 1.167 . S
O32 Zn23 2.120 . S
O32 C25 1.299 1_554 S
O33 Zn21 1.898 . S
O33 C28 1.167 1_554 S
O34 Zn23 2.120 . S
O34 C28 1.299 1_554 S
O35 Zn23 2.114 1_556 S
O35 C37 1.166 1_556 S
O36 Zn21 1.905 . S
O36 C37 1.182 . S
C37 O35 1.166 1_554 S
C37 O36 1.182 . S
O38 Zn23 2.080 . S
O38 C41 1.305 . S
O39 Zn22 1.920 1_554 S
O39 C41 1.234 . S
C40 O26 1.305 . S
C40 O27 1.234 . S
C41 O38 1.305 . S
C41 O39 1.234 . S
Zn42 O48 1.920 . S
Zn42 O54 1.897 1_556 S
Zn42 O57 1.905 . S
Zn43 O51 1.905 . S
Zn43 O52 1.898 . S
Zn43 O60 1.920 . S
Zn44 O47 2.080 1_554 S
Zn44 O50 2.111 1_545 S
Zn44 O53 2.120 1_544 S
Zn44 O55 2.120 . S
Zn44 O56 2.114 . S
Zn44 O59 2.080 1_544 S
C45 O50 1.184 . S
C45 O51 1.182 . S
C46 O52 1.167 . S
C46 O53 1.299 1_554 S
O47 Zn44 2.080 1_556 S
O47 C61 1.305 . S
O48 Zn42 1.920 . S
O48 C61 1.234 . S
C49 O54 1.168 . S
C49 O55 1.299 . S
O50 Zn44 2.111 1_565 S
O50 C45 1.184 . S
O51 Zn43 1.905 . S
O51 C45 1.182 . S
O52 Zn43 1.898 . S
O52 C46 1.167 . S
O53 Zn44 2.120 1_566 S
O53 C46 1.299 1_556 S
O54 Zn42 1.897 1_554 S
O54 C49 1.168 . S
O55 Zn44 2.120 . S
O55 C49 1.299 . S
O56 Zn44 2.114 . S
O56 C58 1.166 1_554 S
O57 Zn42 1.905 . S
O57 C58 1.182 . S
C58 O56 1.166 1_556 S
C58 O57 1.182 . S
O59 Zn44 2.080 1_566 S
O59 C62 1.305 . S
O60 Zn43 1.920 . S
O60 C62 1.234 1_554 S
C61 O47 1.305 . S
C61 O48 1.234 . S
C62 O59 1.305 . S
C62 O60 1.234 1_556 S
Zn63 O69 1.920 . S
Zn63 O75 1.898 . S
Zn63 O78 1.905 . S
Zn64 O72 1.905 . S
Zn64 O73 1.898 . S
Zn64 O81 1.920 . S
Zn65 O68 2.080 . S
Zn65 O71 2.114 . S
Zn65 O74 2.120 . S
Zn65 O76 2.120 . S
Zn65 O77 2.114 . S
Zn65 O80 2.080 . S
C66 O71 1.166 . S
C66 O72 1.182 . S
C67 O73 1.167 . S
C67 O74 1.299 . S
O68 Zn65 2.080 . S
O68 C82 1.305 . S
O69 Zn63 1.920 . S
O69 C82 1.234 . S
C70 O75 1.167 . S
C70 O76 1.299 . S
O71 Zn65 2.114 . S
O71 C66 1.166 . S
O72 Zn64 1.905 . S
O72 C66 1.182 . S
O73 Zn64 1.898 . S
O73 C67 1.167 . S
O74 Zn65 2.120 . S
O74 C67 1.299 . S
O75 Zn63 1.898 . S
O75 C70 1.167 . S
O76 Zn65 2.120 . S
O76 C70 1.299 . S
O77 Zn65 2.114 . S
O77 C79 1.166 . S
O78 Zn63 1.905 . S
O78 C79 1.182 . S
C79 O77 1.166 . S
C79 O78 1.182 . S
O80 Zn65 2.080 . S
O80 C83 1.305 . S
O81 Zn64 1.920 . S
O81 C83 1.234 . S
C82 O68 1.305 . S
C82 O69 1.234 . S
C83 O80 1.305 . S
C83 O81 1.234 . S
Zn84 O90 1.920 . S
Zn84 O96 1.898 . S
Zn84 O99 1.905 . S
Zn85 O93 1.905 . S
Zn85 O94 1.898 . S
Zn85 O102 1.920 . S
Zn86 O89 2.080 . S
Zn86 O92 2.114 . S
Zn86 O95 2.120 . S
Zn86 O97 2.120 . S
Zn86 O98 2.114 . S
Zn86 O101 2.080 . S
C87 O92 1.166 . S
C87 O93 1.182 . S
C88 O94 1.167 . S
C88 O95 1.299 . S
O89 Zn86 2.080 . S
O89 C103 1.305 . S
O90 Zn84 1.920 . S
O90 C103 1.234 . S
C91 O96 1.167 . S
C91 O97 1.299 . S
O92 Zn86 2.114 . S
O92 C87 1.166 . S
O93 Zn85 1.905 . S
O93 C87 1.182 . S
O94 Zn85 1.898 . S
O94 C88 1.167 . S
O95 Zn86 2.120 . S
O95 C88 1.299 . S
O96 Zn84 1.898 . S
O96 C91 1.167 . S
O97 Zn86 2.120 . S
O97 C91 1.299 . S
O98 Zn86 2.114 . S
O98 C100 1.166 . S
O99 Zn84 1.905 . S
O99 C100 1.182 . S
C100 O98 1.166 . S
C100 O99 1.182 . S
O101 Zn86 2.080 . S
O101 C104 1.305 . S
O102 Zn85 1.920 . S
O102 C104 1.234 . S
C103 O89 1.305 . S
C103 O90 1.234 . S
C104 O101 1.305 . S
C104 O102 1.234 . S
Zn105 O111 1.920 . S
Zn105 O117 1.898 . S
Zn105 O120 1.905 . S
Zn106 O114 1.905 . S
Zn106 O115 1.898 . S
Zn106 O123 1.920 . S
Zn107 O110 2.080 . S
Zn107 O113 2.114 . S
Zn107 O116 2.120 . S
Zn107 O118 2.120 . S
Zn107 O119 2.114 . S
Zn107 O122 2.080 . S
C108 O113 1.166 . S
C108 O114 1.182 . S
C109 O115 1.167 . S
C109 O116 1.299 . S
O110 Zn107 2.080 . S
O110 C124 1.305 . S
O111 Zn105 1.920 . S
O111 C124 1.234 . S
C112 O117 1.167 . S
C112 O118 1.299 . S
O113 Zn107 2.114 . S
O113 C108 1.166 . S
O114 Zn106 1.905 . S
O114 C108 1.182 . S
O115 Zn106 1.898 . S
O115 C109 1.167 . S
O116 Zn107 2.120 . S
O116 C109 1.299 . S
O117 Zn105 1.898 . S
O117 C112 1.167 . S
O118 Zn107 2.120 . S
O118 C112 1.299 . S
O119 Zn107 2.114 . S
O119 C121 1.166 . S
O120 Zn105 1.905 . S
O120 C121 1.182 . S
C121 O119 1.166 . S
C121 O120 1.182 . S
O122 Zn107 2.080 . S
O122 C125 1.305 . S
O123 Zn106 1.920 . S
O123 C125 1.234 . S
C124 O110 1.305 . S
C124 O111 1.234 . S
C125 O122 1.305 . S
C125 O123 1.234 . S
Zn126 O132 1.920 . S
Zn126 O138 1.898 . S
Zn126 O141 1.905 . S
Zn127 O135 1.905 . S
Zn127 O136 1.898 . S
Zn127 O144 1.920 . S
Zn128 O131 2.080 . S
Zn128 O134 2.114 . S
Zn128 O137 2.120 . S
Zn128 O139 2.120 . S
Zn128 O140 2.114 . S
Zn128 O143 2.080 . S
C129 O134 1.166 . S
C129 O135 1.182 . S
C130 O136 1.167 . S
C130 O137 1.299 . S
O131 Zn128 2.080 . S
O131 C145 1.305 . S
O132 Zn126 1.920 . S
O132 C145 1.234 . S
C133 O138 1.167 . S
C133 O139 1.299 . S
O134 Zn128 2.114 . S
O134 C129 1.166 . S
O135 Zn127 1.905 . S
O135 C129 1.182 . S
O136 Zn127 1.898 . S
O136 C130 1.167 . S
O137 Zn128 2.120 . S
O137 C130 1.299 . S
O138 Zn126 1.898 . S
O138 C133 1.167 . S
O139 Zn128 2.120 . S
O139 C133 1.299 . S
O140 Zn128 2.114 . S
O140 C142 1.166 . S
O141 Zn126 1.905 . S
O141 C142 1.182 . S
C142 O140 1.166 . S
C142 O141 1.182 . S
O143 Zn128 2.080 . S
O143 C146 1.305 . S
O144 Zn127 1.920 . S
O144 C146 1.234 . S
C145 O131 1.305 . S
C145 O132 1.234 . S
C146 O143 1.305 . S
C146 O144 1.234 . S
Zn147 O153 1.920 . S
Zn147 O159 1.898 . S
Zn147 O162 1.905 . S
Zn148 O156 1.905 . S
Zn148 O157 1.898 . S
Zn148 O165 1.920 . S
Zn149 O152 2.080 . S
Zn149 O155 2.114 . S
Zn149 O158 2.120 . S
Zn149 O160 2.120 . S
Zn149 O161 2.114 . S
Zn149 O164 2.080 . S
C150 O155 1.166 . S
C150 O156 1.182 . S
C151 O157 1.167 . S
C151 O158 1.299 . S
O152 Zn149 2.080 . S
O152 C166 1.305 . S
O153 Zn147 1.920 . S
O153 C166 1.234 . S
C154 O159 1.167 . S
C154 O160 1.299 . S
O155 Zn149 2.114 . S
O155 C150 1.166 . S
O156 Zn148 1.905 . S
O156 C150 1.182 . S
O157 Zn148 1.898 . S
O157 C151 1.167 . S
O158 Zn149 2.120 . S
O158 C151 1.299 . S
O159 Zn147 1.898 . S
O159 C154 1.167 . S
O160 Zn149 2.120 . S
O160 C154 1.299 . S
O161 Zn149 2.114 . S
O161 C163 1.166 . S
O162 Zn147 1.905 . S
O162 C163 1.182 . S
C163 O161 1.166 . S
C163 O162 1.182 . S
O164 Zn149 2.080 . S
O164 C167 1.305 . S
O165 Zn148 1.920 . S
O165 C167 1.234 . S
C166 O152 1.305 . S
C166 O153 1.234 . S
C167 O164 1.305 . S
C167 O165 1.234 . S
Zn168 O174 1.920 . S
Zn168 O180 1.898 . S
Zn168 O183 1.905 . S
Zn169 O177 1.905 . S
Zn169 O178 1.898 . S
Zn169 O186 1.920 . S
Zn170 O173 2.080 . S
Zn170 O176 2.114 . S
Zn170 O179 2.120 . S
Zn170 O181 2.120 . S
Zn170 O182 2.114 . S
Zn170 O185 2.080 . S
C171 O176 1.166 . S
C171 O177 1.182 . S
C172 O178 1.167 . S
C172 O179 1.299 . S
O173 Zn170 2.080 . S
O173 C187 1.305 . S
O174 Zn168 1.920 . S
O174 C187 1.234 . S
C175 O180 1.167 . S
C175 O181 1.299 . S
O176 Zn170 2.114 . S
O176 C171 1.166 . S
O177 Zn169 1.905 . S
O177 C171 1.182 . S
O178 Zn169 1.898 . S
O178 C172 1.167 . S
O179 Zn170 2.120 . S
O179 C172 1.299 . S
O180 Zn168 1.898 . S
O180 C175 1.167 . S
O181 Zn170 2.120 . S
O181 C175 1.299 . S
O182 Zn170 2.114 . S
O182 C184 1.166 . S
O183 Zn168 1.905 . S
O183 C184 1.182 . S
C184 O182 1.166 . S
C184 O183 1.182 . S
O185 Zn170 2.080 . S
O185 C188 1.305 . S
O186 Zn169 1.920 . S
O186 C188 1.234 . S
C187 O173 1.305 . S
C187 O174 1.234 . S
C188 O185 1.305 . S
C188 O186 1.234 . S
C189 C190 1.369 . S
C189 C191 1.419 . S
C189 H193 0.930 . S
C190 C189 1.369 . S
C190 C199 1.429 . S
C191 C189 1.419 . S
C191 C192 1.363 . S
C191 H194 0.929 . S
C192 C191 1.363 . S
C192 C198 1.428 . S
H193 C189 0.930 . S
H194 C191 0.929 . S
S195 N196 1.613 . S
S195 N197 1.610 1_554 S
N196 S195 1.613 . S
N196 C199 1.350 1_554 S
N197 S195 1.610 1_556 S
N197 C198 1.351 . S
C198 C192 1.428 . S
C198 N197 1.351 . S
C198 C199 1.434 . S
C199 C190 1.429 . S
C199 N196 1.350 1_556 S
C199 C198 1.434 . S
C200 C201 1.369 . S
C200 C202 1.419 . S
C200 H204 0.930 . S
C201 C200 1.369 . S
C201 C210 1.429 . S
C202 C200 1.419 . S
C202 C203 1.363 . S
C202 H205 0.929 . S
C203 C202 1.363 . S
C203 C209 1.428 . S
H204 C200 0.930 . S
H205 C202 0.929 . S
S206 N207 1.613 . S
S206 N208 1.610 . S
N207 S206 1.613 . S
N207 C210 1.350 . S
N208 S206 1.610 . S
N208 C209 1.351 . S
C209 C203 1.428 . S
C209 N208 1.351 . S
C209 C210 1.434 . S
C210 C201 1.429 . S
C210 N207 1.350 . S
C210 C209 1.434 . S
C211 C212 1.369 . S
C211 C213 1.419 . S
C211 H215 0.930 . S
C212 C211 1.369 . S
C212 C221 1.429 . S
C213 C211 1.419 . S
C213 C214 1.363 . S
C213 H216 0.929 . S
C214 C213 1.363 . S
C214 C220 1.428 . S
H215 C211 0.930 . S
H216 C213 0.929 . S
S217 N218 1.613 . S
S217 N219 1.610 . S
N218 S217 1.613 . S
N218 C221 1.350 . S
N219 S217 1.610 . S
N219 C220 1.351 . S
C220 C214 1.428 . S
C220 N219 1.351 . S
C220 C221 1.434 . S
C221 C212 1.429 . S
C221 N218 1.350 . S
C221 C220 1.434 . S
C222 C223 1.369 . S
C222 C224 1.419 . S
C222 H226 0.930 . S
C223 C222 1.369 . S
C223 C232 1.429 . S
C224 C222 1.419 . S
C224 C225 1.363 . S
C224 H227 0.929 . S
C225 C224 1.363 . S
C225 C231 1.428 . S
H226 C222 0.930 . S
H227 C224 0.929 . S
S228 N229 1.613 1_556 S
S228 N230 1.610 . S
N229 S228 1.613 1_554 S
N229 C232 1.350 . S
N230 S228 1.610 . S
N230 C231 1.351 1_556 S
C231 C225 1.428 . S
C231 N230 1.351 1_554 S
C231 C232 1.434 . S
C232 C223 1.429 . S
C232 N229 1.350 . S
C232 C231 1.434 . S
C233 C234 1.369 . S
C233 C235 1.419 . S
C233 H237 0.930 . S
C234 C233 1.369 . S
C234 C243 1.429 . S
C235 C233 1.419 . S
C235 C236 1.363 . S
C235 H238 0.929 1_554 S
C236 C235 1.363 . S
C236 C242 1.428 . S
H237 C233 0.930 . S
H238 C235 0.929 1_556 S
S239 N240 1.613 . S
S239 N241 1.610 . S
N240 S239 1.613 . S
N240 C243 1.350 . S
N241 S239 1.610 . S
N241 C242 1.351 . S
C242 C236 1.428 . S
C242 N241 1.351 . S
C242 C243 1.434 . S
C243 C234 1.429 . S
C243 N240 1.350 . S
C243 C242 1.434 . S
C244 C245 1.369 . S
C244 C246 1.419 . S
C244 H248 0.930 . S
C245 C244 1.369 . S
C245 C254 1.429 . S
C246 C244 1.419 . S
C246 C247 1.363 . S
C246 H249 0.929 . S
C247 C246 1.363 . S
C247 C253 1.428 . S
H248 C244 0.930 . S
H249 C246 0.929 . S
S250 N251 1.613 . S
S250 N252 1.610 . S
N251 S250 1.613 . S
N251 C254 1.350 . S
N252 S250 1.610 . S
N252 C253 1.351 . S
C253 C247 1.428 . S
C253 N252 1.351 . S
C253 C254 1.434 . S
C254 C245 1.429 . S
C254 N251 1.350 . S
C254 C253 1.434 . S
C255 C256 1.369 . S
C255 C257 1.419 1_455 S
C255 H259 0.930 . S
C256 C255 1.369 . S
C256 C265 1.429 . S
C257 C255 1.419 1_655 S
C257 C258 1.363 . S
C257 H260 0.929 . S
C258 C257 1.363 . S
C258 C264 1.428 1_655 S
H259 C255 0.930 . S
H260 C257 0.929 . S
S261 N262 1.613 . S
S261 N263 1.610 . S
N262 S261 1.613 . S
N262 C265 1.350 . S
N263 S261 1.610 . S
N263 C264 1.351 . S
C264 C258 1.428 1_455 S
C264 N263 1.351 . S
C264 C265 1.434 . S
C265 C256 1.429 . S
C265 N262 1.350 . S
C265 C264 1.434 . S
C266 C267 1.369 . S
C266 C268 1.419 . S
C266 H270 0.930 . S
C267 C266 1.369 . S
C267 C276 1.429 . S
C268 C266 1.419 . S
C268 C269 1.363 . S
C268 H271 0.929 . S
C269 C268 1.363 . S
C269 C275 1.428 . S
H270 C266 0.930 . S
H271 C268 0.929 . S
S272 N273 1.613 . S
S272 N274 1.610 . S
N273 S272 1.613 . S
N273 C276 1.350 . S
N274 S272 1.610 . S
N274 C275 1.351 . S
C275 C269 1.428 . S
C275 N274 1.351 . S
C275 C276 1.434 . S
C276 C267 1.429 . S
C276 N273 1.350 . S
C276 C275 1.434 . S
C277 C278 1.369 . S
C277 C279 1.419 . S
C277 H281 0.930 . S
C278 C277 1.369 . S
C278 C287 1.429 . S
C279 C277 1.419 . S
C279 C280 1.363 1_545 S
C279 H282 0.926 . S
C280 C279 1.363 1_565 S
C280 C286 1.428 . S
H281 C277 0.930 . S
H282 C279 0.926 . S
S283 N284 1.613 1_565 S
S283 N285 1.610 . S
N284 S283 1.613 1_545 S
N284 C287 1.350 . S
N285 S283 1.610 . S
N285 C286 1.351 . S
C286 C280 1.428 . S
C286 N285 1.351 . S
C286 C287 1.434 1_565 S
C287 C278 1.429 . S
C287 N284 1.350 . S
C287 C286 1.434 1_545 S
C288 C289 1.369 . S
C288 C290 1.419 . S
C288 H292 0.930 . S
C289 C288 1.369 . S
C289 C298 1.429 1_554 S
C290 C288 1.419 . S
C290 C291 1.363 . S
C290 H293 0.929 . S
C291 C290 1.363 . S
C291 C297 1.428 1_554 S
H292 C288 0.930 . S
H293 C290 0.929 . S
S294 N295 1.613 . S
S294 N296 1.610 . S
N295 S294 1.613 . S
N295 C298 1.350 . S
N296 S294 1.610 . S
N296 C297 1.351 . S
C297 C291 1.428 1_556 S
C297 N296 1.351 . S
C297 C298 1.434 . S
C298 C289 1.429 1_556 S
C298 N295 1.350 . S
C298 C297 1.434 . S
C299 C300 1.369 . S
C299 C301 1.419 1_565 S
C299 H303 0.930 . S
C300 C299 1.369 . S
C300 C309 1.429 . S
C301 C299 1.419 1_545 S
C301 C302 1.364 . S
C301 H304 0.928 1_554 S
C302 C301 1.364 . S
C302 C308 1.428 . S
H303 C299 0.930 . S
H304 C301 0.928 1_556 S
S305 N306 1.602 1_445 S
S305 N307 1.599 1_455 S
N306 S305 1.602 1_665 S
N306 C309 1.350 . S
N307 S305 1.599 1_655 S
N307 C308 1.351 . S
C308 C302 1.428 . S
C308 N307 1.351 . S
C308 C309 1.434 1_545 S
C309 C300 1.429 . S
C309 N306 1.350 . S
C309 C308 1.434 1_565 S
C310 C311 1.369 1_556 S
C310 C312 1.419 1_655 S
C310 H314 0.930 . S
C311 C310 1.369 1_554 S
C311 C320 1.429 . S
C312 C310 1.419 1_455 S
C312 C313 1.363 1_556 S
C312 H315 0.929 . S
C313 C312 1.363 1_554 S
C313 C319 1.428 . S
H314 C310 0.930 . S
H315 C312 0.929 . S
S316 N317 1.600 1_455 S
S316 N318 1.618 . S
N317 S316 1.600 1_655 S
N317 C320 1.350 . S
N318 S316 1.618 . S
N318 C319 1.351 . S
C319 C313 1.428 . S
C319 N318 1.351 . S
C319 C320 1.434 1_455 S
C320 C311 1.429 . S
C320 N317 1.350 . S
C320 C319 1.434 1_655 S
C321 C322 1.369 . S
C321 C323 1.419 . S
C321 H325 0.930 . S
C322 C321 1.369 . S
C322 C331 1.429 . S
C323 C321 1.419 . S
C323 C324 1.363 . S
C323 H326 0.929 . S
C324 C323 1.363 . S
C324 C330 1.428 . S
H325 C321 0.930 . S
H326 C323 0.929 . S
S327 N328 1.613 . S
S327 N329 1.610 . S
N328 S327 1.613 . S
N328 C331 1.350 . S
N329 S327 1.610 . S
N329 C330 1.351 . S
C330 C324 1.428 . S
C330 N329 1.351 . S
C330 C331 1.434 . S
C331 C322 1.429 . S
C331 N328 1.350 . S
C331 C330 1.434 . S
C332 C333 1.369 . S
C332 C334 1.419 . S
C332 H336 0.930 . S
C333 C332 1.369 . S
C333 C342 1.429 . S
C334 C332 1.419 . S
C334 C335 1.363 . S
C334 H337 0.929 . S
C335 C334 1.363 . S
C335 C341 1.428 . S
H336 C332 0.930 . S
H337 C334 0.929 . S
S338 N339 1.613 . S
S338 N340 1.610 . S
N339 S338 1.613 . S
N339 C342 1.350 . S
N340 S338 1.610 . S
N340 C341 1.351 . S
C341 C335 1.428 . S
C341 N340 1.351 . S
C341 C342 1.434 . S
C342 C333 1.429 . S
C342 N339 1.350 . S
C342 C341 1.434 . S
C343 C344 1.369 . S
C343 C345 1.419 . S
C343 H347 0.930 . S
C344 C343 1.369 . S
C344 C353 1.429 . S
C345 C343 1.419 . S
C345 C346 1.363 . S
C345 H348 0.929 . S
C346 C345 1.363 . S
C346 C352 1.428 . S
H347 C343 0.930 . S
H348 C345 0.929 . S
S349 N350 1.613 . S
S349 N351 1.610 . S
N350 S349 1.613 . S
N350 C353 1.350 . S
N351 S349 1.610 . S
N351 C352 1.351 . S
C352 C346 1.428 . S
C352 N351 1.351 . S
C352 C353 1.434 . S
C353 C344 1.429 . S
C353 N350 1.350 . S
C353 C352 1.434 . S
C354 C355 1.369 . S
C354 C356 1.419 . S
C354 H358 0.930 . S
C355 C354 1.369 . S
C355 C364 1.429 . S
C356 C354 1.419 . S
C356 C357 1.363 . S
C356 H359 0.929 . S
C357 C356 1.363 . S
C357 C363 1.428 . S
H358 C354 0.930 . S
H359 C356 0.929 . S
S360 N361 1.613 . S
S360 N362 1.610 . S
N361 S360 1.613 . S
N361 C364 1.350 . S
N362 S360 1.610 . S
N362 C363 1.351 . S
C363 C357 1.428 . S
C363 N362 1.351 . S
C363 C364 1.434 . S
C364 C355 1.429 . S
C364 N361 1.350 . S
C364 C363 1.434 . S
C365 C366 1.369 . S
C365 C367 1.419 . S
C365 H369 0.930 . S
C366 C365 1.369 . S
C366 C375 1.429 . S
C367 C365 1.419 . S
C367 C368 1.363 . S
C367 H370 0.929 . S
C368 C367 1.363 . S
C368 C374 1.428 . S
H369 C365 0.930 . S
H370 C367 0.929 . S
S371 N372 1.613 . S
S371 N373 1.610 . S
N372 S371 1.613 . S
N372 C375 1.350 . S
N373 S371 1.610 . S
N373 C374 1.351 . S
C374 C368 1.428 . S
C374 N373 1.351 . S
C374 C375 1.434 . S
C375 C366 1.429 . S
C375 N372 1.350 . S
C375 C374 1.434 . S
C376 C377 1.369 . S
C376 C378 1.419 . S
C376 H380 0.930 . S
C377 C376 1.369 . S
C377 C386 1.429 . S
C378 C376 1.419 . S
C378 C379 1.363 . S
C378 H381 0.929 . S
C379 C378 1.363 . S
C379 C385 1.428 . S
H380 C376 0.930 . S
H381 C378 0.929 . S
S382 N383 1.613 . S
S382 N384 1.610 . S
N383 S382 1.613 . S
N383 C386 1.350 . S
N384 S382 1.610 . S
N384 C385 1.351 . S
C385 C379 1.428 . S
C385 N384 1.351 . S
C385 C386 1.434 . S
C386 C377 1.429 . S
C386 N383 1.350 . S
C386 C385 1.434 . S
C387 C388 1.369 1_455 S
C387 C389 1.419 . S
C387 H391 0.930 . S
C388 C387 1.369 1_655 S
C388 C397 1.429 . S
C389 C387 1.419 . S
C389 C390 1.363 . S
C389 H392 0.929 . S
C390 C389 1.363 . S
C390 C396 1.428 1_455 S
H391 C387 0.930 . S
H392 C389 0.929 . S
S393 N394 1.613 . S
S393 N395 1.610 . S
N394 S393 1.613 . S
N394 C397 1.350 . S
N395 S393 1.610 . S
N395 C396 1.351 . S
C396 C390 1.428 1_655 S
C396 N395 1.351 . S
C396 C397 1.434 . S
C397 C388 1.429 . S
C397 N394 1.350 . S
C397 C396 1.434 . S
C398 C399 1.369 . S
C398 C400 1.419 . S
C398 H402 0.930 . S
C399 C398 1.369 . S
C399 C408 1.429 . S
C400 C398 1.419 . S
C400 C401 1.363 . S
C400 H403 0.929 . S
C401 C400 1.363 . S
C401 C407 1.428 . S
H402 C398 0.930 . S
H403 C400 0.929 . S
S404 N405 1.613 . S
S404 N406 1.610 . S
N405 S404 1.613 . S
N405 C408 1.350 . S
N406 S404 1.610 . S
N406 C407 1.351 . S
C407 C401 1.428 . S
C407 N406 1.351 . S
C407 C408 1.434 . S
C408 C399 1.429 . S
C408 N405 1.350 . S
C408 C407 1.434 . S
C409 C410 1.369 1_565 S
C409 C411 1.419 . S
C409 H413 0.930 . S
C410 C409 1.369 1_545 S
C410 C419 1.429 . S
C411 C409 1.419 . S
C411 C412 1.363 . S
C411 H414 0.929 . S
C412 C411 1.363 . S
C412 C418 1.428 1_565 S
H413 C409 0.930 . S
H414 C411 0.929 . S
S415 N416 1.613 . S
S415 N417 1.610 . S
N416 S415 1.613 . S
N416 C419 1.350 . S
N417 S415 1.610 . S
N417 C418 1.351 . S
C418 C412 1.428 1_545 S
C418 N417 1.351 . S
C418 C419 1.434 . S
C419 C410 1.429 . S
C419 N416 1.350 . S
C419 C418 1.434 . S
C420 C421 1.369 . S
C420 C422 1.419 . S
C420 H424 0.930 . S
C421 C420 1.369 . S
C421 C430 1.429 . S
C422 C420 1.419 . S
C422 C423 1.363 . S
C422 H425 0.929 . S
C423 C422 1.363 . S
C423 C429 1.428 . S
H424 C420 0.930 . S
H425 C422 0.929 . S
S426 N427 1.613 . S
S426 N428 1.610 . S
N427 S426 1.613 . S
N427 C430 1.350 . S
N428 S426 1.610 . S
N428 C429 1.351 . S
C429 C423 1.428 . S
C429 N428 1.351 . S
C429 C430 1.434 . S
C430 C421 1.429 . S
C430 N427 1.350 . S
C430 C429 1.434 . S
C431 C432 1.369 . S
C431 C433 1.419 . S
C431 H435 0.930 . S
C432 C431 1.369 . S
C432 C441 1.429 . S
C433 C431 1.419 . S
C433 C434 1.363 . S
C433 H436 0.929 . S
C434 C433 1.363 . S
C434 C440 1.428 . S
H435 C431 0.930 . S
H436 C433 0.929 . S
S437 N438 1.613 . S
S437 N439 1.610 . S
N438 S437 1.613 . S
N438 C441 1.350 . S
N439 S437 1.610 . S
N439 C440 1.351 . S
C440 C434 1.428 . S
C440 N439 1.351 . S
C440 C441 1.434 . S
C441 C432 1.429 . S
C441 N438 1.350 . S
C441 C440 1.434 . S
C442 C443 1.369 . S
C442 C444 1.419 . S
C442 H446 0.930 . S
C443 C442 1.369 . S
C443 C452 1.429 . S
C444 C442 1.419 . S
C444 C445 1.363 . S
C444 H447 0.929 . S
C445 C444 1.363 . S
C445 C451 1.428 . S
H446 C442 0.930 . S
H447 C444 0.929 . S
S448 N449 1.613 . S
S448 N450 1.610 . S
N449 S448 1.613 . S
N449 C452 1.350 . S
N450 S448 1.610 . S
N450 C451 1.351 . S
C451 C445 1.428 . S
C451 N450 1.351 . S
C451 C452 1.434 . S
C452 C443 1.429 . S
C452 N449 1.350 . S
C452 C451 1.434 . S
C453 C454 1.369 . S
C453 C455 1.419 . S
C453 H457 0.930 . S
C454 C453 1.369 . S
C454 C463 1.429 . S
C455 C453 1.419 . S
C455 C456 1.363 . S
C455 H458 0.929 . S
C456 C455 1.363 . S
C456 C462 1.428 . S
H457 C453 0.930 . S
H458 C455 0.929 . S
S459 N460 1.613 . S
S459 N461 1.610 . S
N460 S459 1.613 . S
N460 C463 1.350 . S
N461 S459 1.610 . S
N461 C462 1.351 . S
C462 C456 1.428 . S
C462 N461 1.351 . S
C462 C463 1.434 . S
C463 C454 1.429 . S
C463 N460 1.350 . S
C463 C462 1.434 . S
C464 C465 1.369 . S
C464 C466 1.419 . S
C464 H468 0.930 . S
C465 C464 1.369 . S
C465 C474 1.429 . S
C466 C464 1.419 . S
C466 C467 1.363 . S
C466 H469 0.929 . S
C467 C466 1.363 . S
C467 C473 1.428 . S
H468 C464 0.930 . S
H469 C466 0.929 . S
S470 N471 1.613 . S
S470 N472 1.610 . S
N471 S470 1.613 . S
N471 C474 1.350 . S
N472 S470 1.610 . S
N472 C473 1.351 . S
C473 C467 1.428 . S
C473 N472 1.351 . S
C473 C474 1.434 . S
C474 C465 1.429 . S
C474 N471 1.350 . S
C474 C473 1.434 . S
C475 C476 1.369 . S
C475 C477 1.419 . S
C475 H479 0.930 . S
C476 C475 1.369 . S
C476 C485 1.429 . S
C477 C475 1.419 . S
C477 C478 1.363 . S
C477 H480 0.929 . S
C478 C477 1.363 . S
C478 C484 1.428 . S
H479 C475 0.930 . S
H480 C477 0.929 . S
S481 N482 1.613 . S
S481 N483 1.610 . S
N482 S481 1.613 . S
N482 C485 1.350 . S
N483 S481 1.610 . S
N483 C484 1.351 . S
C484 C478 1.428 . S
C484 N483 1.351 . S
C484 C485 1.434 . S
C485 C476 1.429 . S
C485 N482 1.350 . S
C485 C484 1.434 . S
C190 C19 1.150 . S
C192 C167 1.155 . S
C201 C28 1.177 . S
C203 C172 1.167 . S
C212 C62 1.160 . S
C214 C133 1.158 . S
C223 C103 1.160 . S
C225 C49 1.148 . S
C234 C124 1.167 . S
C236 C4 1.169 . S
C245 C41 1.142 . S
C247 C83 1.153 . S
C256 C154 1.179 . S
C258 C109 1.167 . S
C267 C187 1.160 . S
C269 C70 1.150 . S
C278 C88 1.162 . S
C280 C146 1.174 . S
C289 C58 1.224 1_554 S
C291 C7 1.220 . S
C300 C37 1.244 . S
C302 C3 1.238 1_554 S
C311 C25 1.189 1_554 S
C313 C46 1.194 . S
C322 C67 1.223 . S
C324 C108 1.228 . S
C333 C79 1.220 . S
C335 C91 1.219 . S
C344 C87 1.233 . S
C346 C112 1.227 . S
C355 C171 1.222 . S
C357 C130 1.210 . S
C366 C163 1.250 . S
C368 C142 1.246 . S
C377 C175 1.205 . S
C379 C151 1.197 . S
C388 C20 1.452 . S
C390 C16 1.460 . S
C399 C24 1.448 . S
C401 C40 1.452 . S
C410 C61 1.442 . S
C412 C45 1.450 . S
C421 C66 1.455 . S
C423 C82 1.451 1_556 S
C432 C100 1.457 . S
C434 C104 1.447 1_556 S
C443 C121 1.457 . S
C445 C125 1.448 1_556 S
C454 C145 1.450 . S
C456 C129 1.458 1_554 S
C465 C166 1.446 1_554 S
C467 C150 1.451 . S
C476 C188 1.450 . S
C478 C184 1.445 1_554 S
