# Generated by pormake.
# Topology pcb, (4)-cn, num edge types: 1
# Building blocks:
#     Node 0, Type 0, BuildingBlock: GALJAG_clean_sbu_0, # of connection points: 4
#     Node 1, Type 0, BuildingBlock: GALJAG_clean_sbu_0, # of connection points: 4
#     Node 2, Type 0, BuildingBlock: GALJAG_clean_sbu_0, # of connection points: 4
#     Node 3, Type 0, BuildingBlock: GALJAG_clean_sbu_0, # of connection points: 4
#     Node 4, Type 0, BuildingBlock: GALJAG_clean_sbu_0, # of connection points: 4
#     Node 5, Type 0, BuildingBlock: GALJAG_clean_sbu_0, # of connection points: 4
#     Node 6, Type 0, BuildingBlock: GALJAG_clean_sbu_0, # of connection points: 4
#     Node 7, Type 0, BuildingBlock: GALJAG_clean_sbu_0, # of connection points: 4
#     Node 8, Type 0, BuildingBlock: GALJAG_clean_sbu_0, # of connection points: 4
#     Node 9, Type 0, BuildingBlock: GALJAG_clean_sbu_0, # of connection points: 4
#     Node 10, Type 0, BuildingBlock: GALJAG_clean_sbu_0, # of connection points: 4
#     Node 11, Type 0, BuildingBlock: GALJAG_clean_sbu_0, # of connection points: 4
#     Node 12, Type 0, BuildingBlock: GALJAG_clean_sbu_0, # of connection points: 4
#     Node 13, Type 0, BuildingBlock: GALJAG_clean_sbu_0, # of connection points: 4
#     Node 14, Type 0, BuildingBlock: GALJAG_clean_sbu_0, # of connection points: 4
#     Node 15, Type 0, BuildingBlock: GALJAG_clean_sbu_0, # of connection points: 4
#     Edge 16, Type (0, 0), BuildingBlock: EZIPEK_clean_linker_0, # of connection points: 2
#     Edge 17, Type (0, 0), BuildingBlock: EZIPEK_clean_linker_0, # of connection points: 2
#     Edge 18, Type (0, 0), BuildingBlock: EZIPEK_clean_linker_0, # of connection points: 2
#     Edge 19, Type (0, 0), BuildingBlock: EZIPEK_clean_linker_0, # of connection points: 2
#     Edge 20, Type (0, 0), BuildingBlock: EZIPEK_clean_linker_0, # of connection points: 2
#     Edge 21, Type (0, 0), BuildingBlock: EZIPEK_clean_linker_0, # of connection points: 2
#     Edge 22, Type (0, 0), BuildingBlock: EZIPEK_clean_linker_0, # of connection points: 2
#     Edge 23, Type (0, 0), BuildingBlock: EZIPEK_clean_linker_0, # of connection points: 2
#     Edge 24, Type (0, 0), BuildingBlock: EZIPEK_clean_linker_0, # of connection points: 2
#     Edge 25, Type (0, 0), BuildingBlock: EZIPEK_clean_linker_0, # of connection points: 2
#     Edge 26, Type (0, 0), BuildingBlock: EZIPEK_clean_linker_0, # of connection points: 2
#     Edge 27, Type (0, 0), BuildingBlock: EZIPEK_clean_linker_0, # of connection points: 2
#     Edge 28, Type (0, 0), BuildingBlock: EZIPEK_clean_linker_0, # of connection points: 2
#     Edge 29, Type (0, 0), BuildingBlock: EZIPEK_clean_linker_0, # of connection points: 2
#     Edge 30, Type (0, 0), BuildingBlock: EZIPEK_clean_linker_0, # of connection points: 2
#     Edge 31, Type (0, 0), BuildingBlock: EZIPEK_clean_linker_0, # of connection points: 2
#     Edge 32, Type (0, 0), BuildingBlock: EZIPEK_clean_linker_0, # of connection points: 2
#     Edge 33, Type (0, 0), BuildingBlock: EZIPEK_clean_linker_0, # of connection points: 2
#     Edge 34, Type (0, 0), BuildingBlock: EZIPEK_clean_linker_0, # of connection points: 2
#     Edge 35, Type (0, 0), BuildingBlock: EZIPEK_clean_linker_0, # of connection points: 2
#     Edge 36, Type (0, 0), BuildingBlock: EZIPEK_clean_linker_0, # of connection points: 2
#     Edge 37, Type (0, 0), BuildingBlock: EZIPEK_clean_linker_0, # of connection points: 2
#     Edge 38, Type (0, 0), BuildingBlock: EZIPEK_clean_linker_0, # of connection points: 2
#     Edge 39, Type (0, 0), BuildingBlock: EZIPEK_clean_linker_0, # of connection points: 2
#     Edge 40, Type (0, 0), BuildingBlock: EZIPEK_clean_linker_0, # of connection points: 2
#     Edge 41, Type (0, 0), BuildingBlock: EZIPEK_clean_linker_0, # of connection points: 2
#     Edge 42, Type (0, 0), BuildingBlock: EZIPEK_clean_linker_0, # of connection points: 2
#     Edge 43, Type (0, 0), BuildingBlock: EZIPEK_clean_linker_0, # of connection points: 2
#     Edge 44, Type (0, 0), BuildingBlock: EZIPEK_clean_linker_0, # of connection points: 2
#     Edge 45, Type (0, 0), BuildingBlock: EZIPEK_clean_linker_0, # of connection points: 2
#     Edge 46, Type (0, 0), BuildingBlock: EZIPEK_clean_linker_0, # of connection points: 2
#     Edge 47, Type (0, 0), BuildingBlock: EZIPEK_clean_linker_0, # of connection points: 2
# Relax obj value: 0.356
# Max RMSD: 0.193
# Mean RMSD: 0.171
data_MOF--net-pcb--node1-GALJAG_clean_sbu_0--edge1-EZIPEK_clean_linker_0
_symmetry_space_group_name_H-M    P1
_symmetry_Int_Tables_number       1
_symmetry_cell_setting            triclinic
loop_
_symmetry_equiv_pos_as_xyz
'x, y, z'
_cell_length_a     27.951327
_cell_length_b     35.422952
_cell_length_c     35.500561
_cell_angle_alpha  99.111589
_cell_angle_beta   95.827145
_cell_angle_gamma 95.841804
loop_
_atom_site_label
_atom_site_type_symbol
_atom_site_fract_x
_atom_site_fract_y
_atom_site_fract_z
_atom_type_partial_charge
In0 In 0.20566 0.1301 0.11052 0.0
O1 O 0.23509 0.15945 0.17106 0.0
O2 O 0.21012 0.19449 0.13136 0.0
C3 C 0.24021 0.06698 0.12897 0.0
C4 C 0.1099 0.12752 0.11471 0.0
C5 C 0.23507 0.13414 0.04136 0.0
O6 O 0.26569 0.0994 0.13638 0.0
O7 O 0.1986 0.06626 0.11121 0.0
O8 O 0.19816 0.11259 0.04592 0.0
O9 O 0.25872 0.15298 0.07186 0.0
C10 C 0.22658 0.19241 0.16523 0.0
O11 O 0.13057 0.14544 0.09171 0.0
O12 O 0.13691 0.10969 0.13437 0.0
In13 In 0.81452 0.13316 0.14295 0.0
O14 O 0.81302 0.17171 0.20009 0.0
O15 O 0.74569 0.14468 0.16866 0.0
C16 C 0.90936 0.13311 0.13763 0.0
C17 C 0.79104 0.05815 0.14294 0.0
C18 C 0.79494 0.17508 0.08812 0.0
O19 O 0.8939 0.1473 0.16842 0.0
O20 O 0.87728 0.11922 0.11 0.0
O21 O 0.7837 0.13902 0.08279 0.0
O22 O 0.81437 0.19008 0.12143 0.0
C23 C 0.76732 0.16749 0.19768 0.0
O24 O 0.77019 0.07557 0.11876 0.0
O25 O 0.82194 0.07892 0.1681 0.0
In26 In 0.80281 0.82011 0.1201 0.0
O27 O 0.77695 0.80195 0.17371 0.0
O28 O 0.78734 0.75778 0.1279 0.0
C29 C 0.79191 0.89522 0.13446 0.0
C30 C 0.89881 0.8191 0.13109 0.0
C31 C 0.75156 0.80747 0.05015 0.0
O32 O 0.76246 0.8701 0.14415 0.0
O33 O 0.82702 0.88254 0.11911 0.0
O34 O 0.79701 0.80851 0.05518 0.0
O35 O 0.73141 0.80988 0.08047 0.0
C36 C 0.77589 0.76643 0.16137 0.0
O37 O 0.87397 0.80537 0.09923 0.0
O38 O 0.87534 0.83283 0.15753 0.0
In39 In 0.20311 0.84305 0.15305 0.0
O40 O 0.13273 0.86601 0.16634 0.0
O41 O 0.13027 0.80632 0.14246 0.0
C42 C 0.23629 0.9181 0.1622 0.0
C43 C 0.24029 0.80622 0.20769 0.0
C44 C 0.2118 0.81935 0.07828 0.0
O45 O 0.19288 0.90501 0.15046 0.0
O46 O 0.26324 0.89374 0.17142 0.0
O47 O 0.24381 0.84236 0.10022 0.0
O48 O 0.1773 0.80644 0.09446 0.0
C49 C 0.10727 0.834 0.15399 0.0
O50 O 0.25618 0.80501 0.17562 0.0
O51 O 0.20674 0.82696 0.21262 0.0
In52 In 0.14412 0.81816 0.84302 0.0
O53 O 0.1534 0.76222 0.80492 0.0
O54 O 0.2149 0.80481 0.82197 0.0
C55 C 0.04745 0.81346 0.84047 0.0
C56 C 0.17559 0.81111 0.91486 0.0
C57 C 0.15483 0.88507 0.81722 0.0
O58 O 0.06746 0.79314 0.8155 0.0
O59 O 0.07593 0.83446 0.86705 0.0
O60 O 0.16391 0.88242 0.85212 0.0
O61 O 0.14081 0.85379 0.79469 0.0
C62 C 0.19776 0.77214 0.8034 0.0
O63 O 0.19081 0.839 0.89947 0.0
O64 O 0.14518 0.78578 0.89366 0.0
In65 In 0.1703 0.11861 0.81107 0.0
O66 O 0.09062 0.11434 0.78791 0.0
O67 O 0.11616 0.1536 0.8397 0.0
C68 C 0.16617 0.04196 0.79549 0.0
C69 C 0.2068 0.15733 0.75944 0.0
C70 C 0.21581 0.13083 0.88296 0.0
O71 O 0.13046 0.05948 0.78741 0.0
O72 O 0.20504 0.06315 0.80912 0.0
O73 O 0.2364 0.14175 0.85579 0.0
O74 O 0.17333 0.11411 0.87378 0.0
C75 C 0.08075 0.13851 0.81526 0.0
O76 O 0.19059 0.17368 0.78875 0.0
O77 O 0.20562 0.12133 0.7562 0.0
In78 In 0.80587 0.18485 0.87326 0.0
O79 O 0.8873 0.1852 0.88455 0.0
O80 O 0.85309 0.16567 0.82718 0.0
C81 C 0.78743 0.21396 0.94443 0.0
C82 C 0.78269 0.23849 0.83201 0.0
C83 C 0.77005 0.11058 0.86539 0.0
O84 O 0.82932 0.21582 0.93401 0.0
O85 O 0.75463 0.19727 0.91837 0.0
O86 O 0.75069 0.13323 0.84599 0.0
O87 O 0.8061 0.12563 0.88919 0.0
C88 C 0.8917 0.17209 0.85005 0.0
O89 O 0.7566 0.20661 0.82869 0.0
O90 O 0.81921 0.24381 0.85693 0.0
In91 In 0.7643 0.87276 0.8442 0.0
O92 O 0.71179 0.83233 0.79922 0.0
O93 O 0.76815 0.86611 0.7801 0.0
C94 C 0.73303 0.84782 0.90583 0.0
C95 C 0.85173 0.8477 0.84326 0.0
C96 C 0.74904 0.94714 0.85236 0.0
O97 O 0.70895 0.83881 0.87303 0.0
O98 O 0.77135 0.87047 0.9078 0.0
O99 O 0.78901 0.93651 0.86328 0.0
O100 O 0.7159 0.92036 0.83805 0.0
C101 C 0.73216 0.84067 0.77095 0.0
O102 O 0.84517 0.88184 0.84013 0.0
O103 O 0.81448 0.82621 0.8473 0.0
In104 In 0.73659 0.64334 0.61432 0.0
O105 O 0.75886 0.68602 0.67013 0.0
O106 O 0.72549 0.7064 0.62175 0.0
C107 C 0.77569 0.58219 0.63392 0.0
C108 C 0.64201 0.6286 0.62094 0.0
C109 C 0.77064 0.64991 0.54766 0.0
O110 O 0.79406 0.61612 0.64847 0.0
O111 O 0.73981 0.57959 0.60872 0.0
O112 O 0.73047 0.63122 0.5498 0.0
O113 O 0.79503 0.66492 0.57937 0.0
C114 C 0.74218 0.71363 0.65673 0.0
O115 O 0.65671 0.6389 0.59125 0.0
O116 O 0.67478 0.62384 0.64624 0.0
In117 In 0.3506 0.626 0.66446 0.0
O118 O 0.35398 0.67419 0.71553 0.0
O119 O 0.28493 0.65123 0.68428 0.0
C120 C 0.44451 0.62415 0.65557 0.0
C121 C 0.32908 0.55872 0.68773 0.0
C122 C 0.32164 0.64358 0.59587 0.0
O123 O 0.43019 0.65042 0.67864 0.0
O124 O 0.41184 0.59841 0.63807 0.0
O125 O 0.30123 0.61524 0.60809 0.0
O126 O 0.35489 0.66418 0.61902 0.0
C127 C 0.30868 0.67475 0.71175 0.0
O128 O 0.31677 0.56419 0.65405 0.0
O129 O 0.3514 0.58761 0.71036 0.0
In130 In 0.3039 0.32691 0.63922 0.0
O131 O 0.37477 0.3221 0.61355 0.0
O132 O 0.37736 0.32902 0.67443 0.0
C133 C 0.24991 0.32821 0.57256 0.0
C134 C 0.27099 0.26442 0.66667 0.0
C135 C 0.30163 0.3997 0.6725 0.0
O136 O 0.29104 0.31653 0.5743 0.0
O137 O 0.23433 0.33731 0.60446 0.0
O138 O 0.27539 0.37231 0.68177 0.0
O139 O 0.32838 0.39029 0.64699 0.0
C140 C 0.40043 0.32611 0.64558 0.0
O141 O 0.27466 0.29792 0.6857 0.0
O142 O 0.28307 0.26205 0.63321 0.0
In143 In 0.70544 0.36259 0.6585 0.0
O144 O 0.73827 0.31604 0.6855 0.0
O145 O 0.72254 0.36524 0.72297 0.0
C146 C 0.70868 0.33491 0.58432 0.0
C147 C 0.60942 0.34902 0.66028 0.0
C148 C 0.75507 0.43223 0.66159 0.0
O149 O 0.73574 0.32441 0.61047 0.0
O150 O 0.68095 0.3591 0.59564 0.0
O151 O 0.71108 0.42754 0.66678 0.0
O152 O 0.77521 0.40183 0.65647 0.0
C153 C 0.73749 0.33264 0.71952 0.0
O154 O 0.63261 0.38218 0.67047 0.0
O155 O 0.63474 0.32256 0.65021 0.0
In156 In 0.64765 0.32527 0.35194 0.0
O157 O 0.68451 0.34515 0.41256 0.0
O158 O 0.65586 0.28601 0.3967 0.0
C159 C 0.67697 0.39225 0.33037 0.0
C160 C 0.67896 0.26999 0.30358 0.0
C161 C 0.55358 0.33262 0.3557 0.0
O162 O 0.70338 0.37709 0.35327 0.0
O163 O 0.63679 0.37293 0.31706 0.0
O164 O 0.56848 0.31546 0.32596 0.0
O165 O 0.58578 0.34524 0.38361 0.0
C166 C 0.67691 0.31273 0.42263 0.0
O167 O 0.6366 0.26678 0.31291 0.0
O168 O 0.70525 0.30081 0.31835 0.0
In169 In 0.70182 0.62567 0.32042 0.0
O170 O 0.73526 0.67835 0.30001 0.0
O171 O 0.71297 0.62792 0.258 0.0
C172 C 0.75203 0.64701 0.39068 0.0
C173 C 0.61 0.63929 0.32792 0.0
C174 C 0.7055 0.54934 0.3063 0.0
O175 O 0.77269 0.63704 0.36138 0.0
O176 O 0.70722 0.64841 0.38418 0.0
O177 O 0.66831 0.56425 0.29603 0.0
O178 O 0.74174 0.57298 0.3212 0.0
C179 C 0.73067 0.66288 0.26516 0.0
O180 O 0.62779 0.61108 0.33904 0.0
O181 O 0.63846 0.66104 0.3131 0.0
In182 In 0.31926 0.65998 0.36325 0.0
O183 O 0.39903 0.68293 0.37428 0.0
O184 O 0.37692 0.6343 0.32983 0.0
C185 C 0.31506 0.66628 0.43915 0.0
C186 C 0.29317 0.71101 0.31906 0.0
C187 C 0.26366 0.59196 0.34575 0.0
O188 O 0.3479 0.65159 0.42237 0.0
O189 O 0.2849 0.6803 0.41802 0.0
O190 O 0.24591 0.62303 0.35474 0.0
O191 O 0.30869 0.59561 0.34373 0.0
C192 C 0.41122 0.65789 0.34875 0.0
O193 O 0.27762 0.67573 0.31135 0.0
O194 O 0.32051 0.72123 0.3503 0.0
In195 In 0.25917 0.36796 0.35728 0.0
O196 O 0.33604 0.38479 0.34458 0.0
O197 O 0.32473 0.33989 0.37716 0.0
C198 C 0.23212 0.43664 0.34908 0.0
C199 C 0.23731 0.31545 0.29336 0.0
C200 C 0.22493 0.35639 0.42279 0.0
O201 O 0.27305 0.4326 0.36535 0.0
O202 O 0.20375 0.40601 0.33735 0.0
O203 O 0.20086 0.3432 0.39049 0.0
O204 O 0.26437 0.37671 0.42183 0.0
C205 C 0.35404 0.35974 0.36128 0.0
O206 O 0.23579 0.30684 0.32637 0.0
O207 O 0.24652 0.35081 0.29244 0.0
C208 C 0.19183 0.2578 0.25048 0.0
C209 C 0.23305 0.28579 0.25875 0.0
C210 C 0.26701 0.25518 0.2023 0.0
C211 C 0.22868 0.22484 0.19692 0.0
N212 N 0.15718 0.19424 0.21797 0.0
N213 N 0.31411 0.3078 0.2467 0.0
C214 C 0.19183 0.2252 0.22166 0.0
C215 C 0.27171 0.28389 0.23562 0.0
N216 N 0.15195 0.26319 0.26915 0.0
N217 N 0.299 0.25648 0.17571 0.0
H218 H 0.31999 0.32867 0.27143 0.0
H219 H 0.3453 0.30461 0.23334 0.0
H220 H 0.2978 0.23502 0.15171 0.0
H221 H 0.32438 0.28019 0.17588 0.0
H222 H 0.11892 0.24584 0.26152 0.0
H223 H 0.15029 0.28729 0.28989 0.0
H224 H 0.1329 0.19104 0.23795 0.0
H225 H 0.15459 0.1703 0.1963 0.0
C226 C 0.72944 0.21632 0.29088 0.0
C227 C 0.69672 0.24026 0.27668 0.0
C228 C 0.70984 0.2162 0.21071 0.0
C229 C 0.74096 0.19088 0.22469 0.0
N230 N 0.77315 0.16101 0.27667 0.0
N231 N 0.64805 0.25809 0.22375 0.0
C232 C 0.74872 0.18923 0.26444 0.0
C233 C 0.68417 0.23838 0.23676 0.0
N234 N 0.74259 0.21996 0.32958 0.0
N235 N 0.70736 0.22112 0.17311 0.0
H236 H 0.62959 0.27585 0.24204 0.0
H237 H 0.63361 0.25439 0.19501 0.0
H238 H 0.72666 0.20648 0.15305 0.0
H239 H 0.68967 0.24239 0.16244 0.0
H240 H 0.77058 0.20669 0.34153 0.0
H241 H 0.72721 0.23809 0.34988 0.0
H242 H 0.77597 0.1559 0.30484 0.0
H243 H 0.78711 0.14034 0.25789 0.0
C244 C 0.72075 0.71321 0.17821 0.0
C245 C 0.76553 0.73727 0.18561 0.0
C246 C 0.79087 0.70529 0.2392 0.0
C247 C 0.74373 0.6851 0.23519 0.0
N248 N 0.66123 0.67331 0.20414 0.0
N249 N 0.84195 0.75932 0.22501 0.0
C250 C 0.70803 0.68951 0.20525 0.0
C251 C 0.8003 0.7342 0.21664 0.0
N252 N 0.69017 0.71336 0.14564 0.0
N253 N 0.82698 0.69589 0.26376 0.0
H254 H 0.85107 0.78019 0.20847 0.0
H255 H 0.86591 0.76132 0.24989 0.0
H256 H 0.82152 0.67407 0.28002 0.0
H257 H 0.86323 0.7069 0.26519 0.0
H258 H 0.6596 0.69335 0.13655 0.0
H259 H 0.69721 0.7317 0.12607 0.0
H260 H 0.63261 0.6793 0.18574 0.0
H261 H 0.64989 0.65633 0.22375 0.0
C262 C 0.28527 0.72376 0.25179 0.0
C263 C 0.28346 0.73717 0.29139 0.0
C264 C 0.26428 0.79922 0.27611 0.0
C265 C 0.25725 0.78307 0.23641 0.0
N266 N 0.24957 0.72571 0.1877 0.0
N267 N 0.26281 0.78611 0.34077 0.0
C268 C 0.26467 0.74418 0.22444 0.0
C269 C 0.27085 0.77459 0.3036 0.0
N270 N 0.30799 0.6923 0.24013 0.0
N271 N 0.2663 0.83809 0.28762 0.0
H272 H 0.26511 0.76847 0.36158 0.0
H273 H 0.24894 0.81179 0.34989 0.0
H274 H 0.2642 0.85738 0.26833 0.0
H275 H 0.27562 0.85143 0.31615 0.0
H276 H 0.31354 0.68371 0.21158 0.0
H277 H 0.3265 0.67779 0.25926 0.0
H278 H 0.25065 0.69629 0.17915 0.0
H279 H 0.23057 0.73822 0.1671 0.0
C280 C 0.27237 0.73583 0.72504 0.0
C281 C 0.28455 0.70143 0.73712 0.0
C282 C 0.23924 0.713 0.7924 0.0
C283 C 0.2276 0.74777 0.78067 0.0
N284 N 0.23587 0.79496 0.73879 0.0
N285 N 0.28633 0.6589 0.78372 0.0
C286 C 0.24523 0.76009 0.74793 0.0
C287 C 0.26999 0.69049 0.77131 0.0
N288 N 0.28561 0.74451 0.69103 0.0
N289 N 0.22054 0.7015 0.82349 0.0
H290 H 0.30834 0.64151 0.76852 0.0
H291 H 0.28097 0.65107 0.81014 0.0
H292 H 0.20028 0.71835 0.84104 0.0
H293 H 0.22299 0.67457 0.83119 0.0
H294 H 0.2732 0.76655 0.67797 0.0
H295 H 0.30779 0.72842 0.67463 0.0
H296 H 0.2524 0.80788 0.71831 0.0
H297 H 0.21282 0.81219 0.75288 0.0
C298 C 0.18715 0.19847 0.71099 0.0
C299 C 0.22175 0.17881 0.72957 0.0
C300 C 0.28514 0.20644 0.69586 0.0
C301 C 0.25238 0.23086 0.68268 0.0
N302 N 0.17235 0.25056 0.6762 0.0
N303 N 0.30372 0.16399 0.74124 0.0
C304 C 0.20323 0.22675 0.68952 0.0
C305 C 0.27065 0.18212 0.72188 0.0
N306 N 0.13888 0.18933 0.71325 0.0
N307 N 0.33014 0.20699 0.6839 0.0
H308 H 0.29436 0.14575 0.76036 0.0
H309 H 0.34091 0.16881 0.74035 0.0
H310 H 0.34205 0.22506 0.6654 0.0
H311 H 0.35415 0.18743 0.68959 0.0
H312 H 0.11143 0.20006 0.69756 0.0
H313 H 0.12588 0.16814 0.72824 0.0
H314 H 0.13782 0.25251 0.68433 0.0
H315 H 0.18211 0.26979 0.65806 0.0
C316 C 0.80719 0.27444 0.78068 0.0
C317 C 0.77334 0.26634 0.80639 0.0
C318 C 0.71709 0.3052 0.77763 0.0
C319 C 0.75155 0.3141 0.75257 0.0
N320 N 0.83342 0.31588 0.73672 0.0
N321 N 0.70171 0.28045 0.83571 0.0
C322 C 0.79794 0.30143 0.75618 0.0
C323 C 0.72997 0.28375 0.80685 0.0
N324 N 0.84679 0.25485 0.77811 0.0
N325 N 0.67131 0.31538 0.77233 0.0
H326 H 0.71026 0.26496 0.85765 0.0
H327 H 0.67232 0.29583 0.83992 0.0
H328 H 0.66041 0.33185 0.75192 0.0
H329 H 0.64299 0.30531 0.78644 0.0
H330 H 0.86959 0.25644 0.75682 0.0
H331 H 0.85482 0.23439 0.79515 0.0
H332 H 0.86939 0.31066 0.7411 0.0
H333 H 0.82794 0.33631 0.71902 0.0
C334 C 0.68692 0.78362 0.7269 0.0
C335 C 0.72259 0.81576 0.73242 0.0
C336 C 0.76411 0.78427 0.68088 0.0
C337 C 0.73439 0.74947 0.68137 0.0
N338 N 0.66659 0.7154 0.70416 0.0
N339 N 0.77816 0.85366 0.70185 0.0
C340 C 0.69501 0.74905 0.70375 0.0
C341 C 0.75619 0.81837 0.70536 0.0
N342 N 0.64453 0.787 0.74246 0.0
N343 N 0.80112 0.78421 0.6585 0.0
H344 H 0.76833 0.87907 0.71655 0.0
H345 H 0.8011 0.85816 0.68125 0.0
H346 H 0.80728 0.75977 0.63985 0.0
H347 H 0.82742 0.80756 0.65993 0.0
H348 H 0.61514 0.76553 0.73708 0.0
H349 H 0.63673 0.81335 0.75675 0.0
H350 H 0.641 0.7126 0.72321 0.0
H351 H 0.67069 0.68948 0.68714 0.0
C352 C 0.24013 0.17128 0.94736 0.0
C353 C 0.23904 0.13552 0.92284 0.0
C354 C 0.25675 0.10409 0.97836 0.0
C355 C 0.24748 0.13766 0.00252 0.0
N356 N 0.23236 0.20419 0.0114 0.0
N357 N 0.25052 0.06845 0.91342 0.0
C358 C 0.24113 0.17197 0.98761 0.0
C359 C 0.24956 0.10219 0.93793 0.0
N360 N 0.23885 0.20419 0.93194 0.0
N361 N 0.27238 0.07424 -0.00561 0.0
H362 H 0.24833 0.06696 0.88368 0.0
H363 H 0.252 0.04189 0.92223 0.0
H364 H 0.27859 0.07563 0.02409 0.0
H365 H 0.28327 0.04985 0.97876 0.0
H366 H 0.24352 0.23171 0.94826 0.0
H367 H 0.23738 0.2041 0.90244 0.0
H368 H 0.2215 0.22857 0.0017 0.0
H369 H 0.23369 0.20605 0.04108 0.0
C370 C 0.73762 0.20605 -0.00129 0.0
C371 C 0.78015 0.22216 0.98577 0.0
C372 C 0.82777 0.22015 0.0464 0.0
C373 C 0.78779 0.19753 0.0568 0.0
N374 N 0.70163 0.17888 0.04976 0.0
N375 N 0.85405 0.2645 0.00504 0.0
C376 C 0.7414 0.19385 0.03516 0.0
C377 C 0.82127 0.23622 0.01253 0.0
N378 N 0.6943 0.20293 0.97624 0.0
N379 N 0.87282 0.22347 0.06647 0.0
H380 H 0.84815 0.27736 0.98071 0.0
H381 H 0.88326 0.27802 0.02481 0.0
H382 H 0.88034 0.21105 0.09073 0.0
H383 H 0.90381 0.23604 0.05712 0.0
H384 H 0.66212 0.18861 0.98178 0.0
H385 H 0.69038 0.21686 0.95251 0.0
H386 H 0.66643 0.17538 0.03602 0.0
H387 H 0.70366 0.17154 0.07717 0.0
C388 C 0.73212 0.79361 0.94278 0.0
C389 C 0.72019 0.83097 0.93934 0.0
C390 C 0.70295 0.84145 0.00606 0.0
C391 C 0.72615 0.80864 0.01175 0.0
N392 N 0.75512 0.74967 0.98577 0.0
N393 N 0.6914 0.89003 0.96593 0.0
C394 C 0.73741 0.78309 0.97987 0.0
C395 C 0.70385 0.8545 0.97031 0.0
N396 N 0.73975 0.76893 0.91083 0.0
N397 N 0.68059 0.86022 0.03469 0.0
H398 H 0.6892 0.8994 0.93944 0.0
H399 H 0.68546 0.91078 0.98867 0.0
H400 H 0.67762 0.85064 0.06067 0.0
H401 H 0.66031 0.88277 0.03123 0.0
H402 H 0.74547 0.74036 0.91074 0.0
H403 H 0.73694 0.77625 0.88345 0.0
H404 H 0.76943 0.73143 0.96502 0.0
H405 H 0.75607 0.74052 0.01237 0.0
C406 C 0.21689 0.78461 0.01177 0.0
C407 C 0.20661 0.81759 0.03641 0.0
C408 C 0.17131 0.84329 0.98148 0.0
C409 C 0.18561 0.81224 0.95652 0.0
N410 N 0.22668 0.75551 0.94668 0.0
N411 N 0.18128 0.88143 0.04497 0.0
C412 C 0.20961 0.78333 0.97128 0.0
C413 C 0.18631 0.84797 0.02131 0.0
N414 N 0.23293 0.7545 0.02711 0.0
N415 N 0.14086 0.86706 0.96742 0.0
H416 H 0.18976 0.88584 0.07467 0.0
H417 H 0.1724 0.90617 0.03482 0.0
H418 H 0.12748 0.86405 0.93847 0.0
H419 H 0.12468 0.8873 0.98487 0.0
H420 H 0.23623 0.72796 0.0108 0.0
H421 H 0.24036 0.75537 0.05667 0.0
H422 H 0.24866 0.73586 0.95573 0.0
H423 H 0.22168 0.75378 0.9169 0.0
C424 C 0.0263 0.09462 0.11412 0.0
C425 C 0.05849 0.1292 0.12024 0.0
C426 C 0.9925 0.16678 0.13721 0.0
C427 C 0.96126 0.13197 0.13386 0.0
N428 N 0.94989 0.06262 0.12614 0.0
N429 N 0.07496 0.19761 0.14403 0.0
C430 C 0.97857 0.0958 0.12426 0.0
C431 C 0.04238 0.16518 0.1335 0.0
N432 N 0.04076 0.06089 0.09724 0.0
N433 N 0.9742 0.20135 0.14239 0.0
H434 H 0.1118 0.19796 0.14151 0.0
H435 H 0.06626 0.22356 0.15833 0.0
H436 H 0.93804 0.20389 0.14594 0.0
H437 H 0.99395 0.22732 0.14023 0.0
H438 H 0.01734 0.03554 0.08825 0.0
H439 H 0.07532 0.05898 0.08896 0.0
H440 H 0.9622 0.03566 0.12339 0.0
H441 H 0.91492 0.06235 0.13402 0.0
C442 C 0.7792 0.95939 0.17167 0.0
C443 C 0.78369 0.9359 0.13626 0.0
C444 C 0.79121 -0.00759 0.10486 0.0
C445 C 0.78419 0.01587 0.13968 0.0
N446 N 0.76036 0.02094 0.20353 0.0
N447 N 0.77894 0.92849 0.06712 0.0
C448 C 0.77463 -0.00091 0.1723 0.0
C449 C 0.78476 0.95194 0.10218 0.0
N450 N 0.78185 0.94441 0.20489 0.0
N451 N 0.80744 0.00848 0.07522 0.0
H452 H 0.77328 0.89854 0.06388 0.0
H453 H 0.7745 0.93881 0.04123 0.0
H454 H 0.81529 0.03803 0.07623 0.0
H455 H 0.81807 -0.00772 0.05102 0.0
H456 H 0.7843 0.96122 0.23204 0.0
H457 H 0.7854 0.91552 0.20564 0.0
H458 H 0.74853 0.00948 0.22671 0.0
H459 H 0.75582 0.04995 0.20458 0.0
C460 C 0.97568 0.79944 0.16028 0.0
C461 C 0.95211 0.82199 0.13624 0.0
C462 C 0.03033 0.84975 0.12143 0.0
C463 C 0.05394 0.83022 0.14851 0.0
N464 N 0.05015 0.79024 0.19735 0.0
N465 N 0.95613 0.87285 0.09832 0.0
C466 C 0.02692 0.80601 0.16895 0.0
C467 C 0.97917 0.84831 0.11796 0.0
N468 N 0.94919 0.77081 0.17357 0.0
N469 N 0.05658 0.86825 0.09779 0.0
H470 H 0.91858 0.87247 0.09466 0.0
H471 H 0.97437 0.89568 0.08829 0.0
H472 H 0.09417 0.86966 0.09899 0.0
H473 H 0.04082 0.87921 0.07461 0.0
H474 H 0.96457 0.75092 0.18821 0.0
H475 H 0.91172 0.76471 0.16686 0.0
H476 H 0.03213 0.77563 0.21602 0.0
H477 H 0.0877 0.79442 0.20434 0.0
C478 C 0.27297 0.00383 0.11788 0.0
C479 C 0.2552 0.03266 0.1432 0.0
C480 C 0.2402 0.98802 0.1878 0.0
C481 C 0.25409 0.95839 0.16096 0.0
N482 N 0.2958 0.93901 0.10629 0.0
N483 N 0.2343 0.05633 0.20603 0.0
C484 C 0.27499 0.96677 0.12803 0.0
C485 C 0.24332 0.02613 0.17968 0.0
N486 N 0.28568 0.01161 0.08348 0.0
N487 N 0.22198 0.97909 0.22003 0.0
H488 H 0.23607 0.08447 0.2005 0.0
H489 H 0.22884 0.05429 0.23423 0.0
H490 H 0.22181 0.95169 0.22741 0.0
H491 H 0.20589 -0.00186 0.2388 0.0
H492 H 0.2935 0.99089 0.06147 0.0
H493 H 0.28691 0.03918 0.07649 0.0
H494 H 0.31452 0.94374 0.08328 0.0
H495 H 0.2979 0.91173 0.11338 0.0
C496 C 0.92139 0.83484 0.80649 0.0
C497 C 0.89934 0.83361 0.84056 0.0
C498 C 0.96999 0.80835 0.86941 0.0
C499 C -0.00521 0.81548 0.83786 0.0
N500 N -0.00369 0.84019 0.7782 0.0
N501 N 0.90321 0.82199 0.90593 0.0
C502 C 0.971 0.82954 0.80659 0.0
C503 C 0.9235 0.82066 0.87234 0.0
N504 N 0.89459 0.8402 0.77375 0.0
N505 N 0.99076 0.78931 0.89623 0.0
H506 H 0.8692 0.83084 0.90926 0.0
H507 H 0.92153 0.81712 0.93142 0.0
H508 H 0.0246 0.77953 0.89454 0.0
H509 H 0.97272 0.77999 0.91797 0.0
H510 H 0.90745 0.83741 0.74703 0.0
H511 H 0.85785 0.84354 0.77246 0.0
H512 H 0.98205 0.85499 0.75738 0.0
H513 H 0.03287 0.83724 0.77707 0.0
C514 C 0.18878 0.93714 0.78364 0.0
C515 C 0.15336 0.92279 0.80532 0.0
C516 C 0.12662 0.98614 0.82003 0.0
C517 C 0.16028 0.00048 0.7968 0.0
N518 N 0.21729 0.98884 0.75094 0.0
N519 N 0.07972 0.93011 0.8342 0.0
C520 C 0.18956 0.97569 0.77679 0.0
C521 C 0.11929 0.94619 0.82016 0.0
N522 N 0.22267 0.91451 0.77103 0.0
N523 N 0.10431 0.01077 0.84426 0.0
H524 H 0.07286 0.9006 0.83415 0.0
H525 H 0.05125 0.94538 0.84194 0.0
H526 H 0.11089 0.04064 0.84738 0.0
H527 H 0.08333 0.00172 0.86454 0.0
H528 H 0.25266 0.92464 0.75876 0.0
H529 H 0.22228 0.88591 0.77493 0.0
H530 H 0.23601 0.97121 0.73285 0.0
H531 H 0.21838 0.01694 0.74532 0.0
C532 C 0.01948 0.18492 0.82291 0.0
C533 C 0.03082 0.14654 0.8202 0.0
C534 C 0.94795 0.12442 0.83039 0.0
C535 C 0.93857 0.16331 0.8377 0.0
N536 N 0.96494 0.23114 0.84336 0.0
N537 N 0.00851 0.08027 0.8265 0.0
C538 C 0.97423 0.19378 0.83465 0.0
C539 C -0.00437 0.11627 0.82483 0.0
N540 N 0.05133 0.21251 0.8129 0.0
N541 N 0.91141 0.09526 0.82905 0.0
H542 H 0.04317 0.07298 0.82317 0.0
H543 H 0.98608 0.05832 0.83446 0.0
H544 H 0.8765 0.09994 0.83496 0.0
H545 H 0.91463 0.06642 0.8193 0.0
H546 H 0.04337 0.24018 0.81061 0.0
H547 H 0.08441 0.20674 0.80344 0.0
H548 H 0.99124 0.25474 0.84608 0.0
H549 H 0.93129 0.23864 0.85008 0.0
C550 C 0.74728 0.00469 0.82032 0.0
C551 C 0.74329 0.98822 0.85389 0.0
C552 C 0.74215 0.05209 0.89177 0.0
C553 C 0.75412 0.06882 0.85967 0.0
N554 N 0.77272 0.06146 0.79406 0.0
N555 N 0.73724 -0.00498 0.92175 0.0
C556 C 0.75701 0.04532 0.82384 0.0
C557 C 0.74038 0.01157 0.88967 0.0
N558 N 0.74265 0.98147 0.78518 0.0
N559 N 0.73171 0.07504 0.92391 0.0
H560 H 0.73329 0.96524 0.92075 0.0
H561 H 0.74085 0.01066 0.94951 0.0
H562 H 0.7319 0.10478 0.92592 0.0
H563 H 0.71866 0.06445 0.94712 0.0
H564 H 0.74013 -0.00811 0.75931 0.0
H565 H 0.73707 0.95149 0.78163 0.0
H566 H 0.78146 0.04544 0.76902 0.0
H567 H 0.78084 0.09102 0.79529 0.0
C568 C 0.77409 0.68781 0.45482 0.0
C569 C 0.77614 0.65245 0.43043 0.0
C570 C 0.79839 0.62265 0.48632 0.0
C571 C 0.78563 0.65503 0.51007 0.0
N572 N 0.7655 0.72005 0.51901 0.0
N573 N 0.79287 0.58619 0.42204 0.0
C574 C 0.77595 0.68857 0.49507 0.0
C575 C 0.79051 0.62012 0.44583 0.0
N576 N 0.76973 0.72027 0.4391 0.0
N577 N 0.8173 0.59425 0.50281 0.0
H578 H 0.7892 0.58341 0.39224 0.0
H579 H 0.79645 0.56025 0.4317 0.0
H580 H 0.82333 0.59606 0.53258 0.0
H581 H 0.8311 0.57108 0.4875 0.0
H582 H 0.77141 0.74771 0.4552 0.0
H583 H 0.7687 0.71999 0.40957 0.0
H584 H 0.75246 0.7438 0.50949 0.0
H585 H 0.76843 0.7218 0.54879 0.0
C586 C 0.31782 0.61791 0.52587 0.0
C587 C 0.31302 0.64878 0.55545 0.0
C588 C 0.30629 0.69216 0.50824 0.0
C589 C 0.30851 0.66062 0.47868 0.0
N590 N 0.30105 0.59162 0.45838 0.0
N591 N 0.29229 0.71293 0.5743 0.0
C592 C 0.30917 0.62289 0.48722 0.0
C593 C 0.30395 0.68526 0.54648 0.0
N594 N 0.33417 0.58475 0.53438 0.0
N595 N 0.30887 0.72874 0.50025 0.0
H596 H 0.28944 0.70839 0.60236 0.0
H597 H 0.281 0.73885 0.56875 0.0
H598 H 0.31055 0.73483 0.4726 0.0
H599 H 0.31287 0.75322 0.52139 0.0
H600 H 0.34326 0.56334 0.51355 0.0
H601 H 0.34389 0.58013 0.56224 0.0
H602 H 0.29608 0.56337 0.46345 0.0
H603 H 0.29401 0.59387 0.42948 0.0
C604 C 0.2096 0.37742 0.48986 0.0
C605 C 0.21135 0.34668 0.45952 0.0
C606 C 0.21495 0.30202 0.5054 0.0
C607 C 0.22486 0.33394 0.53563 0.0
N608 N 0.23021 0.40259 0.55768 0.0
N609 N 0.21349 0.27881 0.43735 0.0
C610 C 0.2204 0.37179 0.52838 0.0
C611 C 0.21193 0.30844 0.4668 0.0
N612 N 0.1984 0.41205 0.48149 0.0
N613 N 0.20908 0.26566 0.51391 0.0
H614 H 0.21014 0.28196 0.40857 0.0
H615 H 0.22041 0.25134 0.44149 0.0
H616 H 0.21101 0.26061 0.5422 0.0
H617 H 0.19774 0.24111 0.49339 0.0
H618 H 0.19256 0.43492 0.50216 0.0
H619 H 0.19025 0.41641 0.45324 0.0
H620 H 0.23358 0.4311 0.55342 0.0
H621 H 0.2376 0.39986 0.5864 0.0
C622 C 0.65012 0.29784 0.48442 0.0
C623 C 0.68817 0.30801 0.46294 0.0
C624 C 0.74444 0.32738 0.52198 0.0
C625 C 0.70592 0.31846 0.5433 0.0
N626 N 0.62791 0.28385 0.54544 0.0
N627 N 0.77357 0.32174 0.45941 0.0
C628 C 0.6607 0.29969 0.52457 0.0
C629 C 0.73616 0.31918 0.48121 0.0
N630 N 0.60334 0.2894 0.46725 0.0
N631 N 0.78784 0.34563 0.54055 0.0
H632 H 0.76831 0.31533 0.42944 0.0
H633 H 0.80988 0.32657 0.47089 0.0
H634 H 0.79558 0.35084 0.57039 0.0
H635 H 0.81528 0.35727 0.52653 0.0
H636 H 0.57368 0.28661 0.48257 0.0
H637 H 0.59337 0.28797 0.43795 0.0
H638 H 0.59595 0.26674 0.53303 0.0
H639 H 0.63526 0.28449 0.57497 0.0
C640 C 0.56729 0.5926 0.63725 0.0
C641 C 0.59075 0.62672 0.62792 0.0
C642 C 0.51675 0.65761 0.63321 0.0
C643 C 0.49508 0.62516 0.64675 0.0
N644 N 0.50167 0.56379 0.66697 0.0
N645 N 0.59107 0.69445 0.62451 0.0
C646 C 0.52082 0.59309 0.65014 0.0
C647 C 0.56641 0.65999 0.62786 0.0
N648 N 0.58877 0.55943 0.63261 0.0
N649 N 0.48948 0.68541 0.62368 0.0
H650 H 0.62766 0.69798 0.62087 0.0
H651 H 0.57638 0.72044 0.62911 0.0
H652 H 0.45259 0.68455 0.62619 0.0
H653 H 0.50235 0.70735 0.6096 0.0
H654 H 0.57134 0.53269 0.63514 0.0
H655 H 0.62254 0.55793 0.62273 0.0
H656 H 0.52084 0.54164 0.67392 0.0
H657 H 0.46797 0.56339 0.67715 0.0
C658 C 0.35734 0.50008 0.71017 0.0
C659 C 0.3188 0.52045 0.69848 0.0
C660 C 0.26341 0.46075 0.68194 0.0
C661 C 0.30294 0.44022 0.69027 0.0
N662 N 0.38168 0.43932 0.72395 0.0
N663 N 0.23306 0.52294 0.68679 0.0
C664 C 0.34795 0.45973 0.7086 0.0
C665 C 0.27094 0.50156 0.6891 0.0
N666 N 0.40337 0.51849 0.71988 0.0
N667 N 0.21994 0.44139 0.66473 0.0
H668 H 0.23812 0.55301 0.69255 0.0
H669 H 0.19688 0.51114 0.68299 0.0
H670 H 0.21285 0.41145 0.66001 0.0
H671 H 0.19167 0.45487 0.6535 0.0
H672 H 0.43382 0.50415 0.72328 0.0
H673 H 0.41175 0.54819 0.72304 0.0
H674 H 0.41384 0.45203 0.74055 0.0
H675 H 0.3751 0.40962 0.7231 0.0
C676 C 0.53212 0.31428 0.67475 0.0
C677 C 0.55595 0.34236 0.65638 0.0
C678 C 0.47794 0.36163 0.63395 0.0
C679 C 0.45388 0.33131 0.64924 0.0
N680 N 0.45734 0.27474 0.67884 0.0
N681 N 0.55107 0.38583 0.61041 0.0
C682 C 0.48076 0.30649 0.66825 0.0
C683 C 0.52877 0.36413 0.63371 0.0
N684 N 0.55834 0.29599 0.69938 0.0
N685 N 0.45269 0.38914 0.62113 0.0
H686 H 0.58807 0.3874 0.60806 0.0
H687 H 0.53208 0.39893 0.59029 0.0
H688 H 0.41547 0.38912 0.6215 0.0
H689 H 0.46942 0.41416 0.61377 0.0
H690 H 0.54267 0.27857 0.71695 0.0
H691 H 0.596 0.30059 0.70461 0.0
H692 H 0.47522 0.2533 0.68901 0.0
H693 H 0.41979 0.26804 0.67433 0.0
C694 C 0.78187 0.53944 0.68364 0.0
C695 C 0.79104 0.5472 0.64686 0.0
C696 C 0.79237 0.47871 0.62327 0.0
C697 C 0.77913 0.47066 0.65901 0.0
N698 N 0.77723 0.4923 0.72639 0.0
N699 N 0.8215 0.52727 0.58704 0.0
C700 C 0.77958 0.50086 0.69037 0.0
C701 C 0.80228 0.51768 0.6186 0.0
N702 N 0.77166 0.56822 0.711 0.0
N703 N 0.79167 0.44947 0.59298 0.0
H704 H 0.82921 0.55592 0.58366 0.0
H705 H 0.83413 0.50752 0.56656 0.0
H706 H 0.78508 0.4205 0.59519 0.0
H707 H 0.79503 0.45391 0.56502 0.0
H708 H 0.75841 0.56342 0.73642 0.0
H709 H 0.77447 0.59702 0.70766 0.0
H710 H 0.78139 0.51306 0.75115 0.0
H711 H 0.7758 0.46407 0.73172 0.0
C712 C 0.41627 0.31514 0.34638 0.0
C713 C 0.40512 0.35268 0.3604 0.0
C714 C 0.49099 0.37759 0.36696 0.0
C715 C 0.5025 0.33941 0.35718 0.0
N716 N 0.47692 0.27098 0.34473 0.0
N717 N 0.43244 0.41822 0.39105 0.0
C718 C 0.46538 0.30789 0.34885 0.0
C719 C 0.44264 0.38357 0.37266 0.0
N720 N 0.38027 0.28681 0.32908 0.0
N721 N 0.52567 0.40827 0.36912 0.0
H722 H 0.39759 0.42352 0.39662 0.0
H723 H 0.45913 0.44042 0.40414 0.0
H724 H 0.56128 0.40532 0.36394 0.0
H725 H 0.51798 0.43669 0.37218 0.0
H726 H 0.38704 0.26028 0.31463 0.0
H727 H 0.3438 0.29094 0.3257 0.0
H728 H 0.45125 0.24704 0.34273 0.0
H729 H 0.51251 0.2644 0.34706 0.0
C730 C 0.69572 0.44001 0.28719 0.0
C731 C 0.68845 0.43226 0.32438 0.0
C732 C 0.69285 0.5012 0.3492 0.0
C733 C 0.70187 0.50904 0.31238 0.0
N734 N 0.71785 0.48776 0.24765 0.0
N735 N 0.68476 0.45467 0.39191 0.0
C736 C 0.705 0.47894 0.28167 0.0
C737 C 0.68884 0.46264 0.35578 0.0
N738 N 0.6932 0.41012 0.25722 0.0
N739 N 0.68545 0.53053 0.37737 0.0
H740 H 0.67661 0.42701 0.39779 0.0
H741 H 0.69196 0.47535 0.41673 0.0
H742 H 0.68899 0.55942 0.37437 0.0
H743 H 0.67243 0.52635 0.40301 0.0
H744 H 0.69289 0.41354 0.22864 0.0
H745 H 0.68924 0.38132 0.26074 0.0
H746 H 0.72524 0.46752 0.22506 0.0
H747 H 0.72425 0.51606 0.24287 0.0
C748 C 0.52615 0.64851 0.30097 0.0
C749 C 0.55984 0.64667 0.33317 0.0
C750 C 0.49531 0.64961 0.37482 0.0
C751 C 0.46245 0.65472 0.34337 0.0
N752 N 0.44834 0.66658 0.27834 0.0
N753 N 0.57903 0.65463 0.40203 0.0
C754 C 0.47835 0.65635 0.3069 0.0
C755 C 0.54517 0.64993 0.37051 0.0
N756 N 0.53902 0.64105 0.26463 0.0
N757 N 0.47872 0.64251 0.40826 0.0
H758 H 0.61613 0.65606 0.40018 0.0
H759 H 0.57072 0.66115 0.4301 0.0
H760 H 0.44224 0.64079 0.4124 0.0
H761 H 0.50049 0.63444 0.43052 0.0
H762 H 0.51439 0.63783 0.23995 0.0
H763 H 0.57346 0.63469 0.25897 0.0
H764 H 0.45964 0.67213 0.25247 0.0
H765 H 0.41333 0.67306 0.28185 0.0
C766 C 0.23809 0.48722 0.3082 0.0
C767 C 0.22131 0.47443 0.34085 0.0
C768 C 0.2122 0.54025 0.36963 0.0
C769 C 0.23552 0.55337 0.33947 0.0
N770 N 0.25363 0.54087 0.27435 0.0
N771 N 0.17873 0.48526 0.39615 0.0
C772 C 0.24245 0.52714 0.30664 0.0
C773 C 0.20333 0.49992 0.3693 0.0
N774 N 0.25238 0.46137 0.27995 0.0
N775 N 0.2015 0.56609 0.39954 0.0
H776 H 0.17217 0.45568 0.39599 0.0
H777 H 0.16159 0.50166 0.41647 0.0
H778 H 0.20488 0.59565 0.39983 0.0
H779 H 0.19024 0.55856 0.42467 0.0
H780 H 0.27035 0.46917 0.25756 0.0
H781 H 0.24745 0.43172 0.27965 0.0
H782 H 0.25607 0.5234 0.2483 0.0
H783 H 0.25607 0.57021 0.27285 0.0
loop_
_geom_bond_atom_site_label_1
_geom_bond_atom_site_label_2
_geom_bond_distance
_geom_bond_site_symmetry_2
_ccdc_geom_bond_type
In0 O1 2.294 . S
In0 O2 2.326 . S
In0 O6 2.266 . S
In0 O7 2.326 . S
In0 O8 2.266 . S
In0 O9 2.326 . S
In0 O11 2.294 . S
In0 O12 2.326 . S
O1 In0 2.294 . S
O1 C10 1.240 . S
O2 In0 2.326 . S
O2 C10 1.252 . S
C3 O6 1.252 . S
C3 O7 1.260 . S
C4 O11 1.240 . S
C4 O12 1.252 . S
C5 O8 1.252 . S
C5 O9 1.260 . S
O6 In0 2.266 . S
O6 C3 1.252 . S
O7 In0 2.326 . S
O7 C3 1.260 . S
O8 In0 2.266 . S
O8 C5 1.252 . S
O9 In0 2.326 . S
O9 C5 1.260 . S
C10 O1 1.240 . S
C10 O2 1.252 . S
O11 In0 2.294 . S
O11 C4 1.240 . S
O12 In0 2.326 . S
O12 C4 1.252 . S
In13 O14 2.294 . S
In13 O15 2.326 . S
In13 O19 2.266 . S
In13 O20 2.326 . S
In13 O21 2.266 . S
In13 O22 2.326 . S
In13 O24 2.294 . S
In13 O25 2.326 . S
O14 In13 2.294 . S
O14 C23 1.240 . S
O15 In13 2.326 . S
O15 C23 1.252 . S
C16 O19 1.252 . S
C16 O20 1.260 . S
C17 O24 1.240 . S
C17 O25 1.252 . S
C18 O21 1.252 . S
C18 O22 1.260 . S
O19 In13 2.266 . S
O19 C16 1.252 . S
O20 In13 2.326 . S
O20 C16 1.260 . S
O21 In13 2.266 . S
O21 C18 1.252 . S
O22 In13 2.326 . S
O22 C18 1.260 . S
C23 O14 1.240 . S
C23 O15 1.252 . S
O24 In13 2.294 . S
O24 C17 1.240 . S
O25 In13 2.326 . S
O25 C17 1.252 . S
In26 O27 2.294 . S
In26 O28 2.326 . S
In26 O32 2.266 . S
In26 O33 2.326 . S
In26 O34 2.266 . S
In26 O35 2.326 . S
In26 O37 2.294 . S
In26 O38 2.326 . S
O27 In26 2.294 . S
O27 C36 1.240 . S
O28 In26 2.326 . S
O28 C36 1.252 . S
C29 O32 1.252 . S
C29 O33 1.260 . S
C30 O37 1.240 . S
C30 O38 1.252 . S
C31 O34 1.252 . S
C31 O35 1.260 . S
O32 In26 2.266 . S
O32 C29 1.252 . S
O33 In26 2.326 . S
O33 C29 1.260 . S
O34 In26 2.266 . S
O34 C31 1.252 . S
O35 In26 2.326 . S
O35 C31 1.260 . S
C36 O27 1.240 . S
C36 O28 1.252 . S
O37 In26 2.294 . S
O37 C30 1.240 . S
O38 In26 2.326 . S
O38 C30 1.252 . S
In39 O40 2.294 . S
In39 O41 2.326 . S
In39 O45 2.266 . S
In39 O46 2.326 . S
In39 O47 2.266 . S
In39 O48 2.326 . S
In39 O50 2.294 . S
In39 O51 2.326 . S
O40 In39 2.294 . S
O40 C49 1.240 . S
O41 In39 2.326 . S
O41 C49 1.252 . S
C42 O45 1.252 . S
C42 O46 1.260 . S
C43 O50 1.240 . S
C43 O51 1.252 . S
C44 O47 1.252 . S
C44 O48 1.260 . S
O45 In39 2.266 . S
O45 C42 1.252 . S
O46 In39 2.326 . S
O46 C42 1.260 . S
O47 In39 2.266 . S
O47 C44 1.252 . S
O48 In39 2.326 . S
O48 C44 1.260 . S
C49 O40 1.240 . S
C49 O41 1.252 . S
O50 In39 2.294 . S
O50 C43 1.240 . S
O51 In39 2.326 . S
O51 C43 1.252 . S
In52 O53 2.294 . S
In52 O54 2.326 . S
In52 O58 2.266 . S
In52 O59 2.326 . S
In52 O60 2.266 . S
In52 O61 2.326 . S
In52 O63 2.294 . S
In52 O64 2.326 . S
O53 In52 2.294 . S
O53 C62 1.240 . S
O54 In52 2.326 . S
O54 C62 1.252 . S
C55 O58 1.252 . S
C55 O59 1.260 . S
C56 O63 1.240 . S
C56 O64 1.252 . S
C57 O60 1.252 . S
C57 O61 1.260 . S
O58 In52 2.266 . S
O58 C55 1.252 . S
O59 In52 2.326 . S
O59 C55 1.260 . S
O60 In52 2.266 . S
O60 C57 1.252 . S
O61 In52 2.326 . S
O61 C57 1.260 . S
C62 O53 1.240 . S
C62 O54 1.252 . S
O63 In52 2.294 . S
O63 C56 1.240 . S
O64 In52 2.326 . S
O64 C56 1.252 . S
In65 O66 2.294 . S
In65 O67 2.326 . S
In65 O71 2.266 . S
In65 O72 2.326 . S
In65 O73 2.266 . S
In65 O74 2.326 . S
In65 O76 2.294 . S
In65 O77 2.326 . S
O66 In65 2.294 . S
O66 C75 1.240 . S
O67 In65 2.326 . S
O67 C75 1.252 . S
C68 O71 1.252 . S
C68 O72 1.260 . S
C69 O76 1.240 . S
C69 O77 1.252 . S
C70 O73 1.252 . S
C70 O74 1.260 . S
O71 In65 2.266 . S
O71 C68 1.252 . S
O72 In65 2.326 . S
O72 C68 1.260 . S
O73 In65 2.266 . S
O73 C70 1.252 . S
O74 In65 2.326 . S
O74 C70 1.260 . S
C75 O66 1.240 . S
C75 O67 1.252 . S
O76 In65 2.294 . S
O76 C69 1.240 . S
O77 In65 2.326 . S
O77 C69 1.252 . S
In78 O79 2.294 . S
In78 O80 2.326 . S
In78 O84 2.266 . S
In78 O85 2.326 . S
In78 O86 2.266 . S
In78 O87 2.326 . S
In78 O89 2.294 . S
In78 O90 2.326 . S
O79 In78 2.294 . S
O79 C88 1.240 . S
O80 In78 2.326 . S
O80 C88 1.252 . S
C81 O84 1.252 . S
C81 O85 1.260 . S
C82 O89 1.240 . S
C82 O90 1.252 . S
C83 O86 1.252 . S
C83 O87 1.260 . S
O84 In78 2.266 . S
O84 C81 1.252 . S
O85 In78 2.326 . S
O85 C81 1.260 . S
O86 In78 2.266 . S
O86 C83 1.252 . S
O87 In78 2.326 . S
O87 C83 1.260 . S
C88 O79 1.240 . S
C88 O80 1.252 . S
O89 In78 2.294 . S
O89 C82 1.240 . S
O90 In78 2.326 . S
O90 C82 1.252 . S
In91 O92 2.294 . S
In91 O93 2.326 . S
In91 O97 2.266 . S
In91 O98 2.326 . S
In91 O99 2.266 . S
In91 O100 2.326 . S
In91 O102 2.294 . S
In91 O103 2.326 . S
O92 In91 2.294 . S
O92 C101 1.240 . S
O93 In91 2.326 . S
O93 C101 1.252 . S
C94 O97 1.252 . S
C94 O98 1.260 . S
C95 O102 1.240 . S
C95 O103 1.252 . S
C96 O99 1.252 . S
C96 O100 1.260 . S
O97 In91 2.266 . S
O97 C94 1.252 . S
O98 In91 2.326 . S
O98 C94 1.260 . S
O99 In91 2.266 . S
O99 C96 1.252 . S
O100 In91 2.326 . S
O100 C96 1.260 . S
C101 O92 1.240 . S
C101 O93 1.252 . S
O102 In91 2.294 . S
O102 C95 1.240 . S
O103 In91 2.326 . S
O103 C95 1.252 . S
In104 O105 2.294 . S
In104 O106 2.326 . S
In104 O110 2.266 . S
In104 O111 2.326 . S
In104 O112 2.266 . S
In104 O113 2.326 . S
In104 O115 2.294 . S
In104 O116 2.326 . S
O105 In104 2.294 . S
O105 C114 1.240 . S
O106 In104 2.326 . S
O106 C114 1.252 . S
C107 O110 1.252 . S
C107 O111 1.260 . S
C108 O115 1.240 . S
C108 O116 1.252 . S
C109 O112 1.252 . S
C109 O113 1.260 . S
O110 In104 2.266 . S
O110 C107 1.252 . S
O111 In104 2.326 . S
O111 C107 1.260 . S
O112 In104 2.266 . S
O112 C109 1.252 . S
O113 In104 2.326 . S
O113 C109 1.260 . S
C114 O105 1.240 . S
C114 O106 1.252 . S
O115 In104 2.294 . S
O115 C108 1.240 . S
O116 In104 2.326 . S
O116 C108 1.252 . S
In117 O118 2.294 . S
In117 O119 2.326 . S
In117 O123 2.266 . S
In117 O124 2.326 . S
In117 O125 2.266 . S
In117 O126 2.326 . S
In117 O128 2.294 . S
In117 O129 2.326 . S
O118 In117 2.294 . S
O118 C127 1.240 . S
O119 In117 2.326 . S
O119 C127 1.252 . S
C120 O123 1.252 . S
C120 O124 1.260 . S
C121 O128 1.240 . S
C121 O129 1.252 . S
C122 O125 1.252 . S
C122 O126 1.260 . S
O123 In117 2.266 . S
O123 C120 1.252 . S
O124 In117 2.326 . S
O124 C120 1.260 . S
O125 In117 2.266 . S
O125 C122 1.252 . S
O126 In117 2.326 . S
O126 C122 1.260 . S
C127 O118 1.240 . S
C127 O119 1.252 . S
O128 In117 2.294 . S
O128 C121 1.240 . S
O129 In117 2.326 . S
O129 C121 1.252 . S
In130 O131 2.294 . S
In130 O132 2.326 . S
In130 O136 2.266 . S
In130 O137 2.326 . S
In130 O138 2.266 . S
In130 O139 2.326 . S
In130 O141 2.294 . S
In130 O142 2.326 . S
O131 In130 2.294 . S
O131 C140 1.240 . S
O132 In130 2.326 . S
O132 C140 1.252 . S
C133 O136 1.252 . S
C133 O137 1.260 . S
C134 O141 1.240 . S
C134 O142 1.252 . S
C135 O138 1.252 . S
C135 O139 1.260 . S
O136 In130 2.266 . S
O136 C133 1.252 . S
O137 In130 2.326 . S
O137 C133 1.260 . S
O138 In130 2.266 . S
O138 C135 1.252 . S
O139 In130 2.326 . S
O139 C135 1.260 . S
C140 O131 1.240 . S
C140 O132 1.252 . S
O141 In130 2.294 . S
O141 C134 1.240 . S
O142 In130 2.326 . S
O142 C134 1.252 . S
In143 O144 2.294 . S
In143 O145 2.326 . S
In143 O149 2.266 . S
In143 O150 2.326 . S
In143 O151 2.266 . S
In143 O152 2.326 . S
In143 O154 2.294 . S
In143 O155 2.326 . S
O144 In143 2.294 . S
O144 C153 1.240 . S
O145 In143 2.326 . S
O145 C153 1.252 . S
C146 O149 1.252 . S
C146 O150 1.260 . S
C147 O154 1.240 . S
C147 O155 1.252 . S
C148 O151 1.252 . S
C148 O152 1.260 . S
O149 In143 2.266 . S
O149 C146 1.252 . S
O150 In143 2.326 . S
O150 C146 1.260 . S
O151 In143 2.266 . S
O151 C148 1.252 . S
O152 In143 2.326 . S
O152 C148 1.260 . S
C153 O144 1.240 . S
C153 O145 1.252 . S
O154 In143 2.294 . S
O154 C147 1.240 . S
O155 In143 2.326 . S
O155 C147 1.252 . S
In156 O157 2.294 . S
In156 O158 2.326 . S
In156 O162 2.266 . S
In156 O163 2.326 . S
In156 O164 2.266 . S
In156 O165 2.326 . S
In156 O167 2.294 . S
In156 O168 2.326 . S
O157 In156 2.294 . S
O157 C166 1.240 . S
O158 In156 2.326 . S
O158 C166 1.252 . S
C159 O162 1.252 . S
C159 O163 1.260 . S
C160 O167 1.240 . S
C160 O168 1.252 . S
C161 O164 1.252 . S
C161 O165 1.260 . S
O162 In156 2.266 . S
O162 C159 1.252 . S
O163 In156 2.326 . S
O163 C159 1.260 . S
O164 In156 2.266 . S
O164 C161 1.252 . S
O165 In156 2.326 . S
O165 C161 1.260 . S
C166 O157 1.240 . S
C166 O158 1.252 . S
O167 In156 2.294 . S
O167 C160 1.240 . S
O168 In156 2.326 . S
O168 C160 1.252 . S
In169 O170 2.294 . S
In169 O171 2.326 . S
In169 O175 2.266 . S
In169 O176 2.326 . S
In169 O177 2.266 . S
In169 O178 2.326 . S
In169 O180 2.294 . S
In169 O181 2.326 . S
O170 In169 2.294 . S
O170 C179 1.240 . S
O171 In169 2.326 . S
O171 C179 1.252 . S
C172 O175 1.252 . S
C172 O176 1.260 . S
C173 O180 1.240 . S
C173 O181 1.252 . S
C174 O177 1.252 . S
C174 O178 1.260 . S
O175 In169 2.266 . S
O175 C172 1.252 . S
O176 In169 2.326 . S
O176 C172 1.260 . S
O177 In169 2.266 . S
O177 C174 1.252 . S
O178 In169 2.326 . S
O178 C174 1.260 . S
C179 O170 1.240 . S
C179 O171 1.252 . S
O180 In169 2.294 . S
O180 C173 1.240 . S
O181 In169 2.326 . S
O181 C173 1.252 . S
In182 O183 2.294 . S
In182 O184 2.326 . S
In182 O188 2.266 . S
In182 O189 2.326 . S
In182 O190 2.266 . S
In182 O191 2.326 . S
In182 O193 2.294 . S
In182 O194 2.326 . S
O183 In182 2.294 . S
O183 C192 1.240 . S
O184 In182 2.326 . S
O184 C192 1.252 . S
C185 O188 1.252 . S
C185 O189 1.260 . S
C186 O193 1.240 . S
C186 O194 1.252 . S
C187 O190 1.252 . S
C187 O191 1.260 . S
O188 In182 2.266 . S
O188 C185 1.252 . S
O189 In182 2.326 . S
O189 C185 1.260 . S
O190 In182 2.266 . S
O190 C187 1.252 . S
O191 In182 2.326 . S
O191 C187 1.260 . S
C192 O183 1.240 . S
C192 O184 1.252 . S
O193 In182 2.294 . S
O193 C186 1.240 . S
O194 In182 2.326 . S
O194 C186 1.252 . S
In195 O196 2.294 . S
In195 O197 2.326 . S
In195 O201 2.266 . S
In195 O202 2.326 . S
In195 O203 2.266 . S
In195 O204 2.326 . S
In195 O206 2.294 . S
In195 O207 2.326 . S
O196 In195 2.294 . S
O196 C205 1.240 . S
O197 In195 2.326 . S
O197 C205 1.252 . S
C198 O201 1.252 . S
C198 O202 1.260 . S
C199 O206 1.240 . S
C199 O207 1.252 . S
C200 O203 1.252 . S
C200 O204 1.260 . S
O201 In195 2.266 . S
O201 C198 1.252 . S
O202 In195 2.326 . S
O202 C198 1.260 . S
O203 In195 2.266 . S
O203 C200 1.252 . S
O204 In195 2.326 . S
O204 C200 1.260 . S
C205 O196 1.240 . S
C205 O197 1.252 . S
O206 In195 2.294 . S
O206 C199 1.240 . S
O207 In195 2.326 . S
O207 C199 1.252 . S
C208 C209 1.363 . S
C208 C214 1.379 . S
C208 N216 1.356 . S
C209 C208 1.363 . S
C209 C215 1.363 . S
C210 C211 1.363 . S
C210 C215 1.379 . S
C210 N217 1.356 . S
C211 C210 1.363 . S
C211 C214 1.363 . S
N212 C214 1.356 . S
N212 H224 0.984 . S
N212 H225 0.985 . S
N213 C215 1.356 . S
N213 H218 0.984 . S
N213 H219 0.985 . S
C214 C208 1.379 . S
C214 C211 1.363 . S
C214 N212 1.356 . S
C215 C209 1.363 . S
C215 C210 1.379 . S
C215 N213 1.356 . S
N216 C208 1.356 . S
N216 H222 0.984 . S
N216 H223 0.984 . S
N217 C210 1.356 . S
N217 H220 0.984 . S
N217 H221 0.985 . S
H218 N213 0.984 . S
H219 N213 0.985 . S
H220 N217 0.984 . S
H221 N217 0.985 . S
H222 N216 0.984 . S
H223 N216 0.984 . S
H224 N212 0.984 . S
H225 N212 0.985 . S
C226 C227 1.363 . S
C226 C232 1.379 . S
C226 N234 1.356 . S
C227 C226 1.363 . S
C227 C233 1.363 . S
C228 C229 1.363 . S
C228 C233 1.379 . S
C228 N235 1.356 . S
C229 C228 1.363 . S
C229 C232 1.363 . S
N230 C232 1.356 . S
N230 H242 0.984 . S
N230 H243 0.985 . S
N231 C233 1.356 . S
N231 H236 0.984 . S
N231 H237 0.985 . S
C232 C226 1.379 . S
C232 C229 1.363 . S
C232 N230 1.356 . S
C233 C227 1.363 . S
C233 C228 1.379 . S
C233 N231 1.356 . S
N234 C226 1.356 . S
N234 H240 0.984 . S
N234 H241 0.984 . S
N235 C228 1.356 . S
N235 H238 0.984 . S
N235 H239 0.985 . S
H236 N231 0.984 . S
H237 N231 0.985 . S
H238 N235 0.984 . S
H239 N235 0.985 . S
H240 N234 0.984 . S
H241 N234 0.984 . S
H242 N230 0.984 . S
H243 N230 0.985 . S
C244 C245 1.363 . S
C244 C250 1.379 . S
C244 N252 1.356 . S
C245 C244 1.363 . S
C245 C251 1.363 . S
C246 C247 1.363 . S
C246 C251 1.379 . S
C246 N253 1.356 . S
C247 C246 1.363 . S
C247 C250 1.363 . S
N248 C250 1.356 . S
N248 H260 0.984 . S
N248 H261 0.985 . S
N249 C251 1.356 . S
N249 H254 0.984 . S
N249 H255 0.985 . S
C250 C244 1.379 . S
C250 C247 1.363 . S
C250 N248 1.356 . S
C251 C245 1.363 . S
C251 C246 1.379 . S
C251 N249 1.356 . S
N252 C244 1.356 . S
N252 H258 0.984 . S
N252 H259 0.984 . S
N253 C246 1.356 . S
N253 H256 0.984 . S
N253 H257 0.985 . S
H254 N249 0.984 . S
H255 N249 0.985 . S
H256 N253 0.984 . S
H257 N253 0.985 . S
H258 N252 0.984 . S
H259 N252 0.984 . S
H260 N248 0.984 . S
H261 N248 0.985 . S
C262 C263 1.363 . S
C262 C268 1.379 . S
C262 N270 1.356 . S
C263 C262 1.363 . S
C263 C269 1.363 . S
C264 C265 1.363 . S
C264 C269 1.379 . S
C264 N271 1.356 . S
C265 C264 1.363 . S
C265 C268 1.363 . S
N266 C268 1.356 . S
N266 H278 0.984 . S
N266 H279 0.985 . S
N267 C269 1.356 . S
N267 H272 0.984 . S
N267 H273 0.985 . S
C268 C262 1.379 . S
C268 C265 1.363 . S
C268 N266 1.356 . S
C269 C263 1.363 . S
C269 C264 1.379 . S
C269 N267 1.356 . S
N270 C262 1.356 . S
N270 H276 0.984 . S
N270 H277 0.984 . S
N271 C264 1.356 . S
N271 H274 0.984 . S
N271 H275 0.985 . S
H272 N267 0.984 . S
H273 N267 0.985 . S
H274 N271 0.984 . S
H275 N271 0.985 . S
H276 N270 0.984 . S
H277 N270 0.984 . S
H278 N266 0.984 . S
H279 N266 0.985 . S
C280 C281 1.363 . S
C280 C286 1.379 . S
C280 N288 1.356 . S
C281 C280 1.363 . S
C281 C287 1.363 . S
C282 C283 1.363 . S
C282 C287 1.379 . S
C282 N289 1.356 . S
C283 C282 1.363 . S
C283 C286 1.363 . S
N284 C286 1.356 . S
N284 H296 0.984 . S
N284 H297 0.985 . S
N285 C287 1.356 . S
N285 H290 0.984 . S
N285 H291 0.985 . S
C286 C280 1.379 . S
C286 C283 1.363 . S
C286 N284 1.356 . S
C287 C281 1.363 . S
C287 C282 1.379 . S
C287 N285 1.356 . S
N288 C280 1.356 . S
N288 H294 0.984 . S
N288 H295 0.984 . S
N289 C282 1.356 . S
N289 H292 0.984 . S
N289 H293 0.985 . S
H290 N285 0.984 . S
H291 N285 0.985 . S
H292 N289 0.984 . S
H293 N289 0.985 . S
H294 N288 0.984 . S
H295 N288 0.984 . S
H296 N284 0.984 . S
H297 N284 0.985 . S
C298 C299 1.363 . S
C298 C304 1.379 . S
C298 N306 1.356 . S
C299 C298 1.363 . S
C299 C305 1.363 . S
C300 C301 1.363 . S
C300 C305 1.379 . S
C300 N307 1.356 . S
C301 C300 1.363 . S
C301 C304 1.363 . S
N302 C304 1.356 . S
N302 H314 0.984 . S
N302 H315 0.985 . S
N303 C305 1.356 . S
N303 H308 0.984 . S
N303 H309 0.985 . S
C304 C298 1.379 . S
C304 C301 1.363 . S
C304 N302 1.356 . S
C305 C299 1.363 . S
C305 C300 1.379 . S
C305 N303 1.356 . S
N306 C298 1.356 . S
N306 H312 0.984 . S
N306 H313 0.984 . S
N307 C300 1.356 . S
N307 H310 0.984 . S
N307 H311 0.985 . S
H308 N303 0.984 . S
H309 N303 0.985 . S
H310 N307 0.984 . S
H311 N307 0.985 . S
H312 N306 0.984 . S
H313 N306 0.984 . S
H314 N302 0.984 . S
H315 N302 0.985 . S
C316 C317 1.363 . S
C316 C322 1.379 . S
C316 N324 1.356 . S
C317 C316 1.363 . S
C317 C323 1.363 . S
C318 C319 1.363 . S
C318 C323 1.379 . S
C318 N325 1.356 . S
C319 C318 1.363 . S
C319 C322 1.363 . S
N320 C322 1.356 . S
N320 H332 0.984 . S
N320 H333 0.985 . S
N321 C323 1.356 . S
N321 H326 0.984 . S
N321 H327 0.985 . S
C322 C316 1.379 . S
C322 C319 1.363 . S
C322 N320 1.356 . S
C323 C317 1.363 . S
C323 C318 1.379 . S
C323 N321 1.356 . S
N324 C316 1.356 . S
N324 H330 0.984 . S
N324 H331 0.984 . S
N325 C318 1.356 . S
N325 H328 0.984 . S
N325 H329 0.985 . S
H326 N321 0.984 . S
H327 N321 0.985 . S
H328 N325 0.984 . S
H329 N325 0.985 . S
H330 N324 0.984 . S
H331 N324 0.984 . S
H332 N320 0.984 . S
H333 N320 0.985 . S
C334 C335 1.363 . S
C334 C340 1.379 . S
C334 N342 1.356 . S
C335 C334 1.363 . S
C335 C341 1.363 . S
C336 C337 1.363 . S
C336 C341 1.379 . S
C336 N343 1.356 . S
C337 C336 1.363 . S
C337 C340 1.363 . S
N338 C340 1.356 . S
N338 H350 0.984 . S
N338 H351 0.985 . S
N339 C341 1.356 . S
N339 H344 0.984 . S
N339 H345 0.985 . S
C340 C334 1.379 . S
C340 C337 1.363 . S
C340 N338 1.356 . S
C341 C335 1.363 . S
C341 C336 1.379 . S
C341 N339 1.356 . S
N342 C334 1.356 . S
N342 H348 0.984 . S
N342 H349 0.984 . S
N343 C336 1.356 . S
N343 H346 0.984 . S
N343 H347 0.985 . S
H344 N339 0.984 . S
H345 N339 0.985 . S
H346 N343 0.984 . S
H347 N343 0.985 . S
H348 N342 0.984 . S
H349 N342 0.984 . S
H350 N338 0.984 . S
H351 N338 0.985 . S
C352 C353 1.363 . S
C352 C358 1.379 . S
C352 N360 1.356 . S
C353 C352 1.363 . S
C353 C359 1.363 . S
C354 C355 1.363 1_556 S
C354 C359 1.379 . S
C354 N361 1.356 1_556 S
C355 C354 1.363 1_554 S
C355 C358 1.363 1_554 S
N356 C358 1.356 1_554 S
N356 H368 0.984 . S
N356 H369 0.985 . S
N357 C359 1.356 . S
N357 H362 0.984 . S
N357 H363 0.985 . S
C358 C352 1.379 . S
C358 C355 1.363 1_556 S
C358 N356 1.356 1_556 S
C359 C353 1.363 . S
C359 C354 1.379 . S
C359 N357 1.356 . S
N360 C352 1.356 . S
N360 H366 0.984 . S
N360 H367 0.984 . S
N361 C354 1.356 1_554 S
N361 H364 0.984 . S
N361 H365 0.985 . S
H362 N357 0.984 . S
H363 N357 0.985 . S
H364 N361 0.984 . S
H365 N361 0.985 . S
H366 N360 0.984 . S
H367 N360 0.984 . S
H368 N356 0.984 . S
H369 N356 0.985 . S
C370 C371 1.363 1_554 S
C370 C376 1.379 . S
C370 N378 1.356 1_554 S
C371 C370 1.363 1_556 S
C371 C377 1.363 1_556 S
C372 C373 1.363 . S
C372 C377 1.379 . S
C372 N379 1.356 . S
C373 C372 1.363 . S
C373 C376 1.363 . S
N374 C376 1.356 . S
N374 H386 0.984 . S
N374 H387 0.985 . S
N375 C377 1.356 1_556 S
N375 H380 0.984 . S
N375 H381 0.985 . S
C376 C370 1.379 . S
C376 C373 1.363 . S
C376 N374 1.356 . S
C377 C371 1.363 1_554 S
C377 C372 1.379 . S
C377 N375 1.356 1_554 S
N378 C370 1.356 1_556 S
N378 H384 0.984 . S
N378 H385 0.984 . S
N379 C372 1.356 . S
N379 H382 0.984 . S
N379 H383 0.985 . S
H380 N375 0.984 . S
H381 N375 0.985 . S
H382 N379 0.984 . S
H383 N379 0.985 . S
H384 N378 0.984 . S
H385 N378 0.984 . S
H386 N374 0.984 . S
H387 N374 0.985 . S
C388 C389 1.363 . S
C388 C394 1.379 1_556 S
C388 N396 1.356 . S
C389 C388 1.363 . S
C389 C395 1.363 1_556 S
C390 C391 1.363 . S
C390 C395 1.379 . S
C390 N397 1.356 . S
C391 C390 1.363 . S
C391 C394 1.363 . S
N392 C394 1.356 . S
N392 H404 0.984 . S
N392 H405 0.985 . S
N393 C395 1.356 1_556 S
N393 H398 0.984 . S
N393 H399 0.985 1_556 S
C394 C388 1.379 1_554 S
C394 C391 1.363 . S
C394 N392 1.356 . S
C395 C389 1.363 1_554 S
C395 C390 1.379 . S
C395 N393 1.356 1_554 S
N396 C388 1.356 . S
N396 H402 0.984 . S
N396 H403 0.984 . S
N397 C390 1.356 . S
N397 H400 0.984 . S
N397 H401 0.985 . S
H398 N393 0.984 . S
H399 N393 0.985 1_554 S
H400 N397 0.984 . S
H401 N397 0.985 . S
H402 N396 0.984 . S
H403 N396 0.984 . S
H404 N392 0.984 . S
H405 N392 0.985 . S
C406 C407 1.363 1_556 S
C406 C412 1.379 . S
C406 N414 1.356 1_556 S
C407 C406 1.363 1_554 S
C407 C413 1.363 . S
C408 C409 1.363 . S
C408 C413 1.379 1_556 S
C408 N415 1.356 . S
C409 C408 1.363 . S
C409 C412 1.363 . S
N410 C412 1.356 . S
N410 H422 0.984 . S
N410 H423 0.985 . S
N411 C413 1.356 . S
N411 H416 0.984 . S
N411 H417 0.985 . S
C412 C406 1.379 . S
C412 C409 1.363 . S
C412 N410 1.356 . S
C413 C407 1.363 . S
C413 C408 1.379 1_554 S
C413 N411 1.356 . S
N414 C406 1.356 1_554 S
N414 H420 0.984 . S
N414 H421 0.984 . S
N415 C408 1.356 . S
N415 H418 0.984 . S
N415 H419 0.985 . S
H416 N411 0.984 . S
H417 N411 0.985 . S
H418 N415 0.984 . S
H419 N415 0.985 . S
H420 N414 0.984 . S
H421 N414 0.984 . S
H422 N410 0.984 . S
H423 N410 0.985 . S
C424 C425 1.363 . S
C424 C430 1.379 . S
C424 N432 1.356 . S
C425 C424 1.363 . S
C425 C431 1.363 . S
C426 C427 1.363 . S
C426 C431 1.379 . S
C426 N433 1.356 . S
C427 C426 1.363 . S
C427 C430 1.363 . S
N428 C430 1.356 1_655 S
N428 H440 0.984 . S
N428 H441 0.985 . S
N429 C431 1.356 . S
N429 H434 0.984 . S
N429 H435 0.985 . S
C430 C424 1.379 . S
C430 C427 1.363 . S
C430 N428 1.356 1_455 S
C431 C425 1.363 . S
C431 C426 1.379 . S
C431 N429 1.356 . S
N432 C424 1.356 . S
N432 H438 0.984 . S
N432 H439 0.984 . S
N433 C426 1.356 . S
N433 H436 0.984 1_455 S
N433 H437 0.985 . S
H434 N429 0.984 . S
H435 N429 0.985 . S
H436 N433 0.984 1_655 S
H437 N433 0.985 . S
H438 N432 0.984 . S
H439 N432 0.984 . S
H440 N428 0.984 . S
H441 N428 0.985 . S
C442 C443 1.363 1_545 S
C442 C448 1.379 . S
C442 N450 1.356 1_545 S
C443 C442 1.363 1_565 S
C443 C449 1.363 . S
C444 C445 1.363 . S
C444 C449 1.379 1_545 S
C444 N451 1.356 . S
C445 C444 1.363 . S
C445 C448 1.363 . S
N446 C448 1.356 . S
N446 H458 0.984 . S
N446 H459 0.985 . S
N447 C449 1.356 . S
N447 H452 0.984 . S
N447 H453 0.985 . S
C448 C442 1.379 . S
C448 C445 1.363 . S
C448 N446 1.356 . S
C449 C443 1.363 . S
C449 C444 1.379 1_565 S
C449 N447 1.356 . S
N450 C442 1.356 1_565 S
N450 H456 0.984 . S
N450 H457 0.984 . S
N451 C444 1.356 . S
N451 H454 0.984 . S
N451 H455 0.985 . S
H452 N447 0.984 . S
H453 N447 0.985 . S
H454 N451 0.984 . S
H455 N451 0.985 . S
H456 N450 0.984 . S
H457 N450 0.984 . S
H458 N446 0.984 . S
H459 N446 0.985 . S
C460 C461 1.363 . S
C460 C466 1.379 1_655 S
C460 N468 1.356 . S
C461 C460 1.363 . S
C461 C467 1.363 . S
C462 C463 1.363 . S
C462 C467 1.379 1_455 S
C462 N469 1.356 . S
C463 C462 1.363 . S
C463 C466 1.363 . S
N464 C466 1.356 . S
N464 H476 0.984 . S
N464 H477 0.985 . S
N465 C467 1.356 . S
N465 H470 0.984 . S
N465 H471 0.985 . S
C466 C460 1.379 1_455 S
C466 C463 1.363 . S
C466 N464 1.356 . S
C467 C461 1.363 . S
C467 C462 1.379 1_655 S
C467 N465 1.356 . S
N468 C460 1.356 . S
N468 H474 0.984 . S
N468 H475 0.984 . S
N469 C462 1.356 . S
N469 H472 0.984 . S
N469 H473 0.985 . S
H470 N465 0.984 . S
H471 N465 0.985 . S
H472 N469 0.984 . S
H473 N469 0.985 . S
H474 N468 0.984 . S
H475 N468 0.984 . S
H476 N464 0.984 . S
H477 N464 0.985 . S
C478 C479 1.363 1_565 S
C478 C484 1.379 . S
C478 N486 1.356 1_565 S
C479 C478 1.363 1_545 S
C479 C485 1.363 . S
C480 C481 1.363 . S
C480 C485 1.379 1_565 S
C480 N487 1.356 . S
C481 C480 1.363 . S
C481 C484 1.363 . S
N482 C484 1.356 . S
N482 H494 0.984 . S
N482 H495 0.985 . S
N483 C485 1.356 . S
N483 H488 0.984 . S
N483 H489 0.985 . S
C484 C478 1.379 . S
C484 C481 1.363 . S
C484 N482 1.356 . S
C485 C479 1.363 . S
C485 C480 1.379 1_545 S
C485 N483 1.356 . S
N486 C478 1.356 1_545 S
N486 H492 0.984 1_545 S
N486 H493 0.984 . S
N487 C480 1.356 . S
N487 H490 0.984 . S
N487 H491 0.985 . S
H488 N483 0.984 . S
H489 N483 0.985 . S
H490 N487 0.984 . S
H491 N487 0.985 . S
H492 N486 0.984 1_565 S
H493 N486 0.984 . S
H494 N482 0.984 . S
H495 N482 0.985 . S
C496 C497 1.363 . S
C496 C502 1.379 . S
C496 N504 1.356 . S
C497 C496 1.363 . S
C497 C503 1.363 . S
C498 C499 1.363 . S
C498 C503 1.379 . S
C498 N505 1.356 1_655 S
C499 C498 1.363 . S
C499 C502 1.363 . S
N500 C502 1.356 . S
N500 H512 0.984 . S
N500 H513 0.985 1_655 S
N501 C503 1.356 . S
N501 H506 0.984 . S
N501 H507 0.985 . S
C502 C496 1.379 . S
C502 C499 1.363 . S
C502 N500 1.356 . S
C503 C497 1.363 . S
C503 C498 1.379 . S
C503 N501 1.356 . S
N504 C496 1.356 . S
N504 H510 0.984 . S
N504 H511 0.984 . S
N505 C498 1.356 1_455 S
N505 H508 0.984 . S
N505 H509 0.985 . S
H506 N501 0.984 . S
H507 N501 0.985 . S
H508 N505 0.984 . S
H509 N505 0.985 . S
H510 N504 0.984 . S
H511 N504 0.984 . S
H512 N500 0.984 . S
H513 N500 0.985 1_455 S
C514 C515 1.363 . S
C514 C520 1.379 . S
C514 N522 1.356 . S
C515 C514 1.363 . S
C515 C521 1.363 . S
C516 C517 1.363 . S
C516 C521 1.379 1_545 S
C516 N523 1.356 . S
C517 C516 1.363 . S
C517 C520 1.363 1_545 S
N518 C520 1.356 . S
N518 H530 0.984 . S
N518 H531 0.985 1_565 S
N519 C521 1.356 . S
N519 H524 0.984 . S
N519 H525 0.985 . S
C520 C514 1.379 . S
C520 C517 1.363 1_565 S
C520 N518 1.356 . S
C521 C515 1.363 . S
C521 C516 1.379 1_565 S
C521 N519 1.356 . S
N522 C514 1.356 . S
N522 H528 0.984 . S
N522 H529 0.984 . S
N523 C516 1.356 . S
N523 H526 0.984 . S
N523 H527 0.985 . S
H524 N519 0.984 . S
H525 N519 0.985 . S
H526 N523 0.984 . S
H527 N523 0.985 . S
H528 N522 0.984 . S
H529 N522 0.984 . S
H530 N518 0.984 . S
H531 N518 0.985 1_545 S
C532 C533 1.363 . S
C532 C538 1.379 1_455 S
C532 N540 1.356 . S
C533 C532 1.363 . S
C533 C539 1.363 . S
C534 C535 1.363 . S
C534 C539 1.379 1_655 S
C534 N541 1.356 . S
C535 C534 1.363 . S
C535 C538 1.363 . S
N536 C538 1.356 . S
N536 H548 0.984 . S
N536 H549 0.985 . S
N537 C539 1.356 . S
N537 H542 0.984 . S
N537 H543 0.985 . S
C538 C532 1.379 1_655 S
C538 C535 1.363 . S
C538 N536 1.356 . S
C539 C533 1.363 . S
C539 C534 1.379 1_455 S
C539 N537 1.356 . S
N540 C532 1.356 . S
N540 H546 0.984 . S
N540 H547 0.984 . S
N541 C534 1.356 . S
N541 H544 0.984 . S
N541 H545 0.985 . S
H542 N537 0.984 . S
H543 N537 0.985 . S
H544 N541 0.984 . S
H545 N541 0.985 . S
H546 N540 0.984 . S
H547 N540 0.984 . S
H548 N536 0.984 . S
H549 N536 0.985 . S
C550 C551 1.363 1_545 S
C550 C556 1.379 . S
C550 N558 1.356 1_545 S
C551 C550 1.363 1_565 S
C551 C557 1.363 1_565 S
C552 C553 1.363 . S
C552 C557 1.379 . S
C552 N559 1.356 . S
C553 C552 1.363 . S
C553 C556 1.363 . S
N554 C556 1.356 . S
N554 H566 0.984 . S
N554 H567 0.985 . S
N555 C557 1.356 1_565 S
N555 H560 0.984 . S
N555 H561 0.985 1_565 S
C556 C550 1.379 . S
C556 C553 1.363 . S
C556 N554 1.356 . S
C557 C551 1.363 1_545 S
C557 C552 1.379 . S
C557 N555 1.356 1_545 S
N558 C550 1.356 1_565 S
N558 H564 0.984 . S
N558 H565 0.984 . S
N559 C552 1.356 . S
N559 H562 0.984 . S
N559 H563 0.985 . S
H560 N555 0.984 . S
H561 N555 0.985 1_545 S
H562 N559 0.984 . S
H563 N559 0.985 . S
H564 N558 0.984 . S
H565 N558 0.984 . S
H566 N554 0.984 . S
H567 N554 0.985 . S
C568 C569 1.363 . S
C568 C574 1.379 . S
C568 N576 1.356 . S
C569 C568 1.363 . S
C569 C575 1.363 . S
C570 C571 1.363 . S
C570 C575 1.379 . S
C570 N577 1.356 . S
C571 C570 1.363 . S
C571 C574 1.363 . S
N572 C574 1.356 . S
N572 H584 0.984 . S
N572 H585 0.985 . S
N573 C575 1.356 . S
N573 H578 0.984 . S
N573 H579 0.985 . S
C574 C568 1.379 . S
C574 C571 1.363 . S
C574 N572 1.356 . S
C575 C569 1.363 . S
C575 C570 1.379 . S
C575 N573 1.356 . S
N576 C568 1.356 . S
N576 H582 0.984 . S
N576 H583 0.984 . S
N577 C570 1.356 . S
N577 H580 0.984 . S
N577 H581 0.985 . S
H578 N573 0.984 . S
H579 N573 0.985 . S
H580 N577 0.984 . S
H581 N577 0.985 . S
H582 N576 0.984 . S
H583 N576 0.984 . S
H584 N572 0.984 . S
H585 N572 0.985 . S
C586 C587 1.363 . S
C586 C592 1.379 . S
C586 N594 1.356 . S
C587 C586 1.363 . S
C587 C593 1.363 . S
C588 C589 1.363 . S
C588 C593 1.379 . S
C588 N595 1.356 . S
C589 C588 1.363 . S
C589 C592 1.363 . S
N590 C592 1.356 . S
N590 H602 0.984 . S
N590 H603 0.985 . S
N591 C593 1.356 . S
N591 H596 0.984 . S
N591 H597 0.985 . S
C592 C586 1.379 . S
C592 C589 1.363 . S
C592 N590 1.356 . S
C593 C587 1.363 . S
C593 C588 1.379 . S
C593 N591 1.356 . S
N594 C586 1.356 . S
N594 H600 0.984 . S
N594 H601 0.984 . S
N595 C588 1.356 . S
N595 H598 0.984 . S
N595 H599 0.985 . S
H596 N591 0.984 . S
H597 N591 0.985 . S
H598 N595 0.984 . S
H599 N595 0.985 . S
H600 N594 0.984 . S
H601 N594 0.984 . S
H602 N590 0.984 . S
H603 N590 0.985 . S
C604 C605 1.363 . S
C604 C610 1.379 . S
C604 N612 1.356 . S
C605 C604 1.363 . S
C605 C611 1.363 . S
C606 C607 1.363 . S
C606 C611 1.379 . S
C606 N613 1.356 . S
C607 C606 1.363 . S
C607 C610 1.363 . S
N608 C610 1.356 . S
N608 H620 0.984 . S
N608 H621 0.985 . S
N609 C611 1.356 . S
N609 H614 0.984 . S
N609 H615 0.985 . S
C610 C604 1.379 . S
C610 C607 1.363 . S
C610 N608 1.356 . S
C611 C605 1.363 . S
C611 C606 1.379 . S
C611 N609 1.356 . S
N612 C604 1.356 . S
N612 H618 0.984 . S
N612 H619 0.984 . S
N613 C606 1.356 . S
N613 H616 0.984 . S
N613 H617 0.985 . S
H614 N609 0.984 . S
H615 N609 0.985 . S
H616 N613 0.984 . S
H617 N613 0.985 . S
H618 N612 0.984 . S
H619 N612 0.984 . S
H620 N608 0.984 . S
H621 N608 0.985 . S
C622 C623 1.363 . S
C622 C628 1.379 . S
C622 N630 1.356 . S
C623 C622 1.363 . S
C623 C629 1.363 . S
C624 C625 1.363 . S
C624 C629 1.379 . S
C624 N631 1.356 . S
C625 C624 1.363 . S
C625 C628 1.363 . S
N626 C628 1.356 . S
N626 H638 0.984 . S
N626 H639 0.985 . S
N627 C629 1.356 . S
N627 H632 0.984 . S
N627 H633 0.985 . S
C628 C622 1.379 . S
C628 C625 1.363 . S
C628 N626 1.356 . S
C629 C623 1.363 . S
C629 C624 1.379 . S
C629 N627 1.356 . S
N630 C622 1.356 . S
N630 H636 0.984 . S
N630 H637 0.984 . S
N631 C624 1.356 . S
N631 H634 0.984 . S
N631 H635 0.985 . S
H632 N627 0.984 . S
H633 N627 0.985 . S
H634 N631 0.984 . S
H635 N631 0.985 . S
H636 N630 0.984 . S
H637 N630 0.984 . S
H638 N626 0.984 . S
H639 N626 0.985 . S
C640 C641 1.363 . S
C640 C646 1.379 . S
C640 N648 1.356 . S
C641 C640 1.363 . S
C641 C647 1.363 . S
C642 C643 1.363 . S
C642 C647 1.379 . S
C642 N649 1.356 . S
C643 C642 1.363 . S
C643 C646 1.363 . S
N644 C646 1.356 . S
N644 H656 0.984 . S
N644 H657 0.985 . S
N645 C647 1.356 . S
N645 H650 0.984 . S
N645 H651 0.985 . S
C646 C640 1.379 . S
C646 C643 1.363 . S
C646 N644 1.356 . S
C647 C641 1.363 . S
C647 C642 1.379 . S
C647 N645 1.356 . S
N648 C640 1.356 . S
N648 H654 0.984 . S
N648 H655 0.984 . S
N649 C642 1.356 . S
N649 H652 0.984 . S
N649 H653 0.985 . S
H650 N645 0.984 . S
H651 N645 0.985 . S
H652 N649 0.984 . S
H653 N649 0.985 . S
H654 N648 0.984 . S
H655 N648 0.984 . S
H656 N644 0.984 . S
H657 N644 0.985 . S
C658 C659 1.363 . S
C658 C664 1.379 . S
C658 N666 1.356 . S
C659 C658 1.363 . S
C659 C665 1.363 . S
C660 C661 1.363 . S
C660 C665 1.379 . S
C660 N667 1.356 . S
C661 C660 1.363 . S
C661 C664 1.363 . S
N662 C664 1.356 . S
N662 H674 0.984 . S
N662 H675 0.985 . S
N663 C665 1.356 . S
N663 H668 0.984 . S
N663 H669 0.985 . S
C664 C658 1.379 . S
C664 C661 1.363 . S
C664 N662 1.356 . S
C665 C659 1.363 . S
C665 C660 1.379 . S
C665 N663 1.356 . S
N666 C658 1.356 . S
N666 H672 0.984 . S
N666 H673 0.984 . S
N667 C660 1.356 . S
N667 H670 0.984 . S
N667 H671 0.985 . S
H668 N663 0.984 . S
H669 N663 0.985 . S
H670 N667 0.984 . S
H671 N667 0.985 . S
H672 N666 0.984 . S
H673 N666 0.984 . S
H674 N662 0.984 . S
H675 N662 0.985 . S
C676 C677 1.363 . S
C676 C682 1.379 . S
C676 N684 1.356 . S
C677 C676 1.363 . S
C677 C683 1.363 . S
C678 C679 1.363 . S
C678 C683 1.379 . S
C678 N685 1.356 . S
C679 C678 1.363 . S
C679 C682 1.363 . S
N680 C682 1.356 . S
N680 H692 0.984 . S
N680 H693 0.985 . S
N681 C683 1.356 . S
N681 H686 0.984 . S
N681 H687 0.985 . S
C682 C676 1.379 . S
C682 C679 1.363 . S
C682 N680 1.356 . S
C683 C677 1.363 . S
C683 C678 1.379 . S
C683 N681 1.356 . S
N684 C676 1.356 . S
N684 H690 0.984 . S
N684 H691 0.984 . S
N685 C678 1.356 . S
N685 H688 0.984 . S
N685 H689 0.985 . S
H686 N681 0.984 . S
H687 N681 0.985 . S
H688 N685 0.984 . S
H689 N685 0.985 . S
H690 N684 0.984 . S
H691 N684 0.984 . S
H692 N680 0.984 . S
H693 N680 0.985 . S
C694 C695 1.363 . S
C694 C700 1.379 . S
C694 N702 1.356 . S
C695 C694 1.363 . S
C695 C701 1.363 . S
C696 C697 1.363 . S
C696 C701 1.379 . S
C696 N703 1.356 . S
C697 C696 1.363 . S
C697 C700 1.363 . S
N698 C700 1.356 . S
N698 H710 0.984 . S
N698 H711 0.985 . S
N699 C701 1.356 . S
N699 H704 0.984 . S
N699 H705 0.985 . S
C700 C694 1.379 . S
C700 C697 1.363 . S
C700 N698 1.356 . S
C701 C695 1.363 . S
C701 C696 1.379 . S
C701 N699 1.356 . S
N702 C694 1.356 . S
N702 H708 0.984 . S
N702 H709 0.984 . S
N703 C696 1.356 . S
N703 H706 0.984 . S
N703 H707 0.985 . S
H704 N699 0.984 . S
H705 N699 0.985 . S
H706 N703 0.984 . S
H707 N703 0.985 . S
H708 N702 0.984 . S
H709 N702 0.984 . S
H710 N698 0.984 . S
H711 N698 0.985 . S
C712 C713 1.363 . S
C712 C718 1.379 . S
C712 N720 1.356 . S
C713 C712 1.363 . S
C713 C719 1.363 . S
C714 C715 1.363 . S
C714 C719 1.379 . S
C714 N721 1.356 . S
C715 C714 1.363 . S
C715 C718 1.363 . S
N716 C718 1.356 . S
N716 H728 0.984 . S
N716 H729 0.985 . S
N717 C719 1.356 . S
N717 H722 0.984 . S
N717 H723 0.985 . S
C718 C712 1.379 . S
C718 C715 1.363 . S
C718 N716 1.356 . S
C719 C713 1.363 . S
C719 C714 1.379 . S
C719 N717 1.356 . S
N720 C712 1.356 . S
N720 H726 0.984 . S
N720 H727 0.984 . S
N721 C714 1.356 . S
N721 H724 0.984 . S
N721 H725 0.985 . S
H722 N717 0.984 . S
H723 N717 0.985 . S
H724 N721 0.984 . S
H725 N721 0.985 . S
H726 N720 0.984 . S
H727 N720 0.984 . S
H728 N716 0.984 . S
H729 N716 0.985 . S
C730 C731 1.363 . S
C730 C736 1.379 . S
C730 N738 1.356 . S
C731 C730 1.363 . S
C731 C737 1.363 . S
C732 C733 1.363 . S
C732 C737 1.379 . S
C732 N739 1.356 . S
C733 C732 1.363 . S
C733 C736 1.363 . S
N734 C736 1.356 . S
N734 H746 0.984 . S
N734 H747 0.985 . S
N735 C737 1.356 . S
N735 H740 0.984 . S
N735 H741 0.985 . S
C736 C730 1.379 . S
C736 C733 1.363 . S
C736 N734 1.356 . S
C737 C731 1.363 . S
C737 C732 1.379 . S
C737 N735 1.356 . S
N738 C730 1.356 . S
N738 H744 0.984 . S
N738 H745 0.984 . S
N739 C732 1.356 . S
N739 H742 0.984 . S
N739 H743 0.985 . S
H740 N735 0.984 . S
H741 N735 0.985 . S
H742 N739 0.984 . S
H743 N739 0.985 . S
H744 N738 0.984 . S
H745 N738 0.984 . S
H746 N734 0.984 . S
H747 N734 0.985 . S
C748 C749 1.363 . S
C748 C754 1.379 . S
C748 N756 1.356 . S
C749 C748 1.363 . S
C749 C755 1.363 . S
C750 C751 1.363 . S
C750 C755 1.379 . S
C750 N757 1.356 . S
C751 C750 1.363 . S
C751 C754 1.363 . S
N752 C754 1.356 . S
N752 H764 0.984 . S
N752 H765 0.985 . S
N753 C755 1.356 . S
N753 H758 0.984 . S
N753 H759 0.985 . S
C754 C748 1.379 . S
C754 C751 1.363 . S
C754 N752 1.356 . S
C755 C749 1.363 . S
C755 C750 1.379 . S
C755 N753 1.356 . S
N756 C748 1.356 . S
N756 H762 0.984 . S
N756 H763 0.984 . S
N757 C750 1.356 . S
N757 H760 0.984 . S
N757 H761 0.985 . S
H758 N753 0.984 . S
H759 N753 0.985 . S
H760 N757 0.984 . S
H761 N757 0.985 . S
H762 N756 0.984 . S
H763 N756 0.984 . S
H764 N752 0.984 . S
H765 N752 0.985 . S
C766 C767 1.363 . S
C766 C772 1.379 . S
C766 N774 1.356 . S
C767 C766 1.363 . S
C767 C773 1.363 . S
C768 C769 1.363 . S
C768 C773 1.379 . S
C768 N775 1.356 . S
C769 C768 1.363 . S
C769 C772 1.363 . S
N770 C772 1.356 . S
N770 H782 0.984 . S
N770 H783 0.985 . S
N771 C773 1.356 . S
N771 H776 0.984 . S
N771 H777 0.985 . S
C772 C766 1.379 . S
C772 C769 1.363 . S
C772 N770 1.356 . S
C773 C767 1.363 . S
C773 C768 1.379 . S
C773 N771 1.356 . S
N774 C766 1.356 . S
N774 H780 0.984 . S
N774 H781 0.984 . S
N775 C768 1.356 . S
N775 H778 0.984 . S
N775 H779 0.985 . S
H776 N771 0.984 . S
H777 N771 0.985 . S
H778 N775 0.984 . S
H779 N775 0.985 . S
H780 N774 0.984 . S
H781 N774 0.984 . S
H782 N770 0.984 . S
H783 N770 0.985 . S
C209 C199 1.616 . S
C211 C10 1.616 . S
C227 C160 1.081 . S
C229 C23 1.081 . S
C245 C36 1.310 . S
C247 C179 1.257 . S
C263 C186 1.257 . S
C265 C43 1.310 . S
C281 C127 1.081 . S
C283 C62 1.081 . S
C299 C69 1.257 . S
C301 C134 1.310 . S
C317 C82 1.257 . S
C319 C153 1.310 . S
C335 C101 1.616 . S
C337 C114 1.616 . S
C353 C70 1.801 . S
C355 C5 1.688 . S
C371 C81 1.552 . S
C373 C18 1.645 . S
C389 C94 1.754 . S
C391 C31 1.699 . S
C407 C44 1.459 . S
C409 C56 1.423 . S
C425 C4 1.481 . S
C427 C16 1.483 1_455 S
C443 C29 1.458 . S
C445 C17 1.423 . S
C461 C30 1.842 . S
C463 C49 1.842 . S
C479 C3 1.754 . S
C481 C42 1.699 . S
C497 C95 1.481 . S
C499 C55 1.483 1_655 S
C515 C57 1.645 . S
C517 C68 1.553 . S
C533 C75 1.597 . S
C535 C88 1.597 . S
C551 C96 1.688 . S
C553 C83 1.801 . S
C569 C172 1.801 . S
C571 C109 1.688 . S
C587 C122 1.645 . S
C589 C185 1.553 . S
C605 C200 1.754 . S
C607 C133 1.699 . S
C623 C166 1.423 . S
C625 C146 1.459 . S
C641 C108 1.481 . S
C643 C120 1.483 . S
C659 C121 1.423 . S
C661 C135 1.459 . S
C677 C147 1.842 . S
C679 C140 1.842 . S
C695 C107 1.754 . S
C697 C148 1.699 . S
C713 C205 1.481 . S
C715 C161 1.483 . S
C731 C159 1.645 . S
C733 C174 1.552 . S
C749 C173 1.597 . S
C751 C192 1.597 . S
C767 C198 1.688 . S
C769 C187 1.801 . S
