# Generated by pormake.
# Topology uof, (4)-cn, num edge types: 1
# Building blocks:
#     Node 0, Type 0, BuildingBlock: UXUYUI_clean_sbu_0, # of connection points: 4
#     Node 1, Type 0, BuildingBlock: UXUYUI_clean_sbu_0, # of connection points: 4
#     Node 2, Type 0, BuildingBlock: UXUYUI_clean_sbu_0, # of connection points: 4
#     Node 3, Type 0, BuildingBlock: UXUYUI_clean_sbu_0, # of connection points: 4
#     Node 4, Type 0, BuildingBlock: UXUYUI_clean_sbu_0, # of connection points: 4
#     Node 5, Type 0, BuildingBlock: UXUYUI_clean_sbu_0, # of connection points: 4
#     Node 6, Type 0, BuildingBlock: UXUYUI_clean_sbu_0, # of connection points: 4
#     Node 7, Type 0, BuildingBlock: UXUYUI_clean_sbu_0, # of connection points: 4
#     Node 8, Type 0, BuildingBlock: UXUYUI_clean_sbu_0, # of connection points: 4
#     Node 9, Type 0, BuildingBlock: UXUYUI_clean_sbu_0, # of connection points: 4
#     Node 10, Type 0, BuildingBlock: UXUYUI_clean_sbu_0, # of connection points: 4
#     Node 11, Type 0, BuildingBlock: UXUYUI_clean_sbu_0, # of connection points: 4
#     Edge 12, Type (0, 0), BuildingBlock: MIFKUJ_clean_linker_0, # of connection points: 2
#     Edge 13, Type (0, 0), BuildingBlock: MIFKUJ_clean_linker_0, # of connection points: 2
#     Edge 14, Type (0, 0), BuildingBlock: MIFKUJ_clean_linker_0, # of connection points: 2
#     Edge 15, Type (0, 0), BuildingBlock: MIFKUJ_clean_linker_0, # of connection points: 2
#     Edge 16, Type (0, 0), BuildingBlock: MIFKUJ_clean_linker_0, # of connection points: 2
#     Edge 17, Type (0, 0), BuildingBlock: MIFKUJ_clean_linker_0, # of connection points: 2
#     Edge 18, Type (0, 0), BuildingBlock: MIFKUJ_clean_linker_0, # of connection points: 2
#     Edge 19, Type (0, 0), BuildingBlock: MIFKUJ_clean_linker_0, # of connection points: 2
#     Edge 20, Type (0, 0), BuildingBlock: MIFKUJ_clean_linker_0, # of connection points: 2
#     Edge 21, Type (0, 0), BuildingBlock: MIFKUJ_clean_linker_0, # of connection points: 2
#     Edge 22, Type (0, 0), BuildingBlock: MIFKUJ_clean_linker_0, # of connection points: 2
#     Edge 23, Type (0, 0), BuildingBlock: MIFKUJ_clean_linker_0, # of connection points: 2
#     Edge 24, Type (0, 0), BuildingBlock: MIFKUJ_clean_linker_0, # of connection points: 2
#     Edge 25, Type (0, 0), BuildingBlock: MIFKUJ_clean_linker_0, # of connection points: 2
#     Edge 26, Type (0, 0), BuildingBlock: MIFKUJ_clean_linker_0, # of connection points: 2
#     Edge 27, Type (0, 0), BuildingBlock: MIFKUJ_clean_linker_0, # of connection points: 2
#     Edge 28, Type (0, 0), BuildingBlock: MIFKUJ_clean_linker_0, # of connection points: 2
#     Edge 29, Type (0, 0), BuildingBlock: MIFKUJ_clean_linker_0, # of connection points: 2
#     Edge 30, Type (0, 0), BuildingBlock: MIFKUJ_clean_linker_0, # of connection points: 2
#     Edge 31, Type (0, 0), BuildingBlock: MIFKUJ_clean_linker_0, # of connection points: 2
#     Edge 32, Type (0, 0), BuildingBlock: MIFKUJ_clean_linker_0, # of connection points: 2
#     Edge 33, Type (0, 0), BuildingBlock: MIFKUJ_clean_linker_0, # of connection points: 2
#     Edge 34, Type (0, 0), BuildingBlock: MIFKUJ_clean_linker_0, # of connection points: 2
#     Edge 35, Type (0, 0), BuildingBlock: MIFKUJ_clean_linker_0, # of connection points: 2
# Relax obj value: 0.353
# Max RMSD: 0.222
# Mean RMSD: 0.221
data_MOF--net-uof--node1-UXUYUI_clean_sbu_0--edge1-MIFKUJ_clean_linker_0
_symmetry_space_group_name_H-M    P1
_symmetry_Int_Tables_number       1
_symmetry_cell_setting            triclinic
loop_
_symmetry_equiv_pos_as_xyz
'x, y, z'
_cell_length_a     55.81942
_cell_length_b     55.816309
_cell_length_c     107.95267
_cell_angle_alpha  89.998871
_cell_angle_beta   90.000434
_cell_angle_gamma 119.99722
loop_
_atom_site_label
_atom_site_type_symbol
_atom_site_fract_x
_atom_site_fract_y
_atom_site_fract_z
_atom_type_partial_charge
Li0 Li 0.21122 0.33594 0.21462 0.0
Li1 Li 0.23148 0.33058 0.23434 0.0
Li2 Li 0.2612 0.36171 0.21756 0.0
Li3 Li 0.23685 0.3119 0.21494 0.0
C4 C 0.23314 0.38899 0.22442 0.0
N5 N 0.23357 0.43711 0.21799 0.0
C6 C 0.22908 0.40452 0.23346 0.0
C7 C 0.23745 0.39793 0.2121 0.0
C8 C 0.22936 0.42879 0.23002 0.0
C9 C 0.23758 0.42231 0.20904 0.0
C10 C 0.18811 0.27375 0.22223 0.0
C11 C 0.18228 0.22879 0.22667 0.0
N12 N 0.16207 0.21746 0.21792 0.0
C13 C 0.16715 0.26165 0.21335 0.0
C14 C 0.19562 0.25719 0.22901 0.0
C15 C 0.15427 0.23316 0.21129 0.0
C16 C 0.1741 0.32428 0.1955 0.0
N17 N 0.1803 0.33538 0.20705 0.0
C18 C 0.14012 0.34028 0.20718 0.0
C19 C 0.1641 0.34363 0.21292 0.0
C20 C 0.13278 0.32818 0.19534 0.0
C21 C 0.15035 0.3204 0.18947 0.0
H22 H 0.18716 0.31751 0.19116 0.0
H23 H 0.16949 0.35226 0.22215 0.0
C24 C 0.25105 0.34407 0.25856 0.0
N25 N 0.22927 0.32542 0.2517 0.0
C26 C 0.25371 0.33834 0.27091 0.0
C27 C 0.21079 0.2949 0.269 0.0
C28 C 0.20885 0.30158 0.25671 0.0
C29 C 0.23385 0.31307 0.27614 0.0
H30 H 0.26721 0.36261 0.25422 0.0
H31 H 0.19186 0.28708 0.25099 0.0
C32 C 0.25692 0.34298 0.19304 0.0
N33 N 0.29114 0.34924 0.17332 0.0
C34 C 0.27983 0.33953 0.19475 0.0
C35 C 0.25134 0.3495 0.18129 0.0
C36 C 0.2969 0.3428 0.18468 0.0
C37 C 0.26891 0.35261 0.17144 0.0
C38 C 0.28438 0.32863 0.2321 0.0
C39 C 0.31155 0.34226 0.22764 0.0
C40 C 0.27723 0.30968 0.24182 0.0
C41 C 0.33107 0.33673 0.23297 0.0
C42 C 0.29736 0.30474 0.24692 0.0
N43 N 0.32364 0.31826 0.24243 0.0
C44 C 0.31131 0.40337 0.22601 0.0
C45 C 0.30743 0.40501 0.2042 0.0
C46 C 0.33966 0.42197 0.22542 0.0
N47 N 0.29615 0.39432 0.21544 0.0
C48 C 0.33582 0.42351 0.20317 0.0
C49 C 0.35252 0.43119 0.21384 0.0
H50 H 0.30173 0.39453 0.23482 0.0
H51 H 0.29488 0.39791 0.19594 0.0
C52 C 0.22352 0.27159 0.19676 0.0
N53 N 0.23856 0.28188 0.20731 0.0
C54 C 0.22353 0.24974 0.1905 0.0
C55 C 0.25483 0.2497 0.20597 0.0
C56 C 0.254 0.27138 0.21199 0.0
C57 C 0.23945 0.23864 0.19508 0.0
H58 H 0.21151 0.28044 0.19322 0.0
H59 H 0.26564 0.27963 0.22039 0.0
O60 O 0.23275 0.36511 0.22768 0.0
O61 O 0.20152 0.30173 0.22412 0.0
O62 O 0.23981 0.33983 0.20274 0.0
O63 O 0.2651 0.33425 0.22716 0.0
H64 H 0.2257 0.39785 0.24304 0.0
H65 H 0.24061 0.38623 0.20496 0.0
H66 H 0.22622 0.44101 0.23692 0.0
H67 H 0.24087 0.42946 0.19955 0.0
H68 H 0.18807 0.21577 0.23176 0.0
H69 H 0.16102 0.27413 0.20805 0.0
H70 H 0.21192 0.26623 0.23585 0.0
H71 H 0.13813 0.22353 0.2044 0.0
H72 H 0.12735 0.3468 0.21201 0.0
H73 H 0.14532 0.31041 0.1805 0.0
H74 H 0.27196 0.35273 0.27605 0.0
H75 H 0.19493 0.27533 0.27274 0.0
H76 H 0.28438 0.33434 0.20374 0.0
H77 H 0.23366 0.35222 0.17981 0.0
H78 H 0.31472 0.34023 0.18588 0.0
H79 H 0.26487 0.35772 0.1623 0.0
H80 H 0.31758 0.35698 0.22013 0.0
H81 H 0.25633 0.2987 0.24535 0.0
H82 H 0.35215 0.34717 0.2296 0.0
H83 H 0.29209 0.29014 0.25444 0.0
H84 H 0.3516 0.42788 0.23391 0.0
H85 H 0.34478 0.4301 0.19405 0.0
H86 H 0.21158 0.24191 0.18207 0.0
H87 H 0.26711 0.24146 0.20986 0.0
Li88 Li 0.88213 0.21409 0.54549 0.0
Li89 Li 0.90709 0.23844 0.56513 0.0
Li90 Li 0.90321 0.26532 0.54741 0.0
Li91 Li 0.93115 0.24364 0.54577 0.0
C92 C 0.84778 0.23393 0.55476 0.0
N93 N 0.79785 0.22987 0.54858 0.0
C94 C 0.82845 0.2296 0.56398 0.0
C95 C 0.84177 0.2363 0.5424 0.0
C96 C 0.8033 0.22758 0.56067 0.0
C97 C 0.8164 0.23415 0.53946 0.0
C98 C 0.92583 0.19799 0.55614 0.0
C99 C 0.96813 0.20035 0.56292 0.0
N100 N 0.96094 0.17649 0.55672 0.0
C101 C 0.91872 0.17334 0.54993 0.0
C102 C 0.9506 0.21147 0.56279 0.0
C103 C 0.93679 0.16285 0.5503 0.0
C104 C 0.8622 0.16991 0.52938 0.0
N105 N 0.85352 0.18059 0.53847 0.0
C106 C 0.80731 0.14247 0.53672 0.0
C107 C 0.82669 0.16741 0.54228 0.0
C108 C 0.81573 0.13102 0.52722 0.0
C109 C 0.84364 0.14513 0.5236 0.0
H110 H 0.88379 0.18046 0.52678 0.0
H111 H 0.82032 0.17606 0.54967 0.0
C112 C 0.91484 0.26117 0.58887 0.0
N113 N 0.91061 0.23829 0.58258 0.0
C114 C 0.92359 0.26499 0.60119 0.0
C115 C 0.92178 0.22081 0.60053 0.0
C116 C 0.91312 0.21788 0.5882 0.0
C117 C 0.92796 0.24502 0.60707 0.0
H118 H 0.91313 0.27726 0.58406 0.0
H119 H 0.90971 0.19994 0.58295 0.0
C120 C 0.91999 0.25281 0.52273 0.0
N121 N 0.95206 0.27165 0.50158 0.0
C122 C 0.94347 0.27916 0.52249 0.0
C123 C 0.91263 0.23618 0.51215 0.0
C124 C 0.95948 0.28827 0.51174 0.0
C125 C 0.92915 0.24605 0.50157 0.0
C126 C 0.95932 0.29485 0.56137 0.0
C127 C 0.96981 0.32042 0.55541 0.0
C128 C 0.9734 0.29247 0.57159 0.0
C129 C 0.99408 0.34314 0.55981 0.0
C130 C 0.99763 0.31568 0.57569 0.0
N131 N 0.00737 0.34033 0.56977 0.0
C132 C 0.90626 0.31481 0.55377 0.0
C133 C 0.90307 0.30678 0.5321 0.0
C134 C 0.9135 0.34233 0.55189 0.0
N135 N 0.90233 0.29808 0.54393 0.0
C136 C 0.91023 0.33419 0.52979 0.0
C137 C 0.91664 0.35265 0.53975 0.0
H138 H 0.90596 0.30736 0.56305 0.0
H139 H 0.89981 0.29297 0.52446 0.0
C140 C 0.96083 0.22694 0.53054 0.0
N141 N 0.96417 0.24713 0.53859 0.0
C142 C 0.98376 0.22765 0.52502 0.0
C143 C 0.01319 0.2704 0.53585 0.0
C144 C 0.98971 0.26871 0.54126 0.0
C145 C 0.01035 0.24959 0.52769 0.0
H146 H 0.94026 0.21022 0.52843 0.0
H147 H 0.99206 0.28466 0.54756 0.0
O148 O 0.87245 0.23591 0.55789 0.0
O149 O 0.9087 0.20894 0.55567 0.0
O150 O 0.90444 0.24333 0.5333 0.0
O151 O 0.93527 0.27242 0.55733 0.0
H152 H 0.83284 0.22778 0.57359 0.0
H153 H 0.85644 0.23967 0.53513 0.0
H154 H 0.78813 0.22418 0.5677 0.0
H155 H 0.81145 0.23589 0.52994 0.0
H156 H 0.98749 0.21073 0.56794 0.0
H157 H 0.8995 0.16245 0.54486 0.0
H158 H 0.9564 0.23053 0.56764 0.0
H159 H 0.93162 0.14388 0.54548 0.0
H160 H 0.786 0.13235 0.53979 0.0
H161 H 0.85127 0.13681 0.51656 0.0
H162 H 0.92842 0.28412 0.6058 0.0
H163 H 0.92446 0.20471 0.60476 0.0
H164 H 0.94948 0.29225 0.53059 0.0
H165 H 0.8943 0.21594 0.51207 0.0
H166 H 0.97783 0.30852 0.51148 0.0
H167 H 0.92374 0.23336 0.49333 0.0
H168 H 0.9594 0.32281 0.54748 0.0
H169 H 0.96576 0.27296 0.57635 0.0
H170 H 0.00234 0.36303 0.55529 0.0
H171 H 0.00866 0.31409 0.5836 0.0
H172 H 0.9186 0.35581 0.55985 0.0
H173 H 0.91198 0.34118 0.5203 0.0
H174 H 0.98072 0.21138 0.51864 0.0
H175 H 0.03339 0.28757 0.5382 0.0
Li176 Li 0.67057 0.90973 0.89881 0.0
Li177 Li 0.66764 0.87994 0.88136 0.0
Li178 Li 0.69093 0.92981 0.87895 0.0
Li179 Li 0.64042 0.90219 0.88105 0.0
C180 C 0.71741 0.90903 0.89961 0.0
N181 N 0.74872 0.90953 0.91955 0.0
C182 C 0.71626 0.88457 0.90348 0.0
C183 C 0.73446 0.93372 0.9059 0.0
C184 C 0.7323 0.88527 0.91357 0.0
C185 C 0.7501 0.93354 0.91596 0.0
C186 C 0.61081 0.86015 0.89592 0.0
C187 C 0.56359 0.82958 0.88969 0.0
N188 N 0.5548 0.8332 0.90093 0.0
C189 C 0.60135 0.86344 0.90743 0.0
C190 C 0.59184 0.84296 0.887 0.0
C191 C 0.57293 0.84967 0.90977 0.0
C192 C 0.67244 0.93932 0.91983 0.0
N193 N 0.6739 0.91677 0.91623 0.0
C194 C 0.68228 0.9086 0.93712 0.0
C195 C 0.67798 0.90094 0.92462 0.0
C196 C 0.68176 0.93238 0.941 0.0
C197 C 0.67641 0.94758 0.93218 0.0
H198 H 0.66846 0.95116 0.91309 0.0
H199 H 0.67828 0.88265 0.92159 0.0
C200 C 0.69732 0.85582 0.87296 0.0
N201 N 0.67113 0.8493 0.87598 0.0
C202 C 0.70256 0.83591 0.86796 0.0
C203 C 0.65366 0.80267 0.86919 0.0
C204 C 0.64937 0.82332 0.87429 0.0
C205 C 0.68059 0.80895 0.86595 0.0
H206 H 0.71413 0.8768 0.87417 0.0
H207 H 0.62869 0.81878 0.87663 0.0
C208 C 0.6762 0.96468 0.88705 0.0
N209 N 0.69749 0.0201 0.88167 0.0
C210 C 0.66264 0.9729 0.87864 0.0
C211 C 0.70053 0.98468 0.89276 0.0
C212 C 0.67373 0.00101 0.87605 0.0
C213 C 0.711 0.01258 0.8899 0.0
C214 C 0.66532 0.88787 0.85754 0.0
C215 C 0.69099 0.89633 0.85203 0.0
C216 C 0.6417 0.86458 0.85301 0.0
C217 C 0.69265 0.88108 0.84214 0.0
C218 C 0.64424 0.84989 0.8431 0.0
N219 N 0.66945 0.85835 0.83793 0.0
C220 C 0.74658 0.97059 0.87452 0.0
C221 C 0.71367 0.97205 0.86113 0.0
C222 C 0.76804 0.99362 0.86869 0.0
N223 N 0.72005 0.96054 0.87075 0.0
C224 C 0.73447 0.99517 0.85505 0.0
C225 C 0.76209 0.00627 0.85884 0.0
H226 H 0.75109 0.96076 0.88206 0.0
H227 H 0.69236 0.96329 0.85823 0.0
C228 C 0.59588 0.90898 0.88637 0.0
N229 N 0.60771 0.90271 0.87686 0.0
C230 C 0.57581 0.91624 0.88405 0.0
C231 C 0.58 0.91002 0.86215 0.0
C232 C 0.5999 0.90255 0.86491 0.0
C233 C 0.5682 0.91764 0.87179 0.0
H234 H 0.60343 0.91019 0.8957 0.0
H235 H 0.61034 0.89836 0.85751 0.0
O236 O 0.70178 0.90877 0.88978 0.0
O237 O 0.63851 0.87368 0.89341 0.0
O238 O 0.66601 0.9372 0.88954 0.0
O239 O 0.66341 0.90195 0.8675 0.0
H240 H 0.70291 0.86518 0.89886 0.0
H241 H 0.73533 0.95277 0.90316 0.0
H242 H 0.73157 0.86649 0.91668 0.0
H243 H 0.76325 0.95248 0.92095 0.0
H244 H 0.54865 0.81637 0.88285 0.0
H245 H 0.61579 0.87664 0.91444 0.0
H246 H 0.59886 0.84027 0.87804 0.0
H247 H 0.56528 0.85213 0.91861 0.0
H248 H 0.68594 0.89607 0.94367 0.0
H249 H 0.67601 0.96615 0.93472 0.0
H250 H 0.72354 0.84183 0.86535 0.0
H251 H 0.63618 0.78212 0.86778 0.0
H252 H 0.64393 0.9578 0.87404 0.0
H253 H 0.71137 0.9787 0.89925 0.0
H254 H 0.6635 0.00764 0.86952 0.0
H255 H 0.72989 0.02824 0.8942 0.0
H256 H 0.70948 0.91423 0.85547 0.0
H257 H 0.6217 0.85775 0.8572 0.0
H258 H 0.71241 0.88724 0.83784 0.0
H259 H 0.62618 0.83169 0.83956 0.0
H260 H 0.78903 0.00163 0.87197 0.0
H261 H 0.72904 0.00403 0.84737 0.0
H262 H 0.56784 0.92264 0.89174 0.0
H263 H 0.57475 0.91095 0.85257 0.0
Li264 Li 0.78426 0.66506 0.21437 0.0
Li265 Li 0.76073 0.66683 0.23384 0.0
Li266 Li 0.73441 0.63551 0.21647 0.0
Li267 Li 0.75487 0.68513 0.21443 0.0
C268 C 0.76606 0.61217 0.22363 0.0
N269 N 0.77103 0.56707 0.21695 0.0
C270 C 0.77037 0.59683 0.23268 0.0
C271 C 0.76427 0.60458 0.21118 0.0
C272 C 0.77283 0.57409 0.22912 0.0
C273 C 0.76683 0.58171 0.20799 0.0
C274 C 0.80243 0.72563 0.22275 0.0
C275 C 0.80532 0.76923 0.22749 0.0
N276 N 0.82678 0.78212 0.21942 0.0
C277 C 0.82468 0.73934 0.21459 0.0
C278 C 0.79282 0.7407 0.22934 0.0
C279 C 0.83666 0.76791 0.21301 0.0
C280 C 0.82193 0.67989 0.19536 0.0
N281 N 0.81718 0.66956 0.20706 0.0
C282 C 0.86104 0.67164 0.20744 0.0
C283 C 0.83588 0.66498 0.21312 0.0
C284 C 0.86688 0.68329 0.19549 0.0
C285 C 0.84667 0.68685 0.18938 0.0
H286 H 0.80682 0.68361 0.19083 0.0
H287 H 0.8316 0.65693 0.22247 0.0
C288 C 0.7389 0.65228 0.25772 0.0
N289 N 0.76121 0.6713 0.25124 0.0
C290 C 0.73509 0.65744 0.27 0.0
C291 C 0.77803 0.70104 0.26887 0.0
C292 C 0.78102 0.69502 0.2566 0.0
C293 C 0.75441 0.68248 0.27562 0.0
H294 H 0.72323 0.63387 0.2531 0.0
H295 H 0.79842 0.70987 0.25117 0.0
C296 C 0.73853 0.65498 0.19222 0.0
N297 N 0.70408 0.64606 0.17225 0.0
C298 C 0.71415 0.65591 0.19376 0.0
C299 C 0.74544 0.6496 0.18051 0.0
C300 C 0.69699 0.65132 0.18356 0.0
C301 C 0.72774 0.64512 0.17053 0.0
C302 C 0.70597 0.66472 0.2306 0.0
C303 C 0.67913 0.64979 0.22582 0.0
C304 C 0.71163 0.68382 0.24013 0.0
C305 C 0.65846 0.6543 0.23061 0.0
C306 C 0.69039 0.68771 0.24467 0.0
N307 N 0.66447 0.673 0.23986 0.0
C308 C 0.68458 0.59083 0.2234 0.0
C309 C 0.69344 0.59013 0.20197 0.0
C310 C 0.65719 0.56994 0.22183 0.0
N311 N 0.70165 0.60125 0.21346 0.0
C312 C 0.6661 0.56933 0.19995 0.0
C313 C 0.64735 0.55977 0.2099 0.0
H314 H 0.69169 0.60021 0.23241 0.0
H315 H 0.70754 0.59839 0.19424 0.0
C316 C 0.76924 0.72731 0.19734 0.0
N317 N 0.75145 0.71423 0.20685 0.0
C318 C 0.76955 0.74966 0.19143 0.0
C319 C 0.73224 0.74385 0.20477 0.0
C320 C 0.73295 0.72188 0.21057 0.0
C321 C 0.75093 0.75818 0.19518 0.0
H322 H 0.78346 0.72053 0.19447 0.0
H323 H 0.71886 0.71121 0.21805 0.0
O324 O 0.76371 0.63453 0.22702 0.0
O325 O 0.78995 0.69756 0.22417 0.0
O326 O 0.75565 0.65926 0.20207 0.0
O327 O 0.7264 0.66027 0.22613 0.0
H328 H 0.77181 0.60246 0.24237 0.0
H329 H 0.76097 0.61616 0.20402 0.0
H330 H 0.77618 0.56203 0.23603 0.0
H331 H 0.7655 0.57561 0.19839 0.0
H332 H 0.79791 0.7811 0.23244 0.0
H333 H 0.83247 0.72804 0.20946 0.0
H334 H 0.77563 0.73043 0.23569 0.0
H335 H 0.85377 0.77876 0.20666 0.0
H336 H 0.87614 0.66873 0.2125 0.0
H337 H 0.85013 0.69539 0.18011 0.0
H338 H 0.71641 0.64272 0.27479 0.0
H339 H 0.79358 0.72041 0.27289 0.0
H340 H 0.70853 0.66014 0.20271 0.0
H341 H 0.76419 0.64871 0.17916 0.0
H342 H 0.67804 0.65194 0.18464 0.0
H343 H 0.73279 0.64086 0.16142 0.0
H344 H 0.67423 0.6349 0.21846 0.0
H345 H 0.73221 0.69568 0.24393 0.0
H346 H 0.63764 0.64293 0.22697 0.0
H347 H 0.69453 0.70245 0.25203 0.0
H348 H 0.64339 0.56336 0.22974 0.0
H349 H 0.65937 0.56171 0.19064 0.0
H350 H 0.78406 0.76006 0.18396 0.0
H351 H 0.71764 0.74996 0.20793 0.0
Li352 Li 0.12063 0.78794 0.54858 0.0
Li353 Li 0.08988 0.76408 0.56631 0.0
Li354 Li 0.09812 0.73847 0.55001 0.0
Li355 Li 0.07089 0.76115 0.54577 0.0
C356 C 0.14017 0.75416 0.56568 0.0
N357 N 0.16849 0.72787 0.57316 0.0
C358 C 0.13678 0.74366 0.5777 0.0
C359 C 0.15816 0.7516 0.55751 0.0
C360 C 0.15124 0.73036 0.5813 0.0
C361 C 0.17222 0.73814 0.56145 0.0
C362 C 0.09163 0.81216 0.56458 0.0
C363 C 0.06745 0.82463 0.57945 0.0
N364 N 0.09179 0.84737 0.58263 0.0
C365 C 0.11641 0.83563 0.56802 0.0
C366 C 0.06694 0.8066 0.57034 0.0
C367 C 0.11605 0.8532 0.57714 0.0
C368 C 0.14382 0.83908 0.53771 0.0
N369 N 0.15129 0.82147 0.54273 0.0
C370 C 0.19893 0.85309 0.53827 0.0
C371 C 0.1782 0.82783 0.5431 0.0
C372 C 0.19173 0.8718 0.53312 0.0
C373 C 0.16369 0.86434 0.53282 0.0
H374 H 0.12223 0.83332 0.53744 0.0
H375 H 0.18354 0.81335 0.5471 0.0
C376 C 0.05847 0.7408 0.5875 0.0
N377 N 0.08183 0.76361 0.58353 0.0
C378 C 0.04915 0.73925 0.59958 0.0
C379 C 0.08894 0.78415 0.60363 0.0
C380 C 0.09756 0.78479 0.5914 0.0
C381 C 0.06409 0.76135 0.60776 0.0
H382 H 0.04683 0.72379 0.58124 0.0
H383 H 0.11644 0.80242 0.58811 0.0
C384 C 0.11386 0.7734 0.52508 0.0
N385 N 0.14442 0.80275 0.50473 0.0
C386 C 0.1053 0.78866 0.51795 0.0
C387 C 0.13776 0.77279 0.5218 0.0
C388 C 0.12108 0.80342 0.50771 0.0
C389 C 0.15299 0.78786 0.51149 0.0
C390 C 0.03521 0.71329 0.55534 0.0
C391 C 0.02662 0.68936 0.54828 0.0
C392 C 0.01553 0.71962 0.55984 0.0
C393 C 0.99848 0.67225 0.54578 0.0
C394 C 0.9876 0.70202 0.55711 0.0
N395 N 0.97972 0.6789 0.55019 0.0
C396 C 0.09209 0.68834 0.55762 0.0
C397 C 0.09492 0.69403 0.53581 0.0
C398 C 0.08309 0.66026 0.55639 0.0
N399 N 0.09719 0.70441 0.54742 0.0
C400 C 0.08551 0.66583 0.53414 0.0
C401 C 0.07838 0.64835 0.54454 0.0
H402 H 0.0929 0.69682 0.56671 0.0
H403 H 0.09817 0.7071 0.52786 0.0
C404 C 0.03266 0.77765 0.53907 0.0
N405 N 0.04078 0.75887 0.53673 0.0
C406 C 0.01004 0.77607 0.53286 0.0
C407 C 0.00494 0.73618 0.52172 0.0
C408 C 0.02776 0.73861 0.52813 0.0
C409 C 0.99577 0.75504 0.5241 0.0
H410 H 0.04369 0.79382 0.54579 0.0
H411 H 0.03503 0.72426 0.52633 0.0
O412 O 0.12608 0.76709 0.56197 0.0
O413 O 0.09155 0.79459 0.55572 0.0
O414 O 0.09916 0.75948 0.53535 0.0
O415 O 0.06273 0.73063 0.55771 0.0
H416 H 0.12299 0.74558 0.58415 0.0
H417 H 0.16107 0.75974 0.54819 0.0
H418 H 0.14873 0.72199 0.59055 0.0
H419 H 0.1861 0.73584 0.5552 0.0
H420 H 0.04852 0.8205 0.58403 0.0
H421 H 0.13579 0.84011 0.5638 0.0
H422 H 0.04761 0.78839 0.56792 0.0
H423 H 0.13508 0.87139 0.5799 0.0
H424 H 0.22031 0.85805 0.5387 0.0
H425 H 0.15706 0.87774 0.52868 0.0
H426 H 0.03036 0.72089 0.60248 0.0
H427 H 0.10117 0.80156 0.60967 0.0
H428 H 0.08688 0.78939 0.5204 0.0
H429 H 0.14458 0.76098 0.5272 0.0
H430 H 0.11484 0.8155 0.50216 0.0
H431 H 0.17164 0.78774 0.50888 0.0
H432 H 0.04146 0.6841 0.54468 0.0
H433 H 0.0218 0.7381 0.56528 0.0
H434 H 0.99157 0.65372 0.54029 0.0
H435 H 0.97219 0.70678 0.56047 0.0
H436 H 0.07831 0.64772 0.56467 0.0
H437 H 0.0819 0.65752 0.52483 0.0
H438 H 0.00354 0.7909 0.53504 0.0
H439 H 0.99475 0.71991 0.5149 0.0
Li440 Li 0.33638 0.09503 0.90023 0.0
Li441 Li 0.33623 0.11907 0.8804 0.0
Li442 Li 0.31872 0.07044 0.88081 0.0
Li443 Li 0.3681 0.10004 0.88274 0.0
C444 C 0.27698 0.07305 0.89099 0.0
N445 N 0.22106 0.03477 0.89143 0.0
C446 C 0.25823 0.07847 0.88478 0.0
C447 C 0.26722 0.04833 0.89758 0.0
C448 C 0.23005 0.05882 0.88508 0.0
C449 C 0.23891 0.02919 0.89764 0.0
C450 C 0.38967 0.15548 0.88984 0.0
C451 C 0.42117 0.18714 0.87459 0.0
N452 N 0.43393 0.2065 0.8836 0.0
C453 C 0.40313 0.17564 0.89895 0.0
C454 C 0.39877 0.16121 0.87756 0.0
C455 C 0.42546 0.20133 0.8956 0.0
C456 C 0.35322 0.09015 0.92396 0.0
N457 N 0.33278 0.0914 0.91768 0.0
C458 C 0.30359 0.07617 0.93553 0.0
C459 C 0.30863 0.08551 0.92328 0.0
C460 C 0.32362 0.07294 0.94203 0.0
C461 C 0.34909 0.08099 0.93622 0.0
H462 H 0.37206 0.09464 0.91919 0.0
H463 H 0.29266 0.0865 0.91803 0.0
C464 C 0.30921 0.13565 0.86442 0.0
N465 N 0.32952 0.14626 0.8731 0.0
C466 C 0.3007 0.15242 0.85862 0.0
C467 C 0.33452 0.19118 0.87063 0.0
C468 C 0.34231 0.17349 0.87629 0.0
C469 C 0.31318 0.18054 0.86177 0.0
H470 H 0.29921 0.11388 0.86218 0.0
H471 H 0.35816 0.18142 0.88335 0.0
C472 C 0.34362 0.0444 0.89663 0.0
N473 N 0.3441 0.99775 0.90492 0.0
C474 C 0.3591 0.03475 0.89037 0.0
C475 C 0.32832 0.0302 0.90709 0.0
C476 C 0.3591 0.01118 0.89472 0.0
C477 C 0.32883 0.00668 0.91114 0.0
C478 C 0.33911 0.08257 0.85773 0.0
C479 C 0.3419 0.05905 0.85729 0.0
C480 C 0.33036 0.09056 0.84717 0.0
C481 C 0.33542 0.04362 0.84638 0.0
C482 C 0.32411 0.0746 0.83641 0.0
N483 N 0.32671 0.05164 0.83625 0.0
C484 C 0.27337 0.03907 0.86525 0.0
C485 C 0.28632 0.01151 0.87702 0.0
C486 C 0.2514 0.01553 0.85997 0.0
N487 N 0.29014 0.03668 0.87369 0.0
C488 C 0.2647 0.98743 0.87193 0.0
C489 C 0.24677 0.98928 0.86337 0.0
H490 H 0.27694 0.05934 0.86272 0.0
H491 H 0.2997 0.00991 0.88372 0.0
C492 C 0.41539 0.09975 0.88998 0.0
N493 N 0.4023 0.10175 0.87976 0.0
C494 C 0.435 0.09137 0.88884 0.0
C495 C 0.42907 0.08977 0.8666 0.0
C496 C 0.4096 0.09829 0.86817 0.0
C497 C 0.44096 0.08485 0.87708 0.0
H498 H 0.40878 0.10223 0.89907 0.0
H499 H 0.39872 0.09989 0.86022 0.0
O500 O 0.30474 0.0917 0.89055 0.0
O501 O 0.36774 0.13029 0.89301 0.0
O502 O 0.34368 0.06773 0.89263 0.0
O503 O 0.3449 0.09767 0.86842 0.0
H504 H 0.26531 0.09761 0.87977 0.0
H505 H 0.28143 0.04377 0.90241 0.0
H506 H 0.21533 0.06269 0.88025 0.0
H507 H 0.23114 0.00985 0.90259 0.0
H508 H 0.4284 0.19188 0.86513 0.0
H509 H 0.39634 0.17149 0.9085 0.0
H510 H 0.38868 0.14589 0.87038 0.0
H511 H 0.43605 0.21715 0.90255 0.0
H512 H 0.28357 0.07 0.93957 0.0
H513 H 0.36528 0.07926 0.94094 0.0
H514 H 0.28443 0.14342 0.85173 0.0
H515 H 0.34452 0.2127 0.87339 0.0
H516 H 0.37102 0.04526 0.88225 0.0
H517 H 0.31611 0.03714 0.91206 0.0
H518 H 0.37106 0.00358 0.88997 0.0
H519 H 0.3171 0.99554 0.91922 0.0
H520 H 0.34859 0.05256 0.86537 0.0
H521 H 0.32855 0.10896 0.84724 0.0
H522 H 0.33726 0.02524 0.84596 0.0
H523 H 0.31724 0.08051 0.82819 0.0
H524 H 0.23822 0.01785 0.8533 0.0
H525 H 0.26163 0.96755 0.8749 0.0
H526 H 0.44404 0.08829 0.89713 0.0
H527 H 0.43299 0.08491 0.85737 0.0
Li528 Li 0.6836 0.75346 0.45253 0.0
Li529 Li 0.63363 0.7312 0.45156 0.0
Li530 Li 0.66261 0.75758 0.4336 0.0
Li531 Li 0.66188 0.7812 0.45311 0.0
C532 C 0.66337 0.70483 0.43589 0.0
N533 N 0.67278 0.66574 0.42466 0.0
C534 C 0.64942 0.67738 0.43998 0.0
C535 C 0.68225 0.71238 0.42611 0.0
C536 C 0.65445 0.65795 0.43419 0.0
C537 C 0.68666 0.69232 0.42055 0.0
C538 C 0.65576 0.73613 0.47509 0.0
C539 C 0.64881 0.72431 0.4968 0.0
N540 N 0.65009 0.70106 0.49437 0.0
C541 C 0.65701 0.71211 0.47283 0.0
C542 C 0.65164 0.74229 0.48718 0.0
C543 C 0.6541 0.69466 0.48269 0.0
C544 C 0.72678 0.76736 0.46931 0.0
N545 N 0.71399 0.751 0.45934 0.0
C546 C 0.74463 0.73277 0.45994 0.0
C547 C 0.72241 0.73383 0.45464 0.0
C548 C 0.75842 0.7497 0.47012 0.0
C549 C 0.74932 0.76722 0.47482 0.0
H550 H 0.71947 0.78062 0.47295 0.0
H551 H 0.7121 0.72093 0.44679 0.0
C552 C 0.58957 0.67979 0.44571 0.0
N553 N 0.60032 0.69788 0.4553 0.0
C554 C 0.56931 0.65238 0.44786 0.0
C555 C 0.5699 0.66328 0.46957 0.0
C556 C 0.59011 0.69058 0.46698 0.0
C557 C 0.55999 0.64355 0.46 0.0
H558 H 0.59814 0.68621 0.43652 0.0
H559 H 0.5986 0.70547 0.47442 0.0
C560 C 0.72192 0.80159 0.44424 0.0
N561 N 0.77845 0.82838 0.4479 0.0
C562 C 0.73427 0.82263 0.45307 0.0
C563 C 0.73835 0.79439 0.43717 0.0
C564 C 0.76288 0.8359 0.45479 0.0
C565 C 0.76688 0.8081 0.43919 0.0
C566 C 0.60771 0.76068 0.44496 0.0
C567 C 0.59078 0.76342 0.43622 0.0
C568 C 0.60139 0.75944 0.45756 0.0
C569 C 0.56775 0.76489 0.44023 0.0
C570 C 0.57818 0.76098 0.4612 0.0
N571 N 0.56198 0.76365 0.45254 0.0
C572 C 0.64573 0.73455 0.41008 0.0
C573 C 0.68805 0.77721 0.41024 0.0
C574 C 0.64996 0.7299 0.39778 0.0
N575 N 0.66509 0.75747 0.41611 0.0
C576 C 0.69309 0.77343 0.39791 0.0
C577 C 0.67435 0.74905 0.39167 0.0
H578 H 0.62789 0.71903 0.41508 0.0
H579 H 0.70328 0.79502 0.41534 0.0
C580 C 0.67172 0.81886 0.47216 0.0
N581 N 0.66516 0.81406 0.45995 0.0
C582 C 0.67717 0.84379 0.47756 0.0
C583 C 0.66867 0.85833 0.45775 0.0
C584 C 0.66325 0.83299 0.45272 0.0
C585 C 0.67606 0.86411 0.4703 0.0
H586 H 0.67369 0.8037 0.4776 0.0
H587 H 0.65822 0.82866 0.443 0.0
O588 O 0.65824 0.72402 0.44131 0.0
O589 O 0.65839 0.75354 0.46558 0.0
O590 O 0.69385 0.78787 0.44265 0.0
O591 O 0.63034 0.75928 0.44113 0.0
H592 H 0.63491 0.6711 0.44759 0.0
H593 H 0.69367 0.73352 0.42294 0.0
H594 H 0.64377 0.63665 0.43727 0.0
H595 H 0.7012 0.69791 0.41297 0.0
H596 H 0.64556 0.72882 0.50619 0.0
H597 H 0.66018 0.70693 0.46358 0.0
H598 H 0.65042 0.76067 0.48911 0.0
H599 H 0.655 0.67601 0.48105 0.0
H600 H 0.75122 0.71916 0.456 0.0
H601 H 0.7593 0.78039 0.48274 0.0
H602 H 0.56245 0.63788 0.44021 0.0
H603 H 0.5629 0.65742 0.47902 0.0
H604 H 0.72188 0.82849 0.45861 0.0
H605 H 0.72913 0.77813 0.43032 0.0
H606 H 0.7727 0.8521 0.46165 0.0
H607 H 0.77982 0.80257 0.43387 0.0
H608 H 0.59541 0.76441 0.42643 0.0
H609 H 0.61422 0.75735 0.46448 0.0
H610 H 0.55446 0.76702 0.43357 0.0
H611 H 0.57306 0.76005 0.47092 0.0
H612 H 0.63484 0.711 0.39326 0.0
H613 H 0.71225 0.78859 0.39359 0.0
H614 H 0.68332 0.84753 0.4872 0.0
H615 H 0.66742 0.87336 0.45184 0.0
Li616 Li 0.93023 0.68973 0.79059 0.0
Li617 Li 0.90142 0.64022 0.7859 0.0
Li618 Li 0.91259 0.67496 0.7697 0.0
Li619 Li 0.88078 0.66881 0.78687 0.0
C620 C 0.96504 0.67558 0.78137 0.0
N621 N 0.01987 0.69391 0.78689 0.0
C622 C 0.97219 0.65932 0.7886 0.0
C623 C 0.98581 0.7011 0.77689 0.0
C624 C 2e-05 0.66895 0.79129 0.0
C625 C 0.01339 0.71003 0.77981 0.0
C626 C 0.88509 0.65967 0.81057 0.0
C627 C 0.84405 0.6363 0.82317 0.0
N628 N 0.85393 0.659 0.83058 0.0
C629 C 0.89497 0.68269 0.81836 0.0
C630 C 0.85955 0.6362 0.81303 0.0
C631 C 0.87886 0.68196 0.82842 0.0
C632 C 0.96895 0.7436 0.79809 0.0
N633 N 0.96034 0.71644 0.80003 0.0
C634 C 0.99609 0.72795 0.81493 0.0
C635 C 0.97298 0.70827 0.80841 0.0
C636 C 0.00581 0.7562 0.81292 0.0
C637 C 0.99179 0.76394 0.80446 0.0
H638 H 0.95818 0.74948 0.79156 0.0
H639 H 0.96526 0.68647 0.80994 0.0
C640 C 0.90751 0.59559 0.77911 0.0
N641 N 0.90024 0.60616 0.78879 0.0
C642 C 0.91455 0.5752 0.78109 0.0
C643 C 0.90569 0.57633 0.80295 0.0
C644 C 0.89853 0.59657 0.80052 0.0
C645 C 0.91466 0.56604 0.79319 0.0
H646 H 0.90997 0.60453 0.76999 0.0
H647 H 0.89355 0.60601 0.8081 0.0
C648 C 0.91343 0.72303 0.77171 0.0
N649 N 0.91724 0.76109 0.7543 0.0
C650 C 0.88978 0.72382 0.7681 0.0
C651 C 0.93902 0.74163 0.76647 0.0
C652 C 0.89215 0.74324 0.75929 0.0
C653 C 0.94051 0.76067 0.75767 0.0
C654 C 0.86156 0.61571 0.76945 0.0
C655 C 0.86734 0.60884 0.75782 0.0
C656 C 0.84165 0.59504 0.77702 0.0
C657 C 0.85332 0.58121 0.75401 0.0
C658 C 0.8281 0.56766 0.77289 0.0
N659 N 0.83418 0.56137 0.76157 0.0
C660 C 0.94469 0.68115 0.74898 0.0
C661 C 0.90936 0.69168 0.74468 0.0
C662 C 0.95564 0.68943 0.73715 0.0
N663 N 0.92251 0.68319 0.75265 0.0
C664 C 0.91972 0.70032 0.73271 0.0
C665 C 0.94359 0.69985 0.72893 0.0
H666 H 0.9542 0.67339 0.7553 0.0
H667 H 0.8913 0.69242 0.74771 0.0
C668 C 0.85878 0.69737 0.79815 0.0
N669 N 0.85065 0.67319 0.7921 0.0
C670 C 0.8393 0.7037 0.80271 0.0
C671 C 0.80308 0.66018 0.79459 0.0
C672 C 0.82344 0.65456 0.79024 0.0
C673 C 0.81097 0.68516 0.80088 0.0
H674 H 0.88059 0.71175 0.79949 0.0
H675 H 0.81757 0.63547 0.78538 0.0
O676 O 0.93786 0.66676 0.77879 0.0
O677 O 0.90023 0.66023 0.80051 0.0
O678 O 0.91155 0.70413 0.78029 0.0
O679 O 0.87526 0.64257 0.77339 0.0
H680 H 0.95646 0.63962 0.79222 0.0
H681 H 0.98064 0.71398 0.77131 0.0
H682 H 0.00583 0.65663 0.79691 0.0
H683 H 0.02965 0.7298 0.77647 0.0
H684 H 0.82414 0.61836 0.82514 0.0
H685 H 0.9147 0.70103 0.81657 0.0
H686 H 0.85169 0.6182 0.80711 0.0
H687 H 0.88614 0.69969 0.83448 0.0
H688 H 0.00613 0.72117 0.8215 0.0
H689 H 0.99874 0.78551 0.8026 0.0
H690 H 0.9219 0.56831 0.77334 0.0
H691 H 0.90549 0.56977 0.81241 0.0
H692 H 0.86976 0.70945 0.77195 0.0
H693 H 0.9575 0.74118 0.76907 0.0
H694 H 0.87401 0.74404 0.7564 0.0
H695 H 0.96015 0.77508 0.75349 0.0
H696 H 0.88266 0.62464 0.75184 0.0
H697 H 0.83686 0.60009 0.78603 0.0
H698 H 0.85768 0.57555 0.74506 0.0
H699 H 0.81276 0.55141 0.77868 0.0
H700 H 0.9735 0.68783 0.7345 0.0
H701 H 0.90968 0.70805 0.72663 0.0
H702 H 0.84646 0.72286 0.80775 0.0
H703 H 0.7815 0.64535 0.79292 0.0
Li704 Li 0.24251 0.93301 0.11844 0.0
Li705 Li 0.26594 0.90645 0.11839 0.0
Li706 Li 0.23956 0.90711 0.09991 0.0
Li707 Li 0.2155 0.88332 0.11961 0.0
C708 C 0.2928 0.96228 0.10319 0.0
N709 N 0.33411 0.01232 0.09406 0.0
C710 C 0.31859 0.97608 0.10904 0.0
C711 C 0.28812 0.97394 0.09264 0.0
C712 C 0.33917 0.00136 0.1043 0.0
C713 C 0.30924 0.99924 0.08818 0.0
C714 C 0.25726 0.92241 0.14205 0.0
C715 C 0.26392 0.92464 0.16418 0.0
N716 N 0.28698 0.94991 0.1629 0.0
C717 C 0.28096 0.94842 0.14096 0.0
C718 C 0.24858 0.91042 0.15374 0.0
C719 C 0.29573 0.96199 0.15161 0.0
C720 C 0.22676 0.96136 0.13468 0.0
N721 N 0.24349 0.96546 0.12479 0.0
C722 C 0.2596 0.01397 0.12511 0.0
C723 C 0.25968 0.99111 0.11993 0.0
C724 C 0.24253 0.01031 0.13531 0.0
C725 C 0.22585 0.98358 0.14008 0.0
H726 H 0.21411 0.94072 0.13836 0.0
H727 H 0.27259 0.994 0.11203 0.0
C728 C 0.3179 0.91434 0.11332 0.0
N729 N 0.29958 0.90773 0.12277 0.0
C730 C 0.34526 0.92167 0.11575 0.0
C731 C 0.33397 0.91345 0.13752 0.0
C732 C 0.30671 0.90607 0.13466 0.0
C733 C 0.35382 0.9222 0.12803 0.0
H734 H 0.31163 0.91559 0.10397 0.0
H735 H 0.29167 0.90027 0.142 0.0
C736 C 0.19596 0.92332 0.10844 0.0
N737 N 0.17156 0.95589 0.10879 0.0
C738 C 0.17372 0.9168 0.11636 0.0
C739 C 0.20558 0.94623 0.10059 0.0
C740 C 0.16171 0.93356 0.11643 0.0
C741 C 0.19304 0.96249 0.10094 0.0
C742 C 0.23779 0.85046 0.11243 0.0
C743 C 0.23573 0.83044 0.10404 0.0
C744 C 0.23896 0.8463 0.12514 0.0
C745 C 0.23484 0.80652 0.10852 0.0
C746 C 0.23802 0.82211 0.12924 0.0
N747 N 0.23599 0.80289 0.12092 0.0
C748 C 0.26359 0.91464 0.07645 0.0
C749 C 0.21847 0.90874 0.07631 0.0
C750 C 0.26732 0.92258 0.06401 0.0
N751 N 0.23982 0.9088 0.08239 0.0
C752 C 0.22127 0.91649 0.06386 0.0
C753 C 0.24631 0.92445 0.05766 0.0
H754 H 0.28038 0.91498 0.0816 0.0
H755 H 0.19986 0.90413 0.0813 0.0
C756 C 0.17446 0.86231 0.13724 0.0
N757 N 0.18287 0.85452 0.12696 0.0
C758 C 0.14929 0.84418 0.14282 0.0
C759 C 0.14245 0.80961 0.12755 0.0
C760 C 0.16772 0.82865 0.12213 0.0
C761 C 0.13273 0.81762 0.13786 0.0
H762 H 0.18692 0.88306 0.14083 0.0
H763 H 0.17486 0.82307 0.11389 0.0
O764 O 0.27254 0.93721 0.10757 0.0
O765 O 0.24243 0.90866 0.13177 0.0
O766 O 0.20855 0.90766 0.10851 0.0
O767 O 0.23859 0.87392 0.10814 0.0
H768 H 0.32279 0.96739 0.11715 0.0
H769 H 0.26836 0.96374 0.08798 0.0
H770 H 0.35919 0.01223 0.10876 0.0
H771 H 0.30584 0.00848 0.08005 0.0
H772 H 0.25748 0.91557 0.17329 0.0
H773 H 0.2878 0.95807 0.13201 0.0
H774 H 0.23025 0.89028 0.15473 0.0
H775 H 0.31413 0.98214 0.1509 0.0
H776 H 0.27253 0.03424 0.12108 0.0
H777 H 0.21259 0.97995 0.14801 0.0
H778 H 0.3599 0.92851 0.10816 0.0
H779 H 0.33965 0.91316 0.14709 0.0
H780 H 0.16592 0.8991 0.12246 0.0
H781 H 0.2228 0.95162 0.09443 0.0
H782 H 0.14459 0.92885 0.12257 0.0
H783 H 0.20044 0.98041 0.09499 0.0
H784 H 0.2348 0.83337 0.09418 0.0
H785 H 0.24052 0.86149 0.13178 0.0
H786 H 0.23323 0.79084 0.10213 0.0
H787 H 0.23889 0.81862 0.13905 0.0
H788 H 0.28708 0.92886 0.05968 0.0
H789 H 0.20439 0.91721 0.05927 0.0
H790 H 0.1426 0.85101 0.15083 0.0
H791 H 0.13013 0.78933 0.12344 0.0
Li792 Li 0.36279 0.2587 0.45022 0.0
Li793 Li 0.31202 0.23674 0.45313 0.0
Li794 Li 0.33535 0.20958 0.45143 0.0
Li795 Li 0.33146 0.23373 0.43284 0.0
C796 C 0.3389 0.22321 0.47497 0.0
N797 N 0.3355 0.19261 0.49568 0.0
C798 C 0.31373 0.20801 0.48119 0.0
C799 C 0.36241 0.22314 0.47936 0.0
C800 C 0.31242 0.19261 0.49163 0.0
C801 C 0.36024 0.20745 0.48982 0.0
C802 C 0.32801 0.2853 0.43993 0.0
C803 C 0.29739 0.29894 0.43062 0.0
N804 N 0.31095 0.32358 0.43667 0.0
C805 C 0.34174 0.31081 0.44601 0.0
C806 C 0.30573 0.27933 0.43213 0.0
C807 C 0.33276 0.32986 0.44426 0.0
C808 C 0.40717 0.30993 0.44376 0.0
N809 N 0.39492 0.29301 0.45361 0.0
C810 C 0.41825 0.33086 0.46766 0.0
C811 C 0.40065 0.30264 0.46543 0.0
C812 C 0.42974 0.34915 0.4576 0.0
C813 C 0.42501 0.33814 0.44556 0.0
H814 H 0.40133 0.30194 0.43446 0.0
H815 H 0.38981 0.28886 0.47306 0.0
C816 C 0.2574 0.21818 0.46106 0.0
N817 N 0.28356 0.24015 0.46096 0.0
C818 C 0.23615 0.22028 0.4668 0.0
C819 C 0.26934 0.2673 0.47258 0.0
C820 C 0.28995 0.26427 0.46672 0.0
C821 C 0.24199 0.24513 0.47264 0.0
H822 H 0.25306 0.19894 0.45677 0.0
H823 H 0.31112 0.28106 0.46687 0.0
C824 C 0.3916 0.24388 0.4362 0.0
N825 N 0.44772 0.27154 0.43142 0.0
C826 C 0.40144 0.25497 0.42446 0.0
C827 C 0.41024 0.24655 0.44548 0.0
C828 C 0.42991 0.26896 0.42223 0.0
C829 C 0.43856 0.2607 0.44289 0.0
C830 C 0.2794 0.18616 0.43576 0.0
C831 C 0.27577 0.16024 0.43265 0.0
C832 C 0.26071 0.19393 0.43136 0.0
C833 C 0.25344 0.14249 0.42517 0.0
C834 C 0.23868 0.17562 0.42389 0.0
N835 N 0.23553 0.15049 0.42097 0.0
C836 C 0.3055 0.15786 0.46188 0.0
C837 C 0.35196 0.16966 0.4581 0.0
C838 C 0.29966 0.13265 0.46702 0.0
N839 N 0.33124 0.17574 0.45756 0.0
C840 C 0.347 0.14448 0.46319 0.0
C841 C 0.32047 0.12554 0.4677 0.0
H842 H 0.28953 0.16342 0.46146 0.0
H843 H 0.37231 0.18436 0.45466 0.0
C844 C 0.34079 0.26254 0.41095 0.0
N845 N 0.32686 0.23631 0.41545 0.0
C846 C 0.33582 0.26827 0.39896 0.0
C847 C 0.30333 0.2196 0.39614 0.0
C848 C 0.30921 0.21478 0.40817 0.0
C849 C 0.3161 0.2468 0.39151 0.0
H850 H 0.35507 0.27924 0.41687 0.0
H851 H 0.29887 0.19399 0.41178 0.0
O852 O 0.34041 0.23774 0.46452 0.0
O853 O 0.33655 0.2664 0.44152 0.0
O854 O 0.36384 0.23036 0.43859 0.0
O855 O 0.30113 0.20378 0.44308 0.0
H856 H 0.29532 0.20781 0.4779 0.0
H857 H 0.38207 0.23492 0.47468 0.0
H858 H 0.29303 0.18056 0.49649 0.0
H859 H 0.37823 0.20704 0.49327 0.0
H860 H 0.28016 0.29458 0.42461 0.0
H861 H 0.35899 0.31577 0.4521 0.0
H862 H 0.29508 0.25983 0.42725 0.0
H863 H 0.34312 0.34964 0.44895 0.0
H864 H 0.42105 0.33849 0.47708 0.0
H865 H 0.43369 0.35142 0.43755 0.0
H866 H 0.21535 0.20269 0.46658 0.0
H867 H 0.27486 0.2866 0.47721 0.0
H868 H 0.38725 0.2529 0.41715 0.0
H869 H 0.40292 0.23796 0.45459 0.0
H870 H 0.43784 0.27778 0.41321 0.0
H871 H 0.45325 0.26309 0.45 0.0
H872 H 0.29015 0.15397 0.43589 0.0
H873 H 0.26317 0.21387 0.4337 0.0
H874 H 0.25039 0.12239 0.42266 0.0
H875 H 0.22409 0.18138 0.42041 0.0
H876 H 0.27911 0.11908 0.47062 0.0
H877 H 0.36362 0.1398 0.46351 0.0
H878 H 0.34681 0.28944 0.3957 0.0
H879 H 0.28799 0.20235 0.39077 0.0
Li880 Li 0.06999 0.3155 0.78399 0.0
Li881 Li 0.09843 0.36544 0.78272 0.0
Li882 Li 0.09546 0.33564 0.76499 0.0
Li883 Li 0.11939 0.33639 0.78473 0.0
C884 C 0.04233 0.33709 0.76775 0.0
N885 N 0.99395 0.33089 0.75772 0.0
C886 C 0.02997 0.35135 0.77281 0.0
C887 C 0.03 0.31965 0.75758 0.0
C888 C 0.00554 0.34794 0.76762 0.0
C889 C 0.00557 0.3168 0.75265 0.0
C890 C 0.08184 0.34419 0.80668 0.0
C891 C 0.07975 0.35302 0.82841 0.0
N892 N 0.05472 0.35106 0.82659 0.0
C893 C 0.05606 0.3422 0.80503 0.0
C894 C 0.09378 0.34959 0.81846 0.0
C895 C 0.04269 0.34575 0.8152 0.0
C896 C 0.04018 0.274 0.80131 0.0
N897 N 0.03691 0.28567 0.79086 0.0
C898 C 0.98815 0.2544 0.79109 0.0
C899 C 0.01155 0.27634 0.7857 0.0
C900 C 0.99095 0.24186 0.80183 0.0
C901 C 0.01738 0.25188 0.80695 0.0
H902 H 0.0606 0.28185 0.80521 0.0
H903 H 0.00936 0.28562 0.77736 0.0
C904 C 0.09306 0.40972 0.77553 0.0
N905 N 0.09819 0.39891 0.78578 0.0
C906 C 0.08384 0.42866 0.77669 0.0
C907 C 0.08796 0.42707 0.79892 0.0
C908 C 0.09737 0.4083 0.79731 0.0
C909 C 0.07969 0.43638 0.78855 0.0
H910 H 0.09391 0.40185 0.76648 0.0
H911 H 0.10207 0.39983 0.80533 0.0
C912 C 0.07766 0.27625 0.77552 0.0
N913 N 0.04425 0.2198 0.77848 0.0
C914 C 0.08441 0.26215 0.78428 0.0
C915 C 0.05406 0.26161 0.76818 0.0
C916 C 0.06723 0.23361 0.78565 0.0
C917 C 0.03739 0.23308 0.76984 0.0
C918 C 0.15405 0.3901 0.77637 0.0
C919 C 0.17478 0.40558 0.76775 0.0
C920 C 0.15836 0.39743 0.78889 0.0
C921 C 0.19955 0.4282 0.7718 0.0
C922 C 0.18342 0.42019 0.79258 0.0
N923 N 0.20332 0.43497 0.78403 0.0
C924 C 0.09021 0.35278 0.74141 0.0
C925 C 0.08854 0.30949 0.74168 0.0
C926 C 0.08145 0.3488 0.72909 0.0
N927 N 0.09274 0.33287 0.7475 0.0
C928 C 0.07972 0.30464 0.72936 0.0
C929 C 0.07517 0.32403 0.72303 0.0
H930 H 0.09332 0.37097 0.74636 0.0
H931 H 0.09042 0.29388 0.74682 0.0
C932 C 0.1421 0.32107 0.80375 0.0
N933 N 0.14773 0.33186 0.79213 0.0
C934 C 0.15957 0.31337 0.8095 0.0
C935 C 0.18907 0.32902 0.79142 0.0
C936 C 0.17088 0.33637 0.78597 0.0
C937 C 0.18309 0.31669 0.80323 0.0
H938 H 0.12335 0.31736 0.80835 0.0
H939 H 0.17466 0.34473 0.77668 0.0
O940 O 0.06668 0.34074 0.77252 0.0
O941 O 0.09541 0.34082 0.79687 0.0
O942 O 0.09374 0.30432 0.77431 0.0
O943 O 0.12979 0.36781 0.7725 0.0
H944 H 0.03909 0.36495 0.78067 0.0
H945 H 0.03897 0.30818 0.75359 0.0
H946 H 0.99581 0.35888 0.77145 0.0
H947 H 0.99583 0.30335 0.74479 0.0
H948 H 0.08879 0.35728 0.83758 0.0
H949 H 0.04647 0.33794 0.79602 0.0
H950 H 0.11376 0.35128 0.8199 0.0
H951 H 0.02275 0.34429 0.81405 0.0
H952 H 0.96816 0.247 0.78676 0.0
H953 H 0.02036 0.2429 0.81529 0.0
H954 H 0.07842 0.43587 0.76842 0.0
H955 H 0.08524 0.43252 0.80824 0.0
H956 H 0.10259 0.27315 0.79003 0.0
H957 H 0.04841 0.27222 0.76142 0.0
H958 H 0.07212 0.22245 0.79245 0.0
H959 H 0.01893 0.22154 0.76431 0.0
H960 H 0.17175 0.40013 0.75802 0.0
H961 H 0.14263 0.38574 0.79572 0.0
H962 H 0.21579 0.44036 0.76523 0.0
H963 H 0.18704 0.42609 0.80224 0.0
H964 H 0.07861 0.36447 0.72451 0.0
H965 H 0.0749 0.28516 0.7251 0.0
H966 H 0.15436 0.30427 0.81866 0.0
H967 H 0.20688 0.33174 0.78624 0.0
Li968 Li 0.7394 0.09973 0.11815 0.0
Li969 Li 0.76464 0.07378 0.12007 0.0
Li970 Li 0.78847 0.12312 0.1186 0.0
Li971 Li 0.7638 0.09588 0.09999 0.0
C972 C 0.7776 0.113 0.14208 0.0
N973 N 0.80999 0.14169 0.16214 0.0
C974 C 0.79786 0.10737 0.14643 0.0
C975 C 0.77363 0.13303 0.14798 0.0
C976 C 0.81409 0.12217 0.15657 0.0
C977 C 0.79025 0.14734 0.15811 0.0
C978 C 0.71006 0.04051 0.10903 0.0
C979 C 0.68107 0.99653 0.09906 0.0
N980 N 0.66281 0.98891 0.10861 0.0
C981 C 0.69098 0.03216 0.11875 0.0
C982 C 0.70503 0.0225 0.0991 0.0
C983 C 0.66724 0.00605 0.11837 0.0
C984 C 0.68724 0.0902 0.11211 0.0
N985 N 0.70461 0.09649 0.12192 0.0
C986 C 0.66736 0.08431 0.13609 0.0
C987 C 0.6955 0.09455 0.13376 0.0
C988 C 0.64866 0.07592 0.12612 0.0
C989 C 0.65913 0.08011 0.114 0.0
H990 H 0.69491 0.09111 0.10282 0.0
H991 H 0.70961 0.09883 0.1414 0.0
C992 C 0.78618 0.03878 0.12711 0.0
N993 N 0.76412 0.04281 0.12788 0.0
C994 C 0.78521 0.01574 0.13265 0.0
C995 C 0.73961 0.00234 0.1404 0.0
C996 C 0.74145 0.02559 0.13467 0.0
C997 C 0.76155 0.99698 0.13931 0.0
H998 H 0.80463 0.05342 0.12223 0.0
H999 H 0.72491 0.0301 0.13578 0.0
C1000 C 0.75104 0.14352 0.10496 0.0
N1001 N 0.72065 0.16976 0.10172 0.0
C1002 C 0.73919 0.14272 0.09346 0.0
C1003 C 0.74768 0.15789 0.11479 0.0
C1004 C 0.72384 0.15607 0.09201 0.0
C1005 C 0.73216 0.17095 0.11297 0.0
C1006 C 0.80449 0.08183 0.10196 0.0
C1007 C 0.83216 0.09331 0.09837 0.0
C1008 C 0.78523 0.05501 0.09818 0.0
C1009 C 0.84008 0.07768 0.09113 0.0
C1010 C 0.79395 0.04005 0.09095 0.0
N1011 N 0.82097 0.0516 0.0876 0.0
C1012 C 0.84432 0.1505 0.12428 0.0
C1013 C 0.82371 0.17758 0.12913 0.0
C1014 C 0.86959 0.17071 0.12906 0.0
N1015 N 0.82204 0.1542 0.12437 0.0
C1016 C 0.84859 0.1982 0.13428 0.0
C1017 C 0.87189 0.1948 0.13424 0.0
H1018 H 0.84225 0.13143 0.12079 0.0
H1019 H 0.80561 0.17988 0.12924 0.0
C1020 C 0.73488 0.07712 0.07792 0.0
N1021 N 0.76098 0.09042 0.08257 0.0
C1022 C 0.73013 0.06755 0.06574 0.0
C1023 C 0.77946 0.08731 0.06306 0.0
C1024 C 0.78324 0.0965 0.07533 0.0
C1025 C 0.75253 0.07192 0.05823 0.0
H1026 H 0.7176 0.07275 0.08389 0.0
H1027 H 0.80384 0.1075 0.07921 0.0
O1028 O 0.76212 0.09933 0.13194 0.0
O1029 O 0.73311 0.06639 0.10905 0.0
O1030 O 0.76585 0.13031 0.1066 0.0
O1031 O 0.79631 0.0972 0.10877 0.0
H1032 H 0.80129 0.09204 0.14191 0.0
H1033 H 0.75813 0.13772 0.14468 0.0
H1034 H 0.83 0.11821 0.15998 0.0
H1035 H 0.78755 0.16303 0.16272 0.0
H1036 H 0.67697 0.98244 0.09143 0.0
H1037 H 0.69457 0.04551 0.1266 0.0
H1038 H 0.71942 0.02843 0.09146 0.0
H1039 H 0.65237 0.9994 0.12584 0.0
H1040 H 0.66012 0.08116 0.14558 0.0
H1041 H 0.64552 0.07429 0.10605 0.0
H1042 H 0.80269 0.01251 0.1316 0.0
H1043 H 0.72135 0.98895 0.14578 0.0
H1044 H 0.74172 0.13179 0.08575 0.0
H1045 H 0.75662 0.15859 0.12376 0.0
H1046 H 0.71444 0.15552 0.08317 0.0
H1047 H 0.72921 0.18196 0.12052 0.0
H1048 H 0.84733 0.11417 0.10104 0.0
H1049 H 0.76384 0.04575 0.10089 0.0
H1050 H 0.86141 0.08633 0.08829 0.0
H1051 H 0.77923 0.01926 0.088 0.0
H1052 H 0.88695 0.16711 0.12908 0.0
H1053 H 0.84963 0.21651 0.13825 0.0
H1054 H 0.70901 0.05562 0.06248 0.0
H1055 H 0.79736 0.09163 0.05753 0.0
H1056 H 0.88017 0.21677 0.1575 0.0
H1057 H 0.9246 0.24548 0.16791 0.0
H1058 H 0.96755 0.24798 0.13424 0.0
H1059 H 0.92322 0.21859 0.124 0.0
H1060 H 0.98817 0.23432 0.15225 0.0
H1061 H 0.96591 0.306 0.14647 0.0
H1062 H 0.93731 0.3282 0.14772 0.0
H1063 H 0.93708 0.32336 0.18742 0.0
H1064 H 0.96537 0.30077 0.1864 0.0
H1065 H 0.12306 0.33194 0.1707 0.0
H1066 H 0.07834 0.31486 0.16055 0.0
H1067 H 0.03763 0.29405 0.19606 0.0
H1068 H 0.08218 0.31014 0.20634 0.0
H1069 H 0.0162 0.31839 0.17762 0.0
H1070 H 0.03746 0.24493 0.18273 0.0
H1071 H 0.06739 0.22429 0.18099 0.0
H1072 H 0.07026 0.23428 0.14148 0.0
H1073 H 0.04071 0.25544 0.14301 0.0
C1074 C 0.89914 0.22398 0.15229 0.0
C1075 C 0.89835 0.21547 0.13998 0.0
C1076 C 0.92453 0.24042 0.15822 0.0
C1077 C 0.94952 0.24904 0.15186 0.0
C1078 C 0.9486 0.24149 0.13938 0.0
C1079 C 0.9233 0.22477 0.13352 0.0
C1080 C 0.97659 0.26392 0.1584 0.0
C1081 C 0.99437 0.25296 0.15761 0.0
C1082 C 0.98454 0.28785 0.16571 0.0
C1083 C 0.96753 0.30144 0.16635 0.0
C1084 C 0.95957 0.30946 0.15546 0.0
C1085 C 0.94345 0.32215 0.15613 0.0
C1086 C 0.93532 0.32712 0.16764 0.0
C1087 C 0.94336 0.31946 0.17851 0.0
C1088 C 0.95946 0.30674 0.17789 0.0
C1089 C 0.10466 0.32384 0.17639 0.0
C1090 C 0.10624 0.32201 0.18934 0.0
C1091 C 0.07915 0.31432 0.17056 0.0
C1092 C 0.05474 0.30302 0.17756 0.0
C1093 C 0.0563 0.30281 0.19052 0.0
C1094 C 0.08183 0.31209 0.19637 0.0
C1095 C 0.02755 0.28889 0.17125 0.0
C1096 C 0.00982 0.29984 0.17216 0.0
C1097 C 0.01963 0.26506 0.16395 0.0
C1098 C 0.03713 0.25204 0.163 0.0
C1099 C 0.04467 0.24295 0.17368 0.0
C1100 C 0.06154 0.23112 0.17273 0.0
C1101 C 0.07079 0.22805 0.16113 0.0
C1102 C 0.06312 0.23672 0.15046 0.0
C1103 C 0.0463 0.24862 0.15136 0.0
H1104 H 0.08384 0.21888 0.16041 0.0
H1105 H 0.92285 0.33695 0.16813 0.0
H1106 H 0.81224 0.11683 0.50274 0.0
H1107 H 0.78295 0.07156 0.49338 0.0
H1108 H 0.7446 0.03914 0.52881 0.0
H1109 H 0.7747 0.08421 0.53836 0.0
H1110 H 0.75918 0.00563 0.51826 0.0
H1111 H 0.70953 0.05019 0.50502 0.0
H1112 H 0.70339 0.087 0.4956 0.0
H1113 H 0.73218 0.0743 0.46067 0.0
H1114 H 0.73887 0.03766 0.46993 0.0
H1115 H 0.66273 0.87561 0.49312 0.0
H1116 H 0.68077 0.92098 0.50286 0.0
H1117 H 0.72628 0.96031 0.46958 0.0
H1118 H 0.70837 0.91503 0.45979 0.0
H1119 H 0.70418 0.98946 0.47989 0.0
H1120 H 0.75772 0.9483 0.49359 0.0
H1121 H 0.76439 0.91171 0.5029 0.0
H1122 H 0.72856 0.91857 0.53697 0.0
H1123 H 0.72131 0.95496 0.52779 0.0
C1124 C 0.79758 0.10009 0.50856 0.0
C1125 C 0.79596 0.10415 0.52133 0.0
C1126 C 0.78058 0.07426 0.50315 0.0
C1127 C 0.76133 0.05196 0.51035 0.0
C1128 C 0.75922 0.05607 0.52305 0.0
C1129 C 0.77629 0.08192 0.52848 0.0
C1130 C 0.74477 0.024 0.50476 0.0
C1131 C 0.74669 0.00201 0.51001 0.0
C1132 C 0.729 0.01935 0.49383 0.0
C1133 C 0.7249 0.04131 0.48821 0.0
C1134 C 0.71475 0.05538 0.49536 0.0
C1135 C 0.71114 0.07619 0.49004 0.0
C1136 C 0.71745 0.08302 0.47755 0.0
C1137 C 0.72732 0.069 0.47035 0.0
C1138 C 0.73099 0.04818 0.47562 0.0
C1139 C 0.67647 0.89393 0.48785 0.0
C1140 C 0.68431 0.89168 0.47571 0.0
C1141 C 0.68672 0.91984 0.49342 0.0
C1142 C 0.70521 0.94401 0.48702 0.0
C1143 C 0.71203 0.94194 0.4747 0.0
C1144 C 0.70171 0.91603 0.4691 0.0
C1145 C 0.71875 0.97128 0.49337 0.0
C1146 C 0.71637 0.9931 0.48823 0.0
C1147 C 0.73415 0.97584 0.50441 0.0
C1148 C 0.7387 0.95413 0.50996 0.0
C1149 C 0.75108 0.94186 0.50304 0.0
C1150 C 0.75499 0.92118 0.50829 0.0
C1151 C 0.74684 0.91276 0.52051 0.0
C1152 C 0.73482 0.92508 0.5275 0.0
C1153 C 0.73082 0.94574 0.52228 0.0
H1154 H 0.74988 0.89675 0.52456 0.0
H1155 H 0.71464 0.09915 0.47345 0.0
H1156 H 0.72243 0.79866 0.87112 0.0
H1157 H 0.73574 0.76973 0.85944 0.0
H1158 H 0.66438 0.74277 0.83586 0.0
H1159 H 0.65138 0.77248 0.84734 0.0
H1160 H 0.71462 0.71664 0.85394 0.0
H1161 H 0.68464 0.73921 0.80605 0.0
H1162 H 0.67665 0.77426 0.79591 0.0
H1163 H 0.73172 0.83575 0.82172 0.0
H1164 H 0.74036 0.8012 0.83186 0.0
H1165 H 0.76038 0.65054 0.81162 0.0
H1166 H 0.7289 0.66361 0.8213 0.0
H1167 H 0.78396 0.74884 0.81128 0.0
H1168 H 0.81435 0.73572 0.80093 0.0
H1169 H 0.73448 0.73951 0.80934 0.0
H1170 H 0.78477 0.72022 0.84069 0.0
H1171 H 0.79951 0.69099 0.85167 0.0
H1172 H 0.71488 0.63248 0.86041 0.0
H1173 H 0.69964 0.66124 0.84934 0.0
C1174 C 0.70945 0.78642 0.8635 0.0
C1175 C 0.68608 0.78814 0.86004 0.0
C1176 C 0.71694 0.76969 0.8569 0.0
C1177 C 0.70126 0.75433 0.84668 0.0
C1178 C 0.67695 0.75469 0.84364 0.0
C1179 C 0.66944 0.77151 0.85025 0.0
C1180 C 0.71188 0.74002 0.83869 0.0
C1181 C 0.71863 0.72134 0.84415 0.0
C1182 C 0.71754 0.74648 0.82595 0.0
C1183 C 0.7128 0.76752 0.81981 0.0
C1184 C 0.69507 0.76023 0.80953 0.0
C1185 C 0.69045 0.78001 0.80378 0.0
C1186 C 0.70357 0.80718 0.8082 0.0
C1187 C 0.72148 0.81468 0.81833 0.0
C1188 C 0.72623 0.795 0.82409 0.0
C1189 C 0.76544 0.67195 0.81122 0.0
C1190 C 0.79021 0.69216 0.80569 0.0
C1191 C 0.74755 0.67945 0.81688 0.0
C1192 C 0.75432 0.70733 0.81728 0.0
C1193 C 0.77828 0.72722 0.81119 0.0
C1194 C 0.79589 0.71972 0.8054 0.0
C1195 C 0.73775 0.71645 0.82463 0.0
C1196 C 0.72983 0.73417 0.81905 0.0
C1197 C 0.73191 0.70987 0.83736 0.0
C1198 C 0.74106 0.69269 0.84407 0.0
C1199 C 0.76931 0.70103 0.84489 0.0
C1200 C 0.77775 0.68457 0.85114 0.0
C1201 C 0.75814 0.65985 0.85671 0.0
C1202 C 0.73005 0.6516 0.85607 0.0
C1203 C 0.7215 0.66797 0.84982 0.0
H1204 H 0.76471 0.64712 0.86154 0.0
H1205 H 0.69993 0.82245 0.80375 0.0
H1206 H 0.89813 0.73176 0.18321 0.0
H1207 H 0.94225 0.74779 0.17279 0.0
H1208 H 0.94243 0.67373 0.18408 0.0
H1209 H 0.8979 0.65747 0.19464 0.0
H1210 H 0.99315 0.7191 0.18681 0.0
H1211 H 0.92735 0.68028 0.15438 0.0
H1212 H 0.88682 0.67143 0.14185 0.0
H1213 H 0.92661 0.75724 0.1317 0.0
H1214 H 0.96723 0.76671 0.14433 0.0
H1215 H 0.10947 0.76317 0.14479 0.0
H1216 H 0.06346 0.73387 0.15404 0.0
H1217 H 0.04727 0.80162 0.1516 0.0
H1218 H 0.09299 0.83083 0.14251 0.0
H1219 H 0.00328 0.75043 0.14312 0.0
H1220 H 0.06596 0.78901 0.17818 0.0
H1221 H 0.10625 0.79719 0.19075 0.0
H1222 H 0.0717 0.70962 0.19544 0.0
H1223 H 0.03136 0.70092 0.18273 0.0
C1224 C 0.90737 0.71871 0.18339 0.0
C1225 C 0.89429 0.69313 0.18958 0.0
C1226 C 0.93264 0.72792 0.17744 0.0
C1227 C 0.94537 0.71169 0.17742 0.0
C1228 C 0.93285 0.68649 0.1839 0.0
C1229 C 0.90748 0.67726 0.18994 0.0
C1230 C 0.97182 0.72152 0.17063 0.0
C1231 C 0.99523 0.72536 0.17718 0.0
C1232 C 0.97462 0.72982 0.15807 0.0
C1233 C 0.9503 0.72423 0.15037 0.0
C1234 C 0.9274 0.69731 0.14955 0.0
C1235 C 0.90441 0.69217 0.14241 0.0
C1236 C 0.90413 0.71376 0.13599 0.0
C1237 C 0.92686 0.74053 0.13668 0.0
C1238 C 0.94989 0.74579 0.14381 0.0
C1239 C 0.09595 0.77165 0.14619 0.0
C1240 C 0.10479 0.79928 0.14304 0.0
C1241 C 0.06981 0.75499 0.1515 0.0
C1242 C 0.05206 0.76566 0.15353 0.0
C1243 C 0.06066 0.79301 0.1501 0.0
C1244 C 0.08682 0.80971 0.14499 0.0
C1245 C 0.0246 0.74878 0.15942 0.0
C1246 C 0.00102 0.7436 0.15268 0.0
C1247 C 0.02164 0.73907 0.17174 0.0
C1248 C 0.04585 0.74431 0.17938 0.0
C1249 C 0.06709 0.77149 0.18179 0.0
C1250 C 0.08991 0.77623 0.18896 0.0
C1251 C 0.09159 0.75394 0.19385 0.0
C1252 C 0.07041 0.72686 0.19161 0.0
C1253 C 0.04756 0.72202 0.18443 0.0
H1254 H 0.10926 0.75764 0.19941 0.0
H1255 H 0.88631 0.70974 0.13048 0.0
H1256 H 0.27383 0.07526 0.46468 0.0
H1257 H 0.26061 0.03261 0.47593 0.0
H1258 H 0.33997 0.07153 0.49422 0.0
H1259 H 0.35287 0.11491 0.48339 0.0
H1260 H 0.27717 0.99682 0.4779 0.0
H1261 H 0.33067 0.04688 0.52397 0.0
H1262 H 0.34811 0.09099 0.53525 0.0
H1263 H 0.28881 0.10592 0.51666 0.0
H1264 H 0.2708 0.06175 0.50541 0.0
H1265 H 0.23693 0.88325 0.51876 0.0
H1266 H 0.2682 0.92691 0.50827 0.0
H1267 H 0.22461 0.96458 0.52476 0.0
H1268 H 0.19435 0.92167 0.53565 0.0
H1269 H 0.27689 0.00108 0.5238 0.0
H1270 H 0.20925 0.93529 0.49522 0.0
H1271 H 0.18507 0.89103 0.48389 0.0
H1272 H 0.26174 0.90753 0.46727 0.0
H1273 H 0.28642 0.95175 0.47865 0.0
C1274 C 0.28851 0.07482 0.47111 0.0
C1275 C 0.31422 0.09868 0.47331 0.0
C1276 C 0.28103 0.05027 0.47743 0.0
C1277 C 0.29911 0.04891 0.48606 0.0
C1278 C 0.32549 0.0722 0.48774 0.0
C1279 C 0.33294 0.09692 0.48146 0.0
C1280 C 0.28927 0.02367 0.49381 0.0
C1281 C 0.27746 0.99778 0.48794 0.0
C1282 C 0.28925 0.02481 0.50692 0.0
C1283 C 0.29968 0.05123 0.51374 0.0
C1284 C 0.32134 0.05957 0.52232 0.0
C1285 C 0.33131 0.08457 0.52871 0.0
C1286 C 0.31965 0.1013 0.52664 0.0
C1287 C 0.2979 0.093 0.51822 0.0
C1288 C 0.28781 0.068 0.51183 0.0
C1289 C 0.23446 0.90104 0.52036 0.0
C1290 C 0.21286 0.89886 0.52788 0.0
C1291 C 0.25219 0.92592 0.51429 0.0
C1292 C 0.24845 0.94892 0.51554 0.0
C1293 C 0.22789 0.94715 0.52359 0.0
C1294 C 0.21037 0.92246 0.5297 0.0
C1295 C 0.2643 0.97422 0.50788 0.0
C1296 C 0.27728 0.00012 0.51377 0.0
C1297 C 0.26452 0.97309 0.49477 0.0
C1298 C 0.24972 0.94661 0.48789 0.0
C1299 C 0.22096 0.92937 0.48922 0.0
C1300 C 0.20717 0.90432 0.48278 0.0
C1301 C 0.22187 0.89643 0.4749 0.0
C1302 C 0.25039 0.91363 0.4734 0.0
C1303 C 0.26429 0.93868 0.47984 0.0
H1304 H 0.21116 0.87703 0.46992 0.0
H1305 H 0.32743 0.12066 0.53158 0.0
H1306 H 0.25978 0.1676 0.85808 0.0
H1307 H 0.24292 0.1947 0.84734 0.0
H1308 H 0.32686 0.2605 0.84168 0.0
H1309 H 0.34398 0.23331 0.85255 0.0
H1310 H 0.2927 0.28059 0.84796 0.0
H1311 H 0.29259 0.21783 0.81808 0.0
H1312 H 0.28304 0.17267 0.80987 0.0
H1313 H 0.19575 0.14113 0.81373 0.0
H1314 H 0.20478 0.18598 0.82215 0.0
H1315 H 0.2398 0.3409 0.80405 0.0
H1316 H 0.26693 0.32163 0.81315 0.0
H1317 H 0.19144 0.24813 0.82374 0.0
H1318 H 0.16441 0.26693 0.81456 0.0
H1319 H 0.22804 0.23595 0.81283 0.0
H1320 H 0.22914 0.29757 0.84479 0.0
H1321 H 0.239 0.34274 0.85313 0.0
H1322 H 0.32527 0.37684 0.84488 0.0
H1323 H 0.31584 0.33192 0.83634 0.0
C1324 C 0.2747 0.1878 0.85452 0.0
C1325 C 0.30324 0.19815 0.856 0.0
C1326 C 0.26503 0.20329 0.84839 0.0
C1327 C 0.28364 0.22938 0.84347 0.0
C1328 C 0.31214 0.24033 0.84534 0.0
C1329 C 0.32188 0.22482 0.85156 0.0
C1330 C 0.27299 0.24468 0.83618 0.0
C1331 C 0.27899 0.27108 0.84013 0.0
C1332 C 0.25496 0.2322 0.826 0.0
C1333 C 0.24939 0.20524 0.82082 0.0
C1334 C 0.27136 0.20121 0.81725 0.0
C1335 C 0.26604 0.17567 0.81255 0.0
C1336 C 0.23881 0.15404 0.8113 0.0
C1337 C 0.21684 0.15791 0.81471 0.0
C1338 C 0.22205 0.1834 0.81943 0.0
C1339 C 0.22906 0.3206 0.80829 0.0
C1340 C 0.19997 0.30554 0.80869 0.0
C1341 C 0.24455 0.3097 0.81354 0.0
C1342 C 0.23119 0.28352 0.8192 0.0
C1343 C 0.20219 0.26838 0.81945 0.0
C1344 C 0.18677 0.27928 0.81429 0.0
C1345 C 0.24704 0.27145 0.82485 0.0
C1346 C 0.24207 0.24565 0.82055 0.0
C1347 C 0.26608 0.28455 0.83464 0.0
C1348 C 0.27173 0.3115 0.83979 0.0
C1349 C 0.25017 0.31477 0.84466 0.0
C1350 C 0.25569 0.34031 0.84944 0.0
C1351 C 0.28273 0.36267 0.8495 0.0
C1352 C 0.30432 0.35951 0.8448 0.0
C1353 C 0.29891 0.33402 0.84 0.0
H1354 H 0.28696 0.38243 0.8532 0.0
H1355 H 0.23473 0.13428 0.80766 0.0
H1356 H 0.61655 0.56551 0.19182 0.0
H1357 H 0.56612 0.54184 0.19034 0.0
H1358 H 0.55942 0.49154 0.22193 0.0
H1359 H 0.60998 0.51495 0.22338 0.0
H1360 H 0.51984 0.46236 0.20321 0.0
H1361 H 0.55595 0.54703 0.22676 0.0
H1362 H 0.58639 0.59717 0.2299 0.0
H1363 H 0.54927 0.61385 0.19869 0.0
H1364 H 0.51891 0.56374 0.19524 0.0
H1365 H 0.38837 0.42111 0.22691 0.0
H1366 H 0.43821 0.44258 0.22441 0.0
H1367 H 0.43623 0.49472 0.19541 0.0
H1368 H 0.38612 0.474 0.19821 0.0
H1369 H 0.4801 0.52324 0.21072 0.0
H1370 H 0.44106 0.43847 0.18815 0.0
H1371 H 0.41099 0.38833 0.18488 0.0
H1372 H 0.45349 0.37166 0.21378 0.0
H1373 H 0.48356 0.42172 0.21737 0.0
C1374 C 0.60438 0.54886 0.19823 0.0
C1375 C 0.6172 0.54214 0.20775 0.0
C1376 C 0.57557 0.53552 0.19743 0.0
C1377 C 0.55911 0.51523 0.20613 0.0
C1378 C 0.57181 0.50722 0.21515 0.0
C1379 C 0.60064 0.52068 0.21601 0.0
C1380 C 0.52884 0.50407 0.20649 0.0
C1381 C 0.5111 0.47558 0.20493 0.0
C1382 C 0.51755 0.52152 0.20845 0.0
C1383 C 0.53537 0.55164 0.21066 0.0
C1384 C 0.55441 0.56139 0.22052 0.0
C1385 C 0.57164 0.5898 0.22236 0.0
C1386 C 0.56983 0.60869 0.21448 0.0
C1387 C 0.55069 0.59919 0.20478 0.0
C1388 C 0.53346 0.57079 0.20287 0.0
C1389 C 0.3985 0.43757 0.22017 0.0
C1390 C 0.38319 0.44591 0.21279 0.0
C1391 C 0.42701 0.44955 0.21863 0.0
C1392 C 0.44087 0.46988 0.20957 0.0
C1393 C 0.42588 0.4789 0.2024 0.0
C1394 C 0.39726 0.46694 0.20397 0.0
C1395 C 0.47095 0.48138 0.20757 0.0
C1396 C 0.48873 0.50998 0.20884 0.0
C1397 C 0.48226 0.46402 0.20531 0.0
C1398 C 0.46444 0.43387 0.20309 0.0
C1399 C 0.44388 0.42412 0.19387 0.0
C1400 C 0.42684 0.3957 0.19195 0.0
C1401 C 0.43029 0.37682 0.19913 0.0
C1402 C 0.45083 0.38632 0.20823 0.0
C1403 C 0.4679 0.41471 0.2102 0.0
H1404 H 0.41707 0.35483 0.19764 0.0
H1405 H 0.5832 0.63068 0.21591 0.0
H1406 H 0.08656 0.6166 0.52733 0.0
H1407 H 0.05936 0.56619 0.52475 0.0
H1408 H 0.00839 0.56076 0.55586 0.0
H1409 H 0.03484 0.6107 0.55834 0.0
H1410 H 0.02392 0.52194 0.55713 0.0
H1411 H 0.98566 0.55691 0.52667 0.0
H1412 H 0.98766 0.58489 0.5086 0.0
H1413 H 0.01757 0.54213 0.48596 0.0
H1414 H 0.01612 0.51415 0.50396 0.0
H1415 H 0.90781 0.39009 0.55247 0.0
H1416 H 0.93548 0.44053 0.55139 0.0
H1417 H 0.98287 0.43437 0.52129 0.0
H1418 H 0.9557 0.38394 0.52243 0.0
H1419 H 0.9721 0.47849 0.51848 0.0
H1420 H 0.00852 0.44216 0.54857 0.0
H1421 H 0.00583 0.4135 0.56647 0.0
H1422 H 0.97998 0.45885 0.58972 0.0
H1423 H 0.982 0.48746 0.57188 0.0
C1424 C 0.06953 0.60464 0.5336 0.0
C1425 C 0.06312 0.61773 0.54313 0.0
C1426 C 0.05403 0.57587 0.53212 0.0
C1427 C 0.03181 0.55976 0.5401 0.0
C1428 C 0.02557 0.57275 0.54965 0.0
C1429 C 0.04091 0.60136 0.55111 0.0
C1430 C 0.01474 0.52933 0.53861 0.0
C1431 C 0.01244 0.51248 0.54871 0.0
C1432 C 0.00031 0.51694 0.52751 0.0
C1433 C 0.0011 0.53368 0.51669 0.0
C1434 C 0.9929 0.55365 0.51786 0.0
C1435 C 0.99388 0.56947 0.50763 0.0
C1436 C 0.00282 0.56535 0.49615 0.0
C1437 C 0.01071 0.54534 0.49487 0.0
C1438 C 0.00979 0.52948 0.50508 0.0
C1439 C 0.92391 0.39944 0.54552 0.0
C1440 C 0.92971 0.38294 0.53763 0.0
C1441 C 0.93963 0.42825 0.5449 0.0
C1442 C 0.96146 0.44111 0.53638 0.0
C1443 C 0.9661 0.42482 0.52792 0.0
C1444 C 0.95044 0.39597 0.52856 0.0
C1445 C 0.98089 0.4713 0.53709 0.0
C1446 C 0.98373 0.48801 0.52686 0.0
C1447 C 0.99594 0.48363 0.54805 0.0
C1448 C 0.99517 0.46679 0.55886 0.0
C1449 C 0.00207 0.4459 0.55747 0.0
C1450 C 0.00068 0.42967 0.56761 0.0
C1451 C 0.99269 0.43431 0.57922 0.0
C1452 C 0.98614 0.45525 0.58071 0.0
C1453 C 0.98741 0.47149 0.5706 0.0
H1454 H 0.99163 0.42173 0.58706 0.0
H1455 H 0.00356 0.57762 0.48824 0.0
H1456 H 0.48008 0.09174 0.85974 0.0
H1457 H 0.50202 0.06339 0.85711 0.0
H1458 H 0.45738 0.01445 0.88886 0.0
H1459 H 0.43553 0.04247 0.89152 0.0
H1460 H 0.50951 0.02602 0.88956 0.0
H1461 H 0.43664 0.99185 0.85908 0.0
H1462 H 0.4113 0.99575 0.84121 0.0
H1463 H 0.4835 0.02376 0.81841 0.0
H1464 H 0.5094 0.0204 0.83622 0.0
H1465 H 0.52111 0.90814 0.88378 0.0
H1466 H 0.49881 0.93625 0.88262 0.0
H1467 H 0.55408 0.98441 0.85312 0.0
H1468 H 0.57667 0.95652 0.85429 0.0
H1469 H 0.4996 0.97556 0.8503 0.0
H1470 H 0.57174 0.00792 0.88089 0.0
H1471 H 0.59612 0.00253 0.89877 0.0
H1472 H 0.52421 0.97716 0.92147 0.0
H1473 H 0.49922 0.98192 0.90365 0.0
C1474 C 0.47509 0.07501 0.86618 0.0
C1475 C 0.45626 0.06953 0.8759 0.0
C1476 C 0.48755 0.05879 0.86465 0.0
C1477 C 0.48114 0.03663 0.87273 0.0
C1478 C 0.46276 0.03151 0.88255 0.0
C1479 C 0.45041 0.0477 0.88411 0.0
C1480 C 0.4932 0.01843 0.87099 0.0
C1481 C 0.50711 0.01483 0.88101 0.0
C1482 C 0.49063 0.00428 0.85973 0.0
C1483 C 0.47504 0.00617 0.84901 0.0
C1484 C 0.44718 0.99905 0.85028 0.0
C1485 C 0.4327 0.00113 0.84016 0.0
C1486 C 0.4458 0.01007 0.82869 0.0
C1487 C 0.47339 0.01688 0.82731 0.0
C1488 C 0.48798 0.01488 0.83741 0.0
C1489 C 0.52817 0.92438 0.87689 0.0
C1490 C 0.55085 0.93033 0.86923 0.0
C1491 C 0.51541 0.94038 0.87623 0.0
C1492 C 0.52517 0.9627 0.86794 0.0
C1493 C 0.5463 0.96731 0.85959 0.0
C1494 C 0.55911 0.95127 0.86025 0.0
C1495 C 0.51532 0.98283 0.86895 0.0
C1496 C 0.50204 0.98689 0.85881 0.0
C1497 C 0.51836 0.99739 0.88011 0.0
C1498 C 0.53353 0.99505 0.89091 0.0
C1499 C 0.56107 0.00102 0.88968 0.0
C1500 C 0.575 0.99808 0.8998 0.0
C1501 C 0.56171 0.98945 0.91125 0.0
C1502 C 0.53447 0.98382 0.9126 0.0
C1503 C 0.52042 0.98664 0.90249 0.0
H1504 H 0.57253 0.98718 0.91908 0.0
H1505 H 0.43456 0.01167 0.82086 0.0
H1506 H 0.51554 0.60459 0.44683 0.0
H1507 H 0.49165 0.55443 0.44956 0.0
H1508 H 0.541 0.56442 0.48198 0.0
H1509 H 0.56553 0.61458 0.4791 0.0
H1510 H 0.54175 0.52778 0.46636 0.0
H1511 H 0.47197 0.54154 0.48467 0.0
H1512 H 0.43949 0.5592 0.48631 0.0
H1513 H 0.39698 0.51383 0.45369 0.0
H1514 H 0.42945 0.49619 0.45175 0.0
H1515 H 0.4667 0.38065 0.47582 0.0
H1516 H 0.48722 0.43057 0.47921 0.0
H1517 H 0.44436 0.43608 0.44704 0.0
H1518 H 0.42317 0.38642 0.44387 0.0
H1519 H 0.44015 0.46471 0.46586 0.0
H1520 H 0.51345 0.45609 0.4462 0.0
H1521 H 0.5463 0.43893 0.44424 0.0
H1522 H 0.58225 0.4751 0.47938 0.0
H1523 H 0.54935 0.49219 0.48161 0.0
C1524 C 0.52109 0.59612 0.45462 0.0
C1525 C 0.54246 0.61357 0.46273 0.0
C1526 C 0.50727 0.56745 0.45623 0.0
C1527 C 0.51444 0.55566 0.46602 0.0
C1528 C 0.53509 0.57308 0.47439 0.0
C1529 C 0.5489 0.60176 0.47279 0.0
C1530 C 0.50192 0.52517 0.46689 0.0
C1531 C 0.51952 0.51398 0.46652 0.0
C1532 C 0.47293 0.50718 0.46688 0.0
C1533 C 0.4533 0.51769 0.46802 0.0
C1534 C 0.45583 0.53549 0.47779 0.0
C1535 C 0.43739 0.54547 0.47878 0.0
C1536 C 0.41622 0.53768 0.4701 0.0
C1537 C 0.4134 0.51985 0.46041 0.0
C1538 C 0.4318 0.50983 0.45937 0.0
C1539 C 0.46166 0.39253 0.46949 0.0
C1540 C 0.44359 0.37958 0.45948 0.0
C1541 C 0.47348 0.42106 0.4714 0.0
C1542 C 0.46747 0.43709 0.46332 0.0
C1543 C 0.44933 0.42415 0.45338 0.0
C1544 C 0.43753 0.39577 0.45149 0.0
C1545 C 0.47998 0.4674 0.46505 0.0
C1546 C 0.46237 0.47854 0.4659 0.0
C1547 C 0.50896 0.48536 0.46549 0.0
C1548 C 0.52873 0.47511 0.46414 0.0
C1549 C 0.5282 0.46018 0.45356 0.0
C1550 C 0.54686 0.45051 0.45239 0.0
C1551 C 0.56629 0.45584 0.4617 0.0
C1552 C 0.56715 0.47093 0.47219 0.0
C1553 C 0.54851 0.48062 0.47341 0.0
H1554 H 0.58073 0.44834 0.46078 0.0
H1555 H 0.40196 0.54543 0.47088 0.0
H1556 H 0.90767 0.52081 0.78023 0.0
H1557 H 0.9347 0.49751 0.7822 0.0
H1558 H 0.97807 0.54916 0.8135 0.0
H1559 H 0.95154 0.57298 0.8114 0.0
H1560 H 0.01343 0.54944 0.79651 0.0
H1561 H 0.93332 0.48062 0.81756 0.0
H1562 H 0.88366 0.4478 0.82072 0.0
H1563 H 0.88235 0.40286 0.7882 0.0
H1564 H 0.93193 0.43564 0.78474 0.0
H1565 H 0.08815 0.47696 0.80541 0.0
H1566 H 0.05919 0.49796 0.80872 0.0
H1567 H 0.00652 0.45001 0.77846 0.0
H1568 H 0.03447 0.4282 0.77544 0.0
H1569 H 0.97627 0.44808 0.79776 0.0
H1570 H 0.05453 0.51946 0.77548 0.0
H1571 H 0.10397 0.55257 0.77188 0.0
H1572 H 0.10839 0.59276 0.80642 0.0
H1573 H 0.05902 0.55963 0.8103 0.0
C1574 C 0.92268 0.52692 0.78764 0.0
C1575 C 0.92746 0.54872 0.79565 0.0
C1576 C 0.93801 0.51348 0.78881 0.0
C1577 C 0.95835 0.52153 0.79804 0.0
C1578 C 0.96244 0.54259 0.80634 0.0
C1579 C 0.94706 0.55599 0.8052 0.0
C1580 C 0.97674 0.50944 0.79835 0.0
C1581 C 0.00535 0.52729 0.79704 0.0
C1582 C 0.96616 0.48055 0.79878 0.0
C1583 C 0.93632 0.46074 0.80084 0.0
C1584 C 0.9224 0.46387 0.81102 0.0
C1585 C 0.89427 0.44525 0.81288 0.0
C1586 C 0.87985 0.42329 0.80465 0.0
C1587 C 0.89354 0.41988 0.79456 0.0
C1588 C 0.92167 0.43846 0.79266 0.0
C1589 C 0.0704 0.47092 0.79947 0.0
C1590 C 0.06384 0.4511 0.79008 0.0
C1591 C 0.05397 0.48305 0.80132 0.0
C1592 C 0.03077 0.47568 0.79378 0.0
C1593 C 0.02431 0.45603 0.78439 0.0
C1594 C 0.0406 0.44387 0.78256 0.0
C1595 C 0.01287 0.48803 0.79567 0.0
C1596 C 0.98436 0.47024 0.79739 0.0
C1597 C 0.02352 0.51697 0.79557 0.0
C1598 C 0.05318 0.53687 0.79325 0.0
C1599 C 0.0661 0.53521 0.78236 0.0
C1600 C 0.0941 0.554 0.78026 0.0
C1601 C 0.10933 0.57469 0.78893 0.0
C1602 C 0.09658 0.57668 0.79972 0.0
C1603 C 0.06859 0.55791 0.80187 0.0
H1604 H 0.131 0.58923 0.78729 0.0
H1605 H 0.85807 0.40889 0.80611 0.0
H1606 H 0.39202 0.91367 0.11593 0.0
H1607 H 0.44214 0.93858 0.11896 0.0
H1608 H 0.43335 0.98334 0.14954 0.0
H1609 H 0.38322 0.95888 0.1464 0.0
H1610 H 0.47164 0.01774 0.13313 0.0
H1611 H 0.45283 0.93594 0.15491 0.0
H1612 H 0.43271 0.88584 0.15831 0.0
H1613 H 0.47802 0.88108 0.12717 0.0
H1614 H 0.49812 0.93111 0.12347 0.0
H1615 H 0.61826 0.08567 0.14342 0.0
H1616 H 0.56816 0.05845 0.14694 0.0
H1617 H 0.56067 0.00355 0.11717 0.0
H1618 H 0.61046 0.0299 0.1139 0.0
H1619 H 0.53061 0.97481 0.1366 0.0
H1620 H 0.54413 0.05461 0.11322 0.0
H1621 H 0.56365 0.10447 0.10927 0.0
H1622 H 0.52775 0.11254 0.14308 0.0
H1623 H 0.50831 0.06275 0.14731 0.0
C1624 C 0.40075 0.9286 0.12338 0.0
C1625 C 0.38367 0.93431 0.13092 0.0
C1626 C 0.42937 0.94268 0.12516 0.0
C1627 C 0.44148 0.96272 0.13452 0.0
C1628 C 0.42442 0.9679 0.14229 0.0
C1629 C 0.39576 0.95373 0.14055 0.0
C1630 C 0.47203 0.97961 0.13555 0.0
C1631 C 0.48455 0.00841 0.13416 0.0
C1632 C 0.48884 0.96739 0.13666 0.0
C1633 C 0.47683 0.93728 0.13886 0.0
C1634 C 0.45834 0.92419 0.14873 0.0
C1635 C 0.44697 0.8958 0.15072 0.0
C1636 C 0.45404 0.88028 0.14295 0.0
C1637 C 0.47255 0.89313 0.13318 0.0
C1638 C 0.48397 0.92151 0.13115 0.0
C1639 C 0.6059 0.06773 0.13767 0.0
C1640 C 0.61829 0.06021 0.12826 0.0
C1641 C 0.57729 0.05229 0.13965 0.0
C1642 C 0.56063 0.02909 0.13224 0.0
C1643 C 0.57307 0.02137 0.12298 0.0
C1644 C 0.60153 0.03672 0.12101 0.0
C1645 C 0.53017 0.01283 0.1339 0.0
C1646 C 0.51768 0.98416 0.13578 0.0
C1647 C 0.51337 0.02515 0.13319 0.0
C1648 C 0.52507 0.05505 0.13066 0.0
C1649 C 0.54061 0.06707 0.11987 0.0
C1650 C 0.55162 0.0953 0.11756 0.0
C1651 C 0.54703 0.11168 0.12594 0.0
C1652 C 0.53135 0.09984 0.13661 0.0
C1653 C 0.52032 0.07162 0.13897 0.0
H1654 H 0.55556 0.13353 0.12414 0.0
H1655 H 0.44522 0.8583 0.14451 0.0
H1656 H 0.28697 0.06043 0.14118 0.0
H1657 H 0.28663 0.09983 0.15096 0.0
H1658 H 0.19746 0.05365 0.15223 0.0
H1659 H 0.19764 0.01423 0.14232 0.0
H1660 H 0.21907 0.10814 0.14382 0.0
H1661 H 0.2319 0.05933 0.17769 0.0
H1662 H 0.25481 0.03761 0.18875 0.0
H1663 H 0.3309 0.11533 0.18938 0.0
H1664 H 0.30853 0.13744 0.17816 0.0
H1665 H 0.19567 0.19151 0.18592 0.0
H1666 H 0.1967 0.15332 0.17531 0.0
H1667 H 0.28563 0.1959 0.17879 0.0
H1668 H 0.28461 0.23392 0.1896 0.0
H1669 H 0.26483 0.14355 0.18445 0.0
H1670 H 0.2535 0.19305 0.15097 0.0
H1671 H 0.23219 0.21574 0.13943 0.0
H1672 H 0.1557 0.13861 0.1373 0.0
H1673 H 0.17644 0.11552 0.14899 0.0
C1674 C 0.2673 0.05878 0.14346 0.0
C1675 C 0.24232 0.03429 0.14103 0.0
C1676 C 0.26714 0.0812 0.1491 0.0
C1677 C 0.24202 0.0795 0.15239 0.0
C1678 C 0.21704 0.05528 0.14978 0.0
C1679 C 0.21718 0.03277 0.14421 0.0
C1680 C 0.24182 0.10293 0.15866 0.0
C1681 C 0.22876 0.11572 0.15277 0.0
C1682 C 0.25518 0.1132 0.17016 0.0
C1683 C 0.26861 0.09997 0.17698 0.0
C1684 C 0.25358 0.07174 0.1801 0.0
C1685 C 0.26646 0.05937 0.18641 0.0
C1686 C 0.29432 0.07506 0.18973 0.0
C1687 C 0.30933 0.10319 0.18678 0.0
C1688 C 0.29656 0.11565 0.18046 0.0
C1689 C 0.21543 0.19277 0.18433 0.0
C1690 C 0.24006 0.21566 0.18854 0.0
C1691 C 0.21601 0.17099 0.17826 0.0
C1692 C 0.24128 0.17193 0.17611 0.0
C1693 C 0.2659 0.19474 0.18036 0.0
C1694 C 0.2653 0.2164 0.18654 0.0
C1695 C 0.242 0.14887 0.16964 0.0
C1696 C 0.25517 0.1361 0.17548 0.0
C1697 C 0.22898 0.13881 0.15803 0.0
C1698 C 0.21646 0.15261 0.15097 0.0
C1699 C 0.23207 0.18097 0.14813 0.0
C1700 C 0.2201 0.1939 0.14155 0.0
C1701 C 0.19259 0.17865 0.13766 0.0
C1702 C 0.177 0.15041 0.14033 0.0
C1703 C 0.18886 0.13738 0.14693 0.0
H1704 H 0.18336 0.18869 0.13256 0.0
H1705 H 0.30425 0.06545 0.19462 0.0
H1706 H 0.05456 0.29394 0.51695 0.0
H1707 H 0.09567 0.29565 0.50791 0.0
H1708 H 0.06288 0.20946 0.5168 0.0
H1709 H 0.02184 0.20767 0.52593 0.0
H1710 H 0.11856 0.24317 0.52338 0.0
H1711 H 0.05892 0.22649 0.48811 0.0
H1712 H 0.03006 0.23651 0.47414 0.0
H1713 H 0.10011 0.31576 0.46547 0.0
H1714 H 0.12931 0.30637 0.47953 0.0
H1715 H 0.19976 0.20661 0.48688 0.0
H1716 H 0.16226 0.21035 0.49653 0.0
H1717 H 0.19663 0.29351 0.4825 0.0
H1718 H 0.2337 0.28952 0.47236 0.0
H1719 H 0.14224 0.2651 0.47896 0.0
H1720 H 0.20278 0.28197 0.51302 0.0
H1721 H 0.23243 0.27358 0.52721 0.0
H1722 H 0.1624 0.19668 0.53859 0.0
H1723 H 0.13238 0.20441 0.52433 0.0
C1724 C 0.05621 0.27541 0.51701 0.0
C1725 C 0.03504 0.25064 0.52209 0.0
C1726 C 0.07958 0.27638 0.5118 0.0
C1727 C 0.08216 0.25264 0.51165 0.0
C1728 C 0.06119 0.22798 0.51683 0.0
C1729 C 0.03772 0.22693 0.52194 0.0
C1730 C 0.10672 0.25343 0.50608 0.0
C1731 C 0.12363 0.24767 0.51364 0.0
C1732 C 0.11373 0.26024 0.49348 0.0
C1733 C 0.09622 0.26585 0.48498 0.0
C1734 C 0.06811 0.24615 0.48331 0.0
C1735 C 0.05171 0.2517 0.47536 0.0
C1736 C 0.06323 0.27679 0.46895 0.0
C1737 C 0.09121 0.29635 0.47046 0.0
C1738 C 0.1077 0.29092 0.47841 0.0
C1739 C 0.19925 0.22563 0.48576 0.0
C1740 C 0.21969 0.24775 0.47883 0.0
C1741 C 0.17797 0.22785 0.4914 0.0
C1742 C 0.17686 0.25234 0.49036 0.0
C1743 C 0.1972 0.27448 0.48346 0.0
C1744 C 0.21847 0.27224 0.47776 0.0
C1745 C 0.15398 0.25443 0.49622 0.0
C1746 C 0.13736 0.26078 0.48872 0.0
C1747 C 0.14739 0.24841 0.50892 0.0
C1748 C 0.16537 0.24367 0.51752 0.0
C1749 C 0.19374 0.26316 0.51847 0.0
C1750 C 0.21061 0.25854 0.52654 0.0
C1751 C 0.19932 0.23459 0.53377 0.0
C1752 C 0.17112 0.21522 0.53297 0.0
C1753 C 0.15416 0.21972 0.52491 0.0
H1754 H 0.21242 0.23106 0.54001 0.0
H1755 H 0.05049 0.28104 0.4628 0.0
H1756 H 0.98638 0.19374 0.81033 0.0
H1757 H 0.94579 0.15437 0.81957 0.0
H1758 H 0.8996 0.19691 0.81535 0.0
H1759 H 0.94034 0.23661 0.80625 0.0
H1760 H 0.89242 0.17241 0.83838 0.0
H1761 H 0.88779 0.1471 0.79578 0.0
H1762 H 0.90549 0.1397 0.77608 0.0
H1763 H 0.91964 0.07863 0.79342 0.0
H1764 H 0.90241 0.08598 0.81329 0.0
H1765 H 0.76208 0.05309 0.85133 0.0
H1766 H 0.79951 0.09363 0.84105 0.0
H1767 H 0.8505 0.05573 0.84218 0.0
H1768 H 0.81292 0.01481 0.85208 0.0
H1769 H 0.85329 0.07878 0.81993 0.0
H1770 H 0.86002 0.10575 0.86275 0.0
H1771 H 0.8428 0.1135 0.88252 0.0
H1772 H 0.82482 0.17159 0.86478 0.0
H1773 H 0.84159 0.16388 0.84485 0.0
C1774 C 0.96765 0.19478 0.81146 0.0
C1775 C 0.96647 0.21818 0.80756 0.0
C1776 C 0.94444 0.17223 0.81665 0.0
C1777 C 0.91967 0.17268 0.81802 0.0
C1778 C 0.91853 0.19618 0.81432 0.0
C1779 C 0.94171 0.2187 0.80906 0.0
C1780 C 0.89498 0.14851 0.82331 0.0
C1781 C 0.88354 0.15199 0.83425 0.0
C1782 C 0.8838 0.12188 0.818 0.0
C1783 C 0.89404 0.11728 0.80605 0.0
C1784 C 0.89489 0.13225 0.79542 0.0
C1785 C 0.9048 0.12804 0.78422 0.0
C1786 C 0.91375 0.10875 0.78351 0.0
C1787 C 0.91273 0.09359 0.79399 0.0
C1788 C 0.90287 0.09775 0.80522 0.0
C1789 C 0.78118 0.05329 0.84927 0.0
C1790 C 0.78461 0.03081 0.85255 0.0
C1791 C 0.80261 0.07656 0.84351 0.0
C1792 C 0.82786 0.07778 0.84099 0.0
C1793 C 0.83119 0.05522 0.84409 0.0
C1794 C 0.8098 0.03197 0.84984 0.0
C1795 C 0.85092 0.10256 0.83512 0.0
C1796 C 0.86204 0.09921 0.82403 0.0
C1797 C 0.86179 0.1293 0.84031 0.0
C1798 C 0.85177 0.13401 0.85228 0.0
C1799 C 0.85218 0.12 0.86304 0.0
C1800 C 0.84254 0.12442 0.87428 0.0
C1801 C 0.83264 0.14297 0.8749 0.0
C1802 C 0.83244 0.15719 0.86428 0.0
C1803 C 0.84203 0.15282 0.85302 0.0
H1804 H 0.8252 0.14636 0.8836 0.0
H1805 H 0.92141 0.10551 0.77482 0.0
H1806 H 0.71668 0.94471 0.14034 0.0
H1807 H 0.71392 0.90364 0.14983 0.0
H1808 H 0.79965 0.95145 0.16058 0.0
H1809 H 0.8025 0.99277 0.15134 0.0
H1810 H 0.78652 0.90156 0.14957 0.0
H1811 H 0.7504 0.9349 0.18175 0.0
H1812 H 0.71908 0.94995 0.1903 0.0
H1813 H 0.64891 0.87076 0.18165 0.0
H1814 H 0.67981 0.85536 0.17289 0.0
H1815 H 0.79556 0.80907 0.19111 0.0
H1816 H 0.7963 0.84902 0.18142 0.0
H1817 H 0.70794 0.80111 0.17592 0.0
H1818 H 0.70707 0.76135 0.186 0.0
H1819 H 0.72104 0.85019 0.18363 0.0
H1820 H 0.75523 0.81577 0.15179 0.0
H1821 H 0.7851 0.79969 0.14253 0.0
H1822 H 0.85672 0.87904 0.14936 0.0
H1823 H 0.82732 0.89549 0.15881 0.0
C1824 C 0.73487 0.94659 0.14486 0.0
C1825 C 0.75981 0.97205 0.14511 0.0
C1826 C 0.73327 0.92308 0.15023 0.0
C1827 C 0.75654 0.92461 0.15596 0.0
C1828 C 0.78149 0.94988 0.15616 0.0
C1829 C 0.7831 0.97343 0.15083 0.0
C1830 C 0.75499 0.89978 0.16166 0.0
C1831 C 0.77246 0.89048 0.15712 0.0
C1832 C 0.73597 0.8849 0.17121 0.0
C1833 C 0.71741 0.89408 0.17656 0.0
C1834 C 0.72828 0.92077 0.18158 0.0
C1835 C 0.71061 0.92935 0.18648 0.0
C1836 C 0.68202 0.91134 0.18649 0.0
C1837 C 0.67106 0.88469 0.18163 0.0
C1838 C 0.68864 0.87602 0.17671 0.0
C1839 C 0.77635 0.80708 0.18777 0.0
C1840 C 0.75129 0.78217 0.18921 0.0
C1841 C 0.77678 0.82986 0.1822 0.0
C1842 C 0.75224 0.82792 0.17773 0.0
C1843 C 0.72713 0.80307 0.17928 0.0
C1844 C 0.72664 0.7804 0.18502 0.0
C1845 C 0.75276 0.85198 0.17162 0.0
C1846 C 0.73507 0.86115 0.17606 0.0
C1847 C 0.77134 0.86655 0.16185 0.0
C1848 C 0.78908 0.85678 0.15611 0.0
C1849 C 0.77737 0.82973 0.15139 0.0
C1850 C 0.79422 0.82056 0.1461 0.0
C1851 C 0.8228 0.83831 0.14538 0.0
C1852 C 0.83459 0.8653 0.14993 0.0
C1853 C 0.81783 0.87457 0.15524 0.0
H1854 H 0.83581 0.83117 0.14129 0.0
H1855 H 0.66837 0.91802 0.19029 0.0
H1856 H 0.76237 0.70442 0.47632 0.0
H1857 H 0.80244 0.70361 0.48509 0.0
H1858 H 0.84834 0.79284 0.48525 0.0
H1859 H 0.80838 0.79378 0.47642 0.0
H1860 H 0.87767 0.76866 0.47523 0.0
H1861 H 0.82365 0.76055 0.51148 0.0
H1862 H 0.78149 0.73984 0.52433 0.0
H1863 H 0.78048 0.66242 0.52463 0.0
H1864 H 0.82244 0.68257 0.51162 0.0
H1865 H 0.98982 0.79693 0.51439 0.0
H1866 H 0.94884 0.79359 0.5046 0.0
H1867 H 0.90584 0.70488 0.50897 0.0
H1868 H 0.94658 0.70816 0.51916 0.0
H1869 H 0.87405 0.72595 0.51602 0.0
H1870 H 0.92857 0.73352 0.48073 0.0
H1871 H 0.9703 0.75309 0.46761 0.0
H1872 H 0.96989 0.82965 0.46497 0.0
H1873 H 0.92837 0.81067 0.47822 0.0
C1874 C 0.78104 0.72384 0.47821 0.0
C1875 C 0.78233 0.74917 0.47572 0.0
C1876 C 0.80381 0.72334 0.48326 0.0
C1877 C 0.82823 0.74817 0.48585 0.0
C1878 C 0.82962 0.77348 0.48332 0.0
C1879 C 0.80678 0.774 0.47837 0.0
C1880 C 0.85246 0.74776 0.4911 0.0
C1881 C 0.87704 0.75962 0.48421 0.0
C1882 C 0.8512 0.73511 0.50262 0.0
C1883 C 0.826 0.72298 0.51046 0.0
C1884 C 0.81429 0.73904 0.51419 0.0
C1885 C 0.79046 0.72742 0.52152 0.0
C1886 C 0.77826 0.69981 0.52527 0.0
C1887 C 0.78992 0.68378 0.52171 0.0
C1888 C 0.81373 0.6953 0.51436 0.0
C1889 C 0.97161 0.77672 0.51331 0.0
C1890 C 0.97139 0.75281 0.51756 0.0
C1891 C 0.94831 0.77481 0.5076 0.0
C1892 C 0.92441 0.74896 0.50595 0.0
C1893 C 0.92413 0.72502 0.51012 0.0
C1894 C 0.94747 0.7269 0.51585 0.0
C1895 C 0.89947 0.74717 0.50022 0.0
C1896 C 0.87471 0.73485 0.507 0.0
C1897 C 0.90051 0.75922 0.48855 0.0
C1898 C 0.92549 0.77074 0.48057 0.0
C1899 C 0.93751 0.75461 0.47744 0.0
C1900 C 0.9611 0.76558 0.46996 0.0
C1901 C 0.97278 0.79262 0.46549 0.0
C1902 C 0.96084 0.80872 0.46846 0.0
C1903 C 0.93726 0.79785 0.47594 0.0
H1904 H 0.99104 0.80107 0.4597 0.0
H1905 H 0.75982 0.69085 0.53095 0.0
H1906 H 0.19381 0.97866 0.86055 0.0
H1907 H 0.15405 0.93638 0.85273 0.0
H1908 H 0.20571 0.90006 0.8473 0.0
H1909 H 0.24582 0.94263 0.85488 0.0
H1910 H 0.17134 0.89111 0.82756 0.0
H1911 H 0.16343 0.88025 0.87145 0.0
H1912 H 0.16207 0.89399 0.89303 0.0
H1913 H 0.09005 0.9001 0.88482 0.0
H1914 H 0.09122 0.88681 0.86313 0.0
H1915 H 0.05492 0.75752 0.81651 0.0
H1916 H 0.09695 0.7945 0.82615 0.0
H1917 H 0.05498 0.84032 0.83332 0.0
H1918 H 0.01282 0.80324 0.82394 0.0
H1919 H 0.08628 0.8414 0.85304 0.0
H1920 H 0.09683 0.85605 0.80879 0.0
H1921 H 0.09846 0.84273 0.78716 0.0
H1922 H 0.16585 0.82943 0.79618 0.0
H1923 H 0.16434 0.84229 0.81792 0.0
C1924 C 0.19677 0.96179 0.85757 0.0
C1925 C 0.22289 0.96391 0.85833 0.0
C1926 C 0.17401 0.93757 0.85322 0.0
C1927 C 0.17692 0.91501 0.8496 0.0
C1928 C 0.20305 0.91722 0.85012 0.0
C1929 C 0.22585 0.94144 0.85451 0.0
C1930 C 0.15257 0.8892 0.84524 0.0
C1931 C 0.1529 0.87992 0.8332 0.0
C1932 C 0.12845 0.87491 0.85257 0.0
C1933 C 0.12755 0.88275 0.86563 0.0
C1934 C 0.14742 0.88473 0.87422 0.0
C1935 C 0.14667 0.89241 0.88647 0.0
C1936 C 0.12602 0.89797 0.89029 0.0
C1937 C 0.10604 0.89581 0.88185 0.0
C1938 C 0.10672 0.88817 0.86958 0.0
C1939 C 0.05458 0.7753 0.82032 0.0
C1940 C 0.03069 0.77762 0.81942 0.0
C1941 C 0.07861 0.79646 0.82572 0.0
C1942 C 0.0791 0.82023 0.83031 0.0
C1943 C 0.05501 0.82216 0.8298 0.0
C1944 C 0.03104 0.80109 0.82436 0.0
C1945 C 0.10489 0.84361 0.8353 0.0
C1946 C 0.10483 0.85241 0.84746 0.0
C1947 C 0.12926 0.85744 0.82808 0.0
C1948 C 0.13025 0.84981 0.81501 0.0
C1949 C 0.11184 0.85005 0.80619 0.0
C1950 C 0.11277 0.84263 0.7939 0.0
C1951 C 0.13219 0.83516 0.79031 0.0
C1952 C 0.15078 0.83517 0.79898 0.0
C1953 C 0.1499 0.84253 0.81128 0.0
H1954 H 0.13288 0.82942 0.78079 0.0
H1955 H 0.12547 0.90391 0.89978 0.0
H1956 H 0.31055 0.29144 0.38555 0.0
H1957 H 0.29565 0.3013 0.36598 0.0
H1958 H 0.28575 0.22554 0.35059 0.0
H1959 H 0.30229 0.21625 0.36999 0.0
H1960 H 0.30837 0.26541 0.33404 0.0
H1961 H 0.22965 0.23102 0.36064 0.0
H1962 H 0.20388 0.22823 0.37965 0.0
H1963 H 0.22131 0.31159 0.37403 0.0
H1964 H 0.24754 0.31502 0.35508 0.0
H1965 H 0.22811 0.26333 0.28271 0.0
H1966 H 0.24012 0.25069 0.30249 0.0
H1967 H 0.26325 0.33127 0.31716 0.0
H1968 H 0.25104 0.34403 0.29737 0.0
H1969 H 0.23231 0.28713 0.33386 0.0
H1970 H 0.3121 0.32078 0.30722 0.0
H1971 H 0.3363 0.3219 0.28793 0.0
H1972 H 0.31468 0.23726 0.29348 0.0
H1973 H 0.28994 0.23549 0.31271 0.0
C1974 C 0.30575 0.27706 0.37796 0.0
C1975 C 0.30771 0.25303 0.37938 0.0
C1976 C 0.29679 0.28255 0.36681 0.0
C1977 C 0.28903 0.2639 0.35688 0.0
C1978 C 0.29143 0.24014 0.35815 0.0
C1979 C 0.30067 0.23474 0.36929 0.0
C1980 C 0.27849 0.26932 0.3452 0.0
C1981 C 0.29145 0.26972 0.334 0.0
C1982 C 0.25667 0.27539 0.34513 0.0
C1983 C 0.24077 0.27335 0.35649 0.0
C1984 C 0.22816 0.24882 0.3635 0.0
C1985 C 0.21344 0.24712 0.37426 0.0
C1986 C 0.21101 0.26974 0.37806 0.0
C1987 C 0.22323 0.2941 0.37109 0.0
C1988 C 0.238 0.29592 0.36033 0.0
C1989 C 0.23525 0.27818 0.29022 0.0
C1990 C 0.23862 0.30467 0.28851 0.0
C1991 C 0.24231 0.271 0.30147 0.0
C1992 C 0.25281 0.29015 0.31122 0.0
C1993 C 0.25523 0.31625 0.30972 0.0
C1994 C 0.24838 0.32354 0.29842 0.0
C1995 C 0.2623 0.28333 0.3228 0.0
C1996 C 0.24914 0.28268 0.33396 0.0
C1997 C 0.28373 0.27677 0.32281 0.0
C1998 C 0.29892 0.27792 0.31134 0.0
C1999 C 0.31232 0.30234 0.30428 0.0
C2000 C 0.32616 0.3031 0.29336 0.0
C2001 C 0.32696 0.27964 0.28947 0.0
C2002 C 0.314 0.2554 0.2965 0.0
C2003 C 0.30008 0.25451 0.30742 0.0
H2004 H 0.33768 0.28027 0.28101 0.0
H2005 H 0.19962 0.26838 0.38639 0.0
H2006 H 0.91809 0.26894 0.6272 0.0
H2007 H 0.94302 0.28185 0.64693 0.0
H2008 H 0.99266 0.24689 0.6348 0.0
H2009 H 0.96806 0.23414 0.61505 0.0
H2010 H 0.97709 0.23404 0.65877 0.0
H2011 H 0.01797 0.31571 0.63343 0.0
H2012 H 0.01782 0.35165 0.6202 0.0
H2013 H 0.98467 0.37666 0.65019 0.0
H2014 H 0.98423 0.34056 0.66355 0.0
H2015 H 0.08456 0.29858 0.70335 0.0
H2016 H 0.05954 0.28476 0.68364 0.0
H2017 H 0.00992 0.32021 0.69512 0.0
H2018 H 0.0346 0.33389 0.71482 0.0
H2019 H 0.0258 0.33277 0.67136 0.0
H2020 H 0.98464 0.25097 0.69667 0.0
H2021 H 0.98455 0.2149 0.70989 0.0
H2022 H 0.01813 0.1901 0.67999 0.0
H2023 H 0.01879 0.22632 0.66664 0.0
C2024 C 0.93428 0.26396 0.62874 0.0
C2025 C 0.94111 0.25057 0.61952 0.0
C2026 C 0.9485 0.27133 0.64002 0.0
C2027 C 0.96995 0.26565 0.64226 0.0
C2028 C 0.97616 0.25145 0.63326 0.0
C2029 C 0.96196 0.24405 0.622 0.0
C2030 C 0.98649 0.27522 0.65383 0.0
C2031 C 0.98802 0.25567 0.66145 0.0
C2032 C 0.00035 0.30338 0.65743 0.0
C2033 C 0.00081 0.32525 0.64945 0.0
C2034 C 0.01045 0.32874 0.63717 0.0
C2035 C 0.0105 0.34915 0.62965 0.0
C2036 C 0.00118 0.36638 0.63434 0.0
C2037 C 0.99185 0.36328 0.64657 0.0
C2038 C 0.99171 0.34285 0.65412 0.0
C2039 C 0.06833 0.30344 0.70167 0.0
C2040 C 0.06162 0.31738 0.71066 0.0
C2041 C 0.05405 0.29553 0.6904 0.0
C2042 C 0.03264 0.30118 0.68796 0.0
C2043 C 0.0264 0.31569 0.69679 0.0
C2044 C 0.04066 0.32363 0.70803 0.0
C2045 C 0.01635 0.29158 0.67633 0.0
C2046 C 0.01488 0.31114 0.66868 0.0
C2047 C 0.00254 0.26342 0.67271 0.0
C2048 C 0.00203 0.24154 0.6807 0.0
C2049 C 0.9922 0.23797 0.69294 0.0
C2050 C 0.99202 0.21747 0.70045 0.0
C2051 C 0.0014 0.20027 0.69579 0.0
C2052 C 0.01091 0.20347 0.6836 0.0
C2053 C 0.01118 0.22397 0.67605 0.0
H2054 H 0.00123 0.18441 0.70162 0.0
H2055 H 0.00123 0.38218 0.62851 0.0
H2056 H 0.779 0.04699 0.04758 0.0
H2057 H 0.76806 0.02188 0.02795 0.0
H2058 H 0.70315 0.04086 0.02135 0.0
H2059 H 0.71428 0.0665 0.04085 0.0
H2060 H 0.68576 0.98559 0.01815 0.0
H2061 H 0.76209 0.07347 0.00524 0.0
H2062 H 0.8097 0.11302 0.00621 0.0
H2063 H 0.84199 0.05844 0.00021 0.0
H2064 H 0.79454 0.01849 0.99937 0.0
H2065 H 0.65493 0.95238 0.95503 0.0
H2066 H 0.66782 0.97349 0.97551 0.0
H2067 H 0.73427 0.9552 0.9771 0.0
H2068 H 0.72202 0.93483 0.95634 0.0
H2069 H 0.75216 0.00747 0.9836 0.0
H2070 H 0.67656 0.91993 0.99522 0.0
H2071 H 0.62927 0.87984 0.9944 0.0
H2072 H 0.59588 0.93238 0.00317 0.0
H2073 H 0.64297 0.97289 0.00388 0.0
C2074 C 0.76279 0.04637 0.04184 0.0
C2075 C 0.74753 0.0588 0.0458 0.0
C2076 C 0.75647 0.03185 0.03065 0.0
C2077 C 0.7348 0.02952 0.02321 0.0
C2078 C 0.71984 0.04228 0.02701 0.0
C2079 C 0.72621 0.05689 0.03816 0.0
C2080 C 0.72712 0.01307 0.01163 0.0
C2081 C 0.70015 0.99053 0.01052 0.0
C2082 C 0.74625 0.01895 0.0019 0.0
C2083 C 0.77477 0.04296 0.00238 0.0
C2084 C 0.77934 0.06987 0.00423 0.0
C2085 C 0.8063 0.09236 0.00474 0.0
C2086 C 0.82886 0.08823 0.00331 0.0
C2087 C 0.8245 0.0616 0.00134 0.0
C2088 C 0.79758 0.03903 0.00084 0.0
C2089 C 0.67223 0.95275 0.95976 0.0
C2090 C 0.68755 0.94207 0.95404 0.0
C2091 C 0.67942 0.96459 0.97152 0.0
C2092 C 0.70189 0.96575 0.97789 0.0
C2093 C 0.71682 0.95447 0.97236 0.0
C2094 C 0.70965 0.94262 0.96055 0.0
C2095 C 0.7106 0.98017 0.99001 0.0
C2096 C 0.73778 0.00233 0.99124 0.0
C2097 C 0.69171 0.97382 0.99989 0.0
C2098 C 0.66332 0.9495 0.9995 0.0
C2099 C 0.65913 0.92298 0.99688 0.0
C2100 C 0.63235 0.90017 0.99645 0.0
C2101 C 0.60958 0.90357 0.99871 0.0
C2102 C 0.61354 0.92978 0.00142 0.0
C2103 C 0.64028 0.95267 0.00185 0.0
H2104 H 0.58887 0.88588 0.99837 0.0
H2105 H 0.84971 0.10568 0.00371 0.0
H2106 H 0.76211 0.73263 0.28308 0.0
H2107 H 0.74956 0.74437 0.30289 0.0
H2108 H 0.7205 0.66128 0.31597 0.0
H2109 H 0.73311 0.64937 0.29613 0.0
H2110 H 0.68349 0.67739 0.3206 0.0
H2111 H 0.78108 0.71584 0.32667 0.0
H2112 H 0.83055 0.7444 0.32147 0.0
H2113 H 0.82347 0.81754 0.32212 0.0
H2114 H 0.77384 0.78936 0.32717 0.0
H2115 H 0.66805 0.69972 0.38392 0.0
H2116 H 0.68181 0.68915 0.36415 0.0
H2117 H 0.71115 0.77282 0.35184 0.0
H2118 H 0.69744 0.78361 0.37171 0.0
H2119 H 0.74799 0.75691 0.34669 0.0
H2120 H 0.65055 0.71863 0.34068 0.0
H2121 H 0.60105 0.69017 0.34585 0.0
H2122 H 0.60777 0.61684 0.34496 0.0
H2123 H 0.65742 0.64492 0.33995 0.0
C2124 C 0.75358 0.71698 0.29025 0.0
C2125 C 0.74875 0.69008 0.28804 0.0
C2126 C 0.74633 0.72372 0.30157 0.0
C2127 C 0.73429 0.70377 0.31096 0.0
C2128 C 0.72973 0.67699 0.30885 0.0
C2129 C 0.73692 0.6702 0.29751 0.0
C2130 C 0.72547 0.71058 0.3228 0.0
C2131 C 0.69769 0.69453 0.3264 0.0
C2132 C 0.74381 0.73344 0.33017 0.0
C2133 C 0.77368 0.75045 0.32718 0.0
C2134 C 0.79002 0.73799 0.32561 0.0
C2135 C 0.8181 0.75411 0.32271 0.0
C2136 C 0.83013 0.78276 0.32143 0.0
C2137 C 0.81411 0.79534 0.32309 0.0
C2138 C 0.78602 0.77931 0.32599 0.0
C2139 C 0.67696 0.71577 0.37693 0.0
C2140 C 0.68138 0.74245 0.37933 0.0
C2141 C 0.6849 0.7097 0.36563 0.0
C2142 C 0.69721 0.73008 0.35644 0.0
C2143 C 0.70167 0.75676 0.3588 0.0
C2144 C 0.69382 0.7629 0.37014 0.0
C2145 C 0.70603 0.72365 0.34451 0.0
C2146 C 0.73379 0.73978 0.34088 0.0
C2147 C 0.68766 0.70088 0.33709 0.0
C2148 C 0.65777 0.68392 0.34005 0.0
C2149 C 0.64152 0.69646 0.34168 0.0
C2150 C 0.61343 0.68039 0.34457 0.0
C2151 C 0.60129 0.65172 0.34577 0.0
C2152 C 0.61721 0.63905 0.34405 0.0
C2153 C 0.64532 0.65503 0.34117 0.0
H2154 H 0.57954 0.63932 0.348 0.0
H2155 H 0.85187 0.7952 0.31918 0.0
H2156 H 0.01076 0.74359 0.6146 0.0
H2157 H 0.99221 0.73809 0.6355 0.0
H2158 H 0.07444 0.77197 0.65059 0.0
H2159 H 0.09311 0.77665 0.62961 0.0
H2160 H 0.03893 0.72551 0.66225 0.0
H2161 H 0.04036 0.80893 0.65104 0.0
H2162 H 0.03133 0.83974 0.63795 0.0
H2163 H 0.94387 0.78404 0.64104 0.0
H2164 H 0.95237 0.75267 0.65401 0.0
H2165 H 0.99849 0.73156 0.72354 0.0
H2166 H 0.01999 0.74623 0.70319 0.0
H2167 H 0.9394 0.70747 0.68608 0.0
H2168 H 0.91761 0.69236 0.70648 0.0
H2169 H 0.97584 0.75897 0.6759 0.0
H2170 H 0.97483 0.67451 0.68598 0.0
H2171 H 0.98386 0.64365 0.69906 0.0
H2172 H 0.07102 0.7019 0.69797 0.0
H2173 H 0.06246 0.73332 0.68503 0.0
C2174 C 0.02493 0.74986 0.62236 0.0
C2175 C 0.05339 0.76034 0.62046 0.0
C2176 C 0.01432 0.74701 0.63431 0.0
C2177 C 0.03195 0.75486 0.64461 0.0
C2178 C 0.06047 0.76587 0.64275 0.0
C2179 C 0.07114 0.76871 0.63077 0.0
C2180 C 0.02027 0.74992 0.65731 0.0
C2181 C 0.02558 0.73331 0.66531 0.0
C2182 C 0.00224 0.75946 0.66119 0.0
C2183 C 0.99703 0.77833 0.65342 0.0
C2184 C 0.0192 0.80314 0.64885 0.0
C2185 C 0.01418 0.82073 0.64147 0.0
C2186 C 0.98704 0.81383 0.63864 0.0
C2187 C 0.96487 0.78935 0.64322 0.0
C2188 C 0.96979 0.77167 0.65061 0.0
C2189 C 0.9853 0.72603 0.71545 0.0
C2190 C 0.95634 0.71041 0.7166 0.0
C2191 C 0.99763 0.73456 0.70384 0.0
C2192 C 0.98129 0.72759 0.69313 0.0
C2193 C 0.95235 0.713 0.69425 0.0
C2194 C 0.93995 0.70442 0.7059 0.0
C2195 C 0.99452 0.73458 0.68075 0.0
C2196 C 0.98941 0.75145 0.67283 0.0
C2197 C 0.01277 0.72532 0.67693 0.0
C2198 C 0.01798 0.70639 0.68465 0.0
C2199 C 0.9959 0.68084 0.68862 0.0
C2200 C 0.00094 0.66323 0.69599 0.0
C2201 C 0.02799 0.67085 0.69937 0.0
C2202 C 0.05007 0.69606 0.69536 0.0
C2203 C 0.04514 0.71376 0.688 0.0
H2204 H 0.03184 0.65718 0.70508 0.0
H2205 H 0.9832 0.82747 0.63292 0.0
H2206 H 0.27371 0.91711 0.03819 0.0
H2207 H 0.28622 0.94174 0.01838 0.0
H2208 H 0.24362 0.98518 0.02896 0.0
H2209 H 0.23129 0.96094 0.04878 0.0
H2210 H 0.23384 0.96906 0.00491 0.0
H2211 H 0.31275 0.01605 0.03167 0.0
H2212 H 0.34917 0.01961 0.04575 0.0
H2213 H 0.38157 0.99105 0.01684 0.0
H2214 H 0.34506 0.98691 0.00263 0.0
H2215 H 0.2949 0.07895 0.96132 0.0
H2216 H 0.28118 0.0531 0.98082 0.0
H2217 H 0.32355 0.00956 0.97004 0.0
H2218 H 0.337 0.03493 0.9505 0.0
H2219 H 0.33333 0.02553 0.99413 0.0
H2220 H 0.25448 0.97886 0.96733 0.0
H2221 H 0.21799 0.9753 0.95329 0.0
H2222 H 0.18549 0.00346 0.98233 0.0
H2223 H 0.22206 0.00757 0.99649 0.0
C2224 C 0.26694 0.93185 0.03629 0.0
C2225 C 0.25155 0.93708 0.0451 0.0
C2226 C 0.27409 0.94589 0.02496 0.0
C2227 C 0.26614 0.96556 0.02227 0.0
C2228 C 0.24993 0.97007 0.03084 0.0
C2229 C 0.24278 0.95606 0.04215 0.0
C2230 C 0.27551 0.98216 0.01072 0.0
C2231 C 0.2556 0.98165 0.00262 0.0
C2232 C 0.3039 0.99823 0.00763 0.0
C2233 C 0.326 0.0009 0.01612 0.0
C2234 C 0.32751 0.01033 0.02834 0.0
C2235 C 0.34819 0.01248 0.03634 0.0
C2236 C 0.36763 0.0055 0.0322 0.0
C2237 C 0.36647 0.99641 0.02004 0.0
C2238 C 0.3458 0.99417 0.012 0.0
C2239 C 0.30129 0.06386 0.9631 0.0
C2240 C 0.31707 0.05905 0.95433 0.0
C2241 C 0.29345 0.04912 0.97424 0.0
C2242 C 0.3011 0.02919 0.97682 0.0
C2243 C 0.31747 0.02489 0.96826 0.0
C2244 C 0.32528 0.03956 0.95711 0.0
C2245 C 0.29165 0.01242 0.98832 0.0
C2246 C 0.31157 0.01292 0.99641 0.0
C2247 C 0.26327 0.99637 0.99141 0.0
C2248 C 0.24118 0.9938 0.98293 0.0
C2249 C 0.23969 0.98451 0.97069 0.0
C2250 C 0.21897 0.98235 0.96272 0.0
C2251 C 0.19947 0.98922 0.96691 0.0
C2252 C 0.20063 0.99819 0.97909 0.0
C2253 C 0.22134 0.00042 0.9871 0.0
H2254 H 0.18344 0.98753 0.96072 0.0
H2255 H 0.38363 0.00718 0.03841 0.0
loop_
_geom_bond_atom_site_label_1
_geom_bond_atom_site_label_2
_geom_bond_distance
_geom_bond_site_symmetry_2
_ccdc_geom_bond_type
Li0 N17 1.990 . S
Li0 O60 1.956 . S
Li0 O61 1.970 . S
Li0 O62 1.961 . S
Li1 N25 1.990 . S
Li1 O60 1.970 . S
Li1 O61 1.956 . S
Li1 O63 1.961 . S
Li2 N47 1.990 . S
Li2 O60 1.961 . S
Li2 O62 1.956 . S
Li2 O63 1.970 . S
Li3 N53 1.990 . S
Li3 O61 1.961 . S
Li3 O62 1.970 . S
Li3 O63 1.956 . S
C4 C6 1.348 . S
C4 C7 1.356 . S
C4 O60 1.325 . S
N5 C8 1.314 . S
N5 C9 1.279 . S
C6 C4 1.348 . S
C6 C8 1.353 . S
C6 H64 0.929 . S
C7 C4 1.356 . S
C7 C9 1.358 . S
C7 H65 0.930 . S
C8 N5 1.314 . S
C8 C6 1.353 . S
C8 H66 0.930 . S
C9 N5 1.279 . S
C9 C7 1.358 . S
C9 H67 0.930 . S
C10 C13 1.348 . S
C10 C14 1.356 . S
C10 O61 1.325 . S
C11 N12 1.279 . S
C11 C14 1.358 . S
C11 H68 0.930 . S
N12 C11 1.279 . S
N12 C15 1.314 . S
C13 C10 1.348 . S
C13 C15 1.353 . S
C13 H69 0.929 . S
C14 C10 1.356 . S
C14 C11 1.358 . S
C14 H70 0.930 . S
C15 N12 1.314 . S
C15 C13 1.353 . S
C15 H71 0.930 . S
C16 N17 1.314 . S
C16 C21 1.353 . S
C16 H22 0.930 . S
N17 Li0 1.990 . S
N17 C16 1.314 . S
N17 C19 1.279 . S
C18 C19 1.358 . S
C18 C20 1.356 . S
C18 H72 0.930 . S
C19 N17 1.279 . S
C19 C18 1.358 . S
C19 H23 0.930 . S
C20 C18 1.356 . S
C20 C21 1.348 . S
C21 C16 1.353 . S
C21 C20 1.348 . S
C21 H73 0.929 . S
H22 C16 0.930 . S
H23 C19 0.930 . S
C24 N25 1.314 . S
C24 C26 1.353 . S
C24 H30 0.930 . S
N25 Li1 1.990 . S
N25 C24 1.314 . S
N25 C28 1.279 . S
C26 C24 1.353 . S
C26 C29 1.348 . S
C26 H74 0.929 . S
C27 C28 1.358 . S
C27 C29 1.356 . S
C27 H75 0.930 . S
C28 N25 1.279 . S
C28 C27 1.358 . S
C28 H31 0.930 . S
C29 C26 1.348 . S
C29 C27 1.356 . S
H30 C24 0.930 . S
H31 C28 0.930 . S
C32 C34 1.348 . S
C32 C35 1.356 . S
C32 O62 1.325 . S
N33 C36 1.314 . S
N33 C37 1.279 . S
C34 C32 1.348 . S
C34 C36 1.353 . S
C34 H76 0.929 . S
C35 C32 1.356 . S
C35 C37 1.358 . S
C35 H77 0.930 . S
C36 N33 1.314 . S
C36 C34 1.353 . S
C36 H78 0.930 . S
C37 N33 1.279 . S
C37 C35 1.358 . S
C37 H79 0.930 . S
C38 C39 1.348 . S
C38 C40 1.356 . S
C38 O63 1.325 . S
C39 C38 1.348 . S
C39 C41 1.353 . S
C39 H80 0.929 . S
C40 C38 1.356 . S
C40 C42 1.358 . S
C40 H81 0.930 . S
C41 C39 1.353 . S
C41 N43 1.314 . S
C41 H82 0.930 . S
C42 C40 1.358 . S
C42 N43 1.279 . S
C42 H83 0.930 . S
N43 C41 1.314 . S
N43 C42 1.279 . S
C44 C46 1.353 . S
C44 N47 1.314 . S
C44 H50 0.930 . S
C45 N47 1.279 . S
C45 C48 1.358 . S
C45 H51 0.930 . S
C46 C44 1.353 . S
C46 C49 1.348 . S
C46 H84 0.929 . S
N47 Li2 1.990 . S
N47 C44 1.314 . S
N47 C45 1.279 . S
C48 C45 1.358 . S
C48 C49 1.356 . S
C48 H85 0.930 . S
C49 C46 1.348 . S
C49 C48 1.356 . S
H50 C44 0.930 . S
H51 C45 0.930 . S
C52 N53 1.314 . S
C52 C54 1.353 . S
C52 H58 0.930 . S
N53 Li3 1.990 . S
N53 C52 1.314 . S
N53 C56 1.279 . S
C54 C52 1.353 . S
C54 C57 1.348 . S
C54 H86 0.929 . S
C55 C56 1.358 . S
C55 C57 1.356 . S
C55 H87 0.930 . S
C56 N53 1.279 . S
C56 C55 1.358 . S
C56 H59 0.930 . S
C57 C54 1.348 . S
C57 C55 1.356 . S
H58 C52 0.930 . S
H59 C56 0.930 . S
O60 Li0 1.956 . S
O60 Li1 1.970 . S
O60 Li2 1.961 . S
O60 C4 1.325 . S
O61 Li0 1.970 . S
O61 Li1 1.956 . S
O61 Li3 1.961 . S
O61 C10 1.325 . S
O62 Li0 1.961 . S
O62 Li2 1.956 . S
O62 Li3 1.970 . S
O62 C32 1.325 . S
O63 Li1 1.961 . S
O63 Li2 1.970 . S
O63 Li3 1.956 . S
O63 C38 1.325 . S
H64 C6 0.929 . S
H65 C7 0.930 . S
H66 C8 0.930 . S
H67 C9 0.930 . S
H68 C11 0.930 . S
H69 C13 0.929 . S
H70 C14 0.930 . S
H71 C15 0.930 . S
H72 C18 0.930 . S
H73 C21 0.929 . S
H74 C26 0.929 . S
H75 C27 0.930 . S
H76 C34 0.929 . S
H77 C35 0.930 . S
H78 C36 0.930 . S
H79 C37 0.930 . S
H80 C39 0.929 . S
H81 C40 0.930 . S
H82 C41 0.930 . S
H83 C42 0.930 . S
H84 C46 0.929 . S
H85 C48 0.930 . S
H86 C54 0.929 . S
H87 C55 0.930 . S
Li88 N105 1.990 . S
Li88 O148 1.956 . S
Li88 O149 1.970 . S
Li88 O150 1.961 . S
Li89 N113 1.990 . S
Li89 O148 1.970 . S
Li89 O149 1.956 . S
Li89 O151 1.961 . S
Li90 N135 1.990 . S
Li90 O148 1.961 . S
Li90 O150 1.956 . S
Li90 O151 1.970 . S
Li91 N141 1.990 1_655 S
Li91 O149 1.961 . S
Li91 O150 1.970 . S
Li91 O151 1.956 . S
C92 C94 1.348 . S
C92 C95 1.356 . S
C92 O148 1.325 . S
N93 C96 1.314 . S
N93 C97 1.279 . S
C94 C92 1.348 . S
C94 C96 1.353 . S
C94 H152 0.929 . S
C95 C92 1.356 . S
C95 C97 1.358 . S
C95 H153 0.930 . S
C96 N93 1.314 . S
C96 C94 1.353 . S
C96 H154 0.930 . S
C97 N93 1.279 . S
C97 C95 1.358 . S
C97 H155 0.930 . S
C98 C101 1.348 . S
C98 C102 1.356 . S
C98 O149 1.325 . S
C99 N100 1.279 . S
C99 C102 1.358 . S
C99 H156 0.930 . S
N100 C99 1.279 . S
N100 C103 1.314 . S
C101 C98 1.348 . S
C101 C103 1.353 . S
C101 H157 0.929 . S
C102 C98 1.356 . S
C102 C99 1.358 . S
C102 H158 0.930 . S
C103 N100 1.314 . S
C103 C101 1.353 . S
C103 H159 0.930 . S
C104 N105 1.314 . S
C104 C109 1.353 . S
C104 H110 0.930 . S
N105 Li88 1.990 . S
N105 C104 1.314 . S
N105 C107 1.279 . S
C106 C107 1.358 . S
C106 C108 1.356 . S
C106 H160 0.930 . S
C107 N105 1.279 . S
C107 C106 1.358 . S
C107 H111 0.930 . S
C108 C106 1.356 . S
C108 C109 1.348 . S
C109 C104 1.353 . S
C109 C108 1.348 . S
C109 H161 0.929 . S
H110 C104 0.930 . S
H111 C107 0.930 . S
C112 N113 1.314 . S
C112 C114 1.353 . S
C112 H118 0.930 . S
N113 Li89 1.990 . S
N113 C112 1.314 . S
N113 C116 1.279 . S
C114 C112 1.353 . S
C114 C117 1.348 . S
C114 H162 0.929 . S
C115 C116 1.358 . S
C115 C117 1.356 . S
C115 H163 0.930 . S
C116 N113 1.279 . S
C116 C115 1.358 . S
C116 H119 0.930 . S
C117 C114 1.348 . S
C117 C115 1.356 . S
H118 C112 0.930 . S
H119 C116 0.930 . S
C120 C122 1.348 . S
C120 C123 1.356 . S
C120 O150 1.325 . S
N121 C124 1.314 . S
N121 C125 1.279 . S
C122 C120 1.348 . S
C122 C124 1.353 . S
C122 H164 0.929 . S
C123 C120 1.356 . S
C123 C125 1.358 . S
C123 H165 0.930 . S
C124 N121 1.314 . S
C124 C122 1.353 . S
C124 H166 0.930 . S
C125 N121 1.279 . S
C125 C123 1.358 . S
C125 H167 0.930 . S
C126 C127 1.348 . S
C126 C128 1.356 1_655 S
C126 O151 1.325 . S
C127 C126 1.348 . S
C127 C129 1.353 1_655 S
C127 H168 0.929 . S
C128 C126 1.356 1_455 S
C128 C130 1.358 . S
C128 H169 0.930 . S
C129 C127 1.353 1_455 S
C129 N131 1.314 . S
C129 H170 0.930 . S
C130 C128 1.358 . S
C130 N131 1.279 . S
C130 H171 0.930 . S
N131 C129 1.314 . S
N131 C130 1.279 . S
C132 C134 1.353 . S
C132 N135 1.314 . S
C132 H138 0.930 . S
C133 N135 1.279 . S
C133 C136 1.358 . S
C133 H139 0.930 . S
C134 C132 1.353 . S
C134 C137 1.348 . S
C134 H172 0.929 . S
N135 Li90 1.990 . S
N135 C132 1.314 . S
N135 C133 1.279 . S
C136 C133 1.358 . S
C136 C137 1.356 . S
C136 H173 0.930 . S
C137 C134 1.348 . S
C137 C136 1.356 . S
H138 C132 0.930 . S
H139 C133 0.930 . S
C140 N141 1.314 . S
C140 C142 1.353 . S
C140 H146 0.930 1_455 S
N141 Li91 1.990 1_455 S
N141 C140 1.314 . S
N141 C144 1.279 . S
C142 C140 1.353 . S
C142 C145 1.348 . S
C142 H174 0.929 . S
C143 C144 1.358 . S
C143 C145 1.356 . S
C143 H175 0.930 . S
C144 N141 1.279 . S
C144 C143 1.358 . S
C144 H147 0.930 . S
C145 C142 1.348 . S
C145 C143 1.356 . S
H146 C140 0.930 1_655 S
H147 C144 0.930 . S
O148 Li88 1.956 . S
O148 Li89 1.970 . S
O148 Li90 1.961 . S
O148 C92 1.325 . S
O149 Li88 1.970 . S
O149 Li89 1.956 . S
O149 Li91 1.961 . S
O149 C98 1.325 . S
O150 Li88 1.961 . S
O150 Li90 1.956 . S
O150 Li91 1.970 . S
O150 C120 1.325 . S
O151 Li89 1.961 . S
O151 Li90 1.970 . S
O151 Li91 1.956 . S
O151 C126 1.325 . S
H152 C94 0.929 . S
H153 C95 0.930 . S
H154 C96 0.930 . S
H155 C97 0.930 . S
H156 C99 0.930 . S
H157 C101 0.929 . S
H158 C102 0.930 . S
H159 C103 0.930 . S
H160 C106 0.930 . S
H161 C109 0.929 . S
H162 C114 0.929 . S
H163 C115 0.930 . S
H164 C122 0.929 . S
H165 C123 0.930 . S
H166 C124 0.930 . S
H167 C125 0.930 . S
H168 C127 0.929 . S
H169 C128 0.930 . S
H170 C129 0.930 . S
H171 C130 0.930 . S
H172 C134 0.929 . S
H173 C136 0.930 . S
H174 C142 0.929 . S
H175 C143 0.930 . S
Li176 N193 1.990 . S
Li176 O236 1.956 . S
Li176 O237 1.970 . S
Li176 O238 1.961 . S
Li177 N201 1.990 . S
Li177 O236 1.970 . S
Li177 O237 1.956 . S
Li177 O239 1.961 . S
Li178 N223 1.990 1_565 S
Li178 O236 1.961 . S
Li178 O238 1.956 . S
Li178 O239 1.970 . S
Li179 N229 1.990 . S
Li179 O237 1.961 . S
Li179 O238 1.970 . S
Li179 O239 1.956 . S
C180 C182 1.348 . S
C180 C183 1.356 . S
C180 O236 1.325 . S
N181 C184 1.314 . S
N181 C185 1.279 . S
C182 C180 1.348 . S
C182 C184 1.353 . S
C182 H240 0.929 . S
C183 C180 1.356 . S
C183 C185 1.358 . S
C183 H241 0.930 . S
C184 N181 1.314 . S
C184 C182 1.353 . S
C184 H242 0.930 . S
C185 N181 1.279 . S
C185 C183 1.358 . S
C185 H243 0.930 . S
C186 C189 1.348 . S
C186 C190 1.356 . S
C186 O237 1.325 . S
C187 N188 1.279 . S
C187 C190 1.358 . S
C187 H244 0.930 . S
N188 C187 1.279 . S
N188 C191 1.314 . S
C189 C186 1.348 . S
C189 C191 1.353 . S
C189 H245 0.929 . S
C190 C186 1.356 . S
C190 C187 1.358 . S
C190 H246 0.930 . S
C191 N188 1.314 . S
C191 C189 1.353 . S
C191 H247 0.930 . S
C192 N193 1.314 . S
C192 C197 1.353 . S
C192 H198 0.930 . S
N193 Li176 1.990 . S
N193 C192 1.314 . S
N193 C195 1.279 . S
C194 C195 1.358 . S
C194 C196 1.356 . S
C194 H248 0.930 . S
C195 N193 1.279 . S
C195 C194 1.358 . S
C195 H199 0.930 . S
C196 C194 1.356 . S
C196 C197 1.348 . S
C197 C192 1.353 . S
C197 C196 1.348 . S
C197 H249 0.929 . S
H198 C192 0.930 . S
H199 C195 0.930 . S
C200 N201 1.314 . S
C200 C202 1.353 . S
C200 H206 0.930 . S
N201 Li177 1.990 . S
N201 C200 1.314 . S
N201 C204 1.279 . S
C202 C200 1.353 . S
C202 C205 1.348 . S
C202 H250 0.929 . S
C203 C204 1.358 . S
C203 C205 1.356 . S
C203 H251 0.930 . S
C204 N201 1.279 . S
C204 C203 1.358 . S
C204 H207 0.930 . S
C205 C202 1.348 . S
C205 C203 1.356 . S
H206 C200 0.930 . S
H207 C204 0.930 . S
C208 C210 1.348 . S
C208 C211 1.356 1_565 S
C208 O238 1.325 . S
N209 C212 1.314 . S
N209 C213 1.279 . S
C210 C208 1.348 . S
C210 C212 1.353 1_565 S
C210 H252 0.929 . S
C211 C208 1.356 1_545 S
C211 C213 1.358 . S
C211 H253 0.930 . S
C212 N209 1.314 . S
C212 C210 1.353 1_545 S
C212 H254 0.930 . S
C213 N209 1.279 . S
C213 C211 1.358 . S
C213 H255 0.930 . S
C214 C215 1.348 . S
C214 C216 1.356 . S
C214 O239 1.325 . S
C215 C214 1.348 . S
C215 C217 1.353 . S
C215 H256 0.929 . S
C216 C214 1.356 . S
C216 C218 1.358 . S
C216 H257 0.930 . S
C217 C215 1.353 . S
C217 N219 1.314 . S
C217 H258 0.930 . S
C218 C216 1.358 . S
C218 N219 1.279 . S
C218 H259 0.930 . S
N219 C217 1.314 . S
N219 C218 1.279 . S
C220 C222 1.353 . S
C220 N223 1.314 . S
C220 H226 0.930 1_545 S
C221 N223 1.279 . S
C221 C224 1.358 . S
C221 H227 0.930 . S
C222 C220 1.353 . S
C222 C225 1.348 . S
C222 H260 0.929 . S
N223 Li178 1.990 1_545 S
N223 C220 1.314 . S
N223 C221 1.279 . S
C224 C221 1.358 . S
C224 C225 1.356 . S
C224 H261 0.930 . S
C225 C222 1.348 . S
C225 C224 1.356 . S
H226 C220 0.930 1_565 S
H227 C221 0.930 . S
C228 N229 1.314 . S
C228 C230 1.353 . S
C228 H234 0.930 . S
N229 Li179 1.990 . S
N229 C228 1.314 . S
N229 C232 1.279 . S
C230 C228 1.353 . S
C230 C233 1.348 . S
C230 H262 0.929 . S
C231 C232 1.358 . S
C231 C233 1.356 . S
C231 H263 0.930 . S
C232 N229 1.279 . S
C232 C231 1.358 . S
C232 H235 0.930 . S
C233 C230 1.348 . S
C233 C231 1.356 . S
H234 C228 0.930 . S
H235 C232 0.930 . S
O236 Li176 1.956 . S
O236 Li177 1.970 . S
O236 Li178 1.961 . S
O236 C180 1.325 . S
O237 Li176 1.970 . S
O237 Li177 1.956 . S
O237 Li179 1.961 . S
O237 C186 1.325 . S
O238 Li176 1.961 . S
O238 Li178 1.956 . S
O238 Li179 1.970 . S
O238 C208 1.325 . S
O239 Li177 1.961 . S
O239 Li178 1.970 . S
O239 Li179 1.956 . S
O239 C214 1.325 . S
H240 C182 0.929 . S
H241 C183 0.930 . S
H242 C184 0.930 . S
H243 C185 0.930 . S
H244 C187 0.930 . S
H245 C189 0.929 . S
H246 C190 0.930 . S
H247 C191 0.930 . S
H248 C194 0.930 . S
H249 C197 0.929 . S
H250 C202 0.929 . S
H251 C203 0.930 . S
H252 C210 0.929 . S
H253 C211 0.930 . S
H254 C212 0.930 . S
H255 C213 0.930 . S
H256 C215 0.929 . S
H257 C216 0.930 . S
H258 C217 0.930 . S
H259 C218 0.930 . S
H260 C222 0.929 . S
H261 C224 0.930 . S
H262 C230 0.929 . S
H263 C231 0.930 . S
Li264 N281 1.990 . S
Li264 O324 1.956 . S
Li264 O325 1.970 . S
Li264 O326 1.961 . S
Li265 N289 1.990 . S
Li265 O324 1.970 . S
Li265 O325 1.956 . S
Li265 O327 1.961 . S
Li266 N311 1.990 . S
Li266 O324 1.961 . S
Li266 O326 1.956 . S
Li266 O327 1.970 . S
Li267 N317 1.990 . S
Li267 O325 1.961 . S
Li267 O326 1.970 . S
Li267 O327 1.956 . S
C268 C270 1.348 . S
C268 C271 1.356 . S
C268 O324 1.325 . S
N269 C272 1.314 . S
N269 C273 1.279 . S
C270 C268 1.348 . S
C270 C272 1.353 . S
C270 H328 0.929 . S
C271 C268 1.356 . S
C271 C273 1.358 . S
C271 H329 0.930 . S
C272 N269 1.314 . S
C272 C270 1.353 . S
C272 H330 0.930 . S
C273 N269 1.279 . S
C273 C271 1.358 . S
C273 H331 0.930 . S
C274 C277 1.348 . S
C274 C278 1.356 . S
C274 O325 1.325 . S
C275 N276 1.279 . S
C275 C278 1.358 . S
C275 H332 0.930 . S
N276 C275 1.279 . S
N276 C279 1.314 . S
C277 C274 1.348 . S
C277 C279 1.353 . S
C277 H333 0.929 . S
C278 C274 1.356 . S
C278 C275 1.358 . S
C278 H334 0.930 . S
C279 N276 1.314 . S
C279 C277 1.353 . S
C279 H335 0.930 . S
C280 N281 1.314 . S
C280 C285 1.353 . S
C280 H286 0.930 . S
N281 Li264 1.990 . S
N281 C280 1.314 . S
N281 C283 1.279 . S
C282 C283 1.358 . S
C282 C284 1.356 . S
C282 H336 0.930 . S
C283 N281 1.279 . S
C283 C282 1.358 . S
C283 H287 0.930 . S
C284 C282 1.356 . S
C284 C285 1.348 . S
C285 C280 1.353 . S
C285 C284 1.348 . S
C285 H337 0.929 . S
H286 C280 0.930 . S
H287 C283 0.930 . S
C288 N289 1.314 . S
C288 C290 1.353 . S
C288 H294 0.930 . S
N289 Li265 1.990 . S
N289 C288 1.314 . S
N289 C292 1.279 . S
C290 C288 1.353 . S
C290 C293 1.348 . S
C290 H338 0.929 . S
C291 C292 1.358 . S
C291 C293 1.356 . S
C291 H339 0.930 . S
C292 N289 1.279 . S
C292 C291 1.358 . S
C292 H295 0.930 . S
C293 C290 1.348 . S
C293 C291 1.356 . S
H294 C288 0.930 . S
H295 C292 0.930 . S
C296 C298 1.348 . S
C296 C299 1.356 . S
C296 O326 1.325 . S
N297 C300 1.314 . S
N297 C301 1.279 . S
C298 C296 1.348 . S
C298 C300 1.353 . S
C298 H340 0.929 . S
C299 C296 1.356 . S
C299 C301 1.358 . S
C299 H341 0.930 . S
C300 N297 1.314 . S
C300 C298 1.353 . S
C300 H342 0.930 . S
C301 N297 1.279 . S
C301 C299 1.358 . S
C301 H343 0.930 . S
C302 C303 1.348 . S
C302 C304 1.356 . S
C302 O327 1.325 . S
C303 C302 1.348 . S
C303 C305 1.353 . S
C303 H344 0.929 . S
C304 C302 1.356 . S
C304 C306 1.358 . S
C304 H345 0.930 . S
C305 C303 1.353 . S
C305 N307 1.314 . S
C305 H346 0.930 . S
C306 C304 1.358 . S
C306 N307 1.279 . S
C306 H347 0.930 . S
N307 C305 1.314 . S
N307 C306 1.279 . S
C308 C310 1.353 . S
C308 N311 1.314 . S
C308 H314 0.930 . S
C309 N311 1.279 . S
C309 C312 1.358 . S
C309 H315 0.930 . S
C310 C308 1.353 . S
C310 C313 1.348 . S
C310 H348 0.929 . S
N311 Li266 1.990 . S
N311 C308 1.314 . S
N311 C309 1.279 . S
C312 C309 1.358 . S
C312 C313 1.356 . S
C312 H349 0.930 . S
C313 C310 1.348 . S
C313 C312 1.356 . S
H314 C308 0.930 . S
H315 C309 0.930 . S
C316 N317 1.314 . S
C316 C318 1.353 . S
C316 H322 0.930 . S
N317 Li267 1.990 . S
N317 C316 1.314 . S
N317 C320 1.279 . S
C318 C316 1.353 . S
C318 C321 1.348 . S
C318 H350 0.929 . S
C319 C320 1.358 . S
C319 C321 1.356 . S
C319 H351 0.930 . S
C320 N317 1.279 . S
C320 C319 1.358 . S
C320 H323 0.930 . S
C321 C318 1.348 . S
C321 C319 1.356 . S
H322 C316 0.930 . S
H323 C320 0.930 . S
O324 Li264 1.956 . S
O324 Li265 1.970 . S
O324 Li266 1.961 . S
O324 C268 1.325 . S
O325 Li264 1.970 . S
O325 Li265 1.956 . S
O325 Li267 1.961 . S
O325 C274 1.325 . S
O326 Li264 1.961 . S
O326 Li266 1.956 . S
O326 Li267 1.970 . S
O326 C296 1.325 . S
O327 Li265 1.961 . S
O327 Li266 1.970 . S
O327 Li267 1.956 . S
O327 C302 1.325 . S
H328 C270 0.929 . S
H329 C271 0.930 . S
H330 C272 0.930 . S
H331 C273 0.930 . S
H332 C275 0.930 . S
H333 C277 0.929 . S
H334 C278 0.930 . S
H335 C279 0.930 . S
H336 C282 0.930 . S
H337 C285 0.929 . S
H338 C290 0.929 . S
H339 C291 0.930 . S
H340 C298 0.929 . S
H341 C299 0.930 . S
H342 C300 0.930 . S
H343 C301 0.930 . S
H344 C303 0.929 . S
H345 C304 0.930 . S
H346 C305 0.930 . S
H347 C306 0.930 . S
H348 C310 0.929 . S
H349 C312 0.930 . S
H350 C318 0.929 . S
H351 C319 0.930 . S
Li352 N369 1.990 . S
Li352 O412 1.956 . S
Li352 O413 1.970 . S
Li352 O414 1.961 . S
Li353 N377 1.990 . S
Li353 O412 1.970 . S
Li353 O413 1.956 . S
Li353 O415 1.961 . S
Li354 N399 1.990 . S
Li354 O412 1.961 . S
Li354 O414 1.956 . S
Li354 O415 1.970 . S
Li355 N405 1.990 1_455 S
Li355 O413 1.961 . S
Li355 O414 1.970 . S
Li355 O415 1.956 . S
C356 C358 1.348 . S
C356 C359 1.356 . S
C356 O412 1.325 . S
N357 C360 1.314 . S
N357 C361 1.279 . S
C358 C356 1.348 . S
C358 C360 1.353 . S
C358 H416 0.929 . S
C359 C356 1.356 . S
C359 C361 1.358 . S
C359 H417 0.930 . S
C360 N357 1.314 . S
C360 C358 1.353 . S
C360 H418 0.930 . S
C361 N357 1.279 . S
C361 C359 1.358 . S
C361 H419 0.930 . S
C362 C365 1.348 . S
C362 C366 1.356 . S
C362 O413 1.325 . S
C363 N364 1.279 . S
C363 C366 1.358 . S
C363 H420 0.930 . S
N364 C363 1.279 . S
N364 C367 1.314 . S
C365 C362 1.348 . S
C365 C367 1.353 . S
C365 H421 0.929 . S
C366 C362 1.356 . S
C366 C363 1.358 . S
C366 H422 0.930 . S
C367 N364 1.314 . S
C367 C365 1.353 . S
C367 H423 0.930 . S
C368 N369 1.314 . S
C368 C373 1.353 . S
C368 H374 0.930 . S
N369 Li352 1.990 . S
N369 C368 1.314 . S
N369 C371 1.279 . S
C370 C371 1.358 . S
C370 C372 1.356 . S
C370 H424 0.930 . S
C371 N369 1.279 . S
C371 C370 1.358 . S
C371 H375 0.930 . S
C372 C370 1.356 . S
C372 C373 1.348 . S
C373 C368 1.353 . S
C373 C372 1.348 . S
C373 H425 0.929 . S
H374 C368 0.930 . S
H375 C371 0.930 . S
C376 N377 1.314 . S
C376 C378 1.353 . S
C376 H382 0.930 . S
N377 Li353 1.990 . S
N377 C376 1.314 . S
N377 C380 1.279 . S
C378 C376 1.353 . S
C378 C381 1.348 . S
C378 H426 0.929 . S
C379 C380 1.358 . S
C379 C381 1.356 . S
C379 H427 0.930 . S
C380 N377 1.279 . S
C380 C379 1.358 . S
C380 H383 0.930 . S
C381 C378 1.348 . S
C381 C379 1.356 . S
H382 C376 0.930 . S
H383 C380 0.930 . S
C384 C386 1.348 . S
C384 C387 1.356 . S
C384 O414 1.325 . S
N385 C388 1.314 . S
N385 C389 1.279 . S
C386 C384 1.348 . S
C386 C388 1.353 . S
C386 H428 0.929 . S
C387 C384 1.356 . S
C387 C389 1.358 . S
C387 H429 0.930 . S
C388 N385 1.314 . S
C388 C386 1.353 . S
C388 H430 0.930 . S
C389 N385 1.279 . S
C389 C387 1.358 . S
C389 H431 0.930 . S
C390 C391 1.348 . S
C390 C392 1.356 1_455 S
C390 O415 1.325 . S
C391 C390 1.348 . S
C391 C393 1.353 1_455 S
C391 H432 0.929 . S
C392 C390 1.356 1_655 S
C392 C394 1.358 . S
C392 H433 0.930 . S
C393 C391 1.353 1_655 S
C393 N395 1.314 . S
C393 H434 0.930 . S
C394 C392 1.358 . S
C394 N395 1.279 . S
C394 H435 0.930 . S
N395 C393 1.314 . S
N395 C394 1.279 . S
C396 C398 1.353 . S
C396 N399 1.314 . S
C396 H402 0.930 . S
C397 N399 1.279 . S
C397 C400 1.358 . S
C397 H403 0.930 . S
C398 C396 1.353 . S
C398 C401 1.348 . S
C398 H436 0.929 . S
N399 Li354 1.990 . S
N399 C396 1.314 . S
N399 C397 1.279 . S
C400 C397 1.358 . S
C400 C401 1.356 . S
C400 H437 0.930 . S
C401 C398 1.348 . S
C401 C400 1.356 . S
H402 C396 0.930 . S
H403 C397 0.930 . S
C404 N405 1.314 . S
C404 C406 1.353 . S
C404 H410 0.930 1_655 S
N405 Li355 1.990 1_655 S
N405 C404 1.314 . S
N405 C408 1.279 . S
C406 C404 1.353 . S
C406 C409 1.348 . S
C406 H438 0.929 . S
C407 C408 1.358 . S
C407 C409 1.356 . S
C407 H439 0.930 . S
C408 N405 1.279 . S
C408 C407 1.358 . S
C408 H411 0.930 . S
C409 C406 1.348 . S
C409 C407 1.356 . S
H410 C404 0.930 1_455 S
H411 C408 0.930 . S
O412 Li352 1.956 . S
O412 Li353 1.970 . S
O412 Li354 1.961 . S
O412 C356 1.325 . S
O413 Li352 1.970 . S
O413 Li353 1.956 . S
O413 Li355 1.961 . S
O413 C362 1.325 . S
O414 Li352 1.961 . S
O414 Li354 1.956 . S
O414 Li355 1.970 . S
O414 C384 1.325 . S
O415 Li353 1.961 . S
O415 Li354 1.970 . S
O415 Li355 1.956 . S
O415 C390 1.325 . S
H416 C358 0.929 . S
H417 C359 0.930 . S
H418 C360 0.930 . S
H419 C361 0.930 . S
H420 C363 0.930 . S
H421 C365 0.929 . S
H422 C366 0.930 . S
H423 C367 0.930 . S
H424 C370 0.930 . S
H425 C373 0.929 . S
H426 C378 0.929 . S
H427 C379 0.930 . S
H428 C386 0.929 . S
H429 C387 0.930 . S
H430 C388 0.930 . S
H431 C389 0.930 . S
H432 C391 0.929 . S
H433 C392 0.930 . S
H434 C393 0.930 . S
H435 C394 0.930 . S
H436 C398 0.929 . S
H437 C400 0.930 . S
H438 C406 0.929 . S
H439 C407 0.930 . S
Li440 N457 1.990 . S
Li440 O500 1.956 . S
Li440 O501 1.970 . S
Li440 O502 1.961 . S
Li441 N465 1.990 . S
Li441 O500 1.970 . S
Li441 O501 1.956 . S
Li441 O503 1.961 . S
Li442 N487 1.990 1_545 S
Li442 O500 1.961 . S
Li442 O502 1.956 . S
Li442 O503 1.970 . S
Li443 N493 1.990 . S
Li443 O501 1.961 . S
Li443 O502 1.970 . S
Li443 O503 1.956 . S
C444 C446 1.348 . S
C444 C447 1.356 . S
C444 O500 1.325 . S
N445 C448 1.314 . S
N445 C449 1.279 . S
C446 C444 1.348 . S
C446 C448 1.353 . S
C446 H504 0.929 . S
C447 C444 1.356 . S
C447 C449 1.358 . S
C447 H505 0.930 . S
C448 N445 1.314 . S
C448 C446 1.353 . S
C448 H506 0.930 . S
C449 N445 1.279 . S
C449 C447 1.358 . S
C449 H507 0.930 . S
C450 C453 1.348 . S
C450 C454 1.356 . S
C450 O501 1.325 . S
C451 N452 1.279 . S
C451 C454 1.358 . S
C451 H508 0.930 . S
N452 C451 1.279 . S
N452 C455 1.314 . S
C453 C450 1.348 . S
C453 C455 1.353 . S
C453 H509 0.929 . S
C454 C450 1.356 . S
C454 C451 1.358 . S
C454 H510 0.930 . S
C455 N452 1.314 . S
C455 C453 1.353 . S
C455 H511 0.930 . S
C456 N457 1.314 . S
C456 C461 1.353 . S
C456 H462 0.930 . S
N457 Li440 1.990 . S
N457 C456 1.314 . S
N457 C459 1.279 . S
C458 C459 1.358 . S
C458 C460 1.356 . S
C458 H512 0.930 . S
C459 N457 1.279 . S
C459 C458 1.358 . S
C459 H463 0.930 . S
C460 C458 1.356 . S
C460 C461 1.348 . S
C461 C456 1.353 . S
C461 C460 1.348 . S
C461 H513 0.929 . S
H462 C456 0.930 . S
H463 C459 0.930 . S
C464 N465 1.314 . S
C464 C466 1.353 . S
C464 H470 0.930 . S
N465 Li441 1.990 . S
N465 C464 1.314 . S
N465 C468 1.279 . S
C466 C464 1.353 . S
C466 C469 1.348 . S
C466 H514 0.929 . S
C467 C468 1.358 . S
C467 C469 1.356 . S
C467 H515 0.930 . S
C468 N465 1.279 . S
C468 C467 1.358 . S
C468 H471 0.930 . S
C469 C466 1.348 . S
C469 C467 1.356 . S
H470 C464 0.930 . S
H471 C468 0.930 . S
C472 C474 1.348 . S
C472 C475 1.356 1_545 S
C472 O502 1.325 . S
N473 C476 1.314 . S
N473 C477 1.279 . S
C474 C472 1.348 . S
C474 C476 1.353 1_545 S
C474 H516 0.929 . S
C475 C472 1.356 1_565 S
C475 C477 1.358 . S
C475 H517 0.930 . S
C476 N473 1.314 . S
C476 C474 1.353 1_565 S
C476 H518 0.930 . S
C477 N473 1.279 . S
C477 C475 1.358 . S
C477 H519 0.930 . S
C478 C479 1.348 . S
C478 C480 1.356 . S
C478 O503 1.325 . S
C479 C478 1.348 . S
C479 C481 1.353 . S
C479 H520 0.929 . S
C480 C478 1.356 . S
C480 C482 1.358 . S
C480 H521 0.930 . S
C481 C479 1.353 . S
C481 N483 1.314 . S
C481 H522 0.930 . S
C482 C480 1.358 . S
C482 N483 1.279 . S
C482 H523 0.930 . S
N483 C481 1.314 . S
N483 C482 1.279 . S
C484 C486 1.353 . S
C484 N487 1.314 . S
C484 H490 0.930 1_565 S
C485 N487 1.279 . S
C485 C488 1.358 . S
C485 H491 0.930 . S
C486 C484 1.353 . S
C486 C489 1.348 . S
C486 H524 0.929 . S
N487 Li442 1.990 1_565 S
N487 C484 1.314 . S
N487 C485 1.279 . S
C488 C485 1.358 . S
C488 C489 1.356 . S
C488 H525 0.930 . S
C489 C486 1.348 . S
C489 C488 1.356 . S
H490 C484 0.930 1_545 S
H491 C485 0.930 . S
C492 N493 1.314 . S
C492 C494 1.353 . S
C492 H498 0.930 . S
N493 Li443 1.990 . S
N493 C492 1.314 . S
N493 C496 1.279 . S
C494 C492 1.353 . S
C494 C497 1.348 . S
C494 H526 0.929 . S
C495 C496 1.358 . S
C495 C497 1.356 . S
C495 H527 0.930 . S
C496 N493 1.279 . S
C496 C495 1.358 . S
C496 H499 0.930 . S
C497 C494 1.348 . S
C497 C495 1.356 . S
H498 C492 0.930 . S
H499 C496 0.930 . S
O500 Li440 1.956 . S
O500 Li441 1.970 . S
O500 Li442 1.961 . S
O500 C444 1.325 . S
O501 Li440 1.970 . S
O501 Li441 1.956 . S
O501 Li443 1.961 . S
O501 C450 1.325 . S
O502 Li440 1.961 . S
O502 Li442 1.956 . S
O502 Li443 1.970 . S
O502 C472 1.325 . S
O503 Li441 1.961 . S
O503 Li442 1.970 . S
O503 Li443 1.956 . S
O503 C478 1.325 . S
H504 C446 0.929 . S
H505 C447 0.930 . S
H506 C448 0.930 . S
H507 C449 0.930 . S
H508 C451 0.930 . S
H509 C453 0.929 . S
H510 C454 0.930 . S
H511 C455 0.930 . S
H512 C458 0.930 . S
H513 C461 0.929 . S
H514 C466 0.929 . S
H515 C467 0.930 . S
H516 C474 0.929 . S
H517 C475 0.930 . S
H518 C476 0.930 . S
H519 C477 0.930 . S
H520 C479 0.929 . S
H521 C480 0.930 . S
H522 C481 0.930 . S
H523 C482 0.930 . S
H524 C486 0.929 . S
H525 C488 0.930 . S
H526 C494 0.929 . S
H527 C495 0.930 . S
Li528 N545 1.990 . S
Li528 O588 1.956 . S
Li528 O589 1.970 . S
Li528 O590 1.961 . S
Li529 N553 1.990 . S
Li529 O588 1.970 . S
Li529 O589 1.956 . S
Li529 O591 1.961 . S
Li530 N575 1.990 . S
Li530 O588 1.961 . S
Li530 O590 1.956 . S
Li530 O591 1.970 . S
Li531 N581 1.990 . S
Li531 O589 1.961 . S
Li531 O590 1.970 . S
Li531 O591 1.956 . S
C532 C534 1.348 . S
C532 C535 1.356 . S
C532 O588 1.325 . S
N533 C536 1.314 . S
N533 C537 1.279 . S
C534 C532 1.348 . S
C534 C536 1.353 . S
C534 H592 0.929 . S
C535 C532 1.356 . S
C535 C537 1.358 . S
C535 H593 0.930 . S
C536 N533 1.314 . S
C536 C534 1.353 . S
C536 H594 0.930 . S
C537 N533 1.279 . S
C537 C535 1.358 . S
C537 H595 0.930 . S
C538 C541 1.348 . S
C538 C542 1.356 . S
C538 O589 1.325 . S
C539 N540 1.279 . S
C539 C542 1.358 . S
C539 H596 0.930 . S
N540 C539 1.279 . S
N540 C543 1.314 . S
C541 C538 1.348 . S
C541 C543 1.353 . S
C541 H597 0.929 . S
C542 C538 1.356 . S
C542 C539 1.358 . S
C542 H598 0.930 . S
C543 N540 1.314 . S
C543 C541 1.353 . S
C543 H599 0.930 . S
C544 N545 1.314 . S
C544 C549 1.353 . S
C544 H550 0.930 . S
N545 Li528 1.990 . S
N545 C544 1.314 . S
N545 C547 1.279 . S
C546 C547 1.358 . S
C546 C548 1.356 . S
C546 H600 0.930 . S
C547 N545 1.279 . S
C547 C546 1.358 . S
C547 H551 0.930 . S
C548 C546 1.356 . S
C548 C549 1.348 . S
C549 C544 1.353 . S
C549 C548 1.348 . S
C549 H601 0.929 . S
H550 C544 0.930 . S
H551 C547 0.930 . S
C552 N553 1.314 . S
C552 C554 1.353 . S
C552 H558 0.930 . S
N553 Li529 1.990 . S
N553 C552 1.314 . S
N553 C556 1.279 . S
C554 C552 1.353 . S
C554 C557 1.348 . S
C554 H602 0.929 . S
C555 C556 1.358 . S
C555 C557 1.356 . S
C555 H603 0.930 . S
C556 N553 1.279 . S
C556 C555 1.358 . S
C556 H559 0.930 . S
C557 C554 1.348 . S
C557 C555 1.356 . S
H558 C552 0.930 . S
H559 C556 0.930 . S
C560 C562 1.348 . S
C560 C563 1.356 . S
C560 O590 1.325 . S
N561 C564 1.314 . S
N561 C565 1.279 . S
C562 C560 1.348 . S
C562 C564 1.353 . S
C562 H604 0.929 . S
C563 C560 1.356 . S
C563 C565 1.358 . S
C563 H605 0.930 . S
C564 N561 1.314 . S
C564 C562 1.353 . S
C564 H606 0.930 . S
C565 N561 1.279 . S
C565 C563 1.358 . S
C565 H607 0.930 . S
C566 C567 1.348 . S
C566 C568 1.356 . S
C566 O591 1.325 . S
C567 C566 1.348 . S
C567 C569 1.353 . S
C567 H608 0.929 . S
C568 C566 1.356 . S
C568 C570 1.358 . S
C568 H609 0.930 . S
C569 C567 1.353 . S
C569 N571 1.314 . S
C569 H610 0.930 . S
C570 C568 1.358 . S
C570 N571 1.279 . S
C570 H611 0.930 . S
N571 C569 1.314 . S
N571 C570 1.279 . S
C572 C574 1.353 . S
C572 N575 1.314 . S
C572 H578 0.930 . S
C573 N575 1.279 . S
C573 C576 1.358 . S
C573 H579 0.930 . S
C574 C572 1.353 . S
C574 C577 1.348 . S
C574 H612 0.929 . S
N575 Li530 1.990 . S
N575 C572 1.314 . S
N575 C573 1.279 . S
C576 C573 1.358 . S
C576 C577 1.356 . S
C576 H613 0.930 . S
C577 C574 1.348 . S
C577 C576 1.356 . S
H578 C572 0.930 . S
H579 C573 0.930 . S
C580 N581 1.314 . S
C580 C582 1.353 . S
C580 H586 0.930 . S
N581 Li531 1.990 . S
N581 C580 1.314 . S
N581 C584 1.279 . S
C582 C580 1.353 . S
C582 C585 1.348 . S
C582 H614 0.929 . S
C583 C584 1.358 . S
C583 C585 1.356 . S
C583 H615 0.930 . S
C584 N581 1.279 . S
C584 C583 1.358 . S
C584 H587 0.930 . S
C585 C582 1.348 . S
C585 C583 1.356 . S
H586 C580 0.930 . S
H587 C584 0.930 . S
O588 Li528 1.956 . S
O588 Li529 1.970 . S
O588 Li530 1.961 . S
O588 C532 1.325 . S
O589 Li528 1.970 . S
O589 Li529 1.956 . S
O589 Li531 1.961 . S
O589 C538 1.325 . S
O590 Li528 1.961 . S
O590 Li530 1.956 . S
O590 Li531 1.970 . S
O590 C560 1.325 . S
O591 Li529 1.961 . S
O591 Li530 1.970 . S
O591 Li531 1.956 . S
O591 C566 1.325 . S
H592 C534 0.929 . S
H593 C535 0.930 . S
H594 C536 0.930 . S
H595 C537 0.930 . S
H596 C539 0.930 . S
H597 C541 0.929 . S
H598 C542 0.930 . S
H599 C543 0.930 . S
H600 C546 0.930 . S
H601 C549 0.929 . S
H602 C554 0.929 . S
H603 C555 0.930 . S
H604 C562 0.929 . S
H605 C563 0.930 . S
H606 C564 0.930 . S
H607 C565 0.930 . S
H608 C567 0.929 . S
H609 C568 0.930 . S
H610 C569 0.930 . S
H611 C570 0.930 . S
H612 C574 0.929 . S
H613 C576 0.930 . S
H614 C582 0.929 . S
H615 C583 0.930 . S
Li616 N633 1.990 1_655 S
Li616 O676 1.956 . S
Li616 O677 1.970 . S
Li616 O678 1.961 . S
Li617 N641 1.990 . S
Li617 O676 1.970 . S
Li617 O677 1.956 . S
Li617 O679 1.961 . S
Li618 N663 1.990 . S
Li618 O676 1.961 . S
Li618 O678 1.956 . S
Li618 O679 1.970 . S
Li619 N669 1.990 . S
Li619 O677 1.961 . S
Li619 O678 1.970 . S
Li619 O679 1.956 . S
C620 C622 1.348 . S
C620 C623 1.356 1_655 S
C620 O676 1.325 . S
N621 C624 1.314 . S
N621 C625 1.279 . S
C622 C620 1.348 . S
C622 C624 1.353 1_655 S
C622 H680 0.929 . S
C623 C620 1.356 1_455 S
C623 C625 1.358 . S
C623 H681 0.930 . S
C624 N621 1.314 . S
C624 C622 1.353 1_455 S
C624 H682 0.930 . S
C625 N621 1.279 . S
C625 C623 1.358 . S
C625 H683 0.930 . S
C626 C629 1.348 . S
C626 C630 1.356 . S
C626 O677 1.325 . S
C627 N628 1.279 . S
C627 C630 1.358 . S
C627 H684 0.930 . S
N628 C627 1.279 . S
N628 C631 1.314 . S
C629 C626 1.348 . S
C629 C631 1.353 . S
C629 H685 0.929 . S
C630 C626 1.356 . S
C630 C627 1.358 . S
C630 H686 0.930 . S
C631 N628 1.314 . S
C631 C629 1.353 . S
C631 H687 0.930 . S
C632 N633 1.314 . S
C632 C637 1.353 . S
C632 H638 0.930 1_455 S
N633 Li616 1.990 1_455 S
N633 C632 1.314 . S
N633 C635 1.279 . S
C634 C635 1.358 . S
C634 C636 1.356 . S
C634 H688 0.930 . S
C635 N633 1.279 . S
C635 C634 1.358 . S
C635 H639 0.930 . S
C636 C634 1.356 . S
C636 C637 1.348 . S
C637 C632 1.353 . S
C637 C636 1.348 . S
C637 H689 0.929 . S
H638 C632 0.930 1_655 S
H639 C635 0.930 . S
C640 N641 1.314 . S
C640 C642 1.353 . S
C640 H646 0.930 . S
N641 Li617 1.990 . S
N641 C640 1.314 . S
N641 C644 1.279 . S
C642 C640 1.353 . S
C642 C645 1.348 . S
C642 H690 0.929 . S
C643 C644 1.358 . S
C643 C645 1.356 . S
C643 H691 0.930 . S
C644 N641 1.279 . S
C644 C643 1.358 . S
C644 H647 0.930 . S
C645 C642 1.348 . S
C645 C643 1.356 . S
H646 C640 0.930 . S
H647 C644 0.930 . S
C648 C650 1.348 . S
C648 C651 1.356 . S
C648 O678 1.325 . S
N649 C652 1.314 . S
N649 C653 1.279 . S
C650 C648 1.348 . S
C650 C652 1.353 . S
C650 H692 0.929 . S
C651 C648 1.356 . S
C651 C653 1.358 . S
C651 H693 0.930 . S
C652 N649 1.314 . S
C652 C650 1.353 . S
C652 H694 0.930 . S
C653 N649 1.279 . S
C653 C651 1.358 . S
C653 H695 0.930 . S
C654 C655 1.348 . S
C654 C656 1.356 . S
C654 O679 1.325 . S
C655 C654 1.348 . S
C655 C657 1.353 . S
C655 H696 0.929 . S
C656 C654 1.356 . S
C656 C658 1.358 . S
C656 H697 0.930 . S
C657 C655 1.353 . S
C657 N659 1.314 . S
C657 H698 0.930 . S
C658 C656 1.358 . S
C658 N659 1.279 . S
C658 H699 0.930 . S
N659 C657 1.314 . S
N659 C658 1.279 . S
C660 C662 1.353 . S
C660 N663 1.314 . S
C660 H666 0.930 . S
C661 N663 1.279 . S
C661 C664 1.358 . S
C661 H667 0.930 . S
C662 C660 1.353 . S
C662 C665 1.348 . S
C662 H700 0.929 . S
N663 Li618 1.990 . S
N663 C660 1.314 . S
N663 C661 1.279 . S
C664 C661 1.358 . S
C664 C665 1.356 . S
C664 H701 0.930 . S
C665 C662 1.348 . S
C665 C664 1.356 . S
H666 C660 0.930 . S
H667 C661 0.930 . S
C668 N669 1.314 . S
C668 C670 1.353 . S
C668 H674 0.930 . S
N669 Li619 1.990 . S
N669 C668 1.314 . S
N669 C672 1.279 . S
C670 C668 1.353 . S
C670 C673 1.348 . S
C670 H702 0.929 . S
C671 C672 1.358 . S
C671 C673 1.356 . S
C671 H703 0.930 . S
C672 N669 1.279 . S
C672 C671 1.358 . S
C672 H675 0.930 . S
C673 C670 1.348 . S
C673 C671 1.356 . S
H674 C668 0.930 . S
H675 C672 0.930 . S
O676 Li616 1.956 . S
O676 Li617 1.970 . S
O676 Li618 1.961 . S
O676 C620 1.325 . S
O677 Li616 1.970 . S
O677 Li617 1.956 . S
O677 Li619 1.961 . S
O677 C626 1.325 . S
O678 Li616 1.961 . S
O678 Li618 1.956 . S
O678 Li619 1.970 . S
O678 C648 1.325 . S
O679 Li617 1.961 . S
O679 Li618 1.970 . S
O679 Li619 1.956 . S
O679 C654 1.325 . S
H680 C622 0.929 . S
H681 C623 0.930 . S
H682 C624 0.930 . S
H683 C625 0.930 . S
H684 C627 0.930 . S
H685 C629 0.929 . S
H686 C630 0.930 . S
H687 C631 0.930 . S
H688 C634 0.930 . S
H689 C637 0.929 . S
H690 C642 0.929 . S
H691 C643 0.930 . S
H692 C650 0.929 . S
H693 C651 0.930 . S
H694 C652 0.930 . S
H695 C653 0.930 . S
H696 C655 0.929 . S
H697 C656 0.930 . S
H698 C657 0.930 . S
H699 C658 0.930 . S
H700 C662 0.929 . S
H701 C664 0.930 . S
H702 C670 0.929 . S
H703 C671 0.930 . S
Li704 N721 1.990 1_565 S
Li704 O764 1.956 . S
Li704 O765 1.970 . S
Li704 O766 1.961 . S
Li705 N729 1.990 . S
Li705 O764 1.970 . S
Li705 O765 1.956 . S
Li705 O767 1.961 . S
Li706 N751 1.990 . S
Li706 O764 1.961 . S
Li706 O766 1.956 . S
Li706 O767 1.970 . S
Li707 N757 1.990 . S
Li707 O765 1.961 . S
Li707 O766 1.970 . S
Li707 O767 1.956 . S
C708 C710 1.348 . S
C708 C711 1.356 1_565 S
C708 O764 1.325 . S
N709 C712 1.314 . S
N709 C713 1.279 . S
C710 C708 1.348 . S
C710 C712 1.353 1_565 S
C710 H768 0.929 . S
C711 C708 1.356 1_545 S
C711 C713 1.358 . S
C711 H769 0.930 . S
C712 N709 1.314 . S
C712 C710 1.353 1_545 S
C712 H770 0.930 . S
C713 N709 1.279 . S
C713 C711 1.358 . S
C713 H771 0.930 . S
C714 C717 1.348 . S
C714 C718 1.356 . S
C714 O765 1.325 . S
C715 N716 1.279 . S
C715 C718 1.358 . S
C715 H772 0.930 . S
N716 C715 1.279 . S
N716 C719 1.314 . S
C717 C714 1.348 . S
C717 C719 1.353 . S
C717 H773 0.929 . S
C718 C714 1.356 . S
C718 C715 1.358 . S
C718 H774 0.930 . S
C719 N716 1.314 . S
C719 C717 1.353 . S
C719 H775 0.930 . S
C720 N721 1.314 . S
C720 C725 1.353 . S
C720 H726 0.930 1_545 S
N721 Li704 1.990 1_545 S
N721 C720 1.314 . S
N721 C723 1.279 . S
C722 C723 1.358 . S
C722 C724 1.356 . S
C722 H776 0.930 . S
C723 N721 1.279 . S
C723 C722 1.358 . S
C723 H727 0.930 . S
C724 C722 1.356 . S
C724 C725 1.348 . S
C725 C720 1.353 . S
C725 C724 1.348 . S
C725 H777 0.929 . S
H726 C720 0.930 1_565 S
H727 C723 0.930 . S
C728 N729 1.314 . S
C728 C730 1.353 . S
C728 H734 0.930 . S
N729 Li705 1.990 . S
N729 C728 1.314 . S
N729 C732 1.279 . S
C730 C728 1.353 . S
C730 C733 1.348 . S
C730 H778 0.929 . S
C731 C732 1.358 . S
C731 C733 1.356 . S
C731 H779 0.930 . S
C732 N729 1.279 . S
C732 C731 1.358 . S
C732 H735 0.930 . S
C733 C730 1.348 . S
C733 C731 1.356 . S
H734 C728 0.930 . S
H735 C732 0.930 . S
C736 C738 1.348 . S
C736 C739 1.356 . S
C736 O766 1.325 . S
N737 C740 1.314 . S
N737 C741 1.279 . S
C738 C736 1.348 . S
C738 C740 1.353 . S
C738 H780 0.929 . S
C739 C736 1.356 . S
C739 C741 1.358 . S
C739 H781 0.930 . S
C740 N737 1.314 . S
C740 C738 1.353 . S
C740 H782 0.930 . S
C741 N737 1.279 . S
C741 C739 1.358 . S
C741 H783 0.930 . S
C742 C743 1.348 . S
C742 C744 1.356 . S
C742 O767 1.325 . S
C743 C742 1.348 . S
C743 C745 1.353 . S
C743 H784 0.929 . S
C744 C742 1.356 . S
C744 C746 1.358 . S
C744 H785 0.930 . S
C745 C743 1.353 . S
C745 N747 1.314 . S
C745 H786 0.930 . S
C746 C744 1.358 . S
C746 N747 1.279 . S
C746 H787 0.930 . S
N747 C745 1.314 . S
N747 C746 1.279 . S
C748 C750 1.353 . S
C748 N751 1.314 . S
C748 H754 0.930 . S
C749 N751 1.279 . S
C749 C752 1.358 . S
C749 H755 0.930 . S
C750 C748 1.353 . S
C750 C753 1.348 . S
C750 H788 0.929 . S
N751 Li706 1.990 . S
N751 C748 1.314 . S
N751 C749 1.279 . S
C752 C749 1.358 . S
C752 C753 1.356 . S
C752 H789 0.930 . S
C753 C750 1.348 . S
C753 C752 1.356 . S
H754 C748 0.930 . S
H755 C749 0.930 . S
C756 N757 1.314 . S
C756 C758 1.353 . S
C756 H762 0.930 . S
N757 Li707 1.990 . S
N757 C756 1.314 . S
N757 C760 1.279 . S
C758 C756 1.353 . S
C758 C761 1.348 . S
C758 H790 0.929 . S
C759 C760 1.358 . S
C759 C761 1.356 . S
C759 H791 0.930 . S
C760 N757 1.279 . S
C760 C759 1.358 . S
C760 H763 0.930 . S
C761 C758 1.348 . S
C761 C759 1.356 . S
H762 C756 0.930 . S
H763 C760 0.930 . S
O764 Li704 1.956 . S
O764 Li705 1.970 . S
O764 Li706 1.961 . S
O764 C708 1.325 . S
O765 Li704 1.970 . S
O765 Li705 1.956 . S
O765 Li707 1.961 . S
O765 C714 1.325 . S
O766 Li704 1.961 . S
O766 Li706 1.956 . S
O766 Li707 1.970 . S
O766 C736 1.325 . S
O767 Li705 1.961 . S
O767 Li706 1.970 . S
O767 Li707 1.956 . S
O767 C742 1.325 . S
H768 C710 0.929 . S
H769 C711 0.930 . S
H770 C712 0.930 . S
H771 C713 0.930 . S
H772 C715 0.930 . S
H773 C717 0.929 . S
H774 C718 0.930 . S
H775 C719 0.930 . S
H776 C722 0.930 . S
H777 C725 0.929 . S
H778 C730 0.929 . S
H779 C731 0.930 . S
H780 C738 0.929 . S
H781 C739 0.930 . S
H782 C740 0.930 . S
H783 C741 0.930 . S
H784 C743 0.929 . S
H785 C744 0.930 . S
H786 C745 0.930 . S
H787 C746 0.930 . S
H788 C750 0.929 . S
H789 C752 0.930 . S
H790 C758 0.929 . S
H791 C759 0.930 . S
Li792 N809 1.990 . S
Li792 O852 1.956 . S
Li792 O853 1.970 . S
Li792 O854 1.961 . S
Li793 N817 1.990 . S
Li793 O852 1.970 . S
Li793 O853 1.956 . S
Li793 O855 1.961 . S
Li794 N839 1.990 . S
Li794 O852 1.961 . S
Li794 O854 1.956 . S
Li794 O855 1.970 . S
Li795 N845 1.990 . S
Li795 O853 1.961 . S
Li795 O854 1.970 . S
Li795 O855 1.956 . S
C796 C798 1.348 . S
C796 C799 1.356 . S
C796 O852 1.325 . S
N797 C800 1.314 . S
N797 C801 1.279 . S
C798 C796 1.348 . S
C798 C800 1.353 . S
C798 H856 0.929 . S
C799 C796 1.356 . S
C799 C801 1.358 . S
C799 H857 0.930 . S
C800 N797 1.314 . S
C800 C798 1.353 . S
C800 H858 0.930 . S
C801 N797 1.279 . S
C801 C799 1.358 . S
C801 H859 0.930 . S
C802 C805 1.348 . S
C802 C806 1.356 . S
C802 O853 1.325 . S
C803 N804 1.279 . S
C803 C806 1.358 . S
C803 H860 0.930 . S
N804 C803 1.279 . S
N804 C807 1.314 . S
C805 C802 1.348 . S
C805 C807 1.353 . S
C805 H861 0.929 . S
C806 C802 1.356 . S
C806 C803 1.358 . S
C806 H862 0.930 . S
C807 N804 1.314 . S
C807 C805 1.353 . S
C807 H863 0.930 . S
C808 N809 1.314 . S
C808 C813 1.353 . S
C808 H814 0.930 . S
N809 Li792 1.990 . S
N809 C808 1.314 . S
N809 C811 1.279 . S
C810 C811 1.358 . S
C810 C812 1.356 . S
C810 H864 0.930 . S
C811 N809 1.279 . S
C811 C810 1.358 . S
C811 H815 0.930 . S
C812 C810 1.356 . S
C812 C813 1.348 . S
C813 C808 1.353 . S
C813 C812 1.348 . S
C813 H865 0.929 . S
H814 C808 0.930 . S
H815 C811 0.930 . S
C816 N817 1.314 . S
C816 C818 1.353 . S
C816 H822 0.930 . S
N817 Li793 1.990 . S
N817 C816 1.314 . S
N817 C820 1.279 . S
C818 C816 1.353 . S
C818 C821 1.348 . S
C818 H866 0.929 . S
C819 C820 1.358 . S
C819 C821 1.356 . S
C819 H867 0.930 . S
C820 N817 1.279 . S
C820 C819 1.358 . S
C820 H823 0.930 . S
C821 C818 1.348 . S
C821 C819 1.356 . S
H822 C816 0.930 . S
H823 C820 0.930 . S
C824 C826 1.348 . S
C824 C827 1.356 . S
C824 O854 1.325 . S
N825 C828 1.314 . S
N825 C829 1.279 . S
C826 C824 1.348 . S
C826 C828 1.353 . S
C826 H868 0.929 . S
C827 C824 1.356 . S
C827 C829 1.358 . S
C827 H869 0.930 . S
C828 N825 1.314 . S
C828 C826 1.353 . S
C828 H870 0.930 . S
C829 N825 1.279 . S
C829 C827 1.358 . S
C829 H871 0.930 . S
C830 C831 1.348 . S
C830 C832 1.356 . S
C830 O855 1.325 . S
C831 C830 1.348 . S
C831 C833 1.353 . S
C831 H872 0.929 . S
C832 C830 1.356 . S
C832 C834 1.358 . S
C832 H873 0.930 . S
C833 C831 1.353 . S
C833 N835 1.314 . S
C833 H874 0.930 . S
C834 C832 1.358 . S
C834 N835 1.279 . S
C834 H875 0.930 . S
N835 C833 1.314 . S
N835 C834 1.279 . S
C836 C838 1.353 . S
C836 N839 1.314 . S
C836 H842 0.930 . S
C837 N839 1.279 . S
C837 C840 1.358 . S
C837 H843 0.930 . S
C838 C836 1.353 . S
C838 C841 1.348 . S
C838 H876 0.929 . S
N839 Li794 1.990 . S
N839 C836 1.314 . S
N839 C837 1.279 . S
C840 C837 1.358 . S
C840 C841 1.356 . S
C840 H877 0.930 . S
C841 C838 1.348 . S
C841 C840 1.356 . S
H842 C836 0.930 . S
H843 C837 0.930 . S
C844 N845 1.314 . S
C844 C846 1.353 . S
C844 H850 0.930 . S
N845 Li795 1.990 . S
N845 C844 1.314 . S
N845 C848 1.279 . S
C846 C844 1.353 . S
C846 C849 1.348 . S
C846 H878 0.929 . S
C847 C848 1.358 . S
C847 C849 1.356 . S
C847 H879 0.930 . S
C848 N845 1.279 . S
C848 C847 1.358 . S
C848 H851 0.930 . S
C849 C846 1.348 . S
C849 C847 1.356 . S
H850 C844 0.930 . S
H851 C848 0.930 . S
O852 Li792 1.956 . S
O852 Li793 1.970 . S
O852 Li794 1.961 . S
O852 C796 1.325 . S
O853 Li792 1.970 . S
O853 Li793 1.956 . S
O853 Li795 1.961 . S
O853 C802 1.325 . S
O854 Li792 1.961 . S
O854 Li794 1.956 . S
O854 Li795 1.970 . S
O854 C824 1.325 . S
O855 Li793 1.961 . S
O855 Li794 1.970 . S
O855 Li795 1.956 . S
O855 C830 1.325 . S
H856 C798 0.929 . S
H857 C799 0.930 . S
H858 C800 0.930 . S
H859 C801 0.930 . S
H860 C803 0.930 . S
H861 C805 0.929 . S
H862 C806 0.930 . S
H863 C807 0.930 . S
H864 C810 0.930 . S
H865 C813 0.929 . S
H866 C818 0.929 . S
H867 C819 0.930 . S
H868 C826 0.929 . S
H869 C827 0.930 . S
H870 C828 0.930 . S
H871 C829 0.930 . S
H872 C831 0.929 . S
H873 C832 0.930 . S
H874 C833 0.930 . S
H875 C834 0.930 . S
H876 C838 0.929 . S
H877 C840 0.930 . S
H878 C846 0.929 . S
H879 C847 0.930 . S
Li880 N897 1.990 1_455 S
Li880 O940 1.956 . S
Li880 O941 1.970 . S
Li880 O942 1.961 . S
Li881 N905 1.990 . S
Li881 O940 1.970 . S
Li881 O941 1.956 . S
Li881 O943 1.961 . S
Li882 N927 1.990 . S
Li882 O940 1.961 . S
Li882 O942 1.956 . S
Li882 O943 1.970 . S
Li883 N933 1.990 . S
Li883 O941 1.961 . S
Li883 O942 1.970 . S
Li883 O943 1.956 . S
C884 C886 1.348 . S
C884 C887 1.356 1_455 S
C884 O940 1.325 . S
N885 C888 1.314 . S
N885 C889 1.279 . S
C886 C884 1.348 . S
C886 C888 1.353 1_455 S
C886 H944 0.929 . S
C887 C884 1.356 1_655 S
C887 C889 1.358 . S
C887 H945 0.930 . S
C888 N885 1.314 . S
C888 C886 1.353 1_655 S
C888 H946 0.930 . S
C889 N885 1.279 . S
C889 C887 1.358 . S
C889 H947 0.930 . S
C890 C893 1.348 . S
C890 C894 1.356 . S
C890 O941 1.325 . S
C891 N892 1.279 . S
C891 C894 1.358 . S
C891 H948 0.930 . S
N892 C891 1.279 . S
N892 C895 1.314 . S
C893 C890 1.348 . S
C893 C895 1.353 . S
C893 H949 0.929 . S
C894 C890 1.356 . S
C894 C891 1.358 . S
C894 H950 0.930 . S
C895 N892 1.314 . S
C895 C893 1.353 . S
C895 H951 0.930 . S
C896 N897 1.314 . S
C896 C901 1.353 . S
C896 H902 0.930 1_655 S
N897 Li880 1.990 1_655 S
N897 C896 1.314 . S
N897 C899 1.279 . S
C898 C899 1.358 . S
C898 C900 1.356 . S
C898 H952 0.930 . S
C899 N897 1.279 . S
C899 C898 1.358 . S
C899 H903 0.930 . S
C900 C898 1.356 . S
C900 C901 1.348 . S
C901 C896 1.353 . S
C901 C900 1.348 . S
C901 H953 0.929 . S
H902 C896 0.930 1_455 S
H903 C899 0.930 . S
C904 N905 1.314 . S
C904 C906 1.353 . S
C904 H910 0.930 . S
N905 Li881 1.990 . S
N905 C904 1.314 . S
N905 C908 1.279 . S
C906 C904 1.353 . S
C906 C909 1.348 . S
C906 H954 0.929 . S
C907 C908 1.358 . S
C907 C909 1.356 . S
C907 H955 0.930 . S
C908 N905 1.279 . S
C908 C907 1.358 . S
C908 H911 0.930 . S
C909 C906 1.348 . S
C909 C907 1.356 . S
H910 C904 0.930 . S
H911 C908 0.930 . S
C912 C914 1.348 . S
C912 C915 1.356 . S
C912 O942 1.325 . S
N913 C916 1.314 . S
N913 C917 1.279 . S
C914 C912 1.348 . S
C914 C916 1.353 . S
C914 H956 0.929 . S
C915 C912 1.356 . S
C915 C917 1.358 . S
C915 H957 0.930 . S
C916 N913 1.314 . S
C916 C914 1.353 . S
C916 H958 0.930 . S
C917 N913 1.279 . S
C917 C915 1.358 . S
C917 H959 0.930 . S
C918 C919 1.348 . S
C918 C920 1.356 . S
C918 O943 1.325 . S
C919 C918 1.348 . S
C919 C921 1.353 . S
C919 H960 0.929 . S
C920 C918 1.356 . S
C920 C922 1.358 . S
C920 H961 0.930 . S
C921 C919 1.353 . S
C921 N923 1.314 . S
C921 H962 0.930 . S
C922 C920 1.358 . S
C922 N923 1.279 . S
C922 H963 0.930 . S
N923 C921 1.314 . S
N923 C922 1.279 . S
C924 C926 1.353 . S
C924 N927 1.314 . S
C924 H930 0.930 . S
C925 N927 1.279 . S
C925 C928 1.358 . S
C925 H931 0.930 . S
C926 C924 1.353 . S
C926 C929 1.348 . S
C926 H964 0.929 . S
N927 Li882 1.990 . S
N927 C924 1.314 . S
N927 C925 1.279 . S
C928 C925 1.358 . S
C928 C929 1.356 . S
C928 H965 0.930 . S
C929 C926 1.348 . S
C929 C928 1.356 . S
H930 C924 0.930 . S
H931 C925 0.930 . S
C932 N933 1.314 . S
C932 C934 1.353 . S
C932 H938 0.930 . S
N933 Li883 1.990 . S
N933 C932 1.314 . S
N933 C936 1.279 . S
C934 C932 1.353 . S
C934 C937 1.348 . S
C934 H966 0.929 . S
C935 C936 1.358 . S
C935 C937 1.356 . S
C935 H967 0.930 . S
C936 N933 1.279 . S
C936 C935 1.358 . S
C936 H939 0.930 . S
C937 C934 1.348 . S
C937 C935 1.356 . S
H938 C932 0.930 . S
H939 C936 0.930 . S
O940 Li880 1.956 . S
O940 Li881 1.970 . S
O940 Li882 1.961 . S
O940 C884 1.325 . S
O941 Li880 1.970 . S
O941 Li881 1.956 . S
O941 Li883 1.961 . S
O941 C890 1.325 . S
O942 Li880 1.961 . S
O942 Li882 1.956 . S
O942 Li883 1.970 . S
O942 C912 1.325 . S
O943 Li881 1.961 . S
O943 Li882 1.970 . S
O943 Li883 1.956 . S
O943 C918 1.325 . S
H944 C886 0.929 . S
H945 C887 0.930 . S
H946 C888 0.930 . S
H947 C889 0.930 . S
H948 C891 0.930 . S
H949 C893 0.929 . S
H950 C894 0.930 . S
H951 C895 0.930 . S
H952 C898 0.930 . S
H953 C901 0.929 . S
H954 C906 0.929 . S
H955 C907 0.930 . S
H956 C914 0.929 . S
H957 C915 0.930 . S
H958 C916 0.930 . S
H959 C917 0.930 . S
H960 C919 0.929 . S
H961 C920 0.930 . S
H962 C921 0.930 . S
H963 C922 0.930 . S
H964 C926 0.929 . S
H965 C928 0.930 . S
H966 C934 0.929 . S
H967 C935 0.930 . S
Li968 N985 1.990 . S
Li968 O1028 1.956 . S
Li968 O1029 1.970 . S
Li968 O1030 1.961 . S
Li969 N993 1.990 1_545 S
Li969 O1028 1.970 . S
Li969 O1029 1.956 . S
Li969 O1031 1.961 . S
Li970 N1015 1.990 . S
Li970 O1028 1.961 . S
Li970 O1030 1.956 . S
Li970 O1031 1.970 . S
Li971 N1021 1.990 . S
Li971 O1029 1.961 . S
Li971 O1030 1.970 . S
Li971 O1031 1.956 . S
C972 C974 1.348 . S
C972 C975 1.356 . S
C972 O1028 1.325 . S
N973 C976 1.314 . S
N973 C977 1.279 . S
C974 C972 1.348 . S
C974 C976 1.353 . S
C974 H1032 0.929 . S
C975 C972 1.356 . S
C975 C977 1.358 . S
C975 H1033 0.930 . S
C976 N973 1.314 . S
C976 C974 1.353 . S
C976 H1034 0.930 . S
C977 N973 1.279 . S
C977 C975 1.358 . S
C977 H1035 0.930 . S
C978 C981 1.348 . S
C978 C982 1.356 1_545 S
C978 O1029 1.325 . S
C979 N980 1.279 . S
C979 C982 1.358 . S
C979 H1036 0.930 . S
N980 C979 1.279 . S
N980 C983 1.314 . S
C981 C978 1.348 . S
C981 C983 1.353 1_545 S
C981 H1037 0.929 . S
C982 C978 1.356 1_565 S
C982 C979 1.358 . S
C982 H1038 0.930 . S
C983 N980 1.314 . S
C983 C981 1.353 1_565 S
C983 H1039 0.930 . S
C984 N985 1.314 . S
C984 C989 1.353 . S
C984 H990 0.930 . S
N985 Li968 1.990 . S
N985 C984 1.314 . S
N985 C987 1.279 . S
C986 C987 1.358 . S
C986 C988 1.356 . S
C986 H1040 0.930 . S
C987 N985 1.279 . S
C987 C986 1.358 . S
C987 H991 0.930 . S
C988 C986 1.356 . S
C988 C989 1.348 . S
C989 C984 1.353 . S
C989 C988 1.348 . S
C989 H1041 0.929 . S
H990 C984 0.930 . S
H991 C987 0.930 . S
C992 N993 1.314 . S
C992 C994 1.353 . S
C992 H998 0.930 1_565 S
N993 Li969 1.990 1_565 S
N993 C992 1.314 . S
N993 C996 1.279 . S
C994 C992 1.353 . S
C994 C997 1.348 . S
C994 H1042 0.929 . S
C995 C996 1.358 . S
C995 C997 1.356 . S
C995 H1043 0.930 . S
C996 N993 1.279 . S
C996 C995 1.358 . S
C996 H999 0.930 . S
C997 C994 1.348 . S
C997 C995 1.356 . S
H998 C992 0.930 1_545 S
H999 C996 0.930 . S
C1000 C1002 1.348 . S
C1000 C1003 1.356 . S
C1000 O1030 1.325 . S
N1001 C1004 1.314 . S
N1001 C1005 1.279 . S
C1002 C1000 1.348 . S
C1002 C1004 1.353 . S
C1002 H1044 0.929 . S
C1003 C1000 1.356 . S
C1003 C1005 1.358 . S
C1003 H1045 0.930 . S
C1004 N1001 1.314 . S
C1004 C1002 1.353 . S
C1004 H1046 0.930 . S
C1005 N1001 1.279 . S
C1005 C1003 1.358 . S
C1005 H1047 0.930 . S
C1006 C1007 1.348 . S
C1006 C1008 1.356 . S
C1006 O1031 1.325 . S
C1007 C1006 1.348 . S
C1007 C1009 1.353 . S
C1007 H1048 0.929 . S
C1008 C1006 1.356 . S
C1008 C1010 1.358 . S
C1008 H1049 0.930 . S
C1009 C1007 1.353 . S
C1009 N1011 1.314 . S
C1009 H1050 0.930 . S
C1010 C1008 1.358 . S
C1010 N1011 1.279 . S
C1010 H1051 0.930 . S
N1011 C1009 1.314 . S
N1011 C1010 1.279 . S
C1012 C1014 1.353 . S
C1012 N1015 1.314 . S
C1012 H1018 0.930 . S
C1013 N1015 1.279 . S
C1013 C1016 1.358 . S
C1013 H1019 0.930 . S
C1014 C1012 1.353 . S
C1014 C1017 1.348 . S
C1014 H1052 0.929 . S
N1015 Li970 1.990 . S
N1015 C1012 1.314 . S
N1015 C1013 1.279 . S
C1016 C1013 1.358 . S
C1016 C1017 1.356 . S
C1016 H1053 0.930 . S
C1017 C1014 1.348 . S
C1017 C1016 1.356 . S
H1018 C1012 0.930 . S
H1019 C1013 0.930 . S
C1020 N1021 1.314 . S
C1020 C1022 1.353 . S
C1020 H1026 0.930 . S
N1021 Li971 1.990 . S
N1021 C1020 1.314 . S
N1021 C1024 1.279 . S
C1022 C1020 1.353 . S
C1022 C1025 1.348 . S
C1022 H1054 0.929 . S
C1023 C1024 1.358 . S
C1023 C1025 1.356 . S
C1023 H1055 0.930 . S
C1024 N1021 1.279 . S
C1024 C1023 1.358 . S
C1024 H1027 0.930 . S
C1025 C1022 1.348 . S
C1025 C1023 1.356 . S
H1026 C1020 0.930 . S
H1027 C1024 0.930 . S
O1028 Li968 1.956 . S
O1028 Li969 1.970 . S
O1028 Li970 1.961 . S
O1028 C972 1.325 . S
O1029 Li968 1.970 . S
O1029 Li969 1.956 . S
O1029 Li971 1.961 . S
O1029 C978 1.325 . S
O1030 Li968 1.961 . S
O1030 Li970 1.956 . S
O1030 Li971 1.970 . S
O1030 C1000 1.325 . S
O1031 Li969 1.961 . S
O1031 Li970 1.970 . S
O1031 Li971 1.956 . S
O1031 C1006 1.325 . S
H1032 C974 0.929 . S
H1033 C975 0.930 . S
H1034 C976 0.930 . S
H1035 C977 0.930 . S
H1036 C979 0.930 . S
H1037 C981 0.929 . S
H1038 C982 0.930 . S
H1039 C983 0.930 . S
H1040 C986 0.930 . S
H1041 C989 0.929 . S
H1042 C994 0.929 . S
H1043 C995 0.930 . S
H1044 C1002 0.929 . S
H1045 C1003 0.930 . S
H1046 C1004 0.930 . S
H1047 C1005 0.930 . S
H1048 C1007 0.929 . S
H1049 C1008 0.930 . S
H1050 C1009 0.930 . S
H1051 C1010 0.930 . S
H1052 C1014 0.929 . S
H1053 C1016 0.930 . S
H1054 C1022 0.929 . S
H1055 C1023 0.930 . S
H1056 C1074 0.951 . S
H1057 C1076 0.951 . S
H1058 C1078 0.950 . S
H1059 C1079 0.950 . S
H1060 C1081 0.950 . S
H1061 C1084 0.950 . S
H1062 C1085 0.950 . S
H1063 C1087 0.950 . S
H1064 C1088 0.950 . S
H1065 C1089 0.951 . S
H1066 C1091 0.951 . S
H1067 C1093 0.950 . S
H1068 C1094 0.950 . S
H1069 C1096 0.950 . S
H1070 C1099 0.950 . S
H1071 C1100 0.950 . S
H1072 C1102 0.950 . S
H1073 C1103 0.950 . S
C1074 H1056 0.951 . S
C1074 C1075 1.366 . S
C1074 C1076 1.388 . S
C1075 C1074 1.366 . S
C1075 C1079 1.385 . S
C1076 H1057 0.951 . S
C1076 C1074 1.388 . S
C1076 C1077 1.366 . S
C1077 C1076 1.366 . S
C1077 C1078 1.414 . S
C1077 C1080 1.499 . S
C1078 H1058 0.950 . S
C1078 C1077 1.414 . S
C1078 C1079 1.374 . S
C1079 H1059 0.950 . S
C1079 C1075 1.385 . S
C1079 C1078 1.374 . S
C1080 C1077 1.499 . S
C1080 C1081 1.373 . S
C1080 C1082 1.389 . S
C1081 H1060 0.950 . S
C1081 C1080 1.373 . S
C1081 C1097 1.377 1_655 S
C1082 C1080 1.389 . S
C1082 C1083 1.524 . S
C1082 C1096 1.377 1_655 S
C1083 C1082 1.524 . S
C1083 C1084 1.397 . S
C1083 C1088 1.363 . S
C1084 H1061 0.950 . S
C1084 C1083 1.397 . S
C1084 C1085 1.334 . S
C1085 H1062 0.950 . S
C1085 C1084 1.334 . S
C1085 C1086 1.287 . S
C1086 C1085 1.287 . S
C1086 C1087 1.524 . S
C1086 H1105 0.913 . S
C1087 H1063 0.950 . S
C1087 C1086 1.524 . S
C1087 C1088 1.415 . S
C1088 H1064 0.950 . S
C1088 C1083 1.363 . S
C1088 C1087 1.415 . S
C1089 H1065 0.951 . S
C1089 C1090 1.366 . S
C1089 C1091 1.388 . S
C1090 C1089 1.366 . S
C1090 C1094 1.385 . S
C1091 H1066 0.951 . S
C1091 C1089 1.388 . S
C1091 C1092 1.366 . S
C1092 C1091 1.366 . S
C1092 C1093 1.414 . S
C1092 C1095 1.499 . S
C1093 H1067 0.950 . S
C1093 C1092 1.414 . S
C1093 C1094 1.374 . S
C1094 H1068 0.950 . S
C1094 C1090 1.385 . S
C1094 C1093 1.374 . S
C1095 C1092 1.499 . S
C1095 C1096 1.373 . S
C1095 C1097 1.389 . S
C1096 H1069 0.950 . S
C1096 C1082 1.377 1_455 S
C1096 C1095 1.373 . S
C1097 C1081 1.377 1_455 S
C1097 C1095 1.389 . S
C1097 C1098 1.524 . S
C1098 C1097 1.524 . S
C1098 C1099 1.397 . S
C1098 C1103 1.363 . S
C1099 H1070 0.950 . S
C1099 C1098 1.397 . S
C1099 C1100 1.334 . S
C1100 H1071 0.950 . S
C1100 C1099 1.334 . S
C1100 C1101 1.287 . S
C1101 C1100 1.287 . S
C1101 C1102 1.524 . S
C1101 H1104 0.999 . S
C1102 H1072 0.950 . S
C1102 C1101 1.524 . S
C1102 C1103 1.415 . S
C1103 H1073 0.950 . S
C1103 C1098 1.363 . S
C1103 C1102 1.415 . S
H1104 C1101 0.999 . S
H1105 C1086 0.913 . S
H1106 C1124 0.951 . S
H1107 C1126 0.951 . S
H1108 C1128 0.950 . S
H1109 C1129 0.950 . S
H1110 C1131 0.950 . S
H1111 C1134 0.950 . S
H1112 C1135 0.950 . S
H1113 C1137 0.950 . S
H1114 C1138 0.950 . S
H1115 C1139 0.951 . S
H1116 C1141 0.951 . S
H1117 C1143 0.950 . S
H1118 C1144 0.950 . S
H1119 C1146 0.950 . S
H1120 C1149 0.950 . S
H1121 C1150 0.950 . S
H1122 C1152 0.950 . S
H1123 C1153 0.950 . S
C1124 H1106 0.951 . S
C1124 C1125 1.366 . S
C1124 C1126 1.388 . S
C1125 C1124 1.366 . S
C1125 C1129 1.385 . S
C1126 H1107 0.951 . S
C1126 C1124 1.388 . S
C1126 C1127 1.366 . S
C1127 C1126 1.366 . S
C1127 C1128 1.414 . S
C1127 C1130 1.499 . S
C1128 H1108 0.950 . S
C1128 C1127 1.414 . S
C1128 C1129 1.374 . S
C1129 H1109 0.950 . S
C1129 C1125 1.385 . S
C1129 C1128 1.374 . S
C1130 C1127 1.499 . S
C1130 C1131 1.373 . S
C1130 C1132 1.389 . S
C1131 H1110 0.950 . S
C1131 C1130 1.373 . S
C1131 C1147 1.377 1_545 S
C1132 C1130 1.389 . S
C1132 C1133 1.524 . S
C1132 C1146 1.377 1_545 S
C1133 C1132 1.524 . S
C1133 C1134 1.397 . S
C1133 C1138 1.363 . S
C1134 H1111 0.950 . S
C1134 C1133 1.397 . S
C1134 C1135 1.334 . S
C1135 H1112 0.950 . S
C1135 C1134 1.334 . S
C1135 C1136 1.287 . S
C1136 C1135 1.287 . S
C1136 C1137 1.524 . S
C1136 H1155 0.913 . S
C1137 H1113 0.950 . S
C1137 C1136 1.524 . S
C1137 C1138 1.415 . S
C1138 H1114 0.950 . S
C1138 C1133 1.363 . S
C1138 C1137 1.415 . S
C1139 H1115 0.951 . S
C1139 C1140 1.366 . S
C1139 C1141 1.388 . S
C1140 C1139 1.366 . S
C1140 C1144 1.385 . S
C1141 H1116 0.951 . S
C1141 C1139 1.388 . S
C1141 C1142 1.366 . S
C1142 C1141 1.366 . S
C1142 C1143 1.414 . S
C1142 C1145 1.499 . S
C1143 H1117 0.950 . S
C1143 C1142 1.414 . S
C1143 C1144 1.374 . S
C1144 H1118 0.950 . S
C1144 C1140 1.385 . S
C1144 C1143 1.374 . S
C1145 C1142 1.499 . S
C1145 C1146 1.373 . S
C1145 C1147 1.389 . S
C1146 H1119 0.950 . S
C1146 C1132 1.377 1_565 S
C1146 C1145 1.373 . S
C1147 C1131 1.377 1_565 S
C1147 C1145 1.389 . S
C1147 C1148 1.524 . S
C1148 C1147 1.524 . S
C1148 C1149 1.397 . S
C1148 C1153 1.363 . S
C1149 H1120 0.950 . S
C1149 C1148 1.397 . S
C1149 C1150 1.334 . S
C1150 H1121 0.950 . S
C1150 C1149 1.334 . S
C1150 C1151 1.287 . S
C1151 C1150 1.287 . S
C1151 C1152 1.524 . S
C1151 H1154 0.999 . S
C1152 H1122 0.950 . S
C1152 C1151 1.524 . S
C1152 C1153 1.415 . S
C1153 H1123 0.950 . S
C1153 C1148 1.363 . S
C1153 C1152 1.415 . S
H1154 C1151 0.999 . S
H1155 C1136 0.913 . S
H1156 C1174 0.951 . S
H1157 C1176 0.951 . S
H1158 C1178 0.950 . S
H1159 C1179 0.950 . S
H1160 C1181 0.950 . S
H1161 C1184 0.950 . S
H1162 C1185 0.950 . S
H1163 C1187 0.950 . S
H1164 C1188 0.950 . S
H1165 C1189 0.951 . S
H1166 C1191 0.951 . S
H1167 C1193 0.950 . S
H1168 C1194 0.950 . S
H1169 C1196 0.950 . S
H1170 C1199 0.950 . S
H1171 C1200 0.950 . S
H1172 C1202 0.950 . S
H1173 C1203 0.950 . S
C1174 H1156 0.951 . S
C1174 C1175 1.366 . S
C1174 C1176 1.388 . S
C1175 C1174 1.366 . S
C1175 C1179 1.385 . S
C1176 H1157 0.951 . S
C1176 C1174 1.388 . S
C1176 C1177 1.366 . S
C1177 C1176 1.366 . S
C1177 C1178 1.414 . S
C1177 C1180 1.499 . S
C1178 H1158 0.950 . S
C1178 C1177 1.414 . S
C1178 C1179 1.374 . S
C1179 H1159 0.950 . S
C1179 C1175 1.385 . S
C1179 C1178 1.374 . S
C1180 C1177 1.499 . S
C1180 C1181 1.373 . S
C1180 C1182 1.389 . S
C1181 H1160 0.950 . S
C1181 C1180 1.373 . S
C1181 C1197 1.377 . S
C1182 C1180 1.389 . S
C1182 C1183 1.524 . S
C1182 C1196 1.377 . S
C1183 C1182 1.524 . S
C1183 C1184 1.397 . S
C1183 C1188 1.363 . S
C1184 H1161 0.950 . S
C1184 C1183 1.397 . S
C1184 C1185 1.334 . S
C1185 H1162 0.950 . S
C1185 C1184 1.334 . S
C1185 C1186 1.287 . S
C1186 C1185 1.287 . S
C1186 C1187 1.524 . S
C1186 H1205 0.913 . S
C1187 H1163 0.950 . S
C1187 C1186 1.524 . S
C1187 C1188 1.415 . S
C1188 H1164 0.950 . S
C1188 C1183 1.363 . S
C1188 C1187 1.415 . S
C1189 H1165 0.951 . S
C1189 C1190 1.366 . S
C1189 C1191 1.388 . S
C1190 C1189 1.366 . S
C1190 C1194 1.385 . S
C1191 H1166 0.951 . S
C1191 C1189 1.388 . S
C1191 C1192 1.366 . S
C1192 C1191 1.366 . S
C1192 C1193 1.414 . S
C1192 C1195 1.499 . S
C1193 H1167 0.950 . S
C1193 C1192 1.414 . S
C1193 C1194 1.374 . S
C1194 H1168 0.950 . S
C1194 C1190 1.385 . S
C1194 C1193 1.374 . S
C1195 C1192 1.499 . S
C1195 C1196 1.373 . S
C1195 C1197 1.389 . S
C1196 H1169 0.950 . S
C1196 C1182 1.377 . S
C1196 C1195 1.373 . S
C1197 C1181 1.377 . S
C1197 C1195 1.389 . S
C1197 C1198 1.524 . S
C1198 C1197 1.524 . S
C1198 C1199 1.397 . S
C1198 C1203 1.363 . S
C1199 H1170 0.950 . S
C1199 C1198 1.397 . S
C1199 C1200 1.334 . S
C1200 H1171 0.950 . S
C1200 C1199 1.334 . S
C1200 C1201 1.287 . S
C1201 C1200 1.287 . S
C1201 C1202 1.524 . S
C1201 H1204 0.999 . S
C1202 H1172 0.950 . S
C1202 C1201 1.524 . S
C1202 C1203 1.415 . S
C1203 H1173 0.950 . S
C1203 C1198 1.363 . S
C1203 C1202 1.415 . S
H1204 C1201 0.999 . S
H1205 C1186 0.913 . S
H1206 C1224 0.951 . S
H1207 C1226 0.951 . S
H1208 C1228 0.950 . S
H1209 C1229 0.950 . S
H1210 C1231 0.950 . S
H1211 C1234 0.950 . S
H1212 C1235 0.950 . S
H1213 C1237 0.950 . S
H1214 C1238 0.950 . S
H1215 C1239 0.951 . S
H1216 C1241 0.951 . S
H1217 C1243 0.950 . S
H1218 C1244 0.950 . S
H1219 C1246 0.950 . S
H1220 C1249 0.950 . S
H1221 C1250 0.950 . S
H1222 C1252 0.950 . S
H1223 C1253 0.950 . S
C1224 H1206 0.951 . S
C1224 C1225 1.366 . S
C1224 C1226 1.388 . S
C1225 C1224 1.366 . S
C1225 C1229 1.385 . S
C1226 H1207 0.951 . S
C1226 C1224 1.388 . S
C1226 C1227 1.366 . S
C1227 C1226 1.366 . S
C1227 C1228 1.414 . S
C1227 C1230 1.499 . S
C1228 H1208 0.950 . S
C1228 C1227 1.414 . S
C1228 C1229 1.374 . S
C1229 H1209 0.950 . S
C1229 C1225 1.385 . S
C1229 C1228 1.374 . S
C1230 C1227 1.499 . S
C1230 C1231 1.373 . S
C1230 C1232 1.389 . S
C1231 H1210 0.950 . S
C1231 C1230 1.373 . S
C1231 C1247 1.377 1_655 S
C1232 C1230 1.389 . S
C1232 C1233 1.524 . S
C1232 C1246 1.377 1_655 S
C1233 C1232 1.524 . S
C1233 C1234 1.397 . S
C1233 C1238 1.363 . S
C1234 H1211 0.950 . S
C1234 C1233 1.397 . S
C1234 C1235 1.334 . S
C1235 H1212 0.950 . S
C1235 C1234 1.334 . S
C1235 C1236 1.287 . S
C1236 C1235 1.287 . S
C1236 C1237 1.524 . S
C1236 H1255 0.913 . S
C1237 H1213 0.950 . S
C1237 C1236 1.524 . S
C1237 C1238 1.415 . S
C1238 H1214 0.950 . S
C1238 C1233 1.363 . S
C1238 C1237 1.415 . S
C1239 H1215 0.951 . S
C1239 C1240 1.366 . S
C1239 C1241 1.388 . S
C1240 C1239 1.366 . S
C1240 C1244 1.385 . S
C1241 H1216 0.951 . S
C1241 C1239 1.388 . S
C1241 C1242 1.366 . S
C1242 C1241 1.366 . S
C1242 C1243 1.414 . S
C1242 C1245 1.499 . S
C1243 H1217 0.950 . S
C1243 C1242 1.414 . S
C1243 C1244 1.374 . S
C1244 H1218 0.950 . S
C1244 C1240 1.385 . S
C1244 C1243 1.374 . S
C1245 C1242 1.499 . S
C1245 C1246 1.373 . S
C1245 C1247 1.389 . S
C1246 H1219 0.950 . S
C1246 C1232 1.377 1_455 S
C1246 C1245 1.373 . S
C1247 C1231 1.377 1_455 S
C1247 C1245 1.389 . S
C1247 C1248 1.524 . S
C1248 C1247 1.524 . S
C1248 C1249 1.397 . S
C1248 C1253 1.363 . S
C1249 H1220 0.950 . S
C1249 C1248 1.397 . S
C1249 C1250 1.334 . S
C1250 H1221 0.950 . S
C1250 C1249 1.334 . S
C1250 C1251 1.287 . S
C1251 C1250 1.287 . S
C1251 C1252 1.524 . S
C1251 H1254 0.999 . S
C1252 H1222 0.950 . S
C1252 C1251 1.524 . S
C1252 C1253 1.415 . S
C1253 H1223 0.950 . S
C1253 C1248 1.363 . S
C1253 C1252 1.415 . S
H1254 C1251 0.999 . S
H1255 C1236 0.913 . S
H1256 C1274 0.951 . S
H1257 C1276 0.951 . S
H1258 C1278 0.950 . S
H1259 C1279 0.950 . S
H1260 C1281 0.950 . S
H1261 C1284 0.950 . S
H1262 C1285 0.950 . S
H1263 C1287 0.950 . S
H1264 C1288 0.950 . S
H1265 C1289 0.951 . S
H1266 C1291 0.951 . S
H1267 C1293 0.950 . S
H1268 C1294 0.950 . S
H1269 C1296 0.950 . S
H1270 C1299 0.950 . S
H1271 C1300 0.950 . S
H1272 C1302 0.950 . S
H1273 C1303 0.950 . S
C1274 H1256 0.951 . S
C1274 C1275 1.366 . S
C1274 C1276 1.388 . S
C1275 C1274 1.366 . S
C1275 C1279 1.385 . S
C1276 H1257 0.951 . S
C1276 C1274 1.388 . S
C1276 C1277 1.366 . S
C1277 C1276 1.366 . S
C1277 C1278 1.414 . S
C1277 C1280 1.499 . S
C1278 H1258 0.950 . S
C1278 C1277 1.414 . S
C1278 C1279 1.374 . S
C1279 H1259 0.950 . S
C1279 C1275 1.385 . S
C1279 C1278 1.374 . S
C1280 C1277 1.499 . S
C1280 C1281 1.373 . S
C1280 C1282 1.389 . S
C1281 H1260 0.950 . S
C1281 C1280 1.373 . S
C1281 C1297 1.377 1_545 S
C1282 C1280 1.389 . S
C1282 C1283 1.524 . S
C1282 C1296 1.377 1_545 S
C1283 C1282 1.524 . S
C1283 C1284 1.397 . S
C1283 C1288 1.363 . S
C1284 H1261 0.950 . S
C1284 C1283 1.397 . S
C1284 C1285 1.334 . S
C1285 H1262 0.950 . S
C1285 C1284 1.334 . S
C1285 C1286 1.287 . S
C1286 C1285 1.287 . S
C1286 C1287 1.524 . S
C1286 H1305 0.913 . S
C1287 H1263 0.950 . S
C1287 C1286 1.524 . S
C1287 C1288 1.415 . S
C1288 H1264 0.950 . S
C1288 C1283 1.363 . S
C1288 C1287 1.415 . S
C1289 H1265 0.951 . S
C1289 C1290 1.366 . S
C1289 C1291 1.388 . S
C1290 C1289 1.366 . S
C1290 C1294 1.385 . S
C1291 H1266 0.951 . S
C1291 C1289 1.388 . S
C1291 C1292 1.366 . S
C1292 C1291 1.366 . S
C1292 C1293 1.414 . S
C1292 C1295 1.499 . S
C1293 H1267 0.950 . S
C1293 C1292 1.414 . S
C1293 C1294 1.374 . S
C1294 H1268 0.950 . S
C1294 C1290 1.385 . S
C1294 C1293 1.374 . S
C1295 C1292 1.499 . S
C1295 C1296 1.373 . S
C1295 C1297 1.389 . S
C1296 H1269 0.950 . S
C1296 C1282 1.377 1_565 S
C1296 C1295 1.373 . S
C1297 C1281 1.377 1_565 S
C1297 C1295 1.389 . S
C1297 C1298 1.524 . S
C1298 C1297 1.524 . S
C1298 C1299 1.397 . S
C1298 C1303 1.363 . S
C1299 H1270 0.950 . S
C1299 C1298 1.397 . S
C1299 C1300 1.334 . S
C1300 H1271 0.950 . S
C1300 C1299 1.334 . S
C1300 C1301 1.287 . S
C1301 C1300 1.287 . S
C1301 C1302 1.524 . S
C1301 H1304 0.999 . S
C1302 H1272 0.950 . S
C1302 C1301 1.524 . S
C1302 C1303 1.415 . S
C1303 H1273 0.950 . S
C1303 C1298 1.363 . S
C1303 C1302 1.415 . S
H1304 C1301 0.999 . S
H1305 C1286 0.913 . S
H1306 C1324 0.951 . S
H1307 C1326 0.951 . S
H1308 C1328 0.950 . S
H1309 C1329 0.950 . S
H1310 C1331 0.950 . S
H1311 C1334 0.950 . S
H1312 C1335 0.950 . S
H1313 C1337 0.950 . S
H1314 C1338 0.950 . S
H1315 C1339 0.951 . S
H1316 C1341 0.951 . S
H1317 C1343 0.950 . S
H1318 C1344 0.950 . S
H1319 C1346 0.950 . S
H1320 C1349 0.950 . S
H1321 C1350 0.950 . S
H1322 C1352 0.950 . S
H1323 C1353 0.950 . S
C1324 H1306 0.951 . S
C1324 C1325 1.366 . S
C1324 C1326 1.388 . S
C1325 C1324 1.366 . S
C1325 C1329 1.385 . S
C1326 H1307 0.951 . S
C1326 C1324 1.388 . S
C1326 C1327 1.366 . S
C1327 C1326 1.366 . S
C1327 C1328 1.414 . S
C1327 C1330 1.499 . S
C1328 H1308 0.950 . S
C1328 C1327 1.414 . S
C1328 C1329 1.374 . S
C1329 H1309 0.950 . S
C1329 C1325 1.385 . S
C1329 C1328 1.374 . S
C1330 C1327 1.499 . S
C1330 C1331 1.373 . S
C1330 C1332 1.389 . S
C1331 H1310 0.950 . S
C1331 C1330 1.373 . S
C1331 C1347 1.377 . S
C1332 C1330 1.389 . S
C1332 C1333 1.524 . S
C1332 C1346 1.377 . S
C1333 C1332 1.524 . S
C1333 C1334 1.397 . S
C1333 C1338 1.363 . S
C1334 H1311 0.950 . S
C1334 C1333 1.397 . S
C1334 C1335 1.334 . S
C1335 H1312 0.950 . S
C1335 C1334 1.334 . S
C1335 C1336 1.287 . S
C1336 C1335 1.287 . S
C1336 C1337 1.524 . S
C1336 H1355 0.913 . S
C1337 H1313 0.950 . S
C1337 C1336 1.524 . S
C1337 C1338 1.415 . S
C1338 H1314 0.950 . S
C1338 C1333 1.363 . S
C1338 C1337 1.415 . S
C1339 H1315 0.951 . S
C1339 C1340 1.366 . S
C1339 C1341 1.388 . S
C1340 C1339 1.366 . S
C1340 C1344 1.385 . S
C1341 H1316 0.951 . S
C1341 C1339 1.388 . S
C1341 C1342 1.366 . S
C1342 C1341 1.366 . S
C1342 C1343 1.414 . S
C1342 C1345 1.499 . S
C1343 H1317 0.950 . S
C1343 C1342 1.414 . S
C1343 C1344 1.374 . S
C1344 H1318 0.950 . S
C1344 C1340 1.385 . S
C1344 C1343 1.374 . S
C1345 C1342 1.499 . S
C1345 C1346 1.373 . S
C1345 C1347 1.389 . S
C1346 H1319 0.950 . S
C1346 C1332 1.377 . S
C1346 C1345 1.373 . S
C1347 C1331 1.377 . S
C1347 C1345 1.389 . S
C1347 C1348 1.524 . S
C1348 C1347 1.524 . S
C1348 C1349 1.397 . S
C1348 C1353 1.363 . S
C1349 H1320 0.950 . S
C1349 C1348 1.397 . S
C1349 C1350 1.334 . S
C1350 H1321 0.950 . S
C1350 C1349 1.334 . S
C1350 C1351 1.287 . S
C1351 C1350 1.287 . S
C1351 C1352 1.524 . S
C1351 H1354 0.999 . S
C1352 H1322 0.950 . S
C1352 C1351 1.524 . S
C1352 C1353 1.415 . S
C1353 H1323 0.950 . S
C1353 C1348 1.363 . S
C1353 C1352 1.415 . S
H1354 C1351 0.999 . S
H1355 C1336 0.913 . S
H1356 C1374 0.951 . S
H1357 C1376 0.951 . S
H1358 C1378 0.950 . S
H1359 C1379 0.950 . S
H1360 C1381 0.950 . S
H1361 C1384 0.950 . S
H1362 C1385 0.950 . S
H1363 C1387 0.950 . S
H1364 C1388 0.950 . S
H1365 C1389 0.951 . S
H1366 C1391 0.951 . S
H1367 C1393 0.950 . S
H1368 C1394 0.950 . S
H1369 C1396 0.950 . S
H1370 C1399 0.950 . S
H1371 C1400 0.950 . S
H1372 C1402 0.950 . S
H1373 C1403 0.950 . S
C1374 H1356 0.951 . S
C1374 C1375 1.366 . S
C1374 C1376 1.388 . S
C1375 C1374 1.366 . S
C1375 C1379 1.385 . S
C1376 H1357 0.951 . S
C1376 C1374 1.388 . S
C1376 C1377 1.366 . S
C1377 C1376 1.366 . S
C1377 C1378 1.414 . S
C1377 C1380 1.499 . S
C1378 H1358 0.950 . S
C1378 C1377 1.414 . S
C1378 C1379 1.374 . S
C1379 H1359 0.950 . S
C1379 C1375 1.385 . S
C1379 C1378 1.374 . S
C1380 C1377 1.499 . S
C1380 C1381 1.373 . S
C1380 C1382 1.389 . S
C1381 H1360 0.950 . S
C1381 C1380 1.373 . S
C1381 C1397 1.377 . S
C1382 C1380 1.389 . S
C1382 C1383 1.524 . S
C1382 C1396 1.377 . S
C1383 C1382 1.524 . S
C1383 C1384 1.397 . S
C1383 C1388 1.363 . S
C1384 H1361 0.950 . S
C1384 C1383 1.397 . S
C1384 C1385 1.334 . S
C1385 H1362 0.950 . S
C1385 C1384 1.334 . S
C1385 C1386 1.287 . S
C1386 C1385 1.287 . S
C1386 C1387 1.524 . S
C1386 H1405 0.913 . S
C1387 H1363 0.950 . S
C1387 C1386 1.524 . S
C1387 C1388 1.415 . S
C1388 H1364 0.950 . S
C1388 C1383 1.363 . S
C1388 C1387 1.415 . S
C1389 H1365 0.951 . S
C1389 C1390 1.366 . S
C1389 C1391 1.388 . S
C1390 C1389 1.366 . S
C1390 C1394 1.385 . S
C1391 H1366 0.951 . S
C1391 C1389 1.388 . S
C1391 C1392 1.366 . S
C1392 C1391 1.366 . S
C1392 C1393 1.414 . S
C1392 C1395 1.499 . S
C1393 H1367 0.950 . S
C1393 C1392 1.414 . S
C1393 C1394 1.374 . S
C1394 H1368 0.950 . S
C1394 C1390 1.385 . S
C1394 C1393 1.374 . S
C1395 C1392 1.499 . S
C1395 C1396 1.373 . S
C1395 C1397 1.389 . S
C1396 H1369 0.950 . S
C1396 C1382 1.377 . S
C1396 C1395 1.373 . S
C1397 C1381 1.377 . S
C1397 C1395 1.389 . S
C1397 C1398 1.524 . S
C1398 C1397 1.524 . S
C1398 C1399 1.397 . S
C1398 C1403 1.363 . S
C1399 H1370 0.950 . S
C1399 C1398 1.397 . S
C1399 C1400 1.334 . S
C1400 H1371 0.950 . S
C1400 C1399 1.334 . S
C1400 C1401 1.287 . S
C1401 C1400 1.287 . S
C1401 C1402 1.524 . S
C1401 H1404 0.999 . S
C1402 H1372 0.950 . S
C1402 C1401 1.524 . S
C1402 C1403 1.415 . S
C1403 H1373 0.950 . S
C1403 C1398 1.363 . S
C1403 C1402 1.415 . S
H1404 C1401 0.999 . S
H1405 C1386 0.913 . S
H1406 C1424 0.951 . S
H1407 C1426 0.951 . S
H1408 C1428 0.950 . S
H1409 C1429 0.950 . S
H1410 C1431 0.950 . S
H1411 C1434 0.950 . S
H1412 C1435 0.950 . S
H1413 C1437 0.950 . S
H1414 C1438 0.950 . S
H1415 C1439 0.951 . S
H1416 C1441 0.951 . S
H1417 C1443 0.950 . S
H1418 C1444 0.950 . S
H1419 C1446 0.950 . S
H1420 C1449 0.950 . S
H1421 C1450 0.950 . S
H1422 C1452 0.950 . S
H1423 C1453 0.950 . S
C1424 H1406 0.951 . S
C1424 C1425 1.366 . S
C1424 C1426 1.388 . S
C1425 C1424 1.366 . S
C1425 C1429 1.385 . S
C1426 H1407 0.951 . S
C1426 C1424 1.388 . S
C1426 C1427 1.366 . S
C1427 C1426 1.366 . S
C1427 C1428 1.414 . S
C1427 C1430 1.499 . S
C1428 H1408 0.950 . S
C1428 C1427 1.414 . S
C1428 C1429 1.374 . S
C1429 H1409 0.950 . S
C1429 C1425 1.385 . S
C1429 C1428 1.374 . S
C1430 C1427 1.499 . S
C1430 C1431 1.373 . S
C1430 C1432 1.389 . S
C1431 H1410 0.950 . S
C1431 C1430 1.373 . S
C1431 C1447 1.377 1_455 S
C1432 C1430 1.389 . S
C1432 C1433 1.535 . S
C1432 C1446 1.377 1_455 S
C1433 C1432 1.535 . S
C1433 C1434 1.371 1_455 S
C1433 C1438 1.376 . S
C1434 H1411 0.950 . S
C1434 C1433 1.371 1_655 S
C1434 C1435 1.334 . S
C1435 H1412 0.950 . S
C1435 C1434 1.334 . S
C1435 C1436 1.287 . S
C1436 C1435 1.287 . S
C1436 C1437 1.524 1_655 S
C1436 H1455 0.913 . S
C1437 H1413 0.950 . S
C1437 C1436 1.524 1_455 S
C1437 C1438 1.415 . S
C1438 H1414 0.950 . S
C1438 C1433 1.376 . S
C1438 C1437 1.415 . S
C1439 H1415 0.951 . S
C1439 C1440 1.366 . S
C1439 C1441 1.388 . S
C1440 C1439 1.366 . S
C1440 C1444 1.385 . S
C1441 H1416 0.951 . S
C1441 C1439 1.388 . S
C1441 C1442 1.366 . S
C1442 C1441 1.366 . S
C1442 C1443 1.414 . S
C1442 C1445 1.499 . S
C1443 H1417 0.950 . S
C1443 C1442 1.414 . S
C1443 C1444 1.374 . S
C1444 H1418 0.950 . S
C1444 C1440 1.385 . S
C1444 C1443 1.374 . S
C1445 C1442 1.499 . S
C1445 C1446 1.373 . S
C1445 C1447 1.389 . S
C1446 H1419 0.950 . S
C1446 C1432 1.377 1_655 S
C1446 C1445 1.373 . S
C1447 C1431 1.377 1_655 S
C1447 C1445 1.389 . S
C1447 C1448 1.535 . S
C1448 C1447 1.535 . S
C1448 C1449 1.371 1_655 S
C1448 C1453 1.376 . S
C1449 H1420 0.950 . S
C1449 C1448 1.371 1_455 S
C1449 C1450 1.334 . S
C1450 H1421 0.950 . S
C1450 C1449 1.334 . S
C1450 C1451 1.287 . S
C1451 C1450 1.287 . S
C1451 C1452 1.524 1_455 S
C1451 H1454 0.999 . S
C1452 H1422 0.950 . S
C1452 C1451 1.524 1_655 S
C1452 C1453 1.415 . S
C1453 H1423 0.950 . S
C1453 C1448 1.376 . S
C1453 C1452 1.415 . S
H1454 C1451 0.999 . S
H1455 C1436 0.913 . S
H1456 C1474 0.951 . S
H1457 C1476 0.951 . S
H1458 C1478 0.950 . S
H1459 C1479 0.950 . S
H1460 C1481 0.950 . S
H1461 C1484 0.950 . S
H1462 C1485 0.950 . S
H1463 C1487 0.950 . S
H1464 C1488 0.950 . S
H1465 C1489 0.951 . S
H1466 C1491 0.951 . S
H1467 C1493 0.950 . S
H1468 C1494 0.950 . S
H1469 C1496 0.950 . S
H1470 C1499 0.950 . S
H1471 C1500 0.950 . S
H1472 C1502 0.950 . S
H1473 C1503 0.950 . S
C1474 H1456 0.951 . S
C1474 C1475 1.366 . S
C1474 C1476 1.388 . S
C1475 C1474 1.366 . S
C1475 C1479 1.385 . S
C1476 H1457 0.951 . S
C1476 C1474 1.388 . S
C1476 C1477 1.366 . S
C1477 C1476 1.366 . S
C1477 C1478 1.414 . S
C1477 C1480 1.499 . S
C1478 H1458 0.950 . S
C1478 C1477 1.414 . S
C1478 C1479 1.374 . S
C1479 H1459 0.950 . S
C1479 C1475 1.385 . S
C1479 C1478 1.374 . S
C1480 C1477 1.499 . S
C1480 C1481 1.373 . S
C1480 C1482 1.389 . S
C1481 H1460 0.950 . S
C1481 C1480 1.373 . S
C1481 C1497 1.377 1_545 S
C1482 C1480 1.389 . S
C1482 C1483 1.524 . S
C1482 C1496 1.377 1_545 S
C1483 C1482 1.524 . S
C1483 C1484 1.397 . S
C1483 C1488 1.363 . S
C1484 H1461 0.950 . S
C1484 C1483 1.397 . S
C1484 C1485 1.334 . S
C1485 H1462 0.950 . S
C1485 C1484 1.334 . S
C1485 C1486 1.287 . S
C1486 C1485 1.287 . S
C1486 C1487 1.524 . S
C1486 H1505 0.913 . S
C1487 H1463 0.950 . S
C1487 C1486 1.524 . S
C1487 C1488 1.415 . S
C1488 H1464 0.950 . S
C1488 C1483 1.363 . S
C1488 C1487 1.415 . S
C1489 H1465 0.951 . S
C1489 C1490 1.366 . S
C1489 C1491 1.388 . S
C1490 C1489 1.366 . S
C1490 C1494 1.385 . S
C1491 H1466 0.951 . S
C1491 C1489 1.388 . S
C1491 C1492 1.366 . S
C1492 C1491 1.366 . S
C1492 C1493 1.414 . S
C1492 C1495 1.499 . S
C1493 H1467 0.950 . S
C1493 C1492 1.414 . S
C1493 C1494 1.374 . S
C1494 H1468 0.950 . S
C1494 C1490 1.385 . S
C1494 C1493 1.374 . S
C1495 C1492 1.499 . S
C1495 C1496 1.373 . S
C1495 C1497 1.389 . S
C1496 H1469 0.950 . S
C1496 C1482 1.377 1_565 S
C1496 C1495 1.373 . S
C1497 C1481 1.377 1_565 S
C1497 C1495 1.389 . S
C1497 C1498 1.524 . S
C1498 C1497 1.524 . S
C1498 C1499 1.397 . S
C1498 C1503 1.363 . S
C1499 H1470 0.950 . S
C1499 C1498 1.397 . S
C1499 C1500 1.334 . S
C1500 H1471 0.950 . S
C1500 C1499 1.334 . S
C1500 C1501 1.287 . S
C1501 C1500 1.287 . S
C1501 C1502 1.524 . S
C1501 H1504 0.999 . S
C1502 H1472 0.950 . S
C1502 C1501 1.524 . S
C1502 C1503 1.415 . S
C1503 H1473 0.950 . S
C1503 C1498 1.363 . S
C1503 C1502 1.415 . S
H1504 C1501 0.999 . S
H1505 C1486 0.913 . S
H1506 C1524 0.951 . S
H1507 C1526 0.951 . S
H1508 C1528 0.950 . S
H1509 C1529 0.950 . S
H1510 C1531 0.950 . S
H1511 C1534 0.950 . S
H1512 C1535 0.950 . S
H1513 C1537 0.950 . S
H1514 C1538 0.950 . S
H1515 C1539 0.951 . S
H1516 C1541 0.951 . S
H1517 C1543 0.950 . S
H1518 C1544 0.950 . S
H1519 C1546 0.950 . S
H1520 C1549 0.950 . S
H1521 C1550 0.950 . S
H1522 C1552 0.950 . S
H1523 C1553 0.950 . S
C1524 H1506 0.951 . S
C1524 C1525 1.366 . S
C1524 C1526 1.388 . S
C1525 C1524 1.366 . S
C1525 C1529 1.385 . S
C1526 H1507 0.951 . S
C1526 C1524 1.388 . S
C1526 C1527 1.366 . S
C1527 C1526 1.366 . S
C1527 C1528 1.414 . S
C1527 C1530 1.499 . S
C1528 H1508 0.950 . S
C1528 C1527 1.414 . S
C1528 C1529 1.374 . S
C1529 H1509 0.950 . S
C1529 C1525 1.385 . S
C1529 C1528 1.374 . S
C1530 C1527 1.499 . S
C1530 C1531 1.373 . S
C1530 C1532 1.389 . S
C1531 H1510 0.950 . S
C1531 C1530 1.373 . S
C1531 C1547 1.377 . S
C1532 C1530 1.389 . S
C1532 C1533 1.524 . S
C1532 C1546 1.377 . S
C1533 C1532 1.524 . S
C1533 C1534 1.397 . S
C1533 C1538 1.363 . S
C1534 H1511 0.950 . S
C1534 C1533 1.397 . S
C1534 C1535 1.334 . S
C1535 H1512 0.950 . S
C1535 C1534 1.334 . S
C1535 C1536 1.287 . S
C1536 C1535 1.287 . S
C1536 C1537 1.524 . S
C1536 H1555 0.913 . S
C1537 H1513 0.950 . S
C1537 C1536 1.524 . S
C1537 C1538 1.415 . S
C1538 H1514 0.950 . S
C1538 C1533 1.363 . S
C1538 C1537 1.415 . S
C1539 H1515 0.951 . S
C1539 C1540 1.366 . S
C1539 C1541 1.388 . S
C1540 C1539 1.366 . S
C1540 C1544 1.385 . S
C1541 H1516 0.951 . S
C1541 C1539 1.388 . S
C1541 C1542 1.366 . S
C1542 C1541 1.366 . S
C1542 C1543 1.414 . S
C1542 C1545 1.499 . S
C1543 H1517 0.950 . S
C1543 C1542 1.414 . S
C1543 C1544 1.374 . S
C1544 H1518 0.950 . S
C1544 C1540 1.385 . S
C1544 C1543 1.374 . S
C1545 C1542 1.499 . S
C1545 C1546 1.373 . S
C1545 C1547 1.389 . S
C1546 H1519 0.950 . S
C1546 C1532 1.377 . S
C1546 C1545 1.373 . S
C1547 C1531 1.377 . S
C1547 C1545 1.389 . S
C1547 C1548 1.524 . S
C1548 C1547 1.524 . S
C1548 C1549 1.397 . S
C1548 C1553 1.363 . S
C1549 H1520 0.950 . S
C1549 C1548 1.397 . S
C1549 C1550 1.334 . S
C1550 H1521 0.950 . S
C1550 C1549 1.334 . S
C1550 C1551 1.287 . S
C1551 C1550 1.287 . S
C1551 C1552 1.524 . S
C1551 H1554 0.999 . S
C1552 H1522 0.950 . S
C1552 C1551 1.524 . S
C1552 C1553 1.415 . S
C1553 H1523 0.950 . S
C1553 C1548 1.363 . S
C1553 C1552 1.415 . S
H1554 C1551 0.999 . S
H1555 C1536 0.913 . S
H1556 C1574 0.951 . S
H1557 C1576 0.951 . S
H1558 C1578 0.950 . S
H1559 C1579 0.950 . S
H1560 C1581 0.950 . S
H1561 C1584 0.950 . S
H1562 C1585 0.950 . S
H1563 C1587 0.950 . S
H1564 C1588 0.950 . S
H1565 C1589 0.951 . S
H1566 C1591 0.951 . S
H1567 C1593 0.950 . S
H1568 C1594 0.950 . S
H1569 C1596 0.950 . S
H1570 C1599 0.950 . S
H1571 C1600 0.950 . S
H1572 C1602 0.950 . S
H1573 C1603 0.950 . S
C1574 H1556 0.951 . S
C1574 C1575 1.366 . S
C1574 C1576 1.388 . S
C1575 C1574 1.366 . S
C1575 C1579 1.385 . S
C1576 H1557 0.951 . S
C1576 C1574 1.388 . S
C1576 C1577 1.366 . S
C1577 C1576 1.366 . S
C1577 C1578 1.414 . S
C1577 C1580 1.499 . S
C1578 H1558 0.950 . S
C1578 C1577 1.414 . S
C1578 C1579 1.374 . S
C1579 H1559 0.950 . S
C1579 C1575 1.385 . S
C1579 C1578 1.374 . S
C1580 C1577 1.499 . S
C1580 C1581 1.373 1_655 S
C1580 C1582 1.389 . S
C1581 H1560 0.950 . S
C1581 C1580 1.373 1_455 S
C1581 C1597 1.377 . S
C1582 C1580 1.389 . S
C1582 C1583 1.524 . S
C1582 C1596 1.377 . S
C1583 C1582 1.524 . S
C1583 C1584 1.397 . S
C1583 C1588 1.363 . S
C1584 H1561 0.950 . S
C1584 C1583 1.397 . S
C1584 C1585 1.334 . S
C1585 H1562 0.950 . S
C1585 C1584 1.334 . S
C1585 C1586 1.287 . S
C1586 C1585 1.287 . S
C1586 C1587 1.524 . S
C1586 H1605 0.913 . S
C1587 H1563 0.950 . S
C1587 C1586 1.524 . S
C1587 C1588 1.415 . S
C1588 H1564 0.950 . S
C1588 C1583 1.363 . S
C1588 C1587 1.415 . S
C1589 H1565 0.951 . S
C1589 C1590 1.366 . S
C1589 C1591 1.388 . S
C1590 C1589 1.366 . S
C1590 C1594 1.385 . S
C1591 H1566 0.951 . S
C1591 C1589 1.388 . S
C1591 C1592 1.366 . S
C1592 C1591 1.366 . S
C1592 C1593 1.414 . S
C1592 C1595 1.499 . S
C1593 H1567 0.950 . S
C1593 C1592 1.414 . S
C1593 C1594 1.374 . S
C1594 H1568 0.950 . S
C1594 C1590 1.385 . S
C1594 C1593 1.374 . S
C1595 C1592 1.499 . S
C1595 C1596 1.373 1_455 S
C1595 C1597 1.389 . S
C1596 H1569 0.950 . S
C1596 C1582 1.377 . S
C1596 C1595 1.373 1_655 S
C1597 C1581 1.377 . S
C1597 C1595 1.389 . S
C1597 C1598 1.524 . S
C1598 C1597 1.524 . S
C1598 C1599 1.397 . S
C1598 C1603 1.363 . S
C1599 H1570 0.950 . S
C1599 C1598 1.397 . S
C1599 C1600 1.334 . S
C1600 H1571 0.950 . S
C1600 C1599 1.334 . S
C1600 C1601 1.287 . S
C1601 C1600 1.287 . S
C1601 C1602 1.524 . S
C1601 H1604 0.999 . S
C1602 H1572 0.950 . S
C1602 C1601 1.524 . S
C1602 C1603 1.415 . S
C1603 H1573 0.950 . S
C1603 C1598 1.363 . S
C1603 C1602 1.415 . S
H1604 C1601 0.999 . S
H1605 C1586 0.913 . S
H1606 C1624 0.951 . S
H1607 C1626 0.951 . S
H1608 C1628 0.950 . S
H1609 C1629 0.950 . S
H1610 C1631 0.950 . S
H1611 C1634 0.950 . S
H1612 C1635 0.950 . S
H1613 C1637 0.950 . S
H1614 C1638 0.950 . S
H1615 C1639 0.951 . S
H1616 C1641 0.951 . S
H1617 C1643 0.950 . S
H1618 C1644 0.950 . S
H1619 C1646 0.950 . S
H1620 C1649 0.950 . S
H1621 C1650 0.950 . S
H1622 C1652 0.950 . S
H1623 C1653 0.950 . S
C1624 H1606 0.951 . S
C1624 C1625 1.366 . S
C1624 C1626 1.388 . S
C1625 C1624 1.366 . S
C1625 C1629 1.385 . S
C1626 H1607 0.951 . S
C1626 C1624 1.388 . S
C1626 C1627 1.366 . S
C1627 C1626 1.366 . S
C1627 C1628 1.414 . S
C1627 C1630 1.499 . S
C1628 H1608 0.950 . S
C1628 C1627 1.414 . S
C1628 C1629 1.374 . S
C1629 H1609 0.950 . S
C1629 C1625 1.385 . S
C1629 C1628 1.374 . S
C1630 C1627 1.499 . S
C1630 C1631 1.373 1_565 S
C1630 C1632 1.389 . S
C1631 H1610 0.950 . S
C1631 C1630 1.373 1_545 S
C1631 C1647 1.377 . S
C1632 C1630 1.389 . S
C1632 C1633 1.524 . S
C1632 C1646 1.377 . S
C1633 C1632 1.524 . S
C1633 C1634 1.397 . S
C1633 C1638 1.363 . S
C1634 H1611 0.950 . S
C1634 C1633 1.397 . S
C1634 C1635 1.334 . S
C1635 H1612 0.950 . S
C1635 C1634 1.334 . S
C1635 C1636 1.287 . S
C1636 C1635 1.287 . S
C1636 C1637 1.524 . S
C1636 H1655 0.913 . S
C1637 H1613 0.950 . S
C1637 C1636 1.524 . S
C1637 C1638 1.415 . S
C1638 H1614 0.950 . S
C1638 C1633 1.363 . S
C1638 C1637 1.415 . S
C1639 H1615 0.951 . S
C1639 C1640 1.366 . S
C1639 C1641 1.388 . S
C1640 C1639 1.366 . S
C1640 C1644 1.385 . S
C1641 H1616 0.951 . S
C1641 C1639 1.388 . S
C1641 C1642 1.366 . S
C1642 C1641 1.366 . S
C1642 C1643 1.414 . S
C1642 C1645 1.499 . S
C1643 H1617 0.950 . S
C1643 C1642 1.414 . S
C1643 C1644 1.374 . S
C1644 H1618 0.950 . S
C1644 C1640 1.385 . S
C1644 C1643 1.374 . S
C1645 C1642 1.499 . S
C1645 C1646 1.373 1_545 S
C1645 C1647 1.389 . S
C1646 H1619 0.950 . S
C1646 C1632 1.377 . S
C1646 C1645 1.373 1_565 S
C1647 C1631 1.377 . S
C1647 C1645 1.389 . S
C1647 C1648 1.524 . S
C1648 C1647 1.524 . S
C1648 C1649 1.397 . S
C1648 C1653 1.363 . S
C1649 H1620 0.950 . S
C1649 C1648 1.397 . S
C1649 C1650 1.334 . S
C1650 H1621 0.950 . S
C1650 C1649 1.334 . S
C1650 C1651 1.287 . S
C1651 C1650 1.287 . S
C1651 C1652 1.524 . S
C1651 H1654 0.999 . S
C1652 H1622 0.950 . S
C1652 C1651 1.524 . S
C1652 C1653 1.415 . S
C1653 H1623 0.950 . S
C1653 C1648 1.363 . S
C1653 C1652 1.415 . S
H1654 C1651 0.999 . S
H1655 C1636 0.913 . S
H1656 C1674 0.951 . S
H1657 C1676 0.951 . S
H1658 C1678 0.950 . S
H1659 C1679 0.950 . S
H1660 C1681 0.950 . S
H1661 C1684 0.950 . S
H1662 C1685 0.950 . S
H1663 C1687 0.950 . S
H1664 C1688 0.950 . S
H1665 C1689 0.951 . S
H1666 C1691 0.951 . S
H1667 C1693 0.950 . S
H1668 C1694 0.950 . S
H1669 C1696 0.950 . S
H1670 C1699 0.950 . S
H1671 C1700 0.950 . S
H1672 C1702 0.950 . S
H1673 C1703 0.950 . S
C1674 H1656 0.951 . S
C1674 C1675 1.366 . S
C1674 C1676 1.388 . S
C1675 C1674 1.366 . S
C1675 C1679 1.385 . S
C1676 H1657 0.951 . S
C1676 C1674 1.388 . S
C1676 C1677 1.366 . S
C1677 C1676 1.366 . S
C1677 C1678 1.414 . S
C1677 C1680 1.499 . S
C1678 H1658 0.950 . S
C1678 C1677 1.414 . S
C1678 C1679 1.374 . S
C1679 H1659 0.950 . S
C1679 C1675 1.385 . S
C1679 C1678 1.374 . S
C1680 C1677 1.499 . S
C1680 C1681 1.373 . S
C1680 C1682 1.389 . S
C1681 H1660 0.950 . S
C1681 C1680 1.373 . S
C1681 C1697 1.377 . S
C1682 C1680 1.389 . S
C1682 C1683 1.524 . S
C1682 C1696 1.377 . S
C1683 C1682 1.524 . S
C1683 C1684 1.397 . S
C1683 C1688 1.363 . S
C1684 H1661 0.950 . S
C1684 C1683 1.397 . S
C1684 C1685 1.334 . S
C1685 H1662 0.950 . S
C1685 C1684 1.334 . S
C1685 C1686 1.287 . S
C1686 C1685 1.287 . S
C1686 C1687 1.524 . S
C1686 H1705 0.913 . S
C1687 H1663 0.950 . S
C1687 C1686 1.524 . S
C1687 C1688 1.415 . S
C1688 H1664 0.950 . S
C1688 C1683 1.363 . S
C1688 C1687 1.415 . S
C1689 H1665 0.951 . S
C1689 C1690 1.366 . S
C1689 C1691 1.388 . S
C1690 C1689 1.366 . S
C1690 C1694 1.385 . S
C1691 H1666 0.951 . S
C1691 C1689 1.388 . S
C1691 C1692 1.366 . S
C1692 C1691 1.366 . S
C1692 C1693 1.414 . S
C1692 C1695 1.499 . S
C1693 H1667 0.950 . S
C1693 C1692 1.414 . S
C1693 C1694 1.374 . S
C1694 H1668 0.950 . S
C1694 C1690 1.385 . S
C1694 C1693 1.374 . S
C1695 C1692 1.499 . S
C1695 C1696 1.373 . S
C1695 C1697 1.389 . S
C1696 H1669 0.950 . S
C1696 C1682 1.377 . S
C1696 C1695 1.373 . S
C1697 C1681 1.377 . S
C1697 C1695 1.389 . S
C1697 C1698 1.524 . S
C1698 C1697 1.524 . S
C1698 C1699 1.397 . S
C1698 C1703 1.363 . S
C1699 H1670 0.950 . S
C1699 C1698 1.397 . S
C1699 C1700 1.334 . S
C1700 H1671 0.950 . S
C1700 C1699 1.334 . S
C1700 C1701 1.287 . S
C1701 C1700 1.287 . S
C1701 C1702 1.524 . S
C1701 H1704 0.999 . S
C1702 H1672 0.950 . S
C1702 C1701 1.524 . S
C1702 C1703 1.415 . S
C1703 H1673 0.950 . S
C1703 C1698 1.363 . S
C1703 C1702 1.415 . S
H1704 C1701 0.999 . S
H1705 C1686 0.913 . S
H1706 C1724 0.951 . S
H1707 C1726 0.951 . S
H1708 C1728 0.950 . S
H1709 C1729 0.950 . S
H1710 C1731 0.950 . S
H1711 C1734 0.950 . S
H1712 C1735 0.950 . S
H1713 C1737 0.950 . S
H1714 C1738 0.950 . S
H1715 C1739 0.951 . S
H1716 C1741 0.951 . S
H1717 C1743 0.950 . S
H1718 C1744 0.950 . S
H1719 C1746 0.950 . S
H1720 C1749 0.950 . S
H1721 C1750 0.950 . S
H1722 C1752 0.950 . S
H1723 C1753 0.950 . S
C1724 H1706 0.951 . S
C1724 C1725 1.366 . S
C1724 C1726 1.388 . S
C1725 C1724 1.366 . S
C1725 C1729 1.385 . S
C1726 H1707 0.951 . S
C1726 C1724 1.388 . S
C1726 C1727 1.366 . S
C1727 C1726 1.366 . S
C1727 C1728 1.414 . S
C1727 C1730 1.499 . S
C1728 H1708 0.950 . S
C1728 C1727 1.414 . S
C1728 C1729 1.374 . S
C1729 H1709 0.950 . S
C1729 C1725 1.385 . S
C1729 C1728 1.374 . S
C1730 C1727 1.499 . S
C1730 C1731 1.373 . S
C1730 C1732 1.389 . S
C1731 H1710 0.950 . S
C1731 C1730 1.373 . S
C1731 C1747 1.377 . S
C1732 C1730 1.389 . S
C1732 C1733 1.524 . S
C1732 C1746 1.377 . S
C1733 C1732 1.524 . S
C1733 C1734 1.397 . S
C1733 C1738 1.363 . S
C1734 H1711 0.950 . S
C1734 C1733 1.397 . S
C1734 C1735 1.334 . S
C1735 H1712 0.950 . S
C1735 C1734 1.334 . S
C1735 C1736 1.287 . S
C1736 C1735 1.287 . S
C1736 C1737 1.524 . S
C1736 H1755 0.913 . S
C1737 H1713 0.950 . S
C1737 C1736 1.524 . S
C1737 C1738 1.415 . S
C1738 H1714 0.950 . S
C1738 C1733 1.363 . S
C1738 C1737 1.415 . S
C1739 H1715 0.951 . S
C1739 C1740 1.366 . S
C1739 C1741 1.388 . S
C1740 C1739 1.366 . S
C1740 C1744 1.385 . S
C1741 H1716 0.951 . S
C1741 C1739 1.388 . S
C1741 C1742 1.366 . S
C1742 C1741 1.366 . S
C1742 C1743 1.414 . S
C1742 C1745 1.499 . S
C1743 H1717 0.950 . S
C1743 C1742 1.414 . S
C1743 C1744 1.374 . S
C1744 H1718 0.950 . S
C1744 C1740 1.385 . S
C1744 C1743 1.374 . S
C1745 C1742 1.499 . S
C1745 C1746 1.373 . S
C1745 C1747 1.389 . S
C1746 H1719 0.950 . S
C1746 C1732 1.377 . S
C1746 C1745 1.373 . S
C1747 C1731 1.377 . S
C1747 C1745 1.389 . S
C1747 C1748 1.524 . S
C1748 C1747 1.524 . S
C1748 C1749 1.397 . S
C1748 C1753 1.363 . S
C1749 H1720 0.950 . S
C1749 C1748 1.397 . S
C1749 C1750 1.334 . S
C1750 H1721 0.950 . S
C1750 C1749 1.334 . S
C1750 C1751 1.287 . S
C1751 C1750 1.287 . S
C1751 C1752 1.524 . S
C1751 H1754 0.999 . S
C1752 H1722 0.950 . S
C1752 C1751 1.524 . S
C1752 C1753 1.415 . S
C1753 H1723 0.950 . S
C1753 C1748 1.363 . S
C1753 C1752 1.415 . S
H1754 C1751 0.999 . S
H1755 C1736 0.913 . S
H1756 C1774 0.951 . S
H1757 C1776 0.951 . S
H1758 C1778 0.950 . S
H1759 C1779 0.950 . S
H1760 C1781 0.950 . S
H1761 C1784 0.950 . S
H1762 C1785 0.950 . S
H1763 C1787 0.950 . S
H1764 C1788 0.950 . S
H1765 C1789 0.951 . S
H1766 C1791 0.951 . S
H1767 C1793 0.950 . S
H1768 C1794 0.950 . S
H1769 C1796 0.950 . S
H1770 C1799 0.950 . S
H1771 C1800 0.950 . S
H1772 C1802 0.950 . S
H1773 C1803 0.950 . S
C1774 H1756 0.951 . S
C1774 C1775 1.366 . S
C1774 C1776 1.388 . S
C1775 C1774 1.366 . S
C1775 C1779 1.385 . S
C1776 H1757 0.951 . S
C1776 C1774 1.388 . S
C1776 C1777 1.366 . S
C1777 C1776 1.366 . S
C1777 C1778 1.414 . S
C1777 C1780 1.499 . S
C1778 H1758 0.950 . S
C1778 C1777 1.414 . S
C1778 C1779 1.374 . S
C1779 H1759 0.950 . S
C1779 C1775 1.385 . S
C1779 C1778 1.374 . S
C1780 C1777 1.499 . S
C1780 C1781 1.373 . S
C1780 C1782 1.389 . S
C1781 H1760 0.950 . S
C1781 C1780 1.373 . S
C1781 C1797 1.377 . S
C1782 C1780 1.389 . S
C1782 C1783 1.524 . S
C1782 C1796 1.377 . S
C1783 C1782 1.524 . S
C1783 C1784 1.397 . S
C1783 C1788 1.363 . S
C1784 H1761 0.950 . S
C1784 C1783 1.397 . S
C1784 C1785 1.334 . S
C1785 H1762 0.950 . S
C1785 C1784 1.334 . S
C1785 C1786 1.287 . S
C1786 C1785 1.287 . S
C1786 C1787 1.524 . S
C1786 H1805 0.913 . S
C1787 H1763 0.950 . S
C1787 C1786 1.524 . S
C1787 C1788 1.415 . S
C1788 H1764 0.950 . S
C1788 C1783 1.363 . S
C1788 C1787 1.415 . S
C1789 H1765 0.951 . S
C1789 C1790 1.366 . S
C1789 C1791 1.388 . S
C1790 C1789 1.366 . S
C1790 C1794 1.385 . S
C1791 H1766 0.951 . S
C1791 C1789 1.388 . S
C1791 C1792 1.366 . S
C1792 C1791 1.366 . S
C1792 C1793 1.414 . S
C1792 C1795 1.499 . S
C1793 H1767 0.950 . S
C1793 C1792 1.414 . S
C1793 C1794 1.374 . S
C1794 H1768 0.950 . S
C1794 C1790 1.385 . S
C1794 C1793 1.374 . S
C1795 C1792 1.499 . S
C1795 C1796 1.373 . S
C1795 C1797 1.389 . S
C1796 H1769 0.950 . S
C1796 C1782 1.377 . S
C1796 C1795 1.373 . S
C1797 C1781 1.377 . S
C1797 C1795 1.389 . S
C1797 C1798 1.524 . S
C1798 C1797 1.524 . S
C1798 C1799 1.397 . S
C1798 C1803 1.363 . S
C1799 H1770 0.950 . S
C1799 C1798 1.397 . S
C1799 C1800 1.334 . S
C1800 H1771 0.950 . S
C1800 C1799 1.334 . S
C1800 C1801 1.287 . S
C1801 C1800 1.287 . S
C1801 C1802 1.524 . S
C1801 H1804 0.999 . S
C1802 H1772 0.950 . S
C1802 C1801 1.524 . S
C1802 C1803 1.415 . S
C1803 H1773 0.950 . S
C1803 C1798 1.363 . S
C1803 C1802 1.415 . S
H1804 C1801 0.999 . S
H1805 C1786 0.913 . S
H1806 C1824 0.951 . S
H1807 C1826 0.951 . S
H1808 C1828 0.950 . S
H1809 C1829 0.950 . S
H1810 C1831 0.950 . S
H1811 C1834 0.950 . S
H1812 C1835 0.950 . S
H1813 C1837 0.950 . S
H1814 C1838 0.950 . S
H1815 C1839 0.951 . S
H1816 C1841 0.951 . S
H1817 C1843 0.950 . S
H1818 C1844 0.950 . S
H1819 C1846 0.950 . S
H1820 C1849 0.950 . S
H1821 C1850 0.950 . S
H1822 C1852 0.950 . S
H1823 C1853 0.950 . S
C1824 H1806 0.951 . S
C1824 C1825 1.366 . S
C1824 C1826 1.388 . S
C1825 C1824 1.366 . S
C1825 C1829 1.385 . S
C1826 H1807 0.951 . S
C1826 C1824 1.388 . S
C1826 C1827 1.366 . S
C1827 C1826 1.366 . S
C1827 C1828 1.414 . S
C1827 C1830 1.499 . S
C1828 H1808 0.950 . S
C1828 C1827 1.414 . S
C1828 C1829 1.374 . S
C1829 H1809 0.950 . S
C1829 C1825 1.385 . S
C1829 C1828 1.374 . S
C1830 C1827 1.499 . S
C1830 C1831 1.373 . S
C1830 C1832 1.389 . S
C1831 H1810 0.950 . S
C1831 C1830 1.373 . S
C1831 C1847 1.377 . S
C1832 C1830 1.389 . S
C1832 C1833 1.524 . S
C1832 C1846 1.377 . S
C1833 C1832 1.524 . S
C1833 C1834 1.397 . S
C1833 C1838 1.363 . S
C1834 H1811 0.950 . S
C1834 C1833 1.397 . S
C1834 C1835 1.334 . S
C1835 H1812 0.950 . S
C1835 C1834 1.334 . S
C1835 C1836 1.287 . S
C1836 C1835 1.287 . S
C1836 C1837 1.524 . S
C1836 H1855 0.913 . S
C1837 H1813 0.950 . S
C1837 C1836 1.524 . S
C1837 C1838 1.415 . S
C1838 H1814 0.950 . S
C1838 C1833 1.363 . S
C1838 C1837 1.415 . S
C1839 H1815 0.951 . S
C1839 C1840 1.366 . S
C1839 C1841 1.388 . S
C1840 C1839 1.366 . S
C1840 C1844 1.385 . S
C1841 H1816 0.951 . S
C1841 C1839 1.388 . S
C1841 C1842 1.366 . S
C1842 C1841 1.366 . S
C1842 C1843 1.414 . S
C1842 C1845 1.499 . S
C1843 H1817 0.950 . S
C1843 C1842 1.414 . S
C1843 C1844 1.374 . S
C1844 H1818 0.950 . S
C1844 C1840 1.385 . S
C1844 C1843 1.374 . S
C1845 C1842 1.499 . S
C1845 C1846 1.373 . S
C1845 C1847 1.389 . S
C1846 H1819 0.950 . S
C1846 C1832 1.377 . S
C1846 C1845 1.373 . S
C1847 C1831 1.377 . S
C1847 C1845 1.389 . S
C1847 C1848 1.524 . S
C1848 C1847 1.524 . S
C1848 C1849 1.397 . S
C1848 C1853 1.363 . S
C1849 H1820 0.950 . S
C1849 C1848 1.397 . S
C1849 C1850 1.334 . S
C1850 H1821 0.950 . S
C1850 C1849 1.334 . S
C1850 C1851 1.287 . S
C1851 C1850 1.287 . S
C1851 C1852 1.524 . S
C1851 H1854 0.999 . S
C1852 H1822 0.950 . S
C1852 C1851 1.524 . S
C1852 C1853 1.415 . S
C1853 H1823 0.950 . S
C1853 C1848 1.363 . S
C1853 C1852 1.415 . S
H1854 C1851 0.999 . S
H1855 C1836 0.913 . S
H1856 C1874 0.951 . S
H1857 C1876 0.951 . S
H1858 C1878 0.950 . S
H1859 C1879 0.950 . S
H1860 C1881 0.950 . S
H1861 C1884 0.950 . S
H1862 C1885 0.950 . S
H1863 C1887 0.950 . S
H1864 C1888 0.950 . S
H1865 C1889 0.951 . S
H1866 C1891 0.951 . S
H1867 C1893 0.950 . S
H1868 C1894 0.950 . S
H1869 C1896 0.950 . S
H1870 C1899 0.950 . S
H1871 C1900 0.950 . S
H1872 C1902 0.950 . S
H1873 C1903 0.950 . S
C1874 H1856 0.951 . S
C1874 C1875 1.366 . S
C1874 C1876 1.388 . S
C1875 C1874 1.366 . S
C1875 C1879 1.385 . S
C1876 H1857 0.951 . S
C1876 C1874 1.388 . S
C1876 C1877 1.366 . S
C1877 C1876 1.366 . S
C1877 C1878 1.414 . S
C1877 C1880 1.499 . S
C1878 H1858 0.950 . S
C1878 C1877 1.414 . S
C1878 C1879 1.374 . S
C1879 H1859 0.950 . S
C1879 C1875 1.385 . S
C1879 C1878 1.374 . S
C1880 C1877 1.499 . S
C1880 C1881 1.373 . S
C1880 C1882 1.389 . S
C1881 H1860 0.950 . S
C1881 C1880 1.373 . S
C1881 C1897 1.377 . S
C1882 C1880 1.389 . S
C1882 C1883 1.524 . S
C1882 C1896 1.377 . S
C1883 C1882 1.524 . S
C1883 C1884 1.397 . S
C1883 C1888 1.363 . S
C1884 H1861 0.950 . S
C1884 C1883 1.397 . S
C1884 C1885 1.334 . S
C1885 H1862 0.950 . S
C1885 C1884 1.334 . S
C1885 C1886 1.287 . S
C1886 C1885 1.287 . S
C1886 C1887 1.524 . S
C1886 H1905 0.913 . S
C1887 H1863 0.950 . S
C1887 C1886 1.524 . S
C1887 C1888 1.415 . S
C1888 H1864 0.950 . S
C1888 C1883 1.363 . S
C1888 C1887 1.415 . S
C1889 H1865 0.951 . S
C1889 C1890 1.366 . S
C1889 C1891 1.388 . S
C1890 C1889 1.366 . S
C1890 C1894 1.385 . S
C1891 H1866 0.951 . S
C1891 C1889 1.388 . S
C1891 C1892 1.366 . S
C1892 C1891 1.366 . S
C1892 C1893 1.414 . S
C1892 C1895 1.499 . S
C1893 H1867 0.950 . S
C1893 C1892 1.414 . S
C1893 C1894 1.374 . S
C1894 H1868 0.950 . S
C1894 C1890 1.385 . S
C1894 C1893 1.374 . S
C1895 C1892 1.499 . S
C1895 C1896 1.373 . S
C1895 C1897 1.389 . S
C1896 H1869 0.950 . S
C1896 C1882 1.377 . S
C1896 C1895 1.373 . S
C1897 C1881 1.377 . S
C1897 C1895 1.389 . S
C1897 C1898 1.524 . S
C1898 C1897 1.524 . S
C1898 C1899 1.397 . S
C1898 C1903 1.363 . S
C1899 H1870 0.950 . S
C1899 C1898 1.397 . S
C1899 C1900 1.334 . S
C1900 H1871 0.950 . S
C1900 C1899 1.334 . S
C1900 C1901 1.287 . S
C1901 C1900 1.287 . S
C1901 C1902 1.524 . S
C1901 H1904 0.999 . S
C1902 H1872 0.950 . S
C1902 C1901 1.524 . S
C1902 C1903 1.415 . S
C1903 H1873 0.950 . S
C1903 C1898 1.363 . S
C1903 C1902 1.415 . S
H1904 C1901 0.999 . S
H1905 C1886 0.913 . S
H1906 C1924 0.951 . S
H1907 C1926 0.951 . S
H1908 C1928 0.950 . S
H1909 C1929 0.950 . S
H1910 C1931 0.950 . S
H1911 C1934 0.950 . S
H1912 C1935 0.950 . S
H1913 C1937 0.950 . S
H1914 C1938 0.950 . S
H1915 C1939 0.951 . S
H1916 C1941 0.951 . S
H1917 C1943 0.950 . S
H1918 C1944 0.950 . S
H1919 C1946 0.950 . S
H1920 C1949 0.950 . S
H1921 C1950 0.950 . S
H1922 C1952 0.950 . S
H1923 C1953 0.950 . S
C1924 H1906 0.951 . S
C1924 C1925 1.366 . S
C1924 C1926 1.388 . S
C1925 C1924 1.366 . S
C1925 C1929 1.385 . S
C1926 H1907 0.951 . S
C1926 C1924 1.388 . S
C1926 C1927 1.366 . S
C1927 C1926 1.366 . S
C1927 C1928 1.414 . S
C1927 C1930 1.499 . S
C1928 H1908 0.950 . S
C1928 C1927 1.414 . S
C1928 C1929 1.374 . S
C1929 H1909 0.950 . S
C1929 C1925 1.385 . S
C1929 C1928 1.374 . S
C1930 C1927 1.499 . S
C1930 C1931 1.373 . S
C1930 C1932 1.389 . S
C1931 H1910 0.950 . S
C1931 C1930 1.373 . S
C1931 C1947 1.377 . S
C1932 C1930 1.389 . S
C1932 C1933 1.524 . S
C1932 C1946 1.377 . S
C1933 C1932 1.524 . S
C1933 C1934 1.397 . S
C1933 C1938 1.363 . S
C1934 H1911 0.950 . S
C1934 C1933 1.397 . S
C1934 C1935 1.334 . S
C1935 H1912 0.950 . S
C1935 C1934 1.334 . S
C1935 C1936 1.287 . S
C1936 C1935 1.287 . S
C1936 C1937 1.524 . S
C1936 H1955 0.913 . S
C1937 H1913 0.950 . S
C1937 C1936 1.524 . S
C1937 C1938 1.415 . S
C1938 H1914 0.950 . S
C1938 C1933 1.363 . S
C1938 C1937 1.415 . S
C1939 H1915 0.951 . S
C1939 C1940 1.366 . S
C1939 C1941 1.388 . S
C1940 C1939 1.366 . S
C1940 C1944 1.385 . S
C1941 H1916 0.951 . S
C1941 C1939 1.388 . S
C1941 C1942 1.366 . S
C1942 C1941 1.366 . S
C1942 C1943 1.414 . S
C1942 C1945 1.499 . S
C1943 H1917 0.950 . S
C1943 C1942 1.414 . S
C1943 C1944 1.374 . S
C1944 H1918 0.950 . S
C1944 C1940 1.385 . S
C1944 C1943 1.374 . S
C1945 C1942 1.499 . S
C1945 C1946 1.373 . S
C1945 C1947 1.389 . S
C1946 H1919 0.950 . S
C1946 C1932 1.377 . S
C1946 C1945 1.373 . S
C1947 C1931 1.377 . S
C1947 C1945 1.389 . S
C1947 C1948 1.524 . S
C1948 C1947 1.524 . S
C1948 C1949 1.397 . S
C1948 C1953 1.363 . S
C1949 H1920 0.950 . S
C1949 C1948 1.397 . S
C1949 C1950 1.334 . S
C1950 H1921 0.950 . S
C1950 C1949 1.334 . S
C1950 C1951 1.287 . S
C1951 C1950 1.287 . S
C1951 C1952 1.524 . S
C1951 H1954 0.999 . S
C1952 H1922 0.950 . S
C1952 C1951 1.524 . S
C1952 C1953 1.415 . S
C1953 H1923 0.950 . S
C1953 C1948 1.363 . S
C1953 C1952 1.415 . S
H1954 C1951 0.999 . S
H1955 C1936 0.913 . S
H1956 C1974 0.951 . S
H1957 C1976 0.951 . S
H1958 C1978 0.950 . S
H1959 C1979 0.950 . S
H1960 C1981 0.950 . S
H1961 C1984 0.950 . S
H1962 C1985 0.950 . S
H1963 C1987 0.950 . S
H1964 C1988 0.950 . S
H1965 C1989 0.951 . S
H1966 C1991 0.951 . S
H1967 C1993 0.950 . S
H1968 C1994 0.950 . S
H1969 C1996 0.950 . S
H1970 C1999 0.950 . S
H1971 C2000 0.950 . S
H1972 C2002 0.950 . S
H1973 C2003 0.950 . S
C1974 H1956 0.951 . S
C1974 C1975 1.366 . S
C1974 C1976 1.388 . S
C1975 C1974 1.366 . S
C1975 C1979 1.385 . S
C1976 H1957 0.951 . S
C1976 C1974 1.388 . S
C1976 C1977 1.366 . S
C1977 C1976 1.366 . S
C1977 C1978 1.414 . S
C1977 C1980 1.499 . S
C1978 H1958 0.950 . S
C1978 C1977 1.414 . S
C1978 C1979 1.374 . S
C1979 H1959 0.950 . S
C1979 C1975 1.385 . S
C1979 C1978 1.374 . S
C1980 C1977 1.499 . S
C1980 C1981 1.373 . S
C1980 C1982 1.389 . S
C1981 H1960 0.950 . S
C1981 C1980 1.373 . S
C1981 C1997 1.377 . S
C1982 C1980 1.389 . S
C1982 C1983 1.524 . S
C1982 C1996 1.377 . S
C1983 C1982 1.524 . S
C1983 C1984 1.397 . S
C1983 C1988 1.363 . S
C1984 H1961 0.950 . S
C1984 C1983 1.397 . S
C1984 C1985 1.334 . S
C1985 H1962 0.950 . S
C1985 C1984 1.334 . S
C1985 C1986 1.287 . S
C1986 C1985 1.287 . S
C1986 C1987 1.524 . S
C1986 H2005 0.913 . S
C1987 H1963 0.950 . S
C1987 C1986 1.524 . S
C1987 C1988 1.415 . S
C1988 H1964 0.950 . S
C1988 C1983 1.363 . S
C1988 C1987 1.415 . S
C1989 H1965 0.951 . S
C1989 C1990 1.366 . S
C1989 C1991 1.388 . S
C1990 C1989 1.366 . S
C1990 C1994 1.385 . S
C1991 H1966 0.951 . S
C1991 C1989 1.388 . S
C1991 C1992 1.366 . S
C1992 C1991 1.366 . S
C1992 C1993 1.414 . S
C1992 C1995 1.499 . S
C1993 H1967 0.950 . S
C1993 C1992 1.414 . S
C1993 C1994 1.374 . S
C1994 H1968 0.950 . S
C1994 C1990 1.385 . S
C1994 C1993 1.374 . S
C1995 C1992 1.499 . S
C1995 C1996 1.373 . S
C1995 C1997 1.389 . S
C1996 H1969 0.950 . S
C1996 C1982 1.377 . S
C1996 C1995 1.373 . S
C1997 C1981 1.377 . S
C1997 C1995 1.389 . S
C1997 C1998 1.524 . S
C1998 C1997 1.524 . S
C1998 C1999 1.397 . S
C1998 C2003 1.363 . S
C1999 H1970 0.950 . S
C1999 C1998 1.397 . S
C1999 C2000 1.334 . S
C2000 H1971 0.950 . S
C2000 C1999 1.334 . S
C2000 C2001 1.287 . S
C2001 C2000 1.287 . S
C2001 C2002 1.524 . S
C2001 H2004 0.999 . S
C2002 H1972 0.950 . S
C2002 C2001 1.524 . S
C2002 C2003 1.415 . S
C2003 H1973 0.950 . S
C2003 C1998 1.363 . S
C2003 C2002 1.415 . S
H2004 C2001 0.999 . S
H2005 C1986 0.913 . S
H2006 C2024 0.951 . S
H2007 C2026 0.951 . S
H2008 C2028 0.950 1_455 S
H2009 C2029 0.950 . S
H2010 C2031 0.962 . S
H2011 C2034 0.950 1_455 S
H2012 C2035 0.943 1_455 S
H2013 C2037 0.950 . S
H2014 C2038 0.950 . S
H2015 C2039 0.951 . S
H2016 C2041 0.951 . S
H2017 C2043 0.950 1_655 S
H2018 C2044 0.950 . S
H2019 C2046 0.962 . S
H2020 C2049 0.950 1_655 S
H2021 C2050 0.944 1_655 S
H2022 C2052 0.950 . S
H2023 C2053 0.950 . S
C2024 H2006 0.951 . S
C2024 C2025 1.366 . S
C2024 C2026 1.388 . S
C2025 C2024 1.366 . S
C2025 C2029 1.385 . S
C2026 H2007 0.951 . S
C2026 C2024 1.388 . S
C2026 C2027 1.366 . S
C2027 C2026 1.366 . S
C2027 C2028 1.414 . S
C2027 C2030 1.499 . S
C2028 H2008 0.950 1_655 S
C2028 C2027 1.414 . S
C2028 C2029 1.374 . S
C2029 H2009 0.950 . S
C2029 C2025 1.385 . S
C2029 C2028 1.374 . S
C2030 C2027 1.499 . S
C2030 C2031 1.354 1_655 S
C2030 C2032 1.389 . S
C2031 H2010 0.962 . S
C2031 C2030 1.354 1_455 S
C2031 C2047 1.384 . S
C2032 C2030 1.389 . S
C2032 C2033 1.524 . S
C2032 C2046 1.384 . S
C2033 C2032 1.524 . S
C2033 C2034 1.397 . S
C2033 C2038 1.363 . S
C2034 H2011 0.950 1_655 S
C2034 C2033 1.397 . S
C2034 C2035 1.334 . S
C2035 H2012 0.943 1_655 S
C2035 C2034 1.334 . S
C2035 C2036 1.287 . S
C2036 C2035 1.287 . S
C2036 C2037 1.524 . S
C2036 H2055 0.913 . S
C2037 H2013 0.950 . S
C2037 C2036 1.524 . S
C2037 C2038 1.415 . S
C2038 H2014 0.950 . S
C2038 C2033 1.363 . S
C2038 C2037 1.415 . S
C2039 H2015 0.951 . S
C2039 C2040 1.366 . S
C2039 C2041 1.388 . S
C2040 C2039 1.366 . S
C2040 C2044 1.385 . S
C2041 H2016 0.951 . S
C2041 C2039 1.388 . S
C2041 C2042 1.366 . S
C2042 C2041 1.366 . S
C2042 C2043 1.414 . S
C2042 C2045 1.499 . S
C2043 H2017 0.950 1_455 S
C2043 C2042 1.414 . S
C2043 C2044 1.374 . S
C2044 H2018 0.950 . S
C2044 C2040 1.385 . S
C2044 C2043 1.374 . S
C2045 C2042 1.499 . S
C2045 C2046 1.355 1_455 S
C2045 C2047 1.389 . S
C2046 H2019 0.962 . S
C2046 C2032 1.384 . S
C2046 C2045 1.355 1_655 S
C2047 C2031 1.384 . S
C2047 C2045 1.389 . S
C2047 C2048 1.524 . S
C2048 C2047 1.524 . S
C2048 C2049 1.397 . S
C2048 C2053 1.363 . S
C2049 H2020 0.950 1_455 S
C2049 C2048 1.397 . S
C2049 C2050 1.334 . S
C2050 H2021 0.944 1_455 S
C2050 C2049 1.334 . S
C2050 C2051 1.287 . S
C2051 C2050 1.287 . S
C2051 C2052 1.524 . S
C2051 H2054 0.999 . S
C2052 H2022 0.950 . S
C2052 C2051 1.524 . S
C2052 C2053 1.415 . S
C2053 H2023 0.950 . S
C2053 C2048 1.363 . S
C2053 C2052 1.415 . S
H2054 C2051 0.999 . S
H2055 C2036 0.913 . S
H2056 C2074 0.951 . S
H2057 C2076 0.951 . S
H2058 C2078 0.950 . S
H2059 C2079 0.950 . S
H2060 C2081 0.950 . S
H2061 C2084 0.950 . S
H2062 C2085 0.950 . S
H2063 C2087 0.934 1_556 S
H2064 C2088 0.954 1_556 S
H2065 C2089 0.951 . S
H2066 C2091 0.951 . S
H2067 C2093 0.950 . S
H2068 C2094 0.950 . S
H2069 C2096 0.950 . S
H2070 C2099 0.950 . S
H2071 C2100 0.950 . S
H2072 C2102 0.934 1_554 S
H2073 C2103 0.954 1_554 S
C2074 H2056 0.951 . S
C2074 C2075 1.366 . S
C2074 C2076 1.388 . S
C2075 C2074 1.366 . S
C2075 C2079 1.385 . S
C2076 H2057 0.951 . S
C2076 C2074 1.388 . S
C2076 C2077 1.366 . S
C2077 C2076 1.366 . S
C2077 C2078 1.414 . S
C2077 C2080 1.499 . S
C2078 H2058 0.950 . S
C2078 C2077 1.414 . S
C2078 C2079 1.374 . S
C2079 H2059 0.950 . S
C2079 C2075 1.385 . S
C2079 C2078 1.374 . S
C2080 C2077 1.499 . S
C2080 C2081 1.373 1_545 S
C2080 C2082 1.389 . S
C2081 H2060 0.950 . S
C2081 C2080 1.373 1_565 S
C2081 C2097 1.377 1_554 S
C2082 C2080 1.389 . S
C2082 C2083 1.524 . S
C2082 C2096 1.377 1_554 S
C2083 C2082 1.524 . S
C2083 C2084 1.397 . S
C2083 C2088 1.360 . S
C2084 H2061 0.950 . S
C2084 C2083 1.397 . S
C2084 C2085 1.334 . S
C2085 H2062 0.950 . S
C2085 C2084 1.334 . S
C2085 C2086 1.287 . S
C2086 C2085 1.287 . S
C2086 C2087 1.552 . S
C2086 H2105 0.913 . S
C2087 H2063 0.934 1_554 S
C2087 C2086 1.552 . S
C2087 C2088 1.412 . S
C2088 H2064 0.954 1_554 S
C2088 C2083 1.360 . S
C2088 C2087 1.412 . S
C2089 H2065 0.951 . S
C2089 C2090 1.366 . S
C2089 C2091 1.388 . S
C2090 C2089 1.366 . S
C2090 C2094 1.385 . S
C2091 H2066 0.951 . S
C2091 C2089 1.388 . S
C2091 C2092 1.366 . S
C2092 C2091 1.366 . S
C2092 C2093 1.414 . S
C2092 C2095 1.499 . S
C2093 H2067 0.950 . S
C2093 C2092 1.414 . S
C2093 C2094 1.374 . S
C2094 H2068 0.950 . S
C2094 C2090 1.385 . S
C2094 C2093 1.374 . S
C2095 C2092 1.499 . S
C2095 C2096 1.373 1_565 S
C2095 C2097 1.389 . S
C2096 H2069 0.950 . S
C2096 C2082 1.377 1_556 S
C2096 C2095 1.373 1_545 S
C2097 C2081 1.377 1_556 S
C2097 C2095 1.389 . S
C2097 C2098 1.524 . S
C2098 C2097 1.524 . S
C2098 C2099 1.397 . S
C2098 C2103 1.360 . S
C2099 H2070 0.950 . S
C2099 C2098 1.397 . S
C2099 C2100 1.334 . S
C2100 H2071 0.950 . S
C2100 C2099 1.334 . S
C2100 C2101 1.287 . S
C2101 C2100 1.287 . S
C2101 C2102 1.552 . S
C2101 H2104 0.999 . S
C2102 H2072 0.934 1_556 S
C2102 C2101 1.552 . S
C2102 C2103 1.412 . S
C2103 H2073 0.954 1_556 S
C2103 C2098 1.360 . S
C2103 C2102 1.412 . S
H2104 C2101 0.999 . S
H2105 C2086 0.913 . S
H2106 C2124 0.951 . S
H2107 C2126 0.951 . S
H2108 C2128 0.950 . S
H2109 C2129 0.950 . S
H2110 C2131 0.950 . S
H2111 C2134 0.950 . S
H2112 C2135 0.950 . S
H2113 C2137 0.950 . S
H2114 C2138 0.950 . S
H2115 C2139 0.951 . S
H2116 C2141 0.951 . S
H2117 C2143 0.950 . S
H2118 C2144 0.950 . S
H2119 C2146 0.950 . S
H2120 C2149 0.950 . S
H2121 C2150 0.950 . S
H2122 C2152 0.950 . S
H2123 C2153 0.950 . S
C2124 H2106 0.951 . S
C2124 C2125 1.366 . S
C2124 C2126 1.388 . S
C2125 C2124 1.366 . S
C2125 C2129 1.385 . S
C2126 H2107 0.951 . S
C2126 C2124 1.388 . S
C2126 C2127 1.366 . S
C2127 C2126 1.366 . S
C2127 C2128 1.414 . S
C2127 C2130 1.499 . S
C2128 H2108 0.950 . S
C2128 C2127 1.414 . S
C2128 C2129 1.374 . S
C2129 H2109 0.950 . S
C2129 C2125 1.385 . S
C2129 C2128 1.374 . S
C2130 C2127 1.499 . S
C2130 C2131 1.373 . S
C2130 C2132 1.389 . S
C2131 H2110 0.950 . S
C2131 C2130 1.373 . S
C2131 C2147 1.377 . S
C2132 C2130 1.389 . S
C2132 C2133 1.524 . S
C2132 C2146 1.377 . S
C2133 C2132 1.524 . S
C2133 C2134 1.397 . S
C2133 C2138 1.363 . S
C2134 H2111 0.950 . S
C2134 C2133 1.397 . S
C2134 C2135 1.334 . S
C2135 H2112 0.950 . S
C2135 C2134 1.334 . S
C2135 C2136 1.287 . S
C2136 C2135 1.287 . S
C2136 C2137 1.524 . S
C2136 H2155 0.913 . S
C2137 H2113 0.950 . S
C2137 C2136 1.524 . S
C2137 C2138 1.415 . S
C2138 H2114 0.950 . S
C2138 C2133 1.363 . S
C2138 C2137 1.415 . S
C2139 H2115 0.951 . S
C2139 C2140 1.366 . S
C2139 C2141 1.388 . S
C2140 C2139 1.366 . S
C2140 C2144 1.385 . S
C2141 H2116 0.951 . S
C2141 C2139 1.388 . S
C2141 C2142 1.366 . S
C2142 C2141 1.366 . S
C2142 C2143 1.414 . S
C2142 C2145 1.499 . S
C2143 H2117 0.950 . S
C2143 C2142 1.414 . S
C2143 C2144 1.374 . S
C2144 H2118 0.950 . S
C2144 C2140 1.385 . S
C2144 C2143 1.374 . S
C2145 C2142 1.499 . S
C2145 C2146 1.373 . S
C2145 C2147 1.389 . S
C2146 H2119 0.950 . S
C2146 C2132 1.377 . S
C2146 C2145 1.373 . S
C2147 C2131 1.377 . S
C2147 C2145 1.389 . S
C2147 C2148 1.524 . S
C2148 C2147 1.524 . S
C2148 C2149 1.397 . S
C2148 C2153 1.363 . S
C2149 H2120 0.950 . S
C2149 C2148 1.397 . S
C2149 C2150 1.334 . S
C2150 H2121 0.950 . S
C2150 C2149 1.334 . S
C2150 C2151 1.287 . S
C2151 C2150 1.287 . S
C2151 C2152 1.524 . S
C2151 H2154 0.999 . S
C2152 H2122 0.950 . S
C2152 C2151 1.524 . S
C2152 C2153 1.415 . S
C2153 H2123 0.950 . S
C2153 C2148 1.363 . S
C2153 C2152 1.415 . S
H2154 C2151 0.999 . S
H2155 C2136 0.913 . S
H2156 C2174 0.951 . S
H2157 C2176 0.951 1_655 S
H2158 C2178 0.950 . S
H2159 C2179 0.950 . S
H2160 C2181 0.950 . S
H2161 C2184 0.950 . S
H2162 C2185 0.950 . S
H2163 C2187 0.950 . S
H2164 C2188 0.950 . S
H2165 C2189 0.951 . S
H2166 C2191 0.951 1_455 S
H2167 C2193 0.950 . S
H2168 C2194 0.950 . S
H2169 C2196 0.950 . S
H2170 C2199 0.950 . S
H2171 C2200 0.950 . S
H2172 C2202 0.950 . S
H2173 C2203 0.950 . S
C2174 H2156 0.951 . S
C2174 C2175 1.366 . S
C2174 C2176 1.388 . S
C2175 C2174 1.366 . S
C2175 C2179 1.385 . S
C2176 H2157 0.951 1_455 S
C2176 C2174 1.388 . S
C2176 C2177 1.366 . S
C2177 C2176 1.366 . S
C2177 C2178 1.414 . S
C2177 C2180 1.499 . S
C2178 H2158 0.950 . S
C2178 C2177 1.414 . S
C2178 C2179 1.374 . S
C2179 H2159 0.950 . S
C2179 C2175 1.385 . S
C2179 C2178 1.374 . S
C2180 C2177 1.499 . S
C2180 C2181 1.373 . S
C2180 C2182 1.389 1_455 S
C2181 H2160 0.950 . S
C2181 C2180 1.373 . S
C2181 C2197 1.377 . S
C2182 C2180 1.389 1_655 S
C2182 C2183 1.524 . S
C2182 C2196 1.377 . S
C2183 C2182 1.524 . S
C2183 C2184 1.397 1_655 S
C2183 C2188 1.363 . S
C2184 H2161 0.950 . S
C2184 C2183 1.397 1_455 S
C2184 C2185 1.334 . S
C2185 H2162 0.950 . S
C2185 C2184 1.334 . S
C2185 C2186 1.287 1_455 S
C2186 C2185 1.287 1_655 S
C2186 C2187 1.524 . S
C2186 H2205 0.913 . S
C2187 H2163 0.950 . S
C2187 C2186 1.524 . S
C2187 C2188 1.415 . S
C2188 H2164 0.950 . S
C2188 C2183 1.363 . S
C2188 C2187 1.415 . S
C2189 H2165 0.951 . S
C2189 C2190 1.366 . S
C2189 C2191 1.388 . S
C2190 C2189 1.366 . S
C2190 C2194 1.385 . S
C2191 H2166 0.951 1_655 S
C2191 C2189 1.388 . S
C2191 C2192 1.366 . S
C2192 C2191 1.366 . S
C2192 C2193 1.414 . S
C2192 C2195 1.499 . S
C2193 H2167 0.950 . S
C2193 C2192 1.414 . S
C2193 C2194 1.374 . S
C2194 H2168 0.950 . S
C2194 C2190 1.385 . S
C2194 C2193 1.374 . S
C2195 C2192 1.499 . S
C2195 C2196 1.373 . S
C2195 C2197 1.389 1_655 S
C2196 H2169 0.950 . S
C2196 C2182 1.377 . S
C2196 C2195 1.373 . S
C2197 C2181 1.377 . S
C2197 C2195 1.389 1_455 S
C2197 C2198 1.524 . S
C2198 C2197 1.524 . S
C2198 C2199 1.397 1_455 S
C2198 C2203 1.363 . S
C2199 H2170 0.950 . S
C2199 C2198 1.397 1_655 S
C2199 C2200 1.334 . S
C2200 H2171 0.950 . S
C2200 C2199 1.334 . S
C2200 C2201 1.287 1_655 S
C2201 C2200 1.287 1_455 S
C2201 C2202 1.524 . S
C2201 H2204 0.999 . S
C2202 H2172 0.950 . S
C2202 C2201 1.524 . S
C2202 C2203 1.415 . S
C2203 H2173 0.950 . S
C2203 C2198 1.363 . S
C2203 C2202 1.415 . S
H2204 C2201 0.999 . S
H2205 C2186 0.913 . S
H2206 C2224 0.951 . S
H2207 C2226 0.951 . S
H2208 C2228 0.950 . S
H2209 C2229 0.950 . S
H2210 C2231 0.950 . S
H2211 C2234 0.950 . S
H2212 C2235 0.950 . S
H2213 C2237 0.950 . S
H2214 C2238 0.950 . S
H2215 C2239 0.951 . S
H2216 C2241 0.951 . S
H2217 C2243 0.950 . S
H2218 C2244 0.950 . S
H2219 C2246 0.950 . S
H2220 C2249 0.950 . S
H2221 C2250 0.950 . S
H2222 C2252 0.950 . S
H2223 C2253 0.950 . S
C2224 H2206 0.951 . S
C2224 C2225 1.366 . S
C2224 C2226 1.388 . S
C2225 C2224 1.366 . S
C2225 C2229 1.385 . S
C2226 H2207 0.951 . S
C2226 C2224 1.388 . S
C2226 C2227 1.366 . S
C2227 C2226 1.366 . S
C2227 C2228 1.414 . S
C2227 C2230 1.499 . S
C2228 H2208 0.950 . S
C2228 C2227 1.414 . S
C2228 C2229 1.374 . S
C2229 H2209 0.950 . S
C2229 C2225 1.385 . S
C2229 C2228 1.374 . S
C2230 C2227 1.499 . S
C2230 C2231 1.373 . S
C2230 C2232 1.389 1_565 S
C2231 H2210 0.950 . S
C2231 C2230 1.373 . S
C2231 C2247 1.377 1_554 S
C2232 C2230 1.389 1_545 S
C2232 C2233 1.524 . S
C2232 C2246 1.377 1_554 S
C2233 C2232 1.524 . S
C2233 C2234 1.397 . S
C2233 C2238 1.363 . S
C2234 H2211 0.950 . S
C2234 C2233 1.397 . S
C2234 C2235 1.334 . S
C2235 H2212 0.950 . S
C2235 C2234 1.334 . S
C2235 C2236 1.287 . S
C2236 C2235 1.287 . S
C2236 C2237 1.524 . S
C2236 H2255 0.913 . S
C2237 H2213 0.950 . S
C2237 C2236 1.524 . S
C2237 C2238 1.415 . S
C2238 H2214 0.950 . S
C2238 C2233 1.363 . S
C2238 C2237 1.415 . S
C2239 H2215 0.951 . S
C2239 C2240 1.366 . S
C2239 C2241 1.388 . S
C2240 C2239 1.366 . S
C2240 C2244 1.385 . S
C2241 H2216 0.951 . S
C2241 C2239 1.388 . S
C2241 C2242 1.366 . S
C2242 C2241 1.366 . S
C2242 C2243 1.414 . S
C2242 C2245 1.499 . S
C2243 H2217 0.950 . S
C2243 C2242 1.414 . S
C2243 C2244 1.374 . S
C2244 H2218 0.950 . S
C2244 C2240 1.385 . S
C2244 C2243 1.374 . S
C2245 C2242 1.499 . S
C2245 C2246 1.373 . S
C2245 C2247 1.389 1_545 S
C2246 H2219 0.950 . S
C2246 C2232 1.377 1_556 S
C2246 C2245 1.373 . S
C2247 C2231 1.377 1_556 S
C2247 C2245 1.389 1_565 S
C2247 C2248 1.524 . S
C2248 C2247 1.524 . S
C2248 C2249 1.397 . S
C2248 C2253 1.363 . S
C2249 H2220 0.950 . S
C2249 C2248 1.397 . S
C2249 C2250 1.334 . S
C2250 H2221 0.950 . S
C2250 C2249 1.334 . S
C2250 C2251 1.287 . S
C2251 C2250 1.287 . S
C2251 C2252 1.524 . S
C2251 H2254 0.999 . S
C2252 H2222 0.950 . S
C2252 C2251 1.524 . S
C2252 C2253 1.415 . S
C2253 H2223 0.950 . S
C2253 C2248 1.363 . S
C2253 C2252 1.415 . S
H2254 C2251 0.999 . S
H2255 C2236 0.913 . S
C1075 C1017 1.645 . S
C1090 C20 1.646 . S
C1125 C108 1.645 . S
C1140 C585 1.645 . S
C1175 C205 1.645 . S
C1190 C673 1.645 . S
C1225 C284 1.645 . S
C1240 C761 1.645 . S
C1275 C841 1.645 . S
C1290 C372 1.645 . S
C1325 C469 1.645 . S
C1340 C937 1.645 . S
C1375 C313 1.279 . S
C1390 C49 1.279 . S
C1425 C401 1.279 . S
C1440 C137 1.279 . S
C1475 C497 1.278 . S
C1490 C233 1.279 . S
C1525 C557 1.278 . S
C1540 C812 1.278 . S
C1575 C645 1.278 . S
C1590 C909 1.278 . S
C1625 C733 1.277 . S
C1640 C988 1.278 . S
C1675 C724 0.648 . S
C1690 C57 0.648 . S
C1725 C145 0.648 . S
C1740 C821 0.648 . S
C1775 C900 0.648 . S
C1790 C225 0.648 . S
C1825 C997 0.648 . S
C1840 C321 0.649 . S
C1875 C548 0.648 . S
C1890 C409 0.648 . S
C1925 C489 0.648 . S
C1940 C636 0.649 . S
C1975 C849 1.717 . S
C1990 C29 1.717 . S
C2025 C117 1.717 . S
C2040 C929 1.717 . S
C2075 C1025 1.716 . S
C2090 C196 1.716 . S
C2125 C293 1.717 . S
C2140 C577 1.717 . S
C2175 C381 1.717 . S
C2190 C665 1.717 . S
C2225 C753 1.717 . S
C2240 C460 1.717 . S
