# Generated by pormake.
# Topology etd, (3)-cn, num edge types: 1
# Building blocks:
#     Node 0, Type 0, BuildingBlock: OLANEW_clean_sbu_2, # of connection points: 3
#     Node 1, Type 0, BuildingBlock: OLANEW_clean_sbu_2, # of connection points: 3
#     Node 2, Type 0, BuildingBlock: OLANEW_clean_sbu_2, # of connection points: 3
#     Node 3, Type 0, BuildingBlock: OLANEW_clean_sbu_2, # of connection points: 3
#     Node 4, Type 0, BuildingBlock: OLANEW_clean_sbu_2, # of connection points: 3
#     Node 5, Type 0, BuildingBlock: OLANEW_clean_sbu_2, # of connection points: 3
#     Node 6, Type 0, BuildingBlock: OLANEW_clean_sbu_2, # of connection points: 3
#     Node 7, Type 0, BuildingBlock: OLANEW_clean_sbu_2, # of connection points: 3
#     Node 8, Type 0, BuildingBlock: OLANEW_clean_sbu_2, # of connection points: 3
#     Node 9, Type 0, BuildingBlock: OLANEW_clean_sbu_2, # of connection points: 3
#     Node 10, Type 0, BuildingBlock: OLANEW_clean_sbu_2, # of connection points: 3
#     Node 11, Type 0, BuildingBlock: OLANEW_clean_sbu_2, # of connection points: 3
#     Edge 12, Type (0, 0), BuildingBlock: UVAHIK_clean_linker_0, # of connection points: 2
#     Edge 13, Type (0, 0), BuildingBlock: UVAHIK_clean_linker_0, # of connection points: 2
#     Edge 14, Type (0, 0), BuildingBlock: UVAHIK_clean_linker_0, # of connection points: 2
#     Edge 15, Type (0, 0), BuildingBlock: UVAHIK_clean_linker_0, # of connection points: 2
#     Edge 16, Type (0, 0), BuildingBlock: UVAHIK_clean_linker_0, # of connection points: 2
#     Edge 17, Type (0, 0), BuildingBlock: UVAHIK_clean_linker_0, # of connection points: 2
#     Edge 18, Type (0, 0), BuildingBlock: UVAHIK_clean_linker_0, # of connection points: 2
#     Edge 19, Type (0, 0), BuildingBlock: UVAHIK_clean_linker_0, # of connection points: 2
#     Edge 20, Type (0, 0), BuildingBlock: UVAHIK_clean_linker_0, # of connection points: 2
#     Edge 21, Type (0, 0), BuildingBlock: UVAHIK_clean_linker_0, # of connection points: 2
#     Edge 22, Type (0, 0), BuildingBlock: UVAHIK_clean_linker_0, # of connection points: 2
#     Edge 23, Type (0, 0), BuildingBlock: UVAHIK_clean_linker_0, # of connection points: 2
#     Edge 24, Type (0, 0), BuildingBlock: UVAHIK_clean_linker_0, # of connection points: 2
#     Edge 25, Type (0, 0), BuildingBlock: UVAHIK_clean_linker_0, # of connection points: 2
#     Edge 26, Type (0, 0), BuildingBlock: UVAHIK_clean_linker_0, # of connection points: 2
#     Edge 27, Type (0, 0), BuildingBlock: UVAHIK_clean_linker_0, # of connection points: 2
#     Edge 28, Type (0, 0), BuildingBlock: UVAHIK_clean_linker_0, # of connection points: 2
#     Edge 29, Type (0, 0), BuildingBlock: UVAHIK_clean_linker_0, # of connection points: 2
# Relax obj value: 0.002
# Max RMSD: 0.058
# Mean RMSD: 0.058
data_MOF--net-etd--node1-OLANEW_clean_sbu_2--edge1-UVAHIK_clean_linker_0
_symmetry_space_group_name_H-M    P1
_symmetry_Int_Tables_number       1
_symmetry_cell_setting            triclinic
loop_
_symmetry_equiv_pos_as_xyz
'x, y, z'
_cell_length_a     77.892524
_cell_length_b     77.867337
_cell_length_c     58.189876
_cell_angle_alpha  89.996784
_cell_angle_beta   90.0038
_cell_angle_gamma 119.99184
loop_
_atom_site_label
_atom_site_type_symbol
_atom_site_fract_x
_atom_site_fract_y
_atom_site_fract_z
_atom_type_partial_charge
O0 O 0.59595 0.12442 0.11863 0.0
Cd1 Cd 0.60322 0.12621 0.07755 0.0
O2 O 0.58146 0.14148 0.11027 0.0
Cd3 Cd 0.56772 0.15968 0.11606 0.0
O4 O 0.55897 0.18211 0.11176 0.0
C5 C 0.56166 0.19451 0.12751 0.0
O6 O 0.56923 0.19334 0.14723 0.0
C7 C 0.58659 0.13301 0.12526 0.0
C8 C 0.5862 0.08932 0.05603 0.0
O9 O 0.60388 0.0975 0.06405 0.0
O10 O 0.57649 0.09851 0.05843 0.0
O11 O 0.47295 0.60175 0.29269 0.0
Cd12 Cd 0.47987 0.61026 0.252 0.0
O13 O 0.44175 0.58865 0.28323 0.0
Cd14 Cd 0.40978 0.5758 0.28798 0.0
O15 O 0.3789 0.56788 0.28298 0.0
C16 C 0.36999 0.57288 0.29746 0.0
O17 O 0.37936 0.58231 0.31621 0.0
C18 C 0.45483 0.5928 0.29864 0.0
C19 C 0.49792 0.59159 0.23001 0.0
O20 O 0.50829 0.60888 0.23886 0.0
O21 O 0.47901 0.58303 0.2318 0.0
O22 O 0.87356 0.4711 0.45368 0.0
Cd23 Cd 0.87116 0.47695 0.41283 0.0
O24 O 0.85683 0.43967 0.44476 0.0
Cd25 Cd 0.83904 0.40761 0.44993 0.0
O26 O 0.81703 0.37638 0.4451 0.0
C27 C 0.80394 0.36669 0.46023 0.0
O28 O 0.80419 0.3755 0.47959 0.0
C29 C 0.86525 0.45308 0.45996 0.0
C30 C 0.90752 0.49594 0.39011 0.0
O31 O 0.9 0.50587 0.39874 0.0
O32 O 0.89794 0.47705 0.39249 0.0
O33 O 0.39301 0.87049 0.62615 0.0
Cd34 Cd 0.38309 0.86927 0.58607 0.0
O35 O 0.40633 0.85297 0.61499 0.0
Cd36 Cd 0.41988 0.83432 0.61804 0.0
O37 O 0.42861 0.81203 0.6122 0.0
C38 C 0.42822 0.80638 0.59161 0.0
O39 O 0.4231 0.81448 0.57514 0.0
C40 C 0.40244 0.86158 0.63107 0.0
C41 C 0.40345 0.90573 0.5637 0.0
O42 O 0.38675 0.90021 0.5735 0.0
O43 O 0.41061 0.89408 0.56467 0.0
O44 O 0.52455 0.39733 0.79383 0.0
Cd45 Cd 0.51729 0.3885 0.75326 0.0
O46 O 0.55564 0.41016 0.78405 0.0
Cd47 Cd 0.58767 0.4229 0.78806 0.0
O48 O 0.61817 0.43043 0.78075 0.0
C49 C 0.62148 0.42616 0.76076 0.0
O50 O 0.60672 0.4179 0.74607 0.0
C51 C 0.54271 0.40624 0.79959 0.0
C52 C 0.49961 0.40744 0.73107 0.0
O53 O 0.48908 0.39026 0.74014 0.0
O54 O 0.51851 0.41575 0.73274 0.0
O55 O 0.13085 0.524 0.95598 0.0
Cd56 Cd 0.13207 0.51498 0.91602 0.0
O57 O 0.14711 0.55478 0.94427 0.0
Cd58 Cd 0.16463 0.58709 0.94702 0.0
O59 O 0.18636 0.61831 0.9415 0.0
C60 C 0.19779 0.62908 0.95749 0.0
O61 O 0.196 0.62138 0.97805 0.0
C62 C 0.13909 0.54239 0.96058 0.0
C63 C 0.09549 0.49839 0.89387 0.0
O64 O 0.10121 0.48741 0.90379 0.0
O65 O 0.107 0.51723 0.89459 0.0
O66 O 0.87552 0.40056 0.70691 0.0
Cd67 Cd 0.87396 0.39298 0.74789 0.0
O68 O 0.8577 0.41413 0.71564 0.0
Cd69 Cd 0.83876 0.42711 0.71029 0.0
O70 O 0.81596 0.4353 0.71497 0.0
C71 C 0.8018 0.42985 0.70073 0.0
O72 O 0.80142 0.4198 0.68241 0.0
C73 C 0.86648 0.40952 0.7005 0.0
C74 C 0.91083 0.41101 0.76951 0.0
O75 O 0.90327 0.39344 0.76126 0.0
O76 O 0.90104 0.42014 0.76729 0.0
O77 O 0.47852 0.86887 0.87071 0.0
Cd78 Cd 0.48776 0.86781 0.9106 0.0
O79 O 0.44778 0.8523 0.88244 0.0
Cd80 Cd 0.41548 0.8345 0.8798 0.0
O81 O 0.38427 0.81269 0.88541 0.0
C82 C 0.37864 0.80736 0.90599 0.0
O83 O 0.39162 0.81552 0.92268 0.0
C84 C 0.46013 0.86046 0.86613 0.0
C85 C 0.50346 0.90433 0.93277 0.0
O86 O 0.51478 0.89907 0.92277 0.0
O87 O 0.4847 0.89236 0.93213 0.0
O88 O 0.60284 0.47622 0.04294 0.0
Cd89 Cd 0.61177 0.48413 0.0834 0.0
O90 O 0.5886 0.44517 0.05352 0.0
Cd91 Cd 0.57453 0.41296 0.04988 0.0
O92 O 0.5655 0.38186 0.05576 0.0
C93 C 0.56681 0.37687 0.07621 0.0
O94 O 0.57301 0.39039 0.09245 0.0
C95 C 0.5932 0.45796 0.03763 0.0
C96 C 0.59217 0.50138 0.10503 0.0
O97 O 0.60926 0.5121 0.09585 0.0
O98 O 0.58426 0.48249 0.10376 0.0
O99 O 0.12659 0.60749 0.20064 0.0
Cd100 Cd 0.12699 0.61689 0.24079 0.0
O101 O 0.14483 0.59503 0.21198 0.0
Cd102 Cd 0.16435 0.58243 0.20937 0.0
O103 O 0.18712 0.57467 0.21689 0.0
C104 C 0.19432 0.57837 0.23708 0.0
O105 O 0.18757 0.58625 0.25198 0.0
C106 C 0.1361 0.59863 0.19579 0.0
C107 C 0.09027 0.59578 0.26245 0.0
O108 O 0.09566 0.61253 0.25282 0.0
O109 O 0.10217 0.58892 0.26161 0.0
O110 O 0.52579 0.12331 0.3727 0.0
Cd111 Cd 0.51988 0.1252 0.41364 0.0
O112 O 0.55717 0.14081 0.38156 0.0
Cd113 Cd 0.58917 0.15949 0.37661 0.0
O114 O 0.61998 0.18208 0.38303 0.0
C115 C 0.62426 0.18862 0.40348 0.0
O116 O 0.61025 0.18125 0.41917 0.0
C117 C 0.54381 0.13216 0.36636 0.0
C118 C 0.5011 0.08857 0.43582 0.0
O119 O 0.49108 0.09607 0.4274 0.0
O120 O 0.51999 0.0983 0.43348 0.0
O121 O 0.3964 0.52377 0.54249 0.0
Cd122 Cd 0.38759 0.51603 0.583 0.0
O123 O 0.4105 0.55483 0.55298 0.0
Cd124 Cd 0.42435 0.58699 0.54915 0.0
O125 O 0.43313 0.61807 0.55448 0.0
C126 C 0.43161 0.62848 0.53866 0.0
O127 O 0.42525 0.62053 0.5183 0.0
C128 C 0.40594 0.54203 0.53712 0.0
C129 C 0.40697 0.49858 0.60472 0.0
O130 O 0.38984 0.48794 0.5956 0.0
O131 O 0.41503 0.51749 0.60333 0.0
C132 C 0.59529 0.13296 0.16655 0.0
C133 C 0.58252 0.13362 0.14998 0.0
C134 C 0.59151 0.13332 0.18997 0.0
C135 C 0.56285 0.14587 0.23084 0.0
H136 H 0.57284 0.11309 0.27273 0.0
C137 C 0.53543 0.13193 0.3249 0.0
C138 C 0.54881 0.13289 0.34173 0.0
C139 C 0.53992 0.1325 0.30157 0.0
C140 C 0.57017 0.12248 0.26128 0.0
H141 H 0.55526 0.1342 0.14496 0.0
H142 H 0.54859 0.1348 0.18578 0.0
H143 H 0.57973 0.11303 0.23189 0.0
H144 H 0.57698 0.13427 0.3473 0.0
H145 H 0.58498 0.13553 0.30653 0.0
H146 H 0.553 0.15506 0.26029 0.0
C147 C 0.56188 0.13463 0.18072 0.0
C148 C 0.57415 0.12248 0.23786 0.0
C149 C 0.56574 0.13438 0.15729 0.0
C150 C 0.56664 0.1341 0.33476 0.0
C151 C 0.57108 0.13452 0.3114 0.0
C152 C 0.55876 0.14577 0.25425 0.0
C153 C 0.57473 0.13411 0.19737 0.0
C154 C 0.57054 0.13418 0.22233 0.0
C155 C 0.55778 0.13378 0.29455 0.0
C156 C 0.56237 0.13408 0.26973 0.0
H157 H 0.60836 0.13238 0.16141 0.0
H158 H 0.60188 0.13318 0.20226 0.0
H159 H 0.5602 0.1553 0.21947 0.0
H160 H 0.52151 0.13088 0.32977 0.0
H161 H 0.52925 0.13162 0.289 0.0
C162 C 0.39858 0.53548 0.49524 0.0
C163 C 0.41084 0.54797 0.5128 0.0
C164 C 0.40314 0.54084 0.47218 0.0
C165 C 0.44475 0.57168 0.43379 0.0
H166 H 0.40353 0.56464 0.39103 0.0
C167 C 0.46258 0.59997 0.34037 0.0
C168 C 0.4494 0.58804 0.32311 0.0
C169 C 0.45773 0.59551 0.36355 0.0
C170 C 0.41518 0.56648 0.40267 0.0
H171 H 0.43796 0.57546 0.51994 0.0
H172 H 0.4458 0.585 0.47966 0.0
H173 H 0.39536 0.55609 0.43142 0.0
H174 H 0.42121 0.56155 0.3166 0.0
H175 H 0.41271 0.55367 0.35703 0.0
H176 H 0.46453 0.58176 0.40508 0.0
C177 C 0.43256 0.57112 0.48375 0.0
C178 C 0.4105 0.56162 0.42583 0.0
C179 C 0.42791 0.56581 0.50684 0.0
C180 C 0.43136 0.5714 0.32949 0.0
C181 C 0.42654 0.56685 0.35269 0.0
C182 C 0.44942 0.57643 0.41061 0.0
C183 C 0.4202 0.5587 0.46617 0.0
C184 C 0.42523 0.56416 0.44164 0.0
C185 C 0.43967 0.57885 0.37003 0.0
C186 C 0.43469 0.57389 0.39474 0.0
H187 H 0.38537 0.52157 0.49933 0.0
H188 H 0.39347 0.53083 0.45903 0.0
H189 H 0.45637 0.57352 0.44549 0.0
H190 H 0.4766 0.61291 0.33595 0.0
H191 H 0.46809 0.60524 0.3764 0.0
C192 C 0.86434 0.43023 0.66882 0.0
C193 C 0.86572 0.41372 0.67586 0.0
C194 C 0.86394 0.43422 0.64545 0.0
C195 C 0.87671 0.42311 0.58802 0.0
H196 H 0.84269 0.44276 0.56616 0.0
C197 C 0.86434 0.43053 0.49134 0.0
C198 C 0.86483 0.44807 0.48454 0.0
C199 C 0.86416 0.42606 0.51466 0.0
C200 C 0.85238 0.43743 0.57204 0.0
H201 H 0.8679 0.3885 0.664 0.0
H202 H 0.86685 0.3952 0.62326 0.0
H203 H 0.8428 0.43542 0.6069 0.0
H204 H 0.86581 0.47485 0.49677 0.0
H205 H 0.86551 0.46707 0.53747 0.0
H206 H 0.88615 0.42498 0.55309 0.0
C207 C 0.86634 0.40527 0.63572 0.0
C208 C 0.85249 0.43326 0.5954 0.0
C209 C 0.86685 0.40136 0.65907 0.0
C210 C 0.86532 0.46115 0.50151 0.0
C211 C 0.865 0.45663 0.5248 0.0
C212 C 0.87651 0.42717 0.56466 0.0
C213 C 0.86493 0.42178 0.62859 0.0
C214 C 0.86469 0.42609 0.6037 0.0
C215 C 0.86444 0.43905 0.53164 0.0
C216 C 0.86439 0.43442 0.55642 0.0
H217 H 0.86415 0.44042 0.68132 0.0
H218 H 0.86329 0.44731 0.6406 0.0
H219 H 0.88656 0.41795 0.59384 0.0
H220 H 0.86456 0.42046 0.47871 0.0
H221 H 0.86369 0.41238 0.51939 0.0
C222 C 0.39654 0.86164 0.67324 0.0
C223 C 0.40804 0.86077 0.65516 0.0
C224 C 0.40176 0.86108 0.69609 0.0
C225 C 0.43204 0.84731 0.73257 0.0
H226 H 0.42629 0.8809 0.77748 0.0
C227 C 0.46538 0.85996 0.82386 0.0
C228 C 0.45351 0.85975 0.84216 0.0
C229 C 0.45943 0.85956 0.80112 0.0
C230 C 0.42777 0.87126 0.7652 0.0
H231 H 0.43458 0.85966 0.64687 0.0
H232 H 0.44372 0.85865 0.68671 0.0
H233 H 0.41688 0.88134 0.73764 0.0
H234 H 0.42655 0.85988 0.85096 0.0
H235 H 0.41593 0.8588 0.81125 0.0
H236 H 0.44316 0.83743 0.76016 0.0
C237 C 0.43031 0.85915 0.68326 0.0
C238 C 0.42236 0.8715 0.74236 0.0
C239 C 0.42503 0.85962 0.66039 0.0
C240 C 0.4357 0.85941 0.83726 0.0
C241 C 0.42978 0.85913 0.8145 0.0
C242 C 0.43753 0.84714 0.75541 0.0
C243 C 0.41873 0.85985 0.7014 0.0
C244 C 0.42443 0.85953 0.72574 0.0
C245 C 0.44158 0.85917 0.79618 0.0
C246 C 0.43547 0.85913 0.77198 0.0
H247 H 0.38335 0.86253 0.66972 0.0
H248 H 0.39236 0.8614 0.70959 0.0
H249 H 0.43353 0.83766 0.72032 0.0
H250 H 0.47926 0.86034 0.82712 0.0
H251 H 0.46898 0.85989 0.78739 0.0
C252 C 0.60042 0.46438 0.99571 0.0
C253 C 0.58817 0.45199 0.01334 0.0
C254 C 0.59572 0.45901 0.97267 0.0
C255 C 0.55381 0.42844 0.93451 0.0
H256 H 0.59463 0.43476 0.89154 0.0
C257 C 0.5352 0.39953 0.84141 0.0
C258 C 0.54835 0.41118 0.82398 0.0
C259 C 0.54021 0.40417 0.86453 0.0
C260 C 0.5831 0.43313 0.90324 0.0
H261 H 0.56092 0.42467 0.02063 0.0
H262 H 0.55281 0.41513 0.98038 0.0
H263 H 0.60306 0.44346 0.93187 0.0
H264 H 0.57669 0.43737 0.81711 0.0
H265 H 0.58548 0.44558 0.85743 0.0
H266 H 0.53389 0.41842 0.90594 0.0
C267 C 0.56616 0.42893 0.9844 0.0
C268 C 0.58793 0.43807 0.92636 0.0
C269 C 0.57096 0.43424 0.00747 0.0
C270 C 0.56654 0.42773 0.83014 0.0
C271 C 0.57152 0.43247 0.85328 0.0
C272 C 0.549 0.42361 0.91138 0.0
C273 C 0.57851 0.44125 0.96676 0.0
C274 C 0.57334 0.43577 0.94225 0.0
C275 C 0.55841 0.42074 0.87078 0.0
C276 C 0.56357 0.42588 0.89543 0.0
H277 H 0.61374 0.47822 0.99973 0.0
H278 H 0.60539 0.46895 0.95947 0.0
H279 H 0.54231 0.42679 0.94628 0.0
H280 H 0.52107 0.38665 0.83718 0.0
H281 H 0.52987 0.39463 0.87751 0.0
C282 C 0.13983 0.5372 0.00283 0.0
C283 C 0.1398 0.54897 0.98456 0.0
C284 C 0.14021 0.54311 0.02558 0.0
C285 C 0.12773 0.57409 0.06157 0.0
H286 H 0.16188 0.56921 0.10641 0.0
C287 C 0.13617 0.60469 0.15366 0.0
C288 C 0.13738 0.59336 0.1717 0.0
C289 C 0.13706 0.59971 0.1308 0.0
C290 C 0.15208 0.57045 0.09418 0.0
H291 H 0.13925 0.57575 0.97583 0.0
H292 H 0.14027 0.58629 0.01556 0.0
H293 H 0.1624 0.55979 0.06654 0.0
H294 H 0.13953 0.56736 0.1799 0.0
H295 H 0.14106 0.5586 0.14003 0.0
H296 H 0.11717 0.58446 0.08917 0.0
C297 C 0.14015 0.57255 0.01227 0.0
C298 C 0.15242 0.56509 0.07132 0.0
C299 C 0.1399 0.56668 0.9895 0.0
C300 C 0.13926 0.57678 0.16641 0.0
C301 C 0.14004 0.57172 0.14352 0.0
C302 C 0.12731 0.57935 0.08444 0.0
C303 C 0.14032 0.56083 0.03056 0.0
C304 C 0.14023 0.56684 0.05477 0.0
C305 C 0.13894 0.58312 0.12542 0.0
C306 C 0.13948 0.5776 0.10105 0.0
H307 H 0.13965 0.52341 0.99953 0.0
H308 H 0.14006 0.53363 0.03929 0.0
H309 H 0.11794 0.57531 0.0493 0.0
H310 H 0.13473 0.61757 0.15722 0.0
H311 H 0.13644 0.60899 0.11734 0.0
C312 C 0.562 0.22558 0.1397 0.0
C313 C 0.55787 0.21104 0.12291 0.0
C314 C 0.55991 0.24201 0.13469 0.0
C315 C 0.56054 0.27199 0.08563 0.0
H316 H 0.54069 0.29507 0.12989 0.0
C317 C 0.55588 0.34189 0.06432 0.0
C318 C 0.56244 0.35648 0.08154 0.0
C319 C 0.55279 0.32296 0.06922 0.0
C320 C 0.5464 0.28887 0.11739 0.0
H321 H 0.54754 0.20197 0.08797 0.0
H322 H 0.5438 0.23054 0.07933 0.0
H323 H 0.53974 0.26398 0.13893 0.0
H324 H 0.57047 0.36247 0.11756 0.0
H325 H 0.5654 0.32966 0.12599 0.0
H326 H 0.56763 0.29702 0.06429 0.0
C327 C 0.54893 0.22939 0.09625 0.0
C328 C 0.54584 0.27106 0.12258 0.0
C329 C 0.55098 0.21296 0.10126 0.0
C330 C 0.5654 0.35158 0.10388 0.0
C331 C 0.56236 0.3327 0.10876 0.0
C332 C 0.56115 0.2898 0.08047 0.0
C333 C 0.55367 0.24426 0.11278 0.0
C334 C 0.55308 0.26252 0.10684 0.0
C335 C 0.55622 0.31822 0.09145 0.0
C336 C 0.55429 0.29858 0.09638 0.0
H337 H 0.56732 0.22455 0.15655 0.0
H338 H 0.56385 0.25329 0.14774 0.0
H339 H 0.56653 0.26597 0.07327 0.0
H340 H 0.55333 0.34514 0.04696 0.0
H341 H 0.54778 0.31207 0.05556 0.0
C342 C 0.2178 0.56604 0.22791 0.0
C343 C 0.21051 0.57458 0.2436 0.0
C344 C 0.2336 0.5632 0.23393 0.0
C345 C 0.26202 0.56104 0.28406 0.0
H346 H 0.30371 0.57516 0.23909 0.0
C347 C 0.34038 0.57599 0.30769 0.0
C348 C 0.34992 0.56956 0.29232 0.0
C349 C 0.32211 0.5742 0.30204 0.0
C350 C 0.29207 0.57086 0.25175 0.0
H351 H 0.21392 0.58656 0.27804 0.0
H352 H 0.24157 0.5819 0.28836 0.0
H353 H 0.27411 0.57641 0.22853 0.0
H354 H 0.34738 0.55554 0.25928 0.0
H355 H 0.31547 0.55232 0.24952 0.0
H356 H 0.28024 0.5559 0.30742 0.0
C357 C 0.23493 0.57711 0.27153 0.0
C358 C 0.27508 0.57156 0.24568 0.0
C359 C 0.21914 0.57991 0.26554 0.0
C360 C 0.3405 0.56076 0.27147 0.0
C361 C 0.32226 0.559 0.2658 0.0
C362 C 0.27905 0.56038 0.29015 0.0
C363 C 0.24246 0.56886 0.25575 0.0
C364 C 0.25993 0.56687 0.26183 0.0
C365 C 0.31299 0.56596 0.28087 0.0
C366 C 0.29435 0.56547 0.27412 0.0
H367 H 0.21142 0.56168 0.2109 0.0
H368 H 0.23886 0.55656 0.22147 0.0
H369 H 0.25049 0.55701 0.2968 0.0
H370 H 0.34722 0.58283 0.3239 0.0
H371 H 0.31545 0.57987 0.31394 0.0
C372 C 0.77249 0.33592 0.47132 0.0
C373 C 0.78769 0.34633 0.45523 0.0
C374 C 0.75634 0.31736 0.46585 0.0
C375 C 0.72845 0.28775 0.41589 0.0
H376 H 0.70386 0.24499 0.46022 0.0
C377 C 0.65952 0.21287 0.39287 0.0
C378 C 0.64437 0.20486 0.40943 0.0
C379 C 0.67821 0.22882 0.39837 0.0
C380 C 0.71048 0.25684 0.44769 0.0
H381 H 0.79821 0.34503 0.42109 0.0
H382 H 0.7701 0.31262 0.41165 0.0
H383 H 0.73448 0.27523 0.47023 0.0
H384 H 0.6371 0.2071 0.4449 0.0
H385 H 0.66948 0.23504 0.45435 0.0
H386 H 0.70427 0.26963 0.39354 0.0
C387 C 0.77054 0.31894 0.42836 0.0
C388 C 0.72803 0.27415 0.45343 0.0
C389 C 0.78669 0.33748 0.43384 0.0
C390 C 0.64843 0.21289 0.43172 0.0
C391 C 0.66707 0.22885 0.4372 0.0
C392 C 0.71088 0.27048 0.41018 0.0
C393 C 0.75503 0.30881 0.44417 0.0
C394 C 0.7371 0.28988 0.43768 0.0
C395 C 0.68214 0.23714 0.42055 0.0
C396 C 0.70156 0.2549 0.4261 0.0
H397 H 0.7728 0.3423 0.48796 0.0
H398 H 0.74456 0.31001 0.47834 0.0
H399 H 0.73489 0.29971 0.40348 0.0
H400 H 0.65691 0.20695 0.37557 0.0
H401 H 0.68957 0.23468 0.38523 0.0
C402 C 0.44121 0.65678 0.56591 0.0
C403 C 0.43548 0.64875 0.54373 0.0
C404 C 0.44337 0.67525 0.57123 0.0
C405 C 0.449 0.72132 0.54558 0.0
H406 H 0.42449 0.72428 0.60231 0.0
C407 C 0.43044 0.78309 0.56373 0.0
C408 C 0.4324 0.79022 0.58632 0.0
C409 C 0.43325 0.7671 0.55883 0.0
C410 C 0.43172 0.72386 0.5866 0.0
H411 H 0.42817 0.65419 0.50952 0.0
H412 H 0.4318 0.68638 0.51886 0.0
H413 H 0.42523 0.69418 0.5931 0.0
H414 H 0.43948 0.78655 0.62138 0.0
H415 H 0.44463 0.75879 0.61277 0.0
H416 H 0.45525 0.75095 0.53896 0.0
C417 C 0.43477 0.67843 0.5321 0.0
C418 C 0.43213 0.70657 0.5813 0.0
C419 C 0.43258 0.65992 0.52678 0.0
C420 C 0.43773 0.78133 0.60382 0.0
C421 C 0.44059 0.76536 0.5989 0.0
C422 C 0.44863 0.73865 0.5509 0.0
C423 C 0.43988 0.68615 0.55449 0.0
C424 C 0.44059 0.70502 0.56063 0.0
C425 C 0.43814 0.75789 0.57639 0.0
C426 C 0.43978 0.74004 0.57136 0.0
H427 H 0.44369 0.64863 0.57935 0.0
H428 H 0.44761 0.68093 0.58854 0.0
H429 H 0.45587 0.72068 0.52966 0.0
H430 H 0.42633 0.78958 0.54984 0.0
H431 H 0.431 0.76159 0.54136 0.0
C432 C 0.64446 0.42381 0.73255 0.0
C433 C 0.64139 0.42975 0.75424 0.0
C434 C 0.663 0.42647 0.72655 0.0
C435 C 0.70903 0.43285 0.75234 0.0
H436 H 0.72903 0.44673 0.69006 0.0
C437 C 0.78487 0.4428 0.72622 0.0
C438 C 0.78517 0.43337 0.70573 0.0
C439 C 0.76849 0.44476 0.73181 0.0
C440 C 0.72358 0.44274 0.70749 0.0
H441 H 0.65554 0.44358 0.78648 0.0
H442 H 0.688 0.44843 0.77589 0.0
H443 H 0.69832 0.44592 0.70065 0.0
H444 H 0.76872 0.41917 0.67471 0.0
H445 H 0.74009 0.42249 0.68454 0.0
H446 H 0.73417 0.42945 0.75913 0.0
C447 C 0.67596 0.44144 0.76364 0.0
C448 C 0.70598 0.44226 0.71356 0.0
C449 C 0.65739 0.43874 0.76967 0.0
C450 C 0.76897 0.4265 0.69063 0.0
C451 C 0.7526 0.4285 0.6962 0.0
C452 C 0.72665 0.43338 0.74629 0.0
C453 C 0.67895 0.43519 0.74207 0.0
C454 C 0.69836 0.43706 0.73599 0.0
C455 C 0.75204 0.43738 0.71702 0.0
C456 C 0.73401 0.43811 0.72373 0.0
H457 H 0.63246 0.41681 0.72026 0.0
H458 H 0.66467 0.42122 0.70993 0.0
H459 H 0.70345 0.4285 0.76967 0.0
H460 H 0.79715 0.44837 0.73819 0.0
H461 H 0.76863 0.45193 0.74781 0.0
C462 C 0.21641 0.6573 0.93012 0.0
C463 C 0.21394 0.64948 0.95244 0.0
C464 C 0.23255 0.67589 0.92486 0.0
C465 C 0.27215 0.7225 0.9506 0.0
H466 H 0.30066 0.72535 0.89478 0.0
C467 C 0.35261 0.78445 0.93365 0.0
C468 C 0.35818 0.79137 0.91104 0.0
C469 C 0.33373 0.76851 0.93832 0.0
C470 C 0.29271 0.72496 0.91022 0.0
H471 H 0.22613 0.65542 0.98694 0.0
H472 H 0.2544 0.6878 0.9777 0.0
H473 H 0.26987 0.69514 0.90373 0.0
H474 H 0.34801 0.78743 0.8757 0.0
H475 H 0.31497 0.75976 0.88391 0.0
H476 H 0.2952 0.75227 0.95723 0.0
C477 C 0.24376 0.67961 0.9643 0.0
C478 C 0.27505 0.70761 0.91537 0.0
C479 C 0.22761 0.66098 0.96957 0.0
C480 C 0.34425 0.78237 0.89329 0.0
C481 C 0.32533 0.76644 0.89798 0.0
C482 C 0.28982 0.73989 0.94542 0.0
C483 C 0.2466 0.68712 0.94179 0.0
C484 C 0.26467 0.70609 0.93573 0.0
C485 C 0.31995 0.75915 0.92051 0.0
C486 C 0.30044 0.74125 0.9253 0.0
H487 H 0.20608 0.64889 0.91655 0.0
H488 H 0.23415 0.6814 0.90744 0.0
H489 H 0.26435 0.72188 0.96626 0.0
H490 H 0.36298 0.79104 0.94773 0.0
H491 H 0.33019 0.76314 0.95582 0.0
C492 C 0.58915 0.06167 0.03811 0.0
C493 C 0.5774 0.07004 0.04395 0.0
C494 C 0.58101 0.04377 0.02605 0.0
C495 C 0.53399 0.99866 0.01307 0.0
H496 H 0.56251 0.99449 0.96073 0.0
C497 C 0.49935 0.93034 0.95328 0.0
C498 C 0.51182 0.92353 0.94496 0.0
C499 C 0.50724 0.94835 0.96509 0.0
C500 C 0.55446 0.99528 0.97548 0.0
H501 H 0.54781 0.06606 0.04198 0.0
H502 H 0.53356 0.03469 0.02109 0.0
H503 H 0.57653 0.02542 0.98231 0.0
H504 H 0.54234 0.93022 0.94258 0.0
H505 H 0.55605 0.96134 0.96363 0.0
H506 H 0.51208 0.96846 0.00658 0.0
C507 C 0.54907 0.042 0.02587 0.0
C508 C 0.56249 0.01304 0.9878 0.0
C509 C 0.55726 0.06 0.03773 0.0
C510 C 0.53234 0.93511 0.94866 0.0
C511 C 0.54021 0.95304 0.96063 0.0
C512 C 0.52603 0.98083 0.00088 0.0
C513 C 0.5609 0.03378 0.01976 0.0
C514 C 0.55234 0.01491 0.00672 0.0
C515 C 0.52777 0.95989 0.96901 0.0
C516 C 0.53616 0.97891 0.98191 0.0
H517 H 0.60472 0.06903 0.04264 0.0
H518 H 0.59042 0.03767 0.02178 0.0
H519 H 0.52595 -0.00039 0.02774 0.0
H520 H 0.48348 0.92181 0.9506 0.0
H521 H 0.49723 0.9533 0.97095 0.0
C522 C 0.56235 0.49888 0.12462 0.0
C523 C 0.58204 0.51054 0.11713 0.0
C524 C 0.55294 0.50748 0.13649 0.0
C525 C 0.5567 0.55612 0.14875 0.0
H526 H 0.52165 0.52743 0.19942 0.0
C527 C 0.52782 0.59266 0.21252 0.0
C528 C 0.50747 0.58196 0.21767 0.0
C529 C 0.53673 0.58378 0.2002 0.0
C530 C 0.53128 0.53554 0.18519 0.0
H531 H 0.60731 0.54037 0.11627 0.0
H532 H 0.59112 0.55529 0.13742 0.0
H533 H 0.53756 0.51233 0.17788 0.0
H534 H 0.48058 0.55345 0.21421 0.0
H535 H 0.49622 0.53791 0.19287 0.0
H536 H 0.55065 0.57947 0.15642 0.0
C537 C 0.58274 0.53957 0.13372 0.0
C538 C 0.54035 0.52687 0.17277 0.0
C539 C 0.59209 0.53099 0.12168 0.0
C540 C 0.49628 0.5621 0.21051 0.0
C541 C 0.50525 0.55317 0.19838 0.0
C542 C 0.54776 0.56484 0.1613 0.0
C543 C 0.56305 0.52793 0.14131 0.0
C544 C 0.5532 0.53706 0.15439 0.0
C545 C 0.52553 0.56396 0.19297 0.0
C546 C 0.53497 0.55465 0.17965 0.0
H547 H 0.55415 0.48309 0.12126 0.0
H548 H 0.53766 0.49811 0.14171 0.0
H549 H 0.5662 0.56426 0.13445 0.0
H550 H 0.53685 0.60798 0.21779 0.0
H551 H 0.55244 0.59239 0.19648 0.0
C552 C 0.05963 0.59395 0.27871 0.0
C553 C 0.07105 0.58489 0.27458 0.0
C554 C 0.04181 0.58394 0.29085 0.0
C555 C 0.0143 0.54189 0.33106 0.0
H556 H 0.96993 0.54879 0.31437 0.0
C557 C 0.9359 0.49542 0.37047 0.0
C558 C 0.92647 0.50597 0.37734 0.0
C559 C 0.95357 0.50481 0.35794 0.0
C560 C 0.98226 0.54685 0.31933 0.0
H561 H 0.07252 0.55806 0.27956 0.0
H562 H 0.04118 0.54038 0.30021 0.0
H563 H 0.00039 0.56523 0.2919 0.0
H564 H 0.92823 0.53467 0.37648 0.0
H565 H 0.95901 0.55099 0.35446 0.0
H566 H 0.99594 0.52323 0.35831 0.0
C567 C 0.0462 0.55541 0.29456 0.0
C568 C -0.00026 0.5563 0.3065 0.0
C569 C 0.06412 0.56549 0.28258 0.0
C570 C 0.93513 0.52612 0.37146 0.0
C571 C 0.95268 0.53545 0.35874 0.0
C572 C 0.99674 0.53229 0.34376 0.0
C573 C 0.03487 0.56455 0.29899 0.0
C574 C 0.01605 0.55405 0.31228 0.0
C575 C 0.96206 0.52488 0.35181 0.0
C576 C 0.98059 0.53477 0.33811 0.0
H577 H 0.06461 0.60893 0.27289 0.0
H578 H 0.03367 0.59159 0.29423 0.0
H579 H 0.02664 0.54006 0.33627 0.0
H580 H 0.9296 0.47988 0.37473 0.0
H581 H 0.9604 0.49627 0.35269 0.0
C582 C 0.47101 0.06063 0.45419 0.0
C583 C 0.49118 0.06949 0.44836 0.0
C584 C 0.4618 0.04299 0.46677 0.0
C585 C 0.46545 0.99912 0.48153 0.0
H586 H 0.43251 0.9951 0.53354 0.0
C587 C 0.43335 0.93196 0.54307 0.0
C588 C 0.41398 0.92484 0.55125 0.0
C589 C 0.44312 0.94981 0.5309 0.0
C590 C 0.44144 0.99584 0.51889 0.0
H591 H 0.51742 0.0666 0.45082 0.0
H592 H 0.50123 0.03565 0.47261 0.0
H593 H 0.44859 0.02557 0.51105 0.0
H594 H 0.38965 0.93082 0.55305 0.0
H595 H 0.40646 0.96164 0.53137 0.0
H596 H 0.45805 0.96931 0.48901 0.0
C597 C 0.49259 0.0424 0.46745 0.0
C598 C 0.45068 0.01333 0.50605 0.0
C599 C 0.50186 0.06016 0.45506 0.0
C600 C 0.40462 0.93597 0.54709 0.0
C601 C 0.41432 0.95372 0.53476 0.0
C602 C 0.45606 0.98154 0.49424 0.0
C603 C 0.4725 0.03372 0.47358 0.0
C604 C 0.46276 0.01515 0.48723 0.0
C605 C 0.43369 0.96087 0.52647 0.0
C606 C 0.44391 0.97967 0.51309 0.0
H607 H 0.46237 0.06744 0.44929 0.0
H608 H 0.44625 0.03651 0.47105 0.0
H609 H 0.47451 3e-05 0.46694 0.0
H610 H 0.44101 0.92379 0.54611 0.0
H611 H 0.45815 0.95501 0.52513 0.0
C612 C 0.46987 0.40668 0.71354 0.0
C613 C 0.49024 0.41719 0.7186 0.0
C614 C 0.46113 0.41566 0.70109 0.0
C615 C 0.46722 0.46403 0.68544 0.0
H616 H 0.43205 0.43519 0.63493 0.0
C617 C 0.43669 0.50087 0.62433 0.0
C618 C 0.41697 0.48933 0.61692 0.0
C619 C 0.44597 0.49218 0.63632 0.0
C620 C 0.44161 0.44337 0.64916 0.0
H621 H 0.51736 0.44547 0.71485 0.0
H622 H 0.50201 0.46119 0.69327 0.0
H623 H 0.44731 0.41983 0.65717 0.0
H624 H 0.39147 0.45962 0.61631 0.0
H625 H 0.40743 0.44456 0.63768 0.0
H626 H 0.46128 0.48743 0.67781 0.0
C627 C 0.49283 0.446 0.69896 0.0
C628 C 0.45039 0.43457 0.66186 0.0
C629 C 0.50163 0.43696 0.71122 0.0
C630 C 0.40673 0.4689 0.62167 0.0
C631 C 0.41594 0.46024 0.63382 0.0
C632 C 0.4583 0.47278 0.67288 0.0
C633 C 0.47253 0.43539 0.69362 0.0
C634 C 0.46327 0.4448 0.68014 0.0
C635 C 0.43567 0.47177 0.64135 0.0
C636 C 0.44537 0.46256 0.65457 0.0
H637 H 0.46069 0.39143 0.71898 0.0
H638 H 0.4454 0.40719 0.69743 0.0
H639 H 0.47692 0.47218 0.69961 0.0
H640 H 0.44502 0.51663 0.62083 0.0
H641 H 0.46127 0.50146 0.64149 0.0
C642 C 0.9391 0.40912 0.78737 0.0
C643 C 0.93009 0.42033 0.78168 0.0
C644 C 0.95695 0.41772 0.79954 0.0
C645 C 0.00094 0.46548 0.81316 0.0
H646 H 0.00604 0.43724 0.8652 0.0
C647 C 0.06891 0.50159 0.8734 0.0
C648 C 0.07628 0.48955 0.88161 0.0
C649 C 0.05093 0.49326 0.8615 0.0
C650 C 0.005 0.44523 0.85053 0.0
H651 H 0.9329 0.44944 0.78401 0.0
H652 H 0.96421 0.4645 0.80509 0.0
H653 H 0.97521 0.42246 0.84338 0.0
H654 H 0.07061 0.45935 0.88369 0.0
H655 H 0.03955 0.44489 0.86247 0.0
H656 H 0.03081 0.48809 0.81995 0.0
C657 C 0.95742 0.44905 0.80011 0.0
C658 C 0.98729 0.43676 0.83808 0.0
C659 C 0.93946 0.4404 0.78814 0.0
C660 C 0.06528 0.46902 0.87771 0.0
C661 C 0.04739 0.46071 0.86564 0.0
C662 C 0.01872 0.47388 0.82548 0.0
C663 C 0.96627 0.43776 0.80608 0.0
C664 C 0.98509 0.44679 0.81927 0.0
C665 C 0.03997 0.47272 0.85736 0.0
C666 C 0.02098 0.46386 0.84433 0.0
H667 H 0.93225 0.39362 0.78265 0.0
H668 H 0.96354 0.40872 0.8037 0.0
H669 H -0.00027 0.47345 0.79857 0.0
H670 H 0.07699 0.51746 0.87625 0.0
H671 H 0.04553 0.50293 0.85573 0.0
loop_
_geom_bond_atom_site_label_1
_geom_bond_atom_site_label_2
_geom_bond_distance
_geom_bond_site_symmetry_2
_ccdc_geom_bond_type
O0 Cd1 2.300 . S
O0 C7 1.275 . S
Cd1 O0 2.300 . S
Cd1 O9 2.381 . S
Cd1 O10 2.378 . S
O2 Cd3 2.385 . S
O2 C7 1.255 . S
Cd3 O2 2.385 . S
Cd3 O4 2.317 . S
O4 Cd3 2.317 . S
O4 C5 1.232 . S
C5 O4 1.232 . S
C5 O6 1.218 . S
O6 C5 1.218 . S
C7 O0 1.275 . S
C7 O2 1.255 . S
C8 O9 1.258 . S
C8 O10 1.256 . S
O9 Cd1 2.381 . S
O9 C8 1.258 . S
O10 Cd1 2.378 . S
O10 C8 1.256 . S
O11 Cd12 2.300 . S
O11 C18 1.275 . S
Cd12 O11 2.300 . S
Cd12 O20 2.381 . S
Cd12 O21 2.378 . S
O13 Cd14 2.385 . S
O13 C18 1.255 . S
Cd14 O13 2.385 . S
Cd14 O15 2.317 . S
O15 Cd14 2.317 . S
O15 C16 1.232 . S
C16 O15 1.232 . S
C16 O17 1.218 . S
O17 C16 1.218 . S
C18 O11 1.275 . S
C18 O13 1.255 . S
C19 O20 1.258 . S
C19 O21 1.256 . S
O20 Cd12 2.381 . S
O20 C19 1.258 . S
O21 Cd12 2.378 . S
O21 C19 1.256 . S
O22 Cd23 2.300 . S
O22 C29 1.275 . S
Cd23 O22 2.300 . S
Cd23 O31 2.381 . S
Cd23 O32 2.378 . S
O24 Cd25 2.385 . S
O24 C29 1.255 . S
Cd25 O24 2.385 . S
Cd25 O26 2.317 . S
O26 Cd25 2.317 . S
O26 C27 1.232 . S
C27 O26 1.232 . S
C27 O28 1.218 . S
O28 C27 1.218 . S
C29 O22 1.275 . S
C29 O24 1.255 . S
C30 O31 1.258 . S
C30 O32 1.256 . S
O31 Cd23 2.381 . S
O31 C30 1.258 . S
O32 Cd23 2.378 . S
O32 C30 1.256 . S
O33 Cd34 2.300 . S
O33 C40 1.275 . S
Cd34 O33 2.300 . S
Cd34 O42 2.381 . S
Cd34 O43 2.378 . S
O35 Cd36 2.385 . S
O35 C40 1.255 . S
Cd36 O35 2.385 . S
Cd36 O37 2.317 . S
O37 Cd36 2.317 . S
O37 C38 1.232 . S
C38 O37 1.232 . S
C38 O39 1.218 . S
O39 C38 1.218 . S
C40 O33 1.275 . S
C40 O35 1.255 . S
C41 O42 1.258 . S
C41 O43 1.256 . S
O42 Cd34 2.381 . S
O42 C41 1.258 . S
O43 Cd34 2.378 . S
O43 C41 1.256 . S
O44 Cd45 2.300 . S
O44 C51 1.275 . S
Cd45 O44 2.300 . S
Cd45 O53 2.381 . S
Cd45 O54 2.378 . S
O46 Cd47 2.385 . S
O46 C51 1.255 . S
Cd47 O46 2.385 . S
Cd47 O48 2.317 . S
O48 Cd47 2.317 . S
O48 C49 1.232 . S
C49 O48 1.232 . S
C49 O50 1.218 . S
O50 C49 1.218 . S
C51 O44 1.275 . S
C51 O46 1.255 . S
C52 O53 1.258 . S
C52 O54 1.256 . S
O53 Cd45 2.381 . S
O53 C52 1.258 . S
O54 Cd45 2.378 . S
O54 C52 1.256 . S
O55 Cd56 2.300 . S
O55 C62 1.275 . S
Cd56 O55 2.300 . S
Cd56 O64 2.381 . S
Cd56 O65 2.378 . S
O57 Cd58 2.385 . S
O57 C62 1.255 . S
Cd58 O57 2.385 . S
Cd58 O59 2.317 . S
O59 Cd58 2.317 . S
O59 C60 1.232 . S
C60 O59 1.232 . S
C60 O61 1.218 . S
O61 C60 1.218 . S
C62 O55 1.275 . S
C62 O57 1.255 . S
C63 O64 1.258 . S
C63 O65 1.256 . S
O64 Cd56 2.381 . S
O64 C63 1.258 . S
O65 Cd56 2.378 . S
O65 C63 1.256 . S
O66 Cd67 2.300 . S
O66 C73 1.275 . S
Cd67 O66 2.300 . S
Cd67 O75 2.381 . S
Cd67 O76 2.378 . S
O68 Cd69 2.385 . S
O68 C73 1.255 . S
Cd69 O68 2.385 . S
Cd69 O70 2.317 . S
O70 Cd69 2.317 . S
O70 C71 1.232 . S
C71 O70 1.232 . S
C71 O72 1.218 . S
O72 C71 1.218 . S
C73 O66 1.275 . S
C73 O68 1.255 . S
C74 O75 1.258 . S
C74 O76 1.256 . S
O75 Cd67 2.381 . S
O75 C74 1.258 . S
O76 Cd67 2.378 . S
O76 C74 1.256 . S
O77 Cd78 2.300 . S
O77 C84 1.275 . S
Cd78 O77 2.300 . S
Cd78 O86 2.381 . S
Cd78 O87 2.378 . S
O79 Cd80 2.385 . S
O79 C84 1.255 . S
Cd80 O79 2.385 . S
Cd80 O81 2.317 . S
O81 Cd80 2.317 . S
O81 C82 1.232 . S
C82 O81 1.232 . S
C82 O83 1.218 . S
O83 C82 1.218 . S
C84 O77 1.275 . S
C84 O79 1.255 . S
C85 O86 1.258 . S
C85 O87 1.256 . S
O86 Cd78 2.381 . S
O86 C85 1.258 . S
O87 Cd78 2.378 . S
O87 C85 1.256 . S
O88 Cd89 2.300 . S
O88 C95 1.275 . S
Cd89 O88 2.300 . S
Cd89 O97 2.381 . S
Cd89 O98 2.378 . S
O90 Cd91 2.385 . S
O90 C95 1.255 . S
Cd91 O90 2.385 . S
Cd91 O92 2.317 . S
O92 Cd91 2.317 . S
O92 C93 1.232 . S
C93 O92 1.232 . S
C93 O94 1.218 . S
O94 C93 1.218 . S
C95 O88 1.275 . S
C95 O90 1.255 . S
C96 O97 1.258 . S
C96 O98 1.256 . S
O97 Cd89 2.381 . S
O97 C96 1.258 . S
O98 Cd89 2.378 . S
O98 C96 1.256 . S
O99 Cd100 2.300 . S
O99 C106 1.275 . S
Cd100 O99 2.300 . S
Cd100 O108 2.381 . S
Cd100 O109 2.378 . S
O101 Cd102 2.385 . S
O101 C106 1.255 . S
Cd102 O101 2.385 . S
Cd102 O103 2.317 . S
O103 Cd102 2.317 . S
O103 C104 1.232 . S
C104 O103 1.232 . S
C104 O105 1.218 . S
O105 C104 1.218 . S
C106 O99 1.275 . S
C106 O101 1.255 . S
C107 O108 1.258 . S
C107 O109 1.256 . S
O108 Cd100 2.381 . S
O108 C107 1.258 . S
O109 Cd100 2.378 . S
O109 C107 1.256 . S
O110 Cd111 2.300 . S
O110 C117 1.275 . S
Cd111 O110 2.300 . S
Cd111 O119 2.381 . S
Cd111 O120 2.378 . S
O112 Cd113 2.385 . S
O112 C117 1.255 . S
Cd113 O112 2.385 . S
Cd113 O114 2.317 . S
O114 Cd113 2.317 . S
O114 C115 1.232 . S
C115 O114 1.232 . S
C115 O116 1.218 . S
O116 C115 1.218 . S
C117 O110 1.275 . S
C117 O112 1.255 . S
C118 O119 1.258 . S
C118 O120 1.256 . S
O119 Cd111 2.381 . S
O119 C118 1.258 . S
O120 Cd111 2.378 . S
O120 C118 1.256 . S
O121 Cd122 2.300 . S
O121 C128 1.275 . S
Cd122 O121 2.300 . S
Cd122 O130 2.381 . S
Cd122 O131 2.378 . S
O123 Cd124 2.385 . S
O123 C128 1.255 . S
Cd124 O123 2.385 . S
Cd124 O125 2.317 . S
O125 Cd124 2.317 . S
O125 C126 1.232 . S
C126 O125 1.232 . S
C126 O127 1.218 . S
O127 C126 1.218 . S
C128 O121 1.275 . S
C128 O123 1.255 . S
C129 O130 1.258 . S
C129 O131 1.256 . S
O130 Cd122 2.381 . S
O130 C129 1.258 . S
O131 Cd122 2.378 . S
O131 C129 1.256 . S
C132 C133 1.349 . S
C132 C134 1.327 . S
C132 H157 0.950 . S
C133 C132 1.349 . S
C133 C149 1.349 . S
C134 C132 1.327 . S
C134 C153 1.429 . S
C134 H158 0.950 . S
C135 C152 1.574 . S
C135 C154 1.368 . S
C135 H159 0.949 . S
H136 C140 0.949 . S
C137 C138 1.349 . S
C137 C139 1.327 . S
C137 H160 0.950 . S
C138 C137 1.349 . S
C138 C150 1.349 . S
C139 C137 1.327 . S
C139 C155 1.429 . S
C139 H161 0.950 . S
C140 H136 0.949 . S
C140 C148 1.574 . S
C140 C156 1.368 . S
H141 C149 0.950 . S
H142 C147 0.950 . S
H143 C148 0.949 . S
H144 C150 0.950 . S
H145 C151 0.950 . S
H146 C152 0.949 . S
C147 H142 0.950 . S
C147 C149 1.327 . S
C147 C153 1.429 . S
C148 C140 1.574 . S
C148 H143 0.949 . S
C148 C154 1.368 . S
C149 C133 1.349 . S
C149 H141 0.950 . S
C149 C147 1.327 . S
C150 C138 1.349 . S
C150 H144 0.950 . S
C150 C151 1.327 . S
C151 H145 0.950 . S
C151 C150 1.327 . S
C151 C155 1.429 . S
C152 C135 1.574 . S
C152 H146 0.949 . S
C152 C156 1.368 . S
C153 C134 1.429 . S
C153 C147 1.429 . S
C153 C154 1.523 . S
C154 C135 1.368 . S
C154 C148 1.368 . S
C154 C153 1.523 . S
C155 C139 1.429 . S
C155 C151 1.429 . S
C155 C156 1.523 . S
C156 C140 1.368 . S
C156 C152 1.368 . S
C156 C155 1.523 . S
H157 C132 0.950 . S
H158 C134 0.950 . S
H159 C135 0.949 . S
H160 C137 0.950 . S
H161 C139 0.950 . S
C162 C163 1.349 . S
C162 C164 1.327 . S
C162 H187 0.950 . S
C163 C162 1.349 . S
C163 C179 1.349 . S
C164 C162 1.327 . S
C164 C183 1.429 . S
C164 H188 0.950 . S
C165 C182 1.574 . S
C165 C184 1.368 . S
C165 H189 0.949 . S
H166 C170 0.949 . S
C167 C168 1.349 . S
C167 C169 1.327 . S
C167 H190 0.950 . S
C168 C167 1.349 . S
C168 C180 1.349 . S
C169 C167 1.327 . S
C169 C185 1.429 . S
C169 H191 0.950 . S
C170 H166 0.949 . S
C170 C178 1.574 . S
C170 C186 1.368 . S
H171 C179 0.950 . S
H172 C177 0.950 . S
H173 C178 0.949 . S
H174 C180 0.950 . S
H175 C181 0.950 . S
H176 C182 0.949 . S
C177 H172 0.950 . S
C177 C179 1.327 . S
C177 C183 1.429 . S
C178 C170 1.574 . S
C178 H173 0.949 . S
C178 C184 1.368 . S
C179 C163 1.349 . S
C179 H171 0.950 . S
C179 C177 1.327 . S
C180 C168 1.349 . S
C180 H174 0.950 . S
C180 C181 1.327 . S
C181 H175 0.950 . S
C181 C180 1.327 . S
C181 C185 1.429 . S
C182 C165 1.574 . S
C182 H176 0.949 . S
C182 C186 1.368 . S
C183 C164 1.429 . S
C183 C177 1.429 . S
C183 C184 1.523 . S
C184 C165 1.368 . S
C184 C178 1.368 . S
C184 C183 1.523 . S
C185 C169 1.429 . S
C185 C181 1.429 . S
C185 C186 1.523 . S
C186 C170 1.368 . S
C186 C182 1.368 . S
C186 C185 1.523 . S
H187 C162 0.950 . S
H188 C164 0.950 . S
H189 C165 0.949 . S
H190 C167 0.950 . S
H191 C169 0.950 . S
C192 C193 1.349 . S
C192 C194 1.327 . S
C192 H217 0.950 . S
C193 C192 1.349 . S
C193 C209 1.349 . S
C194 C192 1.327 . S
C194 C213 1.429 . S
C194 H218 0.950 . S
C195 C212 1.574 . S
C195 C214 1.368 . S
C195 H219 0.949 . S
H196 C200 0.949 . S
C197 C198 1.349 . S
C197 C199 1.327 . S
C197 H220 0.950 . S
C198 C197 1.349 . S
C198 C210 1.349 . S
C199 C197 1.327 . S
C199 C215 1.429 . S
C199 H221 0.950 . S
C200 H196 0.949 . S
C200 C208 1.574 . S
C200 C216 1.368 . S
H201 C209 0.950 . S
H202 C207 0.950 . S
H203 C208 0.949 . S
H204 C210 0.950 . S
H205 C211 0.950 . S
H206 C212 0.949 . S
C207 H202 0.950 . S
C207 C209 1.327 . S
C207 C213 1.429 . S
C208 C200 1.574 . S
C208 H203 0.949 . S
C208 C214 1.368 . S
C209 C193 1.349 . S
C209 H201 0.950 . S
C209 C207 1.327 . S
C210 C198 1.349 . S
C210 H204 0.950 . S
C210 C211 1.327 . S
C211 H205 0.950 . S
C211 C210 1.327 . S
C211 C215 1.429 . S
C212 C195 1.574 . S
C212 H206 0.949 . S
C212 C216 1.368 . S
C213 C194 1.429 . S
C213 C207 1.429 . S
C213 C214 1.523 . S
C214 C195 1.368 . S
C214 C208 1.368 . S
C214 C213 1.523 . S
C215 C199 1.429 . S
C215 C211 1.429 . S
C215 C216 1.523 . S
C216 C200 1.368 . S
C216 C212 1.368 . S
C216 C215 1.523 . S
H217 C192 0.950 . S
H218 C194 0.950 . S
H219 C195 0.949 . S
H220 C197 0.950 . S
H221 C199 0.950 . S
C222 C223 1.349 . S
C222 C224 1.327 . S
C222 H247 0.950 . S
C223 C222 1.349 . S
C223 C239 1.349 . S
C224 C222 1.327 . S
C224 C243 1.429 . S
C224 H248 0.950 . S
C225 C242 1.574 . S
C225 C244 1.368 . S
C225 H249 0.949 . S
H226 C230 0.949 . S
C227 C228 1.349 . S
C227 C229 1.327 . S
C227 H250 0.950 . S
C228 C227 1.349 . S
C228 C240 1.349 . S
C229 C227 1.327 . S
C229 C245 1.429 . S
C229 H251 0.950 . S
C230 H226 0.949 . S
C230 C238 1.574 . S
C230 C246 1.368 . S
H231 C239 0.950 . S
H232 C237 0.950 . S
H233 C238 0.949 . S
H234 C240 0.950 . S
H235 C241 0.950 . S
H236 C242 0.949 . S
C237 H232 0.950 . S
C237 C239 1.327 . S
C237 C243 1.429 . S
C238 C230 1.574 . S
C238 H233 0.949 . S
C238 C244 1.368 . S
C239 C223 1.349 . S
C239 H231 0.950 . S
C239 C237 1.327 . S
C240 C228 1.349 . S
C240 H234 0.950 . S
C240 C241 1.327 . S
C241 H235 0.950 . S
C241 C240 1.327 . S
C241 C245 1.429 . S
C242 C225 1.574 . S
C242 H236 0.949 . S
C242 C246 1.368 . S
C243 C224 1.429 . S
C243 C237 1.429 . S
C243 C244 1.523 . S
C244 C225 1.368 . S
C244 C238 1.368 . S
C244 C243 1.523 . S
C245 C229 1.429 . S
C245 C241 1.429 . S
C245 C246 1.523 . S
C246 C230 1.368 . S
C246 C242 1.368 . S
C246 C245 1.523 . S
H247 C222 0.950 . S
H248 C224 0.950 . S
H249 C225 0.949 . S
H250 C227 0.950 . S
H251 C229 0.950 . S
C252 C253 1.349 . S
C252 C254 1.327 1_554 S
C252 H277 0.950 . S
C253 C252 1.349 . S
C253 C269 1.342 1_554 S
C254 C252 1.327 1_556 S
C254 C273 1.429 . S
C254 H278 0.950 . S
C255 C272 1.574 . S
C255 C274 1.368 . S
C255 H279 0.949 . S
H256 C260 0.949 . S
C257 C258 1.349 . S
C257 C259 1.327 . S
C257 H280 0.950 . S
C258 C257 1.349 . S
C258 C270 1.349 . S
C259 C257 1.327 . S
C259 C275 1.429 . S
C259 H281 0.950 . S
C260 H256 0.949 . S
C260 C268 1.574 . S
C260 C276 1.368 . S
H261 C269 0.945 1_554 S
H262 C267 0.950 . S
H263 C268 0.949 . S
H264 C270 0.950 . S
H265 C271 0.950 . S
H266 C272 0.949 . S
C267 H262 0.950 . S
C267 C269 1.339 . S
C267 C273 1.429 . S
C268 C260 1.574 . S
C268 H263 0.949 . S
C268 C274 1.368 . S
C269 C253 1.342 1_556 S
C269 H261 0.945 1_556 S
C269 C267 1.339 . S
C270 C258 1.349 . S
C270 H264 0.950 . S
C270 C271 1.327 . S
C271 H265 0.950 . S
C271 C270 1.327 . S
C271 C275 1.429 . S
C272 C255 1.574 . S
C272 H266 0.949 . S
C272 C276 1.368 . S
C273 C254 1.429 . S
C273 C267 1.429 . S
C273 C274 1.523 . S
C274 C255 1.368 . S
C274 C268 1.368 . S
C274 C273 1.523 . S
C275 C259 1.429 . S
C275 C271 1.429 . S
C275 C276 1.523 . S
C276 C260 1.368 . S
C276 C272 1.368 . S
C276 C275 1.523 . S
H277 C252 0.950 . S
H278 C254 0.950 . S
H279 C255 0.949 . S
H280 C257 0.950 . S
H281 C259 0.950 . S
C282 C283 1.349 . S
C282 C284 1.327 1_556 S
C282 H307 0.950 . S
C283 C282 1.349 . S
C283 C299 1.342 1_556 S
C284 C282 1.327 1_554 S
C284 C303 1.429 . S
C284 H308 0.950 . S
C285 C302 1.574 . S
C285 C304 1.368 . S
C285 H309 0.949 . S
H286 C290 0.949 . S
C287 C288 1.349 . S
C287 C289 1.327 . S
C287 H310 0.950 . S
C288 C287 1.349 . S
C288 C300 1.349 . S
C289 C287 1.327 . S
C289 C305 1.429 . S
C289 H311 0.950 . S
C290 H286 0.949 . S
C290 C298 1.574 . S
C290 C306 1.368 . S
H291 C299 0.944 1_556 S
H292 C297 0.950 . S
H293 C298 0.949 . S
H294 C300 0.950 . S
H295 C301 0.950 . S
H296 C302 0.949 . S
C297 H292 0.950 . S
C297 C299 1.340 . S
C297 C303 1.429 . S
C298 C290 1.574 . S
C298 H293 0.949 . S
C298 C304 1.368 . S
C299 C283 1.342 1_554 S
C299 H291 0.944 1_554 S
C299 C297 1.340 . S
C300 C288 1.349 . S
C300 H294 0.950 . S
C300 C301 1.327 . S
C301 H295 0.950 . S
C301 C300 1.327 . S
C301 C305 1.429 . S
C302 C285 1.574 . S
C302 H296 0.949 . S
C302 C306 1.368 . S
C303 C284 1.429 . S
C303 C297 1.429 . S
C303 C304 1.523 . S
C304 C285 1.368 . S
C304 C298 1.368 . S
C304 C303 1.523 . S
C305 C289 1.429 . S
C305 C301 1.429 . S
C305 C306 1.523 . S
C306 C290 1.368 . S
C306 C302 1.368 . S
C306 C305 1.523 . S
H307 C282 0.950 . S
H308 C284 0.950 . S
H309 C285 0.949 . S
H310 C287 0.950 . S
H311 C289 0.950 . S
C312 C313 1.349 . S
C312 C314 1.327 . S
C312 H337 0.950 . S
C313 C312 1.349 . S
C313 C329 1.349 . S
C314 C312 1.327 . S
C314 C333 1.429 . S
C314 H338 0.950 . S
C315 C332 1.574 . S
C315 C334 1.368 . S
C315 H339 0.949 . S
H316 C320 0.949 . S
C317 C318 1.349 . S
C317 C319 1.327 . S
C317 H340 0.950 . S
C318 C317 1.349 . S
C318 C330 1.349 . S
C319 C317 1.327 . S
C319 C335 1.429 . S
C319 H341 0.950 . S
C320 H316 0.949 . S
C320 C328 1.574 . S
C320 C336 1.368 . S
H321 C329 0.950 . S
H322 C327 0.950 . S
H323 C328 0.949 . S
H324 C330 0.950 . S
H325 C331 0.950 . S
H326 C332 0.949 . S
C327 H322 0.950 . S
C327 C329 1.327 . S
C327 C333 1.429 . S
C328 C320 1.574 . S
C328 H323 0.949 . S
C328 C334 1.368 . S
C329 C313 1.349 . S
C329 H321 0.950 . S
C329 C327 1.327 . S
C330 C318 1.349 . S
C330 H324 0.950 . S
C330 C331 1.327 . S
C331 H325 0.950 . S
C331 C330 1.327 . S
C331 C335 1.429 . S
C332 C315 1.574 . S
C332 H326 0.949 . S
C332 C336 1.368 . S
C333 C314 1.429 . S
C333 C327 1.429 . S
C333 C334 1.523 . S
C334 C315 1.368 . S
C334 C328 1.368 . S
C334 C333 1.523 . S
C335 C319 1.429 . S
C335 C331 1.429 . S
C335 C336 1.523 . S
C336 C320 1.368 . S
C336 C332 1.368 . S
C336 C335 1.523 . S
H337 C312 0.950 . S
H338 C314 0.950 . S
H339 C315 0.949 . S
H340 C317 0.950 . S
H341 C319 0.950 . S
C342 C343 1.349 . S
C342 C344 1.327 . S
C342 H367 0.950 . S
C343 C342 1.349 . S
C343 C359 1.349 . S
C344 C342 1.327 . S
C344 C363 1.429 . S
C344 H368 0.950 . S
C345 C362 1.574 . S
C345 C364 1.368 . S
C345 H369 0.949 . S
H346 C350 0.949 . S
C347 C348 1.349 . S
C347 C349 1.327 . S
C347 H370 0.950 . S
C348 C347 1.349 . S
C348 C360 1.349 . S
C349 C347 1.327 . S
C349 C365 1.429 . S
C349 H371 0.950 . S
C350 H346 0.949 . S
C350 C358 1.574 . S
C350 C366 1.368 . S
H351 C359 0.950 . S
H352 C357 0.950 . S
H353 C358 0.949 . S
H354 C360 0.950 . S
H355 C361 0.950 . S
H356 C362 0.949 . S
C357 H352 0.950 . S
C357 C359 1.327 . S
C357 C363 1.429 . S
C358 C350 1.574 . S
C358 H353 0.949 . S
C358 C364 1.368 . S
C359 C343 1.349 . S
C359 H351 0.950 . S
C359 C357 1.327 . S
C360 C348 1.349 . S
C360 H354 0.950 . S
C360 C361 1.327 . S
C361 H355 0.950 . S
C361 C360 1.327 . S
C361 C365 1.429 . S
C362 C345 1.574 . S
C362 H356 0.949 . S
C362 C366 1.368 . S
C363 C344 1.429 . S
C363 C357 1.429 . S
C363 C364 1.523 . S
C364 C345 1.368 . S
C364 C358 1.368 . S
C364 C363 1.523 . S
C365 C349 1.429 . S
C365 C361 1.429 . S
C365 C366 1.523 . S
C366 C350 1.368 . S
C366 C362 1.368 . S
C366 C365 1.523 . S
H367 C342 0.950 . S
H368 C344 0.950 . S
H369 C345 0.949 . S
H370 C347 0.950 . S
H371 C349 0.950 . S
C372 C373 1.349 . S
C372 C374 1.327 . S
C372 H397 0.950 . S
C373 C372 1.349 . S
C373 C389 1.349 . S
C374 C372 1.327 . S
C374 C393 1.429 . S
C374 H398 0.950 . S
C375 C392 1.574 . S
C375 C394 1.368 . S
C375 H399 0.949 . S
H376 C380 0.949 . S
C377 C378 1.349 . S
C377 C379 1.327 . S
C377 H400 0.950 . S
C378 C377 1.349 . S
C378 C390 1.349 . S
C379 C377 1.327 . S
C379 C395 1.429 . S
C379 H401 0.950 . S
C380 H376 0.949 . S
C380 C388 1.574 . S
C380 C396 1.368 . S
H381 C389 0.950 . S
H382 C387 0.950 . S
H383 C388 0.949 . S
H384 C390 0.950 . S
H385 C391 0.950 . S
H386 C392 0.949 . S
C387 H382 0.950 . S
C387 C389 1.327 . S
C387 C393 1.429 . S
C388 C380 1.574 . S
C388 H383 0.949 . S
C388 C394 1.368 . S
C389 C373 1.349 . S
C389 H381 0.950 . S
C389 C387 1.327 . S
C390 C378 1.349 . S
C390 H384 0.950 . S
C390 C391 1.327 . S
C391 H385 0.950 . S
C391 C390 1.327 . S
C391 C395 1.429 . S
C392 C375 1.574 . S
C392 H386 0.949 . S
C392 C396 1.368 . S
C393 C374 1.429 . S
C393 C387 1.429 . S
C393 C394 1.523 . S
C394 C375 1.368 . S
C394 C388 1.368 . S
C394 C393 1.523 . S
C395 C379 1.429 . S
C395 C391 1.429 . S
C395 C396 1.523 . S
C396 C380 1.368 . S
C396 C392 1.368 . S
C396 C395 1.523 . S
H397 C372 0.950 . S
H398 C374 0.950 . S
H399 C375 0.949 . S
H400 C377 0.950 . S
H401 C379 0.950 . S
C402 C403 1.349 . S
C402 C404 1.327 . S
C402 H427 0.950 . S
C403 C402 1.349 . S
C403 C419 1.349 . S
C404 C402 1.327 . S
C404 C423 1.429 . S
C404 H428 0.950 . S
C405 C422 1.574 . S
C405 C424 1.368 . S
C405 H429 0.949 . S
H406 C410 0.949 . S
C407 C408 1.349 . S
C407 C409 1.327 . S
C407 H430 0.950 . S
C408 C407 1.349 . S
C408 C420 1.349 . S
C409 C407 1.327 . S
C409 C425 1.429 . S
C409 H431 0.950 . S
C410 H406 0.949 . S
C410 C418 1.574 . S
C410 C426 1.368 . S
H411 C419 0.950 . S
H412 C417 0.950 . S
H413 C418 0.949 . S
H414 C420 0.950 . S
H415 C421 0.950 . S
H416 C422 0.949 . S
C417 H412 0.950 . S
C417 C419 1.327 . S
C417 C423 1.429 . S
C418 C410 1.574 . S
C418 H413 0.949 . S
C418 C424 1.368 . S
C419 C403 1.349 . S
C419 H411 0.950 . S
C419 C417 1.327 . S
C420 C408 1.349 . S
C420 H414 0.950 . S
C420 C421 1.327 . S
C421 H415 0.950 . S
C421 C420 1.327 . S
C421 C425 1.429 . S
C422 C405 1.574 . S
C422 H416 0.949 . S
C422 C426 1.368 . S
C423 C404 1.429 . S
C423 C417 1.429 . S
C423 C424 1.523 . S
C424 C405 1.368 . S
C424 C418 1.368 . S
C424 C423 1.523 . S
C425 C409 1.429 . S
C425 C421 1.429 . S
C425 C426 1.523 . S
C426 C410 1.368 . S
C426 C422 1.368 . S
C426 C425 1.523 . S
H427 C402 0.950 . S
H428 C404 0.950 . S
H429 C405 0.949 . S
H430 C407 0.950 . S
H431 C409 0.950 . S
C432 C433 1.349 . S
C432 C434 1.327 . S
C432 H457 0.950 . S
C433 C432 1.349 . S
C433 C449 1.349 . S
C434 C432 1.327 . S
C434 C453 1.429 . S
C434 H458 0.950 . S
C435 C452 1.574 . S
C435 C454 1.368 . S
C435 H459 0.949 . S
H436 C440 0.949 . S
C437 C438 1.349 . S
C437 C439 1.327 . S
C437 H460 0.950 . S
C438 C437 1.349 . S
C438 C450 1.349 . S
C439 C437 1.327 . S
C439 C455 1.429 . S
C439 H461 0.950 . S
C440 H436 0.949 . S
C440 C448 1.574 . S
C440 C456 1.368 . S
H441 C449 0.950 . S
H442 C447 0.950 . S
H443 C448 0.949 . S
H444 C450 0.950 . S
H445 C451 0.950 . S
H446 C452 0.949 . S
C447 H442 0.950 . S
C447 C449 1.327 . S
C447 C453 1.429 . S
C448 C440 1.574 . S
C448 H443 0.949 . S
C448 C454 1.368 . S
C449 C433 1.349 . S
C449 H441 0.950 . S
C449 C447 1.327 . S
C450 C438 1.349 . S
C450 H444 0.950 . S
C450 C451 1.327 . S
C451 H445 0.950 . S
C451 C450 1.327 . S
C451 C455 1.429 . S
C452 C435 1.574 . S
C452 H446 0.949 . S
C452 C456 1.368 . S
C453 C434 1.429 . S
C453 C447 1.429 . S
C453 C454 1.523 . S
C454 C435 1.368 . S
C454 C448 1.368 . S
C454 C453 1.523 . S
C455 C439 1.429 . S
C455 C451 1.429 . S
C455 C456 1.523 . S
C456 C440 1.368 . S
C456 C452 1.368 . S
C456 C455 1.523 . S
H457 C432 0.950 . S
H458 C434 0.950 . S
H459 C435 0.949 . S
H460 C437 0.950 . S
H461 C439 0.950 . S
C462 C463 1.349 . S
C462 C464 1.327 . S
C462 H487 0.950 . S
C463 C462 1.349 . S
C463 C479 1.349 . S
C464 C462 1.327 . S
C464 C483 1.429 . S
C464 H488 0.950 . S
C465 C482 1.574 . S
C465 C484 1.368 . S
C465 H489 0.949 . S
H466 C470 0.949 . S
C467 C468 1.349 . S
C467 C469 1.327 . S
C467 H490 0.950 . S
C468 C467 1.349 . S
C468 C480 1.349 . S
C469 C467 1.327 . S
C469 C485 1.429 . S
C469 H491 0.950 . S
C470 H466 0.949 . S
C470 C478 1.574 . S
C470 C486 1.368 . S
H471 C479 0.950 . S
H472 C477 0.950 . S
H473 C478 0.949 . S
H474 C480 0.950 . S
H475 C481 0.950 . S
H476 C482 0.949 . S
C477 H472 0.950 . S
C477 C479 1.327 . S
C477 C483 1.429 . S
C478 C470 1.574 . S
C478 H473 0.949 . S
C478 C484 1.368 . S
C479 C463 1.349 . S
C479 H471 0.950 . S
C479 C477 1.327 . S
C480 C468 1.349 . S
C480 H474 0.950 . S
C480 C481 1.327 . S
C481 H475 0.950 . S
C481 C480 1.327 . S
C481 C485 1.429 . S
C482 C465 1.574 . S
C482 H476 0.949 . S
C482 C486 1.368 . S
C483 C464 1.429 . S
C483 C477 1.429 . S
C483 C484 1.523 . S
C484 C465 1.368 . S
C484 C478 1.368 . S
C484 C483 1.523 . S
C485 C469 1.429 . S
C485 C481 1.429 . S
C485 C486 1.523 . S
C486 C470 1.368 . S
C486 C482 1.368 . S
C486 C485 1.523 . S
H487 C462 0.950 . S
H488 C464 0.950 . S
H489 C465 0.949 . S
H490 C467 0.950 . S
H491 C469 0.950 . S
C492 C493 1.349 . S
C492 C494 1.327 . S
C492 H517 0.950 . S
C493 C492 1.349 . S
C493 C509 1.349 . S
C494 C492 1.327 . S
C494 C513 1.429 . S
C494 H518 0.913 1_554 S
C495 C512 1.574 1_545 S
C495 C514 1.368 . S
C495 H519 0.949 . S
H496 C500 0.949 . S
C497 C498 1.349 . S
C497 C499 1.327 . S
C497 H520 0.950 . S
C498 C497 1.349 . S
C498 C510 1.349 . S
C499 C497 1.327 . S
C499 C515 1.429 . S
C499 H521 0.914 1_556 S
C500 H496 0.949 . S
C500 C508 1.574 1_565 S
C500 C516 1.368 . S
H501 C509 0.950 . S
H502 C507 0.950 . S
H503 C508 0.949 . S
H504 C510 0.950 . S
H505 C511 0.950 . S
H506 C512 0.949 . S
C507 H502 0.950 . S
C507 C509 1.327 . S
C507 C513 1.429 . S
C508 C500 1.574 1_545 S
C508 H503 0.949 . S
C508 C514 1.368 1_556 S
C509 C493 1.349 . S
C509 H501 0.950 . S
C509 C507 1.327 . S
C510 C498 1.349 . S
C510 H504 0.950 . S
C510 C511 1.327 . S
C511 H505 0.950 . S
C511 C510 1.327 . S
C511 C515 1.429 . S
C512 C495 1.574 1_565 S
C512 H506 0.949 . S
C512 C516 1.368 1_554 S
C513 C494 1.429 . S
C513 C507 1.429 . S
C513 C514 1.523 . S
C514 C495 1.368 . S
C514 C508 1.368 1_554 S
C514 C513 1.523 . S
C515 C499 1.429 . S
C515 C511 1.429 . S
C515 C516 1.523 . S
C516 C500 1.368 . S
C516 C512 1.368 1_556 S
C516 C515 1.523 . S
H517 C492 0.950 . S
H518 C494 0.913 1_556 S
H519 C495 0.949 . S
H520 C497 0.950 . S
H521 C499 0.914 1_554 S
C522 C523 1.349 . S
C522 C524 1.327 . S
C522 H547 0.950 . S
C523 C522 1.349 . S
C523 C539 1.349 . S
C524 C522 1.327 . S
C524 C543 1.429 . S
C524 H548 0.950 . S
C525 C542 1.574 . S
C525 C544 1.368 . S
C525 H549 0.949 . S
H526 C530 0.949 . S
C527 C528 1.349 . S
C527 C529 1.327 . S
C527 H550 0.950 . S
C528 C527 1.349 . S
C528 C540 1.349 . S
C529 C527 1.327 . S
C529 C545 1.429 . S
C529 H551 0.950 . S
C530 H526 0.949 . S
C530 C538 1.574 . S
C530 C546 1.368 . S
H531 C539 0.950 . S
H532 C537 0.950 . S
H533 C538 0.949 . S
H534 C540 0.950 . S
H535 C541 0.950 . S
H536 C542 0.949 . S
C537 H532 0.950 . S
C537 C539 1.327 . S
C537 C543 1.429 . S
C538 C530 1.574 . S
C538 H533 0.949 . S
C538 C544 1.368 . S
C539 C523 1.349 . S
C539 H531 0.950 . S
C539 C537 1.327 . S
C540 C528 1.349 . S
C540 H534 0.950 . S
C540 C541 1.327 . S
C541 H535 0.950 . S
C541 C540 1.327 . S
C541 C545 1.429 . S
C542 C525 1.574 . S
C542 H536 0.949 . S
C542 C546 1.368 . S
C543 C524 1.429 . S
C543 C537 1.429 . S
C543 C544 1.523 . S
C544 C525 1.368 . S
C544 C538 1.368 . S
C544 C543 1.523 . S
C545 C529 1.429 . S
C545 C541 1.429 . S
C545 C546 1.523 . S
C546 C530 1.368 . S
C546 C542 1.368 . S
C546 C545 1.523 . S
H547 C522 0.950 . S
H548 C524 0.950 . S
H549 C525 0.949 . S
H550 C527 0.950 . S
H551 C529 0.950 . S
C552 C553 1.349 . S
C552 C554 1.327 . S
C552 H577 0.950 . S
C553 C552 1.349 . S
C553 C569 1.349 . S
C554 C552 1.327 . S
C554 C573 1.429 . S
C554 H578 0.950 . S
C555 C572 1.574 1_455 S
C555 C574 1.368 . S
C555 H579 0.949 . S
H556 C560 0.949 . S
C557 C558 1.349 . S
C557 C559 1.327 . S
C557 H580 0.950 . S
C558 C557 1.349 . S
C558 C570 1.349 . S
C559 C557 1.327 . S
C559 C575 1.429 . S
C559 H581 0.950 . S
C560 H556 0.949 . S
C560 C568 1.574 1_655 S
C560 C576 1.368 . S
H561 C569 0.950 . S
H562 C567 0.950 . S
H563 C568 0.949 . S
H564 C570 0.950 . S
H565 C571 0.950 . S
H566 C572 0.949 . S
C567 H562 0.950 . S
C567 C569 1.327 . S
C567 C573 1.429 . S
C568 C560 1.574 1_455 S
C568 H563 0.949 . S
C568 C574 1.368 . S
C569 C553 1.349 . S
C569 H561 0.950 . S
C569 C567 1.327 . S
C570 C558 1.349 . S
C570 H564 0.950 . S
C570 C571 1.327 . S
C571 H565 0.950 . S
C571 C570 1.327 . S
C571 C575 1.429 . S
C572 C555 1.574 1_655 S
C572 H566 0.949 . S
C572 C576 1.368 . S
C573 C554 1.429 . S
C573 C567 1.429 . S
C573 C574 1.523 . S
C574 C555 1.368 . S
C574 C568 1.368 . S
C574 C573 1.523 . S
C575 C559 1.429 . S
C575 C571 1.429 . S
C575 C576 1.523 . S
C576 C560 1.368 . S
C576 C572 1.368 . S
C576 C575 1.523 . S
H577 C552 0.950 . S
H578 C554 0.950 . S
H579 C555 0.949 . S
H580 C557 0.950 . S
H581 C559 0.950 . S
C582 C583 1.349 . S
C582 C584 1.327 . S
C582 H607 0.950 . S
C583 C582 1.349 . S
C583 C599 1.349 . S
C584 C582 1.327 . S
C584 C603 1.429 . S
C584 H608 0.950 . S
C585 C602 1.574 1_545 S
C585 C604 1.368 . S
C585 H609 0.949 . S
H586 C590 0.949 . S
C587 C588 1.349 . S
C587 C589 1.327 . S
C587 H610 0.950 . S
C588 C587 1.349 . S
C588 C600 1.349 . S
C589 C587 1.327 . S
C589 C605 1.429 . S
C589 H611 0.950 . S
C590 H586 0.949 . S
C590 C598 1.574 1_565 S
C590 C606 1.368 . S
H591 C599 0.950 . S
H592 C597 0.950 . S
H593 C598 0.949 . S
H594 C600 0.950 . S
H595 C601 0.950 . S
H596 C602 0.949 . S
C597 H592 0.950 . S
C597 C599 1.327 . S
C597 C603 1.429 . S
C598 C590 1.574 1_545 S
C598 H593 0.949 . S
C598 C604 1.368 . S
C599 C583 1.349 . S
C599 H591 0.950 . S
C599 C597 1.327 . S
C600 C588 1.349 . S
C600 H594 0.950 . S
C600 C601 1.327 . S
C601 H595 0.950 . S
C601 C600 1.327 . S
C601 C605 1.429 . S
C602 C585 1.574 1_565 S
C602 H596 0.949 . S
C602 C606 1.368 . S
C603 C584 1.429 . S
C603 C597 1.429 . S
C603 C604 1.523 . S
C604 C585 1.368 . S
C604 C598 1.368 . S
C604 C603 1.523 . S
C605 C589 1.429 . S
C605 C601 1.429 . S
C605 C606 1.523 . S
C606 C590 1.368 . S
C606 C602 1.368 . S
C606 C605 1.523 . S
H607 C582 0.950 . S
H608 C584 0.950 . S
H609 C585 0.949 . S
H610 C587 0.950 . S
H611 C589 0.950 . S
C612 C613 1.349 . S
C612 C614 1.327 . S
C612 H637 0.950 . S
C613 C612 1.349 . S
C613 C629 1.349 . S
C614 C612 1.327 . S
C614 C633 1.429 . S
C614 H638 0.950 . S
C615 C632 1.574 . S
C615 C634 1.368 . S
C615 H639 0.949 . S
H616 C620 0.949 . S
C617 C618 1.349 . S
C617 C619 1.327 . S
C617 H640 0.950 . S
C618 C617 1.349 . S
C618 C630 1.349 . S
C619 C617 1.327 . S
C619 C635 1.429 . S
C619 H641 0.950 . S
C620 H616 0.949 . S
C620 C628 1.574 . S
C620 C636 1.368 . S
H621 C629 0.950 . S
H622 C627 0.950 . S
H623 C628 0.949 . S
H624 C630 0.950 . S
H625 C631 0.950 . S
H626 C632 0.949 . S
C627 H622 0.950 . S
C627 C629 1.327 . S
C627 C633 1.429 . S
C628 C620 1.574 . S
C628 H623 0.949 . S
C628 C634 1.368 . S
C629 C613 1.349 . S
C629 H621 0.950 . S
C629 C627 1.327 . S
C630 C618 1.349 . S
C630 H624 0.950 . S
C630 C631 1.327 . S
C631 H625 0.950 . S
C631 C630 1.327 . S
C631 C635 1.429 . S
C632 C615 1.574 . S
C632 H626 0.949 . S
C632 C636 1.368 . S
C633 C614 1.429 . S
C633 C627 1.429 . S
C633 C634 1.523 . S
C634 C615 1.368 . S
C634 C628 1.368 . S
C634 C633 1.523 . S
C635 C619 1.429 . S
C635 C631 1.429 . S
C635 C636 1.523 . S
C636 C620 1.368 . S
C636 C632 1.368 . S
C636 C635 1.523 . S
H637 C612 0.950 . S
H638 C614 0.950 . S
H639 C615 0.949 . S
H640 C617 0.950 . S
H641 C619 0.950 . S
C642 C643 1.349 . S
C642 C644 1.327 . S
C642 H667 0.950 . S
C643 C642 1.349 . S
C643 C659 1.349 . S
C644 C642 1.327 . S
C644 C663 1.429 . S
C644 H668 0.950 . S
C645 C662 1.574 1_655 S
C645 C664 1.368 . S
C645 H669 0.949 . S
H646 C650 0.949 . S
C647 C648 1.349 . S
C647 C649 1.327 . S
C647 H670 0.950 . S
C648 C647 1.349 . S
C648 C660 1.349 . S
C649 C647 1.327 . S
C649 C665 1.429 . S
C649 H671 0.950 . S
C650 H646 0.949 . S
C650 C658 1.574 1_455 S
C650 C666 1.368 . S
H651 C659 0.950 . S
H652 C657 0.950 . S
H653 C658 0.949 . S
H654 C660 0.950 . S
H655 C661 0.950 . S
H656 C662 0.949 . S
C657 H652 0.950 . S
C657 C659 1.327 . S
C657 C663 1.429 . S
C658 C650 1.574 1_655 S
C658 H653 0.949 . S
C658 C664 1.368 . S
C659 C643 1.349 . S
C659 H651 0.950 . S
C659 C657 1.327 . S
C660 C648 1.349 . S
C660 H654 0.950 . S
C660 C661 1.327 . S
C661 H655 0.950 . S
C661 C660 1.327 . S
C661 C665 1.429 . S
C662 C645 1.574 1_455 S
C662 H656 0.949 . S
C662 C666 1.368 . S
C663 C644 1.429 . S
C663 C657 1.429 . S
C663 C664 1.523 . S
C664 C645 1.368 . S
C664 C658 1.368 . S
C664 C663 1.523 . S
C665 C649 1.429 . S
C665 C661 1.429 . S
C665 C666 1.523 . S
C666 C650 1.368 . S
C666 C662 1.368 . S
C666 C665 1.523 . S
H667 C642 0.950 . S
H668 C644 0.950 . S
H669 C645 0.949 . S
H670 C647 0.950 . S
H671 C649 0.950 . S
C133 C7 1.542 . S
C138 C117 1.542 . S
C163 C128 1.542 . S
C168 C18 1.542 . S
C193 C73 1.542 . S
C198 C29 1.542 . S
C223 C40 1.542 . S
C228 C84 1.542 . S
C253 C95 1.542 . S
C258 C51 1.542 . S
C283 C62 1.542 . S
C288 C106 1.542 . S
C313 C5 1.341 . S
C318 C93 1.341 . S
C343 C104 1.341 . S
C348 C16 1.341 . S
C373 C27 1.341 . S
C378 C115 1.341 . S
C403 C126 1.341 . S
C408 C38 1.341 . S
C433 C49 1.341 . S
C438 C71 1.341 . S
C463 C60 1.341 . S
C468 C82 1.341 . S
C493 C8 1.603 . S
C498 C85 1.603 . S
C523 C96 1.603 . S
C528 C19 1.603 . S
C553 C107 1.603 . S
C558 C30 1.603 . S
C583 C118 1.603 . S
C588 C41 1.603 . S
C613 C52 1.603 . S
C618 C129 1.603 . S
C643 C74 1.603 . S
C648 C63 1.603 . S
