# Generated by pormake.
# Topology wfs, (7)-cn, num edge types: 1
# Building blocks:
#     Node 0, Type 0, BuildingBlock: NUHQUE_clean_sbu_2, # of connection points: 7
#     Node 1, Type 0, BuildingBlock: NUHQUE_clean_sbu_2, # of connection points: 7
#     Node 2, Type 0, BuildingBlock: NUHQUE_clean_sbu_2, # of connection points: 7
#     Node 3, Type 0, BuildingBlock: NUHQUE_clean_sbu_2, # of connection points: 7
#     Node 4, Type 0, BuildingBlock: NUHQUE_clean_sbu_2, # of connection points: 7
#     Node 5, Type 0, BuildingBlock: NUHQUE_clean_sbu_2, # of connection points: 7
#     Node 6, Type 0, BuildingBlock: NUHQUE_clean_sbu_2, # of connection points: 7
#     Node 7, Type 0, BuildingBlock: NUHQUE_clean_sbu_2, # of connection points: 7
#     Edge 8, Type (0, 0), BuildingBlock: EZIPEK_clean_linker_0, # of connection points: 2
#     Edge 9, Type (0, 0), BuildingBlock: EZIPEK_clean_linker_0, # of connection points: 2
#     Edge 10, Type (0, 0), BuildingBlock: EZIPEK_clean_linker_0, # of connection points: 2
#     Edge 11, Type (0, 0), BuildingBlock: EZIPEK_clean_linker_0, # of connection points: 2
#     Edge 12, Type (0, 0), BuildingBlock: EZIPEK_clean_linker_0, # of connection points: 2
#     Edge 13, Type (0, 0), BuildingBlock: EZIPEK_clean_linker_0, # of connection points: 2
#     Edge 14, Type (0, 0), BuildingBlock: EZIPEK_clean_linker_0, # of connection points: 2
#     Edge 15, Type (0, 0), BuildingBlock: EZIPEK_clean_linker_0, # of connection points: 2
#     Edge 16, Type (0, 0), BuildingBlock: EZIPEK_clean_linker_0, # of connection points: 2
#     Edge 17, Type (0, 0), BuildingBlock: EZIPEK_clean_linker_0, # of connection points: 2
#     Edge 18, Type (0, 0), BuildingBlock: EZIPEK_clean_linker_0, # of connection points: 2
#     Edge 19, Type (0, 0), BuildingBlock: EZIPEK_clean_linker_0, # of connection points: 2
#     Edge 20, Type (0, 0), BuildingBlock: EZIPEK_clean_linker_0, # of connection points: 2
#     Edge 21, Type (0, 0), BuildingBlock: EZIPEK_clean_linker_0, # of connection points: 2
#     Edge 22, Type (0, 0), BuildingBlock: EZIPEK_clean_linker_0, # of connection points: 2
#     Edge 23, Type (0, 0), BuildingBlock: EZIPEK_clean_linker_0, # of connection points: 2
#     Edge 24, Type (0, 0), BuildingBlock: EZIPEK_clean_linker_0, # of connection points: 2
#     Edge 25, Type (0, 0), BuildingBlock: EZIPEK_clean_linker_0, # of connection points: 2
#     Edge 26, Type (0, 0), BuildingBlock: EZIPEK_clean_linker_0, # of connection points: 2
#     Edge 27, Type (0, 0), BuildingBlock: EZIPEK_clean_linker_0, # of connection points: 2
#     Edge 28, Type (0, 0), BuildingBlock: EZIPEK_clean_linker_0, # of connection points: 2
#     Edge 29, Type (0, 0), BuildingBlock: EZIPEK_clean_linker_0, # of connection points: 2
#     Edge 30, Type (0, 0), BuildingBlock: EZIPEK_clean_linker_0, # of connection points: 2
#     Edge 31, Type (0, 0), BuildingBlock: EZIPEK_clean_linker_0, # of connection points: 2
#     Edge 32, Type (0, 0), BuildingBlock: EZIPEK_clean_linker_0, # of connection points: 2
#     Edge 33, Type (0, 0), BuildingBlock: EZIPEK_clean_linker_0, # of connection points: 2
#     Edge 34, Type (0, 0), BuildingBlock: EZIPEK_clean_linker_0, # of connection points: 2
#     Edge 35, Type (0, 0), BuildingBlock: EZIPEK_clean_linker_0, # of connection points: 2
# Relax obj value: 0.250
# Max RMSD: 0.185
# Mean RMSD: 0.185
data_MOF--net-wfs--node1-NUHQUE_clean_sbu_2--edge1-EZIPEK_clean_linker_0
_symmetry_space_group_name_H-M    P1
_symmetry_Int_Tables_number       1
_symmetry_cell_setting            triclinic
loop_
_symmetry_equiv_pos_as_xyz
'x, y, z'
_cell_length_a     23.80031
_cell_length_b     29.284338
_cell_length_c     23.566097
_cell_angle_alpha  89.895164
_cell_angle_beta   90.613785
_cell_angle_gamma 90.219131
loop_
_atom_site_label
_atom_site_type_symbol
_atom_site_fract_x
_atom_site_fract_y
_atom_site_fract_z
_atom_type_partial_charge
O0 O 0.26169 0.06495 0.25204 0.0
Tb1 Tb 0.22163 0.11431 0.196 0.0
Eu2 Eu 0.2249 0.20302 0.09796 0.0
C3 C 0.25941 0.02221 0.235 0.0
O4 O 0.24249 0.01405 0.18271 0.0
C5 C 0.2537 0.09872 0.07097 0.0
O6 O 0.1587 0.24421 0.05146 0.0
C7 C 0.32198 0.24272 0.11396 0.0
C8 C 0.11352 0.22148 0.03499 0.0
O9 O 0.11348 0.17683 0.03994 0.0
C10 C 0.17108 0.20554 0.22287 0.0
C11 C 0.34794 0.2847 0.13793 0.0
C12 C 0.40425 0.28452 0.15789 0.0
C13 C 0.42899 0.32449 0.18084 0.0
C14 C 0.39642 0.36436 0.18392 0.0
C15 C 0.34021 0.36467 0.16515 0.0
C16 C 0.31653 0.32505 0.14135 0.0
O17 O 0.27323 0.09686 0.12337 0.0
O18 O 0.22751 0.13532 0.05213 0.0
O19 O 0.15341 0.07232 0.2266 0.0
O20 O 0.14087 0.10863 0.15059 0.0
C21 C 0.11704 0.08142 0.18699 0.0
O22 O 0.16305 0.21294 0.16846 0.0
O23 O 0.21316 0.17944 0.23895 0.0
O24 O 0.29115 0.24775 0.06748 0.0
O25 O 0.30026 0.21336 0.15027 0.0
H26 H 0.42848 0.2533 0.15637 0.0
H27 H 0.41436 0.39494 0.2028 0.0
H28 H 0.27313 0.32543 0.12688 0.0
O29 O 0.25025 0.96823 0.75431 0.0
Tb30 Tb 0.21528 0.92629 0.82097 0.0
Eu31 Eu 0.22632 0.82595 0.91151 0.0
C32 C 0.28955 0.9984 0.76629 0.0
O33 O 0.32421 0.99078 0.80898 0.0
C34 C 0.25883 0.92823 0.94225 0.0
O35 O 0.16273 0.7874 0.96353 0.0
C36 C 0.32125 0.78552 0.89309 0.0
C37 C 0.13715 0.75058 0.944 0.0
O38 O 0.15998 0.7276 0.90247 0.0
C39 C 0.14841 0.83685 0.7954 0.0
C40 C 0.34692 0.7451 0.86682 0.0
C41 C 0.40418 0.74609 0.85186 0.0
C42 C 0.42935 0.70776 0.82676 0.0
C43 C 0.39643 0.66854 0.81706 0.0
C44 C 0.33903 0.66786 0.82976 0.0
C45 C 0.31458 0.7059 0.85562 0.0
O46 O 0.27646 0.92887 0.88956 0.0
O47 O 0.23488 0.89106 0.96185 0.0
O48 O 0.16424 0.98785 0.81907 0.0
O49 O 0.13823 0.93139 0.86895 0.0
C50 C 0.12636 0.97284 0.85347 0.0
O51 O 0.15798 0.81746 0.84499 0.0
O52 O 0.18283 0.86766 0.77367 0.0
O53 O 0.29065 0.77815 0.93858 0.0
O54 O 0.29991 0.81665 0.85851 0.0
H55 H 0.42875 0.77691 0.85847 0.0
H56 H 0.41475 0.6393 0.79645 0.0
H57 H 0.27017 0.70541 0.86532 0.0
O58 O 0.79037 0.96434 0.23708 0.0
Tb59 Tb 0.83099 0.91728 0.17963 0.0
Eu60 Eu 0.82008 0.82409 0.08548 0.0
C61 C 0.78817 1.00696 0.21948 0.0
O62 O 0.7992 0.01501 0.16585 0.0
C63 C 0.77501 0.92383 0.06019 0.0
O64 O 0.87489 0.7765 0.03473 0.0
C65 C 0.72424 0.78761 0.11249 0.0
C66 C 0.92559 0.79153 0.02261 0.0
O67 O 0.93854 0.83398 0.03499 0.0
C68 C 0.89563 0.82865 0.20082 0.0
C69 C 0.69834 0.74578 0.13566 0.0
C70 C 0.64196 0.74645 0.15352 0.0
C71 C 0.61677 0.70693 0.17624 0.0
C72 C 0.64894 0.66689 0.18123 0.0
C73 C 0.70556 0.66626 0.16511 0.0
C74 C 0.72966 0.70547 0.14093 0.0
O75 O 0.76563 0.92667 0.11499 0.0
O76 O 0.80995 0.8925 0.04157 0.0
O77 O 0.89565 0.96265 0.21069 0.0
O78 O 0.90103 0.93919 0.12549 0.0
C79 C 0.92459 0.96463 0.16464 0.0
O80 O 0.89164 0.81548 0.14778 0.0
O81 O 0.85657 0.85477 0.22288 0.0
O82 O 0.74667 0.78403 0.06181 0.0
O83 O 0.75422 0.81304 0.14783 0.0
H84 H 0.61813 0.77788 0.15099 0.0
H85 H 0.63068 0.63674 0.20063 0.0
H86 H 0.77335 0.70505 0.12836 0.0
O87 O 0.79367 0.05494 0.72945 0.0
Tb88 Tb 0.82077 0.0962 0.8015 0.0
Eu89 Eu 0.81082 0.1835 0.90093 0.0
C90 C 0.75016 0.02714 0.73162 0.0
O91 O 0.71484 0.0322 0.77346 0.0
C92 C 0.76727 0.08139 0.91562 0.0
O93 O 0.86612 0.22007 0.96519 0.0
C94 C 0.71735 0.22522 0.87555 0.0
C95 C 0.89659 0.25592 0.95073 0.0
O96 O 0.887 0.27432 0.90077 0.0
C97 C 0.89051 0.18417 0.78856 0.0
C98 C 0.69401 0.26867 0.8536 0.0
C99 C 0.63757 0.27053 0.83434 0.0
C100 C 0.61406 0.31208 0.8153 0.0
C101 C 0.64766 0.35159 0.81625 0.0
C102 C 0.70431 0.34974 0.83293 0.0
C103 C 0.72735 0.30837 0.85209 0.0
O104 O 0.75293 0.08593 0.8618 0.0
O105 O 0.7992 0.11301 0.93926 0.0
O106 O 0.88718 0.08695 0.86552 0.0
O107 O 0.8818 0.04172 0.79609 0.0
C108 C 0.90878 0.05071 0.84287 0.0
O109 O 0.88285 0.19626 0.84155 0.0
O110 O 0.85417 0.15753 0.76184 0.0
O111 O 0.74151 0.22674 0.92609 0.0
O112 O 0.74403 0.19884 0.83946 0.0
H113 H 0.61222 0.2397 0.83354 0.0
H114 H 0.63052 0.38354 0.80053 0.0
H115 H 0.77121 0.30699 0.86484 0.0
O116 O 0.72996 0.54707 0.7698 0.0
Tb117 Tb 0.70999 0.59898 0.70701 0.0
Eu118 Eu 0.72741 0.688 0.61108 0.0
C119 C 0.77881 0.52652 0.7733 0.0
O120 O 0.82318 0.54497 0.7497 0.0
C121 C 0.76587 0.58381 0.59368 0.0
O122 O 0.6629 0.71974 0.5519 0.0
C123 C 0.82144 0.73226 0.62541 0.0
C124 C 0.63809 0.7588 0.56346 0.0
O125 O 0.66079 0.78629 0.60128 0.0
C126 C 0.65206 0.69062 0.72685 0.0
C127 C 0.84628 0.77522 0.64749 0.0
C128 C 0.90249 0.77581 0.66728 0.0
C129 C 0.92703 0.81644 0.6881 0.0
C130 C 0.89467 0.85646 0.68894 0.0
C131 C 0.8384 0.85607 0.67051 0.0
C132 C 0.81455 0.81554 0.64919 0.0
O133 O 0.77777 0.58487 0.64828 0.0
O134 O 0.73788 0.61795 0.57044 0.0
O135 O 0.63714 0.55479 0.71147 0.0
O136 O 0.64528 0.59957 0.6405 0.0
C137 C 0.61427 0.56859 0.66445 0.0
O138 O 0.66088 0.70565 0.67511 0.0
O139 O 0.68668 0.66108 0.75101 0.0
O140 O 0.79019 0.7352 0.57895 0.0
O141 O 0.80165 0.70302 0.66301 0.0
H142 H 0.92686 0.74461 0.66733 0.0
H143 H 0.91275 0.88766 0.70598 0.0
H144 H 0.77111 0.81533 0.63492 0.0
O145 O 0.75865 0.46703 0.24717 0.0
Tb146 Tb 0.72264 0.42904 0.31713 0.0
Eu147 Eu 0.73388 0.32526 0.39894 0.0
C148 C 0.78902 0.50352 0.25862 0.0
O149 O 0.80363 0.50999 0.31196 0.0
C150 C 0.76447 0.42605 0.44096 0.0
O151 O 0.67723 0.27508 0.44376 0.0
C152 C 0.83076 0.2929 0.36953 0.0
C153 C 0.63268 0.29335 0.46713 0.0
O154 O 0.62871 0.33802 0.46824 0.0
C155 C 0.652 0.34228 0.28791 0.0
C156 C 0.85964 0.2548 0.34137 0.0
C157 C 0.91758 0.25817 0.33009 0.0
C158 C 0.94647 0.22157 0.30496 0.0
C159 C 0.91651 0.1815 0.29154 0.0
C160 C 0.85899 0.17746 0.30382 0.0
C161 C 0.8308 0.21416 0.32886 0.0
O162 O 0.78142 0.43146 0.38836 0.0
O163 O 0.74087 0.38714 0.45557 0.0
O164 O 0.63844 0.4335 0.35096 0.0
O165 O 0.67903 0.49387 0.32319 0.0
C166 C 0.63289 0.47708 0.34328 0.0
O167 O 0.66102 0.32158 0.33672 0.0
O168 O 0.68844 0.37207 0.26738 0.0
O169 O 0.80641 0.28326 0.41812 0.0
O170 O 0.80156 0.32137 0.33729 0.0
H171 H 0.94035 0.28907 0.34124 0.0
H172 H 0.9383 0.15299 0.27254 0.0
H173 H 0.78663 0.21089 0.339 0.0
O174 O 0.28134 0.46854 0.74062 0.0
Tb175 Tb 0.32476 0.42465 0.6815 0.0
Eu176 Eu 0.31474 0.32461 0.59456 0.0
C177 C 0.26391 0.50848 0.72206 0.0
O178 O 0.2672 0.51605 0.66722 0.0
C179 C 0.27808 0.42583 0.56011 0.0
O180 O 0.3727 0.27701 0.54778 0.0
C181 C 0.22059 0.28806 0.6259 0.0
C182 C 0.42069 0.29544 0.53226 0.0
O183 O 0.428 0.33948 0.53979 0.0
C184 C 0.39363 0.3378 0.7078 0.0
C185 C 0.19569 0.24784 0.65363 0.0
C186 C 0.13846 0.24832 0.66857 0.0
C187 C 0.11345 0.20961 0.69334 0.0
C188 C 0.14631 0.17056 0.70272 0.0
C189 C 0.20359 0.17023 0.6894 0.0
C190 C 0.22822 0.20885 0.66458 0.0
O191 O 0.26254 0.42822 0.61354 0.0
O192 O 0.30278 0.38845 0.54225 0.0
O193 O 0.3857 0.47771 0.6987 0.0
O194 O 0.38776 0.4446 0.61897 0.0
C195 C 0.4101 0.47673 0.64981 0.0
O196 O 0.38822 0.32183 0.65599 0.0
O197 O 0.35625 0.36586 0.729 0.0
O198 O 0.24331 0.28093 0.57591 0.0
O199 O 0.24954 0.31671 0.6582 0.0
H200 H 0.11368 0.27886 0.66172 0.0
H201 H 0.12781 0.14093 0.72309 0.0
H202 H 0.27258 0.20873 0.65456 0.0
O203 O 0.28906 0.56557 0.22876 0.0
Tb204 Tb 0.3243 0.60639 0.29764 0.0
Eu205 Eu 0.32251 0.69301 0.39957 0.0
C206 C 0.25305 0.53227 0.23835 0.0
O207 O 0.22935 0.53066 0.28834 0.0
C208 C 0.28137 0.59049 0.41803 0.0
O209 O 0.37879 0.7387 0.4534 0.0
C210 C 0.22642 0.72929 0.37179 0.0
C211 C 0.42848 0.72219 0.46747 0.0
O212 O 0.43947 0.67954 0.45487 0.0
C213 C 0.39665 0.69222 0.28407 0.0
C214 C 0.19963 0.77094 0.34878 0.0
C215 C 0.14321 0.76928 0.3295 0.0
C216 C 0.11682 0.80877 0.30793 0.0
C217 C 0.1477 0.84962 0.30547 0.0
C218 C 0.2042 0.85141 0.32289 0.0
C219 C 0.22977 0.81223 0.34572 0.0
O220 O 0.26358 0.59405 0.36504 0.0
O221 O 0.31403 0.62267 0.43973 0.0
O222 O 0.38864 0.55628 0.27998 0.0
O223 O 0.39549 0.59622 0.35509 0.0
C224 C 0.41905 0.5649 0.32466 0.0
O225 O 0.39333 0.70347 0.33786 0.0
O226 O 0.35541 0.66917 0.25924 0.0
O227 O 0.24929 0.73254 0.42284 0.0
O228 O 0.25618 0.70446 0.33648 0.0
H229 H 0.12017 0.73729 0.33053 0.0
H230 H 0.1282 0.87992 0.28758 0.0
H231 H 0.2733 0.81366 0.35969 0.0
C232 C 0.22886 0.97814 0.32219 0.0
C233 C 0.2645 0.98255 0.27429 0.0
C234 C 0.27435 0.89941 0.26941 0.0
C235 C 0.23571 0.89489 0.31454 0.0
N236 N 0.19227 0.92844 0.39588 0.0
N237 N 0.33684 0.94964 0.21737 0.0
C238 C 0.21878 0.93393 0.34519 0.0
C239 C 0.29297 0.94374 0.25355 0.0
N240 N 0.20115 0.01511 0.34316 0.0
N241 N 0.28991 0.862 0.23885 0.0
H242 H 0.35095 0.9821 0.20564 0.0
H243 H 0.36241 0.92304 0.20398 0.0
H244 H 0.27728 0.82888 0.24885 0.0
H245 H 0.3125 0.86409 0.20132 0.0
H246 H 0.20934 0.04855 0.33094 0.0
H247 H 0.16821 1.01244 0.37174 0.0
H248 H 0.18313 0.95541 0.42297 0.0
H249 H 0.18459 0.89623 0.4133 0.0
C250 C 0.04202 0.83298 0.80007 0.0
C251 C 0.09216 0.82799 0.76768 0.0
C252 C 0.03382 0.8146 0.68205 0.0
C253 C 0.98438 0.81679 0.71524 0.0
N254 N 0.94172 0.81922 0.80729 0.0
N255 N 0.13523 0.80502 0.68028 0.0
C256 C 0.98878 0.82308 0.77472 0.0
C257 C 0.08786 0.81626 0.70927 0.0
N258 N 0.04447 0.85001 0.85412 0.0
N259 N 0.02919 0.81267 0.62427 0.0
H260 H 0.17507 0.80485 0.69916 0.0
H261 H 0.13453 0.79176 0.63932 0.0
H262 H 0.99055 0.81092 0.60306 0.0
H263 H 0.06327 0.81622 0.59726 0.0
H264 H 1.0093 0.86011 0.87668 0.0
H265 H 0.08142 0.85907 0.8751 0.0
H266 H 0.94221 0.82052 0.85137 0.0
H267 H 0.90227 0.81071 0.79068 0.0
C268 C 0.84574 0.09398 0.32386 0.0
C269 C 0.82933 0.13343 0.29294 0.0
C270 C 0.76243 0.08694 0.23852 0.0
C271 C 0.78905 0.04686 0.25871 0.0
N272 N 0.85371 1.01179 0.32592 0.0
N273 N 0.77219 0.16769 0.21908 0.0
C274 C 0.82913 0.05005 0.30388 0.0
C275 C 0.78678 0.13023 0.25051 0.0
N276 N 0.8765 0.09866 0.37286 0.0
N277 N 0.7143 0.08307 0.20689 0.0
H278 H 0.78987 0.19991 0.22556 0.0
H279 H 0.74579 0.16607 0.18359 0.0
H280 H 0.69553 0.05135 0.1993 0.0
H281 H 0.69027 0.11096 0.19398 0.0
H282 H 0.88527 0.07165 0.40031 0.0
H283 H 0.88851 0.13043 0.389 0.0
H284 H 0.88994 1.01268 0.35109 0.0
H285 H 0.83844 0.97896 0.31909 0.0
C286 C 0.99644 0.19012 0.79721 0.0
C287 C 0.9468 0.19447 0.763 0.0
C288 C 1.00677 0.211 0.68069 0.0
C289 C 0.05514 0.21056 0.71659 0.0
N290 N 0.09287 0.21382 0.81173 0.0
N291 N 0.9054 0.21957 0.67438 0.0
C292 C 0.0487 0.2051 0.77577 0.0
C293 C 0.9521 0.20804 0.70526 0.0
N294 N 0.99521 0.16836 0.84854 0.0
N295 N 1.01288 0.21255 0.62318 0.0
H296 H 0.86518 0.21953 0.69151 0.0
H297 H 0.90723 0.23362 0.6338 0.0
H298 H 0.05201 0.21503 0.60389 0.0
H299 H 0.97952 0.20796 0.59476 0.0
H300 H 0.03136 0.16082 0.87204 0.0
H301 H 0.95974 0.15226 0.86441 0.0
H302 H 0.08912 0.21361 0.85573 0.0
H303 H 0.13154 0.22603 0.7976 0.0
C304 C 0.26281 0.07984 0.78605 0.0
C305 C 0.27942 0.04579 0.74656 0.0
C306 C 0.25294 0.09632 0.66752 0.0
C307 C 0.238 0.13041 0.70719 0.0
N308 N 0.24446 0.15999 0.80229 0.0
N309 N 0.30169 0.02493 0.65065 0.0
C310 C 0.24863 0.12394 0.76582 0.0
C311 C 0.27832 0.05524 0.68747 0.0
N312 N 0.25566 0.06939 0.84216 0.0
N313 N 0.2405 0.10229 0.61127 0.0
H314 H 0.32062 0.99469 0.66429 0.0
H315 H 0.30678 0.03155 0.60759 0.0
H316 H 0.22311 0.13235 0.5952 0.0
H317 H 0.24431 0.07661 0.58107 0.0
H318 H 0.2374 0.09172 0.8709 0.0
H319 H 0.2622 0.0371 0.85945 0.0
H320 H 0.25693 0.1583 0.84476 0.0
H321 H 0.2341 0.19285 0.78863 0.0
C322 C 0.05433 0.81776 0.22269 0.0
C323 C 0.05925 0.80768 0.28126 0.0
C324 C 0.95569 0.80562 0.28701 0.0
C325 C 0.95145 0.82214 0.23032 0.0
N326 N 1.00009 0.85623 0.15074 0.0
N327 N 1.01431 0.79749 0.37162 0.0
C328 C 1.00171 0.83138 0.19985 0.0
C329 C 1.00979 0.80292 0.3142 0.0
N330 N 0.10016 0.81422 0.18849 0.0
N331 N 0.90854 0.79112 0.31429 0.0
H332 H 0.05293 0.79504 0.39269 0.0
H333 H 0.97999 0.79879 0.39863 0.0
H334 H 0.8687 0.79197 0.29547 0.0
H335 H 0.90963 0.77458 0.35345 0.0
H336 H 0.09773 0.81744 0.14448 0.0
H337 H 0.13926 0.80314 0.20338 0.0
H338 H 0.03607 0.86767 0.13019 0.0
H339 H 0.96347 0.87058 0.13447 0.0
C340 C 0.73235 0.94239 0.72497 0.0
C341 C 0.75339 0.98284 0.69976 0.0
C342 C 0.81402 0.93598 0.63942 0.0
C343 C 0.80406 0.89821 0.67594 0.0
N344 N 0.75443 0.86571 0.75551 0.0
N345 N 0.80103 0.01725 0.6211 0.0
C346 C 0.76279 0.9012 0.71879 0.0
C347 C 0.78986 0.97919 0.65267 0.0
N348 N 0.6823 0.9428 0.75262 0.0
N349 N 0.84622 0.93016 0.59231 0.0
H350 H 0.77843 0.04743 0.62625 0.0
H351 H 0.83157 0.01911 0.58995 0.0
H352 H 0.86359 0.89871 0.58158 0.0
H353 H 0.85312 0.95528 0.5619 0.0
H354 H 0.66352 0.91341 0.76886 0.0
H355 H 0.65569 0.97099 0.75129 0.0
H356 H 0.72926 0.86836 0.79125 0.0
H357 H 0.7761 0.83491 0.75304 0.0
C358 C 0.04562 0.19355 0.32317 0.0
C359 C 1.00856 0.22391 0.29419 0.0
C360 C 0.08937 0.25567 0.24365 0.0
C361 C 0.12309 0.21819 0.26119 0.0
N362 N 0.13534 0.15469 0.32626 0.0
N363 N 0.99538 0.28247 0.22303 0.0
C364 C 0.10219 0.18837 0.30411 0.0
C365 C 0.03062 0.25519 0.25407 0.0
N366 N 0.02707 0.17076 0.37012 0.0
N367 N 0.11393 0.29182 0.21675 0.0
H368 H 0.9519 0.28232 0.2278 0.0
H369 H 1.00889 0.30212 0.18884 0.0
H370 H 0.1573 0.29356 0.21061 0.0
H371 H 0.09255 0.32181 0.20677 0.0
H372 H 0.05298 0.15147 0.39666 0.0
H373 H 0.98657 0.1747 0.38584 0.0
H374 H 0.11982 0.12746 0.3499 0.0
H375 H 0.17876 0.15424 0.32244 0.0
C376 C 0.76055 0.46993 0.85071 0.0
C377 C 0.77912 0.47873 0.79466 0.0
C378 C 0.76245 0.3986 0.76892 0.0
C379 C 0.74003 0.39078 0.82362 0.0
N380 N 0.72961 0.41408 0.92058 0.0
N381 N 0.81161 0.44935 0.70491 0.0
C382 C 0.74342 0.42491 0.86602 0.0
C383 C 0.78522 0.44224 0.75545 0.0
N384 N 0.75751 0.50524 0.8884 0.0
N385 N 0.75868 0.365 0.72875 0.0
H386 H 0.82712 0.48088 0.692 0.0
H387 H 0.82238 0.42326 0.67721 0.0
H388 H 0.74512 0.33191 0.73793 0.0
H389 H 0.76626 0.37015 0.68581 0.0
H390 H 0.73854 0.50296 0.92787 0.0
H391 H 0.77317 0.53775 0.87926 0.0
H392 H 0.73476 0.4361 0.95483 0.0
H393 H 0.71671 0.38134 0.93235 0.0
C394 C 0.53616 0.32223 0.17421 0.0
C395 C 0.48679 0.32449 0.2076 0.0
C396 C 0.54518 0.34131 0.29187 0.0
C397 C 0.59528 0.33551 0.25965 0.0
N398 N 0.63754 0.31211 0.17196 0.0
N399 N 0.44527 0.32663 0.30022 0.0
C400 C 0.59047 0.32369 0.20122 0.0
C401 C 0.49178 0.33112 0.26701 0.0
N402 N 0.53128 0.32042 0.11645 0.0
N403 N 0.54781 0.35836 0.34582 0.0
H404 H 0.40582 0.3175 0.2841 0.0
H405 H 0.44651 0.32772 0.34434 0.0
H406 H 0.58495 0.36472 0.36783 0.0
H407 H 0.51278 0.36977 0.3677 0.0
H408 H 0.56529 0.32389 0.08933 0.0
H409 H 0.49255 0.31893 0.09541 0.0
H410 H 0.63641 0.29867 0.13109 0.0
H411 H 0.67754 0.31196 0.19046 0.0
C412 C 0.30682 0.58641 0.84125 0.0
C413 C 0.30403 0.62837 0.811 0.0
C414 C 0.24591 0.59172 0.7376 0.0
C415 C 0.25956 0.54866 0.76115 0.0
N416 N 0.27445 0.50775 0.84847 0.0
N417 N 0.26979 0.67191 0.73058 0.0
C418 C 0.28134 0.54665 0.81729 0.0
C419 C 0.27197 0.63161 0.75992 0.0
N420 N 0.33568 0.58438 0.89163 0.0
N421 N 0.20675 0.59416 0.69495 0.0
H422 H 0.28811 0.70208 0.74534 0.0
H423 H 0.25295 0.67482 0.68979 0.0
H424 H 0.18479 0.56526 0.68101 0.0
H425 H 0.19139 0.62474 0.67849 0.0
H426 H 0.34527 0.55401 0.91254 0.0
H427 H 0.35221 0.61335 0.91151 0.0
H428 H 0.28643 0.50456 0.89087 0.0
H429 H 0.24972 0.48063 0.83386 0.0
C430 C 0.45635 0.71379 0.19809 0.0
C431 C 0.45266 0.69852 0.25535 0.0
C432 C 0.55618 0.69992 0.26186 0.0
C433 C 0.55982 0.70832 0.20296 0.0
N434 N 0.51269 0.71754 0.11267 0.0
N435 N 0.50279 0.66518 0.33593 0.0
C436 C 0.50968 0.71383 0.17032 0.0
C437 C 0.50358 0.68855 0.28577 0.0
N438 N 0.40955 0.72987 0.17078 0.0
N439 N 0.60325 0.70297 0.29549 0.0
H440 H 0.46646 0.65375 0.35498 0.0
H441 H 0.53884 0.65223 0.35551 0.0
H442 H 0.64231 0.71319 0.28016 0.0
H443 H 0.60239 0.69996 0.33951 0.0
H444 H 0.41068 0.74541 0.13101 0.0
H445 H 0.37048 0.73187 0.19021 0.0
H446 H 0.47745 0.71671 0.08608 0.0
H447 H 0.55074 0.71776 0.09113 0.0
C448 C 0.80945 0.586 0.23811 0.0
C449 C 0.78827 0.54359 0.21877 0.0
C450 C 0.72937 0.5835 0.14867 0.0
C451 C 0.74029 0.62516 0.17785 0.0
N452 N 0.79049 0.66608 0.25205 0.0
N453 N 0.75248 0.50302 0.13764 0.0
C454 C 0.78136 0.62674 0.22212 0.0
C455 C 0.7555 0.54251 0.16823 0.0
N456 N 0.8574 0.58714 0.27037 0.0
N457 N 0.69269 0.58311 0.10366 0.0
H458 H 0.77684 0.47464 0.14829 0.0
H459 H 0.73174 0.49983 0.09878 0.0
H460 H 0.67584 0.61293 0.08629 0.0
H461 H 0.67754 0.55347 0.08451 0.0
H462 H 0.87762 0.61732 0.28223 0.0
H463 H 0.88062 0.55764 0.27866 0.0
H464 H 0.81519 0.66743 0.28876 0.0
H465 H 0.76989 0.69665 0.24327 0.0
C466 C 0.45297 0.31152 0.79264 0.0
C467 C 0.44914 0.33094 0.73741 0.0
C468 C 0.55221 0.32911 0.73083 0.0
C469 C 0.55661 0.31463 0.7882 0.0
N470 N 0.51074 0.29869 0.87687 0.0
N471 N 0.49679 0.36881 0.66026 0.0
C472 C 0.50681 0.30747 0.82004 0.0
C473 C 0.49928 0.34272 0.70835 0.0
N474 N 0.40552 0.29572 0.81828 0.0
N475 N 0.59862 0.3289 0.69712 0.0
H476 H 0.4593 0.38114 0.64324 0.0
H477 H 0.53221 0.38247 0.64087 0.0
H478 H 0.63767 0.31699 0.71102 0.0
H479 H 0.59709 0.33576 0.65375 0.0
H480 H 0.40615 0.27693 0.85585 0.0
H481 H 0.36574 0.29819 0.79952 0.0
H482 H 0.47613 0.29798 0.90354 0.0
H483 H 0.54911 0.29574 0.8983 0.0
C484 C 0.29065 0.48828 0.15466 0.0
C485 C 0.25554 0.48983 0.20279 0.0
C486 C 0.26264 0.40713 0.21419 0.0
C487 C 0.30561 0.40648 0.17274 0.0
N488 N 0.3556 0.44432 0.09753 0.0
N489 N 0.18371 0.44857 0.25242 0.0
C490 C 0.3175 0.4464 0.14043 0.0
C491 C 0.23356 0.44845 0.22438 0.0
N492 N 0.29545 0.52626 0.12134 0.0
N493 N 0.25211 0.36937 0.24665 0.0
H494 H 0.15927 0.47799 0.25522 0.0
H495 H 0.16327 0.41889 0.26549 0.0
H496 H 0.27308 0.33848 0.24177 0.0
H497 H 0.22567 0.36983 0.28158 0.0
H498 H 0.31809 0.52766 0.08388 0.0
H499 H 0.27123 0.55531 0.12843 0.0
H500 H 0.37107 0.47275 0.07617 0.0
H501 H 0.37312 0.41366 0.08398 0.0
C502 C 0.49244 0.70707 0.74247 0.0
C503 C 0.48722 0.71008 0.80211 0.0
C504 C 0.59059 0.71027 0.81142 0.0
C505 C 0.59553 0.70011 0.75264 0.0
N506 N 0.54712 0.67971 0.6644 0.0
N507 N 0.53108 0.70998 0.89467 0.0
C508 C 0.54544 0.69668 0.71847 0.0
C509 C 0.53627 0.71073 0.83702 0.0
N510 N 0.44616 0.71369 0.70854 0.0
N511 N 0.63758 0.72101 0.84246 0.0
H512 H 0.49224 0.71069 0.9147 0.0
H513 H 0.56495 0.70523 0.92239 0.0
H514 H 0.67752 0.72252 0.82476 0.0
H515 H 0.63629 0.73289 0.88405 0.0
H516 H 0.44729 0.71386 0.66449 0.0
H517 H 0.40712 0.72324 0.72426 0.0
H518 H 0.51141 0.67136 0.64068 0.0
H519 H 0.58306 0.66802 0.64484 0.0
C520 C 0.04766 0.02572 0.22447 0.0
C521 C 0.06211 0.057 0.18116 0.0
C522 C 0.98641 0.02517 0.12078 0.0
C523 C 0.9777 0.99072 0.16229 0.0
N524 N 1.01115 0.95116 0.2459 0.0
N525 N 0.03215 0.09704 0.09687 0.0
C526 C 1.01213 0.98875 0.21145 0.0
C527 C 0.02827 0.05952 0.13106 0.0
N528 N 0.06341 0.03361 0.27952 0.0
N529 N 0.95462 0.02512 0.07215 0.0
H530 H 0.05548 0.12563 0.10849 0.0
H531 H 1.00725 0.10288 0.06116 0.0
H532 H 0.9233 1.00107 0.06395 0.0
H533 H 0.96115 0.04692 0.03804 0.0
H534 H 0.05031 1.01319 0.31321 0.0
H535 H 0.08156 0.06436 0.29251 0.0
H536 H 0.03959 0.94646 0.27937 0.0
H537 H 0.98616 0.92266 0.23716 0.0
C538 C 0.97063 0.98359 0.83457 0.0
C539 C 0.96018 0.02597 0.86098 0.0
C540 C 0.05949 0.03199 0.88839 0.0
C541 C 0.06992 0.99209 0.85644 0.0
N542 N 0.03831 0.93842 0.7853 0.0
N543 N 0.98991 0.08057 0.93192 0.0
C544 C 0.02631 0.96983 0.8262 0.0
C545 C 1.00319 0.04757 0.89358 0.0
N546 N 0.92714 0.95551 0.81937 0.0
N547 N 0.10358 0.05608 0.911 0.0
H548 H 0.94862 0.08846 0.94203 0.0
H549 H 1.0191 0.09606 0.95889 0.0
H550 H 0.1451 0.04512 0.90806 0.0
H551 H 0.09974 0.08838 0.92887 0.0
H552 H 0.93293 0.92233 0.80462 0.0
H553 H 0.88567 0.96324 0.82876 0.0
H554 H 1.00801 0.92561 0.75722 0.0
H555 H 0.07919 0.92889 0.77524 0.0
C556 C 0.55035 0.52461 0.60114 0.0
C557 C 0.55765 0.55524 0.64671 0.0
C558 C 0.45851 0.54938 0.66683 0.0
C559 C 0.45548 0.50885 0.63453 0.0
N560 N 0.5008 0.45761 0.56842 0.0
N561 N 0.51889 0.59227 0.72912 0.0
C562 C 0.50142 0.49674 0.5996 0.0
C563 C 0.5117 0.56696 0.68104 0.0
N564 N 0.59026 0.52155 0.56034 0.0
N565 N 0.41084 0.5705 0.68461 0.0
H566 H 0.5577 0.60535 0.74213 0.0
H567 H 0.48678 0.59686 0.75822 0.0
H568 H 0.37094 0.55936 0.67195 0.0
H569 H 0.41171 0.6019 0.70541 0.0
H570 H 0.58469 0.50206 0.52387 0.0
H571 H 0.62617 0.54208 0.56048 0.0
H572 H 0.53726 0.44394 0.5513 0.0
H573 H 0.46512 0.43776 0.56174 0.0
C574 C 0.54013 0.49718 0.38545 0.0
C575 C 0.57857 0.5006 0.34015 0.0
C576 C 0.51428 0.5506 0.28799 0.0
C577 C 0.47583 0.54692 0.33323 0.0
N578 N 0.4571 0.52663 0.43049 0.0
N579 N 0.59411 0.51825 0.24098 0.0
C580 C 0.49002 0.52308 0.38356 0.0
C581 C 0.56394 0.52443 0.28955 0.0
N582 N 0.54945 0.46701 0.42865 0.0
N583 N 0.50429 0.58051 0.24437 0.0
H584 H 0.62739 0.49545 0.23772 0.0
H585 H 0.58192 0.5311 0.20153 0.0
H586 H 0.46836 0.60064 0.24156 0.0
H587 H 0.5342 0.58915 0.2142 0.0
H588 H 0.51747 0.4561 0.45526 0.0
H589 H 0.58732 0.45003 0.43517 0.0
H590 H 0.46917 0.51445 0.47033 0.0
H591 H 0.41984 0.54509 0.43113 0.0
C592 C 0.20469 0.03225 0.02395 0.0
C593 C 0.25536 0.05659 0.03519 0.0
C594 C 0.30847 0.99742 0.98437 0.0
C595 C 0.25816 0.97153 0.97639 0.0
N596 N 0.15897 0.96174 0.99719 0.0
N597 N 0.35616 0.06106 0.03097 0.0
C598 C 0.20663 0.98802 0.99903 0.0
C599 C 0.30745 0.03875 0.01673 0.0
N600 N 0.15402 0.05188 0.03558 0.0
N601 N 0.3575 0.98233 0.96134 0.0
H602 H 0.35676 0.09265 0.05135 0.0
H603 H 0.39605 0.04752 0.02528 0.0
H604 H 0.36167 0.95025 0.94282 0.0
H605 H 0.39377 1.00213 0.95862 0.0
H606 H 0.11527 0.03794 0.02414 0.0
H607 H 0.14988 0.08457 0.05181 0.0
H608 H 0.12363 0.96834 0.02146 0.0
H609 H 0.15474 0.93156 0.97459 0.0
C610 C 0.06999 0.74107 0.02382 0.0
C611 C 0.07918 0.74037 0.96442 0.0
C612 C 0.97737 0.74878 0.94752 0.0
C613 C 0.97154 0.76057 0.00506 0.0
N614 N 1.00351 0.75062 0.10085 0.0
N615 N 0.04004 0.73474 0.86907 0.0
C616 C 1.01529 0.75092 0.04429 0.0
C617 C 0.03218 0.74009 0.92602 0.0
N618 N 0.11431 0.73366 0.06001 0.0
N619 N 0.93029 0.74591 0.91407 0.0
H620 H 0.07835 0.72668 0.85108 0.0
H621 H 1.00849 0.73859 0.83863 0.0
H622 H 0.89034 0.75252 0.92983 0.0
H623 H 0.92979 0.73346 0.87275 0.0
H624 H 0.11258 0.73661 0.10389 0.0
H625 H 0.15366 0.72365 0.04544 0.0
H626 H 0.03213 0.74238 0.13282 0.0
H627 H 0.96273 0.75533 0.11543 0.0
C628 C 0.73454 0.04194 0.0053 0.0
C629 C 0.75416 0.03845 0.94853 0.0
C630 C 0.75874 0.95468 0.96078 0.0
C631 C 0.75282 0.96011 0.01999 0.0
N632 N 0.69861 1.0022 0.08771 0.0
N633 N 0.78375 0.98918 0.87167 0.0
C634 C 0.73015 1.00188 0.03968 0.0
C635 C 0.76446 0.99405 0.92557 0.0
N636 N 0.72032 0.08361 0.0267 0.0
N637 N 0.75545 0.91184 0.93808 0.0
H638 H 0.79381 0.01642 0.84569 0.0
H639 H 0.79425 0.95794 0.85387 0.0
H640 H 0.74588 0.88329 0.96278 0.0
H641 H 0.75393 0.90521 0.8947 0.0
H642 H 0.7143 0.0895 0.0698 0.0
H643 H 0.71624 0.11275 0.0015 0.0
H644 H 0.67634 0.03059 0.10129 0.0
H645 H 0.68704 0.97233 0.10871 0.0
C646 C 0.05247 0.27109 0.97209 0.0
C647 C 0.05937 0.24482 0.02223 0.0
C648 C 0.95746 0.24774 0.03832 0.0
C649 C 0.9502 0.26576 0.98297 0.0
N650 N 0.98998 0.31853 0.91558 0.0
N651 N 0.02089 0.2161 0.10962 0.0
C652 C 0.99747 0.28504 0.95526 0.0
C653 C 1.01251 0.23623 0.05786 0.0
N654 N 0.09786 0.28072 0.93911 0.0
N655 N 0.91171 0.24379 0.07255 0.0
H656 H 0.06088 0.21083 0.12677 0.0
H657 H 0.98892 0.20412 0.13549 0.0
H658 H 0.87228 0.2559 0.05994 0.0
H659 H 0.91314 0.23289 0.11454 0.0
H660 H 0.0946 0.29505 0.89874 0.0
H661 H 0.13878 0.27185 0.95078 0.0
H662 H 0.02299 0.3358 0.89627 0.0
H663 H 0.95109 0.33392 0.9086 0.0
C664 C 0.81224 0.49882 0.47899 0.0
C665 C 0.76949 0.46468 0.48355 0.0
C666 C 0.73962 0.50164 0.57211 0.0
C667 C 0.77333 0.54057 0.56025 0.0
N668 N 0.83964 0.57728 0.49834 0.0
N669 N 0.68237 0.44284 0.5295 0.0
C670 C 0.80872 0.53959 0.51216 0.0
C671 C 0.73062 0.4683 0.52907 0.0
N672 N 0.85812 0.49147 0.44597 0.0
N673 N 0.71488 0.49657 0.62369 0.0
H674 H 0.66741 0.42495 0.49437 0.0
H675 H 0.65262 0.44491 0.56145 0.0
H676 H 0.72063 0.51961 0.65665 0.0
H677 H 0.69428 0.46668 0.63583 0.0
H678 H 0.89218 0.51389 0.4446 0.0
H679 H 0.86585 0.46038 0.4262 0.0
H680 H 0.86123 0.5802 0.46024 0.0
H681 H 0.8408 0.6066 0.52343 0.0
C682 C 0.48224 0.26081 0.45912 0.0
C683 C 0.47042 0.26789 0.51696 0.0
C684 C 0.57032 0.26155 0.54127 0.0
C685 C 0.58245 0.26634 0.48307 0.0
N686 N 0.55393 0.25512 0.38623 0.0
N687 N 0.49834 0.25785 0.61408 0.0
C688 C 0.53946 0.25984 0.44175 0.0
C689 C 0.51315 0.2618 0.55853 0.0
N690 N 0.43856 0.25632 0.42156 0.0
N691 N 0.61386 0.25855 0.57924 0.0
H692 H 0.45627 0.25629 0.62599 0.0
H693 H 0.52662 0.25352 0.64754 0.0
H694 H 0.65557 0.25787 0.56589 0.0
H695 H 0.60922 0.25483 0.62279 0.0
H696 H 0.44306 0.24948 0.3786 0.0
H697 H 0.39687 0.25693 0.43496 0.0
H698 H 0.52533 0.25196 0.3528 0.0
H699 H 0.59585 0.25286 0.37408 0.0
C700 C 0.31345 0.47263 0.47615 0.0
C701 C 0.27487 0.46732 0.52169 0.0
C702 C 0.23943 0.5447 0.4995 0.0
C703 C 0.2732 0.54665 0.45027 0.0
N704 N 0.32559 0.50287 0.38217 0.0
N705 N 0.18874 0.495 0.56347 0.0
C706 C 0.30424 0.50736 0.43521 0.0
C707 C 0.23421 0.50247 0.52982 0.0
N708 N 0.36159 0.44745 0.47354 0.0
N709 N 0.21163 0.58274 0.51701 0.0
H710 H 0.17972 0.46334 0.58144 0.0
H711 H 0.15621 0.51847 0.56737 0.0
H712 H 0.21218 0.61334 0.49424 0.0
H713 H 0.19128 0.58446 0.5559 0.0
H714 H 0.39117 0.45177 0.44167 0.0
H715 H 0.3768 0.42772 0.50698 0.0
H716 H 0.3448 0.47298 0.36832 0.0
H717 H 0.31797 0.52658 0.35035 0.0
C718 C 0.53295 0.77329 0.57089 0.0
C719 C 0.58203 0.7686 0.5369 0.0
C720 C 0.52224 0.75842 0.45252 0.0
C721 C 0.47565 0.75148 0.48825 0.0
N722 N 0.43022 0.76984 0.57513 0.0
N723 N 0.62342 0.76807 0.44434 0.0
C724 C 0.47888 0.76504 0.54559 0.0
C725 C 0.57646 0.76545 0.47708 0.0
N726 N 0.53809 0.78297 0.62742 0.0
N727 N 0.51354 0.75973 0.39523 0.0
H728 H 0.6629 0.77616 0.46135 0.0
H729 H 0.62373 0.76241 0.40083 0.0
H730 H 0.47333 0.75671 0.37753 0.0
H731 H 0.54424 0.7683 0.36599 0.0
H732 H 0.50459 0.78522 0.65511 0.0
H733 H 0.57628 0.7892 0.64774 0.0
H734 H 0.42777 0.78341 0.61574 0.0
H735 H 0.39094 0.76345 0.55668 0.0
loop_
_geom_bond_atom_site_label_1
_geom_bond_atom_site_label_2
_geom_bond_distance
_geom_bond_site_symmetry_2
_ccdc_geom_bond_type
O0 Tb1 2.292 . S
O0 C3 1.255 . S
Tb1 O0 2.292 . S
Tb1 O17 2.326 . S
Tb1 O19 2.500 . S
Tb1 O20 2.473 . S
Tb1 O23 2.324 . S
Eu2 O6 2.292 . S
Eu2 C7 2.852 . S
Eu2 O18 2.324 . S
Eu2 O22 2.326 . S
Eu2 O24 2.500 . S
Eu2 O25 2.473 . S
C3 O0 1.255 . S
C3 O4 1.247 . S
O4 C3 1.247 . S
C5 O17 1.242 . S
C5 O18 1.258 . S
O6 Eu2 2.292 . S
O6 C8 1.255 . S
C7 Eu2 2.852 . S
C7 C11 1.503 . S
C7 O24 1.273 . S
C7 O25 1.257 . S
C8 O6 1.255 . S
C8 O9 1.247 1_455 S
O9 C8 1.247 1_655 S
C10 O22 1.242 . S
C10 O23 1.258 . S
C11 C7 1.503 . S
C11 C12 1.379 . S
C11 C16 1.392 . S
C12 C11 1.379 . S
C12 C13 1.404 . S
C12 H26 0.929 . S
C13 C12 1.404 . S
C13 C14 1.389 . S
C14 C13 1.389 . S
C14 C15 1.399 . S
C14 H27 0.931 . S
C15 C14 1.399 . S
C15 C16 1.390 . S
C16 C11 1.392 . S
C16 C15 1.390 . S
C16 H28 0.929 . S
O17 Tb1 2.326 . S
O17 C5 1.242 . S
O18 Eu2 2.324 . S
O18 C5 1.258 . S
O19 Tb1 2.500 . S
O19 C21 1.273 . S
O20 Tb1 2.473 . S
O20 C21 1.257 . S
C21 O19 1.273 . S
C21 O20 1.257 . S
O22 Eu2 2.326 . S
O22 C10 1.242 . S
O23 Tb1 2.324 . S
O23 C10 1.258 . S
O24 Eu2 2.500 . S
O24 C7 1.273 . S
O25 Eu2 2.473 . S
O25 C7 1.257 . S
H26 C12 0.929 . S
H27 C14 0.931 . S
H28 C16 0.929 . S
O29 Tb30 2.292 . S
O29 C32 1.255 . S
Tb30 O29 2.292 . S
Tb30 O46 2.326 . S
Tb30 O48 2.500 . S
Tb30 O49 2.473 . S
Tb30 O52 2.324 . S
Eu31 O35 2.292 . S
Eu31 C36 2.852 . S
Eu31 O47 2.324 . S
Eu31 O51 2.326 . S
Eu31 O53 2.500 . S
Eu31 O54 2.473 . S
C32 O29 1.255 . S
C32 O33 1.247 . S
O33 C32 1.247 . S
C34 O46 1.242 . S
C34 O47 1.258 . S
O35 Eu31 2.292 . S
O35 C37 1.255 . S
C36 Eu31 2.852 . S
C36 C40 1.503 . S
C36 O53 1.273 . S
C36 O54 1.257 . S
C37 O35 1.255 . S
C37 O38 1.247 1_455 S
O38 C37 1.247 1_655 S
C39 O51 1.242 . S
C39 O52 1.258 . S
C40 C36 1.503 . S
C40 C41 1.379 . S
C40 C45 1.392 . S
C41 C40 1.379 . S
C41 C42 1.404 . S
C41 H55 0.929 . S
C42 C41 1.404 . S
C42 C43 1.389 . S
C43 C42 1.389 . S
C43 C44 1.399 . S
C43 H56 0.931 . S
C44 C43 1.399 . S
C44 C45 1.390 . S
C45 C40 1.392 . S
C45 C44 1.390 . S
C45 H57 0.929 . S
O46 Tb30 2.326 . S
O46 C34 1.242 . S
O47 Eu31 2.324 . S
O47 C34 1.258 . S
O48 Tb30 2.500 . S
O48 C50 1.273 . S
O49 Tb30 2.473 . S
O49 C50 1.257 . S
C50 O48 1.273 . S
C50 O49 1.257 . S
O51 Eu31 2.326 . S
O51 C39 1.242 . S
O52 Tb30 2.324 . S
O52 C39 1.258 . S
O53 Eu31 2.500 . S
O53 C36 1.273 . S
O54 Eu31 2.473 . S
O54 C36 1.257 . S
H55 C41 0.929 . S
H56 C43 0.931 . S
H57 C45 0.929 . S
O58 Tb59 2.292 . S
O58 C61 1.255 . S
Tb59 O58 2.292 . S
Tb59 O75 2.326 . S
Tb59 O77 2.500 . S
Tb59 O78 2.473 . S
Tb59 O81 2.324 . S
Eu60 O64 2.292 . S
Eu60 C65 2.852 . S
Eu60 O76 2.324 . S
Eu60 O80 2.326 . S
Eu60 O82 2.500 . S
Eu60 O83 2.473 . S
C61 O58 1.255 . S
C61 O62 1.247 . S
O62 C61 1.247 . S
C63 O75 1.242 . S
C63 O76 1.258 . S
O64 Eu60 2.292 . S
O64 C66 1.255 . S
C65 Eu60 2.852 . S
C65 C69 1.503 . S
C65 O82 1.273 . S
C65 O83 1.257 . S
C66 O64 1.255 . S
C66 O67 1.247 1_655 S
O67 C66 1.247 1_455 S
C68 O80 1.242 . S
C68 O81 1.258 . S
C69 C65 1.503 . S
C69 C70 1.379 . S
C69 C74 1.392 . S
C70 C69 1.379 . S
C70 C71 1.404 . S
C70 H84 0.929 . S
C71 C70 1.404 . S
C71 C72 1.389 . S
C72 C71 1.389 . S
C72 C73 1.399 . S
C72 H85 0.931 . S
C73 C72 1.399 . S
C73 C74 1.390 . S
C74 C69 1.392 . S
C74 C73 1.390 . S
C74 H86 0.929 . S
O75 Tb59 2.326 . S
O75 C63 1.242 . S
O76 Eu60 2.324 . S
O76 C63 1.258 . S
O77 Tb59 2.500 . S
O77 C79 1.273 . S
O78 Tb59 2.473 . S
O78 C79 1.257 . S
C79 O77 1.273 . S
C79 O78 1.257 . S
O80 Eu60 2.326 . S
O80 C68 1.242 . S
O81 Tb59 2.324 . S
O81 C68 1.258 . S
O82 Eu60 2.500 . S
O82 C65 1.273 . S
O83 Eu60 2.473 . S
O83 C65 1.257 . S
H84 C70 0.929 . S
H85 C72 0.931 . S
H86 C74 0.929 . S
O87 Tb88 2.292 . S
O87 C90 1.255 . S
Tb88 O87 2.292 . S
Tb88 O104 2.326 . S
Tb88 O106 2.500 . S
Tb88 O107 2.473 . S
Tb88 O110 2.324 . S
Eu89 O93 2.292 . S
Eu89 C94 2.852 . S
Eu89 O105 2.324 . S
Eu89 O109 2.326 . S
Eu89 O111 2.500 . S
Eu89 O112 2.473 . S
C90 O87 1.255 . S
C90 O91 1.247 . S
O91 C90 1.247 . S
C92 O104 1.242 . S
C92 O105 1.258 . S
O93 Eu89 2.292 . S
O93 C95 1.255 . S
C94 Eu89 2.852 . S
C94 C98 1.503 . S
C94 O111 1.273 . S
C94 O112 1.257 . S
C95 O93 1.255 . S
C95 O96 1.247 1_655 S
O96 C95 1.247 1_455 S
C97 O109 1.242 . S
C97 O110 1.258 . S
C98 C94 1.503 . S
C98 C99 1.379 . S
C98 C103 1.392 . S
C99 C98 1.379 . S
C99 C100 1.404 . S
C99 H113 0.929 . S
C100 C99 1.404 . S
C100 C101 1.389 . S
C101 C100 1.389 . S
C101 C102 1.399 . S
C101 H114 0.931 . S
C102 C101 1.399 . S
C102 C103 1.390 . S
C103 C98 1.392 . S
C103 C102 1.390 . S
C103 H115 0.929 . S
O104 Tb88 2.326 . S
O104 C92 1.242 . S
O105 Eu89 2.324 . S
O105 C92 1.258 . S
O106 Tb88 2.500 . S
O106 C108 1.273 . S
O107 Tb88 2.473 . S
O107 C108 1.257 . S
C108 O106 1.273 . S
C108 O107 1.257 . S
O109 Eu89 2.326 . S
O109 C97 1.242 . S
O110 Tb88 2.324 . S
O110 C97 1.258 . S
O111 Eu89 2.500 . S
O111 C94 1.273 . S
O112 Eu89 2.473 . S
O112 C94 1.257 . S
H113 C99 0.929 . S
H114 C101 0.931 . S
H115 C103 0.929 . S
O116 Tb117 2.292 . S
O116 C119 1.255 . S
Tb117 O116 2.292 . S
Tb117 O133 2.326 . S
Tb117 O135 2.500 . S
Tb117 O136 2.473 . S
Tb117 O139 2.324 . S
Eu118 O122 2.292 . S
Eu118 C123 2.852 . S
Eu118 O134 2.324 . S
Eu118 O138 2.326 . S
Eu118 O140 2.500 . S
Eu118 O141 2.473 . S
C119 O116 1.255 . S
C119 O120 1.247 . S
O120 C119 1.247 . S
C121 O133 1.242 . S
C121 O134 1.258 . S
O122 Eu118 2.292 . S
O122 C124 1.255 . S
C123 Eu118 2.852 . S
C123 C127 1.503 . S
C123 O140 1.273 . S
C123 O141 1.257 . S
C124 O122 1.255 . S
C124 O125 1.247 . S
O125 C124 1.247 . S
C126 O138 1.242 . S
C126 O139 1.258 . S
C127 C123 1.503 . S
C127 C128 1.379 . S
C127 C132 1.392 . S
C128 C127 1.379 . S
C128 C129 1.404 . S
C128 H142 0.929 . S
C129 C128 1.404 . S
C129 C130 1.389 . S
C130 C129 1.389 . S
C130 C131 1.399 . S
C130 H143 0.931 . S
C131 C130 1.399 . S
C131 C132 1.390 . S
C132 C127 1.392 . S
C132 C131 1.390 . S
C132 H144 0.929 . S
O133 Tb117 2.326 . S
O133 C121 1.242 . S
O134 Eu118 2.324 . S
O134 C121 1.258 . S
O135 Tb117 2.500 . S
O135 C137 1.273 . S
O136 Tb117 2.473 . S
O136 C137 1.257 . S
C137 O135 1.273 . S
C137 O136 1.257 . S
O138 Eu118 2.326 . S
O138 C126 1.242 . S
O139 Tb117 2.324 . S
O139 C126 1.258 . S
O140 Eu118 2.500 . S
O140 C123 1.273 . S
O141 Eu118 2.473 . S
O141 C123 1.257 . S
H142 C128 0.929 . S
H143 C130 0.931 . S
H144 C132 0.929 . S
O145 Tb146 2.292 . S
O145 C148 1.255 . S
Tb146 O145 2.292 . S
Tb146 O162 2.326 . S
Tb146 O164 2.500 . S
Tb146 O165 2.473 . S
Tb146 O168 2.324 . S
Eu147 O151 2.292 . S
Eu147 C152 2.852 . S
Eu147 O163 2.324 . S
Eu147 O167 2.326 . S
Eu147 O169 2.500 . S
Eu147 O170 2.473 . S
C148 O145 1.255 . S
C148 O149 1.247 . S
O149 C148 1.247 . S
C150 O162 1.242 . S
C150 O163 1.258 . S
O151 Eu147 2.292 . S
O151 C153 1.255 . S
C152 Eu147 2.852 . S
C152 C156 1.503 . S
C152 O169 1.273 . S
C152 O170 1.257 . S
C153 O151 1.255 . S
C153 O154 1.247 . S
O154 C153 1.247 . S
C155 O167 1.242 . S
C155 O168 1.258 . S
C156 C152 1.503 . S
C156 C157 1.379 . S
C156 C161 1.392 . S
C157 C156 1.379 . S
C157 C158 1.404 . S
C157 H171 0.929 . S
C158 C157 1.404 . S
C158 C159 1.389 . S
C159 C158 1.389 . S
C159 C160 1.399 . S
C159 H172 0.931 . S
C160 C159 1.399 . S
C160 C161 1.390 . S
C161 C156 1.392 . S
C161 C160 1.390 . S
C161 H173 0.929 . S
O162 Tb146 2.326 . S
O162 C150 1.242 . S
O163 Eu147 2.324 . S
O163 C150 1.258 . S
O164 Tb146 2.500 . S
O164 C166 1.273 . S
O165 Tb146 2.473 . S
O165 C166 1.257 . S
C166 O164 1.273 . S
C166 O165 1.257 . S
O167 Eu147 2.326 . S
O167 C155 1.242 . S
O168 Tb146 2.324 . S
O168 C155 1.258 . S
O169 Eu147 2.500 . S
O169 C152 1.273 . S
O170 Eu147 2.473 . S
O170 C152 1.257 . S
H171 C157 0.929 . S
H172 C159 0.931 . S
H173 C161 0.929 . S
O174 Tb175 2.292 . S
O174 C177 1.255 . S
Tb175 O174 2.292 . S
Tb175 O191 2.326 . S
Tb175 O193 2.500 . S
Tb175 O194 2.473 . S
Tb175 O197 2.324 . S
Eu176 O180 2.292 . S
Eu176 C181 2.852 . S
Eu176 O192 2.324 . S
Eu176 O196 2.326 . S
Eu176 O198 2.500 . S
Eu176 O199 2.473 . S
C177 O174 1.255 . S
C177 O178 1.247 . S
O178 C177 1.247 . S
C179 O191 1.242 . S
C179 O192 1.258 . S
O180 Eu176 2.292 . S
O180 C182 1.255 . S
C181 Eu176 2.852 . S
C181 C185 1.503 . S
C181 O198 1.273 . S
C181 O199 1.257 . S
C182 O180 1.255 . S
C182 O183 1.247 . S
O183 C182 1.247 . S
C184 O196 1.242 . S
C184 O197 1.258 . S
C185 C181 1.503 . S
C185 C186 1.379 . S
C185 C190 1.392 . S
C186 C185 1.379 . S
C186 C187 1.404 . S
C186 H200 0.929 . S
C187 C186 1.404 . S
C187 C188 1.389 . S
C188 C187 1.389 . S
C188 C189 1.399 . S
C188 H201 0.931 . S
C189 C188 1.399 . S
C189 C190 1.390 . S
C190 C185 1.392 . S
C190 C189 1.390 . S
C190 H202 0.929 . S
O191 Tb175 2.326 . S
O191 C179 1.242 . S
O192 Eu176 2.324 . S
O192 C179 1.258 . S
O193 Tb175 2.500 . S
O193 C195 1.273 . S
O194 Tb175 2.473 . S
O194 C195 1.257 . S
C195 O193 1.273 . S
C195 O194 1.257 . S
O196 Eu176 2.326 . S
O196 C184 1.242 . S
O197 Tb175 2.324 . S
O197 C184 1.258 . S
O198 Eu176 2.500 . S
O198 C181 1.273 . S
O199 Eu176 2.473 . S
O199 C181 1.257 . S
H200 C186 0.929 . S
H201 C188 0.931 . S
H202 C190 0.929 . S
O203 Tb204 2.292 . S
O203 C206 1.255 . S
Tb204 O203 2.292 . S
Tb204 O220 2.326 . S
Tb204 O222 2.500 . S
Tb204 O223 2.473 . S
Tb204 O226 2.324 . S
Eu205 O209 2.292 . S
Eu205 C210 2.852 . S
Eu205 O221 2.324 . S
Eu205 O225 2.326 . S
Eu205 O227 2.500 . S
Eu205 O228 2.473 . S
C206 O203 1.255 . S
C206 O207 1.247 . S
O207 C206 1.247 . S
C208 O220 1.242 . S
C208 O221 1.258 . S
O209 Eu205 2.292 . S
O209 C211 1.255 . S
C210 Eu205 2.852 . S
C210 C214 1.503 . S
C210 O227 1.273 . S
C210 O228 1.257 . S
C211 O209 1.255 . S
C211 O212 1.247 . S
O212 C211 1.247 . S
C213 O225 1.242 . S
C213 O226 1.258 . S
C214 C210 1.503 . S
C214 C215 1.379 . S
C214 C219 1.392 . S
C215 C214 1.379 . S
C215 C216 1.404 . S
C215 H229 0.929 . S
C216 C215 1.404 . S
C216 C217 1.389 . S
C217 C216 1.389 . S
C217 C218 1.399 . S
C217 H230 0.931 . S
C218 C217 1.399 . S
C218 C219 1.390 . S
C219 C214 1.392 . S
C219 C218 1.390 . S
C219 H231 0.929 . S
O220 Tb204 2.326 . S
O220 C208 1.242 . S
O221 Eu205 2.324 . S
O221 C208 1.258 . S
O222 Tb204 2.500 . S
O222 C224 1.273 . S
O223 Tb204 2.473 . S
O223 C224 1.257 . S
C224 O222 1.273 . S
C224 O223 1.257 . S
O225 Eu205 2.326 . S
O225 C213 1.242 . S
O226 Tb204 2.324 . S
O226 C213 1.258 . S
O227 Eu205 2.500 . S
O227 C210 1.273 . S
O228 Eu205 2.473 . S
O228 C210 1.257 . S
H229 C215 0.929 . S
H230 C217 0.931 . S
H231 C219 0.929 . S
C232 C233 1.363 . S
C232 C238 1.379 . S
C232 N240 1.356 1_565 S
C233 C232 1.363 . S
C233 C239 1.363 . S
C234 C235 1.363 . S
C234 C239 1.379 . S
C234 N241 1.356 . S
C235 C234 1.363 . S
C235 C238 1.363 . S
N236 C238 1.356 . S
N236 H248 0.984 . S
N236 H249 0.985 . S
N237 C239 1.356 . S
N237 H242 0.984 1_565 S
N237 H243 0.985 . S
C238 C232 1.379 . S
C238 C235 1.363 . S
C238 N236 1.356 . S
C239 C233 1.363 . S
C239 C234 1.379 . S
C239 N237 1.356 . S
N240 C232 1.356 1_545 S
N240 H246 0.984 . S
N240 H247 0.984 . S
N241 C234 1.356 . S
N241 H244 0.984 . S
N241 H245 0.985 . S
H242 N237 0.984 1_545 S
H243 N237 0.985 . S
H244 N241 0.984 . S
H245 N241 0.985 . S
H246 N240 0.984 . S
H247 N240 0.984 . S
H248 N236 0.984 . S
H249 N236 0.985 . S
C250 C251 1.363 1_655 S
C250 C256 1.379 . S
C250 N258 1.356 1_655 S
C251 C250 1.363 1_455 S
C251 C257 1.363 1_455 S
C252 C253 1.363 . S
C252 C257 1.379 . S
C252 N259 1.356 . S
C253 C252 1.363 . S
C253 C256 1.363 . S
N254 C256 1.356 . S
N254 H266 0.984 . S
N254 H267 0.985 . S
N255 C257 1.356 1_455 S
N255 H260 0.984 . S
N255 H261 0.985 . S
C256 C250 1.379 . S
C256 C253 1.363 . S
C256 N254 1.356 . S
C257 C251 1.363 1_655 S
C257 C252 1.379 . S
C257 N255 1.356 1_655 S
N258 C250 1.356 1_455 S
N258 H264 0.984 1_455 S
N258 H265 0.984 . S
N259 C252 1.356 . S
N259 H262 0.984 . S
N259 H263 0.985 . S
H260 N255 0.984 . S
H261 N255 0.985 . S
H262 N259 0.984 . S
H263 N259 0.985 . S
H264 N258 0.984 1_655 S
H265 N258 0.984 . S
H266 N254 0.984 . S
H267 N254 0.985 . S
C268 C269 1.363 . S
C268 C274 1.379 . S
C268 N276 1.356 . S
C269 C268 1.363 . S
C269 C275 1.363 . S
C270 C271 1.363 . S
C270 C275 1.379 . S
C270 N277 1.356 . S
C271 C270 1.363 . S
C271 C274 1.363 . S
N272 C274 1.356 1_565 S
N272 H284 0.983 1_565 S
N272 H285 0.985 . S
N273 C275 1.356 . S
N273 H278 0.984 . S
N273 H279 0.985 . S
C274 C268 1.379 . S
C274 C271 1.363 . S
C274 N272 1.356 1_545 S
C275 C269 1.363 . S
C275 C270 1.379 . S
C275 N273 1.356 . S
N276 C268 1.356 . S
N276 H282 0.984 . S
N276 H283 0.984 . S
N277 C270 1.356 . S
N277 H280 0.984 1_545 S
N277 H281 0.985 . S
H278 N273 0.984 . S
H279 N273 0.985 . S
H280 N277 0.984 1_565 S
H281 N277 0.985 . S
H282 N276 0.984 . S
H283 N276 0.984 . S
H284 N272 0.983 1_545 S
H285 N272 0.985 . S
C286 C287 1.363 1_455 S
C286 C292 1.379 . S
C286 N294 1.356 1_455 S
C287 C286 1.363 1_655 S
C287 C293 1.363 1_655 S
C288 C289 1.363 . S
C288 C293 1.379 . S
C288 N295 1.356 . S
C289 C288 1.363 . S
C289 C292 1.363 . S
N290 C292 1.356 . S
N290 H302 0.984 . S
N290 H303 0.985 . S
N291 C293 1.356 1_655 S
N291 H296 0.984 . S
N291 H297 0.985 . S
C292 C286 1.379 . S
C292 C289 1.363 . S
C292 N290 1.356 . S
C293 C287 1.363 1_455 S
C293 C288 1.379 . S
C293 N291 1.356 1_455 S
N294 C286 1.356 1_655 S
N294 H300 0.986 . S
N294 H301 0.984 . S
N295 C288 1.356 . S
N295 H298 0.984 . S
N295 H299 0.985 . S
H296 N291 0.984 . S
H297 N291 0.985 . S
H298 N295 0.984 . S
H299 N295 0.985 . S
H300 N294 0.986 . S
H301 N294 0.984 . S
H302 N290 0.984 . S
H303 N290 0.985 . S
C304 C305 1.363 . S
C304 C310 1.379 . S
C304 N312 1.356 . S
C305 C304 1.363 . S
C305 C311 1.363 . S
C306 C307 1.363 . S
C306 C311 1.379 . S
C306 N313 1.356 . S
C307 C306 1.363 . S
C307 C310 1.363 . S
N308 C310 1.356 . S
N308 H320 0.984 . S
N308 H321 0.985 . S
N309 C311 1.356 1_565 S
N309 H314 0.984 . S
N309 H315 0.985 . S
C310 C304 1.379 . S
C310 C307 1.363 . S
C310 N308 1.356 . S
C311 C305 1.363 . S
C311 C306 1.379 . S
C311 N309 1.356 1_545 S
N312 C304 1.356 . S
N312 H318 0.984 . S
N312 H319 0.984 1_545 S
N313 C306 1.356 . S
N313 H316 0.984 . S
N313 H317 0.985 . S
H314 N309 0.984 . S
H315 N309 0.985 . S
H316 N313 0.984 . S
H317 N313 0.985 . S
H318 N312 0.984 . S
H319 N312 0.984 1_565 S
H320 N308 0.984 . S
H321 N308 0.985 . S
C322 C323 1.363 . S
C322 C328 1.379 . S
C322 N330 1.356 . S
C323 C322 1.363 . S
C323 C329 1.363 . S
C324 C325 1.360 1_455 S
C324 C329 1.390 . S
C324 N331 1.345 1_455 S
C325 C324 1.360 1_655 S
C325 C328 1.363 1_655 S
N326 C328 1.356 1_655 S
N326 H338 0.984 1_655 S
N326 H339 0.985 . S
N327 C329 1.356 . S
N327 H332 0.984 . S
N327 H333 0.985 . S
C328 C322 1.379 . S
C328 C325 1.363 1_455 S
C328 N326 1.356 1_455 S
C329 C323 1.363 . S
C329 C324 1.390 . S
C329 N327 1.356 . S
N330 C322 1.356 . S
N330 H336 0.984 . S
N330 H337 0.984 . S
N331 C324 1.345 1_655 S
N331 H334 0.984 . S
N331 H335 0.985 . S
H332 N327 0.984 . S
H333 N327 0.985 . S
H334 N331 0.984 . S
H335 N331 0.985 . S
H336 N330 0.984 . S
H337 N330 0.984 . S
H338 N326 0.984 1_455 S
H339 N326 0.985 . S
C340 C341 1.363 . S
C340 C346 1.379 . S
C340 N348 1.356 . S
C341 C340 1.363 . S
C341 C347 1.363 . S
C342 C343 1.363 . S
C342 C347 1.379 . S
C342 N349 1.356 . S
C343 C342 1.363 . S
C343 C346 1.363 . S
N344 C346 1.356 . S
N344 H356 0.984 . S
N344 H357 0.985 . S
N345 C347 1.356 1_545 S
N345 H350 0.984 . S
N345 H351 0.985 . S
C346 C340 1.379 . S
C346 C343 1.363 . S
C346 N344 1.356 . S
C347 C341 1.363 . S
C347 C342 1.379 . S
C347 N345 1.356 1_565 S
N348 C340 1.356 . S
N348 H354 0.984 . S
N348 H355 0.984 1_565 S
N349 C342 1.356 . S
N349 H352 0.984 . S
N349 H353 0.985 . S
H350 N345 0.984 . S
H351 N345 0.985 . S
H352 N349 0.984 . S
H353 N349 0.985 . S
H354 N348 0.984 . S
H355 N348 0.984 1_545 S
H356 N344 0.984 . S
H357 N344 0.985 . S
C358 C359 1.363 . S
C358 C364 1.379 . S
C358 N366 1.356 . S
C359 C358 1.363 . S
C359 C365 1.363 . S
C360 C361 1.363 1_655 S
C360 C365 1.379 . S
C360 N367 1.356 1_655 S
C361 C360 1.363 1_455 S
C361 C364 1.363 1_455 S
N362 C364 1.356 1_455 S
N362 H374 0.984 . S
N362 H375 0.985 . S
N363 C365 1.356 . S
N363 H368 0.984 . S
N363 H369 0.985 . S
C364 C358 1.379 . S
C364 C361 1.363 1_655 S
C364 N362 1.356 1_655 S
C365 C359 1.363 . S
C365 C360 1.379 . S
C365 N363 1.356 . S
N366 C358 1.356 . S
N366 H372 0.984 . S
N366 H373 0.984 . S
N367 C360 1.356 1_455 S
N367 H370 0.984 . S
N367 H371 0.985 . S
H368 N363 0.984 . S
H369 N363 0.985 . S
H370 N367 0.984 . S
H371 N367 0.985 . S
H372 N366 0.984 . S
H373 N366 0.984 . S
H374 N362 0.984 . S
H375 N362 0.985 . S
C376 C377 1.363 . S
C376 C382 1.379 . S
C376 N384 1.356 . S
C377 C376 1.363 . S
C377 C383 1.363 . S
C378 C379 1.363 . S
C378 C383 1.379 . S
C378 N385 1.356 . S
C379 C378 1.363 . S
C379 C382 1.363 . S
N380 C382 1.356 . S
N380 H392 0.984 . S
N380 H393 0.985 . S
N381 C383 1.356 . S
N381 H386 0.984 . S
N381 H387 0.985 . S
C382 C376 1.379 . S
C382 C379 1.363 . S
C382 N380 1.356 . S
C383 C377 1.363 . S
C383 C378 1.379 . S
C383 N381 1.356 . S
N384 C376 1.356 . S
N384 H390 0.984 . S
N384 H391 0.984 . S
N385 C378 1.356 . S
N385 H388 0.984 . S
N385 H389 0.985 . S
H386 N381 0.984 . S
H387 N381 0.985 . S
H388 N385 0.984 . S
H389 N385 0.985 . S
H390 N384 0.984 . S
H391 N384 0.984 . S
H392 N380 0.984 . S
H393 N380 0.985 . S
C394 C395 1.363 . S
C394 C400 1.379 . S
C394 N402 1.356 . S
C395 C394 1.363 . S
C395 C401 1.363 . S
C396 C397 1.363 . S
C396 C401 1.379 . S
C396 N403 1.356 . S
C397 C396 1.363 . S
C397 C400 1.363 . S
N398 C400 1.356 . S
N398 H410 0.984 . S
N398 H411 0.985 . S
N399 C401 1.356 . S
N399 H404 0.984 . S
N399 H405 0.985 . S
C400 C394 1.379 . S
C400 C397 1.363 . S
C400 N398 1.356 . S
C401 C395 1.363 . S
C401 C396 1.379 . S
C401 N399 1.356 . S
N402 C394 1.356 . S
N402 H408 0.984 . S
N402 H409 0.984 . S
N403 C396 1.356 . S
N403 H406 0.984 . S
N403 H407 0.985 . S
H404 N399 0.984 . S
H405 N399 0.985 . S
H406 N403 0.984 . S
H407 N403 0.985 . S
H408 N402 0.984 . S
H409 N402 0.984 . S
H410 N398 0.984 . S
H411 N398 0.985 . S
C412 C413 1.363 . S
C412 C418 1.379 . S
C412 N420 1.356 . S
C413 C412 1.363 . S
C413 C419 1.363 . S
C414 C415 1.363 . S
C414 C419 1.379 . S
C414 N421 1.356 . S
C415 C414 1.363 . S
C415 C418 1.363 . S
N416 C418 1.356 . S
N416 H428 0.984 . S
N416 H429 0.985 . S
N417 C419 1.356 . S
N417 H422 0.984 . S
N417 H423 0.985 . S
C418 C412 1.379 . S
C418 C415 1.363 . S
C418 N416 1.356 . S
C419 C413 1.363 . S
C419 C414 1.379 . S
C419 N417 1.356 . S
N420 C412 1.356 . S
N420 H426 0.984 . S
N420 H427 0.984 . S
N421 C414 1.356 . S
N421 H424 0.984 . S
N421 H425 0.985 . S
H422 N417 0.984 . S
H423 N417 0.985 . S
H424 N421 0.984 . S
H425 N421 0.985 . S
H426 N420 0.984 . S
H427 N420 0.984 . S
H428 N416 0.984 . S
H429 N416 0.985 . S
C430 C431 1.363 . S
C430 C436 1.379 . S
C430 N438 1.356 . S
C431 C430 1.363 . S
C431 C437 1.363 . S
C432 C433 1.363 . S
C432 C437 1.379 . S
C432 N439 1.356 . S
C433 C432 1.363 . S
C433 C436 1.363 . S
N434 C436 1.356 . S
N434 H446 0.984 . S
N434 H447 0.985 . S
N435 C437 1.356 . S
N435 H440 0.984 . S
N435 H441 0.985 . S
C436 C430 1.379 . S
C436 C433 1.363 . S
C436 N434 1.356 . S
C437 C431 1.363 . S
C437 C432 1.379 . S
C437 N435 1.356 . S
N438 C430 1.356 . S
N438 H444 0.984 . S
N438 H445 0.984 . S
N439 C432 1.356 . S
N439 H442 0.984 . S
N439 H443 0.985 . S
H440 N435 0.984 . S
H441 N435 0.985 . S
H442 N439 0.984 . S
H443 N439 0.985 . S
H444 N438 0.984 . S
H445 N438 0.984 . S
H446 N434 0.984 . S
H447 N434 0.985 . S
C448 C449 1.363 . S
C448 C454 1.379 . S
C448 N456 1.356 . S
C449 C448 1.363 . S
C449 C455 1.363 . S
C450 C451 1.363 . S
C450 C455 1.379 . S
C450 N457 1.356 . S
C451 C450 1.363 . S
C451 C454 1.363 . S
N452 C454 1.356 . S
N452 H464 0.984 . S
N452 H465 0.985 . S
N453 C455 1.356 . S
N453 H458 0.984 . S
N453 H459 0.985 . S
C454 C448 1.379 . S
C454 C451 1.363 . S
C454 N452 1.356 . S
C455 C449 1.363 . S
C455 C450 1.379 . S
C455 N453 1.356 . S
N456 C448 1.356 . S
N456 H462 0.984 . S
N456 H463 0.984 . S
N457 C450 1.356 . S
N457 H460 0.984 . S
N457 H461 0.985 . S
H458 N453 0.984 . S
H459 N453 0.985 . S
H460 N457 0.984 . S
H461 N457 0.985 . S
H462 N456 0.984 . S
H463 N456 0.984 . S
H464 N452 0.984 . S
H465 N452 0.985 . S
C466 C467 1.363 . S
C466 C472 1.379 . S
C466 N474 1.356 . S
C467 C466 1.363 . S
C467 C473 1.363 . S
C468 C469 1.363 . S
C468 C473 1.379 . S
C468 N475 1.356 . S
C469 C468 1.363 . S
C469 C472 1.363 . S
N470 C472 1.356 . S
N470 H482 0.984 . S
N470 H483 0.985 . S
N471 C473 1.356 . S
N471 H476 0.984 . S
N471 H477 0.985 . S
C472 C466 1.379 . S
C472 C469 1.363 . S
C472 N470 1.356 . S
C473 C467 1.363 . S
C473 C468 1.379 . S
C473 N471 1.356 . S
N474 C466 1.356 . S
N474 H480 0.984 . S
N474 H481 0.984 . S
N475 C468 1.356 . S
N475 H478 0.984 . S
N475 H479 0.985 . S
H476 N471 0.984 . S
H477 N471 0.985 . S
H478 N475 0.984 . S
H479 N475 0.985 . S
H480 N474 0.984 . S
H481 N474 0.984 . S
H482 N470 0.984 . S
H483 N470 0.985 . S
C484 C485 1.363 . S
C484 C490 1.379 . S
C484 N492 1.356 . S
C485 C484 1.363 . S
C485 C491 1.363 . S
C486 C487 1.363 . S
C486 C491 1.379 . S
C486 N493 1.356 . S
C487 C486 1.363 . S
C487 C490 1.363 . S
N488 C490 1.356 . S
N488 H500 0.984 . S
N488 H501 0.985 . S
N489 C491 1.356 . S
N489 H494 0.984 . S
N489 H495 0.985 . S
C490 C484 1.379 . S
C490 C487 1.363 . S
C490 N488 1.356 . S
C491 C485 1.363 . S
C491 C486 1.379 . S
C491 N489 1.356 . S
N492 C484 1.356 . S
N492 H498 0.984 . S
N492 H499 0.984 . S
N493 C486 1.356 . S
N493 H496 0.984 . S
N493 H497 0.985 . S
H494 N489 0.984 . S
H495 N489 0.985 . S
H496 N493 0.984 . S
H497 N493 0.985 . S
H498 N492 0.984 . S
H499 N492 0.984 . S
H500 N488 0.984 . S
H501 N488 0.985 . S
C502 C503 1.363 . S
C502 C508 1.379 . S
C502 N510 1.356 . S
C503 C502 1.363 . S
C503 C509 1.363 . S
C504 C505 1.363 . S
C504 C509 1.379 . S
C504 N511 1.356 . S
C505 C504 1.363 . S
C505 C508 1.363 . S
N506 C508 1.356 . S
N506 H518 0.984 . S
N506 H519 0.985 . S
N507 C509 1.356 . S
N507 H512 0.984 . S
N507 H513 0.985 . S
C508 C502 1.379 . S
C508 C505 1.363 . S
C508 N506 1.356 . S
C509 C503 1.363 . S
C509 C504 1.379 . S
C509 N507 1.356 . S
N510 C502 1.356 . S
N510 H516 0.984 . S
N510 H517 0.984 . S
N511 C504 1.356 . S
N511 H514 0.984 . S
N511 H515 0.985 . S
H512 N507 0.984 . S
H513 N507 0.985 . S
H514 N511 0.984 . S
H515 N511 0.985 . S
H516 N510 0.984 . S
H517 N510 0.984 . S
H518 N506 0.984 . S
H519 N506 0.985 . S
C520 C521 1.363 1_565 S
C520 C526 1.379 1_455 S
C520 N528 1.356 1_565 S
C521 C520 1.363 1_545 S
C521 C527 1.363 . S
C522 C523 1.363 1_545 S
C522 C527 1.379 1_655 S
C522 N529 1.356 1_545 S
C523 C522 1.363 1_565 S
C523 C526 1.363 . S
N524 C526 1.356 . S
N524 H536 0.984 . S
N524 H537 0.985 . S
N525 C527 1.356 . S
N525 H530 0.984 . S
N525 H531 0.985 . S
C526 C520 1.379 1_655 S
C526 C523 1.363 . S
C526 N524 1.356 . S
C527 C521 1.363 . S
C527 C522 1.379 1_455 S
C527 N525 1.356 . S
N528 C520 1.356 1_545 S
N528 H534 0.984 1_545 S
N528 H535 0.984 . S
N529 C522 1.356 1_565 S
N529 H532 0.984 . S
N529 H533 0.985 1_565 S
H530 N525 0.984 . S
H531 N525 0.985 . S
H532 N529 0.984 . S
H533 N529 0.985 1_545 S
H534 N528 0.984 1_565 S
H535 N528 0.984 . S
H536 N524 0.984 . S
H537 N524 0.985 . S
C538 C539 1.363 1_565 S
C538 C544 1.379 1_655 S
C538 N546 1.356 1_565 S
C539 C538 1.363 1_545 S
C539 C545 1.363 . S
C540 C541 1.363 1_545 S
C540 C545 1.379 1_455 S
C540 N547 1.356 1_545 S
C541 C540 1.363 1_565 S
C541 C544 1.363 . S
N542 C544 1.356 . S
N542 H554 0.984 . S
N542 H555 0.985 . S
N543 C545 1.356 . S
N543 H548 0.984 . S
N543 H549 0.985 . S
C544 C538 1.379 1_455 S
C544 C541 1.363 . S
C544 N542 1.356 . S
C545 C539 1.363 . S
C545 C540 1.379 1_655 S
C545 N543 1.356 . S
N546 C538 1.356 1_545 S
N546 H552 0.984 1_545 S
N546 H553 0.984 . S
N547 C540 1.356 1_565 S
N547 H550 0.984 . S
N547 H551 0.985 1_565 S
H548 N543 0.984 . S
H549 N543 0.985 . S
H550 N547 0.984 . S
H551 N547 0.985 1_545 S
H552 N546 0.984 1_565 S
H553 N546 0.984 . S
H554 N542 0.984 . S
H555 N542 0.985 . S
C556 C557 1.363 . S
C556 C562 1.379 . S
C556 N564 1.356 . S
C557 C556 1.363 . S
C557 C563 1.363 . S
C558 C559 1.363 . S
C558 C563 1.379 . S
C558 N565 1.356 . S
C559 C558 1.363 . S
C559 C562 1.363 . S
N560 C562 1.356 . S
N560 H572 0.984 . S
N560 H573 0.985 . S
N561 C563 1.356 . S
N561 H566 0.984 . S
N561 H567 0.985 . S
C562 C556 1.379 . S
C562 C559 1.363 . S
C562 N560 1.356 . S
C563 C557 1.363 . S
C563 C558 1.379 . S
C563 N561 1.356 . S
N564 C556 1.356 . S
N564 H570 0.984 . S
N564 H571 0.984 . S
N565 C558 1.356 . S
N565 H568 0.984 . S
N565 H569 0.985 . S
H566 N561 0.984 . S
H567 N561 0.985 . S
H568 N565 0.984 . S
H569 N565 0.985 . S
H570 N564 0.984 . S
H571 N564 0.984 . S
H572 N560 0.984 . S
H573 N560 0.985 . S
C574 C575 1.363 . S
C574 C580 1.379 . S
C574 N582 1.356 . S
C575 C574 1.363 . S
C575 C581 1.363 . S
C576 C577 1.363 . S
C576 C581 1.379 . S
C576 N583 1.356 . S
C577 C576 1.363 . S
C577 C580 1.363 . S
N578 C580 1.356 . S
N578 H590 0.984 . S
N578 H591 0.985 . S
N579 C581 1.356 . S
N579 H584 0.984 . S
N579 H585 0.985 . S
C580 C574 1.379 . S
C580 C577 1.363 . S
C580 N578 1.356 . S
C581 C575 1.363 . S
C581 C576 1.379 . S
C581 N579 1.356 . S
N582 C574 1.356 . S
N582 H588 0.984 . S
N582 H589 0.984 . S
N583 C576 1.356 . S
N583 H586 0.984 . S
N583 H587 0.985 . S
H584 N579 0.984 . S
H585 N579 0.985 . S
H586 N583 0.984 . S
H587 N583 0.985 . S
H588 N582 0.984 . S
H589 N582 0.984 . S
H590 N578 0.984 . S
H591 N578 0.985 . S
C592 C593 1.363 . S
C592 C598 1.379 1_544 S
C592 N600 1.356 . S
C593 C592 1.363 . S
C593 C599 1.363 . S
C594 C595 1.363 . S
C594 C599 1.379 1_566 S
C594 N601 1.356 . S
C595 C594 1.363 . S
C595 C598 1.363 . S
N596 C598 1.356 . S
N596 H608 0.984 . S
N596 H609 0.985 . S
N597 C599 1.356 . S
N597 H602 0.984 . S
N597 H603 0.985 . S
C598 C592 1.379 1_566 S
C598 C595 1.363 . S
C598 N596 1.356 . S
C599 C593 1.363 . S
C599 C594 1.379 1_544 S
C599 N597 1.356 . S
N600 C592 1.356 . S
N600 H606 0.984 . S
N600 H607 0.984 . S
N601 C594 1.356 . S
N601 H604 0.984 . S
N601 H605 0.985 . S
H602 N597 0.984 . S
H603 N597 0.985 . S
H604 N601 0.984 . S
H605 N601 0.985 . S
H606 N600 0.984 . S
H607 N600 0.984 . S
H608 N596 0.984 . S
H609 N596 0.985 . S
C610 C611 1.363 . S
C610 C616 1.379 1_556 S
C610 N618 1.356 . S
C611 C610 1.363 . S
C611 C617 1.363 1_455 S
C612 C613 1.363 . S
C612 C617 1.379 1_554 S
C612 N619 1.356 . S
C613 C612 1.363 . S
C613 C616 1.363 1_655 S
N614 C616 1.356 1_655 S
N614 H626 0.984 1_655 S
N614 H627 0.985 . S
N615 C617 1.356 1_455 S
N615 H620 0.984 . S
N615 H621 0.985 1_455 S
C616 C610 1.379 1_554 S
C616 C613 1.363 1_455 S
C616 N614 1.356 1_455 S
C617 C611 1.363 1_655 S
C617 C612 1.379 1_556 S
C617 N615 1.356 1_655 S
N618 C610 1.356 . S
N618 H624 0.984 . S
N618 H625 0.984 . S
N619 C612 1.356 . S
N619 H622 0.984 . S
N619 H623 0.985 . S
H620 N615 0.984 . S
H621 N615 0.985 1_655 S
H622 N619 0.984 . S
H623 N619 0.985 . S
H624 N618 0.984 . S
H625 N618 0.984 . S
H626 N614 0.984 1_455 S
H627 N614 0.985 . S
C628 C629 1.363 1_554 S
C628 C634 1.379 . S
C628 N636 1.356 . S
C629 C628 1.363 1_556 S
C629 C635 1.363 1_545 S
C630 C631 1.363 1_556 S
C630 C635 1.379 . S
C630 N637 1.356 . S
C631 C630 1.363 1_554 S
C631 C634 1.363 1_565 S
N632 C634 1.356 1_565 S
N632 H644 0.984 1_565 S
N632 H645 0.985 . S
N633 C635 1.356 1_545 S
N633 H638 0.984 . S
N633 H639 0.985 1_545 S
C634 C628 1.379 . S
C634 C631 1.363 1_545 S
C634 N632 1.356 1_545 S
C635 C629 1.363 1_565 S
C635 C630 1.379 . S
C635 N633 1.356 1_565 S
N636 C628 1.356 . S
N636 H642 0.984 . S
N636 H643 0.984 1_554 S
N637 C630 1.356 . S
N637 H640 0.984 1_556 S
N637 H641 0.985 . S
H638 N633 0.984 . S
H639 N633 0.985 1_565 S
H640 N637 0.984 1_554 S
H641 N637 0.985 . S
H642 N636 0.984 . S
H643 N636 0.984 1_556 S
H644 N632 0.984 1_545 S
H645 N632 0.985 . S
C646 C647 1.363 1_556 S
C646 C652 1.379 . S
C646 N654 1.356 1_556 S
C647 C646 1.363 1_554 S
C647 C653 1.363 1_455 S
C648 C649 1.363 1_554 S
C648 C653 1.379 . S
C648 N655 1.356 1_554 S
C649 C648 1.363 1_556 S
C649 C652 1.363 1_655 S
N650 C652 1.356 . S
N650 H662 0.984 . S
N650 H663 0.985 1_455 S
N651 C653 1.356 . S
N651 H656 0.984 1_655 S
N651 H657 0.985 . S
C652 C646 1.379 . S
C652 C649 1.363 1_455 S
C652 N650 1.356 . S
C653 C647 1.363 1_655 S
C653 C648 1.379 . S
C653 N651 1.356 . S
N654 C646 1.356 1_554 S
N654 H660 0.984 1_554 S
N654 H661 0.984 . S
N655 C648 1.356 1_556 S
N655 H658 0.984 . S
N655 H659 0.985 1_556 S
H656 N651 0.984 1_455 S
H657 N651 0.985 . S
H658 N655 0.984 . S
H659 N655 0.985 1_554 S
H660 N654 0.984 1_556 S
H661 N654 0.984 . S
H662 N650 0.984 . S
H663 N650 0.985 1_655 S
C664 C665 1.363 . S
C664 C670 1.379 . S
C664 N672 1.356 . S
C665 C664 1.363 . S
C665 C671 1.363 . S
C666 C667 1.363 . S
C666 C671 1.379 . S
C666 N673 1.356 . S
C667 C666 1.363 . S
C667 C670 1.363 . S
N668 C670 1.356 . S
N668 H680 0.984 . S
N668 H681 0.985 . S
N669 C671 1.356 . S
N669 H674 0.984 . S
N669 H675 0.985 . S
C670 C664 1.379 . S
C670 C667 1.363 . S
C670 N668 1.356 . S
C671 C665 1.363 . S
C671 C666 1.379 . S
C671 N669 1.356 . S
N672 C664 1.356 . S
N672 H678 0.984 . S
N672 H679 0.984 . S
N673 C666 1.356 . S
N673 H676 0.984 . S
N673 H677 0.985 . S
H674 N669 0.984 . S
H675 N669 0.985 . S
H676 N673 0.984 . S
H677 N673 0.985 . S
H678 N672 0.984 . S
H679 N672 0.984 . S
H680 N668 0.984 . S
H681 N668 0.985 . S
C682 C683 1.363 . S
C682 C688 1.379 . S
C682 N690 1.356 . S
C683 C682 1.363 . S
C683 C689 1.363 . S
C684 C685 1.363 . S
C684 C689 1.379 . S
C684 N691 1.356 . S
C685 C684 1.363 . S
C685 C688 1.363 . S
N686 C688 1.356 . S
N686 H698 0.984 . S
N686 H699 0.985 . S
N687 C689 1.356 . S
N687 H692 0.984 . S
N687 H693 0.985 . S
C688 C682 1.379 . S
C688 C685 1.363 . S
C688 N686 1.356 . S
C689 C683 1.363 . S
C689 C684 1.379 . S
C689 N687 1.356 . S
N690 C682 1.356 . S
N690 H696 0.984 . S
N690 H697 0.984 . S
N691 C684 1.356 . S
N691 H694 0.984 . S
N691 H695 0.985 . S
H692 N687 0.984 . S
H693 N687 0.985 . S
H694 N691 0.984 . S
H695 N691 0.985 . S
H696 N690 0.984 . S
H697 N690 0.984 . S
H698 N686 0.984 . S
H699 N686 0.985 . S
C700 C701 1.363 . S
C700 C706 1.379 . S
C700 N708 1.356 . S
C701 C700 1.363 . S
C701 C707 1.363 . S
C702 C703 1.363 . S
C702 C707 1.379 . S
C702 N709 1.356 . S
C703 C702 1.363 . S
C703 C706 1.363 . S
N704 C706 1.356 . S
N704 H716 0.984 . S
N704 H717 0.985 . S
N705 C707 1.356 . S
N705 H710 0.984 . S
N705 H711 0.985 . S
C706 C700 1.379 . S
C706 C703 1.363 . S
C706 N704 1.356 . S
C707 C701 1.363 . S
C707 C702 1.379 . S
C707 N705 1.356 . S
N708 C700 1.356 . S
N708 H714 0.984 . S
N708 H715 0.984 . S
N709 C702 1.356 . S
N709 H712 0.984 . S
N709 H713 0.985 . S
H710 N705 0.984 . S
H711 N705 0.985 . S
H712 N709 0.984 . S
H713 N709 0.985 . S
H714 N708 0.984 . S
H715 N708 0.984 . S
H716 N704 0.984 . S
H717 N704 0.985 . S
C718 C719 1.363 . S
C718 C724 1.379 . S
C718 N726 1.356 . S
C719 C718 1.363 . S
C719 C725 1.363 . S
C720 C721 1.363 . S
C720 C725 1.379 . S
C720 N727 1.356 . S
C721 C720 1.363 . S
C721 C724 1.363 . S
N722 C724 1.356 . S
N722 H734 0.984 . S
N722 H735 0.985 . S
N723 C725 1.356 . S
N723 H728 0.984 . S
N723 H729 0.985 . S
C724 C718 1.379 . S
C724 C721 1.363 . S
C724 N722 1.356 . S
C725 C719 1.363 . S
C725 C720 1.379 . S
C725 N723 1.356 . S
N726 C718 1.356 . S
N726 H732 0.984 . S
N726 H733 0.984 . S
N727 C720 1.356 . S
N727 H730 0.984 . S
N727 H731 0.985 . S
H728 N723 0.984 . S
H729 N723 0.985 . S
H730 N727 0.984 . S
H731 N727 0.985 . S
H732 N726 0.984 . S
H733 N726 0.984 . S
H734 N722 0.984 . S
H735 N722 0.985 . S
C233 C3 1.731 1_565 S
C235 C218 1.789 . S
C251 C39 2.108 . S
C253 C129 2.148 . S
C269 C160 1.789 . S
C271 C61 1.731 1_545 S
C287 C97 2.108 . S
C289 C187 2.148 . S
C305 C32 1.731 1_545 S
C307 C189 1.789 . S
C323 C216 2.148 . S
C325 C68 2.108 . S
C341 C90 1.731 1_565 S
C343 C131 1.789 . S
C359 C158 2.148 . S
C361 C10 2.108 . S
C377 C119 1.731 . S
C379 C102 1.789 . S
C395 C13 2.148 . S
C397 C155 2.108 . S
C413 C44 1.789 . S
C415 C177 1.731 . S
C431 C213 2.108 . S
C433 C71 2.148 . S
C449 C148 1.731 . S
C451 C73 1.789 . S
C467 C184 2.108 . S
C469 C100 2.148 . S
C485 C206 1.731 . S
C487 C15 1.789 . S
C503 C42 2.148 . S
C505 C126 2.108 . S
C521 C21 0.580 . S
C523 C79 0.580 . S
C539 C108 0.580 . S
C541 C50 0.580 . S
C557 C137 0.580 . S
C559 C195 0.580 . S
C575 C166 0.580 . S
C577 C224 0.580 . S
C593 C5 1.833 . S
C595 C34 1.833 . S
C611 C37 0.828 . S
C613 C66 0.828 . S
C629 C92 1.833 . S
C631 C63 1.833 . S
C647 C8 0.828 . S
C649 C95 0.828 . S
C665 C150 1.833 . S
C667 C121 1.833 . S
C683 C182 0.828 . S
C685 C153 0.828 . S
C701 C179 1.833 . S
C703 C208 1.833 . S
C719 C124 0.828 . S
C721 C211 0.828 . S
