# Generated by pormake.
# Topology gis, (4)-cn, num edge types: 1
# Building blocks:
#     Node 0, Type 0, BuildingBlock: QUQFOY_clean_sbu_3, # of connection points: 4
#     Node 1, Type 0, BuildingBlock: QUQFOY_clean_sbu_3, # of connection points: 4
#     Node 2, Type 0, BuildingBlock: QUQFOY_clean_sbu_3, # of connection points: 4
#     Node 3, Type 0, BuildingBlock: QUQFOY_clean_sbu_3, # of connection points: 4
#     Node 4, Type 0, BuildingBlock: QUQFOY_clean_sbu_3, # of connection points: 4
#     Node 5, Type 0, BuildingBlock: QUQFOY_clean_sbu_3, # of connection points: 4
#     Node 6, Type 0, BuildingBlock: QUQFOY_clean_sbu_3, # of connection points: 4
#     Node 7, Type 0, BuildingBlock: QUQFOY_clean_sbu_3, # of connection points: 4
#     Node 8, Type 0, BuildingBlock: QUQFOY_clean_sbu_3, # of connection points: 4
#     Node 9, Type 0, BuildingBlock: QUQFOY_clean_sbu_3, # of connection points: 4
#     Node 10, Type 0, BuildingBlock: QUQFOY_clean_sbu_3, # of connection points: 4
#     Node 11, Type 0, BuildingBlock: QUQFOY_clean_sbu_3, # of connection points: 4
#     Node 12, Type 0, BuildingBlock: QUQFOY_clean_sbu_3, # of connection points: 4
#     Node 13, Type 0, BuildingBlock: QUQFOY_clean_sbu_3, # of connection points: 4
#     Node 14, Type 0, BuildingBlock: QUQFOY_clean_sbu_3, # of connection points: 4
#     Node 15, Type 0, BuildingBlock: QUQFOY_clean_sbu_3, # of connection points: 4
#     Edge 16, Type (0, 0), BuildingBlock: XUDNAN_clean_linker_2, # of connection points: 2
#     Edge 17, Type (0, 0), BuildingBlock: XUDNAN_clean_linker_2, # of connection points: 2
#     Edge 18, Type (0, 0), BuildingBlock: XUDNAN_clean_linker_2, # of connection points: 2
#     Edge 19, Type (0, 0), BuildingBlock: XUDNAN_clean_linker_2, # of connection points: 2
#     Edge 20, Type (0, 0), BuildingBlock: XUDNAN_clean_linker_2, # of connection points: 2
#     Edge 21, Type (0, 0), BuildingBlock: XUDNAN_clean_linker_2, # of connection points: 2
#     Edge 22, Type (0, 0), BuildingBlock: XUDNAN_clean_linker_2, # of connection points: 2
#     Edge 23, Type (0, 0), BuildingBlock: XUDNAN_clean_linker_2, # of connection points: 2
#     Edge 24, Type (0, 0), BuildingBlock: XUDNAN_clean_linker_2, # of connection points: 2
#     Edge 25, Type (0, 0), BuildingBlock: XUDNAN_clean_linker_2, # of connection points: 2
#     Edge 26, Type (0, 0), BuildingBlock: XUDNAN_clean_linker_2, # of connection points: 2
#     Edge 27, Type (0, 0), BuildingBlock: XUDNAN_clean_linker_2, # of connection points: 2
#     Edge 28, Type (0, 0), BuildingBlock: XUDNAN_clean_linker_2, # of connection points: 2
#     Edge 29, Type (0, 0), BuildingBlock: XUDNAN_clean_linker_2, # of connection points: 2
#     Edge 30, Type (0, 0), BuildingBlock: XUDNAN_clean_linker_2, # of connection points: 2
#     Edge 31, Type (0, 0), BuildingBlock: XUDNAN_clean_linker_2, # of connection points: 2
#     Edge 32, Type (0, 0), BuildingBlock: XUDNAN_clean_linker_2, # of connection points: 2
#     Edge 33, Type (0, 0), BuildingBlock: XUDNAN_clean_linker_2, # of connection points: 2
#     Edge 34, Type (0, 0), BuildingBlock: XUDNAN_clean_linker_2, # of connection points: 2
#     Edge 35, Type (0, 0), BuildingBlock: XUDNAN_clean_linker_2, # of connection points: 2
#     Edge 36, Type (0, 0), BuildingBlock: XUDNAN_clean_linker_2, # of connection points: 2
#     Edge 37, Type (0, 0), BuildingBlock: XUDNAN_clean_linker_2, # of connection points: 2
#     Edge 38, Type (0, 0), BuildingBlock: XUDNAN_clean_linker_2, # of connection points: 2
#     Edge 39, Type (0, 0), BuildingBlock: XUDNAN_clean_linker_2, # of connection points: 2
#     Edge 40, Type (0, 0), BuildingBlock: XUDNAN_clean_linker_2, # of connection points: 2
#     Edge 41, Type (0, 0), BuildingBlock: XUDNAN_clean_linker_2, # of connection points: 2
#     Edge 42, Type (0, 0), BuildingBlock: XUDNAN_clean_linker_2, # of connection points: 2
#     Edge 43, Type (0, 0), BuildingBlock: XUDNAN_clean_linker_2, # of connection points: 2
#     Edge 44, Type (0, 0), BuildingBlock: XUDNAN_clean_linker_2, # of connection points: 2
#     Edge 45, Type (0, 0), BuildingBlock: XUDNAN_clean_linker_2, # of connection points: 2
#     Edge 46, Type (0, 0), BuildingBlock: XUDNAN_clean_linker_2, # of connection points: 2
#     Edge 47, Type (0, 0), BuildingBlock: XUDNAN_clean_linker_2, # of connection points: 2
# Relax obj value: 0.062
# Max RMSD: 0.132
# Mean RMSD: 0.124
data_MOF--net-gis--node1-QUQFOY_clean_sbu_3--edge1-XUDNAN_clean_linker_2
_symmetry_space_group_name_H-M    P1
_symmetry_Int_Tables_number       1
_symmetry_cell_setting            triclinic
loop_
_symmetry_equiv_pos_as_xyz
'x, y, z'
_cell_length_a     53.324461
_cell_length_b     56.540947
_cell_length_c     37.541061
_cell_angle_alpha  90.651546
_cell_angle_beta   90.717564
_cell_angle_gamma 89.965743
loop_
_atom_site_label
_atom_site_type_symbol
_atom_site_fract_x
_atom_site_fract_y
_atom_site_fract_z
_atom_type_partial_charge
C0 C 0.16196 0.57797 0.20322 0.0
O1 O 0.14372 0.58492 0.22205 0.0
Cd2 Cd 0.10881 0.60486 0.19542 0.0
O3 O 0.16071 0.57871 0.16937 0.0
Cd4 Cd 0.12957 0.58679 0.12145 0.0
C5 C 0.13788 0.64446 0.13936 0.0
O6 O 0.09097 0.57745 0.15313 0.0
O7 O 0.08648 0.5949 0.1026 0.0
O8 O 0.14008 0.54778 0.09924 0.0
C9 C 0.07631 0.58532 0.12916 0.0
O10 O 0.12672 0.64034 0.16844 0.0
C11 C 0.14634 0.55427 0.06836 0.0
O12 O 0.14172 0.62811 0.11655 0.0
O13 O 0.14449 0.5762 0.06169 0.0
C14 C 0.67349 0.87489 0.30733 0.0
O15 O 0.65572 0.87203 0.28496 0.0
Cd16 Cd 0.61597 0.86076 0.31063 0.0
O17 O 0.66874 0.87576 0.3403 0.0
Cd18 Cd 0.63257 0.87826 0.37899 0.0
C19 C 0.63256 0.82012 0.37423 0.0
O20 O 0.59381 0.89011 0.34516 0.0
O21 O 0.59052 0.87381 0.39724 0.0
O22 O 0.6472 0.91801 0.38524 0.0
C23 C 0.58022 0.88469 0.37158 0.0
O24 O 0.62259 0.82472 0.3441 0.0
C25 C 0.64884 0.91828 0.41895 0.0
O26 O 0.64026 0.83683 0.39462 0.0
O27 O 0.64352 0.8992 0.43495 0.0
C28 C 0.31716 0.36546 0.67587 0.0
O29 O 0.33758 0.36704 0.69339 0.0
Cd30 Cd 0.37306 0.36289 0.65367 0.0
O31 O 0.31679 0.36895 0.6426 0.0
Cd32 Cd 0.34174 0.38316 0.59407 0.0
C33 C 0.34633 0.32528 0.58955 0.0
O34 O 0.38334 0.39587 0.61663 0.0
O35 O 0.3796 0.38384 0.56152 0.0
O36 O 0.32194 0.4208 0.60386 0.0
C37 C 0.39322 0.39282 0.58613 0.0
O38 O 0.36053 0.3291 0.61658 0.0
C39 C 0.31343 0.42297 0.57235 0.0
O40 O 0.33538 0.34238 0.57389 0.0
O41 O 0.31754 0.40599 0.55055 0.0
C42 C 0.8293 0.08733 0.80022 0.0
O43 O 0.85099 0.08981 0.78725 0.0
Cd44 Cd 0.88447 0.1007 0.82864 0.0
O45 O 0.82656 0.08717 0.83374 0.0
Cd46 Cd 0.84907 0.08725 0.89051 0.0
C47 C 0.85501 0.14491 0.87758 0.0
O48 O 0.89115 0.07192 0.87461 0.0
O49 O 0.88629 0.08813 0.92675 0.0
O50 O 0.82595 0.05108 0.8951 0.0
C51 C 0.90047 0.07748 0.90498 0.0
O52 O 0.87074 0.13829 0.85421 0.0
C53 C 0.81784 0.05495 0.92623 0.0
O54 O 0.84288 0.1298 0.89542 0.0
O55 O 0.82421 0.07433 0.94137 0.0
C56 C 0.15612 0.3619 0.79688 0.0
O57 O 0.13484 0.35496 0.78537 0.0
Cd58 Cd 0.09821 0.35367 0.8219 0.0
O59 O 0.15864 0.37014 0.82837 0.0
Cd60 Cd 0.13291 0.37883 0.88052 0.0
C61 C 0.12427 0.3202 0.88926 0.0
O62 O 0.09312 0.39066 0.85196 0.0
O63 O 0.09281 0.38347 0.90845 0.0
O64 O 0.1532 0.41713 0.88197 0.0
C65 C 0.08121 0.39075 0.88103 0.0
O66 O 0.1086 0.3226 0.86366 0.0
C67 C 0.15833 0.41701 0.91506 0.0
O68 O 0.13741 0.33768 0.9004 0.0
O69 O 0.15298 0.39832 0.93191 0.0
C70 C 0.83572 0.88126 0.18799 0.0
O71 O 0.85763 0.87606 0.19897 0.0
Cd72 Cd 0.88886 0.86501 0.15549 0.0
O73 O 0.83134 0.88364 0.15491 0.0
Cd74 Cd 0.85102 0.884 0.0968 0.0
C75 C 0.85354 0.82536 0.10472 0.0
O76 O 0.89474 0.89477 0.11114 0.0
O77 O 0.8866 0.88008 0.05869 0.0
O78 O 0.83369 0.92298 0.08947 0.0
C79 C 0.90257 0.88882 0.08041 0.0
O80 O 0.87096 0.8296 0.12746 0.0
C81 C 0.82135 0.91817 0.06118 0.0
O82 O 0.84185 0.84215 0.08947 0.0
O83 O 0.8227 0.89707 0.04923 0.0
C84 C 0.32492 0.5738 0.3142 0.0
O85 O 0.34453 0.57755 0.29634 0.0
Cd86 Cd 0.37847 0.59693 0.32912 0.0
O87 O 0.32452 0.57892 0.34716 0.0
Cd88 Cd 0.34697 0.59302 0.39977 0.0
C89 C 0.34724 0.64626 0.36241 0.0
O90 O 0.38854 0.57723 0.38455 0.0
O91 O 0.38573 0.60028 0.43097 0.0
O92 O 0.32778 0.55736 0.41811 0.0
C93 C 0.3992 0.58722 0.41127 0.0
O94 O 0.36199 0.63638 0.34034 0.0
C95 C 0.31922 0.56493 0.44742 0.0
O96 O 0.33777 0.63467 0.38784 0.0
O97 O 0.32361 0.58648 0.45559 0.0
C98 C 0.6617 0.09158 0.69025 0.0
O99 O 0.64542 0.09749 0.71304 0.0
Cd100 Cd 0.6049 0.11097 0.69069 0.0
O101 O 0.65563 0.09048 0.65752 0.0
Cd102 Cd 0.61939 0.09426 0.61799 0.0
C103 C 0.6219 0.15267 0.62979 0.0
O104 O 0.5816 0.08371 0.65269 0.0
O105 O 0.57675 0.10291 0.60334 0.0
O106 O 0.62769 0.05446 0.59799 0.0
C107 C 0.56684 0.09199 0.62891 0.0
O108 O 0.6121 0.14794 0.65964 0.0
C109 C 0.63287 0.05979 0.5662 0.0
O110 O 0.62848 0.13609 0.60864 0.0
O111 O 0.63143 0.08152 0.55797 0.0
C112 C 0.80855 0.37709 0.80143 0.0
O113 O 0.82578 0.37266 0.77937 0.0
Cd114 Cd 0.86561 0.36026 0.80514 0.0
O115 O 0.8136 0.37763 0.83447 0.0
Cd116 Cd 0.8487 0.37565 0.87559 0.0
C117 C 0.84842 0.31769 0.86452 0.0
O118 O 0.88682 0.38869 0.84356 0.0
O119 O 0.89086 0.37052 0.89422 0.0
O120 O 0.83668 0.41516 0.88937 0.0
C121 C 0.90073 0.38247 0.8697 0.0
O122 O 0.85864 0.32306 0.83523 0.0
C123 C 0.83295 0.4121 0.92227 0.0
O124 O 0.84086 0.33382 0.88573 0.0
O125 O 0.83605 0.39128 0.93415 0.0
C126 C 0.32061 0.06688 0.51742 0.0
O127 O 0.32814 0.08296 0.49685 0.0
Cd128 Cd 0.34557 0.11897 0.52089 0.0
O129 O 0.31903 0.07071 0.55075 0.0
Cd130 Cd 0.32263 0.10419 0.59303 0.0
C131 C 0.38484 0.09841 0.58847 0.0
O132 O 0.31472 0.13898 0.55543 0.0
O133 O 0.33287 0.14494 0.60654 0.0
O134 O 0.27924 0.09662 0.60694 0.0
C135 C 0.32316 0.15358 0.57857 0.0
O136 O 0.38167 0.10803 0.55818 0.0
C137 C 0.28258 0.09465 0.64027 0.0
O138 O 0.36606 0.09337 0.60764 0.0
O139 O 0.30496 0.09681 0.65203 0.0
C140 C 0.64152 0.59084 0.30678 0.0
O141 O 0.61871 0.59474 0.29872 0.0
Cd142 Cd 0.58952 0.60515 0.34437 0.0
O143 O 0.64853 0.58962 0.33923 0.0
Cd144 Cd 0.63275 0.58922 0.40047 0.0
C145 C 0.62535 0.64744 0.39125 0.0
O146 O 0.59063 0.57451 0.38717 0.0
O147 O 0.59687 0.58847 0.44022 0.0
O148 O 0.65593 0.55281 0.39875 0.0
C149 C 0.58192 0.57895 0.4178 0.0
O150 O 0.60745 0.64118 0.37039 0.0
C151 C 0.66561 0.55467 0.42965 0.0
O152 O 0.63922 0.63205 0.40639 0.0
O153 O 0.66058 0.57334 0.44745 0.0
C154 C 0.15882 0.87533 0.16119 0.0
O155 O 0.13888 0.87005 0.17741 0.0
Cd156 Cd 0.10517 0.85415 0.14061 0.0
O157 O 0.15941 0.87425 0.12744 0.0
Cd158 Cd 0.13755 0.86766 0.07103 0.0
C159 C 0.14 0.81108 0.09549 0.0
O160 O 0.09673 0.88095 0.09256 0.0
O161 O 0.09766 0.86464 0.04009 0.0
O162 O 0.1603 0.90371 0.06844 0.0
C163 C 0.08499 0.87468 0.06433 0.0
O164 O 0.12462 0.81765 0.11932 0.0
C165 C 0.16543 0.9029 0.03563 0.0
O166 O 0.14899 0.82564 0.07335 0.0
O167 O 0.15752 0.88508 0.01772 0.0
C168 C 0.83157 0.56639 0.03926 0.0
O169 O 0.83825 0.58198 0.01726 0.0
Cd170 Cd 0.85322 0.61959 0.03973 0.0
O171 O 0.82968 0.57157 0.07208 0.0
Cd172 Cd 0.83116 0.60476 0.11369 0.0
C173 C 0.89336 0.60006 0.10712 0.0
O174 O 0.82263 0.63893 0.07581 0.0
O175 O 0.83936 0.64544 0.12795 0.0
O176 O 0.78804 0.59478 0.11902 0.0
C177 C 0.83022 0.65373 0.09932 0.0
O178 O 0.88933 0.60945 0.07687 0.0
C179 C 0.78782 0.59291 0.15261 0.0
O180 O 0.87515 0.59476 0.12729 0.0
O181 O 0.8085 0.59639 0.16929 0.0
C182 C 0.16217 0.06194 0.96459 0.0
O183 O 0.16012 0.07731 0.98924 0.0
Cd184 Cd 0.13395 0.11113 0.97885 0.0
O185 O 0.15371 0.06612 0.93349 0.0
Cd186 Cd 0.13649 0.09987 0.89993 0.0
C187 C 0.08145 0.08762 0.93614 0.0
O188 O 0.15131 0.13529 0.93325 0.0
O189 O 0.12013 0.13966 0.89649 0.0
O190 O 0.17312 0.09639 0.86331 0.0
C191 C 0.1363 0.14913 0.91718 0.0
O192 O 0.09174 0.09648 0.96406 0.0
C193 C 0.16147 0.09344 0.83395 0.0
O194 O 0.09366 0.0857 0.90733 0.0
O195 O 0.13763 0.09341 0.83498 0.0
C196 C 0.64384 0.38307 0.684 0.0
O197 O 0.62203 0.38008 0.69638 0.0
Cd198 Cd 0.58792 0.37026 0.65611 0.0
O199 O 0.64721 0.38357 0.65058 0.0
Cd200 Cd 0.62633 0.38299 0.59249 0.0
C201 C 0.61716 0.32526 0.60759 0.0
O202 O 0.58614 0.39945 0.61068 0.0
O203 O 0.58808 0.38476 0.55727 0.0
O204 O 0.64872 0.41937 0.58515 0.0
C205 C 0.57526 0.39512 0.58104 0.0
O206 O 0.60148 0.33256 0.63061 0.0
C207 C 0.65828 0.41412 0.55532 0.0
O208 O 0.62991 0.33982 0.5895 0.0
O209 O 0.65337 0.39369 0.54247 0.0
C210 C 0.32495 0.90291 0.44332 0.0
O211 O 0.33126 0.8881 0.46688 0.0
Cd212 Cd 0.35502 0.85488 0.44322 0.0
O213 O 0.32889 0.89823 0.4108 0.0
Cd214 Cd 0.34311 0.86773 0.37007 0.0
C215 C 0.40117 0.88156 0.39509 0.0
O216 O 0.33438 0.82922 0.39893 0.0
O217 O 0.35896 0.83035 0.35306 0.0
O218 O 0.30136 0.87064 0.34628 0.0
C219 C 0.34604 0.81822 0.3743 0.0
O220 O 0.39453 0.87173 0.4238 0.0
C221 C 0.30739 0.87706 0.31532 0.0
O222 O 0.3859 0.88338 0.36895 0.0
O223 O 0.33071 0.87917 0.30917 0.0
H224 H 0.12635 0.77195 0.05627 0.0
H225 H 0.17415 0.79631 0.14319 0.0
H226 H 0.18385 0.75498 0.1588 0.0
H227 H 0.09863 0.7275 0.10009 0.0
H228 H 0.09709 0.70615 0.06411 0.0
H229 H 0.09806 0.73719 0.05449 0.0
H230 H 0.13731 0.73086 0.01558 0.0
H231 H 0.13626 0.69962 0.02463 0.0
H232 H 0.16445 0.71623 0.03412 0.0
H233 H 0.18088 0.71265 0.17302 0.0
H234 H 0.16892 0.67082 0.1812 0.0
H235 H 0.1251 0.67249 0.08333 0.0
C236 C 0.1398 0.76841 0.0774 0.0
C237 C 0.15008 0.78705 0.09809 0.0
C238 C 0.16667 0.78208 0.12665 0.0
C239 C 0.17221 0.75871 0.13571 0.0
C240 C 0.16112 0.74056 0.1157 0.0
C241 C 0.14565 0.74505 0.08666 0.0
C242 C 0.13413 0.72234 0.07207 0.0
C243 C 0.10528 0.72337 0.07276 0.0
C244 C 0.14361 0.71694 0.03436 0.0
C245 C 0.1444 0.70469 0.09865 0.0
C246 C 0.16008 0.71559 0.12342 0.0
C247 C 0.16934 0.7037 0.15315 0.0
C248 C 0.16237 0.68007 0.15773 0.0
C249 C 0.14661 0.66856 0.13249 0.0
C250 C 0.13783 0.68086 0.10232 0.0
H251 H 0.43352 0.87761 0.339 0.0
H252 H 0.42711 0.90462 0.44702 0.0
H253 H 0.47198 0.91502 0.44765 0.0
H254 H 0.48906 0.84885 0.35285 0.0
H255 H 0.50269 0.85454 0.31008 0.0
H256 H 0.46917 0.85406 0.31453 0.0
H257 H 0.46624 0.89627 0.28872 0.0
H258 H 0.49986 0.89686 0.28404 0.0
H259 H 0.48432 0.91987 0.30901 0.0
H260 H 0.51742 0.9162 0.4413 0.0
H261 H 0.56171 0.90751 0.42862 0.0
H262 H 0.54055 0.87953 0.32459 0.0
C263 C 0.44148 0.88654 0.36216 0.0
C264 C 0.42694 0.89068 0.39281 0.0
C265 C 0.43801 0.90152 0.42325 0.0
C266 C 0.46341 0.9076 0.42376 0.0
C267 C 0.47753 0.90263 0.39363 0.0
C268 C 0.46706 0.8924 0.36329 0.0
C269 C 0.48721 0.88598 0.33659 0.0
C270 C 0.48701 0.85928 0.32804 0.0
C271 C 0.48422 0.90062 0.30257 0.0
C272 C 0.51062 0.89316 0.35742 0.0
C273 C 0.50444 0.90318 0.38995 0.0
C274 C 0.52255 0.90895 0.4156 0.0
C275 C 0.54761 0.90388 0.40824 0.0
C276 C 0.55437 0.89325 0.37549 0.0
C277 C 0.53578 0.88835 0.34935 0.0
H278 H 0.36135 0.28575 0.62437 0.0
H279 H 0.31946 0.30858 0.53099 0.0
H280 H 0.30941 0.2667 0.51643 0.0
H281 H 0.38712 0.23219 0.58694 0.0
H282 H 0.38395 0.21623 0.62793 0.0
H283 H 0.3888 0.24774 0.6291 0.0
H284 H 0.34848 0.25297 0.66633 0.0
H285 H 0.3434 0.22151 0.66508 0.0
H286 H 0.31919 0.24122 0.64939 0.0
H287 H 0.30335 0.22159 0.51365 0.0
H288 H 0.30155 0.17829 0.52326 0.0
H289 H 0.34645 0.18699 0.61971 0.0
C290 C 0.35032 0.28208 0.60053 0.0
C291 C 0.34134 0.30047 0.57866 0.0
C292 C 0.32665 0.29476 0.54804 0.0
C293 C 0.32085 0.27105 0.5396 0.0
C294 C 0.3298 0.2534 0.56217 0.0
C295 C 0.34422 0.25876 0.592 0.0
C296 C 0.35081 0.23696 0.61297 0.0
C297 C 0.37936 0.23306 0.61429 0.0
C298 C 0.3398 0.23825 0.65066 0.0
C299 C 0.33784 0.21833 0.59038 0.0
C300 C 0.32589 0.22798 0.56106 0.0
C301 C 0.31267 0.2139 0.53653 0.0
C302 C 0.31172 0.18936 0.5422 0.0
C303 C 0.32379 0.17931 0.57228 0.0
C304 C 0.33694 0.1941 0.59653 0.0
H305 H 0.0483 0.08132 0.87993 0.0
H306 H 0.05418 0.07842 -0.00474 0.0
H307 H 0.00893 0.0703 -0.00147 0.0
H308 H -0.00783 0.11226 0.87697 0.0
H309 H 0.97918 0.09721 0.83838 0.0
H310 H 0.01264 0.09923 0.84428 0.0
H311 H 0.01625 0.05361 0.83966 0.0
H312 H 0.98273 0.05144 0.83366 0.0
H313 H -0.00185 0.03543 0.86893 0.0
H314 H 0.96309 0.0676 0.99053 0.0
H315 H 0.91882 0.07052 0.97159 0.0
H316 H 0.94148 0.07465 0.86126 0.0
C317 C 0.04015 0.07836 0.90578 0.0
C318 C 0.05481 0.08039 0.93735 0.0
C319 C 0.04336 0.07695 0.97073 0.0
C320 C 0.01767 0.0722 0.97287 0.0
C321 C 0.00365 0.07085 0.94138 0.0
C322 C 0.01441 0.07373 0.90842 0.0
C323 C -0.00541 0.07355 0.87902 0.0
C324 C -0.00534 0.09695 0.85847 0.0
C325 C -0.00185 0.05223 0.85383 0.0
C326 C 0.97099 0.07097 0.9008 0.0
C327 C 0.97677 0.06914 0.93667 0.0
C328 C 0.95829 0.06857 0.96249 0.0
C329 C 0.93322 0.07032 0.95148 0.0
C330 C 0.92679 0.07256 0.91498 0.0
C331 C 0.9459 0.07238 0.88925 0.0
H332 H 0.09691 0.28068 0.87381 0.0
H333 H 0.16086 0.30522 0.93664 0.0
H334 H 0.16954 0.26395 0.95466 0.0
H335 H 0.07748 0.23315 0.93303 0.0
H336 H 0.06886 0.21407 0.89609 0.0
H337 H 0.06639 0.24569 0.89181 0.0
H338 H 0.0946 0.24384 0.83608 0.0
H339 H 0.09734 0.2123 0.84032 0.0
H340 H 0.12517 0.23034 0.83941 0.0
H341 H 0.17306 0.21903 0.96118 0.0
H342 H 0.17064 0.17533 0.95628 0.0
H343 H 0.10461 0.18164 0.88831 0.0
C344 C 0.11253 0.27756 0.89187 0.0
C345 C 0.12819 0.29623 0.90385 0.0
C346 C 0.1485 0.29122 0.92729 0.0
C347 C 0.15358 0.26784 0.93762 0.0
C348 C 0.13807 0.24979 0.92445 0.0
C349 C 0.11784 0.25451 0.90229 0.0
C350 C 0.10484 0.23212 0.88987 0.0
C351 C 0.07779 0.23121 0.90353 0.0
C352 C 0.10555 0.22951 0.84901 0.0
C353 C 0.12119 0.2139 0.90783 0.0
C354 C 0.14016 0.2243 0.92795 0.0
C355 C 0.15811 0.21075 0.94579 0.0
C356 C 0.15662 0.18596 0.94281 0.0
C357 C 0.13743 0.1751 0.92194 0.0
C358 C 0.11946 0.18937 0.90458 0.0
H359 H 0.94352 0.89593 0.12481 0.0
H360 H 0.922 0.88356 0.01423 0.0
H361 H 0.96649 0.88141 -0.00214 0.0
H362 H 0.00034 0.93145 0.10675 0.0
H363 H 0.01784 0.91858 0.14307 0.0
H364 H 0.98426 0.92158 0.14583 0.0
H365 H 0.98042 0.87668 0.15767 0.0
H366 H 0.01392 0.87352 0.15473 0.0
H367 H -0.00637 0.85583 0.12641 0.0
H368 H 0.0125 0.87686 -0.00607 0.0
H369 H 0.05801 0.87141 0.00243 0.0
H370 H 0.0506 0.88706 0.11532 0.0
C371 C 0.94822 0.89328 0.09708 0.0
C372 C 0.92931 0.88998 0.07077 0.0
C373 C 0.93617 0.88613 0.03483 0.0
C374 C 0.9614 0.88494 0.02523 0.0
C375 C 0.97958 0.88771 0.05183 0.0
C376 C 0.97341 0.89197 0.08698 0.0
C377 C -0.00327 0.89293 0.11052 0.0
C378 C -2e-05 0.91761 0.12754 0.0
C379 C -0.00387 0.87358 0.139 0.0
C380 C 0.01682 0.888 0.08318 0.0
C381 C 0.00645 0.8852 0.04949 0.0
C382 C 0.02092 0.87932 0.02009 0.0
C383 C 0.04674 0.87616 0.02522 0.0
C384 C 0.05784 0.87892 0.05948 0.0
C385 C 0.04266 0.88512 0.08875 0.0
H386 H 0.33696 0.67995 0.41396 0.0
H387 H 0.34539 0.66956 0.29999 0.0
H388 H 0.34109 0.71236 0.29098 0.0
H389 H 0.29229 0.73147 0.40842 0.0
H390 H 0.30673 0.74629 0.44617 0.0
H391 H 0.30643 0.71442 0.44366 0.0
H392 H 0.35477 0.71389 0.45115 0.0
H393 H 0.35526 0.74569 0.45337 0.0
H394 H 0.37375 0.73028 0.4206 0.0
H395 H 0.34191 0.75535 0.29419 0.0
H396 H 0.34632 0.79752 0.30926 0.0
H397 H 0.33688 0.78196 0.42128 0.0
C398 C 0.33713 0.68671 0.38709 0.0
C399 C 0.34139 0.67151 0.35762 0.0
C400 C 0.34218 0.68094 0.3229 0.0
C401 C 0.33963 0.7052 0.31748 0.0
C402 C 0.33626 0.71984 0.34705 0.0
C403 C 0.33481 0.71109 0.3812 0.0
C404 C 0.33341 0.73114 0.40841 0.0
C405 C 0.30821 0.73081 0.42781 0.0
C406 C 0.35562 0.73018 0.43493 0.0
C407 C 0.33527 0.75239 0.38422 0.0
C408 C 0.33661 0.74529 0.34893 0.0
C409 C 0.34042 0.76122 0.32162 0.0
C410 C 0.3431 0.78512 0.33051 0.0
C411 C 0.34186 0.79294 0.3664 0.0
C412 C 0.33749 0.77642 0.3936 0.0
H413 H 0.53308 0.10534 0.57828 0.0
H414 H 0.53817 0.07276 0.68221 0.0
H415 H 0.49173 0.06968 0.6833 0.0
H416 H 0.47915 0.14013 0.59474 0.0
H417 H 0.46654 0.13632 0.55027 0.0
H418 H 0.4999 0.13514 0.55785 0.0
H419 H 0.50147 0.09366 0.52773 0.0
H420 H 0.46809 0.09471 0.52004 0.0
H421 H 0.48177 0.07034 0.54399 0.0
H422 H 0.44389 0.07154 0.67269 0.0
H423 H 0.40018 0.0778 0.65151 0.0
H424 H 0.42836 0.10877 0.55459 0.0
C425 C 0.52454 0.09747 0.60133 0.0
C426 C 0.53925 0.08931 0.6302 0.0
C427 C 0.52724 0.0791 0.65976 0.0
C428 C 0.5009 0.07729 0.66059 0.0
C429 C 0.48698 0.08567 0.63159 0.0
C430 C 0.49853 0.09548 0.6025 0.0
C431 C 0.4797 0.10349 0.57478 0.0
C432 C 0.48143 0.13036 0.5691 0.0
C433 C 0.48295 0.08972 0.53956 0.0
C434 C 0.45561 0.09687 0.59279 0.0
C435 C 0.46001 0.08658 0.6255 0.0
C436 C 0.4403 0.07949 0.64703 0.0
C437 C 0.41554 0.08311 0.63479 0.0
C438 C 0.41077 0.09373 0.60134 0.0
C439 C 0.43121 0.10052 0.58022 0.0
H440 H 0.87141 0.18053 0.8358 0.0
H441 H 0.82848 0.16719 0.93099 0.0
H442 H 0.82166 0.21032 0.93869 0.0
H443 H 0.9021 0.23291 0.86652 0.0
H444 H 0.90046 0.24694 0.82369 0.0
H445 H 0.90175 0.2152 0.82628 0.0
H446 H 0.86074 0.21204 0.78859 0.0
H447 H 0.85932 0.24378 0.7859 0.0
H448 H 0.8331 0.22758 0.80311 0.0
H449 H 0.82044 0.25562 0.93575 0.0
H450 H 0.82406 0.29821 0.92164 0.0
H451 H 0.86711 0.28 0.82782 0.0
C452 C 0.86062 0.18657 0.85841 0.0
C453 C 0.85059 0.1705 0.88291 0.0
C454 C 0.83637 0.17922 0.91189 0.0
C455 C 0.83242 0.20365 0.91648 0.0
C456 C 0.84268 0.21899 0.89172 0.0
C457 C 0.85639 0.21067 0.86319 0.0
C458 C 0.86527 0.23049 0.83995 0.0
C459 C 0.8941 0.23143 0.83909 0.0
C460 C 0.85392 0.22834 0.80216 0.0
C461 C 0.8546 0.2514 0.85991 0.0
C462 C 0.84165 0.24457 0.88974 0.0
C463 C 0.83048 0.26113 0.91238 0.0
C464 C 0.83264 0.28525 0.90419 0.0
C465 C 0.84579 0.29245 0.87358 0.0
C466 C 0.85681 0.27517 0.85133 0.0
H467 H 0.60615 0.68316 0.35166 0.0
H468 H 0.65565 0.66971 0.44182 0.0
H469 H 0.6628 0.71292 0.44892 0.0
H470 H 0.64198 0.72977 0.31501 0.0
H471 H 0.61471 0.74597 0.30034 0.0
H472 H 0.61341 0.71427 0.30358 0.0
H473 H 0.57514 0.71783 0.3453 0.0
H474 H 0.57633 0.74955 0.34223 0.0
H475 H 0.57759 0.73573 0.38525 0.0
H476 H 0.66369 0.75865 0.44554 0.0
H477 H 0.65974 0.80116 0.4304 0.0
H478 H 0.61035 0.78231 0.34181 0.0
C479 C 0.61842 0.68916 0.37312 0.0
C480 C 0.6302 0.67305 0.39636 0.0
C481 C 0.64638 0.68176 0.42372 0.0
C482 C 0.6505 0.70626 0.42797 0.0
C483 C 0.63843 0.72164 0.40448 0.0
C484 C 0.62284 0.71327 0.37749 0.0
C485 C 0.61246 0.73301 0.35501 0.0
C486 C 0.62117 0.73061 0.3162 0.0
C487 C 0.58368 0.73409 0.3571 0.0
C488 C 0.62449 0.75397 0.37354 0.0
C489 C 0.63935 0.74728 0.40213 0.0
C490 C 0.65214 0.76401 0.42313 0.0
C491 C 0.64976 0.78809 0.41441 0.0
C492 C 0.63484 0.79507 0.38483 0.0
C493 C 0.62206 0.77765 0.36445 0.0
H494 H 0.85276 0.68756 0.14037 0.0
H495 H 0.80747 0.67787 0.04446 0.0
H496 H 0.80785 0.72122 0.03509 0.0
H497 H 0.82452 0.7415 0.17054 0.0
H498 H 0.85375 0.75374 0.1868 0.0
H499 H 0.84921 0.72219 0.18588 0.0
H500 H 0.88927 0.71712 0.14805 0.0
H501 H 0.89392 0.74865 0.1488 0.0
H502 H 0.89191 0.73293 0.10683 0.0
H503 H 0.81319 0.76611 0.03725 0.0
H504 H 0.82426 0.80801 0.04941 0.0
H505 H 0.867 0.78663 0.14285 0.0
C506 C 0.84279 0.69449 0.11744 0.0
C507 C 0.82998 0.67942 0.09321 0.0
C508 C 0.81738 0.68918 0.06336 0.0
C509 C 0.81748 0.71373 0.05788 0.0
C510 C 0.83038 0.72809 0.08238 0.0
C511 C 0.84288 0.71873 0.11145 0.0
C512 C 0.85585 0.73765 0.13355 0.0
C513 C 0.84518 0.73884 0.17143 0.0
C514 C 0.88443 0.73386 0.13433 0.0
C515 C 0.84873 0.75922 0.11243 0.0
C516 C 0.83392 0.75349 0.08312 0.0
C517 C 0.82485 0.77077 0.06006 0.0
C518 C 0.8312 0.79448 0.0672 0.0
C519 C 0.84661 0.80055 0.09694 0.0
C520 C 0.85538 0.7826 0.1197 0.0
H521 H 0.59977 0.29072 0.65071 0.0
H522 H 0.6436 0.3014 0.55555 0.0
H523 H 0.64999 0.25806 0.55027 0.0
H524 H 0.63742 0.24438 0.68659 0.0
H525 H 0.61102 0.22872 0.70434 0.0
H526 H 0.60972 0.26036 0.69977 0.0
H527 H 0.56901 0.25639 0.66162 0.0
H528 H 0.57015 0.22475 0.66614 0.0
H529 H 0.56889 0.23763 0.62246 0.0
H530 H 0.6508 0.21286 0.55573 0.0
H531 H 0.64682 0.17069 0.57212 0.0
H532 H 0.6034 0.19138 0.66446 0.0
C533 C 0.61062 0.28406 0.62856 0.0
C534 C 0.62106 0.29946 0.6034 0.0
C535 C 0.63538 0.28991 0.57512 0.0
C536 C 0.63909 0.26534 0.57191 0.0
C537 C 0.62851 0.25069 0.59734 0.0
C538 C 0.61465 0.2598 0.62516 0.0
C539 C 0.60553 0.24062 0.64944 0.0
C540 C 0.61659 0.24371 0.68726 0.0
C541 C 0.57669 0.2398 0.64991 0.0
C542 C 0.61626 0.21914 0.63091 0.0
C543 C 0.62941 0.22516 0.60084 0.0
C544 C 0.64061 0.208 0.5793 0.0
C545 C 0.63825 0.18411 0.5888 0.0
C546 C 0.6249 0.17772 0.61966 0.0
C547 C 0.61389 0.1956 0.64084 0.0
H548 H 0.04574 0.38871 0.82738 0.0
H549 H 0.05643 0.40603 0.93943 0.0
H550 H 0.01095 0.41194 0.94557 0.0
H551 H -0.00979 0.42912 0.81112 0.0
H552 H 0.97511 0.40769 0.78214 0.0
H553 H 0.00887 0.40926 0.78448 0.0
H554 H 0.01077 0.3648 0.8002 0.0
H555 H 0.97712 0.36312 0.79811 0.0
H556 H -0.00635 0.3543 0.838 0.0
H557 H 0.96532 0.40955 0.9427 0.0
H558 H 0.9211 0.39937 0.93076 0.0
H559 H 0.9383 0.38405 0.8203 0.0
C560 C 0.03849 0.39452 0.85285 0.0
C561 C 0.05449 0.3971 0.88292 0.0
C562 C 0.04442 0.40401 0.91611 0.0
C563 C 0.01865 0.40756 0.91979 0.0
C564 C 0.00323 0.40417 0.89 0.0
C565 C 0.01266 0.39793 0.85707 0.0
C566 C -0.00839 0.3927 0.83054 0.0
C567 C -0.00856 0.41078 0.80028 0.0
C568 C -0.0066 0.36722 0.81588 0.0
C569 C 0.969 0.39589 0.85423 0.0
C570 C 0.97625 0.40289 0.88826 0.0
C571 C 0.95928 0.40464 0.91601 0.0
C572 C 0.93428 0.39869 0.90903 0.0
C573 C 0.92646 0.39122 0.87459 0.0
C574 C 0.94385 0.39032 0.8466 0.0
H575 H 0.54394 0.5668 0.37106 0.0
H576 H 0.55884 0.58692 0.48126 0.0
H577 H 0.51341 0.58769 0.49257 0.0
H578 H 0.49272 0.60384 0.35804 0.0
H579 H 0.47485 0.5836 0.33032 0.0
H580 H 0.50853 0.58169 0.33167 0.0
H581 H 0.5058 0.53769 0.3498 0.0
H582 H 0.47204 0.53942 0.34829 0.0
H583 H 0.48786 0.52971 0.38824 0.0
H584 H 0.46702 0.59086 0.49039 0.0
H585 H 0.42208 0.59471 0.47553 0.0
H586 H 0.43663 0.57174 0.36701 0.0
C587 C 0.53765 0.57084 0.39776 0.0
C588 C 0.55491 0.57676 0.42532 0.0
C589 C 0.54595 0.5823 0.45977 0.0
C590 C 0.52018 0.58273 0.46648 0.0
C591 C 0.50365 0.5774 0.43854 0.0
C592 C 0.51196 0.57134 0.40494 0.0
C593 C 0.49016 0.56788 0.37907 0.0
C594 C 0.49167 0.5853 0.34795 0.0
C595 C 0.4889 0.54214 0.36556 0.0
C596 C 0.46836 0.57366 0.40316 0.0
C597 C 0.47661 0.57894 0.4374 0.0
C598 C 0.46026 0.58639 0.46386 0.0
C599 C 0.4348 0.58863 0.4551 0.0
C600 C 0.4259 0.58337 0.42019 0.0
C601 C 0.44289 0.5755 0.39405 0.0
H602 H 0.53903 0.40146 0.63145 0.0
H603 H 0.5509 0.39891 0.51733 0.0
H604 H 0.50541 0.40329 0.50681 0.0
H605 H 0.48605 0.36611 0.63032 0.0
H606 H 0.46974 0.38171 0.66519 0.0
H607 H 0.50344 0.38229 0.66412 0.0
H608 H 0.50271 0.42811 0.66391 0.0
H609 H 0.46892 0.42768 0.6651 0.0
H610 H 0.48466 0.44327 0.63025 0.0
H611 H 0.45923 0.4033 0.50827 0.0
H612 H 0.41452 0.39803 0.52141 0.0
H613 H 0.43164 0.39997 0.63477 0.0
C614 C 0.53206 0.40248 0.60429 0.0
C615 C 0.54841 0.40006 0.57515 0.0
C616 C 0.53864 0.40081 0.53997 0.0
C617 C 0.51287 0.40342 0.53375 0.0
C618 C 0.49716 0.40523 0.563 0.0
C619 C 0.5063 0.40482 0.5976 0.0
C620 C 0.48508 0.40465 0.62414 0.0
C621 C 0.48615 0.38236 0.64729 0.0
C622 C 0.48536 0.42728 0.64721 0.0
C623 C 0.46264 0.4042 0.59897 0.0
C624 C 0.47011 0.40493 0.56387 0.0
C625 C 0.45308 0.40307 0.53563 0.0
C626 C 0.42773 0.39997 0.54339 0.0
C627 C 0.41964 0.39868 0.57911 0.0
C628 C 0.43728 0.40129 0.60725 0.0
H629 H 0.0411 0.60173 0.08218 0.0
H630 H 0.04921 0.56735 0.18445 0.0
H631 H 0.00303 0.56704 0.19059 0.0
H632 H -0.00993 0.63934 0.10588 0.0
H633 H 0.97488 0.63689 0.06284 0.0
H634 H 0.00842 0.63394 0.06661 0.0
H635 H 0.00601 0.59294 0.03505 0.0
H636 H 0.97246 0.59579 0.03111 0.0
H637 H 0.98594 0.57038 0.05269 0.0
H638 H 0.95533 0.57115 0.18529 0.0
H639 H 0.91096 0.57892 0.16862 0.0
H640 H 0.93551 0.61049 0.07008 0.0
C641 C 0.03322 0.59406 0.10586 0.0
C642 C 0.04874 0.58455 0.13282 0.0
C643 C 0.03765 0.57472 0.16341 0.0
C644 C 0.01145 0.57448 0.16714 0.0
C645 C -0.00332 0.58412 0.14005 0.0
C646 C 0.00724 0.59368 0.10999 0.0
C647 C -0.01254 0.60307 0.08472 0.0
C648 C -0.00961 0.6299 0.07974 0.0
C649 C -0.012 0.58974 0.04878 0.0
C650 C 0.96406 0.59735 0.1052 0.0
C651 C 0.96962 0.58643 0.13705 0.0
C652 C 0.95079 0.57966 0.16035 0.0
C653 C 0.92566 0.58416 0.1507 0.0
C654 C 0.91968 0.59529 0.11805 0.0
C655 C 0.93929 0.60192 0.09523 0.0
H656 H 0.14978 0.50647 0.07582 0.0
H657 H 0.16167 0.56268 0.00012 0.0
H658 H 0.17328 0.53293 0.95441 0.0
H659 H 0.20007 0.46613 0.04342 0.0
H660 H 0.18114 0.44028 0.0508 0.0
H661 H 0.1776 0.46611 0.07892 0.0
H662 H 0.13005 0.46735 0.06367 0.0
H663 H 0.13342 0.44154 0.03581 0.0
H664 H 0.12006 0.46816 0.01764 0.0
H665 H 0.17828 0.49706 0.9153 0.0
H666 H 0.17408 0.45822 0.88519 0.0
H667 H 0.15925 0.42555 0.98679 0.0
C668 C 0.15533 0.5126 0.04985 0.0
C669 C 0.15491 0.53688 0.04151 0.0
C670 C 0.16194 0.54415 0.00709 0.0
C671 C 0.16871 0.52739 0.98105 0.0
C672 C 0.16856 0.50352 0.99003 0.0
C673 C 0.1621 0.49616 0.02367 0.0
C674 C 0.1609 0.46947 0.02564 0.0
C675 C 0.18114 0.45994 0.05121 0.0
C676 C 0.13455 0.46116 0.03629 0.0
C677 C 0.1666 0.46294 0.98742 0.0
C678 C 0.17147 0.48279 0.96745 0.0
C679 C 0.17497 0.48136 0.93078 0.0
C680 C 0.17255 0.45922 0.91391 0.0
C681 C 0.1665 0.43886 0.93372 0.0
C682 C 0.16439 0.4407 0.97107 0.0
H683 H 0.69139 0.87914 0.23912 0.0
H684 H 0.71526 0.87606 0.35004 0.0
H685 H 0.75931 0.87945 0.33204 0.0
H686 H 0.74127 0.84481 0.20388 0.0
H687 H 0.74433 0.86212 0.16414 0.0
H688 H 0.71451 0.86033 0.18587 0.0
H689 H 0.71286 0.9061 0.19064 0.0
H690 H 0.74275 0.908 0.16902 0.0
H691 H 0.73843 0.92182 0.212 0.0
H692 H 0.80105 0.88105 0.30193 0.0
H693 H 0.83728 0.88119 0.26134 0.0
H694 H 0.78601 0.88448 0.1707 0.0
C695 C 0.70586 0.87928 0.25961 0.0
C696 C 0.69982 0.87732 0.29595 0.0
C697 C 0.71936 0.87759 0.32197 0.0
C698 C 0.74449 0.87953 0.31207 0.0
C699 C 0.74982 0.88139 0.27606 0.0
C700 C 0.73108 0.88139 0.25023 0.0
C701 C 0.74195 0.88318 0.21335 0.0
C702 C 0.73511 0.86131 0.19047 0.0
C703 C 0.73349 0.90614 0.19519 0.0
C704 C 0.76966 0.88377 0.22251 0.0
C705 C 0.77386 0.88278 0.2588 0.0
C706 C 0.79803 0.88207 0.27343 0.0
C707 C 0.81848 0.88215 0.25022 0.0
C708 C 0.81453 0.883 0.2129 0.0
C709 C 0.78975 0.88411 0.19911 0.0
H710 H 0.29993 0.43558 0.50483 0.0
H711 H 0.30292 0.46165 0.61384 0.0
H712 H 0.29412 0.50196 0.59301 0.0
H713 H 0.33356 0.4773 0.47006 0.0
H714 H 0.31685 0.48044 0.42834 0.0
H715 H 0.31534 0.45308 0.45179 0.0
H716 H 0.26682 0.4556 0.45243 0.0
H717 H 0.26816 0.48306 0.42854 0.0
H718 H 0.25181 0.48168 0.47019 0.0
H719 H 0.29644 0.53982 0.5603 0.0
H720 H 0.3086 0.5712 0.5185 0.0
H721 H 0.30299 0.52081 0.43085 0.0
C722 C 0.29756 0.4496 0.52439 0.0
C723 C 0.30212 0.44552 0.56085 0.0
C724 C 0.29944 0.46437 0.5857 0.0
C725 C 0.2943 0.48735 0.57413 0.0
C726 C 0.29144 0.49112 0.53771 0.0
C727 C 0.29247 0.47264 0.51321 0.0
C728 C 0.29283 0.48168 0.47547 0.0
C729 C 0.31603 0.4726 0.45529 0.0
C730 C 0.26845 0.47512 0.45548 0.0
C731 C 0.29421 0.50801 0.48271 0.0
C732 C 0.29258 0.51324 0.51866 0.0
C733 C 0.29692 0.53607 0.53199 0.0
C734 C 0.30388 0.55379 0.50811 0.0
C735 C 0.30674 0.54838 0.47154 0.0
C736 C 0.30075 0.52549 0.45868 0.0
H737 H 0.68279 0.09252 0.75771 0.0
H738 H 0.70068 0.08106 0.64626 0.0
H739 H 0.74533 0.07694 0.66228 0.0
H740 H 0.73551 0.12725 0.77979 0.0
H741 H 0.74022 0.11497 0.82347 0.0
H742 H 0.70931 0.11539 0.80367 0.0
H743 H 0.70569 0.07003 0.81158 0.0
H744 H 0.73658 0.06949 0.83158 0.0
H745 H 0.72952 0.05092 0.79342 0.0
H746 H 0.78864 0.07727 0.68972 0.0
H747 H 0.82695 0.07998 0.72755 0.0
H748 H 0.78051 0.09005 0.82073 0.0
C749 C 0.69603 0.08882 0.73673 0.0
C750 C 0.68815 0.08716 0.70075 0.0
C751 C 0.70617 0.08241 0.67408 0.0
C752 C 0.73164 0.08003 0.68286 0.0
C753 C 0.73885 0.0822 0.71846 0.0
C754 C 0.72156 0.08624 0.74503 0.0
C755 C 0.73433 0.08848 0.78112 0.0
C756 C 0.72956 0.11298 0.79798 0.0
C757 C 0.72604 0.06854 0.80588 0.0
C758 C 0.76146 0.08556 0.77052 0.0
C759 C 0.76373 0.08192 0.7343 0.0
C760 C 0.7871 0.07982 0.71822 0.0
C761 C 0.80875 0.08146 0.73985 0.0
C762 C 0.80676 0.08506 0.77708 0.0
C763 C 0.78274 0.087 0.79241 0.0
H764 H 0.83185 0.45826 0.9034 0.0
H765 H 0.82155 0.412 -0.00645 0.0
H766 H 0.81569 0.4471 0.03267 0.0
H767 H 0.86875 0.49943 0.94779 0.0
H768 H 0.85631 0.5248 0.92488 0.0
H769 H 0.85595 0.49625 0.90331 0.0
H770 H 0.80788 0.49951 0.89329 0.0
H771 H 0.80809 0.52821 0.91466 0.0
H772 H 0.78787 0.50525 0.93076 0.0
H773 H 0.81478 0.48712 0.06233 0.0
H774 H 0.81995 0.52873 0.08102 0.0
H775 H 0.83228 0.54838 0.97108 0.0
C776 C 0.8278 0.45542 0.93122 0.0
C777 C 0.82696 0.43244 0.94548 0.0
C778 C 0.8221 0.42949 0.98212 0.0
C779 C 0.81869 0.44929 0.00445 0.0
C780 C 0.8202 0.47174 0.98956 0.0
C781 C 0.8246 0.47486 0.95376 0.0
C782 C 0.82763 0.5007 0.94478 0.0
C783 C 0.85371 0.50556 0.9293 0.0
C784 C 0.80661 0.5089 0.91937 0.0
C785 C 0.82493 0.51169 0.98135 0.0
C786 C 0.82026 0.49475 0.00672 0.0
C787 C 0.81817 0.50056 0.04265 0.0
C788 C 0.8212 0.52426 0.05297 0.0
C789 C 0.82655 0.54183 0.02746 0.0
C790 C 0.8281 0.53541 0.99116 0.0
H791 H 0.21221 0.09383 0.82569 0.0
H792 H 0.14212 0.08711 0.76634 0.0
H793 H 0.16583 0.08413 0.7102 0.0
H794 H 0.24287 0.13024 0.76462 0.0
H795 H 0.27329 0.11694 0.77117 0.0
H796 H 0.25087 0.11682 0.80659 0.0
H797 H 0.25437 0.07117 0.81019 0.0
H798 H 0.27684 0.07115 0.77473 0.0
H799 H 0.24886 0.0534 0.77069 0.0
H800 H 0.19718 0.08409 0.66058 0.0
H801 H 0.23358 0.08741 0.62101 0.0
H802 H 0.28301 0.09416 0.71334 0.0
C803 C 0.20179 0.09149 0.80095 0.0
C804 C 0.17531 0.09066 0.80034 0.0
C805 C 0.16242 0.08774 0.76739 0.0
C806 C 0.17572 0.08599 0.73543 0.0
C807 C 0.20184 0.08709 0.73701 0.0
C808 C 0.21472 0.08972 0.76895 0.0
C809 C 0.24272 0.09142 0.7634 0.0
C810 C 0.25303 0.11527 0.77726 0.0
C811 C 0.2565 0.07054 0.78078 0.0
C812 C 0.24361 0.08976 0.72322 0.0
C813 C 0.21986 0.08709 0.70851 0.0
C814 C 0.21587 0.086 0.67181 0.0
C815 C 0.23667 0.08793 0.64958 0.0
C816 C 0.26114 0.09099 0.66412 0.0
C817 C 0.26458 0.09164 0.70145 0.0
H818 H 0.6716 0.54484 0.5001 0.0
H819 H 0.6875 0.51795 0.39427 0.0
H820 H 0.69816 0.47911 0.41928 0.0
H821 H 0.71846 0.50388 0.5512 0.0
H822 H 0.6962 0.50102 0.58662 0.0
H823 H 0.69839 0.5284 0.56267 0.0
H824 H 0.65085 0.52616 0.54811 0.0
H825 H 0.64853 0.49881 0.5714 0.0
H826 H 0.63847 0.50031 0.52546 0.0
H827 H 0.695 0.44165 0.45177 0.0
H828 H 0.6799 0.40932 0.48959 0.0
H829 H 0.66647 0.4599 0.57494 0.0
C830 C 0.6787 0.53113 0.48256 0.0
C831 C 0.67888 0.53435 0.4454 0.0
C832 C 0.68737 0.51583 0.42292 0.0
C833 C 0.69358 0.49372 0.43692 0.0
C834 C 0.69146 0.49049 0.47349 0.0
C835 C 0.6847 0.50885 0.49619 0.0
C836 C 0.67938 0.49988 0.53318 0.0
C837 C 0.69931 0.50883 0.56 0.0
C838 C 0.65274 0.50668 0.54517 0.0
C839 C 0.68189 0.47351 0.52682 0.0
C840 C 0.68965 0.46844 0.49258 0.0
C841 C 0.68974 0.44534 0.47902 0.0
C842 C 0.68101 0.42708 0.50061 0.0
C843 C 0.67211 0.43211 0.5352 0.0
C844 C 0.67355 0.45546 0.5488 0.0
H845 H 0.2572 0.86937 0.32114 0.0
H846 H 0.31342 0.89437 0.24788 0.0
H847 H 0.28026 0.9005 0.20217 0.0
H848 H 0.22225 0.8366 0.25846 0.0
H849 H 0.19223 0.84336 0.27762 0.0
H850 H 0.21995 0.84321 0.3054 0.0
H851 H 0.21052 0.8862 0.32595 0.0
H852 H 0.18275 0.88651 0.29809 0.0
H853 H 0.20641 0.90895 0.29313 0.0
H854 H 0.24162 0.90139 0.16368 0.0
H855 H 0.20078 0.89529 0.13375 0.0
H856 H 0.16982 0.86924 0.23231 0.0
C857 C 0.26256 0.87644 0.29565 0.0
C858 C 0.28787 0.88151 0.28803 0.0
C859 C 0.29413 0.89043 0.25423 0.0
C860 C 0.27542 0.89406 0.22823 0.0
C861 C 0.25066 0.88873 0.23661 0.0
C862 C 0.24422 0.88007 0.26948 0.0
C863 C 0.21656 0.87421 0.27104 0.0
C864 C 0.21253 0.84778 0.27856 0.0
C865 C 0.20328 0.88991 0.29869 0.0
C866 C 0.20847 0.88039 0.23355 0.0
C867 C 0.22837 0.88903 0.2143 0.0
C868 C 0.22587 0.89484 0.17855 0.0
C869 C 0.20257 0.89125 0.1618 0.0
C870 C 0.18209 0.88178 0.18074 0.0
C871 C 0.18501 0.87677 0.21728 0.0
H872 H 0.63034 0.012 0.57452 0.0
H873 H 0.65172 0.06594 0.49936 0.0
H874 H 0.66336 0.03472 0.45595 0.0
H875 H 0.67866 0.96828 0.55099 0.0
H876 H 0.65756 0.94368 0.55598 0.0
H877 H 0.65348 0.97014 0.5825 0.0
H878 H 0.60761 0.9738 0.55947 0.0
H879 H 0.6115 0.94731 0.53314 0.0
H880 H 0.60146 0.97428 0.51214 0.0
H881 H 0.66968 -0.00194 0.41959 0.0
H882 H 0.66742 0.95873 0.39087 0.0
H883 H 0.64146 0.9286 0.48963 0.0
C884 C 0.63781 0.01727 0.54912 0.0
C885 C 0.64028 0.04137 0.54029 0.0
C886 C 0.64973 0.04756 0.50661 0.0
C887 C 0.65654 0.02997 0.48194 0.0
C888 C 0.65379 0.00636 0.49147 0.0
C889 C 0.64454 -1e-05 0.52419 0.0
C890 C 0.64143 0.97345 0.52679 0.0
C891 C 0.65883 0.9633 0.55579 0.0
C892 C 0.61387 0.96683 0.53325 0.0
C893 C 0.64973 0.9659 0.49001 0.0
C894 C 0.65718 -0.01487 0.4703 0.0
C895 C 0.66416 0.98284 0.43486 0.0
C896 C 0.6628 0.96042 0.4188 0.0
C897 C 0.65434 0.94062 0.43811 0.0
C898 C 0.64838 0.94333 0.47443 0.0
H899 H 0.29917 0.37959 0.74138 0.0
H900 H 0.28132 0.33765 0.64693 0.0
H901 H 0.23872 0.33081 0.66903 0.0
H902 H 0.26068 0.34503 0.80448 0.0
H903 H 0.25084 0.37115 0.82849 0.0
H904 H 0.28102 0.37046 0.80741 0.0
H905 H 0.26931 0.40837 0.77278 0.0
H906 H 0.23899 0.40898 0.79331 0.0
H907 H 0.24127 0.40865 0.74545 0.0
H908 H 0.19733 0.33167 0.69744 0.0
H909 H 0.15952 0.33794 0.73344 0.0
H910 H 0.20338 0.37951 0.80976 0.0
C911 C 0.28645 0.36844 0.72601 0.0
C912 C 0.29341 0.35904 0.69261 0.0
C913 C 0.2762 0.34501 0.67261 0.0
C914 C 0.25201 0.341 0.68491 0.0
C915 C 0.2453 0.35117 0.71727 0.0
C916 C 0.26198 0.36442 0.7378 0.0
C917 C 0.24924 0.37453 0.77047 0.0
C918 C 0.26116 0.3647 0.80474 0.0
C919 C 0.24974 0.40174 0.77048 0.0
C920 C 0.22286 0.36516 0.76462 0.0
C921 C 0.22107 0.35171 0.7338 0.0
C922 C 0.19847 0.34194 0.72191 0.0
C923 C 0.17707 0.34573 0.7424 0.0
C924 C 0.17849 0.35915 0.77443 0.0
C925 C 0.20172 0.36904 0.78551 0.0
H926 H 0.81665 0.0478 -0.00234 0.0
H927 H 0.79037 0.01922 0.89641 0.0
H928 H 0.77774 0.98247 0.9258 0.0
H929 H 0.8472 0.00128 0.02249 0.0
H930 H 0.84077 0.00206 0.06953 0.0
H931 H 0.83923 0.02877 0.04444 0.0
H932 H 0.79351 0.0358 0.06451 0.0
H933 H 0.79498 0.00908 0.09027 0.0
H934 H 0.77036 0.01294 0.05751 0.0
H935 H 0.77925 0.94618 0.96089 0.0
H936 H 0.7941 0.91372 -0.00092 0.0
H937 H 0.81976 0.96503 0.07815 0.0
C938 C 0.80695 0.03428 0.98219 0.0
C939 C 0.80428 0.03628 0.94498 0.0
C940 C 0.79242 0.01798 0.92508 0.0
C941 C 0.78505 -0.0029 0.9416 0.0
C942 C 0.78954 -0.00512 0.97805 0.0
C943 C 0.79986 0.01316 -0.00169 0.0
C944 C 0.80724 0.00484 0.03517 0.0
C945 C 0.83525 0.0095 0.04332 0.0
C946 C 0.79051 0.01635 0.06354 0.0
C947 C 0.80171 0.97869 0.03127 0.0
C948 C 0.79066 0.97342 -0.00137 0.0
C949 C 0.78713 0.95012 0.98698 0.0
C950 C 0.79577 0.93178 0.00875 0.0
C951 C 0.80804 0.93691 0.04154 0.0
C952 C 0.8101 0.9606 0.05343 0.0
H953 H 0.21009 0.58364 0.18101 0.0
H954 H 0.16568 0.55413 0.26563 0.0
H955 H 0.20447 0.54271 0.29769 0.0
H956 H 0.26481 0.54158 0.1873 0.0
H957 H 0.28706 0.56494 0.17983 0.0
H958 H 0.25619 0.56628 0.15977 0.0
H959 H 0.24912 0.60748 0.18889 0.0
H960 H 0.27988 0.60629 0.20885 0.0
H961 H 0.25287 0.61092 0.23647 0.0
H962 H 0.24668 0.53936 0.32402 0.0
H963 H 0.28947 0.54749 0.34604 0.0
H964 H 0.30742 0.58059 0.24585 0.0
C965 C 0.20864 0.5741 0.20575 0.0
C966 C 0.18502 0.56942 0.22075 0.0
C967 C 0.18367 0.55771 0.25373 0.0
C968 C 0.20557 0.55099 0.27191 0.0
C969 C 0.22863 0.55627 0.25682 0.0
C970 C 0.23036 0.5677 0.22459 0.0
C971 C 0.25727 0.57443 0.2169 0.0
C972 C 0.2669 0.561 0.18399 0.0
C973 C 0.25993 0.60137 0.21255 0.0
C974 C 0.27021 0.56598 0.25061 0.0
C975 C 0.25337 0.55496 0.27274 0.0
C976 C 0.26015 0.54756 0.30672 0.0
C977 C 0.28448 0.55233 0.31902 0.0
C978 C 0.30172 0.56455 0.29751 0.0
C979 C 0.29478 0.57072 0.26243 0.0
H980 H 0.32677 0.02437 0.54994 0.0
H981 H 0.30089 0.05646 0.45174 0.0
H982 H 0.29223 0.01677 0.42621 0.0
H983 H 0.36039 0.97963 0.50902 0.0
H984 H 0.35393 0.95728 0.54151 0.0
H985 H 0.35364 -0.01201 0.5544 0.0
H986 H 0.30836 0.98339 0.57765 0.0
H987 H 0.30848 0.95259 0.56461 0.0
H988 H 0.28417 0.97195 0.54824 0.0
H989 H 0.29021 0.97448 0.40944 0.0
H990 H 0.29938 0.93237 0.39935 0.0
H991 H 0.3288 0.92709 0.50733 0.0
C992 C 0.31865 0.02299 0.52341 0.0
C993 C 0.31413 0.04336 0.50287 0.0
C994 C 0.30433 0.04099 0.46786 0.0
C995 C 0.29916 0.01857 0.45331 0.0
C996 C 0.30411 -0.00122 0.47408 0.0
C997 C 0.31387 0.00072 0.50825 0.0
C998 C 0.32068 0.97668 0.52304 0.0
C999 C 0.34883 0.97533 0.53252 0.0
C1000 C 0.30445 0.97081 0.5553 0.0
C1001 C 0.31407 0.96098 0.49134 0.0
C1002 C 0.3039 0.97409 0.46381 0.0
C1003 C 0.29788 0.96398 0.43089 0.0
C1004 C 0.30324 0.94003 0.42543 0.0
C1005 C 0.31483 0.92647 0.45259 0.0
C1006 C 0.31954 0.93692 0.48635 0.0
H1007 H 0.77855 0.59351 0.22471 0.0
H1008 H 0.74309 0.58175 0.12124 0.0
H1009 H 0.70217 0.57747 0.14988 0.0
H1010 H 0.73816 0.55215 0.27416 0.0
H1011 H 0.7374 0.57114 0.31303 0.0
H1012 H 0.76447 0.57108 0.28476 0.0
H1013 H 0.76009 0.6164 0.2771 0.0
H1014 H 0.73295 0.61657 0.3051 0.0
H1015 H 0.73086 0.62842 0.26079 0.0
H1016 H 0.66462 0.57848 0.18844 0.0
H1017 H 0.63297 0.58257 0.2356 0.0
H1018 H 0.69257 0.59265 0.31423 0.0
C1019 C 0.76225 0.58957 0.20821 0.0
C1020 C 0.76402 0.58799 0.17078 0.0
C1021 C 0.74221 0.58308 0.15 0.0
C1022 C 0.71884 0.58056 0.16599 0.0
C1023 C 0.71759 0.58279 0.20282 0.0
C1024 C 0.73869 0.58693 0.22378 0.0
C1025 C 0.73187 0.58966 0.26264 0.0
C1026 C 0.74367 0.56982 0.28496 0.0
C1027 C 0.73938 0.61423 0.27724 0.0
C1028 C 0.70364 0.58702 0.25998 0.0
C1029 C 0.69581 0.58298 0.22526 0.0
C1030 C 0.6705 0.58129 0.21586 0.0
C1031 C 0.65267 0.58375 0.24276 0.0
C1032 C 0.6603 0.58777 0.27856 0.0
C1033 C 0.68615 0.58926 0.28716 0.0
H1034 H 0.15404 0.92382 0.97232 0.0
H1035 H 0.20278 0.92896 0.06518 0.0
H1036 H 0.21435 0.96952 0.0489 0.0
H1037 H 0.19213 0.96649 0.91261 0.0
H1038 H 0.16336 0.97839 0.89453 0.0
H1039 H 0.16511 0.94764 0.90664 0.0
H1040 H 0.12659 0.95344 0.94711 0.0
H1041 H 0.12498 0.98415 0.93584 0.0
H1042 H 0.12764 0.97571 0.98189 0.0
H1043 H 0.21128 0.01142 0.03347 0.0
H1044 H 0.19689 0.0512 0.01604 0.0
H1045 H 0.15087 0.01995 0.93194 0.0
C1046 C 0.1683 0.93306 0.98783 0.0
C1047 C 0.17787 0.9233 0.01959 0.0
C1048 C 0.19556 0.93615 0.04045 0.0
C1049 C 0.20224 0.95919 0.03139 0.0
C1050 C 0.19117 0.96907 0.00125 0.0
C1051 C 0.17497 0.95629 0.97924 0.0
C1052 C 0.16258 0.9722 0.95193 0.0
C1053 C 0.17133 0.9658 0.91419 0.0
C1054 C 0.13376 0.97132 0.95439 0.0
C1055 C 0.17282 -0.00397 0.96386 0.0
C1056 C 0.18967 -0.00622 0.99189 0.0
C1057 C 0.19883 0.01343 0.01072 0.0
C1058 C 0.1904 0.03593 0.00088 0.0
C1059 C 0.17308 0.03858 0.97239 0.0
C1060 C 0.1647 0.01841 0.95317 0.0
H1061 H 0.69305 0.38128 0.66531 0.0
H1062 H 0.64453 0.38921 0.75677 0.0
H1063 H 0.68193 0.39111 0.79637 0.0
H1064 H 0.7366 0.34315 0.70593 0.0
H1065 H 0.76353 0.35535 0.68417 0.0
H1066 H 0.73315 0.35668 0.66289 0.0
H1067 H 0.73718 0.4022 0.65775 0.0
H1068 H 0.76765 0.40102 0.67896 0.0
H1069 H 0.74354 0.41977 0.6972 0.0
H1070 H 0.72422 0.39045 0.82576 0.0
H1071 H 0.76839 0.38588 0.84384 0.0
H1072 H 0.78927 0.37728 0.73291 0.0
C1073 C 0.69021 0.38375 0.69362 0.0
C1074 C 0.66587 0.38525 0.70799 0.0
C1075 C 0.66301 0.38808 0.74522 0.0
C1076 C 0.68412 0.38925 0.76786 0.0
C1077 C 0.70782 0.38749 0.75275 0.0
C1078 C 0.71097 0.38475 0.71651 0.0
C1079 C 0.73835 0.38193 0.70714 0.0
C1080 C 0.74318 0.35785 0.68897 0.0
C1081 C 0.74719 0.40246 0.68389 0.0
C1082 C 0.75017 0.38316 0.74391 0.0
C1083 C 0.73223 0.38664 0.76976 0.0
C1084 C 0.73845 0.38783 0.80578 0.0
C1085 C 0.76364 0.38518 0.81572 0.0
C1086 C 0.78235 0.38118 0.78975 0.0
C1087 C 0.77546 0.38038 0.75335 0.0
loop_
_geom_bond_atom_site_label_1
_geom_bond_atom_site_label_2
_geom_bond_distance
_geom_bond_site_symmetry_2
_ccdc_geom_bond_type
C0 O1 1.306 . S
C0 O3 1.160 . S
O1 C0 1.306 . S
O1 Cd2 2.228 . S
Cd2 O1 2.228 . S
Cd2 O6 2.273 . S
Cd2 O10 2.277 . S
O3 C0 1.160 . S
O3 Cd4 2.203 . S
Cd4 O3 2.203 . S
Cd4 O6 2.411 . S
Cd4 O7 2.333 . S
Cd4 O8 2.352 . S
Cd4 O12 2.277 . S
Cd4 O13 2.356 . S
C5 O10 1.209 . S
C5 O12 1.226 . S
O6 Cd2 2.273 . S
O6 Cd4 2.411 . S
O6 C9 1.320 . S
O7 Cd4 2.333 . S
O7 C9 1.214 . S
O8 Cd4 2.352 . S
O8 C11 1.258 . S
C9 O6 1.320 . S
C9 O7 1.214 . S
O10 Cd2 2.277 . S
O10 C5 1.209 . S
C11 O8 1.258 . S
C11 O13 1.282 . S
O12 Cd4 2.277 . S
O12 C5 1.226 . S
O13 Cd4 2.356 . S
O13 C11 1.282 . S
C14 O15 1.306 . S
C14 O17 1.160 . S
O15 C14 1.306 . S
O15 Cd16 2.228 . S
Cd16 O15 2.228 . S
Cd16 O20 2.273 . S
Cd16 O24 2.277 . S
O17 C14 1.160 . S
O17 Cd18 2.203 . S
Cd18 O17 2.203 . S
Cd18 O20 2.411 . S
Cd18 O21 2.333 . S
Cd18 O22 2.352 . S
Cd18 O26 2.277 . S
Cd18 O27 2.356 . S
C19 O24 1.209 . S
C19 O26 1.226 . S
O20 Cd16 2.273 . S
O20 Cd18 2.411 . S
O20 C23 1.320 . S
O21 Cd18 2.333 . S
O21 C23 1.214 . S
O22 Cd18 2.352 . S
O22 C25 1.258 . S
C23 O20 1.320 . S
C23 O21 1.214 . S
O24 Cd16 2.277 . S
O24 C19 1.209 . S
C25 O22 1.258 . S
C25 O27 1.282 . S
O26 Cd18 2.277 . S
O26 C19 1.226 . S
O27 Cd18 2.356 . S
O27 C25 1.282 . S
C28 O29 1.306 . S
C28 O31 1.160 . S
O29 C28 1.306 . S
O29 Cd30 2.228 . S
Cd30 O29 2.228 . S
Cd30 O34 2.273 . S
Cd30 O38 2.277 . S
O31 C28 1.160 . S
O31 Cd32 2.203 . S
Cd32 O31 2.203 . S
Cd32 O34 2.411 . S
Cd32 O35 2.333 . S
Cd32 O36 2.352 . S
Cd32 O40 2.277 . S
Cd32 O41 2.356 . S
C33 O38 1.209 . S
C33 O40 1.226 . S
O34 Cd30 2.273 . S
O34 Cd32 2.411 . S
O34 C37 1.320 . S
O35 Cd32 2.333 . S
O35 C37 1.214 . S
O36 Cd32 2.352 . S
O36 C39 1.258 . S
C37 O34 1.320 . S
C37 O35 1.214 . S
O38 Cd30 2.277 . S
O38 C33 1.209 . S
C39 O36 1.258 . S
C39 O41 1.282 . S
O40 Cd32 2.277 . S
O40 C33 1.226 . S
O41 Cd32 2.356 . S
O41 C39 1.282 . S
C42 O43 1.306 . S
C42 O45 1.160 . S
O43 C42 1.306 . S
O43 Cd44 2.228 . S
Cd44 O43 2.228 . S
Cd44 O48 2.273 . S
Cd44 O52 2.277 . S
O45 C42 1.160 . S
O45 Cd46 2.203 . S
Cd46 O45 2.203 . S
Cd46 O48 2.411 . S
Cd46 O49 2.333 . S
Cd46 O50 2.352 . S
Cd46 O54 2.277 . S
Cd46 O55 2.356 . S
C47 O52 1.209 . S
C47 O54 1.226 . S
O48 Cd44 2.273 . S
O48 Cd46 2.411 . S
O48 C51 1.320 . S
O49 Cd46 2.333 . S
O49 C51 1.214 . S
O50 Cd46 2.352 . S
O50 C53 1.258 . S
C51 O48 1.320 . S
C51 O49 1.214 . S
O52 Cd44 2.277 . S
O52 C47 1.209 . S
C53 O50 1.258 . S
C53 O55 1.282 . S
O54 Cd46 2.277 . S
O54 C47 1.226 . S
O55 Cd46 2.356 . S
O55 C53 1.282 . S
C56 O57 1.306 . S
C56 O59 1.160 . S
O57 C56 1.306 . S
O57 Cd58 2.228 . S
Cd58 O57 2.228 . S
Cd58 O62 2.273 . S
Cd58 O66 2.277 . S
O59 C56 1.160 . S
O59 Cd60 2.203 . S
Cd60 O59 2.203 . S
Cd60 O62 2.411 . S
Cd60 O63 2.333 . S
Cd60 O64 2.352 . S
Cd60 O68 2.277 . S
Cd60 O69 2.356 . S
C61 O66 1.209 . S
C61 O68 1.226 . S
O62 Cd58 2.273 . S
O62 Cd60 2.411 . S
O62 C65 1.320 . S
O63 Cd60 2.333 . S
O63 C65 1.214 . S
O64 Cd60 2.352 . S
O64 C67 1.258 . S
C65 O62 1.320 . S
C65 O63 1.214 . S
O66 Cd58 2.277 . S
O66 C61 1.209 . S
C67 O64 1.258 . S
C67 O69 1.282 . S
O68 Cd60 2.277 . S
O68 C61 1.226 . S
O69 Cd60 2.356 . S
O69 C67 1.282 . S
C70 O71 1.306 . S
C70 O73 1.160 . S
O71 C70 1.306 . S
O71 Cd72 2.228 . S
Cd72 O71 2.228 . S
Cd72 O76 2.273 . S
Cd72 O80 2.277 . S
O73 C70 1.160 . S
O73 Cd74 2.203 . S
Cd74 O73 2.203 . S
Cd74 O76 2.411 . S
Cd74 O77 2.333 . S
Cd74 O78 2.352 . S
Cd74 O82 2.277 . S
Cd74 O83 2.356 . S
C75 O80 1.209 . S
C75 O82 1.226 . S
O76 Cd72 2.273 . S
O76 Cd74 2.411 . S
O76 C79 1.320 . S
O77 Cd74 2.333 . S
O77 C79 1.214 . S
O78 Cd74 2.352 . S
O78 C81 1.258 . S
C79 O76 1.320 . S
C79 O77 1.214 . S
O80 Cd72 2.277 . S
O80 C75 1.209 . S
C81 O78 1.258 . S
C81 O83 1.282 . S
O82 Cd74 2.277 . S
O82 C75 1.226 . S
O83 Cd74 2.356 . S
O83 C81 1.282 . S
C84 O85 1.306 . S
C84 O87 1.160 . S
O85 C84 1.306 . S
O85 Cd86 2.228 . S
Cd86 O85 2.228 . S
Cd86 O90 2.273 . S
Cd86 O94 2.277 . S
O87 C84 1.160 . S
O87 Cd88 2.203 . S
Cd88 O87 2.203 . S
Cd88 O90 2.411 . S
Cd88 O91 2.333 . S
Cd88 O92 2.352 . S
Cd88 O96 2.277 . S
Cd88 O97 2.356 . S
C89 O94 1.209 . S
C89 O96 1.226 . S
O90 Cd86 2.273 . S
O90 Cd88 2.411 . S
O90 C93 1.320 . S
O91 Cd88 2.333 . S
O91 C93 1.214 . S
O92 Cd88 2.352 . S
O92 C95 1.258 . S
C93 O90 1.320 . S
C93 O91 1.214 . S
O94 Cd86 2.277 . S
O94 C89 1.209 . S
C95 O92 1.258 . S
C95 O97 1.282 . S
O96 Cd88 2.277 . S
O96 C89 1.226 . S
O97 Cd88 2.356 . S
O97 C95 1.282 . S
C98 O99 1.306 . S
C98 O101 1.160 . S
O99 C98 1.306 . S
O99 Cd100 2.228 . S
Cd100 O99 2.228 . S
Cd100 O104 2.273 . S
Cd100 O108 2.277 . S
O101 C98 1.160 . S
O101 Cd102 2.203 . S
Cd102 O101 2.203 . S
Cd102 O104 2.411 . S
Cd102 O105 2.333 . S
Cd102 O106 2.352 . S
Cd102 O110 2.277 . S
Cd102 O111 2.356 . S
C103 O108 1.209 . S
C103 O110 1.226 . S
O104 Cd100 2.273 . S
O104 Cd102 2.411 . S
O104 C107 1.320 . S
O105 Cd102 2.333 . S
O105 C107 1.214 . S
O106 Cd102 2.352 . S
O106 C109 1.258 . S
C107 O104 1.320 . S
C107 O105 1.214 . S
O108 Cd100 2.277 . S
O108 C103 1.209 . S
C109 O106 1.258 . S
C109 O111 1.282 . S
O110 Cd102 2.277 . S
O110 C103 1.226 . S
O111 Cd102 2.356 . S
O111 C109 1.282 . S
C112 O113 1.306 . S
C112 O115 1.160 . S
O113 C112 1.306 . S
O113 Cd114 2.228 . S
Cd114 O113 2.228 . S
Cd114 O118 2.273 . S
Cd114 O122 2.277 . S
O115 C112 1.160 . S
O115 Cd116 2.203 . S
Cd116 O115 2.203 . S
Cd116 O118 2.411 . S
Cd116 O119 2.333 . S
Cd116 O120 2.352 . S
Cd116 O124 2.277 . S
Cd116 O125 2.356 . S
C117 O122 1.209 . S
C117 O124 1.226 . S
O118 Cd114 2.273 . S
O118 Cd116 2.411 . S
O118 C121 1.320 . S
O119 Cd116 2.333 . S
O119 C121 1.214 . S
O120 Cd116 2.352 . S
O120 C123 1.258 . S
C121 O118 1.320 . S
C121 O119 1.214 . S
O122 Cd114 2.277 . S
O122 C117 1.209 . S
C123 O120 1.258 . S
C123 O125 1.282 . S
O124 Cd116 2.277 . S
O124 C117 1.226 . S
O125 Cd116 2.356 . S
O125 C123 1.282 . S
C126 O127 1.306 . S
C126 O129 1.160 . S
O127 C126 1.306 . S
O127 Cd128 2.228 . S
Cd128 O127 2.228 . S
Cd128 O132 2.273 . S
Cd128 O136 2.277 . S
O129 C126 1.160 . S
O129 Cd130 2.203 . S
Cd130 O129 2.203 . S
Cd130 O132 2.411 . S
Cd130 O133 2.333 . S
Cd130 O134 2.352 . S
Cd130 O138 2.277 . S
Cd130 O139 2.356 . S
C131 O136 1.209 . S
C131 O138 1.226 . S
O132 Cd128 2.273 . S
O132 Cd130 2.411 . S
O132 C135 1.320 . S
O133 Cd130 2.333 . S
O133 C135 1.214 . S
O134 Cd130 2.352 . S
O134 C137 1.258 . S
C135 O132 1.320 . S
C135 O133 1.214 . S
O136 Cd128 2.277 . S
O136 C131 1.209 . S
C137 O134 1.258 . S
C137 O139 1.282 . S
O138 Cd130 2.277 . S
O138 C131 1.226 . S
O139 Cd130 2.356 . S
O139 C137 1.282 . S
C140 O141 1.306 . S
C140 O143 1.160 . S
O141 C140 1.306 . S
O141 Cd142 2.228 . S
Cd142 O141 2.228 . S
Cd142 O146 2.273 . S
Cd142 O150 2.277 . S
O143 C140 1.160 . S
O143 Cd144 2.203 . S
Cd144 O143 2.203 . S
Cd144 O146 2.411 . S
Cd144 O147 2.333 . S
Cd144 O148 2.352 . S
Cd144 O152 2.277 . S
Cd144 O153 2.356 . S
C145 O150 1.209 . S
C145 O152 1.226 . S
O146 Cd142 2.273 . S
O146 Cd144 2.411 . S
O146 C149 1.320 . S
O147 Cd144 2.333 . S
O147 C149 1.214 . S
O148 Cd144 2.352 . S
O148 C151 1.258 . S
C149 O146 1.320 . S
C149 O147 1.214 . S
O150 Cd142 2.277 . S
O150 C145 1.209 . S
C151 O148 1.258 . S
C151 O153 1.282 . S
O152 Cd144 2.277 . S
O152 C145 1.226 . S
O153 Cd144 2.356 . S
O153 C151 1.282 . S
C154 O155 1.306 . S
C154 O157 1.160 . S
O155 C154 1.306 . S
O155 Cd156 2.228 . S
Cd156 O155 2.228 . S
Cd156 O160 2.273 . S
Cd156 O164 2.277 . S
O157 C154 1.160 . S
O157 Cd158 2.203 . S
Cd158 O157 2.203 . S
Cd158 O160 2.411 . S
Cd158 O161 2.333 . S
Cd158 O162 2.352 . S
Cd158 O166 2.277 . S
Cd158 O167 2.356 . S
C159 O164 1.209 . S
C159 O166 1.226 . S
O160 Cd156 2.273 . S
O160 Cd158 2.411 . S
O160 C163 1.320 . S
O161 Cd158 2.333 . S
O161 C163 1.214 . S
O162 Cd158 2.352 . S
O162 C165 1.258 . S
C163 O160 1.320 . S
C163 O161 1.214 . S
O164 Cd156 2.277 . S
O164 C159 1.209 . S
C165 O162 1.258 . S
C165 O167 1.282 . S
O166 Cd158 2.277 . S
O166 C159 1.226 . S
O167 Cd158 2.356 . S
O167 C165 1.282 . S
C168 O169 1.306 . S
C168 O171 1.160 . S
O169 C168 1.306 . S
O169 Cd170 2.228 . S
Cd170 O169 2.228 . S
Cd170 O174 2.273 . S
Cd170 O178 2.277 . S
O171 C168 1.160 . S
O171 Cd172 2.203 . S
Cd172 O171 2.203 . S
Cd172 O174 2.411 . S
Cd172 O175 2.333 . S
Cd172 O176 2.352 . S
Cd172 O180 2.277 . S
Cd172 O181 2.356 . S
C173 O178 1.209 . S
C173 O180 1.226 . S
O174 Cd170 2.273 . S
O174 Cd172 2.411 . S
O174 C177 1.320 . S
O175 Cd172 2.333 . S
O175 C177 1.214 . S
O176 Cd172 2.352 . S
O176 C179 1.258 . S
C177 O174 1.320 . S
C177 O175 1.214 . S
O178 Cd170 2.277 . S
O178 C173 1.209 . S
C179 O176 1.258 . S
C179 O181 1.282 . S
O180 Cd172 2.277 . S
O180 C173 1.226 . S
O181 Cd172 2.356 . S
O181 C179 1.282 . S
C182 O183 1.306 . S
C182 O185 1.160 . S
O183 C182 1.306 . S
O183 Cd184 2.228 . S
Cd184 O183 2.228 . S
Cd184 O188 2.273 . S
Cd184 O192 2.277 . S
O185 C182 1.160 . S
O185 Cd186 2.203 . S
Cd186 O185 2.203 . S
Cd186 O188 2.411 . S
Cd186 O189 2.333 . S
Cd186 O190 2.352 . S
Cd186 O194 2.277 . S
Cd186 O195 2.356 . S
C187 O192 1.209 . S
C187 O194 1.226 . S
O188 Cd184 2.273 . S
O188 Cd186 2.411 . S
O188 C191 1.320 . S
O189 Cd186 2.333 . S
O189 C191 1.214 . S
O190 Cd186 2.352 . S
O190 C193 1.258 . S
C191 O188 1.320 . S
C191 O189 1.214 . S
O192 Cd184 2.277 . S
O192 C187 1.209 . S
C193 O190 1.258 . S
C193 O195 1.282 . S
O194 Cd186 2.277 . S
O194 C187 1.226 . S
O195 Cd186 2.356 . S
O195 C193 1.282 . S
C196 O197 1.306 . S
C196 O199 1.160 . S
O197 C196 1.306 . S
O197 Cd198 2.228 . S
Cd198 O197 2.228 . S
Cd198 O202 2.273 . S
Cd198 O206 2.277 . S
O199 C196 1.160 . S
O199 Cd200 2.203 . S
Cd200 O199 2.203 . S
Cd200 O202 2.411 . S
Cd200 O203 2.333 . S
Cd200 O204 2.352 . S
Cd200 O208 2.277 . S
Cd200 O209 2.356 . S
C201 O206 1.209 . S
C201 O208 1.226 . S
O202 Cd198 2.273 . S
O202 Cd200 2.411 . S
O202 C205 1.320 . S
O203 Cd200 2.333 . S
O203 C205 1.214 . S
O204 Cd200 2.352 . S
O204 C207 1.258 . S
C205 O202 1.320 . S
C205 O203 1.214 . S
O206 Cd198 2.277 . S
O206 C201 1.209 . S
C207 O204 1.258 . S
C207 O209 1.282 . S
O208 Cd200 2.277 . S
O208 C201 1.226 . S
O209 Cd200 2.356 . S
O209 C207 1.282 . S
C210 O211 1.306 . S
C210 O213 1.160 . S
O211 C210 1.306 . S
O211 Cd212 2.228 . S
Cd212 O211 2.228 . S
Cd212 O216 2.273 . S
Cd212 O220 2.277 . S
O213 C210 1.160 . S
O213 Cd214 2.203 . S
Cd214 O213 2.203 . S
Cd214 O216 2.411 . S
Cd214 O217 2.333 . S
Cd214 O218 2.352 . S
Cd214 O222 2.277 . S
Cd214 O223 2.356 . S
C215 O220 1.209 . S
C215 O222 1.226 . S
O216 Cd212 2.273 . S
O216 Cd214 2.411 . S
O216 C219 1.320 . S
O217 Cd214 2.333 . S
O217 C219 1.214 . S
O218 Cd214 2.352 . S
O218 C221 1.258 . S
C219 O216 1.320 . S
C219 O217 1.214 . S
O220 Cd212 2.277 . S
O220 C215 1.209 . S
C221 O218 1.258 . S
C221 O223 1.282 . S
O222 Cd214 2.277 . S
O222 C215 1.226 . S
O223 Cd214 2.356 . S
O223 C221 1.282 . S
H224 C236 0.930 . S
H225 C238 0.930 . S
H226 C239 0.930 . S
H227 C243 0.959 . S
H228 C243 0.959 . S
H229 C243 0.961 . S
H230 C244 0.960 . S
H231 C244 0.961 . S
H232 C244 0.959 . S
H233 C247 0.929 . S
H234 C248 0.931 . S
H235 C250 0.930 . S
C236 H224 0.930 . S
C236 C237 1.399 . S
C236 C241 1.399 . S
C237 C236 1.399 . S
C237 C238 1.376 . S
C238 H225 0.930 . S
C238 C237 1.376 . S
C238 C239 1.388 . S
C239 H226 0.930 . S
C239 C238 1.388 . S
C239 C240 1.390 . S
C240 C239 1.390 . S
C240 C241 1.394 . S
C240 C246 1.465 . S
C241 C236 1.399 . S
C241 C240 1.394 . S
C241 C242 1.516 . S
C242 C241 1.516 . S
C242 C243 1.502 . S
C242 C244 1.561 . S
C242 C245 1.526 . S
C243 H227 0.959 . S
C243 H228 0.959 . S
C243 H229 0.961 . S
C243 C242 1.502 . S
C244 H230 0.960 . S
C244 H231 0.961 . S
C244 H232 0.959 . S
C244 C242 1.561 . S
C245 C242 1.526 . S
C245 C246 1.396 . S
C245 C250 1.390 . S
C246 C240 1.465 . S
C246 C245 1.396 . S
C246 C247 1.399 . S
C247 H233 0.929 . S
C247 C246 1.399 . S
C247 C248 1.385 . S
C248 H234 0.931 . S
C248 C247 1.385 . S
C248 C249 1.389 . S
C249 C248 1.389 . S
C249 C250 1.387 . S
C250 H235 0.930 . S
C250 C245 1.390 . S
C250 C249 1.387 . S
H251 C263 0.930 . S
H252 C265 0.930 . S
H253 C266 0.930 . S
H254 C270 0.959 . S
H255 C270 0.959 . S
H256 C270 0.961 . S
H257 C271 0.960 . S
H258 C271 0.961 . S
H259 C271 0.959 . S
H260 C274 0.929 . S
H261 C275 0.931 . S
H262 C277 0.930 . S
C263 H251 0.930 . S
C263 C264 1.399 . S
C263 C268 1.399 . S
C264 C263 1.399 . S
C264 C265 1.376 . S
C265 H252 0.930 . S
C265 C264 1.376 . S
C265 C266 1.388 . S
C266 H253 0.930 . S
C266 C265 1.388 . S
C266 C267 1.390 . S
C267 C266 1.390 . S
C267 C268 1.394 . S
C267 C273 1.465 . S
C268 C263 1.399 . S
C268 C267 1.394 . S
C268 C269 1.516 . S
C269 C268 1.516 . S
C269 C270 1.502 . S
C269 C271 1.561 . S
C269 C272 1.526 . S
C270 H254 0.959 . S
C270 H255 0.959 . S
C270 H256 0.961 . S
C270 C269 1.502 . S
C271 H257 0.960 . S
C271 H258 0.961 . S
C271 H259 0.959 . S
C271 C269 1.561 . S
C272 C269 1.526 . S
C272 C273 1.396 . S
C272 C277 1.390 . S
C273 C267 1.465 . S
C273 C272 1.396 . S
C273 C274 1.399 . S
C274 H260 0.929 . S
C274 C273 1.399 . S
C274 C275 1.385 . S
C275 H261 0.931 . S
C275 C274 1.385 . S
C275 C276 1.389 . S
C276 C275 1.389 . S
C276 C277 1.387 . S
C277 H262 0.930 . S
C277 C272 1.390 . S
C277 C276 1.387 . S
H278 C290 0.930 . S
H279 C292 0.930 . S
H280 C293 0.930 . S
H281 C297 0.959 . S
H282 C297 0.959 . S
H283 C297 0.961 . S
H284 C298 0.960 . S
H285 C298 0.961 . S
H286 C298 0.959 . S
H287 C301 0.929 . S
H288 C302 0.931 . S
H289 C304 0.930 . S
C290 H278 0.930 . S
C290 C291 1.399 . S
C290 C295 1.399 . S
C291 C290 1.399 . S
C291 C292 1.376 . S
C292 H279 0.930 . S
C292 C291 1.376 . S
C292 C293 1.388 . S
C293 H280 0.930 . S
C293 C292 1.388 . S
C293 C294 1.390 . S
C294 C293 1.390 . S
C294 C295 1.394 . S
C294 C300 1.465 . S
C295 C290 1.399 . S
C295 C294 1.394 . S
C295 C296 1.516 . S
C296 C295 1.516 . S
C296 C297 1.502 . S
C296 C298 1.561 . S
C296 C299 1.526 . S
C297 H281 0.959 . S
C297 H282 0.959 . S
C297 H283 0.961 . S
C297 C296 1.502 . S
C298 H284 0.960 . S
C298 H285 0.961 . S
C298 H286 0.959 . S
C298 C296 1.561 . S
C299 C296 1.526 . S
C299 C300 1.396 . S
C299 C304 1.390 . S
C300 C294 1.465 . S
C300 C299 1.396 . S
C300 C301 1.399 . S
C301 H287 0.929 . S
C301 C300 1.399 . S
C301 C302 1.385 . S
C302 H288 0.931 . S
C302 C301 1.385 . S
C302 C303 1.389 . S
C303 C302 1.389 . S
C303 C304 1.387 . S
C304 H289 0.930 . S
C304 C299 1.390 . S
C304 C303 1.387 . S
H305 C317 0.930 . S
H306 C319 0.930 . S
H307 C320 0.930 . S
H308 C324 0.959 . S
H309 C324 0.959 . S
H310 C324 0.961 1_455 S
H311 C325 0.960 1_455 S
H312 C325 0.961 . S
H313 C325 0.959 . S
H314 C328 0.929 . S
H315 C329 0.931 . S
H316 C331 0.930 . S
C317 H305 0.930 . S
C317 C318 1.399 . S
C317 C322 1.399 . S
C318 C317 1.399 . S
C318 C319 1.376 . S
C319 H306 0.930 . S
C319 C318 1.376 . S
C319 C320 1.388 . S
C320 H307 0.930 . S
C320 C319 1.388 . S
C320 C321 1.390 . S
C321 C320 1.390 . S
C321 C322 1.394 . S
C321 C327 1.465 1_455 S
C322 C317 1.399 . S
C322 C321 1.394 . S
C322 C323 1.516 1_455 S
C323 C322 1.516 1_655 S
C323 C324 1.502 . S
C323 C325 1.561 . S
C323 C326 1.526 . S
C324 H308 0.959 . S
C324 H309 0.959 . S
C324 H310 0.961 1_655 S
C324 C323 1.502 . S
C325 H311 0.960 1_655 S
C325 H312 0.961 . S
C325 H313 0.959 . S
C325 C323 1.561 . S
C326 C323 1.526 . S
C326 C327 1.396 . S
C326 C331 1.390 . S
C327 C321 1.465 1_655 S
C327 C326 1.396 . S
C327 C328 1.399 . S
C328 H314 0.929 . S
C328 C327 1.399 . S
C328 C329 1.385 . S
C329 H315 0.931 . S
C329 C328 1.385 . S
C329 C330 1.389 . S
C330 C329 1.389 . S
C330 C331 1.387 . S
C331 H316 0.930 . S
C331 C326 1.390 . S
C331 C330 1.387 . S
H332 C344 0.930 . S
H333 C346 0.930 . S
H334 C347 0.930 . S
H335 C351 0.959 . S
H336 C351 0.959 . S
H337 C351 0.961 . S
H338 C352 0.960 . S
H339 C352 0.961 . S
H340 C352 0.959 . S
H341 C355 0.929 . S
H342 C356 0.931 . S
H343 C358 0.930 . S
C344 H332 0.930 . S
C344 C345 1.399 . S
C344 C349 1.399 . S
C345 C344 1.399 . S
C345 C346 1.376 . S
C346 H333 0.930 . S
C346 C345 1.376 . S
C346 C347 1.388 . S
C347 H334 0.930 . S
C347 C346 1.388 . S
C347 C348 1.390 . S
C348 C347 1.390 . S
C348 C349 1.394 . S
C348 C354 1.465 . S
C349 C344 1.399 . S
C349 C348 1.394 . S
C349 C350 1.516 . S
C350 C349 1.516 . S
C350 C351 1.502 . S
C350 C352 1.561 . S
C350 C353 1.526 . S
C351 H335 0.959 . S
C351 H336 0.959 . S
C351 H337 0.961 . S
C351 C350 1.502 . S
C352 H338 0.960 . S
C352 H339 0.961 . S
C352 H340 0.959 . S
C352 C350 1.561 . S
C353 C350 1.526 . S
C353 C354 1.396 . S
C353 C358 1.390 . S
C354 C348 1.465 . S
C354 C353 1.396 . S
C354 C355 1.399 . S
C355 H341 0.929 . S
C355 C354 1.399 . S
C355 C356 1.385 . S
C356 H342 0.931 . S
C356 C355 1.385 . S
C356 C357 1.389 . S
C357 C356 1.389 . S
C357 C358 1.387 . S
C358 H343 0.930 . S
C358 C353 1.390 . S
C358 C357 1.387 . S
H359 C371 0.930 . S
H360 C373 0.930 . S
H361 C374 0.930 . S
H362 C378 0.959 . S
H363 C378 0.959 1_455 S
H364 C378 0.961 . S
H365 C379 0.960 . S
H366 C379 0.961 1_455 S
H367 C379 0.960 . S
H368 C382 0.929 . S
H369 C383 0.931 . S
H370 C385 0.930 . S
C371 H359 0.930 . S
C371 C372 1.399 . S
C371 C376 1.399 . S
C372 C371 1.399 . S
C372 C373 1.376 . S
C373 H360 0.930 . S
C373 C372 1.376 . S
C373 C374 1.388 . S
C374 H361 0.930 . S
C374 C373 1.388 . S
C374 C375 1.390 . S
C375 C374 1.390 . S
C375 C376 1.394 . S
C375 C381 1.465 1_655 S
C376 C371 1.399 . S
C376 C375 1.394 . S
C376 C377 1.516 . S
C377 C376 1.516 . S
C377 C378 1.502 . S
C377 C379 1.561 . S
C377 C380 1.526 1_655 S
C378 H362 0.959 . S
C378 H363 0.959 1_655 S
C378 H364 0.961 . S
C378 C377 1.502 . S
C379 H365 0.960 . S
C379 H366 0.961 1_655 S
C379 H367 0.960 . S
C379 C377 1.561 . S
C380 C377 1.526 1_455 S
C380 C381 1.396 . S
C380 C385 1.390 . S
C381 C375 1.465 1_455 S
C381 C380 1.396 . S
C381 C382 1.399 . S
C382 H368 0.929 . S
C382 C381 1.399 . S
C382 C383 1.385 . S
C383 H369 0.931 . S
C383 C382 1.385 . S
C383 C384 1.389 . S
C384 C383 1.389 . S
C384 C385 1.387 . S
C385 H370 0.930 . S
C385 C380 1.390 . S
C385 C384 1.387 . S
H386 C398 0.930 . S
H387 C400 0.930 . S
H388 C401 0.930 . S
H389 C405 0.959 . S
H390 C405 0.959 . S
H391 C405 0.961 . S
H392 C406 0.960 . S
H393 C406 0.961 . S
H394 C406 0.959 . S
H395 C409 0.929 . S
H396 C410 0.931 . S
H397 C412 0.930 . S
C398 H386 0.930 . S
C398 C399 1.399 . S
C398 C403 1.399 . S
C399 C398 1.399 . S
C399 C400 1.376 . S
C400 H387 0.930 . S
C400 C399 1.376 . S
C400 C401 1.388 . S
C401 H388 0.930 . S
C401 C400 1.388 . S
C401 C402 1.390 . S
C402 C401 1.390 . S
C402 C403 1.394 . S
C402 C408 1.465 . S
C403 C398 1.399 . S
C403 C402 1.394 . S
C403 C404 1.516 . S
C404 C403 1.516 . S
C404 C405 1.502 . S
C404 C406 1.561 . S
C404 C407 1.526 . S
C405 H389 0.959 . S
C405 H390 0.959 . S
C405 H391 0.961 . S
C405 C404 1.502 . S
C406 H392 0.960 . S
C406 H393 0.961 . S
C406 H394 0.959 . S
C406 C404 1.561 . S
C407 C404 1.526 . S
C407 C408 1.396 . S
C407 C412 1.390 . S
C408 C402 1.465 . S
C408 C407 1.396 . S
C408 C409 1.399 . S
C409 H395 0.929 . S
C409 C408 1.399 . S
C409 C410 1.385 . S
C410 H396 0.931 . S
C410 C409 1.385 . S
C410 C411 1.389 . S
C411 C410 1.389 . S
C411 C412 1.387 . S
C412 H397 0.930 . S
C412 C407 1.390 . S
C412 C411 1.387 . S
H413 C425 0.930 . S
H414 C427 0.930 . S
H415 C428 0.930 . S
H416 C432 0.959 . S
H417 C432 0.959 . S
H418 C432 0.961 . S
H419 C433 0.960 . S
H420 C433 0.961 . S
H421 C433 0.959 . S
H422 C436 0.929 . S
H423 C437 0.931 . S
H424 C439 0.930 . S
C425 H413 0.930 . S
C425 C426 1.399 . S
C425 C430 1.399 . S
C426 C425 1.399 . S
C426 C427 1.376 . S
C427 H414 0.930 . S
C427 C426 1.376 . S
C427 C428 1.388 . S
C428 H415 0.930 . S
C428 C427 1.388 . S
C428 C429 1.390 . S
C429 C428 1.390 . S
C429 C430 1.394 . S
C429 C435 1.465 . S
C430 C425 1.399 . S
C430 C429 1.394 . S
C430 C431 1.516 . S
C431 C430 1.516 . S
C431 C432 1.502 . S
C431 C433 1.561 . S
C431 C434 1.526 . S
C432 H416 0.959 . S
C432 H417 0.959 . S
C432 H418 0.961 . S
C432 C431 1.502 . S
C433 H419 0.960 . S
C433 H420 0.961 . S
C433 H421 0.959 . S
C433 C431 1.561 . S
C434 C431 1.526 . S
C434 C435 1.396 . S
C434 C439 1.390 . S
C435 C429 1.465 . S
C435 C434 1.396 . S
C435 C436 1.399 . S
C436 H422 0.929 . S
C436 C435 1.399 . S
C436 C437 1.385 . S
C437 H423 0.931 . S
C437 C436 1.385 . S
C437 C438 1.389 . S
C438 C437 1.389 . S
C438 C439 1.387 . S
C439 H424 0.930 . S
C439 C434 1.390 . S
C439 C438 1.387 . S
H440 C452 0.930 . S
H441 C454 0.930 . S
H442 C455 0.930 . S
H443 C459 0.959 . S
H444 C459 0.959 . S
H445 C459 0.961 . S
H446 C460 0.960 . S
H447 C460 0.961 . S
H448 C460 0.959 . S
H449 C463 0.929 . S
H450 C464 0.931 . S
H451 C466 0.930 . S
C452 H440 0.930 . S
C452 C453 1.399 . S
C452 C457 1.399 . S
C453 C452 1.399 . S
C453 C454 1.376 . S
C454 H441 0.930 . S
C454 C453 1.376 . S
C454 C455 1.388 . S
C455 H442 0.930 . S
C455 C454 1.388 . S
C455 C456 1.390 . S
C456 C455 1.390 . S
C456 C457 1.394 . S
C456 C462 1.465 . S
C457 C452 1.399 . S
C457 C456 1.394 . S
C457 C458 1.516 . S
C458 C457 1.516 . S
C458 C459 1.502 . S
C458 C460 1.561 . S
C458 C461 1.526 . S
C459 H443 0.959 . S
C459 H444 0.959 . S
C459 H445 0.961 . S
C459 C458 1.502 . S
C460 H446 0.960 . S
C460 H447 0.961 . S
C460 H448 0.959 . S
C460 C458 1.561 . S
C461 C458 1.526 . S
C461 C462 1.396 . S
C461 C466 1.390 . S
C462 C456 1.465 . S
C462 C461 1.396 . S
C462 C463 1.399 . S
C463 H449 0.929 . S
C463 C462 1.399 . S
C463 C464 1.385 . S
C464 H450 0.931 . S
C464 C463 1.385 . S
C464 C465 1.389 . S
C465 C464 1.389 . S
C465 C466 1.387 . S
C466 H451 0.930 . S
C466 C461 1.390 . S
C466 C465 1.387 . S
H467 C479 0.930 . S
H468 C481 0.930 . S
H469 C482 0.930 . S
H470 C486 0.959 . S
H471 C486 0.959 . S
H472 C486 0.961 . S
H473 C487 0.960 . S
H474 C487 0.961 . S
H475 C487 0.959 . S
H476 C490 0.929 . S
H477 C491 0.931 . S
H478 C493 0.930 . S
C479 H467 0.930 . S
C479 C480 1.399 . S
C479 C484 1.399 . S
C480 C479 1.399 . S
C480 C481 1.376 . S
C481 H468 0.930 . S
C481 C480 1.376 . S
C481 C482 1.388 . S
C482 H469 0.930 . S
C482 C481 1.388 . S
C482 C483 1.390 . S
C483 C482 1.390 . S
C483 C484 1.394 . S
C483 C489 1.465 . S
C484 C479 1.399 . S
C484 C483 1.394 . S
C484 C485 1.516 . S
C485 C484 1.516 . S
C485 C486 1.502 . S
C485 C487 1.561 . S
C485 C488 1.526 . S
C486 H470 0.959 . S
C486 H471 0.959 . S
C486 H472 0.961 . S
C486 C485 1.502 . S
C487 H473 0.960 . S
C487 H474 0.961 . S
C487 H475 0.959 . S
C487 C485 1.561 . S
C488 C485 1.526 . S
C488 C489 1.396 . S
C488 C493 1.390 . S
C489 C483 1.465 . S
C489 C488 1.396 . S
C489 C490 1.399 . S
C490 H476 0.929 . S
C490 C489 1.399 . S
C490 C491 1.385 . S
C491 H477 0.931 . S
C491 C490 1.385 . S
C491 C492 1.389 . S
C492 C491 1.389 . S
C492 C493 1.387 . S
C493 H478 0.930 . S
C493 C488 1.390 . S
C493 C492 1.387 . S
H494 C506 0.930 . S
H495 C508 0.930 . S
H496 C509 0.930 . S
H497 C513 0.959 . S
H498 C513 0.959 . S
H499 C513 0.961 . S
H500 C514 0.960 . S
H501 C514 0.961 . S
H502 C514 0.959 . S
H503 C517 0.929 . S
H504 C518 0.931 . S
H505 C520 0.930 . S
C506 H494 0.930 . S
C506 C507 1.399 . S
C506 C511 1.399 . S
C507 C506 1.399 . S
C507 C508 1.376 . S
C508 H495 0.930 . S
C508 C507 1.376 . S
C508 C509 1.388 . S
C509 H496 0.930 . S
C509 C508 1.388 . S
C509 C510 1.390 . S
C510 C509 1.390 . S
C510 C511 1.394 . S
C510 C516 1.465 . S
C511 C506 1.399 . S
C511 C510 1.394 . S
C511 C512 1.516 . S
C512 C511 1.516 . S
C512 C513 1.502 . S
C512 C514 1.561 . S
C512 C515 1.526 . S
C513 H497 0.959 . S
C513 H498 0.959 . S
C513 H499 0.961 . S
C513 C512 1.502 . S
C514 H500 0.960 . S
C514 H501 0.961 . S
C514 H502 0.959 . S
C514 C512 1.561 . S
C515 C512 1.526 . S
C515 C516 1.396 . S
C515 C520 1.390 . S
C516 C510 1.465 . S
C516 C515 1.396 . S
C516 C517 1.399 . S
C517 H503 0.929 . S
C517 C516 1.399 . S
C517 C518 1.385 . S
C518 H504 0.931 . S
C518 C517 1.385 . S
C518 C519 1.389 . S
C519 C518 1.389 . S
C519 C520 1.387 . S
C520 H505 0.930 . S
C520 C515 1.390 . S
C520 C519 1.387 . S
H521 C533 0.930 . S
H522 C535 0.930 . S
H523 C536 0.930 . S
H524 C540 0.959 . S
H525 C540 0.959 . S
H526 C540 0.961 . S
H527 C541 0.960 . S
H528 C541 0.961 . S
H529 C541 0.959 . S
H530 C544 0.929 . S
H531 C545 0.931 . S
H532 C547 0.930 . S
C533 H521 0.930 . S
C533 C534 1.399 . S
C533 C538 1.399 . S
C534 C533 1.399 . S
C534 C535 1.376 . S
C535 H522 0.930 . S
C535 C534 1.376 . S
C535 C536 1.388 . S
C536 H523 0.930 . S
C536 C535 1.388 . S
C536 C537 1.390 . S
C537 C536 1.390 . S
C537 C538 1.394 . S
C537 C543 1.465 . S
C538 C533 1.399 . S
C538 C537 1.394 . S
C538 C539 1.516 . S
C539 C538 1.516 . S
C539 C540 1.502 . S
C539 C541 1.561 . S
C539 C542 1.526 . S
C540 H524 0.959 . S
C540 H525 0.959 . S
C540 H526 0.961 . S
C540 C539 1.502 . S
C541 H527 0.960 . S
C541 H528 0.961 . S
C541 H529 0.959 . S
C541 C539 1.561 . S
C542 C539 1.526 . S
C542 C543 1.396 . S
C542 C547 1.390 . S
C543 C537 1.465 . S
C543 C542 1.396 . S
C543 C544 1.399 . S
C544 H530 0.929 . S
C544 C543 1.399 . S
C544 C545 1.385 . S
C545 H531 0.931 . S
C545 C544 1.385 . S
C545 C546 1.389 . S
C546 C545 1.389 . S
C546 C547 1.387 . S
C547 H532 0.930 . S
C547 C542 1.390 . S
C547 C546 1.387 . S
H548 C560 0.930 . S
H549 C562 0.930 . S
H550 C563 0.930 . S
H551 C567 0.960 . S
H552 C567 0.964 . S
H553 C567 0.956 1_455 S
H554 C568 0.921 1_455 S
H555 C568 0.997 . S
H556 C568 0.965 . S
H557 C571 0.929 . S
H558 C572 0.931 . S
H559 C574 0.930 . S
C560 H548 0.930 . S
C560 C561 1.399 . S
C560 C565 1.399 . S
C561 C560 1.399 . S
C561 C562 1.376 . S
C562 H549 0.930 . S
C562 C561 1.376 . S
C562 C563 1.388 . S
C563 H550 0.930 . S
C563 C562 1.388 . S
C563 C564 1.390 . S
C564 C563 1.390 . S
C564 C565 1.394 . S
C564 C570 1.465 1_455 S
C565 C560 1.399 . S
C565 C564 1.394 . S
C565 C566 1.519 1_455 S
C566 C565 1.519 1_655 S
C566 C567 1.502 . S
C566 C568 1.561 . S
C566 C569 1.523 . S
C567 H551 0.960 . S
C567 H552 0.964 . S
C567 H553 0.956 1_655 S
C567 C566 1.502 . S
C568 H554 0.921 1_655 S
C568 H555 0.997 . S
C568 H556 0.965 . S
C568 C566 1.561 . S
C569 C566 1.523 . S
C569 C570 1.396 . S
C569 C574 1.390 . S
C570 C564 1.465 1_655 S
C570 C569 1.396 . S
C570 C571 1.399 . S
C571 H557 0.929 . S
C571 C570 1.399 . S
C571 C572 1.385 . S
C572 H558 0.931 . S
C572 C571 1.385 . S
C572 C573 1.389 . S
C573 C572 1.389 . S
C573 C574 1.387 . S
C574 H559 0.930 . S
C574 C569 1.390 . S
C574 C573 1.387 . S
H575 C587 0.930 . S
H576 C589 0.930 . S
H577 C590 0.930 . S
H578 C594 0.959 . S
H579 C594 0.959 . S
H580 C594 0.961 . S
H581 C595 0.960 . S
H582 C595 0.961 . S
H583 C595 0.959 . S
H584 C598 0.929 . S
H585 C599 0.931 . S
H586 C601 0.930 . S
C587 H575 0.930 . S
C587 C588 1.399 . S
C587 C592 1.399 . S
C588 C587 1.399 . S
C588 C589 1.376 . S
C589 H576 0.930 . S
C589 C588 1.376 . S
C589 C590 1.388 . S
C590 H577 0.930 . S
C590 C589 1.388 . S
C590 C591 1.390 . S
C591 C590 1.390 . S
C591 C592 1.394 . S
C591 C597 1.465 . S
C592 C587 1.399 . S
C592 C591 1.394 . S
C592 C593 1.516 . S
C593 C592 1.516 . S
C593 C594 1.502 . S
C593 C595 1.561 . S
C593 C596 1.526 . S
C594 H578 0.959 . S
C594 H579 0.959 . S
C594 H580 0.961 . S
C594 C593 1.502 . S
C595 H581 0.960 . S
C595 H582 0.961 . S
C595 H583 0.959 . S
C595 C593 1.561 . S
C596 C593 1.526 . S
C596 C597 1.396 . S
C596 C601 1.390 . S
C597 C591 1.465 . S
C597 C596 1.396 . S
C597 C598 1.399 . S
C598 H584 0.929 . S
C598 C597 1.399 . S
C598 C599 1.385 . S
C599 H585 0.931 . S
C599 C598 1.385 . S
C599 C600 1.389 . S
C600 C599 1.389 . S
C600 C601 1.387 . S
C601 H586 0.930 . S
C601 C596 1.390 . S
C601 C600 1.387 . S
H602 C614 0.930 . S
H603 C616 0.930 . S
H604 C617 0.930 . S
H605 C621 0.959 . S
H606 C621 0.959 . S
H607 C621 0.961 . S
H608 C622 0.960 . S
H609 C622 0.961 . S
H610 C622 0.959 . S
H611 C625 0.929 . S
H612 C626 0.931 . S
H613 C628 0.930 . S
C614 H602 0.930 . S
C614 C615 1.399 . S
C614 C619 1.399 . S
C615 C614 1.399 . S
C615 C616 1.376 . S
C616 H603 0.930 . S
C616 C615 1.376 . S
C616 C617 1.388 . S
C617 H604 0.930 . S
C617 C616 1.388 . S
C617 C618 1.390 . S
C618 C617 1.390 . S
C618 C619 1.394 . S
C618 C624 1.465 . S
C619 C614 1.399 . S
C619 C618 1.394 . S
C619 C620 1.516 . S
C620 C619 1.516 . S
C620 C621 1.502 . S
C620 C622 1.561 . S
C620 C623 1.526 . S
C621 H605 0.959 . S
C621 H606 0.959 . S
C621 H607 0.961 . S
C621 C620 1.502 . S
C622 H608 0.960 . S
C622 H609 0.961 . S
C622 H610 0.959 . S
C622 C620 1.561 . S
C623 C620 1.526 . S
C623 C624 1.396 . S
C623 C628 1.390 . S
C624 C618 1.465 . S
C624 C623 1.396 . S
C624 C625 1.399 . S
C625 H611 0.929 . S
C625 C624 1.399 . S
C625 C626 1.385 . S
C626 H612 0.931 . S
C626 C625 1.385 . S
C626 C627 1.389 . S
C627 C626 1.389 . S
C627 C628 1.387 . S
C628 H613 0.930 . S
C628 C623 1.390 . S
C628 C627 1.387 . S
H629 C641 0.930 . S
H630 C643 0.930 . S
H631 C644 0.930 . S
H632 C648 0.959 . S
H633 C648 0.959 1_655 S
H634 C648 0.961 . S
H635 C649 0.960 . S
H636 C649 0.961 1_655 S
H637 C649 0.959 . S
H638 C652 0.929 . S
H639 C653 0.931 . S
H640 C655 0.930 . S
C641 H629 0.930 . S
C641 C642 1.399 . S
C641 C646 1.399 . S
C642 C641 1.399 . S
C642 C643 1.376 . S
C643 H630 0.930 . S
C643 C642 1.376 . S
C643 C644 1.388 . S
C644 H631 0.930 . S
C644 C643 1.388 . S
C644 C645 1.390 . S
C645 C644 1.390 . S
C645 C646 1.394 . S
C645 C651 1.465 1_455 S
C646 C641 1.399 . S
C646 C645 1.394 . S
C646 C647 1.516 . S
C647 C646 1.516 . S
C647 C648 1.502 . S
C647 C649 1.561 . S
C647 C650 1.526 1_455 S
C648 H632 0.959 . S
C648 H633 0.959 1_455 S
C648 H634 0.961 . S
C648 C647 1.502 . S
C649 H635 0.960 . S
C649 H636 0.961 1_455 S
C649 H637 0.959 . S
C649 C647 1.561 . S
C650 C647 1.526 1_655 S
C650 C651 1.396 . S
C650 C655 1.390 . S
C651 C645 1.465 1_655 S
C651 C650 1.396 . S
C651 C652 1.399 . S
C652 H638 0.929 . S
C652 C651 1.399 . S
C652 C653 1.385 . S
C653 H639 0.931 . S
C653 C652 1.385 . S
C653 C654 1.389 . S
C654 C653 1.389 . S
C654 C655 1.387 . S
C655 H640 0.930 . S
C655 C650 1.390 . S
C655 C654 1.387 . S
H656 C668 0.930 . S
H657 C670 0.930 . S
H658 C671 0.930 . S
H659 C675 0.959 . S
H660 C675 0.959 . S
H661 C675 0.961 . S
H662 C676 0.960 . S
H663 C676 0.961 . S
H664 C676 0.959 . S
H665 C679 0.929 . S
H666 C680 0.931 . S
H667 C682 0.920 1_554 S
C668 H656 0.930 . S
C668 C669 1.399 . S
C668 C673 1.399 . S
C669 C668 1.399 . S
C669 C670 1.376 . S
C670 H657 0.930 . S
C670 C669 1.376 . S
C670 C671 1.388 1_554 S
C671 H658 0.930 . S
C671 C670 1.388 1_556 S
C671 C672 1.390 . S
C672 C671 1.390 . S
C672 C673 1.394 1_556 S
C672 C678 1.465 . S
C673 C668 1.399 . S
C673 C672 1.394 1_554 S
C673 C674 1.516 . S
C674 C673 1.516 . S
C674 C675 1.502 . S
C674 C676 1.561 . S
C674 C677 1.526 1_554 S
C675 H659 0.959 . S
C675 H660 0.959 . S
C675 H661 0.961 . S
C675 C674 1.502 . S
C676 H662 0.960 . S
C676 H663 0.961 . S
C676 H664 0.959 . S
C676 C674 1.561 . S
C677 C674 1.526 1_556 S
C677 C678 1.396 . S
C677 C682 1.390 . S
C678 C672 1.465 . S
C678 C677 1.396 . S
C678 C679 1.399 . S
C679 H665 0.929 . S
C679 C678 1.399 . S
C679 C680 1.385 . S
C680 H666 0.931 . S
C680 C679 1.385 . S
C680 C681 1.389 . S
C681 C680 1.389 . S
C681 C682 1.387 . S
C682 H667 0.920 1_556 S
C682 C677 1.390 . S
C682 C681 1.387 . S
H683 C695 0.930 . S
H684 C697 0.930 . S
H685 C698 0.930 . S
H686 C702 0.959 . S
H687 C702 0.959 . S
H688 C702 0.961 . S
H689 C703 0.960 . S
H690 C703 0.961 . S
H691 C703 0.959 . S
H692 C706 0.929 . S
H693 C707 0.931 . S
H694 C709 0.930 . S
C695 H683 0.930 . S
C695 C696 1.399 . S
C695 C700 1.399 . S
C696 C695 1.399 . S
C696 C697 1.376 . S
C697 H684 0.930 . S
C697 C696 1.376 . S
C697 C698 1.388 . S
C698 H685 0.930 . S
C698 C697 1.388 . S
C698 C699 1.390 . S
C699 C698 1.390 . S
C699 C700 1.394 . S
C699 C705 1.465 . S
C700 C695 1.399 . S
C700 C699 1.394 . S
C700 C701 1.516 . S
C701 C700 1.516 . S
C701 C702 1.502 . S
C701 C703 1.561 . S
C701 C704 1.526 . S
C702 H686 0.959 . S
C702 H687 0.959 . S
C702 H688 0.961 . S
C702 C701 1.502 . S
C703 H689 0.960 . S
C703 H690 0.961 . S
C703 H691 0.959 . S
C703 C701 1.561 . S
C704 C701 1.526 . S
C704 C705 1.396 . S
C704 C709 1.390 . S
C705 C699 1.465 . S
C705 C704 1.396 . S
C705 C706 1.399 . S
C706 H692 0.929 . S
C706 C705 1.399 . S
C706 C707 1.385 . S
C707 H693 0.931 . S
C707 C706 1.385 . S
C707 C708 1.389 . S
C708 C707 1.389 . S
C708 C709 1.387 . S
C709 H694 0.930 . S
C709 C704 1.390 . S
C709 C708 1.387 . S
H710 C722 0.930 . S
H711 C724 0.930 . S
H712 C725 0.930 . S
H713 C729 0.959 . S
H714 C729 0.959 . S
H715 C729 0.961 . S
H716 C730 0.960 . S
H717 C730 0.961 . S
H718 C730 0.959 . S
H719 C733 0.929 . S
H720 C734 0.931 . S
H721 C736 0.930 . S
C722 H710 0.930 . S
C722 C723 1.399 . S
C722 C727 1.399 . S
C723 C722 1.399 . S
C723 C724 1.376 . S
C724 H711 0.930 . S
C724 C723 1.376 . S
C724 C725 1.388 . S
C725 H712 0.930 . S
C725 C724 1.388 . S
C725 C726 1.390 . S
C726 C725 1.390 . S
C726 C727 1.394 . S
C726 C732 1.465 . S
C727 C722 1.399 . S
C727 C726 1.394 . S
C727 C728 1.516 . S
C728 C727 1.516 . S
C728 C729 1.502 . S
C728 C730 1.561 . S
C728 C731 1.526 . S
C729 H713 0.959 . S
C729 H714 0.959 . S
C729 H715 0.961 . S
C729 C728 1.502 . S
C730 H716 0.960 . S
C730 H717 0.961 . S
C730 H718 0.959 . S
C730 C728 1.561 . S
C731 C728 1.526 . S
C731 C732 1.396 . S
C731 C736 1.390 . S
C732 C726 1.465 . S
C732 C731 1.396 . S
C732 C733 1.399 . S
C733 H719 0.929 . S
C733 C732 1.399 . S
C733 C734 1.385 . S
C734 H720 0.931 . S
C734 C733 1.385 . S
C734 C735 1.389 . S
C735 C734 1.389 . S
C735 C736 1.387 . S
C736 H721 0.930 . S
C736 C731 1.390 . S
C736 C735 1.387 . S
H737 C749 0.930 . S
H738 C751 0.930 . S
H739 C752 0.930 . S
H740 C756 0.959 . S
H741 C756 0.959 . S
H742 C756 0.961 . S
H743 C757 0.960 . S
H744 C757 0.961 . S
H745 C757 0.959 . S
H746 C760 0.929 . S
H747 C761 0.931 . S
H748 C763 0.930 . S
C749 H737 0.930 . S
C749 C750 1.399 . S
C749 C754 1.399 . S
C750 C749 1.399 . S
C750 C751 1.376 . S
C751 H738 0.930 . S
C751 C750 1.376 . S
C751 C752 1.388 . S
C752 H739 0.930 . S
C752 C751 1.388 . S
C752 C753 1.390 . S
C753 C752 1.390 . S
C753 C754 1.394 . S
C753 C759 1.465 . S
C754 C749 1.399 . S
C754 C753 1.394 . S
C754 C755 1.516 . S
C755 C754 1.516 . S
C755 C756 1.502 . S
C755 C757 1.561 . S
C755 C758 1.526 . S
C756 H740 0.959 . S
C756 H741 0.959 . S
C756 H742 0.961 . S
C756 C755 1.502 . S
C757 H743 0.960 . S
C757 H744 0.961 . S
C757 H745 0.959 . S
C757 C755 1.561 . S
C758 C755 1.526 . S
C758 C759 1.396 . S
C758 C763 1.390 . S
C759 C753 1.465 . S
C759 C758 1.396 . S
C759 C760 1.399 . S
C760 H746 0.929 . S
C760 C759 1.399 . S
C760 C761 1.385 . S
C761 H747 0.931 . S
C761 C760 1.385 . S
C761 C762 1.389 . S
C762 C761 1.389 . S
C762 C763 1.387 . S
C763 H748 0.930 . S
C763 C758 1.390 . S
C763 C762 1.387 . S
H764 C776 0.930 . S
H765 C778 0.930 . S
H766 C779 0.930 . S
H767 C783 0.959 . S
H768 C783 0.959 . S
H769 C783 0.961 . S
H770 C784 0.960 . S
H771 C784 0.961 . S
H772 C784 0.959 . S
H773 C787 0.929 . S
H774 C788 0.931 . S
H775 C790 0.930 . S
C776 H764 0.930 . S
C776 C777 1.399 . S
C776 C781 1.399 . S
C777 C776 1.399 . S
C777 C778 1.376 . S
C778 H765 0.930 . S
C778 C777 1.376 . S
C778 C779 1.388 1_556 S
C779 H766 0.930 . S
C779 C778 1.388 1_554 S
C779 C780 1.390 . S
C780 C779 1.390 . S
C780 C781 1.394 1_554 S
C780 C786 1.465 . S
C781 C776 1.399 . S
C781 C780 1.394 1_556 S
C781 C782 1.516 . S
C782 C781 1.516 . S
C782 C783 1.502 . S
C782 C784 1.561 . S
C782 C785 1.526 1_556 S
C783 H767 0.959 . S
C783 H768 0.959 . S
C783 H769 0.961 . S
C783 C782 1.502 . S
C784 H770 0.960 . S
C784 H771 0.961 . S
C784 H772 0.959 . S
C784 C782 1.561 . S
C785 C782 1.526 1_554 S
C785 C786 1.396 . S
C785 C790 1.390 . S
C786 C780 1.465 . S
C786 C785 1.396 . S
C786 C787 1.399 . S
C787 H773 0.929 . S
C787 C786 1.399 . S
C787 C788 1.385 . S
C788 H774 0.931 . S
C788 C787 1.385 . S
C788 C789 1.389 . S
C789 C788 1.389 . S
C789 C790 1.387 . S
C790 H775 0.930 . S
C790 C785 1.390 . S
C790 C789 1.387 . S
H791 C803 0.930 . S
H792 C805 0.930 . S
H793 C806 0.930 . S
H794 C810 0.959 . S
H795 C810 0.959 . S
H796 C810 0.961 . S
H797 C811 0.960 . S
H798 C811 0.961 . S
H799 C811 0.959 . S
H800 C814 0.929 . S
H801 C815 0.931 . S
H802 C817 0.930 . S
C803 H791 0.930 . S
C803 C804 1.399 . S
C803 C808 1.399 . S
C804 C803 1.399 . S
C804 C805 1.376 . S
C805 H792 0.930 . S
C805 C804 1.376 . S
C805 C806 1.388 . S
C806 H793 0.930 . S
C806 C805 1.388 . S
C806 C807 1.390 . S
C807 C806 1.390 . S
C807 C808 1.394 . S
C807 C813 1.465 . S
C808 C803 1.399 . S
C808 C807 1.394 . S
C808 C809 1.516 . S
C809 C808 1.516 . S
C809 C810 1.502 . S
C809 C811 1.561 . S
C809 C812 1.526 . S
C810 H794 0.959 . S
C810 H795 0.959 . S
C810 H796 0.961 . S
C810 C809 1.502 . S
C811 H797 0.960 . S
C811 H798 0.961 . S
C811 H799 0.959 . S
C811 C809 1.561 . S
C812 C809 1.526 . S
C812 C813 1.396 . S
C812 C817 1.390 . S
C813 C807 1.465 . S
C813 C812 1.396 . S
C813 C814 1.399 . S
C814 H800 0.929 . S
C814 C813 1.399 . S
C814 C815 1.385 . S
C815 H801 0.931 . S
C815 C814 1.385 . S
C815 C816 1.389 . S
C816 C815 1.389 . S
C816 C817 1.387 . S
C817 H802 0.930 . S
C817 C812 1.390 . S
C817 C816 1.387 . S
H818 C830 0.930 . S
H819 C832 0.930 . S
H820 C833 0.930 . S
H821 C837 0.959 . S
H822 C837 0.959 . S
H823 C837 0.961 . S
H824 C838 0.960 . S
H825 C838 0.961 . S
H826 C838 0.959 . S
H827 C841 0.929 . S
H828 C842 0.931 . S
H829 C844 0.930 . S
C830 H818 0.930 . S
C830 C831 1.399 . S
C830 C835 1.399 . S
C831 C830 1.399 . S
C831 C832 1.376 . S
C832 H819 0.930 . S
C832 C831 1.376 . S
C832 C833 1.388 . S
C833 H820 0.930 . S
C833 C832 1.388 . S
C833 C834 1.390 . S
C834 C833 1.390 . S
C834 C835 1.394 . S
C834 C840 1.465 . S
C835 C830 1.399 . S
C835 C834 1.394 . S
C835 C836 1.516 . S
C836 C835 1.516 . S
C836 C837 1.502 . S
C836 C838 1.561 . S
C836 C839 1.526 . S
C837 H821 0.959 . S
C837 H822 0.959 . S
C837 H823 0.961 . S
C837 C836 1.502 . S
C838 H824 0.960 . S
C838 H825 0.961 . S
C838 H826 0.959 . S
C838 C836 1.561 . S
C839 C836 1.526 . S
C839 C840 1.396 . S
C839 C844 1.390 . S
C840 C834 1.465 . S
C840 C839 1.396 . S
C840 C841 1.399 . S
C841 H827 0.929 . S
C841 C840 1.399 . S
C841 C842 1.385 . S
C842 H828 0.931 . S
C842 C841 1.385 . S
C842 C843 1.389 . S
C843 C842 1.389 . S
C843 C844 1.387 . S
C844 H829 0.930 . S
C844 C839 1.390 . S
C844 C843 1.387 . S
H845 C857 0.930 . S
H846 C859 0.930 . S
H847 C860 0.930 . S
H848 C864 0.959 . S
H849 C864 0.959 . S
H850 C864 0.961 . S
H851 C865 0.960 . S
H852 C865 0.961 . S
H853 C865 0.959 . S
H854 C868 0.929 . S
H855 C869 0.931 . S
H856 C871 0.930 . S
C857 H845 0.930 . S
C857 C858 1.399 . S
C857 C862 1.399 . S
C858 C857 1.399 . S
C858 C859 1.376 . S
C859 H846 0.930 . S
C859 C858 1.376 . S
C859 C860 1.388 . S
C860 H847 0.930 . S
C860 C859 1.388 . S
C860 C861 1.390 . S
C861 C860 1.390 . S
C861 C862 1.394 . S
C861 C867 1.465 . S
C862 C857 1.399 . S
C862 C861 1.394 . S
C862 C863 1.516 . S
C863 C862 1.516 . S
C863 C864 1.502 . S
C863 C865 1.561 . S
C863 C866 1.526 . S
C864 H848 0.959 . S
C864 H849 0.959 . S
C864 H850 0.961 . S
C864 C863 1.502 . S
C865 H851 0.960 . S
C865 H852 0.961 . S
C865 H853 0.959 . S
C865 C863 1.561 . S
C866 C863 1.526 . S
C866 C867 1.396 . S
C866 C871 1.390 . S
C867 C861 1.465 . S
C867 C866 1.396 . S
C867 C868 1.399 . S
C868 H854 0.929 . S
C868 C867 1.399 . S
C868 C869 1.385 . S
C869 H855 0.931 . S
C869 C868 1.385 . S
C869 C870 1.389 . S
C870 C869 1.389 . S
C870 C871 1.387 . S
C871 H856 0.930 . S
C871 C866 1.390 . S
C871 C870 1.387 . S
H872 C884 0.930 . S
H873 C886 0.930 . S
H874 C887 0.930 . S
H875 C891 0.959 . S
H876 C891 0.959 . S
H877 C891 0.961 . S
H878 C892 0.960 . S
H879 C892 0.961 . S
H880 C892 0.959 . S
H881 C895 0.929 . S
H882 C896 0.931 . S
H883 C898 0.930 . S
C884 H872 0.930 . S
C884 C885 1.399 . S
C884 C889 1.399 . S
C885 C884 1.399 . S
C885 C886 1.376 . S
C886 H873 0.930 . S
C886 C885 1.376 . S
C886 C887 1.388 . S
C887 H874 0.930 . S
C887 C886 1.388 . S
C887 C888 1.390 . S
C888 C887 1.390 . S
C888 C889 1.394 . S
C888 C894 1.465 1_545 S
C889 C884 1.399 . S
C889 C888 1.394 . S
C889 C890 1.516 1_545 S
C890 C889 1.516 1_565 S
C890 C891 1.502 . S
C890 C892 1.561 . S
C890 C893 1.526 . S
C891 H875 0.959 . S
C891 H876 0.959 . S
C891 H877 0.961 . S
C891 C890 1.502 . S
C892 H878 0.960 . S
C892 H879 0.961 . S
C892 H880 0.959 . S
C892 C890 1.561 . S
C893 C890 1.526 . S
C893 C894 1.396 . S
C893 C898 1.390 . S
C894 C888 1.465 1_565 S
C894 C893 1.396 . S
C894 C895 1.399 . S
C895 H881 0.929 . S
C895 C894 1.399 . S
C895 C896 1.385 . S
C896 H882 0.931 . S
C896 C895 1.385 . S
C896 C897 1.389 . S
C897 C896 1.389 . S
C897 C898 1.387 . S
C898 H883 0.930 . S
C898 C893 1.390 . S
C898 C897 1.387 . S
H899 C911 0.930 . S
H900 C913 0.930 . S
H901 C914 0.930 . S
H902 C918 0.959 . S
H903 C918 0.959 . S
H904 C918 0.961 . S
H905 C919 0.960 . S
H906 C919 0.961 . S
H907 C919 0.959 . S
H908 C922 0.929 . S
H909 C923 0.931 . S
H910 C925 0.930 . S
C911 H899 0.930 . S
C911 C912 1.399 . S
C911 C916 1.399 . S
C912 C911 1.399 . S
C912 C913 1.376 . S
C913 H900 0.930 . S
C913 C912 1.376 . S
C913 C914 1.388 . S
C914 H901 0.930 . S
C914 C913 1.388 . S
C914 C915 1.390 . S
C915 C914 1.390 . S
C915 C916 1.394 . S
C915 C921 1.465 . S
C916 C911 1.399 . S
C916 C915 1.394 . S
C916 C917 1.516 . S
C917 C916 1.516 . S
C917 C918 1.502 . S
C917 C919 1.561 . S
C917 C920 1.526 . S
C918 H902 0.959 . S
C918 H903 0.959 . S
C918 H904 0.961 . S
C918 C917 1.502 . S
C919 H905 0.960 . S
C919 H906 0.961 . S
C919 H907 0.959 . S
C919 C917 1.561 . S
C920 C917 1.526 . S
C920 C921 1.396 . S
C920 C925 1.390 . S
C921 C915 1.465 . S
C921 C920 1.396 . S
C921 C922 1.399 . S
C922 H908 0.929 . S
C922 C921 1.399 . S
C922 C923 1.385 . S
C923 H909 0.931 . S
C923 C922 1.385 . S
C923 C924 1.389 . S
C924 C923 1.389 . S
C924 C925 1.387 . S
C925 H910 0.930 . S
C925 C920 1.390 . S
C925 C924 1.387 . S
H926 C938 0.930 1_554 S
H927 C940 0.930 . S
H928 C941 0.950 . S
H929 C945 0.959 . S
H930 C945 0.959 . S
H931 C945 0.961 . S
H932 C946 0.960 . S
H933 C946 0.961 . S
H934 C946 0.959 . S
H935 C949 0.929 . S
H936 C950 0.924 1_556 S
H937 C952 0.930 . S
C938 H926 0.930 1_556 S
C938 C939 1.399 . S
C938 C943 1.394 1_556 S
C939 C938 1.399 . S
C939 C940 1.376 . S
C940 H927 0.930 . S
C940 C939 1.376 . S
C940 C941 1.388 . S
C941 H928 0.950 . S
C941 C940 1.388 . S
C941 C942 1.390 . S
C942 C941 1.390 . S
C942 C943 1.384 1_556 S
C942 C948 1.465 1_545 S
C943 C938 1.394 1_554 S
C943 C942 1.384 1_554 S
C943 C944 1.530 . S
C944 C943 1.530 . S
C944 C945 1.502 . S
C944 C946 1.561 . S
C944 C947 1.526 1_545 S
C945 H929 0.959 . S
C945 H930 0.959 . S
C945 H931 0.961 . S
C945 C944 1.502 . S
C946 H932 0.960 . S
C946 H933 0.961 . S
C946 H934 0.959 . S
C946 C944 1.561 . S
C947 C944 1.526 1_565 S
C947 C948 1.396 1_554 S
C947 C952 1.390 . S
C948 C942 1.465 1_565 S
C948 C947 1.396 1_556 S
C948 C949 1.399 . S
C949 H935 0.929 . S
C949 C948 1.399 . S
C949 C950 1.385 1_556 S
C950 H936 0.924 1_554 S
C950 C949 1.385 1_554 S
C950 C951 1.389 . S
C951 C950 1.389 . S
C951 C952 1.387 . S
C952 H937 0.930 . S
C952 C947 1.390 . S
C952 C951 1.387 . S
H953 C965 0.930 . S
H954 C967 0.930 . S
H955 C968 0.930 . S
H956 C972 0.959 . S
H957 C972 0.959 . S
H958 C972 0.961 . S
H959 C973 0.960 . S
H960 C973 0.961 . S
H961 C973 0.959 . S
H962 C976 0.929 . S
H963 C977 0.931 . S
H964 C979 0.930 . S
C965 H953 0.930 . S
C965 C966 1.399 . S
C965 C970 1.399 . S
C966 C965 1.399 . S
C966 C967 1.376 . S
C967 H954 0.930 . S
C967 C966 1.376 . S
C967 C968 1.388 . S
C968 H955 0.930 . S
C968 C967 1.388 . S
C968 C969 1.390 . S
C969 C968 1.390 . S
C969 C970 1.394 . S
C969 C975 1.465 . S
C970 C965 1.399 . S
C970 C969 1.394 . S
C970 C971 1.516 . S
C971 C970 1.516 . S
C971 C972 1.502 . S
C971 C973 1.561 . S
C971 C974 1.526 . S
C972 H956 0.959 . S
C972 H957 0.959 . S
C972 H958 0.961 . S
C972 C971 1.502 . S
C973 H959 0.960 . S
C973 H960 0.961 . S
C973 H961 0.959 . S
C973 C971 1.561 . S
C974 C971 1.526 . S
C974 C975 1.396 . S
C974 C979 1.390 . S
C975 C969 1.465 . S
C975 C974 1.396 . S
C975 C976 1.399 . S
C976 H962 0.929 . S
C976 C975 1.399 . S
C976 C977 1.385 . S
C977 H963 0.931 . S
C977 C976 1.385 . S
C977 C978 1.389 . S
C978 C977 1.389 . S
C978 C979 1.387 . S
C979 H964 0.930 . S
C979 C974 1.390 . S
C979 C978 1.387 . S
H980 C992 0.930 . S
H981 C994 0.930 . S
H982 C995 0.930 . S
H983 C999 0.959 . S
H984 C999 0.959 . S
H985 C999 0.961 . S
H986 C1000 0.960 . S
H987 C1000 0.961 . S
H988 C1000 0.959 . S
H989 C1003 0.929 1_545 S
H990 C1004 0.931 . S
H991 C1006 0.930 . S
C992 H980 0.930 . S
C992 C993 1.399 . S
C992 C997 1.399 . S
C993 C992 1.399 . S
C993 C994 1.376 . S
C994 H981 0.930 . S
C994 C993 1.376 . S
C994 C995 1.388 . S
C995 H982 0.930 . S
C995 C994 1.388 . S
C995 C996 1.390 . S
C996 C995 1.390 . S
C996 C997 1.394 . S
C996 C1002 1.465 1_545 S
C997 C992 1.399 . S
C997 C996 1.394 . S
C997 C998 1.516 1_545 S
C998 C997 1.516 1_565 S
C998 C999 1.502 . S
C998 C1000 1.561 . S
C998 C1001 1.526 . S
C999 H983 0.959 . S
C999 H984 0.959 . S
C999 H985 0.961 . S
C999 C998 1.502 . S
C1000 H986 0.960 . S
C1000 H987 0.961 . S
C1000 H988 0.959 . S
C1000 C998 1.561 . S
C1001 C998 1.526 . S
C1001 C1002 1.396 . S
C1001 C1006 1.390 . S
C1002 C996 1.465 1_565 S
C1002 C1001 1.396 . S
C1002 C1003 1.399 . S
C1003 H989 0.929 1_565 S
C1003 C1002 1.399 . S
C1003 C1004 1.385 . S
C1004 H990 0.931 . S
C1004 C1003 1.385 . S
C1004 C1005 1.389 . S
C1005 C1004 1.389 . S
C1005 C1006 1.387 . S
C1006 H991 0.930 . S
C1006 C1001 1.390 . S
C1006 C1005 1.387 . S
H1007 C1019 0.930 . S
H1008 C1021 0.930 . S
H1009 C1022 0.930 . S
H1010 C1026 0.959 . S
H1011 C1026 0.959 . S
H1012 C1026 0.961 . S
H1013 C1027 0.960 . S
H1014 C1027 0.961 . S
H1015 C1027 0.959 . S
H1016 C1030 0.929 . S
H1017 C1031 0.931 . S
H1018 C1033 0.930 . S
C1019 H1007 0.930 . S
C1019 C1020 1.399 . S
C1019 C1024 1.399 . S
C1020 C1019 1.399 . S
C1020 C1021 1.376 . S
C1021 H1008 0.930 . S
C1021 C1020 1.376 . S
C1021 C1022 1.388 . S
C1022 H1009 0.930 . S
C1022 C1021 1.388 . S
C1022 C1023 1.390 . S
C1023 C1022 1.390 . S
C1023 C1024 1.394 . S
C1023 C1029 1.465 . S
C1024 C1019 1.399 . S
C1024 C1023 1.394 . S
C1024 C1025 1.516 . S
C1025 C1024 1.516 . S
C1025 C1026 1.502 . S
C1025 C1027 1.561 . S
C1025 C1028 1.526 . S
C1026 H1010 0.959 . S
C1026 H1011 0.959 . S
C1026 H1012 0.961 . S
C1026 C1025 1.502 . S
C1027 H1013 0.960 . S
C1027 H1014 0.961 . S
C1027 H1015 0.959 . S
C1027 C1025 1.561 . S
C1028 C1025 1.526 . S
C1028 C1029 1.396 . S
C1028 C1033 1.390 . S
C1029 C1023 1.465 . S
C1029 C1028 1.396 . S
C1029 C1030 1.399 . S
C1030 H1016 0.929 . S
C1030 C1029 1.399 . S
C1030 C1031 1.385 . S
C1031 H1017 0.931 . S
C1031 C1030 1.385 . S
C1031 C1032 1.389 . S
C1032 C1031 1.389 . S
C1032 C1033 1.387 . S
C1033 H1018 0.930 . S
C1033 C1028 1.390 . S
C1033 C1032 1.387 . S
H1034 C1046 0.930 1_556 S
H1035 C1048 0.930 . S
H1036 C1049 0.930 1_545 S
H1037 C1053 0.959 . S
H1038 C1053 0.959 . S
H1039 C1053 0.961 . S
H1040 C1054 0.960 . S
H1041 C1054 0.961 . S
H1042 C1054 0.959 . S
H1043 C1057 0.929 . S
H1044 C1058 0.931 . S
H1045 C1060 0.930 . S
C1046 H1034 0.930 1_554 S
C1046 C1047 1.399 . S
C1046 C1051 1.399 1_554 S
C1047 C1046 1.399 . S
C1047 C1048 1.376 . S
C1048 H1035 0.930 . S
C1048 C1047 1.376 . S
C1048 C1049 1.388 . S
C1049 H1036 0.930 1_565 S
C1049 C1048 1.388 . S
C1049 C1050 1.390 . S
C1050 C1049 1.390 . S
C1050 C1051 1.394 1_554 S
C1050 C1056 1.474 1_565 S
C1051 C1046 1.399 1_556 S
C1051 C1050 1.394 1_556 S
C1051 C1052 1.516 . S
C1052 C1051 1.516 . S
C1052 C1053 1.502 . S
C1052 C1054 1.561 . S
C1052 C1055 1.526 1_565 S
C1053 H1037 0.959 . S
C1053 H1038 0.959 . S
C1053 H1039 0.961 . S
C1053 C1052 1.502 . S
C1054 H1040 0.960 . S
C1054 H1041 0.961 . S
C1054 H1042 0.959 . S
C1054 C1052 1.561 . S
C1055 C1052 1.526 1_545 S
C1055 C1056 1.380 1_556 S
C1055 C1060 1.390 . S
C1056 C1050 1.474 1_545 S
C1056 C1055 1.380 1_554 S
C1056 C1057 1.403 . S
C1057 H1043 0.929 . S
C1057 C1056 1.403 . S
C1057 C1058 1.385 1_554 S
C1058 H1044 0.931 . S
C1058 C1057 1.385 1_556 S
C1058 C1059 1.389 . S
C1059 C1058 1.389 . S
C1059 C1060 1.387 . S
C1060 H1045 0.930 . S
C1060 C1055 1.390 . S
C1060 C1059 1.387 . S
H1061 C1073 0.930 . S
H1062 C1075 0.930 . S
H1063 C1076 0.930 . S
H1064 C1080 0.959 . S
H1065 C1080 0.959 . S
H1066 C1080 0.961 . S
H1067 C1081 0.960 . S
H1068 C1081 0.961 . S
H1069 C1081 0.959 . S
H1070 C1084 0.929 . S
H1071 C1085 0.931 . S
H1072 C1087 0.930 . S
C1073 H1061 0.930 . S
C1073 C1074 1.399 . S
C1073 C1078 1.399 . S
C1074 C1073 1.399 . S
C1074 C1075 1.376 . S
C1075 H1062 0.930 . S
C1075 C1074 1.376 . S
C1075 C1076 1.388 . S
C1076 H1063 0.930 . S
C1076 C1075 1.388 . S
C1076 C1077 1.390 . S
C1077 C1076 1.390 . S
C1077 C1078 1.394 . S
C1077 C1083 1.465 . S
C1078 C1073 1.399 . S
C1078 C1077 1.394 . S
C1078 C1079 1.516 . S
C1079 C1078 1.516 . S
C1079 C1080 1.502 . S
C1079 C1081 1.561 . S
C1079 C1082 1.526 . S
C1080 H1064 0.959 . S
C1080 H1065 0.959 . S
C1080 H1066 0.961 . S
C1080 C1079 1.502 . S
C1081 H1067 0.960 . S
C1081 H1068 0.961 . S
C1081 H1069 0.959 . S
C1081 C1079 1.561 . S
C1082 C1079 1.526 . S
C1082 C1083 1.396 . S
C1082 C1087 1.390 . S
C1083 C1077 1.465 . S
C1083 C1082 1.396 . S
C1083 C1084 1.399 . S
C1084 H1070 0.929 . S
C1084 C1083 1.399 . S
C1084 C1085 1.385 . S
C1085 H1071 0.931 . S
C1085 C1084 1.385 . S
C1085 C1086 1.389 . S
C1086 C1085 1.389 . S
C1086 C1087 1.387 . S
C1087 H1072 0.930 . S
C1087 C1082 1.390 . S
C1087 C1086 1.387 . S
C237 C159 1.338 . S
C249 C5 1.334 . S
C264 C215 1.402 . S
C276 C23 1.378 . S
C291 C33 1.368 . S
C303 C135 1.363 . S
C318 C187 1.358 . S
C330 C51 1.366 . S
C345 C61 1.356 . S
C357 C191 1.352 . S
C372 C79 1.381 . S
C384 C163 1.372 . S
C399 C89 1.354 . S
C411 C219 1.345 . S
C426 C107 1.365 . S
C438 C131 1.360 . S
C453 C47 1.350 . S
C465 C117 1.350 . S
C480 C145 1.302 . S
C492 C19 1.304 . S
C507 C177 1.337 . S
C519 C75 1.337 . S
C534 C201 1.302 . S
C546 C103 1.305 . S
C561 C65 1.406 . S
C573 C121 1.405 . S
C588 C149 1.372 . S
C600 C93 1.381 . S
C615 C205 1.401 . S
C627 C37 1.412 . S
C642 C9 1.381 . S
C654 C173 1.402 . S
C669 C11 1.248 . S
C681 C67 1.245 . S
C696 C14 1.332 . S
C708 C70 1.319 . S
C723 C39 1.329 . S
C735 C95 1.336 . S
C750 C98 1.265 . S
C762 C42 1.251 . S
C777 C123 1.322 . S
C789 C168 1.316 . S
C804 C193 1.227 . S
C816 C137 1.229 . S
C831 C151 1.248 . S
C843 C207 1.255 . S
C858 C221 1.279 . S
C870 C154 1.270 . S
C885 C109 1.159 . S
C897 C25 1.158 . S
C912 C28 1.405 . S
C924 C56 1.399 . S
C939 C53 1.256 . S
C951 C81 1.261 . S
C966 C0 1.361 . S
C978 C84 1.372 . S
C993 C126 1.350 . S
C1005 C210 1.340 . S
C1020 C179 1.268 . S
C1032 C140 1.261 . S
C1047 C165 1.282 . S
C1059 C182 1.287 . S
C1074 C196 1.303 . S
C1086 C112 1.302 . S
