# Generated by pormake.
# Topology sni, (6)-cn, num edge types: 1
# Building blocks:
#     Node 0, Type 0, BuildingBlock: OJICUG_clean_sbu_0, # of connection points: 6
#     Node 1, Type 0, BuildingBlock: OJICUG_clean_sbu_0, # of connection points: 6
#     Node 2, Type 0, BuildingBlock: OJICUG_clean_sbu_0, # of connection points: 6
#     Node 3, Type 0, BuildingBlock: OJICUG_clean_sbu_0, # of connection points: 6
#     Node 4, Type 0, BuildingBlock: OJICUG_clean_sbu_0, # of connection points: 6
#     Node 5, Type 0, BuildingBlock: OJICUG_clean_sbu_0, # of connection points: 6
#     Node 6, Type 0, BuildingBlock: OJICUG_clean_sbu_0, # of connection points: 6
#     Node 7, Type 0, BuildingBlock: OJICUG_clean_sbu_0, # of connection points: 6
#     Edge 8, Type (0, 0), BuildingBlock: EZIPEK_clean_linker_0, # of connection points: 2
#     Edge 9, Type (0, 0), BuildingBlock: EZIPEK_clean_linker_0, # of connection points: 2
#     Edge 10, Type (0, 0), BuildingBlock: EZIPEK_clean_linker_0, # of connection points: 2
#     Edge 11, Type (0, 0), BuildingBlock: EZIPEK_clean_linker_0, # of connection points: 2
#     Edge 12, Type (0, 0), BuildingBlock: EZIPEK_clean_linker_0, # of connection points: 2
#     Edge 13, Type (0, 0), BuildingBlock: EZIPEK_clean_linker_0, # of connection points: 2
#     Edge 14, Type (0, 0), BuildingBlock: EZIPEK_clean_linker_0, # of connection points: 2
#     Edge 15, Type (0, 0), BuildingBlock: EZIPEK_clean_linker_0, # of connection points: 2
#     Edge 16, Type (0, 0), BuildingBlock: EZIPEK_clean_linker_0, # of connection points: 2
#     Edge 17, Type (0, 0), BuildingBlock: EZIPEK_clean_linker_0, # of connection points: 2
#     Edge 18, Type (0, 0), BuildingBlock: EZIPEK_clean_linker_0, # of connection points: 2
#     Edge 19, Type (0, 0), BuildingBlock: EZIPEK_clean_linker_0, # of connection points: 2
#     Edge 20, Type (0, 0), BuildingBlock: EZIPEK_clean_linker_0, # of connection points: 2
#     Edge 21, Type (0, 0), BuildingBlock: EZIPEK_clean_linker_0, # of connection points: 2
#     Edge 22, Type (0, 0), BuildingBlock: EZIPEK_clean_linker_0, # of connection points: 2
#     Edge 23, Type (0, 0), BuildingBlock: EZIPEK_clean_linker_0, # of connection points: 2
#     Edge 24, Type (0, 0), BuildingBlock: EZIPEK_clean_linker_0, # of connection points: 2
#     Edge 25, Type (0, 0), BuildingBlock: EZIPEK_clean_linker_0, # of connection points: 2
#     Edge 26, Type (0, 0), BuildingBlock: EZIPEK_clean_linker_0, # of connection points: 2
#     Edge 27, Type (0, 0), BuildingBlock: EZIPEK_clean_linker_0, # of connection points: 2
#     Edge 28, Type (0, 0), BuildingBlock: EZIPEK_clean_linker_0, # of connection points: 2
#     Edge 29, Type (0, 0), BuildingBlock: EZIPEK_clean_linker_0, # of connection points: 2
#     Edge 30, Type (0, 0), BuildingBlock: EZIPEK_clean_linker_0, # of connection points: 2
#     Edge 31, Type (0, 0), BuildingBlock: EZIPEK_clean_linker_0, # of connection points: 2
# Relax obj value: 0.093
# Max RMSD: 0.105
# Mean RMSD: 0.105
data_MOF--net-sni--node1-OJICUG_clean_sbu_0--edge1-EZIPEK_clean_linker_0
_symmetry_space_group_name_H-M    P1
_symmetry_Int_Tables_number       1
_symmetry_cell_setting            triclinic
loop_
_symmetry_equiv_pos_as_xyz
'x, y, z'
_cell_length_a     30.639037
_cell_length_b     30.503442
_cell_length_c     16.945988
_cell_angle_alpha  90.424804
_cell_angle_beta   89.747335
_cell_angle_gamma 89.982256
loop_
_atom_site_label
_atom_site_type_symbol
_atom_site_fract_x
_atom_site_fract_y
_atom_site_fract_z
_atom_type_partial_charge
Sc0 Sc 0.60011 0.07831 0.97475 0.0
Sc1 Sc 0.71264 0.10176 0.98554 0.0
Sc2 Sc 0.63551 0.18789 0.98179 0.0
O3 O 0.64946 0.12266 0.98066 0.0
C4 C 0.56557 0.15144 0.85883 0.0
C5 C 0.67159 0.03669 0.8593 0.0
C6 C 0.71868 0.18386 0.86987 0.0
C7 C 0.66409 0.03236 0.09505 0.0
C8 C 0.56245 0.14957 0.0954 0.0
C9 C 0.71351 0.18131 0.10608 0.0
O10 O 0.56803 0.11196 0.88115 0.0
O11 O 0.70405 0.05756 0.88697 0.0
O12 O 0.68206 0.20042 0.88924 0.0
O13 O 0.62634 0.03973 0.06795 0.0
O14 O 0.58776 0.18049 0.07469 0.0
O15 O 0.72714 0.14387 0.08404 0.0
O16 O 0.56213 0.11196 0.06286 0.0
O17 O 0.69846 0.05075 0.0693 0.0
O18 O 0.6827 0.20178 0.07253 0.0
O19 O 0.63303 0.03993 0.88634 0.0
O20 O 0.58647 0.18266 0.89112 0.0
O21 O 0.73494 0.1504 0.90301 0.0
Sc22 Sc 0.88898 0.5862 -0.00473 0.0
Sc23 Sc 0.8416 0.69113 -0.00937 0.0
Sc24 Sc 0.77451 0.59702 0.98038 0.0
O25 O 0.83502 0.62479 -0.01114 0.0
C26 C 0.83149 0.53595 0.86624 0.0
C27 C 0.92052 0.66169 0.87993 0.0
C28 C 0.76499 0.67866 0.86527 0.0
C29 C 0.91388 0.66335 0.11504 0.0
C30 C 0.82176 0.53377 0.10231 0.0
C31 C 0.75901 0.67518 0.1029 0.0
O32 O 0.86675 0.54296 0.90333 0.0
O33 O 0.89397 0.69033 0.90601 0.0
O34 O 0.75116 0.64299 0.89418 0.0
O35 O 0.91843 0.62494 0.08694 0.0
O36 O 0.78814 0.54749 0.06674 0.0
O37 O 0.7898 0.69871 0.07586 0.0
O38 O 0.86033 0.54622 0.08605 0.0
O39 O 0.88659 0.69091 0.08858 0.0
O40 O 0.74965 0.63721 0.07616 0.0
O41 O 0.9225 0.62268 0.90544 0.0
O42 O 0.79535 0.55438 0.88405 0.0
O43 O 0.7981 0.69878 0.8923 0.0
Sc44 Sc 0.26695 0.8854 -0.00913 0.0
Sc45 Sc 0.34586 0.80063 -0.00804 0.0
Sc46 Sc 0.37923 0.91108 -0.00237 0.0
O47 O 0.33063 0.8657 -0.00635 0.0
C48 C 0.31263 0.95388 0.87606 0.0
C49 C 0.26747 0.80466 0.87013 0.0
C50 C 0.4188 0.84043 0.87849 0.0
C51 C 0.2629 0.80371 0.10684 0.0
C52 C 0.30856 0.95365 0.11254 0.0
C53 C 0.41458 0.838 0.11508 0.0
O54 O 0.27936 0.9323 0.89841 0.0
O55 O 0.30203 0.78727 0.89657 0.0
O56 O 0.41599 0.87915 0.90589 0.0
O57 O 0.24827 0.84022 0.08261 0.0
O58 O 0.34757 0.94821 0.08906 0.0
O59 O 0.39149 0.80699 0.08744 0.0
O60 O 0.27595 0.93426 0.08212 0.0
O61 O 0.29684 0.78528 0.07883 0.0
O62 O 0.41407 0.87679 0.08835 0.0
O63 O 0.25028 0.83908 0.89926 0.0
O64 O 0.35005 0.95022 0.9072 0.0
O65 O 0.39654 0.80848 0.90454 0.0
Sc66 Sc 0.09014 0.39424 0.98431 0.0
Sc67 Sc 0.14205 0.29124 0.97489 0.0
Sc68 Sc 0.20441 0.38744 -0.00819 0.0
O69 O 0.14541 0.3577 0.98332 0.0
C70 C 0.15422 0.4482 0.87138 0.0
C71 C 0.06553 0.3207 0.85993 0.0
C72 C 0.22291 0.31046 0.86672 0.0
C73 C 0.0656 0.31345 0.09488 0.0
C74 C 0.14687 0.44714 0.10722 0.0
C75 C 0.21723 0.30597 0.10319 0.0
O76 O 0.11685 0.44015 0.90095 0.0
O77 O 0.09066 0.29171 0.88808 0.0
O78 O 0.23493 0.34359 0.90705 0.0
O79 O 0.05868 0.35148 0.0674 0.0
O80 O 0.18308 0.43543 0.07729 0.0
O81 O 0.1937 0.28149 0.05961 0.0
O82 O 0.11031 0.4334 0.08282 0.0
O83 O 0.09561 0.28795 0.07028 0.0
O84 O 0.22169 0.34677 0.09057 0.0
O85 O 0.06321 0.3596 0.88619 0.0
O86 O 0.18949 0.43052 0.89481 0.0
O87 O 0.18787 0.28953 0.87948 0.0
Sc88 Sc 0.59771 0.77369 0.49476 0.0
Sc89 Sc 0.68881 0.84331 0.47576 0.0
Sc90 Sc 0.58299 0.8882 0.48631 0.0
O91 O 0.62313 0.83508 0.48564 0.0
C92 C 0.53185 0.82066 0.37667 0.0
C93 C 0.67397 0.75954 0.36717 0.0
C94 C 0.65393 0.91698 0.35979 0.0
C95 C 0.68194 0.76638 0.60247 0.0
C96 C 0.53577 0.82776 0.6123 0.0
C97 C 0.66139 0.91998 0.59514 0.0
O98 O 0.55096 0.78614 0.40105 0.0
O99 O 0.69306 0.79579 0.38135 0.0
O100 O 0.61548 0.91779 0.38776 0.0
O101 O 0.64206 0.75726 0.58909 0.0
O102 O 0.54535 0.86512 0.58476 0.0
O103 O 0.68928 0.89206 0.57001 0.0
O104 O 0.55116 0.79211 0.58489 0.0
O105 O 0.70341 0.79379 0.5618 0.0
O106 O 0.62288 0.92305 0.56859 0.0
O107 O 0.64163 0.74595 0.40736 0.0
O108 O 0.53921 0.85874 0.40402 0.0
O109 O 0.68402 0.89284 0.38654 0.0
Sc110 Sc 0.18244 0.63585 0.48775 0.0
Sc111 Sc 0.1015 0.7189 0.49344 0.0
Sc112 Sc 0.07098 0.60756 0.49364 0.0
O113 O 0.11837 0.65416 0.49168 0.0
C114 C 0.13881 0.56564 0.37259 0.0
C115 C 0.18033 0.71629 0.369 0.0
C116 C 0.02995 0.67831 0.37781 0.0
C117 C 0.18514 0.71753 0.60575 0.0
C118 C 0.14139 0.56691 0.60936 0.0
C119 C 0.03366 0.67894 0.61502 0.0
O120 O 0.17146 0.58725 0.39728 0.0
O121 O 0.14625 0.73383 0.39854 0.0
O122 O 0.03451 0.63961 0.40353 0.0
O123 O 0.20183 0.68325 0.57524 0.0
O124 O 0.1028 0.57019 0.58326 0.0
O125 O 0.05545 0.71104 0.58857 0.0
O126 O 0.17364 0.58843 0.58183 0.0
O127 O 0.14922 0.73386 0.58282 0.0
O128 O 0.0355 0.64047 0.58616 0.0
O129 O 0.19735 0.68117 0.39457 0.0
O130 O 0.10078 0.56929 0.40166 0.0
O131 O 0.05072 0.71101 0.40572 0.0
Sc132 Sc 0.38462 0.21241 0.47927 0.0
Sc133 Sc 0.29214 0.14529 0.49724 0.0
Sc134 Sc 0.39672 0.09811 0.48485 0.0
O135 O 0.3579 0.15181 0.48741 0.0
C136 C 0.44542 0.15781 0.36121 0.0
C137 C 0.30214 0.2225 0.37095 0.0
C138 C 0.3165 0.07012 0.37567 0.0
C139 C 0.30832 0.22658 0.60669 0.0
C140 C 0.44862 0.16466 0.59659 0.0
C141 C 0.326 0.06918 0.61049 0.0
O142 O 0.43288 0.19353 0.3927 0.0
O143 O 0.27918 0.1979 0.41511 0.0
O144 O 0.35453 0.06442 0.40349 0.0
O145 O 0.33998 0.24064 0.56519 0.0
O146 O 0.44233 0.12697 0.56617 0.0
O147 O 0.29566 0.0925 0.58174 0.0
O148 O 0.42869 0.19919 0.57516 0.0
O149 O 0.28967 0.19004 0.59474 0.0
O150 O 0.36484 0.06946 0.58443 0.0
O151 O 0.34279 0.22806 0.38172 0.0
O152 O 0.4333 0.12043 0.38496 0.0
O153 O 0.29019 0.09957 0.39991 0.0
Sc154 Sc 0.79942 0.34702 0.48772 0.0
Sc155 Sc 0.8823 0.26598 0.4809 0.0
Sc156 Sc 0.90953 0.37797 0.46984 0.0
O157 O 0.86372 0.33022 0.47918 0.0
C158 C 0.83527 0.41504 0.36 0.0
C159 C 0.79776 0.26533 0.37019 0.0
C160 C 0.94927 0.30339 0.35525 0.0
C161 C 0.80486 0.26663 0.60652 0.0
C162 C 0.8428 0.41967 0.59575 0.0
C163 C 0.95303 0.31255 0.59136 0.0
O164 O 0.80448 0.39667 0.39787 0.0
O165 O 0.83294 0.24825 0.39543 0.0
O166 O 0.9468 0.34255 0.38129 0.0
O167 O 0.78595 0.30014 0.57884 0.0
O168 O 0.8788 0.41924 0.55822 0.0
O169 O 0.93347 0.27844 0.56592 0.0
O170 O 0.81128 0.3941 0.58022 0.0
O171 O 0.84008 0.25102 0.57852 0.0
O172 O 0.94697 0.35064 0.56381 0.0
O173 O 0.78178 0.30102 0.39656 0.0
O174 O 0.87539 0.40987 0.37602 0.0
O175 O 0.92757 0.272 0.38432 0.0
C176 C 0.51889 0.14153 0.3045 0.0
C177 C 0.47664 0.15957 0.29482 0.0
C178 C 0.49424 0.17879 0.15816 0.0
C179 C 0.53427 0.15588 0.16522 0.0
N180 N 0.58328 0.11107 0.2416 0.0
N181 N 0.42147 0.19082 0.21094 0.0
C182 C 0.54626 0.13604 0.23748 0.0
C183 C 0.46364 0.1774 0.22142 0.0
N184 N 0.53334 0.13095 0.37823 0.0
N185 N 0.48547 0.20165 0.09097 0.0
H186 H 0.398 0.19001 0.25568 0.0
H187 H 0.40868 0.19951 0.15643 0.0
H188 H 0.50675 0.20239 0.04277 0.0
H189 H 0.45886 0.2226 0.08524 0.0
H190 H 0.56544 0.12205 0.39017 0.0
H191 H 0.51432 0.13504 0.42898 0.0
H192 H 0.59094 0.09157 0.28979 0.0
H193 H 0.60511 0.10736 0.19463 0.0
C194 C 0.80948 0.45824 0.15624 0.0
C195 C 0.81571 0.50371 0.1693 0.0
C196 C 0.82882 0.49148 0.30922 0.0
C197 C 0.82407 0.44575 0.29631 0.0
N198 N 0.79774 0.38666 0.21411 0.0
N199 N 0.81264 0.56411 0.2608 0.0
C200 C 0.81037 0.4294 0.22177 0.0
C201 C 0.81966 0.52056 0.24675 0.0
N202 N 0.80349 0.44273 0.08127 0.0
N203 N 0.84299 0.50714 0.38039 0.0
H204 H 0.80391 0.58563 0.21594 0.0
H205 H 0.81082 0.57772 0.31731 0.0
H206 H 0.84919 0.48693 0.42839 0.0
H207 H 0.85139 0.53985 0.38998 0.0
H208 H 0.80434 0.4096 0.06614 0.0
H209 H 0.79898 0.46351 0.03343 0.0
H210 H 0.78405 0.37354 0.16303 0.0
H211 H 0.79719 0.36518 0.26157 0.0
C212 C 0.45689 0.83351 0.325 0.0
C213 C 0.49996 0.81793 0.31154 0.0
C214 C 0.48366 0.80794 0.17114 0.0
C215 C 0.44285 0.8289 0.1832 0.0
N216 N 0.39259 0.8673 0.26932 0.0
N217 N 0.55723 0.79885 0.21931 0.0
C218 C 0.42989 0.84317 0.25959 0.0
C219 C 0.51409 0.80686 0.23405 0.0
N220 N 0.44178 0.83877 0.40049 0.0
N221 N 0.49368 0.78976 0.09935 0.0
H222 H 0.58089 0.79998 0.26322 0.0
H223 H 0.57021 0.79537 0.1627 0.0
H224 H 0.47276 0.79117 0.05105 0.0
H225 H 0.52114 0.77026 0.08966 0.0
H226 H 0.40933 0.84568 0.41425 0.0
H227 H 0.46094 0.83235 0.44975 0.0
H228 H 0.38395 0.88266 0.32221 0.0
H229 H 0.3718 0.87495 0.22286 0.0
C230 C 0.12898 0.52076 0.16396 0.0
C231 C 0.1472 0.47842 0.17386 0.0
C232 C 0.16695 0.49654 0.3101 0.0
C233 C 0.14435 0.53688 0.30296 0.0
N234 N 0.10163 0.5873 0.22562 0.0
N235 N 0.17812 0.42314 0.2581 0.0
C236 C 0.12469 0.54898 0.23053 0.0
C237 C 0.16505 0.46557 0.24725 0.0
N238 N 0.11725 0.53449 0.09034 0.0
N239 N 0.19033 0.48787 0.37673 0.0
H240 H 0.17696 0.39934 0.21366 0.0
H241 H 0.18664 0.41044 0.31277 0.0
H242 H 0.1919 0.50943 0.42461 0.0
H243 H 0.21113 0.46108 0.38207 0.0
H244 H 0.10834 0.56658 0.07753 0.0
H245 H 0.11979 0.51464 0.04016 0.0
H246 H 0.08195 0.59532 0.17793 0.0
H247 H 0.10021 0.6104 0.27123 0.0
C248 C 0.46321 0.81155 0.67454 0.0
C249 C 0.50692 0.82616 0.6824 0.0
C250 C 0.49443 0.8416 0.82286 0.0
C251 C 0.44941 0.83264 0.81226 0.0
N252 N 0.38935 0.81482 0.72584 0.0
N253 N 0.56438 0.85715 0.7621 0.0
C254 C 0.43333 0.81872 0.7377 0.0
C255 C 0.52261 0.84176 0.75613 0.0
N256 N 0.45022 0.79077 0.60688 0.0
N257 N 0.51045 0.84847 0.89717 0.0
H258 H 0.58685 0.85502 0.71591 0.0
H259 H 0.57608 0.87412 0.81117 0.0
H260 H 0.4908 0.84809 0.94758 0.0
H261 H 0.54359 0.85067 0.90988 0.0
H262 H 0.42004 0.77545 0.60083 0.0
H263 H 0.47104 0.78535 0.559 0.0
H264 H 0.37547 0.80996 0.67048 0.0
H265 H 0.3662 0.82021 0.77012 0.0
C266 C 0.16022 0.52372 0.81653 0.0
C267 C 0.15574 0.47809 0.80332 0.0
C268 C 0.14815 0.49054 0.66128 0.0
C269 C 0.14839 0.53641 0.67565 0.0
N270 N 0.14285 0.59613 0.76898 0.0
N271 N 0.13777 0.41805 0.71586 0.0
C272 C 0.15148 0.55298 0.75383 0.0
C273 C 0.14775 0.46139 0.72633 0.0
N274 N 0.17253 0.53911 0.88902 0.0
N275 N 0.14832 0.47489 0.58551 0.0
H276 H 0.13721 0.3957 0.76213 0.0
H277 H 0.12685 0.4049 0.66262 0.0
H278 H 0.14693 0.49536 0.5366 0.0
H279 H 0.15297 0.44197 0.57107 0.0
H280 H 0.18025 0.57186 0.8999 0.0
H281 H 0.17882 0.51844 0.93642 0.0
H282 H 0.14038 0.60922 0.82578 0.0
H283 H 0.13386 0.61791 0.72482 0.0
C284 C 0.462 0.15182 0.73947 0.0
C285 C 0.47763 0.16697 0.66559 0.0
C286 C 0.55134 0.17462 0.71937 0.0
C287 C 0.53516 0.16121 0.79403 0.0
N288 N 0.47404 0.1471 0.88026 0.0
N289 N 0.5346 0.19951 0.58704 0.0
C290 C 0.49009 0.15295 0.80562 0.0
C291 C 0.5215 0.18084 0.6563 0.0
N292 N 0.42079 0.13488 0.74582 0.0
N293 N 0.59532 0.17895 0.70759 0.0
H294 H 0.51382 0.20323 0.53894 0.0
H295 H 0.56495 0.21423 0.57915 0.0
H296 H 0.61816 0.17473 0.75235 0.0
H297 H 0.60954 0.18364 0.65239 0.0
H298 H 0.40944 0.11862 0.79568 0.0
H299 H 0.39872 0.13421 0.69917 0.0
H300 H 0.44084 0.14555 0.89337 0.0
H301 H 0.49375 0.14797 0.9303 0.0
C302 C 0.82471 0.52188 0.72063 0.0
C303 C 0.83364 0.5058 0.7972 0.0
C304 C 0.85363 0.43446 0.73965 0.0
C305 C 0.83888 0.44905 0.66509 0.0
N306 N 0.80357 0.50419 0.58668 0.0
N307 N 0.85275 0.44521 0.88133 0.0
C308 C 0.82218 0.492 0.65624 0.0
C309 C 0.84708 0.46159 0.80724 0.0
N310 N 0.8218 0.56598 0.70834 0.0
N311 N 0.87505 0.39528 0.7455 0.0
H312 H 0.84958 0.46431 0.93221 0.0
H313 H 0.85743 0.41203 0.89269 0.0
H314 H 0.88022 0.37438 0.69734 0.0
H315 H 0.89077 0.38503 0.79652 0.0
H316 H 0.81964 0.57972 0.65238 0.0
H317 H 0.82646 0.589 0.75334 0.0
H318 H 0.78732 0.5339 0.57954 0.0
H319 H 0.80084 0.48287 0.53855 0.0
C320 C -0.00499 0.6777 0.82722 0.0
C321 C 0.94948 0.67375 0.81407 0.0
C322 C 0.96003 0.68916 0.67388 0.0
C323 C 0.00557 0.68561 0.68478 0.0
N324 N 0.06786 0.6797 0.77006 0.0
N325 N 0.88791 0.67353 0.72538 0.0
C326 C 0.02356 0.68141 0.76125 0.0
C327 C 0.93162 0.67953 0.73768 0.0
N328 N 0.01058 0.67841 0.90275 0.0
N329 N 0.94425 0.70249 0.60271 0.0
H330 H 0.86584 0.66664 0.77063 0.0
H331 H 0.87385 0.67228 0.66958 0.0
H332 H 0.96488 0.71133 0.55633 0.0
H333 H 0.91147 0.70927 0.59237 0.0
H334 H 0.04288 0.68502 0.91727 0.0
H335 H 0.99033 0.67546 0.95208 0.0
H336 H 0.08335 0.67192 0.82263 0.0
H337 H 0.08948 0.68494 0.72332 0.0
C338 C 0.32555 -0.00644 0.66563 0.0
C339 C 0.31592 0.03876 0.67576 0.0
C340 C 0.29302 0.02501 0.8122 0.0
C341 C 0.30933 0.98167 0.80535 0.0
N342 N 0.34508 0.92525 0.72799 0.0
N343 N 0.29531 0.09904 0.76146 0.0
C344 C 0.32655 0.966 0.73261 0.0
C345 C 0.3004 0.05495 0.74956 0.0
N346 N 0.33267 0.97678 0.59163 0.0
N347 N 0.27068 0.03754 0.87856 0.0
H348 H 0.30103 0.12216 0.71765 0.0
H349 H 0.28895 0.11305 0.81656 0.0
H350 H 0.26476 0.01624 0.92526 0.0
H351 H 0.2546 0.0675 0.8841 0.0
H352 H 0.33546 0.94334 0.57975 0.0
H353 H 0.3314 -0.0041 0.5409 0.0
H354 H 0.36276 0.91415 0.67914 0.0
H355 H 0.34542 0.90347 0.77514 0.0
C356 C 0.96532 0.29903 0.73517 0.0
C357 C 0.98278 0.30864 0.65937 0.0
C358 C 0.05627 0.31326 0.71519 0.0
C359 C 0.03806 0.30973 0.79163 0.0
N360 N 0.97532 0.3033 0.87692 0.0
N361 N 0.04368 0.33319 0.57975 0.0
C362 C -0.0074 0.30328 0.80239 0.0
C363 C 0.02799 0.3178 0.64985 0.0
N364 N 0.92251 0.28709 0.74329 0.0
N365 N 0.10058 0.31292 0.70516 0.0
H366 H 0.0239 0.33875 0.53118 0.0
H367 H 0.07539 0.34475 0.57214 0.0
H368 H 0.12232 0.31054 0.75214 0.0
H369 H 0.11568 0.31103 0.65004 0.0
H370 H 0.90929 0.27498 0.79546 0.0
H371 H 0.90043 0.28677 0.69672 0.0
H372 H 0.94198 0.30415 0.88891 0.0
H373 H -0.00544 0.30539 0.92738 0.0
C374 C 0.68598 0.96307 0.80115 0.0
C375 C 0.67791 0.00822 0.78987 0.0
C376 C 0.67123 -0.00412 0.64777 0.0
C377 C 0.67271 0.95001 0.66068 0.0
N378 N 0.67141 0.89002 0.7527 0.0
N379 N 0.65653 0.06744 0.70463 0.0
C380 C 0.67802 0.93345 0.73807 0.0
C381 C 0.66921 0.02479 0.71362 0.0
N382 N 0.70025 0.94844 0.87252 0.0
N383 N 0.67132 0.01172 0.57258 0.0
H384 H 0.65409 0.08951 0.75176 0.0
H385 H 0.64514 0.08006 0.65162 0.0
H386 H 0.67173 0.99125 0.52309 0.0
H387 H 0.67472 0.04486 0.55948 0.0
H388 H 0.71018 0.91622 0.88188 0.0
H389 H 0.70608 0.96953 0.92011 0.0
H390 H 0.67019 0.87704 0.80937 0.0
H391 H 0.66266 0.86773 0.7087 0.0
C392 C 0.05384 0.31168 0.24028 0.0
C393 C 0.03944 0.30022 0.16361 0.0
C394 C 0.96782 0.27953 0.21559 0.0
C395 C 0.98137 0.29399 0.29146 0.0
N396 N 0.0411 0.30437 0.38058 0.0
N397 N 0.98905 0.26105 0.08087 0.0
C398 C 0.02572 0.30414 0.30522 0.0
C399 C -0.00166 0.28007 0.15208 0.0
N400 N 0.09373 0.33089 0.25076 0.0
N401 N 0.92575 0.26653 0.20389 0.0
H402 H 0.01175 0.25992 0.03484 0.0
H403 H 0.96095 0.24293 0.06968 0.0
H404 H 0.90389 0.26219 0.25027 0.0
H405 H 0.91225 0.2609 0.14849 0.0
H406 H 0.10373 0.34445 0.30431 0.0
H407 H 0.11593 0.33547 0.20468 0.0
H408 H 0.07389 0.30854 0.39481 0.0
H409 H 0.02149 0.29435 0.42754 0.0
C410 C 0.64597 0.93004 0.21537 0.0
C411 C 0.66302 0.94353 0.28929 0.0
C412 C 0.68366 0.01455 0.23481 0.0
C413 C 0.66761 0.00075 0.16017 0.0
N414 N 0.64319 0.94234 0.07435 0.0
N415 N 0.70848 -0.00715 0.36428 0.0
C416 C 0.65168 0.95749 0.14889 0.0
C417 C 0.68542 0.9839 0.29727 0.0
N418 N 0.62377 0.89131 0.2091 0.0
N419 N 0.69461 0.05748 0.24763 0.0
H420 H 0.71096 0.97067 0.41054 0.0
H421 H 0.72869 0.0201 0.37052 0.0
H422 H 0.69306 0.08135 0.20404 0.0
H423 H 0.70158 0.07032 0.30329 0.0
H424 H 0.6058 0.88223 0.15959 0.0
H425 H 0.62144 0.86905 0.25536 0.0
H426 H 0.63561 0.90982 0.0614 0.0
H427 H 0.64764 0.96144 0.02415 0.0
C428 C 0.92968 0.65488 0.25856 0.0
C429 C 0.93987 0.67484 0.18558 0.0
C430 C 0.00774 0.70403 0.24144 0.0
C431 C -0.00314 0.68452 0.31501 0.0
N432 N 0.94099 0.65442 0.39945 0.0
N433 N 0.98314 0.72625 0.11156 0.0
C434 C 0.95561 0.66427 0.32535 0.0
C435 C 0.97695 0.70239 0.17861 0.0
N436 N 0.89635 0.62534 0.26358 0.0
N437 N 0.04827 0.7215 0.22957 0.0
H438 H 0.96192 0.72471 0.06367 0.0
H439 H 0.00716 0.75018 0.10593 0.0
H440 H 0.07163 0.72401 0.2737 0.0
H441 H 0.0599 0.73101 0.17447 0.0
H442 H 0.89109 0.60579 0.31286 0.0
H443 H 0.87618 0.6178 0.21613 0.0
H444 H 0.90935 0.64365 0.41116 0.0
H445 H 0.95898 0.66144 0.45004 0.0
C446 C 0.30954 0.03016 0.16453 0.0
C447 C 0.3013 0.98506 0.17781 0.0
C448 C 0.28957 -0.0002 0.31853 0.0
C449 C 0.30444 0.04321 0.30681 0.0
N450 N 0.32939 0.1007 0.22077 0.0
N451 N 0.28474 0.92569 0.26635 0.0
C452 C 0.31399 0.05894 0.23016 0.0
C453 C 0.2909 0.96955 0.25438 0.0
N454 N 0.3128 0.04532 0.089 0.0
N455 N 0.27418 0.98779 0.39105 0.0
H456 H 0.28464 0.90269 0.22051 0.0
H457 H 0.28228 0.91158 0.32193 0.0
H458 H 0.27272 0.00963 0.43871 0.0
H459 H 0.2594 0.95775 0.40233 0.0
H460 H 0.31442 0.07842 0.07476 0.0
H461 H 0.31029 0.0248 0.03974 0.0
H462 H 0.34213 0.11248 0.16799 0.0
H463 H 0.33165 0.12321 0.26723 0.0
C464 C 0.7915 0.25127 0.22543 0.0
C465 C 0.77559 0.24402 0.30295 0.0
C466 C 0.71638 0.19852 0.25047 0.0
C467 C 0.73489 0.20256 0.17395 0.0
N468 N 0.79242 0.22814 0.08835 0.0
N469 N 0.72475 0.2095 0.39171 0.0
C470 C 0.77317 0.22759 0.16135 0.0
C471 C 0.73844 0.2173 0.31622 0.0
N472 N 0.82286 0.28229 0.21273 0.0
N473 N 0.67726 0.17756 0.25972 0.0
H474 H 0.73876 0.22471 0.44072 0.0
H475 H 0.70115 0.1864 0.40645 0.0
H476 H 0.6608 0.16276 0.21287 0.0
H477 H 0.65961 0.17711 0.3123 0.0
H478 H 0.83192 0.29311 0.15688 0.0
H479 H 0.83751 0.29992 0.25843 0.0
H480 H 0.82306 0.24164 0.07756 0.0
H481 H 0.77922 0.21221 0.03926 0.0
C482 C 0.75874 0.69766 0.24515 0.0
C483 C 0.73547 0.69175 0.17355 0.0
C484 C 0.66846 0.71785 0.23788 0.0
C485 C 0.69322 0.73057 0.30507 0.0
N486 N 0.76096 0.72903 0.37704 0.0
N487 N 0.66941 0.69963 0.09836 0.0
C488 C 0.73812 0.71924 0.30997 0.0
C489 C 0.69052 0.70227 0.16918 0.0
N490 N 0.80016 0.68138 0.25168 0.0
N491 N 0.62394 0.71978 0.23974 0.0
H492 H 0.68442 0.68835 0.0467 0.0
H493 H 0.63817 0.71202 0.08921 0.0
H494 H 0.60624 0.73 0.28897 0.0
H495 H 0.60424 0.70686 0.19537 0.0
H496 H 0.81752 0.68023 0.30424 0.0
H497 H 0.81633 0.66576 0.20516 0.0
H498 H 0.79481 0.72758 0.38101 0.0
H499 H 0.74596 0.73971 0.42913 0.0
C500 C 0.20245 0.75757 0.16165 0.0
C501 C 0.24092 0.78244 0.17428 0.0
C502 C 0.23854 0.76545 0.31555 0.0
C503 C 0.20174 0.73832 0.30185 0.0
N504 N 0.15361 0.70143 0.21112 0.0
N505 N 0.29906 0.80629 0.25996 0.0
C506 C 0.18495 0.73245 0.22465 0.0
C507 C 0.25999 0.78529 0.2504 0.0
N508 N 0.18247 0.75828 0.08968 0.0
N509 N 0.2524 0.7729 0.3911 0.0
H510 H 0.31482 0.82264 0.21422 0.0
H511 H 0.31728 0.80534 0.31161 0.0
H512 H 0.23877 0.75727 0.43985 0.0
H513 H 0.27556 0.79641 0.40629 0.0
H514 H 0.15189 0.74462 0.0791 0.0
H515 H 0.19497 0.7755 0.04167 0.0
H516 H 0.1432 0.69217 0.15502 0.0
H517 H 0.14045 0.68219 0.25594 0.0
C518 C 0.24464 0.22451 0.26419 0.0
C519 C 0.28059 0.24463 0.3029 0.0
C520 C 0.27977 0.3016 0.20168 0.0
C521 C 0.23906 0.28583 0.17298 0.0
N522 N 0.17609 0.24026 0.20266 0.0
N523 N 0.32255 0.31161 0.31944 0.0
C524 C 0.21932 0.24971 0.21189 0.0
C525 C 0.29539 0.28602 0.27513 0.0
N526 N 0.2355 0.18104 0.27332 0.0
N527 N 0.30481 0.3296 0.15828 0.0
H528 H 0.33122 0.30403 0.37714 0.0
H529 H 0.3314 0.34321 0.30255 0.0
H530 H 0.2973 0.33845 0.10067 0.0
H531 H 0.336 0.33912 0.17592 0.0
H532 H 0.21083 0.16539 0.24157 0.0
H533 H 0.25606 0.15958 0.30288 0.0
H534 H 0.16065 0.21548 0.23443 0.0
H535 H 0.15466 0.2608 0.17299 0.0
C536 C 0.21617 0.7163 0.74306 0.0
C537 C 0.20832 0.73947 0.67189 0.0
C538 C 0.2428 0.80501 0.7292 0.0
C539 C 0.246 0.78307 0.80246 0.0
N540 N 0.22835 0.721 0.88382 0.0
N541 N 0.21196 0.80693 0.59794 0.0
C542 C 0.23076 0.73956 0.81064 0.0
C543 C 0.22078 0.78426 0.66535 0.0
N544 N 0.21038 0.67196 0.7465 0.0
N545 N 0.26262 0.8448 0.71956 0.0
H546 H 0.19958 0.79229 0.54703 0.0
H547 H 0.21494 0.84082 0.59353 0.0
H548 H 0.27879 0.86111 0.76507 0.0
H549 H 0.26613 0.86018 0.66527 0.0
H550 H 0.22096 0.65302 0.79363 0.0
H551 H 0.19862 0.65316 0.69995 0.0
H552 H 0.21251 0.69144 0.89478 0.0
H553 H 0.23839 0.73705 0.93516 0.0
C554 C 0.26457 0.28947 0.66005 0.0
C555 C 0.29272 0.25344 0.67363 0.0
C556 C 0.27986 0.25894 0.81594 0.0
C557 C 0.2513 0.2946 0.8023 0.0
N558 N 0.2243 0.3508 0.71629 0.0
N559 N 0.33586 0.21062 0.76299 0.0
C560 C 0.2463 0.31223 0.72574 0.0
C561 C 0.30313 0.24031 0.75135 0.0
N562 N 0.25381 0.30056 0.58453 0.0
N563 N 0.2837 0.24221 0.89025 0.0
H564 H 0.35377 0.19709 0.71638 0.0
H565 H 0.34785 0.20232 0.81827 0.0
H566 H 0.26877 0.25652 0.93958 0.0
H567 H 0.29983 0.21304 0.90267 0.0
H568 H 0.22953 0.32307 0.57072 0.0
H569 H 0.26747 0.28525 0.53499 0.0
H570 H 0.2225 0.36748 0.66303 0.0
H571 H 0.21106 0.36826 0.76379 0.0
C572 C 0.76816 0.20154 0.66641 0.0
C573 C 0.7848 0.24467 0.67508 0.0
C574 C 0.75875 0.24782 0.81211 0.0
C575 C 0.74325 0.20412 0.80419 0.0
N576 N 0.73916 0.13664 0.72873 0.0
N577 N 0.80334 0.30626 0.75825 0.0
C578 C 0.74997 0.18009 0.73293 0.0
C579 C 0.78205 0.26719 0.74853 0.0
N580 N 0.76787 0.18184 0.59359 0.0
N581 N 0.75122 0.27076 0.88052 0.0
H582 H 0.82072 0.32131 0.71292 0.0
H583 H 0.80688 0.32223 0.81233 0.0
H584 H 0.73757 0.25669 0.9308 0.0
H585 H 0.75661 0.30429 0.88669 0.0
H586 H 0.75098 0.15306 0.5809 0.0
H587 H 0.78198 0.19582 0.54371 0.0
H588 H 0.74826 0.11603 0.68226 0.0
H589 H 0.72357 0.12001 0.77416 0.0
C590 C 0.72245 0.76735 0.73176 0.0
C591 C 0.7047 0.74321 0.66747 0.0
C592 C 0.72831 0.67486 0.73066 0.0
C593 C 0.74078 0.69925 0.79903 0.0
N594 N 0.73548 0.76742 0.87186 0.0
N595 N 0.68882 0.6731 0.60691 0.0
C596 C 0.73362 0.7451 0.80167 0.0
C597 C 0.70662 0.69663 0.66774 0.0
N598 N 0.73009 0.81129 0.7264 0.0
N599 N 0.73915 0.63156 0.72336 0.0
H600 H 0.67749 0.68744 0.55522 0.0
H601 H 0.68362 0.63938 0.60904 0.0
H602 H 0.75452 0.61389 0.76737 0.0
H603 H 0.73594 0.61372 0.6711 0.0
H604 H 0.74701 0.82881 0.7696 0.0
H605 H 0.72422 0.82947 0.67601 0.0
H606 H 0.72652 0.80028 0.87755 0.0
H607 H 0.7405 0.7519 0.92574 0.0
loop_
_geom_bond_atom_site_label_1
_geom_bond_atom_site_label_2
_geom_bond_distance
_geom_bond_site_symmetry_2
_ccdc_geom_bond_type
Sc0 O3 2.025 . S
Sc0 O10 2.105 1_554 S
Sc0 O13 2.105 . S
Sc0 O16 2.105 . S
Sc0 O19 2.105 1_554 S
Sc1 O3 2.025 . S
Sc1 O11 2.105 1_554 S
Sc1 O15 2.105 . S
Sc1 O17 2.105 . S
Sc1 O21 2.105 1_554 S
Sc2 O3 2.025 . S
Sc2 O12 2.105 1_554 S
Sc2 O14 2.105 . S
Sc2 O18 2.105 . S
Sc2 O20 2.105 1_554 S
O3 Sc0 2.025 . S
O3 Sc1 2.025 . S
O3 Sc2 2.025 . S
C4 O10 1.268 . S
C4 O20 1.268 . S
C5 O11 1.268 . S
C5 O19 1.268 . S
C6 O12 1.268 . S
C6 O21 1.268 . S
C7 O13 1.268 . S
C7 O17 1.268 . S
C8 O14 1.268 . S
C8 O16 1.268 . S
C9 O15 1.268 . S
C9 O18 1.268 . S
O10 Sc0 2.105 1_556 S
O10 C4 1.268 . S
O11 Sc1 2.105 1_556 S
O11 C5 1.268 . S
O12 Sc2 2.105 1_556 S
O12 C6 1.268 . S
O13 Sc0 2.105 . S
O13 C7 1.268 . S
O14 Sc2 2.105 . S
O14 C8 1.268 . S
O15 Sc1 2.105 . S
O15 C9 1.268 . S
O16 Sc0 2.105 . S
O16 C8 1.268 . S
O17 Sc1 2.105 . S
O17 C7 1.268 . S
O18 Sc2 2.105 . S
O18 C9 1.268 . S
O19 Sc0 2.105 1_556 S
O19 C5 1.268 . S
O20 Sc2 2.105 1_556 S
O20 C4 1.268 . S
O21 Sc1 2.105 1_556 S
O21 C6 1.268 . S
Sc22 O25 2.025 . S
Sc22 O32 2.105 1_554 S
Sc22 O35 2.105 . S
Sc22 O38 2.105 . S
Sc22 O41 2.105 1_554 S
Sc23 O25 2.025 . S
Sc23 O33 2.105 1_554 S
Sc23 O37 2.105 . S
Sc23 O39 2.105 . S
Sc23 O43 2.105 1_554 S
Sc24 O25 2.025 . S
Sc24 O34 2.105 1_554 S
Sc24 O36 2.105 . S
Sc24 O40 2.105 . S
Sc24 O42 2.105 1_554 S
O25 Sc22 2.025 . S
O25 Sc23 2.025 . S
O25 Sc24 2.025 . S
C26 O32 1.268 . S
C26 O42 1.268 . S
C27 O33 1.268 . S
C27 O41 1.268 . S
C28 O34 1.268 . S
C28 O43 1.268 . S
C29 O35 1.268 . S
C29 O39 1.268 . S
C30 O36 1.268 . S
C30 O38 1.268 . S
C31 O37 1.268 . S
C31 O40 1.268 . S
O32 Sc22 2.105 1_556 S
O32 C26 1.268 . S
O33 Sc23 2.105 1_556 S
O33 C27 1.268 . S
O34 Sc24 2.105 1_556 S
O34 C28 1.268 . S
O35 Sc22 2.105 . S
O35 C29 1.268 . S
O36 Sc24 2.105 . S
O36 C30 1.268 . S
O37 Sc23 2.105 . S
O37 C31 1.268 . S
O38 Sc22 2.105 . S
O38 C30 1.268 . S
O39 Sc23 2.105 . S
O39 C29 1.268 . S
O40 Sc24 2.105 . S
O40 C31 1.268 . S
O41 Sc22 2.105 1_556 S
O41 C27 1.268 . S
O42 Sc24 2.105 1_556 S
O42 C26 1.268 . S
O43 Sc23 2.105 1_556 S
O43 C28 1.268 . S
Sc44 O47 2.025 . S
Sc44 O54 2.105 1_554 S
Sc44 O57 2.105 . S
Sc44 O60 2.105 . S
Sc44 O63 2.105 1_554 S
Sc45 O47 2.025 . S
Sc45 O55 2.105 1_554 S
Sc45 O59 2.105 . S
Sc45 O61 2.105 . S
Sc45 O65 2.105 1_554 S
Sc46 O47 2.025 . S
Sc46 O56 2.105 1_554 S
Sc46 O58 2.105 . S
Sc46 O62 2.105 . S
Sc46 O64 2.105 1_554 S
O47 Sc44 2.025 . S
O47 Sc45 2.025 . S
O47 Sc46 2.025 . S
C48 O54 1.268 . S
C48 O64 1.268 . S
C49 O55 1.268 . S
C49 O63 1.268 . S
C50 O56 1.268 . S
C50 O65 1.268 . S
C51 O57 1.268 . S
C51 O61 1.268 . S
C52 O58 1.268 . S
C52 O60 1.268 . S
C53 O59 1.268 . S
C53 O62 1.268 . S
O54 Sc44 2.105 1_556 S
O54 C48 1.268 . S
O55 Sc45 2.105 1_556 S
O55 C49 1.268 . S
O56 Sc46 2.105 1_556 S
O56 C50 1.268 . S
O57 Sc44 2.105 . S
O57 C51 1.268 . S
O58 Sc46 2.105 . S
O58 C52 1.268 . S
O59 Sc45 2.105 . S
O59 C53 1.268 . S
O60 Sc44 2.105 . S
O60 C52 1.268 . S
O61 Sc45 2.105 . S
O61 C51 1.268 . S
O62 Sc46 2.105 . S
O62 C53 1.268 . S
O63 Sc44 2.105 1_556 S
O63 C49 1.268 . S
O64 Sc46 2.105 1_556 S
O64 C48 1.268 . S
O65 Sc45 2.105 1_556 S
O65 C50 1.268 . S
Sc66 O69 2.025 . S
Sc66 O76 2.105 1_554 S
Sc66 O79 2.105 . S
Sc66 O82 2.105 . S
Sc66 O85 2.105 1_554 S
Sc67 O69 2.025 . S
Sc67 O77 2.105 1_554 S
Sc67 O81 2.105 . S
Sc67 O83 2.105 . S
Sc67 O87 2.105 1_554 S
Sc68 O69 2.025 . S
Sc68 O78 2.105 1_554 S
Sc68 O80 2.105 . S
Sc68 O84 2.105 . S
Sc68 O86 2.105 1_554 S
O69 Sc66 2.025 . S
O69 Sc67 2.025 . S
O69 Sc68 2.025 . S
C70 O76 1.268 . S
C70 O86 1.268 . S
C71 O77 1.268 . S
C71 O85 1.268 . S
C72 O78 1.268 . S
C72 O87 1.268 . S
C73 O79 1.268 . S
C73 O83 1.268 . S
C74 O80 1.268 . S
C74 O82 1.268 . S
C75 O81 1.268 . S
C75 O84 1.268 . S
O76 Sc66 2.105 1_556 S
O76 C70 1.268 . S
O77 Sc67 2.105 1_556 S
O77 C71 1.268 . S
O78 Sc68 2.105 1_556 S
O78 C72 1.268 . S
O79 Sc66 2.105 . S
O79 C73 1.268 . S
O80 Sc68 2.105 . S
O80 C74 1.268 . S
O81 Sc67 2.105 . S
O81 C75 1.268 . S
O82 Sc66 2.105 . S
O82 C74 1.268 . S
O83 Sc67 2.105 . S
O83 C73 1.268 . S
O84 Sc68 2.105 . S
O84 C75 1.268 . S
O85 Sc66 2.105 1_556 S
O85 C71 1.268 . S
O86 Sc68 2.105 1_556 S
O86 C70 1.268 . S
O87 Sc67 2.105 1_556 S
O87 C72 1.268 . S
Sc88 O91 2.025 . S
Sc88 O98 2.105 . S
Sc88 O101 2.105 . S
Sc88 O104 2.105 . S
Sc88 O107 2.105 . S
Sc89 O91 2.025 . S
Sc89 O99 2.105 . S
Sc89 O103 2.105 . S
Sc89 O105 2.105 . S
Sc89 O109 2.105 . S
Sc90 O91 2.025 . S
Sc90 O100 2.105 . S
Sc90 O102 2.105 . S
Sc90 O106 2.105 . S
Sc90 O108 2.105 . S
O91 Sc88 2.025 . S
O91 Sc89 2.025 . S
O91 Sc90 2.025 . S
C92 O98 1.268 . S
C92 O108 1.268 . S
C93 O99 1.268 . S
C93 O107 1.268 . S
C94 O100 1.268 . S
C94 O109 1.268 . S
C95 O101 1.268 . S
C95 O105 1.268 . S
C96 O102 1.268 . S
C96 O104 1.268 . S
C97 O103 1.268 . S
C97 O106 1.268 . S
O98 Sc88 2.105 . S
O98 C92 1.268 . S
O99 Sc89 2.105 . S
O99 C93 1.268 . S
O100 Sc90 2.105 . S
O100 C94 1.268 . S
O101 Sc88 2.105 . S
O101 C95 1.268 . S
O102 Sc90 2.105 . S
O102 C96 1.268 . S
O103 Sc89 2.105 . S
O103 C97 1.268 . S
O104 Sc88 2.105 . S
O104 C96 1.268 . S
O105 Sc89 2.105 . S
O105 C95 1.268 . S
O106 Sc90 2.105 . S
O106 C97 1.268 . S
O107 Sc88 2.105 . S
O107 C93 1.268 . S
O108 Sc90 2.105 . S
O108 C92 1.268 . S
O109 Sc89 2.105 . S
O109 C94 1.268 . S
Sc110 O113 2.025 . S
Sc110 O120 2.105 . S
Sc110 O123 2.105 . S
Sc110 O126 2.105 . S
Sc110 O129 2.105 . S
Sc111 O113 2.025 . S
Sc111 O121 2.105 . S
Sc111 O125 2.105 . S
Sc111 O127 2.105 . S
Sc111 O131 2.105 . S
Sc112 O113 2.025 . S
Sc112 O122 2.105 . S
Sc112 O124 2.105 . S
Sc112 O128 2.105 . S
Sc112 O130 2.105 . S
O113 Sc110 2.025 . S
O113 Sc111 2.025 . S
O113 Sc112 2.025 . S
C114 O120 1.268 . S
C114 O130 1.268 . S
C115 O121 1.268 . S
C115 O129 1.268 . S
C116 O122 1.268 . S
C116 O131 1.268 . S
C117 O123 1.268 . S
C117 O127 1.268 . S
C118 O124 1.268 . S
C118 O126 1.268 . S
C119 O125 1.268 . S
C119 O128 1.268 . S
O120 Sc110 2.105 . S
O120 C114 1.268 . S
O121 Sc111 2.105 . S
O121 C115 1.268 . S
O122 Sc112 2.105 . S
O122 C116 1.268 . S
O123 Sc110 2.105 . S
O123 C117 1.268 . S
O124 Sc112 2.105 . S
O124 C118 1.268 . S
O125 Sc111 2.105 . S
O125 C119 1.268 . S
O126 Sc110 2.105 . S
O126 C118 1.268 . S
O127 Sc111 2.105 . S
O127 C117 1.268 . S
O128 Sc112 2.105 . S
O128 C119 1.268 . S
O129 Sc110 2.105 . S
O129 C115 1.268 . S
O130 Sc112 2.105 . S
O130 C114 1.268 . S
O131 Sc111 2.105 . S
O131 C116 1.268 . S
Sc132 O135 2.025 . S
Sc132 O142 2.105 . S
Sc132 O145 2.105 . S
Sc132 O148 2.105 . S
Sc132 O151 2.105 . S
Sc133 O135 2.025 . S
Sc133 O143 2.105 . S
Sc133 O147 2.105 . S
Sc133 O149 2.105 . S
Sc133 O153 2.105 . S
Sc134 O135 2.025 . S
Sc134 O144 2.105 . S
Sc134 O146 2.105 . S
Sc134 O150 2.105 . S
Sc134 O152 2.105 . S
O135 Sc132 2.025 . S
O135 Sc133 2.025 . S
O135 Sc134 2.025 . S
C136 O142 1.268 . S
C136 O152 1.268 . S
C137 O143 1.268 . S
C137 O151 1.268 . S
C138 O144 1.268 . S
C138 O153 1.268 . S
C139 O145 1.268 . S
C139 O149 1.268 . S
C140 O146 1.268 . S
C140 O148 1.268 . S
C141 O147 1.268 . S
C141 O150 1.268 . S
O142 Sc132 2.105 . S
O142 C136 1.268 . S
O143 Sc133 2.105 . S
O143 C137 1.268 . S
O144 Sc134 2.105 . S
O144 C138 1.268 . S
O145 Sc132 2.105 . S
O145 C139 1.268 . S
O146 Sc134 2.105 . S
O146 C140 1.268 . S
O147 Sc133 2.105 . S
O147 C141 1.268 . S
O148 Sc132 2.105 . S
O148 C140 1.268 . S
O149 Sc133 2.105 . S
O149 C139 1.268 . S
O150 Sc134 2.105 . S
O150 C141 1.268 . S
O151 Sc132 2.105 . S
O151 C137 1.268 . S
O152 Sc134 2.105 . S
O152 C136 1.268 . S
O153 Sc133 2.105 . S
O153 C138 1.268 . S
Sc154 O157 2.025 . S
Sc154 O164 2.105 . S
Sc154 O167 2.105 . S
Sc154 O170 2.105 . S
Sc154 O173 2.105 . S
Sc155 O157 2.025 . S
Sc155 O165 2.105 . S
Sc155 O169 2.105 . S
Sc155 O171 2.105 . S
Sc155 O175 2.105 . S
Sc156 O157 2.025 . S
Sc156 O166 2.105 . S
Sc156 O168 2.105 . S
Sc156 O172 2.105 . S
Sc156 O174 2.105 . S
O157 Sc154 2.025 . S
O157 Sc155 2.025 . S
O157 Sc156 2.025 . S
C158 O164 1.268 . S
C158 O174 1.268 . S
C159 O165 1.268 . S
C159 O173 1.268 . S
C160 O166 1.268 . S
C160 O175 1.268 . S
C161 O167 1.268 . S
C161 O171 1.268 . S
C162 O168 1.268 . S
C162 O170 1.268 . S
C163 O169 1.268 . S
C163 O172 1.268 . S
O164 Sc154 2.105 . S
O164 C158 1.268 . S
O165 Sc155 2.105 . S
O165 C159 1.268 . S
O166 Sc156 2.105 . S
O166 C160 1.268 . S
O167 Sc154 2.105 . S
O167 C161 1.268 . S
O168 Sc156 2.105 . S
O168 C162 1.268 . S
O169 Sc155 2.105 . S
O169 C163 1.268 . S
O170 Sc154 2.105 . S
O170 C162 1.268 . S
O171 Sc155 2.105 . S
O171 C161 1.268 . S
O172 Sc156 2.105 . S
O172 C163 1.268 . S
O173 Sc154 2.105 . S
O173 C159 1.268 . S
O174 Sc156 2.105 . S
O174 C158 1.268 . S
O175 Sc155 2.105 . S
O175 C160 1.268 . S
C176 C177 1.363 . S
C176 C182 1.379 . S
C176 N184 1.356 . S
C177 C176 1.363 . S
C177 C183 1.363 . S
C178 C179 1.363 . S
C178 C183 1.379 . S
C178 N185 1.356 . S
C179 C178 1.363 . S
C179 C182 1.363 . S
N180 C182 1.356 . S
N180 H192 0.984 . S
N180 H193 0.985 . S
N181 C183 1.356 . S
N181 H186 0.984 . S
N181 H187 0.985 . S
C182 C176 1.379 . S
C182 C179 1.363 . S
C182 N180 1.356 . S
C183 C177 1.363 . S
C183 C178 1.379 . S
C183 N181 1.356 . S
N184 C176 1.356 . S
N184 H190 0.984 . S
N184 H191 0.984 . S
N185 C178 1.356 . S
N185 H188 0.984 . S
N185 H189 0.985 . S
H186 N181 0.984 . S
H187 N181 0.985 . S
H188 N185 0.984 . S
H189 N185 0.985 . S
H190 N184 0.984 . S
H191 N184 0.984 . S
H192 N180 0.984 . S
H193 N180 0.985 . S
C194 C195 1.363 . S
C194 C200 1.379 . S
C194 N202 1.356 . S
C195 C194 1.363 . S
C195 C201 1.363 . S
C196 C197 1.363 . S
C196 C201 1.379 . S
C196 N203 1.356 . S
C197 C196 1.363 . S
C197 C200 1.363 . S
N198 C200 1.356 . S
N198 H210 0.984 . S
N198 H211 0.985 . S
N199 C201 1.356 . S
N199 H204 0.984 . S
N199 H205 0.985 . S
C200 C194 1.379 . S
C200 C197 1.363 . S
C200 N198 1.356 . S
C201 C195 1.363 . S
C201 C196 1.379 . S
C201 N199 1.356 . S
N202 C194 1.356 . S
N202 H208 0.984 . S
N202 H209 0.984 . S
N203 C196 1.356 . S
N203 H206 0.984 . S
N203 H207 0.985 . S
H204 N199 0.984 . S
H205 N199 0.985 . S
H206 N203 0.984 . S
H207 N203 0.985 . S
H208 N202 0.984 . S
H209 N202 0.984 . S
H210 N198 0.984 . S
H211 N198 0.985 . S
C212 C213 1.363 . S
C212 C218 1.379 . S
C212 N220 1.356 . S
C213 C212 1.363 . S
C213 C219 1.363 . S
C214 C215 1.363 . S
C214 C219 1.379 . S
C214 N221 1.356 . S
C215 C214 1.363 . S
C215 C218 1.363 . S
N216 C218 1.356 . S
N216 H228 0.984 . S
N216 H229 0.985 . S
N217 C219 1.356 . S
N217 H222 0.984 . S
N217 H223 0.985 . S
C218 C212 1.379 . S
C218 C215 1.363 . S
C218 N216 1.356 . S
C219 C213 1.363 . S
C219 C214 1.379 . S
C219 N217 1.356 . S
N220 C212 1.356 . S
N220 H226 0.984 . S
N220 H227 0.984 . S
N221 C214 1.356 . S
N221 H224 0.984 . S
N221 H225 0.985 . S
H222 N217 0.984 . S
H223 N217 0.985 . S
H224 N221 0.984 . S
H225 N221 0.985 . S
H226 N220 0.984 . S
H227 N220 0.984 . S
H228 N216 0.984 . S
H229 N216 0.985 . S
C230 C231 1.363 . S
C230 C236 1.379 . S
C230 N238 1.356 . S
C231 C230 1.363 . S
C231 C237 1.363 . S
C232 C233 1.363 . S
C232 C237 1.379 . S
C232 N239 1.356 . S
C233 C232 1.363 . S
C233 C236 1.363 . S
N234 C236 1.356 . S
N234 H246 0.984 . S
N234 H247 0.985 . S
N235 C237 1.356 . S
N235 H240 0.984 . S
N235 H241 0.985 . S
C236 C230 1.379 . S
C236 C233 1.363 . S
C236 N234 1.356 . S
C237 C231 1.363 . S
C237 C232 1.379 . S
C237 N235 1.356 . S
N238 C230 1.356 . S
N238 H244 0.984 . S
N238 H245 0.984 . S
N239 C232 1.356 . S
N239 H242 0.984 . S
N239 H243 0.985 . S
H240 N235 0.984 . S
H241 N235 0.985 . S
H242 N239 0.984 . S
H243 N239 0.985 . S
H244 N238 0.984 . S
H245 N238 0.984 . S
H246 N234 0.984 . S
H247 N234 0.985 . S
C248 C249 1.363 . S
C248 C254 1.379 . S
C248 N256 1.356 . S
C249 C248 1.363 . S
C249 C255 1.363 . S
C250 C251 1.363 . S
C250 C255 1.379 . S
C250 N257 1.356 . S
C251 C250 1.363 . S
C251 C254 1.363 . S
N252 C254 1.356 . S
N252 H264 0.984 . S
N252 H265 0.985 . S
N253 C255 1.356 . S
N253 H258 0.984 . S
N253 H259 0.985 . S
C254 C248 1.379 . S
C254 C251 1.363 . S
C254 N252 1.356 . S
C255 C249 1.363 . S
C255 C250 1.379 . S
C255 N253 1.356 . S
N256 C248 1.356 . S
N256 H262 0.984 . S
N256 H263 0.984 . S
N257 C250 1.356 . S
N257 H260 0.984 . S
N257 H261 0.985 . S
H258 N253 0.984 . S
H259 N253 0.985 . S
H260 N257 0.984 . S
H261 N257 0.985 . S
H262 N256 0.984 . S
H263 N256 0.984 . S
H264 N252 0.984 . S
H265 N252 0.985 . S
C266 C267 1.363 . S
C266 C272 1.379 . S
C266 N274 1.356 . S
C267 C266 1.363 . S
C267 C273 1.363 . S
C268 C269 1.363 . S
C268 C273 1.379 . S
C268 N275 1.356 . S
C269 C268 1.363 . S
C269 C272 1.363 . S
N270 C272 1.356 . S
N270 H282 0.984 . S
N270 H283 0.985 . S
N271 C273 1.356 . S
N271 H276 0.984 . S
N271 H277 0.985 . S
C272 C266 1.379 . S
C272 C269 1.363 . S
C272 N270 1.356 . S
C273 C267 1.363 . S
C273 C268 1.379 . S
C273 N271 1.356 . S
N274 C266 1.356 . S
N274 H280 0.984 . S
N274 H281 0.984 . S
N275 C268 1.356 . S
N275 H278 0.984 . S
N275 H279 0.985 . S
H276 N271 0.984 . S
H277 N271 0.985 . S
H278 N275 0.984 . S
H279 N275 0.985 . S
H280 N274 0.984 . S
H281 N274 0.984 . S
H282 N270 0.984 . S
H283 N270 0.985 . S
C284 C285 1.363 . S
C284 C290 1.379 . S
C284 N292 1.356 . S
C285 C284 1.363 . S
C285 C291 1.363 . S
C286 C287 1.363 . S
C286 C291 1.379 . S
C286 N293 1.356 . S
C287 C286 1.363 . S
C287 C290 1.363 . S
N288 C290 1.356 . S
N288 H300 0.984 . S
N288 H301 0.985 . S
N289 C291 1.356 . S
N289 H294 0.984 . S
N289 H295 0.985 . S
C290 C284 1.379 . S
C290 C287 1.363 . S
C290 N288 1.356 . S
C291 C285 1.363 . S
C291 C286 1.379 . S
C291 N289 1.356 . S
N292 C284 1.356 . S
N292 H298 0.984 . S
N292 H299 0.984 . S
N293 C286 1.356 . S
N293 H296 0.984 . S
N293 H297 0.985 . S
H294 N289 0.984 . S
H295 N289 0.985 . S
H296 N293 0.984 . S
H297 N293 0.985 . S
H298 N292 0.984 . S
H299 N292 0.984 . S
H300 N288 0.984 . S
H301 N288 0.985 . S
C302 C303 1.363 . S
C302 C308 1.379 . S
C302 N310 1.356 . S
C303 C302 1.363 . S
C303 C309 1.363 . S
C304 C305 1.363 . S
C304 C309 1.379 . S
C304 N311 1.356 . S
C305 C304 1.363 . S
C305 C308 1.363 . S
N306 C308 1.356 . S
N306 H318 0.984 . S
N306 H319 0.985 . S
N307 C309 1.356 . S
N307 H312 0.984 . S
N307 H313 0.985 . S
C308 C302 1.379 . S
C308 C305 1.363 . S
C308 N306 1.356 . S
C309 C303 1.363 . S
C309 C304 1.379 . S
C309 N307 1.356 . S
N310 C302 1.356 . S
N310 H316 0.984 . S
N310 H317 0.984 . S
N311 C304 1.356 . S
N311 H314 0.984 . S
N311 H315 0.985 . S
H312 N307 0.984 . S
H313 N307 0.985 . S
H314 N311 0.984 . S
H315 N311 0.985 . S
H316 N310 0.984 . S
H317 N310 0.984 . S
H318 N306 0.984 . S
H319 N306 0.985 . S
C320 C321 1.363 . S
C320 C326 1.379 1_655 S
C320 N328 1.356 . S
C321 C320 1.363 . S
C321 C327 1.363 . S
C322 C323 1.363 . S
C322 C327 1.379 1_455 S
C322 N329 1.356 . S
C323 C322 1.363 . S
C323 C326 1.363 . S
N324 C326 1.356 . S
N324 H336 0.984 . S
N324 H337 0.985 . S
N325 C327 1.356 . S
N325 H330 0.984 . S
N325 H331 0.985 . S
C326 C320 1.379 1_455 S
C326 C323 1.363 . S
C326 N324 1.356 . S
C327 C321 1.363 . S
C327 C322 1.379 1_655 S
C327 N325 1.356 . S
N328 C320 1.356 . S
N328 H334 0.984 1_655 S
N328 H335 0.984 . S
N329 C322 1.356 . S
N329 H332 0.984 . S
N329 H333 0.985 1_455 S
H330 N325 0.984 . S
H331 N325 0.985 . S
H332 N329 0.984 . S
H333 N329 0.985 1_655 S
H334 N328 0.984 1_455 S
H335 N328 0.984 . S
H336 N324 0.984 . S
H337 N324 0.985 . S
C338 C339 1.363 1_565 S
C338 C344 1.379 . S
C338 N346 1.356 . S
C339 C338 1.363 1_545 S
C339 C345 1.363 . S
C340 C341 1.363 1_545 S
C340 C345 1.379 . S
C340 N347 1.356 . S
C341 C340 1.363 1_565 S
C341 C344 1.363 . S
N342 C344 1.356 . S
N342 H354 0.984 . S
N342 H355 0.985 . S
N343 C345 1.356 . S
N343 H348 0.984 . S
N343 H349 0.985 . S
C344 C338 1.379 . S
C344 C341 1.363 . S
C344 N342 1.356 . S
C345 C339 1.363 . S
C345 C340 1.379 . S
C345 N343 1.356 . S
N346 C338 1.356 . S
N346 H352 0.984 . S
N346 H353 0.984 1_565 S
N347 C340 1.356 . S
N347 H350 0.984 1_545 S
N347 H351 0.985 . S
H348 N343 0.984 . S
H349 N343 0.985 . S
H350 N347 0.984 1_565 S
H351 N347 0.985 . S
H352 N346 0.984 . S
H353 N346 0.984 1_545 S
H354 N342 0.984 . S
H355 N342 0.985 . S
C356 C357 1.363 . S
C356 C362 1.379 1_655 S
C356 N364 1.356 . S
C357 C356 1.363 . S
C357 C363 1.363 . S
C358 C359 1.363 . S
C358 C363 1.379 1_455 S
C358 N365 1.356 . S
C359 C358 1.363 . S
C359 C362 1.363 . S
N360 C362 1.356 . S
N360 H372 0.984 1_455 S
N360 H373 0.985 . S
N361 C363 1.356 . S
N361 H366 0.984 . S
N361 H367 0.985 1_655 S
C362 C356 1.379 1_455 S
C362 C359 1.363 . S
C362 N360 1.356 . S
C363 C357 1.363 . S
C363 C358 1.379 1_655 S
C363 N361 1.356 . S
N364 C356 1.356 . S
N364 H370 0.984 . S
N364 H371 0.984 . S
N365 C358 1.356 . S
N365 H368 0.984 . S
N365 H369 0.985 . S
H366 N361 0.984 . S
H367 N361 0.985 1_455 S
H368 N365 0.984 . S
H369 N365 0.985 . S
H370 N364 0.984 . S
H371 N364 0.984 . S
H372 N360 0.984 1_655 S
H373 N360 0.985 . S
C374 C375 1.363 1_565 S
C374 C380 1.379 . S
C374 N382 1.356 1_565 S
C375 C374 1.363 1_545 S
C375 C381 1.363 . S
C376 C377 1.363 1_545 S
C376 C381 1.379 . S
C376 N383 1.356 1_545 S
C377 C376 1.363 1_565 S
C377 C380 1.363 . S
N378 C380 1.356 . S
N378 H390 0.984 . S
N378 H391 0.985 . S
N379 C381 1.356 . S
N379 H384 0.984 . S
N379 H385 0.985 . S
C380 C374 1.379 . S
C380 C377 1.363 . S
C380 N378 1.356 . S
C381 C375 1.363 . S
C381 C376 1.379 . S
C381 N379 1.356 . S
N382 C374 1.356 1_545 S
N382 H388 0.984 1_545 S
N382 H389 0.984 . S
N383 C376 1.356 1_565 S
N383 H386 0.984 . S
N383 H387 0.985 1_565 S
H384 N379 0.984 . S
H385 N379 0.985 . S
H386 N383 0.984 . S
H387 N383 0.985 1_545 S
H388 N382 0.984 1_565 S
H389 N382 0.984 . S
H390 N378 0.984 . S
H391 N378 0.985 . S
C392 C393 1.363 . S
C392 C398 1.379 1_455 S
C392 N400 1.356 . S
C393 C392 1.363 . S
C393 C399 1.363 . S
C394 C395 1.363 . S
C394 C399 1.379 1_655 S
C394 N401 1.356 . S
C395 C394 1.363 . S
C395 C398 1.363 . S
N396 C398 1.356 . S
N396 H408 0.984 1_655 S
N396 H409 0.985 . S
N397 C399 1.356 . S
N397 H402 0.984 . S
N397 H403 0.985 1_455 S
C398 C392 1.379 1_655 S
C398 C395 1.363 . S
C398 N396 1.356 . S
C399 C393 1.363 . S
C399 C394 1.379 1_455 S
C399 N397 1.356 . S
N400 C392 1.356 . S
N400 H406 0.984 . S
N400 H407 0.984 . S
N401 C394 1.356 . S
N401 H404 0.984 . S
N401 H405 0.985 . S
H402 N397 0.984 . S
H403 N397 0.985 1_655 S
H404 N401 0.984 . S
H405 N401 0.985 . S
H406 N400 0.984 . S
H407 N400 0.984 . S
H408 N396 0.984 1_455 S
H409 N396 0.985 . S
C410 C411 1.363 . S
C410 C416 1.379 . S
C410 N418 1.356 . S
C411 C410 1.363 . S
C411 C417 1.363 1_565 S
C412 C413 1.363 . S
C412 C417 1.379 . S
C412 N419 1.356 . S
C413 C412 1.363 . S
C413 C416 1.363 1_545 S
N414 C416 1.356 . S
N414 H426 0.984 . S
N414 H427 0.985 1_565 S
N415 C417 1.356 . S
N415 H420 0.984 1_545 S
N415 H421 0.985 . S
C416 C410 1.379 . S
C416 C413 1.363 1_565 S
C416 N414 1.356 . S
C417 C411 1.363 1_545 S
C417 C412 1.379 . S
C417 N415 1.356 . S
N418 C410 1.356 . S
N418 H424 0.984 . S
N418 H425 0.984 . S
N419 C412 1.356 . S
N419 H422 0.984 . S
N419 H423 0.985 . S
H420 N415 0.984 1_565 S
H421 N415 0.985 . S
H422 N419 0.984 . S
H423 N419 0.985 . S
H424 N418 0.984 . S
H425 N418 0.984 . S
H426 N414 0.984 . S
H427 N414 0.985 1_545 S
C428 C429 1.363 . S
C428 C434 1.379 1_655 S
C428 N436 1.356 . S
C429 C428 1.363 . S
C429 C435 1.363 . S
C430 C431 1.363 . S
C430 C435 1.379 1_455 S
C430 N437 1.356 . S
C431 C430 1.363 . S
C431 C434 1.363 . S
N432 C434 1.356 . S
N432 H444 0.984 1_455 S
N432 H445 0.985 . S
N433 C435 1.356 . S
N433 H438 0.984 . S
N433 H439 0.985 1_655 S
C434 C428 1.379 1_455 S
C434 C431 1.363 . S
C434 N432 1.356 . S
C435 C429 1.363 . S
C435 C430 1.379 1_655 S
C435 N433 1.356 . S
N436 C428 1.356 . S
N436 H442 0.984 . S
N436 H443 0.984 . S
N437 C430 1.356 . S
N437 H440 0.984 . S
N437 H441 0.985 . S
H438 N433 0.984 . S
H439 N433 0.985 1_455 S
H440 N437 0.984 . S
H441 N437 0.985 . S
H442 N436 0.984 . S
H443 N436 0.984 . S
H444 N432 0.984 1_655 S
H445 N432 0.985 . S
C446 C447 1.353 1_545 S
C446 C452 1.388 . S
C446 N454 1.353 1_545 S
C447 C446 1.353 1_565 S
C447 C453 1.363 . S
C448 C449 1.353 1_565 S
C448 C453 1.388 . S
C448 N455 1.353 1_565 S
C449 C448 1.353 1_545 S
C449 C452 1.363 . S
N450 C452 1.356 . S
N450 H462 0.984 . S
N450 H463 0.985 . S
N451 C453 1.356 . S
N451 H456 0.984 . S
N451 H457 0.985 . S
C452 C446 1.388 . S
C452 C449 1.363 . S
C452 N450 1.356 . S
C453 C447 1.363 . S
C453 C448 1.388 . S
C453 N451 1.356 . S
N454 C446 1.353 1_565 S
N454 H460 0.984 1_565 S
N454 H461 0.984 . S
N455 C448 1.353 1_545 S
N455 H458 0.984 . S
N455 H459 0.985 1_545 S
H456 N451 0.984 . S
H457 N451 0.985 . S
H458 N455 0.984 . S
H459 N455 0.985 1_565 S
H460 N454 0.984 1_545 S
H461 N454 0.984 . S
H462 N450 0.984 . S
H463 N450 0.985 . S
C464 C465 1.363 . S
C464 C470 1.379 . S
C464 N472 1.356 . S
C465 C464 1.363 . S
C465 C471 1.363 . S
C466 C467 1.363 . S
C466 C471 1.379 . S
C466 N473 1.356 . S
C467 C466 1.363 . S
C467 C470 1.363 . S
N468 C470 1.356 . S
N468 H480 0.984 . S
N468 H481 0.985 . S
N469 C471 1.356 . S
N469 H474 0.984 . S
N469 H475 0.985 . S
C470 C464 1.379 . S
C470 C467 1.363 . S
C470 N468 1.356 . S
C471 C465 1.363 . S
C471 C466 1.379 . S
C471 N469 1.356 . S
N472 C464 1.356 . S
N472 H478 0.984 . S
N472 H479 0.984 . S
N473 C466 1.356 . S
N473 H476 0.984 . S
N473 H477 0.985 . S
H474 N469 0.984 . S
H475 N469 0.985 . S
H476 N473 0.984 . S
H477 N473 0.985 . S
H478 N472 0.984 . S
H479 N472 0.984 . S
H480 N468 0.984 . S
H481 N468 0.985 . S
C482 C483 1.363 . S
C482 C488 1.379 . S
C482 N490 1.356 . S
C483 C482 1.363 . S
C483 C489 1.363 . S
C484 C485 1.363 . S
C484 C489 1.379 . S
C484 N491 1.356 . S
C485 C484 1.363 . S
C485 C488 1.363 . S
N486 C488 1.356 . S
N486 H498 0.984 . S
N486 H499 0.985 . S
N487 C489 1.356 . S
N487 H492 0.984 . S
N487 H493 0.985 . S
C488 C482 1.379 . S
C488 C485 1.363 . S
C488 N486 1.356 . S
C489 C483 1.363 . S
C489 C484 1.379 . S
C489 N487 1.356 . S
N490 C482 1.356 . S
N490 H496 0.984 . S
N490 H497 0.984 . S
N491 C484 1.356 . S
N491 H494 0.984 . S
N491 H495 0.985 . S
H492 N487 0.984 . S
H493 N487 0.985 . S
H494 N491 0.984 . S
H495 N491 0.985 . S
H496 N490 0.984 . S
H497 N490 0.984 . S
H498 N486 0.984 . S
H499 N486 0.985 . S
C500 C501 1.363 . S
C500 C506 1.379 . S
C500 N508 1.356 . S
C501 C500 1.363 . S
C501 C507 1.363 . S
C502 C503 1.363 . S
C502 C507 1.379 . S
C502 N509 1.356 . S
C503 C502 1.363 . S
C503 C506 1.363 . S
N504 C506 1.356 . S
N504 H516 0.984 . S
N504 H517 0.985 . S
N505 C507 1.356 . S
N505 H510 0.984 . S
N505 H511 0.985 . S
C506 C500 1.379 . S
C506 C503 1.363 . S
C506 N504 1.356 . S
C507 C501 1.363 . S
C507 C502 1.379 . S
C507 N505 1.356 . S
N508 C500 1.356 . S
N508 H514 0.984 . S
N508 H515 0.984 . S
N509 C502 1.356 . S
N509 H512 0.984 . S
N509 H513 0.985 . S
H510 N505 0.984 . S
H511 N505 0.985 . S
H512 N509 0.984 . S
H513 N509 0.985 . S
H514 N508 0.984 . S
H515 N508 0.984 . S
H516 N504 0.984 . S
H517 N504 0.985 . S
C518 C519 1.363 . S
C518 C524 1.379 . S
C518 N526 1.356 . S
C519 C518 1.363 . S
C519 C525 1.363 . S
C520 C521 1.363 . S
C520 C525 1.379 . S
C520 N527 1.356 . S
C521 C520 1.363 . S
C521 C524 1.363 . S
N522 C524 1.356 . S
N522 H534 0.984 . S
N522 H535 0.985 . S
N523 C525 1.356 . S
N523 H528 0.984 . S
N523 H529 0.985 . S
C524 C518 1.379 . S
C524 C521 1.363 . S
C524 N522 1.356 . S
C525 C519 1.363 . S
C525 C520 1.379 . S
C525 N523 1.356 . S
N526 C518 1.356 . S
N526 H532 0.984 . S
N526 H533 0.984 . S
N527 C520 1.356 . S
N527 H530 0.984 . S
N527 H531 0.985 . S
H528 N523 0.984 . S
H529 N523 0.985 . S
H530 N527 0.984 . S
H531 N527 0.985 . S
H532 N526 0.984 . S
H533 N526 0.984 . S
H534 N522 0.984 . S
H535 N522 0.985 . S
C536 C537 1.363 . S
C536 C542 1.379 . S
C536 N544 1.356 . S
C537 C536 1.363 . S
C537 C543 1.363 . S
C538 C539 1.363 . S
C538 C543 1.379 . S
C538 N545 1.356 . S
C539 C538 1.363 . S
C539 C542 1.363 . S
N540 C542 1.356 . S
N540 H552 0.984 . S
N540 H553 0.985 . S
N541 C543 1.356 . S
N541 H546 0.984 . S
N541 H547 0.985 . S
C542 C536 1.379 . S
C542 C539 1.363 . S
C542 N540 1.356 . S
C543 C537 1.363 . S
C543 C538 1.379 . S
C543 N541 1.356 . S
N544 C536 1.356 . S
N544 H550 0.984 . S
N544 H551 0.984 . S
N545 C538 1.356 . S
N545 H548 0.984 . S
N545 H549 0.985 . S
H546 N541 0.984 . S
H547 N541 0.985 . S
H548 N545 0.984 . S
H549 N545 0.985 . S
H550 N544 0.984 . S
H551 N544 0.984 . S
H552 N540 0.984 . S
H553 N540 0.985 . S
C554 C555 1.363 . S
C554 C560 1.379 . S
C554 N562 1.356 . S
C555 C554 1.363 . S
C555 C561 1.363 . S
C556 C557 1.363 . S
C556 C561 1.379 . S
C556 N563 1.356 . S
C557 C556 1.363 . S
C557 C560 1.363 . S
N558 C560 1.356 . S
N558 H570 0.984 . S
N558 H571 0.985 . S
N559 C561 1.356 . S
N559 H564 0.984 . S
N559 H565 0.985 . S
C560 C554 1.379 . S
C560 C557 1.363 . S
C560 N558 1.356 . S
C561 C555 1.363 . S
C561 C556 1.379 . S
C561 N559 1.356 . S
N562 C554 1.356 . S
N562 H568 0.984 . S
N562 H569 0.984 . S
N563 C556 1.356 . S
N563 H566 0.984 . S
N563 H567 0.985 . S
H564 N559 0.984 . S
H565 N559 0.985 . S
H566 N563 0.984 . S
H567 N563 0.985 . S
H568 N562 0.984 . S
H569 N562 0.984 . S
H570 N558 0.984 . S
H571 N558 0.985 . S
C572 C573 1.363 . S
C572 C578 1.379 . S
C572 N580 1.356 . S
C573 C572 1.363 . S
C573 C579 1.363 . S
C574 C575 1.363 . S
C574 C579 1.379 . S
C574 N581 1.356 . S
C575 C574 1.363 . S
C575 C578 1.363 . S
N576 C578 1.356 . S
N576 H588 0.984 . S
N576 H589 0.985 . S
N577 C579 1.356 . S
N577 H582 0.984 . S
N577 H583 0.985 . S
C578 C572 1.379 . S
C578 C575 1.363 . S
C578 N576 1.356 . S
C579 C573 1.363 . S
C579 C574 1.379 . S
C579 N577 1.356 . S
N580 C572 1.356 . S
N580 H586 0.984 . S
N580 H587 0.984 . S
N581 C574 1.356 . S
N581 H584 0.984 . S
N581 H585 0.985 . S
H582 N577 0.984 . S
H583 N577 0.985 . S
H584 N581 0.984 . S
H585 N581 0.985 . S
H586 N580 0.984 . S
H587 N580 0.984 . S
H588 N576 0.984 . S
H589 N576 0.985 . S
C590 C591 1.363 . S
C590 C596 1.379 . S
C590 N598 1.356 . S
C591 C590 1.363 . S
C591 C597 1.363 . S
C592 C593 1.363 . S
C592 C597 1.379 . S
C592 N599 1.356 . S
C593 C592 1.363 . S
C593 C596 1.363 . S
N594 C596 1.356 . S
N594 H606 0.984 . S
N594 H607 0.985 . S
N595 C597 1.356 . S
N595 H600 0.984 . S
N595 H601 0.985 . S
C596 C590 1.379 . S
C596 C593 1.363 . S
C596 N594 1.356 . S
C597 C591 1.363 . S
C597 C592 1.379 . S
C597 N595 1.356 . S
N598 C590 1.356 . S
N598 H604 0.984 . S
N598 H605 0.984 . S
N599 C592 1.356 . S
N599 H602 0.984 . S
N599 H603 0.985 . S
H600 N595 0.984 . S
H601 N595 0.985 . S
H602 N599 0.984 . S
H603 N599 0.985 . S
H604 N598 0.984 . S
H605 N598 0.984 . S
H606 N594 0.984 . S
H607 N594 0.985 . S
C177 C136 1.463 . S
C179 C8 1.462 . S
C195 C30 1.463 . S
C197 C158 1.462 . S
C213 C92 1.463 . S
C215 C53 1.462 . S
C231 C74 1.463 . S
C233 C114 1.462 . S
C249 C96 1.463 . S
C251 C50 1.464 . S
C267 C70 1.463 . S
C269 C118 1.464 . S
C285 C140 1.463 . S
C287 C4 1.464 . S
C303 C26 1.463 . S
C305 C162 1.464 . S
C321 C27 1.463 . S
C323 C119 1.464 . S
C339 C141 1.463 . S
C341 C48 1.464 . S
C357 C163 1.463 . S
C359 C71 1.464 . S
C375 C5 1.463 . S
C377 C97 1.464 . S
C393 C73 1.463 . S
C395 C160 1.462 . S
C411 C94 1.463 . S
C413 C7 1.462 . S
C429 C29 1.463 . S
C431 C116 1.462 . S
C447 C52 1.463 . S
C449 C138 1.462 . S
C465 C159 1.285 . S
C467 C9 1.283 . S
C483 C31 1.285 . S
C485 C93 1.283 . S
C501 C51 1.285 . S
C503 C115 1.283 . S
C519 C137 1.285 . S
C521 C75 1.283 . S
C537 C117 1.285 . S
C539 C49 1.286 . S
C555 C139 1.285 . S
C557 C72 1.286 . S
C573 C161 1.285 . S
C575 C6 1.286 . S
C591 C95 1.285 . S
C593 C28 1.286 . S
