# Generated by pormake.
# Topology uni, (4)-cn, num edge types: 1
# Building blocks:
#     Node 0, Type 0, BuildingBlock: KUFVIS_clean_sbu_0, # of connection points: 4
#     Node 1, Type 0, BuildingBlock: KUFVIS_clean_sbu_0, # of connection points: 4
#     Node 2, Type 0, BuildingBlock: KUFVIS_clean_sbu_0, # of connection points: 4
#     Node 3, Type 0, BuildingBlock: KUFVIS_clean_sbu_0, # of connection points: 4
#     Node 4, Type 0, BuildingBlock: KUFVIS_clean_sbu_0, # of connection points: 4
#     Node 5, Type 0, BuildingBlock: KUFVIS_clean_sbu_0, # of connection points: 4
#     Edge 6, Type (0, 0), BuildingBlock: UVAHIK_clean_linker_0, # of connection points: 2
#     Edge 7, Type (0, 0), BuildingBlock: UVAHIK_clean_linker_0, # of connection points: 2
#     Edge 8, Type (0, 0), BuildingBlock: UVAHIK_clean_linker_0, # of connection points: 2
#     Edge 9, Type (0, 0), BuildingBlock: UVAHIK_clean_linker_0, # of connection points: 2
#     Edge 10, Type (0, 0), BuildingBlock: UVAHIK_clean_linker_0, # of connection points: 2
#     Edge 11, Type (0, 0), BuildingBlock: UVAHIK_clean_linker_0, # of connection points: 2
#     Edge 12, Type (0, 0), BuildingBlock: UVAHIK_clean_linker_0, # of connection points: 2
#     Edge 13, Type (0, 0), BuildingBlock: UVAHIK_clean_linker_0, # of connection points: 2
#     Edge 14, Type (0, 0), BuildingBlock: UVAHIK_clean_linker_0, # of connection points: 2
#     Edge 15, Type (0, 0), BuildingBlock: UVAHIK_clean_linker_0, # of connection points: 2
#     Edge 16, Type (0, 0), BuildingBlock: UVAHIK_clean_linker_0, # of connection points: 2
#     Edge 17, Type (0, 0), BuildingBlock: UVAHIK_clean_linker_0, # of connection points: 2
# Relax obj value: 0.055
# Max RMSD: 0.074
# Mean RMSD: 0.074
data_MOF--net-uni--node1-KUFVIS_clean_sbu_0--edge1-UVAHIK_clean_linker_0
_symmetry_space_group_name_H-M    P1
_symmetry_Int_Tables_number       1
_symmetry_cell_setting            triclinic
loop_
_symmetry_equiv_pos_as_xyz
'x, y, z'
_cell_length_a     49.611825
_cell_length_b     49.618348
_cell_length_c     29.821381
_cell_angle_alpha  89.996628
_cell_angle_beta   89.993799
_cell_angle_gamma 120.00474
loop_
_atom_site_label
_atom_site_type_symbol
_atom_site_fract_x
_atom_site_fract_y
_atom_site_fract_z
_atom_type_partial_charge
Mn0 Mn 0.64844 0.02608 0.06471 0.0
Mn1 Mn 0.64629 0.09036 0.09596 0.0
C2 C 0.61114 0.02212 0.11535 0.0
C3 C 0.66733 0.99185 0.0755 0.0
C4 C 0.62295 0.05845 0.00566 0.0
O5 O 0.69074 0.06159 0.04429 0.0
O6 O 0.68872 0.10242 0.07403 0.0
C7 C 0.68858 0.10854 0.17417 0.0
N8 N 0.6604 0.10106 0.15644 0.0
C9 C 0.64192 0.10763 0.22794 0.0
C10 C 0.67093 0.11588 0.24681 0.0
C11 C 0.69431 0.1162 0.21984 0.0
C12 C 0.63763 0.10036 0.18218 0.0
H13 H 0.70646 0.10844 0.15368 0.0
C14 C 0.703 0.09055 0.0534 0.0
O15 O 0.65652 0.99413 0.03687 0.0
O16 O 0.6683 0.01032 0.10701 0.0
N17 N 0.60668 0.0821 0.11832 0.0
C18 C 0.57945 0.07188 0.09557 0.0
C19 C 0.55338 0.06925 0.11808 0.0
C20 C 0.55561 0.07737 0.1636 0.0
C21 C 0.58395 0.08811 0.1862 0.0
C22 C 0.60923 0.09052 0.16191 0.0
H23 H 0.57758 0.06566 0.06056 0.0
O24 O 0.60706 0.99783 0.09331 0.0
O25 O 0.63697 0.04775 0.10743 0.0
O26 O 0.62728 0.03556 0.01307 0.0
O27 O 0.6304 0.08062 0.03366 0.0
C28 C 0.58794 0.09597 0.23207 0.0
C29 C 0.61688 0.10565 0.25295 0.0
H30 H 0.67537 0.12163 0.28209 0.0
H31 H 0.71664 0.12222 0.23427 0.0
H32 H 0.53158 0.06092 0.10041 0.0
H33 H 0.53538 0.07507 0.18093 0.0
H34 H 0.56875 0.09416 0.25176 0.0
H35 H 0.61951 0.11113 0.2884 0.0
Mn36 Mn 0.65496 0.65417 0.22824 0.0
Mn37 Mn 0.58856 0.65352 0.25525 0.0
C38 C 0.62045 0.61782 0.27881 0.0
C39 C 0.70769 0.67225 0.24145 0.0
C40 C 0.59794 0.62823 0.16726 0.0
O41 O 0.66283 0.69638 0.20578 0.0
O42 O 0.61961 0.69535 0.23195 0.0
C43 C 0.61225 0.69757 0.33154 0.0
N44 N 0.59155 0.66904 0.31479 0.0
C45 C 0.56594 0.65228 0.38627 0.0
C46 C 0.58672 0.68163 0.40412 0.0
C47 C 0.61004 0.70433 0.37666 0.0
C48 C 0.56917 0.64694 0.341 0.0
H49 H 0.63041 0.71494 0.31068 0.0
C50 C 0.64622 0.70906 0.21245 0.0
O51 O 0.69521 0.66113 0.20261 0.0
O52 O 0.68988 0.67412 0.27162 0.0
N53 N 0.55659 0.61462 0.27868 0.0
C54 C 0.53948 0.58697 0.25697 0.0
C55 C 0.51573 0.5615 0.28012 0.0
C56 C 0.50966 0.56477 0.32519 0.0
C57 C 0.52733 0.59354 0.34668 0.0
C58 C 0.55051 0.61818 0.32178 0.0
H59 H 0.54401 0.58428 0.22233 0.0
O60 O 0.64076 0.61309 0.25827 0.0
O61 O 0.62123 0.64378 0.26953 0.0
O62 O 0.62505 0.63263 0.17593 0.0
O63 O 0.58293 0.63622 0.19389 0.0
C64 C 0.52325 0.59856 0.39207 0.0
C65 C 0.54258 0.62789 0.41187 0.0
H66 H 0.58522 0.68688 0.43898 0.0
H67 H 0.62636 0.72694 0.3903 0.0
H68 H 0.5022 0.53937 0.2633 0.0
H69 H 0.49152 0.54499 0.34306 0.0
H70 H 0.50564 0.57989 0.41222 0.0
H71 H 0.53955 0.63133 0.44697 0.0
Mn72 Mn 0.033 0.65755 0.39886 0.0
Mn73 Mn 0.96848 0.59071 0.42814 0.0
C74 C 0.0365 0.62361 0.44882 0.0
C75 C 0.06723 0.71047 0.41146 0.0
C76 C 1.00129 0.60044 0.33833 0.0
O77 O 0.99767 0.66456 0.37823 0.0
O78 O 0.95659 0.62132 0.40672 0.0
C79 C 0.94948 0.6138 0.50667 0.0
N80 N 0.9572 0.59337 0.48859 0.0
C81 C 0.95018 0.56758 0.55957 0.0
C82 C 0.94167 0.58805 0.57879 0.0
C83 C 0.94145 0.61133 0.55225 0.0
C84 C 0.9578 0.57107 0.51391 0.0
H85 H 0.94966 0.63195 0.48653 0.0
C86 C 0.96863 0.64772 0.38673 0.0
O87 O 0.06538 0.698 0.37243 0.0
O88 O 0.04823 0.69253 0.44216 0.0
N89 N 0.97662 0.55916 0.44992 0.0
C90 C 0.98713 0.54249 0.42692 0.0
C91 C 0.98973 0.5189 0.44902 0.0
C92 C 0.98131 0.51254 0.49439 0.0
C93 C 0.97027 0.52978 0.51724 0.0
C94 C 0.96789 0.55281 0.49335 0.0
H95 H 0.99361 0.54723 0.39204 0.0
O96 O 0.06099 0.6441 0.42743 0.0
O97 O 0.01094 0.62388 0.44068 0.0
O98 O 0.0241 0.62759 0.34647 0.0
O99 O 0.97886 0.58538 0.36582 0.0
C100 C 0.96208 0.52541 0.56299 0.0
C101 C 0.95211 0.54435 0.58417 0.0
H102 H 0.93566 0.58635 0.614 0.0
H103 H 0.93523 0.62743 0.56695 0.0
H104 H 0.9983 0.50571 0.43116 0.0
H105 H 0.98361 0.49451 0.51141 0.0
H106 H 0.96386 0.5079 0.58238 0.0
H107 H 0.94639 0.54112 0.61954 0.0
Mn108 Mn 0.40698 0.03751 0.56505 0.0
Mn109 Mn 0.40982 0.97357 0.59616 0.0
C110 C 0.4445 0.0418 0.61551 0.0
C111 C 0.3878 0.07147 0.57606 0.0
C112 C 0.4328 0.00553 0.50581 0.0
O113 O 0.36475 1.00176 0.54481 0.0
O114 O 0.36727 0.96115 0.57435 0.0
C115 C 0.36756 0.955 0.67447 0.0
N116 N 0.3958 0.96277 0.65666 0.0
C117 C 0.41453 0.95644 0.7281 0.0
C118 C 0.38548 0.94791 0.74705 0.0
C119 C 0.36194 0.94731 0.72015 0.0
C120 C 0.41872 0.96372 0.68234 0.0
H121 H 0.34955 0.95487 0.65403 0.0
C122 C 0.35274 0.97282 0.55386 0.0
O123 O 0.39854 0.06926 0.53734 0.0
O124 O 0.387 0.05304 0.60751 0.0
N125 N 0.44956 0.98218 0.61839 0.0
C126 C 0.4768 0.99264 0.59556 0.0
C127 C 0.50301 0.99553 0.61798 0.0
C128 C 0.5009 0.98744 0.6635 0.0
C129 C 0.47256 0.97647 0.68619 0.0
C130 C 0.44714 0.9738 0.66198 0.0
H131 H 0.47858 0.99884 0.56055 0.0
O132 O 0.44834 0.066 0.59346 0.0
O133 O 0.41877 0.01605 0.60768 0.0
O134 O 0.42822 0.02826 0.51325 0.0
O135 O 0.42561 0.98342 0.53382 0.0
C136 C 0.46868 0.96862 0.73206 0.0
C137 C 0.43971 0.95868 0.75303 0.0
H138 H 0.38111 0.94215 0.78233 0.0
H139 H 0.33956 0.94107 0.73464 0.0
H140 H 0.52481 1.00404 0.60025 0.0
H141 H 0.52123 0.98994 0.68077 0.0
H142 H 0.48797 0.97063 0.7517 0.0
H143 H 0.43717 0.95321 0.78849 0.0
Mn144 Mn 0.40192 0.41002 0.72841 0.0
Mn145 Mn 0.46846 0.41095 0.75533 0.0
C146 C 0.43636 0.44647 0.7789 0.0
C147 C 0.34915 0.3917 0.74167 0.0
C148 C 0.4589 0.4361 0.66733 0.0
O149 O 0.3942 0.36786 0.70602 0.0
O150 O 0.43749 0.36905 0.73216 0.0
C151 C 0.44501 0.36697 0.83173 0.0
N152 N 0.46559 0.39552 0.81491 0.0
C153 C 0.49124 0.41245 0.88633 0.0
C154 C 0.47057 0.38308 0.90426 0.0
C155 C 0.44729 0.36029 0.87686 0.0
C156 C 0.48793 0.41771 0.84105 0.0
H157 H 0.42689 0.34952 0.81092 0.0
C158 C 0.41087 0.35525 0.71271 0.0
O159 O 0.36159 0.40286 0.70282 0.0
O160 O 0.36703 0.38996 0.77184 0.0
N161 N 0.50034 0.44994 0.77864 0.0
C162 C 0.51734 0.47759 0.75686 0.0
C163 C 0.54104 0.50314 0.77993 0.0
C164 C 0.54717 0.49995 0.82501 0.0
C165 C 0.52961 0.47119 0.84658 0.0
C166 C 0.50649 0.44647 0.82175 0.0
H167 H 0.51276 0.4802 0.72222 0.0
O168 O 0.41597 0.45108 0.75838 0.0
O169 O 0.43569 0.42056 0.76965 0.0
O170 O 0.43177 0.43162 0.67604 0.0
O171 O 0.47397 0.42818 0.69393 0.0
C172 C 0.53376 0.46625 0.89197 0.0
C173 C 0.51454 0.43692 0.91185 0.0
H174 H 0.47213 0.37789 0.93913 0.0
H175 H 0.43107 0.33766 0.89056 0.0
H176 H 0.55448 0.52526 0.76306 0.0
H177 H 0.56527 0.51979 0.84282 0.0
H178 H 0.55133 0.48499 0.91207 0.0
H179 H 0.51763 0.43355 0.94696 0.0
Mn180 Mn 0.02318 0.40514 0.8988 0.0
Mn181 Mn 0.08772 0.47192 0.92817 0.0
C182 C 0.01969 0.43906 0.94882 0.0
C183 C 0.98893 0.35222 0.91128 0.0
C184 C 0.05497 0.46229 0.83834 0.0
O185 O 0.05849 0.39812 0.87813 0.0
O186 O 0.09958 0.44128 0.90677 0.0
C187 C 0.10661 0.44875 0.00673 0.0
N188 N 0.09895 0.46922 0.98863 0.0
C189 C 0.10597 0.495 0.05961 0.0
C190 C 0.11442 0.4745 0.07884 0.0
C191 C 0.11461 0.45119 0.05231 0.0
C192 C 0.09838 0.49154 0.01395 0.0
H193 H 0.10639 0.43058 0.9866 0.0
C194 C 0.08752 0.41491 0.88671 0.0
O195 O 0.9908 0.36474 0.87229 0.0
O196 O 0.00792 0.37011 0.94203 0.0
N197 N 0.07962 0.5035 0.94993 0.0
C198 C 0.06915 0.52019 0.92693 0.0
C199 C 0.06658 0.54381 0.94901 0.0
C200 C 0.07499 0.55016 0.99438 0.0
C201 C 0.08598 0.53288 0.01725 0.0
C202 C 0.08834 0.50983 0.99337 0.0
H203 H 0.06268 0.51547 0.89205 0.0
O204 O 0.9952 0.41859 0.92742 0.0
O205 O 0.04525 0.43878 0.94066 0.0
O206 O 0.03212 0.43516 0.84647 0.0
O207 O 0.0774 0.4773 0.86583 0.0
C208 C 0.09415 0.53723 0.063 0.0
C209 C 0.10407 0.51826 0.08419 0.0
H210 H 0.12041 0.47617 0.11406 0.0
H211 H 0.12077 0.43506 0.06703 0.0
H212 H 0.05805 0.55702 0.93114 0.0
H213 H 0.07271 0.5682 0.0114 0.0
H214 H 0.0924 0.55476 0.08238 0.0
H215 H 0.10978 0.52147 0.11956 0.0
C216 C 0.60452 0.02735 0.19675 0.0
C217 C 0.59122 0.01848 0.15401 0.0
C218 C 0.586 0.02406 0.23391 0.0
C219 C 0.53956 0.99977 0.31037 0.0
H220 H 0.47564 0.02253 0.29849 0.0
C221 C 0.45456 0.98098 0.45446 0.0
C222 C 0.44828 1.00516 0.4633 0.0
C223 C 0.47047 0.98129 0.41562 0.0
C224 C 0.4935 0.01623 0.3024 0.0
H225 H 0.54815 0.99702 0.11654 0.0
H226 H 0.51543 0.9914 0.18165 0.0
H227 H 0.50664 0.02521 0.23319 0.0
H228 H 0.45348 0.04842 0.43744 0.0
H229 H 0.48148 0.04904 0.3699 0.0
H230 H 0.52703 0.99147 0.37968 0.0
C231 C 0.54029 1.00163 0.18633 0.0
C232 C 0.51102 0.01744 0.26488 0.0
C233 C 0.55889 1.0047 0.14918 0.0
C234 C 0.45785 0.02938 0.4318 0.0
C235 C 0.47378 0.02967 0.39289 0.0
C236 C 0.52203 0.99849 0.34781 0.0
C237 C 0.55371 0.01157 0.22907 0.0
C238 C 0.53434 0.00933 0.26849 0.0
C239 C 0.48057 0.00578 0.38457 0.0
C240 C 0.49882 0.00676 0.34435 0.0
H241 H 0.62936 0.0372 0.20133 0.0
H242 H 0.59713 0.0321 0.26623 0.0
H243 H 0.55716 0.99312 0.31424 0.0
H244 H 0.44749 0.96186 0.47776 0.0
H245 H 0.47487 0.96227 0.40993 0.0
C246 C 0.58475 0.5659 0.3127 0.0
C247 C 0.60322 0.59825 0.31728 0.0
C248 C 0.56878 0.54748 0.34975 0.0
C249 C 0.52337 0.51808 0.42795 0.0
H250 H 0.56563 0.53389 0.54251 0.0
C251 C 0.45925 0.4621 0.59461 0.0
C252 C 0.47437 0.4524 0.62507 0.0
C253 C 0.47455 0.47883 0.55601 0.0
C254 C 0.55353 0.52898 0.5107 0.0
H255 H 0.62192 0.63665 0.36417 0.0
H256 H 0.59401 0.60466 0.42898 0.0
H257 H 0.59369 0.56483 0.47736 0.0
H258 H 0.51741 0.45228 0.63801 0.0
H259 H 0.5438 0.48109 0.57074 0.0
H260 H 0.48328 0.48196 0.46133 0.0
C261 C 0.59129 0.59342 0.39684 0.0
C262 C 0.56953 0.54697 0.47346 0.0
C263 C 0.60697 0.61178 0.35974 0.0
C264 C 0.50498 0.4594 0.6155 0.0
C265 C 0.52025 0.47614 0.57701 0.0
C266 C 0.50731 0.50013 0.46531 0.0
C267 C 0.57175 0.56109 0.39221 0.0
C268 C 0.55467 0.54172 0.43164 0.0
C269 C 0.50536 0.48633 0.54701 0.0
C270 C 0.52224 0.50532 0.50712 0.0
H271 H 0.58223 0.55498 0.28032 0.0
H272 H 0.55436 0.52257 0.34527 0.0
H273 H 0.51118 0.5137 0.3963 0.0
H274 H 0.43571 0.45719 0.60082 0.0
H275 H 0.4625 0.48656 0.53379 0.0
C276 C 0.07917 0.50824 0.78634 0.0
C277 C 0.05504 0.47784 0.7957 0.0
C278 C 0.07852 0.52365 0.74751 0.0
C279 C 0.04262 0.51136 0.63499 0.0
H280 H 0.0654 0.59804 0.64692 0.0
C281 C 0.03067 0.611 0.52998 0.0
C282 C 0.03984 0.60696 0.48723 0.0
C283 C 0.0339 0.59561 0.56697 0.0
C284 C 0.05885 0.57381 0.64304 0.0
H285 H 0.01155 0.43965 0.77067 0.0
H286 H 0.01036 0.4667 0.70307 0.0
H287 H 0.06768 0.56974 0.71217 0.0
H288 H 0.06168 0.5858 0.44959 0.0
H289 H 0.06716 0.55838 0.51441 0.0
H290 H 0.03316 0.51538 0.56594 0.0
C291 C 0.02994 0.47848 0.72571 0.0
C292 C 0.06048 0.55767 0.68035 0.0
C293 C 0.03056 0.46303 0.76463 0.0
C294 C 0.05377 0.58856 0.48222 0.0
C295 C 0.05676 0.57286 0.5192 0.0
C296 C 0.04108 0.52757 0.59758 0.0
C297 C 0.05374 0.50911 0.71695 0.0
C298 C 0.05235 0.52623 0.67684 0.0
C299 C 0.04663 0.57604 0.56195 0.0
C300 C 0.04908 0.55896 0.60124 0.0
H301 H 0.09849 0.52041 0.80929 0.0
H302 H 0.09748 0.54705 0.74144 0.0
H303 H 0.03641 0.48723 0.63107 0.0
H304 H 0.0207 0.62588 0.5347 0.0
H305 H 0.02573 0.59847 0.59932 0.0
C306 C 0.59798 0.03486 0.93153 0.0
C307 C 0.60751 0.05897 0.96321 0.0
C308 C 0.58211 0.03471 0.89265 0.0
C309 C 0.53385 0.06592 0.84785 0.0
H310 H 0.54948 0.03961 0.73306 0.0
C311 C 0.49685 0.05968 0.64926 0.0
C312 C 0.4645 0.04564 0.65414 0.0
C313 C 0.51552 0.06292 0.68639 0.0
C314 C 0.54503 0.04728 0.76479 0.0
H315 H 0.60826 0.1022 0.97801 0.0
H316 H 0.58095 0.10202 0.91021 0.0
H317 H 0.58048 0.04226 0.79831 0.0
H318 H 0.42637 0.02664 0.70151 0.0
H319 H 0.45875 0.03204 0.76636 0.0
H320 H 0.49861 0.07118 0.81438 0.0
C321 C 0.58536 0.08299 0.91575 0.0
C322 C 0.56256 0.04846 0.80229 0.0
C323 C 0.60123 0.08317 0.95456 0.0
C324 C 0.45124 0.03669 0.6969 0.0
C325 C 0.46984 0.04015 0.73403 0.0
C326 C 0.51631 0.06465 0.81045 0.0
C327 C 0.57533 0.05862 0.88452 0.0
C328 C 0.55714 0.05776 0.84431 0.0
C329 C 0.50215 0.05289 0.72914 0.0
C330 C 0.5216 0.05522 0.7685 0.0
H331 H 0.60236 0.01581 0.93701 0.0
H332 H 0.57445 0.01542 0.86951 0.0
H333 H 0.52879 0.07282 0.87978 0.0
H334 H 0.50755 0.06743 0.61661 0.0
H335 H 0.5404 0.07333 0.68167 0.0
C336 C 0.5518 0.60496 0.11555 0.0
C337 C 0.58242 0.61195 0.12503 0.0
C338 C 0.53649 0.58825 0.07706 0.0
C339 C 0.50318 0.53544 0.01071 0.0
H340 H 0.54547 0.55081 0.89622 0.0
C341 C 0.44986 0.45257 0.85983 0.0
C342 C 0.45355 0.46608 0.81735 0.0
C343 C 0.46549 0.47097 0.8969 0.0
C344 C 0.53329 0.5464 0.92789 0.0
H345 H 0.62106 0.60718 0.10061 0.0
H346 H 0.59421 0.57787 0.03359 0.0
H347 H 0.57338 0.58255 0.96122 0.0
H348 H 0.47439 0.50934 0.78035 0.0
H349 H 0.50221 0.54181 0.84525 0.0
H350 H 0.46303 0.49955 0.97741 0.0
C351 C 0.58218 0.58558 0.05588 0.0
C352 C 0.54937 0.56436 0.96523 0.0
C353 C 0.59752 0.60227 0.09447 0.0
C354 C 0.47192 0.49844 0.81273 0.0
C355 C 0.48785 0.5169 0.84976 0.0
C356 C 0.48717 0.51745 0.97348 0.0
C357 C 0.55137 0.57809 0.04697 0.0
C358 C 0.53446 0.55912 0.00707 0.0
C359 C 0.48495 0.50332 0.89223 0.0
C360 C 0.50201 0.52272 0.93163 0.0
H361 H 0.53939 0.61205 0.13813 0.0
H362 H 0.51294 0.5833 0.07086 0.0
H363 H 0.49111 0.53051 0.04254 0.0
H364 H 0.43498 0.4277 0.86428 0.0
H365 H 0.46283 0.45975 0.92905 0.0
C366 C 0.02552 0.45163 0.02999 0.0
C367 C 0.01637 0.45571 0.98725 0.0
C368 C 0.02232 0.46704 0.06699 0.0
C369 C 0.01529 0.53517 0.09761 0.0
H370 H 0.98864 0.493 0.21221 0.0
C371 C 0.97712 0.5545 0.28631 0.0
C372 C 1.00126 0.5849 0.29569 0.0
C373 C 0.97781 0.5391 0.24749 0.0
C374 C 0.99586 0.50507 0.18039 0.0
H375 H 0.9946 0.47695 0.94962 0.0
H376 H 0.98918 0.50439 0.01445 0.0
H377 H 0.99087 0.46468 0.14697 0.0
H378 H 0.04478 0.62308 0.27071 0.0
H379 H 0.04602 0.59604 0.20314 0.0
H380 H 0.02001 0.57553 0.13109 0.0
C381 C 0.99954 0.48988 0.01924 0.0
C382 C 0.99746 0.48891 0.14309 0.0
C383 C 1.00249 0.47416 0.98225 0.0
C384 C 0.02577 0.59971 0.26466 0.0
C385 C 0.02642 0.58427 0.22575 0.0
C386 C 0.01377 0.55139 0.13503 0.0
C387 C 0.00965 0.48666 0.06198 0.0
C388 C 1.00724 0.50376 0.10128 0.0
C389 C 1.00261 0.55364 0.21697 0.0
C390 C 1.00402 0.53652 0.17688 0.0
H391 H 0.03544 0.43671 0.0347 0.0
H392 H 0.03048 0.46415 0.09933 0.0
H393 H 0.02323 0.54735 0.06597 0.0
H394 H 0.95778 0.54233 0.30924 0.0
H395 H 0.95884 0.51571 0.24141 0.0
C396 C 0.65032 0.76104 0.22056 0.0
C397 C 0.65768 0.74121 0.19649 0.0
C398 C 0.65901 0.79067 0.20434 0.0
C399 C 0.66685 0.83239 0.10458 0.0
H400 H 0.71451 0.90714 0.1753 0.0
C401 C 0.6771 0.9491 0.05029 0.0
C402 C 0.67533 0.96737 0.08488 0.0
C403 C 0.68155 0.92397 0.06021 0.0
C404 C 0.70088 0.88652 0.15521 0.0
H405 H 0.67998 0.73688 0.13661 0.0
H406 H 0.69411 0.78865 0.10717 0.0
H407 H 0.70958 0.85809 0.20048 0.0
H408 H 0.67748 0.97401 0.15693 0.0
H409 H 0.6839 0.92992 0.17431 0.0
H410 H 0.656 0.85984 0.06105 0.0
C411 C 0.6822 0.78125 0.1391 0.0
C412 C 0.69839 0.85852 0.1695 0.0
C413 C 0.67424 0.7518 0.15599 0.0
C414 C 0.67896 0.96055 0.12941 0.0
C415 C 0.68291 0.93525 0.13937 0.0
C416 C 0.66875 0.86025 0.09073 0.0
C417 C 0.67454 0.80083 0.16316 0.0
C418 C 0.6809 0.83114 0.14473 0.0
C419 C 0.68387 0.91627 0.10501 0.0
C420 C 0.6852 0.8876 0.11643 0.0
H421 H 0.63757 0.75354 0.25183 0.0
H422 H 0.65266 0.80531 0.22328 0.0
H423 H 0.65298 0.81143 0.08518 0.0
H424 H 0.67453 0.95388 0.0156 0.0
H425 H 0.68275 0.91036 0.03272 0.0
C426 C 0.94969 0.67178 0.32985 0.0
C427 C 0.94705 0.65842 0.37231 0.0
C428 C 0.92642 0.67764 0.31422 0.0
C429 C 0.84326 0.65301 0.33756 0.0
H430 H 0.85755 0.71889 0.25427 0.0
C431 C 0.74914 0.68372 0.298 0.0
C432 C 0.73954 0.67904 0.25293 0.0
C433 C 0.77699 0.68528 0.31049 0.0
C434 C 0.85337 0.70039 0.27745 0.0
H435 H 0.91936 0.64279 0.43289 0.0
H436 H 0.88019 0.65481 0.4073 0.0
H437 H 0.90179 0.71449 0.28181 0.0
H438 H 0.75264 0.67433 0.18525 0.0
H439 H 0.80203 0.67785 0.20728 0.0
H440 H 0.79507 0.63963 0.33431 0.0
C441 C 0.89911 0.65932 0.38477 0.0
C442 C 0.87861 0.69771 0.2931 0.0
C443 C 0.92181 0.65274 0.3998 0.0
C444 C 0.7594 0.6779 0.22024 0.0
C445 C 0.78764 0.67998 0.23275 0.0
C446 C 0.81831 0.6561 0.32269 0.0
C447 C 0.9004 0.67081 0.34117 0.0
C448 C 0.87391 0.67405 0.32369 0.0
C449 C 0.79614 0.68275 0.27816 0.0
C450 C 0.8231 0.67984 0.2927 0.0
H451 H 0.96886 0.67618 0.30789 0.0
H452 H 0.92827 0.68631 0.2804 0.0
H453 H 0.83831 0.6338 0.35973 0.0
H454 H 0.73445 0.68472 0.32406 0.0
H455 H 0.78317 0.68755 0.3457 0.0
C456 C 0.11278 0.76233 0.38941 0.0
C457 C 0.09223 0.74244 0.4225 0.0
C458 C 0.13898 0.79068 0.40147 0.0
C459 C 0.19465 0.82159 0.48984 0.0
H460 H 0.21844 0.9051 0.45072 0.0
C461 C 0.30134 0.92535 0.56681 0.0
C462 C 0.3205 0.9509 0.53953 0.0
C463 C 0.27211 0.90245 0.55189 0.0
C464 C 0.21241 0.88192 0.4615 0.0
H465 H 0.0823 0.73742 0.49389 0.0
H466 H 0.12826 0.78631 0.51471 0.0
H467 H 0.16972 0.86071 0.42367 0.0
H468 H 0.32385 0.97304 0.47561 0.0
H469 H 0.2732 0.93216 0.44831 0.0
H470 H 0.23737 0.84177 0.52591 0.0
C471 C 0.12396 0.78008 0.47955 0.0
C472 C 0.18445 0.85659 0.44612 0.0
C473 C 0.09763 0.75213 0.46753 0.0
C474 C 0.30941 0.95363 0.49742 0.0
C475 C 0.28033 0.93019 0.48189 0.0
C476 C 0.22273 0.84664 0.50444 0.0
C477 C 0.14522 0.79926 0.4468 0.0
C478 C 0.17519 0.8263 0.4608 0.0
C479 C 0.26155 0.90389 0.5086 0.0
C480 C 0.23185 0.87729 0.49122 0.0
H481 H 0.10922 0.75552 0.35445 0.0
H482 H 0.15517 0.80509 0.37568 0.0
H483 H 0.18823 0.79835 0.501 0.0
H484 H 0.3091 0.92281 0.59965 0.0
H485 H 0.25802 0.88331 0.57426 0.0
C486 C 0.40719 0.30344 0.72072 0.0
C487 C 0.39943 0.32306 0.69691 0.0
C488 C 0.39834 0.27371 0.70472 0.0
C489 C 0.38905 0.23124 0.60529 0.0
H490 H 0.34204 0.15696 0.67723 0.0
C491 C 0.37775 0.1141 0.55113 0.0
C492 C 0.37982 0.09594 0.58565 0.0
C493 C 0.37347 0.13931 0.56121 0.0
C494 C 0.35549 0.17745 0.65679 0.0
H495 H 0.37623 0.32692 0.63773 0.0
H496 H 0.36179 0.275 0.60867 0.0
H497 H 0.34754 0.20626 0.70231 0.0
H498 H 0.37835 0.08959 0.65771 0.0
H499 H 0.37226 0.13383 0.67534 0.0
H500 H 0.39919 0.20342 0.56145 0.0
C501 C 0.37417 0.28264 0.64022 0.0
C502 C 0.3583 0.20559 0.67104 0.0
C503 C 0.38231 0.31218 0.6569 0.0
C504 C 0.37662 0.10295 0.63026 0.0
C505 C 0.37287 0.12835 0.64036 0.0
C506 C 0.38685 0.20324 0.59146 0.0
C507 C 0.38221 0.26325 0.66402 0.0
C508 C 0.37555 0.2328 0.64581 0.0
C509 C 0.37165 0.14723 0.60607 0.0
C510 C 0.37062 0.17605 0.61758 0.0
H511 H 0.42036 0.31115 0.75162 0.0
H512 H 0.40498 0.25922 0.72345 0.0
H513 H 0.40273 0.25207 0.58553 0.0
H514 H 0.37997 0.10916 0.51638 0.0
H515 H 0.37203 0.15282 0.53377 0.0
C516 C 0.13411 0.40954 0.90007 0.0
C517 C 0.10908 0.40416 0.87234 0.0
C518 C 0.15684 0.40299 0.8851 0.0
C519 C 0.17784 0.36531 0.79301 0.0
H520 H 0.26115 0.42312 0.83529 0.0
C521 C 0.29734 0.38578 0.72049 0.0
C522 C 0.31723 0.38468 0.75316 0.0
C523 C 0.269 0.38348 0.73302 0.0
C524 C 0.23798 0.40672 0.82338 0.0
H525 H 0.08764 0.38695 0.80757 0.0
H526 H 0.12829 0.37687 0.7802 0.0
H527 H 0.21776 0.4287 0.86068 0.0
H528 H 0.32228 0.37881 0.82423 0.0
H529 H 0.27339 0.37558 0.84591 0.0
H530 H 0.19913 0.34447 0.75391 0.0
C531 C 0.12995 0.38528 0.81415 0.0
C532 C 0.21294 0.40967 0.83823 0.0
C533 C 0.10665 0.39111 0.82971 0.0
C534 C 0.30757 0.3798 0.7982 0.0
C535 C 0.27961 0.37801 0.81071 0.0
C536 C 0.20318 0.36278 0.77739 0.0
C537 C 0.15579 0.39184 0.84134 0.0
C538 C 0.18237 0.38872 0.82395 0.0
C539 C 0.26043 0.38052 0.77842 0.0
C540 C 0.23337 0.38324 0.79302 0.0
H541 H 0.13638 0.41925 0.93329 0.0
H542 H 0.1756 0.40727 0.9078 0.0
H543 H 0.15473 0.34861 0.78139 0.0
H544 H 0.30413 0.3895 0.68552 0.0
H545 H 0.25458 0.3856 0.70759 0.0
C546 C 0.9587 0.31037 0.96719 0.0
C547 C 0.96394 0.32022 0.92223 0.0
C548 C 0.93236 0.28241 0.9792 0.0
C549 C 0.87128 0.2062 0.94514 0.0
H550 H 0.81933 0.22099 0.02696 0.0
C551 C 0.74609 0.10973 0.99656 0.0
C552 C 0.7353 0.11223 0.03903 0.0
C553 C 0.77525 0.13304 0.98108 0.0
C554 C 0.8337 0.21611 0.00491 0.0
H555 H 0.94668 0.30742 0.85425 0.0
H556 H 0.90071 0.25787 0.87545 0.0
H557 H 0.86854 0.2643 1.00209 0.0
H558 H 0.74726 0.13972 0.09979 0.0
H559 H 0.79848 0.17898 0.07444 0.0
H560 H 0.83691 0.15777 0.94908 0.0
C561 C 0.91703 0.27214 0.9012 0.0
C562 C 0.86182 0.24111 0.99035 0.0
C563 C 0.94325 0.30048 0.88916 0.0
C564 C 0.75481 0.13738 0.06668 0.0
C565 C 0.78411 0.16014 0.05179 0.0
C566 C 0.84326 0.18091 0.96047 0.0
C567 C 0.91094 0.26341 0.9465 0.0
C568 C 0.88094 0.23641 0.96057 0.0
C569 C 0.79439 0.15897 0.00819 0.0
C570 C 0.82417 0.18552 0.99091 0.0
H571 H 0.97415 0.32494 0.99353 0.0
H572 H 0.92819 0.27605 0.01433 0.0
H573 H 0.88573 0.20209 0.92211 0.0
H574 H 0.73136 0.09062 0.97448 0.0
H575 H 0.78215 0.1313 0.94726 0.0
loop_
_geom_bond_atom_site_label_1
_geom_bond_atom_site_label_2
_geom_bond_distance
_geom_bond_site_symmetry_2
_ccdc_geom_bond_type
Mn0 O5 2.095 . S
Mn0 O15 2.162 1_545 S
Mn0 O16 2.297 1_545 S
Mn0 O24 2.385 1_545 S
Mn0 O25 2.209 . S
Mn0 O26 2.094 . S
Mn1 O6 2.121 . S
Mn1 N8 2.257 . S
Mn1 N17 2.282 . S
Mn1 O25 2.215 . S
Mn1 O27 2.117 . S
C2 O24 1.234 1_545 S
C2 O25 1.283 . S
C3 O15 1.281 . S
C3 O16 1.236 . S
C4 O26 1.240 1_556 S
C4 O27 1.264 1_556 S
O5 Mn0 2.095 . S
O5 C14 1.250 . S
O6 Mn1 2.121 . S
O6 C14 1.258 . S
C7 N8 1.326 . S
C7 C11 1.460 . S
C7 H13 0.929 . S
N8 Mn1 2.257 . S
N8 C7 1.326 . S
N8 C12 1.362 . S
C9 C10 1.258 . S
C9 C12 1.431 . S
C9 C29 1.449 . S
C10 C9 1.258 . S
C10 C11 1.477 . S
C10 H30 0.931 . S
C11 C7 1.460 . S
C11 C10 1.477 . S
C11 H31 0.930 . S
C12 N8 1.362 . S
C12 C9 1.431 . S
C12 C22 1.476 . S
H13 C7 0.929 . S
C14 O5 1.250 . S
C14 O6 1.258 . S
O15 Mn0 2.162 1_565 S
O15 C3 1.281 . S
O16 Mn0 2.297 1_565 S
O16 C3 1.236 . S
N17 Mn1 2.282 . S
N17 C18 1.328 . S
N17 C22 1.318 . S
C18 N17 1.328 . S
C18 C19 1.457 . S
C18 H23 0.929 . S
C19 C18 1.457 . S
C19 C20 1.291 . S
C19 H32 0.931 . S
C20 C19 1.291 . S
C20 C21 1.373 . S
C20 H33 0.929 . S
C21 C20 1.373 . S
C21 C22 1.396 . S
C21 C28 1.403 . S
C22 C12 1.476 . S
C22 N17 1.318 . S
C22 C21 1.396 . S
H23 C18 0.929 . S
O24 Mn0 2.385 1_565 S
O24 C2 1.234 1_565 S
O25 Mn0 2.209 . S
O25 Mn1 2.215 . S
O25 C2 1.283 . S
O26 Mn0 2.094 . S
O26 C4 1.240 1_554 S
O27 Mn1 2.117 . S
O27 C4 1.264 1_554 S
C28 C21 1.403 . S
C28 C29 1.399 . S
C28 H34 0.929 . S
C29 C9 1.449 . S
C29 C28 1.399 . S
C29 H35 0.930 . S
H30 C10 0.931 . S
H31 C11 0.930 . S
H32 C19 0.931 . S
H33 C20 0.929 . S
H34 C28 0.929 . S
H35 C29 0.930 . S
Mn36 O41 2.095 . S
Mn36 O51 2.162 . S
Mn36 O52 2.297 . S
Mn36 O60 2.385 . S
Mn36 O61 2.209 . S
Mn36 O62 2.094 . S
Mn37 O42 2.121 . S
Mn37 N44 2.257 . S
Mn37 N53 2.282 . S
Mn37 O61 2.215 . S
Mn37 O63 2.117 . S
C38 O60 1.234 . S
C38 O61 1.283 . S
C39 O51 1.281 . S
C39 O52 1.236 . S
C40 O62 1.240 . S
C40 O63 1.264 . S
O41 Mn36 2.095 . S
O41 C50 1.250 . S
O42 Mn37 2.121 . S
O42 C50 1.258 . S
C43 N44 1.326 . S
C43 C47 1.460 . S
C43 H49 0.929 . S
N44 Mn37 2.257 . S
N44 C43 1.326 . S
N44 C48 1.362 . S
C45 C46 1.258 . S
C45 C48 1.431 . S
C45 C65 1.449 . S
C46 C45 1.258 . S
C46 C47 1.477 . S
C46 H66 0.931 . S
C47 C43 1.460 . S
C47 C46 1.477 . S
C47 H67 0.930 . S
C48 N44 1.362 . S
C48 C45 1.431 . S
C48 C58 1.476 . S
H49 C43 0.929 . S
C50 O41 1.250 . S
C50 O42 1.258 . S
O51 Mn36 2.162 . S
O51 C39 1.281 . S
O52 Mn36 2.297 . S
O52 C39 1.236 . S
N53 Mn37 2.282 . S
N53 C54 1.328 . S
N53 C58 1.318 . S
C54 N53 1.328 . S
C54 C55 1.457 . S
C54 H59 0.929 . S
C55 C54 1.457 . S
C55 C56 1.291 . S
C55 H68 0.931 . S
C56 C55 1.291 . S
C56 C57 1.373 . S
C56 H69 0.929 . S
C57 C56 1.373 . S
C57 C58 1.396 . S
C57 C64 1.403 . S
C58 C48 1.476 . S
C58 N53 1.318 . S
C58 C57 1.396 . S
H59 C54 0.929 . S
O60 Mn36 2.385 . S
O60 C38 1.234 . S
O61 Mn36 2.209 . S
O61 Mn37 2.215 . S
O61 C38 1.283 . S
O62 Mn36 2.094 . S
O62 C40 1.240 . S
O63 Mn37 2.117 . S
O63 C40 1.264 . S
C64 C57 1.403 . S
C64 C65 1.399 . S
C64 H70 0.929 . S
C65 C45 1.449 . S
C65 C64 1.399 . S
C65 H71 0.930 . S
H66 C46 0.931 . S
H67 C47 0.930 . S
H68 C55 0.931 . S
H69 C56 0.929 . S
H70 C64 0.929 . S
H71 C65 0.930 . S
Mn72 O77 2.095 1_455 S
Mn72 O87 2.162 . S
Mn72 O88 2.297 . S
Mn72 O96 2.385 . S
Mn72 O97 2.209 . S
Mn72 O98 2.094 . S
Mn73 O78 2.121 . S
Mn73 N80 2.257 . S
Mn73 N89 2.282 . S
Mn73 O97 2.215 1_655 S
Mn73 O99 2.117 . S
C74 O96 1.234 . S
C74 O97 1.283 . S
C75 O87 1.281 . S
C75 O88 1.236 . S
C76 O98 1.240 . S
C76 O99 1.264 1_455 S
O77 Mn72 2.095 1_655 S
O77 C86 1.250 . S
O78 Mn73 2.121 . S
O78 C86 1.258 . S
C79 N80 1.326 . S
C79 C83 1.460 . S
C79 H85 0.929 . S
N80 Mn73 2.257 . S
N80 C79 1.326 . S
N80 C84 1.362 . S
C81 C82 1.258 . S
C81 C84 1.431 . S
C81 C101 1.449 . S
C82 C81 1.258 . S
C82 C83 1.477 . S
C82 H102 0.931 . S
C83 C79 1.460 . S
C83 C82 1.477 . S
C83 H103 0.930 . S
C84 N80 1.362 . S
C84 C81 1.431 . S
C84 C94 1.476 . S
H85 C79 0.929 . S
C86 O77 1.250 . S
C86 O78 1.258 . S
O87 Mn72 2.162 . S
O87 C75 1.281 . S
O88 Mn72 2.297 . S
O88 C75 1.236 . S
N89 Mn73 2.282 . S
N89 C90 1.328 . S
N89 C94 1.318 . S
C90 N89 1.328 . S
C90 C91 1.457 . S
C90 H95 0.929 1_655 S
C91 C90 1.457 . S
C91 C92 1.291 . S
C91 H104 0.931 1_655 S
C92 C91 1.291 . S
C92 C93 1.373 . S
C92 H105 0.929 . S
C93 C92 1.373 . S
C93 C94 1.396 . S
C93 C100 1.403 . S
C94 C84 1.476 . S
C94 N89 1.318 . S
C94 C93 1.396 . S
H95 C90 0.929 1_455 S
O96 Mn72 2.385 . S
O96 C74 1.234 . S
O97 Mn72 2.209 . S
O97 Mn73 2.215 1_455 S
O97 C74 1.283 . S
O98 Mn72 2.094 . S
O98 C76 1.240 . S
O99 Mn73 2.117 . S
O99 C76 1.264 1_655 S
C100 C93 1.403 . S
C100 C101 1.399 . S
C100 H106 0.929 . S
C101 C81 1.449 . S
C101 C100 1.399 . S
C101 H107 0.930 . S
H102 C82 0.931 . S
H103 C83 0.930 . S
H104 C91 0.931 1_455 S
H105 C92 0.929 . S
H106 C100 0.929 . S
H107 C101 0.930 . S
Mn108 O113 2.095 . S
Mn108 O123 2.162 . S
Mn108 O124 2.297 . S
Mn108 O132 2.385 . S
Mn108 O133 2.209 . S
Mn108 O134 2.094 . S
Mn109 O114 2.121 . S
Mn109 N116 2.257 . S
Mn109 N125 2.282 . S
Mn109 O133 2.215 1_565 S
Mn109 O135 2.119 1_565 S
C110 O132 1.234 . S
C110 O133 1.283 . S
C111 O123 1.281 . S
C111 O124 1.236 . S
C112 O134 1.240 . S
C112 O135 1.260 . S
O113 Mn108 2.095 . S
O113 C122 1.250 1_545 S
O114 Mn109 2.121 . S
O114 C122 1.258 . S
C115 N116 1.326 . S
C115 C119 1.460 . S
C115 H121 0.929 . S
N116 Mn109 2.257 . S
N116 C115 1.326 . S
N116 C120 1.362 . S
C117 C118 1.258 . S
C117 C120 1.431 . S
C117 C137 1.449 . S
C118 C117 1.258 . S
C118 C119 1.477 . S
C118 H138 0.931 . S
C119 C115 1.460 . S
C119 C118 1.477 . S
C119 H139 0.930 . S
C120 N116 1.362 . S
C120 C117 1.431 . S
C120 C130 1.476 . S
H121 C115 0.929 . S
C122 O113 1.250 1_565 S
C122 O114 1.258 . S
O123 Mn108 2.162 . S
O123 C111 1.281 . S
O124 Mn108 2.297 . S
O124 C111 1.236 . S
N125 Mn109 2.282 . S
N125 C126 1.328 . S
N125 C130 1.318 . S
C126 N125 1.328 . S
C126 C127 1.457 . S
C126 H131 0.929 1_565 S
C127 C126 1.457 . S
C127 C128 1.291 . S
C127 H140 0.931 1_565 S
C128 C127 1.291 . S
C128 C129 1.373 . S
C128 H141 0.929 . S
C129 C128 1.373 . S
C129 C130 1.396 . S
C129 C136 1.403 . S
C130 C120 1.476 . S
C130 N125 1.318 . S
C130 C129 1.396 . S
H131 C126 0.929 1_545 S
O132 Mn108 2.385 . S
O132 C110 1.234 . S
O133 Mn108 2.209 . S
O133 Mn109 2.215 1_545 S
O133 C110 1.283 . S
O134 Mn108 2.094 . S
O134 C112 1.240 . S
O135 Mn109 2.119 1_545 S
O135 C112 1.260 . S
C136 C129 1.403 . S
C136 C137 1.399 . S
C136 H142 0.929 . S
C137 C117 1.449 . S
C137 C136 1.399 . S
C137 H143 0.930 . S
H138 C118 0.931 . S
H139 C119 0.930 . S
H140 C127 0.931 1_545 S
H141 C128 0.929 . S
H142 C136 0.929 . S
H143 C137 0.930 . S
Mn144 O149 2.095 . S
Mn144 O159 2.162 . S
Mn144 O160 2.297 . S
Mn144 O168 2.385 . S
Mn144 O169 2.209 . S
Mn144 O170 2.094 . S
Mn145 O150 2.121 . S
Mn145 N152 2.257 . S
Mn145 N161 2.282 . S
Mn145 O169 2.215 . S
Mn145 O171 2.117 . S
C146 O168 1.234 . S
C146 O169 1.283 . S
C147 O159 1.281 . S
C147 O160 1.236 . S
C148 O170 1.240 . S
C148 O171 1.264 . S
O149 Mn144 2.095 . S
O149 C158 1.250 . S
O150 Mn145 2.121 . S
O150 C158 1.258 . S
C151 N152 1.326 . S
C151 C155 1.460 . S
C151 H157 0.929 . S
N152 Mn145 2.257 . S
N152 C151 1.326 . S
N152 C156 1.362 . S
C153 C154 1.258 . S
C153 C156 1.431 . S
C153 C173 1.449 . S
C154 C153 1.258 . S
C154 C155 1.477 . S
C154 H174 0.931 . S
C155 C151 1.460 . S
C155 C154 1.477 . S
C155 H175 0.930 . S
C156 N152 1.362 . S
C156 C153 1.431 . S
C156 C166 1.476 . S
H157 C151 0.929 . S
C158 O149 1.250 . S
C158 O150 1.258 . S
O159 Mn144 2.162 . S
O159 C147 1.281 . S
O160 Mn144 2.297 . S
O160 C147 1.236 . S
N161 Mn145 2.282 . S
N161 C162 1.328 . S
N161 C166 1.318 . S
C162 N161 1.328 . S
C162 C163 1.457 . S
C162 H167 0.929 . S
C163 C162 1.457 . S
C163 C164 1.291 . S
C163 H176 0.931 . S
C164 C163 1.291 . S
C164 C165 1.373 . S
C164 H177 0.929 . S
C165 C164 1.373 . S
C165 C166 1.396 . S
C165 C172 1.403 . S
C166 C156 1.476 . S
C166 N161 1.318 . S
C166 C165 1.396 . S
H167 C162 0.929 . S
O168 Mn144 2.385 . S
O168 C146 1.234 . S
O169 Mn144 2.209 . S
O169 Mn145 2.215 . S
O169 C146 1.283 . S
O170 Mn144 2.094 . S
O170 C148 1.240 . S
O171 Mn145 2.117 . S
O171 C148 1.264 . S
C172 C165 1.403 . S
C172 C173 1.399 . S
C172 H178 0.929 . S
C173 C153 1.449 . S
C173 C172 1.399 . S
C173 H179 0.930 . S
H174 C154 0.931 . S
H175 C155 0.930 . S
H176 C163 0.931 . S
H177 C164 0.929 . S
H178 C172 0.929 . S
H179 C173 0.930 . S
Mn180 O185 2.095 . S
Mn180 O195 2.162 1_455 S
Mn180 O196 2.297 1_455 S
Mn180 O204 2.385 1_455 S
Mn180 O205 2.209 . S
Mn180 O206 2.094 . S
Mn181 O186 2.121 . S
Mn181 N188 2.257 . S
Mn181 N197 2.282 . S
Mn181 O205 2.215 . S
Mn181 O207 2.117 . S
C182 O204 1.234 1_455 S
C182 O205 1.283 . S
C183 O195 1.281 . S
C183 O196 1.236 . S
C184 O206 1.240 . S
C184 O207 1.264 . S
O185 Mn180 2.095 . S
O185 C194 1.250 . S
O186 Mn181 2.121 . S
O186 C194 1.258 . S
C187 N188 1.326 . S
C187 C191 1.460 1_556 S
C187 H193 0.929 . S
N188 Mn181 2.257 . S
N188 C187 1.326 . S
N188 C192 1.362 . S
C189 C190 1.258 . S
C189 C192 1.431 1_554 S
C189 C209 1.449 . S
C190 C189 1.258 . S
C190 C191 1.477 . S
C190 H210 0.931 . S
C191 C187 1.460 1_554 S
C191 C190 1.477 . S
C191 H211 0.930 . S
C192 N188 1.362 . S
C192 C189 1.431 1_556 S
C192 C202 1.476 . S
H193 C187 0.929 . S
C194 O185 1.250 . S
C194 O186 1.258 . S
O195 Mn180 2.162 1_655 S
O195 C183 1.281 . S
O196 Mn180 2.297 1_655 S
O196 C183 1.236 . S
N197 Mn181 2.282 . S
N197 C198 1.328 . S
N197 C202 1.318 . S
C198 N197 1.328 . S
C198 C199 1.457 . S
C198 H203 0.929 . S
C199 C198 1.457 . S
C199 C200 1.291 . S
C199 H212 0.931 . S
C200 C199 1.291 . S
C200 C201 1.373 . S
C200 H213 0.929 . S
C201 C200 1.373 . S
C201 C202 1.396 . S
C201 C208 1.403 1_556 S
C202 C192 1.476 . S
C202 N197 1.318 . S
C202 C201 1.396 . S
H203 C198 0.929 . S
O204 Mn180 2.385 1_655 S
O204 C182 1.234 1_655 S
O205 Mn180 2.209 . S
O205 Mn181 2.215 . S
O205 C182 1.283 . S
O206 Mn180 2.094 . S
O206 C184 1.240 . S
O207 Mn181 2.117 . S
O207 C184 1.264 . S
C208 C201 1.403 1_554 S
C208 C209 1.399 . S
C208 H214 0.929 . S
C209 C189 1.449 . S
C209 C208 1.399 . S
C209 H215 0.930 . S
H210 C190 0.931 . S
H211 C191 0.930 . S
H212 C199 0.931 . S
H213 C200 0.929 . S
H214 C208 0.929 . S
H215 C209 0.930 . S
C216 C217 1.349 . S
C216 C218 1.327 . S
C216 H241 0.950 . S
C217 C216 1.349 . S
C217 C233 1.349 . S
C218 C216 1.327 . S
C218 C237 1.429 . S
C218 H242 0.950 . S
C219 C236 1.574 . S
C219 C238 1.368 . S
C219 H243 0.949 1_545 S
H220 C224 0.949 . S
C221 C222 1.349 . S
C221 C223 1.327 . S
C221 H244 0.950 1_545 S
C222 C221 1.349 . S
C222 C234 1.349 . S
C223 C221 1.327 . S
C223 C239 1.429 . S
C223 H245 0.950 1_545 S
C224 H220 0.949 . S
C224 C232 1.574 . S
C224 C240 1.368 . S
H225 C233 0.950 1_565 S
H226 C231 0.950 1_565 S
H227 C232 0.949 . S
H228 C234 0.950 . S
H229 C235 0.950 . S
H230 C236 0.949 1_565 S
C231 H226 0.950 1_545 S
C231 C233 1.327 . S
C231 C237 1.429 . S
C232 C224 1.574 . S
C232 H227 0.949 . S
C232 C238 1.368 . S
C233 C217 1.349 . S
C233 H225 0.950 1_545 S
C233 C231 1.327 . S
C234 C222 1.349 . S
C234 H228 0.950 . S
C234 C235 1.327 . S
C235 H229 0.950 . S
C235 C234 1.327 . S
C235 C239 1.429 . S
C236 C219 1.574 . S
C236 H230 0.949 1_545 S
C236 C240 1.368 . S
C237 C218 1.429 . S
C237 C231 1.429 . S
C237 C238 1.523 . S
C238 C219 1.368 . S
C238 C232 1.368 . S
C238 C237 1.523 . S
C239 C223 1.429 . S
C239 C235 1.429 . S
C239 C240 1.523 . S
C240 C224 1.368 . S
C240 C236 1.368 . S
C240 C239 1.523 . S
H241 C216 0.950 . S
H242 C218 0.950 . S
H243 C219 0.949 1_565 S
H244 C221 0.950 1_565 S
H245 C223 0.950 1_565 S
C246 C247 1.349 . S
C246 C248 1.327 . S
C246 H271 0.950 . S
C247 C246 1.349 . S
C247 C263 1.349 . S
C248 C246 1.327 . S
C248 C267 1.429 . S
C248 H272 0.950 . S
C249 C266 1.574 . S
C249 C268 1.368 . S
C249 H273 0.949 . S
H250 C254 0.949 . S
C251 C252 1.349 . S
C251 C253 1.327 . S
C251 H274 0.950 . S
C252 C251 1.349 . S
C252 C264 1.349 . S
C253 C251 1.327 . S
C253 C269 1.429 . S
C253 H275 0.950 . S
C254 H250 0.949 . S
C254 C262 1.574 . S
C254 C270 1.368 . S
H255 C263 0.950 . S
H256 C261 0.950 . S
H257 C262 0.949 . S
H258 C264 0.950 . S
H259 C265 0.950 . S
H260 C266 0.949 . S
C261 H256 0.950 . S
C261 C263 1.327 . S
C261 C267 1.429 . S
C262 C254 1.574 . S
C262 H257 0.949 . S
C262 C268 1.368 . S
C263 C247 1.349 . S
C263 H255 0.950 . S
C263 C261 1.327 . S
C264 C252 1.349 . S
C264 H258 0.950 . S
C264 C265 1.327 . S
C265 H259 0.950 . S
C265 C264 1.327 . S
C265 C269 1.429 . S
C266 C249 1.574 . S
C266 H260 0.949 . S
C266 C270 1.368 . S
C267 C248 1.429 . S
C267 C261 1.429 . S
C267 C268 1.523 . S
C268 C249 1.368 . S
C268 C262 1.368 . S
C268 C267 1.523 . S
C269 C253 1.429 . S
C269 C265 1.429 . S
C269 C270 1.523 . S
C270 C254 1.368 . S
C270 C266 1.368 . S
C270 C269 1.523 . S
H271 C246 0.950 . S
H272 C248 0.950 . S
H273 C249 0.949 . S
H274 C251 0.950 . S
H275 C253 0.950 . S
C276 C277 1.349 . S
C276 C278 1.327 . S
C276 H301 0.950 . S
C277 C276 1.349 . S
C277 C293 1.349 1_455 S
C278 C276 1.327 . S
C278 C297 1.429 . S
C278 H302 0.950 . S
C279 C296 1.574 . S
C279 C298 1.368 1_655 S
C279 H303 0.949 . S
H280 C284 0.949 . S
C281 C282 1.349 1_655 S
C281 C283 1.327 . S
C281 H304 0.950 . S
C282 C281 1.349 1_455 S
C282 C294 1.349 . S
C283 C281 1.327 . S
C283 C299 1.429 1_655 S
C283 H305 0.950 . S
C284 H280 0.949 . S
C284 C292 1.574 . S
C284 C300 1.368 . S
H285 C293 0.950 . S
H286 C291 0.950 . S
H287 C292 0.949 . S
H288 C294 0.950 . S
H289 C295 0.950 . S
H290 C296 0.949 . S
C291 H286 0.950 . S
C291 C293 1.327 . S
C291 C297 1.429 1_655 S
C292 C284 1.574 . S
C292 H287 0.949 . S
C292 C298 1.368 . S
C293 C277 1.349 1_655 S
C293 H285 0.950 . S
C293 C291 1.327 . S
C294 C282 1.349 . S
C294 H288 0.950 . S
C294 C295 1.327 . S
C295 H289 0.950 . S
C295 C294 1.327 . S
C295 C299 1.429 . S
C296 C279 1.574 . S
C296 H290 0.949 . S
C296 C300 1.368 1_655 S
C297 C278 1.429 . S
C297 C291 1.429 1_455 S
C297 C298 1.523 . S
C298 C279 1.368 1_455 S
C298 C292 1.368 . S
C298 C297 1.523 . S
C299 C283 1.429 1_455 S
C299 C295 1.429 . S
C299 C300 1.523 . S
C300 C284 1.368 . S
C300 C296 1.368 1_455 S
C300 C299 1.523 . S
H301 C276 0.950 . S
H302 C278 0.950 . S
H303 C279 0.949 . S
H304 C281 0.950 . S
H305 C283 0.950 . S
C306 C307 1.349 . S
C306 C308 1.327 . S
C306 H331 0.950 1_545 S
C307 C306 1.349 . S
C307 C323 1.349 . S
C308 C306 1.327 . S
C308 C327 1.429 . S
C308 H332 0.950 1_545 S
C309 C326 1.574 . S
C309 C328 1.368 . S
C309 H333 0.949 . S
H310 C314 0.949 1_565 S
C311 C312 1.349 . S
C311 C313 1.327 . S
C311 H334 0.950 . S
C312 C311 1.349 . S
C312 C324 1.349 . S
C313 C311 1.327 . S
C313 C329 1.429 . S
C313 H335 0.950 . S
C314 H310 0.949 1_545 S
C314 C322 1.574 . S
C314 C330 1.368 . S
H315 C323 0.950 . S
H316 C321 0.950 . S
H317 C322 0.949 1_565 S
H318 C324 0.950 1_565 S
H319 C325 0.950 1_565 S
H320 C326 0.949 . S
C321 H316 0.950 . S
C321 C323 1.327 . S
C321 C327 1.429 . S
C322 C314 1.574 . S
C322 H317 0.949 1_545 S
C322 C328 1.368 . S
C323 C307 1.349 . S
C323 H315 0.950 . S
C323 C321 1.327 . S
C324 C312 1.349 . S
C324 H318 0.950 1_545 S
C324 C325 1.327 . S
C325 H319 0.950 1_545 S
C325 C324 1.327 . S
C325 C329 1.429 . S
C326 C309 1.574 . S
C326 H320 0.949 . S
C326 C330 1.368 . S
C327 C308 1.429 . S
C327 C321 1.429 . S
C327 C328 1.523 . S
C328 C309 1.368 . S
C328 C322 1.368 . S
C328 C327 1.523 . S
C329 C313 1.429 . S
C329 C325 1.429 . S
C329 C330 1.523 . S
C330 C314 1.368 . S
C330 C326 1.368 . S
C330 C329 1.523 . S
H331 C306 0.950 1_565 S
H332 C308 0.950 1_565 S
H333 C309 0.949 . S
H334 C311 0.950 . S
H335 C313 0.950 . S
C336 C337 1.349 . S
C336 C338 1.327 . S
C336 H361 0.950 . S
C337 C336 1.349 . S
C337 C353 1.349 . S
C338 C336 1.327 . S
C338 C357 1.429 . S
C338 H362 0.950 . S
C339 C356 1.574 1_554 S
C339 C358 1.368 . S
C339 H363 0.949 . S
H340 C344 0.949 . S
C341 C342 1.349 . S
C341 C343 1.327 . S
C341 H364 0.950 . S
C342 C341 1.349 . S
C342 C354 1.349 . S
C343 C341 1.327 . S
C343 C359 1.429 . S
C343 H365 0.950 . S
C344 H340 0.949 . S
C344 C352 1.574 . S
C344 C360 1.368 . S
H345 C353 0.950 . S
H346 C351 0.950 . S
H347 C352 0.949 . S
H348 C354 0.950 . S
H349 C355 0.950 . S
H350 C356 0.949 . S
C351 H346 0.950 . S
C351 C353 1.327 . S
C351 C357 1.429 . S
C352 C344 1.574 . S
C352 H347 0.949 . S
C352 C358 1.368 1_556 S
C353 C337 1.349 . S
C353 H345 0.950 . S
C353 C351 1.327 . S
C354 C342 1.349 . S
C354 H348 0.950 . S
C354 C355 1.327 . S
C355 H349 0.950 . S
C355 C354 1.327 . S
C355 C359 1.429 . S
C356 C339 1.574 1_556 S
C356 H350 0.949 . S
C356 C360 1.368 . S
C357 C338 1.429 . S
C357 C351 1.429 . S
C357 C358 1.523 . S
C358 C339 1.368 . S
C358 C352 1.368 1_554 S
C358 C357 1.523 . S
C359 C343 1.429 . S
C359 C355 1.429 . S
C359 C360 1.523 . S
C360 C344 1.368 . S
C360 C356 1.368 . S
C360 C359 1.523 . S
H361 C336 0.950 . S
H362 C338 0.950 . S
H363 C339 0.949 . S
H364 C341 0.950 . S
H365 C343 0.950 . S
C366 C367 1.349 . S
C366 C368 1.327 . S
C366 H391 0.950 . S
C367 C366 1.349 . S
C367 C383 1.349 1_554 S
C368 C366 1.327 . S
C368 C387 1.429 . S
C368 H392 0.950 . S
C369 C386 1.574 . S
C369 C388 1.368 . S
C369 H393 0.949 . S
H370 C374 0.949 . S
C371 C372 1.349 . S
C371 C373 1.327 . S
C371 H394 0.950 . S
C372 C371 1.349 . S
C372 C384 1.349 . S
C373 C371 1.327 . S
C373 C389 1.429 . S
C373 H395 0.950 . S
C374 H370 0.949 . S
C374 C382 1.574 . S
C374 C390 1.368 . S
H375 C383 0.950 . S
H376 C381 0.950 . S
H377 C382 0.949 . S
H378 C384 0.950 . S
H379 C385 0.950 . S
H380 C386 0.949 . S
C381 H376 0.950 . S
C381 C383 1.327 1_554 S
C381 C387 1.429 . S
C382 C374 1.574 . S
C382 H377 0.949 . S
C382 C388 1.368 . S
C383 C367 1.349 1_556 S
C383 H375 0.950 . S
C383 C381 1.327 1_556 S
C384 C372 1.349 . S
C384 H378 0.950 . S
C384 C385 1.327 . S
C385 H379 0.950 . S
C385 C384 1.327 . S
C385 C389 1.429 . S
C386 C369 1.574 . S
C386 H380 0.949 . S
C386 C390 1.368 . S
C387 C368 1.429 . S
C387 C381 1.429 . S
C387 C388 1.523 . S
C388 C369 1.368 . S
C388 C382 1.368 . S
C388 C387 1.523 . S
C389 C373 1.429 . S
C389 C385 1.429 . S
C389 C390 1.523 . S
C390 C374 1.368 . S
C390 C386 1.368 . S
C390 C389 1.523 . S
H391 C366 0.950 . S
H392 C368 0.950 . S
H393 C369 0.949 . S
H394 C371 0.950 . S
H395 C373 0.950 . S
C396 C397 1.349 . S
C396 C398 1.327 . S
C396 H421 0.950 . S
C397 C396 1.349 . S
C397 C413 1.349 . S
C398 C396 1.327 . S
C398 C417 1.429 . S
C398 H422 0.950 . S
C399 C416 1.574 . S
C399 C418 1.368 . S
C399 H423 0.949 . S
H400 C404 0.949 . S
C401 C402 1.349 . S
C401 C403 1.327 . S
C401 H424 0.950 . S
C402 C401 1.349 . S
C402 C414 1.349 . S
C403 C401 1.327 . S
C403 C419 1.429 . S
C403 H425 0.950 . S
C404 H400 0.949 . S
C404 C412 1.574 . S
C404 C420 1.368 . S
H405 C413 0.950 . S
H406 C411 0.950 . S
H407 C412 0.949 . S
H408 C414 0.950 . S
H409 C415 0.950 . S
H410 C416 0.949 . S
C411 H406 0.950 . S
C411 C413 1.327 . S
C411 C417 1.429 . S
C412 C404 1.574 . S
C412 H407 0.949 . S
C412 C418 1.368 . S
C413 C397 1.349 . S
C413 H405 0.950 . S
C413 C411 1.327 . S
C414 C402 1.349 . S
C414 H408 0.950 . S
C414 C415 1.327 . S
C415 H409 0.950 . S
C415 C414 1.327 . S
C415 C419 1.429 . S
C416 C399 1.574 . S
C416 H410 0.949 . S
C416 C420 1.368 . S
C417 C398 1.429 . S
C417 C411 1.429 . S
C417 C418 1.523 . S
C418 C399 1.368 . S
C418 C412 1.368 . S
C418 C417 1.523 . S
C419 C403 1.429 . S
C419 C415 1.429 . S
C419 C420 1.523 . S
C420 C404 1.368 . S
C420 C416 1.368 . S
C420 C419 1.523 . S
H421 C396 0.950 . S
H422 C398 0.950 . S
H423 C399 0.949 . S
H424 C401 0.950 . S
H425 C403 0.950 . S
C426 C427 1.349 . S
C426 C428 1.327 . S
C426 H451 0.950 . S
C427 C426 1.349 . S
C427 C443 1.349 . S
C428 C426 1.327 . S
C428 C447 1.429 . S
C428 H452 0.950 . S
C429 C446 1.574 . S
C429 C448 1.368 . S
C429 H453 0.949 . S
H430 C434 0.949 . S
C431 C432 1.349 . S
C431 C433 1.327 . S
C431 H454 0.950 . S
C432 C431 1.349 . S
C432 C444 1.349 . S
C433 C431 1.327 . S
C433 C449 1.429 . S
C433 H455 0.950 . S
C434 H430 0.949 . S
C434 C442 1.574 . S
C434 C450 1.368 . S
H435 C443 0.950 . S
H436 C441 0.950 . S
H437 C442 0.949 . S
H438 C444 0.950 . S
H439 C445 0.950 . S
H440 C446 0.949 . S
C441 H436 0.950 . S
C441 C443 1.327 . S
C441 C447 1.429 . S
C442 C434 1.574 . S
C442 H437 0.949 . S
C442 C448 1.368 . S
C443 C427 1.349 . S
C443 H435 0.950 . S
C443 C441 1.327 . S
C444 C432 1.349 . S
C444 H438 0.950 . S
C444 C445 1.327 . S
C445 H439 0.950 . S
C445 C444 1.327 . S
C445 C449 1.429 . S
C446 C429 1.574 . S
C446 H440 0.949 . S
C446 C450 1.368 . S
C447 C428 1.429 . S
C447 C441 1.429 . S
C447 C448 1.523 . S
C448 C429 1.368 . S
C448 C442 1.368 . S
C448 C447 1.523 . S
C449 C433 1.429 . S
C449 C445 1.429 . S
C449 C450 1.523 . S
C450 C434 1.368 . S
C450 C446 1.368 . S
C450 C449 1.523 . S
H451 C426 0.950 . S
H452 C428 0.950 . S
H453 C429 0.949 . S
H454 C431 0.950 . S
H455 C433 0.950 . S
C456 C457 1.349 . S
C456 C458 1.327 . S
C456 H481 0.950 . S
C457 C456 1.349 . S
C457 C473 1.349 . S
C458 C456 1.327 . S
C458 C477 1.429 . S
C458 H482 0.950 . S
C459 C476 1.574 . S
C459 C478 1.368 . S
C459 H483 0.949 . S
H460 C464 0.949 . S
C461 C462 1.349 . S
C461 C463 1.327 . S
C461 H484 0.950 . S
C462 C461 1.349 . S
C462 C474 1.349 . S
C463 C461 1.327 . S
C463 C479 1.429 . S
C463 H485 0.950 . S
C464 H460 0.949 . S
C464 C472 1.574 . S
C464 C480 1.368 . S
H465 C473 0.950 . S
H466 C471 0.950 . S
H467 C472 0.949 . S
H468 C474 0.950 . S
H469 C475 0.950 . S
H470 C476 0.949 . S
C471 H466 0.950 . S
C471 C473 1.327 . S
C471 C477 1.429 . S
C472 C464 1.574 . S
C472 H467 0.949 . S
C472 C478 1.368 . S
C473 C457 1.349 . S
C473 H465 0.950 . S
C473 C471 1.327 . S
C474 C462 1.349 . S
C474 H468 0.950 . S
C474 C475 1.327 . S
C475 H469 0.950 . S
C475 C474 1.327 . S
C475 C479 1.429 . S
C476 C459 1.574 . S
C476 H470 0.949 . S
C476 C480 1.368 . S
C477 C458 1.429 . S
C477 C471 1.429 . S
C477 C478 1.523 . S
C478 C459 1.368 . S
C478 C472 1.368 . S
C478 C477 1.523 . S
C479 C463 1.429 . S
C479 C475 1.429 . S
C479 C480 1.523 . S
C480 C464 1.368 . S
C480 C476 1.368 . S
C480 C479 1.523 . S
H481 C456 0.950 . S
H482 C458 0.950 . S
H483 C459 0.949 . S
H484 C461 0.950 . S
H485 C463 0.950 . S
C486 C487 1.349 . S
C486 C488 1.327 . S
C486 H511 0.950 . S
C487 C486 1.349 . S
C487 C503 1.349 . S
C488 C486 1.327 . S
C488 C507 1.429 . S
C488 H512 0.950 . S
C489 C506 1.574 . S
C489 C508 1.368 . S
C489 H513 0.949 . S
H490 C494 0.949 . S
C491 C492 1.349 . S
C491 C493 1.327 . S
C491 H514 0.950 . S
C492 C491 1.349 . S
C492 C504 1.349 . S
C493 C491 1.327 . S
C493 C509 1.429 . S
C493 H515 0.950 . S
C494 H490 0.949 . S
C494 C502 1.574 . S
C494 C510 1.368 . S
H495 C503 0.950 . S
H496 C501 0.950 . S
H497 C502 0.949 . S
H498 C504 0.950 . S
H499 C505 0.950 . S
H500 C506 0.949 . S
C501 H496 0.950 . S
C501 C503 1.327 . S
C501 C507 1.429 . S
C502 C494 1.574 . S
C502 H497 0.949 . S
C502 C508 1.368 . S
C503 C487 1.349 . S
C503 H495 0.950 . S
C503 C501 1.327 . S
C504 C492 1.349 . S
C504 H498 0.950 . S
C504 C505 1.327 . S
C505 H499 0.950 . S
C505 C504 1.327 . S
C505 C509 1.429 . S
C506 C489 1.574 . S
C506 H500 0.949 . S
C506 C510 1.368 . S
C507 C488 1.429 . S
C507 C501 1.429 . S
C507 C508 1.523 . S
C508 C489 1.368 . S
C508 C502 1.368 . S
C508 C507 1.523 . S
C509 C493 1.429 . S
C509 C505 1.429 . S
C509 C510 1.523 . S
C510 C494 1.368 . S
C510 C506 1.368 . S
C510 C509 1.523 . S
H511 C486 0.950 . S
H512 C488 0.950 . S
H513 C489 0.949 . S
H514 C491 0.950 . S
H515 C493 0.950 . S
C516 C517 1.349 . S
C516 C518 1.327 . S
C516 H541 0.950 . S
C517 C516 1.349 . S
C517 C533 1.349 . S
C518 C516 1.327 . S
C518 C537 1.429 . S
C518 H542 0.950 . S
C519 C536 1.574 . S
C519 C538 1.368 . S
C519 H543 0.949 . S
H520 C524 0.949 . S
C521 C522 1.349 . S
C521 C523 1.327 . S
C521 H544 0.950 . S
C522 C521 1.349 . S
C522 C534 1.349 . S
C523 C521 1.327 . S
C523 C539 1.429 . S
C523 H545 0.950 . S
C524 H520 0.949 . S
C524 C532 1.574 . S
C524 C540 1.368 . S
H525 C533 0.950 . S
H526 C531 0.950 . S
H527 C532 0.949 . S
H528 C534 0.950 . S
H529 C535 0.950 . S
H530 C536 0.949 . S
C531 H526 0.950 . S
C531 C533 1.327 . S
C531 C537 1.429 . S
C532 C524 1.574 . S
C532 H527 0.949 . S
C532 C538 1.368 . S
C533 C517 1.349 . S
C533 H525 0.950 . S
C533 C531 1.327 . S
C534 C522 1.349 . S
C534 H528 0.950 . S
C534 C535 1.327 . S
C535 H529 0.950 . S
C535 C534 1.327 . S
C535 C539 1.429 . S
C536 C519 1.574 . S
C536 H530 0.949 . S
C536 C540 1.368 . S
C537 C518 1.429 . S
C537 C531 1.429 . S
C537 C538 1.523 . S
C538 C519 1.368 . S
C538 C532 1.368 . S
C538 C537 1.523 . S
C539 C523 1.429 . S
C539 C535 1.429 . S
C539 C540 1.523 . S
C540 C524 1.368 . S
C540 C536 1.368 . S
C540 C539 1.523 . S
H541 C516 0.950 . S
H542 C518 0.950 . S
H543 C519 0.949 . S
H544 C521 0.950 . S
H545 C523 0.950 . S
C546 C547 1.349 . S
C546 C548 1.327 . S
C546 H571 0.950 . S
C547 C546 1.349 . S
C547 C563 1.349 . S
C548 C546 1.327 . S
C548 C567 1.429 . S
C548 H572 0.950 1_556 S
C549 C566 1.574 . S
C549 C568 1.368 . S
C549 H573 0.949 . S
H550 C554 0.949 . S
C551 C552 1.349 . S
C551 C553 1.327 1_554 S
C551 H574 0.950 1_554 S
C552 C551 1.349 . S
C552 C564 1.349 . S
C553 C551 1.327 1_556 S
C553 C569 1.429 1_556 S
C553 H575 0.950 . S
C554 H550 0.949 . S
C554 C562 1.574 . S
C554 C570 1.368 1_554 S
H555 C563 0.950 . S
H556 C561 0.950 . S
H557 C562 0.949 . S
H558 C564 0.950 . S
H559 C565 0.950 . S
H560 C566 0.949 . S
C561 H556 0.950 . S
C561 C563 1.327 . S
C561 C567 1.429 . S
C562 C554 1.574 . S
C562 H557 0.949 . S
C562 C568 1.368 1_554 S
C563 C547 1.349 . S
C563 H555 0.950 . S
C563 C561 1.327 . S
C564 C552 1.349 . S
C564 H558 0.950 . S
C564 C565 1.327 . S
C565 H559 0.950 . S
C565 C564 1.327 . S
C565 C569 1.429 . S
C566 C549 1.574 . S
C566 H560 0.949 . S
C566 C570 1.368 . S
C567 C548 1.429 . S
C567 C561 1.429 . S
C567 C568 1.523 . S
C568 C549 1.368 . S
C568 C562 1.368 1_556 S
C568 C567 1.523 . S
C569 C553 1.429 1_554 S
C569 C565 1.429 . S
C569 C570 1.523 1_554 S
C570 C554 1.368 1_556 S
C570 C566 1.368 . S
C570 C569 1.523 1_556 S
H571 C546 0.950 . S
H572 C548 0.950 1_554 S
H573 C549 0.949 . S
H574 C551 0.950 1_556 S
H575 C553 0.950 . S
C217 C2 1.616 . S
C222 C112 1.621 . S
C247 C38 1.616 . S
C252 C148 1.621 . S
C277 C184 1.621 . S
C282 C74 1.616 . S
C307 C4 1.621 . S
C312 C110 1.616 . S
C337 C40 1.622 . S
C342 C146 1.616 . S
C367 C182 1.616 1_554 S
C372 C76 1.621 . S
C397 C50 1.264 . S
C402 C3 1.331 . S
C427 C86 1.264 . S
C432 C39 1.331 . S
C457 C75 1.331 . S
C462 C122 1.264 . S
C487 C158 1.264 . S
C492 C111 1.332 . S
C517 C194 1.264 . S
C522 C147 1.331 . S
C547 C183 1.331 . S
C552 C14 1.264 . S
