# Generated by pormake.
# Topology unv, (4)-cn, num edge types: 1
# Building blocks:
#     Node 0, Type 0, BuildingBlock: CEKHIL_clean_sbu_0, # of connection points: 4
#     Node 1, Type 0, BuildingBlock: CEKHIL_clean_sbu_0, # of connection points: 4
#     Node 2, Type 0, BuildingBlock: CEKHIL_clean_sbu_0, # of connection points: 4
#     Node 3, Type 0, BuildingBlock: CEKHIL_clean_sbu_0, # of connection points: 4
#     Node 4, Type 0, BuildingBlock: CEKHIL_clean_sbu_0, # of connection points: 4
#     Node 5, Type 0, BuildingBlock: CEKHIL_clean_sbu_0, # of connection points: 4
#     Node 6, Type 0, BuildingBlock: CEKHIL_clean_sbu_0, # of connection points: 4
#     Node 7, Type 0, BuildingBlock: CEKHIL_clean_sbu_0, # of connection points: 4
#     Node 8, Type 0, BuildingBlock: CEKHIL_clean_sbu_0, # of connection points: 4
#     Node 9, Type 0, BuildingBlock: CEKHIL_clean_sbu_0, # of connection points: 4
#     Node 10, Type 0, BuildingBlock: CEKHIL_clean_sbu_0, # of connection points: 4
#     Node 11, Type 0, BuildingBlock: CEKHIL_clean_sbu_0, # of connection points: 4
#     Node 12, Type 0, BuildingBlock: CEKHIL_clean_sbu_0, # of connection points: 4
#     Node 13, Type 0, BuildingBlock: CEKHIL_clean_sbu_0, # of connection points: 4
#     Node 14, Type 0, BuildingBlock: CEKHIL_clean_sbu_0, # of connection points: 4
#     Node 15, Type 0, BuildingBlock: CEKHIL_clean_sbu_0, # of connection points: 4
#     Node 16, Type 0, BuildingBlock: CEKHIL_clean_sbu_0, # of connection points: 4
#     Node 17, Type 0, BuildingBlock: CEKHIL_clean_sbu_0, # of connection points: 4
#     Node 18, Type 0, BuildingBlock: CEKHIL_clean_sbu_0, # of connection points: 4
#     Node 19, Type 0, BuildingBlock: CEKHIL_clean_sbu_0, # of connection points: 4
#     Node 20, Type 0, BuildingBlock: CEKHIL_clean_sbu_0, # of connection points: 4
#     Node 21, Type 0, BuildingBlock: CEKHIL_clean_sbu_0, # of connection points: 4
#     Node 22, Type 0, BuildingBlock: CEKHIL_clean_sbu_0, # of connection points: 4
#     Node 23, Type 0, BuildingBlock: CEKHIL_clean_sbu_0, # of connection points: 4
#     Edge 24, Type (0, 0), BuildingBlock: EZIPEK_clean_linker_0, # of connection points: 2
#     Edge 25, Type (0, 0), BuildingBlock: EZIPEK_clean_linker_0, # of connection points: 2
#     Edge 26, Type (0, 0), BuildingBlock: EZIPEK_clean_linker_0, # of connection points: 2
#     Edge 27, Type (0, 0), BuildingBlock: EZIPEK_clean_linker_0, # of connection points: 2
#     Edge 28, Type (0, 0), BuildingBlock: EZIPEK_clean_linker_0, # of connection points: 2
#     Edge 29, Type (0, 0), BuildingBlock: EZIPEK_clean_linker_0, # of connection points: 2
#     Edge 30, Type (0, 0), BuildingBlock: EZIPEK_clean_linker_0, # of connection points: 2
#     Edge 31, Type (0, 0), BuildingBlock: EZIPEK_clean_linker_0, # of connection points: 2
#     Edge 32, Type (0, 0), BuildingBlock: EZIPEK_clean_linker_0, # of connection points: 2
#     Edge 33, Type (0, 0), BuildingBlock: EZIPEK_clean_linker_0, # of connection points: 2
#     Edge 34, Type (0, 0), BuildingBlock: EZIPEK_clean_linker_0, # of connection points: 2
#     Edge 35, Type (0, 0), BuildingBlock: EZIPEK_clean_linker_0, # of connection points: 2
#     Edge 36, Type (0, 0), BuildingBlock: EZIPEK_clean_linker_0, # of connection points: 2
#     Edge 37, Type (0, 0), BuildingBlock: EZIPEK_clean_linker_0, # of connection points: 2
#     Edge 38, Type (0, 0), BuildingBlock: EZIPEK_clean_linker_0, # of connection points: 2
#     Edge 39, Type (0, 0), BuildingBlock: EZIPEK_clean_linker_0, # of connection points: 2
#     Edge 40, Type (0, 0), BuildingBlock: EZIPEK_clean_linker_0, # of connection points: 2
#     Edge 41, Type (0, 0), BuildingBlock: EZIPEK_clean_linker_0, # of connection points: 2
#     Edge 42, Type (0, 0), BuildingBlock: EZIPEK_clean_linker_0, # of connection points: 2
#     Edge 43, Type (0, 0), BuildingBlock: EZIPEK_clean_linker_0, # of connection points: 2
#     Edge 44, Type (0, 0), BuildingBlock: EZIPEK_clean_linker_0, # of connection points: 2
#     Edge 45, Type (0, 0), BuildingBlock: EZIPEK_clean_linker_0, # of connection points: 2
#     Edge 46, Type (0, 0), BuildingBlock: EZIPEK_clean_linker_0, # of connection points: 2
#     Edge 47, Type (0, 0), BuildingBlock: EZIPEK_clean_linker_0, # of connection points: 2
#     Edge 48, Type (0, 0), BuildingBlock: EZIPEK_clean_linker_0, # of connection points: 2
#     Edge 49, Type (0, 0), BuildingBlock: EZIPEK_clean_linker_0, # of connection points: 2
#     Edge 50, Type (0, 0), BuildingBlock: EZIPEK_clean_linker_0, # of connection points: 2
#     Edge 51, Type (0, 0), BuildingBlock: EZIPEK_clean_linker_0, # of connection points: 2
#     Edge 52, Type (0, 0), BuildingBlock: EZIPEK_clean_linker_0, # of connection points: 2
#     Edge 53, Type (0, 0), BuildingBlock: EZIPEK_clean_linker_0, # of connection points: 2
#     Edge 54, Type (0, 0), BuildingBlock: EZIPEK_clean_linker_0, # of connection points: 2
#     Edge 55, Type (0, 0), BuildingBlock: EZIPEK_clean_linker_0, # of connection points: 2
#     Edge 56, Type (0, 0), BuildingBlock: EZIPEK_clean_linker_0, # of connection points: 2
#     Edge 57, Type (0, 0), BuildingBlock: EZIPEK_clean_linker_0, # of connection points: 2
#     Edge 58, Type (0, 0), BuildingBlock: EZIPEK_clean_linker_0, # of connection points: 2
#     Edge 59, Type (0, 0), BuildingBlock: EZIPEK_clean_linker_0, # of connection points: 2
#     Edge 60, Type (0, 0), BuildingBlock: EZIPEK_clean_linker_0, # of connection points: 2
#     Edge 61, Type (0, 0), BuildingBlock: EZIPEK_clean_linker_0, # of connection points: 2
#     Edge 62, Type (0, 0), BuildingBlock: EZIPEK_clean_linker_0, # of connection points: 2
#     Edge 63, Type (0, 0), BuildingBlock: EZIPEK_clean_linker_0, # of connection points: 2
#     Edge 64, Type (0, 0), BuildingBlock: EZIPEK_clean_linker_0, # of connection points: 2
#     Edge 65, Type (0, 0), BuildingBlock: EZIPEK_clean_linker_0, # of connection points: 2
#     Edge 66, Type (0, 0), BuildingBlock: EZIPEK_clean_linker_0, # of connection points: 2
#     Edge 67, Type (0, 0), BuildingBlock: EZIPEK_clean_linker_0, # of connection points: 2
#     Edge 68, Type (0, 0), BuildingBlock: EZIPEK_clean_linker_0, # of connection points: 2
#     Edge 69, Type (0, 0), BuildingBlock: EZIPEK_clean_linker_0, # of connection points: 2
#     Edge 70, Type (0, 0), BuildingBlock: EZIPEK_clean_linker_0, # of connection points: 2
#     Edge 71, Type (0, 0), BuildingBlock: EZIPEK_clean_linker_0, # of connection points: 2
# Relax obj value: 0.322
# Max RMSD: 0.238
# Mean RMSD: 0.214
data_MOF--net-unv--node1-CEKHIL_clean_sbu_0--edge1-EZIPEK_clean_linker_0
_symmetry_space_group_name_H-M    P1
_symmetry_Int_Tables_number       1
_symmetry_cell_setting            triclinic
loop_
_symmetry_equiv_pos_as_xyz
'x, y, z'
_cell_length_a     35.66641
_cell_length_b     35.427011
_cell_length_c     35.428621
_cell_angle_alpha  89.988914
_cell_angle_beta   90.07116
_cell_angle_gamma 89.946909
loop_
_atom_site_label
_atom_site_type_symbol
_atom_site_fract_x
_atom_site_fract_y
_atom_site_fract_z
_atom_type_partial_charge
Co0 Co 0.00612 0.10371 0.37356 0.0
O1 O 0.02801 0.14732 0.34933 0.0
O2 O 0.9674 0.13431 0.35043 0.0
C3 C 0.03926 0.11098 0.42785 0.0
O4 O 0.97269 0.06365 0.39754 0.0
Co5 Co 0.05346 0.03565 0.40277 0.0
O6 O 0.00792 0.02407 0.43242 0.0
C7 C 0.02694 0.03782 0.3229 0.0
C8 C -0.00608 0.15832 0.34272 0.0
C9 C 0.97628 0.03693 0.4219 0.0
O10 O 0.01172 0.07073 0.32703 0.0
O11 O 0.0452 0.02073 0.34895 0.0
O12 O 0.00892 0.1302 0.42203 0.0
O13 O 0.04948 0.08978 0.40011 0.0
Co14 Co 0.98121 0.37762 0.36761 0.0
O15 O 0.95127 0.34064 0.3418 0.0
O16 O 0.01289 0.34007 0.34307 0.0
C17 C 0.95265 0.37257 0.42481 0.0
O18 O 0.01965 0.41138 0.39402 0.0
Co19 Co 0.93681 0.44814 0.39501 0.0
O20 O 0.98915 0.46677 0.3954 0.0
C21 C 0.96016 0.44525 0.3161 0.0
C22 C 0.98177 0.32189 0.33632 0.0
C23 C 0.01824 0.44682 0.40174 0.0
O24 O 0.97811 0.41377 0.32188 0.0
O25 O 0.93962 0.46114 0.34091 0.0
O26 O 0.97811 0.34868 0.41495 0.0
O27 O 0.94128 0.39443 0.39805 0.0
Co28 Co -0.00249 0.89173 0.12819 0.0
O29 O 0.02665 0.84899 0.14497 0.0
O30 O 0.96515 0.85244 0.14912 0.0
C31 C 0.0251 0.89568 0.07071 0.0
O32 O 0.95842 0.93149 0.11298 0.0
Co33 Co 0.03906 0.96693 0.10711 0.0
O34 O 0.98894 0.98171 0.08849 0.0
C35 C 0.02091 0.94972 0.18713 0.0
C36 C -0.00459 0.83205 0.15253 0.0
C37 C 0.95891 0.96413 0.09675 0.0
O38 O 0.00446 0.91834 0.17856 0.0
O39 O 0.03799 0.97067 0.16329 0.0
O40 O -0.0022 0.87228 0.07624 0.0
O41 O 0.03679 0.9133 0.10023 0.0
Co42 Co 0.98372 0.61059 0.13611 0.0
O43 O 0.95719 0.65464 0.15442 0.0
O44 O 0.01768 0.64425 0.16249 0.0
C45 C 0.9588 0.6139 0.07686 0.0
O46 O 0.02197 0.57118 0.11938 0.0
Co47 Co 0.9422 0.53956 0.10538 0.0
O48 O 0.99253 0.52513 0.08714 0.0
C49 C 0.96006 0.5453 0.18734 0.0
C50 C 0.98973 0.6678 0.1642 0.0
C51 C 0.02219 0.54095 0.09933 0.0
O52 O 0.97365 0.57905 0.18349 0.0
O53 O 0.94524 0.52663 0.16023 0.0
O54 O 0.98679 0.63498 0.08642 0.0
O55 O 0.94474 0.5938 0.10373 0.0
Co56 Co 0.37893 0.00142 0.10318 0.0
O57 O 0.35842 0.03456 0.14129 0.0
O58 O 0.35384 0.97252 0.14262 0.0
C59 C 0.43562 0.0294 0.10138 0.0
O60 O 0.39909 0.96088 0.06691 0.0
Co61 Co 0.4098 0.0047 0.02989 0.0
O62 O 0.39925 0.9605 0.06662 0.0
C63 C 0.32928 0.01132 0.03409 0.0
C64 C 0.34876 0.00458 0.1599 0.0
C65 C 0.40384 0.92527 0.06376 0.0
O66 O 0.33174 0.0059 0.07026 0.0
O67 O 0.35789 0.01336 0.01258 0.0
O68 O 0.42778 0.00514 0.12767 0.0
O69 O 0.40993 0.03583 0.07644 0.0
Co70 Co 0.60759 0.51091 0.10584 0.0
O71 O 0.62984 0.47962 0.14426 0.0
O72 O 0.62877 0.54146 0.14729 0.0
C73 C 0.55373 0.47742 0.10513 0.0
O74 O 0.58581 0.55066 0.06915 0.0
Co75 Co 0.58159 0.47164 0.03031 0.0
O76 O 0.55258 0.51873 0.02513 0.0
C77 C 0.66068 0.49846 0.04036 0.0
C78 C 0.63579 0.50944 0.16421 0.0
C79 C 0.56335 0.5494 0.04034 0.0
O80 O 0.65538 0.51024 0.07455 0.0
O81 O 0.63559 0.48193 0.02046 0.0
O82 O 0.55818 0.50421 0.12951 0.0
O83 O 0.58223 0.47055 0.08409 0.0
Co84 Co 0.36084 0.98399 0.37526 0.0
O85 O 0.33669 0.9644 0.3304 0.0
O86 O 0.33768 0.02426 0.34628 0.0
C87 C 0.41701 0.95407 0.36671 0.0
O88 O 0.38552 0.01458 0.41744 0.0
Co89 Co 0.38427 0.92742 0.43829 0.0
O90 O 0.40215 0.97383 0.46346 0.0
C91 C 0.30687 0.95556 0.43764 0.0
C92 C 0.32962 -0.00097 0.32085 0.0
C93 C 0.40007 0.00712 0.44994 0.0
O94 O 0.31397 0.9764 0.40835 0.0
O95 O 0.33028 0.93205 0.45153 0.0
O96 O 0.40879 0.9844 0.34824 0.0
O97 O 0.38918 0.94007 0.38552 0.0
Co98 Co 0.62387 0.4894 0.38474 0.0
O99 O 0.6468 0.5199 0.34529 0.0
O100 O 0.64272 0.45826 0.34414 0.0
C101 C 0.57056 0.52527 0.38938 0.0
O102 O 0.59963 0.44752 0.41687 0.0
Co103 Co 0.606 0.52048 0.46363 0.0
O104 O 0.58016 0.47238 0.4719 0.0
C105 C 0.68287 0.499 0.44797 0.0
C106 C 0.65164 0.48895 0.32624 0.0
C107 C 0.58238 0.44521 0.44878 0.0
O108 O 0.67334 0.48585 0.41506 0.0
O109 O 0.66052 0.5166 0.4697 0.0
O110 O 0.57427 0.50039 0.36279 0.0
O111 O 0.59999 0.52957 0.41023 0.0
Co112 Co 0.10481 0.37406 0.00243 0.0
O113 O 0.14638 0.34897 0.0262 0.0
O114 O 0.14133 0.35677 0.96484 0.0
C115 C 0.1071 0.4267 0.03891 0.0
O116 O 0.06441 0.40029 0.97043 0.0
Co117 Co 0.03804 0.38983 0.0596 0.0
O118 O 0.01881 0.41234 0.01268 0.0
C119 C 0.0455 0.31534 0.02278 0.0
C120 C 0.16223 0.34717 0.99359 0.0
C121 C 0.0323 0.41463 0.97938 0.0
O122 O 0.07428 0.32532 0.00286 0.0
O123 O 0.0302 0.33603 0.04796 0.0
O124 O 0.12861 0.4238 0.00977 0.0
O125 O 0.08939 0.39636 0.04726 0.0
Co126 Co 0.09673 0.62135 0.50845 0.0
O127 O 0.13422 0.64345 0.47566 0.0
O128 O 0.14034 0.63816 0.53734 0.0
C129 C 0.08842 0.56996 0.47011 0.0
O130 O 0.06501 0.59836 0.55159 0.0
Co131 Co 0.01629 0.60318 0.48311 0.0
O132 O 0.01698 0.56734 0.52503 0.0
C133 C 0.03459 0.68068 0.50554 0.0
C134 C 0.15542 0.64716 0.50512 0.0
C135 C 0.03722 0.57501 0.55335 0.0
O136 O 0.06894 0.67179 0.51389 0.0
O137 O 0.01074 0.65768 0.49185 0.0
O138 O 0.11545 0.57077 0.4946 0.0
O139 O 0.06832 0.60016 0.46921 0.0
Co140 Co 0.87976 0.8669 0.50744 0.0
O141 O 0.84179 0.84658 0.47429 0.0
O142 O 0.83763 0.845 0.53599 0.0
C143 C 0.88336 0.92322 0.47739 0.0
O144 O 0.91496 0.88614 0.54947 0.0
Co145 Co 0.95685 0.89264 0.47227 0.0
O146 O 0.96083 0.91948 0.52084 0.0
C147 C 0.9449 0.81248 0.49585 0.0
C148 C 0.82126 0.83954 0.50346 0.0
C149 C 0.94409 0.90794 0.55037 0.0
O150 O 0.9103 0.8181 0.5057 0.0
O151 O 0.96595 0.83795 0.48148 0.0
O152 O 0.85748 0.91757 0.50232 0.0
O153 O 0.90345 0.89422 0.46927 0.0
Co154 Co 0.37186 0.6232 0.48517 0.0
O155 O 0.33131 0.64768 0.51168 0.0
O156 O 0.33586 0.64554 0.44983 0.0
C157 C 0.36744 0.56746 0.51759 0.0
O158 O 0.4089 0.59732 0.44902 0.0
Co159 Co 0.44064 0.6007 0.53598 0.0
O160 O 0.45612 0.57912 0.48728 0.0
C161 C 0.43705 0.6778 0.50535 0.0
C162 C 0.3155 0.6534 0.47936 0.0
C163 C 0.44034 0.58026 0.45491 0.0
O164 O 0.4058 0.67056 0.48771 0.0
O165 O 0.45316 0.65453 0.52763 0.0
O166 O 0.34522 0.57482 0.48988 0.0
O167 O 0.38783 0.59572 0.52782 0.0
Co168 Co 0.48537 0.61494 0.85247 0.0
O169 O 0.51417 0.655 0.82934 0.0
O170 O 0.45269 0.65111 0.82682 0.0
C171 C 0.51376 0.61908 0.91039 0.0
O172 O 0.44684 0.57893 0.87471 0.0
Co173 Co 0.52887 0.54361 0.88121 0.0
O174 O 0.47902 0.53159 0.90286 0.0
C175 C 0.50626 0.54759 0.80111 0.0
C176 C 0.48271 0.67122 0.82094 0.0
C177 C 0.44851 0.54837 0.89433 0.0
O178 O 0.48892 0.5794 0.8067 0.0
O179 O 0.52805 0.53276 0.82576 0.0
O180 O 0.48752 0.6422 0.90081 0.0
O181 O 0.52492 0.59752 0.88326 0.0
Co182 Co 0.49747 0.89078 0.86312 0.0
O183 O 0.46854 0.85003 0.84116 0.0
O184 O 0.53006 0.85275 0.8395 0.0
C185 C 0.46424 0.88774 0.91845 0.0
O186 O 0.53692 0.9277 0.88379 0.0
Co187 Co 0.45935 0.96433 0.89335 0.0
O188 O 0.50847 0.97398 0.91678 0.0
C189 C 0.48442 0.95828 0.81261 0.0
C190 C 0.49972 0.8335 0.83252 0.0
C191 C 0.5378 0.95737 0.90496 0.0
O192 O 0.49355 0.92303 0.81585 0.0
O193 O 0.47094 0.97787 0.8398 0.0
O194 O 0.49311 0.86647 0.91254 0.0
O195 O 0.45695 0.91037 0.891 0.0
Co196 Co 0.47943 0.38263 0.61794 0.0
O197 O 0.51135 0.34345 0.63867 0.0
O198 O 0.45007 0.34508 0.64522 0.0
C199 C 0.50604 0.37937 0.55971 0.0
O200 O 0.43723 0.41675 0.59844 0.0
Co201 Co 0.51476 0.45617 0.5851 0.0
O202 O 0.46352 0.46384 0.56483 0.0
C203 C 0.49968 0.45132 0.66727 0.0
C204 C 0.48106 0.32579 0.64824 0.0
C205 C 0.43495 0.44598 0.57691 0.0
O206 O 0.48483 0.41795 0.66375 0.0
O207 O 0.51642 0.4683 0.6402 0.0
O208 O 0.4802 0.35562 0.56929 0.0
O209 O 0.51676 0.4021 0.58593 0.0
Co210 Co 0.51107 0.10197 0.61559 0.0
O211 O 0.47651 0.14105 0.63182 0.0
O212 O 0.53777 0.14752 0.63272 0.0
C213 C 0.47881 0.09069 0.56103 0.0
O214 O 0.55548 0.06776 0.59911 0.0
Co215 Co 0.48096 0.01998 0.6022 0.0
O216 O 0.53393 0.00834 0.59115 0.0
C217 C 0.49786 0.04611 0.67946 0.0
C218 C 0.50493 0.16293 0.63765 0.0
C219 C 0.56057 0.03226 0.59168 0.0
O220 O 0.51159 0.07784 0.66783 0.0
O221 O 0.4818 0.02197 0.65814 0.0
O222 O 0.50346 0.11746 0.56268 0.0
O223 O 0.47351 0.07276 0.59212 0.0
Co224 Co 0.85982 0.4846 0.61393 0.0
O225 O 0.83775 0.51571 0.65281 0.0
O226 O 0.83251 0.45379 0.65024 0.0
C227 C 0.91735 0.51209 0.61843 0.0
O228 O 0.88043 0.44306 0.57935 0.0
Co229 Co 0.89372 0.51993 0.5412 0.0
O230 O 0.91872 0.47042 0.537 0.0
C231 C 0.81235 0.5005 0.54372 0.0
C232 C 0.82747 0.48481 0.66932 0.0
C233 C 0.90479 0.44126 0.55252 0.0
O234 O 0.81451 0.49024 0.5788 0.0
O235 O 0.84025 0.51365 0.52519 0.0
O236 O 0.90748 0.48585 0.64174 0.0
O237 O 0.89154 0.52293 0.59527 0.0
Co238 Co 0.13149 0.98184 0.60746 0.0
O239 O 0.15342 0.9519 0.64737 0.0
O240 O 0.15767 0.01366 0.64379 0.0
C241 C 0.0733 0.95552 0.61363 0.0
O242 O 0.11159 0.02225 0.57146 0.0
Co243 Co 0.09629 0.94448 0.53644 0.0
O244 O 0.07332 0.99466 0.52907 0.0
C245 C 0.17862 0.96022 0.53856 0.0
C246 C 0.16125 0.98329 0.66426 0.0
C247 C 0.08752 0.02382 0.54436 0.0
O248 O 0.17672 0.97355 0.57267 0.0
O249 O 0.15024 0.94675 0.52092 0.0
O250 O 0.084 0.98294 0.63501 0.0
O251 O 0.09872 0.94333 0.59065 0.0
Co252 Co 0.8527 0.50791 0.89112 0.0
O253 O 0.83103 0.47734 0.85138 0.0
O254 O 0.83888 0.53892 0.84761 0.0
C255 C 0.90254 0.46777 0.90104 0.0
O256 O 0.87611 0.549 0.92486 0.0
Co257 Co 0.86509 0.47751 0.97213 0.0
O258 O 0.89725 0.52159 0.97819 0.0
C259 C 0.79077 0.50538 0.95049 0.0
C260 C 0.82906 0.50768 0.83104 0.0
C261 C 0.89447 0.54974 0.95629 0.0
O262 O 0.80174 0.51492 0.91692 0.0
O263 O 0.81143 0.48895 0.97479 0.0
O264 O 0.90329 0.49274 0.87435 0.0
O265 O 0.87139 0.46691 0.91935 0.0
Co266 Co 0.13361 0.01181 0.88817 0.0
O267 O 0.15362 0.03695 0.84347 0.0
O268 O 0.1465 0.97539 0.84971 0.0
C269 C 0.08258 0.05084 0.89739 0.0
O270 O 0.11159 0.97423 0.926 0.0
Co271 Co 0.12679 0.04949 0.96612 0.0
O272 O 0.10063 0.00305 0.9814 0.0
C273 C 0.19998 0.02576 0.94147 0.0
C274 C 0.15527 0.00362 0.82812 0.0
C275 C 0.09897 0.9744 0.95998 0.0
O276 O 0.18553 0.00779 0.91305 0.0
O277 O 0.18164 0.04866 0.96204 0.0
O278 O 0.08195 0.02438 0.87199 0.0
O279 O 0.1149 0.05489 0.91323 0.0
Co280 Co 0.60303 0.8586 0.48468 0.0
O281 O 0.64287 0.8371 0.51554 0.0
O282 O 0.64007 0.83214 0.45411 0.0
C283 C 0.60713 0.91624 0.513 0.0
O284 O 0.56788 0.87867 0.44284 0.0
Co285 Co 0.53047 0.89056 0.51948 0.0
O286 O 0.52292 0.91419 0.46969 0.0
C287 C 0.53479 0.80847 0.50171 0.0
C288 C 0.65953 0.82679 0.48477 0.0
C289 C 0.53962 0.90144 0.4407 0.0
O290 O 0.56927 0.81181 0.49038 0.0
O291 O 0.51592 0.8361 0.5152 0.0
O292 O 0.62957 0.90706 0.48584 0.0
O293 O 0.58433 0.89003 0.52376 0.0
Co294 Co 0.61166 0.13751 0.97952 0.0
O295 O 0.6536 0.16073 0.95397 0.0
O296 O 0.64542 0.16142 0.01561 0.0
C297 C 0.61701 0.08148 0.94808 0.0
O298 O 0.57429 0.11441 0.01649 0.0
Co299 Co 0.54149 0.10808 0.93606 0.0
O300 O 0.53216 0.08037 0.98357 0.0
C301 C 0.54584 0.18901 0.9582 0.0
C302 C 0.6672 0.16846 0.98703 0.0
C303 C 0.54691 0.09081 0.01459 0.0
O304 O 0.57848 0.18442 0.9738 0.0
O305 O 0.52834 0.16276 0.9407 0.0
O306 O 0.63755 0.08887 0.97713 0.0
O307 O 0.59546 0.1089 0.93765 0.0
Co308 Co 0.3812 0.36842 0.97935 0.0
O309 O 0.33895 0.34773 0.95209 0.0
O310 O 0.34824 0.34176 0.01346 0.0
C311 C 0.37673 0.42647 0.95234 0.0
O312 O 0.41842 0.38806 0.01835 0.0
Co313 Co 0.45206 0.40085 0.93966 0.0
O314 O 0.46002 0.42563 0.98907 0.0
C315 C 0.44784 0.31883 0.95748 0.0
C316 C 0.32552 0.33863 0.98489 0.0
C317 C 0.44499 0.41252 0.01887 0.0
O318 O 0.41431 0.32208 0.97121 0.0
O319 O 0.46595 0.34619 0.94254 0.0
O320 O 0.35508 0.41716 0.98003 0.0
O321 O 0.39811 0.39983 0.93992 0.0
Co322 Co 0.88313 0.13583 0.00457 0.0
O323 O 0.83967 0.1615 0.02425 0.0
O324 O 0.85253 0.15636 0.96365 0.0
C325 C 0.87574 0.08279 0.04014 0.0
O326 O 0.92541 0.10956 0.97483 0.0
Co327 Co 0.947 0.11235 0.06111 0.0
O328 O 0.95716 0.07767 0.01883 0.0
C329 C 0.94737 0.18834 0.0253 0.0
C330 C 0.82886 0.16651 0.98978 0.0
C331 C 0.95028 0.08471 0.98426 0.0
O332 O 0.91561 0.18298 0.0084 0.0
O333 O 0.9628 0.16414 0.04718 0.0
O334 O 0.85664 0.08734 0.00947 0.0
O335 O 0.89475 0.11194 0.05017 0.0
C336 C 0.04755 0.07944 0.52799 0.0
C337 C 0.08182 0.0596 0.52386 0.0
C338 C 0.09502 0.09404 0.46565 0.0
C339 C 0.05745 0.1065 0.46537 0.0
N340 N 0.00591 0.12809 0.50347 0.0
N341 N 0.14005 0.0496 0.49073 0.0
C342 C 0.03606 0.10481 0.49898 0.0
C343 C 0.10677 0.06842 0.49394 0.0
N344 N 0.02539 0.07228 0.55856 0.0
N345 N 0.11898 0.1067 0.43842 0.0
H346 H 0.14944 0.03071 0.51114 0.0
H347 H 0.15742 0.05112 0.46719 0.0
H348 H 0.11046 0.12634 0.41814 0.0
H349 H 0.14761 0.10098 0.43814 0.0
H350 H -0.00187 0.08232 0.56152 0.0
H351 H 0.03432 0.05505 0.58075 0.0
H352 H 0.98999 0.12948 0.52801 0.0
H353 H -0.00035 0.14947 0.48428 0.0
C354 C 0.89958 0.37817 0.47002 0.0
C355 C 0.93878 0.37602 0.4641 0.0
C356 C 0.94906 0.39281 0.53037 0.0
C357 C 0.91174 0.40546 0.53221 0.0
N358 N 0.84905 0.4036 0.50799 0.0
N359 N 0.00178 0.37785 0.4903 0.0
C360 C 0.88601 0.395 0.50368 0.0
C361 C 0.96388 0.38094 0.4951 0.0
N362 N 0.8756 0.36399 0.44347 0.0
N363 N 0.97013 0.39324 0.56246 0.0
H364 H 0.01436 0.37003 0.46505 0.0
H365 H 0.02118 0.38563 0.51085 0.0
H366 H 0.95826 0.40101 0.58824 0.0
H367 H -0.00288 0.38215 0.56431 0.0
H368 H 0.84673 0.36212 0.4472 0.0
H369 H 0.8851 0.35074 0.41897 0.0
H370 H 0.82916 0.40169 0.48655 0.0
H371 H 0.83872 0.41328 0.53366 0.0
C372 C 0.02002 0.92448 0.00609 0.0
C373 C 0.04114 0.90367 0.03301 0.0
C374 C 0.09837 0.91448 0.99658 0.0
C375 C 0.07864 0.9414 0.97497 0.0
N376 N 0.02057 0.96344 0.94929 0.0
N377 N 0.09832 0.87227 0.05078 0.0
C378 C 0.03916 0.94327 0.97637 0.0
C379 C 0.0797 0.8961 0.02687 0.0
N380 N 0.98217 0.92782 0.01031 0.0
N381 N 0.1347 0.90672 0.98756 0.0
H382 H 0.08454 0.85701 0.07182 0.0
H383 H 0.12709 0.86755 0.05014 0.0
H384 H 0.14695 0.91836 0.96354 0.0
H385 H 0.15133 0.88681 0.00118 0.0
H386 H 0.96522 0.94568 0.99444 0.0
H387 H 0.96751 0.91202 0.03008 0.0
H388 H 0.99158 0.96557 0.9472 0.0
H389 H 0.03473 0.97656 0.9271 0.0
C390 C 0.96768 0.59594 0.00839 0.0
C391 C 0.94475 0.61131 0.03741 0.0
C392 C 0.88967 0.60612 0.9964 0.0
C393 C 0.91143 0.58463 0.97099 0.0
N394 N 0.97118 0.57104 0.9443 0.0
N395 N 0.88736 0.64251 0.05468 0.0
C396 C 0.95074 0.58434 0.974 0.0
C397 C 0.90675 0.62044 0.0298 0.0
N398 N 0.00492 0.59013 0.01467 0.0
N399 N 0.85227 0.61021 0.98942 0.0
H400 H 0.89982 0.65371 0.07889 0.0
H401 H 0.86008 0.65193 0.05027 0.0
H402 H 0.84051 0.60104 0.96404 0.0
H403 H 0.83323 0.62227 0.00809 0.0
H404 H 0.02228 0.57469 -0.00316 0.0
H405 H 0.01837 0.60048 0.03848 0.0
H406 H 0.00032 0.57159 0.94298 0.0
H407 H 0.95812 0.56209 0.91943 0.0
C408 C 0.49975 0.01952 0.07531 0.0
C409 C 0.47385 0.04316 0.09426 0.0
C410 C 0.5064 0.09941 0.07188 0.0
C411 C 0.52968 0.07589 0.0495 0.0
N412 N 0.55781 0.01519 0.0399 0.0
N413 N 0.45919 0.10336 0.12124 0.0
C414 C 0.52951 0.03635 0.05483 0.0
C415 C 0.47983 0.08247 0.09639 0.0
N416 N 0.49435 0.98136 0.07473 0.0
N417 N 0.50782 0.13764 0.06762 0.0
H418 H 0.43964 0.09091 0.13929 0.0
H419 H 0.46372 0.13191 0.12643 0.0
H420 H 0.52792 0.15069 0.05093 0.0
H421 H 0.48856 0.15625 0.07947 0.0
H422 H 0.50902 0.96306 0.0571 0.0
H423 H 0.47419 0.96807 0.09131 0.0
H424 H 0.5612 0.98649 0.04514 0.0
H425 H 0.58007 0.02764 0.02548 0.0
C426 C 0.48366 0.47461 0.093 0.0
C427 C 0.5186 0.45626 0.09907 0.0
C428 C 0.49758 0.40143 0.0636 0.0
C429 C 0.46422 0.42105 0.05463 0.0
N430 N 0.41862 0.46647 0.07437 0.0
N431 N 0.55136 0.39718 0.10519 0.0
C432 C 0.45487 0.45443 0.07409 0.0
C433 C 0.52267 0.41763 0.08985 0.0
N434 N 0.4786 0.51157 0.10255 0.0
N435 N 0.50655 0.36891 0.04504 0.0
H436 H 0.56972 0.40885 0.125 0.0
H437 H 0.55434 0.36818 0.10134 0.0
H438 H 0.48866 0.35668 0.02528 0.0
H439 H 0.5325 0.3556 0.04749 0.0
H440 H 0.45527 0.52714 0.09404 0.0
H441 H 0.49819 0.52719 0.11765 0.0
H442 H 0.40941 0.48948 0.09018 0.0
H443 H 0.39737 0.45021 0.06231 0.0
C444 C 0.49105 0.88388 0.39335 0.0
C445 C 0.52023 0.90858 0.40424 0.0
C446 C 0.48854 0.96125 0.3729 0.0
C447 C 0.45591 0.93804 0.36908 0.0
N448 N 0.43309 0.87521 0.35825 0.0
N449 N 0.5547 0.96441 0.39046 0.0
C450 C 0.45962 0.89848 0.37343 0.0
C451 C 0.52161 0.94524 0.38904 0.0
N452 N 0.4926 0.84703 0.40421 0.0
N453 N 0.48739 -0.00114 0.36449 0.0
H454 H 0.57895 0.95153 0.40085 0.0
H455 H 0.55914 0.9906 0.37793 0.0
H456 H 0.46592 0.01162 0.34936 0.0
H457 H 0.50796 0.01791 0.37292 0.0
H458 H 0.4706 0.82799 0.40116 0.0
H459 H 0.51638 0.83606 0.41725 0.0
H460 H 0.43519 0.84591 0.3581 0.0
H461 H 0.41075 0.88564 0.34226 0.0
C462 C 0.47289 0.57262 0.39053 0.0
C463 C 0.46011 0.55737 0.4255 0.0
C464 C 0.51958 0.53032 0.43635 0.0
C465 C 0.53296 0.53986 0.40047 0.0
N466 N 0.51827 0.56616 0.33916 0.0
N467 N 0.46673 0.5048 0.46827 0.0
C468 C 0.50801 0.55916 0.37551 0.0
C469 C 0.48109 0.52742 0.44092 0.0
N470 N 0.45316 0.6005 0.37306 0.0
N471 N 0.54046 0.53745 0.46752 0.0
H472 H 0.43825 0.50517 0.47458 0.0
H473 H 0.48346 0.48525 0.48259 0.0
H474 H 0.56311 0.55596 0.46581 0.0
H475 H 0.53021 0.53248 0.49469 0.0
H476 H 0.46322 0.61492 0.34951 0.0
H477 H 0.42717 0.60951 0.38306 0.0
H478 H 0.49997 0.57788 0.31941 0.0
H479 H 0.54446 0.55829 0.32865 0.0
C480 C 0.09377 0.49755 0.03988 0.0
C481 C 0.0988 0.46244 0.05896 0.0
C482 C 0.06411 0.48649 0.1131 0.0
C483 C 0.05755 0.52037 0.09313 0.0
N484 N 0.08264 0.56444 0.04875 0.0
N485 N 0.10331 0.43103 0.11924 0.0
C486 C 0.07811 0.52809 0.06025 0.0
C487 C 0.08911 0.45962 0.09767 0.0
N488 N 0.10056 0.50153 0.00219 0.0
N489 N 0.04488 0.4791 0.14551 0.0
H490 H 0.12289 0.41182 0.10868 0.0
H491 H 0.09893 0.42912 0.14825 0.0
H492 H 0.02644 0.49862 0.1573 0.0
H493 H 0.04565 0.45305 0.15916 0.0
H494 H 0.09271 0.52569 0.98729 0.0
H495 H 0.1112 0.48039 0.98499 0.0
H496 H 0.09933 0.5719 0.02579 0.0
H497 H 0.07352 0.58688 0.06551 0.0
C498 C 0.02692 0.48819 0.45504 0.0
C499 C 0.04493 0.46501 0.42841 0.0
C500 C 0.09968 0.5065 0.43589 0.0
C501 C 0.07545 0.53427 0.4521 0.0
N502 N 0.01055 0.55163 0.4446 0.0
N503 N 0.10156 0.45174 0.39382 0.0
C504 C 0.03711 0.52584 0.45424 0.0
C505 C 0.08283 0.47346 0.41926 0.0
N506 N -0.00551 0.4775 0.47212 0.0
N507 N 0.13737 0.51244 0.43426 0.0
H508 H 0.08953 0.42747 0.38232 0.0
H509 H 0.12803 0.45868 0.38353 0.0
H510 H 0.14969 0.5375 0.44348 0.0
H511 H 0.15614 0.49184 0.4251 0.0
H512 H 0.97979 0.4959 0.48978 0.0
H513 H 0.98416 0.45013 0.46953 0.0
H514 H 0.98205 0.54481 0.44406 0.0
H515 H 0.01771 0.57679 0.43108 0.0
C516 C 0.90211 0.96084 0.42241 0.0
C517 C 0.8933 0.96048 0.46123 0.0
C518 C 0.92715 0.02022 0.46934 0.0
C519 C 0.94291 0.01508 0.43305 0.0
N520 N 0.94679 0.97969 0.37496 0.0
N521 N 0.89253 0.99252 0.52137 0.0
C522 C 0.93013 0.9857 0.40914 0.0
C523 C 0.9036 0.99147 0.48455 0.0
N524 N 0.88404 0.93662 0.39855 0.0
N525 N 0.9352 0.05234 0.4891 0.0
H526 H 0.87346 0.97353 0.53279 0.0
H527 H 0.90239 0.01206 0.54089 0.0
H528 H 0.95241 0.07349 0.47817 0.0
H529 H 0.92275 0.05959 0.51462 0.0
H530 H 0.88699 0.93744 0.36931 0.0
H531 H 0.863 0.91843 0.408 0.0
H532 H 0.9415 0.95614 0.3582 0.0
H533 H 0.96822 0.99674 0.36467 0.0
C534 C 0.37222 0.4956 0.51411 0.0
C535 C 0.36992 0.52958 0.53583 0.0
C536 C 0.38777 0.49428 0.59266 0.0
C537 C 0.39835 0.46403 0.56924 0.0
N538 N 0.38235 0.42746 0.51547 0.0
N539 N 0.36245 0.55797 0.59721 0.0
C540 C 0.38427 0.46194 0.53236 0.0
C541 C 0.37309 0.52769 0.57584 0.0
N542 N 0.36601 0.49566 0.47603 0.0
N543 N 0.39251 0.49057 0.63068 0.0
H544 H 0.34898 0.58141 0.58557 0.0
H545 H 0.36535 0.55957 0.62635 0.0
H546 H 0.40232 0.46538 0.64245 0.0
H547 H 0.38587 0.51118 0.65046 0.0
H548 H 0.37173 0.47262 0.45874 0.0
H549 H 0.35737 0.51908 0.46073 0.0
H550 H 0.3699 0.42264 0.48932 0.0
H551 H 0.3897 0.40307 0.53032 0.0
C552 C 0.52075 0.59979 0.0166 0.0
C553 C 0.55672 0.58316 0.01651 0.0
C554 C 0.56816 0.60825 0.9531 0.0
C555 C 0.52945 0.61608 0.94951 0.0
N556 N 0.4708 0.63025 0.98115 0.0
N557 N 0.61645 0.57402 0.98651 0.0
C558 C 0.50634 0.61596 0.98249 0.0
C559 C 0.58134 0.58923 0.9857 0.0
N560 N 0.50052 0.59901 0.04931 0.0
N561 N 0.59228 0.61961 0.9254 0.0
H562 H 0.62707 0.56127 0.01067 0.0
H563 H 0.63413 0.57255 0.96319 0.0
H564 H 0.5833 0.63509 0.90199 0.0
H565 H 0.62133 0.6175 0.92758 0.0
H566 H 0.47422 0.61112 0.05289 0.0
H567 H 0.51167 0.5877 0.07414 0.0
H568 H 0.45145 0.62811 0.00293 0.0
H569 H 0.46021 0.64533 0.9584 0.0
C570 C 0.44624 0.88461 0.02407 0.0
C571 C 0.41501 0.90903 0.02676 0.0
C572 C 0.40892 0.90975 0.95782 0.0
C573 C 0.44278 0.88857 0.95495 0.0
N574 N 0.47859 0.83898 0.98529 0.0
N575 N 0.35791 0.93038 -0.00223 0.0
C576 C 0.45717 0.87081 0.98801 0.0
C577 C 0.39382 0.91764 0.994 0.0
N578 N 0.46587 0.87504 0.05576 0.0
N579 N 0.3901 0.92098 0.92615 0.0
H580 H 0.34526 0.93272 0.02411 0.0
H581 H 0.33946 0.93446 0.97534 0.0
H582 H 0.39346 0.90776 0.9001 0.0
H583 H 0.37016 0.94249 0.92617 0.0
H584 H 0.49142 0.86076 0.0549 0.0
H585 H 0.45774 0.88354 0.08274 0.0
H586 H 0.48765 0.82368 0.0087 0.0
H587 H 0.48179 0.82424 0.96011 0.0
C588 C 0.50326 0.39629 0.49082 0.0
C589 C 0.52323 0.3805 0.52165 0.0
C590 C 0.58229 0.38744 0.48739 0.0
C591 C 0.56334 0.41031 0.4609 0.0
N592 N 0.5066 0.42637 0.42887 0.0
N593 N 0.5786 0.3495 0.54465 0.0
C594 C 0.52379 0.41057 0.45949 0.0
C595 C 0.56185 0.3719 0.51814 0.0
N596 N 0.4652 0.39934 0.49269 0.0
N597 N 0.62013 0.38308 0.48399 0.0
H598 H 0.56348 0.33739 0.56678 0.0
H599 H 0.60649 0.34102 0.54374 0.0
H600 H 0.63434 0.39328 0.46035 0.0
H601 H 0.63711 0.36941 0.50356 0.0
H602 H 0.44873 0.41325 0.47284 0.0
H603 H 0.44997 0.38714 0.51456 0.0
H604 H 0.47774 0.4274 0.42482 0.0
H605 H 0.52215 0.43683 0.40619 0.0
C606 C 0.48004 0.04776 0.50569 0.0
C607 C 0.4621 0.07737 0.52507 0.0
C608 C 0.40591 0.06911 0.48578 0.0
C609 C 0.42246 0.03606 0.47022 0.0
N610 N 0.47817 -0.00046 0.45774 0.0
N611 N 0.41205 0.12239 0.52926 0.0
C612 C 0.4605 0.02722 0.47789 0.0
C613 C 0.42623 0.09017 0.51356 0.0
N614 N 0.5159 0.03881 0.51481 0.0
N615 N 0.37074 0.07954 0.47472 0.0
H616 H 0.42699 0.13809 0.54915 0.0
H617 H 0.38673 0.13476 0.52165 0.0
H618 H 0.35692 0.06645 0.45241 0.0
H619 H 0.35536 0.10136 0.48675 0.0
H620 H 0.5285 0.01308 0.50861 0.0
H621 H 0.53252 0.05807 0.52916 0.0
H622 H 0.5068 0.99408 0.45872 0.0
H623 H 0.46438 0.9833 0.43772 0.0
C624 C 0.99029 0.58667 0.60256 0.0
C625 C 0.0202 0.56385 0.58963 0.0
C626 C 0.98812 0.5071 0.61189 0.0
C627 C 0.95537 0.52932 0.6179 0.0
N628 N 0.92933 0.59008 0.633 0.0
N629 N 0.05424 0.50615 0.59366 0.0
C630 C 0.95797 0.56922 0.61811 0.0
C631 C 0.02141 0.52523 0.59896 0.0
N632 N 0.9918 0.62468 0.59659 0.0
N633 N 0.98678 0.46887 0.61629 0.0
H634 H 0.07819 0.52 0.58384 0.0
H635 H 0.05867 0.47817 0.60136 0.0
H636 H 0.96359 0.45492 0.62725 0.0
H637 H 0.00849 0.45069 0.609 0.0
H638 H 0.9694 0.64306 0.60062 0.0
H639 H 0.01613 0.63755 0.58663 0.0
H640 H 0.93008 0.61926 0.63615 0.0
H641 H 0.90584 0.57757 0.64533 0.0
C642 C -0.00419 0.88699 0.59148 0.0
C643 C 0.96621 0.91294 0.5854 0.0
C644 C 0.00199 0.96223 0.61778 0.0
C645 C 0.03462 0.93922 0.61421 0.0
N646 N 0.05941 0.87609 0.61399 0.0
N647 N 0.93647 0.97138 0.59996 0.0
C648 C 0.03039 0.90019 0.60645 0.0
C649 C 0.96768 0.9492 0.60169 0.0
N650 N 0.99121 0.85046 0.58029 0.0
N651 N 0.00339 0.99564 0.63695 0.0
H652 H 0.91084 0.96043 0.5908 0.0
H653 H 0.93581 -0.00012 0.60696 0.0
H654 H 0.02665 0.00447 0.6522 0.0
H655 H 0.98021 0.0128 0.64168 0.0
H656 H 0.01217 0.83004 0.58026 0.0
H657 H 0.9653 0.84074 0.57091 0.0
H658 H 0.05858 0.84707 0.60976 0.0
H659 H 0.08382 0.88506 0.62757 0.0
C660 C 0.00248 0.4263 0.91281 0.0
C661 C 0.00713 0.43506 0.95203 0.0
C662 C 0.9423 0.45074 0.95559 0.0
C663 C 0.9375 0.45027 0.91641 0.0
N664 N 0.96609 0.43882 0.8556 0.0
N665 N 0.98387 0.47666 0.0013 0.0
C666 C 0.96882 0.43903 0.89397 0.0
C667 C 0.97823 0.45612 0.96932 0.0
N668 N 0.0284 0.40526 0.89401 0.0
N669 N 0.91528 0.43826 0.97947 0.0
H670 H 0.0108 0.48188 0.01172 0.0
H671 H 0.96174 0.49059 0.01468 0.0
H672 H 0.8914 0.42448 0.96941 0.0
H673 H 0.91974 0.43698 0.0086 0.0
H674 H 0.02381 0.39481 0.8669 0.0
H675 H 0.05391 0.39729 0.90581 0.0
H676 H 0.98909 0.43423 0.83807 0.0
H677 H 0.94098 0.44447 0.84157 0.0
C678 C 0.01273 0.0704 0.89546 0.0
C679 C 0.04723 0.06545 0.91531 0.0
C680 C 0.01272 0.05621 0.97234 0.0
C681 C 0.97878 0.06954 0.95651 0.0
N682 N 0.94689 0.08898 0.8992 0.0
N683 N 0.07328 0.08328 0.97555 0.0
C684 C 0.9787 0.07678 0.9167 0.0
C685 C 0.04587 0.06674 0.95481 0.0
N686 N 0.01256 0.07008 0.857 0.0
N687 N 0.01395 0.03439 0.00397 0.0
H688 H 0.09444 0.09908 0.96272 0.0
H689 H 0.07144 0.08516 0.00493 0.0
H690 H 0.99009 0.021 0.01454 0.0
H691 H 0.03941 0.02599 0.01589 0.0
H692 H 0.98804 0.07 0.841 0.0
H693 H 0.03726 0.06905 0.84129 0.0
H694 H 0.94665 0.09935 0.87167 0.0
H695 H 0.92078 0.08859 0.91232 0.0
C696 C 0.60162 0.02107 0.53737 0.0
C697 C 0.5967 0.01766 0.57655 0.0
C698 C 0.61865 0.95225 0.57299 0.0
C699 C 0.61047 0.95264 0.53372 0.0
N700 N 0.59846 0.98891 0.4772 0.0
N701 N 0.61733 0.98713 0.6325 0.0
C702 C 0.6044 0.98772 0.5152 0.0
C703 C 0.61144 0.98544 0.5946 0.0
N704 N 0.60235 0.05616 0.52174 0.0
N705 N 0.63326 0.92041 0.58909 0.0
H706 H 0.61467 0.01281 0.64667 0.0
H707 H 0.62607 0.96458 0.64913 0.0
H708 H 0.64015 0.89656 0.57326 0.0
H709 H 0.64038 0.91804 0.61745 0.0
H710 H 0.60804 0.06106 0.49333 0.0
H711 H 0.59984 0.08025 0.53858 0.0
H712 H 0.58951 0.01311 0.46308 0.0
H713 H 0.60045 0.96506 0.46022 0.0
C714 C 0.60101 0.03996 0.89344 0.0
C715 C 0.61345 0.04303 0.93124 0.0
C716 C 0.59169 0.97904 0.94468 0.0
C717 C 0.57302 0.97896 0.90952 0.0
N718 N 0.56933 0.00213 0.84597 0.0
N719 N 0.63976 0.00808 0.9835 0.0
C720 C 0.58137 0.00695 0.88217 0.0
C721 C 0.61517 0.01011 0.95404 0.0
N722 N 0.60773 0.06895 0.86892 0.0
N723 N 0.58572 0.95015 0.96942 0.0
H724 H 0.66008 0.02861 0.98829 0.0
H725 H 0.64342 0.98396 -0.00012 0.0
H726 H 0.56977 0.92653 0.96215 0.0
H727 H 0.59555 0.95012 -0.0029 0.0
H728 H 0.59699 0.07069 0.84169 0.0
H729 H 0.62527 0.09145 0.87603 0.0
H730 H 0.57462 0.02061 0.82383 0.0
H731 H 0.55564 0.97761 0.83777 0.0
C732 C 0.40348 0.52957 0.94364 0.0
C733 C 0.41386 0.52867 0.90534 0.0
C734 C 0.38033 0.46927 0.89697 0.0
C735 C 0.37925 0.46531 0.93673 0.0
N736 N 0.38146 0.49496 -0.00183 0.0
N737 N 0.40663 0.50267 0.84324 0.0
C738 C 0.38739 0.49683 0.96022 0.0
C739 C 0.39958 0.50049 0.88105 0.0
N740 N 0.40946 0.56188 0.96367 0.0
N741 N 0.36294 0.44298 0.87486 0.0
H742 H 0.41929 0.5263 0.83113 0.0
H743 H 0.40092 0.48108 0.82418 0.0
H744 H 0.34792 0.42049 0.88643 0.0
H745 H 0.36042 0.44517 0.84568 0.0
H746 H 0.40113 0.56601 0.9915 0.0
H747 H 0.41985 0.58604 0.95051 0.0
H748 H 0.39145 0.51482 0.01731 0.0
H749 H 0.36593 0.47359 0.01069 0.0
C750 C 0.88779 0.01128 0.03798 0.0
C751 C 0.88288 0.04561 0.05862 0.0
C752 C 0.91731 0.01856 0.11186 0.0
C753 C 0.9238 0.98548 0.09049 0.0
N754 N 0.90031 0.94409 0.04271 0.0
N755 N 0.87889 0.07428 0.12023 0.0
C756 C 0.90382 0.97969 0.05674 0.0
C757 C 0.89265 0.04644 0.09746 0.0
N758 N 0.88026 0.00893 0.00027 0.0
N759 N 0.9364 0.02432 0.14476 0.0
H760 H 0.8597 0.09431 0.11044 0.0
H761 H 0.88318 0.07482 0.14932 0.0
H762 H 0.95439 0.00405 0.15606 0.0
H763 H 0.93604 0.04984 0.15937 0.0
H764 H 0.88877 0.986 0.98394 0.0
H765 H 0.8675 0.02998 0.98448 0.0
H766 H 0.88382 0.9377 0.01926 0.0
H767 H 0.91027 0.92073 0.05765 0.0
C768 C 0.00324 0.21939 0.30692 0.0
C769 C 0.98586 0.19925 0.33681 0.0
C770 C 0.95885 0.25848 0.36047 0.0
C771 C 0.98053 0.27958 0.33376 0.0
N772 N 0.0238 0.27979 0.2816 0.0
N773 N 0.95338 0.20148 0.39683 0.0
C774 C 0.00288 0.25986 0.30698 0.0
C775 C 0.96495 0.21915 0.36447 0.0
N776 N 0.01923 0.19967 0.27797 0.0
N777 N 0.93247 0.27522 0.383 0.0
H778 H 0.95622 0.17282 0.40212 0.0
H779 H 0.94387 0.21604 0.42053 0.0
H780 H 0.9286 0.30389 0.3867 0.0
H781 H 0.91197 0.25973 0.39713 0.0
H782 H 0.02939 0.21216 0.25344 0.0
H783 H 0.01936 0.17022 0.27707 0.0
H784 H 0.0441 0.26763 0.26437 0.0
H785 H 0.0219 0.30904 0.27881 0.0
C786 C 0.0154 0.72714 0.13512 0.0
C787 C -0.00422 0.70965 0.16543 0.0
C788 C 0.97524 0.77254 0.18794 0.0
C789 C -0.00538 0.78986 0.15737 0.0
N790 N 0.03394 0.78353 0.10203 0.0
N791 N 0.95958 0.71469 0.22222 0.0
C792 C 0.015 0.76708 0.13128 0.0
C793 C 0.97628 0.73218 0.19222 0.0
N794 N 0.03214 0.70553 0.10786 0.0
N795 N 0.95632 0.7948 0.21306 0.0
H796 H 0.96108 0.68556 0.22637 0.0
H797 H 0.9457 0.72847 0.24398 0.0
H798 H 0.95714 0.82419 0.2122 0.0
H799 H 0.93942 0.78474 0.23468 0.0
H800 H 0.03978 0.71556 0.08136 0.0
H801 H 0.03771 0.67692 0.11055 0.0
H802 H 0.05595 0.77062 0.0877 0.0
H803 H 0.02807 0.81041 0.09192 0.0
C804 C 0.35705 0.03239 0.22532 0.0
C805 C 0.3379 0.00692 0.20086 0.0
C806 C 0.30364 0.9824 0.25615 0.0
C807 C 0.32269 0.0085 0.27993 0.0
N808 N 0.35228 0.06982 0.28192 0.0
N809 N 0.28552 0.96475 0.19228 0.0
C810 C 0.34418 0.0374 0.26284 0.0
C811 C 0.30884 0.98398 0.21605 0.0
N812 N 0.3894 0.04979 0.21423 0.0
N813 N 0.28053 0.95615 0.27201 0.0
H814 H 0.28765 0.96648 0.16298 0.0
H815 H 0.2619 0.9501 0.20137 0.0
H816 H 0.2731 0.95708 0.30049 0.0
H817 H 0.26954 0.93326 0.25726 0.0
H818 H 0.40567 0.0659 0.23264 0.0
H819 H 0.40283 0.04423 0.18877 0.0
H820 H 0.36626 0.09241 0.26937 0.0
H821 H 0.3399 0.07658 0.30764 0.0
C822 C 0.66989 0.52722 0.22595 0.0
C823 C 0.64315 0.50508 0.20594 0.0
C824 C 0.63833 0.46352 0.26115 0.0
C825 C 0.6577 0.48987 0.28397 0.0
N826 N 0.69636 0.54551 0.28674 0.0
N827 N 0.59352 0.45843 0.21103 0.0
C828 C 0.67476 0.52151 0.2659 0.0
C829 C 0.62501 0.47501 0.22539 0.0
N830 N 0.69162 0.55244 0.20676 0.0
N831 N 0.63329 0.42711 0.27263 0.0
H832 H 0.57983 0.46827 0.18704 0.0
H833 H 0.57815 0.43837 0.22602 0.0
H834 H 0.64733 0.41569 0.29575 0.0
H835 H 0.62061 0.40685 0.2555 0.0
H836 H 0.71399 0.56688 0.21891 0.0
H837 H 0.68921 0.55668 0.17775 0.0
H838 H 0.70566 0.57156 0.2769 0.0
H839 H 0.70465 0.53921 0.31429 0.0
C840 C 0.26165 0.31174 0.96893 0.0
C841 C 0.28398 0.33711 0.99041 0.0
C842 C 0.22678 0.36659 0.01549 0.0
C843 C 0.20414 0.34342 0.99157 0.0
N844 N 0.20014 0.29513 0.94391 0.0
N845 N 0.28693 0.39355 0.02927 0.0
C846 C 0.22167 0.31642 0.96766 0.0
C847 C 0.26636 0.36539 0.01271 0.0
N848 N 0.27874 0.28234 0.95083 0.0
N849 N 0.21095 0.39043 0.04134 0.0
H850 H 0.31586 0.39385 0.0317 0.0
H851 H 0.27517 0.41871 0.0389 0.0
H852 H 0.18325 0.39905 0.04111 0.0
H853 H 0.22564 0.40114 0.06443 0.0
H854 H 0.26436 0.26059 0.93744 0.0
H855 H 0.30767 0.278 0.95191 0.0
H856 H 0.21107 0.27792 0.92281 0.0
H857 H 0.17093 0.29607 0.94399 0.0
C858 C 0.21406 0.6868 0.49401 0.0
C859 C 0.19685 0.65113 0.50018 0.0
C860 C 0.25418 0.62003 0.47846 0.0
C861 C 0.27355 0.65493 0.47813 0.0
N862 N 0.27248 0.72202 0.4878 0.0
N863 N 0.20478 0.58382 0.50741 0.0
C864 C 0.2536 0.68858 0.48658 0.0
C865 C 0.21825 0.61778 0.49527 0.0
N866 N 0.1927 0.71875 0.49508 0.0
N867 N 0.26953 0.58906 0.4616 0.0
H868 H 0.1795 0.58117 0.52181 0.0
H869 H 0.22086 0.55923 0.50738 0.0
H870 H 0.29396 0.59066 0.44561 0.0
H871 H 0.25537 0.56347 0.45893 0.0
H872 H 0.20268 0.74522 0.4872 0.0
H873 H 0.16423 0.71822 0.50186 0.0
H874 H 0.26057 0.7471 0.49734 0.0
H875 H 0.30079 0.72405 0.48062 0.0
C876 C 0.72421 0.83656 0.4574 0.0
C877 C 0.70137 0.81909 0.48498 0.0
C878 C 0.75931 0.80672 0.52204 0.0
C879 C 0.77976 0.83193 0.49844 0.0
N880 N 0.77512 0.88005 0.44975 0.0
N881 N 0.6983 0.78449 0.54345 0.0
C882 C 0.76046 0.8493 0.46771 0.0
C883 C 0.71934 0.80328 0.51738 0.0
N884 N 0.712 0.84089 0.42116 0.0
N885 N 0.77796 0.78498 0.54777 0.0
H886 H 0.6703 0.77744 0.5386 0.0
H887 H 0.70838 0.7767 0.56993 0.0
H888 H 0.807 0.78568 0.55091 0.0
H889 H 0.76516 0.76373 0.56343 0.0
H890 H 0.72907 0.85195 0.39999 0.0
H891 H 0.68788 0.82787 0.41098 0.0
H892 H 0.76038 0.89487 0.42905 0.0
H893 H 0.79898 0.89416 0.45912 0.0
C894 C 0.49231 0.76904 0.85892 0.0
C895 C 0.49981 0.79155 0.82692 0.0
C896 C 0.49473 0.73416 0.78771 0.0
C897 C 0.48167 0.71351 0.81957 0.0
N898 N 0.45662 0.71684 0.88289 0.0
N899 N 0.50525 0.79619 0.75946 0.0
C900 C 0.47666 0.73275 0.85425 0.0
C901 C 0.5001 0.77433 0.7907 0.0
N902 N 0.50208 0.78143 0.89397 0.0
N903 N 0.50209 0.71546 0.7549 0.0
H904 H 0.5106 0.82509 0.76136 0.0
H905 H 0.50237 0.78604 0.73203 0.0
H906 H 0.49672 0.68666 0.75174 0.0
H907 H 0.51496 0.72807 0.73175 0.0
H908 H 0.4994 0.76481 0.91812 0.0
H909 H 0.51836 0.80553 0.89764 0.0
H910 H 0.45056 0.73124 0.90783 0.0
H911 H 0.44184 0.69173 0.87972 0.0
C912 C 0.50537 0.26474 0.67739 0.0
C913 C 0.48186 0.28336 0.65065 0.0
C914 C 0.47808 0.22434 0.61425 0.0
C915 C 0.49899 0.20477 0.64226 0.0
N916 N 0.52835 0.20525 0.70339 0.0
N917 N 0.43869 0.27714 0.59795 0.0
C918 C 0.51153 0.22471 0.67471 0.0
C919 C 0.46571 0.26193 0.62078 0.0
N920 N 0.52201 0.28547 0.70525 0.0
N921 N 0.47212 0.208 0.57983 0.0
H922 H 0.42889 0.30464 0.59993 0.0
H923 H 0.42299 0.26101 0.57909 0.0
H924 H 0.48222 0.18143 0.57285 0.0
H925 H 0.46127 0.22249 0.55666 0.0
H926 H 0.54273 0.2749 0.72308 0.0
H927 H 0.51603 0.31401 0.70946 0.0
H928 H 0.53477 0.21712 0.72948 0.0
H929 H 0.53353 0.1763 0.70195 0.0
C930 C 0.7921 0.50732 0.76922 0.0
C931 C 0.8266 0.5044 0.78908 0.0
C932 C 0.85609 0.4775 0.73294 0.0
C933 C 0.82346 0.48492 0.71128 0.0
N934 N 0.76088 0.51014 0.70798 0.0
N935 N 0.89378 0.49878 0.78512 0.0
C936 C 0.79149 0.50089 0.72921 0.0
C937 C 0.85925 0.49297 0.76956 0.0
N938 N 0.76015 0.51601 0.78852 0.0
N939 N 0.88428 0.45556 0.71885 0.0
H940 H 0.89732 0.514 0.80997 0.0
H941 H 0.91873 0.49364 0.7707 0.0
H942 H 0.88255 0.44183 0.69296 0.0
H943 H 0.90725 0.44712 0.73503 0.0
H944 H 0.73352 0.51516 0.77648 0.0
H945 H 0.76034 0.52214 0.81734 0.0
H946 H 0.73811 0.52526 0.71845 0.0
H947 H 0.75924 0.50398 0.67921 0.0
C948 C 0.19092 0.0073 0.72531 0.0
C949 C 0.16294 0.98534 0.70673 0.0
C950 C 0.12918 0.97951 0.76711 0.0
C951 C 0.15864 -0.00176 0.78631 0.0
N952 N 0.22021 0.02576 0.78475 0.0
N953 N 0.10928 0.94284 0.714 0.0
C954 C 0.19026 0.01112 0.76568 0.0
C955 C 0.13361 0.9688 0.7288 0.0
N956 N 0.21827 0.02435 0.70445 0.0
N957 N 0.09538 0.97414 0.78458 0.0
H958 H 0.10763 0.93476 0.68601 0.0
H959 H 0.0919 0.92632 0.73091 0.0
H960 H 0.08971 0.98285 0.81204 0.0
H961 H 0.07139 0.96517 0.77037 0.0
H962 H 0.23671 0.04432 0.71539 0.0
H963 H 0.22151 0.01968 0.67557 0.0
H964 H 0.24573 0.03217 0.77206 0.0
H965 H 0.22048 0.02879 0.81404 0.0
C966 C 0.76693 0.13659 0.98068 0.0
C967 C 0.78787 0.17043 0.98249 0.0
C968 C 0.72847 0.20576 0.98846 0.0
C969 C 0.70873 0.17113 0.99154 0.0
N970 N 0.71305 0.10478 0.00591 0.0
N971 N 0.78893 0.23754 0.99307 0.0
C972 C 0.72908 0.13687 0.99215 0.0
C973 C 0.76873 0.20528 0.98792 0.0
N974 N 0.78304 0.10393 0.96826 0.0
N975 N 0.70891 0.23878 0.98626 0.0
H976 H 0.81814 0.23794 0.9912 0.0
H977 H 0.77689 0.26315 0.00091 0.0
H978 H 0.67972 0.23964 0.98831 0.0
H979 H 0.72145 0.26472 0.98068 0.0
H980 H 0.76778 0.07916 0.96424 0.0
H981 H 0.81013 0.10295 0.95737 0.0
H982 H 0.72771 0.07948 0.00897 0.0
H983 H 0.68738 0.10526 0.01985 0.0
C984 C 0.05491 0.97326 0.24312 0.0
C985 C 0.02005 0.96473 0.22619 0.0
C986 C 0.98812 0.00503 0.27277 0.0
C987 C 0.02371 0.01696 0.28661 0.0
N988 N 0.091 0.01756 0.28017 0.0
N989 N 0.95293 0.97235 0.22396 0.0
C990 C 0.05711 0.00236 0.27046 0.0
C991 C 0.98639 0.98025 0.24102 0.0
N992 N 0.08596 0.953 0.23309 0.0
N993 N 0.95603 0.01643 0.2905 0.0
H994 H 0.95025 0.95252 0.20241 0.0
H995 H 0.92807 0.98659 0.2298 0.0
H996 H 0.95569 0.03616 0.31226 0.0
H997 H 0.92975 0.00485 0.28515 0.0
H998 H 0.11166 0.95526 0.2469 0.0
H999 H 0.08476 0.93101 0.2135 0.0
H1000 H 0.11603 0.01057 0.26678 0.0
H1001 H 0.09358 0.04015 0.2989 0.0
C1002 C -0.00326 0.48521 0.26961 0.0
C1003 C 0.96287 0.46665 0.27989 0.0
C1004 C 0.92763 0.50884 0.23765 0.0
C1005 C 0.96152 0.52473 0.22421 0.0
N1006 N 0.02913 0.52699 0.22605 0.0
N1007 N 0.89711 0.45634 0.26877 0.0
C1008 C -0.00364 0.51276 0.23997 0.0
C1009 C 0.92867 0.47721 0.26228 0.0
N1010 N 0.02895 0.47766 0.28917 0.0
N1011 N 0.89425 0.52491 0.2275 0.0
H1012 H 0.89719 0.43237 0.28591 0.0
H1013 H 0.87199 0.46039 0.25431 0.0
H1014 H 0.89276 0.54884 0.21036 0.0
H1015 H 0.8686 0.51717 0.23917 0.0
H1016 H 0.05354 0.4932 0.28632 0.0
H1017 H 0.03066 0.45696 0.31 0.0
H1018 H 0.05545 0.51609 0.23263 0.0
H1019 H 0.03006 0.54855 0.20608 0.0
C1020 C 0.26248 0.04751 0.96102 0.0
C1021 C 0.23756 0.0168 0.95688 0.0
C1022 C 0.26928 0.98362 0.00913 0.0
C1023 C 0.29277 0.01549 0.01441 0.0
N1024 N 0.3067 0.08052 0.00119 0.0
N1025 N 0.21656 0.95536 0.9761 0.0
C1026 C 0.28786 0.04824 0.9919 0.0
C1027 C 0.24118 0.9845 0.98042 0.0
N1028 N 0.26153 0.07602 0.93507 0.0
N1029 N 0.27416 0.95245 0.0313 0.0
H1030 H 0.19848 0.95379 0.95307 0.0
H1031 H 0.21375 0.93305 0.99495 0.0
H1032 H 0.29147 0.95247 0.05501 0.0
H1033 H 0.26175 0.9264 0.02616 0.0
H1034 H 0.28085 0.09802 0.93431 0.0
H1035 H 0.24327 0.07546 0.912 0.0
H1036 H 0.30203 0.10648 0.98825 0.0
H1037 H 0.32446 0.08207 0.02459 0.0
C1038 C 0.71066 0.47012 0.00197 0.0
C1039 C 0.69725 0.50268 0.02081 0.0
C1040 C 0.74078 0.54157 0.9835 0.0
C1041 C 0.75158 0.50894 0.96305 0.0
N1042 N 0.73999 0.44459 0.94597 0.0
N1043 N 0.69823 0.57044 0.02864 0.0
C1044 C 0.73366 0.47416 0.96984 0.0
C1045 C 0.71196 0.53887 0.01141 0.0
N1046 N 0.70224 0.43513 0.0158 0.0
N1047 N 0.75915 0.57469 0.9769 0.0
H1048 H 0.67939 0.56931 0.05104 0.0
H1049 H 0.70443 0.59779 0.01994 0.0
H1050 H 0.77821 0.57743 0.95473 0.0
H1051 H 0.75627 0.59876 0.99349 0.0
H1052 H 0.71396 0.41033 0.00528 0.0
H1053 H 0.68672 0.43139 0.0405 0.0
H1054 H 0.72563 0.41905 0.94775 0.0
H1055 H 0.75699 0.44732 0.92214 0.0
C1056 C 0.24898 0.92748 0.46554 0.0
C1057 C 0.2713 0.95994 0.45962 0.0
C1058 C 0.23495 0.99344 0.50875 0.0
C1059 C 0.21467 0.95971 0.51662 0.0
N1060 N 0.20973 0.89234 0.50873 0.0
N1061 N 0.28945 0.0223 0.47971 0.0
C1062 C 0.22391 0.9261 0.49673 0.0
C1063 C 0.26522 0.9926 0.48225 0.0
N1064 N 0.25135 0.89802 0.44078 0.0
N1065 N 0.22485 0.02661 0.52557 0.0
H1066 H 0.31086 0.02329 0.45984 0.0
H1067 H 0.28983 0.04473 0.4987 0.0
H1068 H 0.20478 0.02842 0.54677 0.0
H1069 H 0.23493 0.05282 0.51699 0.0
H1070 H 0.23321 0.875 0.4413 0.0
H1071 H 0.26901 0.89856 0.4173 0.0
H1072 H 0.21806 0.86641 0.4977 0.0
H1073 H 0.19281 0.89 0.53264 0.0
C1074 C 0.76582 0.5317 0.50149 0.0
C1075 C 0.77623 0.49891 0.52204 0.0
C1076 C 0.72967 0.46217 0.48566 0.0
C1077 C 0.72117 0.4948 0.46399 0.0
N1078 N 0.73606 0.55813 0.4458 0.0
N1079 N 0.76697 0.43277 0.53521 0.0
C1080 C 0.74115 0.52865 0.47015 0.0
C1081 C 0.75779 0.46399 0.51459 0.0
N1082 N 0.77813 0.56623 0.5134 0.0
N1083 N 0.70973 0.42991 0.47914 0.0
H1084 H 0.78385 0.43402 0.55913 0.0
H1085 H 0.75817 0.40553 0.52884 0.0
H1086 H 0.69123 0.42759 0.45644 0.0
H1087 H 0.71103 0.40578 0.4958 0.0
H1088 H 0.76878 0.59167 0.50206 0.0
H1089 H 0.79466 0.56958 0.53751 0.0
H1090 H 0.75201 0.58272 0.44649 0.0
H1091 H 0.71825 0.55619 0.42245 0.0
C1092 C 0.00746 0.26841 0.98483 0.0
C1093 C 0.02718 0.27813 0.01837 0.0
C1094 C 0.98533 0.23821 0.05485 0.0
C1095 C 0.96878 0.22409 0.0214 0.0
N1096 N 0.96893 0.22173 0.9531 0.0
N1097 N 0.04183 0.26279 0.08288 0.0
C1098 C 0.98109 0.23803 0.98579 0.0
C1099 C 0.01855 0.25941 0.05245 0.0
N1100 N 0.01259 0.28892 0.95264 0.0
N1101 N 0.96875 0.23196 0.08902 0.0
H1102 H 0.067 0.27779 0.08146 0.0
H1103 H 0.03796 0.24751 0.10774 0.0
H1104 H 0.94303 0.21811 0.0915 0.0
H1105 H 0.97837 0.24425 0.11395 0.0
H1106 H -0.00427 0.28582 0.92879 0.0
H1107 H 0.03224 0.31058 0.95056 0.0
H1108 H 0.98016 0.22834 0.92678 0.0
H1109 H 0.94957 0.19975 0.95245 0.0
C1110 C 0.01375 0.73681 0.47154 0.0
C1111 C 0.02055 0.71987 0.50692 0.0
C1112 C 0.971 0.7589 0.53553 0.0
C1113 C 0.96351 0.77498 0.49946 0.0
N1114 N 0.97079 0.77213 0.43208 0.0
N1115 N 0.01111 0.71777 0.57364 0.0
C1116 C 0.98303 0.7618 0.46718 0.0
C1117 C 0.00067 0.73189 0.53934 0.0
N1118 N 0.03708 0.72869 0.44206 0.0
N1119 N 0.94908 0.76858 0.5656 0.0
H1120 H 0.03431 0.7 0.5764 0.0
H1121 H -0.00077 0.72548 0.59928 0.0
H1122 H 0.92622 0.78671 0.56316 0.0
H1123 H 0.95173 0.75716 0.59249 0.0
H1124 H 0.03594 0.74237 0.41608 0.0
H1125 H 0.0601 0.71069 0.4451 0.0
H1126 H 0.98143 0.76096 0.40712 0.0
H1127 H 0.94713 0.78907 0.42811 0.0
C1128 C 0.50504 0.75247 0.4671 0.0
C1129 C 0.51446 0.77124 0.50142 0.0
C1130 C 0.46592 0.73467 0.53448 0.0
C1131 C 0.45751 0.71447 0.50097 0.0
N1132 N 0.47179 0.70099 0.43593 0.0
N1133 N 0.51113 0.77214 0.56912 0.0
C1134 C 0.47764 0.72273 0.46726 0.0
C1135 C 0.49694 0.75985 0.53545 0.0
N1136 N 0.52216 0.7631 0.43438 0.0
N1137 N 0.44364 0.73004 0.56549 0.0
H1138 H 0.53477 0.78943 0.57078 0.0
H1139 H 0.50224 0.76196 0.59519 0.0
H1140 H 0.42018 0.71243 0.56538 0.0
H1141 H 0.44606 0.74638 0.5898 0.0
H1142 H 0.51322 0.75476 0.40768 0.0
H1143 H 0.54513 0.78121 0.43396 0.0
H1144 H 0.48816 0.70238 0.41168 0.0
H1145 H 0.4513 0.68005 0.43473 0.0
C1146 C 0.49675 0.48326 0.7712 0.0
C1147 C 0.49822 0.52343 0.76684 0.0
C1148 C 0.48595 0.51365 0.69934 0.0
C1149 C 0.49482 0.4744 0.70268 0.0
N1150 N 0.51281 0.42295 0.74365 0.0
N1151 N 0.49681 0.57645 0.72373 0.0
C1152 C 0.50112 0.45937 0.73916 0.0
C1153 C 0.4931 0.53863 0.73012 0.0
N1154 N 0.48931 0.4677 0.80567 0.0
N1155 N 0.46971 0.52709 0.66709 0.0
H1156 H 0.50391 0.59579 0.74463 0.0
H1157 H 0.49664 0.58808 0.6967 0.0
H1158 H 0.46275 0.50975 0.64438 0.0
H1159 H 0.45919 0.55446 0.66476 0.0
H1160 H 0.48501 0.43883 0.80945 0.0
H1161 H 0.48237 0.48385 0.82925 0.0
H1162 H 0.52123 0.41217 0.76972 0.0
H1163 H 0.51758 0.40467 0.72115 0.0
C1164 C 0.46129 0.00617 0.76666 0.0
C1165 C 0.48964 0.97954 0.77654 0.0
C1166 C 0.53007 0.00667 0.72723 0.0
C1167 C 0.50188 0.03363 0.71898 0.0
N1168 N 0.44662 0.06654 0.73785 0.0
N1169 N 0.55318 0.95645 0.76754 0.0
C1170 C 0.46963 0.03596 0.74142 0.0
C1171 C 0.52476 0.98024 0.75719 0.0
N1172 N 0.42552 0.00158 0.77967 0.0
N1173 N 0.56144 0.00594 0.70526 0.0
H1174 H 0.55032 0.93505 0.78737 0.0
H1175 H 0.58058 0.95887 0.75781 0.0
H1176 H 0.56674 0.02722 0.68563 0.0
H1177 H 0.58138 0.9845 0.70578 0.0
H1178 H 0.40313 0.01837 0.77096 0.0
H1179 H 0.4174 0.97823 0.79565 0.0
H1180 H 0.42415 0.07176 0.75587 0.0
H1181 H 0.45281 0.08858 0.71927 0.0
C1182 C 0.48214 0.26712 0.92474 0.0
C1183 C 0.46862 0.28229 0.95913 0.0
C1184 C 0.51098 0.23981 0.99441 0.0
C1185 C 0.5256 0.226 0.95969 0.0
N1186 N 0.53109 0.23235 0.8924 0.0
N1187 N 0.47008 0.28408 0.0271 0.0
C1188 C 0.51282 0.24147 0.92505 0.0
C1189 C 0.48282 0.26866 0.99415 0.0
N1190 N 0.46462 0.27653 0.89171 0.0
N1191 N 0.52364 0.22487 0.02758 0.0
H1192 H 0.4478 0.30309 0.02813 0.0
H1193 H 0.48208 0.27925 0.05343 0.0
H1194 H 0.54707 0.20742 0.02899 0.0
H1195 H 0.51107 0.22932 0.05368 0.0
H1196 H 0.47049 0.26378 0.86592 0.0
H1197 H 0.44141 0.2945 0.89081 0.0
H1198 H 0.52572 0.24525 0.86655 0.0
H1199 H 0.55443 0.21454 0.892 0.0
loop_
_geom_bond_atom_site_label_1
_geom_bond_atom_site_label_2
_geom_bond_distance
_geom_bond_site_symmetry_2
_ccdc_geom_bond_type
Co0 O1 2.216 1_655 S
Co0 O2 2.091 . S
Co0 O4 2.004 . S
Co0 O10 2.021 . S
Co0 O12 2.137 1_655 S
Co0 O13 2.244 1_655 S
O1 Co0 2.216 1_455 S
O1 C8 1.247 1_455 S
O2 Co0 2.091 . S
O2 C8 1.261 . S
C3 O12 1.247 . S
C3 O13 1.272 . S
O4 Co0 2.004 . S
O4 C9 1.259 . S
Co5 O6 2.061 1_445 S
Co5 O11 2.056 . S
Co5 O13 2.142 . S
O6 Co5 2.061 1_665 S
O6 C9 1.235 1_565 S
C7 O10 1.238 1_455 S
C7 O11 1.241 . S
C8 O1 1.247 1_655 S
C8 O2 1.261 . S
C9 O4 1.259 . S
C9 O6 1.235 1_545 S
O10 Co0 2.021 . S
O10 C7 1.238 1_655 S
O11 Co5 2.056 . S
O11 C7 1.241 . S
O12 Co0 2.137 1_455 S
O12 C3 1.247 . S
O13 Co0 2.244 1_455 S
O13 C3 1.272 . S
O13 Co5 2.142 . S
Co14 O15 2.216 1_455 S
Co14 O16 2.091 . S
Co14 O18 2.004 . S
Co14 O24 2.021 . S
Co14 O26 2.137 1_455 S
Co14 O27 2.244 1_455 S
O15 Co14 2.216 1_655 S
O15 C22 1.247 1_655 S
O16 Co14 2.091 . S
O16 C22 1.261 . S
C17 O26 1.247 . S
C17 O27 1.272 . S
O18 Co14 2.004 . S
O18 C23 1.259 . S
Co19 O20 2.061 1_655 S
Co19 O25 2.052 . S
Co19 O27 2.135 . S
O20 Co19 2.061 1_455 S
O20 C23 1.235 . S
C21 O24 1.238 1_655 S
C21 O25 1.241 . S
C22 O15 1.247 1_455 S
C22 O16 1.261 . S
C23 O18 1.259 . S
C23 O20 1.235 . S
O24 Co14 2.021 . S
O24 C21 1.238 1_455 S
O25 Co19 2.052 . S
O25 C21 1.241 . S
O26 Co14 2.137 1_655 S
O26 C17 1.247 . S
O27 Co14 2.244 1_655 S
O27 C17 1.272 . S
O27 Co19 2.135 . S
Co28 O29 2.216 1_655 S
Co28 O30 2.091 . S
Co28 O32 2.004 . S
Co28 O38 2.021 . S
Co28 O40 2.137 1_655 S
Co28 O41 2.244 1_655 S
O29 Co28 2.216 1_455 S
O29 C36 1.247 1_455 S
O30 Co28 2.091 . S
O30 C36 1.261 . S
C31 O40 1.247 . S
C31 O41 1.272 . S
O32 Co28 2.004 . S
O32 C37 1.259 . S
Co33 O34 2.061 1_455 S
Co33 O39 2.052 . S
Co33 O41 2.135 . S
O34 Co33 2.061 1_655 S
O34 C37 1.235 . S
C35 O38 1.238 1_455 S
C35 O39 1.241 . S
C36 O29 1.247 1_655 S
C36 O30 1.261 . S
C37 O32 1.259 . S
C37 O34 1.235 . S
O38 Co28 2.021 . S
O38 C35 1.238 1_655 S
O39 Co33 2.052 . S
O39 C35 1.241 . S
O40 Co28 2.137 1_455 S
O40 C31 1.247 . S
O41 Co28 2.244 1_455 S
O41 C31 1.272 . S
O41 Co33 2.135 . S
Co42 O43 2.216 1_455 S
Co42 O44 2.091 . S
Co42 O46 2.004 . S
Co42 O52 2.021 . S
Co42 O54 2.137 1_455 S
Co42 O55 2.244 1_455 S
O43 Co42 2.216 1_655 S
O43 C50 1.247 1_655 S
O44 Co42 2.091 . S
O44 C50 1.261 . S
C45 O54 1.247 . S
C45 O55 1.272 . S
O46 Co42 2.004 . S
O46 C51 1.259 . S
Co47 O48 2.061 1_655 S
Co47 O53 2.052 . S
Co47 O55 2.135 . S
O48 Co47 2.061 1_455 S
O48 C51 1.235 . S
C49 O52 1.238 1_655 S
C49 O53 1.241 . S
C50 O43 1.247 1_455 S
C50 O44 1.261 . S
C51 O46 1.259 . S
C51 O48 1.235 . S
O52 Co42 2.021 . S
O52 C49 1.238 1_455 S
O53 Co47 2.052 . S
O53 C49 1.241 . S
O54 Co42 2.137 1_655 S
O54 C45 1.247 . S
O55 Co42 2.244 1_655 S
O55 C45 1.272 . S
O55 Co47 2.135 . S
Co56 O57 2.216 1_565 S
Co56 O58 2.091 . S
Co56 O60 2.004 . S
Co56 O66 2.021 . S
Co56 O68 2.137 1_565 S
Co56 O69 2.244 1_565 S
O57 Co56 2.216 1_545 S
O57 C64 1.247 1_545 S
O58 Co56 2.091 . S
O58 C64 1.261 . S
C59 O68 1.247 . S
C59 O69 1.272 . S
O60 Co56 2.004 . S
O60 C65 1.259 . S
Co61 O62 2.061 1_544 S
Co61 O67 2.056 . S
Co61 O69 2.142 . S
O62 Co61 2.061 1_566 S
O62 C65 1.235 1_556 S
C63 O66 1.238 1_545 S
C63 O67 1.241 . S
C64 O57 1.247 1_565 S
C64 O58 1.261 . S
C65 O60 1.259 . S
C65 O62 1.235 1_554 S
O66 Co56 2.021 . S
O66 C63 1.238 1_565 S
O67 Co61 2.056 . S
O67 C63 1.241 . S
O68 Co56 2.137 1_545 S
O68 C59 1.247 . S
O69 Co56 2.244 1_545 S
O69 C59 1.272 . S
O69 Co61 2.142 . S
Co70 O71 2.216 . S
Co70 O72 2.091 . S
Co70 O74 2.004 . S
Co70 O80 2.021 . S
Co70 O82 2.137 . S
Co70 O83 2.244 . S
O71 Co70 2.216 . S
O71 C78 1.247 . S
O72 Co70 2.091 . S
O72 C78 1.261 . S
C73 O82 1.247 . S
C73 O83 1.272 . S
O74 Co70 2.004 . S
O74 C79 1.259 . S
Co75 O76 2.061 . S
Co75 O81 2.052 . S
Co75 O83 2.135 . S
O76 Co75 2.061 . S
O76 C79 1.235 . S
C77 O80 1.238 . S
C77 O81 1.241 . S
C78 O71 1.247 . S
C78 O72 1.261 . S
C79 O74 1.259 . S
C79 O76 1.235 . S
O80 Co70 2.021 . S
O80 C77 1.238 . S
O81 Co75 2.052 . S
O81 C77 1.241 . S
O82 Co70 2.137 . S
O82 C73 1.247 . S
O83 Co70 2.244 . S
O83 C73 1.272 . S
O83 Co75 2.135 . S
Co84 O85 2.216 1_545 S
Co84 O86 2.091 . S
Co84 O88 2.004 . S
Co84 O94 2.021 . S
Co84 O96 2.137 1_545 S
Co84 O97 2.244 1_545 S
O85 Co84 2.216 1_565 S
O85 C92 1.247 1_565 S
O86 Co84 2.091 . S
O86 C92 1.261 . S
C87 O96 1.247 . S
C87 O97 1.272 . S
O88 Co84 2.004 . S
O88 C93 1.259 . S
Co89 O90 2.061 1_565 S
Co89 O95 2.052 . S
Co89 O97 2.135 . S
O90 Co89 2.061 1_545 S
O90 C93 1.235 . S
C91 O94 1.238 1_565 S
C91 O95 1.241 . S
C92 O85 1.247 1_545 S
C92 O86 1.261 . S
C93 O88 1.259 . S
C93 O90 1.235 . S
O94 Co84 2.021 . S
O94 C91 1.238 1_545 S
O95 Co89 2.052 . S
O95 C91 1.241 . S
O96 Co84 2.137 1_565 S
O96 C87 1.247 . S
O97 Co84 2.244 1_565 S
O97 C87 1.272 . S
O97 Co89 2.135 . S
Co98 O99 2.216 . S
Co98 O100 2.091 . S
Co98 O102 2.004 . S
Co98 O108 2.021 . S
Co98 O110 2.137 . S
Co98 O111 2.244 . S
O99 Co98 2.216 . S
O99 C106 1.247 . S
O100 Co98 2.091 . S
O100 C106 1.261 . S
C101 O110 1.247 . S
C101 O111 1.272 . S
O102 Co98 2.004 . S
O102 C107 1.259 . S
Co103 O104 2.061 . S
Co103 O109 2.052 . S
Co103 O111 2.135 . S
O104 Co103 2.061 . S
O104 C107 1.235 . S
C105 O108 1.238 . S
C105 O109 1.241 . S
C106 O99 1.247 . S
C106 O100 1.261 . S
C107 O102 1.259 . S
C107 O104 1.235 . S
O108 Co98 2.021 . S
O108 C105 1.238 . S
O109 Co103 2.052 . S
O109 C105 1.241 . S
O110 Co98 2.137 . S
O110 C101 1.247 . S
O111 Co98 2.244 . S
O111 C101 1.272 . S
O111 Co103 2.135 . S
Co112 O113 2.216 1_556 S
Co112 O114 2.091 . S
Co112 O116 2.004 . S
Co112 O122 2.021 . S
Co112 O124 2.137 1_556 S
Co112 O125 2.244 1_556 S
O113 Co112 2.216 1_554 S
O113 C120 1.247 1_554 S
O114 Co112 2.091 . S
O114 C120 1.261 . S
C115 O124 1.247 . S
C115 O125 1.272 . S
O116 Co112 2.004 . S
O116 C121 1.259 . S
Co117 O118 2.061 1_454 S
Co117 O123 2.056 . S
Co117 O125 2.142 . S
O118 Co117 2.061 1_656 S
O118 C121 1.235 1_655 S
C119 O122 1.238 1_554 S
C119 O123 1.241 . S
C120 O113 1.247 1_556 S
C120 O114 1.261 . S
C121 O116 1.259 . S
C121 O118 1.235 1_455 S
O122 Co112 2.021 . S
O122 C119 1.238 1_556 S
O123 Co117 2.056 . S
O123 C119 1.241 . S
O124 Co112 2.137 1_554 S
O124 C115 1.247 . S
O125 Co112 2.244 1_554 S
O125 C115 1.272 . S
O125 Co117 2.142 . S
Co126 O127 2.216 . S
Co126 O128 2.091 . S
Co126 O130 2.004 . S
Co126 O136 2.021 . S
Co126 O138 2.137 . S
Co126 O139 2.244 . S
O127 Co126 2.216 . S
O127 C134 1.247 . S
O128 Co126 2.091 . S
O128 C134 1.261 . S
C129 O138 1.247 . S
C129 O139 1.272 . S
O130 Co126 2.004 . S
O130 C135 1.259 . S
Co131 O132 2.061 . S
Co131 O137 2.052 . S
Co131 O139 2.135 . S
O132 Co131 2.061 . S
O132 C135 1.235 . S
C133 O136 1.238 . S
C133 O137 1.241 . S
C134 O127 1.247 . S
C134 O128 1.261 . S
C135 O130 1.259 . S
C135 O132 1.235 . S
O136 Co126 2.021 . S
O136 C133 1.238 . S
O137 Co131 2.052 . S
O137 C133 1.241 . S
O138 Co126 2.137 . S
O138 C129 1.247 . S
O139 Co126 2.244 . S
O139 C129 1.272 . S
O139 Co131 2.135 . S
Co140 O141 2.216 . S
Co140 O142 2.091 . S
Co140 O144 2.004 . S
Co140 O150 2.021 . S
Co140 O152 2.137 . S
Co140 O153 2.244 . S
O141 Co140 2.216 . S
O141 C148 1.247 . S
O142 Co140 2.091 . S
O142 C148 1.261 . S
C143 O152 1.247 . S
C143 O153 1.272 . S
O144 Co140 2.004 . S
O144 C149 1.259 . S
Co145 O146 2.061 . S
Co145 O151 2.052 . S
Co145 O153 2.135 . S
O146 Co145 2.061 . S
O146 C149 1.235 . S
C147 O150 1.238 . S
C147 O151 1.241 . S
C148 O141 1.247 . S
C148 O142 1.261 . S
C149 O144 1.259 . S
C149 O146 1.235 . S
O150 Co140 2.021 . S
O150 C147 1.238 . S
O151 Co145 2.052 . S
O151 C147 1.241 . S
O152 Co140 2.137 . S
O152 C143 1.247 . S
O153 Co140 2.244 . S
O153 C143 1.272 . S
O153 Co145 2.135 . S
Co154 O155 2.216 . S
Co154 O156 2.091 . S
Co154 O158 2.004 . S
Co154 O164 2.021 . S
Co154 O166 2.137 . S
Co154 O167 2.244 . S
O155 Co154 2.216 . S
O155 C162 1.247 . S
O156 Co154 2.091 . S
O156 C162 1.261 . S
C157 O166 1.247 . S
C157 O167 1.272 . S
O158 Co154 2.004 . S
O158 C163 1.259 . S
Co159 O160 2.061 . S
Co159 O165 2.052 . S
Co159 O167 2.135 . S
O160 Co159 2.061 . S
O160 C163 1.235 . S
C161 O164 1.238 . S
C161 O165 1.241 . S
C162 O155 1.247 . S
C162 O156 1.261 . S
C163 O158 1.259 . S
C163 O160 1.235 . S
O164 Co154 2.021 . S
O164 C161 1.238 . S
O165 Co159 2.052 . S
O165 C161 1.241 . S
O166 Co154 2.137 . S
O166 C157 1.247 . S
O167 Co154 2.244 . S
O167 C157 1.272 . S
O167 Co159 2.135 . S
Co168 O169 2.216 . S
Co168 O170 2.091 . S
Co168 O172 2.004 . S
Co168 O178 2.021 . S
Co168 O180 2.137 . S
Co168 O181 2.244 . S
O169 Co168 2.216 . S
O169 C176 1.247 . S
O170 Co168 2.091 . S
O170 C176 1.261 . S
C171 O180 1.247 . S
C171 O181 1.272 . S
O172 Co168 2.004 . S
O172 C177 1.259 . S
Co173 O174 2.061 . S
Co173 O179 2.052 . S
Co173 O181 2.135 . S
O174 Co173 2.061 . S
O174 C177 1.235 . S
C175 O178 1.238 . S
C175 O179 1.241 . S
C176 O169 1.247 . S
C176 O170 1.261 . S
C177 O172 1.259 . S
C177 O174 1.235 . S
O178 Co168 2.021 . S
O178 C175 1.238 . S
O179 Co173 2.052 . S
O179 C175 1.241 . S
O180 Co168 2.137 . S
O180 C171 1.247 . S
O181 Co168 2.244 . S
O181 C171 1.272 . S
O181 Co173 2.135 . S
Co182 O183 2.216 . S
Co182 O184 2.091 . S
Co182 O186 2.004 . S
Co182 O192 2.021 . S
Co182 O194 2.137 . S
Co182 O195 2.244 . S
O183 Co182 2.216 . S
O183 C190 1.247 . S
O184 Co182 2.091 . S
O184 C190 1.261 . S
C185 O194 1.247 . S
C185 O195 1.272 . S
O186 Co182 2.004 . S
O186 C191 1.259 . S
Co187 O188 2.061 . S
Co187 O193 2.052 . S
Co187 O195 2.135 . S
O188 Co187 2.061 . S
O188 C191 1.235 . S
C189 O192 1.238 . S
C189 O193 1.241 . S
C190 O183 1.247 . S
C190 O184 1.261 . S
C191 O186 1.259 . S
C191 O188 1.235 . S
O192 Co182 2.021 . S
O192 C189 1.238 . S
O193 Co187 2.052 . S
O193 C189 1.241 . S
O194 Co182 2.137 . S
O194 C185 1.247 . S
O195 Co182 2.244 . S
O195 C185 1.272 . S
O195 Co187 2.135 . S
Co196 O197 2.216 . S
Co196 O198 2.091 . S
Co196 O200 2.004 . S
Co196 O206 2.021 . S
Co196 O208 2.137 . S
Co196 O209 2.244 . S
O197 Co196 2.216 . S
O197 C204 1.247 . S
O198 Co196 2.091 . S
O198 C204 1.261 . S
C199 O208 1.247 . S
C199 O209 1.272 . S
O200 Co196 2.004 . S
O200 C205 1.259 . S
Co201 O202 2.061 . S
Co201 O207 2.052 . S
Co201 O209 2.135 . S
O202 Co201 2.061 . S
O202 C205 1.235 . S
C203 O206 1.238 . S
C203 O207 1.241 . S
C204 O197 1.247 . S
C204 O198 1.261 . S
C205 O200 1.259 . S
C205 O202 1.235 . S
O206 Co196 2.021 . S
O206 C203 1.238 . S
O207 Co201 2.052 . S
O207 C203 1.241 . S
O208 Co196 2.137 . S
O208 C199 1.247 . S
O209 Co196 2.244 . S
O209 C199 1.272 . S
O209 Co201 2.135 . S
Co210 O211 2.216 . S
Co210 O212 2.091 . S
Co210 O214 2.004 . S
Co210 O220 2.021 . S
Co210 O222 2.137 . S
Co210 O223 2.244 . S
O211 Co210 2.216 . S
O211 C218 1.247 . S
O212 Co210 2.091 . S
O212 C218 1.261 . S
C213 O222 1.247 . S
C213 O223 1.272 . S
O214 Co210 2.004 . S
O214 C219 1.259 . S
Co215 O216 2.061 . S
Co215 O221 2.052 . S
Co215 O223 2.135 . S
O216 Co215 2.061 . S
O216 C219 1.235 . S
C217 O220 1.238 . S
C217 O221 1.241 . S
C218 O211 1.247 . S
C218 O212 1.261 . S
C219 O214 1.259 . S
C219 O216 1.235 . S
O220 Co210 2.021 . S
O220 C217 1.238 . S
O221 Co215 2.052 . S
O221 C217 1.241 . S
O222 Co210 2.137 . S
O222 C213 1.247 . S
O223 Co210 2.244 . S
O223 C213 1.272 . S
O223 Co215 2.135 . S
Co224 O225 2.216 . S
Co224 O226 2.091 . S
Co224 O228 2.004 . S
Co224 O234 2.021 . S
Co224 O236 2.137 . S
Co224 O237 2.244 . S
O225 Co224 2.216 . S
O225 C232 1.247 . S
O226 Co224 2.091 . S
O226 C232 1.261 . S
C227 O236 1.247 . S
C227 O237 1.272 . S
O228 Co224 2.004 . S
O228 C233 1.259 . S
Co229 O230 2.061 . S
Co229 O235 2.052 . S
Co229 O237 2.135 . S
O230 Co229 2.061 . S
O230 C233 1.235 . S
C231 O234 1.238 . S
C231 O235 1.241 . S
C232 O225 1.247 . S
C232 O226 1.261 . S
C233 O228 1.259 . S
C233 O230 1.235 . S
O234 Co224 2.021 . S
O234 C231 1.238 . S
O235 Co229 2.052 . S
O235 C231 1.241 . S
O236 Co224 2.137 . S
O236 C227 1.247 . S
O237 Co224 2.244 . S
O237 C227 1.272 . S
O237 Co229 2.135 . S
Co238 O239 2.216 1_545 S
Co238 O240 2.091 . S
Co238 O242 2.004 . S
Co238 O248 2.021 . S
Co238 O250 2.137 1_545 S
Co238 O251 2.244 1_545 S
O239 Co238 2.216 1_565 S
O239 C246 1.247 1_565 S
O240 Co238 2.091 . S
O240 C246 1.261 . S
C241 O250 1.247 . S
C241 O251 1.272 . S
O242 Co238 2.004 . S
O242 C247 1.259 . S
Co243 O244 2.061 1_565 S
Co243 O249 2.052 . S
Co243 O251 2.135 . S
O244 Co243 2.061 1_545 S
O244 C247 1.235 . S
C245 O248 1.238 1_565 S
C245 O249 1.241 . S
C246 O239 1.247 1_545 S
C246 O240 1.261 . S
C247 O242 1.259 . S
C247 O244 1.235 . S
O248 Co238 2.021 . S
O248 C245 1.238 1_545 S
O249 Co243 2.052 . S
O249 C245 1.241 . S
O250 Co238 2.137 1_565 S
O250 C241 1.247 . S
O251 Co238 2.244 1_565 S
O251 C241 1.272 . S
O251 Co243 2.135 . S
Co252 O253 2.216 . S
Co252 O254 2.091 . S
Co252 O256 2.004 . S
Co252 O262 2.021 . S
Co252 O264 2.137 . S
Co252 O265 2.244 . S
O253 Co252 2.216 . S
O253 C260 1.247 . S
O254 Co252 2.091 . S
O254 C260 1.261 . S
C255 O264 1.247 . S
C255 O265 1.272 . S
O256 Co252 2.004 . S
O256 C261 1.259 . S
Co257 O258 2.061 . S
Co257 O263 2.052 . S
Co257 O265 2.135 . S
O258 Co257 2.061 . S
O258 C261 1.235 . S
C259 O262 1.238 . S
C259 O263 1.241 . S
C260 O253 1.247 . S
C260 O254 1.261 . S
C261 O256 1.259 . S
C261 O258 1.235 . S
O262 Co252 2.021 . S
O262 C259 1.238 . S
O263 Co257 2.052 . S
O263 C259 1.241 . S
O264 Co252 2.137 . S
O264 C255 1.247 . S
O265 Co252 2.244 . S
O265 C255 1.272 . S
O265 Co257 2.135 . S
Co266 O267 2.216 1_565 S
Co266 O268 2.091 . S
Co266 O270 2.004 . S
Co266 O276 2.021 . S
Co266 O278 2.137 1_565 S
Co266 O279 2.244 1_565 S
O267 Co266 2.216 1_545 S
O267 C274 1.247 1_545 S
O268 Co266 2.091 . S
O268 C274 1.261 . S
C269 O278 1.247 . S
C269 O279 1.272 . S
O270 Co266 2.004 . S
O270 C275 1.259 . S
Co271 O272 2.061 1_545 S
Co271 O277 2.052 . S
Co271 O279 2.135 . S
O272 Co271 2.061 1_565 S
O272 C275 1.235 . S
C273 O276 1.238 1_545 S
C273 O277 1.241 . S
C274 O267 1.247 1_565 S
C274 O268 1.261 . S
C275 O270 1.259 . S
C275 O272 1.235 . S
O276 Co266 2.021 . S
O276 C273 1.238 1_565 S
O277 Co271 2.052 . S
O277 C273 1.241 . S
O278 Co266 2.137 1_545 S
O278 C269 1.247 . S
O279 Co266 2.244 1_545 S
O279 C269 1.272 . S
O279 Co271 2.135 . S
Co280 O281 2.216 . S
Co280 O282 2.091 . S
Co280 O284 2.004 . S
Co280 O290 2.021 . S
Co280 O292 2.137 . S
Co280 O293 2.244 . S
O281 Co280 2.216 . S
O281 C288 1.247 . S
O282 Co280 2.091 . S
O282 C288 1.261 . S
C283 O292 1.247 . S
C283 O293 1.272 . S
O284 Co280 2.004 . S
O284 C289 1.259 . S
Co285 O286 2.061 . S
Co285 O291 2.052 . S
Co285 O293 2.135 . S
O286 Co285 2.061 . S
O286 C289 1.235 . S
C287 O290 1.238 . S
C287 O291 1.241 . S
C288 O281 1.247 . S
C288 O282 1.261 . S
C289 O284 1.259 . S
C289 O286 1.235 . S
O290 Co280 2.021 . S
O290 C287 1.238 . S
O291 Co285 2.052 . S
O291 C287 1.241 . S
O292 Co280 2.137 . S
O292 C283 1.247 . S
O293 Co280 2.244 . S
O293 C283 1.272 . S
O293 Co285 2.135 . S
Co294 O295 2.216 1_554 S
Co294 O296 2.091 . S
Co294 O298 2.004 . S
Co294 O304 2.021 . S
Co294 O306 2.137 1_554 S
Co294 O307 2.244 1_554 S
O295 Co294 2.216 1_556 S
O295 C302 1.247 1_556 S
O296 Co294 2.091 . S
O296 C302 1.261 . S
C297 O306 1.247 . S
C297 O307 1.272 . S
O298 Co294 2.004 . S
O298 C303 1.259 . S
Co299 O300 2.061 1_556 S
Co299 O305 2.052 . S
Co299 O307 2.135 . S
O300 Co299 2.061 1_554 S
O300 C303 1.235 . S
C301 O304 1.238 1_556 S
C301 O305 1.241 . S
C302 O295 1.247 1_554 S
C302 O296 1.261 . S
C303 O298 1.259 . S
C303 O300 1.235 . S
O304 Co294 2.021 . S
O304 C301 1.238 1_554 S
O305 Co299 2.052 . S
O305 C301 1.241 . S
O306 Co294 2.137 1_556 S
O306 C297 1.247 . S
O307 Co294 2.244 1_556 S
O307 C297 1.272 . S
O307 Co299 2.135 . S
Co308 O309 2.216 1_554 S
Co308 O310 2.091 . S
Co308 O312 2.004 . S
Co308 O318 2.021 . S
Co308 O320 2.137 1_554 S
Co308 O321 2.244 1_554 S
O309 Co308 2.216 1_556 S
O309 C316 1.247 1_556 S
O310 Co308 2.091 . S
O310 C316 1.261 . S
C311 O320 1.247 . S
C311 O321 1.272 . S
O312 Co308 2.004 . S
O312 C317 1.259 . S
Co313 O314 2.061 1_556 S
Co313 O319 2.052 . S
Co313 O321 2.135 . S
O314 Co313 2.061 1_554 S
O314 C317 1.235 . S
C315 O318 1.238 1_556 S
C315 O319 1.241 . S
C316 O309 1.247 1_554 S
C316 O310 1.261 . S
C317 O312 1.259 . S
C317 O314 1.235 . S
O318 Co308 2.021 . S
O318 C315 1.238 1_554 S
O319 Co313 2.052 . S
O319 C315 1.241 . S
O320 Co308 2.137 1_556 S
O320 C311 1.247 . S
O321 Co308 2.244 1_556 S
O321 C311 1.272 . S
O321 Co313 2.135 . S
Co322 O323 2.216 1_556 S
Co322 O324 2.091 . S
Co322 O326 2.004 . S
Co322 O332 2.021 . S
Co322 O334 2.137 1_556 S
Co322 O335 2.244 1_556 S
O323 Co322 2.216 1_554 S
O323 C330 1.247 1_554 S
O324 Co322 2.091 . S
O324 C330 1.261 . S
C325 O334 1.247 . S
C325 O335 1.272 . S
O326 Co322 2.004 . S
O326 C331 1.259 . S
Co327 O328 2.061 1_554 S
Co327 O333 2.052 . S
Co327 O335 2.135 . S
O328 Co327 2.061 1_556 S
O328 C331 1.235 . S
C329 O332 1.238 1_554 S
C329 O333 1.241 . S
C330 O323 1.247 1_556 S
C330 O324 1.261 . S
C331 O326 1.259 . S
C331 O328 1.235 . S
O332 Co322 2.021 . S
O332 C329 1.238 1_556 S
O333 Co327 2.052 . S
O333 C329 1.241 . S
O334 Co322 2.137 1_554 S
O334 C325 1.247 . S
O335 Co322 2.244 1_554 S
O335 C325 1.272 . S
O335 Co327 2.135 . S
C336 C337 1.363 . S
C336 C342 1.379 . S
C336 N344 1.356 . S
C337 C336 1.363 . S
C337 C343 1.363 . S
C338 C339 1.363 . S
C338 C343 1.379 . S
C338 N345 1.356 . S
C339 C338 1.363 . S
C339 C342 1.363 . S
N340 C342 1.356 . S
N340 H352 0.984 . S
N340 H353 0.985 . S
N341 C343 1.356 . S
N341 H346 0.984 . S
N341 H347 0.985 1_545 S
C342 C336 1.379 . S
C342 C339 1.363 . S
C342 N340 1.356 . S
C343 C337 1.363 . S
C343 C338 1.379 . S
C343 N341 1.356 . S
N344 C336 1.356 . S
N344 H350 0.984 . S
N344 H351 0.984 . S
N345 C338 1.356 . S
N345 H348 0.984 . S
N345 H349 0.985 . S
H346 N341 0.984 . S
H347 N341 0.985 1_565 S
H348 N345 0.984 . S
H349 N345 0.985 . S
H350 N344 0.984 . S
H351 N344 0.984 . S
H352 N340 0.984 . S
H353 N340 0.985 . S
C354 C355 1.363 . S
C354 C360 1.379 . S
C354 N362 1.356 . S
C355 C354 1.363 . S
C355 C361 1.363 . S
C356 C357 1.363 . S
C356 C361 1.379 . S
C356 N363 1.356 . S
C357 C356 1.363 . S
C357 C360 1.363 . S
N358 C360 1.356 . S
N358 H370 0.984 . S
N358 H371 0.985 . S
N359 C361 1.356 . S
N359 H364 0.984 . S
N359 H365 0.985 1_655 S
C360 C354 1.379 . S
C360 C357 1.363 . S
C360 N358 1.356 . S
C361 C355 1.363 . S
C361 C356 1.379 . S
C361 N359 1.356 . S
N362 C354 1.356 . S
N362 H368 0.984 . S
N362 H369 0.984 . S
N363 C356 1.356 . S
N363 H366 0.984 . S
N363 H367 0.985 . S
H364 N359 0.984 . S
H365 N359 0.985 1_455 S
H366 N363 0.984 . S
H367 N363 0.985 . S
H368 N362 0.984 . S
H369 N362 0.984 . S
H370 N358 0.984 . S
H371 N358 0.985 . S
C372 C373 1.363 . S
C372 C378 1.379 . S
C372 N380 1.356 . S
C373 C372 1.363 . S
C373 C379 1.363 . S
C374 C375 1.363 1_554 S
C374 C379 1.379 . S
C374 N381 1.356 1_554 S
C375 C374 1.363 1_556 S
C375 C378 1.363 1_556 S
N376 C378 1.356 1_556 S
N376 H388 0.984 1_565 S
N376 H389 0.985 . S
N377 C379 1.356 . S
N377 H382 0.984 . S
N377 H383 0.985 . S
C378 C372 1.379 . S
C378 C375 1.363 1_554 S
C378 N376 1.356 1_554 S
C379 C373 1.363 . S
C379 C374 1.379 . S
C379 N377 1.356 . S
N380 C372 1.356 . S
N380 H386 0.984 1_565 S
N380 H387 0.984 . S
N381 C374 1.356 1_556 S
N381 H384 0.984 . S
N381 H385 0.985 . S
H382 N377 0.984 . S
H383 N377 0.985 . S
H384 N381 0.984 . S
H385 N381 0.985 . S
H386 N380 0.984 1_545 S
H387 N380 0.984 . S
H388 N376 0.984 1_545 S
H389 N376 0.985 . S
C390 C391 1.363 . S
C390 C396 1.379 . S
C390 N398 1.356 . S
C391 C390 1.363 . S
C391 C397 1.363 . S
C392 C393 1.363 1_554 S
C392 C397 1.379 . S
C392 N399 1.353 1_554 S
C393 C392 1.363 1_556 S
C393 C396 1.363 1_556 S
N394 C396 1.356 1_556 S
N394 H406 0.984 . S
N394 H407 0.985 . S
N395 C397 1.356 . S
N395 H400 0.984 . S
N395 H401 0.985 . S
C396 C390 1.379 . S
C396 C393 1.363 1_554 S
C396 N394 1.356 1_554 S
C397 C391 1.363 . S
C397 C392 1.379 . S
C397 N395 1.356 . S
N398 C390 1.356 . S
N398 H404 0.984 . S
N398 H405 0.984 . S
N399 C392 1.353 1_556 S
N399 H402 0.991 . S
N399 H403 0.982 1_556 S
H400 N395 0.984 . S
H401 N395 0.985 . S
H402 N399 0.991 . S
H403 N399 0.982 1_554 S
H404 N398 0.984 . S
H405 N398 0.984 . S
H406 N394 0.984 . S
H407 N394 0.985 . S
C408 C409 1.363 . S
C408 C414 1.379 . S
C408 N416 1.356 . S
C409 C408 1.363 . S
C409 C415 1.363 . S
C410 C411 1.363 . S
C410 C415 1.379 . S
C410 N417 1.356 . S
C411 C410 1.363 . S
C411 C414 1.363 . S
N412 C414 1.356 . S
N412 H424 0.984 1_554 S
N412 H425 0.985 . S
N413 C415 1.356 . S
N413 H418 0.984 . S
N413 H419 0.985 . S
C414 C408 1.379 . S
C414 C411 1.363 . S
C414 N412 1.356 . S
C415 C409 1.363 . S
C415 C410 1.379 . S
C415 N413 1.356 . S
N416 C408 1.356 . S
N416 H422 0.984 . S
N416 H423 0.984 . S
N417 C410 1.356 . S
N417 H420 0.984 . S
N417 H421 0.985 . S
H418 N413 0.984 . S
H419 N413 0.985 . S
H420 N417 0.984 . S
H421 N417 0.985 . S
H422 N416 0.984 . S
H423 N416 0.984 . S
H424 N412 0.984 1_556 S
H425 N412 0.985 . S
C426 C427 1.363 . S
C426 C432 1.379 . S
C426 N434 1.356 . S
C427 C426 1.363 . S
C427 C433 1.363 . S
C428 C429 1.363 . S
C428 C433 1.379 . S
C428 N435 1.356 . S
C429 C428 1.363 . S
C429 C432 1.363 . S
N430 C432 1.356 . S
N430 H442 0.984 . S
N430 H443 0.985 . S
N431 C433 1.356 . S
N431 H436 0.984 . S
N431 H437 0.985 . S
C432 C426 1.379 . S
C432 C429 1.363 . S
C432 N430 1.356 . S
C433 C427 1.363 . S
C433 C428 1.379 . S
C433 N431 1.356 . S
N434 C426 1.356 . S
N434 H440 0.984 . S
N434 H441 0.984 . S
N435 C428 1.356 . S
N435 H438 0.984 . S
N435 H439 0.985 . S
H436 N431 0.984 . S
H437 N431 0.985 . S
H438 N435 0.984 . S
H439 N435 0.985 . S
H440 N434 0.984 . S
H441 N434 0.984 . S
H442 N430 0.984 . S
H443 N430 0.985 . S
C444 C445 1.363 . S
C444 C450 1.379 . S
C444 N452 1.356 . S
C445 C444 1.363 . S
C445 C451 1.363 . S
C446 C447 1.363 . S
C446 C451 1.379 . S
C446 N453 1.356 . S
C447 C446 1.363 . S
C447 C450 1.363 . S
N448 C450 1.356 . S
N448 H460 0.984 . S
N448 H461 0.985 . S
N449 C451 1.356 . S
N449 H454 0.984 . S
N449 H455 0.985 . S
C450 C444 1.379 . S
C450 C447 1.363 . S
C450 N448 1.356 . S
C451 C445 1.363 . S
C451 C446 1.379 . S
C451 N449 1.356 . S
N452 C444 1.356 . S
N452 H458 0.984 . S
N452 H459 0.984 . S
N453 C446 1.356 . S
N453 H456 0.984 . S
N453 H457 0.985 1_565 S
H454 N449 0.984 . S
H455 N449 0.985 . S
H456 N453 0.984 . S
H457 N453 0.985 1_545 S
H458 N452 0.984 . S
H459 N452 0.984 . S
H460 N448 0.984 . S
H461 N448 0.985 . S
C462 C463 1.363 . S
C462 C468 1.379 . S
C462 N470 1.356 . S
C463 C462 1.363 . S
C463 C469 1.363 . S
C464 C465 1.363 . S
C464 C469 1.379 . S
C464 N471 1.356 . S
C465 C464 1.363 . S
C465 C468 1.363 . S
N466 C468 1.356 . S
N466 H478 0.984 . S
N466 H479 0.985 . S
N467 C469 1.356 . S
N467 H472 0.984 . S
N467 H473 0.985 . S
C468 C462 1.379 . S
C468 C465 1.363 . S
C468 N466 1.356 . S
C469 C463 1.363 . S
C469 C464 1.379 . S
C469 N467 1.356 . S
N470 C462 1.356 . S
N470 H476 0.984 . S
N470 H477 0.984 . S
N471 C464 1.356 . S
N471 H474 0.984 . S
N471 H475 0.985 . S
H472 N467 0.984 . S
H473 N467 0.985 . S
H474 N471 0.984 . S
H475 N471 0.985 . S
H476 N470 0.984 . S
H477 N470 0.984 . S
H478 N466 0.984 . S
H479 N466 0.985 . S
C480 C481 1.363 . S
C480 C486 1.379 . S
C480 N488 1.356 . S
C481 C480 1.363 . S
C481 C487 1.363 . S
C482 C483 1.363 . S
C482 C487 1.379 . S
C482 N489 1.356 . S
C483 C482 1.363 . S
C483 C486 1.363 . S
N484 C486 1.356 . S
N484 H496 0.984 . S
N484 H497 0.985 . S
N485 C487 1.356 . S
N485 H490 0.984 . S
N485 H491 0.985 . S
C486 C480 1.379 . S
C486 C483 1.363 . S
C486 N484 1.356 . S
C487 C481 1.363 . S
C487 C482 1.379 . S
C487 N485 1.356 . S
N488 C480 1.356 . S
N488 H494 0.984 1_554 S
N488 H495 0.984 . S
N489 C482 1.356 . S
N489 H492 0.984 . S
N489 H493 0.985 . S
H490 N485 0.984 . S
H491 N485 0.985 . S
H492 N489 0.984 . S
H493 N489 0.985 . S
H494 N488 0.984 1_556 S
H495 N488 0.984 . S
H496 N484 0.984 . S
H497 N484 0.985 . S
C498 C499 1.363 . S
C498 C504 1.379 . S
C498 N506 1.356 . S
C499 C498 1.363 . S
C499 C505 1.363 . S
C500 C501 1.363 . S
C500 C505 1.379 . S
C500 N507 1.356 . S
C501 C500 1.363 . S
C501 C504 1.363 . S
N502 C504 1.356 . S
N502 H514 0.984 1_455 S
N502 H515 0.985 . S
N503 C505 1.356 . S
N503 H508 0.984 . S
N503 H509 0.985 . S
C504 C498 1.379 . S
C504 C501 1.363 . S
C504 N502 1.356 . S
C505 C499 1.363 . S
C505 C500 1.379 . S
C505 N503 1.356 . S
N506 C498 1.356 . S
N506 H512 0.984 1_455 S
N506 H513 0.984 . S
N507 C500 1.356 . S
N507 H510 0.984 . S
N507 H511 0.985 . S
H508 N503 0.984 . S
H509 N503 0.985 . S
H510 N507 0.984 . S
H511 N507 0.985 . S
H512 N506 0.984 1_655 S
H513 N506 0.984 . S
H514 N502 0.984 1_655 S
H515 N502 0.985 . S
C516 C517 1.363 . S
C516 C522 1.379 . S
C516 N524 1.356 . S
C517 C516 1.363 . S
C517 C523 1.363 . S
C518 C519 1.363 . S
C518 C523 1.354 1_545 S
C518 N525 1.385 . S
C519 C518 1.363 . S
C519 C522 1.337 1_545 S
N520 C522 1.356 . S
N520 H532 0.984 . S
N520 H533 0.985 1_565 S
N521 C523 1.356 . S
N521 H526 0.984 . S
N521 H527 0.985 . S
C522 C516 1.379 . S
C522 C519 1.337 1_565 S
C522 N520 1.356 . S
C523 C517 1.363 . S
C523 C518 1.354 1_565 S
C523 N521 1.356 . S
N524 C516 1.356 . S
N524 H530 0.984 . S
N524 H531 0.984 . S
N525 C518 1.385 . S
N525 H528 0.984 . S
N525 H529 0.985 . S
H526 N521 0.984 . S
H527 N521 0.985 . S
H528 N525 0.984 . S
H529 N525 0.985 . S
H530 N524 0.984 . S
H531 N524 0.984 . S
H532 N520 0.984 . S
H533 N520 0.985 1_545 S
C534 C535 1.363 . S
C534 C540 1.379 . S
C534 N542 1.356 . S
C535 C534 1.363 . S
C535 C541 1.363 . S
C536 C537 1.363 . S
C536 C541 1.379 . S
C536 N543 1.356 . S
C537 C536 1.363 . S
C537 C540 1.363 . S
N538 C540 1.356 . S
N538 H550 0.984 . S
N538 H551 0.985 . S
N539 C541 1.356 . S
N539 H544 0.984 . S
N539 H545 0.985 . S
C540 C534 1.379 . S
C540 C537 1.363 . S
C540 N538 1.356 . S
C541 C535 1.363 . S
C541 C536 1.379 . S
C541 N539 1.356 . S
N542 C534 1.356 . S
N542 H548 0.984 . S
N542 H549 0.984 . S
N543 C536 1.356 . S
N543 H546 0.984 . S
N543 H547 0.985 . S
H544 N539 0.984 . S
H545 N539 0.985 . S
H546 N543 0.984 . S
H547 N543 0.985 . S
H548 N542 0.984 . S
H549 N542 0.984 . S
H550 N538 0.984 . S
H551 N538 0.985 . S
C552 C553 1.363 1_556 S
C552 C558 1.379 . S
C552 N560 1.356 1_556 S
C553 C552 1.363 1_554 S
C553 C559 1.363 1_554 S
C554 C555 1.363 . S
C554 C559 1.379 . S
C554 N561 1.356 . S
C555 C554 1.363 . S
C555 C558 1.363 . S
N556 C558 1.356 . S
N556 H568 0.984 . S
N556 H569 0.985 . S
N557 C559 1.356 . S
N557 H562 0.984 1_556 S
N557 H563 0.985 . S
C558 C552 1.379 . S
C558 C555 1.363 . S
C558 N556 1.356 . S
C559 C553 1.363 1_556 S
C559 C554 1.379 . S
C559 N557 1.356 . S
N560 C552 1.356 1_554 S
N560 H566 0.984 . S
N560 H567 0.984 . S
N561 C554 1.356 . S
N561 H564 0.984 . S
N561 H565 0.985 . S
H562 N557 0.984 1_554 S
H563 N557 0.985 . S
H564 N561 0.984 . S
H565 N561 0.985 . S
H566 N560 0.984 . S
H567 N560 0.984 . S
H568 N556 0.984 . S
H569 N556 0.985 . S
C570 C571 1.360 1_556 S
C570 C576 1.379 . S
C570 N578 1.356 1_556 S
C571 C570 1.360 1_554 S
C571 C577 1.341 1_554 S
C572 C573 1.363 . S
C572 C577 1.379 . S
C572 N579 1.356 . S
C573 C572 1.363 . S
C573 C576 1.363 . S
N574 C576 1.356 . S
N574 H586 0.984 . S
N574 H587 0.985 . S
N575 C577 1.356 . S
N575 H580 0.984 1_556 S
N575 H581 0.985 1_565 S
C576 C570 1.379 . S
C576 C573 1.363 . S
C576 N574 1.356 . S
C577 C571 1.341 1_556 S
C577 C572 1.379 . S
C577 N575 1.356 . S
N578 C570 1.356 1_554 S
N578 H584 0.984 . S
N578 H585 0.984 . S
N579 C572 1.356 . S
N579 H582 0.984 . S
N579 H583 1.002 . S
H580 N575 0.984 1_554 S
H581 N575 0.985 1_545 S
H582 N579 0.984 . S
H583 N579 1.002 . S
H584 N578 0.984 . S
H585 N578 0.984 . S
H586 N574 0.984 . S
H587 N574 0.985 . S
C588 C589 1.363 . S
C588 C594 1.379 . S
C588 N596 1.356 . S
C589 C588 1.363 . S
C589 C595 1.363 . S
C590 C591 1.363 . S
C590 C595 1.379 . S
C590 N597 1.356 . S
C591 C590 1.363 . S
C591 C594 1.363 . S
N592 C594 1.356 . S
N592 H604 0.984 . S
N592 H605 0.985 . S
N593 C595 1.356 . S
N593 H598 0.984 . S
N593 H599 0.985 . S
C594 C588 1.379 . S
C594 C591 1.363 . S
C594 N592 1.356 . S
C595 C589 1.363 . S
C595 C590 1.379 . S
C595 N593 1.356 . S
N596 C588 1.356 . S
N596 H602 0.984 . S
N596 H603 0.984 . S
N597 C590 1.356 . S
N597 H600 0.984 . S
N597 H601 0.985 . S
H598 N593 0.984 . S
H599 N593 0.985 . S
H600 N597 0.984 . S
H601 N597 0.985 . S
H602 N596 0.984 . S
H603 N596 0.984 . S
H604 N592 0.984 . S
H605 N592 0.985 . S
C606 C607 1.363 . S
C606 C612 1.379 . S
C606 N614 1.356 . S
C607 C606 1.363 . S
C607 C613 1.363 . S
C608 C609 1.363 . S
C608 C613 1.379 . S
C608 N615 1.356 . S
C609 C608 1.363 . S
C609 C612 1.363 . S
N610 C612 1.356 . S
N610 H622 0.984 1_545 S
N610 H623 0.985 . S
N611 C613 1.356 . S
N611 H616 0.984 . S
N611 H617 0.985 . S
C612 C606 1.379 . S
C612 C609 1.363 . S
C612 N610 1.356 . S
C613 C607 1.363 . S
C613 C608 1.379 . S
C613 N611 1.356 . S
N614 C606 1.356 . S
N614 H620 0.984 1_545 S
N614 H621 0.984 . S
N615 C608 1.356 . S
N615 H618 0.984 . S
N615 H619 0.985 . S
H616 N611 0.984 . S
H617 N611 0.985 . S
H618 N615 0.984 . S
H619 N615 0.985 . S
H620 N614 0.984 1_565 S
H621 N614 0.984 . S
H622 N610 0.984 1_565 S
H623 N610 0.985 . S
C624 C625 1.363 1_655 S
C624 C630 1.379 . S
C624 N632 1.356 . S
C625 C624 1.363 1_455 S
C625 C631 1.361 1_455 S
C626 C627 1.363 . S
C626 C631 1.392 . S
C626 N633 1.356 . S
C627 C626 1.363 . S
C627 C630 1.363 . S
N628 C630 1.356 . S
N628 H640 0.984 . S
N628 H641 0.985 . S
N629 C631 1.343 1_455 S
N629 H634 0.984 . S
N629 H635 0.985 . S
C630 C624 1.379 . S
C630 C627 1.363 . S
C630 N628 1.356 . S
C631 C625 1.361 1_655 S
C631 C626 1.392 . S
C631 N629 1.343 1_655 S
N632 C624 1.356 . S
N632 H638 0.984 . S
N632 H639 0.984 1_655 S
N633 C626 1.356 . S
N633 H636 0.984 . S
N633 H637 0.985 . S
H634 N629 0.984 . S
H635 N629 0.985 . S
H636 N633 0.984 . S
H637 N633 0.985 . S
H638 N632 0.984 . S
H639 N632 0.984 1_455 S
H640 N628 0.984 . S
H641 N628 0.985 . S
C642 C643 1.363 1_455 S
C642 C648 1.379 . S
C642 N650 1.356 1_455 S
C643 C642 1.363 1_655 S
C643 C649 1.363 1_655 S
C644 C645 1.363 . S
C644 C649 1.379 . S
C644 N651 1.356 . S
C645 C644 1.363 . S
C645 C648 1.363 . S
N646 C648 1.356 . S
N646 H658 0.984 . S
N646 H659 0.985 . S
N647 C649 1.356 1_655 S
N647 H652 0.984 . S
N647 H653 0.985 . S
C648 C642 1.379 . S
C648 C645 1.363 . S
C648 N646 1.356 . S
C649 C643 1.363 1_455 S
C649 C644 1.379 . S
C649 N647 1.356 1_455 S
N650 C642 1.356 1_655 S
N650 H656 0.984 1_655 S
N650 H657 0.984 . S
N651 C644 1.356 . S
N651 H654 0.984 . S
N651 H655 0.985 . S
H652 N647 0.984 . S
H653 N647 0.985 . S
H654 N651 0.984 . S
H655 N651 0.985 . S
H656 N650 0.984 1_455 S
H657 N650 0.984 . S
H658 N646 0.984 . S
H659 N646 0.985 . S
C660 C661 1.356 1_655 S
C660 C666 1.379 . S
C660 N668 1.356 1_655 S
C661 C660 1.356 1_455 S
C661 C667 1.344 1_455 S
C662 C663 1.363 . S
C662 C667 1.379 . S
C662 N669 1.356 . S
C663 C662 1.363 . S
C663 C666 1.363 . S
N664 C666 1.356 . S
N664 H676 0.984 . S
N664 H677 0.985 . S
N665 C667 1.356 . S
N665 H670 0.984 1_655 S
N665 H671 0.985 1_556 S
C666 C660 1.379 . S
C666 C663 1.363 . S
C666 N664 1.356 . S
C667 C661 1.344 1_655 S
C667 C662 1.379 . S
C667 N665 1.356 . S
N668 C660 1.356 1_455 S
N668 H674 0.984 . S
N668 H675 0.984 . S
N669 C662 1.356 . S
N669 H672 0.984 . S
N669 H673 0.985 1_556 S
H670 N665 0.984 1_455 S
H671 N665 0.985 1_554 S
H672 N669 0.984 . S
H673 N669 0.985 1_554 S
H674 N668 0.984 . S
H675 N668 0.984 . S
H676 N664 0.984 . S
H677 N664 0.985 . S
C678 C679 1.363 . S
C678 C684 1.379 . S
C678 N686 1.356 . S
C679 C678 1.363 . S
C679 C685 1.363 . S
C680 C681 1.363 1_455 S
C680 C685 1.379 . S
C680 N687 1.356 . S
C681 C680 1.363 1_655 S
C681 C684 1.363 1_655 S
N682 C684 1.356 1_655 S
N682 H694 0.984 . S
N682 H695 0.985 . S
N683 C685 1.356 . S
N683 H688 0.984 . S
N683 H689 0.985 1_556 S
C684 C678 1.379 . S
C684 C681 1.363 1_455 S
C684 N682 1.356 1_455 S
C685 C679 1.363 . S
C685 C680 1.379 . S
C685 N683 1.356 . S
N686 C678 1.356 . S
N686 H692 0.984 . S
N686 H693 0.984 . S
N687 C680 1.356 . S
N687 H690 0.984 1_455 S
N687 H691 0.985 1_556 S
H688 N683 0.984 . S
H689 N683 0.985 1_554 S
H690 N687 0.984 1_655 S
H691 N687 0.985 1_554 S
H692 N686 0.984 . S
H693 N686 0.984 . S
H694 N682 0.984 . S
H695 N682 0.985 . S
C696 C697 1.363 . S
C696 C702 1.379 1_545 S
C696 N704 1.356 . S
C697 C696 1.363 . S
C697 C703 1.363 1_545 S
C698 C699 1.363 . S
C698 C703 1.379 . S
C698 N705 1.356 . S
C699 C698 1.363 . S
C699 C702 1.363 . S
N700 C702 1.356 . S
N700 H712 0.984 . S
N700 H713 0.985 . S
N701 C703 1.356 . S
N701 H706 0.984 1_565 S
N701 H707 0.985 . S
C702 C696 1.379 1_565 S
C702 C699 1.363 . S
C702 N700 1.356 . S
C703 C697 1.363 1_565 S
C703 C698 1.379 . S
C703 N701 1.356 . S
N704 C696 1.356 . S
N704 H710 0.984 . S
N704 H711 0.984 . S
N705 C698 1.356 . S
N705 H708 0.984 . S
N705 H709 0.985 . S
H706 N701 0.984 1_545 S
H707 N701 0.985 . S
H708 N705 0.984 . S
H709 N705 0.985 . S
H710 N704 0.984 . S
H711 N704 0.984 . S
H712 N700 0.984 . S
H713 N700 0.985 . S
C714 C715 1.363 . S
C714 C720 1.379 . S
C714 N722 1.356 . S
C715 C714 1.363 . S
C715 C721 1.363 . S
C716 C717 1.363 1_545 S
C716 C721 1.379 . S
C716 N723 1.356 1_545 S
C717 C716 1.363 1_565 S
C717 C720 1.363 1_565 S
N718 C720 1.356 1_565 S
N718 H730 0.984 1_565 S
N718 H731 0.985 . S
N719 C721 1.356 . S
N719 H724 0.984 . S
N719 H725 0.985 . S
C720 C714 1.379 . S
C720 C717 1.363 1_545 S
C720 N718 1.356 1_545 S
C721 C715 1.363 . S
C721 C716 1.379 . S
C721 N719 1.356 . S
N722 C714 1.356 . S
N722 H728 0.984 . S
N722 H729 0.984 . S
N723 C716 1.356 1_565 S
N723 H726 0.984 . S
N723 H727 0.985 . S
H724 N719 0.984 . S
H725 N719 0.985 . S
H726 N723 0.984 . S
H727 N723 0.985 . S
H728 N722 0.984 . S
H729 N722 0.984 . S
H730 N718 0.984 1_545 S
H731 N718 0.985 . S
C732 C733 1.363 . S
C732 C738 1.379 . S
C732 N740 1.356 . S
C733 C732 1.363 . S
C733 C739 1.363 . S
C734 C735 1.363 . S
C734 C739 1.379 . S
C734 N741 1.356 . S
C735 C734 1.363 . S
C735 C738 1.363 . S
N736 C738 1.356 . S
N736 H748 0.984 . S
N736 H749 0.985 . S
N737 C739 1.356 . S
N737 H742 0.984 . S
N737 H743 0.985 . S
C738 C732 1.379 . S
C738 C735 1.363 . S
C738 N736 1.356 . S
C739 C733 1.363 . S
C739 C734 1.379 . S
C739 N737 1.356 . S
N740 C732 1.356 . S
N740 H746 0.984 . S
N740 H747 0.984 . S
N741 C734 1.356 . S
N741 H744 0.984 . S
N741 H745 0.985 . S
H742 N737 0.984 . S
H743 N737 0.985 . S
H744 N741 0.984 . S
H745 N741 0.985 . S
H746 N740 0.984 . S
H747 N740 0.984 . S
H748 N736 0.984 . S
H749 N736 0.985 . S
C750 C751 1.363 . S
C750 C756 1.394 . S
C750 N758 1.356 . S
C751 C750 1.363 . S
C751 C757 1.363 . S
C752 C753 1.363 1_545 S
C752 C757 1.379 . S
C752 N759 1.356 . S
C753 C752 1.363 1_565 S
C753 C756 1.361 1_565 S
N754 C756 1.341 1_565 S
N754 H766 0.984 . S
N754 H767 0.985 . S
N755 C757 1.356 . S
N755 H760 0.984 . S
N755 H761 0.985 . S
C756 C750 1.394 . S
C756 C753 1.361 1_545 S
C756 N754 1.341 1_545 S
C757 C751 1.363 . S
C757 C752 1.379 . S
C757 N755 1.356 . S
N758 C750 1.356 . S
N758 H764 0.984 . S
N758 H765 0.984 . S
N759 C752 1.356 . S
N759 H762 0.984 1_545 S
N759 H763 0.985 . S
H760 N755 0.984 . S
H761 N755 0.985 . S
H762 N759 0.984 1_565 S
H763 N759 0.985 . S
H764 N758 0.984 . S
H765 N758 0.984 . S
H766 N754 0.984 . S
H767 N754 0.985 . S
C768 C769 1.363 1_455 S
C768 C774 1.379 . S
C768 N776 1.356 . S
C769 C768 1.363 1_655 S
C769 C775 1.363 . S
C770 C771 1.363 1_655 S
C770 C775 1.379 . S
C770 N777 1.356 . S
C771 C770 1.363 1_455 S
C771 C774 1.363 . S
N772 C774 1.356 . S
N772 H784 0.984 . S
N772 H785 0.985 . S
N773 C775 1.356 . S
N773 H778 0.984 . S
N773 H779 0.985 . S
C774 C768 1.379 . S
C774 C771 1.363 . S
C774 N772 1.356 . S
C775 C769 1.363 . S
C775 C770 1.379 . S
C775 N773 1.356 . S
N776 C768 1.356 . S
N776 H782 0.984 . S
N776 H783 0.984 . S
N777 C770 1.356 . S
N777 H780 0.984 . S
N777 H781 0.985 . S
H778 N773 0.984 . S
H779 N773 0.985 . S
H780 N777 0.984 . S
H781 N777 0.985 . S
H782 N776 0.984 . S
H783 N776 0.984 . S
H784 N772 0.984 . S
H785 N772 0.985 . S
C786 C787 1.363 . S
C786 C792 1.379 . S
C786 N794 1.356 . S
C787 C786 1.363 . S
C787 C793 1.363 1_455 S
C788 C789 1.363 . S
C788 C793 1.379 . S
C788 N795 1.356 . S
C789 C788 1.363 . S
C789 C792 1.363 1_655 S
N790 C792 1.356 . S
N790 H802 0.984 . S
N790 H803 0.985 . S
N791 C793 1.356 . S
N791 H796 0.984 . S
N791 H797 0.985 . S
C792 C786 1.379 . S
C792 C789 1.363 1_455 S
C792 N790 1.356 . S
C793 C787 1.363 1_655 S
C793 C788 1.379 . S
C793 N791 1.356 . S
N794 C786 1.356 . S
N794 H800 0.984 . S
N794 H801 0.984 . S
N795 C788 1.356 . S
N795 H798 0.984 . S
N795 H799 0.985 . S
H796 N791 0.984 . S
H797 N791 0.985 . S
H798 N795 0.984 . S
H799 N795 0.985 . S
H800 N794 0.984 . S
H801 N794 0.984 . S
H802 N790 0.984 . S
H803 N790 0.985 . S
C804 C805 1.363 1_545 S
C804 C810 1.379 . S
C804 N812 1.356 . S
C805 C804 1.363 1_565 S
C805 C811 1.363 . S
C806 C807 1.363 1_565 S
C806 C811 1.379 . S
C806 N813 1.356 . S
C807 C806 1.363 1_545 S
C807 C810 1.363 . S
N808 C810 1.356 . S
N808 H820 0.984 . S
N808 H821 0.985 . S
N809 C811 1.356 . S
N809 H814 0.984 . S
N809 H815 0.985 . S
C810 C804 1.379 . S
C810 C807 1.363 . S
C810 N808 1.356 . S
C811 C805 1.363 . S
C811 C806 1.379 . S
C811 N809 1.356 . S
N812 C804 1.356 . S
N812 H818 0.984 . S
N812 H819 0.984 . S
N813 C806 1.356 . S
N813 H816 0.984 . S
N813 H817 0.985 . S
H814 N809 0.984 . S
H815 N809 0.985 . S
H816 N813 0.984 . S
H817 N813 0.985 . S
H818 N812 0.984 . S
H819 N812 0.984 . S
H820 N808 0.984 . S
H821 N808 0.985 . S
C822 C823 1.363 . S
C822 C828 1.379 . S
C822 N830 1.356 . S
C823 C822 1.363 . S
C823 C829 1.363 . S
C824 C825 1.363 . S
C824 C829 1.379 . S
C824 N831 1.356 . S
C825 C824 1.363 . S
C825 C828 1.363 . S
N826 C828 1.356 . S
N826 H838 0.984 . S
N826 H839 0.985 . S
N827 C829 1.356 . S
N827 H832 0.984 . S
N827 H833 0.985 . S
C828 C822 1.379 . S
C828 C825 1.363 . S
C828 N826 1.356 . S
C829 C823 1.363 . S
C829 C824 1.379 . S
C829 N827 1.356 . S
N830 C822 1.356 . S
N830 H836 0.984 . S
N830 H837 0.984 . S
N831 C824 1.356 . S
N831 H834 0.984 . S
N831 H835 0.985 . S
H832 N827 0.984 . S
H833 N827 0.985 . S
H834 N831 0.984 . S
H835 N831 0.985 . S
H836 N830 0.984 . S
H837 N830 0.984 . S
H838 N826 0.984 . S
H839 N826 0.985 . S
C840 C841 1.363 1_556 S
C840 C846 1.379 . S
C840 N848 1.356 . S
C841 C840 1.363 1_554 S
C841 C847 1.363 . S
C842 C843 1.363 1_554 S
C842 C847 1.379 . S
C842 N849 1.356 . S
C843 C842 1.363 1_556 S
C843 C846 1.363 . S
N844 C846 1.356 . S
N844 H856 0.984 . S
N844 H857 0.985 . S
N845 C847 1.356 . S
N845 H850 0.984 . S
N845 H851 0.985 . S
C846 C840 1.379 . S
C846 C843 1.363 . S
C846 N844 1.356 . S
C847 C841 1.363 . S
C847 C842 1.379 . S
C847 N845 1.356 . S
N848 C840 1.356 . S
N848 H854 0.984 . S
N848 H855 0.984 . S
N849 C842 1.356 . S
N849 H852 0.984 . S
N849 H853 0.985 . S
H850 N845 0.984 . S
H851 N845 0.985 . S
H852 N849 0.984 . S
H853 N849 0.985 . S
H854 N848 0.984 . S
H855 N848 0.984 . S
H856 N844 0.984 . S
H857 N844 0.985 . S
C858 C859 1.363 . S
C858 C864 1.379 . S
C858 N866 1.356 . S
C859 C858 1.363 . S
C859 C865 1.363 . S
C860 C861 1.363 . S
C860 C865 1.379 . S
C860 N867 1.356 . S
C861 C860 1.363 . S
C861 C864 1.363 . S
N862 C864 1.356 . S
N862 H874 0.984 . S
N862 H875 0.985 . S
N863 C865 1.356 . S
N863 H868 0.984 . S
N863 H869 0.985 . S
C864 C858 1.379 . S
C864 C861 1.363 . S
C864 N862 1.356 . S
C865 C859 1.363 . S
C865 C860 1.379 . S
C865 N863 1.356 . S
N866 C858 1.356 . S
N866 H872 0.984 . S
N866 H873 0.984 . S
N867 C860 1.356 . S
N867 H870 0.984 . S
N867 H871 0.985 . S
H868 N863 0.984 . S
H869 N863 0.985 . S
H870 N867 0.984 . S
H871 N867 0.985 . S
H872 N866 0.984 . S
H873 N866 0.984 . S
H874 N862 0.984 . S
H875 N862 0.985 . S
C876 C877 1.363 . S
C876 C882 1.379 . S
C876 N884 1.356 . S
C877 C876 1.363 . S
C877 C883 1.363 . S
C878 C879 1.363 . S
C878 C883 1.379 . S
C878 N885 1.356 . S
C879 C878 1.363 . S
C879 C882 1.363 . S
N880 C882 1.356 . S
N880 H892 0.984 . S
N880 H893 0.985 . S
N881 C883 1.356 . S
N881 H886 0.984 . S
N881 H887 0.985 . S
C882 C876 1.379 . S
C882 C879 1.363 . S
C882 N880 1.356 . S
C883 C877 1.363 . S
C883 C878 1.379 . S
C883 N881 1.356 . S
N884 C876 1.356 . S
N884 H890 0.984 . S
N884 H891 0.984 . S
N885 C878 1.356 . S
N885 H888 0.984 . S
N885 H889 0.985 . S
H886 N881 0.984 . S
H887 N881 0.985 . S
H888 N885 0.984 . S
H889 N885 0.985 . S
H890 N884 0.984 . S
H891 N884 0.984 . S
H892 N880 0.984 . S
H893 N880 0.985 . S
C894 C895 1.363 . S
C894 C900 1.379 . S
C894 N902 1.356 . S
C895 C894 1.363 . S
C895 C901 1.363 . S
C896 C897 1.363 . S
C896 C901 1.379 . S
C896 N903 1.356 . S
C897 C896 1.363 . S
C897 C900 1.363 . S
N898 C900 1.356 . S
N898 H910 0.984 . S
N898 H911 0.985 . S
N899 C901 1.356 . S
N899 H904 0.984 . S
N899 H905 0.985 . S
C900 C894 1.379 . S
C900 C897 1.363 . S
C900 N898 1.356 . S
C901 C895 1.363 . S
C901 C896 1.379 . S
C901 N899 1.356 . S
N902 C894 1.356 . S
N902 H908 0.984 . S
N902 H909 0.984 . S
N903 C896 1.356 . S
N903 H906 0.984 . S
N903 H907 0.985 . S
H904 N899 0.984 . S
H905 N899 0.985 . S
H906 N903 0.984 . S
H907 N903 0.985 . S
H908 N902 0.984 . S
H909 N902 0.984 . S
H910 N898 0.984 . S
H911 N898 0.985 . S
C912 C913 1.363 . S
C912 C918 1.379 . S
C912 N920 1.356 . S
C913 C912 1.363 . S
C913 C919 1.363 . S
C914 C915 1.363 . S
C914 C919 1.379 . S
C914 N921 1.356 . S
C915 C914 1.363 . S
C915 C918 1.363 . S
N916 C918 1.356 . S
N916 H928 0.984 . S
N916 H929 0.985 . S
N917 C919 1.356 . S
N917 H922 0.984 . S
N917 H923 0.985 . S
C918 C912 1.379 . S
C918 C915 1.363 . S
C918 N916 1.356 . S
C919 C913 1.363 . S
C919 C914 1.379 . S
C919 N917 1.356 . S
N920 C912 1.356 . S
N920 H926 0.984 . S
N920 H927 0.984 . S
N921 C914 1.356 . S
N921 H924 0.984 . S
N921 H925 0.985 . S
H922 N917 0.984 . S
H923 N917 0.985 . S
H924 N921 0.984 . S
H925 N921 0.985 . S
H926 N920 0.984 . S
H927 N920 0.984 . S
H928 N916 0.984 . S
H929 N916 0.985 . S
C930 C931 1.363 . S
C930 C936 1.379 . S
C930 N938 1.356 . S
C931 C930 1.363 . S
C931 C937 1.363 . S
C932 C933 1.363 . S
C932 C937 1.379 . S
C932 N939 1.356 . S
C933 C932 1.363 . S
C933 C936 1.363 . S
N934 C936 1.356 . S
N934 H946 0.984 . S
N934 H947 0.985 . S
N935 C937 1.356 . S
N935 H940 0.984 . S
N935 H941 0.985 . S
C936 C930 1.379 . S
C936 C933 1.363 . S
C936 N934 1.356 . S
C937 C931 1.363 . S
C937 C932 1.379 . S
C937 N935 1.356 . S
N938 C930 1.356 . S
N938 H944 0.984 . S
N938 H945 0.984 . S
N939 C932 1.356 . S
N939 H942 0.984 . S
N939 H943 0.985 . S
H940 N935 0.984 . S
H941 N935 0.985 . S
H942 N939 0.984 . S
H943 N939 0.985 . S
H944 N938 0.984 . S
H945 N938 0.984 . S
H946 N934 0.984 . S
H947 N934 0.985 . S
C948 C949 1.363 . S
C948 C954 1.379 . S
C948 N956 1.356 . S
C949 C948 1.363 . S
C949 C955 1.363 1_545 S
C950 C951 1.363 . S
C950 C955 1.379 . S
C950 N957 1.356 . S
C951 C950 1.363 . S
C951 C954 1.363 1_565 S
N952 C954 1.356 . S
N952 H964 0.984 . S
N952 H965 0.985 . S
N953 C955 1.356 . S
N953 H958 0.984 . S
N953 H959 0.985 . S
C954 C948 1.379 . S
C954 C951 1.363 1_545 S
C954 N952 1.356 . S
C955 C949 1.363 1_565 S
C955 C950 1.379 . S
C955 N953 1.356 . S
N956 C948 1.356 . S
N956 H962 0.984 . S
N956 H963 0.984 . S
N957 C950 1.356 . S
N957 H960 0.984 . S
N957 H961 0.985 . S
H958 N953 0.984 . S
H959 N953 0.985 . S
H960 N957 0.984 . S
H961 N957 0.985 . S
H962 N956 0.984 . S
H963 N956 0.984 . S
H964 N952 0.984 . S
H965 N952 0.985 . S
C966 C967 1.363 . S
C966 C972 1.379 . S
C966 N974 1.356 . S
C967 C966 1.363 . S
C967 C973 1.363 1_556 S
C968 C969 1.363 . S
C968 C973 1.379 . S
C968 N975 1.356 . S
C969 C968 1.363 . S
C969 C972 1.363 1_554 S
N970 C972 1.356 . S
N970 H982 0.984 . S
N970 H983 0.985 . S
N971 C973 1.356 . S
N971 H976 0.984 . S
N971 H977 0.985 . S
C972 C966 1.379 . S
C972 C969 1.363 1_556 S
C972 N970 1.356 . S
C973 C967 1.363 1_554 S
C973 C968 1.379 . S
C973 N971 1.356 . S
N974 C966 1.356 . S
N974 H980 0.984 . S
N974 H981 0.984 . S
N975 C968 1.356 . S
N975 H978 0.984 . S
N975 H979 0.985 . S
H976 N971 0.984 . S
H977 N971 0.985 . S
H978 N975 0.984 . S
H979 N975 0.985 . S
H980 N974 0.984 . S
H981 N974 0.984 . S
H982 N970 0.984 . S
H983 N970 0.985 . S
C984 C985 1.363 . S
C984 C990 1.379 1_565 S
C984 N992 1.356 . S
C985 C984 1.363 . S
C985 C991 1.363 1_455 S
C986 C987 1.363 1_655 S
C986 C991 1.379 1_545 S
C986 N993 1.356 . S
C987 C986 1.363 1_455 S
C987 C990 1.363 . S
N988 C990 1.356 . S
N988 H1000 0.984 . S
N988 H1001 0.985 . S
N989 C991 1.356 . S
N989 H994 0.984 . S
N989 H995 0.985 . S
C990 C984 1.379 1_545 S
C990 C987 1.363 . S
C990 N988 1.356 . S
C991 C985 1.363 1_655 S
C991 C986 1.379 1_565 S
C991 N989 1.356 . S
N992 C984 1.356 . S
N992 H998 0.984 . S
N992 H999 0.984 . S
N993 C986 1.356 . S
N993 H996 0.984 . S
N993 H997 0.985 . S
H994 N989 0.984 . S
H995 N989 0.985 . S
H996 N993 0.984 . S
H997 N993 0.985 . S
H998 N992 0.984 . S
H999 N992 0.984 . S
H1000 N988 0.984 . S
H1001 N988 0.985 . S
C1002 C1003 1.363 1_455 S
C1002 C1008 1.379 . S
C1002 N1010 1.356 . S
C1003 C1002 1.363 1_655 S
C1003 C1009 1.363 . S
C1004 C1005 1.363 . S
C1004 C1009 1.379 . S
C1004 N1011 1.356 . S
C1005 C1004 1.363 . S
C1005 C1008 1.363 1_655 S
N1006 C1008 1.356 . S
N1006 H1018 0.984 . S
N1006 H1019 0.985 . S
N1007 C1009 1.356 . S
N1007 H1012 0.984 . S
N1007 H1013 0.985 . S
C1008 C1002 1.379 . S
C1008 C1005 1.363 1_455 S
C1008 N1006 1.356 . S
C1009 C1003 1.363 . S
C1009 C1004 1.379 . S
C1009 N1007 1.356 . S
N1010 C1002 1.356 . S
N1010 H1016 0.984 . S
N1010 H1017 0.984 . S
N1011 C1004 1.356 . S
N1011 H1014 0.984 . S
N1011 H1015 0.985 . S
H1012 N1007 0.984 . S
H1013 N1007 0.985 . S
H1014 N1011 0.984 . S
H1015 N1011 0.985 . S
H1016 N1010 0.984 . S
H1017 N1010 0.984 . S
H1018 N1006 0.984 . S
H1019 N1006 0.985 . S
C1020 C1021 1.363 . S
C1020 C1026 1.379 1_556 S
C1020 N1028 1.356 . S
C1021 C1020 1.363 . S
C1021 C1027 1.363 1_545 S
C1022 C1023 1.363 1_565 S
C1022 C1027 1.379 1_554 S
C1022 N1029 1.356 . S
C1023 C1022 1.363 1_545 S
C1023 C1026 1.363 . S
N1024 C1026 1.356 . S
N1024 H1036 0.984 . S
N1024 H1037 0.985 . S
N1025 C1027 1.356 . S
N1025 H1030 0.984 . S
N1025 H1031 0.985 . S
C1026 C1020 1.379 1_554 S
C1026 C1023 1.363 . S
C1026 N1024 1.356 . S
C1027 C1021 1.363 1_565 S
C1027 C1022 1.379 1_556 S
C1027 N1025 1.356 . S
N1028 C1020 1.356 . S
N1028 H1034 0.984 . S
N1028 H1035 0.984 . S
N1029 C1022 1.356 . S
N1029 H1032 0.984 . S
N1029 H1033 0.985 . S
H1030 N1025 0.984 . S
H1031 N1025 0.985 . S
H1032 N1029 0.984 . S
H1033 N1029 0.985 . S
H1034 N1028 0.984 . S
H1035 N1028 0.984 . S
H1036 N1024 0.984 . S
H1037 N1024 0.985 . S
C1038 C1039 1.363 . S
C1038 C1044 1.379 1_554 S
C1038 N1046 1.356 . S
C1039 C1038 1.363 . S
C1039 C1045 1.363 . S
C1040 C1041 1.363 . S
C1040 C1045 1.379 1_556 S
C1040 N1047 1.356 . S
C1041 C1040 1.363 . S
C1041 C1044 1.363 . S
N1042 C1044 1.356 . S
N1042 H1054 0.984 . S
N1042 H1055 0.985 . S
N1043 C1045 1.356 . S
N1043 H1048 0.984 . S
N1043 H1049 0.985 . S
C1044 C1038 1.379 1_556 S
C1044 C1041 1.363 . S
C1044 N1042 1.356 . S
C1045 C1039 1.363 . S
C1045 C1040 1.379 1_554 S
C1045 N1043 1.356 . S
N1046 C1038 1.356 . S
N1046 H1052 0.984 . S
N1046 H1053 0.984 . S
N1047 C1040 1.356 . S
N1047 H1050 0.984 . S
N1047 H1051 0.985 . S
H1048 N1043 0.984 . S
H1049 N1043 0.985 . S
H1050 N1047 0.984 . S
H1051 N1047 0.985 . S
H1052 N1046 0.984 . S
H1053 N1046 0.984 . S
H1054 N1042 0.984 . S
H1055 N1042 0.985 . S
C1056 C1057 1.363 . S
C1056 C1062 1.379 . S
C1056 N1064 1.356 . S
C1057 C1056 1.363 . S
C1057 C1063 1.363 1_565 S
C1058 C1059 1.363 1_545 S
C1058 C1063 1.379 . S
C1058 N1065 1.356 . S
C1059 C1058 1.363 1_565 S
C1059 C1062 1.363 . S
N1060 C1062 1.356 . S
N1060 H1072 0.984 . S
N1060 H1073 0.985 . S
N1061 C1063 1.356 . S
N1061 H1066 0.984 . S
N1061 H1067 0.985 . S
C1062 C1056 1.379 . S
C1062 C1059 1.363 . S
C1062 N1060 1.356 . S
C1063 C1057 1.363 1_545 S
C1063 C1058 1.379 . S
C1063 N1061 1.356 . S
N1064 C1056 1.356 . S
N1064 H1070 0.984 . S
N1064 H1071 0.984 . S
N1065 C1058 1.356 . S
N1065 H1068 0.984 . S
N1065 H1069 0.985 . S
H1066 N1061 0.984 . S
H1067 N1061 0.985 . S
H1068 N1065 0.984 . S
H1069 N1065 0.985 . S
H1070 N1064 0.984 . S
H1071 N1064 0.984 . S
H1072 N1060 0.984 . S
H1073 N1060 0.985 . S
C1074 C1075 1.363 . S
C1074 C1080 1.379 . S
C1074 N1082 1.356 . S
C1075 C1074 1.363 . S
C1075 C1081 1.363 . S
C1076 C1077 1.363 . S
C1076 C1081 1.379 . S
C1076 N1083 1.356 . S
C1077 C1076 1.363 . S
C1077 C1080 1.363 . S
N1078 C1080 1.356 . S
N1078 H1090 0.984 . S
N1078 H1091 0.985 . S
N1079 C1081 1.356 . S
N1079 H1084 0.984 . S
N1079 H1085 0.985 . S
C1080 C1074 1.379 . S
C1080 C1077 1.363 . S
C1080 N1078 1.356 . S
C1081 C1075 1.363 . S
C1081 C1076 1.379 . S
C1081 N1079 1.356 . S
N1082 C1074 1.356 . S
N1082 H1088 0.984 . S
N1082 H1089 0.984 . S
N1083 C1076 1.356 . S
N1083 H1086 0.984 . S
N1083 H1087 0.985 . S
H1084 N1079 0.984 . S
H1085 N1079 0.985 . S
H1086 N1083 0.984 . S
H1087 N1083 0.985 . S
H1088 N1082 0.984 . S
H1089 N1082 0.984 . S
H1090 N1078 0.984 . S
H1091 N1078 0.985 . S
C1092 C1093 1.363 1_556 S
C1092 C1098 1.379 1_455 S
C1092 N1100 1.356 . S
C1093 C1092 1.363 1_554 S
C1093 C1099 1.363 . S
C1094 C1095 1.363 . S
C1094 C1099 1.379 1_655 S
C1094 N1101 1.356 . S
C1095 C1094 1.363 . S
C1095 C1098 1.363 1_554 S
N1096 C1098 1.356 . S
N1096 H1108 0.984 . S
N1096 H1109 0.985 . S
N1097 C1099 1.356 . S
N1097 H1102 0.984 . S
N1097 H1103 0.985 . S
C1098 C1092 1.379 1_655 S
C1098 C1095 1.363 1_556 S
C1098 N1096 1.356 . S
C1099 C1093 1.363 . S
C1099 C1094 1.379 1_455 S
C1099 N1097 1.356 . S
N1100 C1092 1.356 . S
N1100 H1106 0.984 . S
N1100 H1107 0.984 . S
N1101 C1094 1.356 . S
N1101 H1104 0.984 . S
N1101 H1105 0.985 . S
H1102 N1097 0.984 . S
H1103 N1097 0.985 . S
H1104 N1101 0.984 . S
H1105 N1101 0.985 . S
H1106 N1100 0.984 . S
H1107 N1100 0.984 . S
H1108 N1096 0.984 . S
H1109 N1096 0.985 . S
C1110 C1111 1.363 . S
C1110 C1116 1.379 1_455 S
C1110 N1118 1.356 . S
C1111 C1110 1.363 . S
C1111 C1117 1.363 . S
C1112 C1113 1.363 . S
C1112 C1117 1.379 1_655 S
C1112 N1119 1.356 . S
C1113 C1112 1.363 . S
C1113 C1116 1.363 . S
N1114 C1116 1.356 . S
N1114 H1126 0.984 . S
N1114 H1127 0.985 . S
N1115 C1117 1.356 . S
N1115 H1120 0.984 . S
N1115 H1121 0.985 . S
C1116 C1110 1.379 1_655 S
C1116 C1113 1.363 . S
C1116 N1114 1.356 . S
C1117 C1111 1.363 . S
C1117 C1112 1.379 1_455 S
C1117 N1115 1.356 . S
N1118 C1110 1.356 . S
N1118 H1124 0.984 . S
N1118 H1125 0.984 . S
N1119 C1112 1.356 . S
N1119 H1122 0.984 . S
N1119 H1123 0.985 . S
H1120 N1115 0.984 . S
H1121 N1115 0.985 . S
H1122 N1119 0.984 . S
H1123 N1119 0.985 . S
H1124 N1118 0.984 . S
H1125 N1118 0.984 . S
H1126 N1114 0.984 . S
H1127 N1114 0.985 . S
C1128 C1129 1.363 . S
C1128 C1134 1.379 . S
C1128 N1136 1.356 . S
C1129 C1128 1.363 . S
C1129 C1135 1.363 . S
C1130 C1131 1.363 . S
C1130 C1135 1.379 . S
C1130 N1137 1.356 . S
C1131 C1130 1.363 . S
C1131 C1134 1.363 . S
N1132 C1134 1.356 . S
N1132 H1144 0.984 . S
N1132 H1145 0.985 . S
N1133 C1135 1.356 . S
N1133 H1138 0.984 . S
N1133 H1139 0.985 . S
C1134 C1128 1.379 . S
C1134 C1131 1.363 . S
C1134 N1132 1.356 . S
C1135 C1129 1.363 . S
C1135 C1130 1.379 . S
C1135 N1133 1.356 . S
N1136 C1128 1.356 . S
N1136 H1142 0.984 . S
N1136 H1143 0.984 . S
N1137 C1130 1.356 . S
N1137 H1140 0.984 . S
N1137 H1141 0.985 . S
H1138 N1133 0.984 . S
H1139 N1133 0.985 . S
H1140 N1137 0.984 . S
H1141 N1137 0.985 . S
H1142 N1136 0.984 . S
H1143 N1136 0.984 . S
H1144 N1132 0.984 . S
H1145 N1132 0.985 . S
C1146 C1147 1.363 . S
C1146 C1152 1.379 . S
C1146 N1154 1.356 . S
C1147 C1146 1.363 . S
C1147 C1153 1.363 . S
C1148 C1149 1.363 . S
C1148 C1153 1.379 . S
C1148 N1155 1.356 . S
C1149 C1148 1.363 . S
C1149 C1152 1.363 . S
N1150 C1152 1.356 . S
N1150 H1162 0.984 . S
N1150 H1163 0.985 . S
N1151 C1153 1.356 . S
N1151 H1156 0.984 . S
N1151 H1157 0.985 . S
C1152 C1146 1.379 . S
C1152 C1149 1.363 . S
C1152 N1150 1.356 . S
C1153 C1147 1.363 . S
C1153 C1148 1.379 . S
C1153 N1151 1.356 . S
N1154 C1146 1.356 . S
N1154 H1160 0.984 . S
N1154 H1161 0.984 . S
N1155 C1148 1.356 . S
N1155 H1158 0.984 . S
N1155 H1159 0.985 . S
H1156 N1151 0.984 . S
H1157 N1151 0.985 . S
H1158 N1155 0.984 . S
H1159 N1155 0.985 . S
H1160 N1154 0.984 . S
H1161 N1154 0.984 . S
H1162 N1150 0.984 . S
H1163 N1150 0.985 . S
C1164 C1165 1.363 . S
C1164 C1170 1.379 1_565 S
C1164 N1172 1.356 . S
C1165 C1164 1.363 . S
C1165 C1171 1.363 . S
C1166 C1167 1.376 . S
C1166 C1171 1.365 1_545 S
C1166 N1173 1.362 . S
C1167 C1166 1.376 . S
C1167 C1170 1.363 . S
N1168 C1170 1.356 . S
N1168 H1180 0.984 . S
N1168 H1181 0.985 . S
N1169 C1171 1.356 . S
N1169 H1174 0.984 . S
N1169 H1175 0.985 . S
C1170 C1164 1.379 1_545 S
C1170 C1167 1.363 . S
C1170 N1168 1.356 . S
C1171 C1165 1.363 . S
C1171 C1166 1.365 1_565 S
C1171 N1169 1.356 . S
N1172 C1164 1.356 . S
N1172 H1178 0.999 . S
N1172 H1179 0.984 . S
N1173 C1166 1.362 . S
N1173 H1176 0.984 . S
N1173 H1177 0.985 1_545 S
H1174 N1169 0.984 . S
H1175 N1169 0.985 . S
H1176 N1173 0.984 . S
H1177 N1173 0.985 1_565 S
H1178 N1172 0.999 . S
H1179 N1172 0.984 . S
H1180 N1168 0.984 . S
H1181 N1168 0.985 . S
C1182 C1183 1.363 . S
C1182 C1188 1.379 . S
C1182 N1190 1.356 . S
C1183 C1182 1.363 . S
C1183 C1189 1.363 1_556 S
C1184 C1185 1.363 1_554 S
C1184 C1189 1.379 . S
C1184 N1191 1.356 . S
C1185 C1184 1.363 1_556 S
C1185 C1188 1.363 . S
N1186 C1188 1.356 . S
N1186 H1198 0.984 . S
N1186 H1199 0.985 . S
N1187 C1189 1.356 . S
N1187 H1192 0.984 . S
N1187 H1193 0.985 . S
C1188 C1182 1.379 . S
C1188 C1185 1.363 . S
C1188 N1186 1.356 . S
C1189 C1183 1.363 1_554 S
C1189 C1184 1.379 . S
C1189 N1187 1.356 . S
N1190 C1182 1.356 . S
N1190 H1196 0.984 . S
N1190 H1197 0.984 . S
N1191 C1184 1.356 . S
N1191 H1194 0.984 . S
N1191 H1195 0.985 . S
H1192 N1187 0.984 . S
H1193 N1187 0.985 . S
H1194 N1191 0.984 . S
H1195 N1191 0.985 . S
H1196 N1190 0.984 . S
H1197 N1190 0.984 . S
H1198 N1186 0.984 . S
H1199 N1186 0.985 . S
C337 C247 0.868 . S
C339 C3 0.887 . S
C355 C17 1.006 . S
C357 C233 0.911 . S
C373 C31 1.012 . S
C375 C275 0.975 . S
C391 C45 1.123 . S
C393 C261 1.001 . S
C409 C59 0.889 . S
C411 C303 0.869 . S
C427 C73 0.990 . S
C429 C317 0.950 . S
C445 C289 0.912 . S
C447 C87 1.003 . S
C463 C163 0.976 . S
C465 C101 1.093 . S
C481 C115 0.889 . S
C483 C51 0.869 . S
C499 C23 0.948 . S
C501 C129 0.991 . S
C517 C143 1.117 . S
C519 C9 1.078 . S
C535 C157 1.093 . S
C537 C205 0.976 . S
C553 C79 1.073 . S
C555 C171 1.215 . S
C571 C65 1.076 . S
C573 C185 1.117 . S
C589 C199 1.093 . S
C591 C107 0.976 . S
C607 C213 0.990 . S
C609 C93 0.950 . S
C625 C135 1.073 . S
C627 C227 1.215 . S
C643 C149 1.003 . S
C645 C241 1.121 . S
C661 C121 1.076 . S
C663 C255 1.117 . S
C679 C269 1.012 . S
C681 C331 0.975 . S
C697 C219 1.073 . S
C699 C283 1.215 . S
C715 C297 1.123 . S
C717 C191 1.001 . S
C733 C177 0.912 . S
C735 C311 1.003 . S
C751 C325 1.012 . S
C753 C37 0.975 . S
C769 C8 1.723 . S
C771 C22 1.705 . S
C787 C50 1.643 . S
C789 C36 1.659 . S
C805 C64 1.723 . S
C807 C92 1.705 . S
C823 C78 1.919 . S
C825 C106 1.897 . S
C841 C316 1.705 . S
C843 C120 1.722 . S
C859 C134 1.919 . S
C861 C162 1.897 . S
C877 C288 1.852 . S
C879 C148 1.873 . S
C895 C190 1.874 . S
C897 C176 1.852 . S
C913 C204 1.897 . S
C915 C218 1.919 . S
C931 C260 1.874 . S
C933 C232 1.852 . S
C949 C246 1.643 . S
C951 C274 1.659 . S
C967 C330 1.659 . S
C969 C302 1.642 . S
C985 C35 1.260 . S
C987 C7 1.262 . S
C1003 C21 1.420 . S
C1005 C49 1.417 . S
C1021 C273 1.260 . S
C1023 C63 1.262 . S
C1039 C77 1.370 . S
C1041 C259 1.369 . S
C1057 C91 1.420 . S
C1059 C245 1.417 . S
C1075 C231 1.526 . S
C1077 C105 1.529 . S
C1093 C119 1.262 . S
C1095 C329 1.260 . S
C1111 C133 1.370 . S
C1113 C147 1.369 . S
C1129 C287 1.526 . S
C1131 C161 1.529 . S
C1147 C175 1.526 . S
C1149 C203 1.529 . S
C1165 C189 1.369 . S
C1167 C217 1.370 . S
C1183 C315 1.420 . S
C1185 C301 1.417 . S
