# Generated by pormake.
# Topology yfc, (5)-cn, num edge types: 1
# Building blocks:
#     Node 0, Type 0, BuildingBlock: XOMCOT_clean_sbu_1, # of connection points: 5
#     Node 1, Type 0, BuildingBlock: XOMCOT_clean_sbu_1, # of connection points: 5
#     Node 2, Type 0, BuildingBlock: XOMCOT_clean_sbu_1, # of connection points: 5
#     Node 3, Type 0, BuildingBlock: XOMCOT_clean_sbu_1, # of connection points: 5
#     Node 4, Type 0, BuildingBlock: XOMCOT_clean_sbu_1, # of connection points: 5
#     Node 5, Type 0, BuildingBlock: XOMCOT_clean_sbu_1, # of connection points: 5
#     Node 6, Type 0, BuildingBlock: XOMCOT_clean_sbu_1, # of connection points: 5
#     Node 7, Type 0, BuildingBlock: XOMCOT_clean_sbu_1, # of connection points: 5
#     Node 8, Type 0, BuildingBlock: XOMCOT_clean_sbu_1, # of connection points: 5
#     Node 9, Type 0, BuildingBlock: XOMCOT_clean_sbu_1, # of connection points: 5
#     Node 10, Type 0, BuildingBlock: XOMCOT_clean_sbu_1, # of connection points: 5
#     Node 11, Type 0, BuildingBlock: XOMCOT_clean_sbu_1, # of connection points: 5
#     Node 12, Type 0, BuildingBlock: XOMCOT_clean_sbu_1, # of connection points: 5
#     Node 13, Type 0, BuildingBlock: XOMCOT_clean_sbu_1, # of connection points: 5
#     Node 14, Type 0, BuildingBlock: XOMCOT_clean_sbu_1, # of connection points: 5
#     Node 15, Type 0, BuildingBlock: XOMCOT_clean_sbu_1, # of connection points: 5
#     Edge 16, Type (0, 0), BuildingBlock: AJUNOK_clean_linker_0, # of connection points: 2
#     Edge 17, Type (0, 0), BuildingBlock: AJUNOK_clean_linker_0, # of connection points: 2
#     Edge 18, Type (0, 0), BuildingBlock: AJUNOK_clean_linker_0, # of connection points: 2
#     Edge 19, Type (0, 0), BuildingBlock: AJUNOK_clean_linker_0, # of connection points: 2
#     Edge 20, Type (0, 0), BuildingBlock: AJUNOK_clean_linker_0, # of connection points: 2
#     Edge 21, Type (0, 0), BuildingBlock: AJUNOK_clean_linker_0, # of connection points: 2
#     Edge 22, Type (0, 0), BuildingBlock: AJUNOK_clean_linker_0, # of connection points: 2
#     Edge 23, Type (0, 0), BuildingBlock: AJUNOK_clean_linker_0, # of connection points: 2
#     Edge 24, Type (0, 0), BuildingBlock: AJUNOK_clean_linker_0, # of connection points: 2
#     Edge 25, Type (0, 0), BuildingBlock: AJUNOK_clean_linker_0, # of connection points: 2
#     Edge 26, Type (0, 0), BuildingBlock: AJUNOK_clean_linker_0, # of connection points: 2
#     Edge 27, Type (0, 0), BuildingBlock: AJUNOK_clean_linker_0, # of connection points: 2
#     Edge 28, Type (0, 0), BuildingBlock: AJUNOK_clean_linker_0, # of connection points: 2
#     Edge 29, Type (0, 0), BuildingBlock: AJUNOK_clean_linker_0, # of connection points: 2
#     Edge 30, Type (0, 0), BuildingBlock: AJUNOK_clean_linker_0, # of connection points: 2
#     Edge 31, Type (0, 0), BuildingBlock: AJUNOK_clean_linker_0, # of connection points: 2
#     Edge 32, Type (0, 0), BuildingBlock: AJUNOK_clean_linker_0, # of connection points: 2
#     Edge 33, Type (0, 0), BuildingBlock: AJUNOK_clean_linker_0, # of connection points: 2
#     Edge 34, Type (0, 0), BuildingBlock: AJUNOK_clean_linker_0, # of connection points: 2
#     Edge 35, Type (0, 0), BuildingBlock: AJUNOK_clean_linker_0, # of connection points: 2
#     Edge 36, Type (0, 0), BuildingBlock: AJUNOK_clean_linker_0, # of connection points: 2
#     Edge 37, Type (0, 0), BuildingBlock: AJUNOK_clean_linker_0, # of connection points: 2
#     Edge 38, Type (0, 0), BuildingBlock: AJUNOK_clean_linker_0, # of connection points: 2
#     Edge 39, Type (0, 0), BuildingBlock: AJUNOK_clean_linker_0, # of connection points: 2
#     Edge 40, Type (0, 0), BuildingBlock: AJUNOK_clean_linker_0, # of connection points: 2
#     Edge 41, Type (0, 0), BuildingBlock: AJUNOK_clean_linker_0, # of connection points: 2
#     Edge 42, Type (0, 0), BuildingBlock: AJUNOK_clean_linker_0, # of connection points: 2
#     Edge 43, Type (0, 0), BuildingBlock: AJUNOK_clean_linker_0, # of connection points: 2
#     Edge 44, Type (0, 0), BuildingBlock: AJUNOK_clean_linker_0, # of connection points: 2
#     Edge 45, Type (0, 0), BuildingBlock: AJUNOK_clean_linker_0, # of connection points: 2
#     Edge 46, Type (0, 0), BuildingBlock: AJUNOK_clean_linker_0, # of connection points: 2
#     Edge 47, Type (0, 0), BuildingBlock: AJUNOK_clean_linker_0, # of connection points: 2
#     Edge 48, Type (0, 0), BuildingBlock: AJUNOK_clean_linker_0, # of connection points: 2
#     Edge 49, Type (0, 0), BuildingBlock: AJUNOK_clean_linker_0, # of connection points: 2
#     Edge 50, Type (0, 0), BuildingBlock: AJUNOK_clean_linker_0, # of connection points: 2
#     Edge 51, Type (0, 0), BuildingBlock: AJUNOK_clean_linker_0, # of connection points: 2
#     Edge 52, Type (0, 0), BuildingBlock: AJUNOK_clean_linker_0, # of connection points: 2
#     Edge 53, Type (0, 0), BuildingBlock: AJUNOK_clean_linker_0, # of connection points: 2
#     Edge 54, Type (0, 0), BuildingBlock: AJUNOK_clean_linker_0, # of connection points: 2
#     Edge 55, Type (0, 0), BuildingBlock: AJUNOK_clean_linker_0, # of connection points: 2
# Relax obj value: 0.653
# Max RMSD: 0.269
# Mean RMSD: 0.269
data_MOF--net-yfc--node1-XOMCOT_clean_sbu_1--edge1-AJUNOK_clean_linker_0
_symmetry_space_group_name_H-M    P1
_symmetry_Int_Tables_number       1
_symmetry_cell_setting            triclinic
loop_
_symmetry_equiv_pos_as_xyz
'x, y, z'
_cell_length_a     31.60173
_cell_length_b     31.601963
_cell_length_c     35.314519
_cell_angle_alpha  90.060116
_cell_angle_beta   89.931204
_cell_angle_gamma 90.081099
loop_
_atom_site_label
_atom_site_type_symbol
_atom_site_fract_x
_atom_site_fract_y
_atom_site_fract_z
_atom_type_partial_charge
C0 C 0.70286 0.96542 0.14815 0.0
C1 C 0.67877 0.93503 0.1664 0.0
N2 N 0.65822 0.95356 0.19544 0.0
N3 N 0.69747 1.00313 0.16544 0.0
C4 C 0.66984 0.99469 0.194 0.0
H5 H 0.72422 0.95991 0.12473 0.0
Co6 Co 0.72679 0.05453 0.15594 0.0
C7 C 0.66571 0.12126 0.17587 0.0
O8 O 0.69595 0.14304 0.1924 0.0
N9 N 0.7567 0.10731 0.14617 0.0
C10 C 0.80389 0.15992 0.14949 0.0
C11 C 0.79577 0.11828 0.1583 0.0
C12 C 0.74314 0.14271 0.12772 0.0
N13 N 0.77051 0.17576 0.13063 0.0
O14 O 0.71743 0.04947 0.10272 0.0
H15 H 0.81704 0.09811 0.1738 0.0
H16 H 0.71238 0.14513 0.11447 0.0
O17 O 0.67316 0.08475 0.16198 0.0
C18 C 0.75217 0.0386 0.08695 0.0
O19 O 0.78458 0.02958 0.10876 0.0
N20 N 0.74087 0.05663 0.20743 0.0
C21 C 0.78422 0.06995 0.27424 0.0
C22 C 0.74052 0.07784 0.27239 0.0
C23 C 0.71935 0.0714 0.23824 0.0
C24 C 0.77989 0.03928 0.21197 0.0
C25 C 0.80282 0.04648 0.24494 0.0
H26 H 0.6867 0.08055 0.23646 0.0
H27 H 0.79533 0.02448 0.18803 0.0
H28 H 0.65881 0.01796 0.21405 0.0
H29 H 0.67815 0.90153 0.16 0.0
H30 H 0.8312 0.17786 0.15873 0.0
H31 H 0.72431 0.09397 0.29527 0.0
H32 H 0.83619 0.03886 0.24491 0.0
C33 C 0.56408 0.71691 0.65548 0.0
C34 C 0.59466 0.69339 0.6736 0.0
N35 N 0.57558 0.66276 0.69403 0.0
N36 N 0.52557 0.70153 0.66429 0.0
C37 C 0.53371 0.66786 0.6871 0.0
H38 H 0.56947 0.74561 0.63952 0.0
Co39 Co 0.47493 0.73227 0.65709 0.0
C40 C 0.40813 0.6788 0.68715 0.0
O41 O 0.39504 0.71208 0.70622 0.0
N42 N 0.42256 0.76411 0.64906 0.0
C43 C 0.37287 0.81431 0.64818 0.0
C44 C 0.41475 0.80552 0.6554 0.0
C45 C 0.38485 0.74952 0.63538 0.0
N46 N 0.35327 0.77875 0.63633 0.0
O47 O 0.47578 0.7209 0.6041 0.0
H48 H 0.43764 0.82856 0.66475 0.0
H49 H 0.38049 0.71714 0.62667 0.0
O50 O 0.44146 0.6811 0.66671 0.0
C51 C 0.4873 0.75479 0.58729 0.0
O52 O 0.49933 0.78717 0.60804 0.0
N53 N 0.47756 0.74765 0.7084 0.0
C54 C 0.46621 0.78646 0.77727 0.0
C55 C 0.46767 0.74216 0.77534 0.0
C56 C 0.47285 0.72309 0.74 0.0
C57 C 0.48917 0.78883 0.71245 0.0
C58 C 0.48256 0.80954 0.74668 0.0
H59 H 0.46875 0.68933 0.738 0.0
H60 H 0.49955 0.80662 0.68802 0.0
H61 H 0.50936 0.64968 0.70111 0.0
H62 H 0.62825 0.70012 0.67367 0.0
H63 H 0.35811 0.84488 0.65196 0.0
H64 H 0.45834 0.72291 0.79931 0.0
H65 H 0.48457 0.84374 0.74733 0.0
C66 C 0.82878 0.55812 0.14426 0.0
C67 C 0.85471 0.58604 0.1636 0.0
N68 N 0.86975 0.56647 0.19465 0.0
N69 N 0.82769 0.52084 0.16279 0.0
C70 C 0.85351 0.52689 0.19307 0.0
H71 H 0.81031 0.56533 0.11935 0.0
Co72 Co 0.79176 0.47388 0.15365 0.0
C73 C 0.83856 0.39925 0.18016 0.0
O74 O 0.80346 0.38451 0.19524 0.0
N75 N 0.75575 0.42538 0.14441 0.0
C76 C 0.71021 0.37267 0.15382 0.0
C77 C 0.7192 0.41444 0.16154 0.0
C78 C 0.76654 0.39013 0.12434 0.0
N79 N 0.74066 0.35644 0.13114 0.0
O80 O 0.80593 0.47365 0.10117 0.0
H81 H 0.70169 0.43406 0.18103 0.0
H82 H 0.79517 0.38885 0.10779 0.0
O83 O 0.83906 0.4358 0.16469 0.0
C84 C 0.77431 0.48877 0.08323 0.0
O85 O 0.74266 0.50426 0.10304 0.0
N86 N 0.77338 0.47799 0.20384 0.0
C87 C 0.72457 0.4817 0.26895 0.0
C88 C 0.76407 0.46117 0.26915 0.0
C89 C 0.7887 0.46077 0.23644 0.0
C90 C 0.73908 0.504 0.20506 0.0
C91 C 0.7142 0.50661 0.23752 0.0
H92 H 0.81881 0.44495 0.2373 0.0
H93 H 0.72899 0.51999 0.17957 0.0
H94 H 0.85944 0.50312 0.21434 0.0
H95 H 0.86007 0.61895 0.15656 0.0
H96 H 0.68489 0.35494 0.16699 0.0
H97 H 0.7743 0.44203 0.2928 0.0
H98 H 0.68485 0.52423 0.23655 0.0
C99 C 0.95849 0.80776 0.65048 0.0
C100 C 0.92709 0.8307 0.66852 0.0
N101 N 0.9453 0.85554 0.6949 0.0
N102 N 0.99644 0.81816 0.66527 0.0
C103 C 0.98718 0.84772 0.69199 0.0
H104 H 0.95363 0.78332 0.62947 0.0
Co105 Co 0.04875 0.79032 0.65711 0.0
C106 C 0.11236 0.85129 0.68359 0.0
O107 O 0.13247 0.82083 0.70131 0.0
N108 N 0.10257 0.76189 0.64864 0.0
C109 C 0.15512 0.7145 0.64974 0.0
C110 C 0.1129 0.72151 0.65731 0.0
C111 C 0.13913 0.7777 0.63364 0.0
N112 N 0.1719 0.75011 0.63531 0.0
O113 O 0.04648 0.80182 0.60428 0.0
H114 H 0.09168 0.69832 0.66922 0.0
H115 H 0.14231 0.80967 0.62313 0.0
O116 O 0.07786 0.84388 0.6661 0.0
C117 C 0.03616 0.76815 0.5865 0.0
O118 O 0.02655 0.73434 0.60639 0.0
N119 N 0.04808 0.77455 0.70817 0.0
C120 C 0.05744 0.73172 0.77564 0.0
C121 C 0.06152 0.77596 0.77474 0.0
C122 C 0.05714 0.79694 0.74027 0.0
C123 C 0.03358 0.73416 0.71105 0.0
C124 C 0.03891 0.71154 0.74442 0.0
H125 H 0.06373 0.83031 0.73946 0.0
H126 H 0.02216 0.71804 0.68603 0.0
H127 H 1.01042 0.86252 0.71002 0.0
H128 H 0.89334 0.82734 0.66425 0.0
H129 H 0.17265 0.68604 0.65636 0.0
H130 H 0.07377 0.79315 0.79893 0.0
H131 H 0.03406 0.67764 0.7437 0.0
C132 C 0.69561 0.55358 0.8644 0.0
C133 C 0.67255 0.58453 0.84617 0.0
N134 N 0.65475 0.56767 0.81487 0.0
N135 N 0.69262 0.51712 0.84479 0.0
C136 C 0.66711 0.52665 0.81502 0.0
H137 H 0.71533 0.55816 0.88907 0.0
Co138 Co 0.72529 0.46746 0.85106 0.0
C139 C 0.6643 0.39628 0.83669 0.0
O140 O 0.69383 0.36977 0.82592 0.0
N141 N 0.75885 0.41691 0.85703 0.0
C142 C 0.80503 0.36608 0.84323 0.0
C143 C 0.79353 0.40723 0.83651 0.0
C144 C 0.75219 0.38166 0.87847 0.0
N145 N 0.77869 0.3493 0.86933 0.0
O146 O 0.71712 0.46865 0.90458 0.0
H147 H 0.80815 0.42766 0.81584 0.0
H148 H 0.72554 0.37841 0.89754 0.0
O149 O 0.6731 0.43479 0.84435 0.0
C150 C 0.75186 0.48017 0.91996 0.0
O151 O 0.78346 0.49137 0.89789 0.0
N152 N 0.73799 0.46952 0.79959 0.0
C153 C 0.78891 0.46628 0.73619 0.0
C154 C 0.75344 0.43954 0.73921 0.0
C155 C 0.72777 0.44203 0.77129 0.0
C156 C 0.76744 0.50041 0.79378 0.0
C157 C 0.79288 0.49994 0.76165 0.0
H158 H 0.70257 0.41952 0.77441 0.0
H159 H 0.7744 0.5227 0.8162 0.0
H160 H 0.66059 0.50472 0.7922 0.0
H161 H 0.6706 0.61745 0.85447 0.0
H162 H 0.82864 0.34903 0.82716 0.0
H163 H 0.74852 0.41368 0.71953 0.0
H164 H 0.81893 0.52213 0.75948 0.0
C165 C 0.9627 0.70836 0.35673 0.0
C166 C 0.93344 0.68252 0.33906 0.0
N167 N 0.95412 0.65646 0.31519 0.0
N168 N 1.00186 0.69877 0.34424 0.0
C169 C 0.9955 0.66655 0.31932 0.0
H170 H 0.95552 0.73439 0.37556 0.0
Co171 Co 0.05104 0.73187 0.35267 0.0
C172 C 0.12115 0.68411 0.32156 0.0
O173 O 0.13268 0.71934 0.30462 0.0
N174 N 0.10213 0.76538 0.362 0.0
C175 C 0.15442 0.81298 0.35929 0.0
C176 C 0.11265 0.8049 0.35075 0.0
C177 C 0.13804 0.75147 0.37951 0.0
N178 N 0.17091 0.77916 0.37718 0.0
O179 O 0.05053 0.71831 0.40528 0.0
H180 H 0.09239 0.82651 0.33578 0.0
H181 H 0.14075 0.72018 0.39168 0.0
O182 O 0.08705 0.68305 0.3411 0.0
C183 C 0.03699 0.75132 0.42232 0.0
O184 O 0.02357 0.78318 0.4017 0.0
N185 N 0.0476 0.74948 0.30196 0.0
C186 C 0.05395 0.79247 0.23432 0.0
C187 C 0.05742 0.74818 0.23484 0.0
C188 C 0.05461 0.7271 0.2694 0.0
C189 C 0.03244 0.78965 0.29965 0.0
C190 C 0.03651 0.81247 0.26617 0.0
H191 H 0.06196 0.69385 0.27 0.0
H192 H 0.02194 0.80561 0.32507 0.0
H193 H 0.02042 0.65168 0.30319 0.0
H194 H 0.89938 0.68493 0.34147 0.0
H195 H 0.17186 0.84069 0.35033 0.0
H196 H 0.06865 0.73107 0.2102 0.0
H197 H 0.0318 0.84636 0.26719 0.0
C198 C 0.80413 0.9536 0.85561 0.0
C199 C 0.82748 0.92269 0.83733 0.0
N200 N 0.85572 0.9418 0.81446 0.0
N201 N 0.8176 0.99213 0.8444 0.0
C202 C 0.84956 0.98368 0.81975 0.0
H203 H 0.77701 0.94823 0.87369 0.0
Co204 Co 0.7892 0.04421 0.85214 0.0
C205 C 0.84487 0.10716 0.81854 0.0
O206 O 0.81126 0.1237 0.80245 0.0
N207 N 0.76049 0.09812 0.8603 0.0
C208 C 0.71514 0.15221 0.85773 0.0
C209 C 0.72069 0.10968 0.85096 0.0
C210 C 0.77729 0.13435 0.87513 0.0
N211 N 0.75107 0.16837 0.87232 0.0
O212 O 0.80328 0.04399 0.90457 0.0
H213 H 0.6968 0.08929 0.83913 0.0
H214 H 0.80897 0.13577 0.88652 0.0
O215 O 0.8414 0.07447 0.83951 0.0
C216 C 0.77024 0.03255 0.92277 0.0
O217 O 0.73669 0.02126 0.90322 0.0
N218 N 0.77088 0.04101 0.80151 0.0
C219 C 0.72788 0.04774 0.7337 0.0
C220 C 0.7723 0.04839 0.7341 0.0
C221 C 0.79337 0.04528 0.76864 0.0
C222 C 0.7296 0.029 0.79979 0.0
C223 C 0.70685 0.0336 0.76635 0.0
H224 H 0.82715 0.04938 0.76872 0.0
H225 H 0.7132 0.02018 0.82549 0.0
H226 H 0.86674 1.00757 0.8042 0.0
H227 H 0.82192 0.88891 0.83851 0.0
H228 H 0.68715 0.17017 0.85056 0.0
H229 H 0.79015 0.05669 0.70896 0.0
H230 H 0.67274 0.03126 0.76773 0.0
C231 C 0.56185 0.81267 0.35666 0.0
C232 C 0.59143 0.8377 0.33842 0.0
N233 N 0.57101 0.86352 0.31431 0.0
N234 N 0.52276 0.82273 0.34434 0.0
C235 C 0.52949 0.85444 0.31905 0.0
H236 H 0.5687 0.78682 0.37571 0.0
Co237 Co 0.473 0.7905 0.35283 0.0
C238 C 0.40369 0.83931 0.32208 0.0
O239 O 0.39172 0.80438 0.30485 0.0
N240 N 0.42128 0.75801 0.36208 0.0
C241 C 0.36701 0.71312 0.35738 0.0
C242 C 0.40916 0.71959 0.34934 0.0
C243 C 0.38593 0.77272 0.38006 0.0
N244 N 0.35151 0.74699 0.37616 0.0
O245 O 0.47356 0.80438 0.40529 0.0
H246 H 0.42854 0.69781 0.33357 0.0
H247 H 0.3855 0.80316 0.39385 0.0
O248 O 0.4379 0.83987 0.34139 0.0
C249 C 0.48679 0.77194 0.42325 0.0
O250 O 0.49932 0.73898 0.40348 0.0
N251 N 0.47629 0.7727 0.30214 0.0
C252 C 0.47077 0.72958 0.2344 0.0
C253 C 0.46716 0.77386 0.23495 0.0
C254 C 0.4695 0.79498 0.26955 0.0
C255 C 0.4913 0.73247 0.29996 0.0
C256 C 0.48766 0.70961 0.26644 0.0
H257 H 0.4622 0.82824 0.27007 0.0
H258 H 0.50131 0.71651 0.3255 0.0
H259 H 0.50472 0.86955 0.303 0.0
H260 H 0.62548 0.8349 0.34061 0.0
H261 H 0.34883 0.68622 0.3477 0.0
H262 H 0.45639 0.79096 0.2102 0.0
H263 H 0.49232 0.67572 0.2675 0.0
C264 C 0.326 0.05306 0.86071 0.0
C265 C 0.35197 0.08078 0.84131 0.0
N266 N 0.3685 0.06057 0.81111 0.0
N267 N 0.32623 0.01512 0.84321 0.0
C268 C 0.35289 0.02065 0.81335 0.0
H269 H 0.30662 0.06077 0.885 0.0
Co270 Co 0.29014 0.96851 0.85387 0.0
C271 C 0.33175 0.89309 0.82393 0.0
O272 O 0.29523 0.88262 0.80888 0.0
N273 N 0.25411 0.92019 0.86498 0.0
C274 C 0.20978 0.86592 0.85787 0.0
C275 C 0.21716 0.90792 0.84935 0.0
C276 C 0.26678 0.88555 0.88495 0.0
N277 N 0.2417 0.85098 0.87952 0.0
O278 O 0.30657 0.96861 0.90591 0.0
H279 H 0.19851 0.92661 0.83002 0.0
H280 H 0.29617 0.88534 0.90037 0.0
O281 O 0.33586 0.92882 0.84074 0.0
C282 C 0.27541 0.98445 0.92418 0.0
O283 O 0.24359 0.99988 0.90466 0.0
N284 N 0.2694 0.97287 0.80439 0.0
C285 C 0.21707 0.97498 0.74166 0.0
C286 C 0.25761 0.95668 0.73926 0.0
C287 C 0.28421 0.9577 0.77072 0.0
C288 C 0.23428 0.99775 0.80489 0.0
C289 C 0.20792 1.00001 0.77344 0.0
H290 H 0.31505 0.94342 0.7684 0.0
H291 H 0.22486 0.01308 0.83094 0.0
H292 H 0.36004 0.99608 0.79306 0.0
H293 H 0.35649 0.11397 0.84779 0.0
H294 H 0.18457 0.84708 0.84581 0.0
H295 H 0.2674 0.93795 0.71519 0.0
H296 H 0.1782 0.01684 0.77584 0.0
C297 C 0.47278 0.33356 0.36484 0.0
C298 C 0.4434 0.35775 0.34552 0.0
N299 N 0.46063 0.37031 0.31245 0.0
N300 N 0.5087 0.33112 0.34427 0.0
C301 C 0.5003 0.35431 0.31275 0.0
H302 H 0.46765 0.31766 0.39155 0.0
Co303 Co 0.55853 0.29881 0.353 0.0
C304 C 0.62874 0.36068 0.33739 0.0
O305 O 0.65633 0.3316 0.32787 0.0
N306 N 0.60941 0.26648 0.36144 0.0
C307 C 0.66195 0.22061 0.35218 0.0
C308 C 0.62064 0.23049 0.34347 0.0
C309 C 0.64386 0.27603 0.38303 0.0
N310 N 0.67711 0.24974 0.37659 0.0
O311 O 0.55592 0.30945 0.40608 0.0
H312 H 0.60117 0.21386 0.32316 0.0
H313 H 0.64598 0.30441 0.40013 0.0
O314 O 0.59047 0.35098 0.34494 0.0
C315 C 0.54283 0.27569 0.42222 0.0
O316 O 0.5311 0.24383 0.40067 0.0
N317 N 0.55793 0.28337 0.30208 0.0
C318 C 0.55701 0.23384 0.23735 0.0
C319 C 0.58607 0.2674 0.24102 0.0
C320 C 0.58563 0.29238 0.27362 0.0
C321 C 0.52608 0.25487 0.2966 0.0
C322 C 0.52429 0.23052 0.26385 0.0
H323 H 0.60926 0.3165 0.27659 0.0
H324 H 0.50369 0.24882 0.31915 0.0
H325 H 0.5227 0.35863 0.28987 0.0
H326 H 0.41118 0.364 0.35433 0.0
H327 H 0.68047 0.19602 0.33873 0.0
H328 H 0.61156 0.27177 0.22086 0.0
H329 H 0.50012 0.20637 0.26129 0.0
C330 C 0.21238 0.46177 0.85637 0.0
C331 C 0.18679 0.43206 0.83902 0.0
N332 N 0.16069 0.45214 0.81486 0.0
N333 N 0.20264 0.50067 0.84343 0.0
C334 C 0.1706 0.49367 0.81847 0.0
H335 H 0.23816 0.45508 0.87555 0.0
Co336 Co 0.23482 0.55048 0.85253 0.0
C337 C 0.18756 0.61954 0.82003 0.0
O338 O 0.22316 0.63068 0.80347 0.0
N339 N 0.26701 0.60225 0.86264 0.0
C340 C 0.31288 0.65613 0.86106 0.0
C341 C 0.30635 0.6142 0.85198 0.0
C342 C 0.25155 0.63756 0.88024 0.0
N343 N 0.27819 0.67131 0.87865 0.0
O344 O 0.21983 0.54991 0.90484 0.0
H345 H 0.32887 0.59488 0.837 0.0
H346 H 0.21993 0.63917 0.89195 0.0
O347 O 0.18598 0.58573 0.83988 0.0
C348 C 0.25226 0.53662 0.92283 0.0
O349 O 0.28508 0.52376 0.90304 0.0
N350 N 0.25401 0.54716 0.80218 0.0
C351 C 0.29844 0.55128 0.73468 0.0
C352 C 0.25407 0.5544 0.73472 0.0
C353 C 0.23229 0.55258 0.76908 0.0
C354 C 0.29467 0.53329 0.80096 0.0
C355 C 0.31814 0.53654 0.76776 0.0
H356 H 0.19884 0.55903 0.76898 0.0
H357 H 0.31026 0.52406 0.82691 0.0
H358 H 0.15551 0.51826 0.80216 0.0
H359 H 0.18922 0.39806 0.84203 0.0
H360 H 0.34019 0.67455 0.85268 0.0
H361 H 0.23702 0.56328 0.70936 0.0
H362 H 0.35203 0.5325 0.76969 0.0
C363 C 0.06536 0.21415 0.35229 0.0
C364 C 0.09407 0.18792 0.33436 0.0
N365 N 0.07263 0.1611 0.31178 0.0
N366 N 0.02579 0.20398 0.34126 0.0
C367 C 0.03136 0.1709 0.31709 0.0
H368 H 0.07312 0.24087 0.37013 0.0
Co369 Co 0.97714 0.23782 0.35008 0.0
C370 C 0.90611 0.19334 0.31735 0.0
O371 O 0.89753 0.22937 0.30044 0.0
N372 N 0.92646 0.27165 0.35996 0.0
C373 C 0.87232 0.31673 0.35703 0.0
C374 C 0.91429 0.31041 0.34818 0.0
C375 C 0.89143 0.25667 0.37824 0.0
N376 N 0.8571 0.28244 0.37535 0.0
O377 O 0.97728 0.22369 0.40269 0.0
H378 H 0.9334 0.33254 0.33252 0.0
H379 H 0.89113 0.22602 0.39159 0.0
O380 O 0.93957 0.18999 0.33762 0.0
C381 C 0.99053 0.25679 0.41987 0.0
O382 O 1.00465 0.28852 0.39939 0.0
N383 N 0.98109 0.25613 0.29945 0.0
C384 C 0.97422 0.29812 0.23127 0.0
C385 C 0.97302 0.25372 0.23215 0.0
C386 C 0.97585 0.23318 0.26694 0.0
C387 C 0.99438 0.29697 0.29705 0.0
C388 C 0.98967 0.31932 0.26337 0.0
H389 H 0.96947 0.19973 0.2677 0.0
H390 H 1.00376 0.31361 0.32247 0.0
H391 H 1.00594 0.15529 0.30217 0.0
H392 H 0.1282 0.19054 0.33557 0.0
H393 H 0.85396 0.34382 0.34817 0.0
H394 H 0.96368 0.23569 0.20741 0.0
H395 H 0.99266 0.3534 0.26434 0.0
C396 C 0.3137 0.46106 0.15244 0.0
C397 C 0.3395 0.43173 0.16996 0.0
N398 N 0.36614 0.45238 0.19336 0.0
N399 N 0.3239 0.50023 0.16456 0.0
C400 C 0.3564 0.4938 0.18909 0.0
H401 H 0.28733 0.45399 0.134 0.0
Co402 Co 0.29142 0.54984 0.15654 0.0
C403 C 0.3402 0.61911 0.18776 0.0
O404 O 0.30527 0.63063 0.2052 0.0
N405 N 0.25885 0.60159 0.14783 0.0
C406 C 0.2143 0.65598 0.15291 0.0
C407 C 0.22056 0.6138 0.16079 0.0
C408 C 0.27365 0.63693 0.12991 0.0
N409 N 0.24816 0.67141 0.13404 0.0
O410 O 0.30456 0.54951 0.10375 0.0
H411 H 0.19876 0.59445 0.17659 0.0
H412 H 0.304 0.6373 0.11596 0.0
O413 O 0.34084 0.58519 0.16796 0.0
C414 C 0.27092 0.53741 0.08679 0.0
O415 O 0.23869 0.52477 0.10745 0.0
N416 N 0.27398 0.54618 0.20729 0.0
C417 C 0.23084 0.55242 0.27492 0.0
C418 C 0.27518 0.55564 0.27443 0.0
C419 C 0.29637 0.55269 0.23988 0.0
C420 C 0.23361 0.53142 0.20947 0.0
C421 C 0.21076 0.53535 0.24297 0.0
H422 H 0.32974 0.55966 0.23931 0.0
H423 H 0.21753 0.52153 0.18393 0.0
H424 H 0.37173 0.51874 0.20487 0.0
H425 H 0.33673 0.39767 0.16775 0.0
H426 H 0.18756 0.67427 0.16277 0.0
H427 H 0.29231 0.56663 0.29913 0.0
H428 H 0.17682 0.53095 0.24191 0.0
C429 C 0.0572 0.32822 0.6443 0.0
C430 C 0.08605 0.35282 0.66393 0.0
N431 N 0.06838 0.365 0.69694 0.0
N432 N 0.02114 0.32511 0.66457 0.0
C433 C 0.02897 0.34816 0.69635 0.0
H434 H 0.06261 0.31293 0.61733 0.0
Co435 Co 0.9713 0.29361 0.65392 0.0
C436 C 0.90204 0.34926 0.68042 0.0
O437 O 0.88014 0.31701 0.69333 0.0
N438 N 0.91988 0.26238 0.64335 0.0
C439 C 0.86792 0.21466 0.64703 0.0
C440 C 0.90975 0.22308 0.6552 0.0
C441 C 0.88398 0.27596 0.62577 0.0
N442 N 0.85123 0.24825 0.62894 0.0
O443 O 0.9732 0.30914 0.60165 0.0
H444 H 0.93068 0.2024 0.67052 0.0
H445 H 0.88087 0.30722 0.61359 0.0
O446 O 0.93876 0.34412 0.6662 0.0
C447 C 0.98636 0.27644 0.58381 0.0
O448 O 0.99844 0.24353 0.60377 0.0
N449 N 0.97308 0.27274 0.70346 0.0
C450 C 0.97066 0.21504 0.76209 0.0
C451 C 0.95111 0.25467 0.76618 0.0
C452 C 0.95319 0.28373 0.73635 0.0
C453 C 0.99877 0.23817 0.70245 0.0
C454 C 0.9981 0.20868 0.7316 0.0
H455 H 0.93691 0.3134 0.73924 0.0
H456 H 0.01627 0.23108 0.67691 0.0
H457 H 1.00614 0.35245 0.71884 0.0
H458 H 0.11811 0.35999 0.65517 0.0
H459 H 0.85043 0.18715 0.65646 0.0
H460 H 0.93026 0.26099 0.78988 0.0
H461 H 0.01389 0.17857 0.72765 0.0
C462 C 0.21064 0.06014 0.15151 0.0
C463 C 0.18494 0.08989 0.1687 0.0
N464 N 0.1597 0.06998 0.19376 0.0
N465 N 0.20173 0.02145 0.16551 0.0
C466 C 0.17006 0.02859 0.19084 0.0
H467 H 0.23605 0.06673 0.13184 0.0
Co468 Co 0.23471 0.972 0.15782 0.0
C469 C 0.18603 0.90238 0.18864 0.0
O470 O 0.22095 0.89092 0.20604 0.0
N471 N 0.26797 0.92064 0.14928 0.0
C472 C 0.31499 0.86802 0.15269 0.0
C473 C 0.3071 0.90984 0.16125 0.0
C474 C 0.25409 0.88484 0.13144 0.0
N475 N 0.28142 0.85181 0.13413 0.0
O476 O 0.22218 0.97199 0.10494 0.0
H477 H 0.32852 0.92995 0.17672 0.0
H478 H 0.22306 0.88233 0.11871 0.0
O479 O 0.18541 0.93634 0.16895 0.0
C480 C 0.25594 0.98384 0.08798 0.0
O481 O 0.28812 0.99662 0.10859 0.0
N482 N 0.25152 0.97587 0.20873 0.0
C483 C 0.294 0.97055 0.2767 0.0
C484 C 0.24973 0.96679 0.27592 0.0
C485 C 0.22893 0.96896 0.24119 0.0
C486 C 0.29164 0.99121 0.21117 0.0
C487 C 0.3142 0.98767 0.24481 0.0
H488 H 0.19576 0.96121 0.24047 0.0
H489 H 0.3078 1.0014 0.18574 0.0
H490 H 0.15561 1.0043 0.20798 0.0
H491 H 0.18679 0.12385 0.16502 0.0
H492 H 0.34233 0.85036 0.16204 0.0
H493 H 0.23242 0.95586 0.30056 0.0
H494 H 0.34808 0.99254 0.24389 0.0
C495 C 0.46756 0.19351 0.64385 0.0
C496 C 0.43911 0.16687 0.66165 0.0
N497 N 0.45792 0.14982 0.6923 0.0
N498 N 0.50444 0.19345 0.66298 0.0
C499 C 0.49751 0.16638 0.69229 0.0
H500 H 0.46103 0.21312 0.61949 0.0
Co501 Co 0.55203 0.22899 0.65461 0.0
C502 C 0.62595 0.18126 0.68112 0.0
O503 O 0.64057 0.21613 0.69669 0.0
N504 N 0.60125 0.26449 0.64609 0.0
C505 C 0.65461 0.30915 0.65599 0.0
C506 C 0.61271 0.3006 0.66368 0.0
C507 C 0.63635 0.25354 0.62585 0.0
N508 N 0.6704 0.27887 0.63288 0.0
O509 O 0.55225 0.2161 0.60167 0.0
H510 H 0.59332 0.31804 0.68342 0.0
H511 H 0.63727 0.22517 0.60891 0.0
O512 O 0.58956 0.18099 0.66528 0.0
C513 C 0.53827 0.24928 0.58524 0.0
O514 O 0.52326 0.28004 0.60638 0.0
N515 N 0.54775 0.24661 0.70502 0.0
C516 C 0.54507 0.29605 0.76983 0.0
C517 C 0.56527 0.25632 0.77013 0.0
C518 C 0.56484 0.23123 0.73763 0.0
C519 C 0.52201 0.28112 0.70623 0.0
C520 C 0.51976 0.30617 0.73859 0.0
H521 H 0.58022 0.20088 0.73854 0.0
H522 H 0.50593 0.29122 0.68081 0.0
H523 H 0.52069 0.15972 0.71395 0.0
H524 H 0.40631 0.16239 0.6538 0.0
H525 H 0.67272 0.33406 0.66938 0.0
H526 H 0.58466 0.24612 0.7936 0.0
H527 H 0.50208 0.33548 0.7376 0.0
C528 C 0.64317 0.9404 0.2635 0.0
C529 C 0.63407 0.93275 0.225 0.0
C530 C 0.62214 0.9181 0.29259 0.0
C531 C 0.59028 0.88829 0.28437 0.0
H532 H 0.66771 0.96279 0.27108 0.0
H533 H 0.63092 0.92401 0.32175 0.0
S534 S 0.55354 0.85776 0.18843 0.0
N535 N 0.59063 0.8936 0.18046 0.0
N536 N 0.55042 0.8528 0.23491 0.0
C537 C 0.58017 0.88122 0.24608 0.0
C538 C 0.60223 0.90312 0.21649 0.0
C539 C 0.64707 0.63203 0.77529 0.0
C540 C 0.63399 0.59065 0.78447 0.0
C541 C 0.62824 0.65487 0.74564 0.0
C542 C 0.59506 0.63768 0.7238 0.0
H543 H 0.67261 0.64682 0.79085 0.0
H544 H 0.63942 0.68667 0.74022 0.0
S545 S 0.54843 0.53072 0.73626 0.0
N546 N 0.58531 0.5335 0.76931 0.0
N547 N 0.54995 0.57641 0.71357 0.0
C548 C 0.58141 0.5964 0.73272 0.0
C549 C 0.60092 0.57289 0.76286 0.0
C550 C 0.94853 0.6344 0.24783 0.0
C551 C 0.93516 0.63058 0.28578 0.0
C552 C 0.92745 0.61296 0.21828 0.0
C553 C 0.89284 0.58601 0.22557 0.0
H554 H 0.97449 0.65538 0.24079 0.0
H555 H 0.93805 0.6177 0.18943 0.0
S556 S 0.84639 0.56398 0.32011 0.0
N557 N 0.8856 0.59718 0.32897 0.0
N558 N 0.8467 0.55632 0.27383 0.0
C559 C 0.87998 0.58101 0.26352 0.0
C560 C 0.90089 0.60346 0.29346 0.0
C561 C 0.93392 0.87191 0.76296 0.0
C562 C 0.92404 0.87908 0.72455 0.0
C563 C 0.91161 0.89252 0.7923 0.0
C564 C 0.87952 0.92196 0.78427 0.0
H565 H 0.95826 0.84929 0.77033 0.0
H566 H 0.91944 0.88547 0.82146 0.0
S567 S 0.84237 0.95287 0.68871 0.0
N568 N 0.88008 0.91787 0.68035 0.0
N569 N 0.83932 0.95747 0.73524 0.0
C570 C 0.86999 0.93 0.74606 0.0
C571 C 0.89193 0.90834 0.71628 0.0
C572 C 0.4239 0.11098 0.78917 0.0
C573 C 0.39326 0.07981 0.78089 0.0
C574 C 0.44598 0.13253 0.76025 0.0
C575 C 0.43785 0.12447 0.72166 0.0
H576 H 0.43059 0.11905 0.81836 0.0
H577 H 0.46854 0.15678 0.76819 0.0
S578 S 0.36162 0.04523 0.68444 0.0
N579 N 0.35676 0.04155 0.73088 0.0
N580 N 0.39804 0.08181 0.67686 0.0
C581 C 0.40789 0.09284 0.71297 0.0
C582 C 0.38576 0.07057 0.74241 0.0
C583 C 0.41301 0.42726 0.28933 0.0
C584 C 0.43937 0.3923 0.28181 0.0
C585 C 0.39053 0.44778 0.26015 0.0
C586 C 0.39264 0.43352 0.22234 0.0
H587 H 0.4097 0.43873 0.31808 0.0
H588 H 0.37019 0.47412 0.26741 0.0
S589 S 0.45692 0.3434 0.18749 0.0
N590 N 0.46649 0.34475 0.23346 0.0
N591 N 0.42374 0.38263 0.17904 0.0
C592 C 0.41904 0.3988 0.21443 0.0
C593 C 0.44254 0.37843 0.24399 0.0
C594 C 0.11535 0.42322 0.71909 0.0
C595 C 0.08876 0.38852 0.72728 0.0
C596 C 0.13729 0.44501 0.74795 0.0
C597 C 0.13435 0.43241 0.78615 0.0
H598 H 0.11937 0.43344 0.69006 0.0
H599 H 0.15793 0.47098 0.74018 0.0
S600 S 0.06876 0.3441 0.82292 0.0
N601 N 0.06026 0.34333 0.77677 0.0
N602 N 0.10196 0.38362 0.83059 0.0
C603 C 0.10754 0.39814 0.79475 0.0
C604 C 0.08461 0.37645 0.7655 0.0
C605 C 0.12132 0.10417 0.29054 0.0
C606 C 0.09089 0.13525 0.28205 0.0
C607 C 0.14223 0.08148 0.26159 0.0
C608 C 0.13444 0.08995 0.22303 0.0
H609 H 0.12932 0.09782 0.31979 0.0
H610 H 0.16593 0.05834 0.26935 0.0
S611 S 0.05798 0.16832 0.18578 0.0
N612 N 0.05368 0.17269 0.23225 0.0
N613 N 0.09388 0.13128 0.17811 0.0
C614 C 0.10393 0.12072 0.21425 0.0
C615 C 0.08193 0.14302 0.24366 0.0
C616 C 0.61349 0.17575 0.16036 0.0
C617 C 0.62271 0.13769 0.17898 0.0
C618 C 0.58618 0.20538 0.17677 0.0
C619 C 0.56774 0.19762 0.21238 0.0
H620 H 0.63105 0.18467 0.13528 0.0
H621 H 0.58343 0.23627 0.16374 0.0
S622 S 0.5728 0.09649 0.26606 0.0
N623 N 0.60383 0.08902 0.22906 0.0
N624 N 0.55339 0.14462 0.26112 0.0
C625 C 0.57128 0.1565 0.22773 0.0
C626 C 0.59869 0.12636 0.21059 0.0
C627 C 0.30867 0.61663 0.69718 0.0
C628 C 0.32376 0.57611 0.70691 0.0
C629 C 0.33646 0.64887 0.68715 0.0
C630 C 0.38021 0.64179 0.68595 0.0
H631 H 0.27597 0.62547 0.70172 0.0
H632 H 0.32381 0.68047 0.68337 0.0
S633 S 0.43425 0.53857 0.69503 0.0
N634 N 0.38398 0.52807 0.70404 0.0
N635 N 0.43666 0.58978 0.68582 0.0
C636 C 0.39518 0.60028 0.68929 0.0
C637 C 0.3667 0.56706 0.69948 0.0
C638 C 0.90521 0.30394 0.19889 0.0
C639 C 0.94579 0.32117 0.20496 0.0
C640 C 0.87146 0.32938 0.18833 0.0
C641 C 0.87678 0.37298 0.18272 0.0
H642 H 0.8979 0.27146 0.20618 0.0
H643 H 0.84034 0.315 0.18687 0.0
S644 S 0.97835 0.43165 0.18438 0.0
N645 N 0.9911 0.38287 0.19669 0.0
N646 N 0.92679 0.43115 0.17671 0.0
C647 C 0.91791 0.38982 0.18369 0.0
C648 C 0.95265 0.36373 0.19474 0.0
C649 C 0.14397 0.94621 0.73717 0.0
C650 C 0.18176 0.9578 0.71835 0.0
C651 C 0.11747 0.9149 0.72259 0.0
C652 C 0.12768 0.89437 0.68876 0.0
H653 H 0.13711 0.95721 0.76555 0.0
H654 H 0.09157 0.90352 0.73998 0.0
S655 S 0.21438 0.92169 0.6227 0.0
N656 N 0.22132 0.95374 0.65918 0.0
N657 N 0.17203 0.89309 0.63272 0.0
C658 C 0.16142 0.9096 0.66695 0.0
C659 C 0.18827 0.94203 0.68149 0.0
C660 C 0.57064 0.36974 0.78004 0.0
C661 C 0.55963 0.33013 0.79587 0.0
C662 C 0.60071 0.39581 0.79733 0.0
C663 C 0.62067 0.3829 0.83068 0.0
H664 H 0.56045 0.37846 0.75186 0.0
H665 H 0.61233 0.42314 0.78193 0.0
S666 S 0.59288 0.29055 0.89001 0.0
N667 N 0.56225 0.28602 0.85232 0.0
N668 N 0.62087 0.33416 0.88362 0.0
C669 C 0.60524 0.34727 0.8498 0.0
C670 C 0.57396 0.3211 0.83268 0.0
C671 C 0.22035 0.62322 0.30242 0.0
C672 C 0.20616 0.5811 0.29971 0.0
C673 C 0.19267 0.65576 0.31142 0.0
C674 C 0.14989 0.64769 0.31922 0.0
H675 H 0.25196 0.63217 0.29362 0.0
H676 H 0.20463 0.68787 0.31006 0.0
S677 S 0.09881 0.5423 0.32453 0.0
N678 N 0.14806 0.53221 0.31158 0.0
N679 N 0.09575 0.5942 0.32959 0.0
C680 C 0.13613 0.60549 0.32105 0.0
C681 C 0.16441 0.57198 0.31116 0.0
C682 C 0.9243 0.15367 0.75366 0.0
C683 C 0.94941 0.17783 0.7784 0.0
C684 C 0.89288 0.12705 0.76745 0.0
C685 C 0.88617 0.12287 0.80644 0.0
H686 H 0.9262 0.15825 0.72336 0.0
H687 H 0.87157 0.11219 0.74738 0.0
S688 S 0.95158 0.16924 0.8829 0.0
N689 N 0.97107 0.1899 0.84352 0.0
N690 N 0.91248 0.1376 0.86978 0.0
C691 C 0.9146 0.14221 0.8316 0.0
C692 C 0.94616 0.17048 0.81746 0.0
C693 C 0.30433 0.90034 0.30547 0.0
C694 C 0.31872 0.94233 0.30184 0.0
C695 C 0.33203 0.8678 0.31424 0.0
C696 C 0.37507 0.87578 0.32071 0.0
H697 H 0.27245 0.89136 0.29757 0.0
H698 H 0.31983 0.83573 0.31396 0.0
S699 S 0.42668 0.98095 0.32456 0.0
N700 N 0.37719 0.99114 0.31257 0.0
N701 N 0.42967 0.92907 0.32972 0.0
C702 C 0.38906 0.9179 0.32205 0.0
C703 C 0.3607 0.95143 0.31259 0.0
C704 C 0.44264 0.84902 0.81533 0.0
C705 C 0.4348 0.80774 0.80192 0.0
C706 C 0.40918 0.87615 0.8249 0.0
C707 C 0.36699 0.8628 0.82101 0.0
H708 H 0.47458 0.86152 0.81543 0.0
H709 H 0.41636 0.90852 0.83275 0.0
S710 S 0.32964 0.75526 0.79419 0.0
N711 N 0.38158 0.75307 0.79088 0.0
N712 N 0.31929 0.80375 0.80859 0.0
C713 C 0.35896 0.82031 0.81145 0.0
C714 C 0.39278 0.79271 0.80221 0.0
C715 C 0.65178 0.45442 0.2794 0.0
C716 C 0.6908 0.46727 0.29521 0.0
C717 C 0.62705 0.42341 0.2969 0.0
C718 C 0.64071 0.40454 0.33053 0.0
H719 H 0.64285 0.46382 0.25104 0.0
H720 H 0.60036 0.41033 0.28156 0.0
S721 S 0.7314 0.43736 0.38985 0.0
N722 N 0.73483 0.46745 0.35172 0.0
N723 N 0.689 0.40748 0.38377 0.0
C724 C 0.67543 0.42189 0.34966 0.0
C725 C 0.70028 0.454 0.33222 0.0
C726 C 0.12859 0.71994 0.80158 0.0
C727 C 0.0861 0.70674 0.80002 0.0
C728 C 0.16068 0.69154 0.8098 0.0
C729 C 0.15178 0.64901 0.81798 0.0
H730 H 0.13804 0.75128 0.79245 0.0
H731 H 0.19302 0.70278 0.8078 0.0
S732 S 0.04537 0.60068 0.82659 0.0
N733 N 0.03613 0.65005 0.81361 0.0
N734 N 0.09732 0.59633 0.83019 0.0
C735 C 0.10934 0.63632 0.82105 0.0
C736 C 0.07628 0.66535 0.81196 0.0
C737 C 0.83258 0.17151 0.30566 0.0
C738 C 0.87403 0.15969 0.3152 0.0
C739 C 0.802 0.14145 0.29717 0.0
C740 C 0.81159 0.09801 0.29735 0.0
H741 H 0.82382 0.20454 0.30315 0.0
H742 H 0.7718 0.15296 0.28707 0.0
S743 S 0.91306 0.05024 0.32824 0.0
N744 N 0.92163 0.1018 0.33031 0.0
N745 N 0.86354 0.04437 0.31413 0.0
C746 C 0.85171 0.08549 0.31068 0.0
C747 C 0.88311 0.11653 0.31962 0.0
C748 C 0.40068 0.71876 0.20556 0.0
C749 C 0.44272 0.70468 0.20918 0.0
C750 C 0.36833 0.69089 0.1964 0.0
C751 C 0.37655 0.64798 0.18951 0.0
H752 H 0.39154 0.75052 0.2137 0.0
H753 H 0.33619 0.70284 0.19668 0.0
S754 S 0.48197 0.59715 0.18591 0.0
N755 N 0.49185 0.64662 0.19838 0.0
N756 N 0.43014 0.59384 0.18037 0.0
C757 C 0.41874 0.63431 0.18829 0.0
C758 C 0.45207 0.66283 0.1982 0.0
C759 C 0.82068 0.43337 0.67861 0.0
C760 C 0.82624 0.45115 0.71478 0.0
C761 C 0.84963 0.40386 0.66444 0.0
C762 C 0.88469 0.39147 0.68606 0.0
H763 H 0.79177 0.43904 0.66295 0.0
H764 H 0.84253 0.3879 0.63807 0.0
S765 S 0.9186 0.43479 0.7783 0.0
N766 N 0.87375 0.4593 0.76884 0.0
N767 N 0.92766 0.40367 0.74164 0.0
C768 C 0.89372 0.41303 0.71958 0.0
C769 C 0.86451 0.44313 0.73412 0.0
C770 C 0.12488 0.80314 0.2071 0.0
C771 C 0.08277 0.81727 0.20971 0.0
C772 C 0.15749 0.83086 0.19833 0.0
C773 C 0.14953 0.87363 0.1906 0.0
H774 H 0.13379 0.77154 0.21584 0.0
H775 H 0.18958 0.81896 0.19984 0.0
S776 S 0.04427 0.92459 0.18497 0.0
N777 N 0.03402 0.87532 0.19777 0.0
N778 N 0.09621 0.92772 0.18014 0.0
C779 C 0.10737 0.88735 0.18863 0.0
C780 C 0.07376 0.85902 0.19832 0.0
C781 C 0.72179 0.11534 0.69924 0.0
C782 C 0.70469 0.075 0.70654 0.0
C783 C 0.69607 0.14873 0.68831 0.0
C784 C 0.65239 0.14316 0.68338 0.0
H785 H 0.75435 0.12288 0.70604 0.0
H786 H 0.71029 0.17987 0.6862 0.0
S787 S 0.59401 0.04159 0.68797 0.0
N788 N 0.64301 0.02929 0.69998 0.0
N789 N 0.59426 0.09292 0.67912 0.0
C790 C 0.63568 0.10205 0.68535 0.0
C791 C 0.66203 0.06771 0.69688 0.0
C792 C 0.71486 0.28163 0.13097 0.0
C793 C 0.74777 0.31116 0.12422 0.0
C794 C 0.72202 0.23765 0.13119 0.0
C795 C 0.76225 0.22049 0.12408 0.0
H796 H 0.6832 0.29236 0.13741 0.0
H797 H 0.69621 0.21702 0.13892 0.0
S798 S 0.85818 0.28155 0.09765 0.0
N799 N 0.82194 0.31808 0.10549 0.0
N800 N 0.83437 0.23582 0.10509 0.0
C801 C 0.79482 0.24899 0.11447 0.0
C802 C 0.78781 0.29401 0.11451 0.0
C803 C 0.27873 0.80184 0.64847 0.0
C804 C 0.30748 0.77265 0.63211 0.0
C805 C 0.23461 0.79533 0.64779 0.0
C806 C 0.21678 0.75902 0.63121 0.0
H807 H 0.29011 0.82953 0.66329 0.0
H808 H 0.2144 0.81799 0.66197 0.0
S809 S 0.2756 0.67455 0.58088 0.0
N810 N 0.31286 0.70747 0.59532 0.0
N811 N 0.23045 0.69474 0.59593 0.0
C812 C 0.24448 0.73012 0.61383 0.0
C813 C 0.28951 0.73702 0.6138 0.0
C814 C 0.72651 0.24241 0.88359 0.0
C815 C 0.75997 0.21343 0.87767 0.0
C816 C 0.73303 0.28659 0.8831 0.0
C817 C 0.77346 0.30421 0.87697 0.0
H818 H 0.69452 0.23096 0.88753 0.0
H819 H 0.70574 0.30695 0.88576 0.0
S820 S 0.87284 0.24348 0.86467 0.0
N821 N 0.83591 0.2067 0.86783 0.0
N822 N 0.84821 0.28903 0.86957 0.0
C823 C 0.8076 0.27576 0.87379 0.0
C824 C 0.80093 0.23074 0.87353 0.0
C825 C 0.27634 0.72229 0.38054 0.0
C826 C 0.30645 0.7554 0.38338 0.0
C827 C 0.2324 0.72989 0.38097 0.0
C828 C 0.21581 0.77108 0.3839 0.0
H829 H 0.28651 0.68988 0.37707 0.0
H830 H 0.21137 0.70321 0.37746 0.0
S831 S 0.27892 0.86809 0.40281 0.0
N832 N 0.31475 0.83075 0.39687 0.0
N833 N 0.23272 0.84449 0.3975 0.0
C834 C 0.24504 0.80406 0.39047 0.0
C835 C 0.29001 0.7964 0.39032 0.0
C836 C 0.22717 0.73149 0.88236 0.0
C837 C 0.26866 0.71582 0.88605 0.0
C838 C 0.21851 0.77528 0.88238 0.0
C839 C 0.25077 0.80605 0.88659 0.0
H840 H 0.20116 0.70987 0.87786 0.0
H841 H 0.18606 0.78493 0.87805 0.0
S842 S 0.36379 0.78084 0.90711 0.0
N843 N 0.34129 0.73421 0.90114 0.0
N844 N 0.3257 0.81584 0.90122 0.0
C845 C 0.29196 0.79042 0.8942 0.0
C846 C 0.30069 0.74568 0.89386 0.0
C847 C 0.78221 0.30679 0.38198 0.0
C848 C 0.81225 0.27359 0.38293 0.0
C849 C 0.73829 0.29906 0.3824 0.0
C850 C 0.7218 0.25771 0.38384 0.0
H851 H 0.79245 0.33934 0.37976 0.0
H852 H 0.7172 0.32572 0.37966 0.0
S853 S 0.78469 0.15966 0.39594 0.0
N854 N 0.82058 0.19739 0.39198 0.0
N855 N 0.73848 0.18357 0.39257 0.0
C856 C 0.75094 0.22443 0.38813 0.0
C857 C 0.79586 0.23214 0.38788 0.0
C858 C 0.22391 0.74662 0.12973 0.0
C859 C 0.25687 0.71643 0.12698 0.0
C860 C 0.23179 0.79054 0.12954 0.0
C861 C 0.2731 0.80699 0.12705 0.0
H862 H 0.19142 0.73652 0.13295 0.0
H863 H 0.20521 0.81167 0.13289 0.0
S864 S 0.36988 0.7437 0.10836 0.0
N865 N 0.33226 0.70795 0.11384 0.0
N866 N 0.34652 0.78994 0.11386 0.0
C867 C 0.30597 0.7777 0.12054 0.0
C868 C 0.29802 0.73277 0.12036 0.0
C869 C 0.74539 0.30417 0.63199 0.0
C870 C 0.71556 0.2715 0.62544 0.0
C871 C 0.78935 0.29682 0.63136 0.0
C872 C 0.80624 0.25656 0.62372 0.0
H873 H 0.73493 0.33583 0.63879 0.0
H874 H 0.81021 0.32255 0.63875 0.0
S875 S 0.74412 0.16116 0.59774 0.0
N876 N 0.70793 0.19754 0.60633 0.0
N877 N 0.79012 0.18464 0.60465 0.0
C878 C 0.77736 0.22419 0.61448 0.0
C879 C 0.73235 0.23145 0.61524 0.0
C880 C 0.727 0.03134 0.98208 0.0
C881 C 0.76713 0.03462 0.96468 0.0
C882 C 0.72225 0.03327 0.02151 0.0
C883 C 0.75751 0.03794 0.04524 0.0
H884 H 0.69871 0.02745 0.96513 0.0
H885 H 0.69079 0.03044 0.03348 0.0
S886 S 0.86943 0.04962 0.01417 0.0
N887 N 0.84262 0.0441 0.97438 0.0
N888 N 0.83401 0.0473 0.0485 0.0
C889 C 0.79785 0.04164 0.02829 0.0
C890 C 0.80259 0.04013 0.98805 0.0
C891 C 0.49127 0.72898 0.48249 0.0
C892 C 0.48559 0.76883 0.46515 0.0
C893 C 0.49074 0.72437 0.52196 0.0
C894 C 0.48519 0.75952 0.54567 0.0
H895 H 0.49617 0.70087 0.46549 0.0
H896 H 0.49567 0.69323 0.53396 0.0
S897 S 0.46633 0.87036 0.5149 0.0
N898 N 0.47216 0.84372 0.475 0.0
N899 N 0.47166 0.8353 0.54918 0.0
C900 C 0.4787 0.79945 0.52882 0.0
C901 C 0.47874 0.80405 0.48858 0.0
C902 C 0.72964 0.4908 0.02498 0.0
C903 C 0.76992 0.48537 0.04155 0.0
C904 C 0.72371 0.4879 0.98575 0.0
C905 C 0.75795 0.48017 0.96147 0.0
H906 H 0.70219 0.49725 0.04244 0.0
H907 H 0.69228 0.49275 0.97432 0.0
S908 S 0.86942 0.46127 0.99026 0.0
N909 N 0.8442 0.46996 0.0305 0.0
N910 N 0.83334 0.46514 0.95666 0.0
C911 C 0.7983 0.474 0.97757 0.0
C912 C 0.80423 0.4764 0.01761 0.0
C913 C 0.03559 0.72046 0.48759 0.0
C914 C 0.03853 0.75599 0.464 0.0
C915 C 0.0347 0.72494 0.5271 0.0
C916 C 0.03736 0.76508 0.54458 0.0
H917 H 0.03306 0.68905 0.47547 0.0
H918 H 0.03195 0.69651 0.54403 0.0
S919 S 0.04879 0.86796 0.49521 0.0
N920 N 0.04623 0.83264 0.46082 0.0
N921 N 0.04496 0.84083 0.53499 0.0
C922 C 0.04146 0.80078 0.52126 0.0
C923 C 0.04192 0.79628 0.48102 0.0
C924 C 0.22642 0.98814 0.02244 0.0
C925 C 0.261 0.98123 0.04641 0.0
C926 C 0.23171 0.98907 0.98303 0.0
C927 C 0.27166 0.9824 0.96601 0.0
H928 H 0.1953 0.99403 0.03421 0.0
H929 H 0.20405 0.99513 0.96581 0.0
S930 S 0.37162 0.95906 0.01652 0.0
N931 N 0.33622 0.96511 0.05052 0.0
N932 N 0.34584 0.96626 0.97641 0.0
C933 C 0.30621 0.97394 0.98968 0.0
C934 C 0.30095 0.97355 0.02987 0.0
C935 C 0.53743 0.22218 0.51858 0.0
C936 C 0.54195 0.25601 0.54393 0.0
C937 C 0.53772 0.2291 0.47933 0.0
C938 C 0.54324 0.27002 0.46394 0.0
H939 H 0.53252 0.19036 0.52909 0.0
H940 H 0.53351 0.20197 0.46095 0.0
S941 S 0.56039 0.36871 0.51866 0.0
N942 N 0.55466 0.33162 0.55115 0.0
N943 N 0.5557 0.34437 0.47749 0.0
C944 C 0.54924 0.30388 0.48909 0.0
C945 C 0.54845 0.29693 0.52903 0.0
C946 C 0.30085 0.53362 0.02125 0.0
C947 C 0.266 0.53968 0.04518 0.0
C948 C 0.2958 0.53266 0.98181 0.0
C949 C 0.2558 0.5384 0.96472 0.0
H950 H 0.33206 0.5285 0.03305 0.0
H951 H 0.3237 0.52731 0.96463 0.0
S952 S 0.15502 0.55924 0.01514 0.0
N953 N 0.19039 0.55398 0.04917 0.0
N954 N 0.18117 0.55269 0.97507 0.0
C955 C 0.22091 0.5459 0.98838 0.0
C956 C 0.22596 0.54638 0.02858 0.0
C957 C 0.99055 0.22716 0.48559 0.0
C958 C 0.98715 0.26212 0.46143 0.0
C959 C 0.99017 0.23242 0.52503 0.0
C960 C 0.98569 0.27276 0.5419 0.0
H961 H 0.99458 0.19567 0.474 0.0
H962 H 0.99349 0.2044 0.54241 0.0
S963 S 0.97178 0.37411 0.49079 0.0
N964 N 0.97665 0.33833 0.45696 0.0
N965 N 0.97546 0.3479 0.53106 0.0
C966 C 0.98081 0.3078 0.51799 0.0
C967 C 0.9817 0.30255 0.4778 0.0
loop_
_geom_bond_atom_site_label_1
_geom_bond_atom_site_label_2
_geom_bond_distance
_geom_bond_site_symmetry_2
_ccdc_geom_bond_type
C0 C1 1.351 . S
C0 N3 1.368 . S
C0 H5 0.931 . S
C1 C0 1.351 . S
C1 N2 1.373 . S
C1 H29 0.930 . S
N2 C1 1.373 . S
N2 C4 1.340 . S
N3 C0 1.368 . S
N3 C4 1.321 . S
N3 Co6 2.135 1_565 S
C4 N2 1.340 . S
C4 N3 1.321 . S
C4 H28 0.930 . S
H5 C0 0.931 . S
Co6 N3 2.135 1_545 S
Co6 N9 2.121 . S
Co6 O14 2.055 . S
Co6 O17 2.039 . S
Co6 N20 2.140 . S
C7 O8 1.227 . S
C7 O17 1.265 . S
O8 C7 1.227 . S
N9 Co6 2.121 . S
N9 C11 1.375 . S
N9 C12 1.313 . S
C10 C11 1.338 . S
C10 N13 1.377 . S
C10 H30 0.930 . S
C11 N9 1.375 . S
C11 C10 1.338 . S
C11 H15 0.931 . S
C12 N9 1.313 . S
C12 N13 1.344 . S
C12 H16 0.930 . S
N13 C10 1.377 . S
N13 C12 1.344 . S
O14 Co6 2.055 . S
O14 C18 1.253 . S
H15 C11 0.931 . S
H16 C12 0.930 . S
O17 Co6 2.039 . S
O17 C7 1.265 . S
C18 O14 1.253 . S
C18 O19 1.227 . S
O19 C18 1.227 . S
N20 Co6 2.140 . S
N20 C23 1.346 . S
N20 C24 1.345 . S
C21 C22 1.387 . S
C21 C25 1.391 . S
C22 C21 1.387 . S
C22 C23 1.369 . S
C22 H31 0.929 . S
C23 N20 1.346 . S
C23 C22 1.369 . S
C23 H26 0.928 . S
C24 N20 1.345 . S
C24 C25 1.371 . S
C24 H27 0.931 . S
C25 C21 1.391 . S
C25 C24 1.371 . S
C25 H32 0.930 . S
H26 C23 0.928 . S
H27 C24 0.931 . S
H28 C4 0.930 . S
H29 C1 0.930 . S
H30 C10 0.930 . S
H31 C22 0.929 . S
H32 C25 0.930 . S
C33 C34 1.351 . S
C33 N36 1.368 . S
C33 H38 0.931 . S
C34 C33 1.351 . S
C34 N35 1.373 . S
C34 H62 0.930 . S
N35 C34 1.373 . S
N35 C37 1.340 . S
N36 C33 1.368 . S
N36 C37 1.321 . S
N36 Co39 2.135 . S
C37 N35 1.340 . S
C37 N36 1.321 . S
C37 H61 0.930 . S
H38 C33 0.931 . S
Co39 N36 2.135 . S
Co39 N42 2.121 . S
Co39 O47 2.055 . S
Co39 O50 2.039 . S
Co39 N53 2.140 . S
C40 O41 1.227 . S
C40 O50 1.265 . S
O41 C40 1.227 . S
N42 Co39 2.121 . S
N42 C44 1.375 . S
N42 C45 1.313 . S
C43 C44 1.338 . S
C43 N46 1.377 . S
C43 H63 0.930 . S
C44 N42 1.375 . S
C44 C43 1.338 . S
C44 H48 0.931 . S
C45 N42 1.313 . S
C45 N46 1.344 . S
C45 H49 0.930 . S
N46 C43 1.377 . S
N46 C45 1.344 . S
O47 Co39 2.055 . S
O47 C51 1.253 . S
H48 C44 0.931 . S
H49 C45 0.930 . S
O50 Co39 2.039 . S
O50 C40 1.265 . S
C51 O47 1.253 . S
C51 O52 1.227 . S
O52 C51 1.227 . S
N53 Co39 2.140 . S
N53 C56 1.346 . S
N53 C57 1.345 . S
C54 C55 1.387 . S
C54 C58 1.391 . S
C55 C54 1.387 . S
C55 C56 1.369 . S
C55 H64 0.929 . S
C56 N53 1.346 . S
C56 C55 1.369 . S
C56 H59 0.928 . S
C57 N53 1.345 . S
C57 C58 1.371 . S
C57 H60 0.931 . S
C58 C54 1.391 . S
C58 C57 1.371 . S
C58 H65 0.930 . S
H59 C56 0.928 . S
H60 C57 0.931 . S
H61 C37 0.930 . S
H62 C34 0.930 . S
H63 C43 0.930 . S
H64 C55 0.929 . S
H65 C58 0.930 . S
C66 C67 1.351 . S
C66 N69 1.368 . S
C66 H71 0.931 . S
C67 C66 1.351 . S
C67 N68 1.373 . S
C67 H95 0.930 . S
N68 C67 1.373 . S
N68 C70 1.340 . S
N69 C66 1.368 . S
N69 C70 1.321 . S
N69 Co72 2.135 . S
C70 N68 1.340 . S
C70 N69 1.321 . S
C70 H94 0.930 . S
H71 C66 0.931 . S
Co72 N69 2.135 . S
Co72 N75 2.121 . S
Co72 O80 2.055 . S
Co72 O83 2.039 . S
Co72 N86 2.140 . S
C73 O74 1.227 . S
C73 O83 1.265 . S
O74 C73 1.227 . S
N75 Co72 2.121 . S
N75 C77 1.375 . S
N75 C78 1.313 . S
C76 C77 1.338 . S
C76 N79 1.377 . S
C76 H96 0.930 . S
C77 N75 1.375 . S
C77 C76 1.338 . S
C77 H81 0.931 . S
C78 N75 1.313 . S
C78 N79 1.344 . S
C78 H82 0.930 . S
N79 C76 1.377 . S
N79 C78 1.344 . S
O80 Co72 2.055 . S
O80 C84 1.253 . S
H81 C77 0.931 . S
H82 C78 0.930 . S
O83 Co72 2.039 . S
O83 C73 1.265 . S
C84 O80 1.253 . S
C84 O85 1.227 . S
O85 C84 1.227 . S
N86 Co72 2.140 . S
N86 C89 1.346 . S
N86 C90 1.345 . S
C87 C88 1.387 . S
C87 C91 1.391 . S
C88 C87 1.387 . S
C88 C89 1.369 . S
C88 H97 0.929 . S
C89 N86 1.346 . S
C89 C88 1.369 . S
C89 H92 0.928 . S
C90 N86 1.345 . S
C90 C91 1.371 . S
C90 H93 0.931 . S
C91 C87 1.391 . S
C91 C90 1.371 . S
C91 H98 0.930 . S
H92 C89 0.928 . S
H93 C90 0.931 . S
H94 C70 0.930 . S
H95 C67 0.930 . S
H96 C76 0.930 . S
H97 C88 0.929 . S
H98 C91 0.930 . S
C99 C100 1.351 . S
C99 N102 1.368 . S
C99 H104 0.931 . S
C100 C99 1.351 . S
C100 N101 1.373 . S
C100 H128 0.930 . S
N101 C100 1.373 . S
N101 C103 1.340 . S
N102 C99 1.368 . S
N102 C103 1.321 . S
N102 Co105 2.135 1_655 S
C103 N101 1.340 . S
C103 N102 1.321 . S
C103 H127 0.930 . S
H104 C99 0.931 . S
Co105 N102 2.135 1_455 S
Co105 N108 2.121 . S
Co105 O113 2.055 . S
Co105 O116 2.039 . S
Co105 N119 2.140 . S
C106 O107 1.227 . S
C106 O116 1.265 . S
O107 C106 1.227 . S
N108 Co105 2.121 . S
N108 C110 1.375 . S
N108 C111 1.313 . S
C109 C110 1.338 . S
C109 N112 1.377 . S
C109 H129 0.930 . S
C110 N108 1.375 . S
C110 C109 1.338 . S
C110 H114 0.931 . S
C111 N108 1.313 . S
C111 N112 1.344 . S
C111 H115 0.930 . S
N112 C109 1.377 . S
N112 C111 1.344 . S
O113 Co105 2.055 . S
O113 C117 1.253 . S
H114 C110 0.931 . S
H115 C111 0.930 . S
O116 Co105 2.039 . S
O116 C106 1.265 . S
C117 O113 1.253 . S
C117 O118 1.227 . S
O118 C117 1.227 . S
N119 Co105 2.140 . S
N119 C122 1.346 . S
N119 C123 1.345 . S
C120 C121 1.387 . S
C120 C124 1.391 . S
C121 C120 1.387 . S
C121 C122 1.369 . S
C121 H130 0.929 . S
C122 N119 1.346 . S
C122 C121 1.369 . S
C122 H125 0.928 . S
C123 N119 1.345 . S
C123 C124 1.371 . S
C123 H126 0.931 . S
C124 C120 1.391 . S
C124 C123 1.371 . S
C124 H131 0.930 . S
H125 C122 0.928 . S
H126 C123 0.931 . S
H127 C103 0.930 . S
H128 C100 0.930 . S
H129 C109 0.930 . S
H130 C121 0.929 . S
H131 C124 0.930 . S
C132 C133 1.351 . S
C132 N135 1.368 . S
C132 H137 0.931 . S
C133 C132 1.351 . S
C133 N134 1.373 . S
C133 H161 0.930 . S
N134 C133 1.373 . S
N134 C136 1.340 . S
N135 C132 1.368 . S
N135 C136 1.321 . S
N135 Co138 2.135 . S
C136 N134 1.340 . S
C136 N135 1.321 . S
C136 H160 0.930 . S
H137 C132 0.931 . S
Co138 N135 2.135 . S
Co138 N141 2.121 . S
Co138 O146 2.055 . S
Co138 O149 2.039 . S
Co138 N152 2.140 . S
C139 O140 1.227 . S
C139 O149 1.265 . S
O140 C139 1.227 . S
N141 Co138 2.121 . S
N141 C143 1.375 . S
N141 C144 1.313 . S
C142 C143 1.338 . S
C142 N145 1.377 . S
C142 H162 0.930 . S
C143 N141 1.375 . S
C143 C142 1.338 . S
C143 H147 0.931 . S
C144 N141 1.313 . S
C144 N145 1.344 . S
C144 H148 0.930 . S
N145 C142 1.377 . S
N145 C144 1.344 . S
O146 Co138 2.055 . S
O146 C150 1.253 . S
H147 C143 0.931 . S
H148 C144 0.930 . S
O149 Co138 2.039 . S
O149 C139 1.265 . S
C150 O146 1.253 . S
C150 O151 1.227 . S
O151 C150 1.227 . S
N152 Co138 2.140 . S
N152 C155 1.346 . S
N152 C156 1.345 . S
C153 C154 1.387 . S
C153 C157 1.391 . S
C154 C153 1.387 . S
C154 C155 1.369 . S
C154 H163 0.929 . S
C155 N152 1.346 . S
C155 C154 1.369 . S
C155 H158 0.928 . S
C156 N152 1.345 . S
C156 C157 1.371 . S
C156 H159 0.931 . S
C157 C153 1.391 . S
C157 C156 1.371 . S
C157 H164 0.930 . S
H158 C155 0.928 . S
H159 C156 0.931 . S
H160 C136 0.930 . S
H161 C133 0.930 . S
H162 C142 0.930 . S
H163 C154 0.929 . S
H164 C157 0.930 . S
C165 C166 1.351 . S
C165 N168 1.368 . S
C165 H170 0.931 . S
C166 C165 1.351 . S
C166 N167 1.373 . S
C166 H194 0.930 . S
N167 C166 1.373 . S
N167 C169 1.340 . S
N168 C165 1.368 . S
N168 C169 1.321 . S
N168 Co171 2.135 1_655 S
C169 N167 1.340 . S
C169 N168 1.321 . S
C169 H193 0.930 . S
H170 C165 0.931 . S
Co171 N168 2.135 1_455 S
Co171 N174 2.121 . S
Co171 O179 2.055 . S
Co171 O182 2.039 . S
Co171 N185 2.140 . S
C172 O173 1.227 . S
C172 O182 1.265 . S
O173 C172 1.227 . S
N174 Co171 2.121 . S
N174 C176 1.375 . S
N174 C177 1.313 . S
C175 C176 1.338 . S
C175 N178 1.377 . S
C175 H195 0.930 . S
C176 N174 1.375 . S
C176 C175 1.338 . S
C176 H180 0.931 . S
C177 N174 1.313 . S
C177 N178 1.344 . S
C177 H181 0.930 . S
N178 C175 1.377 . S
N178 C177 1.344 . S
O179 Co171 2.055 . S
O179 C183 1.253 . S
H180 C176 0.931 . S
H181 C177 0.930 . S
O182 Co171 2.039 . S
O182 C172 1.265 . S
C183 O179 1.253 . S
C183 O184 1.227 . S
O184 C183 1.227 . S
N185 Co171 2.140 . S
N185 C188 1.346 . S
N185 C189 1.345 . S
C186 C187 1.387 . S
C186 C190 1.391 . S
C187 C186 1.387 . S
C187 C188 1.369 . S
C187 H196 0.929 . S
C188 N185 1.346 . S
C188 C187 1.369 . S
C188 H191 0.928 . S
C189 N185 1.345 . S
C189 C190 1.371 . S
C189 H192 0.931 . S
C190 C186 1.391 . S
C190 C189 1.371 . S
C190 H197 0.930 . S
H191 C188 0.928 . S
H192 C189 0.931 . S
H193 C169 0.930 . S
H194 C166 0.930 . S
H195 C175 0.930 . S
H196 C187 0.929 . S
H197 C190 0.930 . S
C198 C199 1.351 . S
C198 N201 1.368 . S
C198 H203 0.931 . S
C199 C198 1.351 . S
C199 N200 1.373 . S
C199 H227 0.930 . S
N200 C199 1.373 . S
N200 C202 1.340 . S
N201 C198 1.368 . S
N201 C202 1.321 . S
N201 Co204 2.135 1_565 S
C202 N200 1.340 . S
C202 N201 1.321 . S
C202 H226 0.930 . S
H203 C198 0.931 . S
Co204 N201 2.135 1_545 S
Co204 N207 2.121 . S
Co204 O212 2.055 . S
Co204 O215 2.039 . S
Co204 N218 2.140 . S
C205 O206 1.227 . S
C205 O215 1.265 . S
O206 C205 1.227 . S
N207 Co204 2.121 . S
N207 C209 1.375 . S
N207 C210 1.313 . S
C208 C209 1.338 . S
C208 N211 1.377 . S
C208 H228 0.930 . S
C209 N207 1.375 . S
C209 C208 1.338 . S
C209 H213 0.931 . S
C210 N207 1.313 . S
C210 N211 1.344 . S
C210 H214 0.930 . S
N211 C208 1.377 . S
N211 C210 1.344 . S
O212 Co204 2.055 . S
O212 C216 1.253 . S
H213 C209 0.931 . S
H214 C210 0.930 . S
O215 Co204 2.039 . S
O215 C205 1.265 . S
C216 O212 1.253 . S
C216 O217 1.227 . S
O217 C216 1.227 . S
N218 Co204 2.140 . S
N218 C221 1.346 . S
N218 C222 1.345 . S
C219 C220 1.387 . S
C219 C223 1.391 . S
C220 C219 1.387 . S
C220 C221 1.369 . S
C220 H229 0.929 . S
C221 N218 1.346 . S
C221 C220 1.369 . S
C221 H224 0.928 . S
C222 N218 1.345 . S
C222 C223 1.371 . S
C222 H225 0.931 . S
C223 C219 1.391 . S
C223 C222 1.371 . S
C223 H230 0.930 . S
H224 C221 0.928 . S
H225 C222 0.931 . S
H226 C202 0.930 . S
H227 C199 0.930 . S
H228 C208 0.930 . S
H229 C220 0.929 . S
H230 C223 0.930 . S
C231 C232 1.351 . S
C231 N234 1.368 . S
C231 H236 0.931 . S
C232 C231 1.351 . S
C232 N233 1.373 . S
C232 H260 0.930 . S
N233 C232 1.373 . S
N233 C235 1.340 . S
N234 C231 1.368 . S
N234 C235 1.321 . S
N234 Co237 2.135 . S
C235 N233 1.340 . S
C235 N234 1.321 . S
C235 H259 0.930 . S
H236 C231 0.931 . S
Co237 N234 2.135 . S
Co237 N240 2.121 . S
Co237 O245 2.055 . S
Co237 O248 2.039 . S
Co237 N251 2.140 . S
C238 O239 1.227 . S
C238 O248 1.265 . S
O239 C238 1.227 . S
N240 Co237 2.121 . S
N240 C242 1.375 . S
N240 C243 1.313 . S
C241 C242 1.338 . S
C241 N244 1.377 . S
C241 H261 0.930 . S
C242 N240 1.375 . S
C242 C241 1.338 . S
C242 H246 0.931 . S
C243 N240 1.313 . S
C243 N244 1.344 . S
C243 H247 0.930 . S
N244 C241 1.377 . S
N244 C243 1.344 . S
O245 Co237 2.055 . S
O245 C249 1.253 . S
H246 C242 0.931 . S
H247 C243 0.930 . S
O248 Co237 2.039 . S
O248 C238 1.265 . S
C249 O245 1.253 . S
C249 O250 1.227 . S
O250 C249 1.227 . S
N251 Co237 2.140 . S
N251 C254 1.346 . S
N251 C255 1.345 . S
C252 C253 1.387 . S
C252 C256 1.391 . S
C253 C252 1.387 . S
C253 C254 1.369 . S
C253 H262 0.929 . S
C254 N251 1.346 . S
C254 C253 1.369 . S
C254 H257 0.928 . S
C255 N251 1.345 . S
C255 C256 1.371 . S
C255 H258 0.931 . S
C256 C252 1.391 . S
C256 C255 1.371 . S
C256 H263 0.930 . S
H257 C254 0.928 . S
H258 C255 0.931 . S
H259 C235 0.930 . S
H260 C232 0.930 . S
H261 C241 0.930 . S
H262 C253 0.929 . S
H263 C256 0.930 . S
C264 C265 1.351 . S
C264 N267 1.368 . S
C264 H269 0.931 . S
C265 C264 1.351 . S
C265 N266 1.373 . S
C265 H293 0.930 . S
N266 C265 1.373 . S
N266 C268 1.340 . S
N267 C264 1.368 . S
N267 C268 1.321 . S
N267 Co270 2.135 1_545 S
C268 N266 1.340 . S
C268 N267 1.321 . S
C268 H292 0.930 . S
H269 C264 0.931 . S
Co270 N267 2.135 1_565 S
Co270 N273 2.121 . S
Co270 O278 2.055 . S
Co270 O281 2.039 . S
Co270 N284 2.140 . S
C271 O272 1.227 . S
C271 O281 1.265 . S
O272 C271 1.227 . S
N273 Co270 2.121 . S
N273 C275 1.375 . S
N273 C276 1.313 . S
C274 C275 1.338 . S
C274 N277 1.377 . S
C274 H294 0.930 . S
C275 N273 1.375 . S
C275 C274 1.338 . S
C275 H279 0.931 . S
C276 N273 1.313 . S
C276 N277 1.344 . S
C276 H280 0.930 . S
N277 C274 1.377 . S
N277 C276 1.344 . S
O278 Co270 2.055 . S
O278 C282 1.253 . S
H279 C275 0.931 . S
H280 C276 0.930 . S
O281 Co270 2.039 . S
O281 C271 1.265 . S
C282 O278 1.253 . S
C282 O283 1.227 . S
O283 C282 1.227 . S
N284 Co270 2.140 . S
N284 C287 1.346 . S
N284 C288 1.345 . S
C285 C286 1.387 . S
C285 C289 1.391 . S
C286 C285 1.387 . S
C286 C287 1.369 . S
C286 H295 0.929 . S
C287 N284 1.346 . S
C287 C286 1.369 . S
C287 H290 0.928 . S
C288 N284 1.345 . S
C288 C289 1.371 . S
C288 H291 0.931 . S
C289 C285 1.391 . S
C289 C288 1.371 . S
C289 H296 0.930 . S
H290 C287 0.928 . S
H291 C288 0.931 . S
H292 C268 0.930 . S
H293 C265 0.930 . S
H294 C274 0.930 . S
H295 C286 0.929 . S
H296 C289 0.930 . S
C297 C298 1.351 . S
C297 N300 1.368 . S
C297 H302 0.931 . S
C298 C297 1.351 . S
C298 N299 1.373 . S
C298 H326 0.930 . S
N299 C298 1.373 . S
N299 C301 1.340 . S
N300 C297 1.368 . S
N300 C301 1.321 . S
N300 Co303 2.135 . S
C301 N299 1.340 . S
C301 N300 1.321 . S
C301 H325 0.930 . S
H302 C297 0.931 . S
Co303 N300 2.135 . S
Co303 N306 2.121 . S
Co303 O311 2.055 . S
Co303 O314 2.039 . S
Co303 N317 2.140 . S
C304 O305 1.227 . S
C304 O314 1.265 . S
O305 C304 1.227 . S
N306 Co303 2.121 . S
N306 C308 1.375 . S
N306 C309 1.313 . S
C307 C308 1.338 . S
C307 N310 1.377 . S
C307 H327 0.930 . S
C308 N306 1.375 . S
C308 C307 1.338 . S
C308 H312 0.931 . S
C309 N306 1.313 . S
C309 N310 1.344 . S
C309 H313 0.930 . S
N310 C307 1.377 . S
N310 C309 1.344 . S
O311 Co303 2.055 . S
O311 C315 1.253 . S
H312 C308 0.931 . S
H313 C309 0.930 . S
O314 Co303 2.039 . S
O314 C304 1.265 . S
C315 O311 1.253 . S
C315 O316 1.227 . S
O316 C315 1.227 . S
N317 Co303 2.140 . S
N317 C320 1.346 . S
N317 C321 1.345 . S
C318 C319 1.387 . S
C318 C322 1.391 . S
C319 C318 1.387 . S
C319 C320 1.369 . S
C319 H328 0.929 . S
C320 N317 1.346 . S
C320 C319 1.369 . S
C320 H323 0.928 . S
C321 N317 1.345 . S
C321 C322 1.371 . S
C321 H324 0.931 . S
C322 C318 1.391 . S
C322 C321 1.371 . S
C322 H329 0.930 . S
H323 C320 0.928 . S
H324 C321 0.931 . S
H325 C301 0.930 . S
H326 C298 0.930 . S
H327 C307 0.930 . S
H328 C319 0.929 . S
H329 C322 0.930 . S
C330 C331 1.351 . S
C330 N333 1.368 . S
C330 H335 0.931 . S
C331 C330 1.351 . S
C331 N332 1.373 . S
C331 H359 0.930 . S
N332 C331 1.373 . S
N332 C334 1.340 . S
N333 C330 1.368 . S
N333 C334 1.321 . S
N333 Co336 2.135 . S
C334 N332 1.340 . S
C334 N333 1.321 . S
C334 H358 0.930 . S
H335 C330 0.931 . S
Co336 N333 2.135 . S
Co336 N339 2.121 . S
Co336 O344 2.055 . S
Co336 O347 2.039 . S
Co336 N350 2.140 . S
C337 O338 1.227 . S
C337 O347 1.265 . S
O338 C337 1.227 . S
N339 Co336 2.121 . S
N339 C341 1.375 . S
N339 C342 1.313 . S
C340 C341 1.338 . S
C340 N343 1.377 . S
C340 H360 0.930 . S
C341 N339 1.375 . S
C341 C340 1.338 . S
C341 H345 0.931 . S
C342 N339 1.313 . S
C342 N343 1.344 . S
C342 H346 0.930 . S
N343 C340 1.377 . S
N343 C342 1.344 . S
O344 Co336 2.055 . S
O344 C348 1.253 . S
H345 C341 0.931 . S
H346 C342 0.930 . S
O347 Co336 2.039 . S
O347 C337 1.265 . S
C348 O344 1.253 . S
C348 O349 1.227 . S
O349 C348 1.227 . S
N350 Co336 2.140 . S
N350 C353 1.346 . S
N350 C354 1.345 . S
C351 C352 1.387 . S
C351 C355 1.391 . S
C352 C351 1.387 . S
C352 C353 1.369 . S
C352 H361 0.929 . S
C353 N350 1.346 . S
C353 C352 1.369 . S
C353 H356 0.928 . S
C354 N350 1.345 . S
C354 C355 1.371 . S
C354 H357 0.931 . S
C355 C351 1.391 . S
C355 C354 1.371 . S
C355 H362 0.930 . S
H356 C353 0.928 . S
H357 C354 0.931 . S
H358 C334 0.930 . S
H359 C331 0.930 . S
H360 C340 0.930 . S
H361 C352 0.929 . S
H362 C355 0.930 . S
C363 C364 1.351 . S
C363 N366 1.368 . S
C363 H368 0.931 . S
C364 C363 1.351 . S
C364 N365 1.373 . S
C364 H392 0.930 . S
N365 C364 1.373 . S
N365 C367 1.340 . S
N366 C363 1.368 . S
N366 C367 1.321 . S
N366 Co369 2.135 1_455 S
C367 N365 1.340 . S
C367 N366 1.321 . S
C367 H391 0.930 . S
H368 C363 0.931 . S
Co369 N366 2.135 1_655 S
Co369 N372 2.121 . S
Co369 O377 2.055 . S
Co369 O380 2.039 . S
Co369 N383 2.140 . S
C370 O371 1.227 . S
C370 O380 1.265 . S
O371 C370 1.227 . S
N372 Co369 2.121 . S
N372 C374 1.375 . S
N372 C375 1.313 . S
C373 C374 1.338 . S
C373 N376 1.377 . S
C373 H393 0.930 . S
C374 N372 1.375 . S
C374 C373 1.338 . S
C374 H378 0.931 . S
C375 N372 1.313 . S
C375 N376 1.344 . S
C375 H379 0.930 . S
N376 C373 1.377 . S
N376 C375 1.344 . S
O377 Co369 2.055 . S
O377 C381 1.253 . S
H378 C374 0.931 . S
H379 C375 0.930 . S
O380 Co369 2.039 . S
O380 C370 1.265 . S
C381 O377 1.253 . S
C381 O382 1.227 . S
O382 C381 1.227 . S
N383 Co369 2.140 . S
N383 C386 1.346 . S
N383 C387 1.345 . S
C384 C385 1.387 . S
C384 C388 1.391 . S
C385 C384 1.387 . S
C385 C386 1.369 . S
C385 H394 0.929 . S
C386 N383 1.346 . S
C386 C385 1.369 . S
C386 H389 0.928 . S
C387 N383 1.345 . S
C387 C388 1.371 . S
C387 H390 0.931 . S
C388 C384 1.391 . S
C388 C387 1.371 . S
C388 H395 0.930 . S
H389 C386 0.928 . S
H390 C387 0.931 . S
H391 C367 0.930 . S
H392 C364 0.930 . S
H393 C373 0.930 . S
H394 C385 0.929 . S
H395 C388 0.930 . S
C396 C397 1.351 . S
C396 N399 1.368 . S
C396 H401 0.931 . S
C397 C396 1.351 . S
C397 N398 1.373 . S
C397 H425 0.930 . S
N398 C397 1.373 . S
N398 C400 1.340 . S
N399 C396 1.368 . S
N399 C400 1.321 . S
N399 Co402 2.135 . S
C400 N398 1.340 . S
C400 N399 1.321 . S
C400 H424 0.930 . S
H401 C396 0.931 . S
Co402 N399 2.135 . S
Co402 N405 2.121 . S
Co402 O410 2.055 . S
Co402 O413 2.039 . S
Co402 N416 2.140 . S
C403 O404 1.227 . S
C403 O413 1.265 . S
O404 C403 1.227 . S
N405 Co402 2.121 . S
N405 C407 1.375 . S
N405 C408 1.313 . S
C406 C407 1.338 . S
C406 N409 1.377 . S
C406 H426 0.930 . S
C407 N405 1.375 . S
C407 C406 1.338 . S
C407 H411 0.931 . S
C408 N405 1.313 . S
C408 N409 1.344 . S
C408 H412 0.930 . S
N409 C406 1.377 . S
N409 C408 1.344 . S
O410 Co402 2.055 . S
O410 C414 1.253 . S
H411 C407 0.931 . S
H412 C408 0.930 . S
O413 Co402 2.039 . S
O413 C403 1.265 . S
C414 O410 1.253 . S
C414 O415 1.227 . S
O415 C414 1.227 . S
N416 Co402 2.140 . S
N416 C419 1.346 . S
N416 C420 1.345 . S
C417 C418 1.387 . S
C417 C421 1.391 . S
C418 C417 1.387 . S
C418 C419 1.369 . S
C418 H427 0.929 . S
C419 N416 1.346 . S
C419 C418 1.369 . S
C419 H422 0.928 . S
C420 N416 1.345 . S
C420 C421 1.371 . S
C420 H423 0.931 . S
C421 C417 1.391 . S
C421 C420 1.371 . S
C421 H428 0.930 . S
H422 C419 0.928 . S
H423 C420 0.931 . S
H424 C400 0.930 . S
H425 C397 0.930 . S
H426 C406 0.930 . S
H427 C418 0.929 . S
H428 C421 0.930 . S
C429 C430 1.351 . S
C429 N432 1.368 . S
C429 H434 0.931 . S
C430 C429 1.351 . S
C430 N431 1.373 . S
C430 H458 0.930 . S
N431 C430 1.373 . S
N431 C433 1.340 . S
N432 C429 1.368 . S
N432 C433 1.321 . S
N432 Co435 2.135 1_455 S
C433 N431 1.340 . S
C433 N432 1.321 . S
C433 H457 0.930 . S
H434 C429 0.931 . S
Co435 N432 2.135 1_655 S
Co435 N438 2.121 . S
Co435 O443 2.055 . S
Co435 O446 2.039 . S
Co435 N449 2.140 . S
C436 O437 1.227 . S
C436 O446 1.265 . S
O437 C436 1.227 . S
N438 Co435 2.121 . S
N438 C440 1.375 . S
N438 C441 1.313 . S
C439 C440 1.338 . S
C439 N442 1.377 . S
C439 H459 0.930 . S
C440 N438 1.375 . S
C440 C439 1.338 . S
C440 H444 0.931 . S
C441 N438 1.313 . S
C441 N442 1.344 . S
C441 H445 0.930 . S
N442 C439 1.377 . S
N442 C441 1.344 . S
O443 Co435 2.055 . S
O443 C447 1.253 . S
H444 C440 0.931 . S
H445 C441 0.930 . S
O446 Co435 2.039 . S
O446 C436 1.265 . S
C447 O443 1.253 . S
C447 O448 1.227 . S
O448 C447 1.227 . S
N449 Co435 2.140 . S
N449 C452 1.346 . S
N449 C453 1.345 . S
C450 C451 1.387 . S
C450 C454 1.391 . S
C451 C450 1.387 . S
C451 C452 1.369 . S
C451 H460 0.929 . S
C452 N449 1.346 . S
C452 C451 1.369 . S
C452 H455 0.928 . S
C453 N449 1.345 . S
C453 C454 1.371 . S
C453 H456 0.931 . S
C454 C450 1.391 . S
C454 C453 1.371 . S
C454 H461 0.930 . S
H455 C452 0.928 . S
H456 C453 0.931 . S
H457 C433 0.930 . S
H458 C430 0.930 . S
H459 C439 0.930 . S
H460 C451 0.929 . S
H461 C454 0.930 . S
C462 C463 1.351 . S
C462 N465 1.368 . S
C462 H467 0.931 . S
C463 C462 1.351 . S
C463 N464 1.373 . S
C463 H491 0.930 . S
N464 C463 1.373 . S
N464 C466 1.340 . S
N465 C462 1.368 . S
N465 C466 1.321 . S
N465 Co468 2.135 1_545 S
C466 N464 1.340 . S
C466 N465 1.321 . S
C466 H490 0.930 . S
H467 C462 0.931 . S
Co468 N465 2.135 1_565 S
Co468 N471 2.121 . S
Co468 O476 2.055 . S
Co468 O479 2.039 . S
Co468 N482 2.140 . S
C469 O470 1.227 . S
C469 O479 1.265 . S
O470 C469 1.227 . S
N471 Co468 2.121 . S
N471 C473 1.375 . S
N471 C474 1.313 . S
C472 C473 1.338 . S
C472 N475 1.377 . S
C472 H492 0.930 . S
C473 N471 1.375 . S
C473 C472 1.338 . S
C473 H477 0.931 . S
C474 N471 1.313 . S
C474 N475 1.344 . S
C474 H478 0.930 . S
N475 C472 1.377 . S
N475 C474 1.344 . S
O476 Co468 2.055 . S
O476 C480 1.253 . S
H477 C473 0.931 . S
H478 C474 0.930 . S
O479 Co468 2.039 . S
O479 C469 1.265 . S
C480 O476 1.253 . S
C480 O481 1.227 . S
O481 C480 1.227 . S
N482 Co468 2.140 . S
N482 C485 1.346 . S
N482 C486 1.345 . S
C483 C484 1.387 . S
C483 C487 1.391 . S
C484 C483 1.387 . S
C484 C485 1.369 . S
C484 H493 0.929 . S
C485 N482 1.346 . S
C485 C484 1.369 . S
C485 H488 0.928 . S
C486 N482 1.345 . S
C486 C487 1.371 . S
C486 H489 0.931 . S
C487 C483 1.391 . S
C487 C486 1.371 . S
C487 H494 0.930 . S
H488 C485 0.928 . S
H489 C486 0.931 . S
H490 C466 0.930 . S
H491 C463 0.930 . S
H492 C472 0.930 . S
H493 C484 0.929 . S
H494 C487 0.930 . S
C495 C496 1.351 . S
C495 N498 1.368 . S
C495 H500 0.931 . S
C496 C495 1.351 . S
C496 N497 1.373 . S
C496 H524 0.930 . S
N497 C496 1.373 . S
N497 C499 1.340 . S
N498 C495 1.368 . S
N498 C499 1.321 . S
N498 Co501 2.135 . S
C499 N497 1.340 . S
C499 N498 1.321 . S
C499 H523 0.930 . S
H500 C495 0.931 . S
Co501 N498 2.135 . S
Co501 N504 2.121 . S
Co501 O509 2.055 . S
Co501 O512 2.039 . S
Co501 N515 2.140 . S
C502 O503 1.227 . S
C502 O512 1.265 . S
O503 C502 1.227 . S
N504 Co501 2.121 . S
N504 C506 1.375 . S
N504 C507 1.313 . S
C505 C506 1.338 . S
C505 N508 1.377 . S
C505 H525 0.930 . S
C506 N504 1.375 . S
C506 C505 1.338 . S
C506 H510 0.931 . S
C507 N504 1.313 . S
C507 N508 1.344 . S
C507 H511 0.930 . S
N508 C505 1.377 . S
N508 C507 1.344 . S
O509 Co501 2.055 . S
O509 C513 1.253 . S
H510 C506 0.931 . S
H511 C507 0.930 . S
O512 Co501 2.039 . S
O512 C502 1.265 . S
C513 O509 1.253 . S
C513 O514 1.227 . S
O514 C513 1.227 . S
N515 Co501 2.140 . S
N515 C518 1.346 . S
N515 C519 1.345 . S
C516 C517 1.387 . S
C516 C520 1.391 . S
C517 C516 1.387 . S
C517 C518 1.369 . S
C517 H526 0.929 . S
C518 N515 1.346 . S
C518 C517 1.369 . S
C518 H521 0.928 . S
C519 N515 1.345 . S
C519 C520 1.371 . S
C519 H522 0.931 . S
C520 C516 1.391 . S
C520 C519 1.371 . S
C520 H527 0.930 . S
H521 C518 0.928 . S
H522 C519 0.931 . S
H523 C499 0.930 . S
H524 C496 0.930 . S
H525 C505 0.930 . S
H526 C517 0.929 . S
H527 C520 0.930 . S
C528 C529 1.369 . S
C528 C530 1.419 . S
C528 H532 0.930 . S
C529 C528 1.369 . S
C529 C538 1.429 . S
C530 C528 1.419 . S
C530 C531 1.363 . S
C530 H533 0.929 . S
C531 C530 1.363 . S
C531 C537 1.428 . S
H532 C528 0.930 . S
H533 C530 0.929 . S
S534 N535 1.613 . S
S534 N536 1.610 . S
N535 S534 1.613 . S
N535 C538 1.350 . S
N536 S534 1.610 . S
N536 C537 1.351 . S
C537 C531 1.428 . S
C537 N536 1.351 . S
C537 C538 1.434 . S
C538 C529 1.429 . S
C538 N535 1.350 . S
C538 C537 1.434 . S
C539 C540 1.369 . S
C539 C541 1.419 . S
C539 H543 0.930 . S
C540 C539 1.369 . S
C540 C549 1.429 . S
C541 C539 1.419 . S
C541 C542 1.363 . S
C541 H544 0.929 . S
C542 C541 1.363 . S
C542 C548 1.428 . S
H543 C539 0.930 . S
H544 C541 0.929 . S
S545 N546 1.613 . S
S545 N547 1.610 . S
N546 S545 1.613 . S
N546 C549 1.350 . S
N547 S545 1.610 . S
N547 C548 1.351 . S
C548 C542 1.428 . S
C548 N547 1.351 . S
C548 C549 1.434 . S
C549 C540 1.429 . S
C549 N546 1.350 . S
C549 C548 1.434 . S
C550 C551 1.369 . S
C550 C552 1.419 . S
C550 H554 0.930 . S
C551 C550 1.369 . S
C551 C560 1.429 . S
C552 C550 1.419 . S
C552 C553 1.363 . S
C552 H555 0.929 . S
C553 C552 1.363 . S
C553 C559 1.428 . S
H554 C550 0.930 . S
H555 C552 0.929 . S
S556 N557 1.613 . S
S556 N558 1.610 . S
N557 S556 1.613 . S
N557 C560 1.350 . S
N558 S556 1.610 . S
N558 C559 1.351 . S
C559 C553 1.428 . S
C559 N558 1.351 . S
C559 C560 1.434 . S
C560 C551 1.429 . S
C560 N557 1.350 . S
C560 C559 1.434 . S
C561 C562 1.369 . S
C561 C563 1.419 . S
C561 H565 0.930 . S
C562 C561 1.369 . S
C562 C571 1.429 . S
C563 C561 1.419 . S
C563 C564 1.363 . S
C563 H566 0.929 . S
C564 C563 1.363 . S
C564 C570 1.428 . S
H565 C561 0.930 . S
H566 C563 0.929 . S
S567 N568 1.613 . S
S567 N569 1.610 . S
N568 S567 1.613 . S
N568 C571 1.350 . S
N569 S567 1.610 . S
N569 C570 1.351 . S
C570 C564 1.428 . S
C570 N569 1.351 . S
C570 C571 1.434 . S
C571 C562 1.429 . S
C571 N568 1.350 . S
C571 C570 1.434 . S
C572 C573 1.369 . S
C572 C574 1.419 . S
C572 H576 0.930 . S
C573 C572 1.369 . S
C573 C582 1.429 . S
C574 C572 1.419 . S
C574 C575 1.363 . S
C574 H577 0.929 . S
C575 C574 1.363 . S
C575 C581 1.428 . S
H576 C572 0.930 . S
H577 C574 0.929 . S
S578 N579 1.613 . S
S578 N580 1.610 . S
N579 S578 1.613 . S
N579 C582 1.350 . S
N580 S578 1.610 . S
N580 C581 1.351 . S
C581 C575 1.428 . S
C581 N580 1.351 . S
C581 C582 1.434 . S
C582 C573 1.429 . S
C582 N579 1.350 . S
C582 C581 1.434 . S
C583 C584 1.369 . S
C583 C585 1.419 . S
C583 H587 0.930 . S
C584 C583 1.369 . S
C584 C593 1.429 . S
C585 C583 1.419 . S
C585 C586 1.363 . S
C585 H588 0.929 . S
C586 C585 1.363 . S
C586 C592 1.428 . S
H587 C583 0.930 . S
H588 C585 0.929 . S
S589 N590 1.613 . S
S589 N591 1.610 . S
N590 S589 1.613 . S
N590 C593 1.350 . S
N591 S589 1.610 . S
N591 C592 1.351 . S
C592 C586 1.428 . S
C592 N591 1.351 . S
C592 C593 1.434 . S
C593 C584 1.429 . S
C593 N590 1.350 . S
C593 C592 1.434 . S
C594 C595 1.369 . S
C594 C596 1.419 . S
C594 H598 0.930 . S
C595 C594 1.369 . S
C595 C604 1.429 . S
C596 C594 1.419 . S
C596 C597 1.363 . S
C596 H599 0.929 . S
C597 C596 1.363 . S
C597 C603 1.428 . S
H598 C594 0.930 . S
H599 C596 0.929 . S
S600 N601 1.613 . S
S600 N602 1.610 . S
N601 S600 1.613 . S
N601 C604 1.350 . S
N602 S600 1.610 . S
N602 C603 1.351 . S
C603 C597 1.428 . S
C603 N602 1.351 . S
C603 C604 1.434 . S
C604 C595 1.429 . S
C604 N601 1.350 . S
C604 C603 1.434 . S
C605 C606 1.369 . S
C605 C607 1.419 . S
C605 H609 0.930 . S
C606 C605 1.369 . S
C606 C615 1.429 . S
C607 C605 1.419 . S
C607 C608 1.363 . S
C607 H610 0.929 . S
C608 C607 1.363 . S
C608 C614 1.428 . S
H609 C605 0.930 . S
H610 C607 0.929 . S
S611 N612 1.613 . S
S611 N613 1.610 . S
N612 S611 1.613 . S
N612 C615 1.350 . S
N613 S611 1.610 . S
N613 C614 1.351 . S
C614 C608 1.428 . S
C614 N613 1.351 . S
C614 C615 1.434 . S
C615 C606 1.429 . S
C615 N612 1.350 . S
C615 C614 1.434 . S
C616 C617 1.369 . S
C616 C618 1.419 . S
C616 H620 0.930 . S
C617 C616 1.369 . S
C617 C626 1.429 . S
C618 C616 1.419 . S
C618 C619 1.363 . S
C618 H621 0.929 . S
C619 C618 1.363 . S
C619 C625 1.428 . S
H620 C616 0.930 . S
H621 C618 0.929 . S
S622 N623 1.613 . S
S622 N624 1.610 . S
N623 S622 1.613 . S
N623 C626 1.350 . S
N624 S622 1.610 . S
N624 C625 1.351 . S
C625 C619 1.428 . S
C625 N624 1.351 . S
C625 C626 1.434 . S
C626 C617 1.429 . S
C626 N623 1.350 . S
C626 C625 1.434 . S
C627 C628 1.369 . S
C627 C629 1.419 . S
C627 H631 0.930 . S
C628 C627 1.369 . S
C628 C637 1.429 . S
C629 C627 1.419 . S
C629 C630 1.363 . S
C629 H632 0.929 . S
C630 C629 1.363 . S
C630 C636 1.428 . S
H631 C627 0.930 . S
H632 C629 0.929 . S
S633 N634 1.613 . S
S633 N635 1.610 . S
N634 S633 1.613 . S
N634 C637 1.350 . S
N635 S633 1.610 . S
N635 C636 1.351 . S
C636 C630 1.428 . S
C636 N635 1.351 . S
C636 C637 1.434 . S
C637 C628 1.429 . S
C637 N634 1.350 . S
C637 C636 1.434 . S
C638 C639 1.369 . S
C638 C640 1.419 . S
C638 H642 0.930 . S
C639 C638 1.369 . S
C639 C648 1.429 . S
C640 C638 1.419 . S
C640 C641 1.363 . S
C640 H643 0.929 . S
C641 C640 1.363 . S
C641 C647 1.428 . S
H642 C638 0.930 . S
H643 C640 0.929 . S
S644 N645 1.613 . S
S644 N646 1.610 . S
N645 S644 1.613 . S
N645 C648 1.350 . S
N646 S644 1.610 . S
N646 C647 1.351 . S
C647 C641 1.428 . S
C647 N646 1.351 . S
C647 C648 1.434 . S
C648 C639 1.429 . S
C648 N645 1.350 . S
C648 C647 1.434 . S
C649 C650 1.369 . S
C649 C651 1.419 . S
C649 H653 0.930 . S
C650 C649 1.369 . S
C650 C659 1.429 . S
C651 C649 1.419 . S
C651 C652 1.363 . S
C651 H654 0.929 . S
C652 C651 1.363 . S
C652 C658 1.428 . S
H653 C649 0.930 . S
H654 C651 0.929 . S
S655 N656 1.613 . S
S655 N657 1.610 . S
N656 S655 1.613 . S
N656 C659 1.350 . S
N657 S655 1.610 . S
N657 C658 1.351 . S
C658 C652 1.428 . S
C658 N657 1.351 . S
C658 C659 1.434 . S
C659 C650 1.429 . S
C659 N656 1.350 . S
C659 C658 1.434 . S
C660 C661 1.369 . S
C660 C662 1.419 . S
C660 H664 0.930 . S
C661 C660 1.369 . S
C661 C670 1.429 . S
C662 C660 1.419 . S
C662 C663 1.363 . S
C662 H665 0.929 . S
C663 C662 1.363 . S
C663 C669 1.428 . S
H664 C660 0.930 . S
H665 C662 0.929 . S
S666 N667 1.613 . S
S666 N668 1.610 . S
N667 S666 1.613 . S
N667 C670 1.350 . S
N668 S666 1.610 . S
N668 C669 1.351 . S
C669 C663 1.428 . S
C669 N668 1.351 . S
C669 C670 1.434 . S
C670 C661 1.429 . S
C670 N667 1.350 . S
C670 C669 1.434 . S
C671 C672 1.369 . S
C671 C673 1.419 . S
C671 H675 0.930 . S
C672 C671 1.369 . S
C672 C681 1.429 . S
C673 C671 1.419 . S
C673 C674 1.363 . S
C673 H676 0.929 . S
C674 C673 1.363 . S
C674 C680 1.428 . S
H675 C671 0.930 . S
H676 C673 0.929 . S
S677 N678 1.613 . S
S677 N679 1.610 . S
N678 S677 1.613 . S
N678 C681 1.350 . S
N679 S677 1.610 . S
N679 C680 1.351 . S
C680 C674 1.428 . S
C680 N679 1.351 . S
C680 C681 1.434 . S
C681 C672 1.429 . S
C681 N678 1.350 . S
C681 C680 1.434 . S
C682 C683 1.369 . S
C682 C684 1.419 . S
C682 H686 0.930 . S
C683 C682 1.369 . S
C683 C692 1.429 . S
C684 C682 1.419 . S
C684 C685 1.363 . S
C684 H687 0.929 . S
C685 C684 1.363 . S
C685 C691 1.428 . S
H686 C682 0.930 . S
H687 C684 0.929 . S
S688 N689 1.613 . S
S688 N690 1.610 . S
N689 S688 1.613 . S
N689 C692 1.350 . S
N690 S688 1.610 . S
N690 C691 1.351 . S
C691 C685 1.428 . S
C691 N690 1.351 . S
C691 C692 1.434 . S
C692 C683 1.429 . S
C692 N689 1.350 . S
C692 C691 1.434 . S
C693 C694 1.369 . S
C693 C695 1.419 . S
C693 H697 0.930 . S
C694 C693 1.369 . S
C694 C703 1.429 . S
C695 C693 1.419 . S
C695 C696 1.363 . S
C695 H698 0.929 . S
C696 C695 1.363 . S
C696 C702 1.428 . S
H697 C693 0.930 . S
H698 C695 0.929 . S
S699 N700 1.613 . S
S699 N701 1.610 . S
N700 S699 1.613 . S
N700 C703 1.350 . S
N701 S699 1.610 . S
N701 C702 1.351 . S
C702 C696 1.428 . S
C702 N701 1.351 . S
C702 C703 1.434 . S
C703 C694 1.429 . S
C703 N700 1.350 . S
C703 C702 1.434 . S
C704 C705 1.369 . S
C704 C706 1.419 . S
C704 H708 0.930 . S
C705 C704 1.369 . S
C705 C714 1.429 . S
C706 C704 1.419 . S
C706 C707 1.363 . S
C706 H709 0.929 . S
C707 C706 1.363 . S
C707 C713 1.428 . S
H708 C704 0.930 . S
H709 C706 0.929 . S
S710 N711 1.613 . S
S710 N712 1.610 . S
N711 S710 1.613 . S
N711 C714 1.350 . S
N712 S710 1.610 . S
N712 C713 1.351 . S
C713 C707 1.428 . S
C713 N712 1.351 . S
C713 C714 1.434 . S
C714 C705 1.429 . S
C714 N711 1.350 . S
C714 C713 1.434 . S
C715 C716 1.369 . S
C715 C717 1.419 . S
C715 H719 0.930 . S
C716 C715 1.369 . S
C716 C725 1.429 . S
C717 C715 1.419 . S
C717 C718 1.363 . S
C717 H720 0.929 . S
C718 C717 1.363 . S
C718 C724 1.428 . S
H719 C715 0.930 . S
H720 C717 0.929 . S
S721 N722 1.613 . S
S721 N723 1.610 . S
N722 S721 1.613 . S
N722 C725 1.350 . S
N723 S721 1.610 . S
N723 C724 1.351 . S
C724 C718 1.428 . S
C724 N723 1.351 . S
C724 C725 1.434 . S
C725 C716 1.429 . S
C725 N722 1.350 . S
C725 C724 1.434 . S
C726 C727 1.369 . S
C726 C728 1.419 . S
C726 H730 0.930 . S
C727 C726 1.369 . S
C727 C736 1.429 . S
C728 C726 1.419 . S
C728 C729 1.363 . S
C728 H731 0.929 . S
C729 C728 1.363 . S
C729 C735 1.428 . S
H730 C726 0.930 . S
H731 C728 0.929 . S
S732 N733 1.613 . S
S732 N734 1.610 . S
N733 S732 1.613 . S
N733 C736 1.350 . S
N734 S732 1.610 . S
N734 C735 1.351 . S
C735 C729 1.428 . S
C735 N734 1.351 . S
C735 C736 1.434 . S
C736 C727 1.429 . S
C736 N733 1.350 . S
C736 C735 1.434 . S
C737 C738 1.369 . S
C737 C739 1.419 . S
C737 H741 0.930 . S
C738 C737 1.369 . S
C738 C747 1.429 . S
C739 C737 1.419 . S
C739 C740 1.363 . S
C739 H742 0.929 . S
C740 C739 1.363 . S
C740 C746 1.428 . S
H741 C737 0.930 . S
H742 C739 0.929 . S
S743 N744 1.613 . S
S743 N745 1.610 . S
N744 S743 1.613 . S
N744 C747 1.350 . S
N745 S743 1.610 . S
N745 C746 1.351 . S
C746 C740 1.428 . S
C746 N745 1.351 . S
C746 C747 1.434 . S
C747 C738 1.429 . S
C747 N744 1.350 . S
C747 C746 1.434 . S
C748 C749 1.369 . S
C748 C750 1.419 . S
C748 H752 0.930 . S
C749 C748 1.369 . S
C749 C758 1.429 . S
C750 C748 1.419 . S
C750 C751 1.363 . S
C750 H753 0.929 . S
C751 C750 1.363 . S
C751 C757 1.428 . S
H752 C748 0.930 . S
H753 C750 0.929 . S
S754 N755 1.613 . S
S754 N756 1.610 . S
N755 S754 1.613 . S
N755 C758 1.350 . S
N756 S754 1.610 . S
N756 C757 1.351 . S
C757 C751 1.428 . S
C757 N756 1.351 . S
C757 C758 1.434 . S
C758 C749 1.429 . S
C758 N755 1.350 . S
C758 C757 1.434 . S
C759 C760 1.369 . S
C759 C761 1.419 . S
C759 H763 0.930 . S
C760 C759 1.369 . S
C760 C769 1.429 . S
C761 C759 1.419 . S
C761 C762 1.363 . S
C761 H764 0.929 . S
C762 C761 1.363 . S
C762 C768 1.428 . S
H763 C759 0.930 . S
H764 C761 0.929 . S
S765 N766 1.613 . S
S765 N767 1.610 . S
N766 S765 1.613 . S
N766 C769 1.350 . S
N767 S765 1.610 . S
N767 C768 1.351 . S
C768 C762 1.428 . S
C768 N767 1.351 . S
C768 C769 1.434 . S
C769 C760 1.429 . S
C769 N766 1.350 . S
C769 C768 1.434 . S
C770 C771 1.369 . S
C770 C772 1.419 . S
C770 H774 0.930 . S
C771 C770 1.369 . S
C771 C780 1.429 . S
C772 C770 1.419 . S
C772 C773 1.363 . S
C772 H775 0.929 . S
C773 C772 1.363 . S
C773 C779 1.428 . S
H774 C770 0.930 . S
H775 C772 0.929 . S
S776 N777 1.613 . S
S776 N778 1.610 . S
N777 S776 1.613 . S
N777 C780 1.350 . S
N778 S776 1.610 . S
N778 C779 1.351 . S
C779 C773 1.428 . S
C779 N778 1.351 . S
C779 C780 1.434 . S
C780 C771 1.429 . S
C780 N777 1.350 . S
C780 C779 1.434 . S
C781 C782 1.369 . S
C781 C783 1.419 . S
C781 H785 0.930 . S
C782 C781 1.369 . S
C782 C791 1.429 . S
C783 C781 1.419 . S
C783 C784 1.363 . S
C783 H786 0.929 . S
C784 C783 1.363 . S
C784 C790 1.428 . S
H785 C781 0.930 . S
H786 C783 0.929 . S
S787 N788 1.613 . S
S787 N789 1.610 . S
N788 S787 1.613 . S
N788 C791 1.350 . S
N789 S787 1.610 . S
N789 C790 1.351 . S
C790 C784 1.428 . S
C790 N789 1.351 . S
C790 C791 1.434 . S
C791 C782 1.429 . S
C791 N788 1.350 . S
C791 C790 1.434 . S
C792 C793 1.369 . S
C792 C794 1.419 . S
C792 H796 0.930 . S
C793 C792 1.369 . S
C793 C802 1.429 . S
C794 C792 1.419 . S
C794 C795 1.363 . S
C794 H797 0.929 . S
C795 C794 1.363 . S
C795 C801 1.428 . S
H796 C792 0.930 . S
H797 C794 0.929 . S
S798 N799 1.613 . S
S798 N800 1.610 . S
N799 S798 1.613 . S
N799 C802 1.350 . S
N800 S798 1.610 . S
N800 C801 1.351 . S
C801 C795 1.428 . S
C801 N800 1.351 . S
C801 C802 1.434 . S
C802 C793 1.429 . S
C802 N799 1.350 . S
C802 C801 1.434 . S
C803 C804 1.369 . S
C803 C805 1.419 . S
C803 H807 0.930 . S
C804 C803 1.369 . S
C804 C813 1.429 . S
C805 C803 1.419 . S
C805 C806 1.363 . S
C805 H808 0.929 . S
C806 C805 1.363 . S
C806 C812 1.428 . S
H807 C803 0.930 . S
H808 C805 0.929 . S
S809 N810 1.613 . S
S809 N811 1.610 . S
N810 S809 1.613 . S
N810 C813 1.350 . S
N811 S809 1.610 . S
N811 C812 1.351 . S
C812 C806 1.428 . S
C812 N811 1.351 . S
C812 C813 1.434 . S
C813 C804 1.429 . S
C813 N810 1.350 . S
C813 C812 1.434 . S
C814 C815 1.369 . S
C814 C816 1.419 . S
C814 H818 0.930 . S
C815 C814 1.369 . S
C815 C824 1.429 . S
C816 C814 1.419 . S
C816 C817 1.363 . S
C816 H819 0.929 . S
C817 C816 1.363 . S
C817 C823 1.428 . S
H818 C814 0.930 . S
H819 C816 0.929 . S
S820 N821 1.613 . S
S820 N822 1.610 . S
N821 S820 1.613 . S
N821 C824 1.350 . S
N822 S820 1.610 . S
N822 C823 1.351 . S
C823 C817 1.428 . S
C823 N822 1.351 . S
C823 C824 1.434 . S
C824 C815 1.429 . S
C824 N821 1.350 . S
C824 C823 1.434 . S
C825 C826 1.369 . S
C825 C827 1.419 . S
C825 H829 0.930 . S
C826 C825 1.369 . S
C826 C835 1.429 . S
C827 C825 1.419 . S
C827 C828 1.363 . S
C827 H830 0.929 . S
C828 C827 1.363 . S
C828 C834 1.428 . S
H829 C825 0.930 . S
H830 C827 0.929 . S
S831 N832 1.613 . S
S831 N833 1.610 . S
N832 S831 1.613 . S
N832 C835 1.350 . S
N833 S831 1.610 . S
N833 C834 1.351 . S
C834 C828 1.428 . S
C834 N833 1.351 . S
C834 C835 1.434 . S
C835 C826 1.429 . S
C835 N832 1.350 . S
C835 C834 1.434 . S
C836 C837 1.369 . S
C836 C838 1.419 . S
C836 H840 0.930 . S
C837 C836 1.369 . S
C837 C846 1.429 . S
C838 C836 1.419 . S
C838 C839 1.363 . S
C838 H841 0.929 . S
C839 C838 1.363 . S
C839 C845 1.428 . S
H840 C836 0.930 . S
H841 C838 0.929 . S
S842 N843 1.613 . S
S842 N844 1.610 . S
N843 S842 1.613 . S
N843 C846 1.350 . S
N844 S842 1.610 . S
N844 C845 1.351 . S
C845 C839 1.428 . S
C845 N844 1.351 . S
C845 C846 1.434 . S
C846 C837 1.429 . S
C846 N843 1.350 . S
C846 C845 1.434 . S
C847 C848 1.369 . S
C847 C849 1.419 . S
C847 H851 0.930 . S
C848 C847 1.369 . S
C848 C857 1.429 . S
C849 C847 1.419 . S
C849 C850 1.363 . S
C849 H852 0.929 . S
C850 C849 1.363 . S
C850 C856 1.428 . S
H851 C847 0.930 . S
H852 C849 0.929 . S
S853 N854 1.613 . S
S853 N855 1.610 . S
N854 S853 1.613 . S
N854 C857 1.350 . S
N855 S853 1.610 . S
N855 C856 1.351 . S
C856 C850 1.428 . S
C856 N855 1.351 . S
C856 C857 1.434 . S
C857 C848 1.429 . S
C857 N854 1.350 . S
C857 C856 1.434 . S
C858 C859 1.369 . S
C858 C860 1.419 . S
C858 H862 0.930 . S
C859 C858 1.369 . S
C859 C868 1.429 . S
C860 C858 1.419 . S
C860 C861 1.363 . S
C860 H863 0.929 . S
C861 C860 1.363 . S
C861 C867 1.428 . S
H862 C858 0.930 . S
H863 C860 0.929 . S
S864 N865 1.613 . S
S864 N866 1.610 . S
N865 S864 1.613 . S
N865 C868 1.350 . S
N866 S864 1.610 . S
N866 C867 1.351 . S
C867 C861 1.428 . S
C867 N866 1.351 . S
C867 C868 1.434 . S
C868 C859 1.429 . S
C868 N865 1.350 . S
C868 C867 1.434 . S
C869 C870 1.369 . S
C869 C871 1.419 . S
C869 H873 0.930 . S
C870 C869 1.369 . S
C870 C879 1.429 . S
C871 C869 1.419 . S
C871 C872 1.363 . S
C871 H874 0.929 . S
C872 C871 1.363 . S
C872 C878 1.428 . S
H873 C869 0.930 . S
H874 C871 0.929 . S
S875 N876 1.613 . S
S875 N877 1.610 . S
N876 S875 1.613 . S
N876 C879 1.350 . S
N877 S875 1.610 . S
N877 C878 1.351 . S
C878 C872 1.428 . S
C878 N877 1.351 . S
C878 C879 1.434 . S
C879 C870 1.429 . S
C879 N876 1.350 . S
C879 C878 1.434 . S
C880 C881 1.369 . S
C880 C882 1.419 1_556 S
C880 H884 0.930 . S
C881 C880 1.369 . S
C881 C890 1.429 . S
C882 C880 1.419 1_554 S
C882 C883 1.363 . S
C882 H885 0.929 . S
C883 C882 1.363 . S
C883 C889 1.428 . S
H884 C880 0.930 . S
H885 C882 0.929 . S
S886 N887 1.613 1_554 S
S886 N888 1.610 . S
N887 S886 1.613 1_556 S
N887 C890 1.350 1_565 S
N888 S886 1.610 . S
N888 C889 1.351 1_565 S
C889 C883 1.428 . S
C889 N888 1.351 1_545 S
C889 C890 1.434 1_554 S
C890 C881 1.429 . S
C890 N887 1.350 1_545 S
C890 C889 1.434 1_556 S
C891 C892 1.369 . S
C891 C893 1.419 . S
C891 H895 0.930 . S
C892 C891 1.369 . S
C892 C901 1.429 . S
C893 C891 1.419 . S
C893 C894 1.363 . S
C893 H896 0.929 . S
C894 C893 1.363 . S
C894 C900 1.428 . S
H895 C891 0.930 . S
H896 C893 0.929 . S
S897 N898 1.613 . S
S897 N899 1.610 . S
N898 S897 1.613 . S
N898 C901 1.350 . S
N899 S897 1.610 . S
N899 C900 1.351 . S
C900 C894 1.428 . S
C900 N899 1.351 . S
C900 C901 1.434 . S
C901 C892 1.429 . S
C901 N898 1.350 . S
C901 C900 1.434 . S
C902 C903 1.369 . S
C902 C904 1.419 1_554 S
C902 H906 0.930 . S
C903 C902 1.369 . S
C903 C912 1.429 . S
C904 C902 1.419 1_556 S
C904 C905 1.363 . S
C904 H907 0.929 . S
C905 C904 1.363 . S
C905 C911 1.428 . S
H906 C902 0.930 . S
H907 C904 0.929 . S
S908 N909 1.613 1_556 S
S908 N910 1.610 . S
N909 S908 1.613 1_554 S
N909 C912 1.350 . S
N910 S908 1.610 . S
N910 C911 1.351 . S
C911 C905 1.428 . S
C911 N910 1.351 . S
C911 C912 1.434 1_556 S
C912 C903 1.429 . S
C912 N909 1.350 . S
C912 C911 1.434 1_554 S
C913 C914 1.369 . S
C913 C915 1.419 . S
C913 H917 0.930 . S
C914 C913 1.369 . S
C914 C923 1.429 . S
C915 C913 1.419 . S
C915 C916 1.363 . S
C915 H918 0.929 . S
C916 C915 1.363 . S
C916 C922 1.428 . S
H917 C913 0.930 . S
H918 C915 0.929 . S
S919 N920 1.613 . S
S919 N921 1.610 . S
N920 S919 1.613 . S
N920 C923 1.350 1_655 S
N921 S919 1.610 . S
N921 C922 1.351 1_655 S
C922 C916 1.428 . S
C922 N921 1.351 1_455 S
C922 C923 1.434 . S
C923 C914 1.429 . S
C923 N920 1.350 1_455 S
C923 C922 1.434 . S
C924 C925 1.369 . S
C924 C926 1.419 1_554 S
C924 H928 0.930 . S
C925 C924 1.369 . S
C925 C934 1.429 . S
C926 C924 1.419 1_556 S
C926 C927 1.363 . S
C926 H929 0.929 . S
C927 C926 1.363 . S
C927 C933 1.428 . S
H928 C924 0.930 . S
H929 C926 0.929 . S
S930 N931 1.613 1_545 S
S930 N932 1.610 1_544 S
N931 S930 1.613 1_565 S
N931 C934 1.350 . S
N932 S930 1.610 1_566 S
N932 C933 1.351 . S
C933 C927 1.428 . S
C933 N932 1.351 . S
C933 C934 1.434 1_556 S
C934 C925 1.429 . S
C934 N931 1.350 . S
C934 C933 1.434 1_554 S
C935 C936 1.369 . S
C935 C937 1.419 . S
C935 H939 0.930 . S
C936 C935 1.369 . S
C936 C945 1.429 . S
C937 C935 1.419 . S
C937 C938 1.363 . S
C937 H940 0.929 . S
C938 C937 1.363 . S
C938 C944 1.428 . S
H939 C935 0.930 . S
H940 C937 0.929 . S
S941 N942 1.613 . S
S941 N943 1.610 . S
N942 S941 1.613 . S
N942 C945 1.350 . S
N943 S941 1.610 . S
N943 C944 1.351 . S
C944 C938 1.428 . S
C944 N943 1.351 . S
C944 C945 1.434 . S
C945 C936 1.429 . S
C945 N942 1.350 . S
C945 C944 1.434 . S
C946 C947 1.369 . S
C946 C948 1.419 1_554 S
C946 H950 0.930 . S
C947 C946 1.369 . S
C947 C956 1.429 . S
C948 C946 1.419 1_556 S
C948 C949 1.363 . S
C948 H951 0.929 . S
C949 C948 1.363 . S
C949 C955 1.428 . S
H950 C946 0.930 . S
H951 C948 0.929 . S
S952 N953 1.613 . S
S952 N954 1.610 1_554 S
N953 S952 1.613 . S
N953 C956 1.350 . S
N954 S952 1.610 1_556 S
N954 C955 1.351 . S
C955 C949 1.428 . S
C955 N954 1.351 . S
C955 C956 1.434 1_556 S
C956 C947 1.429 . S
C956 N953 1.350 . S
C956 C955 1.434 1_554 S
C957 C958 1.369 . S
C957 C959 1.419 . S
C957 H961 0.930 . S
C958 C957 1.369 . S
C958 C967 1.429 . S
C959 C957 1.419 . S
C959 C960 1.363 . S
C959 H962 0.929 . S
C960 C959 1.363 . S
C960 C966 1.428 . S
H961 C957 0.930 . S
H962 C959 0.929 . S
S963 N964 1.613 . S
S963 N965 1.610 . S
N964 S963 1.613 . S
N964 C967 1.350 . S
N965 S963 1.610 . S
N965 C966 1.351 . S
C966 C960 1.428 . S
C966 N965 1.351 . S
C966 C967 1.434 . S
C967 C958 1.429 . S
C967 N964 1.350 . S
C967 C966 1.434 . S
C529 N2 1.997 . S
C531 N233 1.997 . S
C540 N134 1.997 . S
C542 N35 1.997 . S
C551 N167 1.997 . S
C553 N68 1.998 . S
C562 N101 1.997 . S
C564 N200 1.998 . S
C573 N266 1.997 . S
C575 N497 1.997 . S
C584 N299 1.998 . S
C586 N398 1.998 . S
C595 N431 1.997 . S
C597 N332 1.997 . S
C606 N365 1.997 . S
C608 N464 1.997 . S
C617 C7 1.293 . S
C619 C318 1.129 . S
C628 C351 1.130 . S
C630 C40 1.293 . S
C639 C384 1.140 . S
C641 C73 1.294 . S
C650 C285 1.140 . S
C652 C106 1.295 . S
C661 C516 1.136 . S
C663 C139 1.295 . S
C672 C417 1.127 . S
C674 C172 1.293 . S
C683 C450 1.137 . S
C685 C205 1.295 . S
C694 C483 1.126 . S
C696 C238 1.294 . S
C705 C54 1.124 . S
C707 C271 1.294 . S
C716 C87 1.128 . S
C718 C304 1.295 . S
C727 C120 1.139 . S
C729 C337 1.295 . S
C738 C370 1.294 . S
C740 C21 1.138 . S
C749 C252 1.139 . S
C751 C403 1.295 . S
C760 C153 1.128 . S
C762 C436 1.293 . S
C771 C186 1.135 . S
C773 C469 1.294 . S
C782 C219 1.140 . S
C784 C502 1.294 . S
C793 N79 1.098 . S
C795 N13 1.104 . S
C804 N46 1.098 . S
C806 N112 1.104 . S
C815 N211 1.090 . S
C817 N145 1.100 . S
C826 N244 1.093 . S
C828 N178 1.103 . S
C837 N343 1.099 . S
C839 N277 1.089 . S
C848 N376 1.086 . S
C850 N310 1.094 . S
C859 N409 1.088 . S
C861 N475 1.091 . S
C870 N508 1.087 . S
C872 N442 1.099 . S
C881 C216 1.352 . S
C883 C18 1.350 . S
C892 C249 1.349 . S
C894 C51 1.347 . S
C903 C84 1.353 . S
C905 C150 1.348 . S
C914 C183 1.346 . S
C916 C117 1.352 . S
C925 C480 1.348 . S
C927 C282 1.352 . S
C936 C513 1.346 . S
C938 C315 1.351 . S
C947 C414 1.346 . S
C949 C348 1.349 . S
C958 C381 1.346 . S
C960 C447 1.351 . S
