# Generated by pormake.
# Topology nbo, (4)-cn, num edge types: 1
# Building blocks:
#     Node 0, Type 0, BuildingBlock: KOZSID_clean_sbu_0, # of connection points: 4
#     Node 1, Type 0, BuildingBlock: KOZSID_clean_sbu_0, # of connection points: 4
#     Node 2, Type 0, BuildingBlock: KOZSID_clean_sbu_0, # of connection points: 4
#     Node 3, Type 0, BuildingBlock: KOZSID_clean_sbu_0, # of connection points: 4
#     Node 4, Type 0, BuildingBlock: KOZSID_clean_sbu_0, # of connection points: 4
#     Node 5, Type 0, BuildingBlock: KOZSID_clean_sbu_0, # of connection points: 4
#     Edge 6, Type (0, 0), BuildingBlock: CIFDUS_clean_linker_0, # of connection points: 2
#     Edge 7, Type (0, 0), BuildingBlock: CIFDUS_clean_linker_0, # of connection points: 2
#     Edge 8, Type (0, 0), BuildingBlock: CIFDUS_clean_linker_0, # of connection points: 2
#     Edge 9, Type (0, 0), BuildingBlock: CIFDUS_clean_linker_0, # of connection points: 2
#     Edge 10, Type (0, 0), BuildingBlock: CIFDUS_clean_linker_0, # of connection points: 2
#     Edge 11, Type (0, 0), BuildingBlock: CIFDUS_clean_linker_0, # of connection points: 2
#     Edge 12, Type (0, 0), BuildingBlock: CIFDUS_clean_linker_0, # of connection points: 2
#     Edge 13, Type (0, 0), BuildingBlock: CIFDUS_clean_linker_0, # of connection points: 2
#     Edge 14, Type (0, 0), BuildingBlock: CIFDUS_clean_linker_0, # of connection points: 2
#     Edge 15, Type (0, 0), BuildingBlock: CIFDUS_clean_linker_0, # of connection points: 2
#     Edge 16, Type (0, 0), BuildingBlock: CIFDUS_clean_linker_0, # of connection points: 2
#     Edge 17, Type (0, 0), BuildingBlock: CIFDUS_clean_linker_0, # of connection points: 2
# Relax obj value: 0.000
# Max RMSD: 0.000
# Mean RMSD: 0.000
data_MOF--net-nbo--node1-KOZSID_clean_sbu_0--edge1-CIFDUS_clean_linker_0
_symmetry_space_group_name_H-M    P1
_symmetry_Int_Tables_number       1
_symmetry_cell_setting            triclinic
loop_
_symmetry_equiv_pos_as_xyz
'x, y, z'
_cell_length_a     29.641433
_cell_length_b     35.320732
_cell_length_c     32.571722
_cell_angle_alpha  106.37475
_cell_angle_beta   107.41985
_cell_angle_gamma 106.91354
loop_
_atom_site_label
_atom_site_type_symbol
_atom_site_fract_x
_atom_site_fract_y
_atom_site_fract_z
_atom_type_partial_charge
C0 C 0.88978 0.98109 0.46598 0.0
C1 C 0.84511 0.95744 0.4244 0.0
C2 C 0.86074 0.94925 0.38875 0.0
C3 C 0.91378 0.96786 0.41044 0.0
N4 N 0.93314 0.98698 0.45788 0.0
Co5 Co 0.00821 0.0174 0.50291 0.0
N6 N 0.0311 1.00571 0.45013 0.0
C7 C 1.00019 0.98528 0.40351 0.0
C8 C 0.02634 0.97868 0.37583 0.0
C9 C 0.07697 0.99513 0.40653 0.0
C10 C 0.07891 1.01132 0.45147 0.0
N11 N 0.08321 0.04795 0.54786 0.0
C12 C 0.12615 0.05101 0.53977 0.0
C13 C 0.17112 0.07517 0.58097 0.0
C14 C 0.15598 0.08648 0.61657 0.0
C15 C 0.1029 0.06897 0.59514 0.0
N16 N 0.98546 0.02873 0.5558 0.0
C17 C 0.01658 0.05016 0.6024 0.0
C18 C 0.99028 0.055 0.63024 0.0
C19 C 0.93928 0.03579 0.59975 0.0
C20 C 0.93724 0.01981 0.55472 0.0
N21 N 0.00835 0.96204 0.50656 0.0
C22 C 0.01472 0.88491 0.51213 0.0
C23 C 0.03338 0.92253 0.55267 0.0
C24 C 0.03019 0.96031 0.54912 0.0
C25 C 0.99175 0.88663 0.46869 0.0
C26 C 0.98857 0.92497 0.46676 0.0
N27 N 0.00821 0.07305 0.49943 0.0
C28 C 0.02281 0.14772 0.53857 0.0
C29 C 1.00235 0.15061 0.49566 0.0
C30 C 0.98612 0.11448 0.45449 0.0
C31 C 0.98891 0.07616 0.45713 0.0
C32 C 0.026 0.10932 0.53965 0.0
H33 H 0.9745 0.04937 0.4245 0.0
H34 H 0.04256 0.10986 0.57364 0.0
H35 H 0.04613 0.98788 0.58137 0.0
H36 H 0.97058 0.92405 0.43262 0.0
C37 C 0.94635 0.96832 0.38716 0.0
C38 C 0.88884 0.99811 0.51203 0.0
C39 C 0.12619 0.0291 0.49447 0.0
C40 C 0.07052 0.06841 0.61869 0.0
H41 H 0.80527 0.94748 0.42014 0.0
H42 H 0.83633 0.93208 0.35142 0.0
H43 H 0.01018 0.96185 0.33796 0.0
H44 H 0.10826 0.99364 0.39659 0.0
H45 H 0.21069 0.08255 0.58498 0.0
H46 H 0.18064 0.10393 0.65383 0.0
H47 H 0.00637 0.07183 0.66811 0.0
H48 H 0.90749 0.03485 0.60978 0.0
H49 H 0.05038 0.92309 0.58736 0.0
H50 H 0.97706 0.85884 0.436 0.0
H51 H 0.03651 0.17517 0.5714 0.0
H52 H 0.96993 0.11535 0.42039 0.0
C53 C 0.56552 0.05439 0.12554 0.0
C54 C 0.61438 0.07111 0.162 0.0
C55 C 0.64953 0.07894 0.14307 0.0
C56 C 0.62051 0.066 0.0962 0.0
N57 N 0.56882 0.05068 0.0839 0.0
Co58 Co 0.51312 0.02259 0.01812 0.0
N59 N 0.56528 0.03361 0.99033 0.0
C60 C 0.61742 0.05373 0.01422 0.0
C61 C 0.64325 0.05982 0.9865 0.0
C62 C 0.60532 0.0433 0.94221 0.0
C63 C 0.55832 0.02766 0.94544 0.0
N64 N 0.45751 0.99321 0.95233 0.0
C65 C 0.46074 0.9896 0.91078 0.0
C66 C 0.41245 0.96615 0.87313 0.0
C67 C 0.37735 0.95538 0.89161 0.0
C68 C 0.40609 0.97252 0.93927 0.0
N69 N 0.46083 0.01329 0.04587 0.0
C70 C 0.40864 0.9949 0.0219 0.0
C71 C 0.38251 0.99527 0.05018 0.0
C72 C 0.4202 0.01463 0.09494 0.0
C73 C 0.46745 0.02428 0.09139 0.0
N74 N 0.51055 0.07913 0.02183 0.0
C75 C 0.5062 0.15855 0.02429 0.0
C76 C 0.46099 0.12095 0.00538 0.0
C77 C 0.464 0.08189 0.00405 0.0
C78 C 0.55375 0.15582 0.0421 0.0
C79 C 0.55503 0.11618 0.04109 0.0
N80 N 0.51564 0.96576 0.01449 0.0
C81 C 0.47505 0.893 0.00897 0.0
C82 C 0.52115 0.8872 0.01638 0.0
C83 C 0.56402 0.9213 0.02151 0.0
C84 C 0.56056 0.95983 0.02075 0.0
C85 C 0.47301 0.93178 0.0076 0.0
H86 H 0.59507 0.9844 0.02569 0.0
H87 H 0.43648 0.93352 1.00153 0.0
H88 H 0.4281 0.05424 0.98811 0.0
H89 H 0.59238 0.11617 0.05597 0.0
C90 C 0.64076 0.0672 0.06285 0.0
C91 C 0.5172 0.04159 0.13201 0.0
C92 C 0.50813 1.00913 0.90536 0.0
C93 C 0.38545 0.97516 0.97277 0.0
H94 H 0.62407 0.07642 0.19847 0.0
H95 H 0.69129 0.09167 0.16118 0.0
H96 H 0.68467 0.07533 0.99738 0.0
H97 H 0.61172 0.04364 0.9113 0.0
H98 H 0.40344 0.95867 0.83626 0.0
H99 H 0.33561 0.93874 0.87272 0.0
H100 H 0.34098 0.98228 0.0395 0.0
H101 H 0.41347 0.02013 0.12655 0.0
H102 H 0.42329 0.12151 0.99085 0.0
H103 H 0.58978 0.1843 0.05746 0.0
H104 H 0.44057 0.86814 0.00517 0.0
H105 H 0.60044 0.9185 0.02604 0.0
C106 C 0.1166 0.54862 0.02732 0.0
C107 C 0.16034 0.58747 0.05034 0.0
C108 C 0.14328 0.61963 0.05792 0.0
C109 C 0.0904 0.59869 0.03964 0.0
N110 N 0.07267 0.55505 0.02158 0.0
Co111 Co 0.9989 0.51202 0.99301 0.0
N112 N 0.97357 0.55919 1.00021 0.0
C113 C 1.00226 0.60212 0.01637 0.0
C114 C 0.97333 0.62592 0.01231 0.0
C115 C 0.92323 0.59657 0.99373 0.0
C116 C 0.92468 0.55657 0.98874 0.0
N117 N 0.92484 0.46915 0.96521 0.0
C118 C 0.88207 0.47596 0.96555 0.0
C119 C 0.84039 0.43715 0.95151 0.0
C120 C 0.85672 0.40497 0.94029 0.0
C121 C 0.90762 0.42557 0.94931 0.0
N122 N 0.02456 0.46477 0.98522 0.0
C123 C 0.99545 0.42168 0.96654 0.0
C124 C 0.02304 0.39696 0.9617 0.0
C125 C 0.07278 0.42588 0.97754 0.0
C126 C 0.07275 0.46688 0.99174 0.0
N127 N 1.00413 0.51546 0.05639 0.0
C128 C 1.00372 0.51941 0.14413 0.0
C129 C 0.98649 0.47978 0.10681 0.0
C130 C 0.9873 0.47858 0.06386 0.0
C131 C 0.02227 0.55715 0.13699 0.0
C132 C 0.02216 0.55446 0.09325 0.0
N133 N 0.99342 0.50851 0.92946 0.0
C134 C 0.97262 0.46653 0.84818 0.0
C135 C 0.9879 0.50393 0.8394 0.0
C136 C 0.00566 0.54363 0.87725 0.0
C137 C 0.00946 0.54516 0.92151 0.0
C138 C 0.9744 0.46951 0.89244 0.0
H139 H 0.0258 0.57657 0.94875 0.0
H140 H 0.96064 0.4397 0.89587 0.0
H141 H 0.97318 0.44729 0.03701 0.0
H142 H 0.03626 0.58434 0.08993 0.0
C143 C 0.05633 0.61901 0.03551 0.0
C144 C 0.11855 0.50673 0.00858 0.0
C145 C 0.88019 0.51867 0.97983 0.0
C146 C 0.94169 0.40538 0.95039 0.0
H147 H 0.20035 0.59206 0.05936 0.0
H148 H 0.16652 0.65415 0.07349 0.0
H149 H 0.98706 0.66053 0.02247 0.0
H150 H 0.88959 0.60415 0.98687 0.0
H151 H 0.8026 0.43187 0.95126 0.0
H152 H 0.83505 0.37082 0.93002 0.0
H153 H 0.00837 0.36201 0.94658 0.0
H154 H 0.10477 0.41727 0.97699 0.0
H155 H 0.97115 0.44952 0.11014 0.0
H156 H 0.03694 0.58874 0.16501 0.0
H157 H 0.95964 0.43463 0.82159 0.0
H158 H 0.0168 0.57405 0.87363 0.0
C159 C 0.57236 0.5209 0.95279 0.0
C160 C 0.57181 0.51714 0.90897 0.0
C161 C 0.52095 0.49885 0.87791 0.0
C162 C 0.49357 0.4937 0.90465 0.0
N163 N 0.52392 0.50845 0.9509 0.0
Co164 Co 0.50081 0.51421 0.00306 0.0
N165 N 0.42622 0.48217 0.95745 0.0
C166 C 0.40769 0.46267 0.91008 0.0
C167 C 0.35488 0.44026 0.88817 0.0
C168 C 0.33873 0.44589 0.92366 0.0
C169 C 0.38278 0.47205 0.9653 0.0
N170 N 0.4774 0.52278 0.05538 0.0
C171 C 0.42902 0.51285 0.05385 0.0
C172 C 0.43046 0.52947 0.09858 0.0
C173 C 0.48137 0.55005 0.12934 0.0
C174 C 0.50804 0.54547 0.10183 0.0
N175 N 0.57578 0.54319 0.04839 0.0
C176 C 0.59431 0.55829 0.0958 0.0
C177 C 0.64548 0.56675 0.11755 0.0
C178 C 0.66059 0.5558 0.08196 0.0
C179 C 0.61795 0.5426 0.04013 0.0
N180 N 0.49955 0.57048 0.00314 0.0
C181 C 0.49551 0.64965 0.00247 0.0
C182 C 0.52747 0.64799 0.04292 0.0
C183 C 0.52908 0.60851 0.04243 0.0
C184 C 0.46628 0.61085 0.96236 0.0
C185 C 0.46849 0.5722 0.96356 0.0
N186 N 0.50214 0.45813 0.00287 0.0
C187 C 0.51624 0.41258 0.0444 0.0
C188 C 0.50922 0.38023 0.00364 0.0
C189 C 0.49779 0.38728 0.96231 0.0
C190 C 0.49388 0.42591 0.96255 0.0
C191 C 0.51299 0.45108 0.04337 0.0
H192 H 0.48445 0.42913 0.92971 0.0
H193 H 0.52005 0.47492 0.07597 0.0
H194 H 0.55425 0.60952 0.07437 0.0
H195 H 0.44447 0.5441 0.93179 0.0
C196 C 0.44008 0.47049 0.88709 0.0
C197 C 0.61831 0.52946 0.99318 0.0
C198 C 0.38104 0.48869 0.01096 0.0
C199 C 0.56161 0.55996 0.11862 0.0
H200 H 0.60465 0.52428 0.89987 0.0
H201 H 0.50581 0.48866 0.84012 0.0
H202 H 0.33084 0.42312 0.85077 0.0
H203 H 0.29888 0.43321 0.91929 0.0
H204 H 0.39833 0.52749 0.10834 0.0
H205 H 0.49707 0.56646 0.16723 0.0
H206 H 0.6683 0.57712 0.1547 0.0
H207 H 0.69833 0.55599 0.08717 0.0
H208 H 0.55063 0.67683 0.07521 0.0
H209 H 0.44176 0.61005 0.92963 0.0
H210 H 0.52551 0.40866 0.07732 0.0
H211 H 0.49141 0.36289 0.92972 0.0
C212 C 0.05643 0.54345 0.60117 0.0
C213 C 0.10496 0.56074 0.63829 0.0
C214 C 0.14077 0.57037 0.62043 0.0
C215 C 0.11247 0.55785 0.57351 0.0
N216 N 0.06056 0.54095 0.56014 0.0
Co217 Co 0.00563 0.51348 0.49406 0.0
N218 N 0.05893 0.52531 0.4677 0.0
C219 C 0.11101 0.54568 0.49222 0.0
C220 C 0.13764 0.55084 0.46493 0.0
C221 C 0.10037 0.53308 0.42018 0.0
C222 C 0.05296 0.51787 0.42283 0.0
N223 N 0.95071 0.48526 0.42793 0.0
C224 C 0.95502 0.48097 0.38671 0.0
C225 C 0.90699 0.45901 0.34861 0.0
C226 C 0.87095 0.4495 0.36639 0.0
C227 C 0.89891 0.46597 0.41409 0.0
N228 N 0.95231 0.50249 0.52052 0.0
C229 C 0.90016 0.48396 0.49606 0.0
C230 C 0.87342 0.48264 0.52374 0.0
C231 C 0.91062 0.50092 0.56861 0.0
C232 C 0.9582 0.5118 0.56568 0.0
N233 N 1.00316 0.57037 0.49883 0.0
C234 C 0.99844 0.64903 0.49708 0.0
C235 C 0.95344 0.61186 0.48141 0.0
C236 C 0.95663 0.57338 0.48224 0.0
C237 C 0.04607 0.64634 0.51555 0.0
C238 C 0.04751 0.60721 0.51655 0.0
N239 N 0.00792 0.45643 0.48889 0.0
C240 C 0.9645 0.38068 0.47262 0.0
C241 C 0.01107 0.37567 0.48222 0.0
C242 C 0.05605 0.41176 0.49514 0.0
C243 C 0.0537 0.45152 0.49861 0.0
C244 C 0.96372 0.42082 0.47572 0.0
H245 H 0.08954 0.47783 0.50943 0.0
H246 H 0.92679 0.42213 0.46724 0.0
H247 H 0.92072 0.54633 0.46858 0.0
H248 H 0.08495 0.60733 0.53108 0.0
C249 C 0.13368 0.55968 0.54092 0.0
C250 C 0.00766 0.52927 0.60652 0.0
C251 C 1.00344 0.49768 0.38192 0.0
C252 C 0.87747 0.46676 0.44693 0.0
H253 H 0.11402 0.56525 0.67449 0.0
H254 H 0.18252 0.58378 0.63919 0.0
H255 H 0.17917 0.56612 0.47629 0.0
H256 H 0.10734 0.53194 0.38917 0.0
H257 H 0.89886 0.45122 0.31182 0.0
H258 H 0.82924 0.4334 0.34695 0.0
H259 H 0.83182 0.46949 0.51259 0.0
H260 H 0.90333 0.50517 0.59987 0.0
H261 H 0.91543 0.61211 0.46822 0.0
H262 H 0.08231 0.67389 0.5282 0.0
H263 H 0.92853 0.35353 0.46203 0.0
H264 H 0.09318 0.40957 0.50339 0.0
C265 C 0.62212 0.04785 0.53867 0.0
C266 C 0.66662 0.08582 0.56637 0.0
C267 C 0.6515 0.11597 0.58813 0.0
C268 C 0.59889 0.09474 0.57272 0.0
N269 N 0.58004 0.05323 0.54267 0.0
Co270 Co 0.50678 1.01088 0.51293 0.0
N271 N 0.4819 0.05766 0.52535 0.0
C272 C 0.51122 0.09887 0.55701 0.0
C273 C 0.48355 0.12377 0.5603 0.0
C274 C 0.43351 0.09647 0.52932 0.0
C275 C 0.43339 0.05616 0.50855 0.0
N276 N 0.43337 0.9683 0.4828 0.0
C277 C 0.38897 0.97414 0.46821 0.0
C278 C 0.3459 0.93493 0.44752 0.0
C279 C 0.36403 0.90395 0.45099 0.0
C280 C 0.41697 0.92567 0.47293 0.0
N281 N 0.53235 0.96441 0.50157 0.0
C282 C 0.5055 0.92247 0.49116 0.0
C283 C 0.53225 0.89758 0.48236 0.0
C284 C 0.57882 0.92562 0.48773 0.0
C285 C 0.5782 0.96639 0.50019 0.0
N286 N 0.51174 1.00941 0.57399 0.0
C287 C 0.51705 1.00453 0.65998 0.0
C288 C 0.55755 1.00473 0.64602 0.0
C289 C 0.55417 1.00721 0.6031 0.0
C290 C 0.47414 1.00731 0.62998 0.0
C291 C 0.47225 1.00972 0.58743 0.0
N292 N 0.50164 1.01202 0.45178 0.0
C293 C 0.48262 0.97368 0.3705 0.0
C294 C 0.49645 1.01237 0.36376 0.0
C295 C 0.51304 0.05105 0.40296 0.0
C296 C 0.51622 0.05021 0.44656 0.0
C297 C 0.4842 0.97414 0.4139 0.0
H298 H 0.53048 0.08054 0.47607 0.0
H299 H 0.47184 0.94356 0.41678 0.0
H300 H 0.58585 1.00706 0.59334 0.0
H301 H 0.43837 1.01136 0.56523 0.0
C302 C 0.56516 0.11407 0.57911 0.0
C303 C 0.62171 1.00661 0.51181 0.0
C304 C 0.38586 0.01642 0.47822 0.0
C305 C 0.45222 0.90646 0.47916 0.0
H306 H 0.70589 0.09109 0.57063 0.0
H307 H 0.67569 0.14971 0.61101 0.0
H308 H 0.49804 0.15779 0.58227 0.0
H309 H 0.40076 0.10515 0.52398 0.0
H310 H 0.30549 0.92938 0.43243 0.0
H311 H 0.34132 0.86956 0.43805 0.0
H312 H 0.51828 0.86277 0.4703 0.0
H313 H 0.60895 0.91656 0.48199 0.0
H314 H 0.59188 1.00324 0.66819 0.0
H315 H 0.44152 1.0067 0.63874 0.0
H316 H 0.47111 0.94271 0.34287 0.0
H317 H 0.52337 0.08204 0.40051 0.0
H318 H 0.04066 0.20048 0.45324 0.0
H319 H 0.95232 0.19112 0.53648 0.0
H320 H 0.94562 0.25897 0.53843 0.0
H321 H 0.96696 0.32218 0.51841 0.0
H322 H 0.05938 0.33401 0.43888 0.0
H323 H 0.06278 0.26446 0.43375 0.0
C324 C 0.01963 0.21326 0.47141 0.0
C325 C 0.99682 0.19084 0.49452 0.0
C326 C 0.01701 0.25292 0.47334 0.0
C327 C 0.97026 0.20792 0.51854 0.0
C328 C 0.96643 0.24669 0.51966 0.0
C329 C 0.9875 0.30934 0.49967 0.0
C330 C 0.01275 0.33319 0.47895 0.0
C331 C 0.98995 0.26964 0.49749 0.0
C332 C 0.03992 0.31643 0.4554 0.0
C333 C 0.0417 0.27658 0.4523 0.0
H334 H 0.82442 0.03265 0.47539 0.0
H335 H 0.84086 0.95475 0.55489 0.0
H336 H 0.76024 0.9511 0.56288 0.0
H337 H 0.68648 0.97206 0.54905 0.0
H338 H 0.66487 0.04324 0.46239 0.0
H339 H 0.74639 0.04811 0.45562 0.0
C340 C 0.80997 0.01467 0.49415 0.0
C341 C 0.8387 0.99456 0.51521 0.0
C342 C 0.76284 1.0116 0.49725 0.0
C343 C 0.81963 0.97101 0.53909 0.0
C344 C 0.77358 0.96884 0.54351 0.0
C345 C 0.69892 0.98752 0.52757 0.0
C346 C 0.66922 1.00633 0.5052 0.0
C347 C 0.74496 0.98914 0.52288 0.0
C348 C 0.68688 0.02798 0.47924 0.0
C349 C 0.73341 0.03082 0.47548 0.0
H350 H 0.06483 0.73386 0.55613 0.0
H351 H 0.9248 0.65612 0.42833 0.0
H352 H 0.91665 0.72117 0.42277 0.0
H353 H 0.94823 0.80015 0.45413 0.0
H354 H 0.0929 0.87822 0.57728 0.0
H355 H 0.09985 0.81315 0.58431 0.0
C356 C 0.03284 0.73093 0.52664 0.0
C357 C 0.99515 0.68958 0.49319 0.0
C358 C 0.02889 0.76874 0.52278 0.0
C359 C 0.95377 0.68709 0.45558 0.0
C360 C 0.94923 0.72445 0.452 0.0
C361 C 0.98179 0.80321 0.48218 0.0
C362 C 0.0196 0.84459 0.51533 0.0
C363 C 0.98643 0.76547 0.48547 0.0
C364 C 0.06228 0.8472 0.55177 0.0
C365 C 0.06665 0.80983 0.55566 0.0
H366 H 0.32312 0.98696 0.51822 0.0
H367 H 0.33688 0.05344 0.42726 0.0
H368 H 0.25822 0.06449 0.42489 0.0
H369 H 0.18744 0.05738 0.45161 0.0
H370 H 0.1696 0.98442 0.53611 0.0
H371 H 0.24819 0.9738 0.5385 0.0
C372 C 0.30811 1.00296 0.497 0.0
C373 C 0.33513 0.01894 0.47244 0.0
C374 C 0.26256 1.00833 0.49513 0.0
C375 C 0.31619 0.04054 0.44598 0.0
C376 C 0.27149 0.04698 0.44485 0.0
C377 C 0.20032 0.03845 0.4697 0.0
C378 C 0.17272 0.02136 0.49334 0.0
C379 C 0.24457 0.03129 0.4696 0.0
C380 C 0.19034 0.99777 0.51764 0.0
C381 C 0.2351 0.99164 0.51892 0.0
H382 H 0.54857 0.07865 0.34288 0.0
H383 H 0.43625 0.94522 0.27538 0.0
H384 H 0.4369 0.94193 0.20057 0.0
H385 H 0.46902 0.97609 0.15294 0.0
H386 H 0.5663 0.11257 0.21623 0.0
H387 H 0.57093 0.11548 0.29352 0.0
C388 C 0.52322 0.04888 0.31211 0.0
C389 C 0.49373 1.01191 0.3165 0.0
C390 C 0.52106 0.04763 0.26784 0.0
C391 C 0.46169 0.97393 0.27494 0.0
C392 C 0.46124 0.97199 0.23138 0.0
C393 C 0.49085 1.00655 0.18363 0.0
C394 C 0.51823 0.04385 0.17901 0.0
C395 C 0.49102 1.00849 0.22742 0.0
C396 C 0.5459 0.08317 0.21903 0.0
C397 C 0.54827 0.08488 0.26316 0.0
H398 H 0.02381 0.46795 0.18942 0.0
H399 H 0.97795 0.57454 0.20132 0.0
H400 H 0.97283 0.57666 0.2753 0.0
H401 H 0.98136 0.54809 0.33701 0.0
H402 H 0.0251 0.44072 0.32399 0.0
H403 H 0.02981 0.43817 0.24939 0.0
C404 C 0.01211 0.49136 0.20783 0.0
C405 C 1.0014 0.52109 0.18967 0.0
C406 C 0.00848 0.49199 0.25001 0.0
C407 C 0.98728 0.55171 0.21471 0.0
C408 C 0.98387 0.55272 0.25687 0.0
C409 C 0.99145 0.52402 0.31739 0.0
C410 C 1.00273 0.49451 0.33533 0.0
C411 C 0.99435 0.52302 0.27484 0.0
C412 C 0.01612 0.46351 0.3103 0.0
C413 C 0.01898 0.46222 0.26792 0.0
H414 H 0.48508 0.04609 0.72266 0.0
H415 H 0.55315 0.95384 0.69858 0.0
H416 H 0.55594 0.94675 0.77162 0.0
H417 H 0.53862 0.96642 0.84265 0.0
H418 H 0.47045 0.05822 0.86658 0.0
H419 H 0.4669 0.06508 0.79292 0.0
C420 C 0.50012 0.02412 0.7331 0.0
C421 C 0.519 1.00065 0.70496 0.0
C422 C 0.5013 0.01994 0.77512 0.0
C423 C 0.53908 0.97287 0.7197 0.0
C424 C 0.54034 0.96851 0.76137 0.0
C425 C 0.52305 0.98788 0.83153 0.0
C426 C 0.50505 1.012 0.85984 0.0
C427 C 0.5216 0.99188 0.78939 0.0
C428 C 0.48457 0.03948 0.8452 0.0
C429 C 0.48268 0.04344 0.80323 0.0
H430 H 0.96146 0.4636 0.62815 0.0
H431 H 0.05377 0.601 0.68914 0.0
H432 H 0.05912 0.60473 0.76672 0.0
H433 H 0.03949 0.56863 0.81656 0.0
H434 H 0.93062 0.43404 0.7521 0.0
H435 H 0.93109 0.4296 0.67691 0.0
C436 C 0.9823 0.4944 0.65844 0.0
C437 C 0.00824 0.53181 0.65326 0.0
C438 C 0.98277 0.49673 0.70237 0.0
C439 C 0.03455 0.57161 0.69256 0.0
C440 C 0.0374 0.57375 0.7368 0.0
C441 C 0.01442 0.53833 0.7865 0.0
C442 C 0.98577 0.50165 0.79183 0.0
C443 C 0.01176 0.53643 0.74212 0.0
C444 C 0.95502 0.46282 0.75101 0.0
C445 C 0.95448 0.46019 0.70721 0.0
H446 H 0.18109 0.47235 0.04894 0.0
H447 H 0.16208 0.53866 0.95662 0.0
H448 H 0.24235 0.53959 0.94964 0.0
H449 H 0.31848 0.52239 0.97101 0.0
H450 H 0.33187 0.44809 0.0551 0.0
H451 H 0.2525 0.44847 0.06358 0.0
C452 C 0.19424 0.48629 0.02671 0.0
C453 C 0.16598 0.5052 0.0031 0.0
C454 C 0.23913 0.48518 0.02146 0.0
C455 C 0.18353 0.52393 0.97502 0.0
C456 C 0.22918 0.52437 0.97097 0.0
C457 C 0.30351 0.50592 0.99071 0.0
C458 C 0.33095 0.48587 0.01311 0.0
C459 C 0.25731 0.50518 0.99412 0.0
C460 C 0.3114 0.46425 0.03825 0.0
C461 C 0.26622 0.46447 0.04304 0.0
H462 H 0.4653 0.32737 0.04064 0.0
H463 H 0.56511 0.34223 0.96815 0.0
H464 H 0.57488 0.27611 0.96974 0.0
H465 H 0.55431 0.21334 0.99119 0.0
H466 H 0.45071 0.19661 0.0598 0.0
H467 H 0.44337 0.26404 0.06061 0.0
C468 C 0.48937 0.31619 0.02541 0.0
C469 C 0.51453 0.33973 0.0044 0.0
C470 C 0.49417 0.27776 0.02583 0.0
C471 C 0.54504 0.32453 0.98422 0.0
C472 C 0.55081 0.28682 0.9853 0.0
C473 C 0.53046 0.22473 0.00658 0.0
C474 C 0.5033 0.2002 0.02564 0.0
C475 C 0.52552 0.2631 0.00596 0.0
C476 C 0.47188 0.21491 0.04484 0.0
C477 C 0.46771 0.25346 0.04534 0.0
H478 H 0.77582 0.47547 0.92249 0.0
H479 H 0.88527 0.57813 0.05758 0.0
H480 H 0.8152 0.59599 0.06931 0.0
H481 H 0.72253 0.58238 0.03941 0.0
H482 H 0.61293 0.45901 0.92644 0.0
H483 H 0.68294 0.44841 0.90686 0.0
C484 C 0.78441 0.50011 0.95582 0.0
C485 C 0.83598 0.52523 0.98906 0.0
C486 C 0.74363 0.50654 0.96558 0.0
C487 C 0.84603 0.55869 0.03087 0.0
C488 C 0.80603 0.56878 0.03781 0.0
C489 C 0.71386 0.55185 0.01234 0.0
C490 C 0.6623 0.52147 0.98488 0.0
C491 C 0.7546 0.54278 0.00534 0.0
C492 C 0.65216 0.48344 0.94781 0.0
C493 C 0.69214 0.4771 0.9368 0.0
H494 H 0.57239 0.73242 0.04885 0.0
H495 H 0.41013 0.66061 0.9545 0.0
H496 H 0.40448 0.72645 0.94906 0.0
H497 H 0.44526 0.80419 0.96978 0.0
H498 H 0.60521 0.87759 0.07005 0.0
H499 H 0.61172 0.81145 0.07396 0.0
C500 C 0.53553 0.73108 0.02757 0.0
C501 C 0.49202 0.69099 1.00163 0.0
C502 C 0.53205 0.76949 0.02526 0.0
C503 C 0.44483 0.69042 0.97394 0.0
C504 C 0.44134 0.72828 0.97105 0.0
C505 C 0.48146 0.80614 0.99315 0.0
C506 C 0.52471 0.84637 0.01924 0.0
C507 C 0.48472 0.76799 0.99634 0.0
C508 C 0.5714 0.84735 0.04852 0.0
C509 C 0.57512 0.80943 0.05122 0.0
loop_
_geom_bond_atom_site_label_1
_geom_bond_atom_site_label_2
_geom_bond_distance
_geom_bond_site_symmetry_2
_ccdc_geom_bond_type
C0 C1 1.443 . S
C0 N4 1.376 . S
C0 C38 1.389 . S
C1 C0 1.443 . S
C1 C2 1.340 . S
C1 H41 0.951 . S
C2 C1 1.340 . S
C2 C3 1.439 . S
C2 H42 0.950 . S
C3 C2 1.439 . S
C3 N4 1.374 . S
C3 C37 1.395 . S
N4 C0 1.376 . S
N4 C3 1.374 . S
N4 Co5 1.996 1_665 S
Co5 N4 1.996 1_445 S
Co5 N6 2.007 1_545 S
Co5 N11 2.020 . S
Co5 N16 1.983 1_455 S
Co5 N21 2.286 1_445 S
Co5 N27 2.279 . S
N6 Co5 2.007 1_565 S
N6 C7 1.377 . S
N6 C10 1.383 . S
C7 N6 1.377 . S
C7 C8 1.450 . S
C7 C37 1.387 1_455 S
C8 C7 1.450 . S
C8 C9 1.339 . S
C8 H43 0.949 . S
C9 C8 1.339 . S
C9 C10 1.439 . S
C9 H44 0.950 . S
C10 N6 1.383 . S
C10 C9 1.439 . S
C10 C39 1.392 1_565 S
N11 Co5 2.020 . S
N11 C12 1.376 . S
N11 C15 1.374 . S
C12 N11 1.376 . S
C12 C13 1.443 . S
C12 C39 1.389 . S
C13 C12 1.443 . S
C13 C14 1.340 . S
C13 H45 0.951 . S
C14 C13 1.340 . S
C14 C15 1.439 . S
C14 H46 0.950 . S
C15 N11 1.374 . S
C15 C14 1.439 . S
C15 C40 1.395 . S
N16 Co5 1.983 1_655 S
N16 C17 1.376 1_655 S
N16 C20 1.383 . S
C17 N16 1.376 1_455 S
C17 C18 1.446 1_455 S
C17 C40 1.391 . S
C18 C17 1.446 1_655 S
C18 C19 1.339 . S
C18 H47 0.949 . S
C19 C18 1.339 . S
C19 C20 1.439 . S
C19 H48 0.950 . S
C20 N16 1.383 . S
C20 C19 1.439 . S
C20 C38 1.392 1_545 S
N21 Co5 2.286 1_665 S
N21 C24 1.332 1_655 S
N21 C26 1.332 . S
C22 C23 1.392 1_655 S
C22 C25 1.388 . S
C23 C22 1.392 1_455 S
C23 C24 1.382 . S
C23 H49 0.950 . S
C24 N21 1.332 1_455 S
C24 C23 1.382 . S
C24 H35 0.951 . S
C25 C22 1.388 . S
C25 C26 1.382 . S
C25 H50 0.950 . S
C26 N21 1.332 . S
C26 C25 1.382 . S
C26 H36 0.948 . S
N27 Co5 2.279 . S
N27 C31 1.332 . S
N27 C32 1.332 . S
C28 C29 1.388 . S
C28 C32 1.382 . S
C28 H51 0.950 . S
C29 C28 1.388 . S
C29 C30 1.386 1_455 S
C30 C29 1.386 1_655 S
C30 C31 1.382 1_655 S
C30 H52 0.950 . S
C31 N27 1.332 . S
C31 C30 1.382 1_455 S
C31 H33 0.952 1_455 S
C32 N27 1.332 . S
C32 C28 1.382 . S
C32 H34 0.948 . S
H33 C31 0.952 1_655 S
H34 C32 0.948 . S
H35 C24 0.951 . S
H36 C26 0.948 . S
C37 C3 1.395 . S
C37 C7 1.387 1_655 S
C38 C0 1.389 . S
C38 C20 1.392 1_565 S
C39 C10 1.392 1_545 S
C39 C12 1.389 . S
C40 C15 1.395 . S
C40 C17 1.391 . S
H41 C1 0.951 . S
H42 C2 0.950 . S
H43 C8 0.949 . S
H44 C9 0.950 . S
H45 C13 0.951 . S
H46 C14 0.950 . S
H47 C18 0.949 . S
H48 C19 0.950 . S
H49 C23 0.950 . S
H50 C25 0.950 . S
H51 C28 0.950 . S
H52 C30 0.950 . S
C53 C54 1.443 . S
C53 N57 1.376 . S
C53 C91 1.389 . S
C54 C53 1.443 . S
C54 C55 1.340 . S
C54 H94 0.951 . S
C55 C54 1.340 . S
C55 C56 1.439 . S
C55 H95 0.950 . S
C56 C55 1.439 . S
C56 N57 1.374 . S
C56 C90 1.395 . S
N57 C53 1.376 . S
N57 C56 1.374 . S
N57 Co58 2.008 . S
Co58 N57 2.008 . S
Co58 N59 1.995 1_554 S
Co58 N64 2.008 1_544 S
Co58 N69 1.995 1_545 S
Co58 N74 2.282 . S
Co58 N80 2.282 1_544 S
N59 Co58 1.995 1_556 S
N59 C60 1.376 1_556 S
N59 C63 1.383 . S
C60 N59 1.376 1_554 S
C60 C61 1.446 1_554 S
C60 C90 1.391 . S
C61 C60 1.446 1_556 S
C61 C62 1.339 . S
C61 H96 0.949 . S
C62 C61 1.339 . S
C62 C63 1.439 . S
C62 H97 0.950 . S
C63 N59 1.383 . S
C63 C62 1.439 . S
C63 C92 1.392 1_545 S
N64 Co58 2.008 1_566 S
N64 C65 1.376 . S
N64 C68 1.374 . S
C65 N64 1.376 . S
C65 C66 1.443 . S
C65 C92 1.389 . S
C66 C65 1.443 . S
C66 C67 1.340 . S
C66 H98 0.951 . S
C67 C66 1.340 . S
C67 C68 1.439 . S
C67 H99 0.950 . S
C68 N64 1.374 . S
C68 C67 1.439 . S
C68 C93 1.395 . S
N69 Co58 1.995 1_565 S
N69 C70 1.378 . S
N69 C73 1.383 . S
C70 N69 1.378 . S
C70 C71 1.461 . S
C70 C93 1.376 1_554 S
C71 C70 1.461 . S
C71 C72 1.339 . S
C71 H100 0.949 . S
C72 C71 1.339 . S
C72 C73 1.439 . S
C72 H101 0.950 . S
C73 N69 1.383 . S
C73 C72 1.439 . S
C73 C91 1.392 1_565 S
N74 Co58 2.282 . S
N74 C77 1.332 . S
N74 C79 1.332 . S
C75 C76 1.386 1_554 S
C75 C78 1.388 . S
C76 C75 1.386 1_556 S
C76 C77 1.382 1_556 S
C76 H102 0.950 . S
C77 N74 1.332 . S
C77 C76 1.382 1_554 S
C77 H88 0.952 1_554 S
C78 C75 1.388 . S
C78 C79 1.382 . S
C78 H103 0.950 . S
C79 N74 1.332 . S
C79 C78 1.382 . S
C79 H89 0.948 . S
N80 Co58 2.282 1_566 S
N80 C84 1.332 1_556 S
N80 C85 1.332 . S
C81 C82 1.388 . S
C81 C85 1.382 . S
C81 H104 0.950 . S
C82 C81 1.388 . S
C82 C83 1.387 1_556 S
C83 C82 1.387 1_554 S
C83 C84 1.386 . S
C83 H105 0.950 . S
C84 N80 1.332 1_554 S
C84 C83 1.386 . S
C84 H86 0.946 . S
C85 N80 1.332 . S
C85 C81 1.382 . S
C85 H87 0.948 . S
H86 C84 0.946 . S
H87 C85 0.948 . S
H88 C77 0.952 1_556 S
H89 C79 0.948 . S
C90 C56 1.395 . S
C90 C60 1.391 . S
C91 C53 1.389 . S
C91 C73 1.392 1_545 S
C92 C63 1.392 1_565 S
C92 C65 1.389 . S
C93 C68 1.395 . S
C93 C70 1.376 1_556 S
H94 C54 0.951 . S
H95 C55 0.950 . S
H96 C61 0.949 . S
H97 C62 0.950 . S
H98 C66 0.951 . S
H99 C67 0.950 . S
H100 C71 0.949 . S
H101 C72 0.950 . S
H102 C76 0.950 . S
H103 C78 0.950 . S
H104 C81 0.950 . S
H105 C83 0.950 . S
C106 C107 1.443 . S
C106 N110 1.376 . S
C106 C144 1.389 . S
C107 C106 1.443 . S
C107 C108 1.340 . S
C107 H147 0.951 . S
C108 C107 1.340 . S
C108 C109 1.439 . S
C108 H148 0.950 . S
C109 C108 1.439 . S
C109 N110 1.374 . S
C109 C143 1.395 . S
N110 C106 1.376 . S
N110 C109 1.374 . S
N110 Co111 2.020 . S
Co111 N110 2.020 . S
Co111 N112 1.983 1_455 S
Co111 N117 1.996 1_454 S
Co111 N122 2.007 1_554 S
Co111 N127 2.279 . S
Co111 N133 2.286 1_454 S
N112 Co111 1.983 1_655 S
N112 C113 1.376 1_655 S
N112 C116 1.383 . S
C113 N112 1.376 1_455 S
C113 C114 1.446 1_455 S
C113 C143 1.391 . S
C114 C113 1.446 1_655 S
C114 C115 1.339 . S
C114 H149 0.949 . S
C115 C114 1.339 . S
C115 C116 1.439 . S
C115 H150 0.950 . S
C116 N112 1.383 . S
C116 C115 1.439 . S
C116 C145 1.396 1_554 S
N117 Co111 1.996 1_656 S
N117 C118 1.376 . S
N117 C121 1.374 . S
C118 N117 1.376 . S
C118 C119 1.443 . S
C118 C145 1.390 . S
C119 C118 1.443 . S
C119 C120 1.340 . S
C119 H151 0.951 . S
C120 C119 1.340 . S
C120 C121 1.439 . S
C120 H152 0.950 . S
C121 N117 1.374 . S
C121 C120 1.439 . S
C121 C146 1.395 . S
N122 Co111 2.007 1_556 S
N122 C123 1.377 . S
N122 C126 1.383 . S
C123 N122 1.377 . S
C123 C124 1.450 . S
C123 C146 1.387 1_455 S
C124 C123 1.450 . S
C124 C125 1.339 . S
C124 H153 0.949 . S
C125 C124 1.339 . S
C125 C126 1.439 . S
C125 H154 0.950 . S
C126 N122 1.383 . S
C126 C125 1.439 . S
C126 C144 1.392 1_556 S
N127 Co111 2.279 . S
N127 C130 1.332 . S
N127 C132 1.332 . S
C128 C129 1.386 1_455 S
C128 C131 1.388 . S
C129 C128 1.386 1_655 S
C129 C130 1.382 1_655 S
C129 H155 0.950 . S
C130 N127 1.332 . S
C130 C129 1.382 1_455 S
C130 H141 0.952 1_455 S
C131 C128 1.388 . S
C131 C132 1.382 . S
C131 H156 0.950 . S
C132 N127 1.332 . S
C132 C131 1.382 . S
C132 H142 0.948 . S
N133 Co111 2.286 1_656 S
N133 C137 1.332 1_655 S
N133 C138 1.332 . S
C134 C135 1.388 . S
C134 C138 1.382 . S
C134 H157 0.950 . S
C135 C134 1.388 . S
C135 C136 1.392 1_655 S
C136 C135 1.392 1_455 S
C136 C137 1.382 . S
C136 H158 0.950 . S
C137 N133 1.332 1_455 S
C137 C136 1.382 . S
C137 H139 0.951 . S
C138 N133 1.332 . S
C138 C134 1.382 . S
C138 H140 0.948 . S
H139 C137 0.951 . S
H140 C138 0.948 . S
H141 C130 0.952 1_655 S
H142 C132 0.948 . S
C143 C109 1.395 . S
C143 C113 1.391 . S
C144 C106 1.389 . S
C144 C126 1.392 1_554 S
C145 C116 1.396 1_556 S
C145 C118 1.390 . S
C146 C121 1.395 . S
C146 C123 1.387 1_655 S
H147 C107 0.951 . S
H148 C108 0.950 . S
H149 C114 0.949 . S
H150 C115 0.950 . S
H151 C119 0.951 . S
H152 C120 0.950 . S
H153 C124 0.949 . S
H154 C125 0.950 . S
H155 C129 0.950 . S
H156 C131 0.950 . S
H157 C134 0.950 . S
H158 C136 0.950 . S
C159 C160 1.443 . S
C159 N163 1.376 . S
C159 C197 1.382 1_556 S
C160 C159 1.443 . S
C160 C161 1.340 . S
C160 H200 0.951 . S
C161 C160 1.340 . S
C161 C162 1.439 . S
C161 H201 0.950 . S
C162 C161 1.439 . S
C162 N163 1.374 . S
C162 C196 1.395 . S
N163 C159 1.376 . S
N163 C162 1.374 . S
N163 Co164 2.008 1_556 S
Co164 N163 2.008 1_554 S
Co164 N165 1.995 1_554 S
Co164 N170 2.008 . S
Co164 N175 1.995 . S
Co164 N180 2.282 1_554 S
Co164 N186 2.282 . S
N165 Co164 1.995 1_556 S
N165 C166 1.376 . S
N165 C169 1.383 . S
C166 N165 1.376 . S
C166 C167 1.446 . S
C166 C196 1.391 . S
C167 C166 1.446 . S
C167 C168 1.339 . S
C167 H202 0.949 . S
C168 C167 1.339 . S
C168 C169 1.439 . S
C168 H203 0.950 . S
C169 N165 1.383 . S
C169 C168 1.439 . S
C169 C198 1.392 1_556 S
N170 Co164 2.008 . S
N170 C171 1.376 . S
N170 C174 1.374 . S
C171 N170 1.376 . S
C171 C172 1.443 . S
C171 C198 1.389 . S
C172 C171 1.443 . S
C172 C173 1.340 . S
C172 H204 0.951 . S
C173 C172 1.340 . S
C173 C174 1.439 . S
C173 H205 0.950 . S
C174 N170 1.374 . S
C174 C173 1.439 . S
C174 C199 1.395 . S
N175 Co164 1.995 . S
N175 C176 1.376 . S
N175 C179 1.383 . S
C176 N175 1.376 . S
C176 C177 1.446 . S
C176 C199 1.391 . S
C177 C176 1.446 . S
C177 C178 1.339 . S
C177 H206 0.949 . S
C178 C177 1.339 . S
C178 C179 1.439 . S
C178 H207 0.950 . S
C179 N175 1.383 . S
C179 C178 1.439 . S
C179 C197 1.402 . S
N180 Co164 2.282 1_556 S
N180 C183 1.332 1_556 S
N180 C185 1.332 . S
C181 C182 1.397 . S
C181 C184 1.381 1_554 S
C182 C181 1.397 . S
C182 C183 1.382 . S
C182 H208 0.950 . S
C183 N180 1.332 1_554 S
C183 C182 1.382 . S
C183 H194 0.952 . S
C184 C181 1.381 1_556 S
C184 C185 1.382 . S
C184 H209 0.950 . S
C185 N180 1.332 . S
C185 C184 1.382 . S
C185 H195 0.948 . S
N186 Co164 2.282 . S
N186 C190 1.332 1_554 S
N186 C191 1.332 . S
C187 C188 1.388 . S
C187 C191 1.382 . S
C187 H210 0.950 . S
C188 C187 1.388 . S
C188 C189 1.386 1_554 S
C189 C188 1.386 1_556 S
C189 C190 1.382 . S
C189 H211 0.950 . S
C190 N186 1.332 1_556 S
C190 C189 1.382 . S
C190 H192 0.952 . S
C191 N186 1.332 . S
C191 C187 1.382 . S
C191 H193 0.948 . S
H192 C190 0.952 . S
H193 C191 0.948 . S
H194 C183 0.952 . S
H195 C185 0.948 . S
C196 C162 1.395 . S
C196 C166 1.391 . S
C197 C159 1.382 1_554 S
C197 C179 1.402 . S
C198 C169 1.392 1_554 S
C198 C171 1.389 . S
C199 C174 1.395 . S
C199 C176 1.391 . S
H200 C160 0.951 . S
H201 C161 0.950 . S
H202 C167 0.949 . S
H203 C168 0.950 . S
H204 C172 0.951 . S
H205 C173 0.950 . S
H206 C177 0.949 . S
H207 C178 0.950 . S
H208 C182 0.950 . S
H209 C184 0.950 . S
H210 C187 0.950 . S
H211 C189 0.950 . S
C212 C213 1.443 . S
C212 N216 1.376 . S
C212 C250 1.389 . S
C213 C212 1.443 . S
C213 C214 1.340 . S
C213 H253 0.951 . S
C214 C213 1.340 . S
C214 C215 1.439 . S
C214 H254 0.950 . S
C215 C214 1.439 . S
C215 N216 1.374 . S
C215 C249 1.395 . S
N216 C212 1.376 . S
N216 C215 1.374 . S
N216 Co217 2.016 . S
Co217 N216 2.016 . S
Co217 N218 2.010 . S
Co217 N223 2.001 1_455 S
Co217 N228 1.980 1_455 S
Co217 N233 2.277 . S
Co217 N239 2.288 1_455 S
N218 Co217 2.010 . S
N218 C219 1.376 . S
N218 C222 1.383 . S
C219 N218 1.376 . S
C219 C220 1.446 . S
C219 C249 1.391 . S
C220 C219 1.446 . S
C220 C221 1.339 . S
C220 H255 0.949 . S
C221 C220 1.339 . S
C221 C222 1.439 . S
C221 H256 0.950 . S
C222 N218 1.383 . S
C222 C221 1.439 . S
C222 C251 1.391 . S
N223 Co217 2.001 1_655 S
N223 C224 1.376 . S
N223 C227 1.374 . S
C224 N223 1.376 . S
C224 C225 1.443 . S
C224 C251 1.390 1_655 S
C225 C224 1.443 . S
C225 C226 1.340 . S
C225 H257 0.951 . S
C226 C225 1.340 . S
C226 C227 1.439 . S
C226 H258 0.950 . S
C227 N223 1.374 . S
C227 C226 1.439 . S
C227 C252 1.395 . S
N228 Co217 1.980 1_655 S
N228 C229 1.376 . S
N228 C232 1.383 . S
C229 N228 1.376 . S
C229 C230 1.446 . S
C229 C252 1.391 . S
C230 C229 1.446 . S
C230 C231 1.339 . S
C230 H259 0.949 . S
C231 C230 1.339 . S
C231 C232 1.439 . S
C231 H260 0.950 . S
C232 N228 1.383 . S
C232 C231 1.439 . S
C232 C250 1.392 1_655 S
N233 Co217 2.277 . S
N233 C236 1.332 1_455 S
N233 C238 1.332 . S
C234 C235 1.386 1_455 S
C234 C237 1.388 . S
C235 C234 1.386 1_655 S
C235 C236 1.382 . S
C235 H261 0.950 . S
C236 N233 1.332 1_655 S
C236 C235 1.382 . S
C236 H247 0.952 . S
C237 C234 1.388 . S
C237 C238 1.382 . S
C237 H262 0.950 . S
C238 N233 1.332 . S
C238 C237 1.382 . S
C238 H248 0.948 . S
N239 Co217 2.288 1_655 S
N239 C243 1.332 1_655 S
N239 C244 1.332 . S
C240 C241 1.386 1_655 S
C240 C244 1.382 . S
C240 H263 0.950 . S
C241 C240 1.386 1_455 S
C241 C242 1.387 . S
C242 C241 1.387 . S
C242 C243 1.382 . S
C242 H264 0.950 . S
C243 N239 1.332 1_455 S
C243 C242 1.382 . S
C243 H245 0.952 . S
C244 N239 1.332 . S
C244 C240 1.382 . S
C244 H246 0.948 . S
H245 C243 0.952 . S
H246 C244 0.948 . S
H247 C236 0.952 . S
H248 C238 0.948 . S
C249 C215 1.395 . S
C249 C219 1.391 . S
C250 C212 1.389 . S
C250 C232 1.392 1_455 S
C251 C222 1.391 . S
C251 C224 1.390 1_455 S
C252 C227 1.395 . S
C252 C229 1.391 . S
H253 C213 0.951 . S
H254 C214 0.950 . S
H255 C220 0.949 . S
H256 C221 0.950 . S
H257 C225 0.951 . S
H258 C226 0.950 . S
H259 C230 0.949 . S
H260 C231 0.950 . S
H261 C235 0.950 . S
H262 C237 0.950 . S
H263 C240 0.950 . S
H264 C242 0.950 . S
C265 C266 1.443 . S
C265 N269 1.376 . S
C265 C303 1.389 . S
C266 C265 1.443 . S
C266 C267 1.340 . S
C266 H306 0.951 . S
C267 C266 1.340 . S
C267 C268 1.439 . S
C267 H307 0.950 . S
C268 C267 1.439 . S
C268 N269 1.374 . S
C268 C302 1.395 . S
N269 C265 1.376 . S
N269 C268 1.374 . S
N269 Co270 2.008 . S
Co270 N269 2.008 . S
Co270 N271 1.995 . S
Co270 N276 2.008 1_545 S
Co270 N281 1.995 1_545 S
Co270 N286 2.282 . S
Co270 N292 2.282 1_545 S
N271 Co270 1.995 . S
N271 C272 1.376 . S
N271 C275 1.383 . S
C272 N271 1.376 . S
C272 C273 1.446 . S
C272 C302 1.391 . S
C273 C272 1.446 . S
C273 C274 1.339 . S
C273 H308 0.949 . S
C274 C273 1.339 . S
C274 C275 1.439 . S
C274 H309 0.950 . S
C275 N271 1.383 . S
C275 C274 1.439 . S
C275 C304 1.410 . S
N276 Co270 2.008 1_565 S
N276 C277 1.376 . S
N276 C280 1.374 . S
C277 N276 1.376 . S
C277 C278 1.443 . S
C277 C304 1.363 1_565 S
C278 C277 1.443 . S
C278 C279 1.340 . S
C278 H310 0.951 . S
C279 C278 1.340 . S
C279 C280 1.439 . S
C279 H311 0.950 . S
C280 N276 1.374 . S
C280 C279 1.439 . S
C280 C305 1.395 . S
N281 Co270 1.995 1_565 S
N281 C282 1.376 . S
N281 C285 1.383 . S
C282 N281 1.376 . S
C282 C283 1.446 . S
C282 C305 1.391 . S
C283 C282 1.446 . S
C283 C284 1.339 . S
C283 H312 0.949 . S
C284 C283 1.339 . S
C284 C285 1.439 . S
C284 H313 0.950 . S
C285 N281 1.383 . S
C285 C284 1.439 . S
C285 C303 1.392 1_565 S
N286 Co270 2.282 . S
N286 C289 1.332 1_545 S
N286 C291 1.332 . S
C287 C288 1.386 1_545 S
C287 C290 1.388 . S
C288 C287 1.386 1_565 S
C288 C289 1.382 . S
C288 H314 0.950 . S
C289 N286 1.332 1_565 S
C289 C288 1.382 . S
C289 H300 0.952 . S
C290 C287 1.388 . S
C290 C291 1.382 . S
C290 H315 0.950 . S
C291 N286 1.332 . S
C291 C290 1.382 . S
C291 H301 0.948 . S
N292 Co270 2.282 1_565 S
N292 C296 1.332 1_565 S
N292 C297 1.332 . S
C293 C294 1.359 1_565 S
C293 C297 1.382 . S
C293 H316 0.950 . S
C294 C293 1.359 1_545 S
C294 C295 1.406 . S
C295 C294 1.406 . S
C295 C296 1.382 . S
C295 H317 0.950 . S
C296 N292 1.332 1_545 S
C296 C295 1.382 . S
C296 H298 0.952 . S
C297 N292 1.332 . S
C297 C293 1.382 . S
C297 H299 0.948 . S
H298 C296 0.952 . S
H299 C297 0.948 . S
H300 C289 0.952 . S
H301 C291 0.948 . S
C302 C268 1.395 . S
C302 C272 1.391 . S
C303 C265 1.389 . S
C303 C285 1.392 1_545 S
C304 C275 1.410 . S
C304 C277 1.363 1_545 S
C305 C280 1.395 . S
C305 C282 1.391 . S
H306 C266 0.951 . S
H307 C267 0.950 . S
H308 C273 0.949 . S
H309 C274 0.950 . S
H310 C278 0.951 . S
H311 C279 0.950 . S
H312 C283 0.949 . S
H313 C284 0.950 . S
H314 C288 0.950 . S
H315 C290 0.950 . S
H316 C293 0.950 . S
H317 C295 0.950 . S
H318 C324 0.930 . S
H319 C327 0.930 . S
H320 C328 0.930 . S
H321 C329 0.930 . S
H322 C332 0.930 . S
H323 C333 0.930 . S
C324 H318 0.930 . S
C324 C325 1.355 1_455 S
C324 C326 1.415 . S
C325 C324 1.355 1_655 S
C325 C327 1.419 . S
C326 C324 1.415 . S
C326 C331 1.425 1_455 S
C326 C333 1.409 . S
C327 H319 0.930 . S
C327 C325 1.419 . S
C327 C328 1.362 . S
C328 H320 0.930 . S
C328 C327 1.362 . S
C328 C331 1.409 . S
C329 H321 0.930 . S
C329 C330 1.355 1_655 S
C329 C331 1.415 . S
C330 C329 1.355 1_455 S
C330 C332 1.419 . S
C331 C326 1.425 1_655 S
C331 C328 1.409 . S
C331 C329 1.415 . S
C332 H322 0.930 . S
C332 C330 1.419 . S
C332 C333 1.362 . S
C333 H323 0.930 . S
C333 C326 1.409 . S
C333 C332 1.362 . S
H334 C340 0.930 . S
H335 C343 0.930 . S
H336 C344 0.930 . S
H337 C345 0.930 . S
H338 C348 0.930 . S
H339 C349 0.930 . S
C340 H334 0.930 . S
C340 C341 1.355 1_565 S
C340 C342 1.415 . S
C341 C340 1.355 1_545 S
C341 C343 1.419 . S
C342 C340 1.415 . S
C342 C347 1.425 1_565 S
C342 C349 1.409 . S
C343 H335 0.930 . S
C343 C341 1.419 . S
C343 C344 1.362 . S
C344 H336 0.930 . S
C344 C343 1.362 . S
C344 C347 1.409 . S
C345 H337 0.930 . S
C345 C346 1.363 1_545 S
C345 C347 1.415 . S
C346 C345 1.363 1_565 S
C346 C348 1.416 . S
C347 C342 1.425 1_545 S
C347 C344 1.409 . S
C347 C345 1.415 . S
C348 H338 0.930 . S
C348 C346 1.416 . S
C348 C349 1.362 . S
C349 H339 0.930 . S
C349 C342 1.409 . S
C349 C348 1.362 . S
H350 C356 0.930 . S
H351 C359 0.930 . S
H352 C360 0.930 . S
H353 C361 0.930 . S
H354 C364 0.930 . S
H355 C365 0.930 . S
C356 H350 0.930 . S
C356 C357 1.355 1_455 S
C356 C358 1.415 . S
C357 C356 1.355 1_655 S
C357 C359 1.419 . S
C358 C356 1.415 . S
C358 C363 1.425 1_455 S
C358 C365 1.409 . S
C359 H351 0.930 . S
C359 C357 1.419 . S
C359 C360 1.362 . S
C360 H352 0.930 . S
C360 C359 1.362 . S
C360 C363 1.409 . S
C361 H353 0.930 . S
C361 C362 1.355 1_655 S
C361 C363 1.415 . S
C362 C361 1.355 1_455 S
C362 C364 1.419 . S
C363 C358 1.425 1_655 S
C363 C360 1.409 . S
C363 C361 1.415 . S
C364 H354 0.930 . S
C364 C362 1.419 . S
C364 C365 1.362 . S
C365 H355 0.930 . S
C365 C358 1.409 . S
C365 C364 1.362 . S
H366 C372 0.930 . S
H367 C375 0.930 . S
H368 C376 0.930 . S
H369 C377 0.930 . S
H370 C380 0.930 . S
H371 C381 0.930 . S
C372 H366 0.930 . S
C372 C373 1.355 1_565 S
C372 C374 1.415 . S
C373 C372 1.355 1_545 S
C373 C375 1.419 . S
C374 C372 1.415 . S
C374 C379 1.425 1_565 S
C374 C381 1.409 . S
C375 H367 0.930 . S
C375 C373 1.419 . S
C375 C376 1.362 . S
C376 H368 0.930 . S
C376 C375 1.362 . S
C376 C379 1.409 . S
C377 H369 0.930 . S
C377 C378 1.360 . S
C377 C379 1.415 . S
C378 C377 1.360 . S
C378 C380 1.409 1_545 S
C379 C374 1.425 1_545 S
C379 C376 1.409 . S
C379 C377 1.415 . S
C380 H370 0.930 . S
C380 C378 1.409 1_565 S
C380 C381 1.362 . S
C381 H371 0.930 . S
C381 C374 1.409 . S
C381 C380 1.362 . S
H382 C388 0.930 . S
H383 C391 0.930 . S
H384 C392 0.930 . S
H385 C393 0.930 . S
H386 C396 0.930 . S
H387 C397 0.930 . S
C388 H382 0.930 . S
C388 C389 1.351 1_545 S
C388 C390 1.415 . S
C389 C388 1.351 1_565 S
C389 C391 1.421 . S
C390 C388 1.415 . S
C390 C395 1.425 1_545 S
C390 C397 1.409 . S
C391 H383 0.930 . S
C391 C389 1.421 . S
C391 C392 1.362 . S
C392 H384 0.930 . S
C392 C391 1.362 . S
C392 C395 1.409 . S
C393 H385 0.930 . S
C393 C394 1.355 1_565 S
C393 C395 1.415 . S
C394 C393 1.355 1_545 S
C394 C396 1.419 . S
C395 C390 1.425 1_565 S
C395 C392 1.409 . S
C395 C393 1.415 . S
C396 H386 0.930 . S
C396 C394 1.419 . S
C396 C397 1.362 . S
C397 H387 0.930 . S
C397 C390 1.409 . S
C397 C396 1.362 . S
H398 C404 0.930 . S
H399 C407 0.930 . S
H400 C408 0.930 . S
H401 C409 0.930 . S
H402 C412 0.930 . S
H403 C413 0.930 . S
C404 H398 0.930 . S
C404 C405 1.355 1_655 S
C404 C406 1.415 . S
C405 C404 1.355 1_455 S
C405 C407 1.420 . S
C406 C404 1.415 . S
C406 C411 1.425 1_655 S
C406 C413 1.409 . S
C407 H399 0.930 . S
C407 C405 1.420 . S
C407 C408 1.362 . S
C408 H400 0.930 . S
C408 C407 1.362 . S
C408 C411 1.409 . S
C409 H401 0.930 . S
C409 C410 1.355 . S
C409 C411 1.415 . S
C410 C409 1.355 . S
C410 C412 1.419 1_455 S
C411 C406 1.425 1_455 S
C411 C408 1.409 . S
C411 C409 1.415 . S
C412 H402 0.930 . S
C412 C410 1.419 1_655 S
C412 C413 1.362 . S
C413 H403 0.930 . S
C413 C406 1.409 . S
C413 C412 1.362 . S
H414 C420 0.930 . S
H415 C423 0.930 . S
H416 C424 0.930 . S
H417 C425 0.930 . S
H418 C428 0.930 . S
H419 C429 0.930 . S
C420 H414 0.930 . S
C420 C421 1.355 1_545 S
C420 C422 1.415 . S
C421 C420 1.355 1_565 S
C421 C423 1.419 . S
C422 C420 1.415 . S
C422 C427 1.425 1_545 S
C422 C429 1.409 . S
C423 H415 0.930 . S
C423 C421 1.419 . S
C423 C424 1.362 . S
C424 H416 0.930 . S
C424 C423 1.362 . S
C424 C427 1.409 . S
C425 H417 0.930 . S
C425 C426 1.355 1_565 S
C425 C427 1.415 . S
C426 C425 1.355 1_545 S
C426 C428 1.419 . S
C427 C422 1.425 1_565 S
C427 C424 1.409 . S
C427 C425 1.415 . S
C428 H418 0.930 . S
C428 C426 1.419 . S
C428 C429 1.362 . S
C429 H419 0.930 . S
C429 C422 1.409 . S
C429 C428 1.362 . S
H430 C436 0.930 . S
H431 C439 0.930 . S
H432 C440 0.930 . S
H433 C441 0.930 . S
H434 C444 0.930 . S
H435 C445 0.930 . S
C436 H430 0.930 . S
C436 C437 1.355 1_655 S
C436 C438 1.415 . S
C437 C436 1.355 1_455 S
C437 C439 1.419 . S
C438 C436 1.415 . S
C438 C443 1.425 1_655 S
C438 C445 1.409 . S
C439 H431 0.930 . S
C439 C437 1.419 . S
C439 C440 1.362 . S
C440 H432 0.930 . S
C440 C439 1.362 . S
C440 C443 1.409 . S
C441 H433 0.930 . S
C441 C442 1.355 1_455 S
C441 C443 1.415 . S
C442 C441 1.355 1_655 S
C442 C444 1.419 . S
C443 C438 1.425 1_455 S
C443 C440 1.409 . S
C443 C441 1.415 . S
C444 H434 0.930 . S
C444 C442 1.419 . S
C444 C445 1.362 . S
C445 H435 0.930 . S
C445 C438 1.409 . S
C445 C444 1.362 . S
H446 C452 0.930 . S
H447 C455 0.930 . S
H448 C456 0.930 . S
H449 C457 0.930 . S
H450 C460 0.930 . S
H451 C461 0.930 . S
C452 H446 0.930 . S
C452 C453 1.355 1_556 S
C452 C454 1.404 . S
C453 C452 1.355 1_554 S
C453 C455 1.419 . S
C454 C452 1.404 . S
C454 C459 1.437 1_556 S
C454 C461 1.409 . S
C455 H447 0.930 . S
C455 C453 1.419 . S
C455 C456 1.362 . S
C456 H448 0.930 . S
C456 C455 1.362 . S
C456 C459 1.409 . S
C457 H449 0.930 . S
C457 C458 1.356 1_554 S
C457 C459 1.415 . S
C458 C457 1.356 1_556 S
C458 C460 1.408 . S
C459 C454 1.437 1_554 S
C459 C456 1.409 . S
C459 C457 1.415 . S
C460 H450 0.930 . S
C460 C458 1.408 . S
C460 C461 1.362 . S
C461 H451 0.930 . S
C461 C454 1.409 . S
C461 C460 1.362 . S
H462 C468 0.930 . S
H463 C471 0.930 . S
H464 C472 0.930 . S
H465 C473 0.930 . S
H466 C476 0.930 . S
H467 C477 0.930 . S
C468 H462 0.930 . S
C468 C469 1.366 . S
C468 C470 1.415 . S
C469 C468 1.366 . S
C469 C471 1.410 1_554 S
C470 C468 1.415 . S
C470 C475 1.425 1_554 S
C470 C477 1.409 . S
C471 H463 0.930 . S
C471 C469 1.410 1_556 S
C471 C472 1.362 . S
C472 H464 0.930 . S
C472 C471 1.362 . S
C472 C475 1.409 . S
C473 H465 0.930 . S
C473 C474 1.355 1_556 S
C473 C475 1.415 . S
C474 C473 1.355 1_554 S
C474 C476 1.419 . S
C475 C470 1.425 1_556 S
C475 C472 1.409 . S
C475 C473 1.415 . S
C476 H466 0.930 . S
C476 C474 1.419 . S
C476 C477 1.362 . S
C477 H467 0.930 . S
C477 C470 1.409 . S
C477 C476 1.362 . S
H478 C484 0.930 . S
H479 C487 0.930 . S
H480 C488 0.930 . S
H481 C489 0.930 . S
H482 C492 0.930 . S
H483 C493 0.930 . S
C484 H478 0.930 . S
C484 C485 1.355 1_556 S
C484 C486 1.415 . S
C485 C484 1.355 1_554 S
C485 C487 1.419 . S
C486 C484 1.415 . S
C486 C491 1.425 1_556 S
C486 C493 1.409 . S
C487 H479 0.930 . S
C487 C485 1.419 . S
C487 C488 1.362 . S
C488 H480 0.930 . S
C488 C487 1.362 . S
C488 C491 1.409 . S
C489 H481 0.930 . S
C489 C490 1.355 1_554 S
C489 C491 1.415 . S
C490 C489 1.355 1_556 S
C490 C492 1.419 . S
C491 C486 1.425 1_554 S
C491 C488 1.409 . S
C491 C489 1.415 . S
C492 H482 0.930 . S
C492 C490 1.419 . S
C492 C493 1.362 . S
C493 H483 0.930 . S
C493 C486 1.409 . S
C493 C492 1.362 . S
H494 C500 0.930 . S
H495 C503 0.930 . S
H496 C504 0.930 . S
H497 C505 0.930 . S
H498 C508 0.930 . S
H499 C509 0.930 . S
C500 H494 0.930 . S
C500 C501 1.355 . S
C500 C502 1.415 . S
C501 C500 1.355 . S
C501 C503 1.420 1_554 S
C502 C500 1.415 . S
C502 C507 1.425 1_554 S
C502 C509 1.409 . S
C503 H495 0.930 . S
C503 C501 1.420 1_556 S
C503 C504 1.362 . S
C504 H496 0.930 . S
C504 C503 1.362 . S
C504 C507 1.409 . S
C505 H497 0.930 . S
C505 C506 1.355 1_556 S
C505 C507 1.415 . S
C506 C505 1.355 1_554 S
C506 C508 1.419 . S
C507 C502 1.425 1_556 S
C507 C504 1.409 . S
C507 C505 1.415 . S
C508 H498 0.930 . S
C508 C506 1.419 . S
C508 C509 1.362 . S
C509 H499 0.930 . S
C509 C502 1.409 . S
C509 C508 1.362 . S
C325 C29 1.496 1_655 S
C330 C241 1.493 . S
C341 C38 1.495 1_545 S
C346 C303 1.491 1_565 S
C357 C234 1.494 1_655 S
C362 C22 1.490 1_455 S
C373 C304 1.499 . S
C378 C39 1.498 . S
C389 C294 1.502 1_565 S
C394 C91 1.492 . S
C405 C128 1.494 . S
C410 C251 1.489 . S
C421 C287 1.494 1_565 S
C426 C92 1.498 1_545 S
C437 C250 1.490 . S
C442 C135 1.487 . S
C453 C144 1.491 . S
C458 C198 1.498 1_556 S
C469 C188 1.493 . S
C474 C75 1.493 . S
C485 C145 1.491 1_554 S
C490 C197 1.490 1_556 S
C501 C181 1.491 . S
C506 C82 1.493 1_554 S
