# Generated by pormake.
# Topology uki, (4)-cn, num edge types: 1
# Building blocks:
#     Node 0, Type 0, BuildingBlock: NAWXER_clean_sbu_0, # of connection points: 4
#     Node 1, Type 0, BuildingBlock: NAWXER_clean_sbu_0, # of connection points: 4
#     Node 2, Type 0, BuildingBlock: NAWXER_clean_sbu_0, # of connection points: 4
#     Node 3, Type 0, BuildingBlock: NAWXER_clean_sbu_0, # of connection points: 4
#     Node 4, Type 0, BuildingBlock: NAWXER_clean_sbu_0, # of connection points: 4
#     Node 5, Type 0, BuildingBlock: NAWXER_clean_sbu_0, # of connection points: 4
#     Node 6, Type 0, BuildingBlock: NAWXER_clean_sbu_0, # of connection points: 4
#     Node 7, Type 0, BuildingBlock: NAWXER_clean_sbu_0, # of connection points: 4
#     Node 8, Type 0, BuildingBlock: NAWXER_clean_sbu_0, # of connection points: 4
#     Node 9, Type 0, BuildingBlock: NAWXER_clean_sbu_0, # of connection points: 4
#     Node 10, Type 0, BuildingBlock: NAWXER_clean_sbu_0, # of connection points: 4
#     Node 11, Type 0, BuildingBlock: NAWXER_clean_sbu_0, # of connection points: 4
#     Node 12, Type 0, BuildingBlock: NAWXER_clean_sbu_0, # of connection points: 4
#     Node 13, Type 0, BuildingBlock: NAWXER_clean_sbu_0, # of connection points: 4
#     Node 14, Type 0, BuildingBlock: NAWXER_clean_sbu_0, # of connection points: 4
#     Node 15, Type 0, BuildingBlock: NAWXER_clean_sbu_0, # of connection points: 4
#     Edge 16, Type (0, 0), BuildingBlock: XUDNAN_clean_linker_2, # of connection points: 2
#     Edge 17, Type (0, 0), BuildingBlock: XUDNAN_clean_linker_2, # of connection points: 2
#     Edge 18, Type (0, 0), BuildingBlock: XUDNAN_clean_linker_2, # of connection points: 2
#     Edge 19, Type (0, 0), BuildingBlock: XUDNAN_clean_linker_2, # of connection points: 2
#     Edge 20, Type (0, 0), BuildingBlock: XUDNAN_clean_linker_2, # of connection points: 2
#     Edge 21, Type (0, 0), BuildingBlock: XUDNAN_clean_linker_2, # of connection points: 2
#     Edge 22, Type (0, 0), BuildingBlock: XUDNAN_clean_linker_2, # of connection points: 2
#     Edge 23, Type (0, 0), BuildingBlock: XUDNAN_clean_linker_2, # of connection points: 2
#     Edge 24, Type (0, 0), BuildingBlock: XUDNAN_clean_linker_2, # of connection points: 2
#     Edge 25, Type (0, 0), BuildingBlock: XUDNAN_clean_linker_2, # of connection points: 2
#     Edge 26, Type (0, 0), BuildingBlock: XUDNAN_clean_linker_2, # of connection points: 2
#     Edge 27, Type (0, 0), BuildingBlock: XUDNAN_clean_linker_2, # of connection points: 2
#     Edge 28, Type (0, 0), BuildingBlock: XUDNAN_clean_linker_2, # of connection points: 2
#     Edge 29, Type (0, 0), BuildingBlock: XUDNAN_clean_linker_2, # of connection points: 2
#     Edge 30, Type (0, 0), BuildingBlock: XUDNAN_clean_linker_2, # of connection points: 2
#     Edge 31, Type (0, 0), BuildingBlock: XUDNAN_clean_linker_2, # of connection points: 2
#     Edge 32, Type (0, 0), BuildingBlock: XUDNAN_clean_linker_2, # of connection points: 2
#     Edge 33, Type (0, 0), BuildingBlock: XUDNAN_clean_linker_2, # of connection points: 2
#     Edge 34, Type (0, 0), BuildingBlock: XUDNAN_clean_linker_2, # of connection points: 2
#     Edge 35, Type (0, 0), BuildingBlock: XUDNAN_clean_linker_2, # of connection points: 2
#     Edge 36, Type (0, 0), BuildingBlock: XUDNAN_clean_linker_2, # of connection points: 2
#     Edge 37, Type (0, 0), BuildingBlock: XUDNAN_clean_linker_2, # of connection points: 2
#     Edge 38, Type (0, 0), BuildingBlock: XUDNAN_clean_linker_2, # of connection points: 2
#     Edge 39, Type (0, 0), BuildingBlock: XUDNAN_clean_linker_2, # of connection points: 2
#     Edge 40, Type (0, 0), BuildingBlock: XUDNAN_clean_linker_2, # of connection points: 2
#     Edge 41, Type (0, 0), BuildingBlock: XUDNAN_clean_linker_2, # of connection points: 2
#     Edge 42, Type (0, 0), BuildingBlock: XUDNAN_clean_linker_2, # of connection points: 2
#     Edge 43, Type (0, 0), BuildingBlock: XUDNAN_clean_linker_2, # of connection points: 2
#     Edge 44, Type (0, 0), BuildingBlock: XUDNAN_clean_linker_2, # of connection points: 2
#     Edge 45, Type (0, 0), BuildingBlock: XUDNAN_clean_linker_2, # of connection points: 2
#     Edge 46, Type (0, 0), BuildingBlock: XUDNAN_clean_linker_2, # of connection points: 2
#     Edge 47, Type (0, 0), BuildingBlock: XUDNAN_clean_linker_2, # of connection points: 2
# Relax obj value: 0.074
# Max RMSD: 0.234
# Mean RMSD: 0.234
data_MOF--net-uki--node1-NAWXER_clean_sbu_0--edge1-XUDNAN_clean_linker_2
_symmetry_space_group_name_H-M    P1
_symmetry_Int_Tables_number       1
_symmetry_cell_setting            triclinic
loop_
_symmetry_equiv_pos_as_xyz
'x, y, z'
_cell_length_a     31.350507
_cell_length_b     31.433734
_cell_length_c     72.6256
_cell_angle_alpha  90.091161
_cell_angle_beta   90.013557
_cell_angle_gamma 90.064344
loop_
_atom_site_label
_atom_site_type_symbol
_atom_site_fract_x
_atom_site_fract_y
_atom_site_fract_z
_atom_type_partial_charge
C0 C 0.15186 0.21827 0.32761 0.0
C1 C 0.03226 0.24482 0.28588 0.0
O2 O 0.12143 0.24448 0.32966 0.0
Zn3 Zn 0.09179 0.23221 0.30686 0.0
O4 O 0.15419 0.19595 0.31283 0.0
Zn5 Zn 0.11878 0.18983 0.28752 0.0
O6 O 0.15681 0.20986 0.26867 0.0
O7 O 0.13227 0.26141 0.28637 0.0
O8 O 0.06006 0.21909 0.27931 0.0
O9 O 0.03727 0.25989 0.302 0.0
O10 O 0.07251 0.16616 0.30959 0.0
O11 O 0.10336 0.13097 0.28684 0.0
C12 C 0.15464 0.2492 0.27254 0.0
C13 C 0.07889 0.13131 0.30076 0.0
C14 C 0.2727 0.87326 0.73976 0.0
C15 C 0.14753 0.93894 0.71265 0.0
O16 O 0.28207 0.88979 0.72408 0.0
Zn17 Zn 0.24658 0.92365 0.70269 0.0
O18 O 0.23445 0.8744 0.7454 0.0
Zn19 Zn 0.21044 0.90504 0.72539 0.0
O20 O 0.2112 0.86001 0.70267 0.0
O21 O 0.25184 0.88845 0.68119 0.0
O22 O 0.15138 0.91978 0.72792 0.0
O23 O 0.17989 0.94217 0.70192 0.0
O24 O 0.27438 0.97811 0.70172 0.0
O25 O 0.24121 0.96635 0.72803 0.0
C26 C 0.22823 0.85815 0.68659 0.0
C27 C 0.26421 0.99036 0.71778 0.0
C28 C 0.86247 0.72371 0.29686 0.0
C29 C 0.93301 0.85696 0.31209 0.0
O30 O 0.85546 0.76031 0.29012 0.0
Zn31 Zn 0.89678 0.79023 0.30476 0.0
O32 O 0.89074 0.71907 0.3095 0.0
Zn33 Zn 0.93638 0.75885 0.32389 0.0
O34 O 0.91976 0.75311 0.34916 0.0
O35 O 0.87093 0.78581 0.33246 0.0
O36 O 0.94736 0.82604 0.32174 0.0
O37 O 0.90381 0.85032 0.30033 0.0
O38 O 0.95459 0.76426 0.2936 0.0
O39 O 0.99065 0.73464 0.31623 0.0
C40 C 0.88352 0.77094 0.348 0.0
C41 C 0.98745 0.74387 0.29926 0.0
C42 C 0.78455 0.12588 0.66755 0.0
C43 C 0.74769 0.00744 0.70687 0.0
O44 O 0.79674 0.13349 0.68417 0.0
Zn45 Zn 0.79398 0.09846 0.71035 0.0
O46 O 0.76509 0.09152 0.66391 0.0
Zn47 Zn 0.76598 0.06821 0.68787 0.0
O48 O 0.72361 0.1092 0.70347 0.0
O49 O 0.76194 0.13499 0.72642 0.0
O50 O 0.74105 0.01316 0.68984 0.0
O51 O 0.76656 0.03649 0.71628 0.0
O52 O 0.85325 0.08959 0.71653 0.0
O53 O 0.83299 0.05537 0.69148 0.0
C54 C 0.72654 0.13234 0.71802 0.0
C55 C 0.86217 0.06536 0.70308 0.0
C56 C 0.04964 0.262 0.97673 0.0
C57 C 0.17158 0.28958 0.93661 0.0
O58 O 0.05404 0.25053 0.96004 0.0
Zn59 Zn 0.10841 0.27889 0.95588 0.0
O60 O 0.07757 0.28649 0.98409 0.0
Zn61 Zn 0.13624 0.31696 0.97641 0.0
O62 O 0.12327 0.37631 0.97789 0.0
O63 O 0.09011 0.34507 0.95477 0.0
O64 O 0.17491 0.3083 0.95225 0.0
O65 O 0.13748 0.26976 0.93263 0.0
O66 O 0.14935 0.24601 0.97585 0.0
O67 O 0.17282 0.29549 0.99501 0.0
C68 C 0.09806 0.37855 0.96429 0.0
C69 C 0.17135 0.25671 0.99009 0.0
C70 C 0.30514 0.87631 0.09057 0.0
C71 C 0.26868 1.00096 0.05498 0.0
O72 O 0.30972 0.86784 0.07336 0.0
Zn73 Zn 0.30355 0.90532 0.0481 0.0
O74 O 0.29377 0.91326 0.09541 0.0
Zn75 Zn 0.28779 0.93794 0.07175 0.0
O76 O 0.23509 0.9037 0.05835 0.0
O77 O 0.26377 0.87407 0.03373 0.0
O78 O 0.26746 0.99477 0.07222 0.0
O79 O 0.28082 0.97078 0.04423 0.0
O80 O 0.35954 0.90801 0.03776 0.0
O81 O 0.35278 0.94832 0.06239 0.0
C82 C 0.23125 0.88118 0.04362 0.0
C83 C 0.37537 0.93486 0.04886 0.0
C84 C 0.87006 0.72848 0.93486 0.0
C85 C 0.97947 0.76649 0.97991 0.0
O86 O 0.89952 0.756 0.9334 0.0
Zn87 Zn 0.92516 0.74729 0.95727 0.0
O88 O 0.86583 0.70751 0.9499 0.0
Zn89 Zn 0.89683 0.70609 0.97651 0.0
O90 O 0.85408 0.72577 0.99343 0.0
O91 O 0.87972 0.77673 0.97576 0.0
O92 O 0.95194 0.74022 0.9863 0.0
O93 O 0.97706 0.77823 0.9632 0.0
O94 O 0.94755 0.68201 0.9563 0.0
O95 O 0.9149 0.64826 0.97894 0.0
C96 C 0.85532 0.76479 0.98897 0.0
C97 C 0.9412 0.64797 0.96566 0.0
C98 C 0.71995 0.15952 0.07915 0.0
C99 C 0.75565 0.02407 0.05049 0.0
O100 O 0.7151 0.16101 0.06159 0.0
Zn101 Zn 0.72042 0.11645 0.03882 0.0
O102 O 0.73028 0.12461 0.08665 0.0
Zn103 Zn 0.73573 0.09127 0.0646 0.0
O104 O 0.78779 0.12256 0.04983 0.0
O105 O 0.76121 0.14357 0.02318 0.0
O106 O 0.75633 0.034 0.06744 0.0
O107 O 0.74345 0.05158 0.03858 0.0
O108 O 0.66397 0.11044 0.029 0.0
O109 O 0.67079 0.07964 0.05606 0.0
C110 C 0.79268 0.14072 0.03411 0.0
C111 C 0.64801 0.08845 0.0419 0.0
C112 C 0.52857 0.76712 0.8033 0.0
C113 C 0.65898 0.72808 0.83516 0.0
O114 O 0.54209 0.77817 0.81906 0.0
Zn115 Zn 0.59468 0.74742 0.81837 0.0
O116 O 0.55103 0.7418 0.79337 0.0
Zn117 Zn 0.61144 0.70827 0.79679 0.0
O118 O 0.59392 0.65098 0.79457 0.0
O119 O 0.57212 0.68121 0.82037 0.0
O120 O 0.65578 0.70745 0.81994 0.0
O121 O 0.63086 0.75532 0.83934 0.0
O122 O 0.62949 0.77894 0.79616 0.0
O123 O 0.64428 0.72752 0.77658 0.0
C124 C 0.57403 0.64853 0.80971 0.0
C125 C 0.64639 0.76646 0.78096 0.0
C126 C 0.73109 0.38241 0.17405 0.0
C127 C 0.75512 0.48396 0.22392 0.0
O128 O 0.71584 0.36919 0.18945 0.0
Zn129 Zn 0.71049 0.39316 0.21748 0.0
O130 O 0.74913 0.41859 0.17326 0.0
Zn131 Zn 0.74253 0.43385 0.19868 0.0
O132 O 0.78209 0.3878 0.21248 0.0
O133 O 0.7414 0.35158 0.23182 0.0
O134 O 0.76532 0.48797 0.20708 0.0
O135 O 0.73507 0.4506 0.22917 0.0
O136 O 0.6495 0.39958 0.22136 0.0
O137 O 0.67529 0.44325 0.20035 0.0
C138 C 0.77784 0.35899 0.22484 0.0
C139 C 0.64362 0.42868 0.20951 0.0
C140 C 0.385 0.27274 0.83757 0.0
C141 C 0.49057 0.25667 0.78885 0.0
O142 O 0.41985 0.25227 0.83757 0.0
Zn143 Zn 0.4381 0.26631 0.8132 0.0
O144 O 0.37387 0.29355 0.82314 0.0
Zn145 Zn 0.40159 0.30534 0.79621 0.0
O146 O 0.35978 0.28396 0.7796 0.0
O147 O 0.39282 0.23347 0.79517 0.0
O148 O 0.45918 0.28013 0.78384 0.0
O149 O 0.4919 0.24272 0.80524 0.0
O150 O 0.45239 0.33347 0.81558 0.0
O151 O 0.41072 0.36559 0.79552 0.0
C152 C 0.36558 0.24474 0.78287 0.0
C153 C 0.43945 0.36768 0.80777 0.0
C154 C 0.2873 0.64043 0.17857 0.0
C155 C 0.24587 0.50656 0.20734 0.0
O156 O 0.29825 0.63873 0.19562 0.0
Zn157 Zn 0.29311 0.59376 0.21823 0.0
O158 O 0.26768 0.60916 0.17138 0.0
Zn159 Zn 0.26609 0.5738 0.19298 0.0
O160 O 0.22356 0.6081 0.21112 0.0
O161 O 0.25973 0.62391 0.23631 0.0
O162 O 0.24027 0.51818 0.19078 0.0
O163 O 0.26443 0.53173 0.21871 0.0
O164 O 0.35175 0.58059 0.22421 0.0
O165 O 0.3322 0.55814 0.19665 0.0
C166 C 0.22518 0.62515 0.22719 0.0
C167 C 0.36079 0.56203 0.20916 0.0
C168 C 0.53976 0.76536 0.48365 0.0
C169 C 0.66309 0.79324 0.44409 0.0
O170 O 0.54426 0.75401 0.46694 0.0
Zn171 Zn 0.5987 0.7828 0.46267 0.0
O172 O 0.56719 0.79045 0.49095 0.0
Zn173 Zn 0.62521 0.82188 0.48344 0.0
O174 O 0.61106 0.88127 0.48411 0.0
O175 O 0.58097 0.84859 0.46057 0.0
O176 O 0.6651 0.81271 0.45962 0.0
O177 O 0.6295 0.77273 0.43987 0.0
O178 O 0.63927 0.75151 0.48296 0.0
O179 O 0.66137 0.80083 0.50256 0.0
C180 C 0.58774 0.88263 0.46986 0.0
C181 C 0.6605 0.76215 0.49741 0.0
C182 C 0.80049 0.36128 0.57976 0.0
C183 C 0.76047 0.49808 0.55425 0.0
O184 O 0.80465 0.36147 0.56216 0.0
Zn185 Zn 0.79643 0.4076 0.5403 0.0
O186 O 0.78887 0.39499 0.58793 0.0
Zn187 Zn 0.78182 0.42998 0.56659 0.0
O188 O 0.7292 0.39988 0.55158 0.0
O189 O 0.75539 0.38129 0.52452 0.0
O190 O 0.76058 0.48632 0.57096 0.0
O191 O 0.77257 0.47211 0.54164 0.0
O192 O 0.85184 0.41556 0.52989 0.0
O193 O 0.8463 0.44374 0.55758 0.0
C194 C 0.72404 0.38319 0.53554 0.0
C195 C 0.86826 0.43666 0.54299 0.0
C196 C 0.43097 0.15114 0.46133 0.0
C197 C 0.3434 0.26765 0.48295 0.0
O198 O 0.40359 0.152 0.47418 0.0
Zn199 Zn 0.38572 0.20926 0.47095 0.0
O200 O 0.43755 0.18457 0.45155 0.0
Zn201 Zn 0.41381 0.24983 0.45155 0.0
O202 O 0.46536 0.28168 0.45721 0.0
O203 O 0.44093 0.24384 0.48049 0.0
O204 O 0.36804 0.27982 0.46985 0.0
O205 O 0.34258 0.22868 0.48744 0.0
O206 O 0.35495 0.20898 0.44444 0.0
O207 O 0.38797 0.25704 0.42751 0.0
C208 C 0.46828 0.27011 0.47393 0.0
C209 C 0.35876 0.22935 0.42924 0.0
C210 C 0.2877 0.63959 0.54329 0.0
C211 C 0.14305 0.58681 0.54854 0.0
O212 O 0.2842 0.61533 0.55748 0.0
Zn213 Zn 0.23205 0.57938 0.57025 0.0
O214 O 0.25497 0.64776 0.53369 0.0
Zn215 Zn 0.21529 0.61504 0.54758 0.0
O216 O 0.21001 0.64879 0.57396 0.0
O217 O 0.22744 0.60049 0.59459 0.0
O218 O 0.15869 0.61436 0.53775 0.0
O219 O 0.16628 0.57153 0.56147 0.0
O220 O 0.25134 0.52225 0.56899 0.0
O221 O 0.23637 0.54989 0.54182 0.0
C222 C 0.21542 0.63789 0.59086 0.0
C223 C 0.24857 0.5182 0.55166 0.0
H224 H 0.17389 0.33215 0.28057 0.0
H225 H 0.17773 0.23886 0.2365 0.0
H226 H 0.20151 0.29461 0.21483 0.0
H227 H 0.13455 0.41807 0.2546 0.0
H228 H 0.1668 0.45797 0.26579 0.0
H229 H 0.1519 0.41049 0.27804 0.0
H230 H 0.23145 0.39407 0.28463 0.0
H231 H 0.24659 0.44182 0.27259 0.0
H232 H 0.26865 0.3913 0.26573 0.0
H233 H 0.21844 0.36215 0.19741 0.0
H234 H 0.2364 0.43455 0.18644 0.0
H235 H 0.22558 0.48231 0.24232 0.0
C236 C 0.18028 0.32334 0.26641 0.0
C237 C 0.17394 0.28121 0.2602 0.0
C238 C 0.18269 0.27089 0.24158 0.0
C239 C 0.19595 0.30238 0.22915 0.0
C240 C 0.20095 0.34383 0.23564 0.0
C241 C 0.19419 0.35418 0.25391 0.0
C242 C 0.20209 0.40102 0.25742 0.0
C243 C 0.16141 0.42317 0.26437 0.0
C244 C 0.23942 0.40741 0.27089 0.0
C245 C 0.21365 0.41555 0.2382 0.0
C246 C 0.21242 0.38222 0.22578 0.0
C247 C 0.22006 0.38838 0.20706 0.0
C248 C 0.22994 0.42959 0.20093 0.0
C249 C 0.23263 0.46384 0.21356 0.0
C250 C 0.22421 0.45659 0.23239 0.0
H251 H 0.50257 0.78091 0.76759 0.0
H252 H 0.46025 0.78834 0.82439 0.0
H253 H 0.38974 0.8136 0.81401 0.0
H254 H 0.44998 0.87714 0.75312 0.0
H255 H 0.4365 0.85727 0.73056 0.0
H256 H 0.48304 0.83746 0.74228 0.0
H257 H 0.45469 0.76041 0.73885 0.0
H258 H 0.40799 0.78 0.72716 0.0
H259 H 0.4023 0.74736 0.74739 0.0
H260 H 0.32389 0.83631 0.79777 0.0
H261 H 0.26792 0.86194 0.77679 0.0
H262 H 0.35345 0.84531 0.73031 0.0
C263 C 0.47828 0.78761 0.77779 0.0
C264 C 0.48665 0.7824 0.79679 0.0
C265 C 0.45445 0.79217 0.80978 0.0
C266 C 0.41428 0.80635 0.80402 0.0
C267 C 0.40701 0.81124 0.78522 0.0
C268 C 0.43817 0.80274 0.77228 0.0
C269 C 0.42249 0.81294 0.753 0.0
C270 C 0.44962 0.84831 0.74423 0.0
C271 C 0.42183 0.77278 0.74089 0.0
C272 C 0.37764 0.82831 0.75717 0.0
C273 C 0.36934 0.82646 0.77584 0.0
C274 C 0.33002 0.83811 0.78313 0.0
C275 C 0.29837 0.85249 0.77107 0.0
C276 C 0.30629 0.85572 0.75191 0.0
C277 C 0.34653 0.84338 0.74489 0.0
H278 H 0.77944 0.56725 0.21807 0.0
H279 H 0.75811 0.47379 0.26108 0.0
H280 H 0.77948 0.52635 0.28451 0.0
H281 H 0.8712 0.61586 0.23789 0.0
H282 H 0.85705 0.66919 0.23118 0.0
H283 H 0.83892 0.62458 0.2177 0.0
H284 H 0.76076 0.64985 0.22153 0.0
H285 H 0.77867 0.6945 0.23508 0.0
H286 H 0.73957 0.65827 0.24432 0.0
H287 H 0.80825 0.58655 0.30305 0.0
H288 H 0.83954 0.65263 0.31573 0.0
H289 H 0.8378 0.70909 0.26129 0.0
C290 C 0.77913 0.55797 0.23243 0.0
C291 C 0.76715 0.51641 0.23774 0.0
C292 C 0.76697 0.5055 0.25667 0.0
C293 C 0.77908 0.5351 0.27011 0.0
C294 C 0.79074 0.57573 0.26444 0.0
C295 C 0.79052 0.58741 0.24609 0.0
C296 C 0.80481 0.63319 0.24379 0.0
C297 C 0.84541 0.63584 0.23194 0.0
C298 C 0.7688 0.66056 0.2357 0.0
C299 C 0.81381 0.64503 0.26366 0.0
C300 C 0.8056 0.61131 0.27532 0.0
C301 C 0.81415 0.61345 0.29413 0.0
C302 C 0.83194 0.65099 0.3012 0.0
C303 C 0.84035 0.68597 0.28952 0.0
C304 C 0.83063 0.68311 0.27057 0.0
H305 H 0.57049 0.22379 0.79541 0.0
H306 H 0.48402 0.25961 0.75141 0.0
H307 H 0.53576 0.23346 0.72845 0.0
H308 H 0.66832 0.25387 0.7712 0.0
H309 H 0.69853 0.2102 0.78056 0.0
H310 H 0.65509 0.23274 0.79354 0.0
H311 H 0.62005 0.15824 0.79594 0.0
H312 H 0.66326 0.13552 0.78291 0.0
H313 H 0.60904 0.12857 0.77521 0.0
H314 H 0.59417 0.19798 0.71039 0.0
H315 H 0.65829 0.16144 0.69838 0.0
H316 H 0.70895 0.15308 0.75385 0.0
C317 C 0.56262 0.22645 0.78094 0.0
C318 C 0.52318 0.24371 0.77521 0.0
C319 C 0.51412 0.24674 0.75613 0.0
C320 C 0.54325 0.23184 0.74298 0.0
C321 C 0.58161 0.21457 0.74908 0.0
C322 C 0.59166 0.21236 0.76759 0.0
C323 C 0.63515 0.19241 0.77046 0.0
C324 C 0.6661 0.22421 0.77947 0.0
C325 C 0.63164 0.15125 0.7818 0.0
C326 C 0.64763 0.18314 0.7507 0.0
C327 C 0.61615 0.19588 0.73859 0.0
C328 C 0.61933 0.18844 0.71971 0.0
C329 C 0.65573 0.16756 0.71302 0.0
C330 C 0.68869 0.15494 0.72516 0.0
C331 C 0.68457 0.16311 0.74422 0.0
H332 H 0.23875 0.02136 0.02045 0.0
H333 H 0.27495 0.07636 0.07305 0.0
H334 H 0.25829 0.14792 0.06128 0.0
H335 H 0.27746 0.10732 0.99128 0.0
H336 H 0.23291 0.10445 0.97563 0.0
H337 H 0.25027 0.05744 0.98765 0.0
H338 H 0.17409 0.04698 1.00073 0.0
H339 H 0.15649 0.09382 0.9887 0.0
H340 H 0.14913 0.08981 0.01325 0.0
H341 H 0.2377 0.21298 0.04425 0.0
H342 H 0.20816 0.26787 0.02379 0.0
H343 H 0.18135 0.17132 0.98249 0.0
C344 C 0.24347 0.04857 0.02939 0.0
C345 C 0.25831 0.04343 0.04763 0.0
C346 C 0.26347 0.07961 0.05906 0.0
C347 C 0.25435 0.1204 0.05247 0.0
C348 C 0.23966 0.12445 0.03448 0.0
C349 C 0.23375 0.0896 0.02313 0.0
C350 C 0.21501 0.10282 1.00475 0.0
C351 C 0.24576 0.09239 0.98889 0.0
C352 C 0.17107 0.08213 1.00169 0.0
C353 C 0.21119 0.15046 1.00764 0.0
C354 C 0.22618 0.16219 0.0248 0.0
C355 C 0.22584 0.20427 0.03077 0.0
C356 C 0.20906 0.23524 0.01901 0.0
C357 C 0.19236 0.22395 1.00153 0.0
C358 C 0.19389 0.18097 0.99575 0.0
H359 H 0.20782 0.85723 0.00891 0.0
H360 H 0.15967 0.86864 0.06471 0.0
H361 H 0.08978 0.84049 0.05439 0.0
H362 H 0.11124 0.89073 0.98642 0.0
H363 H 0.11758 0.85464 0.9673 0.0
H364 H 0.16384 0.87467 0.9792 0.0
H365 H 0.18906 0.7975 0.98535 0.0
H366 H 0.14289 0.77722 0.97346 0.0
H367 H 0.15368 0.76078 0.99677 0.0
H368 H 0.02647 0.80808 0.03812 0.0
H369 H 0.97239 0.7789 0.01682 0.0
H370 H 0.06054 0.79337 0.97121 0.0
C371 C 0.18264 0.85365 0.019 0.0
C372 C 0.18922 0.86473 0.03767 0.0
C373 C 0.15529 0.86024 0.05037 0.0
C374 C 0.11558 0.84423 0.04463 0.0
C375 C 0.11026 0.8335 0.02612 0.0
C376 C 0.14273 0.83845 0.01346 0.0
C377 C 0.12854 0.82564 0.99428 0.0
C378 C 0.1304 0.86369 0.98102 0.0
C379 C 0.15512 0.78805 0.98705 0.0
C380 C 0.08297 0.8124 0.99811 0.0
C381 C 0.07322 0.81676 0.0166 0.0
C382 C 0.03364 0.80489 0.02361 0.0
C383 C 1.00322 0.78821 0.01142 0.0
C384 C 0.01228 0.78413 0.99238 0.0
C385 C 0.05262 0.79665 0.98566 0.0
H386 H 0.84021 0.84825 0.98023 0.0
H387 H 0.82069 0.75457 0.02328 0.0
H388 H 0.79178 0.81057 0.04362 0.0
H389 H 0.87417 0.93201 0.00863 0.0
H390 H 0.84706 0.97332 0.99605 0.0
H391 H 0.86362 0.92555 0.98438 0.0
H392 H 0.7861 0.91227 0.97337 0.0
H393 H 0.76936 0.96033 0.98481 0.0
H394 H 0.74353 0.91054 0.99004 0.0
H395 H 0.77194 0.8781 0.06031 0.0
H396 H 0.75461 0.95093 0.07088 0.0
H397 H 0.78365 0.99963 0.01642 0.0
C398 C 0.8292 0.83936 0.99383 0.0
C399 C 0.83269 0.79702 1.00017 0.0
C400 C 0.81803 0.78672 0.01807 0.0
C401 C 0.80177 0.81835 0.02976 0.0
C402 C 0.7998 0.85998 0.02325 0.0
C403 C 0.81238 0.8704 1.00558 0.0
C404 C 0.8074 0.91758 1.00201 0.0
C405 C 0.85064 0.93832 0.9975 0.0
C406 C 0.77464 0.92564 0.98665 0.0
C407 C 0.7908 0.9322 0.02053 0.0
C408 C 0.78691 0.89856 0.03265 0.0
C409 C 0.77425 0.9046 0.05086 0.0
C410 C 0.76476 0.94606 0.05677 0.0
C411 C 0.76752 0.98078 0.04443 0.0
C412 C 0.78074 0.9736 0.0261 0.0
H413 H 0.82177 0.15889 0.99934 0.0
H414 H 0.85803 0.16326 0.05701 0.0
H415 H 0.92718 0.19532 0.04843 0.0
H416 H 0.92631 0.13032 0.98222 0.0
H417 H 0.92149 0.16175 0.96159 0.0
H418 H 0.87452 0.13979 0.97225 0.0
H419 H 0.84139 0.21513 0.97421 0.0
H420 H 0.8883 0.23736 0.96361 0.0
H421 H 0.87044 0.25715 0.9856 0.0
H422 H 0.99068 0.22932 0.03385 0.0
H423 H 0.04754 0.25814 0.01409 0.0
H424 H 0.97236 0.22833 0.96552 0.0
C425 C 0.84427 0.16666 0.01016 0.0
C426 C 0.83449 0.15881 0.02887 0.0
C427 C 0.86491 0.16892 0.0426 0.0
C428 C 0.90418 0.18726 0.03787 0.0
C429 C 0.91274 0.19476 0.01932 0.0
C430 C 0.88392 0.18436 1.00565 0.0
C431 C 0.90159 0.19475 0.98673 0.0
C432 C 0.90626 0.15423 0.97501 0.0
C433 C 0.87377 0.22808 0.97697 0.0
C434 C 0.94473 0.21297 0.99193 0.0
C435 C 0.95024 0.21297 0.01082 0.0
C436 C 0.98687 0.22924 0.01904 0.0
C437 C 0.01891 0.24572 1.00767 0.0
C438 C 0.01443 0.24543 0.98825 0.0
C439 C 0.9768 0.22871 0.9803 0.0
H440 H 0.66585 0.85141 0.78656 0.0
H441 H 0.66998 0.75061 0.74558 0.0
H442 H 0.69762 0.80114 0.72275 0.0
H443 H 0.63262 0.93429 0.7565 0.0
H444 H 0.66546 0.97494 0.76683 0.0
H445 H 0.64715 0.93075 0.78047 0.0
H446 H 0.72514 0.91279 0.7893 0.0
H447 H 0.74369 0.95708 0.77575 0.0
H448 H 0.76403 0.90441 0.77137 0.0
H449 H 0.71934 0.86234 0.70369 0.0
H450 H 0.74013 0.93087 0.68989 0.0
H451 H 0.7266 0.9925 0.74311 0.0
C452 C 0.67293 0.83996 0.77283 0.0
C453 C 0.66566 0.797 0.76789 0.0
C454 C 0.67536 0.78326 0.74976 0.0
C455 C 0.69102 0.81174 0.73664 0.0
C456 C 0.69735 0.85384 0.74186 0.0
C457 C 0.6892 0.86797 0.75954 0.0
C458 C 0.69892 0.91511 0.76136 0.0
C459 C 0.65863 0.94024 0.7666 0.0
C460 C 0.73511 0.92279 0.77527 0.0
C461 C 0.71313 0.92517 0.74187 0.0
C462 C 0.71165 0.88929 0.73088 0.0
C463 C 0.72116 0.89062 0.71217 0.0
C464 C 0.73272 0.9297 0.70445 0.0
C465 C 0.73519 0.96682 0.71546 0.0
C466 C 0.72548 0.96444 0.73444 0.0
H467 H 0.95448 0.27908 0.29627 0.0
H468 H 0.02849 0.23985 0.24864 0.0
H469 H 0.96992 0.26152 0.22822 0.0
H470 H 0.85163 0.24313 0.27822 0.0
H471 H 0.82239 0.28715 0.2879 0.0
H472 H 0.86998 0.26821 0.29912 0.0
H473 H 0.90256 0.34391 0.29769 0.0
H474 H 0.85504 0.3631 0.28653 0.0
H475 H 0.90632 0.37067 0.27581 0.0
H476 H 0.90664 0.29179 0.21271 0.0
H477 H 0.83936 0.326 0.20304 0.0
H478 H 0.80266 0.34116 0.26023 0.0
C479 C 0.95821 0.27502 0.28155 0.0
C480 C 0.99609 0.25778 0.27406 0.0
C481 C 0.99972 0.25274 0.25473 0.0
C482 C 0.96664 0.26499 0.24297 0.0
C483 C 0.92976 0.28174 0.25073 0.0
C484 C 0.92502 0.28648 0.26955 0.0
C485 C 0.88177 0.30539 0.27415 0.0
C486 C 0.85485 0.27409 0.28552 0.0
C487 C 0.88674 0.34832 0.28413 0.0
C488 C 0.86344 0.31114 0.25496 0.0
C489 C 0.89189 0.29744 0.24169 0.0
C490 C 0.88373 0.30199 0.22295 0.0
C491 C 0.84557 0.32143 0.21758 0.0
C492 C 0.81579 0.33535 0.23089 0.0
C493 C 0.82455 0.32968 0.24981 0.0
H494 H 0.28862 0.01209 0.7527 0.0
H495 H 0.27 0.06339 0.69789 0.0
H496 H 0.28957 0.13506 0.70926 0.0
H497 H 0.25106 0.10243 0.77878 0.0
H498 H 0.29159 0.09808 0.79628 0.0
H499 H 0.27374 0.05126 0.78417 0.0
H500 H 0.35151 0.03471 0.77445 0.0
H501 H 0.36962 0.08126 0.78665 0.0
H502 H 0.38215 0.07475 0.76259 0.0
H503 H 0.30862 0.20103 0.72674 0.0
H504 H 0.33618 0.2558 0.74798 0.0
H505 H 0.34909 0.16073 0.7909 0.0
C506 C 0.28851 0.03855 0.74316 0.0
C507 C 0.27748 0.03258 0.72448 0.0
C508 C 0.27842 0.06753 0.71225 0.0
C509 C 0.2892 0.10829 0.71861 0.0
C510 C 0.29973 0.11324 0.73714 0.0
C511 C 0.30033 0.07923 0.74917 0.0
C512 C 0.31576 0.09274 0.76809 0.0
C513 C 0.28095 0.08571 0.78269 0.0
C514 C 0.35723 0.06949 0.77324 0.0
C515 C 0.32358 0.1397 0.76482 0.0
C516 C 0.31333 0.15093 0.74697 0.0
C517 C 0.317 0.19261 0.74072 0.0
C518 C 0.33245 0.22353 0.75293 0.0
C519 C 0.34481 0.21248 0.77107 0.0
C520 C 0.33999 0.17003 0.7771 0.0
H521 H 0.06746 0.7101 0.3059 0.0
H522 H 0.98071 0.74561 0.26189 0.0
H523 H 0.03257 0.72037 0.23895 0.0
H524 H 0.16474 0.74128 0.28198 0.0
H525 H 0.19557 0.6976 0.29096 0.0
H526 H 0.15184 0.71893 0.30414 0.0
H527 H 0.11775 0.64392 0.30588 0.0
H528 H 0.16133 0.62239 0.29268 0.0
H529 H 0.10722 0.61503 0.2849 0.0
H530 H 0.0915 0.68831 0.22074 0.0
H531 H 0.15632 0.65458 0.20822 0.0
H532 H 0.2071 0.64224 0.26358 0.0
C533 C 0.0595 0.71271 0.29144 0.0
C534 C 0.01994 0.72986 0.28573 0.0
C535 C 0.0108 0.73279 0.26665 0.0
C536 C 0.04003 0.71845 0.25348 0.0
C537 C 0.07854 0.70156 0.25953 0.0
C538 C 0.0886 0.69891 0.27802 0.0
C539 C 0.13243 0.67942 0.28071 0.0
C540 C 0.16295 0.71121 0.29 0.0
C541 C 0.12948 0.63771 0.29169 0.0
C542 C 0.14508 0.67119 0.26086 0.0
C543 C 0.11336 0.68406 0.2489 0.0
C544 C 0.11677 0.67842 0.22994 0.0
C545 C 0.15365 0.65912 0.22296 0.0
C546 C 0.18684 0.64602 0.2349 0.0
C547 C 0.18248 0.6524 0.2541 0.0
H548 H 0.7354 0.52646 0.52043 0.0
H549 H 0.75623 0.56799 0.57674 0.0
H550 H 0.73673 0.64143 0.56793 0.0
H551 H 0.77516 0.62031 0.49781 0.0
H552 H 0.73503 0.61922 0.48003 0.0
H553 H 0.75214 0.57037 0.49064 0.0
H554 H 0.67393 0.55281 0.49943 0.0
H555 H 0.65657 0.60142 0.48873 0.0
H556 H 0.64337 0.59097 0.51246 0.0
H557 H 0.71567 0.71046 0.55274 0.0
H558 H 0.68805 0.7684 0.53311 0.0
H559 H 0.67844 0.6804 0.48717 0.0
C560 C 0.73605 0.55103 0.5309 0.0
C561 C 0.74754 0.54168 0.54924 0.0
C562 C 0.74743 0.57453 0.56261 0.0
C563 C 0.73665 0.61633 0.55771 0.0
C564 C 0.72572 0.62452 0.53946 0.0
C565 C 0.72486 0.59267 0.52632 0.0
C566 C 0.71008 0.60933 0.50786 0.0
C567 C 0.74521 0.60452 0.49323 0.0
C568 C 0.66852 0.58733 0.50177 0.0
C569 C 0.70266 0.65555 0.51266 0.0
C570 C 0.71235 0.66384 0.53088 0.0
C571 C 0.70793 0.70435 0.53846 0.0
C572 C 0.69241 0.73707 0.52719 0.0
C573 C 0.68105 0.72886 0.50864 0.0
C574 C 0.68677 0.68764 0.5013 0.0
H575 H 0.69622 0.36722 0.5004 0.0
H576 H 0.65651 0.3619 0.5576 0.0
H577 H 0.58657 0.33304 0.54794 0.0
H578 H 0.59405 0.40046 0.48229 0.0
H579 H 0.59911 0.36958 0.46147 0.0
H580 H 0.64611 0.38944 0.47289 0.0
H581 H 0.67639 0.31289 0.47467 0.0
H582 H 0.62949 0.29278 0.46326 0.0
H583 H 0.64504 0.27156 0.48531 0.0
H584 H 0.52243 0.30192 0.53217 0.0
H585 H 0.46655 0.27462 0.51134 0.0
H586 H 0.54635 0.30372 0.46417 0.0
C587 C 0.67284 0.35992 0.51091 0.0
C588 C 0.68188 0.36656 0.52979 0.0
C589 C 0.65026 0.35709 0.54308 0.0
C590 C 0.6105 0.34063 0.53772 0.0
C591 C 0.6027 0.33436 0.51901 0.0
C592 C 0.63281 0.34408 0.50579 0.0
C593 C 0.6161 0.33501 0.48657 0.0
C594 C 0.6137 0.37607 0.47513 0.0
C595 C 0.64338 0.30104 0.47689 0.0
C596 C 0.572 0.31821 0.49105 0.0
C597 C 0.56507 0.31787 0.50986 0.0
C598 C 0.52736 0.30236 0.51742 0.0
C599 C 0.49588 0.28679 0.50547 0.0
C600 C 0.50203 0.28722 0.48614 0.0
C601 C 0.54056 0.30342 0.47887 0.0
H602 H 0.28031 0.50096 0.51714 0.0
H603 H 0.23529 0.44111 0.56731 0.0
H604 H 0.24818 0.37036 0.55372 0.0
H605 H 0.2401 0.42124 0.48457 0.0
H606 H 0.28675 0.42373 0.47011 0.0
H607 H 0.27026 0.46996 0.48297 0.0
H608 H 0.34498 0.47452 0.49813 0.0
H609 H 0.36173 0.42854 0.48524 0.0
H610 H 0.366 0.42876 0.50999 0.0
H611 H 0.2672 0.30662 0.53535 0.0
H612 H 0.29864 0.25326 0.51458 0.0
H613 H 0.33556 0.35369 0.47674 0.0
C614 C 0.27275 0.47287 0.52512 0.0
C615 C 0.25658 0.47633 0.5432 0.0
C616 C 0.24781 0.43904 0.55344 0.0
C617 C 0.25471 0.39875 0.5458 0.0
C618 C 0.27084 0.39631 0.52798 0.0
C619 C 0.2803 0.43226 0.51782 0.0
C620 C 0.30078 0.42053 0.4996 0.0
C621 C 0.27279 0.43471 0.48335 0.0
C622 C 0.34606 0.43919 0.49816 0.0
C623 C 0.30173 0.37245 0.50124 0.0
C624 C 0.28354 0.35923 0.51759 0.0
C625 C 0.28143 0.31649 0.52247 0.0
C626 C 0.29932 0.2864 0.51054 0.0
C627 C 0.31961 0.29924 0.49402 0.0
C628 C 0.32011 0.34283 0.48922 0.0
H629 H 0.46037 0.73492 0.47336 0.0
H630 H 0.54272 0.75466 0.52067 0.0
H631 H 0.48817 0.72319 0.54091 0.0
H632 H 0.36275 0.76254 0.49698 0.0
H633 H 0.33084 0.72359 0.48501 0.0
H634 H 0.37705 0.7462 0.47399 0.0
H635 H 0.40749 0.67057 0.46863 0.0
H636 H 0.3614 0.64775 0.47967 0.0
H637 H 0.41411 0.63526 0.48796 0.0
H638 H 0.42588 0.68733 0.55604 0.0
H639 H 0.35687 0.6555 0.5653 0.0
H640 H 0.31279 0.66357 0.50877 0.0
C641 C 0.46684 0.7325 0.48797 0.0
C642 C 0.5058 0.74718 0.49543 0.0
C643 C 0.51298 0.74387 0.51465 0.0
C644 C 0.4823 0.72583 0.52628 0.0
C645 C 0.44423 0.7117 0.51855 0.0
C646 C 0.43609 0.71529 0.49989 0.0
C647 C 0.39174 0.69917 0.49531 0.0
C648 C 0.36396 0.73502 0.48736 0.0
C649 C 0.39383 0.66091 0.48211 0.0
C650 C 0.37646 0.6859 0.51427 0.0
C651 C 0.40744 0.69287 0.52745 0.0
C652 C 0.4012 0.68201 0.54588 0.0
C653 C 0.36202 0.66385 0.55101 0.0
C654 C 0.32945 0.65746 0.53781 0.0
C655 C 0.33695 0.66861 0.51922 0.0
H656 H 0.31507 0.2857 0.4075 0.0
H657 H 0.33631 0.15119 0.41671 0.0
H658 H 0.28715 0.13386 0.39108 0.0
H659 H 0.20238 0.27477 0.39877 0.0
H660 H 0.20071 0.31626 0.38168 0.0
H661 H 0.23987 0.31825 0.39981 0.0
H662 H 0.30025 0.32296 0.37555 0.0
H663 H 0.26127 0.32102 0.35734 0.0
H664 H 0.30402 0.28275 0.3579 0.0
H665 H 0.23818 0.13137 0.36374 0.0
H666 H 0.18588 0.14329 0.33877 0.0
H667 H 0.18968 0.27899 0.34948 0.0
C668 C 0.30956 0.25268 0.40394 0.0
C669 C 0.32977 0.21967 0.41381 0.0
C670 C 0.32118 0.17679 0.40918 0.0
C671 C 0.29346 0.16671 0.39465 0.0
C672 C 0.27384 0.19991 0.38519 0.0
C673 C 0.28091 0.24202 0.38981 0.0
C674 C 0.25355 0.27143 0.37822 0.0
C675 C 0.22227 0.29666 0.39035 0.0
C676 C 0.28145 0.3013 0.36656 0.0
C677 C 0.2303 0.23931 0.36626 0.0
C678 C 0.24307 0.19829 0.37031 0.0
C679 C 0.22757 0.16329 0.36058 0.0
C680 C 0.19803 0.17035 0.34641 0.0
C681 C 0.18357 0.21193 0.34239 0.0
C682 C 0.19982 0.24681 0.3525 0.0
H683 H 0.23502 0.72329 0.59282 0.0
H684 H 0.18039 0.61881 0.62383 0.0
H685 H 0.174 0.66512 0.65114 0.0
H686 H 0.29927 0.76161 0.62907 0.0
H687 H 0.29312 0.8172 0.62363 0.0
H688 H 0.28866 0.7778 0.60571 0.0
H689 H 0.21369 0.80618 0.59717 0.0
H690 H 0.21807 0.84595 0.61497 0.0
H691 H 0.17322 0.81002 0.61472 0.0
H692 H 0.17697 0.72086 0.67551 0.0
H693 H 0.19057 0.78256 0.69574 0.0
H694 H 0.24682 0.85043 0.64969 0.0
C695 C 0.22075 0.71066 0.60525 0.0
C696 C 0.20767 0.66771 0.60622 0.0
C697 C 0.19035 0.65174 0.62283 0.0
C698 C 0.18654 0.67779 0.63839 0.0
C699 C 0.20061 0.71969 0.6372 0.0
C700 C 0.21743 0.73613 0.62109 0.0
C701 C 0.23318 0.7813 0.62403 0.0
C702 C 0.28142 0.78465 0.6204 0.0
C703 C 0.20803 0.81272 0.61201 0.0
C704 C 0.22302 0.78732 0.6443 0.0
C705 C 0.20378 0.75155 0.65154 0.0
C706 C 0.19186 0.74918 0.66999 0.0
C707 C 0.19977 0.78438 0.68139 0.0
C708 C 0.21986 0.8213 0.67435 0.0
C709 C 0.23155 0.82263 0.65552 0.0
H710 H 0.66654 0.78241 0.40633 0.0
H711 H 0.74568 0.80202 0.45466 0.0
H712 H 0.81019 0.79804 0.43535 0.0
H713 H 0.73548 0.70942 0.38268 0.0
H714 H 0.72575 0.73129 0.36014 0.0
H715 H 0.68538 0.73506 0.37771 0.0
H716 H 0.68318 0.8169 0.37367 0.0
H717 H 0.72346 0.81336 0.35605 0.0
H718 H 0.7318 0.8472 0.37578 0.0
H719 H 0.86617 0.78778 0.41135 0.0
H720 H 0.91039 0.77926 0.38345 0.0
H721 H 0.79591 0.77222 0.35 0.0
C722 C 0.69748 0.7859 0.4128 0.0
C723 C 0.70112 0.7924 0.43201 0.0
C724 C 0.74211 0.79724 0.43996 0.0
C725 C 0.77898 0.79484 0.42912 0.0
C726 C 0.77439 0.78829 0.41027 0.0
C727 C 0.73475 0.78453 0.40208 0.0
C728 C 0.739 0.77904 0.38139 0.0
C729 C 0.72029 0.73615 0.37512 0.0
C730 C 0.71812 0.81635 0.37112 0.0
C731 C 0.78718 0.77983 0.37931 0.0
C732 C 0.8069 0.78468 0.3962 0.0
C733 C 0.85114 0.78445 0.39801 0.0
C734 C 0.87598 0.77943 0.38211 0.0
C735 C 0.85657 0.77544 0.3646 0.0
C736 C 0.81156 0.77579 0.36321 0.0
H737 H 0.79055 0.21328 0.66906 0.0
H738 H 0.79856 0.10558 0.63179 0.0
H739 H 0.81027 0.15431 0.60571 0.0
H740 H 0.73052 0.27781 0.63903 0.0
H741 H 0.75569 0.32717 0.64555 0.0
H742 H 0.75311 0.28392 0.66172 0.0
H743 H 0.83526 0.28641 0.66551 0.0
H744 H 0.83809 0.32974 0.64933 0.0
H745 H 0.86884 0.28215 0.64544 0.0
H746 H 0.81717 0.21401 0.58345 0.0
H747 H 0.81436 0.28132 0.56609 0.0
H748 H 0.79879 0.35097 0.61735 0.0
C749 C 0.79561 0.20008 0.65545 0.0
C750 C 0.79399 0.15573 0.65242 0.0
C751 C 0.79969 0.13952 0.63438 0.0
C752 C 0.8066 0.1669 0.61949 0.0
C753 C 0.80739 0.21048 0.62283 0.0
C754 C 0.80182 0.22711 0.64032 0.0
C755 C 0.80044 0.27531 0.6398 0.0
C756 C 0.75738 0.29201 0.64694 0.0
C757 C 0.8379 0.29453 0.65067 0.0
C758 C 0.80539 0.28299 0.6193 0.0
C759 C 0.81003 0.24517 0.60982 0.0
C760 C 0.81385 0.24391 0.59071 0.0
C761 C 0.81225 0.28233 0.58097 0.0
C762 C 0.80639 0.32146 0.59033 0.0
C763 C 0.80348 0.32164 0.60978 0.0
H764 H 0.17212 0.28574 0.89864 0.0
H765 H 0.25495 0.29078 0.94648 0.0
H766 H 0.31801 0.28589 0.92629 0.0
H767 H 0.2344 0.21321 0.87147 0.0
H768 H 0.22513 0.24022 0.84997 0.0
H769 H 0.18602 0.24316 0.8681 0.0
H770 H 0.18945 0.32548 0.86718 0.0
H771 H 0.22843 0.32279 0.849 0.0
H772 H 0.24021 0.35182 0.86981 0.0
H773 H 0.37168 0.27613 0.9014 0.0
H774 H 0.41381 0.27076 0.87278 0.0
H775 H 0.2976 0.27874 0.84052 0.0
C776 C 0.20358 0.28583 0.9048 0.0
C777 C 0.20875 0.28844 0.92411 0.0
C778 C 0.25034 0.28898 0.93171 0.0
C779 C 0.28633 0.28601 0.92037 0.0
C780 C 0.28026 0.28331 0.90142 0.0
C781 C 0.24006 0.28396 0.89361 0.0
C782 C 0.24282 0.28244 0.87275 0.0
C783 C 0.22079 0.24237 0.86513 0.0
C784 C 0.22412 0.32305 0.86418 0.0
C785 C 0.2908 0.28033 0.87012 0.0
C786 C 0.31165 0.28027 0.88689 0.0
C787 C 0.35581 0.27664 0.88817 0.0
C788 C 0.37943 0.2734 0.87186 0.0
C789 C 0.35896 0.27461 0.8545 0.0
C790 C 0.31405 0.27823 0.85363 0.0
H791 H 0.27397 0.65317 0.14141 0.0
H792 H 0.32279 0.71483 0.19068 0.0
H793 H 0.3375 0.77968 0.17275 0.0
H794 H 0.3503 0.70133 0.10926 0.0
H795 H 0.3114 0.70691 0.09115 0.0
H796 H 0.30658 0.66422 0.10756 0.0
H797 H 0.23013 0.68913 0.1157 0.0
H798 H 0.23466 0.73176 0.0993 0.0
H799 H 0.22156 0.74334 0.12295 0.0
H800 H 0.3419 0.83925 0.15042 0.0
H801 H 0.33672 0.89016 0.12474 0.0
H802 H 0.2879 0.79025 0.08923 0.0
C803 C 0.28808 0.68019 0.1484 0.0
C804 C 0.29723 0.67882 0.1675 0.0
C805 C 0.31556 0.71496 0.1761 0.0
C806 C 0.32412 0.75198 0.16602 0.0
C807 C 0.31455 0.75233 0.14729 0.0
C808 C 0.29713 0.71741 0.1385 0.0
C809 C 0.28869 0.72684 0.11832 0.0
C810 C 0.31587 0.69811 0.10584 0.0
C811 C 0.24093 0.72252 0.11381 0.0
C812 C 0.30328 0.77282 0.11726 0.0
C813 C 0.31817 0.78672 0.13416 0.0
C814 C 0.3309 0.82861 0.13706 0.0
C815 C 0.32777 0.85729 0.1224 0.0
C816 C 0.3124 0.84398 0.10498 0.0
C817 C 0.30068 0.80098 0.1023 0.0
H818 H 0.82808 0.78648 0.91351 0.0
H819 H 0.84645 0.65115 0.92146 0.0
H820 H 0.79812 0.63617 0.89521 0.0
H821 H 0.71627 0.77826 0.90436 0.0
H822 H 0.71563 0.82091 0.8878 0.0
H823 H 0.75469 0.82083 0.90597 0.0
H824 H 0.81523 0.82587 0.88178 0.0
H825 H 0.77632 0.82579 0.86351 0.0
H826 H 0.81831 0.78667 0.86368 0.0
H827 H 0.74885 0.6364 0.86751 0.0
H828 H 0.69448 0.65122 0.84356 0.0
H829 H 0.70232 0.78586 0.85612 0.0
C830 C 0.82219 0.75376 0.90954 0.0
C831 C 0.84127 0.71989 0.91923 0.0
C832 C 0.83214 0.67743 0.91406 0.0
C833 C 0.80497 0.66868 0.89915 0.0
C834 C 0.78652 0.70279 0.88984 0.0
C835 C 0.79413 0.74446 0.89505 0.0
C836 C 0.76749 0.77513 0.88382 0.0
C837 C 0.73669 0.80025 0.89623 0.0
C838 C 0.79605 0.80513 0.87253 0.0
C839 C 0.74373 0.74426 0.87148 0.0
C840 C 0.75583 0.70273 0.87487 0.0
C841 C 0.73893 0.66876 0.86483 0.0
C842 C 0.70829 0.67744 0.85122 0.0
C843 C 0.6942 0.71956 0.84813 0.0
C844 C 0.71238 0.75331 0.85834 0.0
H845 H 0.71445 0.16588 0.11681 0.0
H846 H 0.7191 0.24193 0.06701 0.0
H847 H 0.72052 0.30741 0.08585 0.0
H848 H 0.6459 0.23858 0.14294 0.0
H849 H 0.67298 0.22825 0.16436 0.0
H850 H 0.67043 0.18755 0.1469 0.0
H851 H 0.75286 0.18165 0.14732 0.0
H852 H 0.7557 0.22251 0.16467 0.0
H853 H 0.7847 0.22858 0.14341 0.0
H854 H 0.72773 0.36425 0.11018 0.0
H855 H 0.73378 0.40864 0.13819 0.0
H856 H 0.72078 0.29585 0.1721 0.0
C857 C 0.71527 0.19631 0.10985 0.0
C858 C 0.71668 0.19876 0.09041 0.0
C859 C 0.71774 0.23923 0.08186 0.0
C860 C 0.71871 0.27662 0.09245 0.0
C861 C 0.71803 0.27303 0.11158 0.0
C862 C 0.71571 0.23394 0.1202 0.0
C863 C 0.71572 0.23885 0.14097 0.0
C864 C 0.67375 0.22233 0.14928 0.0
C865 C 0.75456 0.21658 0.14959 0.0
C866 C 0.71915 0.28676 0.14269 0.0
C867 C 0.72067 0.30588 0.12558 0.0
C868 C 0.726 0.34968 0.12365 0.0
C869 C 0.72961 0.3746 0.13963 0.0
C870 C 0.72742 0.35574 0.1573 0.0
C871 C 0.72196 0.31124 0.15878 0.0
H872 H 0.95583 0.91217 0.28491 0.0
H873 H 0.95406 0.89649 0.34418 0.0
H874 H 0.98898 0.96674 0.34794 0.0
H875 H 0.06011 0.95702 0.28342 0.0
H876 H 0.0486 0.99274 0.26467 0.0
H877 H 0.01971 0.94344 0.26674 0.0
H878 H 0.94815 0.98468 0.26669 0.0
H879 H 0.97683 0.03411 0.26454 0.0
H880 H 0.93978 0.02667 0.28324 0.0
H881 H 0.02309 0.03933 0.34505 0.0
H882 H 0.06032 0.10548 0.33571 0.0
H883 H 0.04665 0.06954 0.27835 0.0
C884 C 0.96218 0.92399 0.29866 0.0
C885 C 0.95171 0.8996 0.3143 0.0
C886 C 0.96162 0.91515 0.33208 0.0
C887 C 0.98131 0.95493 0.33433 0.0
C888 C 0.99166 0.97816 0.31861 0.0
C889 C 0.98294 0.96302 0.30111 0.0
C890 C 1.00033 0.99257 0.28648 0.0
C891 C 0.0342 0.9701 0.27464 0.0
C892 C 0.96411 0.01058 0.27454 0.0
C893 C 0.02008 0.02676 0.29846 0.0
C894 C 0.0141 0.01828 0.31695 0.0
C895 C 0.02829 0.04612 0.33062 0.0
C896 C 0.0493 0.08354 0.32522 0.0
C897 C 0.05671 0.09211 0.30638 0.0
C898 C 0.04197 0.06329 0.29288 0.0
H899 H 0.91987 0.04554 0.73007 0.0
H900 H 0.90183 0.04539 0.67086 0.0
H901 H 0.97382 0.01472 0.66675 0.0
H902 H 0.03287 0.06999 0.73059 0.0
H903 H 0.04424 0.03444 0.7494 0.0
H904 H 0.99248 0.05889 0.74759 0.0
H905 H 0.95684 0.98447 0.74831 0.0
H906 H 1.00849 0.9598 0.75007 0.0
H907 H 0.97273 0.94477 0.73173 0.0
H908 H 0.0483 0.98526 0.66912 0.0
H909 H 0.11766 0.95373 0.67791 0.0
H910 H 0.08461 0.96769 0.73561 0.0
C911 C 0.93136 0.03949 0.71625 0.0
C912 C 0.90563 0.04821 0.70075 0.0
C913 C 0.92121 0.039 0.68289 0.0
C914 C 0.96203 0.02171 0.68043 0.0
C915 C 0.98655 0.01318 0.69599 0.0
C916 C 0.97165 0.02132 0.71356 0.0
C917 C 1.00338 1.00694 0.728 0.0
C918 C 0.01918 0.04483 0.73957 0.0
C919 C 0.98421 0.97191 0.74024 0.0
C920 C 0.03848 0.98959 0.7158 0.0
C921 C 0.02841 0.994 0.69738 0.0
C922 C 0.05642 0.98137 0.6835 0.0
C923 C 0.09572 0.96359 0.68861 0.0
C924 C 0.10623 0.95796 0.7074 0.0
C925 C 0.07713 0.9711 0.72112 0.0
H926 H 0.06943 0.43659 0.9891 0.0
H927 H 0.07592 0.4105 0.93055 0.0
H928 H 0.03811 0.47826 0.9242 0.0
H929 H 0.96317 0.47776 0.98815 0.0
H930 H 0.97288 0.51676 1.00588 0.0
H931 H 1.00298 0.46803 1.00555 0.0
H932 H 0.0735 0.51118 1.00507 0.0
H933 H 0.04361 0.56007 1.00541 0.0
H934 H 0.08186 0.55043 0.98736 0.0
H935 H 1.00179 0.5508 0.92457 0.0
H936 H 0.96278 0.61749 0.93165 0.0
H937 H 0.97395 0.59104 0.99 0.0
C938 C 0.06329 0.44542 0.97493 0.0
C939 C 0.07607 0.41889 0.96026 0.0
C940 C 0.06653 0.43073 0.94193 0.0
C941 C 0.04523 0.4691 0.93823 0.0
C942 C 0.03297 0.49462 0.95305 0.0
C943 C 0.04111 0.48287 0.97105 0.0
C944 C 0.02228 0.51428 0.98458 0.0
C945 C 0.98831 0.49293 0.99675 0.0
C946 C 0.05741 0.53523 0.99629 0.0
C947 C 1.00243 0.54579 0.97142 0.0
C948 C 0.00953 0.53438 0.95328 0.0
C949 C 0.99566 0.55975 0.93872 0.0
C950 C 0.97369 0.59753 0.94284 0.0
C951 C 0.96505 0.60887 0.96133 0.0
C952 C 0.97959 0.58262 0.97574 0.0
H953 H 0.43235 0.97175 0.07306 0.0
H954 H 0.4121 0.94311 0.01522 0.0
H955 H 0.47778 0.98209 1.0073 0.0
H956 H 0.47558 0.07619 0.06762 0.0
H957 H 0.51547 0.07067 0.08534 0.0
H958 H 0.46649 0.04082 0.08675 0.0
H959 H 0.50918 0.97047 0.08885 0.0
H960 H 0.55829 1.00015 0.0877 0.0
H961 H 0.54806 0.95813 0.07136 0.0
H962 H 0.54217 0.02814 1.00528 0.0
H963 H 0.60882 0.06865 0.00963 0.0
H964 H 0.59202 0.0626 0.0689 0.0
C965 C 0.44202 0.97347 0.05876 0.0
C966 C 0.41712 0.9545 0.04474 0.0
C967 C 0.43084 0.95713 0.0262 0.0
C968 C 0.46792 0.9795 0.02154 0.0
C969 C 0.49139 0.99841 0.03561 0.0
C970 C 0.47966 0.99484 0.05388 0.0
C971 C 0.51189 0.01666 0.06632 0.0
C972 C 0.4911 0.05326 0.07714 0.0
C973 C 0.53312 0.98442 0.07932 0.0
C974 C 0.54322 0.03334 0.05214 0.0
C975 C 0.53025 0.02304 0.0345 0.0
C976 C 0.55296 0.03605 0.01903 0.0
C977 C 0.59059 0.05933 0.02164 0.0
C978 C 0.60558 0.06867 0.03959 0.0
C979 C 0.58135 0.05574 0.05502 0.0
H980 H 0.45139 0.43513 0.78496 0.0
H981 H 0.4719 0.39312 0.84108 0.0
H982 H 0.5046 0.46292 0.84865 0.0
H983 H 0.55111 0.48772 0.78072 0.0
H984 H 0.53064 0.52972 0.76635 0.0
H985 H 0.50565 0.47816 0.76607 0.0
H986 H 0.43301 0.51283 0.77419 0.0
H987 H 0.45785 0.56453 0.77456 0.0
H988 H 0.4288 0.54594 0.7944 0.0
H989 H 0.53458 0.53887 0.84982 0.0
H990 H 0.56684 0.60967 0.84348 0.0
H991 H 0.53162 0.59739 0.78602 0.0
C992 C 0.46227 0.44084 0.79891 0.0
C993 C 0.45868 0.40913 0.81252 0.0
C994 C 0.47428 0.41723 0.83049 0.0
C995 C 0.49266 0.45678 0.83492 0.0
C996 C 0.49579 0.48747 0.82112 0.0
C997 C 0.48155 0.47957 0.80341 0.0
C998 C 0.4915 0.5162 0.79066 0.0
C999 C 0.52152 0.5021 0.77504 0.0
C1000 C 0.45033 0.53604 0.78301 0.0
C1001 C 0.51367 0.54602 0.80391 0.0
C1002 C 0.5152 0.52945 0.82151 0.0
C1003 C 0.53373 0.552 0.83606 0.0
C1004 C 0.55178 0.59214 0.83239 0.0
C1005 C 0.55191 0.60854 0.81427 0.0
C1006 C 0.53228 0.58528 0.79997 0.0
H1007 H 0.57993 0.44518 0.23455 0.0
H1008 H 0.61198 0.45325 0.17656 0.0
H1009 H 0.54273 0.48755 0.17026 0.0
H1010 H 0.46567 0.42631 0.22914 0.0
H1011 H 0.45127 0.45955 0.24839 0.0
H1012 H 0.50199 0.43267 0.2482 0.0
H1013 H 0.54048 0.50485 0.25294 0.0
H1014 H 0.48991 0.53199 0.25299 0.0
H1015 H 0.53092 0.54766 0.23697 0.0
H1016 H 0.47075 0.52045 0.17008 0.0
H1017 H 0.40069 0.55322 0.17622 0.0
H1018 H 0.41676 0.52951 0.23466 0.0
C1019 C 0.57189 0.45357 0.22052 0.0
C1020 C 0.60087 0.44621 0.20597 0.0
C1021 C 0.58999 0.45853 0.18784 0.0
C1022 C 0.55079 0.47797 0.18413 0.0
C1023 C 0.52315 0.48547 0.19877 0.0
C1024 C 0.53316 0.47395 0.21662 0.0
C1025 C 0.49855 0.48792 0.22991 0.0
C1026 C 0.47816 0.44931 0.23947 0.0
C1027 C 0.51602 0.52002 0.24403 0.0
C1028 C 0.46759 0.50892 0.21671 0.0
C1029 C 0.48231 0.50668 0.1988 0.0
C1030 C 0.45893 0.52263 0.18405 0.0
C1031 C 0.41923 0.54116 0.18767 0.0
C1032 C 0.40362 0.54419 0.20591 0.0
C1033 C 0.42831 0.52817 0.22062 0.0
H1034 H 0.46055 0.09739 0.48755 0.0
H1035 H 0.45891 0.11797 0.42856 0.0
H1036 H 0.49967 0.05107 0.424 0.0
H1037 H 0.56871 0.0574 0.48922 0.0
H1038 H 0.55719 0.02007 0.50737 0.0
H1039 H 0.52725 0.06878 0.5057 0.0
H1040 H 0.45677 0.02561 0.50465 0.0
H1041 H 0.48647 0.97679 0.50629 0.0
H1042 H 0.45003 0.98481 0.48742 0.0
H1043 H 0.53601 0.97867 0.42619 0.0
H1044 H 0.57199 0.91146 0.43501 0.0
H1045 H 0.55564 0.94337 0.49266 0.0
C1046 C 0.46872 0.08772 0.47367 0.0
C1047 C 0.4563 0.1123 0.45836 0.0
C1048 C 0.46818 0.09931 0.44042 0.0
C1049 C 0.49116 0.06141 0.43773 0.0
C1050 C 0.50274 0.03767 0.45317 0.0
C1051 C 0.49253 0.05079 0.4708 0.0
C1052 C 0.50992 0.02062 0.48516 0.0
C1053 C 0.54272 0.04306 0.49759 0.0
C1054 C 0.47363 1.00079 0.49654 0.0
C1055 C 0.53098 0.98796 0.47288 0.0
C1056 C 0.52608 0.99796 0.45446 0.0
C1057 C 0.54064 0.97093 0.44057 0.0
C1058 C 0.56087 0.93287 0.44568 0.0
C1059 C 0.56706 0.92279 0.46448 0.0
C1060 C 0.5521 0.95084 0.47819 0.0
H1061 H 0.92662 0.45974 0.5696 0.0
H1062 H 0.90402 0.46094 0.51064 0.0
H1063 H 0.9703 0.50183 0.50605 0.0
H1064 H 0.97169 0.56365 0.57375 0.0
H1065 H 0.012 0.54879 0.59022 0.0
H1066 H 0.96252 0.51968 0.58917 0.0
H1067 H 1.00396 0.44928 0.58433 0.0
H1068 H 0.05357 0.4781 0.58561 0.0
H1069 H 0.04205 0.44538 0.56581 0.0
H1070 H 0.03546 0.54675 0.50792 0.0
H1071 H 0.10273 0.58348 0.51547 0.0
H1072 H 0.08772 0.54832 0.57288 0.0
C1073 C 0.9359 0.46838 0.55574 0.0
C1074 C 0.9102 0.45729 0.54046 0.0
C1075 C 0.9234 0.46885 0.52251 0.0
C1076 C 0.96081 0.49236 0.51977 0.0
C1077 C 0.9851 0.50337 0.5351 0.0
C1078 C 0.97384 0.49101 0.5527 0.0
C1079 C 1.00683 0.50561 0.56664 0.0
C1080 C 0.98706 0.53626 0.58078 0.0
C1081 C 0.02785 0.46731 0.57615 0.0
C1082 C 0.03804 0.5285 0.55413 0.0
C1083 C 0.02438 0.52737 0.53604 0.0
C1084 C 0.04679 0.5475 0.52199 0.0
C1085 C 0.0848 0.56855 0.52645 0.0
C1086 C 0.10045 0.56866 0.54474 0.0
C1087 C 0.07656 0.54856 0.55877 0.0
loop_
_geom_bond_atom_site_label_1
_geom_bond_atom_site_label_2
_geom_bond_distance
_geom_bond_site_symmetry_2
_ccdc_geom_bond_type
C0 O2 1.247 . S
C0 O4 1.258 . S
C1 O8 1.247 . S
C1 O9 1.258 . S
O2 C0 1.247 . S
O2 Zn3 2.028 . S
Zn3 O2 2.028 . S
Zn3 O7 2.035 . S
Zn3 O9 2.035 . S
Zn3 O10 2.028 . S
O4 C0 1.258 . S
O4 Zn5 2.035 . S
Zn5 O4 2.035 . S
Zn5 O6 2.028 . S
Zn5 O8 2.028 . S
Zn5 O11 2.035 . S
O6 Zn5 2.028 . S
O6 C12 1.247 . S
O7 Zn3 2.035 . S
O7 C12 1.258 . S
O8 C1 1.247 . S
O8 Zn5 2.028 . S
O9 C1 1.258 . S
O9 Zn3 2.035 . S
O10 Zn3 2.028 . S
O10 C13 1.247 . S
O11 Zn5 2.035 . S
O11 C13 1.258 . S
C12 O6 1.247 . S
C12 O7 1.258 . S
C13 O10 1.247 . S
C13 O11 1.258 . S
C14 O16 1.247 . S
C14 O18 1.258 . S
C15 O22 1.247 . S
C15 O23 1.258 . S
O16 C14 1.247 . S
O16 Zn17 2.028 . S
Zn17 O16 2.028 . S
Zn17 O21 2.035 . S
Zn17 O23 2.035 . S
Zn17 O24 2.028 . S
O18 C14 1.258 . S
O18 Zn19 2.035 . S
Zn19 O18 2.035 . S
Zn19 O20 2.028 . S
Zn19 O22 2.028 . S
Zn19 O25 2.035 . S
O20 Zn19 2.028 . S
O20 C26 1.247 . S
O21 Zn17 2.035 . S
O21 C26 1.258 . S
O22 C15 1.247 . S
O22 Zn19 2.028 . S
O23 C15 1.258 . S
O23 Zn17 2.035 . S
O24 Zn17 2.028 . S
O24 C27 1.247 . S
O25 Zn19 2.035 . S
O25 C27 1.258 . S
C26 O20 1.247 . S
C26 O21 1.258 . S
C27 O24 1.247 . S
C27 O25 1.258 . S
C28 O30 1.247 . S
C28 O32 1.258 . S
C29 O36 1.247 . S
C29 O37 1.258 . S
O30 C28 1.247 . S
O30 Zn31 2.028 . S
Zn31 O30 2.028 . S
Zn31 O35 2.035 . S
Zn31 O37 2.035 . S
Zn31 O38 2.028 . S
O32 C28 1.258 . S
O32 Zn33 2.035 . S
Zn33 O32 2.035 . S
Zn33 O34 2.028 . S
Zn33 O36 2.028 . S
Zn33 O39 2.035 . S
O34 Zn33 2.028 . S
O34 C40 1.247 . S
O35 Zn31 2.035 . S
O35 C40 1.258 . S
O36 C29 1.247 . S
O36 Zn33 2.028 . S
O37 C29 1.258 . S
O37 Zn31 2.035 . S
O38 Zn31 2.028 . S
O38 C41 1.247 . S
O39 Zn33 2.035 . S
O39 C41 1.258 . S
C40 O34 1.247 . S
C40 O35 1.258 . S
C41 O38 1.247 . S
C41 O39 1.258 . S
C42 O44 1.247 . S
C42 O46 1.258 . S
C43 O50 1.247 . S
C43 O51 1.258 . S
O44 C42 1.247 . S
O44 Zn45 2.028 . S
Zn45 O44 2.028 . S
Zn45 O49 2.035 . S
Zn45 O51 2.035 . S
Zn45 O52 2.028 . S
O46 C42 1.258 . S
O46 Zn47 2.035 . S
Zn47 O46 2.035 . S
Zn47 O48 2.028 . S
Zn47 O50 2.028 . S
Zn47 O53 2.035 . S
O48 Zn47 2.028 . S
O48 C54 1.247 . S
O49 Zn45 2.035 . S
O49 C54 1.258 . S
O50 C43 1.247 . S
O50 Zn47 2.028 . S
O51 C43 1.258 . S
O51 Zn45 2.035 . S
O52 Zn45 2.028 . S
O52 C55 1.247 . S
O53 Zn47 2.035 . S
O53 C55 1.258 . S
C54 O48 1.247 . S
C54 O49 1.258 . S
C55 O52 1.247 . S
C55 O53 1.258 . S
C56 O58 1.247 . S
C56 O60 1.258 . S
C57 O64 1.247 . S
C57 O65 1.258 . S
O58 C56 1.247 . S
O58 Zn59 2.028 . S
Zn59 O58 2.028 . S
Zn59 O63 2.035 . S
Zn59 O65 2.035 . S
Zn59 O66 2.028 . S
O60 C56 1.258 . S
O60 Zn61 2.035 . S
Zn61 O60 2.035 . S
Zn61 O62 2.028 . S
Zn61 O64 2.028 . S
Zn61 O67 2.035 . S
O62 Zn61 2.028 . S
O62 C68 1.247 . S
O63 Zn59 2.035 . S
O63 C68 1.258 . S
O64 C57 1.247 . S
O64 Zn61 2.028 . S
O65 C57 1.258 . S
O65 Zn59 2.035 . S
O66 Zn59 2.028 . S
O66 C69 1.247 . S
O67 Zn61 2.035 . S
O67 C69 1.258 . S
C68 O62 1.247 . S
C68 O63 1.258 . S
C69 O66 1.247 . S
C69 O67 1.258 . S
C70 O72 1.247 . S
C70 O74 1.258 . S
C71 O78 1.247 . S
C71 O79 1.258 . S
O72 C70 1.247 . S
O72 Zn73 2.028 . S
Zn73 O72 2.028 . S
Zn73 O77 2.035 . S
Zn73 O79 2.035 . S
Zn73 O80 2.028 . S
O74 C70 1.258 . S
O74 Zn75 2.035 . S
Zn75 O74 2.035 . S
Zn75 O76 2.028 . S
Zn75 O78 2.028 . S
Zn75 O81 2.035 . S
O76 Zn75 2.028 . S
O76 C82 1.247 . S
O77 Zn73 2.035 . S
O77 C82 1.258 . S
O78 C71 1.247 . S
O78 Zn75 2.028 . S
O79 C71 1.258 . S
O79 Zn73 2.035 . S
O80 Zn73 2.028 . S
O80 C83 1.247 . S
O81 Zn75 2.035 . S
O81 C83 1.258 . S
C82 O76 1.247 . S
C82 O77 1.258 . S
C83 O80 1.247 . S
C83 O81 1.258 . S
C84 O86 1.247 . S
C84 O88 1.258 . S
C85 O92 1.247 . S
C85 O93 1.258 . S
O86 C84 1.247 . S
O86 Zn87 2.028 . S
Zn87 O86 2.028 . S
Zn87 O91 2.035 . S
Zn87 O93 2.035 . S
Zn87 O94 2.028 . S
O88 C84 1.258 . S
O88 Zn89 2.035 . S
Zn89 O88 2.035 . S
Zn89 O90 2.028 . S
Zn89 O92 2.028 . S
Zn89 O95 2.035 . S
O90 Zn89 2.028 . S
O90 C96 1.247 . S
O91 Zn87 2.035 . S
O91 C96 1.258 . S
O92 C85 1.247 . S
O92 Zn89 2.028 . S
O93 C85 1.258 . S
O93 Zn87 2.035 . S
O94 Zn87 2.028 . S
O94 C97 1.247 . S
O95 Zn89 2.035 . S
O95 C97 1.258 . S
C96 O90 1.247 . S
C96 O91 1.258 . S
C97 O94 1.247 . S
C97 O95 1.258 . S
C98 O100 1.247 . S
C98 O102 1.258 . S
C99 O106 1.247 . S
C99 O107 1.258 . S
O100 C98 1.247 . S
O100 Zn101 2.028 . S
Zn101 O100 2.028 . S
Zn101 O105 2.035 . S
Zn101 O107 2.035 . S
Zn101 O108 2.028 . S
O102 C98 1.258 . S
O102 Zn103 2.035 . S
Zn103 O102 2.035 . S
Zn103 O104 2.028 . S
Zn103 O106 2.028 . S
Zn103 O109 2.035 . S
O104 Zn103 2.028 . S
O104 C110 1.247 . S
O105 Zn101 2.035 . S
O105 C110 1.258 . S
O106 C99 1.247 . S
O106 Zn103 2.028 . S
O107 C99 1.258 . S
O107 Zn101 2.035 . S
O108 Zn101 2.028 . S
O108 C111 1.247 . S
O109 Zn103 2.035 . S
O109 C111 1.258 . S
C110 O104 1.247 . S
C110 O105 1.258 . S
C111 O108 1.247 . S
C111 O109 1.258 . S
C112 O114 1.247 . S
C112 O116 1.258 . S
C113 O120 1.247 . S
C113 O121 1.258 . S
O114 C112 1.247 . S
O114 Zn115 2.028 . S
Zn115 O114 2.028 . S
Zn115 O119 2.035 . S
Zn115 O121 2.035 . S
Zn115 O122 2.028 . S
O116 C112 1.258 . S
O116 Zn117 2.035 . S
Zn117 O116 2.035 . S
Zn117 O118 2.028 . S
Zn117 O120 2.028 . S
Zn117 O123 2.035 . S
O118 Zn117 2.028 . S
O118 C124 1.247 . S
O119 Zn115 2.035 . S
O119 C124 1.258 . S
O120 C113 1.247 . S
O120 Zn117 2.028 . S
O121 C113 1.258 . S
O121 Zn115 2.035 . S
O122 Zn115 2.028 . S
O122 C125 1.247 . S
O123 Zn117 2.035 . S
O123 C125 1.258 . S
C124 O118 1.247 . S
C124 O119 1.258 . S
C125 O122 1.247 . S
C125 O123 1.258 . S
C126 O128 1.247 . S
C126 O130 1.258 . S
C127 O134 1.247 . S
C127 O135 1.258 . S
O128 C126 1.247 . S
O128 Zn129 2.028 . S
Zn129 O128 2.028 . S
Zn129 O133 2.035 . S
Zn129 O135 2.035 . S
Zn129 O136 2.028 . S
O130 C126 1.258 . S
O130 Zn131 2.035 . S
Zn131 O130 2.035 . S
Zn131 O132 2.028 . S
Zn131 O134 2.028 . S
Zn131 O137 2.035 . S
O132 Zn131 2.028 . S
O132 C138 1.247 . S
O133 Zn129 2.035 . S
O133 C138 1.258 . S
O134 C127 1.247 . S
O134 Zn131 2.028 . S
O135 C127 1.258 . S
O135 Zn129 2.035 . S
O136 Zn129 2.028 . S
O136 C139 1.247 . S
O137 Zn131 2.035 . S
O137 C139 1.258 . S
C138 O132 1.247 . S
C138 O133 1.258 . S
C139 O136 1.247 . S
C139 O137 1.258 . S
C140 O142 1.247 . S
C140 O144 1.258 . S
C141 O148 1.247 . S
C141 O149 1.258 . S
O142 C140 1.247 . S
O142 Zn143 2.028 . S
Zn143 O142 2.028 . S
Zn143 O147 2.035 . S
Zn143 O149 2.035 . S
Zn143 O150 2.028 . S
O144 C140 1.258 . S
O144 Zn145 2.035 . S
Zn145 O144 2.035 . S
Zn145 O146 2.028 . S
Zn145 O148 2.028 . S
Zn145 O151 2.035 . S
O146 Zn145 2.028 . S
O146 C152 1.247 . S
O147 Zn143 2.035 . S
O147 C152 1.258 . S
O148 C141 1.247 . S
O148 Zn145 2.028 . S
O149 C141 1.258 . S
O149 Zn143 2.035 . S
O150 Zn143 2.028 . S
O150 C153 1.247 . S
O151 Zn145 2.035 . S
O151 C153 1.258 . S
C152 O146 1.247 . S
C152 O147 1.258 . S
C153 O150 1.247 . S
C153 O151 1.258 . S
C154 O156 1.247 . S
C154 O158 1.258 . S
C155 O162 1.247 . S
C155 O163 1.258 . S
O156 C154 1.247 . S
O156 Zn157 2.028 . S
Zn157 O156 2.028 . S
Zn157 O161 2.035 . S
Zn157 O163 2.035 . S
Zn157 O164 2.028 . S
O158 C154 1.258 . S
O158 Zn159 2.035 . S
Zn159 O158 2.035 . S
Zn159 O160 2.028 . S
Zn159 O162 2.028 . S
Zn159 O165 2.035 . S
O160 Zn159 2.028 . S
O160 C166 1.247 . S
O161 Zn157 2.035 . S
O161 C166 1.258 . S
O162 C155 1.247 . S
O162 Zn159 2.028 . S
O163 C155 1.258 . S
O163 Zn157 2.035 . S
O164 Zn157 2.028 . S
O164 C167 1.247 . S
O165 Zn159 2.035 . S
O165 C167 1.258 . S
C166 O160 1.247 . S
C166 O161 1.258 . S
C167 O164 1.247 . S
C167 O165 1.258 . S
C168 O170 1.247 . S
C168 O172 1.258 . S
C169 O176 1.247 . S
C169 O177 1.258 . S
O170 C168 1.247 . S
O170 Zn171 2.028 . S
Zn171 O170 2.028 . S
Zn171 O175 2.035 . S
Zn171 O177 2.035 . S
Zn171 O178 2.028 . S
O172 C168 1.258 . S
O172 Zn173 2.035 . S
Zn173 O172 2.035 . S
Zn173 O174 2.028 . S
Zn173 O176 2.028 . S
Zn173 O179 2.035 . S
O174 Zn173 2.028 . S
O174 C180 1.247 . S
O175 Zn171 2.035 . S
O175 C180 1.258 . S
O176 C169 1.247 . S
O176 Zn173 2.028 . S
O177 C169 1.258 . S
O177 Zn171 2.035 . S
O178 Zn171 2.028 . S
O178 C181 1.247 . S
O179 Zn173 2.035 . S
O179 C181 1.258 . S
C180 O174 1.247 . S
C180 O175 1.258 . S
C181 O178 1.247 . S
C181 O179 1.258 . S
C182 O184 1.247 . S
C182 O186 1.258 . S
C183 O190 1.247 . S
C183 O191 1.258 . S
O184 C182 1.247 . S
O184 Zn185 2.028 . S
Zn185 O184 2.028 . S
Zn185 O189 2.035 . S
Zn185 O191 2.035 . S
Zn185 O192 2.028 . S
O186 C182 1.258 . S
O186 Zn187 2.035 . S
Zn187 O186 2.035 . S
Zn187 O188 2.028 . S
Zn187 O190 2.028 . S
Zn187 O193 2.035 . S
O188 Zn187 2.028 . S
O188 C194 1.247 . S
O189 Zn185 2.035 . S
O189 C194 1.258 . S
O190 C183 1.247 . S
O190 Zn187 2.028 . S
O191 C183 1.258 . S
O191 Zn185 2.035 . S
O192 Zn185 2.028 . S
O192 C195 1.247 . S
O193 Zn187 2.035 . S
O193 C195 1.258 . S
C194 O188 1.247 . S
C194 O189 1.258 . S
C195 O192 1.247 . S
C195 O193 1.258 . S
C196 O198 1.247 . S
C196 O200 1.258 . S
C197 O204 1.247 . S
C197 O205 1.258 . S
O198 C196 1.247 . S
O198 Zn199 2.028 . S
Zn199 O198 2.028 . S
Zn199 O203 2.035 . S
Zn199 O205 2.035 . S
Zn199 O206 2.028 . S
O200 C196 1.258 . S
O200 Zn201 2.035 . S
Zn201 O200 2.035 . S
Zn201 O202 2.028 . S
Zn201 O204 2.028 . S
Zn201 O207 2.035 . S
O202 Zn201 2.028 . S
O202 C208 1.247 . S
O203 Zn199 2.035 . S
O203 C208 1.258 . S
O204 C197 1.247 . S
O204 Zn201 2.028 . S
O205 C197 1.258 . S
O205 Zn199 2.035 . S
O206 Zn199 2.028 . S
O206 C209 1.247 . S
O207 Zn201 2.035 . S
O207 C209 1.258 . S
C208 O202 1.247 . S
C208 O203 1.258 . S
C209 O206 1.247 . S
C209 O207 1.258 . S
C210 O212 1.247 . S
C210 O214 1.258 . S
C211 O218 1.247 . S
C211 O219 1.258 . S
O212 C210 1.247 . S
O212 Zn213 2.028 . S
Zn213 O212 2.028 . S
Zn213 O217 2.035 . S
Zn213 O219 2.035 . S
Zn213 O220 2.028 . S
O214 C210 1.258 . S
O214 Zn215 2.035 . S
Zn215 O214 2.035 . S
Zn215 O216 2.028 . S
Zn215 O218 2.028 . S
Zn215 O221 2.035 . S
O216 Zn215 2.028 . S
O216 C222 1.247 . S
O217 Zn213 2.035 . S
O217 C222 1.258 . S
O218 C211 1.247 . S
O218 Zn215 2.028 . S
O219 C211 1.258 . S
O219 Zn213 2.035 . S
O220 Zn213 2.028 . S
O220 C223 1.247 . S
O221 Zn215 2.035 . S
O221 C223 1.258 . S
C222 O216 1.247 . S
C222 O217 1.258 . S
C223 O220 1.247 . S
C223 O221 1.258 . S
H224 C236 0.930 . S
H225 C238 0.930 . S
H226 C239 0.930 . S
H227 C243 0.959 . S
H228 C243 0.959 . S
H229 C243 0.961 . S
H230 C244 0.960 . S
H231 C244 0.961 . S
H232 C244 0.959 . S
H233 C247 0.929 . S
H234 C248 0.931 . S
H235 C250 0.930 . S
C236 H224 0.930 . S
C236 C237 1.399 . S
C236 C241 1.399 . S
C237 C236 1.399 . S
C237 C238 1.376 . S
C238 H225 0.930 . S
C238 C237 1.376 . S
C238 C239 1.388 . S
C239 H226 0.930 . S
C239 C238 1.388 . S
C239 C240 1.390 . S
C240 C239 1.390 . S
C240 C241 1.394 . S
C240 C246 1.465 . S
C241 C236 1.399 . S
C241 C240 1.394 . S
C241 C242 1.516 . S
C242 C241 1.516 . S
C242 C243 1.502 . S
C242 C244 1.561 . S
C242 C245 1.526 . S
C243 H227 0.959 . S
C243 H228 0.959 . S
C243 H229 0.961 . S
C243 C242 1.502 . S
C244 H230 0.960 . S
C244 H231 0.961 . S
C244 H232 0.959 . S
C244 C242 1.561 . S
C245 C242 1.526 . S
C245 C246 1.396 . S
C245 C250 1.390 . S
C246 C240 1.465 . S
C246 C245 1.396 . S
C246 C247 1.399 . S
C247 H233 0.929 . S
C247 C246 1.399 . S
C247 C248 1.385 . S
C248 H234 0.931 . S
C248 C247 1.385 . S
C248 C249 1.389 . S
C249 C248 1.389 . S
C249 C250 1.387 . S
C250 H235 0.930 . S
C250 C245 1.390 . S
C250 C249 1.387 . S
H251 C263 0.930 . S
H252 C265 0.930 . S
H253 C266 0.930 . S
H254 C270 0.959 . S
H255 C270 0.959 . S
H256 C270 0.961 . S
H257 C271 0.960 . S
H258 C271 0.961 . S
H259 C271 0.959 . S
H260 C274 0.929 . S
H261 C275 0.931 . S
H262 C277 0.930 . S
C263 H251 0.930 . S
C263 C264 1.399 . S
C263 C268 1.399 . S
C264 C263 1.399 . S
C264 C265 1.376 . S
C265 H252 0.930 . S
C265 C264 1.376 . S
C265 C266 1.388 . S
C266 H253 0.930 . S
C266 C265 1.388 . S
C266 C267 1.390 . S
C267 C266 1.390 . S
C267 C268 1.394 . S
C267 C273 1.465 . S
C268 C263 1.399 . S
C268 C267 1.394 . S
C268 C269 1.516 . S
C269 C268 1.516 . S
C269 C270 1.502 . S
C269 C271 1.561 . S
C269 C272 1.526 . S
C270 H254 0.959 . S
C270 H255 0.959 . S
C270 H256 0.961 . S
C270 C269 1.502 . S
C271 H257 0.960 . S
C271 H258 0.961 . S
C271 H259 0.959 . S
C271 C269 1.561 . S
C272 C269 1.526 . S
C272 C273 1.396 . S
C272 C277 1.390 . S
C273 C267 1.465 . S
C273 C272 1.396 . S
C273 C274 1.399 . S
C274 H260 0.929 . S
C274 C273 1.399 . S
C274 C275 1.385 . S
C275 H261 0.931 . S
C275 C274 1.385 . S
C275 C276 1.389 . S
C276 C275 1.389 . S
C276 C277 1.387 . S
C277 H262 0.930 . S
C277 C272 1.390 . S
C277 C276 1.387 . S
H278 C290 0.930 . S
H279 C292 0.930 . S
H280 C293 0.930 . S
H281 C297 0.959 . S
H282 C297 0.959 . S
H283 C297 0.961 . S
H284 C298 0.960 . S
H285 C298 0.961 . S
H286 C298 0.959 . S
H287 C301 0.929 . S
H288 C302 0.931 . S
H289 C304 0.930 . S
C290 H278 0.930 . S
C290 C291 1.399 . S
C290 C295 1.399 . S
C291 C290 1.399 . S
C291 C292 1.376 . S
C292 H279 0.930 . S
C292 C291 1.376 . S
C292 C293 1.388 . S
C293 H280 0.930 . S
C293 C292 1.388 . S
C293 C294 1.390 . S
C294 C293 1.390 . S
C294 C295 1.394 . S
C294 C300 1.465 . S
C295 C290 1.399 . S
C295 C294 1.394 . S
C295 C296 1.516 . S
C296 C295 1.516 . S
C296 C297 1.502 . S
C296 C298 1.561 . S
C296 C299 1.526 . S
C297 H281 0.959 . S
C297 H282 0.959 . S
C297 H283 0.961 . S
C297 C296 1.502 . S
C298 H284 0.960 . S
C298 H285 0.961 . S
C298 H286 0.959 . S
C298 C296 1.561 . S
C299 C296 1.526 . S
C299 C300 1.396 . S
C299 C304 1.390 . S
C300 C294 1.465 . S
C300 C299 1.396 . S
C300 C301 1.399 . S
C301 H287 0.929 . S
C301 C300 1.399 . S
C301 C302 1.385 . S
C302 H288 0.931 . S
C302 C301 1.385 . S
C302 C303 1.389 . S
C303 C302 1.389 . S
C303 C304 1.387 . S
C304 H289 0.930 . S
C304 C299 1.390 . S
C304 C303 1.387 . S
H305 C317 0.930 . S
H306 C319 0.930 . S
H307 C320 0.930 . S
H308 C324 0.959 . S
H309 C324 0.959 . S
H310 C324 0.961 . S
H311 C325 0.960 . S
H312 C325 0.961 . S
H313 C325 0.959 . S
H314 C328 0.929 . S
H315 C329 0.931 . S
H316 C331 0.930 . S
C317 H305 0.930 . S
C317 C318 1.399 . S
C317 C322 1.399 . S
C318 C317 1.399 . S
C318 C319 1.376 . S
C319 H306 0.930 . S
C319 C318 1.376 . S
C319 C320 1.388 . S
C320 H307 0.930 . S
C320 C319 1.388 . S
C320 C321 1.390 . S
C321 C320 1.390 . S
C321 C322 1.394 . S
C321 C327 1.465 . S
C322 C317 1.399 . S
C322 C321 1.394 . S
C322 C323 1.516 . S
C323 C322 1.516 . S
C323 C324 1.502 . S
C323 C325 1.561 . S
C323 C326 1.526 . S
C324 H308 0.959 . S
C324 H309 0.959 . S
C324 H310 0.961 . S
C324 C323 1.502 . S
C325 H311 0.960 . S
C325 H312 0.961 . S
C325 H313 0.959 . S
C325 C323 1.561 . S
C326 C323 1.526 . S
C326 C327 1.396 . S
C326 C331 1.390 . S
C327 C321 1.465 . S
C327 C326 1.396 . S
C327 C328 1.399 . S
C328 H314 0.929 . S
C328 C327 1.399 . S
C328 C329 1.385 . S
C329 H315 0.931 . S
C329 C328 1.385 . S
C329 C330 1.389 . S
C330 C329 1.389 . S
C330 C331 1.387 . S
C331 H316 0.930 . S
C331 C326 1.390 . S
C331 C330 1.387 . S
H332 C344 0.946 1_565 S
H333 C346 0.930 . S
H334 C347 0.930 . S
H335 C351 0.959 . S
H336 C351 0.959 . S
H337 C351 0.961 . S
H338 C352 0.978 . S
H339 C352 0.961 . S
H340 C352 0.959 . S
H341 C355 0.929 . S
H342 C356 0.931 . S
H343 C358 0.930 . S
C344 H332 0.946 1_545 S
C344 C345 1.374 1_556 S
C344 C349 1.407 . S
C345 C344 1.374 1_554 S
C345 C346 1.376 . S
C346 H333 0.930 . S
C346 C345 1.376 . S
C346 C347 1.388 . S
C347 H334 0.930 . S
C347 C346 1.388 . S
C347 C348 1.390 . S
C348 C347 1.390 . S
C348 C349 1.394 1_554 S
C348 C354 1.465 1_554 S
C349 C344 1.407 . S
C349 C348 1.394 1_556 S
C349 C350 1.516 . S
C350 C349 1.516 . S
C350 C351 1.502 . S
C350 C352 1.561 . S
C350 C353 1.526 . S
C351 H335 0.959 . S
C351 H336 0.959 . S
C351 H337 0.961 . S
C351 C350 1.502 . S
C352 H338 0.978 . S
C352 H339 0.961 . S
C352 H340 0.959 . S
C352 C350 1.561 . S
C353 C350 1.526 . S
C353 C354 1.396 . S
C353 C358 1.390 . S
C354 C348 1.465 1_556 S
C354 C353 1.396 . S
C354 C355 1.399 1_556 S
C355 H341 0.929 . S
C355 C354 1.399 1_554 S
C355 C356 1.385 1_554 S
C356 H342 0.931 . S
C356 C355 1.385 1_556 S
C356 C357 1.389 . S
C357 C356 1.389 . S
C357 C358 1.387 . S
C358 H343 0.930 . S
C358 C353 1.390 . S
C358 C357 1.387 . S
H359 C371 0.930 . S
H360 C373 0.930 . S
H361 C374 0.930 . S
H362 C378 0.959 . S
H363 C378 0.959 . S
H364 C378 0.961 . S
H365 C379 0.960 . S
H366 C379 0.961 . S
H367 C379 0.959 . S
H368 C382 0.929 . S
H369 C383 0.931 1_655 S
H370 C385 0.947 . S
C371 H359 0.930 . S
C371 C372 1.399 . S
C371 C376 1.399 . S
C372 C371 1.399 . S
C372 C373 1.376 . S
C373 H360 0.930 . S
C373 C372 1.376 . S
C373 C374 1.388 . S
C374 H361 0.930 . S
C374 C373 1.388 . S
C374 C375 1.390 . S
C375 C374 1.390 . S
C375 C376 1.394 . S
C375 C381 1.467 1_554 S
C376 C371 1.399 . S
C376 C375 1.394 . S
C376 C377 1.516 . S
C377 C376 1.516 . S
C377 C378 1.502 . S
C377 C379 1.561 . S
C377 C380 1.526 . S
C378 H362 0.959 . S
C378 H363 0.959 . S
C378 H364 0.961 . S
C378 C377 1.502 . S
C379 H365 0.960 . S
C379 H366 0.961 . S
C379 H367 0.959 . S
C379 C377 1.561 . S
C380 C377 1.526 . S
C380 C381 1.397 1_554 S
C380 C385 1.390 1_554 S
C381 C375 1.467 1_556 S
C381 C380 1.397 1_556 S
C381 C382 1.396 . S
C382 H368 0.929 . S
C382 C381 1.396 . S
C382 C383 1.385 . S
C383 H369 0.931 1_455 S
C383 C382 1.385 . S
C383 C384 1.389 . S
C384 C383 1.389 . S
C384 C385 1.387 . S
C385 H370 0.947 . S
C385 C380 1.390 1_556 S
C385 C384 1.387 . S
H386 C398 0.930 . S
H387 C400 0.930 . S
H388 C401 0.967 . S
H389 C405 0.959 . S
H390 C405 0.959 . S
H391 C405 0.961 . S
H392 C406 0.960 . S
H393 C406 0.961 . S
H394 C406 0.959 . S
H395 C409 0.929 . S
H396 C410 0.931 . S
H397 C412 0.965 1_545 S
C398 H386 0.930 . S
C398 C399 1.399 . S
C398 C403 1.399 . S
C399 C398 1.399 . S
C399 C400 1.376 . S
C400 H387 0.930 . S
C400 C399 1.376 . S
C400 C401 1.363 1_556 S
C401 H388 0.967 . S
C401 C400 1.363 1_554 S
C401 C402 1.379 1_554 S
C402 C401 1.379 1_556 S
C402 C403 1.394 . S
C402 C408 1.465 1_556 S
C403 C398 1.399 . S
C403 C402 1.394 . S
C403 C404 1.516 . S
C404 C403 1.516 . S
C404 C405 1.502 . S
C404 C406 1.561 . S
C404 C407 1.526 . S
C405 H389 0.959 . S
C405 H390 0.959 . S
C405 H391 0.961 . S
C405 C404 1.502 . S
C406 H392 0.960 . S
C406 H393 0.961 . S
C406 H394 0.959 . S
C406 C404 1.561 . S
C407 C404 1.526 . S
C407 C408 1.396 1_556 S
C407 C412 1.408 . S
C408 C402 1.465 1_554 S
C408 C407 1.396 1_554 S
C408 C409 1.399 . S
C409 H395 0.929 . S
C409 C408 1.399 . S
C409 C410 1.385 . S
C410 H396 0.931 . S
C410 C409 1.385 . S
C410 C411 1.389 . S
C411 C410 1.389 . S
C411 C412 1.335 1_554 S
C412 H397 0.965 1_565 S
C412 C407 1.408 . S
C412 C411 1.335 1_556 S
H413 C425 0.930 . S
H414 C427 0.930 . S
H415 C428 0.930 . S
H416 C432 0.959 1_554 S
H417 C432 0.959 . S
H418 C432 0.960 . S
H419 C433 0.960 . S
H420 C433 0.961 . S
H421 C433 0.959 . S
H422 C436 0.929 . S
H423 C437 0.931 . S
H424 C439 0.930 . S
C425 H413 0.930 . S
C425 C426 1.399 . S
C425 C430 1.399 . S
C426 C425 1.399 . S
C426 C427 1.376 . S
C427 H414 0.930 . S
C427 C426 1.376 . S
C427 C428 1.388 . S
C428 H415 0.930 . S
C428 C427 1.388 . S
C428 C429 1.390 . S
C429 C428 1.390 . S
C429 C430 1.394 . S
C429 C435 1.465 . S
C430 C425 1.399 . S
C430 C429 1.394 . S
C430 C431 1.516 1_554 S
C431 C430 1.516 1_556 S
C431 C432 1.502 . S
C431 C433 1.561 . S
C431 C434 1.526 . S
C432 H416 0.959 1_556 S
C432 H417 0.959 . S
C432 H418 0.960 . S
C432 C431 1.502 . S
C433 H419 0.960 . S
C433 H420 0.961 . S
C433 H421 0.959 . S
C433 C431 1.561 . S
C434 C431 1.526 . S
C434 C435 1.396 1_556 S
C434 C439 1.390 . S
C435 C429 1.465 . S
C435 C434 1.396 1_554 S
C435 C436 1.399 . S
C436 H422 0.929 . S
C436 C435 1.399 . S
C436 C437 1.385 1_554 S
C437 H423 0.931 . S
C437 C436 1.385 1_556 S
C437 C438 1.389 . S
C438 C437 1.389 . S
C438 C439 1.387 . S
C439 H424 0.930 . S
C439 C434 1.390 . S
C439 C438 1.387 . S
H440 C452 0.930 . S
H441 C454 0.930 . S
H442 C455 0.930 . S
H443 C459 0.959 . S
H444 C459 0.959 . S
H445 C459 0.961 . S
H446 C460 0.960 . S
H447 C460 0.961 . S
H448 C460 0.959 . S
H449 C463 0.929 . S
H450 C464 0.931 . S
H451 C466 0.930 1_545 S
C452 H440 0.930 . S
C452 C453 1.399 . S
C452 C457 1.399 . S
C453 C452 1.399 . S
C453 C454 1.376 . S
C454 H441 0.930 . S
C454 C453 1.376 . S
C454 C455 1.388 . S
C455 H442 0.930 . S
C455 C454 1.388 . S
C455 C456 1.390 . S
C456 C455 1.390 . S
C456 C457 1.394 . S
C456 C462 1.465 . S
C457 C452 1.399 . S
C457 C456 1.394 . S
C457 C458 1.516 . S
C458 C457 1.516 . S
C458 C459 1.502 . S
C458 C460 1.561 . S
C458 C461 1.526 . S
C459 H443 0.959 . S
C459 H444 0.959 . S
C459 H445 0.961 . S
C459 C458 1.502 . S
C460 H446 0.960 . S
C460 H447 0.961 . S
C460 H448 0.959 . S
C460 C458 1.561 . S
C461 C458 1.526 . S
C461 C462 1.396 . S
C461 C466 1.390 . S
C462 C456 1.465 . S
C462 C461 1.396 . S
C462 C463 1.399 . S
C463 H449 0.929 . S
C463 C462 1.399 . S
C463 C464 1.385 . S
C464 H450 0.931 . S
C464 C463 1.385 . S
C464 C465 1.389 . S
C465 C464 1.389 . S
C465 C466 1.387 . S
C466 H451 0.930 1_565 S
C466 C461 1.390 . S
C466 C465 1.387 . S
H467 C479 0.930 . S
H468 C481 0.915 1_455 S
H469 C482 0.930 . S
H470 C486 0.959 . S
H471 C486 0.959 . S
H472 C486 0.961 . S
H473 C487 0.960 . S
H474 C487 0.961 . S
H475 C487 0.959 . S
H476 C490 0.929 . S
H477 C491 0.931 . S
H478 C493 0.930 . S
C479 H467 0.930 . S
C479 C480 1.399 . S
C479 C484 1.399 . S
C480 C479 1.399 . S
C480 C481 1.380 . S
C481 H468 0.915 1_655 S
C481 C480 1.380 . S
C481 C482 1.400 . S
C482 H469 0.930 . S
C482 C481 1.400 . S
C482 C483 1.390 . S
C483 C482 1.390 . S
C483 C484 1.394 . S
C483 C489 1.465 . S
C484 C479 1.399 . S
C484 C483 1.394 . S
C484 C485 1.516 . S
C485 C484 1.516 . S
C485 C486 1.502 . S
C485 C487 1.561 . S
C485 C488 1.526 . S
C486 H470 0.959 . S
C486 H471 0.959 . S
C486 H472 0.961 . S
C486 C485 1.502 . S
C487 H473 0.960 . S
C487 H474 0.961 . S
C487 H475 0.959 . S
C487 C485 1.561 . S
C488 C485 1.526 . S
C488 C489 1.396 . S
C488 C493 1.390 . S
C489 C483 1.465 . S
C489 C488 1.396 . S
C489 C490 1.399 . S
C490 H476 0.929 . S
C490 C489 1.399 . S
C490 C491 1.385 . S
C491 H477 0.931 . S
C491 C490 1.385 . S
C491 C492 1.389 . S
C492 C491 1.389 . S
C492 C493 1.387 . S
C493 H478 0.930 . S
C493 C488 1.390 . S
C493 C492 1.387 . S
H494 C506 0.930 . S
H495 C508 0.930 . S
H496 C509 0.930 . S
H497 C513 0.959 . S
H498 C513 0.959 . S
H499 C513 0.961 . S
H500 C514 0.960 . S
H501 C514 0.961 . S
H502 C514 0.959 . S
H503 C517 0.929 . S
H504 C518 0.931 . S
H505 C520 0.930 . S
C506 H494 0.930 . S
C506 C507 1.399 . S
C506 C511 1.399 . S
C507 C506 1.399 . S
C507 C508 1.376 . S
C508 H495 0.930 . S
C508 C507 1.376 . S
C508 C509 1.388 . S
C509 H496 0.930 . S
C509 C508 1.388 . S
C509 C510 1.390 . S
C510 C509 1.390 . S
C510 C511 1.394 . S
C510 C516 1.465 . S
C511 C506 1.399 . S
C511 C510 1.394 . S
C511 C512 1.516 . S
C512 C511 1.516 . S
C512 C513 1.502 . S
C512 C514 1.561 . S
C512 C515 1.526 . S
C513 H497 0.959 . S
C513 H498 0.959 . S
C513 H499 0.961 . S
C513 C512 1.502 . S
C514 H500 0.960 . S
C514 H501 0.961 . S
C514 H502 0.959 . S
C514 C512 1.561 . S
C515 C512 1.526 . S
C515 C516 1.396 . S
C515 C520 1.390 . S
C516 C510 1.465 . S
C516 C515 1.396 . S
C516 C517 1.399 . S
C517 H503 0.929 . S
C517 C516 1.399 . S
C517 C518 1.385 . S
C518 H504 0.931 . S
C518 C517 1.385 . S
C518 C519 1.389 . S
C519 C518 1.389 . S
C519 C520 1.387 . S
C520 H505 0.930 . S
C520 C515 1.390 . S
C520 C519 1.387 . S
H521 C533 0.930 . S
H522 C535 0.930 1_655 S
H523 C536 0.930 . S
H524 C540 0.959 . S
H525 C540 0.959 . S
H526 C540 0.961 . S
H527 C541 0.960 . S
H528 C541 0.961 . S
H529 C541 0.959 . S
H530 C544 0.929 . S
H531 C545 0.931 . S
H532 C547 0.930 . S
C533 H521 0.930 . S
C533 C534 1.399 . S
C533 C538 1.399 . S
C534 C533 1.399 . S
C534 C535 1.376 . S
C535 H522 0.930 1_455 S
C535 C534 1.376 . S
C535 C536 1.388 . S
C536 H523 0.930 . S
C536 C535 1.388 . S
C536 C537 1.390 . S
C537 C536 1.390 . S
C537 C538 1.394 . S
C537 C543 1.465 . S
C538 C533 1.399 . S
C538 C537 1.394 . S
C538 C539 1.516 . S
C539 C538 1.516 . S
C539 C540 1.502 . S
C539 C541 1.561 . S
C539 C542 1.526 . S
C540 H524 0.959 . S
C540 H525 0.959 . S
C540 H526 0.961 . S
C540 C539 1.502 . S
C541 H527 0.960 . S
C541 H528 0.961 . S
C541 H529 0.959 . S
C541 C539 1.561 . S
C542 C539 1.526 . S
C542 C543 1.396 . S
C542 C547 1.390 . S
C543 C537 1.465 . S
C543 C542 1.396 . S
C543 C544 1.399 . S
C544 H530 0.929 . S
C544 C543 1.399 . S
C544 C545 1.385 . S
C545 H531 0.931 . S
C545 C544 1.385 . S
C545 C546 1.389 . S
C546 C545 1.389 . S
C546 C547 1.387 . S
C547 H532 0.930 . S
C547 C542 1.390 . S
C547 C546 1.387 . S
H548 C560 0.930 . S
H549 C562 0.930 . S
H550 C563 0.930 . S
H551 C567 0.959 . S
H552 C567 0.959 . S
H553 C567 0.961 . S
H554 C568 0.960 . S
H555 C568 0.961 . S
H556 C568 0.959 . S
H557 C571 0.929 . S
H558 C572 0.931 . S
H559 C574 0.930 . S
C560 H548 0.930 . S
C560 C561 1.399 . S
C560 C565 1.399 . S
C561 C560 1.399 . S
C561 C562 1.376 . S
C562 H549 0.930 . S
C562 C561 1.376 . S
C562 C563 1.388 . S
C563 H550 0.930 . S
C563 C562 1.388 . S
C563 C564 1.390 . S
C564 C563 1.390 . S
C564 C565 1.394 . S
C564 C570 1.465 . S
C565 C560 1.399 . S
C565 C564 1.394 . S
C565 C566 1.516 . S
C566 C565 1.516 . S
C566 C567 1.502 . S
C566 C568 1.561 . S
C566 C569 1.526 . S
C567 H551 0.959 . S
C567 H552 0.959 . S
C567 H553 0.961 . S
C567 C566 1.502 . S
C568 H554 0.960 . S
C568 H555 0.961 . S
C568 H556 0.959 . S
C568 C566 1.561 . S
C569 C566 1.526 . S
C569 C570 1.396 . S
C569 C574 1.390 . S
C570 C564 1.465 . S
C570 C569 1.396 . S
C570 C571 1.399 . S
C571 H557 0.929 . S
C571 C570 1.399 . S
C571 C572 1.385 . S
C572 H558 0.931 . S
C572 C571 1.385 . S
C572 C573 1.389 . S
C573 C572 1.389 . S
C573 C574 1.387 . S
C574 H559 0.930 . S
C574 C569 1.390 . S
C574 C573 1.387 . S
H575 C587 0.930 . S
H576 C589 0.930 . S
H577 C590 0.930 . S
H578 C594 0.959 . S
H579 C594 0.959 . S
H580 C594 0.961 . S
H581 C595 0.960 . S
H582 C595 0.961 . S
H583 C595 0.959 . S
H584 C598 0.929 . S
H585 C599 0.931 . S
H586 C601 0.930 . S
C587 H575 0.930 . S
C587 C588 1.399 . S
C587 C592 1.399 . S
C588 C587 1.399 . S
C588 C589 1.376 . S
C589 H576 0.930 . S
C589 C588 1.376 . S
C589 C590 1.388 . S
C590 H577 0.930 . S
C590 C589 1.388 . S
C590 C591 1.390 . S
C591 C590 1.390 . S
C591 C592 1.394 . S
C591 C597 1.465 . S
C592 C587 1.399 . S
C592 C591 1.394 . S
C592 C593 1.516 . S
C593 C592 1.516 . S
C593 C594 1.502 . S
C593 C595 1.561 . S
C593 C596 1.526 . S
C594 H578 0.959 . S
C594 H579 0.959 . S
C594 H580 0.961 . S
C594 C593 1.502 . S
C595 H581 0.960 . S
C595 H582 0.961 . S
C595 H583 0.959 . S
C595 C593 1.561 . S
C596 C593 1.526 . S
C596 C597 1.396 . S
C596 C601 1.390 . S
C597 C591 1.465 . S
C597 C596 1.396 . S
C597 C598 1.399 . S
C598 H584 0.929 . S
C598 C597 1.399 . S
C598 C599 1.385 . S
C599 H585 0.931 . S
C599 C598 1.385 . S
C599 C600 1.389 . S
C600 C599 1.389 . S
C600 C601 1.387 . S
C601 H586 0.930 . S
C601 C596 1.390 . S
C601 C600 1.387 . S
H602 C614 0.930 . S
H603 C616 0.930 . S
H604 C617 0.930 . S
H605 C621 0.959 . S
H606 C621 0.959 . S
H607 C621 0.961 . S
H608 C622 0.960 . S
H609 C622 0.961 . S
H610 C622 0.959 . S
H611 C625 0.929 . S
H612 C626 0.931 . S
H613 C628 0.930 . S
C614 H602 0.930 . S
C614 C615 1.399 . S
C614 C619 1.399 . S
C615 C614 1.399 . S
C615 C616 1.376 . S
C616 H603 0.930 . S
C616 C615 1.376 . S
C616 C617 1.388 . S
C617 H604 0.930 . S
C617 C616 1.388 . S
C617 C618 1.390 . S
C618 C617 1.390 . S
C618 C619 1.394 . S
C618 C624 1.465 . S
C619 C614 1.399 . S
C619 C618 1.394 . S
C619 C620 1.516 . S
C620 C619 1.516 . S
C620 C621 1.502 . S
C620 C622 1.561 . S
C620 C623 1.526 . S
C621 H605 0.959 . S
C621 H606 0.959 . S
C621 H607 0.961 . S
C621 C620 1.502 . S
C622 H608 0.960 . S
C622 H609 0.961 . S
C622 H610 0.959 . S
C622 C620 1.561 . S
C623 C620 1.526 . S
C623 C624 1.396 . S
C623 C628 1.390 . S
C624 C618 1.465 . S
C624 C623 1.396 . S
C624 C625 1.399 . S
C625 H611 0.929 . S
C625 C624 1.399 . S
C625 C626 1.385 . S
C626 H612 0.931 . S
C626 C625 1.385 . S
C626 C627 1.389 . S
C627 C626 1.389 . S
C627 C628 1.387 . S
C628 H613 0.930 . S
C628 C623 1.390 . S
C628 C627 1.387 . S
H629 C641 0.930 . S
H630 C643 0.930 . S
H631 C644 0.930 . S
H632 C648 0.959 . S
H633 C648 0.959 . S
H634 C648 0.961 . S
H635 C649 0.960 . S
H636 C649 0.961 . S
H637 C649 0.959 . S
H638 C652 0.929 . S
H639 C653 0.931 . S
H640 C655 0.930 . S
C641 H629 0.930 . S
C641 C642 1.399 . S
C641 C646 1.399 . S
C642 C641 1.399 . S
C642 C643 1.376 . S
C643 H630 0.930 . S
C643 C642 1.376 . S
C643 C644 1.388 . S
C644 H631 0.930 . S
C644 C643 1.388 . S
C644 C645 1.390 . S
C645 C644 1.390 . S
C645 C646 1.394 . S
C645 C651 1.465 . S
C646 C641 1.399 . S
C646 C645 1.394 . S
C646 C647 1.516 . S
C647 C646 1.516 . S
C647 C648 1.502 . S
C647 C649 1.561 . S
C647 C650 1.526 . S
C648 H632 0.959 . S
C648 H633 0.959 . S
C648 H634 0.961 . S
C648 C647 1.502 . S
C649 H635 0.960 . S
C649 H636 0.961 . S
C649 H637 0.959 . S
C649 C647 1.561 . S
C650 C647 1.526 . S
C650 C651 1.396 . S
C650 C655 1.390 . S
C651 C645 1.465 . S
C651 C650 1.396 . S
C651 C652 1.399 . S
C652 H638 0.929 . S
C652 C651 1.399 . S
C652 C653 1.385 . S
C653 H639 0.931 . S
C653 C652 1.385 . S
C653 C654 1.389 . S
C654 C653 1.389 . S
C654 C655 1.387 . S
C655 H640 0.930 . S
C655 C650 1.390 . S
C655 C654 1.387 . S
H656 C668 0.930 . S
H657 C670 0.930 . S
H658 C671 0.930 . S
H659 C675 0.959 . S
H660 C675 0.959 . S
H661 C675 0.961 . S
H662 C676 0.960 . S
H663 C676 0.961 . S
H664 C676 0.959 . S
H665 C679 0.929 . S
H666 C680 0.931 . S
H667 C682 0.930 . S
C668 H656 0.930 . S
C668 C669 1.399 . S
C668 C673 1.399 . S
C669 C668 1.399 . S
C669 C670 1.376 . S
C670 H657 0.930 . S
C670 C669 1.376 . S
C670 C671 1.388 . S
C671 H658 0.930 . S
C671 C670 1.388 . S
C671 C672 1.390 . S
C672 C671 1.390 . S
C672 C673 1.394 . S
C672 C678 1.465 . S
C673 C668 1.399 . S
C673 C672 1.394 . S
C673 C674 1.516 . S
C674 C673 1.516 . S
C674 C675 1.502 . S
C674 C676 1.561 . S
C674 C677 1.526 . S
C675 H659 0.959 . S
C675 H660 0.959 . S
C675 H661 0.961 . S
C675 C674 1.502 . S
C676 H662 0.960 . S
C676 H663 0.961 . S
C676 H664 0.959 . S
C676 C674 1.561 . S
C677 C674 1.526 . S
C677 C678 1.396 . S
C677 C682 1.390 . S
C678 C672 1.465 . S
C678 C677 1.396 . S
C678 C679 1.399 . S
C679 H665 0.929 . S
C679 C678 1.399 . S
C679 C680 1.385 . S
C680 H666 0.931 . S
C680 C679 1.385 . S
C680 C681 1.389 . S
C681 C680 1.389 . S
C681 C682 1.387 . S
C682 H667 0.930 . S
C682 C677 1.390 . S
C682 C681 1.387 . S
H683 C695 0.930 . S
H684 C697 0.930 . S
H685 C698 0.930 . S
H686 C702 0.959 . S
H687 C702 0.959 . S
H688 C702 0.961 . S
H689 C703 0.960 . S
H690 C703 0.961 . S
H691 C703 0.959 . S
H692 C706 0.929 . S
H693 C707 0.931 . S
H694 C709 0.930 . S
C695 H683 0.930 . S
C695 C696 1.399 . S
C695 C700 1.399 . S
C696 C695 1.399 . S
C696 C697 1.376 . S
C697 H684 0.930 . S
C697 C696 1.376 . S
C697 C698 1.388 . S
C698 H685 0.930 . S
C698 C697 1.388 . S
C698 C699 1.390 . S
C699 C698 1.390 . S
C699 C700 1.394 . S
C699 C705 1.465 . S
C700 C695 1.399 . S
C700 C699 1.394 . S
C700 C701 1.516 . S
C701 C700 1.516 . S
C701 C702 1.502 . S
C701 C703 1.561 . S
C701 C704 1.526 . S
C702 H686 0.959 . S
C702 H687 0.959 . S
C702 H688 0.961 . S
C702 C701 1.502 . S
C703 H689 0.960 . S
C703 H690 0.961 . S
C703 H691 0.959 . S
C703 C701 1.561 . S
C704 C701 1.526 . S
C704 C705 1.396 . S
C704 C709 1.390 . S
C705 C699 1.465 . S
C705 C704 1.396 . S
C705 C706 1.399 . S
C706 H692 0.929 . S
C706 C705 1.399 . S
C706 C707 1.385 . S
C707 H693 0.931 . S
C707 C706 1.385 . S
C707 C708 1.389 . S
C708 C707 1.389 . S
C708 C709 1.387 . S
C709 H694 0.930 . S
C709 C704 1.390 . S
C709 C708 1.387 . S
H710 C722 0.930 . S
H711 C724 0.930 . S
H712 C725 0.930 . S
H713 C729 0.959 . S
H714 C729 0.959 . S
H715 C729 0.961 . S
H716 C730 0.960 . S
H717 C730 0.961 . S
H718 C730 0.959 . S
H719 C733 0.929 . S
H720 C734 0.931 . S
H721 C736 0.930 . S
C722 H710 0.930 . S
C722 C723 1.399 . S
C722 C727 1.399 . S
C723 C722 1.399 . S
C723 C724 1.376 . S
C724 H711 0.930 . S
C724 C723 1.376 . S
C724 C725 1.388 . S
C725 H712 0.930 . S
C725 C724 1.388 . S
C725 C726 1.390 . S
C726 C725 1.390 . S
C726 C727 1.394 . S
C726 C732 1.465 . S
C727 C722 1.399 . S
C727 C726 1.394 . S
C727 C728 1.516 . S
C728 C727 1.516 . S
C728 C729 1.502 . S
C728 C730 1.561 . S
C728 C731 1.526 . S
C729 H713 0.959 . S
C729 H714 0.959 . S
C729 H715 0.961 . S
C729 C728 1.502 . S
C730 H716 0.960 . S
C730 H717 0.961 . S
C730 H718 0.959 . S
C730 C728 1.561 . S
C731 C728 1.526 . S
C731 C732 1.396 . S
C731 C736 1.390 . S
C732 C726 1.465 . S
C732 C731 1.396 . S
C732 C733 1.399 . S
C733 H719 0.929 . S
C733 C732 1.399 . S
C733 C734 1.385 . S
C734 H720 0.931 . S
C734 C733 1.385 . S
C734 C735 1.389 . S
C735 C734 1.389 . S
C735 C736 1.387 . S
C736 H721 0.930 . S
C736 C731 1.390 . S
C736 C735 1.387 . S
H737 C749 0.930 . S
H738 C751 0.930 . S
H739 C752 0.930 . S
H740 C756 0.959 . S
H741 C756 0.959 . S
H742 C756 0.961 . S
H743 C757 0.960 . S
H744 C757 0.961 . S
H745 C757 0.959 . S
H746 C760 0.929 . S
H747 C761 0.931 . S
H748 C763 0.930 . S
C749 H737 0.930 . S
C749 C750 1.399 . S
C749 C754 1.399 . S
C750 C749 1.399 . S
C750 C751 1.376 . S
C751 H738 0.930 . S
C751 C750 1.376 . S
C751 C752 1.388 . S
C752 H739 0.930 . S
C752 C751 1.388 . S
C752 C753 1.390 . S
C753 C752 1.390 . S
C753 C754 1.394 . S
C753 C759 1.465 . S
C754 C749 1.399 . S
C754 C753 1.394 . S
C754 C755 1.516 . S
C755 C754 1.516 . S
C755 C756 1.502 . S
C755 C757 1.561 . S
C755 C758 1.526 . S
C756 H740 0.959 . S
C756 H741 0.959 . S
C756 H742 0.961 . S
C756 C755 1.502 . S
C757 H743 0.960 . S
C757 H744 0.961 . S
C757 H745 0.959 . S
C757 C755 1.561 . S
C758 C755 1.526 . S
C758 C759 1.396 . S
C758 C763 1.390 . S
C759 C753 1.465 . S
C759 C758 1.396 . S
C759 C760 1.399 . S
C760 H746 0.929 . S
C760 C759 1.399 . S
C760 C761 1.385 . S
C761 H747 0.931 . S
C761 C760 1.385 . S
C761 C762 1.389 . S
C762 C761 1.389 . S
C762 C763 1.387 . S
C763 H748 0.930 . S
C763 C758 1.390 . S
C763 C762 1.387 . S
H764 C776 0.930 . S
H765 C778 0.930 . S
H766 C779 0.930 . S
H767 C783 0.959 . S
H768 C783 0.959 . S
H769 C783 0.961 . S
H770 C784 0.960 . S
H771 C784 0.961 . S
H772 C784 0.959 . S
H773 C787 0.929 . S
H774 C788 0.931 . S
H775 C790 0.930 . S
C776 H764 0.930 . S
C776 C777 1.399 . S
C776 C781 1.399 . S
C777 C776 1.399 . S
C777 C778 1.376 . S
C778 H765 0.930 . S
C778 C777 1.376 . S
C778 C779 1.388 . S
C779 H766 0.930 . S
C779 C778 1.388 . S
C779 C780 1.390 . S
C780 C779 1.390 . S
C780 C781 1.394 . S
C780 C786 1.465 . S
C781 C776 1.399 . S
C781 C780 1.394 . S
C781 C782 1.516 . S
C782 C781 1.516 . S
C782 C783 1.502 . S
C782 C784 1.561 . S
C782 C785 1.526 . S
C783 H767 0.959 . S
C783 H768 0.959 . S
C783 H769 0.961 . S
C783 C782 1.502 . S
C784 H770 0.960 . S
C784 H771 0.961 . S
C784 H772 0.959 . S
C784 C782 1.561 . S
C785 C782 1.526 . S
C785 C786 1.396 . S
C785 C790 1.390 . S
C786 C780 1.465 . S
C786 C785 1.396 . S
C786 C787 1.399 . S
C787 H773 0.929 . S
C787 C786 1.399 . S
C787 C788 1.385 . S
C788 H774 0.931 . S
C788 C787 1.385 . S
C788 C789 1.389 . S
C789 C788 1.389 . S
C789 C790 1.387 . S
C790 H775 0.930 . S
C790 C785 1.390 . S
C790 C789 1.387 . S
H791 C803 0.930 . S
H792 C805 0.930 . S
H793 C806 0.930 . S
H794 C810 0.959 . S
H795 C810 0.959 . S
H796 C810 0.961 . S
H797 C811 0.960 . S
H798 C811 0.961 . S
H799 C811 0.959 . S
H800 C814 0.929 . S
H801 C815 0.931 . S
H802 C817 0.930 . S
C803 H791 0.930 . S
C803 C804 1.399 . S
C803 C808 1.399 . S
C804 C803 1.399 . S
C804 C805 1.376 . S
C805 H792 0.930 . S
C805 C804 1.376 . S
C805 C806 1.388 . S
C806 H793 0.930 . S
C806 C805 1.388 . S
C806 C807 1.390 . S
C807 C806 1.390 . S
C807 C808 1.394 . S
C807 C813 1.465 . S
C808 C803 1.399 . S
C808 C807 1.394 . S
C808 C809 1.516 . S
C809 C808 1.516 . S
C809 C810 1.502 . S
C809 C811 1.561 . S
C809 C812 1.526 . S
C810 H794 0.959 . S
C810 H795 0.959 . S
C810 H796 0.961 . S
C810 C809 1.502 . S
C811 H797 0.960 . S
C811 H798 0.961 . S
C811 H799 0.959 . S
C811 C809 1.561 . S
C812 C809 1.526 . S
C812 C813 1.396 . S
C812 C817 1.390 . S
C813 C807 1.465 . S
C813 C812 1.396 . S
C813 C814 1.399 . S
C814 H800 0.929 . S
C814 C813 1.399 . S
C814 C815 1.385 . S
C815 H801 0.931 . S
C815 C814 1.385 . S
C815 C816 1.389 . S
C816 C815 1.389 . S
C816 C817 1.387 . S
C817 H802 0.930 . S
C817 C812 1.390 . S
C817 C816 1.387 . S
H818 C830 0.930 . S
H819 C832 0.930 . S
H820 C833 0.930 . S
H821 C837 0.959 . S
H822 C837 0.959 . S
H823 C837 0.961 . S
H824 C838 0.960 . S
H825 C838 0.961 . S
H826 C838 0.959 . S
H827 C841 0.929 . S
H828 C842 0.931 . S
H829 C844 0.930 . S
C830 H818 0.930 . S
C830 C831 1.399 . S
C830 C835 1.399 . S
C831 C830 1.399 . S
C831 C832 1.376 . S
C832 H819 0.930 . S
C832 C831 1.376 . S
C832 C833 1.388 . S
C833 H820 0.930 . S
C833 C832 1.388 . S
C833 C834 1.390 . S
C834 C833 1.390 . S
C834 C835 1.394 . S
C834 C840 1.465 . S
C835 C830 1.399 . S
C835 C834 1.394 . S
C835 C836 1.516 . S
C836 C835 1.516 . S
C836 C837 1.502 . S
C836 C838 1.561 . S
C836 C839 1.526 . S
C837 H821 0.959 . S
C837 H822 0.959 . S
C837 H823 0.961 . S
C837 C836 1.502 . S
C838 H824 0.960 . S
C838 H825 0.961 . S
C838 H826 0.959 . S
C838 C836 1.561 . S
C839 C836 1.526 . S
C839 C840 1.396 . S
C839 C844 1.390 . S
C840 C834 1.465 . S
C840 C839 1.396 . S
C840 C841 1.399 . S
C841 H827 0.929 . S
C841 C840 1.399 . S
C841 C842 1.385 . S
C842 H828 0.931 . S
C842 C841 1.385 . S
C842 C843 1.389 . S
C843 C842 1.389 . S
C843 C844 1.387 . S
C844 H829 0.930 . S
C844 C839 1.390 . S
C844 C843 1.387 . S
H845 C857 0.930 . S
H846 C859 0.930 . S
H847 C860 0.930 . S
H848 C864 0.959 . S
H849 C864 0.959 . S
H850 C864 0.961 . S
H851 C865 0.960 . S
H852 C865 0.961 . S
H853 C865 0.959 . S
H854 C868 0.929 . S
H855 C869 0.931 . S
H856 C871 0.930 . S
C857 H845 0.930 . S
C857 C858 1.399 . S
C857 C862 1.399 . S
C858 C857 1.399 . S
C858 C859 1.376 . S
C859 H846 0.930 . S
C859 C858 1.376 . S
C859 C860 1.388 . S
C860 H847 0.930 . S
C860 C859 1.388 . S
C860 C861 1.390 . S
C861 C860 1.390 . S
C861 C862 1.394 . S
C861 C867 1.465 . S
C862 C857 1.399 . S
C862 C861 1.394 . S
C862 C863 1.516 . S
C863 C862 1.516 . S
C863 C864 1.502 . S
C863 C865 1.561 . S
C863 C866 1.526 . S
C864 H848 0.959 . S
C864 H849 0.959 . S
C864 H850 0.961 . S
C864 C863 1.502 . S
C865 H851 0.960 . S
C865 H852 0.961 . S
C865 H853 0.959 . S
C865 C863 1.561 . S
C866 C863 1.526 . S
C866 C867 1.396 . S
C866 C871 1.390 . S
C867 C861 1.465 . S
C867 C866 1.396 . S
C867 C868 1.399 . S
C868 H854 0.929 . S
C868 C867 1.399 . S
C868 C869 1.385 . S
C869 H855 0.931 . S
C869 C868 1.385 . S
C869 C870 1.389 . S
C870 C869 1.389 . S
C870 C871 1.387 . S
C871 H856 0.930 . S
C871 C866 1.390 . S
C871 C870 1.387 . S
H872 C884 0.930 . S
H873 C886 0.930 . S
H874 C887 0.930 . S
H875 C891 0.959 . S
H876 C891 0.959 1_545 S
H877 C891 0.961 . S
H878 C892 0.960 1_565 S
H879 C892 0.961 . S
H880 C892 0.959 . S
H881 C895 0.929 . S
H882 C896 0.931 . S
H883 C898 0.930 . S
C884 H872 0.930 . S
C884 C885 1.399 . S
C884 C889 1.399 . S
C885 C884 1.399 . S
C885 C886 1.376 . S
C886 H873 0.930 . S
C886 C885 1.376 . S
C886 C887 1.388 . S
C887 H874 0.930 . S
C887 C886 1.388 . S
C887 C888 1.390 . S
C888 C887 1.390 . S
C888 C889 1.394 . S
C888 C894 1.465 1_565 S
C889 C884 1.399 . S
C889 C888 1.394 . S
C889 C890 1.516 1_655 S
C890 C889 1.516 1_455 S
C890 C891 1.502 . S
C890 C892 1.561 1_465 S
C890 C893 1.526 1_565 S
C891 H875 0.959 . S
C891 H876 0.959 1_565 S
C891 H877 0.961 . S
C891 C890 1.502 . S
C892 H878 0.960 1_545 S
C892 H879 0.961 . S
C892 H880 0.959 . S
C892 C890 1.561 1_645 S
C893 C890 1.526 1_545 S
C893 C894 1.396 1_455 S
C893 C898 1.390 . S
C894 C888 1.465 1_545 S
C894 C893 1.396 1_655 S
C894 C895 1.399 . S
C895 H881 0.929 . S
C895 C894 1.399 . S
C895 C896 1.385 1_655 S
C896 H882 0.931 . S
C896 C895 1.385 1_455 S
C896 C897 1.389 . S
C897 C896 1.389 . S
C897 C898 1.387 . S
C898 H883 0.930 . S
C898 C893 1.390 . S
C898 C897 1.387 . S
H899 C911 0.930 . S
H900 C913 0.930 . S
H901 C914 0.930 . S
H902 C918 0.959 . S
H903 C918 0.959 . S
H904 C918 0.961 1_655 S
H905 C919 0.960 . S
H906 C919 0.961 1_455 S
H907 C919 0.959 . S
H908 C922 0.929 . S
H909 C923 0.931 . S
H910 C925 0.930 . S
C911 H899 0.930 . S
C911 C912 1.399 . S
C911 C916 1.399 . S
C912 C911 1.399 . S
C912 C913 1.376 . S
C913 H900 0.930 . S
C913 C912 1.376 . S
C913 C914 1.388 1_545 S
C914 H901 0.930 . S
C914 C913 1.388 1_565 S
C914 C915 1.390 . S
C915 C914 1.390 . S
C915 C916 1.394 1_565 S
C915 C921 1.465 1_655 S
C916 C911 1.399 . S
C916 C915 1.394 1_545 S
C916 C917 1.516 1_655 S
C917 C916 1.516 1_455 S
C917 C918 1.502 . S
C917 C919 1.561 1_445 S
C917 C920 1.526 1_545 S
C918 H902 0.959 . S
C918 H903 0.959 . S
C918 H904 0.961 1_455 S
C918 C917 1.502 . S
C919 H905 0.960 . S
C919 H906 0.961 1_655 S
C919 H907 0.959 . S
C919 C917 1.561 1_665 S
C920 C917 1.526 1_565 S
C920 C921 1.396 . S
C920 C925 1.390 . S
C921 C915 1.465 1_455 S
C921 C920 1.396 . S
C921 C922 1.399 . S
C922 H908 0.929 . S
C922 C921 1.399 . S
C922 C923 1.385 . S
C923 H909 0.931 . S
C923 C922 1.385 . S
C923 C924 1.389 . S
C924 C923 1.389 . S
C924 C925 1.387 . S
C925 H910 0.930 . S
C925 C920 1.390 . S
C925 C924 1.387 . S
H926 C938 0.931 . S
H927 C940 0.930 . S
H928 C941 0.930 . S
H929 C945 0.959 . S
H930 C945 0.959 . S
H931 C945 0.961 . S
H932 C946 0.960 . S
H933 C946 0.961 1_655 S
H934 C946 0.959 . S
H935 C949 0.929 . S
H936 C950 0.931 . S
H937 C952 0.930 . S
C938 H926 0.931 . S
C938 C939 1.399 . S
C938 C943 1.399 . S
C939 C938 1.399 . S
C939 C940 1.376 . S
C940 H927 0.930 . S
C940 C939 1.376 . S
C940 C941 1.388 . S
C941 H928 0.930 . S
C941 C940 1.388 . S
C941 C942 1.390 . S
C942 C941 1.390 . S
C942 C943 1.394 . S
C942 C948 1.465 . S
C943 C938 1.399 . S
C943 C942 1.394 . S
C943 C944 1.516 1_455 S
C944 C943 1.516 1_655 S
C944 C945 1.502 . S
C944 C946 1.561 1_655 S
C944 C947 1.526 . S
C945 H929 0.959 . S
C945 H930 0.959 . S
C945 H931 0.961 . S
C945 C944 1.502 . S
C946 H932 0.960 . S
C946 H933 0.961 1_455 S
C946 H934 0.959 . S
C946 C944 1.561 1_455 S
C947 C944 1.526 . S
C947 C948 1.396 1_655 S
C947 C952 1.390 . S
C948 C942 1.465 . S
C948 C947 1.396 1_455 S
C948 C949 1.399 . S
C949 H935 0.929 . S
C949 C948 1.399 . S
C949 C950 1.385 1_455 S
C950 H936 0.931 . S
C950 C949 1.385 1_655 S
C950 C951 1.389 . S
C951 C950 1.389 . S
C951 C952 1.387 . S
C952 H937 0.930 . S
C952 C947 1.390 . S
C952 C951 1.387 . S
H953 C965 0.930 . S
H954 C967 0.930 . S
H955 C968 0.930 . S
H956 C972 0.959 . S
H957 C972 0.959 . S
H958 C972 0.961 . S
H959 C973 0.960 . S
H960 C973 0.961 . S
H961 C973 0.959 . S
H962 C976 0.929 . S
H963 C977 0.931 . S
H964 C979 0.930 . S
C965 H953 0.930 . S
C965 C966 1.399 . S
C965 C970 1.399 . S
C966 C965 1.399 . S
C966 C967 1.376 . S
C967 H954 0.930 . S
C967 C966 1.376 . S
C967 C968 1.388 . S
C968 H955 0.930 . S
C968 C967 1.388 . S
C968 C969 1.390 . S
C969 C968 1.390 . S
C969 C970 1.394 . S
C969 C975 1.465 . S
C970 C965 1.399 . S
C970 C969 1.394 . S
C970 C971 1.516 1_565 S
C971 C970 1.516 1_545 S
C971 C972 1.502 . S
C971 C973 1.561 1_545 S
C971 C974 1.526 . S
C972 H956 0.959 . S
C972 H957 0.959 . S
C972 H958 0.961 . S
C972 C971 1.502 . S
C973 H959 0.960 . S
C973 H960 0.961 . S
C973 H961 0.959 . S
C973 C971 1.561 1_565 S
C974 C971 1.526 . S
C974 C975 1.396 1_545 S
C974 C979 1.390 . S
C975 C969 1.465 . S
C975 C974 1.396 1_565 S
C975 C976 1.399 . S
C976 H962 0.929 . S
C976 C975 1.399 . S
C976 C977 1.385 1_565 S
C977 H963 0.931 . S
C977 C976 1.385 1_545 S
C977 C978 1.389 . S
C978 C977 1.389 . S
C978 C979 1.387 . S
C979 H964 0.930 . S
C979 C974 1.390 . S
C979 C978 1.387 . S
H980 C992 0.930 . S
H981 C994 0.930 . S
H982 C995 0.930 . S
H983 C999 0.959 . S
H984 C999 0.959 . S
H985 C999 0.961 . S
H986 C1000 0.960 . S
H987 C1000 0.961 . S
H988 C1000 0.959 . S
H989 C1003 0.929 . S
H990 C1004 0.931 . S
H991 C1006 0.930 . S
C992 H980 0.930 . S
C992 C993 1.399 . S
C992 C997 1.399 . S
C993 C992 1.399 . S
C993 C994 1.376 . S
C994 H981 0.930 . S
C994 C993 1.376 . S
C994 C995 1.388 . S
C995 H982 0.930 . S
C995 C994 1.388 . S
C995 C996 1.390 . S
C996 C995 1.390 . S
C996 C997 1.394 . S
C996 C1002 1.465 . S
C997 C992 1.399 . S
C997 C996 1.394 . S
C997 C998 1.516 . S
C998 C997 1.516 . S
C998 C999 1.502 . S
C998 C1000 1.561 . S
C998 C1001 1.526 . S
C999 H983 0.959 . S
C999 H984 0.959 . S
C999 H985 0.961 . S
C999 C998 1.502 . S
C1000 H986 0.960 . S
C1000 H987 0.961 . S
C1000 H988 0.959 . S
C1000 C998 1.561 . S
C1001 C998 1.526 . S
C1001 C1002 1.396 . S
C1001 C1006 1.390 . S
C1002 C996 1.465 . S
C1002 C1001 1.396 . S
C1002 C1003 1.399 . S
C1003 H989 0.929 . S
C1003 C1002 1.399 . S
C1003 C1004 1.385 . S
C1004 H990 0.931 . S
C1004 C1003 1.385 . S
C1004 C1005 1.389 . S
C1005 C1004 1.389 . S
C1005 C1006 1.387 . S
C1006 H991 0.930 . S
C1006 C1001 1.390 . S
C1006 C1005 1.387 . S
H1007 C1019 0.930 . S
H1008 C1021 0.930 . S
H1009 C1022 0.930 . S
H1010 C1026 0.959 . S
H1011 C1026 0.959 . S
H1012 C1026 0.961 . S
H1013 C1027 0.960 . S
H1014 C1027 0.961 . S
H1015 C1027 0.959 . S
H1016 C1030 0.929 . S
H1017 C1031 0.931 . S
H1018 C1033 0.930 . S
C1019 H1007 0.930 . S
C1019 C1020 1.399 . S
C1019 C1024 1.399 . S
C1020 C1019 1.399 . S
C1020 C1021 1.376 . S
C1021 H1008 0.930 . S
C1021 C1020 1.376 . S
C1021 C1022 1.388 . S
C1022 H1009 0.930 . S
C1022 C1021 1.388 . S
C1022 C1023 1.390 . S
C1023 C1022 1.390 . S
C1023 C1024 1.394 . S
C1023 C1029 1.465 . S
C1024 C1019 1.399 . S
C1024 C1023 1.394 . S
C1024 C1025 1.516 . S
C1025 C1024 1.516 . S
C1025 C1026 1.502 . S
C1025 C1027 1.561 . S
C1025 C1028 1.526 . S
C1026 H1010 0.959 . S
C1026 H1011 0.959 . S
C1026 H1012 0.961 . S
C1026 C1025 1.502 . S
C1027 H1013 0.960 . S
C1027 H1014 0.961 . S
C1027 H1015 0.959 . S
C1027 C1025 1.561 . S
C1028 C1025 1.526 . S
C1028 C1029 1.396 . S
C1028 C1033 1.390 . S
C1029 C1023 1.465 . S
C1029 C1028 1.396 . S
C1029 C1030 1.399 . S
C1030 H1016 0.929 . S
C1030 C1029 1.399 . S
C1030 C1031 1.385 . S
C1031 H1017 0.931 . S
C1031 C1030 1.385 . S
C1031 C1032 1.389 . S
C1032 C1031 1.389 . S
C1032 C1033 1.387 . S
C1033 H1018 0.930 . S
C1033 C1028 1.390 . S
C1033 C1032 1.387 . S
H1034 C1046 0.930 . S
H1035 C1048 0.930 . S
H1036 C1049 0.930 . S
H1037 C1053 0.959 . S
H1038 C1053 0.959 . S
H1039 C1053 0.961 1_545 S
H1040 C1054 0.960 . S
H1041 C1054 0.961 1_565 S
H1042 C1054 0.959 . S
H1043 C1057 0.929 . S
H1044 C1058 0.931 . S
H1045 C1060 0.930 . S
C1046 H1034 0.930 . S
C1046 C1047 1.399 . S
C1046 C1051 1.399 . S
C1047 C1046 1.399 . S
C1047 C1048 1.376 . S
C1048 H1035 0.930 . S
C1048 C1047 1.376 . S
C1048 C1049 1.388 . S
C1049 H1036 0.930 . S
C1049 C1048 1.388 . S
C1049 C1050 1.390 . S
C1050 C1049 1.390 . S
C1050 C1051 1.394 . S
C1050 C1056 1.465 1_545 S
C1051 C1046 1.399 . S
C1051 C1050 1.394 . S
C1051 C1052 1.516 1_545 S
C1052 C1051 1.516 1_565 S
C1052 C1053 1.502 . S
C1052 C1054 1.561 1_565 S
C1052 C1055 1.526 . S
C1053 H1037 0.959 . S
C1053 H1038 0.959 . S
C1053 H1039 0.961 1_565 S
C1053 C1052 1.502 . S
C1054 H1040 0.960 . S
C1054 H1041 0.961 1_545 S
C1054 H1042 0.959 . S
C1054 C1052 1.561 1_545 S
C1055 C1052 1.526 . S
C1055 C1056 1.396 . S
C1055 C1060 1.390 . S
C1056 C1050 1.465 1_565 S
C1056 C1055 1.396 . S
C1056 C1057 1.399 . S
C1057 H1043 0.929 . S
C1057 C1056 1.399 . S
C1057 C1058 1.385 . S
C1058 H1044 0.931 . S
C1058 C1057 1.385 . S
C1058 C1059 1.389 . S
C1059 C1058 1.389 . S
C1059 C1060 1.387 . S
C1060 H1045 0.930 . S
C1060 C1055 1.390 . S
C1060 C1059 1.387 . S
H1061 C1073 0.930 . S
H1062 C1075 0.930 . S
H1063 C1076 0.930 . S
H1064 C1080 0.959 . S
H1065 C1080 0.959 1_455 S
H1066 C1080 0.961 . S
H1067 C1081 0.960 1_655 S
H1068 C1081 0.961 . S
H1069 C1081 0.959 . S
H1070 C1084 0.929 . S
H1071 C1085 0.931 . S
H1072 C1087 0.930 . S
C1073 H1061 0.930 . S
C1073 C1074 1.399 . S
C1073 C1078 1.399 . S
C1074 C1073 1.399 . S
C1074 C1075 1.376 . S
C1075 H1062 0.930 . S
C1075 C1074 1.376 . S
C1075 C1076 1.388 . S
C1076 H1063 0.930 . S
C1076 C1075 1.388 . S
C1076 C1077 1.390 . S
C1077 C1076 1.390 . S
C1077 C1078 1.394 . S
C1077 C1083 1.465 1_655 S
C1078 C1073 1.399 . S
C1078 C1077 1.394 . S
C1078 C1079 1.516 . S
C1079 C1078 1.516 . S
C1079 C1080 1.502 . S
C1079 C1081 1.561 1_655 S
C1079 C1082 1.526 1_655 S
C1080 H1064 0.959 . S
C1080 H1065 0.959 1_655 S
C1080 H1066 0.961 . S
C1080 C1079 1.502 . S
C1081 H1067 0.960 1_455 S
C1081 H1068 0.961 . S
C1081 H1069 0.959 . S
C1081 C1079 1.561 1_455 S
C1082 C1079 1.526 1_455 S
C1082 C1083 1.396 . S
C1082 C1087 1.390 . S
C1083 C1077 1.465 1_455 S
C1083 C1082 1.396 . S
C1083 C1084 1.399 . S
C1084 H1070 0.929 . S
C1084 C1083 1.399 . S
C1084 C1085 1.385 . S
C1085 H1071 0.931 . S
C1085 C1084 1.385 . S
C1085 C1086 1.389 . S
C1086 C1085 1.389 . S
C1086 C1087 1.387 . S
C1087 H1072 0.930 . S
C1087 C1082 1.390 . S
C1087 C1086 1.387 . S
C237 C12 1.575 . S
C249 C155 1.593 . S
C264 C112 1.611 . S
C276 C14 1.577 . S
C291 C127 1.611 . S
C303 C28 1.581 . S
C318 C141 1.615 . S
C330 C54 1.603 . S
C345 C71 1.590 1_545 S
C357 C69 1.582 . S
C372 C82 1.611 . S
C384 C85 1.593 1_455 S
C399 C96 1.574 . S
C411 C99 1.595 1_565 S
C426 C110 1.581 . S
C438 C56 1.616 1_655 S
C453 C125 1.577 . S
C465 C43 1.594 1_565 S
C480 C1 1.611 1_655 S
C492 C138 1.608 . S
C507 C27 1.589 1_545 S
C519 C152 1.592 . S
C534 C41 1.616 1_455 S
C546 C166 1.599 . S
C561 C183 1.590 . S
C573 C181 1.598 . S
C588 C194 1.607 . S
C600 C208 1.612 . S
C615 C223 1.590 . S
C627 C197 1.597 . S
C642 C168 1.606 . S
C654 C210 1.613 . S
C669 C209 1.806 . S
C681 C0 1.813 . S
C696 C222 1.810 . S
C708 C26 1.814 . S
C723 C169 1.811 . S
C735 C40 1.811 . S
C750 C42 1.800 . S
C762 C182 1.807 . S
C777 C57 1.812 . S
C789 C140 1.792 . S
C804 C154 1.814 . S
C816 C70 1.812 . S
C831 C84 1.784 . S
C843 C113 1.773 . S
C858 C98 1.785 . S
C870 C126 1.778 . S
C885 C29 1.675 . S
C897 C13 1.677 . S
C912 C55 1.671 . S
C924 C15 1.676 . S
C939 C68 1.669 . S
C951 C97 1.674 . S
C966 C83 1.641 . S
C978 C111 1.636 . S
C993 C153 1.641 . S
C1005 C124 1.637 . S
C1020 C139 1.675 . S
C1032 C167 1.678 . S
C1047 C196 1.641 . S
C1059 C180 1.637 . S
C1074 C195 1.639 . S
C1086 C211 1.635 . S
