# Generated by pormake.
# Topology wlk, (5)-cn, num edge types: 1
# Building blocks:
#     Node 0, Type 0, BuildingBlock: BEQFEK_clean_sbu_0, # of connection points: 5
#     Node 1, Type 0, BuildingBlock: BEQFEK_clean_sbu_0, # of connection points: 5
#     Node 2, Type 0, BuildingBlock: BEQFEK_clean_sbu_0, # of connection points: 5
#     Node 3, Type 0, BuildingBlock: BEQFEK_clean_sbu_0, # of connection points: 5
#     Node 4, Type 0, BuildingBlock: BEQFEK_clean_sbu_0, # of connection points: 5
#     Node 5, Type 0, BuildingBlock: BEQFEK_clean_sbu_0, # of connection points: 5
#     Node 6, Type 0, BuildingBlock: BEQFEK_clean_sbu_0, # of connection points: 5
#     Node 7, Type 0, BuildingBlock: BEQFEK_clean_sbu_0, # of connection points: 5
#     Node 8, Type 0, BuildingBlock: BEQFEK_clean_sbu_0, # of connection points: 5
#     Node 9, Type 0, BuildingBlock: BEQFEK_clean_sbu_0, # of connection points: 5
#     Node 10, Type 0, BuildingBlock: BEQFEK_clean_sbu_0, # of connection points: 5
#     Node 11, Type 0, BuildingBlock: BEQFEK_clean_sbu_0, # of connection points: 5
#     Node 12, Type 0, BuildingBlock: BEQFEK_clean_sbu_0, # of connection points: 5
#     Node 13, Type 0, BuildingBlock: BEQFEK_clean_sbu_0, # of connection points: 5
#     Node 14, Type 0, BuildingBlock: BEQFEK_clean_sbu_0, # of connection points: 5
#     Node 15, Type 0, BuildingBlock: BEQFEK_clean_sbu_0, # of connection points: 5
#     Node 16, Type 0, BuildingBlock: BEQFEK_clean_sbu_0, # of connection points: 5
#     Node 17, Type 0, BuildingBlock: BEQFEK_clean_sbu_0, # of connection points: 5
#     Edge 18, Type (0, 0), BuildingBlock: XUDNAN_clean_linker_2, # of connection points: 2
#     Edge 19, Type (0, 0), BuildingBlock: XUDNAN_clean_linker_2, # of connection points: 2
#     Edge 20, Type (0, 0), BuildingBlock: XUDNAN_clean_linker_2, # of connection points: 2
#     Edge 21, Type (0, 0), BuildingBlock: XUDNAN_clean_linker_2, # of connection points: 2
#     Edge 22, Type (0, 0), BuildingBlock: XUDNAN_clean_linker_2, # of connection points: 2
#     Edge 23, Type (0, 0), BuildingBlock: XUDNAN_clean_linker_2, # of connection points: 2
#     Edge 24, Type (0, 0), BuildingBlock: XUDNAN_clean_linker_2, # of connection points: 2
#     Edge 25, Type (0, 0), BuildingBlock: XUDNAN_clean_linker_2, # of connection points: 2
#     Edge 26, Type (0, 0), BuildingBlock: XUDNAN_clean_linker_2, # of connection points: 2
#     Edge 27, Type (0, 0), BuildingBlock: XUDNAN_clean_linker_2, # of connection points: 2
#     Edge 28, Type (0, 0), BuildingBlock: XUDNAN_clean_linker_2, # of connection points: 2
#     Edge 29, Type (0, 0), BuildingBlock: XUDNAN_clean_linker_2, # of connection points: 2
#     Edge 30, Type (0, 0), BuildingBlock: XUDNAN_clean_linker_2, # of connection points: 2
#     Edge 31, Type (0, 0), BuildingBlock: XUDNAN_clean_linker_2, # of connection points: 2
#     Edge 32, Type (0, 0), BuildingBlock: XUDNAN_clean_linker_2, # of connection points: 2
#     Edge 33, Type (0, 0), BuildingBlock: XUDNAN_clean_linker_2, # of connection points: 2
#     Edge 34, Type (0, 0), BuildingBlock: XUDNAN_clean_linker_2, # of connection points: 2
#     Edge 35, Type (0, 0), BuildingBlock: XUDNAN_clean_linker_2, # of connection points: 2
#     Edge 36, Type (0, 0), BuildingBlock: XUDNAN_clean_linker_2, # of connection points: 2
#     Edge 37, Type (0, 0), BuildingBlock: XUDNAN_clean_linker_2, # of connection points: 2
#     Edge 38, Type (0, 0), BuildingBlock: XUDNAN_clean_linker_2, # of connection points: 2
#     Edge 39, Type (0, 0), BuildingBlock: XUDNAN_clean_linker_2, # of connection points: 2
#     Edge 40, Type (0, 0), BuildingBlock: XUDNAN_clean_linker_2, # of connection points: 2
#     Edge 41, Type (0, 0), BuildingBlock: XUDNAN_clean_linker_2, # of connection points: 2
#     Edge 42, Type (0, 0), BuildingBlock: XUDNAN_clean_linker_2, # of connection points: 2
#     Edge 43, Type (0, 0), BuildingBlock: XUDNAN_clean_linker_2, # of connection points: 2
#     Edge 44, Type (0, 0), BuildingBlock: XUDNAN_clean_linker_2, # of connection points: 2
#     Edge 45, Type (0, 0), BuildingBlock: XUDNAN_clean_linker_2, # of connection points: 2
#     Edge 46, Type (0, 0), BuildingBlock: XUDNAN_clean_linker_2, # of connection points: 2
#     Edge 47, Type (0, 0), BuildingBlock: XUDNAN_clean_linker_2, # of connection points: 2
#     Edge 48, Type (0, 0), BuildingBlock: XUDNAN_clean_linker_2, # of connection points: 2
#     Edge 49, Type (0, 0), BuildingBlock: XUDNAN_clean_linker_2, # of connection points: 2
#     Edge 50, Type (0, 0), BuildingBlock: XUDNAN_clean_linker_2, # of connection points: 2
#     Edge 51, Type (0, 0), BuildingBlock: XUDNAN_clean_linker_2, # of connection points: 2
#     Edge 52, Type (0, 0), BuildingBlock: XUDNAN_clean_linker_2, # of connection points: 2
#     Edge 53, Type (0, 0), BuildingBlock: XUDNAN_clean_linker_2, # of connection points: 2
#     Edge 54, Type (0, 0), BuildingBlock: XUDNAN_clean_linker_2, # of connection points: 2
#     Edge 55, Type (0, 0), BuildingBlock: XUDNAN_clean_linker_2, # of connection points: 2
#     Edge 56, Type (0, 0), BuildingBlock: XUDNAN_clean_linker_2, # of connection points: 2
#     Edge 57, Type (0, 0), BuildingBlock: XUDNAN_clean_linker_2, # of connection points: 2
#     Edge 58, Type (0, 0), BuildingBlock: XUDNAN_clean_linker_2, # of connection points: 2
#     Edge 59, Type (0, 0), BuildingBlock: XUDNAN_clean_linker_2, # of connection points: 2
#     Edge 60, Type (0, 0), BuildingBlock: XUDNAN_clean_linker_2, # of connection points: 2
#     Edge 61, Type (0, 0), BuildingBlock: XUDNAN_clean_linker_2, # of connection points: 2
#     Edge 62, Type (0, 0), BuildingBlock: XUDNAN_clean_linker_2, # of connection points: 2
# Relax obj value: 0.045
# Max RMSD: 0.100
# Mean RMSD: 0.100
data_MOF--net-wlk--node1-BEQFEK_clean_sbu_0--edge1-XUDNAN_clean_linker_2
_symmetry_space_group_name_H-M    P1
_symmetry_Int_Tables_number       1
_symmetry_cell_setting            triclinic
loop_
_symmetry_equiv_pos_as_xyz
'x, y, z'
_cell_length_a     65.067823
_cell_length_b     65.016514
_cell_length_c     31.160535
_cell_angle_alpha  90.001814
_cell_angle_beta   89.945072
_cell_angle_gamma 119.96731
loop_
_atom_site_label
_atom_site_type_symbol
_atom_site_fract_x
_atom_site_fract_y
_atom_site_fract_z
_atom_type_partial_charge
Co0 Co 0.22781 0.27657 0.16136 0.0
Co1 Co 0.1875 0.27289 0.10034 0.0
C2 C 0.20471 0.23808 0.0945 0.0
O3 O 0.21964 0.24895 0.12413 0.0
O4 O 0.19045 0.24495 0.08236 0.0
C5 C 0.24185 0.25459 0.22191 0.0
O6 O 0.22174 0.23659 0.20857 0.0
C7 C 0.13874 0.25164 0.06606 0.0
C8 C 0.1408 0.28109 0.02754 0.0
C9 C 0.12554 0.25761 0.03886 0.0
N10 N 0.16061 0.2707 0.0705 0.0
N11 N 0.16163 0.28825 0.04752 0.0
C12 C 0.13128 0.22795 0.08586 0.0
H13 H 0.14684 0.22683 0.09694 0.0
H14 H 0.11999 0.22547 0.11427 0.0
H15 H 0.12083 0.2135 0.06262 0.0
C16 C 0.19834 0.28198 0.22623 0.0
N17 N 0.20111 0.27608 0.18611 0.0
N18 N 0.18431 0.27512 0.16124 0.0
C19 C 0.17027 0.28052 0.18509 0.0
C20 C 0.17864 0.28493 0.22717 0.0
C21 C 0.21669 0.2888 0.26066 0.0
H22 H 0.23459 0.3003 0.24688 0.0
H23 H 0.21597 0.27253 0.27344 0.0
H24 H 0.21401 0.29844 0.28745 0.0
O25 O 0.24498 0.3058 0.12672 0.0
O26 O 0.21703 0.3021 0.08061 0.0
H27 H 0.15766 0.2975 0.14237 0.0
H28 H 0.1413 0.28771 0.19241 0.0
C29 C 0.1505 0.28332 0.16711 0.0
H30 H 0.13745 0.26655 0.15134 0.0
H31 H 0.17672 0.30501 0.04478 0.0
O32 O 0.24859 0.27513 0.20658 0.0
C33 C 0.23831 0.31323 0.0947 0.0
Co34 Co 0.7303 0.95471 0.15781 0.0
Co35 Co 0.73993 0.91968 0.10272 0.0
C36 C 0.77255 0.97178 0.09829 0.0
O37 O 0.75951 0.97483 0.12489 0.0
O38 O 0.7678 0.95104 0.08718 0.0
C39 C 0.74686 0.98512 0.22754 0.0
O40 O 0.76288 0.97853 0.22435 0.0
C41 C 0.76208 0.89264 0.06804 0.0
C42 C 0.73138 0.86318 0.03539 0.0
C43 C 0.75541 0.87248 0.04299 0.0
N44 N 0.74285 0.89494 0.07469 0.0
N45 N 0.72458 0.87717 0.05521 0.0
C46 C 0.78641 0.91006 0.08377 0.0
H47 H 0.78751 0.92693 0.09348 0.0
H48 H 0.7905 0.9026 0.11239 0.0
H49 H 0.79984 0.91349 0.05861 0.0
C50 C 0.72167 0.91843 0.22415 0.0
N51 N 0.72987 0.92821 0.18521 0.0
N52 N 0.73513 0.91423 0.16293 0.0
C53 C 0.73084 0.89533 0.18736 0.0
C54 C 0.72211 0.89733 0.22696 0.0
C55 C 0.71234 0.92849 0.25708 0.0
H56 H 0.72748 0.9427 0.27501 0.0
H57 H 0.70058 0.91499 0.28071 0.0
H58 H 0.70258 0.9363 0.24117 0.0
O59 O 0.70358 0.94321 0.1168 0.0
O60 O 0.71099 0.91854 0.07874 0.0
H61 H 0.71878 0.86587 0.14458 0.0
H62 H 0.72782 0.86082 0.19636 0.0
C63 C 0.73184 0.87423 0.1709 0.0
H64 H 0.74974 0.88009 0.15764 0.0
H65 H 0.7075 0.87482 0.05485 0.0
O66 O 0.7295 0.97657 0.2015 0.0
C67 C 0.69853 0.9283 0.08638 0.0
Co68 Co 0.05063 0.77544 0.16318 0.0
Co69 Co 0.08907 0.82441 0.12349 0.0
C70 C 0.03749 0.80567 0.10895 0.0
O71 O 0.03286 0.78755 0.13125 0.0
O72 O 0.05881 0.82213 0.10322 0.0
C73 C 0.01139 0.754 0.21664 0.0
O74 O 0.01335 0.77489 0.21035 0.0
C75 C 0.11445 0.87234 0.08468 0.0
C76 C 0.1518 0.88103 0.08821 0.0
C77 C 0.13733 0.8894 0.07312 0.0
N78 N 0.11526 0.85454 0.10532 0.0
N79 N 0.13772 0.85997 0.10747 0.0
C80 C 0.0922 0.87311 0.07655 0.0
H81 H 0.08079 0.86711 0.10554 0.0
H82 H 0.09612 0.8913 0.06812 0.0
H83 H 0.08245 0.86096 0.04965 0.0
C84 C 0.08128 0.79511 0.2375 0.0
N85 N 0.07464 0.79826 0.19843 0.0
N86 N 0.08958 0.81969 0.18438 0.0
C87 C 0.10552 0.83157 0.2158 0.0
C88 C 0.10096 0.8163 0.25085 0.0
C89 C 0.07169 0.77091 0.25696 0.0
H90 H 0.06499 0.75718 0.23148 0.0
H91 H 0.05676 0.76725 0.27878 0.0
H92 H 0.08554 0.76941 0.27511 0.0
O93 O 0.06486 0.76416 0.12096 0.0
O94 O 0.09245 0.79873 0.09324 0.0
H95 H 0.14092 0.85778 0.19883 0.0
H96 H 0.12885 0.86576 0.24381 0.0
C97 C 0.12467 0.85696 0.21195 0.0
H98 H 0.11909 0.8666 0.18979 0.0
H99 H 0.14338 0.84895 0.12092 0.0
O100 O 0.02635 0.74941 0.19936 0.0
C101 C 0.08181 0.77603 0.09484 0.0
Co102 Co 0.78009 0.72889 0.84987 0.0
Co103 Co 0.82634 0.7391 0.89958 0.0
C104 C 0.80902 0.77379 0.90139 0.0
O105 O 0.79143 0.76007 0.87796 0.0
O106 O 0.8248 0.76849 0.91141 0.0
C107 C 0.74844 0.73867 0.79949 0.0
O108 O 0.75836 0.75918 0.8195 0.0
C109 C 0.87481 0.76137 0.93613 0.0
C110 C 0.87743 0.72963 0.95205 0.0
C111 C 0.88972 0.75419 0.95439 0.0
N112 N 0.85474 0.74188 0.92347 0.0
N113 N 0.85651 0.72302 0.93297 0.0
C114 C 0.87811 0.78585 0.93495 0.0
H115 H 0.87495 0.78995 0.90187 0.0
H116 H 0.89592 0.79955 0.94604 0.0
H117 H 0.86472 0.78637 0.95622 0.0
C118 C 0.80442 0.71937 0.77985 0.0
N119 N 0.80439 0.72716 0.81985 0.0
N120 N 0.82392 0.73137 0.8398 0.0
C121 C 0.83713 0.72644 0.81268 0.0
C122 C 0.82521 0.71871 0.77374 0.0
C123 C 0.78348 0.70984 0.75034 0.0
H124 H 0.76727 0.69715 0.76813 0.0
H125 H 0.78109 0.72471 0.73908 0.0
H126 H 0.7855 0.70058 0.7222 0.0
O127 O 0.7668 0.70408 0.89461 0.0
O128 O 0.79946 0.71301 0.93164 0.0
H129 H 0.85704 0.71301 0.84438 0.0
H130 H 0.87023 0.72851 0.79498 0.0
C131 C 0.86036 0.7284 0.82413 0.0
H132 H 0.87127 0.74487 0.84277 0.0
H133 H 0.84319 0.70557 0.92714 0.0
O134 O 0.75466 0.72352 0.80872 0.0
C135 C 0.77708 0.7006 0.92624 0.0
Co136 Co 0.26649 0.0458 0.83917 0.0
Co137 Co 0.26602 0.0833 0.90251 0.0
C138 C 0.22717 0.03199 0.90183 0.0
O139 O 0.23606 0.02728 0.8696 0.0
O140 O 0.23708 0.05265 0.91835 0.0
C141 C 0.25196 0.01717 0.76331 0.0
O142 O 0.23618 0.02409 0.76081 0.0
C143 C 0.24719 0.11295 0.93749 0.0
C144 C 0.27779 0.13972 0.97457 0.0
C145 C 0.25461 0.1329 0.96342 0.0
N146 N 0.26522 0.10849 0.93338 0.0
N147 N 0.28343 0.12458 0.95568 0.0
C148 C 0.22317 0.0977 0.91819 0.0
H149 H 0.22044 0.07999 0.90968 0.0
H150 H 0.2217 0.10612 0.88827 0.0
H151 H 0.20909 0.09576 0.94075 0.0
C152 C 0.27774 0.08433 0.77681 0.0
N153 N 0.27066 0.07455 0.81604 0.0
N154 N 0.26989 0.09015 0.842 0.0
C155 C 0.27623 0.11031 0.81965 0.0
C156 C 0.2811 0.10709 0.77752 0.0
C157 C 0.28527 0.07392 0.74138 0.0
H158 H 0.29253 0.06308 0.75476 0.0
H159 H 0.26975 0.06263 0.72082 0.0
H160 H 0.29905 0.08802 0.72085 0.0
O161 O 0.2927 0.05318 0.87951 0.0
O162 O 0.29346 0.08055 0.92347 0.0
H163 H 0.29221 0.13856 0.86527 0.0
H164 H 0.28484 0.14702 0.81469 0.0
C165 C 0.27905 0.13265 0.83887 0.0
H166 H 0.26187 0.12909 0.85261 0.0
H167 H 0.29971 0.12516 0.95816 0.0
O168 O 0.26681 0.0245 0.79396 0.0
C169 C 0.30167 0.06732 0.91119 0.0
Co170 Co 0.95905 0.22583 0.83528 0.0
Co171 Co 0.92176 0.18635 0.89544 0.0
C172 C 0.97305 0.19926 0.89577 0.0
O173 O 0.97768 0.21442 0.86625 0.0
O174 O 0.95195 0.18658 0.90976 0.0
C175 C 0.99205 0.24553 0.76409 0.0
O176 O 0.98728 0.22376 0.75598 0.0
C177 C 0.89203 0.13778 0.92823 0.0
C178 C 0.86846 0.14252 0.97309 0.0
C179 C 0.87397 0.12566 0.95838 0.0
N180 N 0.89683 0.16043 0.92609 0.0
N181 N 0.88261 0.1631 0.95284 0.0
C182 C 0.9043 0.12843 0.90052 0.0
H183 H 0.91334 0.14072 0.8733 0.0
H184 H 0.89136 0.11061 0.8879 0.0
H185 H 0.91793 0.12709 0.91971 0.0
C186 C 0.92082 0.20182 0.77248 0.0
N187 N 0.93094 0.20156 0.80999 0.0
N188 N 0.91483 0.1851 0.83512 0.0
C189 C 0.89385 0.17442 0.81415 0.0
C190 C 0.89691 0.18474 0.77373 0.0
C191 C 0.93289 0.22068 0.73898 0.0
H192 H 0.94768 0.21914 0.72485 0.0
H193 H 0.92072 0.21898 0.7126 0.0
H194 H 0.94037 0.23846 0.75399 0.0
O195 O 0.9504 0.24354 0.87566 0.0
O196 O 0.92429 0.21587 0.91954 0.0
H197 H 0.86823 0.16742 0.86329 0.0
H198 H 0.85553 0.15249 0.813 0.0
C199 C 0.87066 0.15821 0.83544 0.0
H200 H 0.87091 0.14232 0.84772 0.0
H201 H 0.88289 0.17911 0.95791 0.0
O202 O 0.98135 0.2495 0.7942 0.0
C203 C 0.93647 0.23748 0.90778 0.0
Co204 Co 0.89404 0.60736 0.49519 0.0
Co205 Co 0.84868 0.59342 0.43856 0.0
C206 C 0.86703 0.55993 0.45095 0.0
O207 O 0.88316 0.5747 0.47574 0.0
O208 O 0.85218 0.56459 0.43323 0.0
C209 C 0.93113 0.60498 0.54118 0.0
O210 O 0.92927 0.59047 0.51015 0.0
C211 C 0.7998 0.57007 0.40029 0.0
C212 C 0.80119 0.60117 0.36879 0.0
C213 C 0.78661 0.57698 0.3749 0.0
N214 N 0.82105 0.58938 0.4086 0.0
N215 N 0.82162 0.60784 0.38968 0.0
C216 C 0.79288 0.5455 0.4147 0.0
H217 H 0.80869 0.54415 0.42292 0.0
H218 H 0.78169 0.54116 0.44389 0.0
H219 H 0.78257 0.53238 0.38934 0.0
C220 C 0.86852 0.62206 0.55414 0.0
N221 N 0.8688 0.61025 0.51884 0.0
N222 N 0.84938 0.60372 0.49639 0.0
C223 C 0.83602 0.61117 0.51705 0.0
C224 C 0.84773 0.62316 0.5543 0.0
C225 C 0.88962 0.63541 0.58275 0.0
H226 H 0.90577 0.64562 0.56284 0.0
H227 H 0.8921 0.62253 0.60224 0.0
H228 H 0.8877 0.64783 0.60451 0.0
O229 O 0.90835 0.62966 0.4461 0.0
O230 O 0.87573 0.61969 0.4082 0.0
H231 H 0.81785 0.62195 0.47354 0.0
H232 H 0.80338 0.61186 0.52492 0.0
C233 C 0.81353 0.60877 0.49956 0.0
H234 H 0.80242 0.59076 0.48591 0.0
H235 H 0.83612 0.62505 0.39069 0.0
O236 O 0.91826 0.6146 0.54027 0.0
C237 C 0.89805 0.63238 0.41362 0.0
Co238 Co 0.39372 0.28312 0.49053 0.0
Co239 Co 0.40028 0.24642 0.43498 0.0
C240 C 0.43625 0.29833 0.43373 0.0
O241 O 0.42443 0.30284 0.46095 0.0
O242 O 0.42912 0.27717 0.42133 0.0
C243 C 0.40156 0.32541 0.53657 0.0
O244 O 0.41672 0.33734 0.50583 0.0
C245 C 0.42152 0.21854 0.40247 0.0
C246 C 0.3921 0.19159 0.3635 0.0
C247 C 0.41551 0.19931 0.37486 0.0
N248 N 0.40266 0.22171 0.40629 0.0
N249 N 0.38514 0.20547 0.38306 0.0
C250 C 0.44424 0.23372 0.42581 0.0
H251 H 0.4423 0.24589 0.44828 0.0
H252 H 0.44928 0.22239 0.44452 0.0
H253 H 0.45851 0.24447 0.40244 0.0
C254 C 0.38147 0.24581 0.55538 0.0
N255 N 0.3915 0.25579 0.51748 0.0
N256 N 0.39452 0.24048 0.49465 0.0
C257 C 0.38634 0.2202 0.51727 0.0
C258 C 0.37763 0.22277 0.55652 0.0
C259 C 0.37154 0.25647 0.58582 0.0
H260 H 0.35903 0.26039 0.56838 0.0
H261 H 0.38623 0.27348 0.59823 0.0
H262 H 0.36218 0.2446 0.61328 0.0
O263 O 0.36777 0.27313 0.44762 0.0
O264 O 0.37247 0.24662 0.41006 0.0
H265 H 0.37043 0.19136 0.47282 0.0
H266 H 0.37792 0.18365 0.52402 0.0
C267 C 0.38367 0.19768 0.49913 0.0
H268 H 0.40085 0.20115 0.4855 0.0
H269 H 0.36854 0.20413 0.37999 0.0
O270 O 0.39006 0.30286 0.53519 0.0
C271 C 0.36149 0.25789 0.41749 0.0
Co272 Co 0.72034 0.11119 0.49436 0.0
Co273 Co 0.75402 0.15221 0.43117 0.0
C274 C 0.702 0.13279 0.42932 0.0
O275 O 0.69949 0.1177 0.45772 0.0
O276 O 0.72249 0.14863 0.41688 0.0
C277 C 0.68555 0.097 0.55692 0.0
O278 O 0.68699 0.11675 0.54298 0.0
C279 C 0.78013 0.20092 0.39565 0.0
C280 C 0.80679 0.19904 0.35455 0.0
C281 C 0.79867 0.21421 0.36715 0.0
N282 N 0.77762 0.17912 0.39953 0.0
N283 N 0.79369 0.1782 0.37496 0.0
C284 C 0.76418 0.20817 0.41727 0.0
H285 H 0.74779 0.19248 0.42902 0.0
H286 H 0.77345 0.2194 0.44547 0.0
H287 H 0.7596 0.21857 0.39494 0.0
C288 C 0.75632 0.14202 0.55646 0.0
N289 N 0.74643 0.13868 0.5173 0.0
N290 N 0.76102 0.15582 0.49145 0.0
C291 C 0.78078 0.1707 0.51369 0.0
C292 C 0.77845 0.16237 0.55562 0.0
C293 C 0.7455 0.12483 0.59285 0.0
H294 H 0.72821 0.12321 0.60137 0.0
H295 H 0.7569 0.1306 0.62182 0.0
H296 H 0.74217 0.10708 0.58261 0.0
O297 O 0.73251 0.09467 0.45864 0.0
O298 O 0.75371 0.12277 0.41017 0.0
H299 H 0.8178 0.19822 0.51652 0.0
H300 H 0.79914 0.20427 0.48203 0.0
C301 C 0.80277 0.19027 0.49357 0.0
H302 H 0.80779 0.18326 0.46545 0.0
H303 H 0.79547 0.1632 0.37158 0.0
O304 O 0.69943 0.09048 0.54115 0.0
C305 C 0.74513 0.10165 0.42468 0.0
Co306 Co 0.44561 0.05855 0.17128 0.0
Co307 Co 0.48441 0.06268 0.23602 0.0
C308 C 0.46882 0.09886 0.23393 0.0
O309 O 0.45407 0.08749 0.20428 0.0
O310 O 0.48268 0.09199 0.24852 0.0
C311 C 0.41189 0.06625 0.12456 0.0
O312 O 0.41103 0.07678 0.15994 0.0
C313 C 0.53233 0.08316 0.27182 0.0
C314 C 0.52859 0.0549 0.31582 0.0
C315 C 0.54487 0.0776 0.30165 0.0
N316 N 0.51005 0.06472 0.26912 0.0
N317 N 0.50792 0.04789 0.2955 0.0
C318 C 0.54104 0.10492 0.24467 0.0
H319 H 0.52856 0.10162 0.2178 0.0
H320 H 0.55888 0.11031 0.23152 0.0
H321 H 0.54208 0.11961 0.26445 0.0
C322 C 0.47632 0.05232 0.11012 0.0
N323 N 0.4723 0.05774 0.14974 0.0
N324 N 0.48835 0.05852 0.17636 0.0
C325 C 0.50298 0.05314 0.15435 0.0
C326 C 0.49593 0.04925 0.11153 0.0
C327 C 0.45964 0.04695 0.07324 0.0
H328 H 0.44161 0.03288 0.08289 0.0
H329 H 0.45872 0.06309 0.06515 0.0
H330 H 0.4651 0.04089 0.04441 0.0
O331 O 0.42731 0.03108 0.20926 0.0
O332 O 0.45434 0.03482 0.25711 0.0
H333 H 0.51532 0.03858 0.20281 0.0
H334 H 0.53014 0.04314 0.15145 0.0
C335 C 0.52235 0.0504 0.17442 0.0
H336 H 0.53657 0.06798 0.18556 0.0
H337 H 0.49231 0.03171 0.29987 0.0
O338 O 0.42515 0.05709 0.12304 0.0
C339 C 0.43308 0.0241 0.24301 0.0
Co340 Co 0.93296 0.38412 0.1672 0.0
Co341 Co 0.93127 0.41886 0.2348 0.0
C342 C 0.89193 0.36825 0.22797 0.0
O343 O 0.90233 0.36449 0.19691 0.0
O344 O 0.90074 0.38876 0.24496 0.0
C345 C 0.92638 0.34366 0.11957 0.0
O346 O 0.91753 0.3323 0.15581 0.0
C347 C 0.91414 0.44637 0.28328 0.0
C348 C 0.94617 0.47056 0.32035 0.0
C349 C 0.9225 0.46377 0.31479 0.0
N350 N 0.93208 0.44302 0.27089 0.0
N351 N 0.95124 0.45778 0.29279 0.0
C352 C 0.88906 0.43134 0.26866 0.0
H353 H 0.88854 0.42344 0.23682 0.0
H354 H 0.87999 0.44192 0.26695 0.0
H355 H 0.87939 0.41677 0.29214 0.0
C356 C 0.94884 0.4259 0.11197 0.0
N357 N 0.93824 0.41406 0.14829 0.0
N358 N 0.93747 0.42882 0.1762 0.0
C359 C 0.9475 0.45063 0.1583 0.0
C360 C 0.95526 0.44964 0.11697 0.0
C361 C 0.95686 0.41556 0.07723 0.0
H362 H 0.96736 0.40814 0.09164 0.0
H363 H 0.94106 0.40076 0.06165 0.0
H364 H 0.96781 0.42878 0.05254 0.0
O365 O 0.95843 0.38879 0.20725 0.0
O366 O 0.95694 0.41322 0.25545 0.0
H367 H 0.96631 0.47698 0.20613 0.0
H368 H 0.95754 0.48775 0.16006 0.0
C369 C 0.95209 0.47249 0.18215 0.0
H370 H 0.93581 0.46907 0.19959 0.0
H371 H 0.96755 0.45845 0.29014 0.0
O372 O 0.93391 0.3658 0.11761 0.0
C373 C 0.96586 0.40091 0.24165 0.0
Co374 Co 0.62078 0.55631 0.17745 0.0
Co375 Co 0.58445 0.50997 0.22647 0.0
C376 C 0.63595 0.52694 0.23045 0.0
O377 O 0.63995 0.54442 0.20655 0.0
O378 O 0.61486 0.51135 0.24043 0.0
C379 C 0.654 0.5786 0.10898 0.0
O380 O 0.64753 0.55673 0.09777 0.0
C381 C 0.5556 0.46023 0.25845 0.0
C382 C 0.52576 0.46214 0.28816 0.0
C383 C 0.53488 0.44712 0.28225 0.0
N384 N 0.55848 0.48196 0.25105 0.0
N385 N 0.54043 0.48281 0.26859 0.0
C386 C 0.57299 0.45276 0.24505 0.0
H387 H 0.5901 0.46818 0.23538 0.0
H388 H 0.56581 0.44078 0.21692 0.0
H389 H 0.57583 0.44299 0.27145 0.0
C390 C 0.58559 0.53255 0.10758 0.0
N391 N 0.59456 0.53239 0.1465 0.0
N392 N 0.57994 0.51244 0.16637 0.0
C393 C 0.56158 0.49897 0.14007 0.0
C394 C 0.56452 0.5113 0.10201 0.0
C395 C 0.59621 0.5533 0.07751 0.0
H396 H 0.60941 0.55208 0.05673 0.0
H397 H 0.58264 0.55348 0.05633 0.0
H398 H 0.6053 0.57015 0.09584 0.0
O399 O 0.60906 0.56985 0.22124 0.0
O400 O 0.58479 0.53697 0.2572 0.0
H401 H 0.52823 0.4672 0.12572 0.0
H402 H 0.54616 0.46406 0.16679 0.0
C403 C 0.54033 0.47606 0.15315 0.0
H404 H 0.53051 0.47962 0.17846 0.0
H405 H 0.53847 0.49779 0.26824 0.0
O406 O 0.64401 0.58237 0.14065 0.0
C407 C 0.59473 0.55937 0.25209 0.0
Co408 Co 0.56448 0.94187 0.82326 0.0
Co409 Co 0.52188 0.93638 0.76686 0.0
C410 C 0.53941 0.90192 0.7598 0.0
O411 O 0.55498 0.91319 0.78829 0.0
O412 O 0.52492 0.90864 0.74842 0.0
C413 C 0.57983 0.92128 0.88405 0.0
O414 O 0.55952 0.90301 0.87224 0.0
C415 C 0.47268 0.91517 0.73501 0.0
C416 C 0.47438 0.94484 0.69762 0.0
C417 C 0.4592 0.92136 0.70899 0.0
N418 N 0.49463 0.93413 0.73876 0.0
N419 N 0.49546 0.95181 0.71643 0.0
C420 C 0.4654 0.89145 0.75445 0.0
H421 H 0.48111 0.89007 0.76352 0.0
H422 H 0.45505 0.88928 0.78409 0.0
H423 H 0.45413 0.877 0.7318 0.0
C424 C 0.53825 0.95162 0.88895 0.0
N425 N 0.5386 0.94232 0.85048 0.0
N426 N 0.52052 0.93971 0.82739 0.0
C427 C 0.50816 0.94741 0.85056 0.0
C428 C 0.51902 0.95538 0.89034 0.0
C429 C 0.55871 0.96139 0.91957 0.0
H430 H 0.57539 0.97313 0.90199 0.0
H431 H 0.5603 0.94651 0.93331 0.0
H432 H 0.55653 0.97148 0.94617 0.0
O433 O 0.58091 0.96982 0.78444 0.0
O434 O 0.55014 0.9656 0.74584 0.0
H435 H 0.49629 0.96457 0.8067 0.0
H436 H 0.48062 0.95665 0.85745 0.0
C437 C 0.48886 0.95094 0.8324 0.0
H438 H 0.475 0.93409 0.81804 0.0
H439 H 0.51056 0.96853 0.71344 0.0
O440 O 0.58633 0.9415 0.86748 0.0
C441 C 0.5722 0.97682 0.75496 0.0
Co442 Co 0.07356 0.62825 0.83782 0.0
Co443 Co 0.07504 0.59074 0.77476 0.0
C444 C 0.11534 0.64085 0.78107 0.0
O445 O 0.10443 0.64546 0.80973 0.0
O446 O 0.10627 0.62043 0.76388 0.0
C447 C 0.09439 0.6639 0.90109 0.0
O448 O 0.11291 0.6619 0.89091 0.0
C449 C 0.09368 0.56382 0.72765 0.0
C450 C 0.06095 0.53022 0.71284 0.0
C451 C 0.08539 0.54178 0.70818 0.0
N452 N 0.07502 0.56496 0.74374 0.0
N453 N 0.05552 0.54486 0.7344 0.0
C454 C 0.11848 0.5845 0.72707 0.0
H455 H 0.11847 0.59973 0.71112 0.0
H456 H 0.1248 0.58976 0.7605 0.0
H457 H 0.13094 0.58077 0.7091 0.0
C458 C 0.06083 0.59003 0.89996 0.0
N459 N 0.06813 0.59917 0.8605 0.0
N460 N 0.06854 0.58312 0.83523 0.0
C461 C 0.06135 0.56304 0.85844 0.0
C462 C 0.05629 0.56682 0.90021 0.0
C463 C 0.0557 0.60254 0.93512 0.0
H464 H 0.04569 0.6108 0.92194 0.0
H465 H 0.0727 0.6169 0.9482 0.0
H466 H 0.04524 0.59032 0.96151 0.0
O467 O 0.04887 0.62252 0.7951 0.0
O468 O 0.04975 0.59627 0.75025 0.0
H469 H 0.04226 0.53153 0.82121 0.0
H470 H 0.05729 0.52824 0.86702 0.0
C471 C 0.05864 0.54043 0.84084 0.0
H472 H 0.07398 0.54431 0.81997 0.0
H473 H 0.03845 0.54112 0.74274 0.0
O474 O 0.0745 0.65019 0.88344 0.0
C475 C 0.04135 0.60949 0.76169 0.0
Co476 Co 0.38146 0.44926 0.8288 0.0
Co477 Co 0.419 0.48685 0.76517 0.0
C478 C 0.36879 0.47733 0.76967 0.0
O479 O 0.36366 0.46253 0.80008 0.0
O480 O 0.38953 0.488 0.75358 0.0
C481 C 0.35385 0.43745 0.90475 0.0
O482 O 0.36247 0.46053 0.90555 0.0
C483 C 0.44895 0.53541 0.73278 0.0
C484 C 0.47153 0.53083 0.68531 0.0
C485 C 0.46661 0.54766 0.70225 0.0
N486 N 0.44383 0.51263 0.7336 0.0
N487 N 0.4575 0.51005 0.7053 0.0
C488 C 0.43608 0.54463 0.75927 0.0
H489 H 0.4196 0.52988 0.77302 0.0
H490 H 0.44753 0.5551 0.78645 0.0
H491 H 0.43186 0.5563 0.73969 0.0
C492 C 0.42228 0.47276 0.88784 0.0
N493 N 0.41133 0.47259 0.851 0.0
N494 N 0.42702 0.48853 0.8246 0.0
C495 C 0.4484 0.49943 0.84411 0.0
C496 C 0.44609 0.48992 0.88496 0.0
C497 C 0.41121 0.4541 0.92195 0.0
H498 H 0.39937 0.45785 0.94195 0.0
H499 H 0.4247 0.45386 0.94335 0.0
H500 H 0.40045 0.43638 0.90701 0.0
O501 O 0.38676 0.42972 0.78633 0.0
O502 O 0.41378 0.45607 0.74147 0.0
H503 H 0.48676 0.52089 0.84276 0.0
H504 H 0.47102 0.53144 0.81007 0.0
C505 C 0.47122 0.51539 0.82144 0.0
H506 H 0.4729 0.50608 0.79297 0.0
H507 H 0.45684 0.49398 0.69889 0.0
O508 O 0.36005 0.4284 0.87482 0.0
C509 C 0.40004 0.43463 0.75331 0.0
Co510 Co 0.11384 0.40074 0.50328 0.0
Co511 Co 0.15856 0.41241 0.55917 0.0
C512 C 0.13978 0.44586 0.55576 0.0
O513 O 0.12312 0.43194 0.53074 0.0
O514 O 0.15559 0.44106 0.5679 0.0
C515 C 0.07715 0.40452 0.45823 0.0
O516 O 0.07861 0.41831 0.49028 0.0
C517 C 0.20748 0.43492 0.59511 0.0
C518 C 0.20499 0.40486 0.63241 0.0
C519 C 0.2202 0.42857 0.62279 0.0
N520 N 0.18583 0.41581 0.58898 0.0
N521 N 0.1846 0.39792 0.6112 0.0
C522 C 0.21519 0.45893 0.57658 0.0
H523 H 0.19976 0.46033 0.56567 0.0
H524 H 0.22668 0.46175 0.5483 0.0
H525 H 0.22551 0.473 0.60053 0.0
C526 C 0.13961 0.38791 0.44125 0.0
N527 N 0.13948 0.39909 0.4776 0.0
N528 N 0.15825 0.40379 0.50067 0.0
C529 C 0.17087 0.39561 0.47966 0.0
C530 C 0.15946 0.38514 0.44129 0.0
C531 C 0.11877 0.37609 0.4116 0.0
H532 H 0.10267 0.36399 0.43031 0.0
H533 H 0.11574 0.38982 0.3966 0.0
H534 H 0.12142 0.36581 0.38598 0.0
O535 O 0.09912 0.37581 0.54808 0.0
O536 O 0.131 0.38625 0.58855 0.0
H537 H 0.1855 0.38192 0.52521 0.0
H538 H 0.20079 0.38991 0.47415 0.0
C539 C 0.19167 0.39497 0.49854 0.0
H540 H 0.2044 0.41267 0.51177 0.0
H541 H 0.1696 0.38103 0.61257 0.0
O542 O 0.09011 0.39502 0.45831 0.0
C543 C 0.10889 0.37312 0.5814 0.0
Co544 Co 0.6045 0.71268 0.5046 0.0
Co545 Co 0.60413 0.75124 0.56434 0.0
C546 C 0.5638 0.7005 0.56289 0.0
O547 O 0.57335 0.69528 0.53242 0.0
O548 O 0.57375 0.72143 0.57826 0.0
C549 C 0.59098 0.68062 0.43255 0.0
O550 O 0.57586 0.68774 0.42322 0.0
C551 C 0.58593 0.78206 0.59511 0.0
C552 C 0.61508 0.80698 0.63715 0.0
C553 C 0.59264 0.80121 0.62283 0.0
N554 N 0.60358 0.77695 0.59337 0.0
N555 N 0.62098 0.792 0.61843 0.0
C556 C 0.56281 0.76797 0.57215 0.0
H557 H 0.56045 0.75075 0.56103 0.0
H558 H 0.56268 0.77797 0.54341 0.0
H559 H 0.54782 0.76493 0.59333 0.0
C560 C 0.62167 0.75187 0.44202 0.0
N561 N 0.61095 0.74178 0.47942 0.0
N562 N 0.61048 0.75797 0.50414 0.0
C563 C 0.62071 0.77887 0.48281 0.0
C564 C 0.62812 0.77571 0.44269 0.0
C565 C 0.6288 0.7398 0.40912 0.0
H566 H 0.6368 0.73025 0.42519 0.0
H567 H 0.61279 0.72661 0.3916 0.0
H568 H 0.64148 0.75251 0.38535 0.0
O569 O 0.62864 0.71882 0.54849 0.0
O570 O 0.62991 0.74718 0.59016 0.0
H571 H 0.63879 0.80512 0.5312 0.0
H572 H 0.63625 0.81711 0.48033 0.0
C573 C 0.62709 0.80213 0.50322 0.0
H574 H 0.61074 0.80157 0.51502 0.0
H575 H 0.63672 0.79176 0.62338 0.0
O576 O 0.60514 0.68979 0.46389 0.0
C577 C 0.63717 0.73283 0.58039 0.0
Co578 Co 0.28517 0.88326 0.51172 0.0
Co579 Co 0.25314 0.85192 0.58715 0.0
C580 C 0.30388 0.86345 0.57711 0.0
O581 O 0.30688 0.87589 0.54375 0.0
O582 O 0.28382 0.8527 0.59578 0.0
C583 C 0.32384 0.91556 0.46049 0.0
O584 O 0.33481 0.92015 0.49762 0.0
C585 C 0.22485 0.8058 0.6292 0.0
C586 C 0.21304 0.81572 0.68816 0.0
C587 C 0.21296 0.79677 0.66763 0.0
N588 N 0.23168 0.82901 0.62717 0.0
N589 N 0.22426 0.83475 0.66224 0.0
C590 C 0.23188 0.79329 0.59722 0.0
H591 H 0.24501 0.8061 0.57407 0.0
H592 H 0.21589 0.78019 0.57941 0.0
H593 H 0.23935 0.78341 0.61396 0.0
C594 C 0.24343 0.85063 0.46129 0.0
N595 N 0.25575 0.85593 0.49822 0.0
N596 N 0.24115 0.84495 0.53012 0.0
C597 C 0.21874 0.83377 0.51514 0.0
C598 C 0.21917 0.83675 0.47044 0.0
C599 C 0.25517 0.8592 0.41855 0.0
H600 H 0.27296 0.86079 0.41889 0.0
H601 H 0.24447 0.84675 0.39261 0.0
H602 H 0.2576 0.87705 0.41195 0.0
O603 O 0.27879 0.9054 0.54663 0.0
O604 O 0.25796 0.88333 0.60243 0.0
H605 H 0.18408 0.82867 0.5309 0.0
H606 H 0.18984 0.80564 0.54936 0.0
C607 C 0.19771 0.82504 0.54442 0.0
H608 H 0.20316 0.83394 0.57604 0.0
H609 H 0.22786 0.85191 0.66945 0.0
O610 O 0.3019 0.90016 0.45875 0.0
C611 C 0.2682 0.90304 0.58237 0.0
H612 H 0.27771 0.28725 0.27346 0.0
H613 H 0.23979 0.2126 0.23876 0.0
H614 H 0.26539 0.2053 0.28714 0.0
H615 H 0.33531 0.29386 0.28037 0.0
H616 H 0.34442 0.31323 0.32638 0.0
H617 H 0.32275 0.31268 0.2898 0.0
H618 H 0.29329 0.30307 0.3528 0.0
H619 H 0.3149 0.3036 0.38961 0.0
H620 H 0.28576 0.27772 0.3865 0.0
H621 H 0.29659 0.20642 0.3344 0.0
H622 H 0.33024 0.21544 0.38229 0.0
H623 H 0.34671 0.28874 0.39089 0.0
C624 C 0.27478 0.26937 0.27626 0.0
C625 C 0.25681 0.25049 0.25233 0.0
C626 C 0.25337 0.22731 0.25696 0.0
C627 C 0.26784 0.22297 0.28428 0.0
C628 C 0.28545 0.24194 0.30725 0.0
C629 C 0.28885 0.26464 0.30401 0.0
C630 C 0.30912 0.28179 0.33245 0.0
C631 C 0.32908 0.30155 0.30564 0.0
C632 C 0.30023 0.29215 0.36742 0.0
C633 C 0.31681 0.26524 0.35149 0.0
C634 C 0.30295 0.24237 0.33626 0.0
C635 C 0.30738 0.22417 0.34707 0.0
C636 C 0.32655 0.22947 0.37413 0.0
C637 C 0.34085 0.25269 0.39052 0.0
C638 C 0.33576 0.27074 0.37939 0.0
H639 H 0.73374 0.0192 0.22607 0.0
H640 H 0.76413 0.98721 0.30761 0.0
H641 H 0.76768 0.0141 0.36676 0.0
H642 H 0.77225 0.07923 0.2632 0.0
H643 H 0.74969 0.08754 0.26006 0.0
H644 H 0.74861 0.06515 0.22455 0.0
H645 H 0.70604 0.0355 0.25073 0.0
H646 H 0.70694 0.05783 0.28614 0.0
H647 H 0.70055 0.02943 0.30732 0.0
H648 H 0.76575 0.04273 0.4181 0.0
H649 H 0.76148 0.07371 0.4567 0.0
H650 H 0.73637 0.09007 0.33997 0.0
C651 C 0.74099 0.01782 0.25652 0.0
C652 C 0.74849 1.00107 0.2626 0.0
C653 C 0.75829 0.99997 0.30247 0.0
C654 C 0.76034 0.01512 0.33621 0.0
C655 C 0.75294 0.03158 0.3292 0.0
C656 C 0.74374 0.03326 0.29022 0.0
C657 C 0.73794 0.05312 0.29073 0.0
C658 C 0.75303 0.0724 0.25767 0.0
C659 C 0.71129 0.04338 0.2833 0.0
C660 C 0.74506 0.06213 0.33622 0.0
C661 C 0.7534 0.04925 0.35799 0.0
C662 C 0.75963 0.05322 0.40124 0.0
C663 C 0.75716 0.07077 0.42286 0.0
C664 C 0.74909 0.08442 0.40092 0.0
C665 C 0.74317 0.0802 0.35702 0.0
H666 H 0.01084 0.72068 0.27159 0.0
H667 H 0.96699 0.74748 0.21911 0.0
H668 H 0.93316 0.71861 0.26279 0.0
H669 H 0.96493 0.65859 0.28007 0.0
H670 H 0.97553 0.65412 0.33068 0.0
H671 H 0.996 0.67586 0.29328 0.0
H672 H 0.00969 0.70829 0.35199 0.0
H673 H 0.98921 0.68668 0.38952 0.0
H674 H 0.98799 0.71329 0.37876 0.0
H675 H 0.90422 0.68702 0.31071 0.0
H676 H 0.88201 0.65583 0.3644 0.0
H677 H 0.94499 0.65103 0.39082 0.0
C678 C 0.99399 0.72018 0.26906 0.0
C679 C 0.99132 0.73606 0.24187 0.0
C680 C 0.96928 0.73539 0.23985 0.0
C681 C 0.94999 0.71904 0.26439 0.0
C682 C 0.95318 0.70377 0.29125 0.0
C683 C 0.97463 0.70428 0.29415 0.0
C684 C 0.9735 0.6867 0.32741 0.0
C685 C 0.97774 0.66769 0.3066 0.0
C686 C 0.99114 0.69951 0.3641 0.0
C687 C 0.94806 0.67624 0.34256 0.0
C688 C 0.93665 0.6862 0.3208 0.0
C689 C 0.91294 0.67914 0.32815 0.0
C690 C 0.90048 0.66139 0.35862 0.0
C691 C 0.91183 0.65113 0.38185 0.0
C692 C 0.93598 0.65876 0.37382 0.0
H693 H 0.66323 0.76202 0.64736 0.0
H694 H 0.65053 0.69921 0.5763 0.0
H695 H 0.67741 0.69405 0.62473 0.0
H696 H 0.72595 0.78355 0.66782 0.0
H697 H 0.72514 0.79429 0.72076 0.0
H698 H 0.7052 0.79348 0.67985 0.0
H699 H 0.66942 0.76811 0.72973 0.0
H700 H 0.68922 0.76869 0.77066 0.0
H701 H 0.66554 0.74068 0.75141 0.0
H702 H 0.70377 0.69421 0.68238 0.0
H703 H 0.73073 0.70152 0.74317 0.0
H704 H 0.72768 0.76489 0.7761 0.0
C705 C 0.66624 0.74729 0.64179 0.0
C706 C 0.6547 0.73102 0.60799 0.0
C707 C 0.65917 0.71199 0.60182 0.0
C708 C 0.67437 0.70883 0.62925 0.0
C709 C 0.68517 0.72494 0.66252 0.0
C710 C 0.68157 0.74396 0.6687 0.0
C711 C 0.69554 0.75871 0.70695 0.0
C712 C 0.71406 0.784 0.693 0.0
C713 C 0.67893 0.75905 0.74174 0.0
C714 C 0.70726 0.74478 0.72151 0.0
C715 C 0.70093 0.72533 0.69547 0.0
C716 C 0.70904 0.70948 0.70286 0.0
C717 C 0.72429 0.71375 0.73758 0.0
C718 C 0.7314 0.73382 0.76431 0.0
C719 C 0.72266 0.74945 0.75614 0.0
H720 H 0.26207 0.98153 0.77253 0.0
H721 H 0.24576 0.01989 0.67737 0.0
H722 H 0.25036 0.99627 0.61962 0.0
H723 H 0.30487 0.97407 0.71167 0.0
H724 H 0.29451 0.94426 0.73049 0.0
H725 H 0.29127 0.96509 0.76386 0.0
H726 H 0.24601 0.93587 0.7695 0.0
H727 H 0.24914 0.9149 0.73639 0.0
H728 H 0.22872 0.92474 0.72114 0.0
H729 H 0.25839 0.96927 0.57232 0.0
H730 H 0.26348 0.93726 0.5399 0.0
H731 H 0.27057 0.91432 0.66695 0.0
C732 C 0.25958 0.98498 0.73948 0.0
C733 C 0.25378 0.00257 0.7291 0.0
C734 C 0.25019 0.0064 0.68574 0.0
C735 C 0.25291 0.9932 0.65282 0.0
C736 C 0.25874 0.97598 0.66407 0.0
C737 C 0.26157 0.97154 0.70643 0.0
C738 C 0.2662 0.95101 0.71026 0.0
C739 C 0.29067 0.9591 0.73025 0.0
C740 C 0.24633 0.93041 0.73582 0.0
C741 C 0.26565 0.94465 0.66344 0.0
C742 C 0.26179 0.95951 0.63718 0.0
C743 C 0.26122 0.9574 0.59259 0.0
C744 C 0.26425 0.9393 0.57446 0.0
C745 C 0.26724 0.92335 0.60103 0.0
C746 C 0.26809 0.9262 0.64599 0.0
H747 H 1.00014 0.25402 0.67775 0.0
H748 H 0.02848 0.28264 0.80348 0.0
H749 H 0.06231 0.31752 0.76978 0.0
H750 H 0.05635 0.27506 0.62193 0.0
H751 H 0.04657 0.28276 0.57354 0.0
H752 H 0.02543 0.25906 0.60721 0.0
H753 H 1.00046 0.27993 0.61288 0.0
H754 H 0.02152 0.30369 0.57925 0.0
H755 H 0.01431 0.3102 0.63153 0.0
H756 H 0.09297 0.3485 0.72352 0.0
H757 H 0.11734 0.37658 0.66691 0.0
H758 H 0.0677 0.33029 0.57032 0.0
C759 C 0.01368 0.26758 0.6979 0.0
C760 C 0.01207 0.26576 0.74302 0.0
C761 C 0.02963 0.2839 0.76879 0.0
C762 C 0.04888 0.30365 0.74998 0.0
C763 C 0.04998 0.30512 0.70541 0.0
C764 C 0.03275 0.28781 0.67958 0.0
C765 C 0.03752 0.29472 0.6326 0.0
C766 C 0.04172 0.27683 0.60734 0.0
C767 C 0.01725 0.29729 0.61292 0.0
C768 C 0.0601 0.31856 0.63621 0.0
C769 C 0.06711 0.32393 0.67852 0.0
C770 C 0.08765 0.34461 0.69026 0.0
C771 C 0.10139 0.36039 0.65787 0.0
C772 C 0.09431 0.35561 0.61436 0.0
C773 C 0.07337 0.33443 0.6034 0.0
H774 H 0.95959 0.58557 0.55515 0.0
H775 H 0.93835 0.63332 0.61109 0.0
H776 H 0.96353 0.63886 0.67408 0.0
H777 H 0.96063 0.55734 0.65351 0.0
H778 H 0.98629 0.55519 0.63886 0.0
H779 H 0.96674 0.55503 0.59782 0.0
H780 H 1.00216 0.59077 0.56041 0.0
H781 H 0.02185 0.59095 0.60118 0.0
H782 H 0.0204 0.61746 0.59064 0.0
H783 H 0.99065 0.63904 0.73107 0.0
H784 H 0.01906 0.63499 0.77742 0.0
H785 H 0.0228 0.58709 0.68455 0.0
C786 C 0.96029 0.59727 0.58054 0.0
C787 C 0.94697 0.60901 0.57814 0.0
C788 C 0.94837 0.62413 0.61215 0.0
C789 C 0.9626 0.62737 0.64812 0.0
C790 C 0.97532 0.61537 0.64961 0.0
C791 C 0.97439 0.6007 0.6167 0.0
C792 C 0.98991 0.58998 0.62625 0.0
C793 C 0.975 0.56277 0.62929 0.0
C794 C 0.00976 0.59776 0.59263 0.0
C795 C 0.99975 0.60098 0.66965 0.0
C796 C 0.99103 0.6155 0.68255 0.0
C797 C 0.99762 0.62772 0.72133 0.0
C798 C 0.01377 0.62527 0.74746 0.0
C799 C 0.02323 0.61071 0.73473 0.0
C800 C 0.01589 0.59829 0.69536 0.0
H801 H 0.42353 0.43729 0.67796 0.0
H802 H 0.37276 0.38702 0.76928 0.0
H803 H 0.36815 0.35389 0.72418 0.0
H804 H 0.39419 0.40539 0.58367 0.0
H805 H 0.42103 0.41257 0.55499 0.0
H806 H 0.4213 0.43257 0.59526 0.0
H807 H 0.45523 0.43076 0.63534 0.0
H808 H 0.45517 0.41086 0.59503 0.0
H809 H 0.45143 0.40234 0.65078 0.0
H810 H 0.36765 0.32621 0.66825 0.0
H811 H 0.3724 0.30561 0.60595 0.0
H812 H 0.42365 0.3736 0.55078 0.0
C813 C 0.4116 0.41933 0.68871 0.0
C814 C 0.39852 0.41483 0.72726 0.0
C815 C 0.38302 0.39101 0.73996 0.0
C816 C 0.38024 0.37202 0.71454 0.0
C817 C 0.39313 0.37708 0.67654 0.0
C818 C 0.40862 0.40011 0.66373 0.0
C819 C 0.42005 0.4006 0.62104 0.0
C820 C 0.41376 0.41355 0.58672 0.0
C821 C 0.44707 0.4118 0.62585 0.0
C822 C 0.40836 0.37425 0.61172 0.0
C823 C 0.39292 0.36103 0.64422 0.0
C824 C 0.37979 0.33634 0.64269 0.0
C825 C 0.38259 0.32481 0.60708 0.0
C826 C 0.39844 0.33796 0.57345 0.0
C827 C 0.41142 0.36302 0.57593 0.0
H828 H 0.61725 0.99141 0.72597 0.0
H829 H 0.56174 0.00985 0.72613 0.0
H830 H 0.58621 0.04428 0.67945 0.0
H831 H 0.66847 0.05224 0.7216 0.0
H832 H 0.6848 0.04421 0.6851 0.0
H833 H 0.66423 0.02265 0.72266 0.0
H834 H 0.6422 0.99384 0.65987 0.0
H835 H 0.6626 0.01533 0.62215 0.0
H836 H 0.63116 0.00368 0.61606 0.0
H837 H 0.61551 0.07542 0.63105 0.0
H838 H 0.64704 0.1004 0.57984 0.0
H839 H 0.68286 0.06057 0.60649 0.0
C840 C 0.61056 0.00306 0.71688 0.0
C841 C 0.58781 0.99829 0.73 0.0
C842 C 0.57922 0.01339 0.71652 0.0
C843 C 0.59299 0.03298 0.69017 0.0
C844 C 0.61518 0.03702 0.67715 0.0
C845 C 0.62391 0.02245 0.68973 0.0
C846 C 0.64744 0.02965 0.66805 0.0
C847 C 0.66742 0.03767 0.70135 0.0
C848 C 0.64573 0.00942 0.63986 0.0
C849 C 0.6504 0.05035 0.64104 0.0
C850 C 0.63174 0.05447 0.64738 0.0
C851 C 0.63027 0.07244 0.62588 0.0
C852 C 0.64829 0.08655 0.59687 0.0
C853 C 0.66738 0.08241 0.58913 0.0
C854 C 0.66845 0.0641 0.61168 0.0
H855 H 0.38221 0.08469 0.11613 0.0
H856 H 0.40981 0.04562 0.04695 0.0
H857 H 0.38628 0.04372 0.98358 0.0
H858 H 0.32344 0.05259 0.07517 0.0
H859 H 0.31957 0.07813 0.07167 0.0
H860 H 0.33939 0.07735 0.11106 0.0
H861 H 0.37364 0.11693 0.0813 0.0
H862 H 0.35392 0.11779 0.04168 0.0
H863 H 0.38116 0.11923 0.02513 0.0
H864 H 0.3587 0.04454 0.92897 0.0
H865 H 0.32834 0.04755 0.88669 0.0
H866 H 0.31887 0.08652 0.99078 0.0
C867 C 0.3834 0.07582 0.08761 0.0
C868 C 0.39787 0.0653 0.08653 0.0
C869 C 0.39887 0.05382 0.04858 0.0
C870 C 0.38562 0.05269 0.01235 0.0
C871 C 0.37153 0.06321 0.01452 0.0
C872 C 0.37032 0.07457 0.0511 0.0
C873 C 0.35326 0.08383 0.0453 0.0
C874 C 0.3327 0.07228 0.07772 0.0
C875 C 0.36628 0.11106 0.04854 0.0
C876 C 0.34481 0.07558 0.99995 0.0
C877 C 0.35568 0.06383 0.98276 0.0
C878 C 0.35018 0.05384 0.94194 0.0
C879 C 0.33287 0.05563 0.9182 0.0
C880 C 0.32125 0.06733 0.93533 0.0
C881 C 0.3276 0.07769 0.97657 0.0
H882 H 0.91186 0.2962 0.112 0.0
H883 H 0.94518 0.36269 0.04124 0.0
H884 H 0.94948 0.34217 0.97838 0.0
H885 H 0.94855 0.27461 0.07191 0.0
H886 H 0.92515 0.24407 0.06885 0.0
H887 H 0.92348 0.26366 0.10774 0.0
H888 H 0.88246 0.25393 0.07773 0.0
H889 H 0.88401 0.23429 0.0387 0.0
H890 H 0.87947 0.25818 0.0214 0.0
H891 H 0.95216 0.31527 0.92479 0.0
H892 H 0.95271 0.28337 0.88312 0.0
H893 H 0.91715 0.234 0.98787 0.0
C894 C 0.91989 0.30642 0.08318 0.0
C895 C 0.92817 0.33106 0.08155 0.0
C896 C 0.93867 0.3438 0.04327 0.0
C897 C 0.94117 0.33231 0.00734 0.0
C898 C 0.93298 0.30806 0.01012 0.0
C899 C 0.92249 0.29521 0.04693 0.0
C900 C 0.91584 0.26945 0.04174 0.0
C901 C 0.92905 0.26255 0.0745 0.0
C902 C 0.88884 0.25299 0.04508 0.0
C903 C 0.9246 0.26995 0.99649 0.0
C904 C 0.93434 0.2924 0.97885 0.0
C905 C 0.94441 0.29756 0.93807 0.0
C906 C 0.9447 0.27932 0.91472 0.0
C907 C 0.93493 0.25616 0.93218 0.0
C908 C 0.92454 0.25144 0.97348 0.0
H909 H 0.66331 0.58664 0.02307 0.0
H910 H 0.69085 0.6155 0.14904 0.0
H911 H 0.72666 0.64852 0.11567 0.0
H912 H 0.71893 0.6026 0.97092 0.0
H913 H 0.7111 0.61099 0.92106 0.0
H914 H 0.68828 0.58874 0.95469 0.0
H915 H 0.6666 0.61304 0.95663 0.0
H916 H 0.68924 0.63525 0.92274 0.0
H917 H 0.68252 0.6436 0.97375 0.0
H918 H 0.75991 0.67729 0.06906 0.0
H919 H 0.786 0.7038 0.01188 0.0
H920 H 0.73515 0.65877 0.91576 0.0
C921 C 0.67699 0.59993 0.04342 0.0
C922 C 0.67461 0.59861 0.08848 0.0
C923 C 0.69249 0.61638 0.11439 0.0
C924 C 0.7129 0.63505 0.09578 0.0
C925 C 0.71483 0.63587 0.05121 0.0
C926 C 0.69717 0.6191 0.02528 0.0
C927 C 0.70293 0.62516 0.97823 0.0
C928 C 0.70547 0.60571 0.95486 0.0
C929 C 0.68421 0.62953 0.95657 0.0
C930 C 0.72661 0.64789 0.98183 0.0
C931 C 0.73334 0.65345 0.02421 0.0
C932 C 0.75477 0.67326 0.03574 0.0
C933 C 0.76952 0.68811 0.00308 0.0
C934 C 0.7625 0.68333 0.95955 0.0
C935 C 0.74084 0.66287 0.94884 0.0
H936 H 0.61443 0.95441 0.9369 0.0
H937 H 0.57963 0.88013 0.90008 0.0
H938 H 0.60531 0.87368 0.94979 0.0
H939 H 0.673 0.96339 0.94775 0.0
H940 H 0.68038 0.98224 0.99429 0.0
H941 H 0.65911 0.98111 0.95604 0.0
H942 H 0.62807 0.96977 0.01682 0.0
H943 H 0.64925 0.97083 0.05527 0.0
H944 H 0.62072 0.9443 0.05004 0.0
H945 H 0.63626 0.8757 0.99923 0.0
H946 H 0.66923 0.8856 0.04954 0.0
H947 H 0.68233 0.95775 0.05897 0.0
C948 C 0.61226 0.93682 0.93941 0.0
C949 C 0.59513 0.91777 0.9146 0.0
C950 C 0.59259 0.89494 0.91895 0.0
C951 C 0.60711 0.89109 0.94702 0.0
C952 C 0.62383 0.91019 0.97103 0.0
C953 C 0.62635 0.93254 0.96796 0.0
C954 C 0.64561 0.94988 0.99783 0.0
C955 C 0.66571 0.97036 0.97245 0.0
C956 C 0.63529 0.95924 0.03202 0.0
C957 C 0.65376 0.93384 0.01755 0.0
C958 C 0.64102 0.91106 1.00137 0.0
C959 C 0.64615 0.89338 0.01264 0.0
C960 C 0.6649 0.89916 0.04111 0.0
C961 C 0.67803 0.9223 0.05844 0.0
C962 C 0.67221 0.93978 0.04684 0.0
H963 H 0.06026 0.66613 0.94936 0.0
H964 H 0.13523 0.70519 0.91772 0.0
H965 H 0.14028 0.73845 0.96331 0.0
H966 H 0.0505 0.71561 0.95191 0.0
H967 H 0.03065 0.70482 0.99726 0.0
H968 H 0.03285 0.68415 0.96177 0.0
H969 H 0.0431 0.66571 0.02625 0.0
H970 H 0.04083 0.68627 0.06197 0.0
H971 H 0.06765 0.68459 0.06061 0.0
H972 H 0.13671 0.7684 0.00931 0.0
H973 H 0.1254 0.79114 0.05828 0.0
H974 H 0.05355 0.7314 0.06355 0.0
C975 C 0.07771 0.68169 0.9521 0.0
C976 C 0.09733 0.68317 0.92993 0.0
C977 C 0.11997 0.70368 0.9346 0.0
C978 C 0.12301 0.7227 0.96025 0.0
C979 C 0.1033 0.72078 0.98151 0.0
C980 C 0.08116 0.70067 0.97822 0.0
C981 C 0.06305 0.70283 0.00539 0.0
C982 C 0.04309 0.7018 0.9774 0.0
C983 C 0.05308 0.68372 0.04065 0.0
C984 C 0.07842 0.72735 0.02413 0.0
C985 C 0.10152 0.73755 0.00961 0.0
C986 C 0.11873 0.76052 0.0213 0.0
C987 C 0.11216 0.77332 0.04893 0.0
C988 C 0.08872 0.76291 0.06498 0.0
C989 C 0.07171 0.73966 0.05229 0.0
H990 H 0.24752 0.32006 0.00884 0.0
H991 H 0.26937 0.35511 0.13226 0.0
H992 H 0.30039 0.39152 0.09657 0.0
H993 H 0.3064 0.34359 0.96846 0.0
H994 H 0.29886 0.34634 0.91394 0.0
H995 H 0.27693 0.32394 0.94854 0.0
H996 H 0.24857 0.34038 0.93439 0.0
H997 H 0.27039 0.3628 0.89959 0.0
H998 H 0.2587 0.37131 0.94435 0.0
H999 H 0.32857 0.4241 0.04726 0.0
H1000 H 0.35467 0.44942 0.9887 0.0
H1001 H 0.31721 0.3917 0.89844 0.0
C1002 C 0.25864 0.33558 0.0281 0.0
C1003 C 0.25595 0.33512 0.07308 0.0
C1004 C 0.27116 0.35536 0.09767 0.0
C1005 C 0.28873 0.37606 0.07769 0.0
C1006 C 0.29113 0.37594 0.03325 0.0
C1007 C 0.27672 0.35614 0.00879 0.0
C1008 C 0.28421 0.36006 0.96208 0.0
C1009 C 0.29207 0.34244 0.94741 0.0
C1010 C 0.26428 0.35855 0.93342 0.0
C1011 C 0.30502 0.38516 0.96407 0.0
C1012 C 0.30845 0.39414 0.00529 0.0
C1013 C 0.32617 0.41722 0.0149 0.0
C1014 C 0.34084 0.43147 0.98151 0.0
C1015 C 0.33801 0.42239 0.93933 0.0
C1016 C 0.3199 0.39894 0.93059 0.0
H1017 H 0.98521 0.42319 0.31812 0.0
H1018 H 0.98819 0.37559 0.2236 0.0
H1019 H 0.01721 0.37164 0.26853 0.0
H1020 H 0.0476 0.45305 0.34718 0.0
H1021 H 0.04181 0.4553 0.40306 0.0
H1022 H 0.02195 0.45508 0.36259 0.0
H1023 H 0.98671 0.41934 0.40037 0.0
H1024 H 0.00646 0.41933 0.44077 0.0
H1025 H 0.98813 0.39277 0.41034 0.0
H1026 H 0.04475 0.37168 0.32477 0.0
H1027 H 0.06996 0.37676 0.38747 0.0
H1028 H 0.04895 0.42428 0.44525 0.0
C1029 C 0.99209 0.41208 0.3066 0.0
C1030 C 0.98439 0.39971 0.26726 0.0
C1031 C 0.99381 0.38529 0.25355 0.0
C1032 C 0.01029 0.3829 0.27887 0.0
C1033 C 0.01722 0.39507 0.31771 0.0
C1034 C 0.00853 0.40948 0.33142 0.0
C1035 C 0.01859 0.42034 0.3748 0.0
C1036 C 0.03337 0.44756 0.3717 0.0
C1037 C 0.99879 0.41246 0.40855 0.0
C1038 C 0.03412 0.40958 0.38351 0.0
C1039 C 0.03311 0.3951 0.35015 0.0
C1040 C 0.04578 0.38306 0.35102 0.0
C1041 C 0.06002 0.38604 0.38683 0.0
C1042 C 0.06146 0.40094 0.42129 0.0
C1043 C 0.04823 0.41276 0.41949 0.0
H1044 H 0.59416 0.67349 0.34674 0.0
H1045 H 0.58409 0.64077 0.47197 0.0
H1046 H 0.58111 0.60492 0.43842 0.0
H1047 H 0.556 0.61984 0.2854 0.0
H1048 H 0.57582 0.62862 0.24002 0.0
H1049 H 0.57497 0.65088 0.27324 0.0
H1050 H 0.62024 0.67048 0.2863 0.0
H1051 H 0.62122 0.64834 0.25305 0.0
H1052 H 0.63221 0.65281 0.30731 0.0
H1053 H 0.57905 0.57287 0.39187 0.0
H1054 H 0.58279 0.54807 0.33597 0.0
H1055 H 0.59789 0.6028 0.24119 0.0
C1056 C 0.59106 0.65859 0.36679 0.0
C1057 C 0.58909 0.65954 0.41169 0.0
C1058 C 0.58557 0.64014 0.43741 0.0
C1059 C 0.58374 0.61973 0.41867 0.0
C1060 C 0.58587 0.61928 0.37427 0.0
C1061 C 0.58981 0.63828 0.34864 0.0
C1062 C 0.5934 0.63388 0.30219 0.0
C1063 C 0.57388 0.63327 0.27353 0.0
C1064 C 0.61825 0.65248 0.28629 0.0
C1065 C 0.59097 0.60952 0.30586 0.0
C1066 C 0.58615 0.60127 0.3476 0.0
C1067 C 0.58289 0.57913 0.35906 0.0
C1068 C 0.58496 0.56516 0.32708 0.0
C1069 C 0.59072 0.57358 0.28438 0.0
C1070 C 0.59361 0.596 0.27366 0.0
H1071 H 0.37104 0.94871 0.45328 0.0
H1072 H 0.30607 0.91125 0.3792 0.0
H1073 H 0.32769 0.93321 0.31429 0.0
H1074 H 0.39264 0.00464 0.4033 0.0
H1075 H 0.42331 0.01216 0.40446 0.0
H1076 H 0.40301 0.99255 0.44447 0.0
H1077 H 0.414 0.96057 0.42429 0.0
H1078 H 0.43431 0.98007 0.38409 0.0
H1079 H 0.41111 0.95075 0.36939 0.0
H1080 H 0.35576 0.96078 0.25858 0.0
H1081 H 0.38827 0.9921 0.21588 0.0
H1082 H 0.43512 0.01106 0.32605 0.0
C1083 C 0.36136 0.94498 0.42337 0.0
C1084 C 0.33685 0.92826 0.42133 0.0
C1085 C 0.32485 0.92397 0.38155 0.0
C1086 C 0.33698 0.93631 0.34448 0.0
C1087 C 0.36111 0.95275 0.34769 0.0
C1088 C 0.3732 0.95706 0.38607 0.0
C1089 C 0.39893 0.97621 0.38118 0.0
C1090 C 0.4048 0.99766 0.41006 0.0
C1091 C 0.41557 0.9663 0.39027 0.0
C1092 C 0.39935 0.98228 0.33417 0.0
C1093 C 0.37738 0.96847 0.31542 0.0
C1094 C 0.3731 0.97155 0.27279 0.0
C1095 C 0.39169 0.98942 0.24883 0.0
C1096 C 0.4143 0.00398 0.26753 0.0
C1097 C 0.41817 1.00004 0.31063 0.0
H1098 H 0.16666 0.38552 0.35434 0.0
H1099 H 0.15784 0.3449 0.47001 0.0
H1100 H 0.15949 0.31377 0.42706 0.0
H1101 H 0.13134 0.33571 0.28507 0.0
H1102 H 0.15038 0.34826 0.23899 0.0
H1103 H 0.14857 0.36748 0.27862 0.0
H1104 H 0.19413 0.38892 0.28919 0.0
H1105 H 0.19611 0.36999 0.24919 0.0
H1106 H 0.2081 0.37173 0.30206 0.0
H1107 H 0.16159 0.28689 0.37174 0.0
H1108 H 0.16742 0.26754 0.30817 0.0
H1109 H 0.17554 0.32561 0.22802 0.0
C1110 C 0.16528 0.37012 0.37046 0.0
C1111 C 0.16236 0.36761 0.41543 0.0
C1112 C 0.16044 0.34724 0.43563 0.0
C1113 C 0.16115 0.3294 0.41147 0.0
C1114 C 0.1638 0.33223 0.3671 0.0
C1115 C 0.16608 0.35216 0.34676 0.0
C1116 C 0.16926 0.35099 0.29873 0.0
C1117 C 0.14866 0.35059 0.2739 0.0
C1118 C 0.19334 0.37163 0.28393 0.0
C1119 C 0.16854 0.32735 0.29531 0.0
C1120 C 0.16513 0.31674 0.33513 0.0
C1121 C 0.16421 0.29501 0.34039 0.0
C1122 C 0.16743 0.2841 0.30419 0.0
C1123 C 0.17163 0.29496 0.26334 0.0
C1124 C 0.17186 0.3167 0.25879 0.0
H1125 H 0.62143 0.80332 0.38416 0.0
H1126 H 0.67496 0.78998 0.43823 0.0
H1127 H 0.7051 0.81996 0.38938 0.0
H1128 H 0.64171 0.81055 0.2754 0.0
H1129 H 0.63539 0.83392 0.2631 0.0
H1130 H 0.61829 0.81215 0.3034 0.0
H1131 H 0.629 0.84566 0.35894 0.0
H1132 H 0.64609 0.86755 0.31876 0.0
H1133 H 0.65974 0.86705 0.36875 0.0
H1134 H 0.72911 0.85057 0.33325 0.0
H1135 H 0.74547 0.88043 0.27478 0.0
H1136 H 0.67629 0.87344 0.25623 0.0
C1137 C 0.63956 0.80694 0.38575 0.0
C1138 C 0.64605 0.79448 0.41466 0.0
C1139 C 0.66982 0.79945 0.41606 0.0
C1140 C 0.68699 0.81639 0.3885 0.0
C1141 C 0.68005 0.82822 0.35981 0.0
C1142 C 0.65693 0.82379 0.35829 0.0
C1143 C 0.6541 0.83869 0.32392 0.0
C1144 C 0.63632 0.82288 0.28941 0.0
C1145 C 0.6468 0.85575 0.34379 0.0
C1146 C 0.67916 0.85207 0.30625 0.0
C1147 C 0.69387 0.84581 0.32745 0.0
C1148 C 0.71778 0.85568 0.31656 0.0
C1149 C 0.72691 0.87254 0.28336 0.0
C1150 C 0.71218 0.87933 0.26158 0.0
C1151 C 0.68798 0.86878 0.27296 0.0
H1152 H 0.14984 0.84499 0.26433 0.0
H1153 H 0.08433 0.79634 0.32994 0.0
H1154 H 0.1074 0.79408 0.39036 0.0
H1155 H 0.1874 0.82553 0.29893 0.0
H1156 H 0.21262 0.85423 0.31057 0.0
H1157 H 0.1914 0.85148 0.27065 0.0
H1158 H 0.18425 0.8823 0.31059 0.0
H1159 H 0.20605 0.88575 0.34989 0.0
H1160 H 0.17655 0.87806 0.36676 0.0
H1161 H 0.13848 0.79102 0.43551 0.0
H1162 H 0.17376 0.79849 0.47673 0.0
H1163 H 0.21697 0.85977 0.39602 0.0
C1164 C 0.14009 0.83443 0.29167 0.0
C1165 C 0.11508 0.81976 0.29085 0.0
C1166 C 0.10348 0.80648 0.32818 0.0
C1167 C 0.11642 0.80524 0.363 0.0
C1168 C 0.14102 0.81879 0.36156 0.0
C1169 C 0.15266 0.83428 0.32818 0.0
C1170 C 0.17907 0.84882 0.33702 0.0
C1171 C 0.19346 0.84476 0.30221 0.0
C1172 C 0.18694 0.8753 0.34134 0.0
C1173 C 0.18045 0.8383 0.37967 0.0
C1174 C 0.15842 0.82042 0.39239 0.0
C1175 C 0.15567 0.8059 0.4273 0.0
C1176 C 0.17589 0.81049 0.45089 0.0
C1177 C 0.19844 0.83035 0.44136 0.0
C1178 C 0.2005 0.84428 0.4048 0.0
H1179 H 0.83527 0.68243 0.771 0.0
H1180 H 0.82786 0.73285 0.69098 0.0
H1181 H 0.8326 0.71372 0.62601 0.0
H1182 H 0.87957 0.67827 0.70312 0.0
H1183 H 0.86716 0.64698 0.71325 0.0
H1184 H 0.86477 0.66568 0.75328 0.0
H1185 H 0.81914 0.63811 0.7543 0.0
H1186 H 0.82134 0.61953 0.71382 0.0
H1187 H 0.80267 0.6323 0.70499 0.0
H1188 H 0.83583 0.68783 0.56992 0.0
H1189 H 0.84037 0.65863 0.52617 0.0
H1190 H 0.84546 0.6246 0.64211 0.0
C1191 C 0.83523 0.68972 0.73977 0.0
C1192 C 0.83133 0.70915 0.73574 0.0
C1193 C 0.8309 0.718 0.69449 0.0
C1194 C 0.8335 0.70721 0.65751 0.0
C1195 C 0.83663 0.68765 0.6624 0.0
C1196 C 0.8378 0.67913 0.70246 0.0
C1197 C 0.84077 0.65749 0.69861 0.0
C1198 C 0.86448 0.66241 0.71822 0.0
C1199 C 0.81972 0.63556 0.71915 0.0
C1200 C 0.84081 0.65504 0.65021 0.0
C1201 C 0.83839 0.67262 0.62998 0.0
C1202 C 0.83777 0.674 0.5854 0.0
C1203 C 0.84011 0.65721 0.56082 0.0
C1204 C 0.84298 0.63927 0.58084 0.0
C1205 C 0.84316 0.63811 0.6261 0.0
H1206 H 0.32206 0.15054 0.77455 0.0
H1207 H 0.26157 0.10109 0.69884 0.0
H1208 H 0.27939 0.1259 0.63437 0.0
H1209 H 0.33239 0.2053 0.71797 0.0
H1210 H 0.36419 0.21884 0.72159 0.0
H1211 H 0.34558 0.19841 0.76254 0.0
H1212 H 0.36547 0.17297 0.74974 0.0
H1213 H 0.38386 0.19308 0.70831 0.0
H1214 H 0.36535 0.16193 0.69661 0.0
H1215 H 0.30483 0.15404 0.57748 0.0
H1216 H 0.33552 0.18545 0.53179 0.0
H1217 H 0.38002 0.21706 0.64343 0.0
C1218 C 0.31232 0.14545 0.74462 0.0
C1219 C 0.29028 0.1242 0.74153 0.0
C1220 C 0.27832 0.11752 0.7017 0.0
C1221 C 0.28833 0.13143 0.665 0.0
C1222 C 0.31035 0.152 0.66872 0.0
C1223 C 0.32213 0.15918 0.70753 0.0
C1224 C 0.34609 0.18151 0.70208 0.0
C1225 C 0.34711 0.20224 0.72756 0.0
C1226 C 0.36639 0.17709 0.71495 0.0
C1227 C 0.34606 0.18546 0.6541 0.0
C1228 C 0.32523 0.16822 0.63559 0.0
C1229 C 0.32117 0.1677 0.59161 0.0
C1230 C 0.33875 0.18545 0.56589 0.0
C1231 C 0.36013 0.20339 0.58416 0.0
C1232 C 0.36383 0.2034 0.62881 0.0
H1233 H 0.79782 0.13725 0.59005 0.0
H1234 H 0.80072 0.20521 0.59619 0.0
H1235 H 0.83022 0.2177 0.65509 0.0
H1236 H 0.80273 0.13018 0.70354 0.0
H1237 H 0.82113 0.11689 0.69738 0.0
H1238 H 0.80033 0.11337 0.65592 0.0
H1239 H 0.83431 0.13087 0.59986 0.0
H1240 H 0.85517 0.13425 0.64105 0.0
H1241 H 0.86008 0.15952 0.60941 0.0
H1242 H 0.8586 0.22224 0.7141 0.0
H1243 H 0.88655 0.22005 0.76516 0.0
H1244 H 0.86579 0.14929 0.72002 0.0
C1245 C 0.80472 0.15475 0.60394 0.0
C1246 C 0.79699 0.1703 0.58911 0.0
C1247 C 0.8065 0.19314 0.60738 0.0
C1248 C 0.82311 0.20027 0.64087 0.0
C1249 C 0.83008 0.18436 0.65537 0.0
C1250 C 0.82136 0.16215 0.63722 0.0
C1251 C 0.83213 0.14862 0.65805 0.0
C1252 C 0.81293 0.12592 0.68003 0.0
C1253 C 0.84627 0.14299 0.62513 0.0
C1254 C 0.84837 0.16671 0.69074 0.0
C1255 C 0.84674 0.18712 0.68885 0.0
C1256 C 0.86007 0.20639 0.71573 0.0
C1257 C 0.87582 0.20499 0.74462 0.0
C1258 C 0.8783 0.18457 0.74616 0.0
C1259 C 0.86412 0.16504 0.7194 0.0
H1260 H 0.49671 0.0075 0.10737 0.0
H1261 H 0.51323 0.07084 0.03507 0.0
H1262 H 0.522 0.05403 0.97101 0.0
H1263 H 0.54214 0.99674 0.05606 0.0
H1264 H 0.52298 0.96497 0.05675 0.0
H1265 H 0.52021 0.98297 0.09781 0.0
H1266 H 0.47568 0.9648 0.0792 0.0
H1267 H 0.47838 0.94702 0.03768 0.0
H1268 H 0.46719 0.96667 0.0249 0.0
H1269 H 0.5256 0.02919 0.91368 0.0
H1270 H 0.52657 0.99881 0.86733 0.0
H1271 H 0.50818 0.95138 0.9763 0.0
C1272 C 0.50287 0.01803 0.07834 0.0
C1273 C 0.50466 0.04057 0.076 0.0
C1274 C 0.51207 0.05366 0.03733 0.0
C1275 C 0.51699 0.04422 1.00088 0.0
C1276 C 0.51449 0.02169 0.00377 0.0
C1277 C 0.5079 0.00885 0.0416 0.0
C1278 C 0.50564 0.98464 0.03542 0.0
C1279 C 0.52383 0.98219 0.06316 0.0
C1280 C 0.48021 0.96461 0.04486 0.0
C1281 C 0.5115 0.98571 0.98806 0.0
C1282 C 0.51658 0.00728 0.97051 0.0
C1283 C 0.52182 0.0123 0.9271 0.0
C1284 C 0.52215 0.99492 0.90099 0.0
C1285 C 0.5172 0.9728 0.91831 0.0
C1286 C 0.51189 0.96816 0.96241 0.0
H1287 H 0.01409 0.52457 0.90228 0.0
H1288 H 0.07484 0.57164 0.97985 0.0
H1289 H 0.05562 0.5467 0.04372 0.0
H1290 H 0.9705 0.51459 0.97999 0.0
H1291 H 0.95104 0.48375 0.96709 0.0
H1292 H 0.97026 0.50391 0.92648 0.0
H1293 H 0.98849 0.47702 0.91294 0.0
H1294 H 0.96907 0.45658 0.95309 0.0
H1295 H 1.00069 0.46885 0.95734 0.0
H1296 H 0.02912 0.51799 0.09966 0.0
H1297 H 0.99783 0.48608 0.14363 0.0
H1298 H 0.95335 0.45797 0.0309 0.0
C1299 C 0.02351 0.52919 0.93256 0.0
C1300 C 0.04604 0.54981 0.93631 0.0
C1301 C 0.05767 0.55575 0.97649 0.0
C1302 C 0.04685 0.54176 0.01287 0.0
C1303 C 0.02435 0.52188 0.00851 0.0
C1304 C 0.01285 0.51543 0.96935 0.0
C1305 C 0.98837 0.49369 0.97396 0.0
C1306 C 0.9689 0.49933 0.96112 0.0
C1307 C 0.98655 0.4728 0.94778 0.0
C1308 C 0.98784 0.48909 0.02182 0.0
C1309 C 0.00882 0.50555 0.04106 0.0
C1310 C 0.01261 0.50502 0.08496 0.0
C1311 C 0.99464 0.48699 0.10977 0.0
C1312 C 0.97308 0.4698 0.09076 0.0
C1313 C 0.96963 0.47101 0.04624 0.0
H1314 H 0.47081 0.52113 0.94958 0.0
H1315 H 0.46385 0.46019 0.88049 0.0
H1316 H 0.49383 0.45916 0.92805 0.0
H1317 H 0.53475 0.54936 0.96872 0.0
H1318 H 0.5329 0.55962 0.02154 0.0
H1319 H 0.51164 0.55605 0.98099 0.0
H1320 H 0.47735 0.52822 0.03176 0.0
H1321 H 0.49849 0.5316 0.07235 0.0
H1322 H 0.4769 0.50238 0.05387 0.0
H1323 H 0.52312 0.46367 0.98524 0.0
H1324 H 0.5512 0.47467 0.04618 0.0
H1325 H 0.53937 0.53279 0.07793 0.0
C1326 C 0.47592 0.50782 0.94434 0.0
C1327 C 0.4653 0.49079 0.91151 0.0
C1328 C 0.47205 0.47341 0.9055 0.0
C1329 C 0.48896 0.47269 0.93235 0.0
C1330 C 0.49898 0.48954 0.96492 0.0
C1331 C 0.49286 0.5069 0.97085 0.0
C1332 C 0.50603 0.52266 0.00868 0.0
C1333 C 0.5223 0.54845 0.9941 0.0
C1334 C 0.48865 0.52111 0.04374 0.0
C1335 C 0.52032 0.51134 0.02328 0.0
C1336 C 0.51599 0.49224 0.99762 0.0
C1337 C 0.5268 0.47869 0.00534 0.0
C1338 C 0.54262 0.48498 0.03994 0.0
C1339 C 0.54751 0.50464 0.06613 0.0
C1340 C 0.53611 0.51786 0.05785 0.0
H1341 H 0.23165 0.21789 0.11497 0.0
H1342 H 0.18022 0.21417 0.02203 0.0
H1343 H 0.18542 0.18476 0.98016 0.0
H1344 H 0.27109 0.21604 0.04151 0.0
H1345 H 0.27887 0.19814 0.07438 0.0
H1346 H 0.26933 0.21695 0.09917 0.0
H1347 H 0.23603 0.18079 0.13951 0.0
H1348 H 0.24557 0.16182 0.11512 0.0
H1349 H 0.21523 0.15498 0.10958 0.0
H1350 H 0.19962 0.15898 0.94458 0.0
H1351 H 0.2199 0.13767 0.92033 0.0
H1352 H 0.26096 0.15728 0.03804 0.0
C1353 C 0.22113 0.21063 0.08621 0.0
C1354 C 0.2055 0.21839 0.07184 0.0
C1355 C 0.19222 0.20847 0.03384 0.0
C1356 C 0.19509 0.19177 0.0098 0.0
C1357 C 0.21112 0.185 0.02438 0.0
C1358 C 0.22372 0.19396 0.06197 0.0
C1359 C 0.24063 0.18471 0.06977 0.0
C1360 C 0.2665 0.20518 0.07128 0.0
C1361 C 0.23395 0.16968 0.11093 0.0
C1362 C 0.23599 0.16952 0.03019 0.0
C1363 C 0.21885 0.1698 0.00447 0.0
C1364 C 0.21261 0.15813 0.96504 0.0
C1365 C 0.2241 0.14578 0.9517 0.0
C1366 C 0.24151 0.14499 0.97786 0.0
C1367 C 0.24747 0.15717 0.01753 0.0
H1368 H 0.83247 0.10215 1.00267 0.0
H1369 H 0.88985 0.09265 0.95442 0.0
H1370 H 0.87011 0.05219 0.9836 0.0
H1371 H 0.82691 0.07287 0.10236 0.0
H1372 H 0.79517 0.06015 0.10497 0.0
H1373 H 0.81302 0.08781 0.07725 0.0
H1374 H 0.78808 0.07006 0.00824 0.0
H1375 H 0.77004 0.0424 0.03584 0.0
H1376 H 0.78472 0.04285 0.98647 0.0
H1377 H 0.84293 0.01152 0.01817 0.0
H1378 H 0.81229 0.97625 0.05757 0.0
H1379 H 0.77572 0.0148 0.08848 0.0
C1380 C 0.84097 0.09165 0.9978 0.0
C1381 C 0.86248 0.10072 0.97461 0.0
C1382 C 0.87295 0.0862 0.96997 0.0
C1383 C 0.86197 0.0631 0.98714 0.0
C1384 C 0.84077 0.05485 0.00968 0.0
C1385 C 0.83056 0.06886 0.01534 0.0
C1386 C 0.80831 0.05647 0.04232 0.0
C1387 C 0.81103 0.07014 0.0842 0.0
C1388 C 0.7865 0.05272 0.01668 0.0
C1389 C 0.80749 0.0332 0.05093 0.0
C1390 C 0.82618 0.03238 0.03157 0.0
C1391 C 0.82838 0.0121 0.03381 0.0
C1392 C 0.81094 0.99218 0.05623 0.0
C1393 C 0.79184 0.9929 0.07664 0.0
C1394 C 0.79035 0.01381 0.07402 0.0
H1395 H 0.99017 0.77528 0.12076 0.0
H1396 H 0.03965 0.8359 0.04462 0.0
H1397 H 0.00636 0.83173 1.0 0.0
H1398 H 0.95635 0.74099 0.03659 0.0
H1399 H 0.92835 0.72798 0.06449 0.0
H1400 H 0.95537 0.73795 0.09419 0.0
H1401 H 0.94572 0.76504 0.14078 0.0
H1402 H 0.91845 0.75497 0.11155 0.0
H1403 H 0.9396 0.78626 0.11516 0.0
H1404 H 0.96806 0.81734 0.95795 0.0
H1405 H 0.92827 0.79519 0.92462 0.0
H1406 H 0.90445 0.74446 0.02916 0.0
C1407 C 0.99405 0.78809 0.09534 0.0
C1408 C 0.0176 0.80598 0.08628 0.0
C1409 C 0.02179 0.82218 0.05246 0.0
C1410 C 0.00297 0.8199 0.02687 0.0
C1411 C 0.98007 0.80148 0.03582 0.0
C1412 C 0.97557 0.78604 0.06963 0.0
C1413 C 0.94982 0.76667 0.07088 0.0
C1414 C 0.94735 0.74195 0.06624 0.0
C1415 C 0.93768 0.76835 0.11204 0.0
C1416 C 0.94057 0.77314 0.0317 0.0
C1417 C 0.95816 0.7934 0.01205 0.0
C1418 C 0.95402 0.80183 0.97372 0.0
C1419 C 0.93134 0.78926 0.95517 0.0
C1420 C 0.91313 0.76856 0.97506 0.0
C1421 C 0.91793 0.76048 0.01371 0.0
H1422 H 0.74738 0.84755 0.96877 0.0
H1423 H 0.79533 0.87358 0.07754 0.0
H1424 H 0.8178 0.85573 0.04739 0.0
H1425 H 0.74325 0.79188 0.96522 0.0
H1426 H 0.74141 0.78941 0.90756 0.0
H1427 H 0.73122 0.80703 0.93486 0.0
H1428 H 0.7594 0.84343 0.88834 0.0
H1429 H 0.76977 0.82588 0.86107 0.0
H1430 H 0.79066 0.85321 0.88705 0.0
H1431 H 0.83316 0.83198 0.00796 0.0
H1432 H 0.83808 0.80251 0.96596 0.0
H1433 H 0.77928 0.79123 0.88447 0.0
C1434 C 0.76284 0.84986 0.98602 0.0
C1435 C 0.76996 0.86273 0.02493 0.0
C1436 C 0.79002 0.86484 0.04679 0.0
C1437 C 0.80284 0.85452 0.03004 0.0
C1438 C 0.79533 0.84203 0.9915 0.0
C1439 C 0.7757 0.83959 0.9699 0.0
C1440 C 0.76996 0.82362 0.93114 0.0
C1441 C 0.74499 0.80169 0.93496 0.0
C1442 C 0.77262 0.83737 0.88943 0.0
C1443 C 0.78908 0.81694 0.93484 0.0
C1444 C 0.80378 0.82798 0.96944 0.0
C1445 C 0.82191 0.82345 0.9805 0.0
C1446 C 0.82463 0.80672 0.9563 0.0
C1447 C 0.80914 0.79452 0.92171 0.0
C1448 C 0.79158 0.80029 0.91041 0.0
H1449 H 0.22536 0.0197 0.98546 0.0
H1450 H 0.18545 0.99825 0.86687 0.0
H1451 H 0.15529 0.96087 0.90131 0.0
H1452 H 0.21891 0.96466 0.00644 0.0
H1453 H 0.21705 0.96595 0.06401 0.0
H1454 H 0.23275 0.99294 0.0335 0.0
H1455 H 0.20643 0.00844 0.06623 0.0
H1456 H 0.19077 0.98156 0.09732 0.0
H1457 H 0.1746 0.99057 0.06243 0.0
H1458 H 0.13176 0.92444 0.94628 0.0
H1459 H 0.11763 0.89074 0.99672 0.0
H1460 H 0.17471 0.93444 0.08428 0.0
C1461 C 0.20972 0.00752 0.96745 0.0
C1462 C 0.20717 0.01204 0.92405 0.0
C1463 C 0.18727 0.99524 0.9005 0.0
C1464 C 0.17013 0.97401 0.9198 0.0
C1465 C 0.17347 0.96972 0.9624 0.0
C1466 C 0.19284 0.98597 0.98591 0.0
C1467 C 0.19399 0.97577 0.02904 0.0
C1468 C 0.21704 0.97477 0.03347 0.0
C1469 C 0.19128 0.98993 0.06594 0.0
C1470 C 0.17251 0.95111 0.02583 0.0
C1471 C 0.16064 0.94817 0.98752 0.0
C1472 C 0.14071 0.92666 0.97663 0.0
C1473 C 0.13274 0.90766 0.00555 0.0
C1474 C 0.14483 0.91018 0.04467 0.0
C1475 C 0.165 0.93218 0.05479 0.0
H1476 H 0.10859 0.26103 0.96085 0.0
H1477 H 0.08633 0.22145 0.08018 0.0
H1478 H 0.04559 0.19812 0.05227 0.0
H1479 H 0.05817 0.26671 0.94875 0.0
H1480 H 0.05718 0.26413 0.8911 0.0
H1481 H 0.08501 0.27553 0.91872 0.0
H1482 H 0.09155 0.24322 0.88296 0.0
H1483 H 0.06357 0.23162 0.85546 0.0
H1484 H 0.0693 0.21237 0.88878 0.0
H1485 H 0.00616 0.18132 0.01315 0.0
H1486 H 0.9719 0.17457 0.96857 0.0
H1487 H 0.0202 0.22551 0.87547 0.0
C1488 C 0.09524 0.24721 0.98094 0.0
C1489 C 0.10097 0.24266 0.02229 0.0
C1490 C 0.08281 0.2247 0.04777 0.0
C1491 C 0.05946 0.21143 0.03226 0.0
C1492 C 0.05449 0.21632 0.99122 0.0
C1493 C 0.07192 0.23386 0.96599 0.0
C1494 C 0.06176 0.23697 0.92441 0.0
C1495 C 0.06576 0.26233 0.92055 0.0
C1496 C 0.07217 0.23066 0.88561 0.0
C1497 C 0.03578 0.21889 0.9306 0.0
C1498 C 0.0319 0.20691 0.96904 0.0
C1499 C 0.00905 0.19041 0.98273 0.0
C1500 C 0.98967 0.18661 0.95709 0.0
C1501 C 0.99325 0.1994 0.91834 0.0
C1502 C 0.01673 0.2152 0.9046 0.0
H1503 H 0.86119 0.53961 0.37163 0.0
H1504 H 0.87656 0.53294 0.50453 0.0
H1505 H 0.88664 0.50239 0.48414 0.0
H1506 H 0.83913 0.47549 0.33876 0.0
H1507 H 0.85361 0.48462 0.2873 0.0
H1508 H 0.84232 0.5018 0.31313 0.0
H1509 H 0.88389 0.53932 0.3076 0.0
H1510 H 0.89537 0.5223 0.28229 0.0
H1511 H 0.90912 0.53887 0.33041 0.0
H1512 H 0.90192 0.47875 0.44911 0.0
H1513 H 0.92032 0.46216 0.40137 0.0
H1514 H 0.89596 0.48392 0.2902 0.0
C1515 C 0.86558 0.53084 0.39654 0.0
C1516 C 0.86763 0.53819 0.43977 0.0
C1517 C 0.87454 0.52723 0.47137 0.0
C1518 C 0.88027 0.50986 0.46007 0.0
C1519 C 0.8791 0.50369 0.41697 0.0
C1520 C 0.87174 0.51365 0.38562 0.0
C1521 C 0.87513 0.50623 0.34114 0.0
C1522 C 0.85111 0.49113 0.31877 0.0
C1523 C 0.89187 0.52797 0.31379 0.0
C1524 C 0.88645 0.49141 0.35238 0.0
C1525 C 0.88821 0.48992 0.39637 0.0
C1526 C 0.90008 0.47924 0.41467 0.0
C1527 C 0.91057 0.46998 0.38738 0.0
C1528 C 0.90906 0.47136 0.34233 0.0
C1529 C 0.8966 0.48195 0.32459 0.0
H1530 H 0.51058 0.43209 0.3574 0.0
H1531 H 0.53507 0.40741 0.25018 0.0
H1532 H 0.51698 0.36762 0.28293 0.0
H1533 H 0.5167 0.39581 0.44138 0.0
H1534 H 0.48985 0.39034 0.46812 0.0
H1535 H 0.50733 0.41761 0.43891 0.0
H1536 H 0.47053 0.40902 0.39344 0.0
H1537 H 0.45298 0.38187 0.42266 0.0
H1538 H 0.45469 0.38125 0.36497 0.0
H1539 H 0.49315 0.32949 0.32469 0.0
H1540 H 0.46387 0.29617 0.36899 0.0
H1541 H 0.45443 0.34592 0.44783 0.0
C1542 C 0.51246 0.41843 0.34102 0.0
C1543 C 0.5249 0.42317 0.30175 0.0
C1544 C 0.52656 0.40464 0.28108 0.0
C1545 C 0.51614 0.38185 0.29934 0.0
C1546 C 0.50408 0.37786 0.33821 0.0
C1547 C 0.50215 0.39566 0.35871 0.0
C1548 C 0.48666 0.38645 0.39828 0.0
C1549 C 0.501 0.39826 0.43909 0.0
C1550 C 0.46493 0.38984 0.39458 0.0
C1551 C 0.47959 0.3605 0.39626 0.0
C1552 C 0.49007 0.35591 0.36177 0.0
C1553 C 0.48506 0.33293 0.35204 0.0
C1554 C 0.46841 0.31411 0.37748 0.0
C1555 C 0.45681 0.31836 0.41201 0.0
C1556 C 0.46307 0.342 0.422 0.0
H1557 H 0.56979 0.06022 0.34316 0.0
H1558 H 0.5769 0.1267 0.29794 0.0
H1559 H 0.61804 0.14791 0.32337 0.0
H1560 H 0.60172 0.08446 0.44067 0.0
H1561 H 0.61487 0.06576 0.4406 0.0
H1562 H 0.58641 0.05558 0.41581 0.0
H1563 H 0.60244 0.04854 0.34437 0.0
H1564 H 0.63093 0.05863 0.36897 0.0
H1565 H 0.62876 0.07257 0.32053 0.0
H1566 H 0.6597 0.16196 0.35325 0.0
H1567 H 0.69609 0.16732 0.3893 0.0
H1568 H 0.65953 0.09229 0.42076 0.0
C1569 C 0.57989 0.07924 0.33825 0.0
C1570 C 0.56997 0.09141 0.31675 0.0
C1571 C 0.58399 0.11643 0.31203 0.0
C1572 C 0.60749 0.12884 0.32708 0.0
C1573 C 0.61665 0.11614 0.34767 0.0
C1574 C 0.6031 0.09191 0.35373 0.0
C1575 C 0.61651 0.08239 0.37856 0.0
C1576 C 0.60414 0.07141 0.42145 0.0
C1577 C 0.61986 0.06448 0.35148 0.0
C1578 C 0.6398 0.10504 0.38551 0.0
C1579 C 0.63976 0.12435 0.36711 0.0
C1580 C 0.65982 0.14698 0.36814 0.0
C1581 C 0.68039 0.14987 0.3886 0.0
C1582 C 0.6805 0.13031 0.40831 0.0
C1583 C 0.65986 0.1077 0.4067 0.0
H1584 H 0.43038 0.10466 0.23721 0.0
H1585 H 0.50318 0.13624 0.28103 0.0
H1586 H 0.49844 0.16669 0.32099 0.0
H1587 H 0.42724 0.15818 0.22525 0.0
H1588 H 0.39729 0.14449 0.24542 0.0
H1589 H 0.40742 0.12678 0.21809 0.0
H1590 H 0.39547 0.09872 0.28393 0.0
H1591 H 0.38547 0.11643 0.3116 0.0
H1592 H 0.40735 0.1109 0.33601 0.0
H1593 H 0.48476 0.19355 0.35662 0.0
H1594 H 0.46391 0.21282 0.38644 0.0
H1595 H 0.39922 0.16081 0.32239 0.0
C1596 C 0.44555 0.11826 0.25442 0.0
C1597 C 0.46731 0.11838 0.25537 0.0
C1598 C 0.48643 0.13601 0.27954 0.0
C1599 C 0.48388 0.15332 0.3023 0.0
C1600 C 0.46199 0.15245 0.30101 0.0
C1601 C 0.44316 0.13521 0.27784 0.0
C1602 C 0.42101 0.13694 0.28359 0.0
C1603 C 0.41277 0.14191 0.24053 0.0
C1604 C 0.40116 0.11441 0.30506 0.0
C1605 C 0.4303 0.15807 0.31329 0.0
C1606 C 0.45394 0.16692 0.3229 0.0
C1607 C 0.46616 0.18659 0.34952 0.0
C1608 C 0.4539 0.19743 0.36673 0.0
C1609 C 0.42945 0.18842 0.35779 0.0
C1610 C 0.41779 0.16839 0.33051 0.0
H1611 H 0.81936 0.23186 0.28941 0.0
H1612 H 0.80094 0.25307 0.40882 0.0
H1613 H 0.81765 0.29379 0.38129 0.0
H1614 H 0.87508 0.28304 0.2789 0.0
H1615 H 0.87401 0.28439 0.22122 0.0
H1616 H 0.85773 0.25629 0.24825 0.0
H1617 H 0.81902 0.24928 0.21149 0.0
H1618 H 0.83523 0.27751 0.18459 0.0
H1619 H 0.80982 0.2711 0.21725 0.0
H1620 H 0.83956 0.33329 0.34288 0.0
H1621 H 0.86706 0.36813 0.29957 0.0
H1622 H 0.87197 0.32125 0.20604 0.0
C1623 C 0.81847 0.24495 0.3096 0.0
C1624 C 0.80797 0.23885 0.35083 0.0
C1625 C 0.80774 0.25675 0.37644 0.0
C1626 C 0.81744 0.28012 0.36116 0.0
C1627 C 0.82748 0.28543 0.32025 0.0
C1628 C 0.82816 0.26834 0.29493 0.0
C1629 C 0.84175 0.27897 0.25372 0.0
C1630 C 0.86342 0.27547 0.25036 0.0
C1631 C 0.82548 0.26859 0.21444 0.0
C1632 C 0.84914 0.30484 0.26027 0.0
C1633 C 0.84047 0.3082 0.29853 0.0
C1634 C 0.84621 0.33082 0.31262 0.0
C1635 C 0.86181 0.35053 0.28768 0.0
C1636 C 0.87168 0.34754 0.2492 0.0
C1637 C 0.86458 0.32426 0.23492 0.0
H1638 H 0.68327 0.55711 0.21561 0.0
H1639 H 0.63483 0.49662 0.2932 0.0
H1640 H 0.66874 0.50046 0.33532 0.0
H1641 H 0.73341 0.54499 0.21679 0.0
H1642 H 0.75503 0.57617 0.21978 0.0
H1643 H 0.72731 0.56651 0.19236 0.0
H1644 H 0.71921 0.59415 0.24059 0.0
H1645 H 0.74669 0.60369 0.26848 0.0
H1646 H 0.71925 0.59117 0.29812 0.0
H1647 H 0.70743 0.51467 0.37541 0.0
H1648 H 0.74749 0.53629 0.40677 0.0
H1649 H 0.7706 0.58645 0.30108 0.0
C1650 C 0.67977 0.54425 0.24073 0.0
C1651 C 0.65633 0.52654 0.25098 0.0
C1652 C 0.65261 0.51027 0.28449 0.0
C1653 C 0.67177 0.51233 0.30868 0.0
C1654 C 0.69457 0.53056 0.29865 0.0
C1655 C 0.69864 0.54602 0.26503 0.0
C1656 C 0.72452 0.56504 0.26246 0.0
C1657 C 0.73573 0.56305 0.22035 0.0
C1658 C 0.72758 0.58997 0.26774 0.0
C1659 C 0.73428 0.55836 0.30071 0.0
C1660 C 0.71683 0.53835 0.32106 0.0
C1661 C 0.72139 0.52994 0.35898 0.0
C1662 C 0.74437 0.54226 0.37641 0.0
C1663 C 0.76258 0.5627 0.35578 0.0
C1664 C 0.75726 0.57068 0.31738 0.0
H1665 H 0.59706 0.82319 0.6995 0.0
H1666 H 0.55885 0.80725 0.57884 0.0
H1667 H 0.53744 0.82711 0.60461 0.0
H1668 H 0.54957 0.81794 0.7695 0.0
H1669 H 0.56958 0.84282 0.80222 0.0
H1670 H 0.5799 0.8249 0.77618 0.0
H1671 H 0.61369 0.86244 0.73964 0.0
H1672 H 0.60355 0.88043 0.76575 0.0
H1673 H 0.60643 0.88121 0.70815 0.0
H1674 H 0.52173 0.85101 0.64232 0.0
H1675 H 0.51564 0.87927 0.68606 0.0
H1676 H 0.56547 0.88084 0.78042 0.0
C1677 C 0.58398 0.82357 0.67859 0.0
C1678 C 0.57912 0.8128 0.63763 0.0
C1679 C 0.56219 0.81423 0.61108 0.0
C1680 C 0.55004 0.82575 0.62532 0.0
C1681 C 0.55514 0.83596 0.66606 0.0
C1682 C 0.57186 0.83512 0.69216 0.0
C1683 C 0.57551 0.84906 0.73311 0.0
C1684 C 0.5682 0.8327 0.77258 0.0
C1685 C 0.60132 0.86949 0.73685 0.0
C1686 C 0.55857 0.85827 0.72564 0.0
C1687 C 0.54671 0.85028 0.6871 0.0
C1688 C 0.53081 0.85724 0.67269 0.0
C1689 C 0.5274 0.87325 0.69784 0.0
C1690 C 0.54007 0.88231 0.7367 0.0
C1691 C 0.55543 0.87422 0.75099 0.0
H1692 H 0.18343 0.7527 0.6333 0.0
H1693 H 0.22431 0.78834 0.74661 0.0
H1694 H 0.20925 0.74968 0.78283 0.0
H1695 H 0.13309 0.71313 0.68809 0.0
H1696 H 0.12453 0.68824 0.65265 0.0
H1697 H 0.14209 0.71797 0.63255 0.0
H1698 H 0.17395 0.70805 0.60631 0.0
H1699 H 0.15647 0.67823 0.62674 0.0
H1700 H 0.18679 0.69654 0.64381 0.0
H1701 H 0.18588 0.709 0.81051 0.0
H1702 H 0.15326 0.66919 0.82995 0.0
H1703 H 0.12669 0.65861 0.69978 0.0
C1704 C 0.18974 0.75216 0.66519 0.0
C1705 C 0.20529 0.77333 0.68707 0.0
C1706 C 0.21251 0.77221 0.72936 0.0
C1707 C 0.20422 0.75035 0.75 0.0
C1708 C 0.18859 0.72973 0.72798 0.0
C1709 C 0.18128 0.73038 0.68657 0.0
C1710 C 0.16184 0.70597 0.67256 0.0
C1711 C 0.13904 0.70636 0.6608 0.0
C1712 C 0.17027 0.69665 0.63513 0.0
C1713 C 0.15865 0.69178 0.71319 0.0
C1714 C 0.17471 0.70578 0.74435 0.0
C1715 C 0.17364 0.69765 0.78611 0.0
C1716 C 0.15514 0.675 0.79687 0.0
C1717 C 0.13802 0.66071 0.766 0.0
C1718 C 0.14023 0.66886 0.72332 0.0
H1719 H 0.23499 0.4233 0.70137 0.0
H1720 H 0.26024 0.46575 0.58549 0.0
H1721 H 0.30048 0.48762 0.61623 0.0
H1722 H 0.27446 0.46973 0.77837 0.0
H1723 H 0.27859 0.44881 0.80982 0.0
H1724 H 0.25114 0.43915 0.78144 0.0
H1725 H 0.25632 0.4067 0.74278 0.0
H1726 H 0.28363 0.41617 0.77115 0.0
H1727 H 0.28325 0.41516 0.71333 0.0
H1728 H 0.33894 0.50166 0.65646 0.0
H1729 H 0.37206 0.505 0.70033 0.0
H1730 H 0.32145 0.45282 0.78925 0.0
C1731 C 0.24887 0.43752 0.68273 0.0
C1732 C 0.24422 0.44321 0.64144 0.0
C1733 C 0.26301 0.46163 0.61781 0.0
C1734 C 0.28604 0.47408 0.63496 0.0
C1735 C 0.28998 0.46791 0.67576 0.0
C1736 C 0.27185 0.45003 0.6993 0.0
C1737 C 0.28099 0.44514 0.74045 0.0
C1738 C 0.27068 0.45107 0.77985 0.0
C1739 C 0.27574 0.41927 0.74198 0.0
C1740 C 0.30725 0.46247 0.73575 0.0
C1741 C 0.3121 0.47574 0.69861 0.0
C1742 C 0.33531 0.49162 0.68593 0.0
C1743 C 0.35403 0.49341 0.71113 0.0
C1744 C 0.34942 0.47923 0.74838 0.0
C1745 C 0.32566 0.46417 0.76135 0.0
H1746 H 0.07291 0.51324 0.63714 0.0
H1747 H 0.12747 0.54566 0.73451 0.0
H1748 H 0.14983 0.52869 0.70009 0.0
H1749 H 0.07308 0.45882 0.63466 0.0
H1750 H 0.0675 0.45414 0.57785 0.0
H1751 H 0.0572 0.47106 0.60732 0.0
H1752 H 0.07987 0.50633 0.55491 0.0
H1753 H 0.09039 0.48952 0.5255 0.0
H1754 H 0.11125 0.51832 0.54671 0.0
H1755 H 0.1654 0.50667 0.65713 0.0
H1756 H 0.171 0.47815 0.61364 0.0
H1757 H 0.1054 0.45842 0.54588 0.0
C1758 C 0.08975 0.51704 0.65079 0.0
C1759 C 0.09901 0.53174 0.68735 0.0
C1760 C 0.12067 0.5356 0.70516 0.0
C1761 C 0.1334 0.52583 0.68604 0.0
C1762 C 0.12405 0.51186 0.64947 0.0
C1763 C 0.10258 0.50723 0.6323 0.0
C1764 C 0.09551 0.49003 0.59498 0.0
C1765 C 0.07193 0.46716 0.60428 0.0
C1766 C 0.09419 0.50176 0.55304 0.0
C1767 C 0.11618 0.48544 0.59431 0.0
C1768 C 0.13261 0.49846 0.62561 0.0
C1769 C 0.15272 0.49648 0.63234 0.0
C1770 C 0.15578 0.48024 0.60733 0.0
C1771 C 0.1387 0.46599 0.57615 0.0
C1772 C 0.11896 0.46916 0.56903 0.0
H1773 H 0.48426 0.56479 0.62259 0.0
H1774 H 0.47507 0.58774 0.74835 0.0
H1775 H 0.49334 0.62884 0.7222 0.0
H1776 H 0.54133 0.613 0.60572 0.0
H1777 H 0.53762 0.61493 0.54882 0.0
H1778 H 0.52083 0.58695 0.576 0.0
H1779 H 0.48184 0.5836 0.54749 0.0
H1780 H 0.49858 0.61176 0.52057 0.0
H1781 H 0.47557 0.60718 0.55811 0.0
H1782 H 0.5157 0.66827 0.68373 0.0
H1783 H 0.54326 0.70237 0.63894 0.0
H1784 H 0.53886 0.65371 0.53917 0.0
C1785 C 0.48574 0.57837 0.64455 0.0
C1786 C 0.47731 0.57267 0.68721 0.0
C1787 C 0.48018 0.59118 0.71503 0.0
C1788 C 0.49079 0.61476 0.7005 0.0
C1789 C 0.49865 0.61966 0.65812 0.0
C1790 C 0.49641 0.60197 0.63066 0.0
C1791 C 0.50825 0.61209 0.58792 0.0
C1792 C 0.52819 0.60641 0.57913 0.0
C1793 C 0.48996 0.60312 0.55136 0.0
C1794 C 0.51807 0.63833 0.59598 0.0
C1795 C 0.51202 0.64235 0.63637 0.0
C1796 C 0.52033 0.6653 0.65187 0.0
C1797 C 0.53591 0.6846 0.62607 0.0
C1798 C 0.54325 0.68082 0.58541 0.0
C1799 C 0.53348 0.65732 0.56985 0.0
H1800 H 0.35065 0.89077 0.55415 0.0
H1801 H 0.30459 0.839 0.64848 0.0
H1802 H 0.33973 0.84572 0.68991 0.0
H1803 H 0.40006 0.87761 0.56129 0.0
H1804 H 0.42215 0.90849 0.5553 0.0
H1805 H 0.39357 0.89703 0.53011 0.0
H1806 H 0.38794 0.92919 0.56856 0.0
H1807 H 0.41629 0.94057 0.5943 0.0
H1808 H 0.39002 0.93141 0.62625 0.0
H1809 H 0.37954 0.8621 0.72595 0.0
H1810 H 0.42075 0.88511 0.75155 0.0
H1811 H 0.44091 0.92557 0.633 0.0
C1812 C 0.3479 0.88029 0.58284 0.0
C1813 C 0.32479 0.86425 0.59789 0.0
C1814 C 0.32208 0.85129 0.6361 0.0
C1815 C 0.34195 0.855 0.65991 0.0
C1816 C 0.36444 0.87161 0.64496 0.0
C1817 C 0.36751 0.88383 0.60702 0.0
C1818 C 0.39338 0.90198 0.59959 0.0
C1819 C 0.40285 0.8959 0.55918 0.0
C1820 C 0.39711 0.92728 0.59705 0.0
C1821 C 0.40431 0.89854 0.63988 0.0
C1822 C 0.38738 0.88082 0.66548 0.0
C1823 C 0.39306 0.87555 0.70559 0.0
C1824 C 0.41666 0.88862 0.71974 0.0
C1825 C 0.43437 0.90668 0.69377 0.0
C1826 C 0.42791 0.91164 0.65339 0.0
loop_
_geom_bond_atom_site_label_1
_geom_bond_atom_site_label_2
_geom_bond_distance
_geom_bond_site_symmetry_2
_ccdc_geom_bond_type
Co0 O3 1.970 . S
Co0 N17 1.989 . S
Co0 O25 1.967 . S
Co0 O32 1.920 . S
Co1 O4 1.966 . S
Co1 N10 2.022 . S
Co1 N18 1.993 . S
Co1 O26 1.941 . S
C2 O3 1.258 . S
C2 O4 1.263 . S
O3 Co0 1.970 . S
O3 C2 1.258 . S
O4 Co1 1.966 . S
O4 C2 1.263 . S
C5 O6 1.235 . S
C5 O32 1.289 . S
O6 C5 1.235 . S
C7 C9 1.400 . S
C7 N10 1.351 . S
C7 C12 1.501 . S
C8 C9 1.387 . S
C8 N11 1.341 . S
C9 C7 1.400 . S
C9 C8 1.387 . S
N10 Co1 2.022 . S
N10 C7 1.351 . S
N10 N11 1.365 . S
N11 C8 1.341 . S
N11 N10 1.365 . S
N11 H31 0.862 . S
C12 C7 1.501 . S
C12 H13 0.961 . S
C12 H14 0.961 . S
C12 H15 0.960 . S
H13 C12 0.961 . S
H14 C12 0.961 . S
H15 C12 0.960 . S
C16 N17 1.342 . S
C16 C20 1.401 . S
C16 C21 1.499 . S
N17 Co0 1.989 . S
N17 C16 1.342 . S
N17 N18 1.388 . S
N18 Co1 1.993 . S
N18 N17 1.388 . S
N18 C19 1.346 . S
C19 N18 1.346 . S
C19 C20 1.396 . S
C19 C29 1.510 . S
C20 C16 1.401 . S
C20 C19 1.396 . S
C21 C16 1.499 . S
C21 H22 0.959 . S
C21 H23 0.960 . S
C21 H24 0.961 . S
H22 C21 0.959 . S
H23 C21 0.960 . S
H24 C21 0.961 . S
O25 Co0 1.967 . S
O25 C33 1.258 . S
O26 Co1 1.941 . S
O26 C33 1.266 . S
H27 C29 0.959 . S
H28 C29 0.961 . S
C29 C19 1.510 . S
C29 H27 0.959 . S
C29 H28 0.961 . S
C29 H30 0.960 . S
H30 C29 0.960 . S
H31 N11 0.862 . S
O32 Co0 1.920 . S
O32 C5 1.289 . S
C33 O25 1.258 . S
C33 O26 1.266 . S
Co34 O37 1.970 . S
Co34 N51 1.989 . S
Co34 O59 1.967 . S
Co34 O66 1.920 . S
Co35 O38 1.966 . S
Co35 N44 2.022 . S
Co35 N52 1.993 . S
Co35 O60 1.941 . S
C36 O37 1.258 . S
C36 O38 1.263 . S
O37 Co34 1.970 . S
O37 C36 1.258 . S
O38 Co35 1.966 . S
O38 C36 1.263 . S
C39 O40 1.235 . S
C39 O66 1.289 . S
O40 C39 1.235 . S
C41 C43 1.400 . S
C41 N44 1.351 . S
C41 C46 1.501 . S
C42 C43 1.387 . S
C42 N45 1.341 . S
C43 C41 1.400 . S
C43 C42 1.387 . S
N44 Co35 2.022 . S
N44 C41 1.351 . S
N44 N45 1.365 . S
N45 C42 1.341 . S
N45 N44 1.365 . S
N45 H65 0.862 . S
C46 C41 1.501 . S
C46 H47 0.961 . S
C46 H48 0.961 . S
C46 H49 0.960 . S
H47 C46 0.961 . S
H48 C46 0.961 . S
H49 C46 0.960 . S
C50 N51 1.342 . S
C50 C54 1.401 . S
C50 C55 1.499 . S
N51 Co34 1.989 . S
N51 C50 1.342 . S
N51 N52 1.388 . S
N52 Co35 1.993 . S
N52 N51 1.388 . S
N52 C53 1.346 . S
C53 N52 1.346 . S
C53 C54 1.396 . S
C53 C63 1.510 . S
C54 C50 1.401 . S
C54 C53 1.396 . S
C55 C50 1.499 . S
C55 H56 0.959 . S
C55 H57 0.960 . S
C55 H58 0.961 . S
H56 C55 0.959 . S
H57 C55 0.960 . S
H58 C55 0.961 . S
O59 Co34 1.967 . S
O59 C67 1.258 . S
O60 Co35 1.941 . S
O60 C67 1.266 . S
H61 C63 0.959 . S
H62 C63 0.961 . S
C63 C53 1.510 . S
C63 H61 0.959 . S
C63 H62 0.961 . S
C63 H64 0.960 . S
H64 C63 0.960 . S
H65 N45 0.862 . S
O66 Co34 1.920 . S
O66 C39 1.289 . S
C67 O59 1.258 . S
C67 O60 1.266 . S
Co68 O71 1.970 . S
Co68 N85 1.989 . S
Co68 O93 1.967 . S
Co68 O100 1.920 . S
Co69 O72 1.966 . S
Co69 N78 2.022 . S
Co69 N86 1.993 . S
Co69 O94 1.941 . S
C70 O71 1.258 . S
C70 O72 1.263 . S
O71 Co68 1.970 . S
O71 C70 1.258 . S
O72 Co69 1.966 . S
O72 C70 1.263 . S
C73 O74 1.235 . S
C73 O100 1.289 . S
O74 C73 1.235 . S
C75 C77 1.400 . S
C75 N78 1.351 . S
C75 C80 1.501 . S
C76 C77 1.387 . S
C76 N79 1.341 . S
C77 C75 1.400 . S
C77 C76 1.387 . S
N78 Co69 2.022 . S
N78 C75 1.351 . S
N78 N79 1.365 . S
N79 C76 1.341 . S
N79 N78 1.365 . S
N79 H99 0.862 . S
C80 C75 1.501 . S
C80 H81 0.961 . S
C80 H82 0.961 . S
C80 H83 0.960 . S
H81 C80 0.961 . S
H82 C80 0.961 . S
H83 C80 0.960 . S
C84 N85 1.342 . S
C84 C88 1.401 . S
C84 C89 1.499 . S
N85 Co68 1.989 . S
N85 C84 1.342 . S
N85 N86 1.388 . S
N86 Co69 1.993 . S
N86 N85 1.388 . S
N86 C87 1.346 . S
C87 N86 1.346 . S
C87 C88 1.396 . S
C87 C97 1.510 . S
C88 C84 1.401 . S
C88 C87 1.396 . S
C89 C84 1.499 . S
C89 H90 0.959 . S
C89 H91 0.960 . S
C89 H92 0.961 . S
H90 C89 0.959 . S
H91 C89 0.960 . S
H92 C89 0.961 . S
O93 Co68 1.967 . S
O93 C101 1.258 . S
O94 Co69 1.941 . S
O94 C101 1.266 . S
H95 C97 0.959 . S
H96 C97 0.961 . S
C97 C87 1.510 . S
C97 H95 0.959 . S
C97 H96 0.961 . S
C97 H98 0.960 . S
H98 C97 0.960 . S
H99 N79 0.862 . S
O100 Co68 1.920 . S
O100 C73 1.289 . S
C101 O93 1.258 . S
C101 O94 1.266 . S
Co102 O105 1.970 . S
Co102 N119 1.989 . S
Co102 O127 1.967 . S
Co102 O134 1.920 . S
Co103 O106 1.966 . S
Co103 N112 2.022 . S
Co103 N120 1.993 . S
Co103 O128 1.941 . S
C104 O105 1.258 . S
C104 O106 1.263 . S
O105 Co102 1.970 . S
O105 C104 1.258 . S
O106 Co103 1.966 . S
O106 C104 1.263 . S
C107 O108 1.235 . S
C107 O134 1.289 . S
O108 C107 1.235 . S
C109 C111 1.400 . S
C109 N112 1.351 . S
C109 C114 1.501 . S
C110 C111 1.387 . S
C110 N113 1.341 . S
C111 C109 1.400 . S
C111 C110 1.387 . S
N112 Co103 2.022 . S
N112 C109 1.351 . S
N112 N113 1.365 . S
N113 C110 1.341 . S
N113 N112 1.365 . S
N113 H133 0.862 . S
C114 C109 1.501 . S
C114 H115 0.961 . S
C114 H116 0.961 . S
C114 H117 0.960 . S
H115 C114 0.961 . S
H116 C114 0.961 . S
H117 C114 0.960 . S
C118 N119 1.342 . S
C118 C122 1.401 . S
C118 C123 1.499 . S
N119 Co102 1.989 . S
N119 C118 1.342 . S
N119 N120 1.388 . S
N120 Co103 1.993 . S
N120 N119 1.388 . S
N120 C121 1.346 . S
C121 N120 1.346 . S
C121 C122 1.396 . S
C121 C131 1.510 . S
C122 C118 1.401 . S
C122 C121 1.396 . S
C123 C118 1.499 . S
C123 H124 0.959 . S
C123 H125 0.960 . S
C123 H126 0.961 . S
H124 C123 0.959 . S
H125 C123 0.960 . S
H126 C123 0.961 . S
O127 Co102 1.967 . S
O127 C135 1.258 . S
O128 Co103 1.941 . S
O128 C135 1.266 . S
H129 C131 0.959 . S
H130 C131 0.961 . S
C131 C121 1.510 . S
C131 H129 0.959 . S
C131 H130 0.961 . S
C131 H132 0.960 . S
H132 C131 0.960 . S
H133 N113 0.862 . S
O134 Co102 1.920 . S
O134 C107 1.289 . S
C135 O127 1.258 . S
C135 O128 1.266 . S
Co136 O139 1.970 . S
Co136 N153 1.989 . S
Co136 O161 1.967 . S
Co136 O168 1.920 . S
Co137 O140 1.966 . S
Co137 N146 2.022 . S
Co137 N154 1.993 . S
Co137 O162 1.941 . S
C138 O139 1.258 . S
C138 O140 1.263 . S
O139 Co136 1.970 . S
O139 C138 1.258 . S
O140 Co137 1.966 . S
O140 C138 1.263 . S
C141 O142 1.235 . S
C141 O168 1.289 . S
O142 C141 1.235 . S
C143 C145 1.400 . S
C143 N146 1.351 . S
C143 C148 1.501 . S
C144 C145 1.387 . S
C144 N147 1.341 . S
C145 C143 1.400 . S
C145 C144 1.387 . S
N146 Co137 2.022 . S
N146 C143 1.351 . S
N146 N147 1.365 . S
N147 C144 1.341 . S
N147 N146 1.365 . S
N147 H167 0.862 . S
C148 C143 1.501 . S
C148 H149 0.961 . S
C148 H150 0.961 . S
C148 H151 0.960 . S
H149 C148 0.961 . S
H150 C148 0.961 . S
H151 C148 0.960 . S
C152 N153 1.342 . S
C152 C156 1.401 . S
C152 C157 1.499 . S
N153 Co136 1.989 . S
N153 C152 1.342 . S
N153 N154 1.388 . S
N154 Co137 1.993 . S
N154 N153 1.388 . S
N154 C155 1.346 . S
C155 N154 1.346 . S
C155 C156 1.396 . S
C155 C165 1.510 . S
C156 C152 1.401 . S
C156 C155 1.396 . S
C157 C152 1.499 . S
C157 H158 0.959 . S
C157 H159 0.960 . S
C157 H160 0.961 . S
H158 C157 0.959 . S
H159 C157 0.960 . S
H160 C157 0.961 . S
O161 Co136 1.967 . S
O161 C169 1.258 . S
O162 Co137 1.941 . S
O162 C169 1.266 . S
H163 C165 0.959 . S
H164 C165 0.961 . S
C165 C155 1.510 . S
C165 H163 0.959 . S
C165 H164 0.961 . S
C165 H166 0.960 . S
H166 C165 0.960 . S
H167 N147 0.862 . S
O168 Co136 1.920 . S
O168 C141 1.289 . S
C169 O161 1.258 . S
C169 O162 1.266 . S
Co170 O173 1.970 . S
Co170 N187 1.989 . S
Co170 O195 1.967 . S
Co170 O202 1.920 . S
Co171 O174 1.966 . S
Co171 N180 2.022 . S
Co171 N188 1.993 . S
Co171 O196 1.941 . S
C172 O173 1.258 . S
C172 O174 1.263 . S
O173 Co170 1.970 . S
O173 C172 1.258 . S
O174 Co171 1.966 . S
O174 C172 1.263 . S
C175 O176 1.235 . S
C175 O202 1.289 . S
O176 C175 1.235 . S
C177 C179 1.400 . S
C177 N180 1.351 . S
C177 C182 1.501 . S
C178 C179 1.387 . S
C178 N181 1.341 . S
C179 C177 1.400 . S
C179 C178 1.387 . S
N180 Co171 2.022 . S
N180 C177 1.351 . S
N180 N181 1.365 . S
N181 C178 1.341 . S
N181 N180 1.365 . S
N181 H201 0.862 . S
C182 C177 1.501 . S
C182 H183 0.961 . S
C182 H184 0.961 . S
C182 H185 0.960 . S
H183 C182 0.961 . S
H184 C182 0.961 . S
H185 C182 0.960 . S
C186 N187 1.342 . S
C186 C190 1.401 . S
C186 C191 1.499 . S
N187 Co170 1.989 . S
N187 C186 1.342 . S
N187 N188 1.388 . S
N188 Co171 1.993 . S
N188 N187 1.388 . S
N188 C189 1.346 . S
C189 N188 1.346 . S
C189 C190 1.396 . S
C189 C199 1.510 . S
C190 C186 1.401 . S
C190 C189 1.396 . S
C191 C186 1.499 . S
C191 H192 0.959 . S
C191 H193 0.960 . S
C191 H194 0.961 . S
H192 C191 0.959 . S
H193 C191 0.960 . S
H194 C191 0.961 . S
O195 Co170 1.967 . S
O195 C203 1.258 . S
O196 Co171 1.941 . S
O196 C203 1.266 . S
H197 C199 0.959 . S
H198 C199 0.961 . S
C199 C189 1.510 . S
C199 H197 0.959 . S
C199 H198 0.961 . S
C199 H200 0.960 . S
H200 C199 0.960 . S
H201 N181 0.862 . S
O202 Co170 1.920 . S
O202 C175 1.289 . S
C203 O195 1.258 . S
C203 O196 1.266 . S
Co204 O207 1.970 . S
Co204 N221 1.989 . S
Co204 O229 1.967 . S
Co204 O236 1.920 . S
Co205 O208 1.966 . S
Co205 N214 2.022 . S
Co205 N222 1.993 . S
Co205 O230 1.941 . S
C206 O207 1.258 . S
C206 O208 1.263 . S
O207 Co204 1.970 . S
O207 C206 1.258 . S
O208 Co205 1.966 . S
O208 C206 1.263 . S
C209 O210 1.235 . S
C209 O236 1.289 . S
O210 C209 1.235 . S
C211 C213 1.400 . S
C211 N214 1.351 . S
C211 C216 1.501 . S
C212 C213 1.387 . S
C212 N215 1.341 . S
C213 C211 1.400 . S
C213 C212 1.387 . S
N214 Co205 2.022 . S
N214 C211 1.351 . S
N214 N215 1.365 . S
N215 C212 1.341 . S
N215 N214 1.365 . S
N215 H235 0.862 . S
C216 C211 1.501 . S
C216 H217 0.961 . S
C216 H218 0.961 . S
C216 H219 0.960 . S
H217 C216 0.961 . S
H218 C216 0.961 . S
H219 C216 0.960 . S
C220 N221 1.342 . S
C220 C224 1.401 . S
C220 C225 1.499 . S
N221 Co204 1.989 . S
N221 C220 1.342 . S
N221 N222 1.388 . S
N222 Co205 1.993 . S
N222 N221 1.388 . S
N222 C223 1.346 . S
C223 N222 1.346 . S
C223 C224 1.396 . S
C223 C233 1.510 . S
C224 C220 1.401 . S
C224 C223 1.396 . S
C225 C220 1.499 . S
C225 H226 0.959 . S
C225 H227 0.960 . S
C225 H228 0.961 . S
H226 C225 0.959 . S
H227 C225 0.960 . S
H228 C225 0.961 . S
O229 Co204 1.967 . S
O229 C237 1.258 . S
O230 Co205 1.941 . S
O230 C237 1.266 . S
H231 C233 0.959 . S
H232 C233 0.961 . S
C233 C223 1.510 . S
C233 H231 0.959 . S
C233 H232 0.961 . S
C233 H234 0.960 . S
H234 C233 0.960 . S
H235 N215 0.862 . S
O236 Co204 1.920 . S
O236 C209 1.289 . S
C237 O229 1.258 . S
C237 O230 1.266 . S
Co238 O241 1.970 . S
Co238 N255 1.989 . S
Co238 O263 1.967 . S
Co238 O270 1.920 . S
Co239 O242 1.966 . S
Co239 N248 2.022 . S
Co239 N256 1.993 . S
Co239 O264 1.941 . S
C240 O241 1.258 . S
C240 O242 1.263 . S
O241 Co238 1.970 . S
O241 C240 1.258 . S
O242 Co239 1.966 . S
O242 C240 1.263 . S
C243 O244 1.235 . S
C243 O270 1.289 . S
O244 C243 1.235 . S
C245 C247 1.400 . S
C245 N248 1.351 . S
C245 C250 1.501 . S
C246 C247 1.387 . S
C246 N249 1.341 . S
C247 C245 1.400 . S
C247 C246 1.387 . S
N248 Co239 2.022 . S
N248 C245 1.351 . S
N248 N249 1.365 . S
N249 C246 1.341 . S
N249 N248 1.365 . S
N249 H269 0.862 . S
C250 C245 1.501 . S
C250 H251 0.961 . S
C250 H252 0.961 . S
C250 H253 0.960 . S
H251 C250 0.961 . S
H252 C250 0.961 . S
H253 C250 0.960 . S
C254 N255 1.342 . S
C254 C258 1.401 . S
C254 C259 1.499 . S
N255 Co238 1.989 . S
N255 C254 1.342 . S
N255 N256 1.388 . S
N256 Co239 1.993 . S
N256 N255 1.388 . S
N256 C257 1.346 . S
C257 N256 1.346 . S
C257 C258 1.396 . S
C257 C267 1.510 . S
C258 C254 1.401 . S
C258 C257 1.396 . S
C259 C254 1.499 . S
C259 H260 0.959 . S
C259 H261 0.960 . S
C259 H262 0.961 . S
H260 C259 0.959 . S
H261 C259 0.960 . S
H262 C259 0.961 . S
O263 Co238 1.967 . S
O263 C271 1.258 . S
O264 Co239 1.941 . S
O264 C271 1.266 . S
H265 C267 0.959 . S
H266 C267 0.961 . S
C267 C257 1.510 . S
C267 H265 0.959 . S
C267 H266 0.961 . S
C267 H268 0.960 . S
H268 C267 0.960 . S
H269 N249 0.862 . S
O270 Co238 1.920 . S
O270 C243 1.289 . S
C271 O263 1.258 . S
C271 O264 1.266 . S
Co272 O275 1.970 . S
Co272 N289 1.989 . S
Co272 O297 1.967 . S
Co272 O304 1.920 . S
Co273 O276 1.966 . S
Co273 N282 2.022 . S
Co273 N290 1.993 . S
Co273 O298 1.941 . S
C274 O275 1.258 . S
C274 O276 1.263 . S
O275 Co272 1.970 . S
O275 C274 1.258 . S
O276 Co273 1.966 . S
O276 C274 1.263 . S
C277 O278 1.235 . S
C277 O304 1.289 . S
O278 C277 1.235 . S
C279 C281 1.400 . S
C279 N282 1.351 . S
C279 C284 1.501 . S
C280 C281 1.387 . S
C280 N283 1.341 . S
C281 C279 1.400 . S
C281 C280 1.387 . S
N282 Co273 2.022 . S
N282 C279 1.351 . S
N282 N283 1.365 . S
N283 C280 1.341 . S
N283 N282 1.365 . S
N283 H303 0.862 . S
C284 C279 1.501 . S
C284 H285 0.961 . S
C284 H286 0.961 . S
C284 H287 0.960 . S
H285 C284 0.961 . S
H286 C284 0.961 . S
H287 C284 0.960 . S
C288 N289 1.342 . S
C288 C292 1.401 . S
C288 C293 1.499 . S
N289 Co272 1.989 . S
N289 C288 1.342 . S
N289 N290 1.388 . S
N290 Co273 1.993 . S
N290 N289 1.388 . S
N290 C291 1.346 . S
C291 N290 1.346 . S
C291 C292 1.396 . S
C291 C301 1.510 . S
C292 C288 1.401 . S
C292 C291 1.396 . S
C293 C288 1.499 . S
C293 H294 0.959 . S
C293 H295 0.960 . S
C293 H296 0.961 . S
H294 C293 0.959 . S
H295 C293 0.960 . S
H296 C293 0.961 . S
O297 Co272 1.967 . S
O297 C305 1.258 . S
O298 Co273 1.941 . S
O298 C305 1.266 . S
H299 C301 0.959 . S
H300 C301 0.961 . S
C301 C291 1.510 . S
C301 H299 0.959 . S
C301 H300 0.961 . S
C301 H302 0.960 . S
H302 C301 0.960 . S
H303 N283 0.862 . S
O304 Co272 1.920 . S
O304 C277 1.289 . S
C305 O297 1.258 . S
C305 O298 1.266 . S
Co306 O309 1.970 . S
Co306 N323 1.989 . S
Co306 O331 1.967 . S
Co306 O338 1.920 . S
Co307 O310 1.966 . S
Co307 N316 2.022 . S
Co307 N324 1.993 . S
Co307 O332 1.941 . S
C308 O309 1.258 . S
C308 O310 1.263 . S
O309 Co306 1.970 . S
O309 C308 1.258 . S
O310 Co307 1.966 . S
O310 C308 1.263 . S
C311 O312 1.235 . S
C311 O338 1.289 . S
O312 C311 1.235 . S
C313 C315 1.400 . S
C313 N316 1.351 . S
C313 C318 1.501 . S
C314 C315 1.387 . S
C314 N317 1.341 . S
C315 C313 1.400 . S
C315 C314 1.387 . S
N316 Co307 2.022 . S
N316 C313 1.351 . S
N316 N317 1.365 . S
N317 C314 1.341 . S
N317 N316 1.365 . S
N317 H337 0.862 . S
C318 C313 1.501 . S
C318 H319 0.961 . S
C318 H320 0.961 . S
C318 H321 0.960 . S
H319 C318 0.961 . S
H320 C318 0.961 . S
H321 C318 0.960 . S
C322 N323 1.342 . S
C322 C326 1.401 . S
C322 C327 1.499 . S
N323 Co306 1.989 . S
N323 C322 1.342 . S
N323 N324 1.388 . S
N324 Co307 1.993 . S
N324 N323 1.388 . S
N324 C325 1.346 . S
C325 N324 1.346 . S
C325 C326 1.396 . S
C325 C335 1.510 . S
C326 C322 1.401 . S
C326 C325 1.396 . S
C327 C322 1.499 . S
C327 H328 0.959 . S
C327 H329 0.960 . S
C327 H330 0.961 . S
H328 C327 0.959 . S
H329 C327 0.960 . S
H330 C327 0.961 . S
O331 Co306 1.967 . S
O331 C339 1.258 . S
O332 Co307 1.941 . S
O332 C339 1.266 . S
H333 C335 0.959 . S
H334 C335 0.961 . S
C335 C325 1.510 . S
C335 H333 0.959 . S
C335 H334 0.961 . S
C335 H336 0.960 . S
H336 C335 0.960 . S
H337 N317 0.862 . S
O338 Co306 1.920 . S
O338 C311 1.289 . S
C339 O331 1.258 . S
C339 O332 1.266 . S
Co340 O343 1.970 . S
Co340 N357 1.989 . S
Co340 O365 1.967 . S
Co340 O372 1.920 . S
Co341 O344 1.966 . S
Co341 N350 2.022 . S
Co341 N358 1.993 . S
Co341 O366 1.941 . S
C342 O343 1.258 . S
C342 O344 1.263 . S
O343 Co340 1.970 . S
O343 C342 1.258 . S
O344 Co341 1.966 . S
O344 C342 1.263 . S
C345 O346 1.235 . S
C345 O372 1.289 . S
O346 C345 1.235 . S
C347 C349 1.400 . S
C347 N350 1.351 . S
C347 C352 1.501 . S
C348 C349 1.387 . S
C348 N351 1.341 . S
C349 C347 1.400 . S
C349 C348 1.387 . S
N350 Co341 2.022 . S
N350 C347 1.351 . S
N350 N351 1.365 . S
N351 C348 1.341 . S
N351 N350 1.365 . S
N351 H371 0.862 . S
C352 C347 1.501 . S
C352 H353 0.961 . S
C352 H354 0.961 . S
C352 H355 0.960 . S
H353 C352 0.961 . S
H354 C352 0.961 . S
H355 C352 0.960 . S
C356 N357 1.342 . S
C356 C360 1.401 . S
C356 C361 1.499 . S
N357 Co340 1.989 . S
N357 C356 1.342 . S
N357 N358 1.388 . S
N358 Co341 1.993 . S
N358 N357 1.388 . S
N358 C359 1.346 . S
C359 N358 1.346 . S
C359 C360 1.396 . S
C359 C369 1.510 . S
C360 C356 1.401 . S
C360 C359 1.396 . S
C361 C356 1.499 . S
C361 H362 0.959 . S
C361 H363 0.960 . S
C361 H364 0.961 . S
H362 C361 0.959 . S
H363 C361 0.960 . S
H364 C361 0.961 . S
O365 Co340 1.967 . S
O365 C373 1.258 . S
O366 Co341 1.941 . S
O366 C373 1.266 . S
H367 C369 0.959 . S
H368 C369 0.961 . S
C369 C359 1.510 . S
C369 H367 0.959 . S
C369 H368 0.961 . S
C369 H370 0.960 . S
H370 C369 0.960 . S
H371 N351 0.862 . S
O372 Co340 1.920 . S
O372 C345 1.289 . S
C373 O365 1.258 . S
C373 O366 1.266 . S
Co374 O377 1.970 . S
Co374 N391 1.989 . S
Co374 O399 1.967 . S
Co374 O406 1.920 . S
Co375 O378 1.966 . S
Co375 N384 2.022 . S
Co375 N392 1.993 . S
Co375 O400 1.941 . S
C376 O377 1.258 . S
C376 O378 1.263 . S
O377 Co374 1.970 . S
O377 C376 1.258 . S
O378 Co375 1.966 . S
O378 C376 1.263 . S
C379 O380 1.235 . S
C379 O406 1.289 . S
O380 C379 1.235 . S
C381 C383 1.400 . S
C381 N384 1.351 . S
C381 C386 1.501 . S
C382 C383 1.387 . S
C382 N385 1.341 . S
C383 C381 1.400 . S
C383 C382 1.387 . S
N384 Co375 2.022 . S
N384 C381 1.351 . S
N384 N385 1.365 . S
N385 C382 1.341 . S
N385 N384 1.365 . S
N385 H405 0.862 . S
C386 C381 1.501 . S
C386 H387 0.961 . S
C386 H388 0.961 . S
C386 H389 0.960 . S
H387 C386 0.961 . S
H388 C386 0.961 . S
H389 C386 0.960 . S
C390 N391 1.342 . S
C390 C394 1.401 . S
C390 C395 1.499 . S
N391 Co374 1.989 . S
N391 C390 1.342 . S
N391 N392 1.388 . S
N392 Co375 1.993 . S
N392 N391 1.388 . S
N392 C393 1.346 . S
C393 N392 1.346 . S
C393 C394 1.396 . S
C393 C403 1.510 . S
C394 C390 1.401 . S
C394 C393 1.396 . S
C395 C390 1.499 . S
C395 H396 0.959 . S
C395 H397 0.960 . S
C395 H398 0.961 . S
H396 C395 0.959 . S
H397 C395 0.960 . S
H398 C395 0.961 . S
O399 Co374 1.967 . S
O399 C407 1.258 . S
O400 Co375 1.941 . S
O400 C407 1.266 . S
H401 C403 0.959 . S
H402 C403 0.961 . S
C403 C393 1.510 . S
C403 H401 0.959 . S
C403 H402 0.961 . S
C403 H404 0.960 . S
H404 C403 0.960 . S
H405 N385 0.862 . S
O406 Co374 1.920 . S
O406 C379 1.289 . S
C407 O399 1.258 . S
C407 O400 1.266 . S
Co408 O411 1.970 . S
Co408 N425 1.989 . S
Co408 O433 1.967 . S
Co408 O440 1.920 . S
Co409 O412 1.966 . S
Co409 N418 2.022 . S
Co409 N426 1.993 . S
Co409 O434 1.941 . S
C410 O411 1.258 . S
C410 O412 1.263 . S
O411 Co408 1.970 . S
O411 C410 1.258 . S
O412 Co409 1.966 . S
O412 C410 1.263 . S
C413 O414 1.235 . S
C413 O440 1.289 . S
O414 C413 1.235 . S
C415 C417 1.400 . S
C415 N418 1.351 . S
C415 C420 1.501 . S
C416 C417 1.387 . S
C416 N419 1.341 . S
C417 C415 1.400 . S
C417 C416 1.387 . S
N418 Co409 2.022 . S
N418 C415 1.351 . S
N418 N419 1.365 . S
N419 C416 1.341 . S
N419 N418 1.365 . S
N419 H439 0.862 . S
C420 C415 1.501 . S
C420 H421 0.961 . S
C420 H422 0.961 . S
C420 H423 0.960 . S
H421 C420 0.961 . S
H422 C420 0.961 . S
H423 C420 0.960 . S
C424 N425 1.342 . S
C424 C428 1.401 . S
C424 C429 1.499 . S
N425 Co408 1.989 . S
N425 C424 1.342 . S
N425 N426 1.388 . S
N426 Co409 1.993 . S
N426 N425 1.388 . S
N426 C427 1.346 . S
C427 N426 1.346 . S
C427 C428 1.396 . S
C427 C437 1.510 . S
C428 C424 1.401 . S
C428 C427 1.396 . S
C429 C424 1.499 . S
C429 H430 0.959 . S
C429 H431 0.960 . S
C429 H432 0.961 . S
H430 C429 0.959 . S
H431 C429 0.960 . S
H432 C429 0.961 . S
O433 Co408 1.967 . S
O433 C441 1.258 . S
O434 Co409 1.941 . S
O434 C441 1.266 . S
H435 C437 0.959 . S
H436 C437 0.961 . S
C437 C427 1.510 . S
C437 H435 0.959 . S
C437 H436 0.961 . S
C437 H438 0.960 . S
H438 C437 0.960 . S
H439 N419 0.862 . S
O440 Co408 1.920 . S
O440 C413 1.289 . S
C441 O433 1.258 . S
C441 O434 1.266 . S
Co442 O445 1.970 . S
Co442 N459 1.989 . S
Co442 O467 1.967 . S
Co442 O474 1.920 . S
Co443 O446 1.966 . S
Co443 N452 2.022 . S
Co443 N460 1.993 . S
Co443 O468 1.941 . S
C444 O445 1.258 . S
C444 O446 1.263 . S
O445 Co442 1.970 . S
O445 C444 1.258 . S
O446 Co443 1.966 . S
O446 C444 1.263 . S
C447 O448 1.235 . S
C447 O474 1.289 . S
O448 C447 1.235 . S
C449 C451 1.400 . S
C449 N452 1.351 . S
C449 C454 1.501 . S
C450 C451 1.387 . S
C450 N453 1.341 . S
C451 C449 1.400 . S
C451 C450 1.387 . S
N452 Co443 2.022 . S
N452 C449 1.351 . S
N452 N453 1.365 . S
N453 C450 1.341 . S
N453 N452 1.365 . S
N453 H473 0.862 . S
C454 C449 1.501 . S
C454 H455 0.961 . S
C454 H456 0.961 . S
C454 H457 0.960 . S
H455 C454 0.961 . S
H456 C454 0.961 . S
H457 C454 0.960 . S
C458 N459 1.342 . S
C458 C462 1.401 . S
C458 C463 1.499 . S
N459 Co442 1.989 . S
N459 C458 1.342 . S
N459 N460 1.388 . S
N460 Co443 1.993 . S
N460 N459 1.388 . S
N460 C461 1.346 . S
C461 N460 1.346 . S
C461 C462 1.396 . S
C461 C471 1.510 . S
C462 C458 1.401 . S
C462 C461 1.396 . S
C463 C458 1.499 . S
C463 H464 0.959 . S
C463 H465 0.960 . S
C463 H466 0.961 . S
H464 C463 0.959 . S
H465 C463 0.960 . S
H466 C463 0.961 . S
O467 Co442 1.967 . S
O467 C475 1.258 . S
O468 Co443 1.941 . S
O468 C475 1.266 . S
H469 C471 0.959 . S
H470 C471 0.961 . S
C471 C461 1.510 . S
C471 H469 0.959 . S
C471 H470 0.961 . S
C471 H472 0.960 . S
H472 C471 0.960 . S
H473 N453 0.862 . S
O474 Co442 1.920 . S
O474 C447 1.289 . S
C475 O467 1.258 . S
C475 O468 1.266 . S
Co476 O479 1.970 . S
Co476 N493 1.989 . S
Co476 O501 1.967 . S
Co476 O508 1.920 . S
Co477 O480 1.966 . S
Co477 N486 2.022 . S
Co477 N494 1.993 . S
Co477 O502 1.941 . S
C478 O479 1.258 . S
C478 O480 1.263 . S
O479 Co476 1.970 . S
O479 C478 1.258 . S
O480 Co477 1.966 . S
O480 C478 1.263 . S
C481 O482 1.235 . S
C481 O508 1.289 . S
O482 C481 1.235 . S
C483 C485 1.400 . S
C483 N486 1.351 . S
C483 C488 1.501 . S
C484 C485 1.387 . S
C484 N487 1.341 . S
C485 C483 1.400 . S
C485 C484 1.387 . S
N486 Co477 2.022 . S
N486 C483 1.351 . S
N486 N487 1.365 . S
N487 C484 1.341 . S
N487 N486 1.365 . S
N487 H507 0.862 . S
C488 C483 1.501 . S
C488 H489 0.961 . S
C488 H490 0.961 . S
C488 H491 0.960 . S
H489 C488 0.961 . S
H490 C488 0.961 . S
H491 C488 0.960 . S
C492 N493 1.342 . S
C492 C496 1.401 . S
C492 C497 1.499 . S
N493 Co476 1.989 . S
N493 C492 1.342 . S
N493 N494 1.388 . S
N494 Co477 1.993 . S
N494 N493 1.388 . S
N494 C495 1.346 . S
C495 N494 1.346 . S
C495 C496 1.396 . S
C495 C505 1.510 . S
C496 C492 1.401 . S
C496 C495 1.396 . S
C497 C492 1.499 . S
C497 H498 0.959 . S
C497 H499 0.960 . S
C497 H500 0.961 . S
H498 C497 0.959 . S
H499 C497 0.960 . S
H500 C497 0.961 . S
O501 Co476 1.967 . S
O501 C509 1.258 . S
O502 Co477 1.941 . S
O502 C509 1.266 . S
H503 C505 0.959 . S
H504 C505 0.961 . S
C505 C495 1.510 . S
C505 H503 0.959 . S
C505 H504 0.961 . S
C505 H506 0.960 . S
H506 C505 0.960 . S
H507 N487 0.862 . S
O508 Co476 1.920 . S
O508 C481 1.289 . S
C509 O501 1.258 . S
C509 O502 1.266 . S
Co510 O513 1.970 . S
Co510 N527 1.989 . S
Co510 O535 1.967 . S
Co510 O542 1.920 . S
Co511 O514 1.966 . S
Co511 N520 2.022 . S
Co511 N528 1.993 . S
Co511 O536 1.941 . S
C512 O513 1.258 . S
C512 O514 1.263 . S
O513 Co510 1.970 . S
O513 C512 1.258 . S
O514 Co511 1.966 . S
O514 C512 1.263 . S
C515 O516 1.235 . S
C515 O542 1.289 . S
O516 C515 1.235 . S
C517 C519 1.400 . S
C517 N520 1.351 . S
C517 C522 1.501 . S
C518 C519 1.387 . S
C518 N521 1.341 . S
C519 C517 1.400 . S
C519 C518 1.387 . S
N520 Co511 2.022 . S
N520 C517 1.351 . S
N520 N521 1.365 . S
N521 C518 1.341 . S
N521 N520 1.365 . S
N521 H541 0.862 . S
C522 C517 1.501 . S
C522 H523 0.961 . S
C522 H524 0.961 . S
C522 H525 0.960 . S
H523 C522 0.961 . S
H524 C522 0.961 . S
H525 C522 0.960 . S
C526 N527 1.342 . S
C526 C530 1.401 . S
C526 C531 1.499 . S
N527 Co510 1.989 . S
N527 C526 1.342 . S
N527 N528 1.388 . S
N528 Co511 1.993 . S
N528 N527 1.388 . S
N528 C529 1.346 . S
C529 N528 1.346 . S
C529 C530 1.396 . S
C529 C539 1.510 . S
C530 C526 1.401 . S
C530 C529 1.396 . S
C531 C526 1.499 . S
C531 H532 0.959 . S
C531 H533 0.960 . S
C531 H534 0.961 . S
H532 C531 0.959 . S
H533 C531 0.960 . S
H534 C531 0.961 . S
O535 Co510 1.967 . S
O535 C543 1.258 . S
O536 Co511 1.941 . S
O536 C543 1.266 . S
H537 C539 0.959 . S
H538 C539 0.961 . S
C539 C529 1.510 . S
C539 H537 0.959 . S
C539 H538 0.961 . S
C539 H540 0.960 . S
H540 C539 0.960 . S
H541 N521 0.862 . S
O542 Co510 1.920 . S
O542 C515 1.289 . S
C543 O535 1.258 . S
C543 O536 1.266 . S
Co544 O547 1.970 . S
Co544 N561 1.989 . S
Co544 O569 1.967 . S
Co544 O576 1.920 . S
Co545 O548 1.966 . S
Co545 N554 2.022 . S
Co545 N562 1.993 . S
Co545 O570 1.941 . S
C546 O547 1.258 . S
C546 O548 1.263 . S
O547 Co544 1.970 . S
O547 C546 1.258 . S
O548 Co545 1.966 . S
O548 C546 1.263 . S
C549 O550 1.235 . S
C549 O576 1.289 . S
O550 C549 1.235 . S
C551 C553 1.400 . S
C551 N554 1.351 . S
C551 C556 1.501 . S
C552 C553 1.387 . S
C552 N555 1.341 . S
C553 C551 1.400 . S
C553 C552 1.387 . S
N554 Co545 2.022 . S
N554 C551 1.351 . S
N554 N555 1.365 . S
N555 C552 1.341 . S
N555 N554 1.365 . S
N555 H575 0.862 . S
C556 C551 1.501 . S
C556 H557 0.961 . S
C556 H558 0.961 . S
C556 H559 0.960 . S
H557 C556 0.961 . S
H558 C556 0.961 . S
H559 C556 0.960 . S
C560 N561 1.342 . S
C560 C564 1.401 . S
C560 C565 1.499 . S
N561 Co544 1.989 . S
N561 C560 1.342 . S
N561 N562 1.388 . S
N562 Co545 1.993 . S
N562 N561 1.388 . S
N562 C563 1.346 . S
C563 N562 1.346 . S
C563 C564 1.396 . S
C563 C573 1.510 . S
C564 C560 1.401 . S
C564 C563 1.396 . S
C565 C560 1.499 . S
C565 H566 0.959 . S
C565 H567 0.960 . S
C565 H568 0.961 . S
H566 C565 0.959 . S
H567 C565 0.960 . S
H568 C565 0.961 . S
O569 Co544 1.967 . S
O569 C577 1.258 . S
O570 Co545 1.941 . S
O570 C577 1.266 . S
H571 C573 0.959 . S
H572 C573 0.961 . S
C573 C563 1.510 . S
C573 H571 0.959 . S
C573 H572 0.961 . S
C573 H574 0.960 . S
H574 C573 0.960 . S
H575 N555 0.862 . S
O576 Co544 1.920 . S
O576 C549 1.289 . S
C577 O569 1.258 . S
C577 O570 1.266 . S
Co578 O581 1.970 . S
Co578 N595 1.989 . S
Co578 O603 1.967 . S
Co578 O610 1.920 . S
Co579 O582 1.966 . S
Co579 N588 2.022 . S
Co579 N596 1.993 . S
Co579 O604 1.941 . S
C580 O581 1.258 . S
C580 O582 1.263 . S
O581 Co578 1.970 . S
O581 C580 1.258 . S
O582 Co579 1.966 . S
O582 C580 1.263 . S
C583 O584 1.235 . S
C583 O610 1.289 . S
O584 C583 1.235 . S
C585 C587 1.400 . S
C585 N588 1.351 . S
C585 C590 1.501 . S
C586 C587 1.387 . S
C586 N589 1.341 . S
C587 C585 1.400 . S
C587 C586 1.387 . S
N588 Co579 2.022 . S
N588 C585 1.351 . S
N588 N589 1.365 . S
N589 C586 1.341 . S
N589 N588 1.365 . S
N589 H609 0.862 . S
C590 C585 1.501 . S
C590 H591 0.961 . S
C590 H592 0.961 . S
C590 H593 0.960 . S
H591 C590 0.961 . S
H592 C590 0.961 . S
H593 C590 0.960 . S
C594 N595 1.342 . S
C594 C598 1.401 . S
C594 C599 1.499 . S
N595 Co578 1.989 . S
N595 C594 1.342 . S
N595 N596 1.388 . S
N596 Co579 1.993 . S
N596 N595 1.388 . S
N596 C597 1.346 . S
C597 N596 1.346 . S
C597 C598 1.396 . S
C597 C607 1.510 . S
C598 C594 1.401 . S
C598 C597 1.396 . S
C599 C594 1.499 . S
C599 H600 0.959 . S
C599 H601 0.960 . S
C599 H602 0.961 . S
H600 C599 0.959 . S
H601 C599 0.960 . S
H602 C599 0.961 . S
O603 Co578 1.967 . S
O603 C611 1.258 . S
O604 Co579 1.941 . S
O604 C611 1.266 . S
H605 C607 0.959 . S
H606 C607 0.961 . S
C607 C597 1.510 . S
C607 H605 0.959 . S
C607 H606 0.961 . S
C607 H608 0.960 . S
H608 C607 0.960 . S
H609 N589 0.862 . S
O610 Co578 1.920 . S
O610 C583 1.289 . S
C611 O603 1.258 . S
C611 O604 1.266 . S
H612 C624 0.930 . S
H613 C626 0.930 . S
H614 C627 0.930 . S
H615 C631 0.959 . S
H616 C631 0.959 . S
H617 C631 0.961 . S
H618 C632 0.960 . S
H619 C632 0.961 . S
H620 C632 0.959 . S
H621 C635 0.929 . S
H622 C636 0.931 . S
H623 C638 0.930 . S
C624 H612 0.930 . S
C624 C625 1.399 . S
C624 C629 1.399 . S
C625 C624 1.399 . S
C625 C626 1.376 . S
C626 H613 0.930 . S
C626 C625 1.376 . S
C626 C627 1.388 . S
C627 H614 0.930 . S
C627 C626 1.388 . S
C627 C628 1.390 . S
C628 C627 1.390 . S
C628 C629 1.394 . S
C628 C634 1.465 . S
C629 C624 1.399 . S
C629 C628 1.394 . S
C629 C630 1.516 . S
C630 C629 1.516 . S
C630 C631 1.502 . S
C630 C632 1.561 . S
C630 C633 1.526 . S
C631 H615 0.959 . S
C631 H616 0.959 . S
C631 H617 0.961 . S
C631 C630 1.502 . S
C632 H618 0.960 . S
C632 H619 0.961 . S
C632 H620 0.959 . S
C632 C630 1.561 . S
C633 C630 1.526 . S
C633 C634 1.396 . S
C633 C638 1.390 . S
C634 C628 1.465 . S
C634 C633 1.396 . S
C634 C635 1.399 . S
C635 H621 0.929 . S
C635 C634 1.399 . S
C635 C636 1.385 . S
C636 H622 0.931 . S
C636 C635 1.385 . S
C636 C637 1.389 . S
C637 C636 1.389 . S
C637 C638 1.387 . S
C638 H623 0.930 . S
C638 C633 1.390 . S
C638 C637 1.387 . S
H639 C651 0.930 . S
H640 C653 0.930 1_565 S
H641 C654 0.930 . S
H642 C658 0.959 . S
H643 C658 0.959 . S
H644 C658 0.961 . S
H645 C659 0.960 . S
H646 C659 0.961 . S
H647 C659 0.959 . S
H648 C662 0.929 . S
H649 C663 0.931 . S
H650 C665 0.930 . S
C651 H639 0.930 . S
C651 C652 1.372 1_545 S
C651 C656 1.399 . S
C652 C651 1.372 1_565 S
C652 C653 1.384 1_565 S
C653 H640 0.930 1_545 S
C653 C652 1.384 1_545 S
C653 C654 1.388 . S
C654 H641 0.930 . S
C654 C653 1.388 . S
C654 C655 1.390 . S
C655 C654 1.390 . S
C655 C656 1.394 . S
C655 C661 1.465 . S
C656 C651 1.399 . S
C656 C655 1.394 . S
C656 C657 1.516 . S
C657 C656 1.516 . S
C657 C658 1.502 . S
C657 C659 1.561 . S
C657 C660 1.526 . S
C658 H642 0.959 . S
C658 H643 0.959 . S
C658 H644 0.961 . S
C658 C657 1.502 . S
C659 H645 0.960 . S
C659 H646 0.961 . S
C659 H647 0.959 . S
C659 C657 1.561 . S
C660 C657 1.526 . S
C660 C661 1.396 . S
C660 C665 1.390 . S
C661 C655 1.465 . S
C661 C660 1.396 . S
C661 C662 1.399 . S
C662 H648 0.929 . S
C662 C661 1.399 . S
C662 C663 1.385 . S
C663 H649 0.931 . S
C663 C662 1.385 . S
C663 C664 1.389 . S
C664 C663 1.389 . S
C664 C665 1.387 . S
C665 H650 0.930 . S
C665 C660 1.390 . S
C665 C664 1.387 . S
H666 C678 0.930 1_455 S
H667 C680 0.930 . S
H668 C681 0.930 . S
H669 C685 0.959 . S
H670 C685 0.959 . S
H671 C685 0.961 . S
H672 C686 0.960 1_455 S
H673 C686 0.961 . S
H674 C686 0.959 . S
H675 C689 0.929 . S
H676 C690 0.931 . S
H677 C692 0.930 . S
C678 H666 0.930 1_655 S
C678 C679 1.382 . S
C678 C683 1.399 . S
C679 C678 1.382 . S
C679 C680 1.421 . S
C680 H667 0.930 . S
C680 C679 1.421 . S
C680 C681 1.388 . S
C681 H668 0.930 . S
C681 C680 1.388 . S
C681 C682 1.390 . S
C682 C681 1.390 . S
C682 C683 1.394 . S
C682 C688 1.465 . S
C683 C678 1.399 . S
C683 C682 1.394 . S
C683 C684 1.516 . S
C684 C683 1.516 . S
C684 C685 1.502 . S
C684 C686 1.561 . S
C684 C687 1.526 . S
C685 H669 0.959 . S
C685 H670 0.959 . S
C685 H671 0.961 . S
C685 C684 1.502 . S
C686 H672 0.960 1_655 S
C686 H673 0.961 . S
C686 H674 0.959 . S
C686 C684 1.561 . S
C687 C684 1.526 . S
C687 C688 1.396 . S
C687 C692 1.390 . S
C688 C682 1.465 . S
C688 C687 1.396 . S
C688 C689 1.399 . S
C689 H675 0.929 . S
C689 C688 1.399 . S
C689 C690 1.385 . S
C690 H676 0.931 . S
C690 C689 1.385 . S
C690 C691 1.389 . S
C691 C690 1.389 . S
C691 C692 1.387 . S
C692 H677 0.930 . S
C692 C687 1.390 . S
C692 C691 1.387 . S
H693 C705 0.930 . S
H694 C707 0.930 . S
H695 C708 0.930 . S
H696 C712 0.959 . S
H697 C712 0.959 . S
H698 C712 0.961 . S
H699 C713 0.960 . S
H700 C713 0.961 . S
H701 C713 0.959 . S
H702 C716 0.929 . S
H703 C717 0.931 . S
H704 C719 0.930 . S
C705 H693 0.930 . S
C705 C706 1.399 . S
C705 C710 1.399 . S
C706 C705 1.399 . S
C706 C707 1.376 . S
C707 H694 0.930 . S
C707 C706 1.376 . S
C707 C708 1.388 . S
C708 H695 0.930 . S
C708 C707 1.388 . S
C708 C709 1.390 . S
C709 C708 1.390 . S
C709 C710 1.394 . S
C709 C715 1.465 . S
C710 C705 1.399 . S
C710 C709 1.394 . S
C710 C711 1.516 . S
C711 C710 1.516 . S
C711 C712 1.502 . S
C711 C713 1.561 . S
C711 C714 1.526 . S
C712 H696 0.959 . S
C712 H697 0.959 . S
C712 H698 0.961 . S
C712 C711 1.502 . S
C713 H699 0.960 . S
C713 H700 0.961 . S
C713 H701 0.959 . S
C713 C711 1.561 . S
C714 C711 1.526 . S
C714 C715 1.396 . S
C714 C719 1.390 . S
C715 C709 1.465 . S
C715 C714 1.396 . S
C715 C716 1.399 . S
C716 H702 0.929 . S
C716 C715 1.399 . S
C716 C717 1.385 . S
C717 H703 0.931 . S
C717 C716 1.385 . S
C717 C718 1.389 . S
C718 C717 1.389 . S
C718 C719 1.387 . S
C719 H704 0.930 . S
C719 C714 1.390 . S
C719 C718 1.387 . S
H720 C732 0.930 . S
H721 C734 0.930 . S
H722 C735 0.930 . S
H723 C739 0.959 . S
H724 C739 0.959 . S
H725 C739 0.961 . S
H726 C740 0.960 . S
H727 C740 0.961 . S
H728 C740 0.959 . S
H729 C743 0.929 . S
H730 C744 0.931 . S
H731 C746 0.930 . S
C732 H720 0.930 . S
C732 C733 1.393 . S
C732 C737 1.399 . S
C733 C732 1.393 . S
C733 C734 1.379 1_565 S
C734 H721 0.930 . S
C734 C733 1.379 1_545 S
C734 C735 1.388 1_545 S
C735 H722 0.930 . S
C735 C734 1.388 1_565 S
C735 C736 1.390 . S
C736 C735 1.390 . S
C736 C737 1.394 . S
C736 C742 1.465 . S
C737 C732 1.399 . S
C737 C736 1.394 . S
C737 C738 1.516 . S
C738 C737 1.516 . S
C738 C739 1.502 . S
C738 C740 1.561 . S
C738 C741 1.526 . S
C739 H723 0.959 . S
C739 H724 0.959 . S
C739 H725 0.961 . S
C739 C738 1.502 . S
C740 H726 0.960 . S
C740 H727 0.961 . S
C740 H728 0.959 . S
C740 C738 1.561 . S
C741 C738 1.526 . S
C741 C742 1.396 . S
C741 C746 1.390 . S
C742 C736 1.465 . S
C742 C741 1.396 . S
C742 C743 1.399 . S
C743 H729 0.929 . S
C743 C742 1.399 . S
C743 C744 1.385 . S
C744 H730 0.931 . S
C744 C743 1.385 . S
C744 C745 1.389 . S
C745 C744 1.389 . S
C745 C746 1.387 . S
C746 H731 0.930 . S
C746 C741 1.390 . S
C746 C745 1.387 . S
H747 C759 0.930 1_655 S
H748 C761 0.930 . S
H749 C762 0.930 . S
H750 C766 0.959 . S
H751 C766 0.959 . S
H752 C766 0.961 . S
H753 C767 0.960 1_655 S
H754 C767 0.961 . S
H755 C767 0.959 . S
H756 C770 0.929 . S
H757 C771 0.931 . S
H758 C773 0.930 . S
C759 H747 0.930 1_455 S
C759 C760 1.399 . S
C759 C764 1.399 . S
C760 C759 1.399 . S
C760 C761 1.376 . S
C761 H748 0.930 . S
C761 C760 1.376 . S
C761 C762 1.388 . S
C762 H749 0.930 . S
C762 C761 1.388 . S
C762 C763 1.390 . S
C763 C762 1.390 . S
C763 C764 1.394 . S
C763 C769 1.465 . S
C764 C759 1.399 . S
C764 C763 1.394 . S
C764 C765 1.516 . S
C765 C764 1.516 . S
C765 C766 1.502 . S
C765 C767 1.561 . S
C765 C768 1.526 . S
C766 H750 0.959 . S
C766 H751 0.959 . S
C766 H752 0.961 . S
C766 C765 1.502 . S
C767 H753 0.960 1_455 S
C767 H754 0.961 . S
C767 H755 0.959 . S
C767 C765 1.561 . S
C768 C765 1.526 . S
C768 C769 1.396 . S
C768 C773 1.390 . S
C769 C763 1.465 . S
C769 C768 1.396 . S
C769 C770 1.399 . S
C770 H756 0.929 . S
C770 C769 1.399 . S
C770 C771 1.385 . S
C771 H757 0.931 . S
C771 C770 1.385 . S
C771 C772 1.389 . S
C772 C771 1.389 . S
C772 C773 1.387 . S
C773 H758 0.930 . S
C773 C768 1.390 . S
C773 C772 1.387 . S
H774 C786 0.930 . S
H775 C788 0.930 . S
H776 C789 0.930 . S
H777 C793 0.959 . S
H778 C793 0.959 . S
H779 C793 0.961 . S
H780 C794 0.960 . S
H781 C794 0.961 . S
H782 C794 0.959 . S
H783 C797 0.929 . S
H784 C798 0.931 . S
H785 C800 0.930 . S
C786 H774 0.930 . S
C786 C787 1.399 . S
C786 C791 1.399 . S
C787 C786 1.399 . S
C787 C788 1.376 . S
C788 H775 0.930 . S
C788 C787 1.376 . S
C788 C789 1.388 . S
C789 H776 0.930 . S
C789 C788 1.388 . S
C789 C790 1.390 . S
C790 C789 1.390 . S
C790 C791 1.394 . S
C790 C796 1.465 . S
C791 C786 1.399 . S
C791 C790 1.394 . S
C791 C792 1.516 . S
C792 C791 1.516 . S
C792 C793 1.502 . S
C792 C794 1.561 . S
C792 C795 1.526 . S
C793 H777 0.959 . S
C793 H778 0.959 . S
C793 H779 0.961 . S
C793 C792 1.502 . S
C794 H780 0.960 . S
C794 H781 0.961 . S
C794 H782 0.959 . S
C794 C792 1.561 . S
C795 C792 1.526 . S
C795 C796 1.396 . S
C795 C800 1.390 . S
C796 C790 1.465 . S
C796 C795 1.396 . S
C796 C797 1.399 1_655 S
C797 H783 0.929 . S
C797 C796 1.399 1_455 S
C797 C798 1.385 . S
C798 H784 0.931 . S
C798 C797 1.385 . S
C798 C799 1.389 . S
C799 C798 1.389 . S
C799 C800 1.387 1_455 S
C800 H785 0.930 . S
C800 C795 1.390 . S
C800 C799 1.387 1_655 S
H801 C813 0.930 . S
H802 C815 0.930 . S
H803 C816 0.930 . S
H804 C820 0.959 . S
H805 C820 0.959 . S
H806 C820 0.961 . S
H807 C821 0.960 . S
H808 C821 0.961 . S
H809 C821 0.959 . S
H810 C824 0.929 . S
H811 C825 0.931 . S
H812 C827 0.930 . S
C813 H801 0.930 . S
C813 C814 1.399 . S
C813 C818 1.399 . S
C814 C813 1.399 . S
C814 C815 1.376 . S
C815 H802 0.930 . S
C815 C814 1.376 . S
C815 C816 1.388 . S
C816 H803 0.930 . S
C816 C815 1.388 . S
C816 C817 1.390 . S
C817 C816 1.390 . S
C817 C818 1.394 . S
C817 C823 1.465 . S
C818 C813 1.399 . S
C818 C817 1.394 . S
C818 C819 1.516 . S
C819 C818 1.516 . S
C819 C820 1.502 . S
C819 C821 1.561 . S
C819 C822 1.526 . S
C820 H804 0.959 . S
C820 H805 0.959 . S
C820 H806 0.961 . S
C820 C819 1.502 . S
C821 H807 0.960 . S
C821 H808 0.961 . S
C821 H809 0.959 . S
C821 C819 1.561 . S
C822 C819 1.526 . S
C822 C823 1.396 . S
C822 C827 1.390 . S
C823 C817 1.465 . S
C823 C822 1.396 . S
C823 C824 1.399 . S
C824 H810 0.929 . S
C824 C823 1.399 . S
C824 C825 1.385 . S
C825 H811 0.931 . S
C825 C824 1.385 . S
C825 C826 1.389 . S
C826 C825 1.389 . S
C826 C827 1.387 . S
C827 H812 0.930 . S
C827 C822 1.390 . S
C827 C826 1.387 . S
H828 C840 0.930 . S
H829 C842 0.930 . S
H830 C843 0.930 . S
H831 C847 0.959 1_545 S
H832 C847 0.959 . S
H833 C847 0.961 . S
H834 C848 0.960 . S
H835 C848 0.961 . S
H836 C848 0.959 . S
H837 C851 0.929 . S
H838 C852 0.931 . S
H839 C854 0.930 . S
C840 H828 0.930 . S
C840 C841 1.399 . S
C840 C845 1.399 1_565 S
C841 C840 1.399 . S
C841 C842 1.376 1_565 S
C842 H829 0.930 . S
C842 C841 1.376 1_545 S
C842 C843 1.388 . S
C843 H830 0.930 . S
C843 C842 1.388 . S
C843 C844 1.390 . S
C844 C843 1.390 . S
C844 C845 1.394 . S
C844 C850 1.465 . S
C845 C840 1.399 1_545 S
C845 C844 1.394 . S
C845 C846 1.516 . S
C846 C845 1.516 . S
C846 C847 1.502 1_545 S
C846 C848 1.561 1_545 S
C846 C849 1.526 . S
C847 H831 0.959 1_565 S
C847 H832 0.959 . S
C847 H833 0.961 . S
C847 C846 1.502 1_565 S
C848 H834 0.960 . S
C848 H835 0.961 . S
C848 H836 0.959 . S
C848 C846 1.561 1_565 S
C849 C846 1.526 . S
C849 C850 1.396 . S
C849 C854 1.390 . S
C850 C844 1.465 . S
C850 C849 1.396 . S
C850 C851 1.399 . S
C851 H837 0.929 . S
C851 C850 1.399 . S
C851 C852 1.385 . S
C852 H838 0.931 . S
C852 C851 1.385 . S
C852 C853 1.389 . S
C853 C852 1.389 . S
C853 C854 1.387 . S
C854 H839 0.930 . S
C854 C849 1.390 . S
C854 C853 1.387 . S
H855 C867 0.930 . S
H856 C869 0.930 . S
H857 C870 0.930 . S
H858 C874 0.959 . S
H859 C874 0.959 . S
H860 C874 0.961 . S
H861 C875 0.960 1_554 S
H862 C875 0.961 . S
H863 C875 0.959 . S
H864 C878 0.929 . S
H865 C879 0.931 . S
H866 C881 0.930 . S
C867 H855 0.930 . S
C867 C868 1.399 . S
C867 C872 1.399 . S
C868 C867 1.399 . S
C868 C869 1.376 . S
C869 H856 0.930 . S
C869 C868 1.376 . S
C869 C870 1.388 . S
C870 H857 0.930 . S
C870 C869 1.388 . S
C870 C871 1.390 . S
C871 C870 1.390 . S
C871 C872 1.394 . S
C871 C877 1.465 1_554 S
C872 C867 1.399 . S
C872 C871 1.394 . S
C872 C873 1.516 . S
C873 C872 1.516 . S
C873 C874 1.502 . S
C873 C875 1.561 1_554 S
C873 C876 1.526 1_554 S
C874 H858 0.959 . S
C874 H859 0.959 . S
C874 H860 0.961 . S
C874 C873 1.502 . S
C875 H861 0.960 1_556 S
C875 H862 0.961 . S
C875 H863 0.959 . S
C875 C873 1.561 1_556 S
C876 C873 1.526 1_556 S
C876 C877 1.396 . S
C876 C881 1.390 . S
C877 C871 1.465 1_556 S
C877 C876 1.396 . S
C877 C878 1.399 . S
C878 H864 0.929 . S
C878 C877 1.399 . S
C878 C879 1.385 . S
C879 H865 0.931 . S
C879 C878 1.385 . S
C879 C880 1.389 . S
C880 C879 1.389 . S
C880 C881 1.387 . S
C881 H866 0.930 . S
C881 C876 1.390 . S
C881 C880 1.387 . S
H882 C894 0.930 . S
H883 C896 0.930 . S
H884 C897 0.930 1_556 S
H885 C901 0.959 . S
H886 C901 0.959 . S
H887 C901 0.961 . S
H888 C902 0.960 . S
H889 C902 0.961 . S
H890 C902 0.959 . S
H891 C905 0.929 . S
H892 C906 0.931 . S
H893 C908 0.930 . S
C894 H882 0.930 . S
C894 C895 1.399 . S
C894 C899 1.399 . S
C895 C894 1.399 . S
C895 C896 1.376 . S
C896 H883 0.930 . S
C896 C895 1.376 . S
C896 C897 1.388 . S
C897 H884 0.930 1_554 S
C897 C896 1.388 . S
C897 C898 1.390 . S
C898 C897 1.390 . S
C898 C899 1.394 . S
C898 C904 1.465 1_554 S
C899 C894 1.399 . S
C899 C898 1.394 . S
C899 C900 1.516 . S
C900 C899 1.516 . S
C900 C901 1.502 . S
C900 C902 1.561 . S
C900 C903 1.526 . S
C901 H885 0.959 . S
C901 H886 0.959 . S
C901 H887 0.961 . S
C901 C900 1.502 . S
C902 H888 0.960 . S
C902 H889 0.961 . S
C902 H890 0.959 . S
C902 C900 1.561 . S
C903 C900 1.526 . S
C903 C904 1.396 1_554 S
C903 C908 1.390 1_554 S
C904 C898 1.465 1_556 S
C904 C903 1.396 1_556 S
C904 C905 1.399 . S
C905 H891 0.929 . S
C905 C904 1.399 . S
C905 C906 1.385 . S
C906 H892 0.931 . S
C906 C905 1.385 . S
C906 C907 1.389 . S
C907 C906 1.389 . S
C907 C908 1.387 . S
C908 H893 0.930 . S
C908 C903 1.390 1_556 S
C908 C907 1.387 . S
H909 C921 0.930 . S
H910 C923 0.930 . S
H911 C924 0.930 . S
H912 C928 0.959 . S
H913 C928 0.959 . S
H914 C928 0.961 . S
H915 C929 0.960 . S
H916 C929 0.961 . S
H917 C929 0.959 . S
H918 C932 0.929 . S
H919 C933 0.931 . S
H920 C935 0.930 . S
C921 H909 0.930 . S
C921 C922 1.399 . S
C921 C926 1.399 . S
C922 C921 1.399 . S
C922 C923 1.376 . S
C923 H910 0.930 . S
C923 C922 1.376 . S
C923 C924 1.388 . S
C924 H911 0.930 . S
C924 C923 1.388 . S
C924 C925 1.390 . S
C925 C924 1.390 . S
C925 C926 1.394 . S
C925 C931 1.465 . S
C926 C921 1.399 . S
C926 C925 1.394 . S
C926 C927 1.516 1_554 S
C927 C926 1.516 1_556 S
C927 C928 1.502 . S
C927 C929 1.561 . S
C927 C930 1.526 . S
C928 H912 0.959 . S
C928 H913 0.959 . S
C928 H914 0.961 . S
C928 C927 1.502 . S
C929 H915 0.960 . S
C929 H916 0.961 . S
C929 H917 0.959 . S
C929 C927 1.561 . S
C930 C927 1.526 . S
C930 C931 1.396 1_556 S
C930 C935 1.390 . S
C931 C925 1.465 . S
C931 C930 1.396 1_554 S
C931 C932 1.399 . S
C932 H918 0.929 . S
C932 C931 1.399 . S
C932 C933 1.385 1_554 S
C933 H919 0.931 . S
C933 C932 1.385 1_556 S
C933 C934 1.389 . S
C934 C933 1.389 . S
C934 C935 1.387 . S
C935 H920 0.930 . S
C935 C930 1.390 . S
C935 C934 1.387 . S
H936 C948 0.930 . S
H937 C950 0.930 . S
H938 C951 0.930 . S
H939 C955 0.959 . S
H940 C955 0.959 . S
H941 C955 0.961 . S
H942 C956 0.960 . S
H943 C956 0.961 1_554 S
H944 C956 0.959 1_554 S
H945 C959 0.929 . S
H946 C960 0.931 . S
H947 C962 0.930 . S
C948 H936 0.930 . S
C948 C949 1.399 . S
C948 C953 1.399 . S
C949 C948 1.399 . S
C949 C950 1.376 . S
C950 H937 0.930 . S
C950 C949 1.376 . S
C950 C951 1.388 . S
C951 H938 0.930 . S
C951 C950 1.388 . S
C951 C952 1.390 . S
C952 C951 1.390 . S
C952 C953 1.394 . S
C952 C958 1.465 1_556 S
C953 C948 1.399 . S
C953 C952 1.394 . S
C953 C954 1.516 . S
C954 C953 1.516 . S
C954 C955 1.502 . S
C954 C956 1.561 . S
C954 C957 1.526 1_556 S
C955 H939 0.959 . S
C955 H940 0.959 . S
C955 H941 0.961 . S
C955 C954 1.502 . S
C956 H942 0.960 . S
C956 H943 0.961 1_556 S
C956 H944 0.959 1_556 S
C956 C954 1.561 . S
C957 C954 1.526 1_554 S
C957 C958 1.396 . S
C957 C962 1.390 . S
C958 C952 1.465 1_554 S
C958 C957 1.396 . S
C958 C959 1.399 . S
C959 H945 0.929 . S
C959 C958 1.399 . S
C959 C960 1.385 . S
C960 H946 0.931 . S
C960 C959 1.385 . S
C960 C961 1.389 . S
C961 C960 1.389 . S
C961 C962 1.387 . S
C962 H947 0.930 . S
C962 C957 1.390 . S
C962 C961 1.387 . S
H963 C975 0.930 . S
H964 C977 0.930 . S
H965 C978 0.930 1_554 S
H966 C982 0.959 . S
H967 C982 0.959 . S
H968 C982 0.961 . S
H969 C983 0.960 . S
H970 C983 0.961 . S
H971 C983 0.959 . S
H972 C986 0.929 . S
H973 C987 0.931 . S
H974 C989 0.935 . S
C975 H963 0.930 . S
C975 C976 1.399 . S
C975 C980 1.399 . S
C976 C975 1.399 . S
C976 C977 1.376 . S
C977 H964 0.930 . S
C977 C976 1.376 . S
C977 C978 1.388 . S
C978 H965 0.930 1_556 S
C978 C977 1.388 . S
C978 C979 1.390 . S
C979 C978 1.390 . S
C979 C980 1.394 . S
C979 C985 1.465 1_556 S
C980 C975 1.399 . S
C980 C979 1.394 . S
C980 C981 1.516 . S
C981 C980 1.516 . S
C981 C982 1.502 . S
C981 C983 1.561 . S
C981 C984 1.526 . S
C982 H966 0.959 . S
C982 H967 0.959 . S
C982 H968 0.961 . S
C982 C981 1.502 . S
C983 H969 0.960 . S
C983 H970 0.961 . S
C983 H971 0.959 . S
C983 C981 1.561 . S
C984 C981 1.526 . S
C984 C985 1.396 1_556 S
C984 C989 1.390 1_556 S
C985 C979 1.465 1_554 S
C985 C984 1.396 1_554 S
C985 C986 1.399 . S
C986 H972 0.929 . S
C986 C985 1.399 . S
C986 C987 1.385 . S
C987 H973 0.931 . S
C987 C986 1.385 . S
C987 C988 1.389 . S
C988 C987 1.389 . S
C988 C989 1.387 . S
C989 H974 0.935 . S
C989 C984 1.390 1_554 S
C989 C988 1.387 . S
H990 C1002 0.930 . S
H991 C1004 0.930 . S
H992 C1005 0.930 . S
H993 C1009 0.959 . S
H994 C1009 0.959 . S
H995 C1009 0.961 . S
H996 C1010 0.960 . S
H997 C1010 0.961 . S
H998 C1010 0.959 . S
H999 C1013 0.929 1_554 S
H1000 C1014 0.931 . S
H1001 C1016 0.930 . S
C1002 H990 0.930 . S
C1002 C1003 1.399 . S
C1002 C1007 1.399 1_554 S
C1003 C1002 1.399 . S
C1003 C1004 1.376 . S
C1004 H991 0.930 . S
C1004 C1003 1.376 . S
C1004 C1005 1.388 . S
C1005 H992 0.930 . S
C1005 C1004 1.388 . S
C1005 C1006 1.390 . S
C1006 C1005 1.390 . S
C1006 C1007 1.394 1_554 S
C1006 C1012 1.465 1_554 S
C1007 C1002 1.399 1_556 S
C1007 C1006 1.394 1_556 S
C1007 C1008 1.516 . S
C1008 C1007 1.516 . S
C1008 C1009 1.502 . S
C1008 C1010 1.561 . S
C1008 C1011 1.526 . S
C1009 H993 0.959 . S
C1009 H994 0.959 . S
C1009 H995 0.961 . S
C1009 C1008 1.502 . S
C1010 H996 0.960 . S
C1010 H997 0.961 . S
C1010 H998 0.959 . S
C1010 C1008 1.561 . S
C1011 C1008 1.526 . S
C1011 C1012 1.396 . S
C1011 C1016 1.390 . S
C1012 C1006 1.465 1_556 S
C1012 C1011 1.396 . S
C1012 C1013 1.399 . S
C1013 H999 0.929 1_556 S
C1013 C1012 1.399 . S
C1013 C1014 1.385 . S
C1014 H1000 0.931 . S
C1014 C1013 1.385 . S
C1014 C1015 1.389 . S
C1015 C1014 1.389 . S
C1015 C1016 1.387 . S
C1016 H1001 0.930 . S
C1016 C1011 1.390 . S
C1016 C1015 1.387 . S
H1017 C1029 0.930 . S
H1018 C1031 0.930 . S
H1019 C1032 0.930 . S
H1020 C1036 0.959 . S
H1021 C1036 0.959 . S
H1022 C1036 0.961 . S
H1023 C1037 0.960 . S
H1024 C1037 0.961 . S
H1025 C1037 0.959 . S
H1026 C1040 0.929 . S
H1027 C1041 0.931 . S
H1028 C1043 0.930 . S
C1029 H1017 0.930 . S
C1029 C1030 1.399 1_455 S
C1029 C1034 1.399 . S
C1030 C1029 1.399 1_655 S
C1030 C1031 1.376 . S
C1031 H1018 0.930 . S
C1031 C1030 1.376 . S
C1031 C1032 1.388 . S
C1032 H1019 0.930 . S
C1032 C1031 1.388 . S
C1032 C1033 1.390 1_655 S
C1033 C1032 1.390 1_455 S
C1033 C1034 1.394 . S
C1033 C1039 1.465 . S
C1034 C1029 1.399 . S
C1034 C1033 1.394 . S
C1034 C1035 1.516 . S
C1035 C1034 1.516 . S
C1035 C1036 1.502 . S
C1035 C1037 1.561 . S
C1035 C1038 1.526 . S
C1036 H1020 0.959 . S
C1036 H1021 0.959 . S
C1036 H1022 0.961 . S
C1036 C1035 1.502 . S
C1037 H1023 0.960 . S
C1037 H1024 0.961 . S
C1037 H1025 0.959 . S
C1037 C1035 1.561 . S
C1038 C1035 1.526 . S
C1038 C1039 1.396 . S
C1038 C1043 1.390 . S
C1039 C1033 1.465 . S
C1039 C1038 1.396 . S
C1039 C1040 1.399 . S
C1040 H1026 0.929 . S
C1040 C1039 1.399 . S
C1040 C1041 1.385 . S
C1041 H1027 0.931 . S
C1041 C1040 1.385 . S
C1041 C1042 1.389 . S
C1042 C1041 1.389 . S
C1042 C1043 1.387 . S
C1043 H1028 0.930 . S
C1043 C1038 1.390 . S
C1043 C1042 1.387 . S
H1044 C1056 0.930 . S
H1045 C1058 0.930 . S
H1046 C1059 0.930 . S
H1047 C1063 0.959 . S
H1048 C1063 0.959 . S
H1049 C1063 0.961 . S
H1050 C1064 0.960 . S
H1051 C1064 0.961 . S
H1052 C1064 0.959 . S
H1053 C1067 0.929 . S
H1054 C1068 0.931 . S
H1055 C1070 0.930 . S
C1056 H1044 0.930 . S
C1056 C1057 1.399 . S
C1056 C1061 1.399 . S
C1057 C1056 1.399 . S
C1057 C1058 1.376 . S
C1058 H1045 0.930 . S
C1058 C1057 1.376 . S
C1058 C1059 1.388 . S
C1059 H1046 0.930 . S
C1059 C1058 1.388 . S
C1059 C1060 1.390 . S
C1060 C1059 1.390 . S
C1060 C1061 1.394 . S
C1060 C1066 1.465 . S
C1061 C1056 1.399 . S
C1061 C1060 1.394 . S
C1061 C1062 1.516 . S
C1062 C1061 1.516 . S
C1062 C1063 1.502 . S
C1062 C1064 1.561 . S
C1062 C1065 1.526 . S
C1063 H1047 0.959 . S
C1063 H1048 0.959 . S
C1063 H1049 0.961 . S
C1063 C1062 1.502 . S
C1064 H1050 0.960 . S
C1064 H1051 0.961 . S
C1064 H1052 0.959 . S
C1064 C1062 1.561 . S
C1065 C1062 1.526 . S
C1065 C1066 1.396 . S
C1065 C1070 1.390 . S
C1066 C1060 1.465 . S
C1066 C1065 1.396 . S
C1066 C1067 1.399 . S
C1067 H1053 0.929 . S
C1067 C1066 1.399 . S
C1067 C1068 1.385 . S
C1068 H1054 0.931 . S
C1068 C1067 1.385 . S
C1068 C1069 1.389 . S
C1069 C1068 1.389 . S
C1069 C1070 1.387 . S
C1070 H1055 0.930 . S
C1070 C1065 1.390 . S
C1070 C1069 1.387 . S
H1071 C1083 0.930 . S
H1072 C1085 0.930 . S
H1073 C1086 0.930 . S
H1074 C1090 0.959 1_545 S
H1075 C1090 0.959 1_545 S
H1076 C1090 0.961 . S
H1077 C1091 0.960 . S
H1078 C1091 0.961 . S
H1079 C1091 0.959 . S
H1080 C1094 0.929 . S
H1081 C1095 0.931 . S
H1082 C1097 0.930 . S
C1083 H1071 0.930 . S
C1083 C1084 1.399 . S
C1083 C1088 1.399 . S
C1084 C1083 1.399 . S
C1084 C1085 1.376 . S
C1085 H1072 0.930 . S
C1085 C1084 1.376 . S
C1085 C1086 1.388 . S
C1086 H1073 0.930 . S
C1086 C1085 1.388 . S
C1086 C1087 1.390 . S
C1087 C1086 1.390 . S
C1087 C1088 1.394 . S
C1087 C1093 1.465 . S
C1088 C1083 1.399 . S
C1088 C1087 1.394 . S
C1088 C1089 1.516 . S
C1089 C1088 1.516 . S
C1089 C1090 1.502 . S
C1089 C1091 1.561 . S
C1089 C1092 1.526 . S
C1090 H1074 0.959 1_565 S
C1090 H1075 0.959 1_565 S
C1090 H1076 0.961 . S
C1090 C1089 1.502 . S
C1091 H1077 0.960 . S
C1091 H1078 0.961 . S
C1091 H1079 0.959 . S
C1091 C1089 1.561 . S
C1092 C1089 1.526 . S
C1092 C1093 1.396 . S
C1092 C1097 1.390 1_565 S
C1093 C1087 1.465 . S
C1093 C1092 1.396 . S
C1093 C1094 1.399 . S
C1094 H1080 0.929 . S
C1094 C1093 1.399 . S
C1094 C1095 1.385 1_565 S
C1095 H1081 0.931 . S
C1095 C1094 1.385 1_545 S
C1095 C1096 1.389 . S
C1096 C1095 1.389 . S
C1096 C1097 1.387 . S
C1097 H1082 0.930 . S
C1097 C1092 1.390 1_545 S
C1097 C1096 1.387 . S
H1098 C1110 0.930 . S
H1099 C1112 0.930 . S
H1100 C1113 0.930 . S
H1101 C1117 0.959 . S
H1102 C1117 0.959 . S
H1103 C1117 0.961 . S
H1104 C1118 0.960 . S
H1105 C1118 0.961 . S
H1106 C1118 0.959 . S
H1107 C1121 0.929 . S
H1108 C1122 0.931 . S
H1109 C1124 0.930 . S
C1110 H1098 0.930 . S
C1110 C1111 1.399 . S
C1110 C1115 1.399 . S
C1111 C1110 1.399 . S
C1111 C1112 1.376 . S
C1112 H1099 0.930 . S
C1112 C1111 1.376 . S
C1112 C1113 1.388 . S
C1113 H1100 0.930 . S
C1113 C1112 1.388 . S
C1113 C1114 1.390 . S
C1114 C1113 1.390 . S
C1114 C1115 1.394 . S
C1114 C1120 1.465 . S
C1115 C1110 1.399 . S
C1115 C1114 1.394 . S
C1115 C1116 1.516 . S
C1116 C1115 1.516 . S
C1116 C1117 1.502 . S
C1116 C1118 1.561 . S
C1116 C1119 1.526 . S
C1117 H1101 0.959 . S
C1117 H1102 0.959 . S
C1117 H1103 0.961 . S
C1117 C1116 1.502 . S
C1118 H1104 0.960 . S
C1118 H1105 0.961 . S
C1118 H1106 0.959 . S
C1118 C1116 1.561 . S
C1119 C1116 1.526 . S
C1119 C1120 1.396 . S
C1119 C1124 1.390 . S
C1120 C1114 1.465 . S
C1120 C1119 1.396 . S
C1120 C1121 1.399 . S
C1121 H1107 0.929 . S
C1121 C1120 1.399 . S
C1121 C1122 1.385 . S
C1122 H1108 0.931 . S
C1122 C1121 1.385 . S
C1122 C1123 1.389 . S
C1123 C1122 1.389 . S
C1123 C1124 1.387 . S
C1124 H1109 0.930 . S
C1124 C1119 1.390 . S
C1124 C1123 1.387 . S
H1125 C1137 0.930 . S
H1126 C1139 0.930 . S
H1127 C1140 0.930 . S
H1128 C1144 0.959 . S
H1129 C1144 0.959 . S
H1130 C1144 0.961 . S
H1131 C1145 0.960 . S
H1132 C1145 0.961 . S
H1133 C1145 0.959 . S
H1134 C1148 0.929 . S
H1135 C1149 0.931 . S
H1136 C1151 0.930 . S
C1137 H1125 0.930 . S
C1137 C1138 1.399 . S
C1137 C1142 1.399 . S
C1138 C1137 1.399 . S
C1138 C1139 1.376 . S
C1139 H1126 0.930 . S
C1139 C1138 1.376 . S
C1139 C1140 1.388 . S
C1140 H1127 0.930 . S
C1140 C1139 1.388 . S
C1140 C1141 1.390 . S
C1141 C1140 1.390 . S
C1141 C1142 1.394 . S
C1141 C1147 1.465 . S
C1142 C1137 1.399 . S
C1142 C1141 1.394 . S
C1142 C1143 1.516 . S
C1143 C1142 1.516 . S
C1143 C1144 1.502 . S
C1143 C1145 1.561 . S
C1143 C1146 1.526 . S
C1144 H1128 0.959 . S
C1144 H1129 0.959 . S
C1144 H1130 0.961 . S
C1144 C1143 1.502 . S
C1145 H1131 0.960 . S
C1145 H1132 0.961 . S
C1145 H1133 0.959 . S
C1145 C1143 1.561 . S
C1146 C1143 1.526 . S
C1146 C1147 1.396 . S
C1146 C1151 1.390 . S
C1147 C1141 1.465 . S
C1147 C1146 1.396 . S
C1147 C1148 1.399 . S
C1148 H1134 0.929 . S
C1148 C1147 1.399 . S
C1148 C1149 1.385 . S
C1149 H1135 0.931 . S
C1149 C1148 1.385 . S
C1149 C1150 1.389 . S
C1150 C1149 1.389 . S
C1150 C1151 1.387 . S
C1151 H1136 0.930 . S
C1151 C1146 1.390 . S
C1151 C1150 1.387 . S
H1152 C1164 0.930 . S
H1153 C1166 0.930 . S
H1154 C1167 0.930 . S
H1155 C1171 0.959 . S
H1156 C1171 0.959 . S
H1157 C1171 0.961 . S
H1158 C1172 0.960 . S
H1159 C1172 0.961 . S
H1160 C1172 0.959 . S
H1161 C1175 0.929 . S
H1162 C1176 0.931 . S
H1163 C1178 0.930 . S
C1164 H1152 0.930 . S
C1164 C1165 1.399 . S
C1164 C1169 1.399 . S
C1165 C1164 1.399 . S
C1165 C1166 1.376 . S
C1166 H1153 0.930 . S
C1166 C1165 1.376 . S
C1166 C1167 1.388 . S
C1167 H1154 0.930 . S
C1167 C1166 1.388 . S
C1167 C1168 1.390 . S
C1168 C1167 1.390 . S
C1168 C1169 1.394 . S
C1168 C1174 1.465 . S
C1169 C1164 1.399 . S
C1169 C1168 1.394 . S
C1169 C1170 1.516 . S
C1170 C1169 1.516 . S
C1170 C1171 1.502 . S
C1170 C1172 1.561 . S
C1170 C1173 1.526 . S
C1171 H1155 0.959 . S
C1171 H1156 0.959 . S
C1171 H1157 0.961 . S
C1171 C1170 1.502 . S
C1172 H1158 0.960 . S
C1172 H1159 0.961 . S
C1172 H1160 0.959 . S
C1172 C1170 1.561 . S
C1173 C1170 1.526 . S
C1173 C1174 1.396 . S
C1173 C1178 1.390 . S
C1174 C1168 1.465 . S
C1174 C1173 1.396 . S
C1174 C1175 1.399 . S
C1175 H1161 0.929 . S
C1175 C1174 1.399 . S
C1175 C1176 1.385 . S
C1176 H1162 0.931 . S
C1176 C1175 1.385 . S
C1176 C1177 1.389 . S
C1177 C1176 1.389 . S
C1177 C1178 1.387 . S
C1178 H1163 0.930 . S
C1178 C1173 1.390 . S
C1178 C1177 1.387 . S
H1179 C1191 0.930 . S
H1180 C1193 0.930 . S
H1181 C1194 0.930 . S
H1182 C1198 0.959 . S
H1183 C1198 0.959 . S
H1184 C1198 0.961 . S
H1185 C1199 0.960 . S
H1186 C1199 0.961 . S
H1187 C1199 0.959 . S
H1188 C1202 0.929 . S
H1189 C1203 0.931 . S
H1190 C1205 0.930 . S
C1191 H1179 0.930 . S
C1191 C1192 1.399 . S
C1191 C1196 1.399 . S
C1192 C1191 1.399 . S
C1192 C1193 1.376 . S
C1193 H1180 0.930 . S
C1193 C1192 1.376 . S
C1193 C1194 1.388 . S
C1194 H1181 0.930 . S
C1194 C1193 1.388 . S
C1194 C1195 1.390 . S
C1195 C1194 1.390 . S
C1195 C1196 1.394 . S
C1195 C1201 1.465 . S
C1196 C1191 1.399 . S
C1196 C1195 1.394 . S
C1196 C1197 1.516 . S
C1197 C1196 1.516 . S
C1197 C1198 1.502 . S
C1197 C1199 1.561 . S
C1197 C1200 1.526 . S
C1198 H1182 0.959 . S
C1198 H1183 0.959 . S
C1198 H1184 0.961 . S
C1198 C1197 1.502 . S
C1199 H1185 0.960 . S
C1199 H1186 0.961 . S
C1199 H1187 0.959 . S
C1199 C1197 1.561 . S
C1200 C1197 1.526 . S
C1200 C1201 1.396 . S
C1200 C1205 1.390 . S
C1201 C1195 1.465 . S
C1201 C1200 1.396 . S
C1201 C1202 1.399 . S
C1202 H1188 0.929 . S
C1202 C1201 1.399 . S
C1202 C1203 1.385 . S
C1203 H1189 0.931 . S
C1203 C1202 1.385 . S
C1203 C1204 1.389 . S
C1204 C1203 1.389 . S
C1204 C1205 1.387 . S
C1205 H1190 0.930 . S
C1205 C1200 1.390 . S
C1205 C1204 1.387 . S
H1206 C1218 0.930 . S
H1207 C1220 0.930 . S
H1208 C1221 0.930 . S
H1209 C1225 0.959 . S
H1210 C1225 0.959 . S
H1211 C1225 0.961 . S
H1212 C1226 0.960 . S
H1213 C1226 0.961 . S
H1214 C1226 0.959 . S
H1215 C1229 0.929 . S
H1216 C1230 0.931 . S
H1217 C1232 0.930 . S
C1218 H1206 0.930 . S
C1218 C1219 1.399 . S
C1218 C1223 1.399 . S
C1219 C1218 1.399 . S
C1219 C1220 1.376 . S
C1220 H1207 0.930 . S
C1220 C1219 1.376 . S
C1220 C1221 1.388 . S
C1221 H1208 0.930 . S
C1221 C1220 1.388 . S
C1221 C1222 1.390 . S
C1222 C1221 1.390 . S
C1222 C1223 1.394 . S
C1222 C1228 1.465 . S
C1223 C1218 1.399 . S
C1223 C1222 1.394 . S
C1223 C1224 1.516 . S
C1224 C1223 1.516 . S
C1224 C1225 1.502 . S
C1224 C1226 1.561 . S
C1224 C1227 1.526 . S
C1225 H1209 0.959 . S
C1225 H1210 0.959 . S
C1225 H1211 0.961 . S
C1225 C1224 1.502 . S
C1226 H1212 0.960 . S
C1226 H1213 0.961 . S
C1226 H1214 0.959 . S
C1226 C1224 1.561 . S
C1227 C1224 1.526 . S
C1227 C1228 1.396 . S
C1227 C1232 1.390 . S
C1228 C1222 1.465 . S
C1228 C1227 1.396 . S
C1228 C1229 1.399 . S
C1229 H1215 0.929 . S
C1229 C1228 1.399 . S
C1229 C1230 1.385 . S
C1230 H1216 0.931 . S
C1230 C1229 1.385 . S
C1230 C1231 1.389 . S
C1231 C1230 1.389 . S
C1231 C1232 1.387 . S
C1232 H1217 0.930 . S
C1232 C1227 1.390 . S
C1232 C1231 1.387 . S
H1233 C1245 0.930 . S
H1234 C1247 0.930 . S
H1235 C1248 0.930 . S
H1236 C1252 0.959 . S
H1237 C1252 0.959 . S
H1238 C1252 0.961 . S
H1239 C1253 0.960 . S
H1240 C1253 0.961 . S
H1241 C1253 0.959 . S
H1242 C1256 0.929 . S
H1243 C1257 0.931 . S
H1244 C1259 0.930 . S
C1245 H1233 0.930 . S
C1245 C1246 1.399 . S
C1245 C1250 1.399 . S
C1246 C1245 1.399 . S
C1246 C1247 1.376 . S
C1247 H1234 0.930 . S
C1247 C1246 1.376 . S
C1247 C1248 1.388 . S
C1248 H1235 0.930 . S
C1248 C1247 1.388 . S
C1248 C1249 1.390 . S
C1249 C1248 1.390 . S
C1249 C1250 1.394 . S
C1249 C1255 1.465 . S
C1250 C1245 1.399 . S
C1250 C1249 1.394 . S
C1250 C1251 1.516 . S
C1251 C1250 1.516 . S
C1251 C1252 1.502 . S
C1251 C1253 1.561 . S
C1251 C1254 1.526 . S
C1252 H1236 0.959 . S
C1252 H1237 0.959 . S
C1252 H1238 0.961 . S
C1252 C1251 1.502 . S
C1253 H1239 0.960 . S
C1253 H1240 0.961 . S
C1253 H1241 0.959 . S
C1253 C1251 1.561 . S
C1254 C1251 1.526 . S
C1254 C1255 1.396 . S
C1254 C1259 1.390 . S
C1255 C1249 1.465 . S
C1255 C1254 1.396 . S
C1255 C1256 1.399 . S
C1256 H1242 0.929 . S
C1256 C1255 1.399 . S
C1256 C1257 1.385 . S
C1257 H1243 0.931 . S
C1257 C1256 1.385 . S
C1257 C1258 1.389 . S
C1258 C1257 1.389 . S
C1258 C1259 1.387 . S
C1259 H1244 0.930 . S
C1259 C1254 1.390 . S
C1259 C1258 1.387 . S
H1260 C1272 0.930 . S
H1261 C1274 0.930 . S
H1262 C1275 0.919 1_556 S
H1263 C1279 0.959 . S
H1264 C1279 0.959 . S
H1265 C1279 0.961 . S
H1266 C1280 0.960 . S
H1267 C1280 0.961 . S
H1268 C1280 0.959 . S
H1269 C1283 0.929 . S
H1270 C1284 0.931 . S
H1271 C1286 0.930 . S
C1272 H1260 0.930 . S
C1272 C1273 1.399 . S
C1272 C1277 1.399 . S
C1273 C1272 1.399 . S
C1273 C1274 1.376 . S
C1274 H1261 0.930 . S
C1274 C1273 1.376 . S
C1274 C1275 1.399 . S
C1275 H1262 0.919 1_554 S
C1275 C1274 1.399 . S
C1275 C1276 1.390 . S
C1276 C1275 1.390 . S
C1276 C1277 1.394 . S
C1276 C1282 1.465 1_554 S
C1277 C1272 1.399 . S
C1277 C1276 1.394 . S
C1277 C1278 1.516 1_545 S
C1278 C1277 1.516 1_565 S
C1278 C1279 1.502 . S
C1278 C1280 1.561 . S
C1278 C1281 1.526 1_554 S
C1279 H1263 0.959 . S
C1279 H1264 0.959 . S
C1279 H1265 0.961 . S
C1279 C1278 1.502 . S
C1280 H1266 0.960 . S
C1280 H1267 0.961 . S
C1280 H1268 0.959 . S
C1280 C1278 1.561 . S
C1281 C1278 1.526 1_556 S
C1281 C1282 1.396 1_565 S
C1281 C1286 1.390 . S
C1282 C1276 1.465 1_556 S
C1282 C1281 1.396 1_545 S
C1282 C1283 1.399 . S
C1283 H1269 0.929 . S
C1283 C1282 1.399 . S
C1283 C1284 1.385 1_545 S
C1284 H1270 0.931 . S
C1284 C1283 1.385 1_565 S
C1284 C1285 1.389 . S
C1285 C1284 1.389 . S
C1285 C1286 1.387 . S
C1286 H1271 0.930 . S
C1286 C1281 1.390 . S
C1286 C1285 1.387 . S
H1287 C1299 0.930 . S
H1288 C1301 0.930 . S
H1289 C1302 0.930 1_554 S
H1290 C1306 0.959 . S
H1291 C1306 0.959 . S
H1292 C1306 0.961 . S
H1293 C1307 0.960 . S
H1294 C1307 0.961 . S
H1295 C1307 0.959 . S
H1296 C1310 0.929 . S
H1297 C1311 0.931 . S
H1298 C1313 0.930 . S
C1299 H1287 0.930 . S
C1299 C1300 1.399 . S
C1299 C1304 1.399 . S
C1300 C1299 1.399 . S
C1300 C1301 1.376 . S
C1301 H1288 0.930 . S
C1301 C1300 1.376 . S
C1301 C1302 1.388 . S
C1302 H1289 0.930 1_556 S
C1302 C1301 1.388 . S
C1302 C1303 1.390 . S
C1303 C1302 1.390 . S
C1303 C1304 1.394 . S
C1303 C1309 1.465 1_556 S
C1304 C1299 1.399 . S
C1304 C1303 1.394 . S
C1304 C1305 1.516 1_455 S
C1305 C1304 1.516 1_655 S
C1305 C1306 1.502 . S
C1305 C1307 1.561 . S
C1305 C1308 1.526 1_556 S
C1306 H1290 0.959 . S
C1306 H1291 0.959 . S
C1306 H1292 0.961 . S
C1306 C1305 1.502 . S
C1307 H1293 0.960 . S
C1307 H1294 0.961 . S
C1307 H1295 0.959 . S
C1307 C1305 1.561 . S
C1308 C1305 1.526 1_554 S
C1308 C1309 1.396 1_655 S
C1308 C1313 1.390 . S
C1309 C1303 1.465 1_554 S
C1309 C1308 1.396 1_455 S
C1309 C1310 1.399 . S
C1310 H1296 0.929 . S
C1310 C1309 1.399 . S
C1310 C1311 1.385 1_455 S
C1311 H1297 0.931 . S
C1311 C1310 1.385 1_655 S
C1311 C1312 1.389 . S
C1312 C1311 1.389 . S
C1312 C1313 1.387 . S
C1313 H1298 0.930 . S
C1313 C1308 1.390 . S
C1313 C1312 1.387 . S
H1314 C1326 0.930 . S
H1315 C1328 0.930 . S
H1316 C1329 0.930 . S
H1317 C1333 0.959 . S
H1318 C1333 0.959 . S
H1319 C1333 0.961 . S
H1320 C1334 0.960 1_556 S
H1321 C1334 0.961 . S
H1322 C1334 0.959 . S
H1323 C1337 0.929 . S
H1324 C1338 0.931 . S
H1325 C1340 0.930 . S
C1326 H1314 0.930 . S
C1326 C1327 1.399 . S
C1326 C1331 1.399 . S
C1327 C1326 1.399 . S
C1327 C1328 1.376 . S
C1328 H1315 0.930 . S
C1328 C1327 1.376 . S
C1328 C1329 1.388 . S
C1329 H1316 0.930 . S
C1329 C1328 1.388 . S
C1329 C1330 1.390 . S
C1330 C1329 1.390 . S
C1330 C1331 1.394 . S
C1330 C1336 1.465 1_556 S
C1331 C1326 1.399 . S
C1331 C1330 1.394 . S
C1331 C1332 1.516 . S
C1332 C1331 1.516 . S
C1332 C1333 1.502 . S
C1332 C1334 1.561 1_556 S
C1332 C1335 1.526 1_556 S
C1333 H1317 0.959 . S
C1333 H1318 0.959 . S
C1333 H1319 0.961 . S
C1333 C1332 1.502 . S
C1334 H1320 0.960 1_554 S
C1334 H1321 0.961 . S
C1334 H1322 0.959 . S
C1334 C1332 1.561 1_554 S
C1335 C1332 1.526 1_554 S
C1335 C1336 1.396 . S
C1335 C1340 1.390 . S
C1336 C1330 1.465 1_554 S
C1336 C1335 1.396 . S
C1336 C1337 1.399 . S
C1337 H1323 0.929 . S
C1337 C1336 1.399 . S
C1337 C1338 1.385 . S
C1338 H1324 0.931 . S
C1338 C1337 1.385 . S
C1338 C1339 1.389 . S
C1339 C1338 1.389 . S
C1339 C1340 1.387 . S
C1340 H1325 0.930 . S
C1340 C1335 1.390 . S
C1340 C1339 1.387 . S
H1341 C1353 0.930 . S
H1342 C1355 0.930 . S
H1343 C1356 0.930 1_556 S
H1344 C1360 0.959 . S
H1345 C1360 0.959 . S
H1346 C1360 0.961 . S
H1347 C1361 0.960 . S
H1348 C1361 0.961 . S
H1349 C1361 0.959 . S
H1350 C1364 0.929 . S
H1351 C1365 0.931 . S
H1352 C1367 0.930 . S
C1353 H1341 0.930 . S
C1353 C1354 1.399 . S
C1353 C1358 1.399 . S
C1354 C1353 1.399 . S
C1354 C1355 1.376 . S
C1355 H1342 0.930 . S
C1355 C1354 1.376 . S
C1355 C1356 1.388 . S
C1356 H1343 0.930 1_554 S
C1356 C1355 1.388 . S
C1356 C1357 1.390 . S
C1357 C1356 1.390 . S
C1357 C1358 1.394 . S
C1357 C1363 1.465 1_554 S
C1358 C1353 1.399 . S
C1358 C1357 1.394 . S
C1358 C1359 1.516 . S
C1359 C1358 1.516 . S
C1359 C1360 1.502 . S
C1359 C1361 1.561 . S
C1359 C1362 1.526 . S
C1360 H1344 0.959 . S
C1360 H1345 0.959 . S
C1360 H1346 0.961 . S
C1360 C1359 1.502 . S
C1361 H1347 0.960 . S
C1361 H1348 0.961 . S
C1361 H1349 0.959 . S
C1361 C1359 1.561 . S
C1362 C1359 1.526 . S
C1362 C1363 1.396 1_554 S
C1362 C1367 1.390 . S
C1363 C1357 1.465 1_556 S
C1363 C1362 1.396 1_556 S
C1363 C1364 1.399 . S
C1364 H1350 0.929 . S
C1364 C1363 1.399 . S
C1364 C1365 1.385 . S
C1365 H1351 0.931 . S
C1365 C1364 1.385 . S
C1365 C1366 1.389 . S
C1366 C1365 1.389 . S
C1366 C1367 1.387 1_556 S
C1367 H1352 0.930 . S
C1367 C1362 1.390 . S
C1367 C1366 1.387 1_554 S
H1368 C1380 0.930 . S
H1369 C1382 0.930 . S
H1370 C1383 0.930 . S
H1371 C1387 0.959 . S
H1372 C1387 0.959 . S
H1373 C1387 0.961 . S
H1374 C1388 0.960 . S
H1375 C1388 0.961 . S
H1376 C1388 0.959 . S
H1377 C1391 0.929 . S
H1378 C1392 0.924 1_565 S
H1379 C1394 0.930 . S
C1380 H1368 0.930 . S
C1380 C1381 1.399 . S
C1380 C1385 1.399 . S
C1381 C1380 1.399 . S
C1381 C1382 1.376 1_556 S
C1382 H1369 0.930 . S
C1382 C1381 1.376 1_554 S
C1382 C1383 1.388 . S
C1383 H1370 0.930 . S
C1383 C1382 1.388 . S
C1383 C1384 1.390 . S
C1384 C1383 1.390 . S
C1384 C1385 1.394 1_554 S
C1384 C1390 1.465 . S
C1385 C1380 1.399 . S
C1385 C1384 1.394 1_556 S
C1385 C1386 1.516 . S
C1386 C1385 1.516 . S
C1386 C1387 1.502 . S
C1386 C1388 1.561 . S
C1386 C1389 1.526 1_556 S
C1387 H1371 0.959 . S
C1387 H1372 0.959 . S
C1387 H1373 0.961 . S
C1387 C1386 1.502 . S
C1388 H1374 0.960 . S
C1388 H1375 0.961 . S
C1388 H1376 0.959 . S
C1388 C1386 1.561 . S
C1389 C1386 1.526 1_554 S
C1389 C1390 1.396 . S
C1389 C1394 1.390 1_545 S
C1390 C1384 1.465 . S
C1390 C1389 1.396 . S
C1390 C1391 1.399 . S
C1391 H1377 0.929 . S
C1391 C1390 1.399 . S
C1391 C1392 1.385 . S
C1392 H1378 0.924 1_545 S
C1392 C1391 1.385 . S
C1392 C1393 1.389 1_545 S
C1393 C1392 1.389 1_565 S
C1393 C1394 1.387 . S
C1394 H1379 0.930 . S
C1394 C1389 1.390 1_565 S
C1394 C1393 1.387 . S
H1395 C1407 0.930 . S
H1396 C1409 0.890 1_455 S
H1397 C1410 0.930 . S
H1398 C1414 0.959 . S
H1399 C1414 0.959 . S
H1400 C1414 0.961 . S
H1401 C1415 0.960 . S
H1402 C1415 0.961 . S
H1403 C1415 0.959 . S
H1404 C1418 0.929 . S
H1405 C1419 0.931 . S
H1406 C1421 0.930 . S
C1407 H1395 0.930 . S
C1407 C1408 1.443 . S
C1407 C1412 1.358 1_455 S
C1408 C1407 1.443 . S
C1408 C1409 1.379 1_455 S
C1409 H1396 0.890 1_655 S
C1409 C1408 1.379 1_655 S
C1409 C1410 1.428 . S
C1410 H1397 0.930 . S
C1410 C1409 1.428 . S
C1410 C1411 1.390 . S
C1411 C1410 1.390 . S
C1411 C1412 1.394 . S
C1411 C1417 1.465 . S
C1412 C1407 1.358 1_655 S
C1412 C1411 1.394 . S
C1412 C1413 1.516 . S
C1413 C1412 1.516 . S
C1413 C1414 1.502 . S
C1413 C1415 1.561 1_554 S
C1413 C1416 1.526 1_554 S
C1414 H1398 0.959 . S
C1414 H1399 0.959 . S
C1414 H1400 0.961 . S
C1414 C1413 1.502 . S
C1415 H1401 0.960 . S
C1415 H1402 0.961 . S
C1415 H1403 0.959 . S
C1415 C1413 1.561 1_556 S
C1416 C1413 1.526 1_556 S
C1416 C1417 1.396 1_556 S
C1416 C1421 1.389 . S
C1417 C1411 1.465 . S
C1417 C1416 1.396 1_554 S
C1417 C1418 1.399 1_554 S
C1418 H1404 0.929 . S
C1418 C1417 1.399 1_556 S
C1418 C1419 1.385 . S
C1419 H1405 0.931 . S
C1419 C1418 1.385 . S
C1419 C1420 1.389 . S
C1420 C1419 1.389 . S
C1420 C1421 1.387 . S
C1421 H1406 0.930 . S
C1421 C1416 1.389 . S
C1421 C1420 1.387 . S
H1422 C1434 0.930 . S
H1423 C1436 0.930 . S
H1424 C1437 0.930 . S
H1425 C1441 0.959 . S
H1426 C1441 0.959 . S
H1427 C1441 0.961 . S
H1428 C1442 0.960 . S
H1429 C1442 0.961 . S
H1430 C1442 0.959 . S
H1431 C1445 0.929 . S
H1432 C1446 0.931 . S
H1433 C1448 0.930 . S
C1434 H1422 0.930 . S
C1434 C1435 1.399 1_556 S
C1434 C1439 1.399 . S
C1435 C1434 1.399 1_554 S
C1435 C1436 1.376 . S
C1436 H1423 0.930 . S
C1436 C1435 1.376 . S
C1436 C1437 1.388 . S
C1437 H1424 0.930 . S
C1437 C1436 1.388 . S
C1437 C1438 1.390 . S
C1438 C1437 1.390 . S
C1438 C1439 1.394 1_554 S
C1438 C1444 1.465 1_554 S
C1439 C1434 1.399 . S
C1439 C1438 1.394 1_556 S
C1439 C1440 1.516 . S
C1440 C1439 1.516 . S
C1440 C1441 1.502 . S
C1440 C1442 1.561 . S
C1440 C1443 1.526 . S
C1441 H1425 0.959 . S
C1441 H1426 0.959 . S
C1441 H1427 0.961 . S
C1441 C1440 1.502 . S
C1442 H1428 0.960 . S
C1442 H1429 0.961 . S
C1442 H1430 0.959 . S
C1442 C1440 1.561 . S
C1443 C1440 1.526 . S
C1443 C1444 1.396 . S
C1443 C1448 1.390 . S
C1444 C1438 1.465 1_556 S
C1444 C1443 1.396 . S
C1444 C1445 1.399 1_556 S
C1445 H1431 0.929 . S
C1445 C1444 1.399 1_554 S
C1445 C1446 1.385 1_554 S
C1446 H1432 0.931 . S
C1446 C1445 1.385 1_556 S
C1446 C1447 1.389 . S
C1447 C1446 1.389 . S
C1447 C1448 1.387 . S
C1448 H1433 0.930 . S
C1448 C1443 1.390 . S
C1448 C1447 1.387 . S
H1449 C1461 0.930 . S
H1450 C1463 0.930 1_545 S
H1451 C1464 0.930 . S
H1452 C1468 0.959 . S
H1453 C1468 0.959 . S
H1454 C1468 0.961 . S
H1455 C1469 0.960 . S
H1456 C1469 0.961 . S
H1457 C1469 0.959 . S
H1458 C1472 0.929 . S
H1459 C1473 0.931 . S
H1460 C1475 0.930 . S
C1461 H1449 0.930 . S
C1461 C1462 1.399 . S
C1461 C1466 1.399 1_545 S
C1462 C1461 1.399 . S
C1462 C1463 1.376 1_545 S
C1463 H1450 0.930 1_565 S
C1463 C1462 1.376 1_565 S
C1463 C1464 1.388 . S
C1464 H1451 0.930 . S
C1464 C1463 1.388 . S
C1464 C1465 1.390 . S
C1465 C1464 1.390 . S
C1465 C1466 1.394 . S
C1465 C1471 1.465 . S
C1466 C1461 1.399 1_565 S
C1466 C1465 1.394 . S
C1466 C1467 1.516 1_556 S
C1467 C1466 1.516 1_554 S
C1467 C1468 1.502 . S
C1467 C1469 1.561 . S
C1467 C1470 1.526 . S
C1468 H1452 0.959 . S
C1468 H1453 0.959 . S
C1468 H1454 0.961 . S
C1468 C1467 1.502 . S
C1469 H1455 0.960 . S
C1469 H1456 0.961 . S
C1469 H1457 0.959 . S
C1469 C1467 1.561 . S
C1470 C1467 1.526 . S
C1470 C1471 1.396 1_554 S
C1470 C1475 1.390 . S
C1471 C1465 1.465 . S
C1471 C1470 1.396 1_556 S
C1471 C1472 1.399 . S
C1472 H1458 0.929 . S
C1472 C1471 1.399 . S
C1472 C1473 1.385 . S
C1473 H1459 0.931 . S
C1473 C1472 1.385 . S
C1473 C1474 1.389 1_556 S
C1474 C1473 1.389 1_554 S
C1474 C1475 1.387 . S
C1475 H1460 0.930 . S
C1475 C1470 1.390 . S
C1475 C1474 1.387 . S
H1476 C1488 0.930 . S
H1477 C1490 0.930 . S
H1478 C1491 0.930 . S
H1479 C1495 0.959 . S
H1480 C1495 0.959 . S
H1481 C1495 0.961 . S
H1482 C1496 0.960 . S
H1483 C1496 0.961 . S
H1484 C1496 0.959 . S
H1485 C1499 0.930 . S
H1486 C1500 0.931 . S
H1487 C1502 0.930 . S
C1488 H1476 0.930 . S
C1488 C1489 1.399 1_556 S
C1488 C1493 1.399 . S
C1489 C1488 1.399 1_554 S
C1489 C1490 1.376 . S
C1490 H1477 0.930 . S
C1490 C1489 1.376 . S
C1490 C1491 1.388 . S
C1491 H1478 0.930 . S
C1491 C1490 1.388 . S
C1491 C1492 1.390 . S
C1492 C1491 1.390 . S
C1492 C1493 1.394 1_554 S
C1492 C1498 1.465 1_554 S
C1493 C1488 1.399 . S
C1493 C1492 1.394 1_556 S
C1493 C1494 1.516 . S
C1494 C1493 1.516 . S
C1494 C1495 1.502 . S
C1494 C1496 1.561 . S
C1494 C1497 1.526 . S
C1495 H1479 0.959 . S
C1495 H1480 0.959 . S
C1495 H1481 0.961 . S
C1495 C1494 1.502 . S
C1496 H1482 0.960 . S
C1496 H1483 0.961 . S
C1496 H1484 0.959 . S
C1496 C1494 1.561 . S
C1497 C1494 1.526 . S
C1497 C1498 1.396 . S
C1497 C1502 1.390 . S
C1498 C1492 1.465 1_556 S
C1498 C1497 1.396 . S
C1498 C1499 1.399 1_556 S
C1499 H1485 0.930 . S
C1499 C1498 1.399 1_554 S
C1499 C1500 1.385 1_454 S
C1500 H1486 0.931 . S
C1500 C1499 1.385 1_656 S
C1500 C1501 1.389 . S
C1501 C1500 1.389 . S
C1501 C1502 1.387 1_655 S
C1502 H1487 0.930 . S
C1502 C1497 1.390 . S
C1502 C1501 1.387 1_455 S
H1503 C1515 0.930 . S
H1504 C1517 0.930 . S
H1505 C1518 0.930 . S
H1506 C1522 0.959 . S
H1507 C1522 0.959 . S
H1508 C1522 0.961 . S
H1509 C1523 0.960 . S
H1510 C1523 0.961 . S
H1511 C1523 0.959 . S
H1512 C1526 0.929 . S
H1513 C1527 0.931 . S
H1514 C1529 0.930 . S
C1515 H1503 0.930 . S
C1515 C1516 1.399 . S
C1515 C1520 1.399 . S
C1516 C1515 1.399 . S
C1516 C1517 1.376 . S
C1517 H1504 0.930 . S
C1517 C1516 1.376 . S
C1517 C1518 1.388 . S
C1518 H1505 0.930 . S
C1518 C1517 1.388 . S
C1518 C1519 1.390 . S
C1519 C1518 1.390 . S
C1519 C1520 1.394 . S
C1519 C1525 1.465 . S
C1520 C1515 1.399 . S
C1520 C1519 1.394 . S
C1520 C1521 1.516 . S
C1521 C1520 1.516 . S
C1521 C1522 1.502 . S
C1521 C1523 1.561 . S
C1521 C1524 1.526 . S
C1522 H1506 0.959 . S
C1522 H1507 0.959 . S
C1522 H1508 0.961 . S
C1522 C1521 1.502 . S
C1523 H1509 0.960 . S
C1523 H1510 0.961 . S
C1523 H1511 0.959 . S
C1523 C1521 1.561 . S
C1524 C1521 1.526 . S
C1524 C1525 1.396 . S
C1524 C1529 1.390 . S
C1525 C1519 1.465 . S
C1525 C1524 1.396 . S
C1525 C1526 1.399 . S
C1526 H1512 0.929 . S
C1526 C1525 1.399 . S
C1526 C1527 1.385 . S
C1527 H1513 0.931 . S
C1527 C1526 1.385 . S
C1527 C1528 1.389 . S
C1528 C1527 1.389 . S
C1528 C1529 1.387 . S
C1529 H1514 0.930 . S
C1529 C1524 1.390 . S
C1529 C1528 1.387 . S
H1530 C1542 0.930 . S
H1531 C1544 0.930 . S
H1532 C1545 0.930 . S
H1533 C1549 0.959 . S
H1534 C1549 0.959 . S
H1535 C1549 0.961 . S
H1536 C1550 0.960 . S
H1537 C1550 0.961 . S
H1538 C1550 0.959 . S
H1539 C1553 0.929 . S
H1540 C1554 0.931 . S
H1541 C1556 0.930 . S
C1542 H1530 0.930 . S
C1542 C1543 1.399 . S
C1542 C1547 1.399 . S
C1543 C1542 1.399 . S
C1543 C1544 1.376 . S
C1544 H1531 0.930 . S
C1544 C1543 1.376 . S
C1544 C1545 1.388 . S
C1545 H1532 0.930 . S
C1545 C1544 1.388 . S
C1545 C1546 1.390 . S
C1546 C1545 1.390 . S
C1546 C1547 1.394 . S
C1546 C1552 1.465 . S
C1547 C1542 1.399 . S
C1547 C1546 1.394 . S
C1547 C1548 1.516 . S
C1548 C1547 1.516 . S
C1548 C1549 1.502 . S
C1548 C1550 1.561 . S
C1548 C1551 1.526 . S
C1549 H1533 0.959 . S
C1549 H1534 0.959 . S
C1549 H1535 0.961 . S
C1549 C1548 1.502 . S
C1550 H1536 0.960 . S
C1550 H1537 0.961 . S
C1550 H1538 0.959 . S
C1550 C1548 1.561 . S
C1551 C1548 1.526 . S
C1551 C1552 1.396 . S
C1551 C1556 1.390 . S
C1552 C1546 1.465 . S
C1552 C1551 1.396 . S
C1552 C1553 1.399 . S
C1553 H1539 0.929 . S
C1553 C1552 1.399 . S
C1553 C1554 1.385 . S
C1554 H1540 0.931 . S
C1554 C1553 1.385 . S
C1554 C1555 1.389 . S
C1555 C1554 1.389 . S
C1555 C1556 1.387 . S
C1556 H1541 0.930 . S
C1556 C1551 1.390 . S
C1556 C1555 1.387 . S
H1557 C1569 0.930 . S
H1558 C1571 0.930 . S
H1559 C1572 0.930 . S
H1560 C1576 0.959 . S
H1561 C1576 0.959 . S
H1562 C1576 0.961 . S
H1563 C1577 0.960 . S
H1564 C1577 0.961 . S
H1565 C1577 0.959 . S
H1566 C1580 0.929 . S
H1567 C1581 0.931 . S
H1568 C1583 0.930 . S
C1569 H1557 0.930 . S
C1569 C1570 1.399 . S
C1569 C1574 1.399 . S
C1570 C1569 1.399 . S
C1570 C1571 1.376 . S
C1571 H1558 0.930 . S
C1571 C1570 1.376 . S
C1571 C1572 1.388 . S
C1572 H1559 0.930 . S
C1572 C1571 1.388 . S
C1572 C1573 1.390 . S
C1573 C1572 1.390 . S
C1573 C1574 1.394 . S
C1573 C1579 1.465 . S
C1574 C1569 1.399 . S
C1574 C1573 1.394 . S
C1574 C1575 1.516 . S
C1575 C1574 1.516 . S
C1575 C1576 1.502 . S
C1575 C1577 1.561 . S
C1575 C1578 1.526 . S
C1576 H1560 0.959 . S
C1576 H1561 0.959 . S
C1576 H1562 0.961 . S
C1576 C1575 1.502 . S
C1577 H1563 0.960 . S
C1577 H1564 0.961 . S
C1577 H1565 0.959 . S
C1577 C1575 1.561 . S
C1578 C1575 1.526 . S
C1578 C1579 1.396 . S
C1578 C1583 1.390 . S
C1579 C1573 1.465 . S
C1579 C1578 1.396 . S
C1579 C1580 1.399 . S
C1580 H1566 0.929 . S
C1580 C1579 1.399 . S
C1580 C1581 1.385 . S
C1581 H1567 0.931 . S
C1581 C1580 1.385 . S
C1581 C1582 1.389 . S
C1582 C1581 1.389 . S
C1582 C1583 1.387 . S
C1583 H1568 0.930 . S
C1583 C1578 1.390 . S
C1583 C1582 1.387 . S
H1584 C1596 0.930 . S
H1585 C1598 0.930 . S
H1586 C1599 0.930 . S
H1587 C1603 0.959 . S
H1588 C1603 0.959 . S
H1589 C1603 0.961 . S
H1590 C1604 0.960 . S
H1591 C1604 0.961 . S
H1592 C1604 0.959 . S
H1593 C1607 0.929 . S
H1594 C1608 0.931 . S
H1595 C1610 0.930 . S
C1596 H1584 0.930 . S
C1596 C1597 1.399 . S
C1596 C1601 1.399 . S
C1597 C1596 1.399 . S
C1597 C1598 1.376 . S
C1598 H1585 0.930 . S
C1598 C1597 1.376 . S
C1598 C1599 1.388 . S
C1599 H1586 0.930 . S
C1599 C1598 1.388 . S
C1599 C1600 1.390 . S
C1600 C1599 1.390 . S
C1600 C1601 1.394 . S
C1600 C1606 1.465 . S
C1601 C1596 1.399 . S
C1601 C1600 1.394 . S
C1601 C1602 1.516 . S
C1602 C1601 1.516 . S
C1602 C1603 1.502 . S
C1602 C1604 1.561 . S
C1602 C1605 1.526 . S
C1603 H1587 0.959 . S
C1603 H1588 0.959 . S
C1603 H1589 0.961 . S
C1603 C1602 1.502 . S
C1604 H1590 0.960 . S
C1604 H1591 0.961 . S
C1604 H1592 0.959 . S
C1604 C1602 1.561 . S
C1605 C1602 1.526 . S
C1605 C1606 1.396 . S
C1605 C1610 1.390 . S
C1606 C1600 1.465 . S
C1606 C1605 1.396 . S
C1606 C1607 1.399 . S
C1607 H1593 0.929 . S
C1607 C1606 1.399 . S
C1607 C1608 1.385 . S
C1608 H1594 0.931 . S
C1608 C1607 1.385 . S
C1608 C1609 1.389 . S
C1609 C1608 1.389 . S
C1609 C1610 1.387 . S
C1610 H1595 0.930 . S
C1610 C1605 1.390 . S
C1610 C1609 1.387 . S
H1611 C1623 0.930 . S
H1612 C1625 0.930 . S
H1613 C1626 0.930 . S
H1614 C1630 0.959 . S
H1615 C1630 0.959 . S
H1616 C1630 0.961 . S
H1617 C1631 0.960 . S
H1618 C1631 0.961 . S
H1619 C1631 0.959 . S
H1620 C1634 0.929 . S
H1621 C1635 0.931 . S
H1622 C1637 0.930 . S
C1623 H1611 0.930 . S
C1623 C1624 1.399 . S
C1623 C1628 1.399 . S
C1624 C1623 1.399 . S
C1624 C1625 1.376 . S
C1625 H1612 0.930 . S
C1625 C1624 1.376 . S
C1625 C1626 1.388 . S
C1626 H1613 0.930 . S
C1626 C1625 1.388 . S
C1626 C1627 1.390 . S
C1627 C1626 1.390 . S
C1627 C1628 1.394 . S
C1627 C1633 1.465 . S
C1628 C1623 1.399 . S
C1628 C1627 1.394 . S
C1628 C1629 1.516 . S
C1629 C1628 1.516 . S
C1629 C1630 1.502 . S
C1629 C1631 1.561 . S
C1629 C1632 1.526 . S
C1630 H1614 0.959 . S
C1630 H1615 0.959 . S
C1630 H1616 0.961 . S
C1630 C1629 1.502 . S
C1631 H1617 0.960 . S
C1631 H1618 0.961 . S
C1631 H1619 0.959 . S
C1631 C1629 1.561 . S
C1632 C1629 1.526 . S
C1632 C1633 1.396 . S
C1632 C1637 1.390 . S
C1633 C1627 1.465 . S
C1633 C1632 1.396 . S
C1633 C1634 1.399 . S
C1634 H1620 0.929 . S
C1634 C1633 1.399 . S
C1634 C1635 1.385 . S
C1635 H1621 0.931 . S
C1635 C1634 1.385 . S
C1635 C1636 1.389 . S
C1636 C1635 1.389 . S
C1636 C1637 1.387 . S
C1637 H1622 0.930 . S
C1637 C1632 1.390 . S
C1637 C1636 1.387 . S
H1638 C1650 0.930 . S
H1639 C1652 0.930 . S
H1640 C1653 0.930 . S
H1641 C1657 0.959 . S
H1642 C1657 0.959 . S
H1643 C1657 0.961 . S
H1644 C1658 0.960 . S
H1645 C1658 0.961 . S
H1646 C1658 0.959 . S
H1647 C1661 0.929 . S
H1648 C1662 0.931 . S
H1649 C1664 0.930 . S
C1650 H1638 0.930 . S
C1650 C1651 1.399 . S
C1650 C1655 1.399 . S
C1651 C1650 1.399 . S
C1651 C1652 1.376 . S
C1652 H1639 0.930 . S
C1652 C1651 1.376 . S
C1652 C1653 1.388 . S
C1653 H1640 0.930 . S
C1653 C1652 1.388 . S
C1653 C1654 1.390 . S
C1654 C1653 1.390 . S
C1654 C1655 1.394 . S
C1654 C1660 1.465 . S
C1655 C1650 1.399 . S
C1655 C1654 1.394 . S
C1655 C1656 1.516 . S
C1656 C1655 1.516 . S
C1656 C1657 1.502 . S
C1656 C1658 1.561 . S
C1656 C1659 1.526 . S
C1657 H1641 0.959 . S
C1657 H1642 0.959 . S
C1657 H1643 0.961 . S
C1657 C1656 1.502 . S
C1658 H1644 0.960 . S
C1658 H1645 0.961 . S
C1658 H1646 0.959 . S
C1658 C1656 1.561 . S
C1659 C1656 1.526 . S
C1659 C1660 1.396 . S
C1659 C1664 1.390 . S
C1660 C1654 1.465 . S
C1660 C1659 1.396 . S
C1660 C1661 1.399 . S
C1661 H1647 0.929 . S
C1661 C1660 1.399 . S
C1661 C1662 1.385 . S
C1662 H1648 0.931 . S
C1662 C1661 1.385 . S
C1662 C1663 1.389 . S
C1663 C1662 1.389 . S
C1663 C1664 1.387 . S
C1664 H1649 0.930 . S
C1664 C1659 1.390 . S
C1664 C1663 1.387 . S
H1665 C1677 0.930 . S
H1666 C1679 0.930 . S
H1667 C1680 0.930 . S
H1668 C1684 0.959 . S
H1669 C1684 0.959 . S
H1670 C1684 0.961 . S
H1671 C1685 0.960 . S
H1672 C1685 0.961 . S
H1673 C1685 0.959 . S
H1674 C1688 0.929 . S
H1675 C1689 0.931 . S
H1676 C1691 0.930 . S
C1677 H1665 0.930 . S
C1677 C1678 1.399 . S
C1677 C1682 1.399 . S
C1678 C1677 1.399 . S
C1678 C1679 1.376 . S
C1679 H1666 0.930 . S
C1679 C1678 1.376 . S
C1679 C1680 1.388 . S
C1680 H1667 0.930 . S
C1680 C1679 1.388 . S
C1680 C1681 1.390 . S
C1681 C1680 1.390 . S
C1681 C1682 1.394 . S
C1681 C1687 1.465 . S
C1682 C1677 1.399 . S
C1682 C1681 1.394 . S
C1682 C1683 1.516 . S
C1683 C1682 1.516 . S
C1683 C1684 1.502 . S
C1683 C1685 1.561 . S
C1683 C1686 1.526 . S
C1684 H1668 0.959 . S
C1684 H1669 0.959 . S
C1684 H1670 0.961 . S
C1684 C1683 1.502 . S
C1685 H1671 0.960 . S
C1685 H1672 0.961 . S
C1685 H1673 0.959 . S
C1685 C1683 1.561 . S
C1686 C1683 1.526 . S
C1686 C1687 1.396 . S
C1686 C1691 1.390 . S
C1687 C1681 1.465 . S
C1687 C1686 1.396 . S
C1687 C1688 1.399 . S
C1688 H1674 0.929 . S
C1688 C1687 1.399 . S
C1688 C1689 1.385 . S
C1689 H1675 0.931 . S
C1689 C1688 1.385 . S
C1689 C1690 1.389 . S
C1690 C1689 1.389 . S
C1690 C1691 1.387 . S
C1691 H1676 0.930 . S
C1691 C1686 1.390 . S
C1691 C1690 1.387 . S
H1692 C1704 0.930 . S
H1693 C1706 0.930 . S
H1694 C1707 0.930 . S
H1695 C1711 0.959 . S
H1696 C1711 0.959 . S
H1697 C1711 0.961 . S
H1698 C1712 0.960 . S
H1699 C1712 0.961 . S
H1700 C1712 0.959 . S
H1701 C1715 0.929 . S
H1702 C1716 0.931 . S
H1703 C1718 0.930 . S
C1704 H1692 0.930 . S
C1704 C1705 1.399 . S
C1704 C1709 1.399 . S
C1705 C1704 1.399 . S
C1705 C1706 1.376 . S
C1706 H1693 0.930 . S
C1706 C1705 1.376 . S
C1706 C1707 1.388 . S
C1707 H1694 0.930 . S
C1707 C1706 1.388 . S
C1707 C1708 1.390 . S
C1708 C1707 1.390 . S
C1708 C1709 1.394 . S
C1708 C1714 1.465 . S
C1709 C1704 1.399 . S
C1709 C1708 1.394 . S
C1709 C1710 1.516 . S
C1710 C1709 1.516 . S
C1710 C1711 1.502 . S
C1710 C1712 1.561 . S
C1710 C1713 1.526 . S
C1711 H1695 0.959 . S
C1711 H1696 0.959 . S
C1711 H1697 0.961 . S
C1711 C1710 1.502 . S
C1712 H1698 0.960 . S
C1712 H1699 0.961 . S
C1712 H1700 0.959 . S
C1712 C1710 1.561 . S
C1713 C1710 1.526 . S
C1713 C1714 1.396 . S
C1713 C1718 1.390 . S
C1714 C1708 1.465 . S
C1714 C1713 1.396 . S
C1714 C1715 1.399 . S
C1715 H1701 0.929 . S
C1715 C1714 1.399 . S
C1715 C1716 1.385 . S
C1716 H1702 0.931 . S
C1716 C1715 1.385 . S
C1716 C1717 1.389 . S
C1717 C1716 1.389 . S
C1717 C1718 1.387 . S
C1718 H1703 0.930 . S
C1718 C1713 1.390 . S
C1718 C1717 1.387 . S
H1719 C1731 0.930 . S
H1720 C1733 0.930 . S
H1721 C1734 0.930 . S
H1722 C1738 0.959 . S
H1723 C1738 0.959 . S
H1724 C1738 0.961 . S
H1725 C1739 0.960 . S
H1726 C1739 0.961 . S
H1727 C1739 0.959 . S
H1728 C1742 0.929 . S
H1729 C1743 0.931 . S
H1730 C1745 0.930 . S
C1731 H1719 0.930 . S
C1731 C1732 1.399 . S
C1731 C1736 1.399 . S
C1732 C1731 1.399 . S
C1732 C1733 1.376 . S
C1733 H1720 0.930 . S
C1733 C1732 1.376 . S
C1733 C1734 1.388 . S
C1734 H1721 0.930 . S
C1734 C1733 1.388 . S
C1734 C1735 1.390 . S
C1735 C1734 1.390 . S
C1735 C1736 1.394 . S
C1735 C1741 1.465 . S
C1736 C1731 1.399 . S
C1736 C1735 1.394 . S
C1736 C1737 1.516 . S
C1737 C1736 1.516 . S
C1737 C1738 1.502 . S
C1737 C1739 1.561 . S
C1737 C1740 1.526 . S
C1738 H1722 0.959 . S
C1738 H1723 0.959 . S
C1738 H1724 0.961 . S
C1738 C1737 1.502 . S
C1739 H1725 0.960 . S
C1739 H1726 0.961 . S
C1739 H1727 0.959 . S
C1739 C1737 1.561 . S
C1740 C1737 1.526 . S
C1740 C1741 1.396 . S
C1740 C1745 1.390 . S
C1741 C1735 1.465 . S
C1741 C1740 1.396 . S
C1741 C1742 1.399 . S
C1742 H1728 0.929 . S
C1742 C1741 1.399 . S
C1742 C1743 1.385 . S
C1743 H1729 0.931 . S
C1743 C1742 1.385 . S
C1743 C1744 1.389 . S
C1744 C1743 1.389 . S
C1744 C1745 1.387 . S
C1745 H1730 0.930 . S
C1745 C1740 1.390 . S
C1745 C1744 1.387 . S
H1746 C1758 0.930 . S
H1747 C1760 0.930 . S
H1748 C1761 0.930 . S
H1749 C1765 0.959 . S
H1750 C1765 0.959 . S
H1751 C1765 0.961 . S
H1752 C1766 0.960 . S
H1753 C1766 0.961 . S
H1754 C1766 0.959 . S
H1755 C1769 0.929 . S
H1756 C1770 0.931 . S
H1757 C1772 0.930 . S
C1758 H1746 0.930 . S
C1758 C1759 1.399 . S
C1758 C1763 1.399 . S
C1759 C1758 1.399 . S
C1759 C1760 1.376 . S
C1760 H1747 0.930 . S
C1760 C1759 1.376 . S
C1760 C1761 1.388 . S
C1761 H1748 0.930 . S
C1761 C1760 1.388 . S
C1761 C1762 1.390 . S
C1762 C1761 1.390 . S
C1762 C1763 1.394 . S
C1762 C1768 1.465 . S
C1763 C1758 1.399 . S
C1763 C1762 1.394 . S
C1763 C1764 1.516 . S
C1764 C1763 1.516 . S
C1764 C1765 1.502 . S
C1764 C1766 1.561 . S
C1764 C1767 1.526 . S
C1765 H1749 0.959 . S
C1765 H1750 0.959 . S
C1765 H1751 0.961 . S
C1765 C1764 1.502 . S
C1766 H1752 0.960 . S
C1766 H1753 0.961 . S
C1766 H1754 0.959 . S
C1766 C1764 1.561 . S
C1767 C1764 1.526 . S
C1767 C1768 1.396 . S
C1767 C1772 1.390 . S
C1768 C1762 1.465 . S
C1768 C1767 1.396 . S
C1768 C1769 1.399 . S
C1769 H1755 0.929 . S
C1769 C1768 1.399 . S
C1769 C1770 1.385 . S
C1770 H1756 0.931 . S
C1770 C1769 1.385 . S
C1770 C1771 1.389 . S
C1771 C1770 1.389 . S
C1771 C1772 1.387 . S
C1772 H1757 0.930 . S
C1772 C1767 1.390 . S
C1772 C1771 1.387 . S
H1773 C1785 0.930 . S
H1774 C1787 0.930 . S
H1775 C1788 0.930 . S
H1776 C1792 0.959 . S
H1777 C1792 0.959 . S
H1778 C1792 0.961 . S
H1779 C1793 0.960 . S
H1780 C1793 0.961 . S
H1781 C1793 0.959 . S
H1782 C1796 0.929 . S
H1783 C1797 0.931 . S
H1784 C1799 0.930 . S
C1785 H1773 0.930 . S
C1785 C1786 1.399 . S
C1785 C1790 1.399 . S
C1786 C1785 1.399 . S
C1786 C1787 1.376 . S
C1787 H1774 0.930 . S
C1787 C1786 1.376 . S
C1787 C1788 1.388 . S
C1788 H1775 0.930 . S
C1788 C1787 1.388 . S
C1788 C1789 1.390 . S
C1789 C1788 1.390 . S
C1789 C1790 1.394 . S
C1789 C1795 1.465 . S
C1790 C1785 1.399 . S
C1790 C1789 1.394 . S
C1790 C1791 1.516 . S
C1791 C1790 1.516 . S
C1791 C1792 1.502 . S
C1791 C1793 1.561 . S
C1791 C1794 1.526 . S
C1792 H1776 0.959 . S
C1792 H1777 0.959 . S
C1792 H1778 0.961 . S
C1792 C1791 1.502 . S
C1793 H1779 0.960 . S
C1793 H1780 0.961 . S
C1793 H1781 0.959 . S
C1793 C1791 1.561 . S
C1794 C1791 1.526 . S
C1794 C1795 1.396 . S
C1794 C1799 1.390 . S
C1795 C1789 1.465 . S
C1795 C1794 1.396 . S
C1795 C1796 1.399 . S
C1796 H1782 0.929 . S
C1796 C1795 1.399 . S
C1796 C1797 1.385 . S
C1797 H1783 0.931 . S
C1797 C1796 1.385 . S
C1797 C1798 1.389 . S
C1798 C1797 1.389 . S
C1798 C1799 1.387 . S
C1799 H1784 0.930 . S
C1799 C1794 1.390 . S
C1799 C1798 1.387 . S
H1800 C1812 0.930 . S
H1801 C1814 0.930 . S
H1802 C1815 0.930 . S
H1803 C1819 0.959 . S
H1804 C1819 0.959 . S
H1805 C1819 0.961 . S
H1806 C1820 0.960 . S
H1807 C1820 0.961 . S
H1808 C1820 0.959 . S
H1809 C1823 0.929 . S
H1810 C1824 0.931 . S
H1811 C1826 0.930 . S
C1812 H1800 0.930 . S
C1812 C1813 1.399 . S
C1812 C1817 1.399 . S
C1813 C1812 1.399 . S
C1813 C1814 1.376 . S
C1814 H1801 0.930 . S
C1814 C1813 1.376 . S
C1814 C1815 1.388 . S
C1815 H1802 0.930 . S
C1815 C1814 1.388 . S
C1815 C1816 1.390 . S
C1816 C1815 1.390 . S
C1816 C1817 1.394 . S
C1816 C1822 1.465 . S
C1817 C1812 1.399 . S
C1817 C1816 1.394 . S
C1817 C1818 1.516 . S
C1818 C1817 1.516 . S
C1818 C1819 1.502 . S
C1818 C1820 1.561 . S
C1818 C1821 1.526 . S
C1819 H1803 0.959 . S
C1819 H1804 0.959 . S
C1819 H1805 0.961 . S
C1819 C1818 1.502 . S
C1820 H1806 0.960 . S
C1820 H1807 0.961 . S
C1820 H1808 0.959 . S
C1820 C1818 1.561 . S
C1821 C1818 1.526 . S
C1821 C1822 1.396 . S
C1821 C1826 1.390 . S
C1822 C1816 1.465 . S
C1822 C1821 1.396 . S
C1822 C1823 1.399 . S
C1823 H1809 0.929 . S
C1823 C1822 1.399 . S
C1823 C1824 1.385 . S
C1824 H1810 0.931 . S
C1824 C1823 1.385 . S
C1824 C1825 1.389 . S
C1825 C1824 1.389 . S
C1825 C1826 1.387 . S
C1826 H1811 0.930 . S
C1826 C1821 1.390 . S
C1826 C1825 1.387 . S
C625 C5 1.320 . S
C637 C271 1.368 . S
C652 C39 1.352 . S
C664 C305 1.371 . S
C679 C73 1.302 1_655 S
C691 C237 1.367 . S
C706 C577 1.354 . S
C718 C107 1.370 . S
C733 C141 1.327 1_565 S
C745 C611 1.372 . S
C760 C175 1.366 1_455 S
C772 C543 1.355 . S
C787 C209 1.371 . S
C799 C475 1.358 . S
C814 C509 1.360 . S
C826 C243 1.372 . S
C841 C441 1.364 . S
C853 C277 1.319 . S
C868 C311 1.360 . S
C880 C169 1.365 . S
C895 C345 1.344 . S
C907 C203 1.369 . S
C922 C379 1.372 . S
C934 C135 1.356 . S
C949 C413 1.321 . S
C961 C67 1.369 . S
C976 C447 1.335 . S
C988 C101 1.372 . S
C1003 C33 1.369 . S
C1015 C481 1.322 . S
C1030 C373 1.355 . S
C1042 C515 1.372 . S
C1057 C549 1.366 . S
C1069 C407 1.354 . S
C1084 C583 1.338 . S
C1096 C339 1.371 . S
C1111 C530 1.626 . S
C1123 C20 1.625 . S
C1138 C564 1.602 . S
C1150 C54 1.643 . S
C1165 C88 1.614 . S
C1177 C598 1.636 . S
C1192 C122 1.622 . S
C1204 C224 1.617 . S
C1219 C156 1.605 . S
C1231 C258 1.635 . S
C1246 C292 1.631 . S
C1258 C190 1.609 . S
C1273 C326 1.630 . S
C1285 C428 1.609 . S
C1300 C462 1.641 . S
C1312 C360 1.608 . S
C1327 C496 1.613 . S
C1339 C394 1.637 . S
C1354 C2 1.456 . S
C1366 C145 1.425 . S
C1381 C179 1.437 . S
C1393 C36 1.473 . S
C1408 C70 1.437 . S
C1420 C111 1.389 . S
C1435 C43 1.453 . S
C1447 C104 1.460 . S
C1462 C138 1.480 . S
C1474 C77 1.428 . S
C1489 C9 1.447 . S
C1501 C172 1.456 . S
C1516 C206 1.449 . S
C1528 C349 1.397 . S
C1543 C383 1.382 . S
C1555 C240 1.436 . S
C1570 C315 1.437 . S
C1582 C274 1.473 . S
C1597 C308 1.483 . S
C1609 C247 1.443 . S
C1624 C281 1.461 . S
C1636 C342 1.471 . S
C1651 C376 1.447 . S
C1663 C213 1.435 . S
C1678 C553 1.394 . S
C1690 C410 1.440 . S
C1705 C587 1.431 . S
C1717 C444 1.470 . S
C1732 C519 1.421 . S
C1744 C478 1.454 . S
C1759 C451 1.458 . S
C1771 C512 1.482 . S
C1786 C485 1.462 . S
C1798 C546 1.479 . S
C1813 C580 1.467 . S
C1825 C417 1.458 . S
