# Generated by pormake.
# Topology whk, (6)-cn, num edge types: 1
# Building blocks:
#     Node 0, Type 0, BuildingBlock: CUWYAW_clean_sbu_0, # of connection points: 6
#     Node 1, Type 0, BuildingBlock: CUWYAW_clean_sbu_0, # of connection points: 6
#     Node 2, Type 0, BuildingBlock: CUWYAW_clean_sbu_0, # of connection points: 6
#     Node 3, Type 0, BuildingBlock: CUWYAW_clean_sbu_0, # of connection points: 6
#     Node 4, Type 0, BuildingBlock: CUWYAW_clean_sbu_0, # of connection points: 6
#     Node 5, Type 0, BuildingBlock: CUWYAW_clean_sbu_0, # of connection points: 6
#     Node 6, Type 0, BuildingBlock: CUWYAW_clean_sbu_0, # of connection points: 6
#     Node 7, Type 0, BuildingBlock: CUWYAW_clean_sbu_0, # of connection points: 6
#     Node 8, Type 0, BuildingBlock: CUWYAW_clean_sbu_0, # of connection points: 6
#     Node 9, Type 0, BuildingBlock: CUWYAW_clean_sbu_0, # of connection points: 6
#     Node 10, Type 0, BuildingBlock: CUWYAW_clean_sbu_0, # of connection points: 6
#     Node 11, Type 0, BuildingBlock: CUWYAW_clean_sbu_0, # of connection points: 6
#     Node 12, Type 0, BuildingBlock: CUWYAW_clean_sbu_0, # of connection points: 6
#     Node 13, Type 0, BuildingBlock: CUWYAW_clean_sbu_0, # of connection points: 6
#     Node 14, Type 0, BuildingBlock: CUWYAW_clean_sbu_0, # of connection points: 6
#     Node 15, Type 0, BuildingBlock: CUWYAW_clean_sbu_0, # of connection points: 6
#     Edge 16, Type (0, 0), BuildingBlock: ZUJKAS_clean_linker_0, # of connection points: 2
#     Edge 17, Type (0, 0), BuildingBlock: ZUJKAS_clean_linker_0, # of connection points: 2
#     Edge 18, Type (0, 0), BuildingBlock: ZUJKAS_clean_linker_0, # of connection points: 2
#     Edge 19, Type (0, 0), BuildingBlock: ZUJKAS_clean_linker_0, # of connection points: 2
#     Edge 20, Type (0, 0), BuildingBlock: ZUJKAS_clean_linker_0, # of connection points: 2
#     Edge 21, Type (0, 0), BuildingBlock: ZUJKAS_clean_linker_0, # of connection points: 2
#     Edge 22, Type (0, 0), BuildingBlock: ZUJKAS_clean_linker_0, # of connection points: 2
#     Edge 23, Type (0, 0), BuildingBlock: ZUJKAS_clean_linker_0, # of connection points: 2
#     Edge 24, Type (0, 0), BuildingBlock: ZUJKAS_clean_linker_0, # of connection points: 2
#     Edge 25, Type (0, 0), BuildingBlock: ZUJKAS_clean_linker_0, # of connection points: 2
#     Edge 26, Type (0, 0), BuildingBlock: ZUJKAS_clean_linker_0, # of connection points: 2
#     Edge 27, Type (0, 0), BuildingBlock: ZUJKAS_clean_linker_0, # of connection points: 2
#     Edge 28, Type (0, 0), BuildingBlock: ZUJKAS_clean_linker_0, # of connection points: 2
#     Edge 29, Type (0, 0), BuildingBlock: ZUJKAS_clean_linker_0, # of connection points: 2
#     Edge 30, Type (0, 0), BuildingBlock: ZUJKAS_clean_linker_0, # of connection points: 2
#     Edge 31, Type (0, 0), BuildingBlock: ZUJKAS_clean_linker_0, # of connection points: 2
#     Edge 32, Type (0, 0), BuildingBlock: ZUJKAS_clean_linker_0, # of connection points: 2
#     Edge 33, Type (0, 0), BuildingBlock: ZUJKAS_clean_linker_0, # of connection points: 2
#     Edge 34, Type (0, 0), BuildingBlock: ZUJKAS_clean_linker_0, # of connection points: 2
#     Edge 35, Type (0, 0), BuildingBlock: ZUJKAS_clean_linker_0, # of connection points: 2
#     Edge 36, Type (0, 0), BuildingBlock: ZUJKAS_clean_linker_0, # of connection points: 2
#     Edge 37, Type (0, 0), BuildingBlock: ZUJKAS_clean_linker_0, # of connection points: 2
#     Edge 38, Type (0, 0), BuildingBlock: ZUJKAS_clean_linker_0, # of connection points: 2
#     Edge 39, Type (0, 0), BuildingBlock: ZUJKAS_clean_linker_0, # of connection points: 2
#     Edge 40, Type (0, 0), BuildingBlock: ZUJKAS_clean_linker_0, # of connection points: 2
#     Edge 41, Type (0, 0), BuildingBlock: ZUJKAS_clean_linker_0, # of connection points: 2
#     Edge 42, Type (0, 0), BuildingBlock: ZUJKAS_clean_linker_0, # of connection points: 2
#     Edge 43, Type (0, 0), BuildingBlock: ZUJKAS_clean_linker_0, # of connection points: 2
#     Edge 44, Type (0, 0), BuildingBlock: ZUJKAS_clean_linker_0, # of connection points: 2
#     Edge 45, Type (0, 0), BuildingBlock: ZUJKAS_clean_linker_0, # of connection points: 2
#     Edge 46, Type (0, 0), BuildingBlock: ZUJKAS_clean_linker_0, # of connection points: 2
#     Edge 47, Type (0, 0), BuildingBlock: ZUJKAS_clean_linker_0, # of connection points: 2
#     Edge 48, Type (0, 0), BuildingBlock: ZUJKAS_clean_linker_0, # of connection points: 2
#     Edge 49, Type (0, 0), BuildingBlock: ZUJKAS_clean_linker_0, # of connection points: 2
#     Edge 50, Type (0, 0), BuildingBlock: ZUJKAS_clean_linker_0, # of connection points: 2
#     Edge 51, Type (0, 0), BuildingBlock: ZUJKAS_clean_linker_0, # of connection points: 2
#     Edge 52, Type (0, 0), BuildingBlock: ZUJKAS_clean_linker_0, # of connection points: 2
#     Edge 53, Type (0, 0), BuildingBlock: ZUJKAS_clean_linker_0, # of connection points: 2
#     Edge 54, Type (0, 0), BuildingBlock: ZUJKAS_clean_linker_0, # of connection points: 2
#     Edge 55, Type (0, 0), BuildingBlock: ZUJKAS_clean_linker_0, # of connection points: 2
#     Edge 56, Type (0, 0), BuildingBlock: ZUJKAS_clean_linker_0, # of connection points: 2
#     Edge 57, Type (0, 0), BuildingBlock: ZUJKAS_clean_linker_0, # of connection points: 2
#     Edge 58, Type (0, 0), BuildingBlock: ZUJKAS_clean_linker_0, # of connection points: 2
#     Edge 59, Type (0, 0), BuildingBlock: ZUJKAS_clean_linker_0, # of connection points: 2
#     Edge 60, Type (0, 0), BuildingBlock: ZUJKAS_clean_linker_0, # of connection points: 2
#     Edge 61, Type (0, 0), BuildingBlock: ZUJKAS_clean_linker_0, # of connection points: 2
#     Edge 62, Type (0, 0), BuildingBlock: ZUJKAS_clean_linker_0, # of connection points: 2
#     Edge 63, Type (0, 0), BuildingBlock: ZUJKAS_clean_linker_0, # of connection points: 2
# Relax obj value: 0.521
# Max RMSD: 0.294
# Mean RMSD: 0.294
data_MOF--net-whk--node1-CUWYAW_clean_sbu_0--edge1-ZUJKAS_clean_linker_0
_symmetry_space_group_name_H-M    P1
_symmetry_Int_Tables_number       1
_symmetry_cell_setting            triclinic
loop_
_symmetry_equiv_pos_as_xyz
'x, y, z'
_cell_length_a     57.537126
_cell_length_b     57.609704
_cell_length_c     50.582983
_cell_angle_alpha  89.936014
_cell_angle_beta   89.952536
_cell_angle_gamma 89.893492
loop_
_atom_site_label
_atom_site_type_symbol
_atom_site_fract_x
_atom_site_fract_y
_atom_site_fract_z
_atom_type_partial_charge
C0 C 0.52399 0.17615 0.42638 0.0
Eu1 Eu 0.55745 0.20691 0.42292 0.0
C2 C 0.49915 0.1692 0.4227 0.0
C3 C 0.48422 0.16688 0.44461 0.0
C4 C 0.46227 0.1564 0.44198 0.0
C5 C 0.45474 0.14767 0.41742 0.0
C6 C 0.46937 0.15077 0.39536 0.0
C7 C 0.4912 0.16134 0.39795 0.0
C8 C 0.57282 0.23991 0.45725 0.0
C9 C 0.54026 0.25663 0.39527 0.0
C10 C 0.63092 0.26205 0.39349 0.0
Eu11 Eu 0.59265 0.23935 0.4003 0.0
C12 C 0.65431 0.25271 0.39952 0.0
C13 C 0.66364 0.23457 0.38422 0.0
C14 C 0.68175 0.22091 0.39401 0.0
C15 C 0.69095 0.22506 0.41929 0.0
C16 C 0.683 0.24444 0.43358 0.0
C17 C 0.66492 0.25817 0.42375 0.0
C18 C 0.58044 0.20485 0.36623 0.0
C19 C 0.6098 0.19566 0.43772 0.0
O20 O 0.5368 0.17939 0.40529 0.0
O21 O 0.52998 0.18967 0.44605 0.0
O22 O 0.56755 0.21887 0.46464 0.0
O23 O 0.56815 0.24256 0.43314 0.0
O24 O 0.5346 0.23537 0.4035 0.0
O25 O 0.56223 0.26315 0.39368 0.0
O26 O 0.61756 0.26505 0.41411 0.0
O27 O 0.61976 0.25233 0.37389 0.0
O28 O 0.58185 0.22667 0.35999 0.0
O29 O 0.58413 0.20252 0.39083 0.0
O30 O 0.61405 0.21652 0.42801 0.0
O31 O 0.58901 0.1862 0.43551 0.0
H32 H 0.48987 0.17231 0.46406 0.0
H33 H 0.45165 0.15419 0.45948 0.0
H34 H 0.46411 0.14462 0.37605 0.0
H35 H 0.50221 0.16253 0.38063 0.0
H36 H 0.65606 0.22992 0.36537 0.0
H37 H 0.68803 0.20662 0.38207 0.0
H38 H 0.68971 0.24818 0.45311 0.0
H39 H 0.6581 0.272 0.43603 0.0
C40 C 0.36038 0.5268 0.42348 0.0
Eu41 Eu 0.32918 0.55994 0.42007 0.0
C42 C 0.36764 0.5021 0.4196 0.0
C43 C 0.37109 0.48739 0.4415 0.0
C44 C 0.38191 0.46562 0.43852 0.0
C45 C 0.38987 0.45808 0.4136 0.0
C46 C 0.38563 0.47246 0.39159 0.0
C47 C 0.37471 0.49411 0.39453 0.0
C48 C 0.29686 0.57606 0.45499 0.0
C49 C 0.27936 0.54236 0.39342 0.0
C50 C 0.2717 0.63232 0.39101 0.0
Eu51 Eu 0.29613 0.59501 0.39788 0.0
C52 C 0.27866 0.65599 0.39904 0.0
C53 C 0.29432 0.66877 0.38342 0.0
C54 C 0.30672 0.68721 0.39433 0.0
C55 C 0.30365 0.69327 0.42101 0.0
C56 C 0.28623 0.68209 0.43574 0.0
C57 C 0.27377 0.66372 0.42479 0.0
C58 C 0.33026 0.58279 0.36315 0.0
C59 C 0.34076 0.61239 0.43368 0.0
O60 O 0.35705 0.53967 0.40246 0.0
O61 O 0.34669 0.53256 0.44316 0.0
O62 O 0.31815 0.57111 0.46183 0.0
O63 O 0.29373 0.57087 0.43111 0.0
O64 O 0.30068 0.5368 0.40155 0.0
O65 O 0.27279 0.56428 0.39139 0.0
O66 O 0.268 0.61781 0.41045 0.0
O67 O 0.28395 0.62286 0.37206 0.0
O68 O 0.30831 0.58397 0.35734 0.0
O69 O 0.33279 0.58641 0.38771 0.0
O70 O 0.31945 0.61671 0.42506 0.0
O71 O 0.35011 0.59159 0.43105 0.0
H72 H 0.36629 0.4931 0.46115 0.0
H73 H 0.385 0.45517 0.45598 0.0
H74 H 0.39115 0.46717 0.37203 0.0
H75 H 0.37263 0.50495 0.37719 0.0
H76 H 0.29826 0.66352 0.36335 0.0
H77 H 0.31948 0.69602 0.3822 0.0
H78 H 0.28334 0.68633 0.45634 0.0
H79 H 0.26168 0.65435 0.43723 0.0
C80 C 1.00913 0.36385 0.43146 0.0
Eu81 Eu 0.97676 0.33276 0.42222 0.0
C82 C 0.03341 0.37171 0.42589 0.0
C83 C 0.0491 0.37493 0.44688 0.0
C84 C 0.07068 0.38577 0.44274 0.0
C85 C 0.07713 0.39392 0.41749 0.0
C86 C 0.06172 0.38994 0.39633 0.0
C87 C 0.04021 0.37902 0.40045 0.0
C88 C 0.95775 0.30039 0.45532 0.0
C89 C 0.99709 0.28418 0.39847 0.0
C90 C 0.91307 0.27179 0.38003 0.0
Eu91 Eu 0.94464 0.30111 0.39561 0.0
C92 C 0.90623 0.24837 0.38802 0.0
C93 C 0.8867 0.23815 0.37648 0.0
C94 C 0.87723 0.21807 0.38749 0.0
C95 C 0.88716 0.20816 0.41021 0.0
C96 C 0.90779 0.21736 0.42048 0.0
C97 C 0.91737 0.23737 0.4093 0.0
C98 C 0.95887 0.33657 0.36297 0.0
C99 C 0.92292 0.34281 0.43213 0.0
O100 O 0.994 0.36517 0.41223 0.0
O101 O 1.00564 0.34579 0.44669 0.0
O102 O 0.96196 0.3217 0.46236 0.0
O103 O 0.96496 0.29692 0.43213 0.0
O104 O 1.00186 0.30636 0.40293 0.0
O105 O 0.97535 0.27711 0.39899 0.0
O106 O 0.93336 0.27377 0.36872 0.0
O107 O 0.90935 0.28787 0.39774 0.0
O108 O 0.95781 0.31497 0.35639 0.0
O109 O 0.95346 0.33815 0.38709 0.0
O110 O 0.91951 0.32228 0.42103 0.0
O111 O 0.94387 0.35215 0.43286 0.0
H112 H 0.0443 0.36984 0.46677 0.0
H113 H 0.08189 0.38864 0.4596 0.0
H114 H 0.06614 0.39558 0.37653 0.0
H115 H 0.02861 0.37696 0.38377 0.0
H116 H 0.87792 0.24648 0.36006 0.0
H117 H 0.86105 0.21139 0.37963 0.0
H118 H 0.91558 0.21001 0.43806 0.0
H119 H 0.9326 0.24507 0.4182 0.0
C120 C 0.17222 1.0113 0.43023 0.0
Eu121 Eu 0.20391 0.97867 0.42548 0.0
C122 C 0.16528 0.0361 0.42616 0.0
C123 C 0.16276 0.05115 0.44788 0.0
C124 C 0.15251 0.07319 0.44486 0.0
C125 C 0.14423 0.08071 0.42006 0.0
C126 C 0.1475 0.06594 0.3982 0.0
C127 C 0.15783 0.044 0.40119 0.0
C128 C 0.23589 0.96266 0.46122 0.0
C129 C 0.25323 0.99786 0.40144 0.0
C130 C 0.26776 0.91138 0.39747 0.0
Eu131 Eu 0.23748 0.94454 0.40396 0.0
C132 C 0.2852 0.90068 0.41491 0.0
C133 C 0.30733 0.89536 0.40501 0.0
C134 C 0.32365 0.88412 0.421 0.0
C135 C 0.31799 0.87796 0.44711 0.0
C136 C 0.29617 0.8843 0.45735 0.0
C137 C 0.27995 0.89565 0.44144 0.0
C138 C 0.20434 0.95646 0.36741 0.0
C139 C 0.19348 0.926 0.43895 0.0
O140 O 0.17479 0.99818 0.40932 0.0
O141 O 0.18669 1.00577 0.44922 0.0
O142 O 0.21426 0.96663 0.4674 0.0
O143 O 0.23944 0.96822 0.43762 0.0
O144 O 0.23121 1.00298 0.40679 0.0
O145 O 0.26043 0.97614 0.40212 0.0
O146 O 0.27167 0.93283 0.39057 0.0
O147 O 0.24601 0.90774 0.40356 0.0
O148 O 0.22621 0.95365 0.36238 0.0
O149 O 0.20114 0.95315 0.39186 0.0
O150 O 0.21561 0.92271 0.43263 0.0
O151 O 0.18347 0.94631 0.43479 0.0
H152 H 0.16789 0.04553 0.46747 0.0
H153 H 0.15015 0.08391 0.46223 0.0
H154 H 0.14171 0.07118 0.37872 0.0
H155 H 0.15922 0.03292 0.38397 0.0
H156 H 0.31176 0.89934 0.38468 0.0
H157 H 0.34024 0.87921 0.41253 0.0
H158 H 0.29148 0.87994 0.4775 0.0
H159 H 0.26311 0.89996 0.4497 0.0
C160 C 0.02765 0.86346 0.10164 0.0
Eu161 Eu 0.06002 0.83164 0.10719 0.0
C162 C 1.00295 0.87059 0.10615 0.0
C163 C 0.98758 0.87299 0.08469 0.0
C164 C 0.96557 0.88327 0.08802 0.0
C165 C 0.95841 0.89171 0.11287 0.0
C166 C 0.97352 0.88859 0.13449 0.0
C167 C 0.99543 0.87823 0.1312 0.0
C168 C 0.07605 0.79822 0.0736 0.0
C169 C 0.04022 0.7837 0.13584 0.0
C170 C 0.12896 0.77115 0.13915 0.0
Eu171 Eu 0.09359 0.79819 0.13152 0.0
C172 C 0.15042 0.77073 0.12309 0.0
C173 C 0.16837 0.78656 0.12848 0.0
C174 C 0.18475 0.79193 0.10911 0.0
C175 C 0.18354 0.78144 0.0841 0.0
C176 C 0.16721 0.76376 0.07975 0.0
C177 C 0.15088 0.75834 0.09914 0.0
C178 C 0.08086 0.8328 0.16525 0.0
C179 C 0.11304 0.84013 0.09312 0.0
O180 O 0.04129 0.86168 0.12225 0.0
O181 O 0.03261 0.84818 0.08329 0.0
O182 O 0.07165 0.81943 0.06602 0.0
O183 O 0.07035 0.79574 0.09746 0.0
O184 O 0.03552 0.80466 0.12611 0.0
O185 O 0.06184 0.77669 0.13938 0.0
O186 O 0.1101 0.76437 0.12702 0.0
O187 O 0.12546 0.79004 0.15294 0.0
O188 O 0.08187 0.81095 0.17154 0.0
O189 O 0.08528 0.83503 0.1408 0.0
O190 O 0.11615 0.8188 0.10236 0.0
O191 O 0.09274 0.85066 0.09555 0.0
H192 H 0.9929 0.8677 0.06505 0.0
H193 H 0.95458 0.88551 0.07083 0.0
H194 H 0.96855 0.89451 0.15401 0.0
H195 H 1.00676 0.87692 0.14821 0.0
H196 H 0.16867 0.79622 0.14684 0.0
H197 H 0.19722 0.80555 0.11307 0.0
H198 H 0.16638 0.75488 0.06091 0.0
H199 H 0.13758 0.7457 0.09454 0.0
C200 C 0.67694 0.0225 0.09475 0.0
Eu201 Eu 0.706 0.05601 0.10655 0.0
C202 C 0.66958 0.99817 0.10035 0.0
C203 C 0.66625 0.98261 0.0793 0.0
C204 C 0.65575 0.96091 0.08349 0.0
C205 C 0.64808 0.95425 0.10885 0.0
C206 C 0.65222 0.96952 0.13007 0.0
C207 C 0.66284 0.99114 0.1259 0.0
C208 C 0.73965 0.07678 0.07655 0.0
C209 C 0.75352 0.03715 0.13502 0.0
C210 C 0.75705 0.12318 0.15715 0.0
Eu211 Eu 0.73444 0.08884 0.13616 0.0
C212 C 0.74903 0.14667 0.16298 0.0
C213 C 0.7251 0.1515 0.16224 0.0
C214 C 0.71742 0.17403 0.15718 0.0
C215 C 0.73368 0.1917 0.15245 0.0
C216 C 0.75732 0.18744 0.15785 0.0
C217 C 0.765 0.1649 0.16279 0.0
C218 C 0.69815 0.07237 0.16544 0.0
C219 C 0.69287 0.10903 0.09738 0.0
O220 O 0.67349 0.03789 0.11332 0.0
O221 O 0.69609 0.02633 0.08145 0.0
O222 O 0.71909 0.07155 0.06761 0.0
O223 O 0.7419 0.06937 0.09988 0.0
O224 O 0.73208 0.03177 0.12755 0.0
O225 O 0.75972 0.05907 0.13703 0.0
O226 O 0.75775 0.1183 0.13192 0.0
O227 O 0.74753 0.10668 0.17108 0.0
O228 O 0.71968 0.07175 0.17273 0.0
O229 O 0.69743 0.07865 0.14147 0.0
O230 O 0.71214 0.11351 0.11086 0.0
O231 O 0.68535 0.08757 0.09461 0.0
H232 H 0.67096 0.98762 0.05936 0.0
H233 H 0.65273 0.94978 0.06661 0.0
H234 H 0.64694 0.96489 0.14994 0.0
H235 H 0.66506 1.00265 0.14262 0.0
H236 H 0.7125 0.13753 0.16249 0.0
H237 H 0.69912 0.17692 0.15332 0.0
H238 H 0.7703 0.20071 0.15437 0.0
H239 H 0.7835 0.16139 0.1634 0.0
C240 C 0.50916 0.67329 0.10493 0.0
Eu241 Eu 0.47745 0.70607 0.10561 0.0
C242 C 0.534 0.66616 0.10842 0.0
C243 C 0.54834 0.66206 0.08634 0.0
C244 C 0.57036 0.6517 0.08929 0.0
C245 C 0.57856 0.64488 0.11439 0.0
C246 C 0.56449 0.6497 0.13652 0.0
C247 C 0.54257 0.66013 0.13359 0.0
C248 C 0.46468 0.73782 0.06825 0.0
C249 C 0.49728 0.75514 0.13187 0.0
C250 C 0.41063 0.77359 0.12235 0.0
Eu251 Eu 0.44362 0.74281 0.12353 0.0
C252 C 0.39196 0.77677 0.10276 0.0
C253 C 0.37935 0.7576 0.09356 0.0
C254 C 0.36426 0.75987 0.07219 0.0
C255 C 0.36101 0.78148 0.05981 0.0
C256 C 0.37314 0.80085 0.06957 0.0
C257 C 0.38866 0.79846 0.09069 0.0
C258 C 0.45237 0.71043 0.16166 0.0
C259 C 0.42511 0.69768 0.0899 0.0
O260 O 0.49725 0.67923 0.12598 0.0
O261 O 0.50291 0.68496 0.08382 0.0
O262 O 0.46764 0.71589 0.06287 0.0
O263 O 0.4695 0.74145 0.09205 0.0
O264 O 0.50189 0.7339 0.12293 0.0
O265 O 0.47574 0.76277 0.13409 0.0
O266 O 0.43151 0.77751 0.11327 0.0
O267 O 0.40968 0.75489 0.13708 0.0
O268 O 0.45029 0.73259 0.16601 0.0
O269 O 0.44994 0.70653 0.13714 0.0
O270 O 0.42267 0.72012 0.09498 0.0
O271 O 0.44451 0.68669 0.09607 0.0
H272 H 0.54221 0.66605 0.06662 0.0
H273 H 0.58051 0.64811 0.07173 0.0
H274 H 0.57026 0.64507 0.15621 0.0
H275 H 0.53201 0.66272 0.15108 0.0
H276 H 0.38154 0.74063 0.10244 0.0
H277 H 0.35533 0.74454 0.06519 0.0
H278 H 0.37051 0.8179 0.06107 0.0
H279 H 0.39837 0.81346 0.09731 0.0
C280 C 0.86173 0.51597 0.09236 0.0
Eu281 Eu 0.83235 0.48253 0.10343 0.0
C282 C 0.86948 0.54 0.09887 0.0
C283 C 0.87208 0.55642 0.07852 0.0
C284 C 0.88264 0.57797 0.08336 0.0
C285 C 0.89108 0.58363 0.10869 0.0
C286 C 0.88775 0.56745 0.12925 0.0
C287 C 0.87709 0.54595 0.12443 0.0
C288 C 0.79896 0.46167 0.07339 0.0
C289 C 0.78494 0.5012 0.13383 0.0
C290 C 0.78111 0.41232 0.14743 0.0
Eu291 Eu 0.8033 0.44915 0.13323 0.0
C292 C 0.78351 0.38968 0.13412 0.0
C293 C 0.80026 0.37367 0.14297 0.0
C294 C 0.80732 0.3554 0.12673 0.0
C295 C 0.79777 0.35283 0.10134 0.0
C296 C 0.77996 0.36796 0.09326 0.0
C297 C 0.77283 0.38609 0.10949 0.0
C298 C 0.83838 0.46645 0.16326 0.0
C299 C 0.84362 0.42947 0.0924 0.0
O300 O 0.86539 0.49978 0.11004 0.0
O301 O 0.84222 0.51296 0.0795 0.0
O302 O 0.81927 0.46756 0.06415 0.0
O303 O 0.79689 0.46878 0.09683 0.0
O304 O 0.80551 0.50653 0.12349 0.0
O305 O 0.77926 0.47944 0.13871 0.0
O306 O 0.77143 0.42881 0.13346 0.0
O307 O 0.79967 0.41955 0.15978 0.0
O308 O 0.81674 0.46566 0.17055 0.0
O309 O 0.8398 0.46045 0.13917 0.0
O310 O 0.82415 0.42546 0.10561 0.0
O311 O 0.85201 0.45068 0.09019 0.0
H312 H 0.86669 0.55226 0.05857 0.0
H313 H 0.88504 0.58981 0.06694 0.0
H314 H 0.89364 0.57127 0.1491 0.0
H315 H 0.87544 0.53374 0.14062 0.0
H316 H 0.80884 0.37598 0.16183 0.0
H317 H 0.82087 0.34385 0.13369 0.0
H318 H 0.77139 0.36579 0.07436 0.0
H319 H 0.75966 0.39789 0.10215 0.0
C320 C 0.40508 0.7749 0.62792 0.0
Eu321 Eu 0.44297 0.79873 0.62294 0.0
C322 C 0.38129 0.78263 0.6213 0.0
C323 C 0.37073 0.8009 0.63539 0.0
C324 C 0.35153 0.81252 0.62487 0.0
C325 C 0.34271 0.80616 0.6001 0.0
C326 C 0.35202 0.78678 0.58706 0.0
C327 C 0.37103 0.77498 0.59769 0.0
C328 C 0.45504 0.83193 0.65864 0.0
C329 C 0.42767 0.84429 0.58745 0.0
C330 C 0.51345 0.86093 0.59933 0.0
Eu331 Eu 0.47944 0.83076 0.60241 0.0
C332 C 0.5382 0.86798 0.60344 0.0
C333 C 0.55308 0.87143 0.58168 0.0
C334 C 0.57484 0.88218 0.58484 0.0
C335 C 0.58222 0.89008 0.60982 0.0
C336 C 0.56769 0.88582 0.63171 0.0
C337 C 0.54605 0.87496 0.62858 0.0
C338 C 0.4639 0.79811 0.5674 0.0
C339 C 0.49515 0.78066 0.62987 0.0
O340 O 0.41903 0.7728 0.60763 0.0
O341 O 0.41514 0.7852 0.6479 0.0
O342 O 0.45274 0.81003 0.66409 0.0
O343 O 0.45224 0.83505 0.634 0.0
O344 O 0.42255 0.82297 0.59532 0.0
O345 O 0.44861 0.85296 0.59115 0.0
O346 O 0.5003 0.85797 0.62019 0.0
O347 O 0.50765 0.84731 0.57966 0.0
O348 O 0.46865 0.81937 0.56037 0.0
O349 O 0.46859 0.79547 0.5914 0.0
O350 O 0.50138 0.80209 0.62286 0.0
O351 O 0.47304 0.77448 0.62988 0.0
H352 H 0.37815 0.80727 0.65366 0.0
H353 H 0.34455 0.82741 0.63528 0.0
H354 H 0.34514 0.78139 0.56812 0.0
H355 H 0.37871 0.76093 0.58652 0.0
H356 H 0.54748 0.86669 0.56197 0.0
H357 H 0.5854 0.88527 0.56747 0.0
H358 H 0.57286 0.89131 0.65131 0.0
H359 H 0.53509 0.87288 0.64583 0.0
C360 C 0.76783 0.41029 0.64186 0.0
Eu361 Eu 0.73831 0.44306 0.63034 0.0
C362 C 0.79308 0.40596 0.6434 0.0
C363 C 0.80302 0.40073 0.668 0.0
C364 C 0.82582 0.39259 0.66959 0.0
C365 C 0.83912 0.38937 0.64654 0.0
C366 C 0.82981 0.39651 0.62214 0.0
C367 C 0.80693 0.40462 0.62056 0.0
C368 C 0.7035 0.45502 0.66477 0.0
C369 C 0.69393 0.42373 0.59646 0.0
C370 C 0.67327 0.50947 0.60303 0.0
Eu371 Eu 0.70509 0.47708 0.60745 0.0
C372 C 0.66506 0.534 0.60301 0.0
C373 C 0.64622 0.54005 0.58675 0.0
C374 C 0.63532 0.56175 0.58912 0.0
C375 C 0.64299 0.57814 0.60781 0.0
C376 C 0.66256 0.57245 0.62334 0.0
C377 C 0.67337 0.55057 0.6211 0.0
C378 C 0.73765 0.46078 0.57274 0.0
C379 C 0.75515 0.49608 0.63106 0.0
O380 O 0.75895 0.42431 0.65947 0.0
O381 O 0.75851 0.41284 0.61844 0.0
O382 O 0.72533 0.45397 0.67069 0.0
O383 O 0.70125 0.45109 0.64031 0.0
O384 O 0.71535 0.41973 0.60487 0.0
O385 O 0.68438 0.44452 0.59881 0.0
O386 O 0.67982 0.50029 0.62554 0.0
O387 O 0.68448 0.50098 0.58264 0.0
O388 O 0.71636 0.4656 0.56585 0.0
O389 O 0.74078 0.46645 0.59644 0.0
O390 O 0.73326 0.50139 0.62499 0.0
O391 O 0.76193 0.47418 0.63148 0.0
H392 H 0.79269 0.40159 0.6859 0.0
H393 H 0.83225 0.38695 0.68867 0.0
H394 H 0.83971 0.39439 0.60408 0.0
H395 H 0.79976 0.40861 0.60134 0.0
H396 H 0.63932 0.52759 0.57279 0.0
H397 H 0.62058 0.56556 0.57653 0.0
H398 H 0.66892 0.58453 0.63801 0.0
H399 H 0.68773 0.54634 0.63409 0.0
C400 C 0.12354 0.7699 0.6338 0.0
Eu401 Eu 0.091 0.73905 0.62856 0.0
C402 C 0.13546 0.78448 0.61397 0.0
C403 C 0.15768 0.77821 0.60511 0.0
C404 C 0.16847 0.79071 0.58498 0.0
C405 C 0.15736 0.80993 0.57318 0.0
C406 C 0.13538 0.81661 0.58263 0.0
C407 C 0.12444 0.80392 0.60263 0.0
C408 C 0.08032 0.70537 0.66479 0.0
C409 C 0.11164 0.6963 0.59366 0.0
C410 C 0.02722 0.67149 0.60227 0.0
Eu411 Eu 0.05844 0.7044 0.60643 0.0
C412 C 1.00262 0.6635 0.60214 0.0
C413 C 0.99673 0.64418 0.58665 0.0
C414 C 0.97481 0.63374 0.58888 0.0
C415 C 0.95804 0.64236 0.60665 0.0
C416 C 0.96361 0.66237 0.6214 0.0
C417 C 0.98571 0.67274 0.6193 0.0
C418 C 0.07377 0.7366 0.57071 0.0
C419 C 0.03705 0.7534 0.63 0.0
O420 O 0.10161 0.77435 0.63808 0.0
O421 O 0.12771 0.74764 0.63245 0.0
O422 O 0.0823 0.72727 0.67004 0.0
O423 O 0.08374 0.70237 0.6403 0.0
O424 O 0.11357 0.7186 0.59952 0.0
O425 O 0.09202 0.68518 0.59846 0.0
O426 O 0.03608 0.67851 0.62472 0.0
O427 O 0.03566 0.68262 0.5818 0.0
O428 O 0.07034 0.71491 0.56465 0.0
O429 O 0.06781 0.74014 0.59423 0.0
O430 O 0.03261 0.73192 0.62193 0.0
O431 O 0.05862 0.76067 0.63261 0.0
H432 H 0.16671 0.76347 0.61363 0.0
H433 H 0.18582 0.78554 0.57914 0.0
H434 H 0.12654 0.83161 0.57466 0.0
H435 H 0.10731 0.8093 0.60906 0.0
H436 H 1.00945 0.6366 0.5734 0.0
H437 H 0.97111 0.61863 0.57688 0.0
H438 H 0.95124 0.66947 0.63537 0.0
H439 H 0.9898 0.68752 0.63166 0.0
C440 C 0.78127 0.12891 0.65169 0.0
Eu441 Eu 0.80183 0.09237 0.63387 0.0
C442 C 0.7941 0.14892 0.66225 0.0
C443 C 0.78897 0.17132 0.65322 0.0
C444 C 0.80478 0.18936 0.65727 0.0
C445 C 0.82603 0.18521 0.67029 0.0
C446 C 0.83046 0.16309 0.68074 0.0
C447 C 0.81469 0.1451 0.67667 0.0
C448 C 0.83775 0.07752 0.66487 0.0
C449 C 0.84428 0.1125 0.59656 0.0
C450 C 0.8615 0.02575 0.59638 0.0
Eu451 Eu 0.83174 0.05934 0.60602 0.0
C452 C 0.8685 1.00109 0.6012 0.0
C453 C 0.86757 0.98473 0.58062 0.0
C454 C 0.87759 0.96259 0.58356 0.0
C455 C 0.88904 0.95619 0.60713 0.0
C456 C 0.88929 0.97238 0.628 0.0
C457 C 0.87921 0.99445 0.62509 0.0
C458 C 0.79859 0.07913 0.57464 0.0
C459 C 0.78292 0.0408 0.63264 0.0
O460 O 0.78445 0.12541 0.62639 0.0
O461 O 0.78274 0.10973 0.66548 0.0
O462 O 0.81616 0.07765 0.67191 0.0
O463 O 0.83891 0.08276 0.6406 0.0
O464 O 0.8247 0.11669 0.60941 0.0
O465 O 0.85219 0.09109 0.59399 0.0
O466 O 0.86317 0.04032 0.6161 0.0
O467 O 0.84379 0.03042 0.58098 0.0
O468 O 0.81947 0.07419 0.56634 0.0
O469 O 0.79595 0.07197 0.59796 0.0
O470 O 0.80466 0.03543 0.62606 0.0
O471 O 0.77643 0.06275 0.63393 0.0
H472 H 0.77343 0.17457 0.6417 0.0
H473 H 0.80074 0.20639 0.64942 0.0
H474 H 0.8467 0.15931 0.6907 0.0
H475 H 0.8194 0.12786 0.6834 0.0
H476 H 0.85974 0.9893 0.56185 0.0
H477 H 0.87661 0.95061 0.56713 0.0
H478 H 0.89815 0.96844 0.64633 0.0
H479 H 0.88064 1.0066 0.64131 0.0
C480 C 0.90972 0.26556 0.89154 0.0
Eu481 Eu 0.9456 0.23949 0.90003 0.0
C482 C 0.88585 0.26038 0.90033 0.0
C483 C 0.87409 0.24099 0.89008 0.0
C484 C 0.85613 0.23072 0.90438 0.0
C485 C 0.84971 0.23957 0.9292 0.0
C486 C 0.85947 0.26061 0.93775 0.0
C487 C 0.87735 0.27098 0.92339 0.0
C488 C 0.95937 0.20537 0.86644 0.0
C489 C 0.92605 0.19625 0.93744 0.0
C490 C 1.0121 0.1757 0.93228 0.0
Eu491 Eu 0.97926 0.20684 0.92521 0.0
C492 C 0.03651 0.16805 0.92676 0.0
C493 C 0.05433 0.1717 0.94534 0.0
C494 C 0.07635 0.16143 0.94206 0.0
C495 C 0.0812 0.14701 0.92019 0.0
C496 C 0.0635 0.14392 0.90127 0.0
C497 C 0.04154 0.15421 0.90453 0.0
C498 C 0.96159 0.24001 0.95804 0.0
C499 C 0.99868 0.25509 0.8971 0.0
O500 O 0.92437 0.26928 0.9108 0.0
O501 O 0.91846 0.25192 0.87338 0.0
O502 O 0.9585 0.22729 0.86043 0.0
O503 O 0.95471 0.20274 0.89084 0.0
O504 O 0.92176 0.216 0.92483 0.0
O505 O 0.94731 0.18772 0.93907 0.0
O506 O 0.99713 0.17529 0.91279 0.0
O507 O 1.00825 0.19288 0.94869 0.0
O508 O 0.9659 0.21886 0.96581 0.0
O509 O 0.96818 0.24254 0.93452 0.0
O510 O 1.00358 0.23386 0.90592 0.0
O511 O 0.97697 0.26202 0.89422 0.0
H512 H 0.88001 0.23248 0.87221 0.0
H513 H 0.84868 0.21477 0.89694 0.0
H514 H 0.854 0.26851 0.95613 0.0
H515 H 0.88587 0.28612 0.93155 0.0
H516 H 0.05107 0.18196 0.96289 0.0
H517 H 0.08949 0.16459 0.95692 0.0
H518 H 0.06622 0.13272 0.88438 0.0
H519 H 0.02822 0.15057 0.89001 0.0
C520 C 0.27039 0.91257 0.88559 0.0
Eu521 Eu 0.30013 0.94501 0.8969 0.0
C522 C 0.25024 0.90246 0.89924 0.0
C523 C 0.22935 0.89934 0.88546 0.0
C524 C 0.21074 0.88786 0.89744 0.0
C525 C 0.21293 0.87913 0.92325 0.0
C526 C 0.23344 0.88338 0.93748 0.0
C527 C 0.25186 0.89518 0.9257 0.0
C528 C 0.33441 0.95804 0.86219 0.0
C529 C 0.34232 0.92432 0.93333 0.0
C530 C 0.36381 1.01008 0.92953 0.0
Eu531 Eu 0.33255 0.97765 0.92146 0.0
C532 C 0.37091 0.03473 0.92505 0.0
C533 C 0.37409 0.04966 0.94673 0.0
C534 C 0.38413 0.07171 0.94342 0.0
C535 C 0.39152 0.0794 0.91832 0.0
C536 C 0.38765 0.0647 0.89651 0.0
C537 C 0.37752 0.04271 0.89981 0.0
C538 C 0.30036 0.95966 0.95563 0.0
C539 C 0.28364 0.99786 0.89793 0.0
O540 O 0.26813 0.93394 0.87741 0.0
O541 O 0.29072 0.90854 0.89612 0.0
O542 O 0.31258 0.95646 0.85654 0.0
O543 O 0.33692 0.95373 0.88655 0.0
O544 O 0.32099 0.92111 0.92423 0.0
O545 O 0.35226 0.94493 0.93183 0.0
O546 O 0.36377 0.99605 0.9092 0.0
O547 O 0.34711 1.00543 0.94631 0.0
O548 O 0.32191 0.96334 0.96218 0.0
O549 O 0.29684 0.96655 0.93243 0.0
O550 O 0.30579 1.00266 0.90268 0.0
O551 O 0.27651 0.97615 0.89845 0.0
H552 H 0.22773 0.90504 0.86513 0.0
H553 H 0.19524 0.8845 0.88593 0.0
H554 H 0.23543 0.87698 0.95749 0.0
H555 H 0.26761 0.89784 0.93701 0.0
H556 H 0.36956 0.04396 0.96648 0.0
H557 H 0.38698 0.08233 0.96075 0.0
H558 H 0.39271 0.07007 0.87681 0.0
H559 H 0.37552 0.03172 0.88261 0.0
C560 C 0.62281 0.26322 0.89541 0.0
Eu561 Eu 0.59165 0.29521 0.90268 0.0
C562 C 0.63627 0.24995 0.91489 0.0
C563 C 0.64726 0.26134 0.93591 0.0
C564 C 0.65767 0.24865 0.95605 0.0
C565 C 0.65704 0.22421 0.95598 0.0
C566 C 0.64617 0.21284 0.93471 0.0
C567 C 0.63582 0.22563 0.91439 0.0
C568 C 0.58098 0.32931 0.86693 0.0
C569 C 0.61319 0.33675 0.93873 0.0
C570 C 0.52886 0.36362 0.93022 0.0
Eu571 Eu 0.55976 0.33027 0.92538 0.0
C572 C 0.50417 0.37113 0.92634 0.0
C573 C 0.4877 0.36949 0.94685 0.0
C574 C 0.4655 0.37953 0.9442 0.0
C575 C 0.45915 0.39167 0.92104 0.0
C576 C 0.47554 0.39283 0.90038 0.0
C577 C 0.49765 0.38278 0.903 0.0
C578 C 0.57449 0.29738 0.96067 0.0
C579 C 0.5375 0.28261 0.89978 0.0
O580 O 0.60057 0.259 0.89578 0.0
O581 O 0.62737 0.28539 0.89347 0.0
O582 O 0.58234 0.30739 0.8615 0.0
O583 O 0.58483 0.33205 0.89134 0.0
O584 O 0.61477 0.31448 0.93239 0.0
O585 O 0.59374 0.34835 0.93427 0.0
O586 O 0.54149 0.36012 0.90905 0.0
O587 O 0.53419 0.34931 0.94946 0.0
O588 O 0.57181 0.31918 0.96689 0.0
O589 O 0.56839 0.29417 0.93711 0.0
O590 O 0.53353 0.30411 0.90811 0.0
O591 O 0.55887 0.27475 0.89728 0.0
H592 H 0.64768 0.2801 0.93701 0.0
H593 H 0.66661 0.25819 0.97138 0.0
H594 H 0.64524 0.1941 0.93394 0.0
H595 H 0.62702 0.21654 0.89856 0.0
H596 H 0.49214 0.36095 0.96525 0.0
H597 H 0.45338 0.37793 0.96048 0.0
H598 H 0.47168 0.40231 0.88241 0.0
H599 H 0.50994 0.38487 0.88695 0.0
C600 C 0.2645 0.62828 0.89174 0.0
Eu601 Eu 0.23964 0.59177 0.9003 0.0
C602 C 0.25533 0.6522 0.8924 0.0
C603 C 0.23727 0.65872 0.87515 0.0
C604 C 0.22282 0.67737 0.88133 0.0
C605 C 0.2261 0.68985 0.90485 0.0
C606 C 0.24557 0.68481 0.92067 0.0
C607 C 0.26014 0.66623 0.91439 0.0
C608 C 0.20484 0.58027 0.8662 0.0
C609 C 0.19529 0.6117 0.93522 0.0
C610 C 0.17449 0.52587 0.92844 0.0
Eu611 Eu 0.206 0.55843 0.92373 0.0
C612 C 0.16767 0.50095 0.92657 0.0
C613 C 0.15718 0.49011 0.94842 0.0
C614 C 0.14691 0.46813 0.94604 0.0
C615 C 0.1467 0.45632 0.92164 0.0
C616 C 0.15806 0.46682 0.9 0.0
C617 C 0.16834 0.48883 0.90241 0.0
C618 C 0.23902 0.57432 0.95771 0.0
C619 C 0.2556 0.5388 0.89802 0.0
O620 O 0.26407 0.61767 0.9146 0.0
O621 O 0.25705 0.61501 0.87254 0.0
O622 O 0.22672 0.5809 0.86009 0.0
O623 O 0.20255 0.58428 0.8907 0.0
O624 O 0.21634 0.61535 0.92547 0.0
O625 O 0.18576 0.59086 0.93419 0.0
O626 O 0.17882 0.53713 0.90647 0.0
O627 O 0.18725 0.533 0.94829 0.0
O628 O 0.21762 0.57048 0.96494 0.0
O629 O 0.24181 0.56825 0.93408 0.0
O630 O 0.23408 0.53396 0.9061 0.0
O631 O 0.26267 0.56051 0.89584 0.0
H632 H 0.2331 0.6484 0.85792 0.0
H633 H 0.20842 0.68133 0.8683 0.0
H634 H 0.24863 0.6941 0.93893 0.0
H635 H 0.27387 0.66154 0.92806 0.0
H636 H 0.15615 0.49905 0.96723 0.0
H637 H 0.13877 0.46054 0.96331 0.0
H638 H 0.15817 0.45849 0.88083 0.0
H639 H 0.17606 0.4967 0.88505 0.0
H640 H 0.6034 0.16321 0.37355 0.0
H641 H 0.61989 0.13791 0.33919 0.0
H642 H 0.58853 0.18071 0.27899 0.0
H643 H 0.57271 0.20633 0.31313 0.0
H644 H 0.60379 0.11128 0.29898 0.0
H645 H 0.65515 0.18326 0.25613 0.0
H646 H 0.63997 0.186 0.28716 0.0
H647 H 0.62459 0.18935 0.25639 0.0
C648 C 0.59971 0.16701 0.353 0.0
C649 C 0.58681 0.18693 0.34612 0.0
C650 C 0.60926 0.15256 0.3333 0.0
C651 C 0.60612 0.15765 0.30628 0.0
C652 C 0.59196 0.1767 0.29954 0.0
H653 H 0.6599 0.10033 0.15752 0.0
H654 H 0.63601 0.11931 0.19143 0.0
C655 C 0.58265 0.19124 0.31914 0.0
C656 C 0.61811 0.1436 0.28519 0.0
H657 H 0.65441 0.14818 0.23163 0.0
C658 C 0.61491 0.11939 0.28434 0.0
C659 C 0.63284 0.15396 0.26597 0.0
C660 C 0.63856 0.17952 0.26656 0.0
C661 C 0.62553 0.1055 0.26469 0.0
C662 C 0.63995 0.11594 0.24533 0.0
C663 C 0.64318 0.1401 0.2462 0.0
C664 C 0.65257 0.1022 0.22455 0.0
C665 C 0.6209 0.07975 0.26454 0.0
C666 C 0.66968 0.08588 0.23162 0.0
C667 C 0.68341 0.07501 0.21222 0.0
C668 C 0.68039 0.08011 0.1852 0.0
C669 C 0.66256 0.09569 0.17805 0.0
C670 C 0.64897 0.10673 0.1975 0.0
H671 H 0.6051 0.07528 0.2761 0.0
H672 H 0.61878 0.07325 0.24402 0.0
H673 H 0.6359 0.07057 0.27357 0.0
H674 H 0.67318 0.08229 0.25225 0.0
H675 H 0.69714 0.06334 0.21848 0.0
H676 H 0.45621 0.7152 0.21519 0.0
H677 H 0.44016 0.69008 0.24974 0.0
H678 H 0.41504 0.64301 0.19005 0.0
H679 H 0.43195 0.6676 0.15557 0.0
H680 H 0.39736 0.68054 0.26 0.0
H681 H 0.43999 0.59634 0.23994 0.0
H682 H 0.44945 0.6229 0.22444 0.0
H683 H 0.42504 0.60707 0.21137 0.0
C684 C 0.44777 0.69918 0.20947 0.0
C685 C 0.44558 0.69337 0.18257 0.0
C686 C 0.43844 0.68484 0.22928 0.0
C687 C 0.42648 0.66431 0.22283 0.0
C688 C 0.42468 0.65827 0.1959 0.0
H689 H 0.32788 0.57839 0.30942 0.0
H690 H 0.35279 0.59685 0.2761 0.0
C691 C 0.43431 0.67246 0.17607 0.0
C692 C 0.41451 0.65035 0.24406 0.0
H693 H 0.40656 0.59524 0.2683 0.0
C694 C 0.39968 0.66193 0.2619 0.0
C695 C 0.4173 0.62595 0.24685 0.0
C696 C 0.43399 0.61238 0.2298 0.0
C697 C 0.38736 0.64992 0.28177 0.0
C698 C 0.38977 0.62556 0.28412 0.0
C699 C 0.40463 0.6139 0.2665 0.0
C700 C 0.37642 0.61204 0.30438 0.0
C701 C 0.37137 0.66331 0.29986 0.0
C702 C 0.38178 0.61373 0.33144 0.0
C703 C 0.36771 0.6029 0.35058 0.0
C704 C 0.3478 0.59033 0.34308 0.0
C705 C 0.34309 0.58785 0.31591 0.0
C706 C 0.3573 0.59846 0.2968 0.0
H707 H 0.36897 0.68157 0.2933 0.0
H708 H 0.3541 0.65479 0.3009 0.0
H709 H 0.37876 0.66345 0.32012 0.0
H710 H 0.39649 0.624 0.33782 0.0
H711 H 0.3718 0.60535 0.37129 0.0
H712 H 0.96705 0.33574 0.30983 0.0
H713 H 0.9515 0.36187 0.27595 0.0
H714 H 0.91949 0.4036 0.33668 0.0
H715 H 0.9357 0.37792 0.37063 0.0
H716 H 0.90795 0.36892 0.26394 0.0
H717 H 0.94424 0.45437 0.29136 0.0
H718 H 0.95481 0.42763 0.30559 0.0
H719 H 0.92881 0.44113 0.31821 0.0
C720 C 0.95722 0.35085 0.31601 0.0
C721 C 0.95281 0.35476 0.34301 0.0
C722 C 0.94818 0.36575 0.29656 0.0
C723 C 0.93437 0.38501 0.30349 0.0
C724 C 0.93051 0.38933 0.33057 0.0
H725 H 0.83764 0.47323 0.21678 0.0
H726 H 0.8626 0.45486 0.25008 0.0
C727 C 0.93978 0.37453 0.35008 0.0
C728 C 0.92258 0.39923 0.28237 0.0
H729 H 0.91262 0.45481 0.26058 0.0
C730 C 0.90927 0.38768 0.26312 0.0
C731 C 0.92402 0.42382 0.28109 0.0
C732 C 0.93893 0.43745 0.30001 0.0
C733 C 0.89712 0.39984 0.24323 0.0
C734 C 0.89835 0.42439 0.24215 0.0
C735 C 0.91166 0.43602 0.26129 0.0
C736 C 0.88524 0.4381 0.22178 0.0
C737 C 0.88248 0.38632 0.22391 0.0
C738 C 0.89016 0.43573 0.19465 0.0
C739 C 0.87601 0.44645 0.1755 0.0
C740 C 0.85651 0.45972 0.18303 0.0
C741 C 0.8525 0.46319 0.21023 0.0
C742 C 0.86674 0.45261 0.22934 0.0
H743 H 0.87949 0.3682 0.23062 0.0
H744 H 0.86537 0.39488 0.22092 0.0
H745 H 0.89149 0.38567 0.20451 0.0
H746 H 0.90452 0.42494 0.18823 0.0
H747 H 0.87963 0.44327 0.1548 0.0
H748 H 0.20755 0.96285 0.31413 0.0
H749 H 0.18261 0.9467 0.27957 0.0
H750 H 0.13793 0.9173 0.33932 0.0
H751 H 0.16235 0.93427 0.37388 0.0
H752 H 0.1756 0.90351 0.2685 0.0
H753 H 0.08917 0.94071 0.2908 0.0
H754 H 0.11535 0.95138 0.30612 0.0
H755 H 0.10116 0.92581 0.31878 0.0
C756 C 0.19203 0.9535 0.31989 0.0
C757 C 0.18689 0.95007 0.34681 0.0
C758 C 0.17781 0.94409 0.30007 0.0
C759 C 0.15808 0.93083 0.30654 0.0
C760 C 0.15257 0.92792 0.33351 0.0
H761 H 0.07523 0.83072 0.21886 0.0
H762 H 0.09254 0.8561 0.25238 0.0
C763 C 0.16665 0.93762 0.35337 0.0
C764 C 0.1446 0.91858 0.28519 0.0
H765 H 0.08977 0.9081 0.26136 0.0
C766 C 0.15686 0.90483 0.26685 0.0
C767 C 0.12004 0.92003 0.28277 0.0
C768 C 0.1057 0.93547 0.3005 0.0
C769 C 0.1454 0.89229 0.24681 0.0
C770 C 0.12089 0.89342 0.24473 0.0
C771 C 0.10855 0.90717 0.26291 0.0
C772 C 0.10795 0.8798 0.22427 0.0
C773 C 0.15958 0.87738 0.2283 0.0
C774 C 0.11007 0.88506 0.1972 0.0
C775 C 0.09993 0.87069 0.17793 0.0
C776 C 0.08758 0.8506 0.1853 0.0
C777 C 0.08456 0.84604 0.21246 0.0
C778 C 0.09451 0.86053 0.23169 0.0
H779 H 0.17781 0.87529 0.23515 0.0
H780 H 0.15163 0.85992 0.22628 0.0
H781 H 0.15988 0.88553 0.20842 0.0
H782 H 0.12018 0.89993 0.19093 0.0
H783 H 0.10273 0.87471 0.15725 0.0
H784 H 0.33163 0.96362 0.80864 0.0
H785 H 0.35625 0.9458 0.77461 0.0
H786 H 0.40076 0.91765 0.83516 0.0
H787 H 0.37628 0.93559 0.86934 0.0
H788 H 0.40763 0.94766 0.76386 0.0
H789 H 0.37522 0.86023 0.79225 0.0
H790 H 0.36031 0.88659 0.80159 0.0
H791 H 0.38639 0.87809 0.81848 0.0
C792 C 0.34695 0.95407 0.81473 0.0
C793 C 0.35191 0.95106 0.84179 0.0
C794 C 0.361 0.94382 0.7952 0.0
C795 C 0.38023 0.93007 0.80222 0.0
C796 C 0.38591 0.92796 0.82918 0.0
H797 H 0.4619 0.82938 0.71185 0.0
H798 H 0.44599 0.85468 0.74626 0.0
C799 C 0.37198 0.93841 0.84874 0.0
C800 C 0.39336 0.91684 0.78147 0.0
H801 H 0.40296 0.86188 0.75823 0.0
C802 C 0.40668 0.9289 0.76264 0.0
C803 C 0.39217 0.89234 0.77978 0.0
C804 C 0.37766 0.87843 0.79893 0.0
C805 C 0.4191 0.91714 0.74255 0.0
C806 C 0.41765 0.89259 0.74058 0.0
C807 C 0.40429 0.88062 0.75953 0.0
C808 C 0.42961 0.8788 0.71918 0.0
C809 C 0.43413 0.93121 0.7241 0.0
C810 C 0.42631 0.88392 0.69217 0.0
C811 C 0.43588 0.86963 0.67236 0.0
C812 C 0.4486 0.84956 0.67904 0.0
C813 C 0.45234 0.84476 0.70599 0.0
C814 C 0.44308 0.85919 0.72573 0.0
H815 H 0.43948 0.94787 0.73331 0.0
H816 H 0.45 0.9215 0.71825 0.0
H817 H 0.42408 0.93543 0.70601 0.0
H818 H 0.41552 0.89843 0.68629 0.0
H819 H 0.43226 0.87363 0.65184 0.0
H820 H 0.57704 0.32572 0.81324 0.0
H821 H 0.59406 0.3511 0.77943 0.0
H822 H 0.61826 0.39741 0.84025 0.0
H823 H 0.60113 0.37216 0.87421 0.0
H824 H 0.589 0.40212 0.76838 0.0
H825 H 0.67801 0.37541 0.7987 0.0
H826 H 0.65251 0.35893 0.80763 0.0
H827 H 0.65898 0.38552 0.82449 0.0
C828 C 0.58559 0.34154 0.81942 0.0
C829 C 0.58774 0.34682 0.84649 0.0
C830 C 0.59536 0.35604 0.80003 0.0
C831 C 0.60775 0.37606 0.80721 0.0
C832 C 0.60901 0.38196 0.83416 0.0
H833 H 0.70462 0.46292 0.71786 0.0
H834 H 0.67967 0.44606 0.75206 0.0
C835 C 0.59904 0.36756 0.85358 0.0
C836 C 0.62045 0.38989 0.78666 0.0
H837 H 0.6751 0.40278 0.76444 0.0
C838 C 0.60783 0.40234 0.76753 0.0
C839 C 0.64503 0.39023 0.78548 0.0
C840 C 0.65955 0.37672 0.805 0.0
C841 C 0.61909 0.41536 0.74758 0.0
C842 C 0.64375 0.41542 0.7461 0.0
C843 C 0.65628 0.40295 0.76537 0.0
C844 C 0.65708 0.42797 0.7248 0.0
C845 C 0.60436 0.42938 0.72875 0.0
C846 C 0.65263 0.42404 0.69777 0.0
C847 C 0.66669 0.43412 0.67808 0.0
C848 C 0.68587 0.44801 0.68493 0.0
C849 C 0.68992 0.45244 0.71188 0.0
C850 C 0.67571 0.44264 0.7315 0.0
H851 H 0.58724 0.43378 0.73763 0.0
H852 H 0.61315 0.44573 0.72289 0.0
H853 H 0.60104 0.41898 0.7107 0.0
H854 H 0.6389 0.41236 0.69181 0.0
H855 H 0.66327 0.42999 0.65756 0.0
H856 H 0.1019 0.66314 0.65762 0.0
H857 H 0.11926 0.6382 0.69175 0.0
H858 H 0.09252 0.68347 0.75235 0.0
H859 H 0.07538 0.70859 0.71837 0.0
H860 H 0.15324 0.65589 0.73032 0.0
H861 H 0.07633 0.61639 0.77909 0.0
H862 H 0.07532 0.62793 0.74586 0.0
H863 H 0.07512 0.64724 0.77367 0.0
C864 C 0.09923 0.6675 0.67823 0.0
C865 C 0.08714 0.68788 0.68522 0.0
C866 C 0.10929 0.65327 0.69775 0.0
C867 C 0.10714 0.65881 0.72473 0.0
C868 C 0.09422 0.67859 0.73177 0.0
H869 H 0.16521 0.60645 0.87331 0.0
H870 H 0.14108 0.62436 0.83884 0.0
C871 C 0.08441 0.69297 0.71227 0.0
C872 C 0.11999 0.64515 0.74532 0.0
H873 H 0.11277 0.61066 0.79994 0.0
C874 C 0.14439 0.64583 0.7454 0.0
C875 C 0.10851 0.63231 0.76531 0.0
C876 C 0.08237 0.63069 0.76604 0.0
C877 C 0.15756 0.63448 0.76507 0.0
C878 C 0.14614 0.62125 0.78491 0.0
C879 C 0.12167 0.62058 0.78479 0.0
C880 C 0.15933 0.60842 0.80608 0.0
C881 C 0.1836 0.63765 0.7649 0.0
C882 C 0.17709 0.59261 0.79949 0.0
C883 C 0.19104 0.58253 0.81918 0.0
C884 C 0.18729 0.58752 0.84607 0.0
C885 C 0.16852 0.60209 0.85282 0.0
C886 C 0.15475 0.61244 0.83305 0.0
H887 H 0.18874 0.65361 0.75401 0.0
H888 H 0.19063 0.63874 0.7853 0.0
H889 H 0.19182 0.62265 0.7548 0.0
H890 H 0.18059 0.58847 0.779 0.0
H891 H 0.20527 0.57132 0.81329 0.0
H892 H 0.87626 0.10487 0.65644 0.0
H893 H 0.90058 0.12366 0.69001 0.0
H894 H 0.86271 0.08822 0.75146 0.0
H895 H 0.83836 0.06947 0.71804 0.0
H896 H 0.884 0.15337 0.73024 0.0
H897 H 0.93044 0.07836 0.77434 0.0
H898 H 0.91622 0.07683 0.74257 0.0
H899 H 0.89946 0.07494 0.77249 0.0
C900 C 0.87354 0.10055 0.67705 0.0
C901 C 0.85548 0.08538 0.68448 0.0
C902 C 0.88735 0.11149 0.69629 0.0
C903 C 0.88373 0.10727 0.7234 0.0
C904 C 0.86624 0.09152 0.73077 0.0
H905 H 0.93505 0.1645 0.87261 0.0
H906 H 0.91773 0.14063 0.83763 0.0
C907 C 0.85229 0.08076 0.71158 0.0
C908 C 0.89702 0.1205 0.74399 0.0
H909 H 0.93292 0.11413 0.79756 0.0
C910 C 0.89488 0.14479 0.7448 0.0
C911 C 0.91104 0.1094 0.76328 0.0
C912 C 0.91465 0.08346 0.7631 0.0
C913 C 0.90581 0.15816 0.76456 0.0
C914 C 0.91999 0.14709 0.78384 0.0
C915 C 0.92219 0.12277 0.78292 0.0
C916 C 0.93233 0.16042 0.80522 0.0
C917 C 0.90126 0.18397 0.76507 0.0
C918 C 0.94724 0.17896 0.79898 0.0
C919 C 0.95708 0.19269 0.81898 0.0
C920 C 0.95267 0.18802 0.84584 0.0
C921 C 0.93897 0.16855 0.85217 0.0
C922 C 0.92893 0.15494 0.83211 0.0
H923 H 0.88494 0.18853 0.75451 0.0
H924 H 0.90002 0.19054 0.78565 0.0
H925 H 0.91574 0.19309 0.75497 0.0
H926 H 0.95091 0.1832 0.77854 0.0
H927 H 0.9676 0.20747 0.81336 0.0
H928 H 0.44669 0.10784 0.38912 0.0
H929 H 0.4108 0.08536 0.38582 0.0
H930 H 0.37629 0.13388 0.43744 0.0
H931 H 0.41217 0.15671 0.44064 0.0
H932 H 0.38554 0.06465 0.42915 0.0
H933 H 0.33115 0.12767 0.37326 0.0
H934 H 0.36248 0.12954 0.3742 0.0
H935 H 0.34561 0.1385 0.40225 0.0
C936 C 0.43142 0.11401 0.39949 0.0
C937 C 0.43243 0.13429 0.41501 0.0
C938 C 0.41088 0.101 0.3977 0.0
C939 C 0.39066 0.10799 0.4111 0.0
C940 C 0.39151 0.12825 0.42657 0.0
H941 H 0.25165 0.04326 0.41907 0.0
H942 H 0.28424 0.07076 0.42163 0.0
C943 C 0.41214 0.1412 0.42857 0.0
C944 C 0.36911 0.09349 0.40961 0.0
H945 H 0.3131 0.09278 0.3866 0.0
C946 C 0.36971 0.07083 0.41984 0.0
C947 C 0.3483 0.10156 0.39775 0.0
C948 C 0.34671 0.12558 0.38604 0.0
C949 C 0.35024 0.05607 0.41857 0.0
C950 C 0.3296 0.06381 0.40591 0.0
C951 C 0.32884 0.08668 0.39614 0.0
C952 C 0.30902 0.04816 0.4022 0.0
C953 C 0.3519 0.03243 0.43134 0.0
C954 C 0.31161 0.02668 0.3894 0.0
C955 C 0.2931 1.01095 0.38805 0.0
C956 C 0.27125 1.01639 0.399 0.0
C957 C 0.26816 0.03851 0.41031 0.0
C958 C 0.28686 0.05422 0.41191 0.0
H959 H 0.36536 0.03207 0.44708 0.0
H960 H 0.33503 0.02713 0.44014 0.0
H961 H 0.35691 0.01944 0.41618 0.0
H962 H 0.3282 0.02178 0.38093 0.0
H963 H 0.29612 0.9942 0.37896 0.0
H964 H 0.42888 0.45054 0.38351 0.0
H965 H 0.45189 0.41498 0.37929 0.0
H966 H 0.40575 0.38004 0.4333 0.0
H967 H 0.3824 0.41557 0.43746 0.0
H968 H 0.47457 0.38999 0.42156 0.0
H969 H 0.41022 0.33508 0.36886 0.0
H970 H 0.40797 0.36635 0.36994 0.0
H971 H 0.40016 0.34936 0.39834 0.0
C972 C 0.42335 0.43523 0.39423 0.0
C973 C 0.40358 0.436 0.41069 0.0
C974 C 0.43666 0.4149 0.39191 0.0
C975 C 0.43047 0.39465 0.4057 0.0
C976 C 0.41074 0.39528 0.42213 0.0
H977 H 0.49513 0.25624 0.41372 0.0
H978 H 0.46806 0.28916 0.416 0.0
C979 C 0.3975 0.41571 0.42466 0.0
C980 C 0.44521 0.37328 0.40353 0.0
H981 H 0.4456 0.31718 0.3811 0.0
C982 C 0.46823 0.37409 0.41267 0.0
C983 C 0.43694 0.3524 0.39218 0.0
C984 C 0.41253 0.35062 0.38156 0.0
C985 C 0.48311 0.35468 0.41096 0.0
C986 C 0.47509 0.33392 0.39895 0.0
C987 C 0.45191 0.33302 0.39013 0.0
C988 C 0.49058 0.31316 0.39533 0.0
C989 C 0.50714 0.35651 0.42271 0.0
C990 C 0.51189 0.31518 0.38193 0.0
C991 C 0.52744 0.29643 0.3807 0.0
C992 C 0.52196 0.27494 0.39244 0.0
C993 C 0.49996 0.27245 0.40435 0.0
C994 C 0.48446 0.29134 0.40579 0.0
H995 H 0.50799 0.37029 0.43804 0.0
H996 H 0.5127 0.33984 0.43176 0.0
H997 H 0.51969 0.36112 0.40689 0.0
H998 H 0.51681 0.33149 0.37288 0.0
H999 H 0.5441 0.29901 0.37116 0.0
H1000 H 0.12046 0.38629 0.43945 0.0
H1001 H 0.15585 0.40957 0.43401 0.0
H1002 H 0.11944 0.4554 0.38088 0.0
H1003 H 0.084 0.43256 0.3865 0.0
H1004 H 0.18158 0.42174 0.38656 0.0
H1005 H 0.14645 0.49949 0.43754 0.0
H1006 H 0.13322 0.47121 0.44047 0.0
H1007 H 0.12843 0.48853 0.4114 0.0
C1008 C 0.11992 0.40138 0.42669 0.0
C1009 C 0.0992 0.40747 0.41348 0.0
C1010 C 0.14026 0.41462 0.42347 0.0
C1011 C 0.14035 0.43446 0.40726 0.0
C1012 C 0.11983 0.44038 0.39376 0.0
H1013 H 0.23638 0.54629 0.37062 0.0
H1014 H 0.20411 0.51889 0.37272 0.0
C1015 C 0.09957 0.4271 0.39681 0.0
C1016 C 0.16171 0.44915 0.40459 0.0
H1017 H 0.1825 0.5039 0.41561 0.0
C1018 C 0.18184 0.43968 0.39302 0.0
C1019 C 0.16216 0.47259 0.41299 0.0
C1020 C 0.14151 0.48358 0.42651 0.0
C1021 C 0.20205 0.45314 0.38894 0.0
C1022 C 0.20244 0.47668 0.3972 0.0
C1023 C 0.18235 0.48598 0.40908 0.0
C1024 C 0.22322 0.49218 0.39359 0.0
C1025 C 0.22248 0.44218 0.375 0.0
C1026 C 0.24514 0.48635 0.40411 0.0
C1027 C 0.26387 0.502 0.4026 0.0
C1028 C 0.26107 0.52403 0.3909 0.0
C1029 C 0.23931 0.52951 0.37974 0.0
C1030 C 0.22071 0.51384 0.38105 0.0
H1031 H 0.21713 0.42687 0.36315 0.0
H1032 H 0.23123 0.45479 0.36172 0.0
H1033 H 0.23525 0.43616 0.38995 0.0
H1034 H 0.24757 0.47008 0.41445 0.0
H1035 H 0.2802 0.49726 0.4118 0.0
H1036 H 0.15341 0.12319 0.44317 0.0
H1037 H 0.13094 0.15936 0.43932 0.0
H1038 H 0.08301 0.12549 0.38665 0.0
H1039 H 0.10507 0.08934 0.39059 0.0
H1040 H 0.1179 0.18607 0.39152 0.0
H1041 H 0.04152 0.15278 0.44675 0.0
H1042 H 0.06978 0.13916 0.44851 0.0
H1043 H 0.05143 0.13444 0.42031 0.0
C1044 C 0.13804 0.12339 0.43083 0.0
C1045 C 0.13114 0.1032 0.41721 0.0
C1046 C 0.12528 0.14416 0.42852 0.0
C1047 C 0.10512 0.14518 0.41287 0.0
C1048 C 0.09835 0.12516 0.39904 0.0
H1049 H 0.99338 0.24061 0.37831 0.0
H1050 H 0.02109 0.20868 0.38126 0.0
C1051 C 0.11116 0.1045 0.40115 0.0
C1052 C 0.09087 0.16692 0.41117 0.0
H1053 H 0.03685 0.18875 0.42474 0.0
C1054 C 0.10023 0.18675 0.39894 0.0
C1055 C 0.0678 0.16789 0.42086 0.0
C1056 C 0.05702 0.14753 0.43506 0.0
C1057 C 0.08688 0.20713 0.39526 0.0
C1058 C 0.06363 0.20798 0.40462 0.0
C1059 C 0.05455 0.18825 0.41738 0.0
C1060 C 0.04796 0.2286 0.40065 0.0
C1061 C 0.09755 0.22721 0.38047 0.0
C1062 C 0.05377 0.2509 0.41003 0.0
C1063 C 0.03788 0.26949 0.40801 0.0
C1064 C 1.0157 0.26609 0.39693 0.0
C1065 C 1.01026 0.24394 0.38697 0.0
C1066 C 0.02612 0.22555 0.38875 0.0
H1067 H 0.11276 0.22164 0.36849 0.0
H1068 H 0.08466 0.23557 0.36718 0.0
H1069 H 0.10363 0.24037 0.39488 0.0
H1070 H 0.07022 0.25377 0.41983 0.0
H1071 H 0.04255 0.28618 0.41625 0.0
H1072 H 0.95006 0.93102 0.1421 0.0
H1073 H 0.91378 0.95284 0.14665 0.0
H1074 H 0.87942 0.90453 0.09487 0.0
H1075 H 0.91565 0.88232 0.09048 0.0
H1076 H 0.88762 0.97407 0.10526 0.0
H1077 H 0.83492 0.90863 0.15928 0.0
H1078 H 0.86623 0.90701 0.15737 0.0
H1079 H 0.84884 0.89876 0.12949 0.0
C1080 C 0.93474 0.92475 0.13196 0.0
C1081 C 0.93589 0.9047 0.11605 0.0
C1082 C 0.91398 0.93739 0.13447 0.0
C1083 C 0.89368 0.93025 0.12141 0.0
C1084 C 0.89468 0.91025 0.10552 0.0
H1085 H 0.75344 0.99242 0.11534 0.0
H1086 H 0.78676 0.96579 0.112 0.0
C1087 C 0.91553 0.89766 0.10283 0.0
C1088 C 0.87185 0.94435 0.12367 0.0
H1089 H 0.81585 0.94333 0.14679 0.0
C1090 C 0.87195 0.96733 0.11437 0.0
C1091 C 0.85124 0.93557 0.1353 0.0
C1092 C 0.85018 0.9112 0.14615 0.0
C1093 C 0.85216 0.98168 0.11628 0.0
C1094 C 0.8317 0.97316 0.1286 0.0
C1095 C 0.83146 0.95001 0.1375 0.0
C1096 C 0.8107 0.98823 0.13277 0.0
C1097 C 0.85329 1.00575 0.10452 0.0
C1098 C 0.8126 1.00931 0.14656 0.0
C1099 C 0.79365 0.02455 0.14841 0.0
C1100 C 0.77208 0.01902 0.13691 0.0
C1101 C 0.76972 0.99725 0.12454 0.0
C1102 C 0.78883 0.98203 0.1225 0.0
H1103 H 0.86688 1.00695 0.08896 0.0
H1104 H 0.83636 1.01091 0.09576 0.0
H1105 H 0.85777 1.01836 0.12026 0.0
H1106 H 0.82897 1.01428 0.15543 0.0
H1107 H 0.79613 0.04103 0.15829 0.0
H1108 H 0.54211 0.75293 0.11285 0.0
H1109 H 0.57078 0.78442 0.11143 0.0
H1110 H 0.52413 0.82838 0.15551 0.0
H1111 H 0.49551 0.79715 0.15704 0.0
H1112 H 0.56254 0.82873 0.08792 0.0
H1113 H 0.5866 0.83816 0.19345 0.0
H1114 H 0.57284 0.81236 0.18061 0.0
H1115 H 0.55583 0.83786 0.18747 0.0
C1116 C 0.53818 0.76908 0.12286 0.0
C1117 C 0.51645 0.77237 0.13518 0.0
C1118 C 0.55455 0.78717 0.12185 0.0
C1119 C 0.54976 0.80882 0.13351 0.0
C1120 C 0.52848 0.8118 0.14671 0.0
H1121 H 0.60969 0.94684 0.14009 0.0
H1122 H 0.58724 0.91117 0.14559 0.0
C1123 C 0.51205 0.79386 0.14751 0.0
C1124 C 0.56608 0.82884 0.13025 0.0
H1125 H 0.59774 0.86894 0.16468 0.0
C1126 C 0.57047 0.83736 0.10468 0.0
C1127 C 0.57627 0.84031 0.15209 0.0
C1128 C 0.57286 0.83163 0.17996 0.0
C1129 C 0.58407 0.85737 0.10042 0.0
C1130 C 0.5942 0.86896 0.1223 0.0
C1131 C 0.59007 0.86019 0.14785 0.0
C1132 C 0.60851 0.89056 0.11921 0.0
C1133 C 0.5866 0.86641 0.07256 0.0
C1134 C 0.62834 0.89102 0.10289 0.0
C1135 C 0.64123 0.91152 0.09963 0.0
C1136 C 0.63488 0.93206 0.11293 0.0
C1137 C 0.61535 0.93138 0.12974 0.0
C1138 C 0.60238 0.91094 0.13284 0.0
H1139 H 0.57269 0.85972 0.05941 0.0
H1140 H 0.5861 0.88568 0.07209 0.0
H1141 H 0.60354 0.86061 0.06438 0.0
H1142 H 0.63394 0.87547 0.09271 0.0
H1143 H 0.65635 0.91121 0.08686 0.0
H1144 H 0.62031 0.65194 0.08854 0.0
H1145 H 0.65645 0.6295 0.09278 0.0
H1146 H 0.62411 0.58586 0.15138 0.0
H1147 H 0.58794 0.60784 0.14699 0.0
H1148 H 0.6849 0.6203 0.13907 0.0
H1149 H 0.64915 0.5394 0.09589 0.0
H1150 H 0.63508 0.56724 0.09204 0.0
H1151 H 0.63224 0.55137 0.12248 0.0
C1152 C 0.62082 0.6375 0.10224 0.0
C1153 C 0.60104 0.63179 0.11739 0.0
C1154 C 0.64158 0.62475 0.10476 0.0
C1155 C 0.64303 0.60577 0.1222 0.0
C1156 C 0.62344 0.60021 0.13755 0.0
H1157 H 0.74341 0.49795 0.16005 0.0
H1158 H 0.71044 0.52465 0.15825 0.0
C1159 C 0.60277 0.61301 0.13519 0.0
C1160 C 0.66484 0.59164 0.1243 0.0
H1161 H 0.68633 0.53674 0.11566 0.0
C1162 C 0.68527 0.60205 0.13382 0.0
C1163 C 0.66541 0.56781 0.11749 0.0
C1164 C 0.64439 0.55577 0.10618 0.0
C1165 C 0.70595 0.58917 0.13744 0.0
C1166 C 0.70649 0.56525 0.13079 0.0
C1167 C 0.68608 0.55498 0.12094 0.0
C1168 C 0.72776 0.55034 0.13404 0.0
C1169 C 0.72679 0.60119 0.14918 0.0
C1170 C 0.74891 0.55588 0.12152 0.0
C1171 C 0.76805 0.54066 0.12281 0.0
C1172 C 0.76641 0.51933 0.13634 0.0
C1173 C 0.74544 0.51419 0.14949 0.0
C1174 C 0.72644 0.52945 0.14836 0.0
H1175 H 0.7217 0.61706 0.16024 0.0
H1176 H 0.73644 0.58947 0.16274 0.0
H1177 H 0.7387 0.60652 0.13302 0.0
H1178 H 0.75039 0.57155 0.10982 0.0
H1179 H 0.78372 0.5451 0.11209 0.0
H1180 H 0.99549 0.78552 0.11648 0.0
H1181 H 0.96721 0.75373 0.1145 0.0
H1182 H 1.01422 0.70974 0.15808 0.0
H1183 H 0.04241 0.74129 0.16025 0.0
H1184 H 0.97523 0.71039 0.09037 0.0
H1185 H 0.95243 0.69818 0.1959 0.0
H1186 H 0.96622 0.72423 0.18371 0.0
H1187 H 0.98316 0.69848 0.18967 0.0
C1188 C 0.99959 0.76929 0.12625 0.0
C1189 C 0.02128 0.76612 0.13865 0.0
C1190 C 0.98343 0.75103 0.12493 0.0
C1191 C 0.98842 0.72928 0.1363 0.0
C1192 C 1.00969 0.72638 0.14952 0.0
H1193 H 0.93015 0.59034 0.13901 0.0
H1194 H 0.95237 0.62604 0.14535 0.0
C1195 C 0.02588 0.74452 0.15069 0.0
C1196 C 0.97231 0.70913 0.13274 0.0
H1197 H 0.94156 0.66777 0.16649 0.0
C1198 C 0.96764 0.70123 0.10701 0.0
C1199 C 0.96252 0.69698 0.15441 0.0
C1200 C 0.96613 0.70499 0.18248 0.0
C1201 C 0.95416 0.68122 0.10238 0.0
C1202 C 0.94448 0.66893 0.12407 0.0
C1203 C 0.9489 0.67705 0.14981 0.0
C1204 C 0.93031 0.64731 0.12056 0.0
C1205 C 0.95125 0.67292 0.07429 0.0
C1206 C 0.91012 0.64723 0.10487 0.0
C1207 C 0.89733 0.62674 0.10116 0.0
C1208 C 0.90418 0.6058 0.11334 0.0
C1209 C 0.9241 0.60609 0.12954 0.0
C1210 C 0.93694 0.62655 0.13311 0.0
H1211 H 0.96482 0.68018 0.06102 0.0
H1212 H 0.95201 0.65368 0.07317 0.0
H1213 H 0.93408 0.67869 0.06675 0.0
H1214 H 0.90416 0.66307 0.09553 0.0
H1215 H 0.88191 0.62735 0.08892 0.0
H1216 H 0.78414 0.99583 0.6138 0.0
H1217 H 0.75145 0.96863 0.61018 0.0
H1218 H 0.70736 1.01718 0.65139 0.0
H1219 H 0.73959 0.04454 0.65437 0.0
H1220 H 0.7227 0.94607 0.64405 0.0
H1221 H 0.67016 1.00785 0.58532 0.0
H1222 H 0.70041 1.01287 0.59256 0.0
H1223 H 0.67838 0.01976 0.61666 0.0
C1224 C 0.76756 1.00058 0.62241 0.0
C1225 C 0.76453 0.02253 0.6342 0.0
C1226 C 0.7488 0.98503 0.62021 0.0
C1227 C 0.72659 0.99103 0.62979 0.0
C1228 C 0.72399 1.01234 0.64299 0.0
H1229 H 0.58945 0.92903 0.63992 0.0
H1230 H 0.62492 0.95203 0.6444 0.0
C1231 C 0.74259 0.02794 0.64493 0.0
C1232 C 0.70604 0.97539 0.62562 0.0
H1233 H 0.65024 0.97461 0.60193 0.0
C1234 C 0.70695 0.95228 0.63463 0.0
C1235 C 0.68539 0.98327 0.61311 0.0
C1236 C 0.68356 1.00721 0.60111 0.0
C1237 C 0.68767 0.93726 0.63231 0.0
C1238 C 0.66687 0.94541 0.62053 0.0
C1239 C 0.66607 0.96835 0.61116 0.0
C1240 C 0.64554 0.93066 0.61821 0.0
C1241 C 0.68945 0.91293 0.64315 0.0
C1242 C 0.6451 0.91096 0.60182 0.0
C1243 C 0.62471 0.89772 0.59913 0.0
C1244 C 0.60427 0.90378 0.61291 0.0
C1245 C 0.60487 0.92352 0.62934 0.0
C1246 C 0.62515 0.93683 0.63181 0.0
H1247 H 0.70496 0.91063 0.65596 0.0
H1248 H 0.67365 0.90848 0.65471 0.0
H1249 H 0.69077 0.90049 0.62648 0.0
H1250 H 0.66046 0.90598 0.5908 0.0
H1251 H 0.62499 0.88265 0.58636 0.0
H1252 H 0.59577 0.5847 0.60954 0.0
H1253 H 0.57414 0.6209 0.61585 0.0
H1254 H 0.6385 0.65861 0.62177 0.0
H1255 H 0.66038 0.62233 0.61539 0.0
H1256 H 0.5791 0.65403 0.6615 0.0
H1257 H 0.59817 0.69339 0.56331 0.0
H1258 H 0.60014 0.66248 0.56902 0.0
H1259 H 0.62208 0.68143 0.58185 0.0
C1260 C 0.60541 0.60068 0.61193 0.0
C1261 C 0.62991 0.60049 0.61174 0.0
C1262 C 0.59296 0.6214 0.61571 0.0
C1263 C 0.60461 0.64259 0.61907 0.0
C1264 C 0.62907 0.64254 0.61898 0.0
H1265 H 0.54304 0.78345 0.62472 0.0
H1266 H 0.57111 0.75124 0.62461 0.0
C1267 C 0.64157 0.62174 0.61549 0.0
C1268 C 0.59103 0.66452 0.62302 0.0
H1269 H 0.57447 0.71488 0.59225 0.0
C1270 C 0.57819 0.66739 0.64641 0.0
C1271 C 0.58997 0.68213 0.60351 0.0
C1272 C 0.60318 0.67984 0.57789 0.0
C1273 C 0.56424 0.6872 0.65075 0.0
C1274 C 0.56237 0.70445 0.63077 0.0
C1275 C 0.57573 0.70181 0.60762 0.0
C1276 C 0.54569 0.72451 0.63281 0.0
C1277 C 0.55192 0.68951 0.67696 0.0
C1278 C 0.52197 0.72051 0.63756 0.0
C1279 C 0.50598 0.73889 0.63797 0.0
C1280 C 0.51306 0.76193 0.6332 0.0
C1281 C 0.53689 0.76605 0.62876 0.0
C1282 C 0.55298 0.74756 0.62851 0.0
H1283 H 0.5614 0.68012 0.69284 0.0
H1284 H 0.54999 0.70796 0.68287 0.0
H1285 H 0.53437 0.68167 0.6754 0.0
H1286 H 0.51558 0.70299 0.64016 0.0
H1287 H 0.48782 0.73481 0.64115 0.0
H1288 H 0.95075 0.59541 0.61024 0.0
H1289 H 0.91408 0.57466 0.6164 0.0
H1290 H 0.87709 0.6397 0.61843 0.0
H1291 H 0.91386 0.66072 0.61216 0.0
H1292 H 0.88014 0.58176 0.66091 0.0
H1293 H 0.84276 0.59801 0.56108 0.0
H1294 H 0.87364 0.59966 0.56733 0.0
H1295 H 0.85475 0.62226 0.57888 0.0
C1296 C 0.93483 0.60538 0.61172 0.0
C1297 C 0.93538 0.62983 0.61048 0.0
C1298 C 0.91384 0.59344 0.61541 0.0
C1299 C 0.89271 0.60553 0.61765 0.0
C1300 C 0.8931 0.62993 0.6165 0.0
H1301 H 0.75153 0.54372 0.62328 0.0
H1302 H 0.78335 0.57222 0.62226 0.0
C1303 C 0.91419 0.64195 0.61309 0.0
C1304 C 0.87051 0.59245 0.62167 0.0
H1305 H 0.82071 0.57517 0.59035 0.0
C1306 C 0.86708 0.58045 0.64553 0.0
C1307 C 0.85327 0.59089 0.6018 0.0
C1308 C 0.85615 0.60325 0.57571 0.0
C1309 C 0.84714 0.56677 0.64994 0.0
C1310 C 0.83034 0.56428 0.62959 0.0
C1311 C 0.83346 0.5769 0.60599 0.0
C1312 C 0.81047 0.54745 0.63169 0.0
C1313 C 0.84426 0.5553 0.67657 0.0
C1314 C 0.81485 0.52396 0.63728 0.0
C1315 C 0.79674 0.50778 0.63817 0.0
C1316 C 0.77356 0.51439 0.63305 0.0
C1317 C 0.76904 0.53796 0.6276 0.0
C1318 C 0.7873 0.55428 0.62685 0.0
H1319 H 0.8532 0.56533 0.69231 0.0
H1320 H 0.82565 0.5535 0.68201 0.0
H1321 H 0.85226 0.53777 0.67599 0.0
H1322 H 0.83247 0.51791 0.64033 0.0
H1323 H 0.80113 0.48983 0.64219 0.0
H1324 H 0.89375 0.92799 0.65111 0.0
H1325 H 0.91676 0.89248 0.65567 0.0
H1326 H 0.93517 0.89608 0.57318 0.0
H1327 H 0.91322 0.93215 0.5687 0.0
H1328 H 0.91488 0.84979 0.63315 0.0
H1329 H 0.99847 0.89127 0.60647 0.0
H1330 H 0.97252 0.90788 0.61305 0.0
H1331 H 0.97673 0.89439 0.58132 0.0
C1332 C 0.90286 0.92144 0.63393 0.0
C1333 C 0.90166 0.93333 0.60956 0.0
C1334 C 0.9159 0.90091 0.63654 0.0
C1335 C 0.92818 0.89167 0.61492 0.0
C1336 C 0.92636 0.90301 0.59037 0.0
H1337 H 0.99314 0.7527 0.60796 0.0
H1338 H 0.96555 0.78516 0.60498 0.0
C1339 C 0.91343 0.92359 0.58775 0.0
C1340 C 0.94312 0.87046 0.61818 0.0
H1341 H 0.99869 0.85028 0.61033 0.0
C1342 C 0.93322 0.84992 0.62819 0.0
C1343 C 0.96719 0.87055 0.61212 0.0
C1344 C 0.97944 0.89225 0.6029 0.0
C1345 C 0.94657 0.82958 0.63202 0.0
C1346 C 0.97049 0.8295 0.62524 0.0
C1347 C 0.98036 0.85011 0.61539 0.0
C1348 C 0.98594 0.8087 0.62892 0.0
C1349 C 0.93501 0.80856 0.64398 0.0
C1350 C 1.00668 0.81082 0.64337 0.0
C1351 C 0.02253 0.79238 0.64487 0.0
C1352 C 1.01815 0.77115 0.63203 0.0
C1353 C 0.99696 0.76863 0.61844 0.0
C1354 C 0.98112 0.78725 0.61673 0.0
H1355 H 0.9189 0.81332 0.65484 0.0
H1356 H 0.93014 0.79637 0.62795 0.0
H1357 H 0.9469 0.79939 0.65776 0.0
H1358 H 1.01092 0.82703 0.65304 0.0
H1359 H 0.03864 0.79503 0.65552 0.0
H1360 H 0.10625 0.13699 0.87491 0.0
H1361 H 0.14182 0.11396 0.87076 0.0
H1362 H 0.14451 0.10608 0.95542 0.0
H1363 H 0.10843 0.12814 0.95972 0.0
H1364 H 0.1862 0.11898 0.88894 0.0
H1365 H 0.14783 0.03927 0.93197 0.0
H1366 H 0.13041 0.06404 0.92279 0.0
H1367 H 0.14609 0.0639 0.95355 0.0
C1368 C 0.11421 0.13021 0.89271 0.0
C1369 C 0.10407 0.13438 0.91767 0.0
C1370 C 0.13477 0.11716 0.89028 0.0
C1371 C 0.14579 0.1078 0.9127 0.0
C1372 C 0.13619 0.11259 0.9377 0.0
H1373 H 0.28591 0.04356 0.91464 0.0
H1374 H 0.25362 0.07143 0.91774 0.0
C1375 C 0.1156 0.12557 0.94015 0.0
C1376 C 0.16698 0.09272 0.90986 0.0
H1377 H 0.18834 0.03859 0.92392 0.0
C1378 C 0.18666 0.1014 0.89659 0.0
C1379 C 0.16764 0.0696 0.91948 0.0
C1380 C 0.14681 0.05853 0.93251 0.0
C1381 C 0.20684 0.08775 0.89286 0.0
C1382 C 0.20767 0.06482 0.90304 0.0
C1383 C 0.18795 0.05618 0.91623 0.0
C1384 C 0.2282 0.04896 0.89932 0.0
C1385 C 0.22683 0.09785 0.87738 0.0
C1386 C 0.22496 0.02695 0.88797 0.0
C1387 C 0.2433 1.01099 0.88641 0.0
C1388 C 0.26557 1.01649 0.8961 0.0
C1389 C 0.26913 0.03882 0.90663 0.0
C1390 C 0.2506 0.05482 0.90839 0.0
H1391 H 0.22122 0.11279 0.865 0.0
H1392 H 0.24026 0.10416 0.89134 0.0
H1393 H 0.2349 0.08458 0.86437 0.0
H1394 H 0.208 0.02188 0.88072 0.0
H1395 H 0.23983 0.994 0.87816 0.0
H1396 H 0.38278 0.12134 0.9429 0.0
H1397 H 0.40392 0.15799 0.93796 0.0
H1398 H 0.45024 0.1256 0.88202 0.0
H1399 H 0.42919 0.08907 0.88671 0.0
H1400 H 0.44835 0.16935 0.94828 0.0
H1401 H 0.4329 0.18298 0.8415 0.0
H1402 H 0.41729 0.16147 0.8604 0.0
H1403 H 0.44606 0.15535 0.84816 0.0
C1404 C 0.39745 0.12198 0.9295 0.0
C1405 C 0.40404 0.10213 0.91502 0.0
C1406 C 0.40952 0.14305 0.92663 0.0
C1407 C 0.42848 0.1449 0.90916 0.0
C1408 C 0.43527 0.12502 0.89498 0.0
H1409 H 0.53844 0.2412 0.87367 0.0
H1410 H 0.51011 0.20975 0.87575 0.0
C1411 C 0.42317 0.10402 0.89773 0.0
C1412 C 0.44169 0.16725 0.90649 0.0
H1413 H 0.46274 0.20616 0.86113 0.0
C1414 C 0.45122 0.17754 0.92924 0.0
C1415 C 0.44551 0.17815 0.88169 0.0
C1416 C 0.4347 0.16906 0.8566 0.0
C1417 C 0.46509 0.19769 0.92777 0.0
C1418 C 0.46939 0.20819 0.9029 0.0
C1419 C 0.4595 0.1982 0.88022 0.0
C1420 C 0.48539 0.22854 0.89984 0.0
C1421 C 0.47582 0.20705 0.95278 0.0
C1422 C 0.48069 0.2501 0.91185 0.0
C1423 C 0.4969 0.26836 0.9105 0.0
C1424 C 0.51821 0.26541 0.89718 0.0
C1425 C 0.52228 0.24417 0.88416 0.0
C1426 C 0.50607 0.22607 0.88536 0.0
H1427 H 0.47462 0.19448 0.9694 0.0
H1428 H 0.49439 0.21145 0.94955 0.0
H1429 H 0.46658 0.22316 0.95869 0.0
H1430 H 0.4647 0.25264 0.92278 0.0
H1431 H 0.4932 0.28437 0.9209 0.0
H1432 H 0.43434 0.41457 0.95985 0.0
H1433 H 0.39781 0.43594 0.95558 0.0
H1434 H 0.39555 0.41952 0.87252 0.0
H1435 H 0.43143 0.39716 0.87685 0.0
H1436 H 0.38831 0.47371 0.92801 0.0
H1437 H 0.32994 0.4043 0.89253 0.0
H1438 H 0.35845 0.39827 0.90571 0.0
H1439 H 0.3551 0.40753 0.87191 0.0
C1440 C 0.42586 0.41497 0.94075 0.0
C1441 C 0.43605 0.4039 0.91874 0.0
C1442 C 0.40497 0.42745 0.93829 0.0
C1443 C 0.39352 0.4292 0.91379 0.0
C1444 C 0.40357 0.4181 0.89181 0.0
H1445 H 0.2978 0.54107 0.87338 0.0
H1446 H 0.33011 0.51369 0.87648 0.0
C1447 C 0.42441 0.40553 0.89427 0.0
C1448 C 0.37191 0.44369 0.911 0.0
H1449 H 0.31577 0.44322 0.88826 0.0
C1450 C 0.37245 0.46693 0.91945 0.0
C1451 C 0.35091 0.43495 0.9002 0.0
C1452 C 0.34843 0.40983 0.89233 0.0
C1453 C 0.353 0.48167 0.91689 0.0
C1454 C 0.33238 0.47328 0.90488 0.0
C1455 C 0.33159 0.44987 0.89706 0.0
C1456 C 0.31163 0.48861 0.9004 0.0
C1457 C 0.35469 0.50607 0.92757 0.0
C1458 C 0.28978 0.48313 0.9113 0.0
C1459 C 0.27097 0.49871 0.90913 0.0
C1460 C 0.27361 0.52013 0.89602 0.0
C1461 C 0.29511 0.52488 0.88384 0.0
C1462 C 0.31376 0.50928 0.88582 0.0
H1463 H 0.36843 0.50751 0.9429 0.0
H1464 H 0.35925 0.51808 0.91122 0.0
H1465 H 0.33793 0.51182 0.93629 0.0
H1466 H 0.28752 0.46722 0.92243 0.0
H1467 H 0.25475 0.49447 0.91888 0.0
H1468 H 0.105 0.44352 0.94396 0.0
H1469 H 0.0835 0.4074 0.93824 0.0
H1470 H 0.13687 0.3818 0.88599 0.0
H1471 H 0.15868 0.41794 0.89174 0.0
H1472 H 0.09341 0.37397 0.86602 0.0
H1473 H 0.09628 0.34406 0.96997 0.0
H1474 H 0.08464 0.37283 0.96669 0.0
H1475 H 0.11443 0.36727 0.95782 0.0
C1476 C 0.11248 0.43011 0.9316 0.0
C1477 C 0.13382 0.43377 0.91853 0.0
C1478 C 0.10007 0.40936 0.92833 0.0
C1479 C 0.10866 0.39154 0.91204 0.0
C1480 C 0.12985 0.39516 0.89877 0.0
H1481 H 0.04452 0.2524 0.91306 0.0
H1482 H 0.07302 0.28403 0.91466 0.0
C1483 C 0.14229 0.41595 0.90202 0.0
C1484 C 0.09515 0.36954 0.90824 0.0
H1485 H 0.06914 0.32488 0.94173 0.0
C1486 C 0.08829 0.36315 0.88258 0.0
C1487 C 0.08868 0.35506 0.9297 0.0
C1488 C 0.09658 0.35999 0.95756 0.0
C1489 C 0.07453 0.34332 0.87795 0.0
C1490 C 0.06705 0.32953 0.89957 0.0
C1491 C 0.07462 0.33545 0.92511 0.0
C1492 C 0.05058 0.30957 0.89633 0.0
C1493 C 0.06826 0.33729 0.84984 0.0
C1494 C 0.02848 0.31313 0.88525 0.0
C1495 C 1.01221 0.29507 0.8842 0.0
C1496 C 1.01747 0.27288 0.89437 0.0
C1497 C 0.03986 0.26911 0.90478 0.0
C1498 C 0.05616 0.28728 0.90588 0.0
H1499 H 0.081 0.3446 0.83559 0.0
H1500 H 0.06739 0.31821 0.84697 0.0
H1501 H 0.05097 0.3448 0.84512 0.0
H1502 H 0.02342 0.33017 0.87824 0.0
H1503 H 0.99515 0.29879 0.8762 0.0
H1504 H 0.69192 0.17754 0.41575 0.0
H1505 H 0.72242 0.15128 0.43127 0.0
H1506 H 0.75898 0.20942 0.46507 0.0
H1507 H 0.72894 0.23565 0.44942 0.0
H1508 H 0.76378 0.15339 0.41267 0.0
H1509 H 0.77387 0.16149 0.51941 0.0
H1510 H 0.74739 0.17033 0.5029 0.0
H1511 H 0.7712 0.19037 0.50685 0.0
C1512 C 0.70642 0.1847 0.42666 0.0
C1513 C 0.70822 0.2088 0.43092 0.0
C1514 C 0.72356 0.16958 0.436 0.0
C1515 C 0.74275 0.17821 0.44994 0.0
C1516 C 0.74394 0.20211 0.45529 0.0
H1517 H 0.85734 0.2219 0.4472 0.0
H1518 H 0.82503 0.19987 0.46487 0.0
C1519 C 0.72685 0.21722 0.44598 0.0
C1520 C 0.76394 0.16387 0.45347 0.0
H1521 H 0.81168 0.16381 0.49305 0.0
C1522 C 0.77411 0.15475 0.43053 0.0
C1523 C 0.77711 0.16457 0.477 0.0
C1524 C 0.76659 0.17199 0.50295 0.0
C1525 C 0.79819 0.15136 0.4289 0.0
C1526 C 0.81214 0.15677 0.45117 0.0
C1527 C 0.80114 0.16057 0.47566 0.0
C1528 C 0.83558 0.16707 0.44734 0.0
C1529 C 0.80845 0.14545 0.40225 0.0
C1530 C 0.85329 0.15586 0.43295 0.0
C1531 C 0.8715 0.16887 0.42196 0.0
C1532 C 0.87262 0.19286 0.42643 0.0
C1533 C 0.85666 0.20338 0.44353 0.0
C1534 C 0.83827 0.19066 0.45379 0.0
H1535 H 0.79489 0.14177 0.3872 0.0
H1536 H 0.8192 0.16009 0.39491 0.0
H1537 H 0.81961 0.12981 0.40397 0.0
H1538 H 0.85214 0.13754 0.42853 0.0
H1539 H 0.88384 0.16052 0.40887 0.0
H1540 H 0.35063 0.69732 0.41376 0.0
H1541 H 0.37707 0.7242 0.43552 0.0
H1542 H 0.31971 0.75312 0.47945 0.0
H1543 H 0.29318 0.72654 0.45775 0.0
H1544 H 0.38129 0.76566 0.43284 0.0
H1545 H 0.36422 0.75351 0.53751 0.0
H1546 H 0.35413 0.73245 0.51363 0.0
H1547 H 0.33614 0.75683 0.52316 0.0
C1548 C 0.34363 0.70941 0.4281 0.0
C1549 C 0.31973 0.70979 0.43402 0.0
C1550 C 0.35893 0.72436 0.44101 0.0
C1551 C 0.35078 0.73986 0.46027 0.0
C1552 C 0.32684 0.74041 0.46594 0.0
H1553 H 0.30508 0.83914 0.47257 0.0
H1554 H 0.32961 0.80857 0.48919 0.0
C1555 C 0.31153 0.72543 0.45314 0.0
C1556 C 0.3661 0.7583 0.47097 0.0
H1557 H 0.36532 0.79608 0.52247 0.0
C1558 C 0.37851 0.7719 0.4528 0.0
C1559 C 0.36437 0.76601 0.49745 0.0
C1560 C 0.35421 0.75112 0.519 0.0
C1561 C 0.38386 0.79503 0.45862 0.0
C1562 C 0.37573 0.80455 0.48272 0.0
C1563 C 0.36992 0.78916 0.50324 0.0
C1564 C 0.36216 0.82645 0.48143 0.0
C1565 C 0.39434 0.80987 0.43715 0.0
C1566 C 0.37194 0.84745 0.47281 0.0
C1567 C 0.3576 0.86503 0.46273 0.0
C1568 C 0.33332 0.86215 0.46219 0.0
C1569 C 0.32363 0.84216 0.47335 0.0
C1570 C 0.33782 0.82457 0.48292 0.0
H1571 H 0.40272 0.79916 0.42156 0.0
H1572 H 0.38056 0.82053 0.42769 0.0
H1573 H 0.40765 0.82161 0.4456 0.0
H1574 H 0.3906 0.84962 0.47206 0.0
H1575 H 0.36558 0.88028 0.45417 0.0
H1576 H 0.31924 0.75972 0.05481 0.0
H1577 H 0.28933 0.76678 0.02258 0.0
H1578 H 0.33301 0.81674 0.98305 0.0
H1579 H 0.36379 0.80914 0.01537 0.0
H1580 H 0.29346 0.83617 0.99698 0.0
H1581 H 0.26681 0.75667 0.94873 0.0
H1582 H 0.27593 0.74738 0.98084 0.0
H1583 H 0.29666 0.76107 0.95889 0.0
C1584 C 0.32307 0.7715 0.0387 0.0
C1585 C 0.344 0.78395 0.03787 0.0
C1586 C 0.30588 0.77541 0.01994 0.0
C1587 C 0.30903 0.79195 0.99979 0.0
C1588 C 0.33033 0.80365 0.99807 0.0
H1589 H 0.17009 0.78974 0.03329 0.0
H1590 H 0.19478 0.80149 0.99613 0.0
C1591 C 0.34775 0.79956 0.01684 0.0
C1592 C 0.28812 0.8004 0.98565 0.0
H1593 H 0.23556 0.77423 0.98125 0.0
C1594 C 0.28077 0.823 0.99194 0.0
C1595 C 0.27133 0.78425 0.97691 0.0
C1596 C 0.27828 0.76109 0.96563 0.0
C1597 C 0.25731 0.8272 0.99766 0.0
C1598 C 0.24174 0.80838 0.99721 0.0
C1599 C 0.24794 0.78831 0.9832 0.0
C1600 C 0.22565 0.8052 0.01959 0.0
C1601 C 0.25011 0.85035 1.00863 0.0
C1602 C 0.23508 0.80334 0.04514 0.0
C1603 C 0.2214 0.79583 0.06618 0.0
C1604 C 0.19802 0.7901 0.06205 0.0
C1605 C 0.18834 0.79309 0.03673 0.0
C1606 C 0.20218 0.8003 0.0156 0.0
H1607 H 0.25837 0.86439 0.99698 0.0
H1608 H 0.23093 0.85263 1.0081 0.0
H1609 H 0.25617 0.85189 0.02939 0.0
H1610 H 0.25338 0.80656 0.04856 0.0
H1611 H 0.22936 0.79374 0.08543 0.0
H1612 H 0.80338 0.35189 0.04718 0.0
H1613 H 0.7973 0.31729 0.01999 0.0
H1614 H 0.80126 0.27479 0.09025 0.0
H1615 H 0.80705 0.30861 0.11692 0.0
H1616 H 0.80595 0.24811 0.04571 0.0
H1617 H 0.72948 0.3049 0.02929 0.0
H1618 H 0.75736 0.31054 1.01447 0.0
H1619 H 0.75204 0.31822 0.04854 0.0
C1620 C 0.80371 0.33498 0.05656 0.0
C1621 C 0.8042 0.33297 0.08433 0.0
C1622 C 0.80041 0.31524 0.04096 0.0
C1623 C 0.79732 0.29364 0.05323 0.0
C1624 C 0.80295 0.29133 0.08019 0.0
H1625 H 0.74568 0.23779 0.15427 0.0
H1626 H 0.75325 0.26085 0.11455 0.0
C1627 C 0.80618 0.31089 0.09569 0.0
C1628 C 0.78131 0.27604 0.04229 0.0
H1629 H 0.72385 0.2721 0.0577 0.0
C1630 C 0.78771 0.25284 0.04663 0.0
C1631 C 0.75727 0.28169 0.04181 0.0
C1632 C 0.74852 0.30512 0.03296 0.0
C1633 C 0.77199 0.23753 0.05857 0.0
C1634 C 0.74942 0.24561 0.0647 0.0
C1635 C 0.74156 0.26651 0.05395 0.0
C1636 C 0.73728 0.23623 0.08786 0.0
C1637 C 0.78062 0.21432 0.06825 0.0
C1638 C 0.72417 0.21599 0.08594 0.0
C1639 C 0.71908 0.20336 0.10867 0.0
C1640 C 0.72812 0.21022 0.13328 0.0
C1641 C 0.73859 0.23209 0.13554 0.0
C1642 C 0.74304 0.24512 0.11285 0.0
H1643 H 0.7966 0.20892 0.0576 0.0
H1644 H 0.78465 0.2155 0.08967 0.0
H1645 H 0.76713 0.20079 0.06563 0.0
H1646 H 0.72011 0.20869 0.06687 0.0
H1647 H 0.71099 0.18663 0.10642 0.0
H1648 H 0.15654 0.85733 0.56495 0.0
H1649 H 0.18506 0.87971 0.54051 0.0
H1650 H 0.21679 0.8157 0.51389 0.0
H1651 H 0.18606 0.79396 0.53406 0.0
H1652 H 0.22078 0.88413 0.5585 0.0
H1653 H 0.24647 0.82382 0.48177 0.0
H1654 H 0.25369 0.85135 0.46791 0.0
H1655 H 0.22383 0.84492 0.47532 0.0
C1656 C 0.16882 0.8481 0.5526 0.0
C1657 C 0.16983 0.82372 0.55272 0.0
C1658 C 0.18544 0.86098 0.53876 0.0
C1659 C 0.20432 0.84972 0.52644 0.0
C1660 C 0.20299 0.82546 0.5232 0.0
H1661 H 0.30103 0.8209 0.61946 0.0
H1662 H 0.27157 0.84347 0.59626 0.0
C1663 C 0.1856 0.81271 0.53565 0.0
C1664 C 0.22762 0.86123 0.52527 0.0
H1665 H 0.28099 0.84033 0.50985 0.0
C1666 C 0.23389 0.87515 0.54703 0.0
C1667 C 0.24581 0.85227 0.50936 0.0
C1668 C 0.24189 0.84255 0.48212 0.0
C1669 C 0.25648 0.8745 0.55721 0.0
C1670 C 0.27294 0.85949 0.54542 0.0
C1671 C 0.26815 0.85066 0.52014 0.0
C1672 C 0.29225 0.84887 0.56077 0.0
C1673 C 0.26166 0.88851 0.58163 0.0
C1674 C 0.31341 0.84331 0.54844 0.0
C1675 C 0.32946 0.82893 0.56108 0.0
C1676 C 0.32529 0.82087 0.58681 0.0
C1677 C 0.30469 0.82716 0.59969 0.0
C1678 C 0.28808 0.84053 0.58656 0.0
H1679 H 0.25591 0.90674 0.57862 0.0
H1680 H 0.25161 0.88149 0.59858 0.0
H1681 H 0.28037 0.88846 0.58662 0.0
H1682 H 0.31723 0.84953 0.52873 0.0
H1683 H 0.34517 0.824 0.5508 0.0
H1684 H 0.83928 0.21429 0.63074 0.0
H1685 H 0.86558 0.24709 0.63351 0.0
H1686 H 0.88114 0.2297 0.71464 0.0
H1687 H 0.85387 0.1971 0.71224 0.0
H1688 H 0.86625 0.27215 0.71079 0.0
H1689 H 0.93278 0.26317 0.634 0.0
H1690 H 0.90533 0.25562 0.61985 0.0
H1691 H 0.91691 0.23845 0.64668 0.0
C1692 C 0.8484 0.21734 0.64914 0.0
C1693 C 0.84405 0.20352 0.67147 0.0
C1694 C 0.86395 0.23578 0.65051 0.0
C1695 C 0.87578 0.24066 0.67414 0.0
C1696 C 0.87246 0.22608 0.6961 0.0
H1697 H 0.87495 0.38914 0.68279 0.0
H1698 H 0.89919 0.35528 0.69318 0.0
C1699 C 0.85679 0.20756 0.69475 0.0
C1700 C 0.88723 0.26355 0.67698 0.0
H1701 H 0.91533 0.30299 0.63831 0.0
C1702 C 0.87783 0.27885 0.69568 0.0
C1703 C 0.90279 0.27219 0.65771 0.0
C1704 C 0.91521 0.25633 0.63867 0.0
C1705 C 0.88017 0.30292 0.6928 0.0
C1706 C 0.89276 0.31176 0.67085 0.0
C1707 C 0.90534 0.29628 0.65483 0.0
C1708 C 0.88707 0.335 0.65996 0.0
C1709 C 0.86649 0.31845 0.7112 0.0
C1710 C 0.87452 0.33582 0.63619 0.0
C1711 C 0.86106 0.35517 0.63 0.0
C1712 C 0.85981 0.37399 0.64758 0.0
C1713 C 0.87514 0.37459 0.66925 0.0
C1714 C 0.88894 0.35524 0.67525 0.0
H1715 H 0.85672 0.30848 0.72638 0.0
H1716 H 0.87847 0.33037 0.72165 0.0
H1717 H 0.85384 0.32904 0.6998 0.0
H1718 H 0.87295 0.32052 0.62388 0.0
H1719 H 0.84957 0.35407 0.61309 0.0
H1720 H 0.81136 0.21458 0.91478 0.0
H1721 H 0.78221 0.19783 0.94387 0.0
H1722 H 0.82194 0.21846 1.01204 0.0
H1723 H 0.85207 0.23432 0.98303 0.0
H1724 H 0.78297 0.17026 1.00695 0.0
H1725 H 0.75827 0.26251 0.98822 0.0
H1726 H 0.77037 0.24646 0.96109 0.0
H1727 H 0.78828 0.25336 0.98895 0.0
C1728 C 0.81446 0.21481 0.93588 0.0
C1729 C 0.83362 0.22654 0.9466 0.0
C1730 C 0.79789 0.20496 0.95248 0.0
C1731 C 0.8 0.20709 0.97997 0.0
C1732 C 0.82016 0.21666 0.99083 0.0
H1733 H 0.66303 0.23569 1.00827 0.0
H1734 H 0.69586 0.22415 0.03477 0.0
C1735 C 0.83698 0.22624 0.97421 0.0
C1736 C 0.77861 0.20608 0.99566 0.0
H1737 H 0.72876 0.23705 1.00141 0.0
C1738 C 0.77125 0.185 1.0067 0.0
C1739 C 0.76354 0.22543 0.99538 0.0
C1740 C 0.77046 0.24829 0.98293 0.0
C1741 C 0.74817 0.18229 1.01524 0.0
C1742 C 0.7324 0.20089 1.01203 0.0
C1743 C 0.74075 0.22267 1.00401 0.0
C1744 C 0.70727 0.1971 1.00803 0.0
C1745 C 0.74042 0.15917 0.02585 0.0
C1746 C 0.70099 0.18391 0.98585 0.0
C1747 C 0.68248 0.19103 0.97002 0.0
C1748 C 0.66981 0.21108 0.9767 0.0
C1749 C 0.67307 0.22085 1.0019 0.0
C1750 C 0.69162 0.2138 0.01759 0.0
H1751 H 0.75365 0.15219 0.03972 0.0
H1752 H 0.72352 0.16043 0.03631 0.0
H1753 H 0.73865 0.14675 1.00923 0.0
H1754 H 0.71263 0.17077 0.9781 0.0
H1755 H 0.68032 0.18267 0.95105 0.0
H1756 H 0.2225 0.83709 0.94339 0.0
H1757 H 0.19577 0.80566 0.95102 0.0
H1758 H 0.13762 0.85081 0.93436 0.0
H1759 H 0.16506 0.88253 0.92444 0.0
H1760 H 0.15485 0.79876 0.98607 0.0
H1761 H 0.13171 0.79776 0.87984 0.0
H1762 H 0.155 0.81715 0.88852 0.0
H1763 H 0.1262 0.82238 0.90105 0.0
C1764 C 0.20404 0.84068 0.94215 0.0
C1765 C 0.19584 0.86225 0.93341 0.0
C1766 C 0.18865 0.82269 0.94686 0.0
C1767 C 0.16457 0.82597 0.94404 0.0
C1768 C 0.15609 0.84795 0.93687 0.0
H1769 H 0.17861 0.68674 0.90117 0.0
H1770 H 0.14972 0.71538 0.91569 0.0
C1771 C 0.17172 0.86598 0.93126 0.0
C1772 C 0.14989 0.80493 0.94454 0.0
H1773 H 0.14877 0.76299 0.89742 0.0
C1774 C 0.15245 0.79071 0.96692 0.0
C1775 C 0.14471 0.79435 0.92005 0.0
C1776 C 0.13897 0.80863 0.89596 0.0
C1777 C 0.15811 0.76721 0.96379 0.0
C1778 C 0.15861 0.75778 0.93806 0.0
C1779 C 0.14919 0.77056 0.91704 0.0
C1780 C 0.17518 0.73916 0.9314 0.0
C1781 C 0.16738 0.75382 0.98711 0.0
C1782 C 0.19899 0.74341 0.935 0.0
C1783 C 0.21548 0.72749 0.92629 0.0
C1784 C 0.20851 0.70698 0.91371 0.0
C1785 C 0.18457 0.70265 0.91028 0.0
C1786 C 0.16801 0.71875 0.91891 0.0
H1787 H 0.15794 0.75855 1.00544 0.0
H1788 H 0.1662 0.73485 0.98388 0.0
H1789 H 0.18597 0.75819 0.99004 0.0
H1790 H 0.20487 0.75947 0.94389 0.0
H1791 H 0.23371 0.73152 0.92888 0.0
H1792 H 0.61382 0.1489 0.44879 0.0
H1793 H 0.64612 0.12899 0.47119 0.0
H1794 H 0.68147 0.19438 0.48041 0.0
H1795 H 0.64937 0.21424 0.45838 0.0
H1796 H 0.69258 0.1256 0.45837 0.0
H1797 H 0.68332 0.1699 0.55494 0.0
H1798 H 0.66138 0.17175 0.52957 0.0
H1799 H 0.68697 0.18962 0.52779 0.0
C1800 C 0.62843 0.15903 0.45572 0.0
C1801 C 0.62898 0.18319 0.45168 0.0
C1802 C 0.64696 0.14762 0.46844 0.0
C1803 C 0.66625 0.16015 0.4778 0.0
C1804 C 0.66673 0.18427 0.47382 0.0
H1805 H 0.80102 0.09829 0.52476 0.0
H1806 H 0.76974 0.11763 0.50009 0.0
C1807 C 0.6484 0.19562 0.46092 0.0
C1808 C 0.68596 0.14807 0.49147 0.0
H1809 H 0.71734 0.14718 0.54888 0.0
C1810 C 0.69795 0.13026 0.47821 0.0
C1811 C 0.69301 0.154 0.51743 0.0
C1812 C 0.68038 0.1722 0.53338 0.0
C1813 C 0.71682 0.11845 0.48998 0.0
C1814 C 0.72408 0.12461 0.51583 0.0
C1815 C 0.71195 0.14235 0.5291 0.0
C1816 C 0.7434 0.11235 0.53014 0.0
C1817 C 0.72837 0.09913 0.47471 0.0
C1818 C 0.73942 0.10322 0.55554 0.0
C1819 C 0.75732 0.09239 0.56971 0.0
C1820 C 0.77976 0.09031 0.55892 0.0
C1821 C 0.78387 0.0994 0.53352 0.0
C1822 C 0.7659 0.11037 0.51933 0.0
H1823 H 0.71681 0.09221 0.45901 0.0
H1824 H 0.74423 0.10598 0.46497 0.0
H1825 H 0.73348 0.08461 0.48794 0.0
H1826 H 0.72235 0.10444 0.56448 0.0
H1827 H 0.75353 0.08565 0.58924 0.0
H1828 H 0.43967 0.80176 0.52019 0.0
H1829 H 0.41961 0.7703 0.49633 0.0
H1830 H 0.44427 0.72092 0.55397 0.0
H1831 H 0.46379 0.75202 0.57786 0.0
H1832 H 0.43407 0.72912 0.47315 0.0
H1833 H 0.37564 0.70957 0.55697 0.0
H1834 H 0.39621 0.7331 0.55822 0.0
H1835 H 0.40542 0.7039 0.56517 0.0
C1836 C 0.44091 0.78416 0.5276 0.0
C1837 C 0.45321 0.77944 0.55103 0.0
C1838 C 0.42936 0.76618 0.51402 0.0
C1839 C 0.42985 0.74319 0.52366 0.0
C1840 C 0.44299 0.73847 0.54643 0.0
H1841 H 0.38808 0.61581 0.44003 0.0
H1842 H 0.41004 0.64715 0.46119 0.0
C1843 C 0.4543 0.75633 0.56002 0.0
C1844 C 0.41655 0.7241 0.5103 0.0
H1845 H 0.37544 0.6822 0.52118 0.0
C1846 C 0.42117 0.71895 0.48364 0.0
C1847 C 0.39984 0.71049 0.52394 0.0
C1848 C 0.39386 0.71468 0.55259 0.0
C1849 C 0.4099 0.70053 0.47046 0.0
C1850 C 0.39302 0.68711 0.48407 0.0
C1851 C 0.38824 0.69245 0.51061 0.0
C1852 C 0.37979 0.66776 0.47117 0.0
C1853 C 0.41628 0.69567 0.44206 0.0
C1854 C 0.35536 0.66833 0.47035 0.0
C1855 C 0.34277 0.65055 0.45794 0.0
C1856 C 0.35424 0.63133 0.44674 0.0
C1857 C 0.37866 0.63039 0.44831 0.0
C1858 C 0.39128 0.64842 0.46027 0.0
H1859 H 0.42344 0.71135 0.43221 0.0
H1860 H 0.42986 0.68197 0.44156 0.0
H1861 H 0.40113 0.68944 0.43052 0.0
H1862 H 0.34598 0.68277 0.479 0.0
H1863 H 0.32399 0.65173 0.45746 0.0
H1864 H 0.87845 0.32688 0.44008 0.0
H1865 H 0.84589 0.34698 0.46134 0.0
H1866 H 0.88926 0.40679 0.47433 0.0
H1867 H 0.9219 0.38688 0.45301 0.0
H1868 H 0.84292 0.36433 0.51299 0.0
H1869 H 0.83103 0.43518 0.4399 0.0
H1870 H 0.84771 0.40934 0.43277 0.0
H1871 H 0.86021 0.4323 0.45209 0.0
C1872 C 0.88108 0.34438 0.44726 0.0
C1873 C 0.90289 0.35524 0.44465 0.0
C1874 C 0.8624 0.35585 0.45949 0.0
C1875 C 0.86492 0.37858 0.46916 0.0
C1876 C 0.88666 0.38946 0.46661 0.0
H1877 H 0.78257 0.45159 0.58609 0.0
H1878 H 0.8123 0.43155 0.56012 0.0
C1879 C 0.9054 0.37795 0.45452 0.0
C1880 C 0.84508 0.39053 0.48273 0.0
H1881 H 0.81029 0.43883 0.48046 0.0
C1882 C 0.83573 0.38055 0.50576 0.0
C1883 C 0.83541 0.4116 0.47324 0.0
C1884 C 0.84392 0.42268 0.44801 0.0
C1885 C 0.81754 0.39131 0.51986 0.0
C1886 C 0.80844 0.4128 0.51092 0.0
C1887 C 0.81732 0.42247 0.48748 0.0
C1888 C 0.79028 0.42576 0.52616 0.0
C1889 C 0.80822 0.37954 0.54431 0.0
C1890 C 0.76805 0.42986 0.51551 0.0
C1891 C 0.7509 0.44145 0.53038 0.0
C1892 C 0.75574 0.44934 0.55611 0.0
C1893 C 0.77817 0.44566 0.56641 0.0
C1894 C 0.79521 0.43409 0.55161 0.0
H1895 H 0.8121 0.36064 0.54431 0.0
H1896 H 0.81661 0.38725 0.56194 0.0
H1897 H 0.78914 0.38201 0.54616 0.0
H1898 H 0.76384 0.42373 0.49585 0.0
H1899 H 0.73382 0.44401 0.52188 0.0
H1900 H 0.05454 0.77766 0.55579 0.0
H1901 H 0.07233 0.8089 0.52991 0.0
H1902 H 0.13593 0.76924 0.52515 0.0
H1903 H 0.11718 0.73712 0.54862 0.0
H1904 H 0.10319 0.83681 0.53743 0.0
H1905 H 0.13564 0.78787 0.45161 0.0
H1906 H 0.11678 0.77476 0.47577 0.0
H1907 H 0.1478 0.77591 0.48117 0.0
C1908 C 0.07209 0.7754 0.54845 0.0
C1909 C 0.08422 0.75471 0.55351 0.0
C1910 C 0.08241 0.79339 0.53382 0.0
C1911 C 0.10546 0.79151 0.52459 0.0
C1912 C 0.11782 0.77097 0.53056 0.0
H1913 H 0.20862 0.8827 0.45429 0.0
H1914 H 0.18561 0.85107 0.47351 0.0
C1915 C 0.10716 0.7526 0.54429 0.0
C1916 C 0.11682 0.81148 0.5102 0.0
H1917 H 0.15255 0.8253 0.4583 0.0
C1918 C 0.114 0.83414 0.52016 0.0
C1919 C 0.13051 0.80856 0.48705 0.0
C1920 C 0.13261 0.78549 0.47314 0.0
C1921 C 0.1255 0.85341 0.50899 0.0
C1922 C 0.13981 0.85032 0.4864 0.0
C1923 C 0.14197 0.82784 0.47581 0.0
C1924 C 0.15326 0.86987 0.47389 0.0
C1925 C 0.12294 0.87664 0.52246 0.0
C1926 C 0.14257 0.89091 0.4666 0.0
C1927 C 0.15561 0.90911 0.45551 0.0
C1928 C 0.17967 0.90667 0.451 0.0
C1929 C 0.19022 0.88539 0.45764 0.0
C1930 C 0.17713 0.86726 0.46874 0.0
H1931 H 0.11776 0.87466 0.5435 0.0
H1932 H 0.13937 0.8867 0.52171 0.0
H1933 H 0.10913 0.8868 0.5124 0.0
H1934 H 0.12405 0.89328 0.4692 0.0
H1935 H 0.14672 0.92505 0.45028 0.0
H1936 H 0.30373 0.92052 0.98616 0.0
H1937 H 0.27232 0.90036 1.0093 0.0
H1938 H 0.22484 0.95526 0.98755 0.0
H1939 H 0.2558 0.97411 0.96246 0.0
H1940 H 0.24671 0.90367 0.04651 0.0
H1941 H 0.18372 0.9081 0.9644 0.0
H1942 H 0.21223 0.92034 0.9608 0.0
H1943 H 0.18932 0.93666 0.97643 0.0
C1944 C 0.2865 0.92813 0.98626 0.0
C1945 C 0.28214 0.94873 0.9723 0.0
C1946 C 0.26835 0.9165 0.99937 0.0
C1947 C 0.24542 0.92535 0.99923 0.0
C1948 C 0.24169 0.94695 0.98678 0.0
H1949 H 0.11527 0.88552 0.07621 0.0
H1950 H 0.14754 0.90518 0.05396 0.0
C1951 C 0.25958 0.95806 0.97279 0.0
C1952 C 0.22579 0.91228 1.0125 0.0
H1953 H 0.16864 0.89605 1.00622 0.0
C1954 C 0.22979 0.90188 0.03736 0.0
C1955 C 0.20329 0.90971 1.00107 0.0
C1956 C 0.19703 0.91911 0.97412 0.0
C1957 C 0.21229 0.88955 0.051 0.0
C1958 C 0.18986 0.88747 0.03975 0.0
C1959 C 0.18576 0.89771 1.015 0.0
C1960 C 0.17024 0.87519 0.05347 0.0
C1961 C 0.21793 0.87926 0.07768 0.0
C1962 C 0.17188 0.85159 0.06037 0.0
C1963 C 0.15336 0.84027 0.07312 0.0
C1964 C 0.13265 0.85219 0.07927 0.0
C1965 C 0.13091 0.87572 0.07195 0.0
C1966 C 0.14942 0.88703 0.05918 0.0
H1967 H 0.23363 0.8873 0.08653 0.0
H1968 H 0.20316 0.8814 0.09162 0.0
H1969 H 0.22139 0.86041 0.07535 0.0
H1970 H 0.18744 0.84186 0.05568 0.0
H1971 H 0.15518 0.82208 0.07795 0.0
H1972 H 0.70859 0.15207 0.0833 0.0
H1973 H 0.6868 0.18386 0.06252 0.0
H1974 H 0.62538 0.14133 0.06102 0.0
H1975 H 0.6471 0.10951 0.08178 0.0
H1976 H 0.63173 0.16362 1.01432 0.0
H1977 H 0.64045 0.22791 0.09492 0.0
H1978 H 0.66779 0.21719 0.08297 0.0
H1979 H 0.64798 0.19772 0.09926 0.0
C1980 C 0.69032 0.14969 0.07903 0.0
C1981 C 0.67954 0.12842 0.08479 0.0
C1982 C 0.67785 0.1679 0.06707 0.0
C1983 C 0.6542 0.16541 0.06065 0.0
C1984 C 0.64351 0.14395 0.06593 0.0
H1985 H 0.55686 0.25418 0.9689 0.0
H1986 H 0.57339 0.22252 0.99515 0.0
C1987 C 0.65599 0.12571 0.07783 0.0
C1988 C 0.64087 0.18479 0.04764 0.0
H1989 H 0.62509 0.24182 0.05434 0.0
C1990 C 0.63016 0.1807 0.02314 0.0
C1991 C 0.63876 0.20718 0.05899 0.0
C1992 C 0.64917 0.21276 0.08559 0.0
C1993 C 0.61821 0.19835 1.00927 0.0
C1994 C 0.61623 0.22098 0.02045 0.0
C1995 C 0.62653 0.2248 0.04536 0.0
C1996 C 0.60461 0.2411 1.00638 0.0
C1997 C 0.60875 0.19238 0.98231 0.0
C1998 C 0.6153 0.26316 1.00546 0.0
C1999 C 0.60501 0.28179 0.99172 0.0
C2000 C 0.58409 0.27873 0.97792 0.0
C2001 C 0.57313 0.25698 0.97918 0.0
C2002 C 0.58285 0.23869 0.99389 0.0
H2003 H 0.61898 0.17824 0.97292 0.0
H2004 H 0.59064 0.18605 0.98448 0.0
H2005 H 0.60875 0.20751 0.9688 0.0
H2006 H 0.63193 0.26594 1.01493 0.0
H2007 H 0.61389 0.29833 0.99102 0.0
H2008 H 0.23459 0.59811 1.00473 0.0
H2009 H 0.26507 0.61972 0.02836 0.0
H2010 H 0.31526 0.5984 0.96983 0.0
H2011 H 0.28501 0.57729 0.94613 0.0
H2012 H 0.30649 0.60673 0.05108 0.0
H2013 H 0.32375 0.66804 0.96922 0.0
H2014 H 0.29869 0.64927 0.96971 0.0
H2015 H 0.32648 0.63835 0.95902 0.0
C2016 C 0.25216 0.59799 0.99704 0.0
C2017 C 0.25734 0.58612 0.97347 0.0
C2018 C 0.26957 0.61037 1.01051 0.0
C2019 C 0.29246 0.61117 1.00062 0.0
C2020 C 0.2977 0.59866 0.97755 0.0
H2021 H 0.41891 0.65047 0.08563 0.0
H2022 H 0.38668 0.62982 0.06459 0.0
C2023 C 0.28037 0.58642 0.9641 0.0
C2024 C 0.31097 0.62493 1.01426 0.0
H2025 H 0.35204 0.66683 1.00373 0.0
C2026 C 0.31635 0.61998 0.04077 0.0
C2027 C 0.32364 0.64257 1.00108 0.0
C2028 C 0.31771 0.65007 0.97329 0.0
C2029 C 0.33439 0.63164 0.05415 0.0
C2030 C 0.34791 0.6484 0.0405 0.0
C2031 C 0.34205 0.65379 1.01421 0.0
C2032 C 0.3679 0.66087 0.05314 0.0
C2033 C 0.33841 0.62615 0.08296 0.0
C2034 C 0.36886 0.68525 0.05282 0.0
C2035 C 0.38755 0.69707 0.06438 0.0
C2036 C 0.40575 0.68489 0.07678 0.0
C2037 C 0.40509 0.66046 0.07655 0.0
C2038 C 0.38647 0.64861 0.06477 0.0
H2039 H 0.32257 0.61885 0.09236 0.0
H2040 H 0.35243 0.61298 0.08464 0.0
H2041 H 0.34374 0.64185 0.09411 0.0
H2042 H 0.35505 0.69524 0.04369 0.0
H2043 H 0.38787 0.71579 0.06333 0.0
H2044 H 0.83899 0.38318 0.10267 0.0
H2045 H 0.85857 0.35037 0.08138 0.0
H2046 H 0.89527 0.398 0.03054 0.0
H2047 H 0.87594 0.43078 0.05221 0.0
H2048 H 0.85919 0.33371 0.03276 0.0
H2049 H 0.94882 0.36084 0.05694 0.0
H2050 H 0.92371 0.37479 0.07121 0.0
H2051 H 0.93362 0.38275 0.03863 0.0
C2052 C 0.85115 0.38662 0.0869 0.0
C2053 C 0.85582 0.40963 0.07926 0.0
C2054 C 0.86246 0.36782 0.07474 0.0
C2055 C 0.8789 0.37151 0.05458 0.0
C2056 C 0.88327 0.39453 0.04655 0.0
H2057 H 0.95967 0.28624 0.94701 0.0
H2058 H 0.93904 0.31683 0.97109 0.0
C2059 C 0.87207 0.41334 0.05889 0.0
C2060 C 0.89119 0.35136 0.04184 0.0
H2061 H 0.94508 0.3306 0.02504 0.0
C2062 C 0.87799 0.333 0.0313 0.0
C2063 C 0.91579 0.35007 0.04001 0.0
C2064 C 0.93131 0.36804 0.05255 0.0
C2065 C 0.88857 0.31401 0.01833 0.0
C2066 C 0.91309 0.31314 0.01587 0.0
C2067 C 0.92629 0.33127 0.02672 0.0
C2068 C 0.92541 0.29406 1.00134 0.0
C2069 C 0.8734 0.29535 1.00661 0.0
C2070 C 0.92494 0.27093 1.01038 0.0
C2071 C 0.93695 0.25333 0.99667 0.0
C2072 C 0.94956 0.25848 0.97356 0.0
C2073 C 0.95008 0.28164 0.96469 0.0
C2074 C 0.93828 0.29919 0.97846 0.0
H2075 H 0.8549 0.30081 1.00539 0.0
H2076 H 0.87958 0.29065 0.98652 0.0
H2077 H 0.87439 0.27957 0.01915 0.0
H2078 H 0.91543 0.26651 0.02816 0.0
H2079 H 0.93614 0.23566 1.00397 0.0
H2080 H 0.4196 0.89088 0.59318 0.0
H2081 H 0.38824 0.91419 0.57327 0.0
H2082 H 0.36446 0.85423 0.53068 0.0
H2083 H 0.39467 0.83033 0.55192 0.0
H2084 H 0.37021 0.9038 0.50222 0.0
H2085 H 0.31645 0.90418 0.59361 0.0
H2086 H 0.34759 0.90373 0.59453 0.0
H2087 H 0.33227 0.87796 0.58552 0.0
C2088 C 0.40758 0.88262 0.57968 0.0
C2089 C 0.40942 0.85869 0.57443 0.0
C2090 C 0.38968 0.89595 0.56833 0.0
C2091 C 0.37358 0.88575 0.551 0.0
C2092 C 0.37617 0.86218 0.54468 0.0
H2093 H 0.236 0.92429 0.49373 0.0
H2094 H 0.2699 0.90705 0.51603 0.0
C2095 C 0.39352 0.84863 0.55672 0.0
C2096 C 0.35366 0.89935 0.53992 0.0
H2097 H 0.29875 0.91831 0.5546 0.0
C2098 C 0.35458 0.90706 0.51363 0.0
C2099 C 0.33348 0.904 0.555 0.0
C2100 C 0.33218 0.89715 0.58375 0.0
C2101 C 0.33579 0.91901 0.50188 0.0
C2102 C 0.31501 0.92279 0.51659 0.0
C2103 C 0.3143 0.91515 0.54304 0.0
C2104 C 0.29386 0.93432 0.50488 0.0
C2105 C 0.33866 0.92753 0.47382 0.0
C2106 C 0.29551 0.95588 0.49191 0.0
C2107 C 0.27638 0.9653 0.47849 0.0
C2108 C 0.2547 0.95412 0.47886 0.0
C2109 C 0.25242 0.93347 0.49343 0.0
C2110 C 0.27186 0.92358 0.50612 0.0
H2111 H 0.3523 0.91774 0.46306 0.0
H2112 H 0.32222 0.92645 0.4625 0.0
H2113 H 0.34427 0.94594 0.47422 0.0
H2114 H 0.31178 0.96525 0.49156 0.0
H2115 H 0.27862 0.98128 0.46748 0.0
H2116 H 0.64685 0.41628 0.59771 0.0
H2117 H 0.62514 0.38404 0.57808 0.0
H2118 H 0.68894 0.35647 0.54585 0.0
H2119 H 0.71072 0.38769 0.56706 0.0
H2120 H 0.61595 0.37125 0.53246 0.0
H2121 H 0.66563 0.29804 0.57407 0.0
H2122 H 0.67036 0.32746 0.58478 0.0
H2123 H 0.68469 0.31644 0.55558 0.0
C2124 C 0.65624 0.40316 0.58666 0.0
C2125 C 0.68054 0.40441 0.58421 0.0
C2126 C 0.6438 0.38468 0.57536 0.0
C2127 C 0.65528 0.36718 0.56086 0.0
C2128 C 0.67956 0.36894 0.55779 0.0
H2129 H 0.58422 0.28386 0.44248 0.0
H2130 H 0.60385 0.31365 0.46813 0.0
C2131 C 0.69205 0.38702 0.56972 0.0
C2132 C 0.64179 0.34783 0.54804 0.0
H2133 H 0.64201 0.28926 0.5362 0.0
C2134 C 0.6216 0.35331 0.53363 0.0
C2135 C 0.6485 0.32412 0.54984 0.0
C2136 C 0.66831 0.31616 0.56717 0.0
C2137 C 0.60848 0.33616 0.52055 0.0
C2138 C 0.6163 0.31275 0.52053 0.0
C2139 C 0.63607 0.30713 0.5356 0.0
C2140 C 0.60456 0.29402 0.50468 0.0
C2141 C 0.58603 0.34344 0.50752 0.0
C2142 C 0.59928 0.27223 0.51593 0.0
C2143 C 0.58887 0.2546 0.50075 0.0
C2144 C 0.58331 0.25841 0.47403 0.0
C2145 C 0.58841 0.28021 0.46293 0.0
C2146 C 0.59931 0.29753 0.47782 0.0
H2147 H 0.57826 0.35869 0.5177 0.0
H2148 H 0.58958 0.34867 0.48679 0.0
H2149 H 0.57306 0.3292 0.50755 0.0
H2150 H 0.60319 0.26882 0.53651 0.0
H2151 H 0.58521 0.238 0.50992 0.0
H2152 H 0.25124 0.58291 0.44315 0.0
H2153 H 0.22184 0.60393 0.46857 0.0
H2154 H 0.27188 0.61653 0.53022 0.0
H2155 H 0.3017 0.5956 0.50451 0.0
H2156 H 0.2256 0.60067 0.548 0.0
H2157 H 0.22021 0.67578 0.47929 0.0
H2158 H 0.22034 0.64759 0.46404 0.0
H2159 H 0.24556 0.65738 0.48169 0.0
C2160 C 0.25609 0.59021 0.46208 0.0
C2161 C 0.27893 0.58775 0.47166 0.0
C2162 C 0.23922 0.60229 0.47659 0.0
C2163 C 0.24465 0.61217 0.50118 0.0
C2164 C 0.26727 0.6092 0.51123 0.0
H2165 H 0.15445 0.71382 0.58026 0.0
H2166 H 0.18715 0.69354 0.5596 0.0
C2167 C 0.28429 0.59719 0.49656 0.0
C2168 C 0.22653 0.62544 0.51618 0.0
H2169 H 0.19114 0.67315 0.51215 0.0
C2170 C 0.21815 0.61659 0.54025 0.0
C2171 C 0.21697 0.64642 0.50635 0.0
C2172 C 0.22626 0.65756 0.48152 0.0
C2173 C 0.20009 0.62775 0.55429 0.0
C2174 C 0.18976 0.64817 0.5438 0.0
C2175 C 0.19869 0.65737 0.52012 0.0
C2176 C 0.16979 0.66033 0.55702 0.0
C2177 C 0.19249 0.61768 0.58043 0.0
C2178 C 0.14883 0.64865 0.5623 0.0
C2179 C 0.13004 0.66023 0.57422 0.0
C2180 C 0.13161 0.68388 0.581 0.0
C2181 C 0.15254 0.6956 0.57545 0.0
C2182 C 0.17132 0.684 0.56357 0.0
H2183 H 0.2063 0.60667 0.58933 0.0
H2184 H 0.18782 0.63157 0.59469 0.0
H2185 H 0.17698 0.6066 0.57729 0.0
H2186 H 0.14685 0.63059 0.55688 0.0
H2187 H 0.11422 0.65062 0.57799 0.0
H2188 H 0.83318 0.15898 0.59777 0.0
H2189 H 0.85344 0.1912 0.57614 0.0
H2190 H 0.9054 0.1437 0.54704 0.0
H2191 H 0.88507 0.11129 0.56816 0.0
H2192 H 0.90206 0.20705 0.58068 0.0
H2193 H 0.88288 0.17521 0.47915 0.0
H2194 H 0.86365 0.1688 0.50649 0.0
H2195 H 0.89136 0.15465 0.50376 0.0
C2196 C 0.8489 0.1553 0.58674 0.0
C2197 C 0.85726 0.13235 0.58446 0.0
C2198 C 0.86052 0.17383 0.57442 0.0
C2199 C 0.88073 0.1699 0.55946 0.0
C2200 C 0.88956 0.14716 0.55793 0.0
H2201 H 0.96401 0.25362 0.45165 0.0
H2202 H 0.94597 0.22298 0.47808 0.0
C2203 C 0.87793 0.12861 0.57015 0.0
C2204 C 0.89225 0.18942 0.54494 0.0
H2205 H 0.90385 0.20959 0.48278 0.0
C2206 C 0.90253 0.20761 0.55925 0.0
C2207 C 0.89303 0.19014 0.517 0.0
C2208 C 0.88207 0.17129 0.50056 0.0
C2209 C 0.91406 0.22611 0.5464 0.0
C2210 C 0.91447 0.22711 0.51833 0.0
C2211 C 0.90384 0.20898 0.50416 0.0
C2212 C 0.92619 0.24629 0.50308 0.0
C2213 C 0.92638 0.24386 0.5632 0.0
C2214 C 0.92131 0.2699 0.50802 0.0
C2215 C 0.93201 0.28754 0.49308 0.0
C2216 C 0.94739 0.282 0.47239 0.0
C2217 C 0.95217 0.25848 0.46737 0.0
C2218 C 0.94179 0.2409 0.48252 0.0
H2219 H 0.93117 0.23657 0.58281 0.0
H2220 H 0.94242 0.25026 0.55345 0.0
H2221 H 0.91459 0.25882 0.56667 0.0
H2222 H 0.90887 0.27474 0.52309 0.0
H2223 H 0.92774 0.3055 0.4972 0.0
H2224 H 0.92717 0.17062 0.9832 0.0
H2225 H 0.89465 0.15121 1.00566 0.0
H2226 H 0.84813 0.17411 0.94419 0.0
H2227 H 0.88072 0.19336 0.92168 0.0
H2228 H 0.85059 0.17217 0.02386 0.0
H2229 H 0.83705 0.1027 0.94931 0.0
H2230 H 0.86368 0.11917 0.95115 0.0
H2231 H 0.83808 0.13201 0.93707 0.0
C2232 C 0.91003 0.17143 0.9744 0.0
C2233 C 0.90647 0.18379 0.95073 0.0
C2234 C 0.8914 0.16042 0.98735 0.0
C2235 C 0.86884 0.16108 0.97667 0.0
C2236 C 0.86531 0.17322 0.95287 0.0
H2237 H 0.73825 0.09367 0.02563 0.0
H2238 H 0.76894 0.11444 1.00152 0.0
C2239 C 0.88388 0.18447 0.94013 0.0
C2240 C 0.84909 0.14916 0.9905 0.0
H2241 H 0.81092 0.10383 0.98519 0.0
C2242 C 0.84197 0.15717 0.01546 0.0
C2243 C 0.83749 0.12981 0.97943 0.0
C2244 C 0.84447 0.12021 0.95285 0.0
C2245 C 0.82373 0.14642 0.02958 0.0
C2246 C 0.81253 0.12658 0.01889 0.0
C2247 C 0.81942 0.11887 0.99365 0.0
C2248 C 0.79385 0.1135 0.03355 0.0
C2249 C 0.81617 0.157 0.05547 0.0
C2250 C 0.79759 0.10525 0.05941 0.0
C2251 C 0.78007 0.09332 0.07319 0.0
C2252 C 0.75834 0.08901 0.06143 0.0
C2253 C 0.75474 0.09672 0.03534 0.0
C2254 C 0.77233 0.10861 0.02151 0.0
H2255 H 0.82162 0.17543 0.05699 0.0
H2256 H 0.79701 0.15605 0.05793 0.0
H2257 H 0.82446 0.14745 0.07203 0.0
H2258 H 0.81421 0.10781 0.06897 0.0
H2259 H 0.78359 0.08743 0.09314 0.0
H2260 H 0.32957 0.87835 0.93586 0.0
H2261 H 0.35024 0.84625 0.95723 0.0
H2262 H 0.40432 0.89321 0.98156 0.0
H2263 H 0.38392 0.92538 0.96004 0.0
H2264 H 0.39442 0.82791 0.94934 0.0
H2265 H 0.38707 0.86214 0.05128 0.0
H2266 H 0.37005 0.87343 0.02421 0.0
H2267 H 0.39977 0.88234 0.02843 0.0
C2268 C 0.34583 0.88193 0.94582 0.0
C2269 C 0.35494 0.90461 0.94628 0.0
C2270 C 0.35765 0.86347 0.95811 0.0
C2271 C 0.37865 0.86724 0.97164 0.0
C2272 C 0.38791 0.88982 0.97184 0.0
H2273 H 0.47316 0.78397 0.06738 0.0
H2274 H 0.45281 0.81427 0.04266 0.0
C2275 C 0.37625 0.90824 0.95933 0.0
C2276 C 0.391 0.84761 0.98522 0.0
H2277 H 0.41218 0.83001 0.04517 0.0
C2278 C 0.39816 0.82826 0.97035 0.0
C2279 C 0.396 0.84799 1.01263 0.0
C2280 C 0.38765 0.86746 0.03017 0.0
C2281 C 0.41066 0.80971 0.98188 0.0
C2282 C 0.4157 0.81006 1.00937 0.0
C2283 C 0.40847 0.82948 0.02417 0.0
C2284 C 0.42879 0.79093 0.02325 0.0
C2285 C 0.4191 0.79045 0.96411 0.0
C2286 C 0.42236 0.76739 0.02086 0.0
C2287 C 0.43465 0.74985 0.03438 0.0
C2288 C 0.45313 0.75554 0.05132 0.0
C2289 C 0.45922 0.77902 0.05415 0.0
C2290 C 0.44742 0.79641 0.04013 0.0
H2291 H 0.42064 0.79636 0.94326 0.0
H2292 H 0.43627 0.78372 0.97058 0.0
H2293 H 0.40638 0.77601 0.96455 0.0
H2294 H 0.4075 0.76254 1.00901 0.0
H2295 H 0.42909 0.73198 0.03246 0.0
H2296 H 0.80005 0.44479 0.02243 0.0
H2297 H 0.76932 0.42369 0.99885 0.0
H2298 H 0.72613 0.42671 0.06849 0.0
H2299 H 0.75595 0.44913 0.09119 0.0
H2300 H 0.74904 0.38402 1.00391 0.0
H2301 H 0.68009 0.4496 0.01751 0.0
H2302 H 0.70988 0.45527 0.02622 0.0
H2303 H 0.691 0.44003 0.04882 0.0
C2304 C 0.78386 0.44118 0.03257 0.0
C2305 C 0.7805 0.44875 0.05873 0.0
C2306 C 0.76628 0.42896 0.01911 0.0
C2307 C 0.74492 0.42388 0.0315 0.0
C2308 C 0.74192 0.43095 0.05792 0.0
H2309 H 0.64788 0.31791 0.96952 0.0
H2310 H 0.67951 0.33813 0.99208 0.0
C2311 C 0.75924 0.44352 0.07114 0.0
C2312 C 0.72593 0.41109 0.01703 0.0
H2313 H 0.6676 0.41212 1.00366 0.0
C2314 C 0.73127 0.39032 1.00367 0.0
C2315 C 0.70264 0.41926 0.01612 0.0
C2316 C 0.69562 0.44238 0.02768 0.0
C2317 C 0.71419 0.37753 0.98985 0.0
C2318 C 0.69063 0.38507 0.99015 0.0
C2319 C 0.68541 0.40595 1.00337 0.0
C2320 C 0.67117 0.37221 0.97643 0.0
C2321 C 0.72199 0.3565 0.97442 0.0
C2322 C 0.65486 0.38439 0.96088 0.0
C2323 C 0.63609 0.37292 0.9489 0.0
C2324 C 0.63324 0.34879 0.95157 0.0
C2325 C 0.6496 0.33647 0.96683 0.0
C2326 C 0.668 0.34808 0.97952 0.0
H2327 H 0.74056 0.35788 0.96861 0.0
H2328 H 0.72024 0.34082 0.98702 0.0
H2329 H 0.71148 0.35411 0.95624 0.0
H2330 H 0.65661 0.40293 0.95793 0.0
H2331 H 0.62393 0.38298 0.9372 0.0
H2332 H 0.09636 0.80151 0.02435 0.0
H2333 H 0.11549 0.77054 0.99909 0.0
H2334 H 0.09978 0.72169 0.0612 0.0
H2335 H 0.08071 0.7525 0.08635 0.0
H2336 H 0.14345 0.7166 0.04647 0.0
H2337 H 0.09005 0.71906 0.95539 0.0
H2338 H 0.1037 0.74626 0.9627 0.0
H2339 H 0.08197 0.73483 0.98481 0.0
C2340 C 0.09681 0.78411 0.03247 0.0
C2341 C 0.08697 0.77952 0.05739 0.0
C2342 C 0.10774 0.76632 0.01795 0.0
C2343 C 0.10901 0.74349 0.02795 0.0
C2344 C 0.09911 0.73901 0.05285 0.0
H2345 H 0.14907 0.61404 0.94924 0.0
H2346 H 0.12847 0.64616 0.97092 0.0
C2347 C 0.0882 0.75671 0.0673 0.0
C2348 C 0.12136 0.7244 1.01325 0.0
H2349 H 0.12399 0.69535 0.95414 0.0
C2350 C 0.13903 0.71194 0.02633 0.0
C2351 C 0.11583 0.71813 0.98685 0.0
C2352 C 0.09671 0.73013 0.97168 0.0
C2353 C 0.15136 0.69384 1.01381 0.0
C2354 C 0.14599 0.68778 0.98739 0.0
C2355 C 0.12819 0.69999 0.97434 0.0
C2356 C 0.15847 0.66861 0.97322 0.0
C2357 C 0.17003 0.68119 0.02902 0.0
C2358 C 0.18218 0.67053 0.96688 0.0
C2359 C 0.19398 0.65224 0.95428 0.0
C2360 C 0.18243 0.63144 0.94783 0.0
C2361 C 0.15861 0.62968 0.95397 0.0
C2362 C 0.14676 0.64809 0.96632 0.0
H2363 H 0.16902 0.68477 0.05058 0.0
H2364 H 0.16872 0.66216 0.02585 0.0
H2365 H 0.18732 0.6869 0.02183 0.0
H2366 H 0.1916 0.68624 0.97167 0.0
H2367 H 0.21229 0.6543 0.94994 0.0
loop_
_geom_bond_atom_site_label_1
_geom_bond_atom_site_label_2
_geom_bond_distance
_geom_bond_site_symmetry_2
_ccdc_geom_bond_type
C0 Eu1 2.835 . S
C0 C2 1.500 . S
C0 O20 1.257 . S
C0 O21 1.260 . S
Eu1 C0 2.835 . S
Eu1 O20 2.473 . S
Eu1 O21 2.480 . S
Eu1 O22 2.430 . S
Eu1 O23 2.670 . S
Eu1 O24 2.394 . S
Eu1 O29 2.355 . S
Eu1 O31 2.374 . S
C2 C0 1.500 . S
C2 C3 1.377 . S
C2 C7 1.377 . S
C3 C2 1.377 . S
C3 C4 1.395 . S
C3 H32 0.931 . S
C4 C3 1.395 . S
C4 C5 1.383 . S
C4 H33 0.931 . S
C5 C4 1.383 . S
C5 C6 1.394 . S
C6 C5 1.394 . S
C6 C7 1.378 . S
C6 H34 0.931 . S
C7 C2 1.377 . S
C7 C6 1.378 . S
C7 H35 0.931 . S
C8 O22 1.259 . S
C8 O23 1.270 . S
C9 O24 1.251 . S
C9 O25 1.251 . S
C10 Eu11 2.835 . S
C10 C12 1.500 . S
C10 O26 1.257 . S
C10 O27 1.260 . S
Eu11 C10 2.835 . S
Eu11 O23 2.355 . S
Eu11 O25 2.374 . S
Eu11 O26 2.473 . S
Eu11 O27 2.480 . S
Eu11 O28 2.430 . S
Eu11 O29 2.670 . S
Eu11 O30 2.394 . S
C12 C10 1.500 . S
C12 C13 1.377 . S
C12 C17 1.377 . S
C13 C12 1.377 . S
C13 C14 1.395 . S
C13 H36 0.931 . S
C14 C13 1.395 . S
C14 C15 1.383 . S
C14 H37 0.931 . S
C15 C14 1.383 . S
C15 C16 1.394 . S
C16 C15 1.394 . S
C16 C17 1.378 . S
C16 H38 0.931 . S
C17 C12 1.377 . S
C17 C16 1.378 . S
C17 H39 0.931 . S
C18 O28 1.259 . S
C18 O29 1.270 . S
C19 O30 1.251 . S
C19 O31 1.251 . S
O20 C0 1.257 . S
O20 Eu1 2.473 . S
O21 C0 1.260 . S
O21 Eu1 2.480 . S
O22 Eu1 2.430 . S
O22 C8 1.259 . S
O23 Eu1 2.670 . S
O23 C8 1.270 . S
O23 Eu11 2.355 . S
O24 Eu1 2.394 . S
O24 C9 1.251 . S
O25 C9 1.251 . S
O25 Eu11 2.374 . S
O26 C10 1.257 . S
O26 Eu11 2.473 . S
O27 C10 1.260 . S
O27 Eu11 2.480 . S
O28 Eu11 2.430 . S
O28 C18 1.259 . S
O29 Eu1 2.355 . S
O29 Eu11 2.670 . S
O29 C18 1.270 . S
O30 Eu11 2.394 . S
O30 C19 1.251 . S
O31 Eu1 2.374 . S
O31 C19 1.251 . S
H32 C3 0.931 . S
H33 C4 0.931 . S
H34 C6 0.931 . S
H35 C7 0.931 . S
H36 C13 0.931 . S
H37 C14 0.931 . S
H38 C16 0.931 . S
H39 C17 0.931 . S
C40 Eu41 2.835 . S
C40 C42 1.500 . S
C40 O60 1.257 . S
C40 O61 1.260 . S
Eu41 C40 2.835 . S
Eu41 O60 2.473 . S
Eu41 O61 2.480 . S
Eu41 O62 2.430 . S
Eu41 O63 2.670 . S
Eu41 O64 2.394 . S
Eu41 O69 2.355 . S
Eu41 O71 2.374 . S
C42 C40 1.500 . S
C42 C43 1.377 . S
C42 C47 1.377 . S
C43 C42 1.377 . S
C43 C44 1.395 . S
C43 H72 0.931 . S
C44 C43 1.395 . S
C44 C45 1.383 . S
C44 H73 0.931 . S
C45 C44 1.383 . S
C45 C46 1.394 . S
C46 C45 1.394 . S
C46 C47 1.378 . S
C46 H74 0.931 . S
C47 C42 1.377 . S
C47 C46 1.378 . S
C47 H75 0.931 . S
C48 O62 1.259 . S
C48 O63 1.270 . S
C49 O64 1.251 . S
C49 O65 1.251 . S
C50 Eu51 2.835 . S
C50 C52 1.500 . S
C50 O66 1.257 . S
C50 O67 1.260 . S
Eu51 C50 2.835 . S
Eu51 O63 2.355 . S
Eu51 O65 2.374 . S
Eu51 O66 2.473 . S
Eu51 O67 2.480 . S
Eu51 O68 2.430 . S
Eu51 O69 2.670 . S
Eu51 O70 2.394 . S
C52 C50 1.500 . S
C52 C53 1.377 . S
C52 C57 1.377 . S
C53 C52 1.377 . S
C53 C54 1.395 . S
C53 H76 0.931 . S
C54 C53 1.395 . S
C54 C55 1.383 . S
C54 H77 0.931 . S
C55 C54 1.383 . S
C55 C56 1.394 . S
C56 C55 1.394 . S
C56 C57 1.378 . S
C56 H78 0.931 . S
C57 C52 1.377 . S
C57 C56 1.378 . S
C57 H79 0.931 . S
C58 O68 1.259 . S
C58 O69 1.270 . S
C59 O70 1.251 . S
C59 O71 1.251 . S
O60 C40 1.257 . S
O60 Eu41 2.473 . S
O61 C40 1.260 . S
O61 Eu41 2.480 . S
O62 Eu41 2.430 . S
O62 C48 1.259 . S
O63 Eu41 2.670 . S
O63 C48 1.270 . S
O63 Eu51 2.355 . S
O64 Eu41 2.394 . S
O64 C49 1.251 . S
O65 C49 1.251 . S
O65 Eu51 2.374 . S
O66 C50 1.257 . S
O66 Eu51 2.473 . S
O67 C50 1.260 . S
O67 Eu51 2.480 . S
O68 Eu51 2.430 . S
O68 C58 1.259 . S
O69 Eu41 2.355 . S
O69 Eu51 2.670 . S
O69 C58 1.270 . S
O70 Eu51 2.394 . S
O70 C59 1.251 . S
O71 Eu41 2.374 . S
O71 C59 1.251 . S
H72 C43 0.931 . S
H73 C44 0.931 . S
H74 C46 0.931 . S
H75 C47 0.931 . S
H76 C53 0.931 . S
H77 C54 0.931 . S
H78 C56 0.931 . S
H79 C57 0.931 . S
C80 Eu81 2.835 1_455 S
C80 C82 1.500 . S
C80 O100 1.257 . S
C80 O101 1.260 . S
Eu81 C80 2.835 1_655 S
Eu81 O100 2.473 1_655 S
Eu81 O101 2.480 1_655 S
Eu81 O102 2.430 . S
Eu81 O103 2.670 . S
Eu81 O104 2.394 . S
Eu81 O109 2.355 . S
Eu81 O111 2.374 . S
C82 C80 1.500 . S
C82 C83 1.377 . S
C82 C87 1.377 . S
C83 C82 1.377 . S
C83 C84 1.395 . S
C83 H112 0.931 . S
C84 C83 1.395 . S
C84 C85 1.383 . S
C84 H113 0.931 . S
C85 C84 1.383 . S
C85 C86 1.394 . S
C86 C85 1.394 . S
C86 C87 1.378 . S
C86 H114 0.931 . S
C87 C82 1.377 . S
C87 C86 1.378 . S
C87 H115 0.931 . S
C88 O102 1.259 . S
C88 O103 1.270 . S
C89 O104 1.251 . S
C89 O105 1.251 . S
C90 Eu91 2.835 . S
C90 C92 1.500 . S
C90 O106 1.257 . S
C90 O107 1.260 . S
Eu91 C90 2.835 . S
Eu91 O103 2.355 . S
Eu91 O105 2.374 . S
Eu91 O106 2.473 . S
Eu91 O107 2.480 . S
Eu91 O108 2.430 . S
Eu91 O109 2.670 . S
Eu91 O110 2.394 . S
C92 C90 1.500 . S
C92 C93 1.377 . S
C92 C97 1.377 . S
C93 C92 1.377 . S
C93 C94 1.395 . S
C93 H116 0.931 . S
C94 C93 1.395 . S
C94 C95 1.383 . S
C94 H117 0.931 . S
C95 C94 1.383 . S
C95 C96 1.394 . S
C96 C95 1.394 . S
C96 C97 1.378 . S
C96 H118 0.931 . S
C97 C92 1.377 . S
C97 C96 1.378 . S
C97 H119 0.931 . S
C98 O108 1.259 . S
C98 O109 1.270 . S
C99 O110 1.251 . S
C99 O111 1.251 . S
O100 C80 1.257 . S
O100 Eu81 2.473 1_455 S
O101 C80 1.260 . S
O101 Eu81 2.480 1_455 S
O102 Eu81 2.430 . S
O102 C88 1.259 . S
O103 Eu81 2.670 . S
O103 C88 1.270 . S
O103 Eu91 2.355 . S
O104 Eu81 2.394 . S
O104 C89 1.251 . S
O105 C89 1.251 . S
O105 Eu91 2.374 . S
O106 C90 1.257 . S
O106 Eu91 2.473 . S
O107 C90 1.260 . S
O107 Eu91 2.480 . S
O108 Eu91 2.430 . S
O108 C98 1.259 . S
O109 Eu81 2.355 . S
O109 Eu91 2.670 . S
O109 C98 1.270 . S
O110 Eu91 2.394 . S
O110 C99 1.251 . S
O111 Eu81 2.374 . S
O111 C99 1.251 . S
H112 C83 0.931 . S
H113 C84 0.931 . S
H114 C86 0.931 . S
H115 C87 0.931 . S
H116 C93 0.931 . S
H117 C94 0.931 . S
H118 C96 0.931 . S
H119 C97 0.931 . S
C120 Eu121 2.835 1_545 S
C120 C122 1.500 . S
C120 O140 1.257 . S
C120 O141 1.260 . S
Eu121 C120 2.835 1_565 S
Eu121 O140 2.473 1_565 S
Eu121 O141 2.480 1_565 S
Eu121 O142 2.430 . S
Eu121 O143 2.670 . S
Eu121 O144 2.394 . S
Eu121 O149 2.355 . S
Eu121 O151 2.374 . S
C122 C120 1.500 . S
C122 C123 1.377 . S
C122 C127 1.377 . S
C123 C122 1.377 . S
C123 C124 1.395 . S
C123 H152 0.931 . S
C124 C123 1.395 . S
C124 C125 1.383 . S
C124 H153 0.931 . S
C125 C124 1.383 . S
C125 C126 1.394 . S
C126 C125 1.394 . S
C126 C127 1.378 . S
C126 H154 0.931 . S
C127 C122 1.377 . S
C127 C126 1.378 . S
C127 H155 0.931 . S
C128 O142 1.259 . S
C128 O143 1.270 . S
C129 O144 1.251 . S
C129 O145 1.251 . S
C130 Eu131 2.835 . S
C130 C132 1.500 . S
C130 O146 1.257 . S
C130 O147 1.260 . S
Eu131 C130 2.835 . S
Eu131 O143 2.355 . S
Eu131 O145 2.374 . S
Eu131 O146 2.473 . S
Eu131 O147 2.480 . S
Eu131 O148 2.430 . S
Eu131 O149 2.670 . S
Eu131 O150 2.394 . S
C132 C130 1.500 . S
C132 C133 1.377 . S
C132 C137 1.377 . S
C133 C132 1.377 . S
C133 C134 1.395 . S
C133 H156 0.931 . S
C134 C133 1.395 . S
C134 C135 1.383 . S
C134 H157 0.931 . S
C135 C134 1.383 . S
C135 C136 1.394 . S
C136 C135 1.394 . S
C136 C137 1.378 . S
C136 H158 0.931 . S
C137 C132 1.377 . S
C137 C136 1.378 . S
C137 H159 0.931 . S
C138 O148 1.259 . S
C138 O149 1.270 . S
C139 O150 1.251 . S
C139 O151 1.251 . S
O140 C120 1.257 . S
O140 Eu121 2.473 1_545 S
O141 C120 1.260 . S
O141 Eu121 2.480 1_545 S
O142 Eu121 2.430 . S
O142 C128 1.259 . S
O143 Eu121 2.670 . S
O143 C128 1.270 . S
O143 Eu131 2.355 . S
O144 Eu121 2.394 . S
O144 C129 1.251 . S
O145 C129 1.251 . S
O145 Eu131 2.374 . S
O146 C130 1.257 . S
O146 Eu131 2.473 . S
O147 C130 1.260 . S
O147 Eu131 2.480 . S
O148 Eu131 2.430 . S
O148 C138 1.259 . S
O149 Eu121 2.355 . S
O149 Eu131 2.670 . S
O149 C138 1.270 . S
O150 Eu131 2.394 . S
O150 C139 1.251 . S
O151 Eu121 2.374 . S
O151 C139 1.251 . S
H152 C123 0.931 . S
H153 C124 0.931 . S
H154 C126 0.931 . S
H155 C127 0.931 . S
H156 C133 0.931 . S
H157 C134 0.931 . S
H158 C136 0.931 . S
H159 C137 0.931 . S
C160 Eu161 2.835 1_655 S
C160 C162 1.500 . S
C160 O180 1.257 . S
C160 O181 1.260 . S
Eu161 C160 2.835 1_455 S
Eu161 O180 2.473 1_455 S
Eu161 O181 2.480 1_455 S
Eu161 O182 2.430 . S
Eu161 O183 2.670 . S
Eu161 O184 2.394 . S
Eu161 O189 2.355 . S
Eu161 O191 2.374 . S
C162 C160 1.500 . S
C162 C163 1.377 . S
C162 C167 1.377 . S
C163 C162 1.377 . S
C163 C164 1.395 . S
C163 H192 0.931 . S
C164 C163 1.395 . S
C164 C165 1.383 . S
C164 H193 0.931 . S
C165 C164 1.383 . S
C165 C166 1.394 . S
C166 C165 1.394 . S
C166 C167 1.378 . S
C166 H194 0.931 . S
C167 C162 1.377 . S
C167 C166 1.378 . S
C167 H195 0.931 . S
C168 O182 1.259 . S
C168 O183 1.270 . S
C169 O184 1.251 . S
C169 O185 1.251 . S
C170 Eu171 2.835 . S
C170 C172 1.500 . S
C170 O186 1.257 . S
C170 O187 1.260 . S
Eu171 C170 2.835 . S
Eu171 O183 2.355 . S
Eu171 O185 2.374 . S
Eu171 O186 2.473 . S
Eu171 O187 2.480 . S
Eu171 O188 2.430 . S
Eu171 O189 2.670 . S
Eu171 O190 2.394 . S
C172 C170 1.500 . S
C172 C173 1.377 . S
C172 C177 1.377 . S
C173 C172 1.377 . S
C173 C174 1.395 . S
C173 H196 0.931 . S
C174 C173 1.395 . S
C174 C175 1.383 . S
C174 H197 0.931 . S
C175 C174 1.383 . S
C175 C176 1.394 . S
C176 C175 1.394 . S
C176 C177 1.378 . S
C176 H198 0.931 . S
C177 C172 1.377 . S
C177 C176 1.378 . S
C177 H199 0.931 . S
C178 O188 1.259 . S
C178 O189 1.270 . S
C179 O190 1.251 . S
C179 O191 1.251 . S
O180 C160 1.257 . S
O180 Eu161 2.473 1_655 S
O181 C160 1.260 . S
O181 Eu161 2.480 1_655 S
O182 Eu161 2.430 . S
O182 C168 1.259 . S
O183 Eu161 2.670 . S
O183 C168 1.270 . S
O183 Eu171 2.355 . S
O184 Eu161 2.394 . S
O184 C169 1.251 . S
O185 C169 1.251 . S
O185 Eu171 2.374 . S
O186 C170 1.257 . S
O186 Eu171 2.473 . S
O187 C170 1.260 . S
O187 Eu171 2.480 . S
O188 Eu171 2.430 . S
O188 C178 1.259 . S
O189 Eu161 2.355 . S
O189 Eu171 2.670 . S
O189 C178 1.270 . S
O190 Eu171 2.394 . S
O190 C179 1.251 . S
O191 Eu161 2.374 . S
O191 C179 1.251 . S
H192 C163 0.931 . S
H193 C164 0.931 . S
H194 C166 0.931 . S
H195 C167 0.931 . S
H196 C173 0.931 . S
H197 C174 0.931 . S
H198 C176 0.931 . S
H199 C177 0.931 . S
C200 Eu201 2.835 1_565 S
C200 C202 1.500 . S
C200 O220 1.257 . S
C200 O221 1.260 . S
Eu201 C200 2.835 1_545 S
Eu201 O220 2.473 1_545 S
Eu201 O221 2.480 1_545 S
Eu201 O222 2.430 . S
Eu201 O223 2.670 . S
Eu201 O224 2.394 . S
Eu201 O229 2.355 . S
Eu201 O231 2.374 . S
C202 C200 1.500 . S
C202 C203 1.377 . S
C202 C207 1.377 . S
C203 C202 1.377 . S
C203 C204 1.395 . S
C203 H232 0.931 . S
C204 C203 1.395 . S
C204 C205 1.383 . S
C204 H233 0.931 . S
C205 C204 1.383 . S
C205 C206 1.394 . S
C206 C205 1.394 . S
C206 C207 1.378 . S
C206 H234 0.931 . S
C207 C202 1.377 . S
C207 C206 1.378 . S
C207 H235 0.931 . S
C208 O222 1.259 . S
C208 O223 1.270 . S
C209 O224 1.251 . S
C209 O225 1.251 . S
C210 Eu211 2.835 . S
C210 C212 1.500 . S
C210 O226 1.257 . S
C210 O227 1.260 . S
Eu211 C210 2.835 . S
Eu211 O223 2.355 . S
Eu211 O225 2.374 . S
Eu211 O226 2.473 . S
Eu211 O227 2.480 . S
Eu211 O228 2.430 . S
Eu211 O229 2.670 . S
Eu211 O230 2.394 . S
C212 C210 1.500 . S
C212 C213 1.377 . S
C212 C217 1.377 . S
C213 C212 1.377 . S
C213 C214 1.395 . S
C213 H236 0.931 . S
C214 C213 1.395 . S
C214 C215 1.383 . S
C214 H237 0.931 . S
C215 C214 1.383 . S
C215 C216 1.394 . S
C216 C215 1.394 . S
C216 C217 1.378 . S
C216 H238 0.931 . S
C217 C212 1.377 . S
C217 C216 1.378 . S
C217 H239 0.931 . S
C218 O228 1.259 . S
C218 O229 1.270 . S
C219 O230 1.251 . S
C219 O231 1.251 . S
O220 C200 1.257 . S
O220 Eu201 2.473 1_565 S
O221 C200 1.260 . S
O221 Eu201 2.480 1_565 S
O222 Eu201 2.430 . S
O222 C208 1.259 . S
O223 Eu201 2.670 . S
O223 C208 1.270 . S
O223 Eu211 2.355 . S
O224 Eu201 2.394 . S
O224 C209 1.251 . S
O225 C209 1.251 . S
O225 Eu211 2.374 . S
O226 C210 1.257 . S
O226 Eu211 2.473 . S
O227 C210 1.260 . S
O227 Eu211 2.480 . S
O228 Eu211 2.430 . S
O228 C218 1.259 . S
O229 Eu201 2.355 . S
O229 Eu211 2.670 . S
O229 C218 1.270 . S
O230 Eu211 2.394 . S
O230 C219 1.251 . S
O231 Eu201 2.374 . S
O231 C219 1.251 . S
H232 C203 0.931 . S
H233 C204 0.931 . S
H234 C206 0.931 . S
H235 C207 0.931 . S
H236 C213 0.931 . S
H237 C214 0.931 . S
H238 C216 0.931 . S
H239 C217 0.931 . S
C240 Eu241 2.835 . S
C240 C242 1.500 . S
C240 O260 1.257 . S
C240 O261 1.260 . S
Eu241 C240 2.835 . S
Eu241 O260 2.473 . S
Eu241 O261 2.480 . S
Eu241 O262 2.430 . S
Eu241 O263 2.670 . S
Eu241 O264 2.394 . S
Eu241 O269 2.355 . S
Eu241 O271 2.374 . S
C242 C240 1.500 . S
C242 C243 1.377 . S
C242 C247 1.377 . S
C243 C242 1.377 . S
C243 C244 1.395 . S
C243 H272 0.931 . S
C244 C243 1.395 . S
C244 C245 1.383 . S
C244 H273 0.931 . S
C245 C244 1.383 . S
C245 C246 1.394 . S
C246 C245 1.394 . S
C246 C247 1.378 . S
C246 H274 0.931 . S
C247 C242 1.377 . S
C247 C246 1.378 . S
C247 H275 0.931 . S
C248 O262 1.259 . S
C248 O263 1.270 . S
C249 O264 1.251 . S
C249 O265 1.251 . S
C250 Eu251 2.835 . S
C250 C252 1.500 . S
C250 O266 1.257 . S
C250 O267 1.260 . S
Eu251 C250 2.835 . S
Eu251 O263 2.355 . S
Eu251 O265 2.374 . S
Eu251 O266 2.473 . S
Eu251 O267 2.480 . S
Eu251 O268 2.430 . S
Eu251 O269 2.670 . S
Eu251 O270 2.394 . S
C252 C250 1.500 . S
C252 C253 1.377 . S
C252 C257 1.377 . S
C253 C252 1.377 . S
C253 C254 1.395 . S
C253 H276 0.931 . S
C254 C253 1.395 . S
C254 C255 1.383 . S
C254 H277 0.931 . S
C255 C254 1.383 . S
C255 C256 1.394 . S
C256 C255 1.394 . S
C256 C257 1.378 . S
C256 H278 0.931 . S
C257 C252 1.377 . S
C257 C256 1.378 . S
C257 H279 0.931 . S
C258 O268 1.259 . S
C258 O269 1.270 . S
C259 O270 1.251 . S
C259 O271 1.251 . S
O260 C240 1.257 . S
O260 Eu241 2.473 . S
O261 C240 1.260 . S
O261 Eu241 2.480 . S
O262 Eu241 2.430 . S
O262 C248 1.259 . S
O263 Eu241 2.670 . S
O263 C248 1.270 . S
O263 Eu251 2.355 . S
O264 Eu241 2.394 . S
O264 C249 1.251 . S
O265 C249 1.251 . S
O265 Eu251 2.374 . S
O266 C250 1.257 . S
O266 Eu251 2.473 . S
O267 C250 1.260 . S
O267 Eu251 2.480 . S
O268 Eu251 2.430 . S
O268 C258 1.259 . S
O269 Eu241 2.355 . S
O269 Eu251 2.670 . S
O269 C258 1.270 . S
O270 Eu251 2.394 . S
O270 C259 1.251 . S
O271 Eu241 2.374 . S
O271 C259 1.251 . S
H272 C243 0.931 . S
H273 C244 0.931 . S
H274 C246 0.931 . S
H275 C247 0.931 . S
H276 C253 0.931 . S
H277 C254 0.931 . S
H278 C256 0.931 . S
H279 C257 0.931 . S
C280 Eu281 2.835 . S
C280 C282 1.500 . S
C280 O300 1.257 . S
C280 O301 1.260 . S
Eu281 C280 2.835 . S
Eu281 O300 2.473 . S
Eu281 O301 2.480 . S
Eu281 O302 2.430 . S
Eu281 O303 2.670 . S
Eu281 O304 2.394 . S
Eu281 O309 2.355 . S
Eu281 O311 2.374 . S
C282 C280 1.500 . S
C282 C283 1.377 . S
C282 C287 1.377 . S
C283 C282 1.377 . S
C283 C284 1.395 . S
C283 H312 0.931 . S
C284 C283 1.395 . S
C284 C285 1.383 . S
C284 H313 0.931 . S
C285 C284 1.383 . S
C285 C286 1.394 . S
C286 C285 1.394 . S
C286 C287 1.378 . S
C286 H314 0.931 . S
C287 C282 1.377 . S
C287 C286 1.378 . S
C287 H315 0.931 . S
C288 O302 1.259 . S
C288 O303 1.270 . S
C289 O304 1.251 . S
C289 O305 1.251 . S
C290 Eu291 2.835 . S
C290 C292 1.500 . S
C290 O306 1.257 . S
C290 O307 1.260 . S
Eu291 C290 2.835 . S
Eu291 O303 2.355 . S
Eu291 O305 2.374 . S
Eu291 O306 2.473 . S
Eu291 O307 2.480 . S
Eu291 O308 2.430 . S
Eu291 O309 2.670 . S
Eu291 O310 2.394 . S
C292 C290 1.500 . S
C292 C293 1.377 . S
C292 C297 1.377 . S
C293 C292 1.377 . S
C293 C294 1.395 . S
C293 H316 0.931 . S
C294 C293 1.395 . S
C294 C295 1.383 . S
C294 H317 0.931 . S
C295 C294 1.383 . S
C295 C296 1.394 . S
C296 C295 1.394 . S
C296 C297 1.378 . S
C296 H318 0.931 . S
C297 C292 1.377 . S
C297 C296 1.378 . S
C297 H319 0.931 . S
C298 O308 1.259 . S
C298 O309 1.270 . S
C299 O310 1.251 . S
C299 O311 1.251 . S
O300 C280 1.257 . S
O300 Eu281 2.473 . S
O301 C280 1.260 . S
O301 Eu281 2.480 . S
O302 Eu281 2.430 . S
O302 C288 1.259 . S
O303 Eu281 2.670 . S
O303 C288 1.270 . S
O303 Eu291 2.355 . S
O304 Eu281 2.394 . S
O304 C289 1.251 . S
O305 C289 1.251 . S
O305 Eu291 2.374 . S
O306 C290 1.257 . S
O306 Eu291 2.473 . S
O307 C290 1.260 . S
O307 Eu291 2.480 . S
O308 Eu291 2.430 . S
O308 C298 1.259 . S
O309 Eu281 2.355 . S
O309 Eu291 2.670 . S
O309 C298 1.270 . S
O310 Eu291 2.394 . S
O310 C299 1.251 . S
O311 Eu281 2.374 . S
O311 C299 1.251 . S
H312 C283 0.931 . S
H313 C284 0.931 . S
H314 C286 0.931 . S
H315 C287 0.931 . S
H316 C293 0.931 . S
H317 C294 0.931 . S
H318 C296 0.931 . S
H319 C297 0.931 . S
C320 Eu321 2.835 . S
C320 C322 1.500 . S
C320 O340 1.257 . S
C320 O341 1.260 . S
Eu321 C320 2.835 . S
Eu321 O340 2.473 . S
Eu321 O341 2.480 . S
Eu321 O342 2.430 . S
Eu321 O343 2.670 . S
Eu321 O344 2.394 . S
Eu321 O349 2.355 . S
Eu321 O351 2.374 . S
C322 C320 1.500 . S
C322 C323 1.377 . S
C322 C327 1.377 . S
C323 C322 1.377 . S
C323 C324 1.395 . S
C323 H352 0.931 . S
C324 C323 1.395 . S
C324 C325 1.383 . S
C324 H353 0.931 . S
C325 C324 1.383 . S
C325 C326 1.394 . S
C326 C325 1.394 . S
C326 C327 1.378 . S
C326 H354 0.931 . S
C327 C322 1.377 . S
C327 C326 1.378 . S
C327 H355 0.931 . S
C328 O342 1.259 . S
C328 O343 1.270 . S
C329 O344 1.251 . S
C329 O345 1.251 . S
C330 Eu331 2.835 . S
C330 C332 1.500 . S
C330 O346 1.257 . S
C330 O347 1.260 . S
Eu331 C330 2.835 . S
Eu331 O343 2.355 . S
Eu331 O345 2.374 . S
Eu331 O346 2.473 . S
Eu331 O347 2.480 . S
Eu331 O348 2.430 . S
Eu331 O349 2.670 . S
Eu331 O350 2.394 . S
C332 C330 1.500 . S
C332 C333 1.377 . S
C332 C337 1.377 . S
C333 C332 1.377 . S
C333 C334 1.395 . S
C333 H356 0.931 . S
C334 C333 1.395 . S
C334 C335 1.383 . S
C334 H357 0.931 . S
C335 C334 1.383 . S
C335 C336 1.394 . S
C336 C335 1.394 . S
C336 C337 1.378 . S
C336 H358 0.931 . S
C337 C332 1.377 . S
C337 C336 1.378 . S
C337 H359 0.931 . S
C338 O348 1.259 . S
C338 O349 1.270 . S
C339 O350 1.251 . S
C339 O351 1.251 . S
O340 C320 1.257 . S
O340 Eu321 2.473 . S
O341 C320 1.260 . S
O341 Eu321 2.480 . S
O342 Eu321 2.430 . S
O342 C328 1.259 . S
O343 Eu321 2.670 . S
O343 C328 1.270 . S
O343 Eu331 2.355 . S
O344 Eu321 2.394 . S
O344 C329 1.251 . S
O345 C329 1.251 . S
O345 Eu331 2.374 . S
O346 C330 1.257 . S
O346 Eu331 2.473 . S
O347 C330 1.260 . S
O347 Eu331 2.480 . S
O348 Eu331 2.430 . S
O348 C338 1.259 . S
O349 Eu321 2.355 . S
O349 Eu331 2.670 . S
O349 C338 1.270 . S
O350 Eu331 2.394 . S
O350 C339 1.251 . S
O351 Eu321 2.374 . S
O351 C339 1.251 . S
H352 C323 0.931 . S
H353 C324 0.931 . S
H354 C326 0.931 . S
H355 C327 0.931 . S
H356 C333 0.931 . S
H357 C334 0.931 . S
H358 C336 0.931 . S
H359 C337 0.931 . S
C360 Eu361 2.835 . S
C360 C362 1.500 . S
C360 O380 1.257 . S
C360 O381 1.260 . S
Eu361 C360 2.835 . S
Eu361 O380 2.473 . S
Eu361 O381 2.480 . S
Eu361 O382 2.430 . S
Eu361 O383 2.670 . S
Eu361 O384 2.394 . S
Eu361 O389 2.355 . S
Eu361 O391 2.374 . S
C362 C360 1.500 . S
C362 C363 1.377 . S
C362 C367 1.377 . S
C363 C362 1.377 . S
C363 C364 1.395 . S
C363 H392 0.931 . S
C364 C363 1.395 . S
C364 C365 1.383 . S
C364 H393 0.931 . S
C365 C364 1.383 . S
C365 C366 1.394 . S
C366 C365 1.394 . S
C366 C367 1.378 . S
C366 H394 0.931 . S
C367 C362 1.377 . S
C367 C366 1.378 . S
C367 H395 0.931 . S
C368 O382 1.259 . S
C368 O383 1.270 . S
C369 O384 1.251 . S
C369 O385 1.251 . S
C370 Eu371 2.835 . S
C370 C372 1.500 . S
C370 O386 1.257 . S
C370 O387 1.260 . S
Eu371 C370 2.835 . S
Eu371 O383 2.355 . S
Eu371 O385 2.374 . S
Eu371 O386 2.473 . S
Eu371 O387 2.480 . S
Eu371 O388 2.430 . S
Eu371 O389 2.670 . S
Eu371 O390 2.394 . S
C372 C370 1.500 . S
C372 C373 1.377 . S
C372 C377 1.377 . S
C373 C372 1.377 . S
C373 C374 1.395 . S
C373 H396 0.931 . S
C374 C373 1.395 . S
C374 C375 1.383 . S
C374 H397 0.931 . S
C375 C374 1.383 . S
C375 C376 1.394 . S
C376 C375 1.394 . S
C376 C377 1.378 . S
C376 H398 0.931 . S
C377 C372 1.377 . S
C377 C376 1.378 . S
C377 H399 0.931 . S
C378 O388 1.259 . S
C378 O389 1.270 . S
C379 O390 1.251 . S
C379 O391 1.251 . S
O380 C360 1.257 . S
O380 Eu361 2.473 . S
O381 C360 1.260 . S
O381 Eu361 2.480 . S
O382 Eu361 2.430 . S
O382 C368 1.259 . S
O383 Eu361 2.670 . S
O383 C368 1.270 . S
O383 Eu371 2.355 . S
O384 Eu361 2.394 . S
O384 C369 1.251 . S
O385 C369 1.251 . S
O385 Eu371 2.374 . S
O386 C370 1.257 . S
O386 Eu371 2.473 . S
O387 C370 1.260 . S
O387 Eu371 2.480 . S
O388 Eu371 2.430 . S
O388 C378 1.259 . S
O389 Eu361 2.355 . S
O389 Eu371 2.670 . S
O389 C378 1.270 . S
O390 Eu371 2.394 . S
O390 C379 1.251 . S
O391 Eu361 2.374 . S
O391 C379 1.251 . S
H392 C363 0.931 . S
H393 C364 0.931 . S
H394 C366 0.931 . S
H395 C367 0.931 . S
H396 C373 0.931 . S
H397 C374 0.931 . S
H398 C376 0.931 . S
H399 C377 0.931 . S
C400 Eu401 2.835 . S
C400 C402 1.500 . S
C400 O420 1.257 . S
C400 O421 1.260 . S
Eu401 C400 2.835 . S
Eu401 O420 2.473 . S
Eu401 O421 2.480 . S
Eu401 O422 2.430 . S
Eu401 O423 2.670 . S
Eu401 O424 2.394 . S
Eu401 O429 2.355 . S
Eu401 O431 2.374 . S
C402 C400 1.500 . S
C402 C403 1.377 . S
C402 C407 1.377 . S
C403 C402 1.377 . S
C403 C404 1.395 . S
C403 H432 0.931 . S
C404 C403 1.395 . S
C404 C405 1.383 . S
C404 H433 0.931 . S
C405 C404 1.383 . S
C405 C406 1.394 . S
C406 C405 1.394 . S
C406 C407 1.378 . S
C406 H434 0.931 . S
C407 C402 1.377 . S
C407 C406 1.378 . S
C407 H435 0.931 . S
C408 O422 1.259 . S
C408 O423 1.270 . S
C409 O424 1.251 . S
C409 O425 1.251 . S
C410 Eu411 2.835 1_655 S
C410 C412 1.500 . S
C410 O426 1.257 . S
C410 O427 1.260 . S
Eu411 C410 2.835 1_455 S
Eu411 O423 2.355 . S
Eu411 O425 2.374 . S
Eu411 O426 2.473 1_455 S
Eu411 O427 2.480 1_455 S
Eu411 O428 2.430 . S
Eu411 O429 2.670 . S
Eu411 O430 2.394 . S
C412 C410 1.500 . S
C412 C413 1.377 . S
C412 C417 1.377 . S
C413 C412 1.377 . S
C413 C414 1.395 . S
C413 H436 0.931 . S
C414 C413 1.395 . S
C414 C415 1.383 . S
C414 H437 0.931 . S
C415 C414 1.383 . S
C415 C416 1.394 . S
C416 C415 1.394 . S
C416 C417 1.378 . S
C416 H438 0.931 . S
C417 C412 1.377 . S
C417 C416 1.378 . S
C417 H439 0.931 . S
C418 O428 1.259 . S
C418 O429 1.270 . S
C419 O430 1.251 . S
C419 O431 1.251 . S
O420 C400 1.257 . S
O420 Eu401 2.473 . S
O421 C400 1.260 . S
O421 Eu401 2.480 . S
O422 Eu401 2.430 . S
O422 C408 1.259 . S
O423 Eu401 2.670 . S
O423 C408 1.270 . S
O423 Eu411 2.355 . S
O424 Eu401 2.394 . S
O424 C409 1.251 . S
O425 C409 1.251 . S
O425 Eu411 2.374 . S
O426 C410 1.257 . S
O426 Eu411 2.473 1_655 S
O427 C410 1.260 . S
O427 Eu411 2.480 1_655 S
O428 Eu411 2.430 . S
O428 C418 1.259 . S
O429 Eu401 2.355 . S
O429 Eu411 2.670 . S
O429 C418 1.270 . S
O430 Eu411 2.394 . S
O430 C419 1.251 . S
O431 Eu401 2.374 . S
O431 C419 1.251 . S
H432 C403 0.931 . S
H433 C404 0.931 . S
H434 C406 0.931 . S
H435 C407 0.931 . S
H436 C413 0.931 . S
H437 C414 0.931 . S
H438 C416 0.931 . S
H439 C417 0.931 . S
C440 Eu441 2.835 . S
C440 C442 1.500 . S
C440 O460 1.257 . S
C440 O461 1.260 . S
Eu441 C440 2.835 . S
Eu441 O460 2.473 . S
Eu441 O461 2.480 . S
Eu441 O462 2.430 . S
Eu441 O463 2.670 . S
Eu441 O464 2.394 . S
Eu441 O469 2.355 . S
Eu441 O471 2.374 . S
C442 C440 1.500 . S
C442 C443 1.377 . S
C442 C447 1.377 . S
C443 C442 1.377 . S
C443 C444 1.395 . S
C443 H472 0.931 . S
C444 C443 1.395 . S
C444 C445 1.383 . S
C444 H473 0.931 . S
C445 C444 1.383 . S
C445 C446 1.394 . S
C446 C445 1.394 . S
C446 C447 1.378 . S
C446 H474 0.931 . S
C447 C442 1.377 . S
C447 C446 1.378 . S
C447 H475 0.931 . S
C448 O462 1.259 . S
C448 O463 1.270 . S
C449 O464 1.251 . S
C449 O465 1.251 . S
C450 Eu451 2.835 1_565 S
C450 C452 1.500 . S
C450 O466 1.257 . S
C450 O467 1.260 . S
Eu451 C450 2.835 1_545 S
Eu451 O463 2.355 . S
Eu451 O465 2.374 . S
Eu451 O466 2.473 1_545 S
Eu451 O467 2.480 1_545 S
Eu451 O468 2.430 . S
Eu451 O469 2.670 . S
Eu451 O470 2.394 . S
C452 C450 1.500 . S
C452 C453 1.377 . S
C452 C457 1.377 . S
C453 C452 1.377 . S
C453 C454 1.395 . S
C453 H476 0.931 . S
C454 C453 1.395 . S
C454 C455 1.383 . S
C454 H477 0.931 . S
C455 C454 1.383 . S
C455 C456 1.394 . S
C456 C455 1.394 . S
C456 C457 1.378 . S
C456 H478 0.931 . S
C457 C452 1.377 . S
C457 C456 1.378 . S
C457 H479 0.931 . S
C458 O468 1.259 . S
C458 O469 1.270 . S
C459 O470 1.251 . S
C459 O471 1.251 . S
O460 C440 1.257 . S
O460 Eu441 2.473 . S
O461 C440 1.260 . S
O461 Eu441 2.480 . S
O462 Eu441 2.430 . S
O462 C448 1.259 . S
O463 Eu441 2.670 . S
O463 C448 1.270 . S
O463 Eu451 2.355 . S
O464 Eu441 2.394 . S
O464 C449 1.251 . S
O465 C449 1.251 . S
O465 Eu451 2.374 . S
O466 C450 1.257 . S
O466 Eu451 2.473 1_565 S
O467 C450 1.260 . S
O467 Eu451 2.480 1_565 S
O468 Eu451 2.430 . S
O468 C458 1.259 . S
O469 Eu441 2.355 . S
O469 Eu451 2.670 . S
O469 C458 1.270 . S
O470 Eu451 2.394 . S
O470 C459 1.251 . S
O471 Eu441 2.374 . S
O471 C459 1.251 . S
H472 C443 0.931 . S
H473 C444 0.931 . S
H474 C446 0.931 . S
H475 C447 0.931 . S
H476 C453 0.931 . S
H477 C454 0.931 . S
H478 C456 0.931 . S
H479 C457 0.931 . S
C480 Eu481 2.835 . S
C480 C482 1.500 . S
C480 O500 1.257 . S
C480 O501 1.260 . S
Eu481 C480 2.835 . S
Eu481 O500 2.473 . S
Eu481 O501 2.480 . S
Eu481 O502 2.430 . S
Eu481 O503 2.670 . S
Eu481 O504 2.394 . S
Eu481 O509 2.355 . S
Eu481 O511 2.374 . S
C482 C480 1.500 . S
C482 C483 1.377 . S
C482 C487 1.377 . S
C483 C482 1.377 . S
C483 C484 1.395 . S
C483 H512 0.931 . S
C484 C483 1.395 . S
C484 C485 1.383 . S
C484 H513 0.931 . S
C485 C484 1.383 . S
C485 C486 1.394 . S
C486 C485 1.394 . S
C486 C487 1.378 . S
C486 H514 0.931 . S
C487 C482 1.377 . S
C487 C486 1.378 . S
C487 H515 0.931 . S
C488 O502 1.259 . S
C488 O503 1.270 . S
C489 O504 1.251 . S
C489 O505 1.251 . S
C490 Eu491 2.835 1_455 S
C490 C492 1.500 . S
C490 O506 1.257 . S
C490 O507 1.260 . S
Eu491 C490 2.835 1_655 S
Eu491 O503 2.355 . S
Eu491 O505 2.374 . S
Eu491 O506 2.473 1_655 S
Eu491 O507 2.480 1_655 S
Eu491 O508 2.430 . S
Eu491 O509 2.670 . S
Eu491 O510 2.394 . S
C492 C490 1.500 . S
C492 C493 1.377 . S
C492 C497 1.377 . S
C493 C492 1.377 . S
C493 C494 1.395 . S
C493 H516 0.931 . S
C494 C493 1.395 . S
C494 C495 1.383 . S
C494 H517 0.931 . S
C495 C494 1.383 . S
C495 C496 1.394 . S
C496 C495 1.394 . S
C496 C497 1.378 . S
C496 H518 0.931 . S
C497 C492 1.377 . S
C497 C496 1.378 . S
C497 H519 0.931 . S
C498 O508 1.259 . S
C498 O509 1.270 . S
C499 O510 1.251 . S
C499 O511 1.251 . S
O500 C480 1.257 . S
O500 Eu481 2.473 . S
O501 C480 1.260 . S
O501 Eu481 2.480 . S
O502 Eu481 2.430 . S
O502 C488 1.259 . S
O503 Eu481 2.670 . S
O503 C488 1.270 . S
O503 Eu491 2.355 . S
O504 Eu481 2.394 . S
O504 C489 1.251 . S
O505 C489 1.251 . S
O505 Eu491 2.374 . S
O506 C490 1.257 . S
O506 Eu491 2.473 1_455 S
O507 C490 1.260 . S
O507 Eu491 2.480 1_455 S
O508 Eu491 2.430 . S
O508 C498 1.259 . S
O509 Eu481 2.355 . S
O509 Eu491 2.670 . S
O509 C498 1.270 . S
O510 Eu491 2.394 . S
O510 C499 1.251 . S
O511 Eu481 2.374 . S
O511 C499 1.251 . S
H512 C483 0.931 . S
H513 C484 0.931 . S
H514 C486 0.931 . S
H515 C487 0.931 . S
H516 C493 0.931 . S
H517 C494 0.931 . S
H518 C496 0.931 . S
H519 C497 0.931 . S
C520 Eu521 2.835 . S
C520 C522 1.500 . S
C520 O540 1.257 . S
C520 O541 1.260 . S
Eu521 C520 2.835 . S
Eu521 O540 2.473 . S
Eu521 O541 2.480 . S
Eu521 O542 2.430 . S
Eu521 O543 2.670 . S
Eu521 O544 2.394 . S
Eu521 O549 2.355 . S
Eu521 O551 2.374 . S
C522 C520 1.500 . S
C522 C523 1.377 . S
C522 C527 1.377 . S
C523 C522 1.377 . S
C523 C524 1.395 . S
C523 H552 0.931 . S
C524 C523 1.395 . S
C524 C525 1.383 . S
C524 H553 0.931 . S
C525 C524 1.383 . S
C525 C526 1.394 . S
C526 C525 1.394 . S
C526 C527 1.378 . S
C526 H554 0.931 . S
C527 C522 1.377 . S
C527 C526 1.378 . S
C527 H555 0.931 . S
C528 O542 1.259 . S
C528 O543 1.270 . S
C529 O544 1.251 . S
C529 O545 1.251 . S
C530 Eu531 2.835 1_545 S
C530 C532 1.500 . S
C530 O546 1.257 . S
C530 O547 1.260 . S
Eu531 C530 2.835 1_565 S
Eu531 O543 2.355 . S
Eu531 O545 2.374 . S
Eu531 O546 2.473 1_565 S
Eu531 O547 2.480 1_565 S
Eu531 O548 2.430 . S
Eu531 O549 2.670 . S
Eu531 O550 2.394 . S
C532 C530 1.500 . S
C532 C533 1.377 . S
C532 C537 1.377 . S
C533 C532 1.377 . S
C533 C534 1.395 . S
C533 H556 0.931 . S
C534 C533 1.395 . S
C534 C535 1.383 . S
C534 H557 0.931 . S
C535 C534 1.383 . S
C535 C536 1.394 . S
C536 C535 1.394 . S
C536 C537 1.378 . S
C536 H558 0.931 . S
C537 C532 1.377 . S
C537 C536 1.378 . S
C537 H559 0.931 . S
C538 O548 1.259 . S
C538 O549 1.270 . S
C539 O550 1.251 . S
C539 O551 1.251 . S
O540 C520 1.257 . S
O540 Eu521 2.473 . S
O541 C520 1.260 . S
O541 Eu521 2.480 . S
O542 Eu521 2.430 . S
O542 C528 1.259 . S
O543 Eu521 2.670 . S
O543 C528 1.270 . S
O543 Eu531 2.355 . S
O544 Eu521 2.394 . S
O544 C529 1.251 . S
O545 C529 1.251 . S
O545 Eu531 2.374 . S
O546 C530 1.257 . S
O546 Eu531 2.473 1_545 S
O547 C530 1.260 . S
O547 Eu531 2.480 1_545 S
O548 Eu531 2.430 . S
O548 C538 1.259 . S
O549 Eu521 2.355 . S
O549 Eu531 2.670 . S
O549 C538 1.270 . S
O550 Eu531 2.394 . S
O550 C539 1.251 . S
O551 Eu521 2.374 . S
O551 C539 1.251 . S
H552 C523 0.931 . S
H553 C524 0.931 . S
H554 C526 0.931 . S
H555 C527 0.931 . S
H556 C533 0.931 . S
H557 C534 0.931 . S
H558 C536 0.931 . S
H559 C537 0.931 . S
C560 Eu561 2.835 . S
C560 C562 1.500 . S
C560 O580 1.257 . S
C560 O581 1.260 . S
Eu561 C560 2.835 . S
Eu561 O580 2.473 . S
Eu561 O581 2.480 . S
Eu561 O582 2.430 . S
Eu561 O583 2.670 . S
Eu561 O584 2.394 . S
Eu561 O589 2.355 . S
Eu561 O591 2.374 . S
C562 C560 1.500 . S
C562 C563 1.377 . S
C562 C567 1.377 . S
C563 C562 1.377 . S
C563 C564 1.395 . S
C563 H592 0.931 . S
C564 C563 1.395 . S
C564 C565 1.383 . S
C564 H593 0.931 . S
C565 C564 1.383 . S
C565 C566 1.394 . S
C566 C565 1.394 . S
C566 C567 1.378 . S
C566 H594 0.931 . S
C567 C562 1.377 . S
C567 C566 1.378 . S
C567 H595 0.931 . S
C568 O582 1.259 . S
C568 O583 1.270 . S
C569 O584 1.251 . S
C569 O585 1.251 . S
C570 Eu571 2.835 . S
C570 C572 1.500 . S
C570 O586 1.257 . S
C570 O587 1.260 . S
Eu571 C570 2.835 . S
Eu571 O583 2.355 . S
Eu571 O585 2.374 . S
Eu571 O586 2.473 . S
Eu571 O587 2.480 . S
Eu571 O588 2.430 . S
Eu571 O589 2.670 . S
Eu571 O590 2.394 . S
C572 C570 1.500 . S
C572 C573 1.377 . S
C572 C577 1.377 . S
C573 C572 1.377 . S
C573 C574 1.395 . S
C573 H596 0.931 . S
C574 C573 1.395 . S
C574 C575 1.383 . S
C574 H597 0.931 . S
C575 C574 1.383 . S
C575 C576 1.394 . S
C576 C575 1.394 . S
C576 C577 1.378 . S
C576 H598 0.931 . S
C577 C572 1.377 . S
C577 C576 1.378 . S
C577 H599 0.931 . S
C578 O588 1.259 . S
C578 O589 1.270 . S
C579 O590 1.251 . S
C579 O591 1.251 . S
O580 C560 1.257 . S
O580 Eu561 2.473 . S
O581 C560 1.260 . S
O581 Eu561 2.480 . S
O582 Eu561 2.430 . S
O582 C568 1.259 . S
O583 Eu561 2.670 . S
O583 C568 1.270 . S
O583 Eu571 2.355 . S
O584 Eu561 2.394 . S
O584 C569 1.251 . S
O585 C569 1.251 . S
O585 Eu571 2.374 . S
O586 C570 1.257 . S
O586 Eu571 2.473 . S
O587 C570 1.260 . S
O587 Eu571 2.480 . S
O588 Eu571 2.430 . S
O588 C578 1.259 . S
O589 Eu561 2.355 . S
O589 Eu571 2.670 . S
O589 C578 1.270 . S
O590 Eu571 2.394 . S
O590 C579 1.251 . S
O591 Eu561 2.374 . S
O591 C579 1.251 . S
H592 C563 0.931 . S
H593 C564 0.931 . S
H594 C566 0.931 . S
H595 C567 0.931 . S
H596 C573 0.931 . S
H597 C574 0.931 . S
H598 C576 0.931 . S
H599 C577 0.931 . S
C600 Eu601 2.835 . S
C600 C602 1.500 . S
C600 O620 1.257 . S
C600 O621 1.260 . S
Eu601 C600 2.835 . S
Eu601 O620 2.473 . S
Eu601 O621 2.480 . S
Eu601 O622 2.430 . S
Eu601 O623 2.670 . S
Eu601 O624 2.394 . S
Eu601 O629 2.355 . S
Eu601 O631 2.374 . S
C602 C600 1.500 . S
C602 C603 1.377 . S
C602 C607 1.377 . S
C603 C602 1.377 . S
C603 C604 1.395 . S
C603 H632 0.931 . S
C604 C603 1.395 . S
C604 C605 1.383 . S
C604 H633 0.931 . S
C605 C604 1.383 . S
C605 C606 1.394 . S
C606 C605 1.394 . S
C606 C607 1.378 . S
C606 H634 0.931 . S
C607 C602 1.377 . S
C607 C606 1.378 . S
C607 H635 0.931 . S
C608 O622 1.259 . S
C608 O623 1.270 . S
C609 O624 1.251 . S
C609 O625 1.251 . S
C610 Eu611 2.835 . S
C610 C612 1.500 . S
C610 O626 1.257 . S
C610 O627 1.260 . S
Eu611 C610 2.835 . S
Eu611 O623 2.355 . S
Eu611 O625 2.374 . S
Eu611 O626 2.473 . S
Eu611 O627 2.480 . S
Eu611 O628 2.430 . S
Eu611 O629 2.670 . S
Eu611 O630 2.394 . S
C612 C610 1.500 . S
C612 C613 1.377 . S
C612 C617 1.377 . S
C613 C612 1.377 . S
C613 C614 1.395 . S
C613 H636 0.931 . S
C614 C613 1.395 . S
C614 C615 1.383 . S
C614 H637 0.931 . S
C615 C614 1.383 . S
C615 C616 1.394 . S
C616 C615 1.394 . S
C616 C617 1.378 . S
C616 H638 0.931 . S
C617 C612 1.377 . S
C617 C616 1.378 . S
C617 H639 0.931 . S
C618 O628 1.259 . S
C618 O629 1.270 . S
C619 O630 1.251 . S
C619 O631 1.251 . S
O620 C600 1.257 . S
O620 Eu601 2.473 . S
O621 C600 1.260 . S
O621 Eu601 2.480 . S
O622 Eu601 2.430 . S
O622 C608 1.259 . S
O623 Eu601 2.670 . S
O623 C608 1.270 . S
O623 Eu611 2.355 . S
O624 Eu601 2.394 . S
O624 C609 1.251 . S
O625 C609 1.251 . S
O625 Eu611 2.374 . S
O626 C610 1.257 . S
O626 Eu611 2.473 . S
O627 C610 1.260 . S
O627 Eu611 2.480 . S
O628 Eu611 2.430 . S
O628 C618 1.259 . S
O629 Eu601 2.355 . S
O629 Eu611 2.670 . S
O629 C618 1.270 . S
O630 Eu611 2.394 . S
O630 C619 1.251 . S
O631 Eu601 2.374 . S
O631 C619 1.251 . S
H632 C603 0.931 . S
H633 C604 0.931 . S
H634 C606 0.931 . S
H635 C607 0.931 . S
H636 C613 0.931 . S
H637 C614 0.931 . S
H638 C616 0.931 . S
H639 C617 0.931 . S
H640 C648 0.929 . S
H641 C650 0.930 . S
H642 C652 0.930 . S
H643 C655 0.929 . S
H644 C658 0.930 . S
H645 C660 0.960 . S
H646 C660 0.960 . S
H647 C660 0.960 . S
C648 H640 0.929 . S
C648 C649 1.377 . S
C648 C650 1.384 . S
C649 C648 1.377 . S
C649 C655 1.390 . S
C650 H641 0.930 . S
C650 C648 1.384 . S
C650 C651 1.372 . S
C651 C650 1.372 . S
C651 C652 1.400 . S
C651 C656 1.490 . S
C652 H642 0.930 . S
C652 C651 1.400 . S
C652 C655 1.386 . S
H653 C669 0.930 . S
H654 C670 0.931 . S
C655 H643 0.929 . S
C655 C649 1.390 . S
C655 C652 1.386 . S
C656 C651 1.490 . S
C656 C658 1.395 . S
C656 C659 1.403 . S
H657 C663 0.930 . S
C658 H644 0.930 . S
C658 C656 1.395 . S
C658 C661 1.403 . S
C659 C656 1.403 . S
C659 C660 1.524 . S
C659 C663 1.400 . S
C660 H645 0.960 . S
C660 H646 0.960 . S
C660 H647 0.960 . S
C660 C659 1.524 . S
C661 C658 1.403 . S
C661 C662 1.392 . S
C661 C665 1.495 . S
C662 C661 1.392 . S
C662 C663 1.385 . S
C662 C664 1.478 . S
C663 H657 0.930 . S
C663 C659 1.400 . S
C663 C662 1.385 . S
C664 C662 1.478 . S
C664 C666 1.381 . S
C664 C670 1.383 . S
C665 C661 1.495 . S
C665 H671 0.959 . S
C665 H672 0.961 . S
C665 H673 0.960 . S
C666 C664 1.381 . S
C666 C667 1.394 . S
C666 H674 0.930 . S
C667 C666 1.394 . S
C667 C668 1.383 . S
C667 H675 0.929 . S
C668 C667 1.383 . S
C668 C669 1.377 . S
C669 H653 0.930 . S
C669 C668 1.377 . S
C669 C670 1.379 . S
C670 H654 0.931 . S
C670 C664 1.383 . S
C670 C669 1.379 . S
H671 C665 0.959 . S
H672 C665 0.961 . S
H673 C665 0.960 . S
H674 C666 0.930 . S
H675 C667 0.929 . S
H676 C684 0.929 . S
H677 C686 0.930 . S
H678 C688 0.930 . S
H679 C691 0.929 . S
H680 C694 0.930 . S
H681 C696 0.960 . S
H682 C696 0.960 . S
H683 C696 0.960 . S
C684 H676 0.929 . S
C684 C685 1.377 . S
C684 C686 1.384 . S
C685 C684 1.377 . S
C685 C691 1.390 . S
C686 H677 0.930 . S
C686 C684 1.384 . S
C686 C687 1.372 . S
C687 C686 1.372 . S
C687 C688 1.400 . S
C687 C692 1.490 . S
C688 H678 0.930 . S
C688 C687 1.400 . S
C688 C691 1.386 . S
H689 C705 0.930 . S
H690 C706 0.931 . S
C691 H679 0.929 . S
C691 C685 1.390 . S
C691 C688 1.386 . S
C692 C687 1.490 . S
C692 C694 1.395 . S
C692 C695 1.403 . S
H693 C699 0.930 . S
C694 H680 0.930 . S
C694 C692 1.395 . S
C694 C697 1.403 . S
C695 C692 1.403 . S
C695 C696 1.524 . S
C695 C699 1.400 . S
C696 H681 0.960 . S
C696 H682 0.960 . S
C696 H683 0.960 . S
C696 C695 1.524 . S
C697 C694 1.403 . S
C697 C698 1.392 . S
C697 C701 1.495 . S
C698 C697 1.392 . S
C698 C699 1.385 . S
C698 C700 1.478 . S
C699 H693 0.930 . S
C699 C695 1.400 . S
C699 C698 1.385 . S
C700 C698 1.478 . S
C700 C702 1.381 . S
C700 C706 1.383 . S
C701 C697 1.495 . S
C701 H707 0.959 . S
C701 H708 0.961 . S
C701 H709 0.960 . S
C702 C700 1.381 . S
C702 C703 1.394 . S
C702 H710 0.930 . S
C703 C702 1.394 . S
C703 C704 1.383 . S
C703 H711 0.929 . S
C704 C703 1.383 . S
C704 C705 1.377 . S
C705 H689 0.930 . S
C705 C704 1.377 . S
C705 C706 1.379 . S
C706 H690 0.931 . S
C706 C700 1.383 . S
C706 C705 1.379 . S
H707 C701 0.959 . S
H708 C701 0.961 . S
H709 C701 0.960 . S
H710 C702 0.930 . S
H711 C703 0.929 . S
H712 C720 0.929 . S
H713 C722 0.930 . S
H714 C724 0.930 . S
H715 C727 0.929 . S
H716 C730 0.930 . S
H717 C732 0.960 . S
H718 C732 0.960 . S
H719 C732 0.960 . S
C720 H712 0.929 . S
C720 C721 1.377 . S
C720 C722 1.384 . S
C721 C720 1.377 . S
C721 C727 1.390 . S
C722 H713 0.930 . S
C722 C720 1.384 . S
C722 C723 1.372 . S
C723 C722 1.372 . S
C723 C724 1.400 . S
C723 C728 1.490 . S
C724 H714 0.930 . S
C724 C723 1.400 . S
C724 C727 1.386 . S
H725 C741 0.930 . S
H726 C742 0.931 . S
C727 H715 0.929 . S
C727 C721 1.390 . S
C727 C724 1.386 . S
C728 C723 1.490 . S
C728 C730 1.395 . S
C728 C731 1.403 . S
H729 C735 0.930 . S
C730 H716 0.930 . S
C730 C728 1.395 . S
C730 C733 1.403 . S
C731 C728 1.403 . S
C731 C732 1.524 . S
C731 C735 1.400 . S
C732 H717 0.960 . S
C732 H718 0.960 . S
C732 H719 0.960 . S
C732 C731 1.524 . S
C733 C730 1.403 . S
C733 C734 1.392 . S
C733 C737 1.495 . S
C734 C733 1.392 . S
C734 C735 1.385 . S
C734 C736 1.478 . S
C735 H729 0.930 . S
C735 C731 1.400 . S
C735 C734 1.385 . S
C736 C734 1.478 . S
C736 C738 1.381 . S
C736 C742 1.383 . S
C737 C733 1.495 . S
C737 H743 0.959 . S
C737 H744 0.961 . S
C737 H745 0.960 . S
C738 C736 1.381 . S
C738 C739 1.394 . S
C738 H746 0.930 . S
C739 C738 1.394 . S
C739 C740 1.383 . S
C739 H747 0.929 . S
C740 C739 1.383 . S
C740 C741 1.377 . S
C741 H725 0.930 . S
C741 C740 1.377 . S
C741 C742 1.379 . S
C742 H726 0.931 . S
C742 C736 1.383 . S
C742 C741 1.379 . S
H743 C737 0.959 . S
H744 C737 0.961 . S
H745 C737 0.960 . S
H746 C738 0.930 . S
H747 C739 0.929 . S
H748 C756 0.929 . S
H749 C758 0.930 . S
H750 C760 0.930 . S
H751 C763 0.929 . S
H752 C766 0.930 . S
H753 C768 0.960 . S
H754 C768 0.960 . S
H755 C768 0.960 . S
C756 H748 0.929 . S
C756 C757 1.377 . S
C756 C758 1.384 . S
C757 C756 1.377 . S
C757 C763 1.390 . S
C758 H749 0.930 . S
C758 C756 1.384 . S
C758 C759 1.372 . S
C759 C758 1.372 . S
C759 C760 1.400 . S
C759 C764 1.490 . S
C760 H750 0.930 . S
C760 C759 1.400 . S
C760 C763 1.386 . S
H761 C777 0.930 . S
H762 C778 0.931 . S
C763 H751 0.929 . S
C763 C757 1.390 . S
C763 C760 1.386 . S
C764 C759 1.490 . S
C764 C766 1.395 . S
C764 C767 1.403 . S
H765 C771 0.930 . S
C766 H752 0.930 . S
C766 C764 1.395 . S
C766 C769 1.403 . S
C767 C764 1.403 . S
C767 C768 1.524 . S
C767 C771 1.400 . S
C768 H753 0.960 . S
C768 H754 0.960 . S
C768 H755 0.960 . S
C768 C767 1.524 . S
C769 C766 1.403 . S
C769 C770 1.392 . S
C769 C773 1.495 . S
C770 C769 1.392 . S
C770 C771 1.385 . S
C770 C772 1.478 . S
C771 H765 0.930 . S
C771 C767 1.400 . S
C771 C770 1.385 . S
C772 C770 1.478 . S
C772 C774 1.381 . S
C772 C778 1.383 . S
C773 C769 1.495 . S
C773 H779 0.959 . S
C773 H780 0.961 . S
C773 H781 0.960 . S
C774 C772 1.381 . S
C774 C775 1.394 . S
C774 H782 0.930 . S
C775 C774 1.394 . S
C775 C776 1.383 . S
C775 H783 0.929 . S
C776 C775 1.383 . S
C776 C777 1.377 . S
C777 H761 0.930 . S
C777 C776 1.377 . S
C777 C778 1.379 . S
C778 H762 0.931 . S
C778 C772 1.383 . S
C778 C777 1.379 . S
H779 C773 0.959 . S
H780 C773 0.961 . S
H781 C773 0.960 . S
H782 C774 0.930 . S
H783 C775 0.929 . S
H784 C792 0.929 . S
H785 C794 0.930 . S
H786 C796 0.930 . S
H787 C799 0.929 . S
H788 C802 0.930 . S
H789 C804 0.960 . S
H790 C804 0.960 . S
H791 C804 0.960 . S
C792 H784 0.929 . S
C792 C793 1.377 . S
C792 C794 1.384 . S
C793 C792 1.377 . S
C793 C799 1.390 . S
C794 H785 0.930 . S
C794 C792 1.384 . S
C794 C795 1.372 . S
C795 C794 1.372 . S
C795 C796 1.400 . S
C795 C800 1.490 . S
C796 H786 0.930 . S
C796 C795 1.400 . S
C796 C799 1.386 . S
H797 C813 0.930 . S
H798 C814 0.931 . S
C799 H787 0.929 . S
C799 C793 1.390 . S
C799 C796 1.386 . S
C800 C795 1.490 . S
C800 C802 1.395 . S
C800 C803 1.403 . S
H801 C807 0.930 . S
C802 H788 0.930 . S
C802 C800 1.395 . S
C802 C805 1.403 . S
C803 C800 1.403 . S
C803 C804 1.524 . S
C803 C807 1.400 . S
C804 H789 0.960 . S
C804 H790 0.960 . S
C804 H791 0.960 . S
C804 C803 1.524 . S
C805 C802 1.403 . S
C805 C806 1.392 . S
C805 C809 1.495 . S
C806 C805 1.392 . S
C806 C807 1.385 . S
C806 C808 1.478 . S
C807 H801 0.930 . S
C807 C803 1.400 . S
C807 C806 1.385 . S
C808 C806 1.478 . S
C808 C810 1.381 . S
C808 C814 1.383 . S
C809 C805 1.495 . S
C809 H815 0.959 . S
C809 H816 0.961 . S
C809 H817 0.960 . S
C810 C808 1.381 . S
C810 C811 1.394 . S
C810 H818 0.930 . S
C811 C810 1.394 . S
C811 C812 1.383 . S
C811 H819 0.929 . S
C812 C811 1.383 . S
C812 C813 1.377 . S
C813 H797 0.930 . S
C813 C812 1.377 . S
C813 C814 1.379 . S
C814 H798 0.931 . S
C814 C808 1.383 . S
C814 C813 1.379 . S
H815 C809 0.959 . S
H816 C809 0.961 . S
H817 C809 0.960 . S
H818 C810 0.930 . S
H819 C811 0.929 . S
H820 C828 0.929 . S
H821 C830 0.930 . S
H822 C832 0.930 . S
H823 C835 0.929 . S
H824 C838 0.930 . S
H825 C840 0.960 . S
H826 C840 0.960 . S
H827 C840 0.960 . S
C828 H820 0.929 . S
C828 C829 1.377 . S
C828 C830 1.384 . S
C829 C828 1.377 . S
C829 C835 1.390 . S
C830 H821 0.930 . S
C830 C828 1.384 . S
C830 C831 1.372 . S
C831 C830 1.372 . S
C831 C832 1.400 . S
C831 C836 1.490 . S
C832 H822 0.930 . S
C832 C831 1.400 . S
C832 C835 1.386 . S
H833 C849 0.930 . S
H834 C850 0.931 . S
C835 H823 0.929 . S
C835 C829 1.390 . S
C835 C832 1.386 . S
C836 C831 1.490 . S
C836 C838 1.395 . S
C836 C839 1.403 . S
H837 C843 0.930 . S
C838 H824 0.930 . S
C838 C836 1.395 . S
C838 C841 1.403 . S
C839 C836 1.403 . S
C839 C840 1.524 . S
C839 C843 1.400 . S
C840 H825 0.960 . S
C840 H826 0.960 . S
C840 H827 0.960 . S
C840 C839 1.524 . S
C841 C838 1.403 . S
C841 C842 1.392 . S
C841 C845 1.495 . S
C842 C841 1.392 . S
C842 C843 1.385 . S
C842 C844 1.478 . S
C843 H837 0.930 . S
C843 C839 1.400 . S
C843 C842 1.385 . S
C844 C842 1.478 . S
C844 C846 1.381 . S
C844 C850 1.383 . S
C845 C841 1.495 . S
C845 H851 0.959 . S
C845 H852 0.961 . S
C845 H853 0.960 . S
C846 C844 1.381 . S
C846 C847 1.394 . S
C846 H854 0.930 . S
C847 C846 1.394 . S
C847 C848 1.383 . S
C847 H855 0.929 . S
C848 C847 1.383 . S
C848 C849 1.377 . S
C849 H833 0.930 . S
C849 C848 1.377 . S
C849 C850 1.379 . S
C850 H834 0.931 . S
C850 C844 1.383 . S
C850 C849 1.379 . S
H851 C845 0.959 . S
H852 C845 0.961 . S
H853 C845 0.960 . S
H854 C846 0.930 . S
H855 C847 0.929 . S
H856 C864 0.929 . S
H857 C866 0.930 . S
H858 C868 0.930 . S
H859 C871 0.929 . S
H860 C874 0.930 . S
H861 C876 0.960 . S
H862 C876 0.960 . S
H863 C876 0.960 . S
C864 H856 0.929 . S
C864 C865 1.377 . S
C864 C866 1.384 . S
C865 C864 1.377 . S
C865 C871 1.390 . S
C866 H857 0.930 . S
C866 C864 1.384 . S
C866 C867 1.372 . S
C867 C866 1.372 . S
C867 C868 1.400 . S
C867 C872 1.490 . S
C868 H858 0.930 . S
C868 C867 1.400 . S
C868 C871 1.386 . S
H869 C885 0.930 . S
H870 C886 0.931 . S
C871 H859 0.929 . S
C871 C865 1.390 . S
C871 C868 1.386 . S
C872 C867 1.490 . S
C872 C874 1.395 . S
C872 C875 1.403 . S
H873 C879 0.930 . S
C874 H860 0.930 . S
C874 C872 1.395 . S
C874 C877 1.403 . S
C875 C872 1.403 . S
C875 C876 1.524 . S
C875 C879 1.400 . S
C876 H861 0.960 . S
C876 H862 0.960 . S
C876 H863 0.960 . S
C876 C875 1.524 . S
C877 C874 1.403 . S
C877 C878 1.392 . S
C877 C881 1.495 . S
C878 C877 1.392 . S
C878 C879 1.385 . S
C878 C880 1.478 . S
C879 H873 0.930 . S
C879 C875 1.400 . S
C879 C878 1.385 . S
C880 C878 1.478 . S
C880 C882 1.381 . S
C880 C886 1.383 . S
C881 C877 1.495 . S
C881 H887 0.959 . S
C881 H888 0.961 . S
C881 H889 0.960 . S
C882 C880 1.381 . S
C882 C883 1.394 . S
C882 H890 0.930 . S
C883 C882 1.394 . S
C883 C884 1.383 . S
C883 H891 0.929 . S
C884 C883 1.383 . S
C884 C885 1.377 . S
C885 H869 0.930 . S
C885 C884 1.377 . S
C885 C886 1.379 . S
C886 H870 0.931 . S
C886 C880 1.383 . S
C886 C885 1.379 . S
H887 C881 0.959 . S
H888 C881 0.961 . S
H889 C881 0.960 . S
H890 C882 0.930 . S
H891 C883 0.929 . S
H892 C900 0.929 . S
H893 C902 0.930 . S
H894 C904 0.930 . S
H895 C907 0.929 . S
H896 C910 0.930 . S
H897 C912 0.960 . S
H898 C912 0.960 . S
H899 C912 0.960 . S
C900 H892 0.929 . S
C900 C901 1.377 . S
C900 C902 1.384 . S
C901 C900 1.377 . S
C901 C907 1.390 . S
C902 H893 0.930 . S
C902 C900 1.384 . S
C902 C903 1.372 . S
C903 C902 1.372 . S
C903 C904 1.400 . S
C903 C908 1.490 . S
C904 H894 0.930 . S
C904 C903 1.400 . S
C904 C907 1.386 . S
H905 C921 0.930 . S
H906 C922 0.931 . S
C907 H895 0.929 . S
C907 C901 1.390 . S
C907 C904 1.386 . S
C908 C903 1.490 . S
C908 C910 1.395 . S
C908 C911 1.403 . S
H909 C915 0.930 . S
C910 H896 0.930 . S
C910 C908 1.395 . S
C910 C913 1.403 . S
C911 C908 1.403 . S
C911 C912 1.524 . S
C911 C915 1.400 . S
C912 H897 0.960 . S
C912 H898 0.960 . S
C912 H899 0.960 . S
C912 C911 1.524 . S
C913 C910 1.403 . S
C913 C914 1.392 . S
C913 C917 1.495 . S
C914 C913 1.392 . S
C914 C915 1.385 . S
C914 C916 1.478 . S
C915 H909 0.930 . S
C915 C911 1.400 . S
C915 C914 1.385 . S
C916 C914 1.478 . S
C916 C918 1.381 . S
C916 C922 1.383 . S
C917 C913 1.495 . S
C917 H923 0.959 . S
C917 H924 0.961 . S
C917 H925 0.960 . S
C918 C916 1.381 . S
C918 C919 1.394 . S
C918 H926 0.930 . S
C919 C918 1.394 . S
C919 C920 1.383 . S
C919 H927 0.929 . S
C920 C919 1.383 . S
C920 C921 1.377 . S
C921 H905 0.930 . S
C921 C920 1.377 . S
C921 C922 1.379 . S
C922 H906 0.931 . S
C922 C916 1.383 . S
C922 C921 1.379 . S
H923 C917 0.959 . S
H924 C917 0.961 . S
H925 C917 0.960 . S
H926 C918 0.930 . S
H927 C919 0.929 . S
H928 C936 0.929 . S
H929 C938 0.930 . S
H930 C940 0.930 . S
H931 C943 0.929 . S
H932 C946 0.930 . S
H933 C948 0.960 . S
H934 C948 0.960 . S
H935 C948 0.960 . S
C936 H928 0.929 . S
C936 C937 1.377 . S
C936 C938 1.384 . S
C937 C936 1.377 . S
C937 C943 1.390 . S
C938 H929 0.930 . S
C938 C936 1.384 . S
C938 C939 1.372 . S
C939 C938 1.372 . S
C939 C940 1.400 . S
C939 C944 1.490 . S
C940 H930 0.930 . S
C940 C939 1.400 . S
C940 C943 1.386 . S
H941 C957 0.930 . S
H942 C958 0.931 . S
C943 H931 0.929 . S
C943 C937 1.390 . S
C943 C940 1.386 . S
C944 C939 1.490 . S
C944 C946 1.395 . S
C944 C947 1.403 . S
H945 C951 0.930 . S
C946 H932 0.930 . S
C946 C944 1.395 . S
C946 C949 1.403 . S
C947 C944 1.403 . S
C947 C948 1.524 . S
C947 C951 1.400 . S
C948 H933 0.960 . S
C948 H934 0.960 . S
C948 H935 0.960 . S
C948 C947 1.524 . S
C949 C946 1.403 . S
C949 C950 1.392 . S
C949 C953 1.495 . S
C950 C949 1.392 . S
C950 C951 1.385 . S
C950 C952 1.478 . S
C951 H945 0.930 . S
C951 C947 1.400 . S
C951 C950 1.385 . S
C952 C950 1.478 . S
C952 C954 1.381 . S
C952 C958 1.383 . S
C953 C949 1.495 . S
C953 H959 0.959 . S
C953 H960 0.961 . S
C953 H961 0.960 . S
C954 C952 1.381 . S
C954 C955 1.394 . S
C954 H962 0.930 . S
C955 C954 1.394 . S
C955 C956 1.383 . S
C955 H963 0.929 1_545 S
C956 C955 1.383 . S
C956 C957 1.377 . S
C957 H941 0.930 . S
C957 C956 1.377 . S
C957 C958 1.379 . S
C958 H942 0.931 . S
C958 C952 1.383 . S
C958 C957 1.379 . S
H959 C953 0.959 . S
H960 C953 0.961 . S
H961 C953 0.960 . S
H962 C954 0.930 . S
H963 C955 0.929 1_565 S
H964 C972 0.929 . S
H965 C974 0.930 . S
H966 C976 0.930 . S
H967 C979 0.929 . S
H968 C982 0.930 . S
H969 C984 0.960 . S
H970 C984 0.960 . S
H971 C984 0.960 . S
C972 H964 0.929 . S
C972 C973 1.377 . S
C972 C974 1.384 . S
C973 C972 1.377 . S
C973 C979 1.390 . S
C974 H965 0.930 . S
C974 C972 1.384 . S
C974 C975 1.372 . S
C975 C974 1.372 . S
C975 C976 1.400 . S
C975 C980 1.490 . S
C976 H966 0.930 . S
C976 C975 1.400 . S
C976 C979 1.386 . S
H977 C993 0.930 . S
H978 C994 0.931 . S
C979 H967 0.929 . S
C979 C973 1.390 . S
C979 C976 1.386 . S
C980 C975 1.490 . S
C980 C982 1.395 . S
C980 C983 1.403 . S
H981 C987 0.930 . S
C982 H968 0.930 . S
C982 C980 1.395 . S
C982 C985 1.403 . S
C983 C980 1.403 . S
C983 C984 1.524 . S
C983 C987 1.400 . S
C984 H969 0.960 . S
C984 H970 0.960 . S
C984 H971 0.960 . S
C984 C983 1.524 . S
C985 C982 1.403 . S
C985 C986 1.392 . S
C985 C989 1.495 . S
C986 C985 1.392 . S
C986 C987 1.385 . S
C986 C988 1.478 . S
C987 H981 0.930 . S
C987 C983 1.400 . S
C987 C986 1.385 . S
C988 C986 1.478 . S
C988 C990 1.381 . S
C988 C994 1.383 . S
C989 C985 1.495 . S
C989 H995 0.959 . S
C989 H996 0.961 . S
C989 H997 0.960 . S
C990 C988 1.381 . S
C990 C991 1.394 . S
C990 H998 0.930 . S
C991 C990 1.394 . S
C991 C992 1.383 . S
C991 H999 0.929 . S
C992 C991 1.383 . S
C992 C993 1.377 . S
C993 H977 0.930 . S
C993 C992 1.377 . S
C993 C994 1.379 . S
C994 H978 0.931 . S
C994 C988 1.383 . S
C994 C993 1.379 . S
H995 C989 0.959 . S
H996 C989 0.961 . S
H997 C989 0.960 . S
H998 C990 0.930 . S
H999 C991 0.929 . S
H1000 C1008 0.929 . S
H1001 C1010 0.930 . S
H1002 C1012 0.930 . S
H1003 C1015 0.929 . S
H1004 C1018 0.930 . S
H1005 C1020 0.960 . S
H1006 C1020 0.960 . S
H1007 C1020 0.960 . S
C1008 H1000 0.929 . S
C1008 C1009 1.377 . S
C1008 C1010 1.384 . S
C1009 C1008 1.377 . S
C1009 C1015 1.390 . S
C1010 H1001 0.930 . S
C1010 C1008 1.384 . S
C1010 C1011 1.372 . S
C1011 C1010 1.372 . S
C1011 C1012 1.400 . S
C1011 C1016 1.490 . S
C1012 H1002 0.930 . S
C1012 C1011 1.400 . S
C1012 C1015 1.386 . S
H1013 C1029 0.930 . S
H1014 C1030 0.931 . S
C1015 H1003 0.929 . S
C1015 C1009 1.390 . S
C1015 C1012 1.386 . S
C1016 C1011 1.490 . S
C1016 C1018 1.395 . S
C1016 C1019 1.403 . S
H1017 C1023 0.930 . S
C1018 H1004 0.930 . S
C1018 C1016 1.395 . S
C1018 C1021 1.403 . S
C1019 C1016 1.403 . S
C1019 C1020 1.524 . S
C1019 C1023 1.400 . S
C1020 H1005 0.960 . S
C1020 H1006 0.960 . S
C1020 H1007 0.960 . S
C1020 C1019 1.524 . S
C1021 C1018 1.403 . S
C1021 C1022 1.392 . S
C1021 C1025 1.495 . S
C1022 C1021 1.392 . S
C1022 C1023 1.385 . S
C1022 C1024 1.478 . S
C1023 H1017 0.930 . S
C1023 C1019 1.400 . S
C1023 C1022 1.385 . S
C1024 C1022 1.478 . S
C1024 C1026 1.381 . S
C1024 C1030 1.383 . S
C1025 C1021 1.495 . S
C1025 H1031 0.959 . S
C1025 H1032 0.961 . S
C1025 H1033 0.960 . S
C1026 C1024 1.381 . S
C1026 C1027 1.394 . S
C1026 H1034 0.930 . S
C1027 C1026 1.394 . S
C1027 C1028 1.383 . S
C1027 H1035 0.929 . S
C1028 C1027 1.383 . S
C1028 C1029 1.377 . S
C1029 H1013 0.930 . S
C1029 C1028 1.377 . S
C1029 C1030 1.379 . S
C1030 H1014 0.931 . S
C1030 C1024 1.383 . S
C1030 C1029 1.379 . S
H1031 C1025 0.959 . S
H1032 C1025 0.961 . S
H1033 C1025 0.960 . S
H1034 C1026 0.930 . S
H1035 C1027 0.929 . S
H1036 C1044 0.929 . S
H1037 C1046 0.930 . S
H1038 C1048 0.930 . S
H1039 C1051 0.929 . S
H1040 C1054 0.930 . S
H1041 C1056 0.960 . S
H1042 C1056 0.960 . S
H1043 C1056 0.960 . S
C1044 H1036 0.929 . S
C1044 C1045 1.377 . S
C1044 C1046 1.384 . S
C1045 C1044 1.377 . S
C1045 C1051 1.390 . S
C1046 H1037 0.930 . S
C1046 C1044 1.384 . S
C1046 C1047 1.372 . S
C1047 C1046 1.372 . S
C1047 C1048 1.400 . S
C1047 C1052 1.490 . S
C1048 H1038 0.930 . S
C1048 C1047 1.400 . S
C1048 C1051 1.386 . S
H1049 C1065 0.930 . S
H1050 C1066 0.931 . S
C1051 H1039 0.929 . S
C1051 C1045 1.390 . S
C1051 C1048 1.386 . S
C1052 C1047 1.490 . S
C1052 C1054 1.395 . S
C1052 C1055 1.403 . S
H1053 C1059 0.930 . S
C1054 H1040 0.930 . S
C1054 C1052 1.395 . S
C1054 C1057 1.403 . S
C1055 C1052 1.403 . S
C1055 C1056 1.524 . S
C1055 C1059 1.400 . S
C1056 H1041 0.960 . S
C1056 H1042 0.960 . S
C1056 H1043 0.960 . S
C1056 C1055 1.524 . S
C1057 C1054 1.403 . S
C1057 C1058 1.392 . S
C1057 C1061 1.495 . S
C1058 C1057 1.392 . S
C1058 C1059 1.385 . S
C1058 C1060 1.478 . S
C1059 H1053 0.930 . S
C1059 C1055 1.400 . S
C1059 C1058 1.385 . S
C1060 C1058 1.478 . S
C1060 C1062 1.381 . S
C1060 C1066 1.383 . S
C1061 C1057 1.495 . S
C1061 H1067 0.959 . S
C1061 H1068 0.961 . S
C1061 H1069 0.960 . S
C1062 C1060 1.381 . S
C1062 C1063 1.394 . S
C1062 H1070 0.930 . S
C1063 C1062 1.394 . S
C1063 C1064 1.383 . S
C1063 H1071 0.929 . S
C1064 C1063 1.383 . S
C1064 C1065 1.377 . S
C1065 H1049 0.930 . S
C1065 C1064 1.377 . S
C1065 C1066 1.379 . S
C1066 H1050 0.931 . S
C1066 C1060 1.383 . S
C1066 C1065 1.379 . S
H1067 C1061 0.959 . S
H1068 C1061 0.961 . S
H1069 C1061 0.960 . S
H1070 C1062 0.930 . S
H1071 C1063 0.929 . S
H1072 C1080 0.929 . S
H1073 C1082 0.930 . S
H1074 C1084 0.930 . S
H1075 C1087 0.929 . S
H1076 C1090 0.930 . S
H1077 C1092 0.960 . S
H1078 C1092 0.960 . S
H1079 C1092 0.960 . S
C1080 H1072 0.929 . S
C1080 C1081 1.377 . S
C1080 C1082 1.384 . S
C1081 C1080 1.377 . S
C1081 C1087 1.390 . S
C1082 H1073 0.930 . S
C1082 C1080 1.384 . S
C1082 C1083 1.372 . S
C1083 C1082 1.372 . S
C1083 C1084 1.400 . S
C1083 C1088 1.490 . S
C1084 H1074 0.930 . S
C1084 C1083 1.400 . S
C1084 C1087 1.386 . S
H1085 C1101 0.930 . S
H1086 C1102 0.931 . S
C1087 H1075 0.929 . S
C1087 C1081 1.390 . S
C1087 C1084 1.386 . S
C1088 C1083 1.490 . S
C1088 C1090 1.395 . S
C1088 C1091 1.403 . S
H1089 C1095 0.930 . S
C1090 H1076 0.930 . S
C1090 C1088 1.395 . S
C1090 C1093 1.403 . S
C1091 C1088 1.403 . S
C1091 C1092 1.524 . S
C1091 C1095 1.400 . S
C1092 H1077 0.960 . S
C1092 H1078 0.960 . S
C1092 H1079 0.960 . S
C1092 C1091 1.524 . S
C1093 C1090 1.403 . S
C1093 C1094 1.392 . S
C1093 C1097 1.495 . S
C1094 C1093 1.392 . S
C1094 C1095 1.385 . S
C1094 C1096 1.478 . S
C1095 H1089 0.930 . S
C1095 C1091 1.400 . S
C1095 C1094 1.385 . S
C1096 C1094 1.478 . S
C1096 C1098 1.381 . S
C1096 C1102 1.383 . S
C1097 C1093 1.495 . S
C1097 H1103 0.959 . S
C1097 H1104 0.961 . S
C1097 H1105 0.960 . S
C1098 C1096 1.381 . S
C1098 C1099 1.394 . S
C1098 H1106 0.930 . S
C1099 C1098 1.394 . S
C1099 C1100 1.383 . S
C1099 H1107 0.929 1_565 S
C1100 C1099 1.383 . S
C1100 C1101 1.377 . S
C1101 H1085 0.930 . S
C1101 C1100 1.377 . S
C1101 C1102 1.379 . S
C1102 H1086 0.931 . S
C1102 C1096 1.383 . S
C1102 C1101 1.379 . S
H1103 C1097 0.959 . S
H1104 C1097 0.961 . S
H1105 C1097 0.960 . S
H1106 C1098 0.930 . S
H1107 C1099 0.929 1_545 S
H1108 C1116 0.929 . S
H1109 C1118 0.930 . S
H1110 C1120 0.930 . S
H1111 C1123 0.929 . S
H1112 C1126 0.930 . S
H1113 C1128 0.960 . S
H1114 C1128 0.960 . S
H1115 C1128 0.960 . S
C1116 H1108 0.929 . S
C1116 C1117 1.377 . S
C1116 C1118 1.384 . S
C1117 C1116 1.377 . S
C1117 C1123 1.390 . S
C1118 H1109 0.930 . S
C1118 C1116 1.384 . S
C1118 C1119 1.372 . S
C1119 C1118 1.372 . S
C1119 C1120 1.400 . S
C1119 C1124 1.490 . S
C1120 H1110 0.930 . S
C1120 C1119 1.400 . S
C1120 C1123 1.386 . S
H1121 C1137 0.930 . S
H1122 C1138 0.931 . S
C1123 H1111 0.929 . S
C1123 C1117 1.390 . S
C1123 C1120 1.386 . S
C1124 C1119 1.490 . S
C1124 C1126 1.395 . S
C1124 C1127 1.403 . S
H1125 C1131 0.930 . S
C1126 H1112 0.930 . S
C1126 C1124 1.395 . S
C1126 C1129 1.403 . S
C1127 C1124 1.403 . S
C1127 C1128 1.524 . S
C1127 C1131 1.400 . S
C1128 H1113 0.960 . S
C1128 H1114 0.960 . S
C1128 H1115 0.960 . S
C1128 C1127 1.524 . S
C1129 C1126 1.403 . S
C1129 C1130 1.392 . S
C1129 C1133 1.495 . S
C1130 C1129 1.392 . S
C1130 C1131 1.385 . S
C1130 C1132 1.478 . S
C1131 H1125 0.930 . S
C1131 C1127 1.400 . S
C1131 C1130 1.385 . S
C1132 C1130 1.478 . S
C1132 C1134 1.381 . S
C1132 C1138 1.383 . S
C1133 C1129 1.495 . S
C1133 H1139 0.959 . S
C1133 H1140 0.961 . S
C1133 H1141 0.960 . S
C1134 C1132 1.381 . S
C1134 C1135 1.394 . S
C1134 H1142 0.930 . S
C1135 C1134 1.394 . S
C1135 C1136 1.383 . S
C1135 H1143 0.929 . S
C1136 C1135 1.383 . S
C1136 C1137 1.377 . S
C1137 H1121 0.930 . S
C1137 C1136 1.377 . S
C1137 C1138 1.379 . S
C1138 H1122 0.931 . S
C1138 C1132 1.383 . S
C1138 C1137 1.379 . S
H1139 C1133 0.959 . S
H1140 C1133 0.961 . S
H1141 C1133 0.960 . S
H1142 C1134 0.930 . S
H1143 C1135 0.929 . S
H1144 C1152 0.929 . S
H1145 C1154 0.930 . S
H1146 C1156 0.930 . S
H1147 C1159 0.929 . S
H1148 C1162 0.930 . S
H1149 C1164 0.960 . S
H1150 C1164 0.960 . S
H1151 C1164 0.960 . S
C1152 H1144 0.929 . S
C1152 C1153 1.377 . S
C1152 C1154 1.384 . S
C1153 C1152 1.377 . S
C1153 C1159 1.390 . S
C1154 H1145 0.930 . S
C1154 C1152 1.384 . S
C1154 C1155 1.372 . S
C1155 C1154 1.372 . S
C1155 C1156 1.400 . S
C1155 C1160 1.490 . S
C1156 H1146 0.930 . S
C1156 C1155 1.400 . S
C1156 C1159 1.386 . S
H1157 C1173 0.930 . S
H1158 C1174 0.931 . S
C1159 H1147 0.929 . S
C1159 C1153 1.390 . S
C1159 C1156 1.386 . S
C1160 C1155 1.490 . S
C1160 C1162 1.395 . S
C1160 C1163 1.403 . S
H1161 C1167 0.930 . S
C1162 H1148 0.930 . S
C1162 C1160 1.395 . S
C1162 C1165 1.403 . S
C1163 C1160 1.403 . S
C1163 C1164 1.524 . S
C1163 C1167 1.400 . S
C1164 H1149 0.960 . S
C1164 H1150 0.960 . S
C1164 H1151 0.960 . S
C1164 C1163 1.524 . S
C1165 C1162 1.403 . S
C1165 C1166 1.392 . S
C1165 C1169 1.495 . S
C1166 C1165 1.392 . S
C1166 C1167 1.385 . S
C1166 C1168 1.478 . S
C1167 H1161 0.930 . S
C1167 C1163 1.400 . S
C1167 C1166 1.385 . S
C1168 C1166 1.478 . S
C1168 C1170 1.381 . S
C1168 C1174 1.383 . S
C1169 C1165 1.495 . S
C1169 H1175 0.959 . S
C1169 H1176 0.961 . S
C1169 H1177 0.960 . S
C1170 C1168 1.381 . S
C1170 C1171 1.394 . S
C1170 H1178 0.930 . S
C1171 C1170 1.394 . S
C1171 C1172 1.383 . S
C1171 H1179 0.929 . S
C1172 C1171 1.383 . S
C1172 C1173 1.377 . S
C1173 H1157 0.930 . S
C1173 C1172 1.377 . S
C1173 C1174 1.379 . S
C1174 H1158 0.931 . S
C1174 C1168 1.383 . S
C1174 C1173 1.379 . S
H1175 C1169 0.959 . S
H1176 C1169 0.961 . S
H1177 C1169 0.960 . S
H1178 C1170 0.930 . S
H1179 C1171 0.929 . S
H1180 C1188 0.929 . S
H1181 C1190 0.930 . S
H1182 C1192 0.930 . S
H1183 C1195 0.929 . S
H1184 C1198 0.930 . S
H1185 C1200 0.960 . S
H1186 C1200 0.960 . S
H1187 C1200 0.960 . S
C1188 H1180 0.929 . S
C1188 C1189 1.377 . S
C1188 C1190 1.384 . S
C1189 C1188 1.377 . S
C1189 C1195 1.390 . S
C1190 H1181 0.930 . S
C1190 C1188 1.384 . S
C1190 C1191 1.372 . S
C1191 C1190 1.372 . S
C1191 C1192 1.400 . S
C1191 C1196 1.490 . S
C1192 H1182 0.930 . S
C1192 C1191 1.400 . S
C1192 C1195 1.386 . S
H1193 C1209 0.930 . S
H1194 C1210 0.931 . S
C1195 H1183 0.929 . S
C1195 C1189 1.390 . S
C1195 C1192 1.386 . S
C1196 C1191 1.490 . S
C1196 C1198 1.395 . S
C1196 C1199 1.403 . S
H1197 C1203 0.930 . S
C1198 H1184 0.930 . S
C1198 C1196 1.395 . S
C1198 C1201 1.403 . S
C1199 C1196 1.403 . S
C1199 C1200 1.524 . S
C1199 C1203 1.400 . S
C1200 H1185 0.960 . S
C1200 H1186 0.960 . S
C1200 H1187 0.960 . S
C1200 C1199 1.524 . S
C1201 C1198 1.403 . S
C1201 C1202 1.392 . S
C1201 C1205 1.495 . S
C1202 C1201 1.392 . S
C1202 C1203 1.385 . S
C1202 C1204 1.478 . S
C1203 H1197 0.930 . S
C1203 C1199 1.400 . S
C1203 C1202 1.385 . S
C1204 C1202 1.478 . S
C1204 C1206 1.381 . S
C1204 C1210 1.383 . S
C1205 C1201 1.495 . S
C1205 H1211 0.959 . S
C1205 H1212 0.961 . S
C1205 H1213 0.960 . S
C1206 C1204 1.381 . S
C1206 C1207 1.394 . S
C1206 H1214 0.930 . S
C1207 C1206 1.394 . S
C1207 C1208 1.383 . S
C1207 H1215 0.929 . S
C1208 C1207 1.383 . S
C1208 C1209 1.377 . S
C1209 H1193 0.930 . S
C1209 C1208 1.377 . S
C1209 C1210 1.379 . S
C1210 H1194 0.931 . S
C1210 C1204 1.383 . S
C1210 C1209 1.379 . S
H1211 C1205 0.959 . S
H1212 C1205 0.961 . S
H1213 C1205 0.960 . S
H1214 C1206 0.930 . S
H1215 C1207 0.929 . S
H1216 C1224 0.929 . S
H1217 C1226 0.930 . S
H1218 C1228 0.930 . S
H1219 C1231 0.929 1_545 S
H1220 C1234 0.930 . S
H1221 C1236 0.960 . S
H1222 C1236 0.960 . S
H1223 C1236 0.960 . S
C1224 H1216 0.929 . S
C1224 C1225 1.377 . S
C1224 C1226 1.384 . S
C1225 C1224 1.377 . S
C1225 C1231 1.390 . S
C1226 H1217 0.930 . S
C1226 C1224 1.384 . S
C1226 C1227 1.372 . S
C1227 C1226 1.372 . S
C1227 C1228 1.400 . S
C1227 C1232 1.490 . S
C1228 H1218 0.930 . S
C1228 C1227 1.400 . S
C1228 C1231 1.386 . S
H1229 C1245 0.930 . S
H1230 C1246 0.931 . S
C1231 H1219 0.929 1_565 S
C1231 C1225 1.390 . S
C1231 C1228 1.386 . S
C1232 C1227 1.490 . S
C1232 C1234 1.395 . S
C1232 C1235 1.403 . S
H1233 C1239 0.930 . S
C1234 H1220 0.930 . S
C1234 C1232 1.395 . S
C1234 C1237 1.403 . S
C1235 C1232 1.403 . S
C1235 C1236 1.524 . S
C1235 C1239 1.400 . S
C1236 H1221 0.960 . S
C1236 H1222 0.960 . S
C1236 H1223 0.960 . S
C1236 C1235 1.524 . S
C1237 C1234 1.403 . S
C1237 C1238 1.392 . S
C1237 C1241 1.495 . S
C1238 C1237 1.392 . S
C1238 C1239 1.385 . S
C1238 C1240 1.478 . S
C1239 H1233 0.930 . S
C1239 C1235 1.400 . S
C1239 C1238 1.385 . S
C1240 C1238 1.478 . S
C1240 C1242 1.381 . S
C1240 C1246 1.383 . S
C1241 C1237 1.495 . S
C1241 H1247 0.959 . S
C1241 H1248 0.961 . S
C1241 H1249 0.960 . S
C1242 C1240 1.381 . S
C1242 C1243 1.394 . S
C1242 H1250 0.930 . S
C1243 C1242 1.394 . S
C1243 C1244 1.383 . S
C1243 H1251 0.929 . S
C1244 C1243 1.383 . S
C1244 C1245 1.377 . S
C1245 H1229 0.930 . S
C1245 C1244 1.377 . S
C1245 C1246 1.379 . S
C1246 H1230 0.931 . S
C1246 C1240 1.383 . S
C1246 C1245 1.379 . S
H1247 C1241 0.959 . S
H1248 C1241 0.961 . S
H1249 C1241 0.960 . S
H1250 C1242 0.930 . S
H1251 C1243 0.929 . S
H1252 C1260 0.929 . S
H1253 C1262 0.930 . S
H1254 C1264 0.930 . S
H1255 C1267 0.929 . S
H1256 C1270 0.930 . S
H1257 C1272 0.960 . S
H1258 C1272 0.960 . S
H1259 C1272 0.960 . S
C1260 H1252 0.929 . S
C1260 C1261 1.377 . S
C1260 C1262 1.384 . S
C1261 C1260 1.377 . S
C1261 C1267 1.390 . S
C1262 H1253 0.930 . S
C1262 C1260 1.384 . S
C1262 C1263 1.372 . S
C1263 C1262 1.372 . S
C1263 C1264 1.400 . S
C1263 C1268 1.490 . S
C1264 H1254 0.930 . S
C1264 C1263 1.400 . S
C1264 C1267 1.386 . S
H1265 C1281 0.930 . S
H1266 C1282 0.931 . S
C1267 H1255 0.929 . S
C1267 C1261 1.390 . S
C1267 C1264 1.386 . S
C1268 C1263 1.490 . S
C1268 C1270 1.395 . S
C1268 C1271 1.403 . S
H1269 C1275 0.930 . S
C1270 H1256 0.930 . S
C1270 C1268 1.395 . S
C1270 C1273 1.403 . S
C1271 C1268 1.403 . S
C1271 C1272 1.524 . S
C1271 C1275 1.400 . S
C1272 H1257 0.960 . S
C1272 H1258 0.960 . S
C1272 H1259 0.960 . S
C1272 C1271 1.524 . S
C1273 C1270 1.403 . S
C1273 C1274 1.392 . S
C1273 C1277 1.495 . S
C1274 C1273 1.392 . S
C1274 C1275 1.385 . S
C1274 C1276 1.478 . S
C1275 H1269 0.930 . S
C1275 C1271 1.400 . S
C1275 C1274 1.385 . S
C1276 C1274 1.478 . S
C1276 C1278 1.381 . S
C1276 C1282 1.383 . S
C1277 C1273 1.495 . S
C1277 H1283 0.959 . S
C1277 H1284 0.961 . S
C1277 H1285 0.960 . S
C1278 C1276 1.381 . S
C1278 C1279 1.394 . S
C1278 H1286 0.930 . S
C1279 C1278 1.394 . S
C1279 C1280 1.383 . S
C1279 H1287 0.929 . S
C1280 C1279 1.383 . S
C1280 C1281 1.377 . S
C1281 H1265 0.930 . S
C1281 C1280 1.377 . S
C1281 C1282 1.379 . S
C1282 H1266 0.931 . S
C1282 C1276 1.383 . S
C1282 C1281 1.379 . S
H1283 C1277 0.959 . S
H1284 C1277 0.961 . S
H1285 C1277 0.960 . S
H1286 C1278 0.930 . S
H1287 C1279 0.929 . S
H1288 C1296 0.929 . S
H1289 C1298 0.930 . S
H1290 C1300 0.930 . S
H1291 C1303 0.929 . S
H1292 C1306 0.930 . S
H1293 C1308 0.960 . S
H1294 C1308 0.960 . S
H1295 C1308 0.960 . S
C1296 H1288 0.929 . S
C1296 C1297 1.377 . S
C1296 C1298 1.384 . S
C1297 C1296 1.377 . S
C1297 C1303 1.390 . S
C1298 H1289 0.930 . S
C1298 C1296 1.384 . S
C1298 C1299 1.372 . S
C1299 C1298 1.372 . S
C1299 C1300 1.400 . S
C1299 C1304 1.490 . S
C1300 H1290 0.930 . S
C1300 C1299 1.400 . S
C1300 C1303 1.386 . S
H1301 C1317 0.930 . S
H1302 C1318 0.931 . S
C1303 H1291 0.929 . S
C1303 C1297 1.390 . S
C1303 C1300 1.386 . S
C1304 C1299 1.490 . S
C1304 C1306 1.395 . S
C1304 C1307 1.403 . S
H1305 C1311 0.930 . S
C1306 H1292 0.930 . S
C1306 C1304 1.395 . S
C1306 C1309 1.403 . S
C1307 C1304 1.403 . S
C1307 C1308 1.524 . S
C1307 C1311 1.400 . S
C1308 H1293 0.960 . S
C1308 H1294 0.960 . S
C1308 H1295 0.960 . S
C1308 C1307 1.524 . S
C1309 C1306 1.403 . S
C1309 C1310 1.392 . S
C1309 C1313 1.495 . S
C1310 C1309 1.392 . S
C1310 C1311 1.385 . S
C1310 C1312 1.478 . S
C1311 H1305 0.930 . S
C1311 C1307 1.400 . S
C1311 C1310 1.385 . S
C1312 C1310 1.478 . S
C1312 C1314 1.381 . S
C1312 C1318 1.383 . S
C1313 C1309 1.495 . S
C1313 H1319 0.959 . S
C1313 H1320 0.961 . S
C1313 H1321 0.960 . S
C1314 C1312 1.381 . S
C1314 C1315 1.394 . S
C1314 H1322 0.930 . S
C1315 C1314 1.394 . S
C1315 C1316 1.383 . S
C1315 H1323 0.929 . S
C1316 C1315 1.383 . S
C1316 C1317 1.377 . S
C1317 H1301 0.930 . S
C1317 C1316 1.377 . S
C1317 C1318 1.379 . S
C1318 H1302 0.931 . S
C1318 C1312 1.383 . S
C1318 C1317 1.379 . S
H1319 C1313 0.959 . S
H1320 C1313 0.961 . S
H1321 C1313 0.960 . S
H1322 C1314 0.930 . S
H1323 C1315 0.929 . S
H1324 C1332 0.929 . S
H1325 C1334 0.930 . S
H1326 C1336 0.930 . S
H1327 C1339 0.929 . S
H1328 C1342 0.930 . S
H1329 C1344 0.960 . S
H1330 C1344 0.960 . S
H1331 C1344 0.960 . S
C1332 H1324 0.929 . S
C1332 C1333 1.377 . S
C1332 C1334 1.384 . S
C1333 C1332 1.377 . S
C1333 C1339 1.390 . S
C1334 H1325 0.930 . S
C1334 C1332 1.384 . S
C1334 C1335 1.372 . S
C1335 C1334 1.372 . S
C1335 C1336 1.400 . S
C1335 C1340 1.490 . S
C1336 H1326 0.930 . S
C1336 C1335 1.400 . S
C1336 C1339 1.386 . S
H1337 C1353 0.930 . S
H1338 C1354 0.931 . S
C1339 H1327 0.929 . S
C1339 C1333 1.390 . S
C1339 C1336 1.386 . S
C1340 C1335 1.490 . S
C1340 C1342 1.395 . S
C1340 C1343 1.403 . S
H1341 C1347 0.930 . S
C1342 H1328 0.930 . S
C1342 C1340 1.395 . S
C1342 C1345 1.403 . S
C1343 C1340 1.403 . S
C1343 C1344 1.524 . S
C1343 C1347 1.400 . S
C1344 H1329 0.960 . S
C1344 H1330 0.960 . S
C1344 H1331 0.960 . S
C1344 C1343 1.524 . S
C1345 C1342 1.403 . S
C1345 C1346 1.392 . S
C1345 C1349 1.495 . S
C1346 C1345 1.392 . S
C1346 C1347 1.385 . S
C1346 C1348 1.478 . S
C1347 H1341 0.930 . S
C1347 C1343 1.400 . S
C1347 C1346 1.385 . S
C1348 C1346 1.478 . S
C1348 C1350 1.381 . S
C1348 C1354 1.383 . S
C1349 C1345 1.495 . S
C1349 H1355 0.959 . S
C1349 H1356 0.961 . S
C1349 H1357 0.960 . S
C1350 C1348 1.381 . S
C1350 C1351 1.394 . S
C1350 H1358 0.930 . S
C1351 C1350 1.394 . S
C1351 C1352 1.383 . S
C1351 H1359 0.929 . S
C1352 C1351 1.383 . S
C1352 C1353 1.377 . S
C1353 H1337 0.930 . S
C1353 C1352 1.377 . S
C1353 C1354 1.379 . S
C1354 H1338 0.931 . S
C1354 C1348 1.383 . S
C1354 C1353 1.379 . S
H1355 C1349 0.959 . S
H1356 C1349 0.961 . S
H1357 C1349 0.960 . S
H1358 C1350 0.930 . S
H1359 C1351 0.929 . S
H1360 C1368 0.929 . S
H1361 C1370 0.930 . S
H1362 C1372 0.930 . S
H1363 C1375 0.929 . S
H1364 C1378 0.930 . S
H1365 C1380 0.960 . S
H1366 C1380 0.960 . S
H1367 C1380 0.960 . S
C1368 H1360 0.929 . S
C1368 C1369 1.377 . S
C1368 C1370 1.384 . S
C1369 C1368 1.377 . S
C1369 C1375 1.390 . S
C1370 H1361 0.930 . S
C1370 C1368 1.384 . S
C1370 C1371 1.372 . S
C1371 C1370 1.372 . S
C1371 C1372 1.400 . S
C1371 C1376 1.490 . S
C1372 H1362 0.930 . S
C1372 C1371 1.400 . S
C1372 C1375 1.386 . S
H1373 C1389 0.930 . S
H1374 C1390 0.931 . S
C1375 H1363 0.929 . S
C1375 C1369 1.390 . S
C1375 C1372 1.386 . S
C1376 C1371 1.490 . S
C1376 C1378 1.395 . S
C1376 C1379 1.403 . S
H1377 C1383 0.930 . S
C1378 H1364 0.930 . S
C1378 C1376 1.395 . S
C1378 C1381 1.403 . S
C1379 C1376 1.403 . S
C1379 C1380 1.524 . S
C1379 C1383 1.400 . S
C1380 H1365 0.960 . S
C1380 H1366 0.960 . S
C1380 H1367 0.960 . S
C1380 C1379 1.524 . S
C1381 C1378 1.403 . S
C1381 C1382 1.392 . S
C1381 C1385 1.495 . S
C1382 C1381 1.392 . S
C1382 C1383 1.385 . S
C1382 C1384 1.478 . S
C1383 H1377 0.930 . S
C1383 C1379 1.400 . S
C1383 C1382 1.385 . S
C1384 C1382 1.478 . S
C1384 C1386 1.381 . S
C1384 C1390 1.383 . S
C1385 C1381 1.495 . S
C1385 H1391 0.959 . S
C1385 H1392 0.961 . S
C1385 H1393 0.960 . S
C1386 C1384 1.381 . S
C1386 C1387 1.394 . S
C1386 H1394 0.930 . S
C1387 C1386 1.394 . S
C1387 C1388 1.383 . S
C1387 H1395 0.929 . S
C1388 C1387 1.383 . S
C1388 C1389 1.377 . S
C1389 H1373 0.930 . S
C1389 C1388 1.377 . S
C1389 C1390 1.379 . S
C1390 H1374 0.931 . S
C1390 C1384 1.383 . S
C1390 C1389 1.379 . S
H1391 C1385 0.959 . S
H1392 C1385 0.961 . S
H1393 C1385 0.960 . S
H1394 C1386 0.930 . S
H1395 C1387 0.929 . S
H1396 C1404 0.929 . S
H1397 C1406 0.930 . S
H1398 C1408 0.930 . S
H1399 C1411 0.929 . S
H1400 C1414 0.930 . S
H1401 C1416 0.960 . S
H1402 C1416 0.960 . S
H1403 C1416 0.960 . S
C1404 H1396 0.929 . S
C1404 C1405 1.377 . S
C1404 C1406 1.384 . S
C1405 C1404 1.377 . S
C1405 C1411 1.390 . S
C1406 H1397 0.930 . S
C1406 C1404 1.384 . S
C1406 C1407 1.372 . S
C1407 C1406 1.372 . S
C1407 C1408 1.400 . S
C1407 C1412 1.490 . S
C1408 H1398 0.930 . S
C1408 C1407 1.400 . S
C1408 C1411 1.386 . S
H1409 C1425 0.930 . S
H1410 C1426 0.931 . S
C1411 H1399 0.929 . S
C1411 C1405 1.390 . S
C1411 C1408 1.386 . S
C1412 C1407 1.490 . S
C1412 C1414 1.395 . S
C1412 C1415 1.403 . S
H1413 C1419 0.930 . S
C1414 H1400 0.930 . S
C1414 C1412 1.395 . S
C1414 C1417 1.403 . S
C1415 C1412 1.403 . S
C1415 C1416 1.524 . S
C1415 C1419 1.400 . S
C1416 H1401 0.960 . S
C1416 H1402 0.960 . S
C1416 H1403 0.960 . S
C1416 C1415 1.524 . S
C1417 C1414 1.403 . S
C1417 C1418 1.392 . S
C1417 C1421 1.495 . S
C1418 C1417 1.392 . S
C1418 C1419 1.385 . S
C1418 C1420 1.478 . S
C1419 H1413 0.930 . S
C1419 C1415 1.400 . S
C1419 C1418 1.385 . S
C1420 C1418 1.478 . S
C1420 C1422 1.381 . S
C1420 C1426 1.383 . S
C1421 C1417 1.495 . S
C1421 H1427 0.959 . S
C1421 H1428 0.961 . S
C1421 H1429 0.960 . S
C1422 C1420 1.381 . S
C1422 C1423 1.394 . S
C1422 H1430 0.930 . S
C1423 C1422 1.394 . S
C1423 C1424 1.383 . S
C1423 H1431 0.929 . S
C1424 C1423 1.383 . S
C1424 C1425 1.377 . S
C1425 H1409 0.930 . S
C1425 C1424 1.377 . S
C1425 C1426 1.379 . S
C1426 H1410 0.931 . S
C1426 C1420 1.383 . S
C1426 C1425 1.379 . S
H1427 C1421 0.959 . S
H1428 C1421 0.961 . S
H1429 C1421 0.960 . S
H1430 C1422 0.930 . S
H1431 C1423 0.929 . S
H1432 C1440 0.929 . S
H1433 C1442 0.930 . S
H1434 C1444 0.930 . S
H1435 C1447 0.929 . S
H1436 C1450 0.930 . S
H1437 C1452 0.960 . S
H1438 C1452 0.960 . S
H1439 C1452 0.960 . S
C1440 H1432 0.929 . S
C1440 C1441 1.377 . S
C1440 C1442 1.384 . S
C1441 C1440 1.377 . S
C1441 C1447 1.390 . S
C1442 H1433 0.930 . S
C1442 C1440 1.384 . S
C1442 C1443 1.372 . S
C1443 C1442 1.372 . S
C1443 C1444 1.400 . S
C1443 C1448 1.490 . S
C1444 H1434 0.930 . S
C1444 C1443 1.400 . S
C1444 C1447 1.386 . S
H1445 C1461 0.930 . S
H1446 C1462 0.931 . S
C1447 H1435 0.929 . S
C1447 C1441 1.390 . S
C1447 C1444 1.386 . S
C1448 C1443 1.490 . S
C1448 C1450 1.395 . S
C1448 C1451 1.403 . S
H1449 C1455 0.930 . S
C1450 H1436 0.930 . S
C1450 C1448 1.395 . S
C1450 C1453 1.403 . S
C1451 C1448 1.403 . S
C1451 C1452 1.524 . S
C1451 C1455 1.400 . S
C1452 H1437 0.960 . S
C1452 H1438 0.960 . S
C1452 H1439 0.960 . S
C1452 C1451 1.524 . S
C1453 C1450 1.403 . S
C1453 C1454 1.392 . S
C1453 C1457 1.495 . S
C1454 C1453 1.392 . S
C1454 C1455 1.385 . S
C1454 C1456 1.478 . S
C1455 H1449 0.930 . S
C1455 C1451 1.400 . S
C1455 C1454 1.385 . S
C1456 C1454 1.478 . S
C1456 C1458 1.381 . S
C1456 C1462 1.383 . S
C1457 C1453 1.495 . S
C1457 H1463 0.959 . S
C1457 H1464 0.961 . S
C1457 H1465 0.960 . S
C1458 C1456 1.381 . S
C1458 C1459 1.394 . S
C1458 H1466 0.930 . S
C1459 C1458 1.394 . S
C1459 C1460 1.383 . S
C1459 H1467 0.929 . S
C1460 C1459 1.383 . S
C1460 C1461 1.377 . S
C1461 H1445 0.930 . S
C1461 C1460 1.377 . S
C1461 C1462 1.379 . S
C1462 H1446 0.931 . S
C1462 C1456 1.383 . S
C1462 C1461 1.379 . S
H1463 C1457 0.959 . S
H1464 C1457 0.961 . S
H1465 C1457 0.960 . S
H1466 C1458 0.930 . S
H1467 C1459 0.929 . S
H1468 C1476 0.929 . S
H1469 C1478 0.930 . S
H1470 C1480 0.930 . S
H1471 C1483 0.929 . S
H1472 C1486 0.930 . S
H1473 C1488 0.960 . S
H1474 C1488 0.960 . S
H1475 C1488 0.960 . S
C1476 H1468 0.929 . S
C1476 C1477 1.377 . S
C1476 C1478 1.384 . S
C1477 C1476 1.377 . S
C1477 C1483 1.390 . S
C1478 H1469 0.930 . S
C1478 C1476 1.384 . S
C1478 C1479 1.372 . S
C1479 C1478 1.372 . S
C1479 C1480 1.400 . S
C1479 C1484 1.490 . S
C1480 H1470 0.930 . S
C1480 C1479 1.400 . S
C1480 C1483 1.386 . S
H1481 C1497 0.930 . S
H1482 C1498 0.931 . S
C1483 H1471 0.929 . S
C1483 C1477 1.390 . S
C1483 C1480 1.386 . S
C1484 C1479 1.490 . S
C1484 C1486 1.395 . S
C1484 C1487 1.403 . S
H1485 C1491 0.930 . S
C1486 H1472 0.930 . S
C1486 C1484 1.395 . S
C1486 C1489 1.403 . S
C1487 C1484 1.403 . S
C1487 C1488 1.524 . S
C1487 C1491 1.400 . S
C1488 H1473 0.960 . S
C1488 H1474 0.960 . S
C1488 H1475 0.960 . S
C1488 C1487 1.524 . S
C1489 C1486 1.403 . S
C1489 C1490 1.392 . S
C1489 C1493 1.495 . S
C1490 C1489 1.392 . S
C1490 C1491 1.385 . S
C1490 C1492 1.478 . S
C1491 H1485 0.930 . S
C1491 C1487 1.400 . S
C1491 C1490 1.385 . S
C1492 C1490 1.478 . S
C1492 C1494 1.381 . S
C1492 C1498 1.383 . S
C1493 C1489 1.495 . S
C1493 H1499 0.959 . S
C1493 H1500 0.961 . S
C1493 H1501 0.960 . S
C1494 C1492 1.381 . S
C1494 C1495 1.394 . S
C1494 H1502 0.930 . S
C1495 C1494 1.394 . S
C1495 C1496 1.383 . S
C1495 H1503 0.929 1_455 S
C1496 C1495 1.383 . S
C1496 C1497 1.377 . S
C1497 H1481 0.930 . S
C1497 C1496 1.377 . S
C1497 C1498 1.379 . S
C1498 H1482 0.931 . S
C1498 C1492 1.383 . S
C1498 C1497 1.379 . S
H1499 C1493 0.959 . S
H1500 C1493 0.961 . S
H1501 C1493 0.960 . S
H1502 C1494 0.930 . S
H1503 C1495 0.929 1_655 S
H1504 C1512 0.929 . S
H1505 C1514 0.930 . S
H1506 C1516 0.930 . S
H1507 C1519 0.929 . S
H1508 C1522 0.930 . S
H1509 C1524 0.960 . S
H1510 C1524 0.960 . S
H1511 C1524 0.960 . S
C1512 H1504 0.929 . S
C1512 C1513 1.377 . S
C1512 C1514 1.384 . S
C1513 C1512 1.377 . S
C1513 C1519 1.390 . S
C1514 H1505 0.930 . S
C1514 C1512 1.384 . S
C1514 C1515 1.372 . S
C1515 C1514 1.372 . S
C1515 C1516 1.400 . S
C1515 C1520 1.490 . S
C1516 H1506 0.930 . S
C1516 C1515 1.400 . S
C1516 C1519 1.386 . S
H1517 C1533 0.930 . S
H1518 C1534 0.931 . S
C1519 H1507 0.929 . S
C1519 C1513 1.390 . S
C1519 C1516 1.386 . S
C1520 C1515 1.490 . S
C1520 C1522 1.395 . S
C1520 C1523 1.403 . S
H1521 C1527 0.930 . S
C1522 H1508 0.930 . S
C1522 C1520 1.395 . S
C1522 C1525 1.403 . S
C1523 C1520 1.403 . S
C1523 C1524 1.524 . S
C1523 C1527 1.400 . S
C1524 H1509 0.960 . S
C1524 H1510 0.960 . S
C1524 H1511 0.960 . S
C1524 C1523 1.524 . S
C1525 C1522 1.403 . S
C1525 C1526 1.392 . S
C1525 C1529 1.495 . S
C1526 C1525 1.392 . S
C1526 C1527 1.385 . S
C1526 C1528 1.478 . S
C1527 H1521 0.930 . S
C1527 C1523 1.400 . S
C1527 C1526 1.385 . S
C1528 C1526 1.478 . S
C1528 C1530 1.381 . S
C1528 C1534 1.383 . S
C1529 C1525 1.495 . S
C1529 H1535 0.959 . S
C1529 H1536 0.961 . S
C1529 H1537 0.960 . S
C1530 C1528 1.381 . S
C1530 C1531 1.394 . S
C1530 H1538 0.930 . S
C1531 C1530 1.394 . S
C1531 C1532 1.383 . S
C1531 H1539 0.929 . S
C1532 C1531 1.383 . S
C1532 C1533 1.377 . S
C1533 H1517 0.930 . S
C1533 C1532 1.377 . S
C1533 C1534 1.379 . S
C1534 H1518 0.931 . S
C1534 C1528 1.383 . S
C1534 C1533 1.379 . S
H1535 C1529 0.959 . S
H1536 C1529 0.961 . S
H1537 C1529 0.960 . S
H1538 C1530 0.930 . S
H1539 C1531 0.929 . S
H1540 C1548 0.929 . S
H1541 C1550 0.930 . S
H1542 C1552 0.930 . S
H1543 C1555 0.929 . S
H1544 C1558 0.930 . S
H1545 C1560 0.960 . S
H1546 C1560 0.960 . S
H1547 C1560 0.960 . S
C1548 H1540 0.929 . S
C1548 C1549 1.377 . S
C1548 C1550 1.384 . S
C1549 C1548 1.377 . S
C1549 C1555 1.390 . S
C1550 H1541 0.930 . S
C1550 C1548 1.384 . S
C1550 C1551 1.372 . S
C1551 C1550 1.372 . S
C1551 C1552 1.400 . S
C1551 C1556 1.490 . S
C1552 H1542 0.930 . S
C1552 C1551 1.400 . S
C1552 C1555 1.386 . S
H1553 C1569 0.930 . S
H1554 C1570 0.931 . S
C1555 H1543 0.929 . S
C1555 C1549 1.390 . S
C1555 C1552 1.386 . S
C1556 C1551 1.490 . S
C1556 C1558 1.395 . S
C1556 C1559 1.403 . S
H1557 C1563 0.930 . S
C1558 H1544 0.930 . S
C1558 C1556 1.395 . S
C1558 C1561 1.403 . S
C1559 C1556 1.403 . S
C1559 C1560 1.524 . S
C1559 C1563 1.400 . S
C1560 H1545 0.960 . S
C1560 H1546 0.960 . S
C1560 H1547 0.960 . S
C1560 C1559 1.524 . S
C1561 C1558 1.403 . S
C1561 C1562 1.392 . S
C1561 C1565 1.495 . S
C1562 C1561 1.392 . S
C1562 C1563 1.385 . S
C1562 C1564 1.478 . S
C1563 H1557 0.930 . S
C1563 C1559 1.400 . S
C1563 C1562 1.385 . S
C1564 C1562 1.478 . S
C1564 C1566 1.381 . S
C1564 C1570 1.383 . S
C1565 C1561 1.495 . S
C1565 H1571 0.959 . S
C1565 H1572 0.961 . S
C1565 H1573 0.960 . S
C1566 C1564 1.381 . S
C1566 C1567 1.394 . S
C1566 H1574 0.930 . S
C1567 C1566 1.394 . S
C1567 C1568 1.383 . S
C1567 H1575 0.929 . S
C1568 C1567 1.383 . S
C1568 C1569 1.377 . S
C1569 H1553 0.930 . S
C1569 C1568 1.377 . S
C1569 C1570 1.379 . S
C1570 H1554 0.931 . S
C1570 C1564 1.383 . S
C1570 C1569 1.379 . S
H1571 C1565 0.959 . S
H1572 C1565 0.961 . S
H1573 C1565 0.960 . S
H1574 C1566 0.930 . S
H1575 C1567 0.929 . S
H1576 C1584 0.929 . S
H1577 C1586 0.930 . S
H1578 C1588 0.930 . S
H1579 C1591 0.929 . S
H1580 C1594 0.930 . S
H1581 C1596 0.960 . S
H1582 C1596 0.960 . S
H1583 C1596 0.960 . S
C1584 H1576 0.929 . S
C1584 C1585 1.377 . S
C1584 C1586 1.384 . S
C1585 C1584 1.377 . S
C1585 C1591 1.390 . S
C1586 H1577 0.930 . S
C1586 C1584 1.384 . S
C1586 C1587 1.372 . S
C1587 C1586 1.372 . S
C1587 C1588 1.400 . S
C1587 C1592 1.490 . S
C1588 H1578 0.930 . S
C1588 C1587 1.400 . S
C1588 C1591 1.386 . S
H1589 C1605 0.930 . S
H1590 C1606 0.931 . S
C1591 H1579 0.929 . S
C1591 C1585 1.390 . S
C1591 C1588 1.386 . S
C1592 C1587 1.490 . S
C1592 C1594 1.395 . S
C1592 C1595 1.403 . S
H1593 C1599 0.930 . S
C1594 H1580 0.930 . S
C1594 C1592 1.395 . S
C1594 C1597 1.403 . S
C1595 C1592 1.403 . S
C1595 C1596 1.524 . S
C1595 C1599 1.400 . S
C1596 H1581 0.960 . S
C1596 H1582 0.960 . S
C1596 H1583 0.960 . S
C1596 C1595 1.524 . S
C1597 C1594 1.403 . S
C1597 C1598 1.392 . S
C1597 C1601 1.495 . S
C1598 C1597 1.392 . S
C1598 C1599 1.385 . S
C1598 C1600 1.478 . S
C1599 H1593 0.930 . S
C1599 C1595 1.400 . S
C1599 C1598 1.385 . S
C1600 C1598 1.478 . S
C1600 C1602 1.381 . S
C1600 C1606 1.383 . S
C1601 C1597 1.495 . S
C1601 H1607 0.959 . S
C1601 H1608 0.961 . S
C1601 H1609 0.960 . S
C1602 C1600 1.381 . S
C1602 C1603 1.394 . S
C1602 H1610 0.930 . S
C1603 C1602 1.394 . S
C1603 C1604 1.383 . S
C1603 H1611 0.929 . S
C1604 C1603 1.383 . S
C1604 C1605 1.377 . S
C1605 H1589 0.930 . S
C1605 C1604 1.377 . S
C1605 C1606 1.379 . S
C1606 H1590 0.931 . S
C1606 C1600 1.383 . S
C1606 C1605 1.379 . S
H1607 C1601 0.959 . S
H1608 C1601 0.961 . S
H1609 C1601 0.960 . S
H1610 C1602 0.930 . S
H1611 C1603 0.929 . S
H1612 C1620 0.929 . S
H1613 C1622 0.930 . S
H1614 C1624 0.930 . S
H1615 C1627 0.929 . S
H1616 C1630 0.930 . S
H1617 C1632 0.960 . S
H1618 C1632 0.960 . S
H1619 C1632 0.960 . S
C1620 H1612 0.929 . S
C1620 C1621 1.377 . S
C1620 C1622 1.384 . S
C1621 C1620 1.377 . S
C1621 C1627 1.390 . S
C1622 H1613 0.930 . S
C1622 C1620 1.384 . S
C1622 C1623 1.372 . S
C1623 C1622 1.372 . S
C1623 C1624 1.400 . S
C1623 C1628 1.490 . S
C1624 H1614 0.930 . S
C1624 C1623 1.400 . S
C1624 C1627 1.386 . S
H1625 C1641 0.930 . S
H1626 C1642 0.931 . S
C1627 H1615 0.929 . S
C1627 C1621 1.390 . S
C1627 C1624 1.386 . S
C1628 C1623 1.490 . S
C1628 C1630 1.395 . S
C1628 C1631 1.403 . S
H1629 C1635 0.930 . S
C1630 H1616 0.930 . S
C1630 C1628 1.395 . S
C1630 C1633 1.403 . S
C1631 C1628 1.403 . S
C1631 C1632 1.524 . S
C1631 C1635 1.400 . S
C1632 H1617 0.960 . S
C1632 H1618 0.960 . S
C1632 H1619 0.960 . S
C1632 C1631 1.524 . S
C1633 C1630 1.403 . S
C1633 C1634 1.392 . S
C1633 C1637 1.495 . S
C1634 C1633 1.392 . S
C1634 C1635 1.385 . S
C1634 C1636 1.478 . S
C1635 H1629 0.930 . S
C1635 C1631 1.400 . S
C1635 C1634 1.385 . S
C1636 C1634 1.478 . S
C1636 C1638 1.381 . S
C1636 C1642 1.383 . S
C1637 C1633 1.495 . S
C1637 H1643 0.959 . S
C1637 H1644 0.961 . S
C1637 H1645 0.960 . S
C1638 C1636 1.381 . S
C1638 C1639 1.394 . S
C1638 H1646 0.930 . S
C1639 C1638 1.394 . S
C1639 C1640 1.383 . S
C1639 H1647 0.929 . S
C1640 C1639 1.383 . S
C1640 C1641 1.377 . S
C1641 H1625 0.930 . S
C1641 C1640 1.377 . S
C1641 C1642 1.379 . S
C1642 H1626 0.931 . S
C1642 C1636 1.383 . S
C1642 C1641 1.379 . S
H1643 C1637 0.959 . S
H1644 C1637 0.961 . S
H1645 C1637 0.960 . S
H1646 C1638 0.930 . S
H1647 C1639 0.929 . S
H1648 C1656 0.929 . S
H1649 C1658 0.930 . S
H1650 C1660 0.930 . S
H1651 C1663 0.929 . S
H1652 C1666 0.930 . S
H1653 C1668 0.960 . S
H1654 C1668 0.960 . S
H1655 C1668 0.960 . S
C1656 H1648 0.929 . S
C1656 C1657 1.377 . S
C1656 C1658 1.384 . S
C1657 C1656 1.377 . S
C1657 C1663 1.390 . S
C1658 H1649 0.930 . S
C1658 C1656 1.384 . S
C1658 C1659 1.372 . S
C1659 C1658 1.372 . S
C1659 C1660 1.400 . S
C1659 C1664 1.490 . S
C1660 H1650 0.930 . S
C1660 C1659 1.400 . S
C1660 C1663 1.386 . S
H1661 C1677 0.930 . S
H1662 C1678 0.931 . S
C1663 H1651 0.929 . S
C1663 C1657 1.390 . S
C1663 C1660 1.386 . S
C1664 C1659 1.490 . S
C1664 C1666 1.395 . S
C1664 C1667 1.403 . S
H1665 C1671 0.930 . S
C1666 H1652 0.930 . S
C1666 C1664 1.395 . S
C1666 C1669 1.403 . S
C1667 C1664 1.403 . S
C1667 C1668 1.524 . S
C1667 C1671 1.400 . S
C1668 H1653 0.960 . S
C1668 H1654 0.960 . S
C1668 H1655 0.960 . S
C1668 C1667 1.524 . S
C1669 C1666 1.403 . S
C1669 C1670 1.392 . S
C1669 C1673 1.495 . S
C1670 C1669 1.392 . S
C1670 C1671 1.385 . S
C1670 C1672 1.478 . S
C1671 H1665 0.930 . S
C1671 C1667 1.400 . S
C1671 C1670 1.385 . S
C1672 C1670 1.478 . S
C1672 C1674 1.381 . S
C1672 C1678 1.383 . S
C1673 C1669 1.495 . S
C1673 H1679 0.959 . S
C1673 H1680 0.961 . S
C1673 H1681 0.960 . S
C1674 C1672 1.381 . S
C1674 C1675 1.394 . S
C1674 H1682 0.930 . S
C1675 C1674 1.394 . S
C1675 C1676 1.383 . S
C1675 H1683 0.929 . S
C1676 C1675 1.383 . S
C1676 C1677 1.377 . S
C1677 H1661 0.930 . S
C1677 C1676 1.377 . S
C1677 C1678 1.379 . S
C1678 H1662 0.931 . S
C1678 C1672 1.383 . S
C1678 C1677 1.379 . S
H1679 C1673 0.959 . S
H1680 C1673 0.961 . S
H1681 C1673 0.960 . S
H1682 C1674 0.930 . S
H1683 C1675 0.929 . S
H1684 C1692 0.929 . S
H1685 C1694 0.930 . S
H1686 C1696 0.930 . S
H1687 C1699 0.929 . S
H1688 C1702 0.930 . S
H1689 C1704 0.960 . S
H1690 C1704 0.960 . S
H1691 C1704 0.960 . S
C1692 H1684 0.929 . S
C1692 C1693 1.377 . S
C1692 C1694 1.384 . S
C1693 C1692 1.377 . S
C1693 C1699 1.390 . S
C1694 H1685 0.930 . S
C1694 C1692 1.384 . S
C1694 C1695 1.372 . S
C1695 C1694 1.372 . S
C1695 C1696 1.400 . S
C1695 C1700 1.490 . S
C1696 H1686 0.930 . S
C1696 C1695 1.400 . S
C1696 C1699 1.386 . S
H1697 C1713 0.930 . S
H1698 C1714 0.931 . S
C1699 H1687 0.929 . S
C1699 C1693 1.390 . S
C1699 C1696 1.386 . S
C1700 C1695 1.490 . S
C1700 C1702 1.395 . S
C1700 C1703 1.403 . S
H1701 C1707 0.930 . S
C1702 H1688 0.930 . S
C1702 C1700 1.395 . S
C1702 C1705 1.403 . S
C1703 C1700 1.403 . S
C1703 C1704 1.524 . S
C1703 C1707 1.400 . S
C1704 H1689 0.960 . S
C1704 H1690 0.960 . S
C1704 H1691 0.960 . S
C1704 C1703 1.524 . S
C1705 C1702 1.403 . S
C1705 C1706 1.392 . S
C1705 C1709 1.495 . S
C1706 C1705 1.392 . S
C1706 C1707 1.385 . S
C1706 C1708 1.478 . S
C1707 H1701 0.930 . S
C1707 C1703 1.400 . S
C1707 C1706 1.385 . S
C1708 C1706 1.478 . S
C1708 C1710 1.381 . S
C1708 C1714 1.383 . S
C1709 C1705 1.495 . S
C1709 H1715 0.959 . S
C1709 H1716 0.961 . S
C1709 H1717 0.960 . S
C1710 C1708 1.381 . S
C1710 C1711 1.394 . S
C1710 H1718 0.930 . S
C1711 C1710 1.394 . S
C1711 C1712 1.383 . S
C1711 H1719 0.929 . S
C1712 C1711 1.383 . S
C1712 C1713 1.377 . S
C1713 H1697 0.930 . S
C1713 C1712 1.377 . S
C1713 C1714 1.379 . S
C1714 H1698 0.931 . S
C1714 C1708 1.383 . S
C1714 C1713 1.379 . S
H1715 C1709 0.959 . S
H1716 C1709 0.961 . S
H1717 C1709 0.960 . S
H1718 C1710 0.930 . S
H1719 C1711 0.929 . S
H1720 C1728 0.929 . S
H1721 C1730 0.930 . S
H1722 C1732 0.930 . S
H1723 C1735 0.929 . S
H1724 C1738 0.930 . S
H1725 C1740 0.960 . S
H1726 C1740 0.960 . S
H1727 C1740 0.960 . S
C1728 H1720 0.929 . S
C1728 C1729 1.377 . S
C1728 C1730 1.384 . S
C1729 C1728 1.377 . S
C1729 C1735 1.390 . S
C1730 H1721 0.930 . S
C1730 C1728 1.384 . S
C1730 C1731 1.372 . S
C1731 C1730 1.372 . S
C1731 C1732 1.400 . S
C1731 C1736 1.490 . S
C1732 H1722 0.930 . S
C1732 C1731 1.400 . S
C1732 C1735 1.386 . S
H1733 C1749 0.930 . S
H1734 C1750 0.931 . S
C1735 H1723 0.929 . S
C1735 C1729 1.390 . S
C1735 C1732 1.386 . S
C1736 C1731 1.490 . S
C1736 C1738 1.395 . S
C1736 C1739 1.403 . S
H1737 C1743 0.930 . S
C1738 H1724 0.930 . S
C1738 C1736 1.395 . S
C1738 C1741 1.403 . S
C1739 C1736 1.403 . S
C1739 C1740 1.524 . S
C1739 C1743 1.400 . S
C1740 H1725 0.960 . S
C1740 H1726 0.960 . S
C1740 H1727 0.960 . S
C1740 C1739 1.524 . S
C1741 C1738 1.403 . S
C1741 C1742 1.392 . S
C1741 C1745 1.495 . S
C1742 C1741 1.392 . S
C1742 C1743 1.385 . S
C1742 C1744 1.478 . S
C1743 H1737 0.930 . S
C1743 C1739 1.400 . S
C1743 C1742 1.385 . S
C1744 C1742 1.478 . S
C1744 C1746 1.381 . S
C1744 C1750 1.383 . S
C1745 C1741 1.495 . S
C1745 H1751 0.959 . S
C1745 H1752 0.961 . S
C1745 H1753 0.960 . S
C1746 C1744 1.381 . S
C1746 C1747 1.394 . S
C1746 H1754 0.930 . S
C1747 C1746 1.394 . S
C1747 C1748 1.383 . S
C1747 H1755 0.929 . S
C1748 C1747 1.383 . S
C1748 C1749 1.377 . S
C1749 H1733 0.930 . S
C1749 C1748 1.377 . S
C1749 C1750 1.379 . S
C1750 H1734 0.931 . S
C1750 C1744 1.383 . S
C1750 C1749 1.379 . S
H1751 C1745 0.959 . S
H1752 C1745 0.961 . S
H1753 C1745 0.960 . S
H1754 C1746 0.930 . S
H1755 C1747 0.929 . S
H1756 C1764 0.929 . S
H1757 C1766 0.930 . S
H1758 C1768 0.930 . S
H1759 C1771 0.929 . S
H1760 C1774 0.930 . S
H1761 C1776 0.960 . S
H1762 C1776 0.960 . S
H1763 C1776 0.960 . S
C1764 H1756 0.929 . S
C1764 C1765 1.377 . S
C1764 C1766 1.384 . S
C1765 C1764 1.377 . S
C1765 C1771 1.390 . S
C1766 H1757 0.930 . S
C1766 C1764 1.384 . S
C1766 C1767 1.372 . S
C1767 C1766 1.372 . S
C1767 C1768 1.400 . S
C1767 C1772 1.490 . S
C1768 H1758 0.930 . S
C1768 C1767 1.400 . S
C1768 C1771 1.386 . S
H1769 C1785 0.930 . S
H1770 C1786 0.931 . S
C1771 H1759 0.929 . S
C1771 C1765 1.390 . S
C1771 C1768 1.386 . S
C1772 C1767 1.490 . S
C1772 C1774 1.395 . S
C1772 C1775 1.403 . S
H1773 C1779 0.930 . S
C1774 H1760 0.930 . S
C1774 C1772 1.395 . S
C1774 C1777 1.403 . S
C1775 C1772 1.403 . S
C1775 C1776 1.524 . S
C1775 C1779 1.400 . S
C1776 H1761 0.960 . S
C1776 H1762 0.960 . S
C1776 H1763 0.960 . S
C1776 C1775 1.524 . S
C1777 C1774 1.403 . S
C1777 C1778 1.392 . S
C1777 C1781 1.495 . S
C1778 C1777 1.392 . S
C1778 C1779 1.385 . S
C1778 C1780 1.478 . S
C1779 H1773 0.930 . S
C1779 C1775 1.400 . S
C1779 C1778 1.385 . S
C1780 C1778 1.478 . S
C1780 C1782 1.381 . S
C1780 C1786 1.383 . S
C1781 C1777 1.495 . S
C1781 H1787 0.959 . S
C1781 H1788 0.961 . S
C1781 H1789 0.960 . S
C1782 C1780 1.381 . S
C1782 C1783 1.394 . S
C1782 H1790 0.930 . S
C1783 C1782 1.394 . S
C1783 C1784 1.383 . S
C1783 H1791 0.929 . S
C1784 C1783 1.383 . S
C1784 C1785 1.377 . S
C1785 H1769 0.930 . S
C1785 C1784 1.377 . S
C1785 C1786 1.379 . S
C1786 H1770 0.931 . S
C1786 C1780 1.383 . S
C1786 C1785 1.379 . S
H1787 C1781 0.959 . S
H1788 C1781 0.961 . S
H1789 C1781 0.960 . S
H1790 C1782 0.930 . S
H1791 C1783 0.929 . S
H1792 C1800 0.929 . S
H1793 C1802 0.930 . S
H1794 C1804 0.930 . S
H1795 C1807 0.929 . S
H1796 C1810 0.930 . S
H1797 C1812 0.960 . S
H1798 C1812 0.960 . S
H1799 C1812 0.960 . S
C1800 H1792 0.929 . S
C1800 C1801 1.377 . S
C1800 C1802 1.384 . S
C1801 C1800 1.377 . S
C1801 C1807 1.390 . S
C1802 H1793 0.930 . S
C1802 C1800 1.384 . S
C1802 C1803 1.372 . S
C1803 C1802 1.372 . S
C1803 C1804 1.400 . S
C1803 C1808 1.490 . S
C1804 H1794 0.930 . S
C1804 C1803 1.400 . S
C1804 C1807 1.386 . S
H1805 C1821 0.930 . S
H1806 C1822 0.931 . S
C1807 H1795 0.929 . S
C1807 C1801 1.390 . S
C1807 C1804 1.386 . S
C1808 C1803 1.490 . S
C1808 C1810 1.395 . S
C1808 C1811 1.403 . S
H1809 C1815 0.930 . S
C1810 H1796 0.930 . S
C1810 C1808 1.395 . S
C1810 C1813 1.403 . S
C1811 C1808 1.403 . S
C1811 C1812 1.524 . S
C1811 C1815 1.400 . S
C1812 H1797 0.960 . S
C1812 H1798 0.960 . S
C1812 H1799 0.960 . S
C1812 C1811 1.524 . S
C1813 C1810 1.403 . S
C1813 C1814 1.392 . S
C1813 C1817 1.495 . S
C1814 C1813 1.392 . S
C1814 C1815 1.385 . S
C1814 C1816 1.478 . S
C1815 H1809 0.930 . S
C1815 C1811 1.400 . S
C1815 C1814 1.385 . S
C1816 C1814 1.478 . S
C1816 C1818 1.381 . S
C1816 C1822 1.383 . S
C1817 C1813 1.495 . S
C1817 H1823 0.959 . S
C1817 H1824 0.961 . S
C1817 H1825 0.960 . S
C1818 C1816 1.381 . S
C1818 C1819 1.394 . S
C1818 H1826 0.930 . S
C1819 C1818 1.394 . S
C1819 C1820 1.383 . S
C1819 H1827 0.929 . S
C1820 C1819 1.383 . S
C1820 C1821 1.377 . S
C1821 H1805 0.930 . S
C1821 C1820 1.377 . S
C1821 C1822 1.379 . S
C1822 H1806 0.931 . S
C1822 C1816 1.383 . S
C1822 C1821 1.379 . S
H1823 C1817 0.959 . S
H1824 C1817 0.961 . S
H1825 C1817 0.960 . S
H1826 C1818 0.930 . S
H1827 C1819 0.929 . S
H1828 C1836 0.929 . S
H1829 C1838 0.930 . S
H1830 C1840 0.930 . S
H1831 C1843 0.929 . S
H1832 C1846 0.930 . S
H1833 C1848 0.960 . S
H1834 C1848 0.960 . S
H1835 C1848 0.960 . S
C1836 H1828 0.929 . S
C1836 C1837 1.377 . S
C1836 C1838 1.384 . S
C1837 C1836 1.377 . S
C1837 C1843 1.390 . S
C1838 H1829 0.930 . S
C1838 C1836 1.384 . S
C1838 C1839 1.372 . S
C1839 C1838 1.372 . S
C1839 C1840 1.400 . S
C1839 C1844 1.490 . S
C1840 H1830 0.930 . S
C1840 C1839 1.400 . S
C1840 C1843 1.386 . S
H1841 C1857 0.930 . S
H1842 C1858 0.931 . S
C1843 H1831 0.929 . S
C1843 C1837 1.390 . S
C1843 C1840 1.386 . S
C1844 C1839 1.490 . S
C1844 C1846 1.395 . S
C1844 C1847 1.403 . S
H1845 C1851 0.930 . S
C1846 H1832 0.930 . S
C1846 C1844 1.395 . S
C1846 C1849 1.403 . S
C1847 C1844 1.403 . S
C1847 C1848 1.524 . S
C1847 C1851 1.400 . S
C1848 H1833 0.960 . S
C1848 H1834 0.960 . S
C1848 H1835 0.960 . S
C1848 C1847 1.524 . S
C1849 C1846 1.403 . S
C1849 C1850 1.392 . S
C1849 C1853 1.495 . S
C1850 C1849 1.392 . S
C1850 C1851 1.385 . S
C1850 C1852 1.478 . S
C1851 H1845 0.930 . S
C1851 C1847 1.400 . S
C1851 C1850 1.385 . S
C1852 C1850 1.478 . S
C1852 C1854 1.381 . S
C1852 C1858 1.383 . S
C1853 C1849 1.495 . S
C1853 H1859 0.959 . S
C1853 H1860 0.961 . S
C1853 H1861 0.960 . S
C1854 C1852 1.381 . S
C1854 C1855 1.394 . S
C1854 H1862 0.930 . S
C1855 C1854 1.394 . S
C1855 C1856 1.383 . S
C1855 H1863 0.929 . S
C1856 C1855 1.383 . S
C1856 C1857 1.377 . S
C1857 H1841 0.930 . S
C1857 C1856 1.377 . S
C1857 C1858 1.379 . S
C1858 H1842 0.931 . S
C1858 C1852 1.383 . S
C1858 C1857 1.379 . S
H1859 C1853 0.959 . S
H1860 C1853 0.961 . S
H1861 C1853 0.960 . S
H1862 C1854 0.930 . S
H1863 C1855 0.929 . S
H1864 C1872 0.929 . S
H1865 C1874 0.930 . S
H1866 C1876 0.930 . S
H1867 C1879 0.929 . S
H1868 C1882 0.930 . S
H1869 C1884 0.960 . S
H1870 C1884 0.960 . S
H1871 C1884 0.960 . S
C1872 H1864 0.929 . S
C1872 C1873 1.377 . S
C1872 C1874 1.384 . S
C1873 C1872 1.377 . S
C1873 C1879 1.390 . S
C1874 H1865 0.930 . S
C1874 C1872 1.384 . S
C1874 C1875 1.372 . S
C1875 C1874 1.372 . S
C1875 C1876 1.400 . S
C1875 C1880 1.490 . S
C1876 H1866 0.930 . S
C1876 C1875 1.400 . S
C1876 C1879 1.386 . S
H1877 C1893 0.930 . S
H1878 C1894 0.931 . S
C1879 H1867 0.929 . S
C1879 C1873 1.390 . S
C1879 C1876 1.386 . S
C1880 C1875 1.490 . S
C1880 C1882 1.395 . S
C1880 C1883 1.403 . S
H1881 C1887 0.930 . S
C1882 H1868 0.930 . S
C1882 C1880 1.395 . S
C1882 C1885 1.403 . S
C1883 C1880 1.403 . S
C1883 C1884 1.524 . S
C1883 C1887 1.400 . S
C1884 H1869 0.960 . S
C1884 H1870 0.960 . S
C1884 H1871 0.960 . S
C1884 C1883 1.524 . S
C1885 C1882 1.403 . S
C1885 C1886 1.392 . S
C1885 C1889 1.495 . S
C1886 C1885 1.392 . S
C1886 C1887 1.385 . S
C1886 C1888 1.478 . S
C1887 H1881 0.930 . S
C1887 C1883 1.400 . S
C1887 C1886 1.385 . S
C1888 C1886 1.478 . S
C1888 C1890 1.381 . S
C1888 C1894 1.383 . S
C1889 C1885 1.495 . S
C1889 H1895 0.959 . S
C1889 H1896 0.961 . S
C1889 H1897 0.960 . S
C1890 C1888 1.381 . S
C1890 C1891 1.394 . S
C1890 H1898 0.930 . S
C1891 C1890 1.394 . S
C1891 C1892 1.383 . S
C1891 H1899 0.929 . S
C1892 C1891 1.383 . S
C1892 C1893 1.377 . S
C1893 H1877 0.930 . S
C1893 C1892 1.377 . S
C1893 C1894 1.379 . S
C1894 H1878 0.931 . S
C1894 C1888 1.383 . S
C1894 C1893 1.379 . S
H1895 C1889 0.959 . S
H1896 C1889 0.961 . S
H1897 C1889 0.960 . S
H1898 C1890 0.930 . S
H1899 C1891 0.929 . S
H1900 C1908 0.929 . S
H1901 C1910 0.930 . S
H1902 C1912 0.930 . S
H1903 C1915 0.929 . S
H1904 C1918 0.930 . S
H1905 C1920 0.960 . S
H1906 C1920 0.960 . S
H1907 C1920 0.960 . S
C1908 H1900 0.929 . S
C1908 C1909 1.377 . S
C1908 C1910 1.384 . S
C1909 C1908 1.377 . S
C1909 C1915 1.390 . S
C1910 H1901 0.930 . S
C1910 C1908 1.384 . S
C1910 C1911 1.372 . S
C1911 C1910 1.372 . S
C1911 C1912 1.400 . S
C1911 C1916 1.490 . S
C1912 H1902 0.930 . S
C1912 C1911 1.400 . S
C1912 C1915 1.386 . S
H1913 C1929 0.930 . S
H1914 C1930 0.931 . S
C1915 H1903 0.929 . S
C1915 C1909 1.390 . S
C1915 C1912 1.386 . S
C1916 C1911 1.490 . S
C1916 C1918 1.395 . S
C1916 C1919 1.403 . S
H1917 C1923 0.930 . S
C1918 H1904 0.930 . S
C1918 C1916 1.395 . S
C1918 C1921 1.403 . S
C1919 C1916 1.403 . S
C1919 C1920 1.524 . S
C1919 C1923 1.400 . S
C1920 H1905 0.960 . S
C1920 H1906 0.960 . S
C1920 H1907 0.960 . S
C1920 C1919 1.524 . S
C1921 C1918 1.403 . S
C1921 C1922 1.392 . S
C1921 C1925 1.495 . S
C1922 C1921 1.392 . S
C1922 C1923 1.385 . S
C1922 C1924 1.478 . S
C1923 H1917 0.930 . S
C1923 C1919 1.400 . S
C1923 C1922 1.385 . S
C1924 C1922 1.478 . S
C1924 C1926 1.381 . S
C1924 C1930 1.383 . S
C1925 C1921 1.495 . S
C1925 H1931 0.959 . S
C1925 H1932 0.961 . S
C1925 H1933 0.960 . S
C1926 C1924 1.381 . S
C1926 C1927 1.394 . S
C1926 H1934 0.930 . S
C1927 C1926 1.394 . S
C1927 C1928 1.383 . S
C1927 H1935 0.929 . S
C1928 C1927 1.383 . S
C1928 C1929 1.377 . S
C1929 H1913 0.930 . S
C1929 C1928 1.377 . S
C1929 C1930 1.379 . S
C1930 H1914 0.931 . S
C1930 C1924 1.383 . S
C1930 C1929 1.379 . S
H1931 C1925 0.959 . S
H1932 C1925 0.961 . S
H1933 C1925 0.960 . S
H1934 C1926 0.930 . S
H1935 C1927 0.929 . S
H1936 C1944 0.929 1_554 S
H1937 C1946 0.930 . S
H1938 C1948 0.930 . S
H1939 C1951 0.929 . S
H1940 C1954 0.930 . S
H1941 C1956 0.960 . S
H1942 C1956 0.960 . S
H1943 C1956 0.960 . S
C1944 H1936 0.929 1_556 S
C1944 C1945 1.377 . S
C1944 C1946 1.384 1_556 S
C1945 C1944 1.377 . S
C1945 C1951 1.390 . S
C1946 H1937 0.930 . S
C1946 C1944 1.384 1_554 S
C1946 C1947 1.372 1_554 S
C1947 C1946 1.372 1_556 S
C1947 C1948 1.400 . S
C1947 C1952 1.490 1_556 S
C1948 H1938 0.930 . S
C1948 C1947 1.400 . S
C1948 C1951 1.386 . S
H1949 C1965 0.930 . S
H1950 C1966 0.931 . S
C1951 H1939 0.929 . S
C1951 C1945 1.390 . S
C1951 C1948 1.386 . S
C1952 C1947 1.490 1_554 S
C1952 C1954 1.395 . S
C1952 C1955 1.403 1_554 S
H1953 C1959 0.935 . S
C1954 H1940 0.930 . S
C1954 C1952 1.395 . S
C1954 C1957 1.403 . S
C1955 C1952 1.403 1_556 S
C1955 C1956 1.524 . S
C1955 C1959 1.400 1_556 S
C1956 H1941 0.960 . S
C1956 H1942 0.960 . S
C1956 H1943 0.960 . S
C1956 C1955 1.524 . S
C1957 C1954 1.403 . S
C1957 C1958 1.392 . S
C1957 C1961 1.495 . S
C1958 C1957 1.392 . S
C1958 C1959 1.385 . S
C1958 C1960 1.478 . S
C1959 H1953 0.935 . S
C1959 C1955 1.400 1_554 S
C1959 C1958 1.385 . S
C1960 C1958 1.478 . S
C1960 C1962 1.381 . S
C1960 C1966 1.383 . S
C1961 C1957 1.495 . S
C1961 H1967 0.959 . S
C1961 H1968 0.961 . S
C1961 H1969 0.960 . S
C1962 C1960 1.381 . S
C1962 C1963 1.394 . S
C1962 H1970 0.930 . S
C1963 C1962 1.394 . S
C1963 C1964 1.383 . S
C1963 H1971 0.929 . S
C1964 C1963 1.383 . S
C1964 C1965 1.377 . S
C1965 H1949 0.930 . S
C1965 C1964 1.377 . S
C1965 C1966 1.379 . S
C1966 H1950 0.931 . S
C1966 C1960 1.383 . S
C1966 C1965 1.379 . S
H1967 C1961 0.959 . S
H1968 C1961 0.961 . S
H1969 C1961 0.960 . S
H1970 C1962 0.930 . S
H1971 C1963 0.929 . S
H1972 C1980 0.929 . S
H1973 C1982 0.930 . S
H1974 C1984 0.930 . S
H1975 C1987 0.929 . S
H1976 C1990 0.930 . S
H1977 C1992 0.960 . S
H1978 C1992 0.960 . S
H1979 C1992 0.960 . S
C1980 H1972 0.929 . S
C1980 C1981 1.377 . S
C1980 C1982 1.384 . S
C1981 C1980 1.377 . S
C1981 C1987 1.390 . S
C1982 H1973 0.930 . S
C1982 C1980 1.384 . S
C1982 C1983 1.372 . S
C1983 C1982 1.372 . S
C1983 C1984 1.400 . S
C1983 C1988 1.490 . S
C1984 H1974 0.930 . S
C1984 C1983 1.400 . S
C1984 C1987 1.386 . S
H1985 C2001 0.930 . S
H1986 C2002 0.931 . S
C1987 H1975 0.929 . S
C1987 C1981 1.390 . S
C1987 C1984 1.386 . S
C1988 C1983 1.490 . S
C1988 C1990 1.395 1_554 S
C1988 C1991 1.403 . S
H1989 C1995 0.930 . S
C1990 H1976 0.930 . S
C1990 C1988 1.395 1_556 S
C1990 C1993 1.403 . S
C1991 C1988 1.403 . S
C1991 C1992 1.524 . S
C1991 C1995 1.400 . S
C1992 H1977 0.960 . S
C1992 H1978 0.960 . S
C1992 H1979 0.960 . S
C1992 C1991 1.524 . S
C1993 C1990 1.403 . S
C1993 C1994 1.392 . S
C1993 C1997 1.495 . S
C1994 C1993 1.392 . S
C1994 C1995 1.385 1_556 S
C1994 C1996 1.478 . S
C1995 H1989 0.930 . S
C1995 C1991 1.400 . S
C1995 C1994 1.385 1_554 S
C1996 C1994 1.478 . S
C1996 C1998 1.381 . S
C1996 C2002 1.383 . S
C1997 C1993 1.495 . S
C1997 H2003 0.959 . S
C1997 H2004 0.961 . S
C1997 H2005 0.960 . S
C1998 C1996 1.381 . S
C1998 C1999 1.394 . S
C1998 H2006 0.930 . S
C1999 C1998 1.394 . S
C1999 C2000 1.383 . S
C1999 H2007 0.929 . S
C2000 C1999 1.383 . S
C2000 C2001 1.377 . S
C2001 H1985 0.930 . S
C2001 C2000 1.377 . S
C2001 C2002 1.379 . S
C2002 H1986 0.931 . S
C2002 C1996 1.383 . S
C2002 C2001 1.379 . S
H2003 C1997 0.959 . S
H2004 C1997 0.961 . S
H2005 C1997 0.960 . S
H2006 C1998 0.930 . S
H2007 C1999 0.929 . S
H2008 C2016 0.929 . S
H2009 C2018 0.930 1_554 S
H2010 C2020 0.930 . S
H2011 C2023 0.929 . S
H2012 C2026 0.930 . S
H2013 C2028 0.960 . S
H2014 C2028 0.960 . S
H2015 C2028 0.960 . S
C2016 H2008 0.929 . S
C2016 C2017 1.377 . S
C2016 C2018 1.384 . S
C2017 C2016 1.377 . S
C2017 C2023 1.390 . S
C2018 H2009 0.930 1_556 S
C2018 C2016 1.384 . S
C2018 C2019 1.372 . S
C2019 C2018 1.372 . S
C2019 C2020 1.400 . S
C2019 C2024 1.490 1_556 S
C2020 H2010 0.930 . S
C2020 C2019 1.400 . S
C2020 C2023 1.386 . S
H2021 C2037 0.930 . S
H2022 C2038 0.931 . S
C2023 H2011 0.929 . S
C2023 C2017 1.390 . S
C2023 C2020 1.386 . S
C2024 C2019 1.490 1_554 S
C2024 C2026 1.395 . S
C2024 C2027 1.403 1_554 S
H2025 C2031 0.930 1_556 S
C2026 H2012 0.930 . S
C2026 C2024 1.395 . S
C2026 C2029 1.403 . S
C2027 C2024 1.403 1_556 S
C2027 C2028 1.524 . S
C2027 C2031 1.400 1_556 S
C2028 H2013 0.960 . S
C2028 H2014 0.960 . S
C2028 H2015 0.960 . S
C2028 C2027 1.524 . S
C2029 C2026 1.403 . S
C2029 C2030 1.392 . S
C2029 C2033 1.495 . S
C2030 C2029 1.392 . S
C2030 C2031 1.385 . S
C2030 C2032 1.478 . S
C2031 H2025 0.930 1_554 S
C2031 C2027 1.400 1_554 S
C2031 C2030 1.385 . S
C2032 C2030 1.478 . S
C2032 C2034 1.381 . S
C2032 C2038 1.383 . S
C2033 C2029 1.495 . S
C2033 H2039 0.959 . S
C2033 H2040 0.961 . S
C2033 H2041 0.960 . S
C2034 C2032 1.381 . S
C2034 C2035 1.394 . S
C2034 H2042 0.930 . S
C2035 C2034 1.394 . S
C2035 C2036 1.383 . S
C2035 H2043 0.929 . S
C2036 C2035 1.383 . S
C2036 C2037 1.377 . S
C2037 H2021 0.930 . S
C2037 C2036 1.377 . S
C2037 C2038 1.379 . S
C2038 H2022 0.931 . S
C2038 C2032 1.383 . S
C2038 C2037 1.379 . S
H2039 C2033 0.959 . S
H2040 C2033 0.961 . S
H2041 C2033 0.960 . S
H2042 C2034 0.930 . S
H2043 C2035 0.929 . S
H2044 C2052 0.929 . S
H2045 C2054 0.930 . S
H2046 C2056 0.923 1_556 S
H2047 C2059 0.929 . S
H2048 C2062 0.930 . S
H2049 C2064 0.958 . S
H2050 C2064 0.963 1_554 S
H2051 C2064 0.958 . S
C2052 H2044 0.929 . S
C2052 C2053 1.377 . S
C2052 C2054 1.384 . S
C2053 C2052 1.377 . S
C2053 C2059 1.390 . S
C2054 H2045 0.930 . S
C2054 C2052 1.384 . S
C2054 C2055 1.372 . S
C2055 C2054 1.372 . S
C2055 C2056 1.400 . S
C2055 C2060 1.490 . S
C2056 H2046 0.923 1_554 S
C2056 C2055 1.400 . S
C2056 C2059 1.386 . S
H2057 C2073 0.930 . S
H2058 C2074 0.931 . S
C2059 H2047 0.929 . S
C2059 C2053 1.390 . S
C2059 C2056 1.386 . S
C2060 C2055 1.490 . S
C2060 C2062 1.395 . S
C2060 C2063 1.403 . S
H2061 C2067 0.930 . S
C2062 H2048 0.930 . S
C2062 C2060 1.395 . S
C2062 C2065 1.403 . S
C2063 C2060 1.403 . S
C2063 C2064 1.525 1_554 S
C2063 C2067 1.400 1_554 S
C2064 H2049 0.958 . S
C2064 H2050 0.963 1_556 S
C2064 H2051 0.958 . S
C2064 C2063 1.525 1_556 S
C2065 C2062 1.403 . S
C2065 C2066 1.392 . S
C2065 C2069 1.495 . S
C2066 C2065 1.392 . S
C2066 C2067 1.385 1_554 S
C2066 C2068 1.478 1_554 S
C2067 H2061 0.930 . S
C2067 C2063 1.400 1_556 S
C2067 C2066 1.385 1_556 S
C2068 C2066 1.478 1_556 S
C2068 C2070 1.381 1_556 S
C2068 C2074 1.383 . S
C2069 C2065 1.495 . S
C2069 H2075 0.959 . S
C2069 H2076 0.961 . S
C2069 H2077 0.960 . S
C2070 C2068 1.381 1_554 S
C2070 C2071 1.392 1_554 S
C2070 H2078 0.930 . S
C2071 C2070 1.392 1_556 S
C2071 C2072 1.388 . S
C2071 H2079 0.926 1_556 S
C2072 C2071 1.388 . S
C2072 C2073 1.377 . S
C2073 H2057 0.930 . S
C2073 C2072 1.377 . S
C2073 C2074 1.379 . S
C2074 H2058 0.931 . S
C2074 C2068 1.383 . S
C2074 C2073 1.379 . S
H2075 C2069 0.959 . S
H2076 C2069 0.961 . S
H2077 C2069 0.960 . S
H2078 C2070 0.930 . S
H2079 C2071 0.926 1_554 S
H2080 C2088 0.929 . S
H2081 C2090 0.930 . S
H2082 C2092 0.930 . S
H2083 C2095 0.929 . S
H2084 C2098 0.930 . S
H2085 C2100 0.960 . S
H2086 C2100 0.960 . S
H2087 C2100 0.960 . S
C2088 H2080 0.929 . S
C2088 C2089 1.377 . S
C2088 C2090 1.384 . S
C2089 C2088 1.377 . S
C2089 C2095 1.390 . S
C2090 H2081 0.930 . S
C2090 C2088 1.384 . S
C2090 C2091 1.372 . S
C2091 C2090 1.372 . S
C2091 C2092 1.400 . S
C2091 C2096 1.490 . S
C2092 H2082 0.930 . S
C2092 C2091 1.400 . S
C2092 C2095 1.386 . S
H2093 C2109 0.930 . S
H2094 C2110 0.931 . S
C2095 H2083 0.929 . S
C2095 C2089 1.390 . S
C2095 C2092 1.386 . S
C2096 C2091 1.490 . S
C2096 C2098 1.395 . S
C2096 C2099 1.403 . S
H2097 C2103 0.930 . S
C2098 H2084 0.930 . S
C2098 C2096 1.395 . S
C2098 C2101 1.403 . S
C2099 C2096 1.403 . S
C2099 C2100 1.524 . S
C2099 C2103 1.400 . S
C2100 H2085 0.960 . S
C2100 H2086 0.960 . S
C2100 H2087 0.960 . S
C2100 C2099 1.524 . S
C2101 C2098 1.403 . S
C2101 C2102 1.392 . S
C2101 C2105 1.495 . S
C2102 C2101 1.392 . S
C2102 C2103 1.385 . S
C2102 C2104 1.478 . S
C2103 H2097 0.930 . S
C2103 C2099 1.400 . S
C2103 C2102 1.385 . S
C2104 C2102 1.478 . S
C2104 C2106 1.381 . S
C2104 C2110 1.383 . S
C2105 C2101 1.495 . S
C2105 H2111 0.959 . S
C2105 H2112 0.961 . S
C2105 H2113 0.960 . S
C2106 C2104 1.381 . S
C2106 C2107 1.394 . S
C2106 H2114 0.930 . S
C2107 C2106 1.394 . S
C2107 C2108 1.383 . S
C2107 H2115 0.929 . S
C2108 C2107 1.383 . S
C2108 C2109 1.377 . S
C2109 H2093 0.930 . S
C2109 C2108 1.377 . S
C2109 C2110 1.379 . S
C2110 H2094 0.931 . S
C2110 C2104 1.383 . S
C2110 C2109 1.379 . S
H2111 C2105 0.959 . S
H2112 C2105 0.961 . S
H2113 C2105 0.960 . S
H2114 C2106 0.930 . S
H2115 C2107 0.929 . S
H2116 C2124 0.929 . S
H2117 C2126 0.930 . S
H2118 C2128 0.930 . S
H2119 C2131 0.929 . S
H2120 C2134 0.930 . S
H2121 C2136 0.960 . S
H2122 C2136 0.960 . S
H2123 C2136 0.960 . S
C2124 H2116 0.929 . S
C2124 C2125 1.377 . S
C2124 C2126 1.384 . S
C2125 C2124 1.377 . S
C2125 C2131 1.390 . S
C2126 H2117 0.930 . S
C2126 C2124 1.384 . S
C2126 C2127 1.372 . S
C2127 C2126 1.372 . S
C2127 C2128 1.400 . S
C2127 C2132 1.490 . S
C2128 H2118 0.930 . S
C2128 C2127 1.400 . S
C2128 C2131 1.386 . S
H2129 C2145 0.930 . S
H2130 C2146 0.931 . S
C2131 H2119 0.929 . S
C2131 C2125 1.390 . S
C2131 C2128 1.386 . S
C2132 C2127 1.490 . S
C2132 C2134 1.395 . S
C2132 C2135 1.403 . S
H2133 C2139 0.930 . S
C2134 H2120 0.930 . S
C2134 C2132 1.395 . S
C2134 C2137 1.403 . S
C2135 C2132 1.403 . S
C2135 C2136 1.524 . S
C2135 C2139 1.400 . S
C2136 H2121 0.960 . S
C2136 H2122 0.960 . S
C2136 H2123 0.960 . S
C2136 C2135 1.524 . S
C2137 C2134 1.403 . S
C2137 C2138 1.392 . S
C2137 C2141 1.495 . S
C2138 C2137 1.392 . S
C2138 C2139 1.385 . S
C2138 C2140 1.478 . S
C2139 H2133 0.930 . S
C2139 C2135 1.400 . S
C2139 C2138 1.385 . S
C2140 C2138 1.478 . S
C2140 C2142 1.381 . S
C2140 C2146 1.383 . S
C2141 C2137 1.495 . S
C2141 H2147 0.959 . S
C2141 H2148 0.961 . S
C2141 H2149 0.960 . S
C2142 C2140 1.381 . S
C2142 C2143 1.394 . S
C2142 H2150 0.930 . S
C2143 C2142 1.394 . S
C2143 C2144 1.383 . S
C2143 H2151 0.929 . S
C2144 C2143 1.383 . S
C2144 C2145 1.377 . S
C2145 H2129 0.930 . S
C2145 C2144 1.377 . S
C2145 C2146 1.379 . S
C2146 H2130 0.931 . S
C2146 C2140 1.383 . S
C2146 C2145 1.379 . S
H2147 C2141 0.959 . S
H2148 C2141 0.961 . S
H2149 C2141 0.960 . S
H2150 C2142 0.930 . S
H2151 C2143 0.929 . S
H2152 C2160 0.929 . S
H2153 C2162 0.930 . S
H2154 C2164 0.930 . S
H2155 C2167 0.929 . S
H2156 C2170 0.930 . S
H2157 C2172 0.960 . S
H2158 C2172 0.960 . S
H2159 C2172 0.960 . S
C2160 H2152 0.929 . S
C2160 C2161 1.377 . S
C2160 C2162 1.384 . S
C2161 C2160 1.377 . S
C2161 C2167 1.390 . S
C2162 H2153 0.930 . S
C2162 C2160 1.384 . S
C2162 C2163 1.372 . S
C2163 C2162 1.372 . S
C2163 C2164 1.400 . S
C2163 C2168 1.490 . S
C2164 H2154 0.930 . S
C2164 C2163 1.400 . S
C2164 C2167 1.386 . S
H2165 C2181 0.930 . S
H2166 C2182 0.931 . S
C2167 H2155 0.929 . S
C2167 C2161 1.390 . S
C2167 C2164 1.386 . S
C2168 C2163 1.490 . S
C2168 C2170 1.395 . S
C2168 C2171 1.403 . S
H2169 C2175 0.930 . S
C2170 H2156 0.930 . S
C2170 C2168 1.395 . S
C2170 C2173 1.403 . S
C2171 C2168 1.403 . S
C2171 C2172 1.524 . S
C2171 C2175 1.400 . S
C2172 H2157 0.960 . S
C2172 H2158 0.960 . S
C2172 H2159 0.960 . S
C2172 C2171 1.524 . S
C2173 C2170 1.403 . S
C2173 C2174 1.392 . S
C2173 C2177 1.495 . S
C2174 C2173 1.392 . S
C2174 C2175 1.385 . S
C2174 C2176 1.478 . S
C2175 H2169 0.930 . S
C2175 C2171 1.400 . S
C2175 C2174 1.385 . S
C2176 C2174 1.478 . S
C2176 C2178 1.381 . S
C2176 C2182 1.383 . S
C2177 C2173 1.495 . S
C2177 H2183 0.959 . S
C2177 H2184 0.961 . S
C2177 H2185 0.960 . S
C2178 C2176 1.381 . S
C2178 C2179 1.394 . S
C2178 H2186 0.930 . S
C2179 C2178 1.394 . S
C2179 C2180 1.383 . S
C2179 H2187 0.929 . S
C2180 C2179 1.383 . S
C2180 C2181 1.377 . S
C2181 H2165 0.930 . S
C2181 C2180 1.377 . S
C2181 C2182 1.379 . S
C2182 H2166 0.931 . S
C2182 C2176 1.383 . S
C2182 C2181 1.379 . S
H2183 C2177 0.959 . S
H2184 C2177 0.961 . S
H2185 C2177 0.960 . S
H2186 C2178 0.930 . S
H2187 C2179 0.929 . S
H2188 C2196 0.929 . S
H2189 C2198 0.930 . S
H2190 C2200 0.930 . S
H2191 C2203 0.929 . S
H2192 C2206 0.930 . S
H2193 C2208 0.960 . S
H2194 C2208 0.960 . S
H2195 C2208 0.960 . S
C2196 H2188 0.929 . S
C2196 C2197 1.377 . S
C2196 C2198 1.384 . S
C2197 C2196 1.377 . S
C2197 C2203 1.390 . S
C2198 H2189 0.930 . S
C2198 C2196 1.384 . S
C2198 C2199 1.372 . S
C2199 C2198 1.372 . S
C2199 C2200 1.400 . S
C2199 C2204 1.490 . S
C2200 H2190 0.930 . S
C2200 C2199 1.400 . S
C2200 C2203 1.386 . S
H2201 C2217 0.930 . S
H2202 C2218 0.931 . S
C2203 H2191 0.929 . S
C2203 C2197 1.390 . S
C2203 C2200 1.386 . S
C2204 C2199 1.490 . S
C2204 C2206 1.395 . S
C2204 C2207 1.403 . S
H2205 C2211 0.930 . S
C2206 H2192 0.930 . S
C2206 C2204 1.395 . S
C2206 C2209 1.403 . S
C2207 C2204 1.403 . S
C2207 C2208 1.524 . S
C2207 C2211 1.400 . S
C2208 H2193 0.960 . S
C2208 H2194 0.960 . S
C2208 H2195 0.960 . S
C2208 C2207 1.524 . S
C2209 C2206 1.403 . S
C2209 C2210 1.392 . S
C2209 C2213 1.495 . S
C2210 C2209 1.392 . S
C2210 C2211 1.385 . S
C2210 C2212 1.478 . S
C2211 H2205 0.930 . S
C2211 C2207 1.400 . S
C2211 C2210 1.385 . S
C2212 C2210 1.478 . S
C2212 C2214 1.381 . S
C2212 C2218 1.383 . S
C2213 C2209 1.495 . S
C2213 H2219 0.959 . S
C2213 H2220 0.961 . S
C2213 H2221 0.960 . S
C2214 C2212 1.381 . S
C2214 C2215 1.394 . S
C2214 H2222 0.930 . S
C2215 C2214 1.394 . S
C2215 C2216 1.383 . S
C2215 H2223 0.929 . S
C2216 C2215 1.383 . S
C2216 C2217 1.377 . S
C2217 H2201 0.930 . S
C2217 C2216 1.377 . S
C2217 C2218 1.379 . S
C2218 H2202 0.931 . S
C2218 C2212 1.383 . S
C2218 C2217 1.379 . S
H2219 C2213 0.959 . S
H2220 C2213 0.961 . S
H2221 C2213 0.960 . S
H2222 C2214 0.930 . S
H2223 C2215 0.929 . S
H2224 C2232 0.929 . S
H2225 C2234 0.964 . S
H2226 C2236 0.930 . S
H2227 C2239 0.929 . S
H2228 C2242 0.930 . S
H2229 C2244 0.960 . S
H2230 C2244 0.960 . S
H2231 C2244 0.960 . S
C2232 H2224 0.929 . S
C2232 C2233 1.377 . S
C2232 C2234 1.384 . S
C2233 C2232 1.377 . S
C2233 C2239 1.390 . S
C2234 H2225 0.964 . S
C2234 C2232 1.384 . S
C2234 C2235 1.372 . S
C2235 C2234 1.372 . S
C2235 C2236 1.400 . S
C2235 C2240 1.490 . S
C2236 H2226 0.930 . S
C2236 C2235 1.400 . S
C2236 C2239 1.386 . S
H2237 C2253 0.930 1_556 S
H2238 C2254 0.931 . S
C2239 H2227 0.929 . S
C2239 C2233 1.390 . S
C2239 C2236 1.386 . S
C2240 C2235 1.490 . S
C2240 C2242 1.395 1_556 S
C2240 C2243 1.403 . S
H2241 C2247 0.930 . S
C2242 H2228 0.930 . S
C2242 C2240 1.395 1_554 S
C2242 C2245 1.403 . S
C2243 C2240 1.403 . S
C2243 C2244 1.524 . S
C2243 C2247 1.400 . S
C2244 H2229 0.960 . S
C2244 H2230 0.960 . S
C2244 H2231 0.960 . S
C2244 C2243 1.524 . S
C2245 C2242 1.403 . S
C2245 C2246 1.392 . S
C2245 C2249 1.495 . S
C2246 C2245 1.392 . S
C2246 C2247 1.385 1_554 S
C2246 C2248 1.478 . S
C2247 H2241 0.930 . S
C2247 C2243 1.400 . S
C2247 C2246 1.385 1_556 S
C2248 C2246 1.478 . S
C2248 C2250 1.381 . S
C2248 C2254 1.383 1_554 S
C2249 C2245 1.495 . S
C2249 H2255 0.959 . S
C2249 H2256 0.961 . S
C2249 H2257 0.960 . S
C2250 C2248 1.381 . S
C2250 C2251 1.394 . S
C2250 H2258 0.930 . S
C2251 C2250 1.394 . S
C2251 C2252 1.383 . S
C2251 H2259 0.929 . S
C2252 C2251 1.383 . S
C2252 C2253 1.377 . S
C2253 H2237 0.930 1_554 S
C2253 C2252 1.377 . S
C2253 C2254 1.379 1_554 S
C2254 H2238 0.931 . S
C2254 C2248 1.383 1_556 S
C2254 C2253 1.379 1_556 S
H2255 C2249 0.959 . S
H2256 C2249 0.961 . S
H2257 C2249 0.960 . S
H2258 C2250 0.930 . S
H2259 C2251 0.929 . S
H2260 C2268 0.929 . S
H2261 C2270 0.930 . S
H2262 C2272 0.930 . S
H2263 C2275 0.929 . S
H2264 C2278 0.930 . S
H2265 C2280 0.960 . S
H2266 C2280 0.960 . S
H2267 C2280 0.960 . S
C2268 H2260 0.929 . S
C2268 C2269 1.377 . S
C2268 C2270 1.384 . S
C2269 C2268 1.377 . S
C2269 C2275 1.390 . S
C2270 H2261 0.930 . S
C2270 C2268 1.384 . S
C2270 C2271 1.372 . S
C2271 C2270 1.372 . S
C2271 C2272 1.400 . S
C2271 C2276 1.490 . S
C2272 H2262 0.930 . S
C2272 C2271 1.400 . S
C2272 C2275 1.386 . S
H2273 C2289 0.930 . S
H2274 C2290 0.931 . S
C2275 H2263 0.929 . S
C2275 C2269 1.390 . S
C2275 C2272 1.386 . S
C2276 C2271 1.490 . S
C2276 C2278 1.395 . S
C2276 C2279 1.366 1_556 S
H2277 C2283 0.930 . S
C2278 H2264 0.930 . S
C2278 C2276 1.395 . S
C2278 C2281 1.403 . S
C2279 C2276 1.366 1_554 S
C2279 C2280 1.550 . S
C2279 C2283 1.412 . S
C2280 H2265 0.960 . S
C2280 H2266 0.960 . S
C2280 H2267 0.960 . S
C2280 C2279 1.550 . S
C2281 C2278 1.403 . S
C2281 C2282 1.392 . S
C2281 C2285 1.495 . S
C2282 C2281 1.392 . S
C2282 C2283 1.385 1_556 S
C2282 C2284 1.478 1_556 S
C2283 H2277 0.930 . S
C2283 C2279 1.412 . S
C2283 C2282 1.385 1_554 S
C2284 C2282 1.478 1_554 S
C2284 C2286 1.381 . S
C2284 C2290 1.383 . S
C2285 C2281 1.495 . S
C2285 H2291 0.959 . S
C2285 H2292 0.961 . S
C2285 H2293 0.960 . S
C2286 C2284 1.381 . S
C2286 C2287 1.394 . S
C2286 H2294 0.930 . S
C2287 C2286 1.394 . S
C2287 C2288 1.383 . S
C2287 H2295 0.929 . S
C2288 C2287 1.383 . S
C2288 C2289 1.377 . S
C2289 H2273 0.930 . S
C2289 C2288 1.377 . S
C2289 C2290 1.379 . S
C2290 H2274 0.931 . S
C2290 C2284 1.383 . S
C2290 C2289 1.379 . S
H2291 C2285 0.959 . S
H2292 C2285 0.961 . S
H2293 C2285 0.960 . S
H2294 C2286 0.930 . S
H2295 C2287 0.929 . S
H2296 C2304 0.916 1_556 S
H2297 C2306 0.930 . S
H2298 C2308 0.930 . S
H2299 C2311 0.929 . S
H2300 C2314 0.930 . S
H2301 C2316 0.960 . S
H2302 C2316 0.960 . S
H2303 C2316 0.960 . S
C2304 H2296 0.916 1_554 S
C2304 C2305 1.377 . S
C2304 C2306 1.384 1_554 S
C2305 C2304 1.377 . S
C2305 C2311 1.390 . S
C2306 H2297 0.930 . S
C2306 C2304 1.384 1_556 S
C2306 C2307 1.372 1_556 S
C2307 C2306 1.372 1_554 S
C2307 C2308 1.400 . S
C2307 C2312 1.490 1_554 S
C2308 H2298 0.930 . S
C2308 C2307 1.400 . S
C2308 C2311 1.386 . S
H2309 C2325 0.930 . S
H2310 C2326 0.931 . S
C2311 H2299 0.929 . S
C2311 C2305 1.390 . S
C2311 C2308 1.386 . S
C2312 C2307 1.490 1_556 S
C2312 C2314 1.395 . S
C2312 C2315 1.403 1_556 S
H2313 C2319 0.930 1_554 S
C2314 H2300 0.930 . S
C2314 C2312 1.395 . S
C2314 C2317 1.403 . S
C2315 C2312 1.403 1_554 S
C2315 C2316 1.524 . S
C2315 C2319 1.400 1_554 S
C2316 H2301 0.960 . S
C2316 H2302 0.960 . S
C2316 H2303 0.960 . S
C2316 C2315 1.524 . S
C2317 C2314 1.403 . S
C2317 C2318 1.392 . S
C2317 C2321 1.495 . S
C2318 C2317 1.392 . S
C2318 C2319 1.385 . S
C2318 C2320 1.478 . S
C2319 H2313 0.930 1_556 S
C2319 C2315 1.400 1_556 S
C2319 C2318 1.385 . S
C2320 C2318 1.478 . S
C2320 C2322 1.381 . S
C2320 C2326 1.383 . S
C2321 C2317 1.495 . S
C2321 H2327 0.959 . S
C2321 H2328 0.961 . S
C2321 H2329 0.960 . S
C2322 C2320 1.381 . S
C2322 C2323 1.394 . S
C2322 H2330 0.930 . S
C2323 C2322 1.394 . S
C2323 C2324 1.383 . S
C2323 H2331 0.929 . S
C2324 C2323 1.383 . S
C2324 C2325 1.377 . S
C2325 H2309 0.930 . S
C2325 C2324 1.377 . S
C2325 C2326 1.379 . S
C2326 H2310 0.931 . S
C2326 C2320 1.383 . S
C2326 C2325 1.379 . S
H2327 C2321 0.959 . S
H2328 C2321 0.961 . S
H2329 C2321 0.960 . S
H2330 C2322 0.930 . S
H2331 C2323 0.929 . S
H2332 C2340 0.929 . S
H2333 C2342 0.930 . S
H2334 C2344 0.930 . S
H2335 C2347 0.929 . S
H2336 C2350 0.930 . S
H2337 C2352 0.960 . S
H2338 C2352 0.960 . S
H2339 C2352 0.960 . S
C2340 H2332 0.929 . S
C2340 C2341 1.377 . S
C2340 C2342 1.384 . S
C2341 C2340 1.377 . S
C2341 C2347 1.390 . S
C2342 H2333 0.930 . S
C2342 C2340 1.384 . S
C2342 C2343 1.372 . S
C2343 C2342 1.372 . S
C2343 C2344 1.400 . S
C2343 C2348 1.490 1_554 S
C2344 H2334 0.930 . S
C2344 C2343 1.400 . S
C2344 C2347 1.386 . S
H2345 C2361 0.930 . S
H2346 C2362 0.931 . S
C2347 H2335 0.929 . S
C2347 C2341 1.390 . S
C2347 C2344 1.386 . S
C2348 C2343 1.490 1_556 S
C2348 C2350 1.395 1_556 S
C2348 C2351 1.403 . S
H2349 C2355 0.930 . S
C2350 H2336 0.930 . S
C2350 C2348 1.395 1_554 S
C2350 C2353 1.403 . S
C2351 C2348 1.403 . S
C2351 C2352 1.524 . S
C2351 C2355 1.400 . S
C2352 H2337 0.960 . S
C2352 H2338 0.960 . S
C2352 H2339 0.960 . S
C2352 C2351 1.524 . S
C2353 C2350 1.403 . S
C2353 C2354 1.392 1_554 S
C2353 C2357 1.495 . S
C2354 C2353 1.392 1_556 S
C2354 C2355 1.385 . S
C2354 C2356 1.478 . S
C2355 H2349 0.930 . S
C2355 C2351 1.400 . S
C2355 C2354 1.385 . S
C2356 C2354 1.478 . S
C2356 C2358 1.381 . S
C2356 C2362 1.383 . S
C2357 C2353 1.495 . S
C2357 H2363 0.959 . S
C2357 H2364 0.961 . S
C2357 H2365 0.960 . S
C2358 C2356 1.381 . S
C2358 C2359 1.394 . S
C2358 H2366 0.930 . S
C2359 C2358 1.394 . S
C2359 C2360 1.383 . S
C2359 H2367 0.929 . S
C2360 C2359 1.383 . S
C2360 C2361 1.377 . S
C2361 H2345 0.930 . S
C2361 C2360 1.377 . S
C2361 C2362 1.379 . S
C2362 H2346 0.931 . S
C2362 C2356 1.383 . S
C2362 C2361 1.379 . S
H2363 C2357 0.959 . S
H2364 C2357 0.961 . S
H2365 C2357 0.960 . S
H2366 C2358 0.930 . S
H2367 C2359 0.929 . S
C649 C18 2.292 . S
C668 C218 2.281 . S
C685 C258 2.300 . S
C704 C58 2.300 . S
C721 C98 2.300 . S
C740 C298 2.299 . S
C757 C138 2.300 . S
C776 C178 2.296 . S
C793 C528 2.291 . S
C812 C328 2.315 . S
C829 C568 2.295 . S
C848 C368 2.315 . S
C865 C408 2.301 . S
C884 C608 2.271 . S
C901 C448 2.298 . S
C920 C488 2.266 . S
C937 C5 1.875 . S
C956 C129 1.722 1_545 S
C973 C45 1.877 . S
C992 C9 1.726 . S
C1009 C85 1.877 . S
C1028 C49 1.769 . S
C1045 C125 1.877 . S
C1064 C89 1.772 1_455 S
C1081 C165 1.876 . S
C1100 C209 1.722 1_565 S
C1117 C249 1.764 . S
C1136 C205 1.880 . S
C1153 C245 1.880 . S
C1172 C289 1.785 . S
C1189 C169 1.761 1_655 S
C1208 C285 1.870 . S
C1225 C459 1.752 1_565 S
C1244 C335 1.884 . S
C1261 C375 1.879 . S
C1280 C339 1.749 . S
C1297 C415 1.879 . S
C1316 C379 1.744 . S
C1333 C455 1.875 . S
C1352 C419 1.773 1_655 S
C1369 C495 1.875 . S
C1388 C539 1.774 1_545 S
C1405 C535 1.880 . S
C1424 C579 1.723 . S
C1441 C575 1.880 . S
C1460 C619 1.733 . S
C1477 C615 1.878 . S
C1496 C499 1.761 1_455 S
C1513 C15 1.216 . S
C1532 C95 1.220 . S
C1549 C55 1.215 . S
C1568 C135 1.219 . S
C1585 C255 1.217 . S
C1604 C175 1.235 . S
C1621 C295 1.214 . S
C1640 C215 1.217 . S
C1657 C405 1.215 . S
C1676 C325 1.235 . S
C1693 C445 1.213 . S
C1712 C365 1.221 . S
C1729 C485 1.215 . S
C1748 C565 1.216 . S
C1765 C525 1.215 . S
C1784 C605 1.217 . S
C1801 C19 2.341 . S
C1820 C458 2.339 . S
C1837 C338 2.337 . S
C1856 C59 2.330 . S
C1873 C99 2.339 . S
C1892 C378 2.331 . S
C1909 C418 2.339 . S
C1928 C139 2.340 . S
C1945 C538 2.337 . S
C1964 C179 2.330 . S
C1981 C219 2.339 . S
C2000 C578 2.330 . S
C2017 C618 2.337 . S
C2036 C259 2.330 . S
C2053 C299 2.339 . S
C2072 C498 2.330 . S
C2089 C329 2.339 . S
C2108 C128 2.328 . S
C2125 C369 2.339 . S
C2144 C8 2.337 . S
C2161 C48 2.337 . S
C2180 C409 2.335 . S
C2197 C449 2.340 . S
C2216 C88 2.337 . S
C2233 C489 2.339 . S
C2252 C208 2.328 . S
C2269 C529 2.341 . S
C2288 C248 2.334 . S
C2305 C288 2.339 . S
C2324 C569 2.332 . S
C2341 C168 2.338 . S
C2360 C609 2.340 . S
