# Generated by pormake.
# Topology sxc, (6)-cn, num edge types: 1
# Building blocks:
#     Node 0, Type 0, BuildingBlock: PAMTUU_clean_sbu_0, # of connection points: 6
#     Node 1, Type 0, BuildingBlock: PAMTUU_clean_sbu_0, # of connection points: 6
#     Node 2, Type 0, BuildingBlock: PAMTUU_clean_sbu_0, # of connection points: 6
#     Edge 3, Type (0, 0), BuildingBlock: ZUJKAS_clean_linker_0, # of connection points: 2
#     Edge 4, Type (0, 0), BuildingBlock: ZUJKAS_clean_linker_0, # of connection points: 2
#     Edge 5, Type (0, 0), BuildingBlock: ZUJKAS_clean_linker_0, # of connection points: 2
#     Edge 6, Type (0, 0), BuildingBlock: ZUJKAS_clean_linker_0, # of connection points: 2
#     Edge 7, Type (0, 0), BuildingBlock: ZUJKAS_clean_linker_0, # of connection points: 2
#     Edge 8, Type (0, 0), BuildingBlock: ZUJKAS_clean_linker_0, # of connection points: 2
#     Edge 9, Type (0, 0), BuildingBlock: ZUJKAS_clean_linker_0, # of connection points: 2
#     Edge 10, Type (0, 0), BuildingBlock: ZUJKAS_clean_linker_0, # of connection points: 2
#     Edge 11, Type (0, 0), BuildingBlock: ZUJKAS_clean_linker_0, # of connection points: 2
# Relax obj value: 0.224
# Max RMSD: 0.108
# Mean RMSD: 0.085
data_MOF--net-sxc--node1-PAMTUU_clean_sbu_0--edge1-ZUJKAS_clean_linker_0
_symmetry_space_group_name_H-M    P1
_symmetry_Int_Tables_number       1
_symmetry_cell_setting            triclinic
loop_
_symmetry_equiv_pos_as_xyz
'x, y, z'
_cell_length_a     27.741096
_cell_length_b     20.571431
_cell_length_c     59.748812
_cell_angle_alpha  88.396222
_cell_angle_beta   97.943068
_cell_angle_gamma 125.89341
loop_
_atom_site_label
_atom_site_type_symbol
_atom_site_fract_x
_atom_site_fract_y
_atom_site_fract_z
_atom_type_partial_charge
Tb0 Tb 1.00923 1.06445 0.96582 0.0
Tb1 Tb 0.15425 0.17871 0.97689 0.0
C2 C 0.08789 0.13054 0.92572 0.0
C3 C 0.8602 0.91972 0.97918 0.0
C4 C 0.80378 0.84206 0.01674 0.0
C5 C 0.77549 0.86236 -0.00041 0.0
C6 C 0.80384 0.90165 0.98099 0.0
C7 C 0.88686 0.89529 -0.00436 0.0
C8 C 0.85906 0.85726 0.01439 0.0
C9 C 0.89646 0.97742 0.96314 0.0
O10 O 1.02875 0.97505 0.96384 0.0
O11 O 0.13043 1.05496 0.97627 0.0
O12 O 0.12128 0.17958 0.00783 0.0
O13 O 1.03321 1.05568 0.00152 0.0
O14 O 0.24172 0.282 0.97495 0.0
O15 O 0.22668 0.18677 -0.00384 0.0
O16 O 0.13607 0.26995 0.97287 0.0
O17 O 1.03262 0.18796 0.96779 0.0
O18 O 1.0356 0.09967 0.93244 0.0
O19 O 0.13744 0.15736 0.94008 0.0
C20 C 0.07976 0.98325 0.96987 0.0
O21 O 0.93143 1.05117 0.9718 0.0
O22 O 0.92506 0.95994 0.95195 0.0
C23 C 0.07559 0.11631 0.01553 0.0
C24 C 0.30137 0.31692 0.01119 0.0
C25 C 0.36403 0.41252 0.052 0.0
C26 C 0.37476 0.358 0.04497 0.0
C27 C 0.34383 0.31086 0.02472 0.0
C28 C 0.2895 0.37013 0.01835 0.0
C29 C 0.32115 0.4183 0.0385 0.0
C30 C 0.26521 0.26051 -0.00876 0.0
C31 C 0.08425 0.26074 0.9701 0.0
H32 H 0.73282 0.85131 0.00111 0.0
H33 H 0.78321 0.9214 0.96867 0.0
H34 H 0.93061 0.90919 -0.00542 0.0
H35 H 0.88127 0.84123 0.02728 0.0
H36 H 0.40855 0.35364 0.05477 0.0
H37 H 0.35276 0.2691 0.01969 0.0
H38 H 0.25569 0.37425 0.00844 0.0
H39 H 0.31245 0.46032 0.0435 0.0
Tb40 Tb 0.12712 0.15089 0.30589 0.0
Tb41 Tb 0.9823 1.03583 0.29849 0.0
C42 C 1.05677 0.09205 0.34675 0.0
C43 C 0.28212 0.22015 0.32503 0.0
C44 C 0.36278 0.18597 0.34431 0.0
C45 C 0.38322 0.26587 0.34088 0.0
C46 C 0.34312 0.28274 0.33122 0.0
C47 C 0.26106 0.14092 0.32932 0.0
C48 C 0.30102 0.12386 0.33872 0.0
C49 C 0.2404 0.23675 0.31378 0.0
O50 O 0.10605 1.02997 0.30014 0.0
O51 O 1.00546 0.94924 0.3033 0.0
O52 O 1.00744 1.03414 0.26559 0.0
O53 O 0.0989 0.15647 0.27041 0.0
O54 O 0.90403 0.93935 0.30981 0.0
O55 O 0.89888 0.99953 0.28037 0.0
O56 O 1.00301 0.15744 0.29558 0.0
O57 O 0.10472 0.23757 0.30843 0.0
O58 O 0.09957 0.09764 0.3379 0.0
O59 O 1.0123 0.08576 0.3335 0.0
C60 C 1.05595 0.95773 0.30165 0.0
O61 O 0.2089 0.1947 0.29472 0.0
O62 O 0.20719 0.23877 0.32678 0.0
C63 C 1.05304 0.09576 0.25711 0.0
C64 C 0.82911 0.95973 0.30519 0.0
C65 C 0.75307 0.98219 0.32484 0.0
C66 C 0.72877 0.91361 0.3104 0.0
C67 C 0.76664 0.9025 0.30063 0.0
C68 C 0.85357 1.02777 0.31973 0.0
C69 C 0.81589 1.03887 0.3295 0.0
C70 C 0.86924 0.94852 0.29522 0.0
C71 C 1.05368 0.22936 0.30197 0.0
H72 H 0.43032 0.31523 0.34533 0.0
H73 H 0.35986 0.34437 0.32826 0.0
H74 H 0.21388 0.09194 0.32486 0.0
H75 H 0.28369 1.06158 0.34076 0.0
H76 H 0.68052 0.86944 0.30628 0.0
H77 H 0.74723 0.8496 0.28946 0.0
H78 H 0.90187 0.0723 0.32352 0.0
H79 H 0.83598 0.09174 0.34077 0.0
Tb80 Tb 0.08192 0.2031 0.63526 0.0
Tb81 Tb 0.10251 0.07419 0.63912 0.0
C82 C 0.08918 0.13164 0.59117 0.0
C83 C 1.00646 0.29965 0.63946 0.0
C84 C 0.90194 0.27854 0.64861 0.0
C85 C 0.93647 0.33462 0.63326 0.0
C86 C 0.98847 0.34498 0.62869 0.0
C87 C 0.97393 0.24673 0.65565 0.0
C88 C 0.92214 0.23652 0.66028 0.0
C89 C 1.05492 0.30098 0.63205 0.0
O90 O 0.98186 0.08395 0.6359 0.0
O91 O 0.99795 0.98776 0.63825 0.0
O92 O 0.07859 0.07822 0.67199 0.0
O93 O 0.10615 0.20541 0.67166 0.0
O94 O 0.09427 0.97353 0.62638 0.0
O95 O 0.14494 1.03111 0.65925 0.0
O96 O 0.2027 0.19365 0.63905 0.0
O97 O 0.1861 0.28909 0.63518 0.0
O98 O 0.10058 0.19531 0.60157 0.0
O99 O 0.07965 0.0712 0.60267 0.0
C100 C 0.95677 1.00364 0.63704 0.0
O101 O 0.09416 0.30645 0.64812 0.0
O102 O 1.03726 0.24554 0.61638 0.0
C103 C 0.09269 0.14271 0.68282 0.0
C104 C 0.1834 0.985 0.63744 0.0
C105 C 0.29508 1.01998 0.63235 0.0
C106 C 0.25923 0.9612 0.64691 0.0
C107 C 0.20367 0.94397 0.64947 0.0
C108 C 0.21744 1.04037 0.62196 0.0
C109 C 0.27283 1.0575 0.61936 0.0
C110 C 0.13157 0.97869 0.64333 0.0
C111 C 0.22755 0.27358 0.63714 0.0
H112 H 0.92155 0.36708 0.62384 0.0
H113 H 1.01306 0.3856 0.61603 0.0
H114 H 0.98727 0.21101 0.66404 0.0
H115 H 0.8967 0.19363 0.67237 0.0
H116 H 0.2756 0.93202 0.6573 0.0
H117 H 0.17803 0.90173 0.66166 0.0
H118 H 0.20249 0.07302 0.61265 0.0
H119 H 0.29927 0.10231 0.60783 0.0
H120 H 0.1804 0.42353 0.9774 0.0
H121 H 0.17897 0.54175 0.97757 0.0
H122 H 0.98569 0.38753 0.9616 0.0
H123 H 0.98685 0.26941 0.96201 0.0
H124 H 0.14871 0.61351 0.94831 0.0
H125 H 0.99495 0.51801 0.01134 0.0
H126 H 1.02566 0.46456 0.0057 0.0
H127 H 0.96089 0.44645 -0.01253 0.0
C128 C 0.13733 0.41423 0.97402 0.0
C129 C 0.08371 0.33508 0.96985 0.0
C130 C 0.13653 0.48279 0.97409 0.0
C131 C 0.08212 0.47585 0.97012 0.0
C132 C 1.02863 0.39677 0.96552 0.0
H133 H 0.98425 0.82113 0.95999 0.0
H134 H 0.98578 0.70292 0.95983 0.0
C135 C 1.02937 0.32824 0.96554 0.0
C136 C 0.08158 0.55054 0.97031 0.0
H137 H 1.01561 0.63102 -0.00883 0.0
C138 C 0.1197 0.6169 0.95788 0.0
C139 C 1.04412 0.55768 0.98262 0.0
C140 C 1.00457 0.4933 -0.00228 0.0
C141 C 0.12042 0.68695 0.95698 0.0
C142 C 0.08273 0.69383 0.96919 0.0
C143 C 1.04463 0.62756 0.98162 0.0
C144 C 0.08213 0.76841 0.96932 0.0
C145 C 0.16064 0.75212 0.94221 0.0
C146 C 0.1353 0.84707 0.97502 0.0
C147 C 0.13449 0.91555 0.97515 0.0
C148 C 0.08043 0.90903 0.96966 0.0
C149 C 1.02713 0.83022 0.96421 0.0
C150 C 1.02795 0.76168 0.96417 0.0
H151 H 0.17178 0.72851 0.92885 0.0
H152 H 0.13928 0.78017 0.93393 0.0
H153 H 0.20349 0.79943 0.9528 0.0
H154 H 0.17794 0.85591 0.97975 0.0
H155 H 0.17674 0.97408 0.97966 0.0
H156 H 0.47394 0.25563 0.33222 0.0
H157 H 0.53841 0.21086 0.33979 0.0
H158 H 0.41309 1.02419 0.37948 0.0
H159 H 0.34882 0.07035 0.37274 0.0
H160 H 0.58525 0.17136 0.38608 0.0
H161 H 0.42745 0.92074 0.32015 0.0
H162 H 0.43121 1.01135 0.32051 0.0
H163 H 0.39844 0.94163 0.34192 0.0
C164 C 0.46081 0.20676 0.34319 0.0
C165 C 0.40589 0.16623 0.35173 0.0
C166 C 0.49763 0.18104 0.34739 0.0
C167 C 0.48008 0.11414 0.36004 0.0
C168 C 0.42703 0.07586 0.3696 0.0
H169 H 0.65045 0.87337 0.34293 0.0
H170 H 0.58267 0.89726 0.35692 0.0
C171 C 0.39028 0.10197 0.36557 0.0
C172 C 0.5146 0.08035 0.36102 0.0
H173 H 0.52121 0.94574 0.33225 0.0
C174 C 0.57093 0.12098 0.37469 0.0
C175 C 0.49523 1.01424 0.34627 0.0
C176 C 0.43485 0.9691 0.33128 0.0
C177 C 0.60994 0.09949 0.37314 0.0
C178 C 0.59253 1.03746 0.35706 0.0
C179 C 0.53452 0.99347 0.3445 0.0
C180 C 0.63595 1.02394 0.35088 0.0
C181 C 0.67 0.14478 0.38831 0.0
C182 C 0.68785 0.08701 0.34266 0.0
C183 C 0.72623 0.07352 0.33458 0.0
C184 C 0.71322 0.99643 0.33437 0.0
C185 C 0.66137 0.93328 0.34274 0.0
C186 C 0.62293 0.94693 0.35089 0.0
H187 H 0.66751 0.16716 0.40451 0.0
H188 H 0.68588 0.10655 0.39211 0.0
H189 H 0.70373 0.19781 0.37974 0.0
H190 H 0.69767 0.14625 0.34176 0.0
H191 H 0.76512 0.12301 0.32782 0.0
H192 H 0.84421 0.99739 0.63378 0.0
H193 H 0.7365 0.888 0.63376 0.0
H194 H 0.77904 0.71882 0.64143 0.0
H195 H 0.88501 0.82677 0.64076 0.0
H196 H 0.63629 0.7809 0.64632 0.0
H197 H 0.63546 0.53142 0.61551 0.0
H198 H 0.6921 0.58924 0.63946 0.0
H199 H 0.69694 0.63399 0.61262 0.0
C200 C 0.8323 0.93723 0.63528 0.0
C201 C 0.88161 0.92918 0.63705 0.0
C202 C 0.76673 0.87057 0.6353 0.0
C203 C 0.73938 0.78471 0.63697 0.0
C204 C 0.78932 0.77761 0.63909 0.0
H205 H 0.3403 0.28005 0.64107 0.0
H206 H 0.44804 0.38939 0.64108 0.0
C207 C 0.85459 0.84393 0.63901 0.0
C208 C 0.66382 0.70844 0.63688 0.0
H209 H 0.54802 0.49617 0.62791 0.0
C210 C 0.61908 0.71934 0.64208 0.0
C211 C 0.63131 0.62146 0.63158 0.0
C212 C 0.66574 0.59241 0.62428 0.0
C213 C 0.55301 0.65563 0.64263 0.0
C214 C 0.52053 0.56866 0.63734 0.0
C215 C 0.56525 0.55775 0.63215 0.0
C216 C 0.44497 0.49242 0.63725 0.0
C217 C 0.51852 0.68462 0.64991 0.0
C218 C 0.39497 0.49944 0.63478 0.0
C219 C 0.32968 0.43313 0.63483 0.0
C220 C 0.30273 0.34804 0.63715 0.0
C221 C 0.35214 0.34009 0.63929 0.0
C222 C 0.41772 0.40671 0.63926 0.0
H223 H 0.54877 0.74543 0.65879 0.0
H224 H 0.49246 0.68822 0.6347 0.0
H225 H 0.48701 0.64279 0.66145 0.0
H226 H 0.40527 0.55814 0.63219 0.0
H227 H 0.29919 0.4502 0.6328 0.0
H228 H 0.79851 0.12862 0.64885 0.0
H229 H 0.69709 0.09165 0.64774 0.0
H230 H 0.76726 0.3424 0.65067 0.0
H231 H 0.86956 0.38027 0.65193 0.0
H232 H 0.64767 0.13444 0.67787 0.0
H233 H 0.64364 0.24379 0.59181 0.0
H234 H 0.69976 0.22909 0.60378 0.0
H235 H 0.70506 0.31585 0.61285 0.0
C236 C 0.79262 0.17604 0.64976 0.0
C237 C 0.84186 0.25739 0.65047 0.0
C238 C 0.73466 0.15476 0.64898 0.0
C239 C 0.72498 0.21436 0.64879 0.0
C240 C 0.77409 0.29572 0.6504 0.0
H241 H 0.3943 0.17479 0.63397 0.0
H242 H 0.49919 0.22268 0.63774 0.0
C243 C 0.83226 0.31716 0.65115 0.0
C244 C 0.663 0.19044 0.64611 0.0
H245 H 0.55723 0.18957 0.60922 0.0
C246 C 0.6278 0.14661 0.66293 0.0
C247 C 0.63763 0.20639 0.6265 0.0
C248 C 0.67316 0.25079 0.60758 0.0
C249 C 0.56746 0.11828 0.66068 0.0
C250 C 0.54189 0.13329 0.64093 0.0
C251 C 0.57729 0.17809 0.62426 0.0
C252 C 0.47842 0.10359 0.63738 0.0
C253 C 0.53177 0.0733 0.67951 0.0
C254 C 0.43236 1.02078 0.63531 0.0
C255 C 0.37235 0.99313 0.63301 0.0
C256 C 0.35779 1.04808 0.63257 0.0
C257 C 0.40414 0.13102 0.63391 0.0
C258 C 0.46401 0.15852 0.63623 0.0
H259 H 0.56149 0.08349 0.69558 0.0
H260 H 0.50259 0.09161 0.68259 0.0
H261 H 0.50239 1.00788 0.6746 0.0
H262 H 0.44291 0.97767 0.63572 0.0
H263 H 0.33741 0.92894 0.63176 0.0
H264 H 0.85625 0.89302 0.06093 0.0
H265 H 0.80704 0.83949 0.09495 0.0
H266 H 0.64101 0.66071 0.05245 0.0
H267 H 0.68933 0.71395 0.01875 0.0
H268 H 0.6905 0.81995 0.10128 0.0
H269 H 0.67179 0.53894 0.10534 0.0
H270 H 0.7338 0.62943 0.09496 0.0
H271 H 0.66408 0.56149 0.07639 0.0
C272 C 0.80944 0.84154 0.05902 0.0
C273 C 0.77628 0.80726 0.03732 0.0
C274 C 0.78159 0.8114 0.07838 0.0
C275 C 0.72083 0.74573 0.07613 0.0
C276 C 0.68829 0.71082 0.05449 0.0
H277 H 0.42581 0.57422 0.05318 0.0
H278 H 0.51707 0.66854 0.07837 0.0
C279 C 0.71566 0.74141 0.03526 0.0
C280 C 0.68782 0.71474 0.09563 0.0
H281 H 0.57763 0.5258 0.10716 0.0
C282 C 0.6671 0.75626 0.10369 0.0
C283 C 0.65963 0.6334 0.10017 0.0
C284 C 0.68406 0.58852 0.09399 0.0
C285 C 0.6111 0.7137 0.11137 0.0
C286 C 0.57508 0.6286 0.10975 0.0
C287 C 0.60308 0.59069 0.10724 0.0
C288 C 0.50913 0.58057 0.10166 0.0
C289 C 0.58808 0.75931 0.11846 0.0
C290 C 0.47095 0.49964 0.10676 0.0
C291 C 0.41907 0.4446 0.09164 0.0
C292 C 0.40391 0.47031 0.0716 0.0
C293 C 0.43647 0.55277 0.06849 0.0
C294 C 0.48884 0.60735 0.08327 0.0
H295 H 0.62267 0.80869 0.13124 0.0
H296 H 0.58043 0.78777 0.10368 0.0
H297 H 0.5457 0.71989 0.12576 0.0
H298 H 0.48482 0.47727 0.12095 0.0
H299 H 0.39387 0.38116 0.09457 0.0
H300 H 0.15021 0.39168 0.30907 0.0
H301 H 0.14979 0.51074 0.309 0.0
H302 H 0.95634 0.35828 0.2945 0.0
H303 H 0.9565 0.23906 0.29462 0.0
H304 H 0.11232 0.57639 0.27711 0.0
H305 H 0.9774 0.49789 0.34637 0.0
H306 H 1.00829 0.4449 0.34033 0.0
H307 H 0.94043 0.42184 0.32348 0.0
C308 C 0.1073 0.38286 0.30594 0.0
C309 C 1.05337 0.30392 0.30194 0.0
C310 C 0.10713 0.45191 0.30586 0.0
C311 C 1.05303 0.44568 0.30213 0.0
C312 C 0.9991 0.36682 0.29799 0.0
H313 H 0.95985 0.79523 0.29968 0.0
H314 H 0.96018 0.67629 0.29928 0.0
C315 C 0.99926 0.29775 0.29788 0.0
C316 C 1.05332 0.52097 0.30218 0.0
H317 H 0.99732 0.60999 0.32619 0.0
C318 C 0.08725 0.58342 0.28799 0.0
C319 C 1.0207 0.53235 0.31611 0.0
C320 C 0.98507 0.47118 0.3326 0.0
C321 C 0.08838 0.6538 0.28692 0.0
C322 C 1.05625 0.66574 0.30103 0.0
C323 C 1.02232 0.60311 0.31524 0.0
C324 C 1.05662 0.74128 0.30121 0.0
C325 C 0.12247 0.71313 0.2698 0.0
C326 C 0.11042 0.82048 0.30276 0.0
C327 C 0.11022 0.88951 0.30273 0.0
C328 C 1.05629 0.8832 0.30157 0.0
C329 C 1.00261 0.80416 0.30051 0.0
C330 C 1.0028 0.73513 0.30034 0.0
H331 H 0.12659 0.68392 0.25556 0.0
H332 H 0.10019 0.74133 0.26273 0.0
H333 H 0.16869 0.76102 0.2781 0.0
H334 H 0.15333 0.82959 0.30432 0.0
H335 H 0.15288 0.9483 0.30385 0.0
H336 H 0.96686 0.98066 0.22389 0.0
H337 H 0.9681 0.98208 0.18299 0.0
H338 H 0.14067 0.21342 0.19251 0.0
H339 H 0.13952 0.21306 0.23338 0.0
H340 H 0.06218 0.20703 0.15713 0.0
H341 H 0.0666 0.94274 0.1487 0.0
H342 H 1.00513 0.9233 0.16172 0.0
H343 H 0.08109 0.99236 0.1758 0.0
C344 C 1.0052 1.03188 0.21734 0.0
C345 C 1.05322 0.0966 0.23209 0.0
C346 C 1.00601 1.03233 0.19389 0.0
C347 C 1.05497 0.09723 0.18457 0.0
C348 C 0.10251 0.16239 0.19921 0.0
H349 H 0.15756 0.22906 0.04983 0.0
H350 H 0.15139 0.22407 0.09035 0.0
C351 C 0.10178 0.16201 0.22266 0.0
C352 C 1.05635 0.09811 0.1596 0.0
H353 H 1.05443 0.99668 0.11461 0.0
C354 C 0.06069 0.16114 0.14787 0.0
C355 C 1.05418 1.03815 0.14738 0.0
C356 C 1.05204 0.97066 0.15902 0.0
C357 C 0.06218 0.16535 0.12436 0.0
C358 C 0.06051 0.10577 0.11217 0.0
C359 C 1.05572 1.0424 0.12386 0.0
C360 C 0.06435 0.10859 0.08738 0.0
C361 C 0.06423 0.23279 0.11272 0.0
C362 C 1.01832 1.0444 0.07208 0.0
C363 C 1.02191 1.04683 0.04883 0.0
C364 C 0.07183 0.11336 0.04028 0.0
C365 C 0.1182 0.17711 0.05569 0.0
C366 C 0.11457 0.17458 0.07893 0.0
H367 H 1.04814 0.25919 0.12281 0.0
H368 H 0.11139 0.28121 0.11058 0.0
H369 H 1.03641 0.21161 0.0957 0.0
H370 H 0.97924 0.99255 0.07812 0.0
H371 H 0.98541 0.99653 0.03756 0.0
H372 H 0.14115 0.10142 0.37935 0.0
H373 H 0.14558 0.1058 0.42051 0.0
H374 H 0.9838 0.09421 0.41249 0.0
H375 H 0.97838 0.08826 0.37129 0.0
H376 H 0.15684 0.21468 0.44941 0.0
H377 H 0.94209 0.91753 0.45494 0.0
H378 H 0.97593 0.9471 0.4294 0.0
H379 H 0.93329 0.98167 0.43664 0.0
C380 C 0.10621 0.09926 0.38629 0.0
C381 C 0.05917 0.09397 0.37187 0.0
C382 C 0.10889 0.10195 0.4099 0.0
C383 C 0.06455 0.09909 0.41975 0.0
C384 C 1.01784 0.09458 0.40541 0.0
H385 H 0.10073 0.24239 0.56129 0.0
H386 H 0.09537 0.23504 0.52014 0.0
C387 C 1.01501 0.09168 0.38178 0.0
C388 C 0.06816 0.10282 0.44499 0.0
H389 H 0.99038 1.00352 0.48865 0.0
C390 C 0.12045 0.16834 0.45797 0.0
C391 C 1.02115 1.04196 0.45633 0.0
C392 C 0.96519 0.96768 0.44366 0.0
C393 C 0.12664 0.17528 0.48177 0.0
C394 C 0.0788 0.11581 0.49305 0.0
C395 C 1.02689 1.04965 0.4801 0.0
C396 C 0.08197 0.12044 0.51824 0.0
C397 C 0.18504 0.24554 0.49463 0.0
C398 C 0.07469 1.05762 0.53104 0.0
C399 C 0.07725 1.06135 0.55464 0.0
C400 C 0.0869 0.1279 0.56607 0.0
C401 C 0.09371 0.19047 0.55318 0.0
C402 C 0.09101 0.18658 0.52958 0.0
H403 H 0.22242 0.27216 0.48445 0.0
H404 H 0.17966 0.29299 0.49877 0.0
H405 H 0.19786 0.22729 0.51072 0.0
H406 H 0.0674 1.00573 0.52278 0.0
H407 H 0.07169 1.01192 0.56392 0.0
H408 H 0.13197 0.27125 0.712 0.0
H409 H 0.13567 0.27401 0.75319 0.0
H410 H 1.05746 1.02067 0.75157 0.0
H411 H 1.05522 1.01796 0.71057 0.0
H412 H 1.05061 0.20048 0.77962 0.0
H413 H 0.19893 0.10316 0.80018 0.0
H414 H 0.18678 0.13201 0.77237 0.0
H415 H 0.13281 1.03231 0.7807 0.0
C416 C 0.1158 0.21613 0.7204 0.0
C417 C 0.09376 0.14452 0.70788 0.0
C418 C 0.1179 0.21778 0.74402 0.0
C419 C 0.09806 0.14794 0.75574 0.0
C420 C 0.0748 0.07603 0.74317 0.0
H421 H 0.99411 1.06642 0.89056 0.0
H422 H 0.99832 0.07333 0.84997 0.0
C423 C 0.07309 0.07444 0.71961 0.0
C424 C 0.10022 0.14979 0.78095 0.0
H425 H 0.14834 0.1002 0.8299 0.0
C426 C 0.07232 0.17894 0.79059 0.0
C427 C 0.12948 0.12324 0.79552 0.0
C428 C 0.16425 0.09675 0.78671 0.0
C429 C 0.07146 0.18027 0.8141 0.0
C430 C 0.09791 0.14969 0.82852 0.0
C431 C 0.12725 0.12261 0.81896 0.0
C432 C 0.09548 0.145 0.85346 0.0
C433 C 1.04307 0.21593 0.82327 0.0
C434 C 0.14849 0.18044 0.86923 0.0
C435 C 0.1462 0.17567 0.89261 0.0
C436 C 0.09076 0.13517 0.90085 0.0
C437 C 1.03774 0.0989 0.88499 0.0
C438 C 1.04007 0.10329 0.86165 0.0
H439 H 1.04258 0.25874 0.81165 0.0
H440 H 0.99573 0.16699 0.82502 0.0
H441 H 0.06731 0.24792 0.84015 0.0
H442 H 0.19186 0.21253 0.86345 0.0
H443 H 0.18801 0.20424 0.90422 0.0
loop_
_geom_bond_atom_site_label_1
_geom_bond_atom_site_label_2
_geom_bond_distance
_geom_bond_site_symmetry_2
_ccdc_geom_bond_type
Tb0 C9 2.764 . S
Tb0 O10 2.325 . S
Tb0 O13 2.303 1_666 S
Tb0 O17 2.322 1_565 S
Tb0 O18 2.349 1_565 S
Tb0 O21 2.415 1_556 S
Tb0 O22 2.399 . S
Tb1 O11 2.322 1_545 S
Tb1 O12 2.349 . S
Tb1 O14 2.415 1_554 S
Tb1 O15 2.399 . S
Tb1 O16 2.325 . S
Tb1 O19 2.303 1_554 S
Tb1 C30 2.764 . S
C2 O18 1.261 1_455 S
C2 O19 1.257 . S
C3 C6 1.358 . S
C3 C7 1.332 1_556 S
C3 C9 1.504 . S
C4 C5 1.362 1_554 S
C4 C8 1.316 . S
C5 C4 1.362 1_556 S
C5 C6 1.429 . S
C5 H32 0.932 . S
C6 C3 1.358 . S
C6 C5 1.429 . S
C6 H33 0.930 . S
C7 C3 1.332 1_554 S
C7 C8 1.394 . S
C7 H34 0.932 . S
C8 C4 1.316 . S
C8 C7 1.394 . S
C8 H35 0.929 . S
C9 Tb0 2.764 . S
C9 C3 1.504 . S
C9 O21 1.239 1_556 S
C9 O22 1.263 . S
O10 Tb0 2.325 . S
O10 C20 1.236 1_656 S
O11 Tb1 2.322 1_565 S
O11 C20 1.257 . S
O12 Tb1 2.349 . S
O12 C23 1.261 . S
O13 Tb0 2.303 1_444 S
O13 C23 1.257 . S
O14 Tb1 2.415 1_556 S
O14 C30 1.239 1_556 S
O15 Tb1 2.399 . S
O15 C30 1.263 . S
O16 Tb1 2.325 . S
O16 C31 1.236 . S
O17 Tb0 2.322 1_545 S
O17 C31 1.257 1_656 S
O18 Tb0 2.349 1_545 S
O18 C2 1.261 1_655 S
O19 Tb1 2.303 1_556 S
O19 C2 1.257 . S
C20 O10 1.236 1_454 S
C20 O11 1.257 . S
O21 Tb0 2.415 1_554 S
O21 C9 1.239 1_554 S
O22 Tb0 2.399 . S
O22 C9 1.263 . S
C23 O12 1.261 . S
C23 O13 1.257 . S
C24 C27 1.358 . S
C24 C28 1.332 1_554 S
C24 C30 1.504 . S
C25 C26 1.373 . S
C25 C29 1.308 1_554 S
C26 C25 1.373 . S
C26 C27 1.429 . S
C26 H36 0.932 . S
C27 C24 1.358 . S
C27 C26 1.429 . S
C27 H37 0.930 . S
C28 C24 1.332 1_556 S
C28 C29 1.394 . S
C28 H38 0.932 . S
C29 C25 1.308 1_556 S
C29 C28 1.394 . S
C29 H39 0.929 . S
C30 Tb1 2.764 . S
C30 O14 1.239 1_554 S
C30 O15 1.263 . S
C30 C24 1.504 . S
C31 O16 1.236 . S
C31 O17 1.257 1_454 S
H32 C5 0.932 . S
H33 C6 0.930 . S
H34 C7 0.932 . S
H35 C8 0.929 . S
H36 C26 0.932 . S
H37 C27 0.930 . S
H38 C28 0.932 . S
H39 C29 0.929 . S
Tb40 C49 2.764 . S
Tb40 O50 2.325 1_545 S
Tb40 O53 2.303 . S
Tb40 O57 2.322 . S
Tb40 O58 2.349 . S
Tb40 O61 2.415 . S
Tb40 O62 2.399 . S
Tb41 O51 2.322 . S
Tb41 O52 2.349 . S
Tb41 O54 2.415 . S
Tb41 O55 2.399 . S
Tb41 O56 2.325 1_565 S
Tb41 O59 2.303 . S
Tb41 C70 2.764 . S
C42 O58 1.261 . S
C42 O59 1.257 1_445 S
C43 C46 1.358 . S
C43 C47 1.332 1_545 S
C43 C49 1.504 . S
C44 C45 1.373 . S
C44 C48 1.308 1_545 S
C45 C44 1.373 . S
C45 C46 1.429 . S
C45 H72 0.932 . S
C46 C43 1.358 . S
C46 C45 1.429 . S
C46 H73 0.930 . S
C47 C43 1.332 1_565 S
C47 C48 1.394 . S
C47 H74 0.932 . S
C48 C44 1.308 1_565 S
C48 C47 1.394 . S
C48 H75 0.929 . S
C49 Tb40 2.764 . S
C49 C43 1.504 . S
C49 O61 1.239 . S
C49 O62 1.263 . S
O50 Tb40 2.325 1_565 S
O50 C60 1.236 . S
O51 Tb41 2.322 . S
O51 C60 1.257 1_655 S
O52 Tb41 2.349 . S
O52 C63 1.261 . S
O53 Tb40 2.303 . S
O53 C63 1.257 1_445 S
O54 Tb41 2.415 . S
O54 C70 1.239 . S
O55 Tb41 2.399 . S
O55 C70 1.263 . S
O56 Tb41 2.325 1_545 S
O56 C71 1.236 1_655 S
O57 Tb40 2.322 . S
O57 C71 1.257 . S
O58 Tb40 2.349 . S
O58 C42 1.261 . S
O59 Tb41 2.303 . S
O59 C42 1.257 1_665 S
C60 O50 1.236 . S
C60 O51 1.257 1_455 S
O61 Tb40 2.415 . S
O61 C49 1.239 . S
O62 Tb40 2.399 . S
O62 C49 1.263 . S
C63 O52 1.261 . S
C63 O53 1.257 1_665 S
C64 C67 1.358 . S
C64 C68 1.332 1_565 S
C64 C70 1.504 . S
C65 C66 1.373 . S
C65 C69 1.308 1_565 S
C66 C65 1.373 . S
C66 C67 1.429 . S
C66 H76 0.932 . S
C67 C64 1.358 . S
C67 C66 1.429 . S
C67 H77 0.930 . S
C68 C64 1.332 1_545 S
C68 C69 1.394 . S
C68 H78 0.932 . S
C69 C65 1.308 1_545 S
C69 C68 1.394 . S
C69 H79 0.929 . S
C70 Tb41 2.764 . S
C70 O54 1.239 . S
C70 O55 1.263 . S
C70 C64 1.504 . S
C71 O56 1.236 1_455 S
C71 O57 1.257 . S
H72 C45 0.932 . S
H73 C46 0.930 . S
H74 C47 0.932 . S
H75 C48 0.929 . S
H76 C66 0.932 . S
H77 C67 0.930 . S
H78 C68 0.932 . S
H79 C69 0.929 . S
Tb80 C89 2.764 . S
Tb80 O90 2.325 . S
Tb80 O93 2.303 1_655 S
Tb80 O97 2.322 1_655 S
Tb80 O98 2.356 . S
Tb80 O101 2.415 . S
Tb80 O102 2.399 . S
Tb81 O91 2.322 1_445 S
Tb81 O92 2.349 . S
Tb81 O94 2.415 . S
Tb81 O95 2.399 . S
Tb81 O96 2.325 . S
Tb81 O99 2.303 . S
Tb81 C110 2.764 . S
C82 O98 1.240 1_455 S
C82 O99 1.257 . S
C83 C86 1.358 . S
C83 C87 1.332 . S
C83 C89 1.504 . S
C84 C85 1.373 . S
C84 C88 1.308 . S
C85 C84 1.373 . S
C85 C86 1.429 . S
C85 H112 0.932 . S
C86 C83 1.358 . S
C86 C85 1.429 . S
C86 H113 0.930 . S
C87 C83 1.332 . S
C87 C88 1.394 . S
C87 H114 0.932 . S
C88 C84 1.308 . S
C88 C87 1.394 . S
C88 H115 0.929 . S
C89 Tb80 2.764 . S
C89 C83 1.504 . S
C89 O101 1.239 . S
C89 O102 1.263 . S
O90 Tb80 2.325 . S
O90 C100 1.236 1_545 S
O91 Tb81 2.322 1_665 S
O91 C100 1.257 . S
O92 Tb81 2.349 . S
O92 C103 1.261 . S
O93 Tb80 2.303 1_455 S
O93 C103 1.257 . S
O94 Tb81 2.415 . S
O94 C110 1.239 . S
O95 Tb81 2.399 . S
O95 C110 1.263 . S
O96 Tb81 2.325 . S
O96 C111 1.236 . S
O97 Tb80 2.322 1_455 S
O97 C111 1.257 . S
O98 Tb80 2.356 . S
O98 C82 1.240 1_655 S
O99 Tb81 2.303 . S
O99 C82 1.257 . S
C100 O90 1.236 1_565 S
C100 O91 1.257 . S
O101 Tb80 2.415 . S
O101 C89 1.239 . S
O102 Tb80 2.399 . S
O102 C89 1.263 . S
C103 O92 1.261 . S
C103 O93 1.257 . S
C104 C107 1.358 . S
C104 C108 1.332 . S
C104 C110 1.504 . S
C105 C106 1.373 . S
C105 C109 1.308 . S
C106 C105 1.373 . S
C106 C107 1.429 . S
C106 H116 0.932 . S
C107 C104 1.358 . S
C107 C106 1.429 . S
C107 H117 0.930 . S
C108 C104 1.332 . S
C108 C109 1.394 . S
C108 H118 0.932 . S
C109 C105 1.308 . S
C109 C108 1.394 . S
C109 H119 0.929 . S
C110 Tb81 2.764 . S
C110 O94 1.239 . S
C110 O95 1.263 . S
C110 C104 1.504 . S
C111 O96 1.236 . S
C111 O97 1.257 . S
H112 C85 0.932 . S
H113 C86 0.930 . S
H114 C87 0.932 . S
H115 C88 0.929 . S
H116 C106 0.932 . S
H117 C107 0.930 . S
H118 C108 0.932 . S
H119 C109 0.929 . S
H120 C128 0.929 . S
H121 C130 0.930 . S
H122 C132 0.930 . S
H123 C135 0.929 . S
H124 C138 0.930 . S
H125 C140 0.960 . S
H126 C140 0.960 . S
H127 C140 0.960 1_655 S
C128 H120 0.929 . S
C128 C129 1.363 1_556 S
C128 C130 1.384 . S
C129 C128 1.363 1_554 S
C129 C135 1.408 1_455 S
C130 H121 0.930 . S
C130 C128 1.384 . S
C130 C131 1.372 1_556 S
C131 C130 1.372 1_554 S
C131 C132 1.400 1_455 S
C131 C136 1.490 . S
C132 H122 0.930 . S
C132 C131 1.400 1_655 S
C132 C135 1.386 . S
H133 C149 0.930 . S
H134 C150 0.931 . S
C135 H123 0.929 . S
C135 C129 1.408 1_655 S
C135 C132 1.386 . S
C136 C131 1.490 . S
C136 C138 1.395 1_554 S
C136 C139 1.403 . S
H137 C143 0.930 . S
C138 H124 0.930 . S
C138 C136 1.395 1_556 S
C138 C141 1.403 . S
C139 C136 1.403 . S
C139 C140 1.524 . S
C139 C143 1.400 . S
C140 H125 0.960 . S
C140 H126 0.960 . S
C140 H127 0.960 1_455 S
C140 C139 1.524 . S
C141 C138 1.403 . S
C141 C142 1.392 . S
C141 C145 1.495 . S
C142 C141 1.392 . S
C142 C143 1.385 1_556 S
C142 C144 1.480 . S
C143 H137 0.930 . S
C143 C139 1.400 . S
C143 C142 1.385 1_554 S
C144 C142 1.480 . S
C144 C146 1.391 . S
C144 C150 1.369 1_456 S
C145 C141 1.495 . S
C145 H151 0.959 . S
C145 H152 0.961 . S
C145 H153 0.960 . S
C146 C144 1.391 . S
C146 C147 1.397 . S
C146 H154 0.930 . S
C147 C146 1.397 . S
C147 C148 1.378 1_556 S
C147 H155 0.933 . S
C148 C147 1.378 1_554 S
C148 C149 1.377 1_455 S
C149 H133 0.930 . S
C149 C148 1.377 1_655 S
C149 C150 1.379 . S
C150 H134 0.931 . S
C150 C144 1.369 1_654 S
C150 C149 1.379 . S
H151 C145 0.959 . S
H152 C145 0.961 . S
H153 C145 0.960 . S
H154 C146 0.930 . S
H155 C147 0.933 . S
H156 C164 0.929 . S
H157 C166 0.930 . S
H158 C168 0.930 . S
H159 C171 0.929 . S
H160 C174 0.930 . S
H161 C176 0.960 1_565 S
H162 C176 0.960 . S
H163 C176 0.960 1_565 S
C164 H156 0.929 . S
C164 C165 1.377 . S
C164 C166 1.384 . S
C165 C164 1.377 . S
C165 C171 1.390 1_545 S
C166 H157 0.930 . S
C166 C164 1.384 . S
C166 C167 1.372 . S
C167 C166 1.372 . S
C167 C168 1.400 1_545 S
C167 C172 1.490 . S
C168 H158 0.930 . S
C168 C167 1.400 1_565 S
C168 C171 1.386 . S
H169 C185 0.930 . S
H170 C186 0.931 . S
C171 H159 0.929 . S
C171 C165 1.390 1_565 S
C171 C168 1.386 . S
C172 C167 1.490 . S
C172 C174 1.395 . S
C172 C175 1.403 . S
H173 C179 0.930 1_565 S
C174 H160 0.930 . S
C174 C172 1.395 . S
C174 C177 1.403 . S
C175 C172 1.403 . S
C175 C176 1.524 . S
C175 C179 1.400 . S
C176 H161 0.960 1_545 S
C176 H162 0.960 . S
C176 H163 0.960 1_545 S
C176 C175 1.524 . S
C177 C174 1.403 . S
C177 C178 1.392 . S
C177 C181 1.495 . S
C178 C177 1.392 . S
C178 C179 1.385 . S
C178 C180 1.478 . S
C179 H173 0.930 1_545 S
C179 C175 1.400 . S
C179 C178 1.385 . S
C180 C178 1.478 . S
C180 C182 1.381 . S
C180 C186 1.383 1_545 S
C181 C177 1.495 . S
C181 H187 0.959 . S
C181 H188 0.961 1_545 S
C181 H189 0.960 . S
C182 C180 1.381 . S
C182 C183 1.394 . S
C182 H190 0.930 . S
C183 C182 1.394 . S
C183 C184 1.383 1_545 S
C183 H191 0.929 . S
C184 C183 1.383 1_565 S
C184 C185 1.377 . S
C185 H169 0.930 . S
C185 C184 1.377 . S
C185 C186 1.379 . S
C186 H170 0.931 . S
C186 C180 1.383 1_565 S
C186 C185 1.379 . S
H187 C181 0.959 . S
H188 C181 0.961 1_565 S
H189 C181 0.960 . S
H190 C182 0.930 . S
H191 C183 0.929 . S
H192 C200 0.929 . S
H193 C202 0.930 . S
H194 C204 0.930 . S
H195 C207 0.929 . S
H196 C210 0.930 . S
H197 C212 0.960 . S
H198 C212 0.960 . S
H199 C212 0.960 . S
C200 H192 0.929 . S
C200 C201 1.377 . S
C200 C202 1.384 . S
C201 C200 1.377 . S
C201 C207 1.390 . S
C202 H193 0.930 . S
C202 C200 1.384 . S
C202 C203 1.372 . S
C203 C202 1.372 . S
C203 C204 1.400 . S
C203 C208 1.490 . S
C204 H194 0.930 . S
C204 C203 1.400 . S
C204 C207 1.386 . S
H205 C221 0.930 . S
H206 C222 0.931 . S
C207 H195 0.929 . S
C207 C201 1.390 . S
C207 C204 1.386 . S
C208 C203 1.490 . S
C208 C210 1.395 . S
C208 C211 1.403 . S
H209 C215 0.930 . S
C210 H196 0.930 . S
C210 C208 1.395 . S
C210 C213 1.403 . S
C211 C208 1.403 . S
C211 C212 1.524 . S
C211 C215 1.400 . S
C212 H197 0.960 . S
C212 H198 0.960 . S
C212 H199 0.960 . S
C212 C211 1.524 . S
C213 C210 1.403 . S
C213 C214 1.392 . S
C213 C217 1.495 . S
C214 C213 1.392 . S
C214 C215 1.385 . S
C214 C216 1.478 . S
C215 H209 0.930 . S
C215 C211 1.400 . S
C215 C214 1.385 . S
C216 C214 1.478 . S
C216 C218 1.381 . S
C216 C222 1.383 . S
C217 C213 1.495 . S
C217 H223 0.959 . S
C217 H224 0.961 . S
C217 H225 0.960 . S
C218 C216 1.381 . S
C218 C219 1.394 . S
C218 H226 0.930 . S
C219 C218 1.394 . S
C219 C220 1.383 . S
C219 H227 0.929 . S
C220 C219 1.383 . S
C220 C221 1.377 . S
C221 H205 0.930 . S
C221 C220 1.377 . S
C221 C222 1.379 . S
C222 H206 0.931 . S
C222 C216 1.383 . S
C222 C221 1.379 . S
H223 C217 0.959 . S
H224 C217 0.961 . S
H225 C217 0.960 . S
H226 C218 0.930 . S
H227 C219 0.929 . S
H228 C236 0.929 . S
H229 C238 0.930 . S
H230 C240 0.930 . S
H231 C243 0.929 . S
H232 C246 0.930 . S
H233 C248 0.960 . S
H234 C248 0.960 . S
H235 C248 0.960 . S
C236 H228 0.929 . S
C236 C237 1.377 . S
C236 C238 1.384 . S
C237 C236 1.377 . S
C237 C243 1.390 . S
C238 H229 0.930 . S
C238 C236 1.384 . S
C238 C239 1.372 . S
C239 C238 1.372 . S
C239 C240 1.400 . S
C239 C244 1.490 . S
C240 H230 0.930 . S
C240 C239 1.400 . S
C240 C243 1.386 . S
H241 C257 0.930 . S
H242 C258 0.931 . S
C243 H231 0.929 . S
C243 C237 1.390 . S
C243 C240 1.386 . S
C244 C239 1.490 . S
C244 C246 1.395 . S
C244 C247 1.403 . S
H245 C251 0.930 . S
C246 H232 0.930 . S
C246 C244 1.395 . S
C246 C249 1.403 . S
C247 C244 1.403 . S
C247 C248 1.524 . S
C247 C251 1.400 . S
C248 H233 0.960 . S
C248 H234 0.960 . S
C248 H235 0.960 . S
C248 C247 1.524 . S
C249 C246 1.403 . S
C249 C250 1.392 . S
C249 C253 1.495 . S
C250 C249 1.392 . S
C250 C251 1.385 . S
C250 C252 1.478 . S
C251 H245 0.930 . S
C251 C247 1.400 . S
C251 C250 1.385 . S
C252 C250 1.478 . S
C252 C254 1.381 . S
C252 C258 1.383 . S
C253 C249 1.495 . S
C253 H259 0.959 . S
C253 H260 0.961 . S
C253 H261 0.960 . S
C254 C252 1.381 . S
C254 C255 1.392 . S
C254 H262 0.930 1_545 S
C255 C254 1.392 . S
C255 C256 1.389 . S
C255 H263 0.926 1_545 S
C256 C255 1.389 . S
C256 C257 1.377 . S
C257 H241 0.930 . S
C257 C256 1.377 . S
C257 C258 1.379 . S
C258 H242 0.931 . S
C258 C252 1.383 . S
C258 C257 1.379 . S
H259 C253 0.959 . S
H260 C253 0.961 . S
H261 C253 0.960 . S
H262 C254 0.930 1_565 S
H263 C255 0.926 1_565 S
H264 C272 0.929 . S
H265 C274 0.930 . S
H266 C276 0.930 . S
H267 C279 0.929 . S
H268 C282 0.930 . S
H269 C284 0.960 . S
H270 C284 0.960 . S
H271 C284 0.960 . S
C272 H264 0.929 . S
C272 C273 1.377 1_554 S
C272 C274 1.384 . S
C273 C272 1.377 1_556 S
C273 C279 1.390 . S
C274 H265 0.930 . S
C274 C272 1.384 . S
C274 C275 1.372 . S
C275 C274 1.372 . S
C275 C276 1.400 1_554 S
C275 C280 1.490 . S
C276 H266 0.930 . S
C276 C275 1.400 1_556 S
C276 C279 1.386 . S
H277 C293 0.930 . S
H278 C294 0.931 . S
C279 H267 0.929 . S
C279 C273 1.390 . S
C279 C276 1.386 . S
C280 C275 1.490 . S
C280 C282 1.395 1_554 S
C280 C283 1.403 . S
H281 C287 0.930 . S
C282 H268 0.930 . S
C282 C280 1.395 1_556 S
C282 C285 1.403 . S
C283 C280 1.403 . S
C283 C284 1.524 . S
C283 C287 1.400 . S
C284 H269 0.960 . S
C284 H270 0.960 . S
C284 H271 0.960 . S
C284 C283 1.524 . S
C285 C282 1.403 . S
C285 C286 1.392 1_556 S
C285 C289 1.495 . S
C286 C285 1.392 1_554 S
C286 C287 1.385 . S
C286 C288 1.478 . S
C287 H281 0.930 . S
C287 C283 1.400 . S
C287 C286 1.385 . S
C288 C286 1.478 . S
C288 C290 1.381 . S
C288 C294 1.383 1_554 S
C289 C285 1.495 . S
C289 H295 0.959 . S
C289 H296 0.961 . S
C289 H297 0.960 1_556 S
C290 C288 1.381 . S
C290 C291 1.394 . S
C290 H298 0.930 . S
C291 C290 1.394 . S
C291 C292 1.383 . S
C291 H299 0.929 . S
C292 C291 1.383 . S
C292 C293 1.377 1_554 S
C293 H277 0.930 . S
C293 C292 1.377 1_556 S
C293 C294 1.379 . S
C294 H278 0.931 . S
C294 C288 1.383 1_556 S
C294 C293 1.379 . S
H295 C289 0.959 . S
H296 C289 0.961 . S
H297 C289 0.960 1_554 S
H298 C290 0.930 . S
H299 C291 0.929 . S
H300 C308 0.929 . S
H301 C310 0.930 . S
H302 C312 0.930 . S
H303 C315 0.929 . S
H304 C318 0.930 . S
H305 C320 0.960 . S
H306 C320 0.960 . S
H307 C320 0.960 . S
C308 H300 0.929 . S
C308 C309 1.377 . S
C308 C310 1.384 . S
C309 C308 1.377 . S
C309 C315 1.390 1_455 S
C310 H301 0.930 . S
C310 C308 1.384 . S
C310 C311 1.372 . S
C311 C310 1.372 . S
C311 C312 1.400 1_455 S
C311 C316 1.490 . S
C312 H302 0.930 . S
C312 C311 1.400 1_655 S
C312 C315 1.386 . S
H313 C329 0.930 . S
H314 C330 0.931 . S
C315 H303 0.929 . S
C315 C309 1.390 1_655 S
C315 C312 1.386 . S
C316 C311 1.490 . S
C316 C318 1.395 . S
C316 C319 1.403 1_455 S
H317 C323 0.930 . S
C318 H304 0.930 . S
C318 C316 1.395 . S
C318 C321 1.403 . S
C319 C316 1.403 1_655 S
C319 C320 1.524 . S
C319 C323 1.400 . S
C320 H305 0.960 . S
C320 H306 0.960 . S
C320 H307 0.960 . S
C320 C319 1.524 . S
C321 C318 1.403 . S
C321 C322 1.392 . S
C321 C325 1.495 . S
C322 C321 1.392 . S
C322 C323 1.385 1_455 S
C322 C324 1.478 . S
C323 H317 0.930 . S
C323 C319 1.400 . S
C323 C322 1.385 1_655 S
C324 C322 1.478 . S
C324 C326 1.381 . S
C324 C330 1.383 1_455 S
C325 C321 1.495 . S
C325 H331 0.959 . S
C325 H332 0.961 . S
C325 H333 0.960 . S
C326 C324 1.381 . S
C326 C327 1.394 . S
C326 H334 0.930 . S
C327 C326 1.394 . S
C327 C328 1.383 . S
C327 H335 0.929 . S
C328 C327 1.383 . S
C328 C329 1.377 1_455 S
C329 H313 0.930 . S
C329 C328 1.377 1_655 S
C329 C330 1.379 . S
C330 H314 0.931 . S
C330 C324 1.383 1_655 S
C330 C329 1.379 . S
H331 C325 0.959 . S
H332 C325 0.961 . S
H333 C325 0.960 . S
H334 C326 0.930 . S
H335 C327 0.929 . S
H336 C344 0.929 . S
H337 C346 0.930 . S
H338 C348 0.930 . S
H339 C351 0.929 . S
H340 C354 0.930 . S
H341 C356 0.960 . S
H342 C356 0.960 . S
H343 C356 0.960 . S
C344 H336 0.929 . S
C344 C345 1.377 1_645 S
C344 C346 1.384 . S
C345 C344 1.377 1_465 S
C345 C351 1.390 . S
C346 H337 0.930 . S
C346 C344 1.384 . S
C346 C347 1.372 1_655 S
C347 C346 1.372 1_455 S
C347 C348 1.400 1_545 S
C347 C352 1.490 . S
C348 H338 0.930 . S
C348 C347 1.400 1_565 S
C348 C351 1.386 . S
H349 C365 0.930 . S
H350 C366 0.931 . S
C351 H339 0.929 . S
C351 C345 1.390 . S
C351 C348 1.386 . S
C352 C347 1.490 . S
C352 C354 1.395 . S
C352 C355 1.403 1_445 S
H353 C359 0.930 1_655 S
C354 H340 0.930 . S
C354 C352 1.395 . S
C354 C357 1.403 . S
C355 C352 1.403 1_665 S
C355 C356 1.524 . S
C355 C359 1.400 1_655 S
C356 H341 0.960 . S
C356 H342 0.960 . S
C356 H343 0.960 . S
C356 C355 1.524 . S
C357 C354 1.403 . S
C357 C358 1.392 . S
C357 C361 1.495 . S
C358 C357 1.392 . S
C358 C359 1.385 1_545 S
C358 C360 1.478 . S
C359 H353 0.930 1_455 S
C359 C355 1.400 1_455 S
C359 C358 1.385 1_565 S
C360 C358 1.478 . S
C360 C362 1.381 1_455 S
C360 C366 1.383 . S
C361 C357 1.495 . S
C361 H367 0.959 . S
C361 H368 0.961 . S
C361 H369 0.960 . S
C362 C360 1.381 1_655 S
C362 C363 1.394 . S
C362 H370 0.930 . S
C363 C362 1.394 . S
C363 C364 1.383 1_655 S
C363 H371 0.929 . S
C364 C363 1.383 1_455 S
C364 C365 1.377 . S
C365 H349 0.930 . S
C365 C364 1.377 . S
C365 C366 1.379 . S
C366 H350 0.931 . S
C366 C360 1.383 . S
C366 C365 1.379 . S
H367 C361 0.959 . S
H368 C361 0.961 . S
H369 C361 0.960 . S
H370 C362 0.930 . S
H371 C363 0.929 . S
H372 C380 0.933 1_655 S
H373 C382 0.932 1_655 S
H374 C384 0.930 . S
H375 C387 0.929 . S
H376 C390 0.930 . S
H377 C392 0.960 . S
H378 C392 0.960 . S
H379 C392 0.960 . S
C380 H372 0.933 1_455 S
C380 C381 1.375 1_565 S
C380 C382 1.382 . S
C381 C380 1.375 1_545 S
C381 C387 1.390 . S
C382 H373 0.932 1_455 S
C382 C380 1.382 . S
C382 C383 1.372 1_565 S
C383 C382 1.372 1_545 S
C383 C384 1.400 . S
C383 C388 1.490 . S
C384 H374 0.930 . S
C384 C383 1.400 . S
C384 C387 1.386 . S
H385 C401 0.930 . S
H386 C402 0.931 . S
C387 H375 0.929 . S
C387 C381 1.390 . S
C387 C384 1.386 . S
C388 C383 1.490 . S
C388 C390 1.395 . S
C388 C391 1.403 1_455 S
H389 C395 0.930 . S
C390 H376 0.930 . S
C390 C388 1.395 . S
C390 C393 1.403 . S
C391 C388 1.403 1_655 S
C391 C392 1.524 . S
C391 C395 1.400 . S
C392 H377 0.960 . S
C392 H378 0.960 . S
C392 H379 0.960 . S
C392 C391 1.524 . S
C393 C390 1.403 . S
C393 C394 1.392 . S
C393 C397 1.495 . S
C394 C393 1.392 . S
C394 C395 1.385 1_455 S
C394 C396 1.478 . S
C395 H389 0.930 . S
C395 C391 1.400 . S
C395 C394 1.385 1_655 S
C396 C394 1.478 . S
C396 C398 1.381 . S
C396 C402 1.383 . S
C397 C393 1.495 . S
C397 H403 0.959 . S
C397 H404 0.961 . S
C397 H405 0.960 . S
C398 C396 1.381 . S
C398 C399 1.394 . S
C398 H406 0.930 1_545 S
C399 C398 1.394 . S
C399 C400 1.383 . S
C399 H407 0.929 1_545 S
C400 C399 1.383 . S
C400 C401 1.377 . S
C401 H385 0.930 . S
C401 C400 1.377 . S
C401 C402 1.379 . S
C402 H386 0.931 . S
C402 C396 1.383 . S
C402 C401 1.379 . S
H403 C397 0.959 . S
H404 C397 0.961 . S
H405 C397 0.960 . S
H406 C398 0.930 1_565 S
H407 C399 0.929 1_565 S
H408 C416 0.929 . S
H409 C418 0.930 . S
H410 C420 0.930 1_565 S
H411 C423 0.929 . S
H412 C426 0.930 . S
H413 C428 0.960 . S
H414 C428 0.960 1_545 S
H415 C428 0.960 . S
C416 H408 0.929 . S
C416 C417 1.377 . S
C416 C418 1.384 . S
C417 C416 1.377 . S
C417 C423 1.390 1_455 S
C418 H409 0.930 . S
C418 C416 1.384 . S
C418 C419 1.372 . S
C419 C418 1.372 . S
C419 C420 1.400 1_455 S
C419 C424 1.490 . S
C420 H410 0.930 1_545 S
C420 C419 1.400 1_655 S
C420 C423 1.386 . S
H421 C437 0.930 1_565 S
H422 C438 0.931 1_565 S
C423 H411 0.929 . S
C423 C417 1.390 1_655 S
C423 C420 1.386 . S
C424 C419 1.490 . S
C424 C426 1.395 . S
C424 C427 1.403 . S
H425 C431 0.930 . S
C426 H412 0.930 . S
C426 C424 1.395 . S
C426 C429 1.403 . S
C427 C424 1.403 . S
C427 C428 1.524 1_545 S
C427 C431 1.400 . S
C428 H413 0.960 . S
C428 H414 0.960 1_565 S
C428 H415 0.960 . S
C428 C427 1.524 1_565 S
C429 C426 1.403 . S
C429 C430 1.392 . S
C429 C433 1.495 . S
C430 C429 1.392 . S
C430 C431 1.385 . S
C430 C432 1.478 . S
C431 H425 0.930 . S
C431 C427 1.400 . S
C431 C430 1.385 . S
C432 C430 1.478 . S
C432 C434 1.381 . S
C432 C438 1.383 1_455 S
C433 C429 1.495 . S
C433 H439 0.959 . S
C433 H440 0.961 1_455 S
C433 H441 0.960 . S
C434 C432 1.381 . S
C434 C435 1.394 . S
C434 H442 0.930 . S
C435 C434 1.394 . S
C435 C436 1.383 . S
C435 H443 0.929 . S
C436 C435 1.383 . S
C436 C437 1.377 1_455 S
C437 H421 0.930 1_545 S
C437 C436 1.377 1_655 S
C437 C438 1.379 . S
C438 H422 0.931 1_545 S
C438 C432 1.383 1_655 S
C438 C437 1.379 . S
H439 C433 0.959 . S
H440 C433 0.961 1_655 S
H441 C433 0.960 . S
H442 C434 0.930 . S
H443 C435 0.929 . S
C129 C31 2.859 . S
C148 C20 2.848 . S
C165 C44 0.406 . S
C184 C65 0.396 . S
C201 C100 4.776 . S
C220 C111 4.773 . S
C237 C84 0.581 . S
C256 C105 0.581 . S
C273 C4 1.130 1_556 S
C292 C25 1.165 . S
C309 C71 2.833 . S
C328 C60 2.827 . S
C345 C63 1.487 1_455 S
C364 C23 1.477 . S
C381 C42 1.492 . S
C400 C82 1.515 . S
C417 C103 1.467 . S
C436 C2 1.479 . S
