# Generated by pormake.
# Topology wmt, (6)-cn, num edge types: 1
# Building blocks:
#     Node 0, Type 0, BuildingBlock: FUNLAD_clean_sbu_0, # of connection points: 6
#     Node 1, Type 0, BuildingBlock: FUNLAD_clean_sbu_0, # of connection points: 6
#     Node 2, Type 0, BuildingBlock: FUNLAD_clean_sbu_0, # of connection points: 6
#     Node 3, Type 0, BuildingBlock: FUNLAD_clean_sbu_0, # of connection points: 6
#     Node 4, Type 0, BuildingBlock: FUNLAD_clean_sbu_0, # of connection points: 6
#     Node 5, Type 0, BuildingBlock: FUNLAD_clean_sbu_0, # of connection points: 6
#     Node 6, Type 0, BuildingBlock: FUNLAD_clean_sbu_0, # of connection points: 6
#     Node 7, Type 0, BuildingBlock: FUNLAD_clean_sbu_0, # of connection points: 6
#     Node 8, Type 0, BuildingBlock: FUNLAD_clean_sbu_0, # of connection points: 6
#     Node 9, Type 0, BuildingBlock: FUNLAD_clean_sbu_0, # of connection points: 6
#     Node 10, Type 0, BuildingBlock: FUNLAD_clean_sbu_0, # of connection points: 6
#     Node 11, Type 0, BuildingBlock: FUNLAD_clean_sbu_0, # of connection points: 6
#     Node 12, Type 0, BuildingBlock: FUNLAD_clean_sbu_0, # of connection points: 6
#     Node 13, Type 0, BuildingBlock: FUNLAD_clean_sbu_0, # of connection points: 6
#     Node 14, Type 0, BuildingBlock: FUNLAD_clean_sbu_0, # of connection points: 6
#     Node 15, Type 0, BuildingBlock: FUNLAD_clean_sbu_0, # of connection points: 6
#     Node 16, Type 0, BuildingBlock: FUNLAD_clean_sbu_0, # of connection points: 6
#     Node 17, Type 0, BuildingBlock: FUNLAD_clean_sbu_0, # of connection points: 6
#     Node 18, Type 0, BuildingBlock: FUNLAD_clean_sbu_0, # of connection points: 6
#     Node 19, Type 0, BuildingBlock: FUNLAD_clean_sbu_0, # of connection points: 6
#     Node 20, Type 0, BuildingBlock: FUNLAD_clean_sbu_0, # of connection points: 6
#     Node 21, Type 0, BuildingBlock: FUNLAD_clean_sbu_0, # of connection points: 6
#     Node 22, Type 0, BuildingBlock: FUNLAD_clean_sbu_0, # of connection points: 6
#     Node 23, Type 0, BuildingBlock: FUNLAD_clean_sbu_0, # of connection points: 6
#     Node 24, Type 0, BuildingBlock: FUNLAD_clean_sbu_0, # of connection points: 6
#     Node 25, Type 0, BuildingBlock: FUNLAD_clean_sbu_0, # of connection points: 6
#     Node 26, Type 0, BuildingBlock: FUNLAD_clean_sbu_0, # of connection points: 6
#     Node 27, Type 0, BuildingBlock: FUNLAD_clean_sbu_0, # of connection points: 6
#     Node 28, Type 0, BuildingBlock: FUNLAD_clean_sbu_0, # of connection points: 6
#     Node 29, Type 0, BuildingBlock: FUNLAD_clean_sbu_0, # of connection points: 6
#     Node 30, Type 0, BuildingBlock: FUNLAD_clean_sbu_0, # of connection points: 6
#     Node 31, Type 0, BuildingBlock: FUNLAD_clean_sbu_0, # of connection points: 6
#     Node 32, Type 0, BuildingBlock: FUNLAD_clean_sbu_0, # of connection points: 6
#     Node 33, Type 0, BuildingBlock: FUNLAD_clean_sbu_0, # of connection points: 6
#     Node 34, Type 0, BuildingBlock: FUNLAD_clean_sbu_0, # of connection points: 6
#     Node 35, Type 0, BuildingBlock: FUNLAD_clean_sbu_0, # of connection points: 6
#     Edge 36, Type (0, 0), BuildingBlock: ZUJKAS_clean_linker_0, # of connection points: 2
#     Edge 37, Type (0, 0), BuildingBlock: ZUJKAS_clean_linker_0, # of connection points: 2
#     Edge 38, Type (0, 0), BuildingBlock: ZUJKAS_clean_linker_0, # of connection points: 2
#     Edge 39, Type (0, 0), BuildingBlock: ZUJKAS_clean_linker_0, # of connection points: 2
#     Edge 40, Type (0, 0), BuildingBlock: ZUJKAS_clean_linker_0, # of connection points: 2
#     Edge 41, Type (0, 0), BuildingBlock: ZUJKAS_clean_linker_0, # of connection points: 2
#     Edge 42, Type (0, 0), BuildingBlock: ZUJKAS_clean_linker_0, # of connection points: 2
#     Edge 43, Type (0, 0), BuildingBlock: ZUJKAS_clean_linker_0, # of connection points: 2
#     Edge 44, Type (0, 0), BuildingBlock: ZUJKAS_clean_linker_0, # of connection points: 2
#     Edge 45, Type (0, 0), BuildingBlock: ZUJKAS_clean_linker_0, # of connection points: 2
#     Edge 46, Type (0, 0), BuildingBlock: ZUJKAS_clean_linker_0, # of connection points: 2
#     Edge 47, Type (0, 0), BuildingBlock: ZUJKAS_clean_linker_0, # of connection points: 2
#     Edge 48, Type (0, 0), BuildingBlock: ZUJKAS_clean_linker_0, # of connection points: 2
#     Edge 49, Type (0, 0), BuildingBlock: ZUJKAS_clean_linker_0, # of connection points: 2
#     Edge 50, Type (0, 0), BuildingBlock: ZUJKAS_clean_linker_0, # of connection points: 2
#     Edge 51, Type (0, 0), BuildingBlock: ZUJKAS_clean_linker_0, # of connection points: 2
#     Edge 52, Type (0, 0), BuildingBlock: ZUJKAS_clean_linker_0, # of connection points: 2
#     Edge 53, Type (0, 0), BuildingBlock: ZUJKAS_clean_linker_0, # of connection points: 2
#     Edge 54, Type (0, 0), BuildingBlock: ZUJKAS_clean_linker_0, # of connection points: 2
#     Edge 55, Type (0, 0), BuildingBlock: ZUJKAS_clean_linker_0, # of connection points: 2
#     Edge 56, Type (0, 0), BuildingBlock: ZUJKAS_clean_linker_0, # of connection points: 2
#     Edge 57, Type (0, 0), BuildingBlock: ZUJKAS_clean_linker_0, # of connection points: 2
#     Edge 58, Type (0, 0), BuildingBlock: ZUJKAS_clean_linker_0, # of connection points: 2
#     Edge 59, Type (0, 0), BuildingBlock: ZUJKAS_clean_linker_0, # of connection points: 2
#     Edge 60, Type (0, 0), BuildingBlock: ZUJKAS_clean_linker_0, # of connection points: 2
#     Edge 61, Type (0, 0), BuildingBlock: ZUJKAS_clean_linker_0, # of connection points: 2
#     Edge 62, Type (0, 0), BuildingBlock: ZUJKAS_clean_linker_0, # of connection points: 2
#     Edge 63, Type (0, 0), BuildingBlock: ZUJKAS_clean_linker_0, # of connection points: 2
#     Edge 64, Type (0, 0), BuildingBlock: ZUJKAS_clean_linker_0, # of connection points: 2
#     Edge 65, Type (0, 0), BuildingBlock: ZUJKAS_clean_linker_0, # of connection points: 2
#     Edge 66, Type (0, 0), BuildingBlock: ZUJKAS_clean_linker_0, # of connection points: 2
#     Edge 67, Type (0, 0), BuildingBlock: ZUJKAS_clean_linker_0, # of connection points: 2
#     Edge 68, Type (0, 0), BuildingBlock: ZUJKAS_clean_linker_0, # of connection points: 2
#     Edge 69, Type (0, 0), BuildingBlock: ZUJKAS_clean_linker_0, # of connection points: 2
#     Edge 70, Type (0, 0), BuildingBlock: ZUJKAS_clean_linker_0, # of connection points: 2
#     Edge 71, Type (0, 0), BuildingBlock: ZUJKAS_clean_linker_0, # of connection points: 2
#     Edge 72, Type (0, 0), BuildingBlock: ZUJKAS_clean_linker_0, # of connection points: 2
#     Edge 73, Type (0, 0), BuildingBlock: ZUJKAS_clean_linker_0, # of connection points: 2
#     Edge 74, Type (0, 0), BuildingBlock: ZUJKAS_clean_linker_0, # of connection points: 2
#     Edge 75, Type (0, 0), BuildingBlock: ZUJKAS_clean_linker_0, # of connection points: 2
#     Edge 76, Type (0, 0), BuildingBlock: ZUJKAS_clean_linker_0, # of connection points: 2
#     Edge 77, Type (0, 0), BuildingBlock: ZUJKAS_clean_linker_0, # of connection points: 2
#     Edge 78, Type (0, 0), BuildingBlock: ZUJKAS_clean_linker_0, # of connection points: 2
#     Edge 79, Type (0, 0), BuildingBlock: ZUJKAS_clean_linker_0, # of connection points: 2
#     Edge 80, Type (0, 0), BuildingBlock: ZUJKAS_clean_linker_0, # of connection points: 2
#     Edge 81, Type (0, 0), BuildingBlock: ZUJKAS_clean_linker_0, # of connection points: 2
#     Edge 82, Type (0, 0), BuildingBlock: ZUJKAS_clean_linker_0, # of connection points: 2
#     Edge 83, Type (0, 0), BuildingBlock: ZUJKAS_clean_linker_0, # of connection points: 2
#     Edge 84, Type (0, 0), BuildingBlock: ZUJKAS_clean_linker_0, # of connection points: 2
#     Edge 85, Type (0, 0), BuildingBlock: ZUJKAS_clean_linker_0, # of connection points: 2
#     Edge 86, Type (0, 0), BuildingBlock: ZUJKAS_clean_linker_0, # of connection points: 2
#     Edge 87, Type (0, 0), BuildingBlock: ZUJKAS_clean_linker_0, # of connection points: 2
#     Edge 88, Type (0, 0), BuildingBlock: ZUJKAS_clean_linker_0, # of connection points: 2
#     Edge 89, Type (0, 0), BuildingBlock: ZUJKAS_clean_linker_0, # of connection points: 2
#     Edge 90, Type (0, 0), BuildingBlock: ZUJKAS_clean_linker_0, # of connection points: 2
#     Edge 91, Type (0, 0), BuildingBlock: ZUJKAS_clean_linker_0, # of connection points: 2
#     Edge 92, Type (0, 0), BuildingBlock: ZUJKAS_clean_linker_0, # of connection points: 2
#     Edge 93, Type (0, 0), BuildingBlock: ZUJKAS_clean_linker_0, # of connection points: 2
#     Edge 94, Type (0, 0), BuildingBlock: ZUJKAS_clean_linker_0, # of connection points: 2
#     Edge 95, Type (0, 0), BuildingBlock: ZUJKAS_clean_linker_0, # of connection points: 2
#     Edge 96, Type (0, 0), BuildingBlock: ZUJKAS_clean_linker_0, # of connection points: 2
#     Edge 97, Type (0, 0), BuildingBlock: ZUJKAS_clean_linker_0, # of connection points: 2
#     Edge 98, Type (0, 0), BuildingBlock: ZUJKAS_clean_linker_0, # of connection points: 2
#     Edge 99, Type (0, 0), BuildingBlock: ZUJKAS_clean_linker_0, # of connection points: 2
#     Edge 100, Type (0, 0), BuildingBlock: ZUJKAS_clean_linker_0, # of connection points: 2
#     Edge 101, Type (0, 0), BuildingBlock: ZUJKAS_clean_linker_0, # of connection points: 2
#     Edge 102, Type (0, 0), BuildingBlock: ZUJKAS_clean_linker_0, # of connection points: 2
#     Edge 103, Type (0, 0), BuildingBlock: ZUJKAS_clean_linker_0, # of connection points: 2
#     Edge 104, Type (0, 0), BuildingBlock: ZUJKAS_clean_linker_0, # of connection points: 2
#     Edge 105, Type (0, 0), BuildingBlock: ZUJKAS_clean_linker_0, # of connection points: 2
#     Edge 106, Type (0, 0), BuildingBlock: ZUJKAS_clean_linker_0, # of connection points: 2
#     Edge 107, Type (0, 0), BuildingBlock: ZUJKAS_clean_linker_0, # of connection points: 2
#     Edge 108, Type (0, 0), BuildingBlock: ZUJKAS_clean_linker_0, # of connection points: 2
#     Edge 109, Type (0, 0), BuildingBlock: ZUJKAS_clean_linker_0, # of connection points: 2
#     Edge 110, Type (0, 0), BuildingBlock: ZUJKAS_clean_linker_0, # of connection points: 2
#     Edge 111, Type (0, 0), BuildingBlock: ZUJKAS_clean_linker_0, # of connection points: 2
#     Edge 112, Type (0, 0), BuildingBlock: ZUJKAS_clean_linker_0, # of connection points: 2
#     Edge 113, Type (0, 0), BuildingBlock: ZUJKAS_clean_linker_0, # of connection points: 2
#     Edge 114, Type (0, 0), BuildingBlock: ZUJKAS_clean_linker_0, # of connection points: 2
#     Edge 115, Type (0, 0), BuildingBlock: ZUJKAS_clean_linker_0, # of connection points: 2
#     Edge 116, Type (0, 0), BuildingBlock: ZUJKAS_clean_linker_0, # of connection points: 2
#     Edge 117, Type (0, 0), BuildingBlock: ZUJKAS_clean_linker_0, # of connection points: 2
#     Edge 118, Type (0, 0), BuildingBlock: ZUJKAS_clean_linker_0, # of connection points: 2
#     Edge 119, Type (0, 0), BuildingBlock: ZUJKAS_clean_linker_0, # of connection points: 2
#     Edge 120, Type (0, 0), BuildingBlock: ZUJKAS_clean_linker_0, # of connection points: 2
#     Edge 121, Type (0, 0), BuildingBlock: ZUJKAS_clean_linker_0, # of connection points: 2
#     Edge 122, Type (0, 0), BuildingBlock: ZUJKAS_clean_linker_0, # of connection points: 2
#     Edge 123, Type (0, 0), BuildingBlock: ZUJKAS_clean_linker_0, # of connection points: 2
#     Edge 124, Type (0, 0), BuildingBlock: ZUJKAS_clean_linker_0, # of connection points: 2
#     Edge 125, Type (0, 0), BuildingBlock: ZUJKAS_clean_linker_0, # of connection points: 2
#     Edge 126, Type (0, 0), BuildingBlock: ZUJKAS_clean_linker_0, # of connection points: 2
#     Edge 127, Type (0, 0), BuildingBlock: ZUJKAS_clean_linker_0, # of connection points: 2
#     Edge 128, Type (0, 0), BuildingBlock: ZUJKAS_clean_linker_0, # of connection points: 2
#     Edge 129, Type (0, 0), BuildingBlock: ZUJKAS_clean_linker_0, # of connection points: 2
#     Edge 130, Type (0, 0), BuildingBlock: ZUJKAS_clean_linker_0, # of connection points: 2
#     Edge 131, Type (0, 0), BuildingBlock: ZUJKAS_clean_linker_0, # of connection points: 2
#     Edge 132, Type (0, 0), BuildingBlock: ZUJKAS_clean_linker_0, # of connection points: 2
#     Edge 133, Type (0, 0), BuildingBlock: ZUJKAS_clean_linker_0, # of connection points: 2
#     Edge 134, Type (0, 0), BuildingBlock: ZUJKAS_clean_linker_0, # of connection points: 2
#     Edge 135, Type (0, 0), BuildingBlock: ZUJKAS_clean_linker_0, # of connection points: 2
#     Edge 136, Type (0, 0), BuildingBlock: ZUJKAS_clean_linker_0, # of connection points: 2
#     Edge 137, Type (0, 0), BuildingBlock: ZUJKAS_clean_linker_0, # of connection points: 2
#     Edge 138, Type (0, 0), BuildingBlock: ZUJKAS_clean_linker_0, # of connection points: 2
#     Edge 139, Type (0, 0), BuildingBlock: ZUJKAS_clean_linker_0, # of connection points: 2
#     Edge 140, Type (0, 0), BuildingBlock: ZUJKAS_clean_linker_0, # of connection points: 2
#     Edge 141, Type (0, 0), BuildingBlock: ZUJKAS_clean_linker_0, # of connection points: 2
#     Edge 142, Type (0, 0), BuildingBlock: ZUJKAS_clean_linker_0, # of connection points: 2
#     Edge 143, Type (0, 0), BuildingBlock: ZUJKAS_clean_linker_0, # of connection points: 2
# Relax obj value: 1.130
# Max RMSD: 0.251
# Mean RMSD: 0.251
data_MOF--net-wmt--node1-FUNLAD_clean_sbu_0--edge1-ZUJKAS_clean_linker_0
_symmetry_space_group_name_H-M    P1
_symmetry_Int_Tables_number       1
_symmetry_cell_setting            triclinic
loop_
_symmetry_equiv_pos_as_xyz
'x, y, z'
_cell_length_a     147.502
_cell_length_b     147.502
_cell_length_c     28.576
_cell_angle_alpha  90.001001
_cell_angle_beta   90.001999
_cell_angle_gamma 120.004
loop_
_atom_site_label
_atom_site_type_symbol
_atom_site_fract_x
_atom_site_fract_y
_atom_site_fract_z
_atom_type_partial_charge
C0 C 0.03635 0.47342 0.96897 0.0
N1 N 0.0648 0.47705 0.0308 0.0
C2 C 0.06001 0.46664 0.02056 0.0
C3 C 0.0659 0.4617 0.01285 0.0
C4 C 0.07687 0.46742 0.01641 0.0
C5 C 0.08159 0.47804 0.02872 0.0
C6 C 0.07542 0.48273 0.03529 0.0
Zn7 Zn 0.05586 0.48451 0.03456 0.0
C8 C 0.06125 0.5002 0.9538 0.0
N9 N 0.03855 0.50019 0.03724 0.0
C10 C 0.02866 0.49571 0.05383 0.0
C11 C 0.04471 0.51081 0.03381 0.0
C12 C 0.0415 0.5174 0.05346 0.0
C13 C 0.03182 0.5129 0.07564 0.0
C14 C 0.02509 0.50198 0.07305 0.0
Zn15 Zn 0.04579 0.49161 0.03455 0.0
O16 O 0.04508 0.4739 0.97731 0.0
C17 C 0.03907 0.47575 0.10996 0.0
O18 O 0.03417 0.47976 0.98921 0.0
H19 H 0.05259 0.51422 0.02035 0.0
H20 H 0.05159 0.46216 0.01738 0.0
H21 H 0.02392 0.48729 0.05622 0.0
O22 O 0.04567 0.47378 0.09009 0.0
O23 O 0.03807 0.4833 0.09515 0.0
H24 H 0.07916 0.491 0.04294 0.0
O25 O 0.05712 0.50325 0.07594 0.0
O26 O 0.06606 0.4954 0.08953 0.0
O27 O 0.05303 0.49943 0.97097 0.0
O28 O 0.06539 0.49538 0.97358 0.0
C29 C 0.0644 0.50296 0.09755 0.0
H30 H 0.06189 0.45347 0.00402 0.0
H31 H 0.09001 0.48279 0.03163 0.0
H32 H 0.04681 0.52577 0.05442 0.0
H33 H 0.01746 0.49824 0.08943 0.0
C34 C 0.52794 0.56746 0.96777 0.0
N35 N 0.52527 0.59206 0.03936 0.0
C36 C 0.53578 0.59777 0.032 0.0
C37 C 0.54071 0.60861 0.02528 0.0
C38 C 0.53483 0.61374 0.02647 0.0
C39 C 0.52404 0.60764 0.03566 0.0
C40 C 0.51941 0.59681 0.04173 0.0
Zn41 Zn 0.5179 0.57587 0.04205 0.0
C42 C 0.50016 0.56509 0.97294 0.0
N43 N 0.50312 0.54294 0.04404 0.0
C44 C 0.49915 0.53842 0.99783 0.0
C45 C 0.49777 0.53853 0.08399 0.0
C46 C 0.48758 0.53013 0.08223 0.0
C47 C 0.48297 0.52552 0.03906 0.0
C48 C 0.48905 0.52989 0.99444 0.0
Zn49 Zn 0.51206 0.5588 0.04349 0.0
O50 O 0.52817 0.57578 0.98203 0.0
C51 C 0.52935 0.56807 0.10821 0.0
O52 O 0.52144 0.5587 0.98553 0.0
H53 H 0.50108 0.54202 0.11734 0.0
H54 H 0.54032 0.59388 0.03009 0.0
H55 H 0.50335 0.54219 0.96625 0.0
O56 O 0.52905 0.57627 0.09582 0.0
O57 O 0.5229 0.55926 0.0906 0.0
H58 H 0.51107 0.59215 0.04743 0.0
O59 O 0.50309 0.55887 0.09809 0.0
O60 O 0.50739 0.57528 0.09925 0.0
O61 O 0.50114 0.558 0.99244 0.0
O62 O 0.50655 0.57457 0.98375 0.0
C63 C 0.50217 0.56611 0.11638 0.0
H64 H 0.549 0.61286 0.01773 0.0
H65 H 0.51916 0.61118 0.03788 0.0
H66 H 0.48356 0.52719 0.11501 0.0
H67 H 0.48614 0.52695 0.95993 0.0
C68 C 0.43562 0.96426 0.96376 0.0
N69 N 0.41059 0.93684 0.03706 0.0
C70 C 0.40487 0.94165 0.03027 0.0
C71 C 0.39401 0.93574 0.02324 0.0
C72 C 0.38888 0.92472 0.02314 0.0
C73 C 0.39498 0.92 0.03169 0.0
C74 C 0.40581 0.9262 0.03839 0.0
Zn75 Zn 0.42693 0.94549 0.03857 0.0
C76 C 0.43584 0.93857 0.95609 0.0
N77 N 0.45991 0.9617 0.03421 0.0
C78 C 0.46576 0.97031 0.06068 0.0
C79 C 0.46331 0.9548 0.02481 0.0
C80 C 0.47244 0.95602 0.0447 0.0
C81 C 0.47823 0.96441 0.07468 0.0
C82 C 0.47493 0.9718 0.08143 0.0
Zn83 Zn 0.44406 0.95568 0.03025 0.0
O84 O 0.42722 0.95631 0.97915 0.0
C85 C 0.43593 0.96365 0.10661 0.0
O86 O 0.44443 0.96629 0.98021 0.0
H87 H 0.45853 0.94771 0.00557 0.0
H88 H 0.40877 0.95009 0.02886 0.0
H89 H 0.46304 0.97573 0.06802 0.0
O90 O 0.42707 0.9561 0.09336 0.0
O91 O 0.44416 0.96487 0.08678 0.0
H92 H 0.41045 0.92248 0.04344 0.0
O93 O 0.44413 0.9453 0.07616 0.0
O94 O 0.42783 0.93539 0.09501 0.0
O95 O 0.44372 0.94696 0.96908 0.0
O96 O 0.42729 0.93514 0.97867 0.0
C97 C 0.43742 0.93816 0.10149 0.0
H98 H 0.38977 0.93981 0.01628 0.0
H99 H 0.39145 0.91158 0.03282 0.0
H100 H 0.4748 0.95029 0.03767 0.0
H101 H 0.47942 0.97875 0.10234 0.0
C102 C 0.47309 0.03825 0.60007 0.0
N103 N 0.47442 0.06648 0.54982 0.0
C104 C 0.46384 0.06133 0.55582 0.0
C105 C 0.45859 0.0669 0.56435 0.0
C106 C 0.46422 0.0779 0.56634 0.0
C107 C 0.4751 0.08299 0.55922 0.0
C108 C 0.48004 0.07713 0.55132 0.0
Zn109 Zn 0.48254 0.05838 0.54078 0.0
C110 C 0.49929 0.06385 0.61214 0.0
N111 N 0.50012 0.04321 0.5231 0.0
C112 C 0.49729 0.03368 0.50502 0.0
C113 C 0.51044 0.05055 0.52926 0.0
C114 C 0.51832 0.04835 0.51916 0.0
C115 C 0.51567 0.03855 0.50157 0.0
C116 C 0.50497 0.03119 0.49375 0.0
Zn117 Zn 0.48995 0.04858 0.5327 0.0
O118 O 0.4725 0.04643 0.59111 0.0
C119 C 0.47337 0.04166 0.46265 0.0
O120 O 0.47982 0.03676 0.5787 0.0
H121 H 0.51272 0.05833 0.54122 0.0
H122 H 0.45947 0.05288 0.55451 0.0
H123 H 0.48913 0.02806 0.49922 0.0
O124 O 0.4719 0.04852 0.48337 0.0
O125 O 0.48083 0.04031 0.47577 0.0
H126 H 0.48844 0.08112 0.54706 0.0
O127 O 0.4999 0.06005 0.48814 0.0
O128 O 0.49301 0.07008 0.48842 0.0
O129 O 0.4987 0.0563 0.58933 0.0
O130 O 0.49343 0.0675 0.59977 0.0
C131 C 0.49995 0.06808 0.47349 0.0
H132 H 0.45019 0.06262 0.56914 0.0
H133 H 0.4798 0.09143 0.56099 0.0
H134 H 0.5264 0.05416 0.5261 0.0
H135 H 0.50247 0.02336 0.4814 0.0
C136 C 0.95873 0.43402 0.61481 0.0
N137 N 0.93354 0.41015 0.53663 0.0
C138 C 0.93842 0.40441 0.53963 0.0
C139 C 0.93259 0.39354 0.54666 0.0
C140 C 0.92163 0.38851 0.55118 0.0
C141 C 0.91681 0.39459 0.5458 0.0
C142 C 0.92291 0.40539 0.53846 0.0
Zn143 Zn 0.94177 0.42639 0.54027 0.0
C144 C 0.93294 0.43452 0.61029 0.0
N145 N 0.95648 0.45902 0.55698 0.0
C146 C 0.96443 0.46499 0.58667 0.0
C147 C 0.94908 0.46171 0.54669 0.0
C148 C 0.94972 0.47074 0.56426 0.0
C149 C 0.95833 0.47759 0.59118 0.0
C150 C 0.96554 0.47433 0.60411 0.0
Zn151 Zn 0.9516 0.44356 0.54562 0.0
O152 O 0.95177 0.42574 0.59468 0.0
C153 C 0.96193 0.43713 0.4783 0.0
O154 O 0.96007 0.44285 0.60247 0.0
H155 H 0.94213 0.45655 0.52742 0.0
H156 H 0.94687 0.40831 0.53875 0.0
H157 H 0.96989 0.46252 0.5972 0.0
O158 O 0.95357 0.42832 0.48627 0.0
O159 O 0.96347 0.44524 0.50075 0.0
H160 H 0.91915 0.41005 0.53637 0.0
O161 O 0.94384 0.44414 0.48656 0.0
O162 O 0.93212 0.42755 0.48335 0.0
O163 O 0.94031 0.44233 0.59086 0.0
O164 O 0.93087 0.42549 0.59655 0.0
C165 C 0.93604 0.43677 0.46652 0.0
H166 H 0.93668 0.38922 0.55082 0.0
H167 H 0.9084 0.39108 0.54825 0.0
H168 H 0.94371 0.47256 0.55479 0.0
H169 H 0.9723 0.47911 0.62553 0.0
C170 C 0.56516 0.5306 0.60407 0.0
N171 N 0.58936 0.52601 0.5489 0.0
C172 C 0.59553 0.53661 0.54838 0.0
C173 C 0.60633 0.54131 0.55569 0.0
C174 C 0.61089 0.53507 0.56401 0.0
C175 C 0.60434 0.52414 0.56385 0.0
C176 C 0.59358 0.51977 0.55605 0.0
Zn177 Zn 0.57329 0.51939 0.54237 0.0
C178 C 0.56101 0.5021 0.60734 0.0
N179 N 0.54058 0.50615 0.52976 0.0
C180 C 0.53605 0.50408 0.57254 0.0
C181 C 0.53558 0.49983 0.49271 0.0
C182 C 0.52616 0.4905 0.49913 0.0
C183 C 0.52159 0.48778 0.5438 0.0
C184 C 0.52673 0.49491 0.58048 0.0
Zn185 Zn 0.55643 0.51408 0.53227 0.0
O186 O 0.57337 0.53009 0.5954 0.0
C187 C 0.56726 0.531 0.46787 0.0
O188 O 0.55677 0.52465 0.5822 0.0
H189 H 0.53927 0.50157 0.45881 0.0
H190 H 0.59204 0.54146 0.54313 0.0
H191 H 0.54017 0.50898 0.60196 0.0
O192 O 0.57502 0.53067 0.48621 0.0
O193 O 0.55802 0.52455 0.48093 0.0
H194 H 0.58856 0.51136 0.55633 0.0
O195 O 0.55626 0.50395 0.48185 0.0
O196 O 0.57273 0.50841 0.4886 0.0
O197 O 0.5545 0.5034 0.58411 0.0
O198 O 0.5707 0.50802 0.59859 0.0
C199 C 0.56385 0.50291 0.46903 0.0
H200 H 0.61101 0.54976 0.55611 0.0
H201 H 0.60749 0.519 0.56961 0.0
H202 H 0.52265 0.48543 0.46938 0.0
H203 H 0.52359 0.49365 0.61543 0.0
C204 C 0.93666 0.50281 0.96121 0.0
N205 N 0.96438 0.50727 0.02033 0.0
C206 C 0.96149 0.4998 0.98206 0.0
C207 C 0.95974 0.48981 0.99308 0.0
C208 C 0.96158 0.48788 0.04291 0.0
C209 C 0.96676 0.49638 0.0738 0.0
C210 C 0.9681 0.50607 0.06177 0.0
Zn211 Zn 0.95587 0.51472 0.02653 0.0
C212 C 0.96088 0.53121 0.9553 0.0
N213 N 0.93442 0.5264 0.046 0.0
C214 C 0.92378 0.52031 0.04471 0.0
C215 C 0.93894 0.53673 0.05741 0.0
C216 C 0.9328 0.54119 0.06924 0.0
C217 C 0.92182 0.53509 0.06873 0.0
C218 C 0.91734 0.52452 0.05552 0.0
Zn219 Zn 0.94409 0.51986 0.03555 0.0
O220 O 0.9449 0.50344 0.97731 0.0
C221 C 0.94004 0.50309 0.10345 0.0
O222 O 0.93381 0.50916 0.97603 0.0
H223 H 0.94736 0.54152 0.05817 0.0
H224 H 0.95911 0.5011 0.94822 0.0
H225 H 0.92026 0.5121 0.03617 0.0
O226 O 0.94851 0.50494 0.08425 0.0
O227 O 0.93539 0.50786 0.08878 0.0
H228 H 0.97056 0.512 0.0884 0.0
O229 O 0.95473 0.53 0.09066 0.0
O230 O 0.96685 0.52619 0.07166 0.0
O231 O 0.95353 0.53161 0.97745 0.0
O232 O 0.96325 0.52431 0.96599 0.0
C233 C 0.96389 0.53131 0.09675 0.0
H234 H 0.95636 0.48363 0.96734 0.0
H235 H 0.9691 0.4954 0.10838 0.0
H236 H 0.93663 0.54939 0.0786 0.0
H237 H 0.90893 0.51948 0.05489 0.0
C238 C 0.49916 0.43485 0.97158 0.0
N239 N 0.49717 0.45925 0.02659 0.0
C240 C 0.50303 0.46278 0.98301 0.0
C241 C 0.51292 0.47171 0.98437 0.0
C242 C 0.51657 0.47764 0.02995 0.0
C243 C 0.50997 0.47382 0.06963 0.0
C244 C 0.50026 0.46479 0.06685 0.0
Zn245 Zn 0.48817 0.44353 0.03398 0.0
C246 C 0.47177 0.43307 0.9602 0.0
N247 N 0.47435 0.41057 0.05138 0.0
C248 C 0.48034 0.406 0.0561 0.0
C249 C 0.46373 0.40477 0.05425 0.0
C250 C 0.45878 0.39398 0.06256 0.0
C251 C 0.46478 0.38906 0.06813 0.0
C252 C 0.47572 0.39525 0.06452 0.0
Zn253 Zn 0.48171 0.4266 0.04223 0.0
O254 O 0.49926 0.44273 0.98864 0.0
C255 C 0.49805 0.4383 0.11364 0.0
O256 O 0.49195 0.4258 0.98385 0.0
H257 H 0.4591 0.40854 0.05071 0.0
H258 H 0.50044 0.45827 0.95117 0.0
H259 H 0.48876 0.41073 0.05373 0.0
O260 O 0.49688 0.4451 0.09236 0.0
O261 O 0.49309 0.42889 0.09879 0.0
H262 H 0.49558 0.46171 0.098 0.0
O263 O 0.47168 0.42788 0.09492 0.0
O264 O 0.47699 0.44429 0.07699 0.0
O265 O 0.4705 0.42503 0.98282 0.0
O266 O 0.47923 0.44206 0.97111 0.0
C267 C 0.47112 0.43617 0.10103 0.0
H268 H 0.51751 0.47418 0.95271 0.0
H269 H 0.51206 0.47778 0.10292 0.0
H270 H 0.45035 0.38959 0.06567 0.0
H271 H 0.48067 0.39182 0.06794 0.0
C272 C 0.56411 0.06696 0.97952 0.0
N273 N 0.53962 0.04279 0.04215 0.0
C274 C 0.53605 0.04967 0.04813 0.0
C275 C 0.52633 0.04743 0.03101 0.0
C276 C 0.52025 0.03812 0.00682 0.0
C277 C 0.52394 0.03098 0.00256 0.0
C278 C 0.53365 0.03346 0.02074 0.0
Zn279 Zn 0.5553 0.04873 0.04919 0.0
C280 C 0.56371 0.04019 0.97112 0.0
N281 N 0.58908 0.06559 0.05309 0.0
C282 C 0.59413 0.07625 0.05367 0.0
C283 C 0.59454 0.06049 0.05952 0.0
C284 C 0.60538 0.0661 0.06773 0.0
C285 C 0.61078 0.07713 0.06943 0.0
C286 C 0.60495 0.08215 0.06162 0.0
Zn287 Zn 0.5727 0.05741 0.04779 0.0
O288 O 0.55622 0.05999 0.00421 0.0
C289 C 0.56309 0.06492 0.12173 0.0
O290 O 0.57308 0.06809 0.9887 0.0
H291 H 0.59045 0.05203 0.05918 0.0
H292 H 0.54098 0.05725 0.06357 0.0
H293 H 0.58971 0.08021 0.04912 0.0
O294 O 0.55499 0.05714 0.10571 0.0
O295 O 0.57198 0.06747 0.10379 0.0
H296 H 0.53659 0.02813 0.01594 0.0
O297 O 0.57135 0.0461 0.10111 0.0
O298 O 0.55415 0.03721 0.09535 0.0
O299 O 0.57261 0.04677 0.98852 0.0
O300 O 0.55554 0.03981 0.98765 0.0
C301 C 0.56254 0.03835 0.11358 0.0
H302 H 0.52365 0.05298 0.03602 0.0
H303 H 0.51931 0.02336 0.98177 0.0
H304 H 0.60948 0.06182 0.07279 0.0
H305 H 0.60864 0.09059 0.06308 0.0
C306 C 0.4992 0.93473 0.60429 0.0
N307 N 0.49728 0.95746 0.54287 0.0
C308 C 0.48732 0.95064 0.5279 0.0
C309 C 0.47869 0.95066 0.54721 0.0
C310 C 0.48009 0.95781 0.58228 0.0
C311 C 0.49046 0.96486 0.59686 0.0
C312 C 0.4989 0.96465 0.57623 0.0
Zn313 Zn 0.50818 0.95263 0.53586 0.0
C314 C 0.52503 0.96161 0.61053 0.0
N315 N 0.52551 0.93623 0.53538 0.0
C316 C 0.52009 0.92566 0.54179 0.0
C317 C 0.53569 0.94111 0.52124 0.0
C318 C 0.54063 0.93529 0.51168 0.0
C319 C 0.53513 0.92436 0.51733 0.0
C320 C 0.52479 0.91959 0.53352 0.0
Zn321 Zn 0.51715 0.94419 0.53954 0.0
O322 O 0.49804 0.9414 0.58187 0.0
C323 C 0.50054 0.93624 0.46374 0.0
O324 O 0.50709 0.9337 0.59537 0.0
H325 H 0.53991 0.94948 0.51595 0.0
H326 H 0.48573 0.94461 0.50288 0.0
H327 H 0.51194 0.92181 0.55171 0.0
O328 O 0.50009 0.94398 0.4789 0.0
O329 O 0.50668 0.93368 0.48354 0.0
H330 H 0.5067 0.97 0.58848 0.0
O331 O 0.52691 0.95546 0.4859 0.0
O332 O 0.51832 0.96415 0.48868 0.0
O333 O 0.52742 0.955 0.59423 0.0
O334 O 0.51722 0.96184 0.59317 0.0
C335 C 0.5257 0.96302 0.4718 0.0
H336 H 0.47096 0.9452 0.53414 0.0
H337 H 0.49221 0.97084 0.62274 0.0
H338 H 0.54866 0.93929 0.49957 0.0
H339 H 0.52022 0.91119 0.53789 0.0
C340 C 0.06505 0.56753 0.60917 0.0
N341 N 0.04228 0.54311 0.53821 0.0
C342 C 0.04252 0.53789 0.57689 0.0
C343 C 0.04266 0.52853 0.57265 0.0
C344 C 0.04224 0.52423 0.52807 0.0
C345 C 0.04292 0.53038 0.48909 0.0
C346 C 0.04237 0.53942 0.49489 0.0
Zn347 Zn 0.04777 0.55881 0.53998 0.0
C348 C 0.03818 0.56685 0.60277 0.0
N349 N 0.06535 0.5924 0.53169 0.0
C350 C 0.07588 0.59746 0.53875 0.0
C351 C 0.06052 0.59785 0.5194 0.0
C352 C 0.06636 0.6087 0.51223 0.0
C353 C 0.0773 0.61413 0.51842 0.0
C354 C 0.08196 0.6083 0.53302 0.0
Zn355 Zn 0.05728 0.57611 0.53404 0.0
O356 O 0.05706 0.55944 0.5946 0.0
C357 C 0.06585 0.56671 0.47075 0.0
O358 O 0.06777 0.57629 0.58976 0.0
H359 H 0.05217 0.59376 0.51368 0.0
H360 H 0.04294 0.54114 0.61113 0.0
H361 H 0.07968 0.59306 0.54775 0.0
O362 O 0.0587 0.55936 0.49363 0.0
O363 O 0.06768 0.57597 0.47842 0.0
H364 H 0.04261 0.54384 0.46438 0.0
O365 O 0.04653 0.57524 0.47972 0.0
O366 O 0.03785 0.55807 0.48485 0.0
O367 O 0.0461 0.57544 0.58862 0.0
O368 O 0.03678 0.55817 0.58703 0.0
C369 C 0.03903 0.56642 0.46634 0.0
H370 H 0.04265 0.52456 0.6043 0.0
H371 H 0.04301 0.52795 0.45367 0.0
H372 H 0.06231 0.61269 0.5004 0.0
H373 H 0.09028 0.612 0.53956 0.0
C374 C 0.43717 0.49991 0.60661 0.0
N375 N 0.4597 0.49753 0.52999 0.0
C376 C 0.46423 0.50995 0.54004 0.0
C377 C 0.48246 0.52054 0.50461 0.0
C378 C 0.48606 0.51501 0.48245 0.0
C379 C 0.47876 0.50066 0.47728 0.0
C380 C 0.46593 0.49268 0.50174 0.0
Zn381 Zn 0.44361 0.48935 0.53419 0.0
C382 C 0.43404 0.47192 0.6039 0.0
N383 N 0.41011 0.47578 0.53691 0.0
C384 C 0.40581 0.48201 0.53161 0.0
C385 C 0.40397 0.46517 0.53693 0.0
C386 C 0.39313 0.46045 0.53017 0.0
C387 C 0.38852 0.46668 0.52284 0.0
C388 C 0.39503 0.47762 0.5244 0.0
Zn389 Zn 0.42628 0.48259 0.53815 0.0
O390 O 0.44459 0.49924 0.58825 0.0
C391 C 0.43672 0.49995 0.46693 0.0
O392 O 0.42784 0.49385 0.59252 0.0
H393 H 0.40751 0.46034 0.5407 0.0
H394 H 0.45949 0.51318 0.55205 0.0
H395 H 0.41079 0.49042 0.53166 0.0
O396 O 0.44448 0.49984 0.48455 0.0
O397 O 0.42758 0.49353 0.48201 0.0
H398 H 0.46201 0.48437 0.49525 0.0
O399 O 0.42542 0.47153 0.48469 0.0
O400 O 0.44258 0.47933 0.48066 0.0
O401 O 0.42562 0.4719 0.59327 0.0
O402 O 0.44251 0.47838 0.58368 0.0
C403 C 0.43368 0.47224 0.4668 0.0
H404 H 0.48926 0.51786 0.49101 0.0
H405 H 0.48242 0.49685 0.45969 0.0
H406 H 0.38848 0.452 0.52886 0.0
H407 H 0.39184 0.48275 0.51962 0.0
C408 C 0.70476 0.80923 0.29999 0.0
N409 N 0.73045 0.80897 0.3676 0.0
C410 C 0.72546 0.79837 0.36268 0.0
C411 C 0.73118 0.79325 0.35455 0.0
C412 C 0.74219 0.79904 0.35139 0.0
C413 C 0.7471 0.80993 0.3579 0.0
C414 C 0.74109 0.81473 0.36579 0.0
Zn415 Zn 0.72226 0.81715 0.37104 0.0
C416 C 0.73118 0.83545 0.30723 0.0
N417 N 0.70805 0.83583 0.37356 0.0
C418 C 0.69961 0.83419 0.3481 0.0
C419 C 0.71483 0.84557 0.39092 0.0
C420 C 0.71292 0.85382 0.38587 0.0
C421 C 0.70422 0.85228 0.36072 0.0
C422 C 0.69759 0.84237 0.34087 0.0
Zn423 Zn 0.71329 0.82529 0.37391 0.0
O424 O 0.71094 0.80673 0.31987 0.0
C425 C 0.70321 0.80738 0.43681 0.0
O426 O 0.7047 0.81743 0.31305 0.0
H427 H 0.72206 0.8473 0.40727 0.0
H428 H 0.71701 0.79389 0.3639 0.0
H429 H 0.69452 0.82662 0.33277 0.0
O430 O 0.71166 0.80725 0.42764 0.0
O431 O 0.70137 0.81395 0.41613 0.0
H432 H 0.74496 0.82314 0.36899 0.0
O433 O 0.72137 0.83237 0.43438 0.0
O434 O 0.73335 0.82803 0.42419 0.0
O435 O 0.72486 0.83659 0.33255 0.0
O436 O 0.73192 0.82729 0.31283 0.0
C437 C 0.72986 0.83308 0.4469 0.0
H438 H 0.727 0.78484 0.35046 0.0
H439 H 0.75551 0.8148 0.35525 0.0
H440 H 0.71818 0.86132 0.40162 0.0
H441 H 0.69066 0.8408 0.32159 0.0
C442 C 0.19583 0.89977 0.30444 0.0
N443 N 0.19211 0.9238 0.37013 0.0
C444 C 0.20261 0.92969 0.36261 0.0
C445 C 0.20727 0.94042 0.3531 0.0
C446 C 0.20115 0.94526 0.35194 0.0
C447 C 0.19041 0.9391 0.36186 0.0
C448 C 0.18602 0.92834 0.37043 0.0
Zn449 Zn 0.18517 0.90751 0.37339 0.0
C450 C 0.16785 0.89643 0.30464 0.0
N451 N 0.17113 0.87448 0.37387 0.0
C452 C 0.16736 0.86985 0.33192 0.0
C453 C 0.16626 0.86968 0.41417 0.0
C454 C 0.1566 0.86049 0.41299 0.0
C455 C 0.15202 0.85575 0.36991 0.0
C456 C 0.15777 0.86064 0.32906 0.0
Zn457 Zn 0.1793 0.89037 0.37335 0.0
O458 O 0.19624 0.90802 0.32058 0.0
C459 C 0.19619 0.9 0.44228 0.0
O460 O 0.18911 0.89089 0.32032 0.0
H461 H 0.16938 0.87347 0.44728 0.0
H462 H 0.20736 0.92602 0.36256 0.0
H463 H 0.17125 0.87386 0.30017 0.0
O464 O 0.19584 0.90819 0.43012 0.0
O465 O 0.19006 0.8913 0.42283 0.0
H466 H 0.17768 0.92356 0.37583 0.0
O467 O 0.16941 0.88978 0.42502 0.0
O468 O 0.17366 0.90622 0.42684 0.0
O469 O 0.16858 0.88925 0.32473 0.0
O470 O 0.1742 0.90589 0.31613 0.0
C471 C 0.16795 0.89686 0.44146 0.0
H472 H 0.21559 0.94488 0.34629 0.0
H473 H 0.18538 0.94248 0.36115 0.0
H474 H 0.15287 0.85723 0.44599 0.0
H475 H 0.15499 0.85754 0.29463 0.0
C476 C 0.09978 0.29703 0.30055 0.0
N477 N 0.07565 0.26962 0.36994 0.0
C478 C 0.06974 0.27412 0.36061 0.0
C479 C 0.05899 0.26794 0.35194 0.0
C480 C 0.0541 0.25694 0.35336 0.0
C481 C 0.06037 0.25254 0.3647 0.0
C482 C 0.07114 0.25902 0.37251 0.0
Zn483 Zn 0.09189 0.27895 0.37336 0.0
C484 C 0.1028 0.27235 0.30533 0.0
N485 N 0.12486 0.29812 0.37354 0.0
C486 C 0.12973 0.29846 0.33288 0.0
C487 C 0.12934 0.29837 0.41525 0.0
C488 C 0.13827 0.29745 0.41719 0.0
C489 C 0.14317 0.29694 0.37569 0.0
C490 C 0.13876 0.29773 0.3331 0.0
Zn491 Zn 0.10898 0.29042 0.37141 0.0
O492 O 0.09156 0.28927 0.31777 0.0
C493 C 0.09914 0.29791 0.43849 0.0
O494 O 0.10869 0.29936 0.31657 0.0
H495 H 0.12542 0.29825 0.44727 0.0
H496 H 0.07342 0.28254 0.35841 0.0
H497 H 0.12602 0.29819 0.29999 0.0
O498 O 0.09106 0.28921 0.42729 0.0
O499 O 0.10787 0.3006 0.41912 0.0
H500 H 0.07593 0.25554 0.37955 0.0
O501 O 0.10933 0.28157 0.42648 0.0
O502 O 0.09299 0.26924 0.42999 0.0
O503 O 0.11017 0.28049 0.3234 0.0
O504 O 0.09347 0.26918 0.31903 0.0
C505 C 0.10229 0.27342 0.44592 0.0
H506 H 0.05467 0.27181 0.34267 0.0
H507 H 0.05705 0.24415 0.36722 0.0
H508 H 0.14119 0.29717 0.45132 0.0
H509 H 0.14207 0.29767 0.29964 0.0
C510 C 0.13748 0.37098 0.94162 0.0
N511 N 0.14147 0.39958 0.88032 0.0
C512 C 0.13091 0.39532 0.87656 0.0
C513 C 0.1262 0.40143 0.88434 0.0
C514 C 0.13236 0.41203 0.89699 0.0
C515 C 0.14324 0.41624 0.89995 0.0
C516 C 0.14765 0.4099 0.8911 0.0
Zn517 Zn 0.14833 0.39013 0.87501 0.0
C518 C 0.16491 0.39532 0.94738 0.0
N519 N 0.1624 0.37115 0.87023 0.0
C520 C 0.16608 0.36963 0.9111 0.0
C521 C 0.16739 0.3719 0.82932 0.0
C522 C 0.17717 0.37263 0.82926 0.0
C523 C 0.18166 0.37184 0.87143 0.0
C524 C 0.17569 0.37003 0.91259 0.0
Zn525 Zn 0.15421 0.37883 0.87408 0.0
O526 O 0.13734 0.3792 0.9282 0.0
C527 C 0.13749 0.37219 0.80396 0.0
O528 O 0.14389 0.36872 0.92295 0.0
H529 H 0.16431 0.37304 0.79702 0.0
H530 H 0.12607 0.3871 0.86853 0.0
H531 H 0.16204 0.3691 0.94334 0.0
O532 O 0.13749 0.38041 0.8185 0.0
O533 O 0.14397 0.36983 0.82112 0.0
H534 H 0.15602 0.41322 0.89379 0.0
O535 O 0.16472 0.38905 0.82626 0.0
O536 O 0.15968 0.40059 0.82115 0.0
O537 O 0.16412 0.38734 0.92761 0.0
O538 O 0.15938 0.39912 0.93242 0.0
C539 C 0.16585 0.39735 0.80848 0.0
H540 H 0.11778 0.39781 0.88197 0.0
H541 H 0.14833 0.42438 0.90906 0.0
H542 H 0.1811 0.37386 0.79617 0.0
H543 H 0.1783 0.36898 0.94626 0.0
C544 C 0.62846 0.77127 0.93892 0.0
N545 N 0.60145 0.74476 0.87624 0.0
C546 C 0.60652 0.73945 0.88709 0.0
C547 C 0.60086 0.72863 0.89552 0.0
C548 C 0.58986 0.72316 0.89278 0.0
C549 C 0.58491 0.72881 0.87992 0.0
C550 C 0.59084 0.7396 0.87213 0.0
Zn551 Zn 0.60923 0.76103 0.87244 0.0
C552 C 0.60168 0.76973 0.94732 0.0
N553 N 0.62334 0.79389 0.87095 0.0
C554 C 0.63282 0.80091 0.85343 0.0
C555 C 0.616 0.79671 0.88061 0.0
C556 C 0.61821 0.80696 0.87503 0.0
C557 C 0.62792 0.81436 0.85754 0.0
C558 C 0.63525 0.8112 0.84595 0.0
Zn559 Zn 0.61829 0.77832 0.87408 0.0
O560 O 0.62049 0.76252 0.92732 0.0
C561 C 0.62701 0.77046 0.80147 0.0
O562 O 0.62985 0.77966 0.91984 0.0
H563 H 0.60823 0.79098 0.89177 0.0
H564 H 0.61494 0.74366 0.89073 0.0
H565 H 0.63845 0.79851 0.84494 0.0
O566 O 0.62004 0.76164 0.81806 0.0
O567 O 0.6277 0.77884 0.81726 0.0
H568 H 0.58689 0.7439 0.86414 0.0
O569 O 0.607 0.77734 0.82819 0.0
O570 O 0.59867 0.7605 0.81654 0.0
O571 O 0.60962 0.77775 0.93188 0.0
O572 O 0.59871 0.76096 0.92755 0.0
C573 C 0.59996 0.7695 0.80702 0.0
H574 H 0.60506 0.72468 0.90578 0.0
H575 H 0.57649 0.72497 0.87644 0.0
H576 H 0.61244 0.80911 0.88471 0.0
H577 H 0.643 0.81671 0.8334 0.0
C578 C 0.2309 0.86078 0.93929 0.0
N579 N 0.25707 0.85974 0.878 0.0
C580 C 0.26258 0.87034 0.88297 0.0
C581 C 0.27341 0.87556 0.89096 0.0
C582 C 0.27873 0.86988 0.89441 0.0
C583 C 0.27284 0.85897 0.88804 0.0
C584 C 0.26204 0.85407 0.87977 0.0
Zn585 Zn 0.24079 0.85168 0.87355 0.0
C586 C 0.23162 0.83515 0.94949 0.0
N587 N 0.20819 0.83297 0.87066 0.0
C588 C 0.20213 0.83527 0.8432 0.0
C589 C 0.2049 0.82286 0.88354 0.0
C590 C 0.19523 0.8147 0.86946 0.0
C591 C 0.18881 0.81681 0.84123 0.0
C592 C 0.19248 0.8273 0.82761 0.0
Zn593 Zn 0.22384 0.84327 0.87694 0.0
O594 O 0.23957 0.86116 0.9298 0.0
C595 C 0.23208 0.85986 0.80218 0.0
O596 O 0.22259 0.85413 0.91836 0.0
H597 H 0.20993 0.82087 0.90274 0.0
H598 H 0.25853 0.87474 0.88168 0.0
H599 H 0.20489 0.84323 0.8322 0.0
O600 O 0.24079 0.86267 0.82251 0.0
O601 O 0.22399 0.85154 0.81568 0.0
H602 H 0.25756 0.84566 0.87606 0.0
O603 O 0.22473 0.83229 0.8367 0.0
O604 O 0.24079 0.84205 0.81371 0.0
O605 O 0.22376 0.83575 0.93717 0.0
O606 O 0.24015 0.84029 0.92674 0.0
C607 C 0.23185 0.8339 0.8082 0.0
H608 H 0.27755 0.88399 0.89465 0.0
H609 H 0.27643 0.85415 0.89091 0.0
H610 H 0.19274 0.80681 0.88106 0.0
H611 H 0.18778 0.82952 0.80684 0.0
C612 C 0.60195 0.83505 0.302 0.0
N613 N 0.62254 0.83136 0.38037 0.0
C614 C 0.61491 0.82142 0.36889 0.0
C615 C 0.61677 0.8131 0.3707 0.0
C616 C 0.62638 0.81486 0.38678 0.0
C617 C 0.63389 0.825 0.40192 0.0
C618 C 0.63185 0.83322 0.39779 0.0
Zn619 Zn 0.61791 0.84228 0.37886 0.0
C620 C 0.62851 0.85979 0.31318 0.0
N621 N 0.60144 0.85946 0.37943 0.0
C622 C 0.59078 0.85388 0.37828 0.0
C623 C 0.60658 0.87 0.38653 0.0
C624 C 0.60095 0.87524 0.39399 0.0
C625 C 0.58996 0.86957 0.39431 0.0
C626 C 0.58488 0.85879 0.38572 0.0
Zn627 Zn 0.60912 0.85083 0.37783 0.0
O628 O 0.60942 0.8347 0.32121 0.0
C629 C 0.59941 0.83262 0.44297 0.0
O630 O 0.59885 0.84097 0.31951 0.0
H631 H 0.61503 0.87431 0.38796 0.0
H632 H 0.60719 0.81973 0.35873 0.0
H633 H 0.5868 0.84551 0.37322 0.0
O634 O 0.60669 0.83196 0.4238 0.0
O635 O 0.59806 0.84023 0.43201 0.0
H636 H 0.63765 0.84103 0.40852 0.0
O637 O 0.61979 0.86043 0.43362 0.0
O638 O 0.62715 0.85065 0.43629 0.0
O639 O 0.62086 0.86113 0.32497 0.0
O640 O 0.62946 0.85252 0.3325 0.0
C641 C 0.62651 0.8584 0.45164 0.0
H642 H 0.61085 0.80543 0.35877 0.0
H643 H 0.64147 0.82667 0.41467 0.0
H644 H 0.60512 0.88357 0.40086 0.0
H645 H 0.57642 0.85417 0.38595 0.0
C646 C 0.16601 0.77163 0.30991 0.0
N647 N 0.16269 0.79443 0.37321 0.0
C648 C 0.16824 0.79876 0.33362 0.0
C649 C 0.17819 0.80755 0.33598 0.0
C650 C 0.18235 0.81245 0.37926 0.0
C651 C 0.17583 0.80823 0.41889 0.0
C652 C 0.16601 0.79932 0.41495 0.0
Zn653 Zn 0.15414 0.77858 0.37442 0.0
C654 C 0.13814 0.76928 0.30066 0.0
N655 N 0.14096 0.74536 0.37625 0.0
C656 C 0.14717 0.74098 0.37819 0.0
C657 C 0.1304 0.73935 0.38118 0.0
C658 C 0.12575 0.72858 0.38961 0.0
C659 C 0.13201 0.72389 0.39314 0.0
C660 C 0.14285 0.73026 0.38656 0.0
Zn661 Zn 0.14801 0.76152 0.37228 0.0
O662 O 0.16565 0.77894 0.33089 0.0
C663 C 0.16401 0.7719 0.44762 0.0
O664 O 0.15888 0.76224 0.31796 0.0
H665 H 0.12559 0.74296 0.37998 0.0
H666 H 0.16545 0.79476 0.30064 0.0
H667 H 0.15555 0.74587 0.37445 0.0
O668 O 0.16285 0.77925 0.43234 0.0
O669 O 0.1591 0.76298 0.42788 0.0
H670 H 0.1615 0.79572 0.44611 0.0
O671 O 0.13727 0.76146 0.42616 0.0
O672 O 0.14277 0.77826 0.41793 0.0
O673 O 0.13725 0.76078 0.31692 0.0
O674 O 0.14513 0.77799 0.31719 0.0
C675 C 0.13657 0.76951 0.43671 0.0
H676 H 0.18248 0.81034 0.30374 0.0
H677 H 0.1782 0.81158 0.45323 0.0
H678 H 0.11738 0.72405 0.39496 0.0
H679 H 0.14799 0.72701 0.38822 0.0
C680 C 0.23097 0.39617 0.30499 0.0
N681 N 0.20828 0.37239 0.38044 0.0
C682 C 0.20345 0.37063 0.33847 0.0
C683 C 0.19408 0.37066 0.33442 0.0
C684 C 0.18937 0.37226 0.37415 0.0
C685 C 0.19437 0.37345 0.41747 0.0
C686 C 0.20365 0.3732 0.41995 0.0
Zn687 Zn 0.2241 0.37988 0.38046 0.0
C688 C 0.23327 0.37118 0.31658 0.0
N689 N 0.25733 0.39955 0.3815 0.0
C690 C 0.26193 0.41017 0.38227 0.0
C691 C 0.26316 0.39483 0.38726 0.0
C692 C 0.27393 0.40079 0.39603 0.0
C693 C 0.27883 0.41176 0.39858 0.0
C694 C 0.2727 0.41644 0.39046 0.0
Zn695 Zn 0.24111 0.39047 0.37966 0.0
O696 O 0.22367 0.38771 0.32113 0.0
C697 C 0.23076 0.39838 0.44359 0.0
O698 O 0.23993 0.40038 0.3246 0.0
H699 H 0.25941 0.38639 0.38661 0.0
H700 H 0.20729 0.37006 0.3074 0.0
H701 H 0.25718 0.4138 0.37821 0.0
O702 O 0.22329 0.391 0.42201 0.0
O703 O 0.24002 0.40023 0.43554 0.0
H704 H 0.20768 0.37468 0.45301 0.0
O705 O 0.2416 0.38017 0.43297 0.0
O706 O 0.22447 0.37179 0.44005 0.0
O707 O 0.24139 0.38008 0.32489 0.0
O708 O 0.22478 0.36867 0.3379 0.0
C709 C 0.23331 0.37324 0.45319 0.0
H710 H 0.19065 0.36936 0.30008 0.0
H711 H 0.19131 0.37471 0.44947 0.0
H712 H 0.27835 0.39684 0.40137 0.0
H713 H 0.27611 0.42485 0.39239 0.0
C714 C 0.16813 0.2731 0.94359 0.0
N715 N 0.17102 0.29859 0.87464 0.0
C716 C 0.16653 0.2987 0.91576 0.0
C717 C 0.15682 0.29808 0.91632 0.0
C718 C 0.15173 0.2978 0.87408 0.0
C719 C 0.15712 0.29858 0.83221 0.0
C720 C 0.16684 0.29921 0.83338 0.0
Zn721 Zn 0.17925 0.29096 0.87388 0.0
C722 C 0.19586 0.29778 0.943 0.0
N723 N 0.19178 0.27023 0.86931 0.0
C724 C 0.18569 0.25968 0.86408 0.0
C725 C 0.20239 0.27491 0.86704 0.0
C726 C 0.20723 0.269 0.85778 0.0
C727 C 0.20114 0.25814 0.85048 0.0
C728 C 0.19021 0.25348 0.85468 0.0
Zn729 Zn 0.18478 0.27943 0.87315 0.0
O730 O 0.16905 0.28126 0.9249 0.0
C731 C 0.16817 0.27365 0.8024 0.0
O732 O 0.17376 0.26942 0.92839 0.0
H733 H 0.20712 0.2833 0.87105 0.0
H734 H 0.17 0.29825 0.94824 0.0
H735 H 0.17727 0.25609 0.86559 0.0
O736 O 0.16912 0.2818 0.82107 0.0
O737 O 0.17373 0.26991 0.81756 0.0
H738 H 0.17053 0.2991 0.80096 0.0
O739 O 0.19564 0.29001 0.81889 0.0
O740 O 0.18956 0.30086 0.82436 0.0
O741 O 0.19569 0.28948 0.92853 0.0
O742 O 0.18956 0.30037 0.92572 0.0
C743 C 0.19593 0.29847 0.80632 0.0
H744 H 0.15346 0.29784 0.95004 0.0
H745 H 0.15392 0.29856 0.79835 0.0
H746 H 0.21568 0.27296 0.85584 0.0
H747 H 0.18515 0.24518 0.84897 0.0
C748 C 0.73092 0.89837 0.9319 0.0
N749 N 0.7084 0.87433 0.8663 0.0
C750 C 0.71521 0.8714 0.84893 0.0
C751 C 0.71525 0.86256 0.86532 0.0
C752 C 0.70822 0.85644 0.89999 0.0
C753 C 0.70115 0.8595 0.917 0.0
C754 C 0.7013 0.86837 0.8993 0.0
Zn755 Zn 0.71305 0.89009 0.86252 0.0
C756 C 0.70391 0.8974 0.93833 0.0
N757 N 0.72961 0.92375 0.86775 0.0
C758 C 0.74022 0.92892 0.8725 0.0
C759 C 0.72456 0.92909 0.85721 0.0
C760 C 0.73022 0.93994 0.84965 0.0
C761 C 0.74121 0.94543 0.85327 0.0
C762 C 0.74615 0.93976 0.86576 0.0
Zn763 Zn 0.72176 0.90742 0.86942 0.0
O764 O 0.72425 0.89088 0.90779 0.0
C765 C 0.72992 0.89937 0.79252 0.0
O766 O 0.73203 0.90742 0.9257 0.0
H767 H 0.71615 0.9249 0.8533 0.0
H768 H 0.72119 0.87608 0.82418 0.0
H769 H 0.74416 0.92458 0.87991 0.0
O770 O 0.72183 0.89121 0.80547 0.0
O771 O 0.73267 0.90789 0.81424 0.0
H772 H 0.69598 0.87066 0.91352 0.0
O773 O 0.71067 0.90627 0.81477 0.0
O774 O 0.7017 0.88897 0.81595 0.0
O775 O 0.71072 0.90647 0.9234 0.0
O776 O 0.7036 0.88938 0.92012 0.0
C777 C 0.70305 0.89761 0.79978 0.0
H778 H 0.7207 0.86046 0.85052 0.0
H779 H 0.69522 0.85491 0.94256 0.0
H780 H 0.72605 0.94398 0.8406 0.0
H781 H 0.75459 0.94359 0.86844 0.0
C782 C 0.10129 0.83499 0.93082 0.0
N783 N 0.12471 0.83451 0.87219 0.0
C784 C 0.12795 0.84448 0.8573 0.0
C785 C 0.13667 0.85303 0.87659 0.0
C786 C 0.14243 0.85148 0.91114 0.0
C787 C 0.13907 0.84106 0.92516 0.0
C788 C 0.13027 0.83271 0.90491 0.0
Zn789 Zn 0.10896 0.82426 0.86602 0.0
C790 C 0.10035 0.80822 0.94183 0.0
N791 N 0.07599 0.8091 0.86561 0.0
C792 C 0.07119 0.81492 0.86818 0.0
C793 C 0.07035 0.79863 0.85722 0.0
C794 C 0.05952 0.79369 0.84983 0.0
C795 C 0.05438 0.79955 0.85111 0.0
C796 C 0.06039 0.8103 0.86121 0.0
Zn797 Zn 0.09215 0.81675 0.86965 0.0
O798 O 0.10848 0.8359 0.90434 0.0
C799 C 0.10145 0.83254 0.7923 0.0
O800 O 0.09237 0.82674 0.92766 0.0
H801 H 0.07429 0.79413 0.85506 0.0
H802 H 0.12335 0.84612 0.83329 0.0
H803 H 0.07579 0.82323 0.87469 0.0
O804 O 0.109 0.83132 0.80368 0.0
O805 O 0.0931 0.82813 0.81665 0.0
H806 H 0.12762 0.82486 0.91717 0.0
O807 O 0.09299 0.80702 0.81382 0.0
O808 O 0.10973 0.81267 0.82698 0.0
O809 O 0.09175 0.80565 0.921 0.0
O810 O 0.10862 0.81639 0.92866 0.0
C811 C 0.10125 0.8065 0.80576 0.0
H812 H 0.13893 0.86081 0.86424 0.0
H813 H 0.14332 0.83922 0.95057 0.0
H814 H 0.05531 0.78543 0.84167 0.0
H815 H 0.05681 0.81514 0.86342 0.0
C816 C 0.37133 0.14184 0.62508 0.0
N817 N 0.39669 0.14217 0.70183 0.0
C818 C 0.39178 0.1316 0.69618 0.0
C819 C 0.39762 0.12657 0.68869 0.0
C820 C 0.40861 0.13247 0.68632 0.0
C821 C 0.41344 0.1433 0.69397 0.0
C822 C 0.40734 0.14799 0.70182 0.0
Zn823 Zn 0.38863 0.15045 0.70086 0.0
C824 C 0.3978 0.16766 0.63032 0.0
N825 N 0.37436 0.16911 0.68869 0.0
C826 C 0.36492 0.16704 0.67199 0.0
C827 C 0.38215 0.17921 0.69637 0.0
C828 C 0.38042 0.18755 0.69084 0.0
C829 C 0.37072 0.18562 0.67538 0.0
C830 C 0.36294 0.17525 0.66475 0.0
Zn831 Zn 0.37921 0.15837 0.69421 0.0
O832 O 0.37827 0.14034 0.64457 0.0
C833 C 0.36903 0.14132 0.76367 0.0
O834 O 0.37007 0.14933 0.63875 0.0
H835 H 0.38993 0.181 0.70602 0.0
H836 H 0.38333 0.12709 0.69562 0.0
H837 H 0.35897 0.15908 0.66427 0.0
O838 O 0.37686 0.14023 0.7527 0.0
O839 O 0.36785 0.14838 0.74342 0.0
H840 H 0.41114 0.15638 0.70603 0.0
O841 O 0.38776 0.16683 0.75025 0.0
O842 O 0.39838 0.16079 0.75982 0.0
O843 O 0.39006 0.16806 0.64592 0.0
O844 O 0.39982 0.16088 0.64703 0.0
C845 C 0.395 0.16681 0.77322 0.0
H846 H 0.39353 0.11821 0.68273 0.0
H847 H 0.42187 0.14817 0.69318 0.0
H848 H 0.38656 0.1954 0.69938 0.0
H849 H 0.35525 0.17346 0.65304 0.0
C850 C 0.85974 0.23214 0.63821 0.0
N851 N 0.85692 0.25735 0.69958 0.0
C852 C 0.8675 0.2628 0.69423 0.0
C853 C 0.87274 0.27361 0.686 0.0
C854 C 0.8671 0.27895 0.68328 0.0
C855 C 0.85622 0.27316 0.69032 0.0
C856 C 0.85127 0.26235 0.69826 0.0
Zn857 Zn 0.84909 0.24112 0.70404 0.0
C858 C 0.83337 0.2314 0.62708 0.0
N859 N 0.83271 0.20822 0.70652 0.0
C860 C 0.83555 0.20241 0.73272 0.0
C861 C 0.82238 0.20485 0.69803 0.0
C862 C 0.81451 0.19563 0.71765 0.0
C863 C 0.81717 0.18972 0.74659 0.0
C864 C 0.82793 0.19317 0.75334 0.0
Zn865 Zn 0.8426 0.22399 0.70005 0.0
O866 O 0.85948 0.24037 0.65025 0.0
C867 C 0.85862 0.23285 0.77476 0.0
O868 O 0.85321 0.22332 0.65566 0.0
H869 H 0.82004 0.20966 0.67921 0.0
H870 H 0.87187 0.25872 0.6953 0.0
H871 H 0.84372 0.20518 0.73972 0.0
O872 O 0.85964 0.24146 0.75956 0.0
O873 O 0.85171 0.22429 0.75695 0.0
H874 H 0.84286 0.2579 0.70208 0.0
O875 O 0.83212 0.22439 0.74568 0.0
O876 O 0.83857 0.241 0.75909 0.0
O877 O 0.83422 0.22382 0.64183 0.0
O878 O 0.83826 0.24016 0.6482 0.0
C879 C 0.83187 0.23153 0.76854 0.0
H880 H 0.88115 0.27773 0.68152 0.0
H881 H 0.85149 0.27687 0.68811 0.0
H882 H 0.8064 0.19319 0.71058 0.0
H883 H 0.83053 0.18873 0.77364 0.0
C884 C 0.76865 0.62833 0.63021 0.0
N885 N 0.74242 0.6035 0.70129 0.0
C886 C 0.73729 0.60884 0.69235 0.0
C887 C 0.72643 0.60343 0.68493 0.0
C888 C 0.72074 0.59242 0.68692 0.0
C889 C 0.72622 0.58719 0.69782 0.0
C890 C 0.73705 0.59287 0.70456 0.0
Zn891 Zn 0.75868 0.61074 0.70168 0.0
C892 C 0.76626 0.60081 0.63238 0.0
N893 N 0.7916 0.62294 0.69479 0.0
C894 C 0.79877 0.63204 0.67454 0.0
C895 C 0.7941 0.61543 0.70587 0.0
C896 C 0.80428 0.61736 0.70207 0.0
C897 C 0.81191 0.62687 0.6839 0.0
C898 C 0.809 0.63411 0.66808 0.0
Zn899 Zn 0.77608 0.61855 0.69953 0.0
O900 O 0.75984 0.62168 0.64781 0.0
C901 C 0.76986 0.62948 0.76836 0.0
O902 O 0.77691 0.62856 0.64477 0.0
H903 H 0.78823 0.60774 0.71723 0.0
H904 H 0.74165 0.61727 0.68943 0.0
H905 H 0.79659 0.63768 0.66338 0.0
O906 O 0.76069 0.62232 0.75563 0.0
O907 O 0.77788 0.62988 0.74943 0.0
H908 H 0.74123 0.58871 0.71055 0.0
O909 O 0.77511 0.60909 0.75413 0.0
O910 O 0.75809 0.60006 0.75793 0.0
O911 O 0.77458 0.60766 0.65116 0.0
O912 O 0.7576 0.59986 0.64578 0.0
C913 C 0.76699 0.6019 0.7728 0.0
H914 H 0.72254 0.60782 0.67709 0.0
H915 H 0.72225 0.57873 0.6991 0.0
H916 H 0.80622 0.61159 0.71418 0.0
H917 H 0.81471 0.64157 0.65346 0.0
C918 C 0.80397 0.70452 0.27882 0.0
N919 N 0.80719 0.73224 0.20983 0.0
C920 C 0.79659 0.72752 0.21389 0.0
C921 C 0.79171 0.73349 0.22111 0.0
C922 C 0.79775 0.74448 0.22459 0.0
C923 C 0.80864 0.74913 0.21874 0.0
C924 C 0.81319 0.74287 0.21139 0.0
Zn925 Zn 0.81479 0.72349 0.20969 0.0
C926 C 0.83 0.73028 0.29061 0.0
N927 N 0.83191 0.70766 0.21942 0.0
C928 C 0.82993 0.69955 0.19078 0.0
C929 C 0.84189 0.7144 0.23418 0.0
C930 C 0.85031 0.71353 0.21828 0.0
C931 C 0.84859 0.70566 0.18668 0.0
C932 C 0.83817 0.69842 0.17386 0.0
Zn933 Zn 0.82185 0.71349 0.22019 0.0
O934 O 0.80389 0.71266 0.26368 0.0
C935 C 0.80655 0.70568 0.14027 0.0
O936 O 0.81078 0.70236 0.26372 0.0
H937 H 0.84371 0.72115 0.25505 0.0
H938 H 0.79192 0.71908 0.21317 0.0
H939 H 0.82206 0.69426 0.17898 0.0
O940 O 0.80466 0.71282 0.1541 0.0
O941 O 0.81366 0.70473 0.16088 0.0
H942 H 0.82159 0.74653 0.20845 0.0
O943 O 0.83314 0.72444 0.17728 0.0
O944 O 0.82604 0.73354 0.15488 0.0
O945 O 0.82922 0.72169 0.27946 0.0
O946 O 0.82531 0.73387 0.26594 0.0
C947 C 0.83348 0.73153 0.15167 0.0
H948 H 0.78331 0.72949 0.22581 0.0
H949 H 0.81365 0.75754 0.22034 0.0
H950 H 0.85813 0.71913 0.22982 0.0
H951 H 0.83632 0.69184 0.15129 0.0
C952 C 0.29571 0.10414 0.26941 0.0
N953 N 0.26784 0.07769 0.21148 0.0
C954 C 0.27255 0.07176 0.2111 0.0
C955 C 0.26667 0.0609 0.21911 0.0
C956 C 0.25587 0.05611 0.22837 0.0
C957 C 0.25124 0.06241 0.22756 0.0
C958 C 0.25734 0.07315 0.21875 0.0
Zn959 Zn 0.27611 0.09401 0.20609 0.0
C960 C 0.2696 0.10396 0.28157 0.0
N961 N 0.2911 0.12699 0.20164 0.0
C962 C 0.29272 0.1322 0.24253 0.0
C963 C 0.28939 0.13079 0.16137 0.0
C964 C 0.28866 0.13984 0.16173 0.0
C965 C 0.29039 0.14556 0.20339 0.0
C966 C 0.29219 0.14134 0.24442 0.0
Zn967 Zn 0.28531 0.11133 0.20541 0.0
O968 O 0.28772 0.09534 0.25847 0.0
C969 C 0.29341 0.10301 0.13177 0.0
O970 O 0.29695 0.11245 0.25012 0.0
H971 H 0.288 0.12649 0.12917 0.0
H972 H 0.2809 0.07546 0.20558 0.0
H973 H 0.29379 0.12893 0.27439 0.0
O974 O 0.28654 0.09417 0.14903 0.0
O975 O 0.29406 0.11133 0.14807 0.0
H976 H 0.25368 0.07791 0.21868 0.0
O977 O 0.27372 0.11028 0.16239 0.0
O978 O 0.26496 0.09344 0.15207 0.0
O979 O 0.27717 0.11165 0.26223 0.0
O980 O 0.2664 0.09485 0.26475 0.0
C981 C 0.26638 0.10249 0.14252 0.0
H982 H 0.2706 0.05637 0.21958 0.0
H983 H 0.24294 0.05907 0.23382 0.0
H984 H 0.28712 0.14245 0.12903 0.0
H985 H 0.2935 0.14511 0.27799 0.0
C986 C 0.89794 0.19668 0.28381 0.0
N987 N 0.92128 0.19237 0.21299 0.0
C988 C 0.92723 0.2029 0.21918 0.0
C989 C 0.93808 0.20765 0.22542 0.0
C990 C 0.94298 0.20156 0.2251 0.0
C991 C 0.93666 0.19075 0.21679 0.0
C992 C 0.92583 0.18631 0.21105 0.0
Zn993 Zn 0.905 0.18526 0.21329 0.0
C994 C 0.89554 0.16924 0.29097 0.0
N995 N 0.87197 0.17054 0.22213 0.0
C996 C 0.86678 0.1746 0.19913 0.0
C997 C 0.86773 0.15995 0.22643 0.0
C998 C 0.85886 0.1531 0.20102 0.0
C999 C 0.85437 0.15723 0.17118 0.0
C1000 C 0.85793 0.16804 0.17316 0.0
Zn1001 Zn 0.88793 0.17912 0.2239 0.0
O1002 O 0.9058 0.19636 0.26693 0.0
C1003 C 0.89644 0.19518 0.14737 0.0
O1004 O 0.88873 0.19003 0.27104 0.0
H1005 H 0.87192 0.15673 0.24428 0.0
H1006 H 0.92352 0.20762 0.22084 0.0
H1007 H 0.87009 0.18298 0.19673 0.0
O1008 O 0.90513 0.19572 0.15777 0.0
O1009 O 0.88823 0.18876 0.16913 0.0
H1010 H 0.92101 0.17795 0.2063 0.0
O1011 O 0.88699 0.16827 0.17585 0.0
O1012 O 0.90334 0.17394 0.15906 0.0
O1013 O 0.88775 0.17003 0.27896 0.0
O1014 O 0.90419 0.1745 0.26918 0.0
C1015 C 0.8937 0.16737 0.15222 0.0
H1016 H 0.94251 0.21597 0.23221 0.0
H1017 H 0.94003 0.18571 0.21525 0.0
H1018 H 0.85611 0.14479 0.20181 0.0
H1019 H 0.85422 0.17149 0.15296 0.0
C1020 C 0.26999 0.16989 0.6339 0.0
N1021 N 0.29054 0.16681 0.71427 0.0
C1022 C 0.2835 0.157 0.69849 0.0
C1023 C 0.28537 0.14872 0.7031 0.0
C1024 C 0.29436 0.15035 0.72589 0.0
C1025 C 0.30125 0.16036 0.74444 0.0
C1026 C 0.29923 0.16854 0.73784 0.0
Zn1027 Zn 0.28538 0.17733 0.71262 0.0
C1028 C 0.29582 0.19526 0.65059 0.0
N1029 N 0.26788 0.19318 0.71258 0.0
C1030 C 0.25724 0.18747 0.71097 0.0
C1031 C 0.27284 0.20373 0.71922 0.0
C1032 C 0.26707 0.20883 0.72596 0.0
C1033 C 0.25605 0.20306 0.72603 0.0
C1034 C 0.25119 0.19225 0.71743 0.0
Zn1035 Zn 0.27598 0.18497 0.71203 0.0
O1036 O 0.2782 0.17063 0.65067 0.0
C1037 C 0.26644 0.16659 0.77447 0.0
O1038 O 0.26576 0.17445 0.65499 0.0
H1039 H 0.28129 0.20816 0.72086 0.0
H1040 H 0.27614 0.15532 0.68342 0.0
H1041 H 0.25339 0.17909 0.70607 0.0
O1042 O 0.27337 0.16584 0.75217 0.0
O1043 O 0.26545 0.17456 0.76737 0.0
H1044 H 0.30451 0.17621 0.75193 0.0
O1045 O 0.28664 0.19518 0.76665 0.0
O1046 O 0.29325 0.18482 0.77439 0.0
O1047 O 0.28719 0.19513 0.65829 0.0
O1048 O 0.29776 0.18886 0.67223 0.0
C1049 C 0.29281 0.19281 0.78768 0.0
H1050 H 0.27991 0.14116 0.68837 0.0
H1051 H 0.30841 0.162 0.76191 0.0
H1052 H 0.27122 0.21716 0.73284 0.0
H1053 H 0.24275 0.18745 0.71623 0.0
C1054 C 0.83222 0.10294 0.64635 0.0
N1055 N 0.83232 0.12708 0.70631 0.0
C1056 C 0.84265 0.13027 0.71357 0.0
C1057 C 0.85051 0.13964 0.69526 0.0
C1058 C 0.84782 0.14592 0.66921 0.0
C1059 C 0.8371 0.14279 0.66466 0.0
C1060 C 0.82946 0.13328 0.68332 0.0
Zn1061 Zn 0.82237 0.11135 0.7124 0.0
C1062 C 0.80561 0.10264 0.63908 0.0
N1063 N 0.8063 0.07773 0.71477 0.0
C1064 C 0.81233 0.07318 0.71923 0.0
C1065 C 0.79567 0.0718 0.7161 0.0
C1066 C 0.79077 0.06094 0.72328 0.0
C1067 C 0.79685 0.05614 0.7299 0.0
C1068 C 0.80777 0.06242 0.72715 0.0
Zn1069 Zn 0.81414 0.09399 0.71073 0.0
O1070 O 0.83283 0.11066 0.66765 0.0
C1071 C 0.83076 0.10346 0.78525 0.0
O1072 O 0.82453 0.09386 0.65508 0.0
H1073 H 0.79099 0.07552 0.71269 0.0
H1074 H 0.84497 0.12519 0.73014 0.0
H1075 H 0.82076 0.07796 0.71773 0.0
O1076 O 0.83081 0.11147 0.76991 0.0
O1077 O 0.82486 0.09464 0.76608 0.0
H1078 H 0.82127 0.13063 0.67733 0.0
O1079 O 0.80407 0.09504 0.76468 0.0
O1080 O 0.81197 0.11226 0.75858 0.0
O1081 O 0.80363 0.09393 0.65715 0.0
O1082 O 0.81331 0.1111 0.65419 0.0
C1083 C 0.80497 0.10379 0.77721 0.0
H1084 H 0.85861 0.14184 0.70064 0.0
H1085 H 0.83458 0.14763 0.64691 0.0
H1086 H 0.78232 0.0564 0.72528 0.0
H1087 H 0.81277 0.05905 0.73137 0.0
C1088 C 0.89508 0.72987 0.64171 0.0
N1089 N 0.87326 0.70956 0.72902 0.0
C1090 C 0.8711 0.71743 0.72054 0.0
C1091 C 0.86102 0.71574 0.72349 0.0
C1092 C 0.85303 0.70598 0.73718 0.0
C1093 C 0.85553 0.69827 0.75069 0.0
C1094 C 0.86575 0.70019 0.7457 0.0
Zn1095 Zn 0.88874 0.71415 0.72163 0.0
C1096 C 0.89492 0.704 0.6507 0.0
N1097 N 0.922 0.73204 0.70616 0.0
C1098 C 0.92693 0.74267 0.70766 0.0
C1099 C 0.9276 0.727 0.70785 0.0
C1100 C 0.93852 0.73269 0.71304 0.0
C1101 C 0.94378 0.74368 0.71725 0.0
C1102 C 0.93778 0.74863 0.71344 0.0
Zn1103 Zn 0.90579 0.7241 0.71105 0.0
O1104 O 0.88836 0.72213 0.66439 0.0
C1105 C 0.89843 0.73336 0.78268 0.0
O1106 O 0.90461 0.73401 0.65457 0.0
H1107 H 0.92357 0.71855 0.70687 0.0
H1108 H 0.87718 0.72518 0.71094 0.0
H1109 H 0.92238 0.74656 0.70664 0.0
O1110 O 0.89028 0.72553 0.76782 0.0
O1111 O 0.9072 0.73528 0.76613 0.0
H1112 H 0.86765 0.6942 0.75439 0.0
O1113 O 0.90616 0.71365 0.76566 0.0
O1114 O 0.88913 0.70561 0.77806 0.0
O1115 O 0.90364 0.71246 0.65751 0.0
O1116 O 0.88691 0.70219 0.67474 0.0
C1117 C 0.89808 0.70688 0.78804 0.0
H1118 H 0.8594 0.72184 0.71295 0.0
H1119 H 0.84951 0.69057 0.76177 0.0
H1120 H 0.94275 0.72846 0.71468 0.0
H1121 H 0.9413 0.75702 0.71708 0.0
C1122 C 0.83104 0.60325 0.26563 0.0
N1123 N 0.8334 0.62804 0.20144 0.0
C1124 C 0.82316 0.62144 0.18961 0.0
C1125 C 0.81532 0.62343 0.20383 0.0
C1126 C 0.81794 0.63218 0.23128 0.0
C1127 C 0.82858 0.63908 0.24177 0.0
C1128 C 0.83621 0.63688 0.2262 0.0
Zn1129 Zn 0.84291 0.6217 0.1993 0.0
C1130 C 0.85833 0.62902 0.27801 0.0
N1131 N 0.85713 0.60239 0.20524 0.0
C1132 C 0.85113 0.59188 0.19805 0.0
C1133 C 0.86776 0.607 0.20654 0.0
C1134 C 0.8727 0.60106 0.19945 0.0
C1135 C 0.86669 0.59027 0.19012 0.0
C1136 C 0.85574 0.5857 0.19013 0.0
Zn1137 Zn 0.84965 0.61133 0.20711 0.0
O1138 O 0.83151 0.61061 0.24165 0.0
C1139 C 0.83421 0.60519 0.12724 0.0
O1140 O 0.83836 0.6011 0.26115 0.0
H1141 H 0.87246 0.61536 0.21174 0.0
H1142 H 0.82079 0.61414 0.17211 0.0
H1143 H 0.84271 0.58829 0.19717 0.0
O1144 O 0.83517 0.61381 0.13953 0.0
O1145 O 0.83894 0.60143 0.15045 0.0
H1146 H 0.84429 0.64199 0.23581 0.0
O1147 O 0.8606 0.62227 0.15366 0.0
O1148 O 0.85431 0.63304 0.15739 0.0
O1149 O 0.85993 0.62171 0.2637 0.0
O1150 O 0.85125 0.63015 0.25844 0.0
C1151 C 0.86096 0.63079 0.1411 0.0
H1152 H 0.80728 0.61807 0.19423 0.0
H1153 H 0.83105 0.6462 0.26134 0.0
H1154 H 0.88116 0.60496 0.19953 0.0
H1155 H 0.85076 0.57741 0.18375 0.0
C1156 C 0.39738 0.23316 0.28043 0.0
N1157 N 0.37431 0.20847 0.2116 0.0
C1158 C 0.37557 0.2043 0.25173 0.0
C1159 C 0.37653 0.19538 0.25057 0.0
C1160 C 0.37535 0.19006 0.20808 0.0
C1161 C 0.37412 0.19471 0.16715 0.0
C1162 C 0.37343 0.20376 0.16985 0.0
Zn1163 Zn 0.37981 0.22413 0.20997 0.0
C1164 C 0.37036 0.23195 0.27889 0.0
N1165 N 0.39659 0.25767 0.20629 0.0
C1166 C 0.40722 0.26257 0.20475 0.0
C1167 C 0.39152 0.26317 0.20089 0.0
C1168 C 0.39719 0.27399 0.1925 0.0
C1169 C 0.40819 0.27921 0.18945 0.0
C1170 C 0.41317 0.27333 0.19639 0.0
Zn1171 Zn 0.38875 0.2415 0.21005 0.0
O1172 O 0.39008 0.22521 0.26116 0.0
C1173 C 0.3971 0.23242 0.13979 0.0
O1174 O 0.39948 0.24216 0.26598 0.0
H1175 H 0.38307 0.25914 0.20191 0.0
H1176 H 0.3763 0.20813 0.28473 0.0
H1177 H 0.41112 0.25807 0.20846 0.0
O1178 O 0.3898 0.22442 0.15878 0.0
O1179 O 0.39906 0.2414 0.15387 0.0
H1180 H 0.37285 0.20738 0.1381 0.0
O1181 O 0.37758 0.24028 0.15598 0.0
O1182 O 0.36922 0.22308 0.15852 0.0
O1183 O 0.37785 0.24082 0.26506 0.0
O1184 O 0.36942 0.22359 0.26138 0.0
C1185 C 0.37013 0.23147 0.14162 0.0
H1186 H 0.37764 0.19247 0.28336 0.0
H1187 H 0.37336 0.19133 0.13298 0.0
H1188 H 0.39299 0.27819 0.18805 0.0
H1189 H 0.42158 0.2769 0.1937 0.0
C1190 C 0.76599 0.16692 0.28711 0.0
N1191 N 0.79276 0.17043 0.2379 0.0
C1192 C 0.7936 0.18176 0.24056 0.0
C1193 C 0.80409 0.19245 0.26572 0.0
C1194 C 0.81491 0.189 0.26909 0.0
C1195 C 0.81235 0.17512 0.28322 0.0
C1196 C 0.80052 0.16655 0.25697 0.0
Zn1197 Zn 0.77733 0.15967 0.22079 0.0
C1198 C 0.76772 0.14144 0.28371 0.0
N1199 N 0.7436 0.14295 0.20091 0.0
C1200 C 0.73863 0.14858 0.1957 0.0
C1201 C 0.73814 0.13233 0.19683 0.0
C1202 C 0.72734 0.12704 0.18702 0.0
C1203 C 0.72204 0.13268 0.18095 0.0
C1204 C 0.7279 0.14362 0.18569 0.0
Zn1205 Zn 0.75981 0.15153 0.21312 0.0
O1206 O 0.77423 0.16724 0.27354 0.0
C1207 C 0.77065 0.16953 0.14684 0.0
O1208 O 0.75742 0.1608 0.26669 0.0
H1209 H 0.74217 0.12795 0.20074 0.0
H1210 H 0.7873 0.18284 0.22841 0.0
H1211 H 0.74301 0.157 0.19906 0.0
O1212 O 0.77823 0.17 0.16923 0.0
O1213 O 0.76136 0.16256 0.15776 0.0
H1214 H 0.79822 0.15838 0.2544 0.0
O1215 O 0.76291 0.14265 0.16065 0.0
O1216 O 0.78015 0.15148 0.168 0.0
O1217 O 0.7592 0.14059 0.26784 0.0
O1218 O 0.77645 0.14889 0.26965 0.0
C1219 C 0.77194 0.14428 0.14809 0.0
H1220 H 0.80544 0.20027 0.26031 0.0
H1221 H 0.8184 0.17318 0.28926 0.0
H1222 H 0.72325 0.11861 0.18328 0.0
H1223 H 0.72423 0.14835 0.18213 0.0
H1224 H 0.13652 0.42542 0.97084 0.0
H1225 H 0.12779 0.43529 0.9914 0.0
H1226 H 0.10865 0.42361 0.86816 0.0
H1227 H 0.11712 0.41348 0.84835 0.0
H1228 H 0.12579 0.45058 0.95125 0.0
H1229 H 0.08636 0.41563 0.96402 0.0
H1230 H 0.09801 0.41467 0.95854 0.0
H1231 H 0.09215 0.41683 0.90779 0.0
C1232 C 0.13046 0.42497 0.94806 0.0
C1233 C 0.12743 0.41852 0.90823 0.0
C1234 C 0.12545 0.43062 0.9599 0.0
C1235 C 0.11732 0.43003 0.93213 0.0
C1236 C 0.1146 0.42394 0.89126 0.0
H1237 H 0.07491 0.45482 0.93819 0.0
H1238 H 0.08525 0.4465 0.92017 0.0
C1239 C 0.1195 0.41817 0.87978 0.0
C1240 C 0.11163 0.43568 0.94596 0.0
H1241 H 0.08716 0.43209 0.96523 0.0
C1242 C 0.11734 0.44652 0.95451 0.0
C1243 C 0.10059 0.43044 0.95078 0.0
C1244 C 0.09393 0.41874 0.9453 0.0
C1245 C 0.11235 0.45227 0.96594 0.0
C1246 C 0.10128 0.44704 0.96974 0.0
C1247 C 0.09561 0.43618 0.96199 0.0
C1248 C 0.09532 0.45259 0.98056 0.0
C1249 C 0.119 0.46394 0.97245 0.0
C1250 C 0.09744 0.45892 0.0248 0.0
C1251 C 0.09158 0.46381 0.03488 0.0
C1252 C 0.08329 0.46239 0.00568 0.0
C1253 C 0.08113 0.45599 0.96175 0.0
C1254 C 0.08708 0.45124 0.95133 0.0
H1255 H 0.12677 0.46709 0.9555 0.0
H1256 H 0.11509 0.46809 0.95808 0.0
H1257 H 0.12037 0.46579 0.01435 0.0
H1258 H 0.1035 0.45987 0.04889 0.0
H1259 H 0.09336 0.46851 0.06615 0.0
H1260 H 0.59422 0.70739 0.8743 0.0
H1261 H 0.58402 0.68892 0.89676 0.0
H1262 H 0.56095 0.69454 0.96123 0.0
H1263 H 0.57113 0.71302 0.9398 0.0
H1264 H 0.5692 0.68314 0.02175 0.0
H1265 H 0.5543 0.66613 0.84213 0.0
H1266 H 0.56785 0.67617 0.84626 0.0
H1267 H 0.55783 0.67938 0.85723 0.0
C1268 C 0.587 0.70474 0.89338 0.0
C1269 C 0.58354 0.71178 0.90508 0.0
C1270 C 0.58113 0.69414 0.90585 0.0
C1271 C 0.57169 0.69034 0.93041 0.0
C1272 C 0.56819 0.6973 0.94217 0.0
H1273 H 0.5264 0.62415 0.97651 0.0
H1274 H 0.53477 0.64275 0.95802 0.0
C1275 C 0.57401 0.70787 0.92952 0.0
C1276 C 0.56564 0.67918 0.94518 0.0
H1277 H 0.55114 0.65426 0.90336 0.0
C1278 C 0.56522 0.67675 0.99274 0.0
C1279 C 0.56029 0.67098 0.91277 0.0
C1280 C 0.55998 0.67321 0.86169 0.0
C1281 C 0.55986 0.66641 0.01269 0.0
C1282 C 0.55488 0.65805 0.97592 0.0
C1283 C 0.55505 0.66054 0.92845 0.0
C1284 C 0.5496 0.6468 0.98995 0.0
C1285 C 0.55941 0.6644 0.06444 0.0
C1286 C 0.55509 0.64286 0.01843 0.0
C1287 C 0.55025 0.63222 0.02985 0.0
C1288 C 0.53984 0.62524 0.01655 0.0
C1289 C 0.53435 0.62923 0.98813 0.0
C1290 C 0.53918 0.6399 0.97704 0.0
H1291 H 0.56052 0.67128 0.08478 0.0
H1292 H 0.55184 0.65751 0.07464 0.0
H1293 H 0.5658 0.66287 0.07409 0.0
H1294 H 0.56319 0.64793 0.028 0.0
H1295 H 0.55472 0.62947 0.04907 0.0
H1296 H 0.37299 0.92855 0.04723 0.0
H1297 H 0.35449 0.91851 0.0259 0.0
H1298 H 0.35993 0.89595 0.95023 0.0
H1299 H 0.37848 0.90604 0.9703 0.0
H1300 H 0.34621 0.91354 0.92905 0.0
H1301 H 0.33413 0.87754 0.03694 0.0
H1302 H 0.34586 0.88976 0.04975 0.0
H1303 H 0.3456 0.88182 0.99737 0.0
C1304 C 0.37032 0.92151 0.02674 0.0
C1305 C 0.37738 0.91824 0.01254 0.0
C1306 C 0.35968 0.91572 0.01482 0.0
C1307 C 0.35574 0.90636 0.98473 0.0
C1308 C 0.36269 0.90297 0.97101 0.0
H1309 H 0.29354 0.86489 0.8646 0.0
H1310 H 0.31208 0.87334 0.88564 0.0
C1311 C 0.37335 0.90877 0.9827 0.0
C1312 C 0.34451 0.90058 0.97005 0.0
H1313 H 0.32148 0.8774 0.98196 0.0
C1314 C 0.34081 0.90566 0.94079 0.0
C1315 C 0.33745 0.89022 0.98483 0.0
C1316 C 0.34089 0.88454 0.02128 0.0
C1317 C 0.3303 0.9007 0.92604 0.0
C1318 C 0.3232 0.89044 0.94153 0.0
C1319 C 0.32691 0.88527 0.97017 0.0
C1320 C 0.31184 0.88514 0.92937 0.0
C1321 C 0.32688 0.90641 0.8933 0.0
C1322 C 0.30547 0.88886 0.94726 0.0
C1323 C 0.29481 0.88397 0.93585 0.0
C1324 C 0.29021 0.87521 0.90595 0.0
C1325 C 0.29667 0.8715 0.88816 0.0
C1326 C 0.30732 0.87636 0.89997 0.0
H1327 H 0.33365 0.91333 0.87717 0.0
H1328 H 0.32186 0.9011 0.86516 0.0
H1329 H 0.32221 0.90913 0.91288 0.0
H1330 H 0.30873 0.89554 0.97051 0.0
H1331 H 0.29015 0.88697 0.95128 0.0
H1332 H 0.46743 0.0962 0.52585 0.0
H1333 H 0.45901 0.10644 0.5453 0.0
H1334 H 0.4405 0.08378 0.65019 0.0
H1335 H 0.44891 0.07356 0.63125 0.0
H1336 H 0.43731 0.10036 0.54369 0.0
H1337 H 0.45414 0.11209 0.72079 0.0
H1338 H 0.45947 0.10723 0.67727 0.0
H1339 H 0.44811 0.09827 0.71012 0.0
C1340 C 0.46161 0.09342 0.55326 0.0
C1341 C 0.45889 0.08404 0.57704 0.0
C1342 C 0.45677 0.09927 0.5642 0.0
C1343 C 0.4492 0.09598 0.59968 0.0
C1344 C 0.44641 0.08658 0.62315 0.0
H1345 H 0.4064 0.11384 0.71783 0.0
H1346 H 0.41671 0.10563 0.69593 0.0
C1347 C 0.45116 0.08068 0.61193 0.0
C1348 C 0.4441 0.10222 0.61188 0.0
H1349 H 0.43992 0.11481 0.70244 0.0
C1350 C 0.43795 0.10358 0.57828 0.0
C1351 C 0.44501 0.10657 0.65684 0.0
C1352 C 0.45212 0.10608 0.69328 0.0
C1353 C 0.43236 0.10876 0.58904 0.0
C1354 C 0.43296 0.11274 0.63455 0.0
C1355 C 0.43933 0.11163 0.66777 0.0
C1356 C 0.42688 0.11792 0.64846 0.0
C1357 C 0.42562 0.10969 0.55204 0.0
C1358 C 0.42925 0.12764 0.62962 0.0
C1359 C 0.4234 0.13238 0.64227 0.0
C1360 C 0.415 0.12749 0.67393 0.0
C1361 C 0.41271 0.11778 0.693 0.0
C1362 C 0.41864 0.1131 0.68069 0.0
H1363 H 0.42459 0.1047 0.52126 0.0
H1364 H 0.4178 0.10749 0.56638 0.0
H1365 H 0.42934 0.11794 0.54018 0.0
H1366 H 0.43562 0.13157 0.60505 0.0
H1367 H 0.42536 0.13981 0.62654 0.0
H1368 H 0.92373 0.37209 0.51892 0.0
H1369 H 0.91378 0.35368 0.5424 0.0
H1370 H 0.89548 0.36082 0.63662 0.0
H1371 H 0.90532 0.37919 0.61317 0.0
H1372 H 0.91227 0.34527 0.62891 0.0
H1373 H 0.87263 0.33562 0.56996 0.0
H1374 H 0.88429 0.34737 0.55161 0.0
H1375 H 0.87882 0.34666 0.60841 0.0
C1376 C 0.91757 0.36975 0.54457 0.0
C1377 C 0.91532 0.37717 0.5639 0.0
C1378 C 0.91186 0.3592 0.55787 0.0
C1379 C 0.90374 0.35577 0.59082 0.0
C1380 C 0.90148 0.36316 0.61023 0.0
H1381 H 0.86346 0.29418 0.71923 0.0
H1382 H 0.87221 0.3128 0.69877 0.0
C1383 C 0.90716 0.3737 0.59678 0.0
C1384 C 0.89805 0.3446 0.60644 0.0
H1385 H 0.87381 0.3227 0.61427 0.0
C1386 C 0.90387 0.34034 0.62544 0.0
C1387 C 0.88704 0.33815 0.60271 0.0
C1388 C 0.88032 0.34213 0.58171 0.0
C1389 C 0.89904 0.32988 0.64068 0.0
C1390 C 0.88808 0.32335 0.63589 0.0
C1391 C 0.88221 0.32766 0.61775 0.0
C1392 C 0.88266 0.31199 0.64821 0.0
C1393 C 0.90574 0.32598 0.66268 0.0
C1394 C 0.88546 0.30525 0.62621 0.0
C1395 C 0.88048 0.29461 0.63782 0.0
C1396 C 0.87247 0.29037 0.67151 0.0
C1397 C 0.86954 0.29712 0.69298 0.0
C1398 C 0.87457 0.30779 0.6814 0.0
H1399 H 0.91319 0.33253 0.67633 0.0
H1400 H 0.90154 0.32047 0.69169 0.0
H1401 H 0.90771 0.3218 0.63601 0.0
H1402 H 0.89146 0.3082 0.59958 0.0
H1403 H 0.88278 0.28965 0.61968 0.0
H1404 H 0.62715 0.5521 0.52148 0.0
H1405 H 0.64574 0.56086 0.54146 0.0
H1406 H 0.63921 0.53811 0.64955 0.0
H1407 H 0.62061 0.52926 0.62959 0.0
H1408 H 0.65448 0.57004 0.6241 0.0
H1409 H 0.66424 0.53905 0.58679 0.0
H1410 H 0.65233 0.53833 0.56632 0.0
H1411 H 0.65337 0.53506 0.62571 0.0
C1412 C 0.62966 0.54893 0.54944 0.0
C1413 C 0.62234 0.53998 0.57403 0.0
C1414 C 0.64032 0.55393 0.5607 0.0
C1415 C 0.64395 0.55012 0.59677 0.0
C1416 C 0.63669 0.54109 0.62091 0.0
H1417 H 0.70526 0.57472 0.72974 0.0
H1418 H 0.68673 0.56445 0.70853 0.0
C1419 C 0.62602 0.53604 0.6095 0.0
C1420 C 0.65519 0.55606 0.61103 0.0
H1421 H 0.67721 0.55422 0.62591 0.0
C1422 C 0.65945 0.56658 0.62422 0.0
C1423 C 0.66169 0.55155 0.61169 0.0
C1424 C 0.65773 0.54041 0.59649 0.0
C1425 C 0.66994 0.57267 0.63831 0.0
C1426 C 0.67649 0.56822 0.63845 0.0
C1427 C 0.67222 0.55766 0.62575 0.0
C1428 C 0.68781 0.57445 0.65116 0.0
C1429 C 0.67384 0.58378 0.65391 0.0
C1430 C 0.69466 0.58347 0.62582 0.0
C1431 C 0.70526 0.58938 0.63797 0.0
C1432 C 0.70932 0.58637 0.67548 0.0
C1433 C 0.70245 0.57726 0.70052 0.0
C1434 C 0.69183 0.57137 0.68846 0.0
H1435 H 0.6673 0.58503 0.66423 0.0
H1436 H 0.67931 0.58586 0.68381 0.0
H1437 H 0.67808 0.58918 0.62468 0.0
H1438 H 0.69183 0.58588 0.59617 0.0
H1439 H 0.71033 0.59619 0.61717 0.0
H1440 H 0.88341 0.59037 0.23356 0.0
H1441 H 0.8918 0.5801 0.21358 0.0
H1442 H 0.86995 0.56549 0.10091 0.0
H1443 H 0.86149 0.57565 0.12077 0.0
H1444 H 0.88108 0.55596 0.20218 0.0
H1445 H 0.90094 0.57922 0.04374 0.0
H1446 H 0.8968 0.58445 0.09082 0.0
H1447 H 0.88731 0.57511 0.05133 0.0
C1448 C 0.8804 0.58499 0.20446 0.0
C1449 C 0.87176 0.58388 0.1788 0.0
C1450 C 0.88518 0.57908 0.19322 0.0
C1451 C 0.88157 0.57204 0.15554 0.0
C1452 C 0.87292 0.57087 0.13002 0.0
H1453 H 0.90432 0.53314 0.02489 0.0
H1454 H 0.89399 0.5414 0.04623 0.0
C1455 C 0.86805 0.57667 0.14161 0.0
C1456 C 0.88693 0.56608 0.14236 0.0
H1457 H 0.90289 0.56463 0.0596 0.0
C1458 C 0.88587 0.55788 0.17109 0.0
C1459 C 0.89311 0.56848 0.10154 0.0
C1460 C 0.89471 0.57732 0.07 0.0
C1461 C 0.8908 0.55206 0.16002 0.0
C1462 C 0.89712 0.55457 0.11957 0.0
C1463 C 0.89807 0.56268 0.09058 0.0
C1464 C 0.90309 0.54914 0.10762 0.0
C1465 C 0.88908 0.54311 0.19117 0.0
C1466 C 0.91167 0.55072 0.13484 0.0
C1467 C 0.91767 0.54613 0.12237 0.0
C1468 C 0.91518 0.53972 0.08255 0.0
C1469 C 0.90644 0.53797 0.05584 0.0
C1470 C 0.90054 0.54272 0.06794 0.0
H1471 H 0.88246 0.54085 0.21565 0.0
H1472 H 0.8875 0.53617 0.16998 0.0
H1473 H 0.89626 0.54544 0.21189 0.0
H1474 H 0.91384 0.55567 0.16545 0.0
H1475 H 0.92426 0.54756 0.14407 0.0
H1476 H 0.40318 0.29032 0.12796 0.0
H1477 H 0.41357 0.30881 0.10705 0.0
H1478 H 0.43787 0.31244 0.20141 0.0
H1479 H 0.42747 0.294 0.22325 0.0
H1480 H 0.42093 0.32631 0.16673 0.0
H1481 H 0.45391 0.32521 0.07899 0.0
H1482 H 0.44152 0.31354 0.09019 0.0
H1483 H 0.45081 0.31966 0.13655 0.0
C1484 C 0.41067 0.29505 0.14475 0.0
C1485 C 0.41444 0.29059 0.17744 0.0
C1486 C 0.41666 0.30562 0.13241 0.0
C1487 C 0.42658 0.312 0.15209 0.0
C1488 C 0.43035 0.30764 0.18495 0.0
H1489 H 0.47145 0.37897 0.12778 0.0
H1490 H 0.46261 0.36032 0.14722 0.0
C1491 C 0.42436 0.29706 0.19745 0.0
C1492 C 0.43274 0.3233 0.13959 0.0
H1493 H 0.45556 0.34189 0.08923 0.0
C1494 C 0.42848 0.3297 0.14962 0.0
C1495 C 0.44265 0.32775 0.11763 0.0
C1496 C 0.44749 0.3212 0.10479 0.0
C1497 C 0.43384 0.34041 0.13857 0.0
C1498 C 0.44366 0.34484 0.11594 0.0
C1499 C 0.44801 0.33848 0.10639 0.0
C1500 C 0.44941 0.35604 0.10165 0.0
C1501 C 0.42904 0.34697 0.152 0.0
C1502 C 0.44506 0.35982 0.06869 0.0
C1503 C 0.45011 0.37046 0.05732 0.0
C1504 C 0.45966 0.37761 0.07852 0.0
C1505 C 0.46416 0.37373 0.11048 0.0
C1506 C 0.45909 0.36306 0.12179 0.0
H1507 H 0.42283 0.34304 0.17877 0.0
H1508 H 0.43508 0.3547 0.16568 0.0
H1509 H 0.42546 0.34834 0.12071 0.0
H1510 H 0.43771 0.35451 0.05195 0.0
H1511 H 0.44653 0.3731 0.03179 0.0
H1512 H 0.62206 0.07221 0.13073 0.0
H1513 H 0.64073 0.08224 0.14879 0.0
H1514 H 0.64446 0.10619 0.05203 0.0
H1515 H 0.6258 0.09618 0.03341 0.0
H1516 H 0.65766 0.08829 0.09068 0.0
H1517 H 0.65913 0.12354 0.16696 0.0
H1518 H 0.64697 0.11151 0.15757 0.0
H1519 H 0.65355 0.12017 0.10959 0.0
C1520 C 0.62683 0.07957 0.11289 0.0
C1521 C 0.6223 0.08331 0.08042 0.0
C1522 C 0.63754 0.08535 0.12357 0.0
C1523 C 0.64407 0.09509 0.1024 0.0
C1524 C 0.63961 0.09885 0.06982 0.0
H1525 H 0.71169 0.13922 0.1218 0.0
H1526 H 0.69303 0.13039 0.10303 0.0
C1527 C 0.62889 0.09307 0.0591 0.0
C1528 C 0.65556 0.10102 0.11319 0.0
H1529 H 0.67535 0.12418 0.15623 0.0
C1530 C 0.6615 0.09612 0.10521 0.0
C1531 C 0.66068 0.11131 0.13172 0.0
C1532 C 0.65476 0.11694 0.14239 0.0
C1533 C 0.67231 0.10118 0.11483 0.0
C1534 C 0.6774 0.11138 0.13424 0.0
C1535 C 0.6715 0.11635 0.14167 0.0
C1536 C 0.68879 0.11695 0.14706 0.0
C1537 C 0.67823 0.09562 0.10294 0.0
C1538 C 0.69274 0.11251 0.17884 0.0
C1539 C 0.70345 0.11756 0.1897 0.0
C1540 C 0.71055 0.12727 0.16951 0.0
C1541 C 0.70653 0.13181 0.13844 0.0
C1542 C 0.69581 0.12673 0.12749 0.0
H1543 H 0.67403 0.08941 0.07647 0.0
H1544 H 0.68616 0.10119 0.08945 0.0
H1545 H 0.67909 0.09186 0.13483 0.0
H1546 H 0.6875 0.10513 0.19555 0.0
H1547 H 0.70615 0.11391 0.21454 0.0
H1548 H 0.58345 0.87999 0.33681 0.0
H1549 H 0.57314 0.88832 0.35808 0.0
H1550 H 0.57203 0.87859 0.50071 0.0
H1551 H 0.58234 0.87032 0.47944 0.0
H1552 H 0.55289 0.87986 0.4009 0.0
H1553 H 0.58414 0.91039 0.51139 0.0
H1554 H 0.58663 0.90259 0.47056 0.0
H1555 H 0.58064 0.89719 0.5259 0.0
C1556 C 0.58103 0.87971 0.37268 0.0
C1557 C 0.5838 0.87467 0.40667 0.0
C1558 C 0.57511 0.88441 0.38479 0.0
C1559 C 0.57193 0.88424 0.43119 0.0
C1560 C 0.57454 0.87901 0.46491 0.0
H1561 H 0.53541 0.90873 0.56822 0.0
H1562 H 0.54356 0.89828 0.54718 0.0
C1563 C 0.58041 0.87428 0.45277 0.0
C1564 C 0.56608 0.88968 0.44457 0.0
H1565 H 0.56773 0.90958 0.51212 0.0
C1566 C 0.55616 0.88637 0.42509 0.0
C1567 C 0.57029 0.89818 0.4763 0.0
C1568 C 0.58104 0.90239 0.49703 0.0
C1569 C 0.55037 0.89129 0.43677 0.0
C1570 C 0.55462 0.89978 0.46834 0.0
C1571 C 0.56448 0.90304 0.48803 0.0
C1572 C 0.54917 0.90567 0.48011 0.0
C1573 C 0.53969 0.88735 0.41575 0.0
C1574 C 0.54966 0.91333 0.44951 0.0
C1575 C 0.54517 0.91942 0.46174 0.0
C1576 C 0.53999 0.91791 0.50468 0.0
C1577 C 0.53934 0.91008 0.53491 0.0
C1578 C 0.54398 0.9041 0.52294 0.0
H1579 H 0.53698 0.87998 0.39585 0.0
H1580 H 0.53391 0.88598 0.44361 0.0
H1581 H 0.5399 0.89338 0.39192 0.0
H1582 H 0.55363 0.91467 0.41631 0.0
H1583 H 0.54565 0.92525 0.43738 0.0
H1584 H 0.07195 0.62955 0.52674 0.0
H1585 H 0.08226 0.64794 0.50517 0.0
H1586 H 0.10823 0.64368 0.46939 0.0
H1587 H 0.09774 0.62513 0.48673 0.0
H1588 H 0.09971 0.66373 0.53713 0.0
H1589 H 0.10692 0.65743 0.35323 0.0
H1590 H 0.09789 0.64682 0.39 0.0
H1591 H 0.11176 0.65183 0.39481 0.0
C1592 C 0.07977 0.63241 0.51335 0.0
C1593 C 0.08385 0.62564 0.50809 0.0
C1594 C 0.08573 0.64302 0.5015 0.0
C1595 C 0.09598 0.64723 0.48446 0.0
C1596 C 0.10024 0.64062 0.48095 0.0
H1597 H 0.13992 0.71466 0.45108 0.0
H1598 H 0.13188 0.6962 0.47308 0.0
C1599 C 0.09423 0.62997 0.49191 0.0
C1600 C 0.10214 0.65851 0.47064 0.0
H1601 H 0.11539 0.67496 0.3799 0.0
C1602 C 0.10314 0.66616 0.50274 0.0
C1603 C 0.10665 0.66175 0.42568 0.0
C1604 C 0.10568 0.65403 0.3888 0.0
C1605 C 0.10839 0.67685 0.4911 0.0
C1606 C 0.11283 0.68005 0.44626 0.0
C1607 C 0.11197 0.67247 0.41428 0.0
C1608 C 0.11798 0.69119 0.43137 0.0
C1609 C 0.10893 0.68469 0.5263 0.0
C1610 C 0.11293 0.69449 0.3999 0.0
C1611 C 0.11751 0.70504 0.38712 0.0
C1612 C 0.1273 0.71254 0.40524 0.0
C1613 C 0.13243 0.70914 0.43605 0.0
C1614 C 0.12781 0.69858 0.44899 0.0
H1615 H 0.10427 0.68087 0.55808 0.0
H1616 H 0.11719 0.68993 0.53675 0.0
H1617 H 0.10603 0.68964 0.51051 0.0
H1618 H 0.10536 0.6889 0.38573 0.0
H1619 H 0.11338 0.70731 0.36288 0.0
H1620 H 0.37194 0.44929 0.56225 0.0
H1621 H 0.35339 0.44097 0.54102 0.0
H1622 H 0.36069 0.46476 0.43725 0.0
H1623 H 0.37924 0.47304 0.45773 0.0
H1624 H 0.33955 0.44974 0.53962 0.0
H1625 H 0.34455 0.43677 0.36435 0.0
H1626 H 0.35428 0.44061 0.40966 0.0
H1627 H 0.35306 0.45038 0.37757 0.0
C1628 C 0.36961 0.45273 0.53476 0.0
C1629 C 0.37713 0.46183 0.51162 0.0
C1630 C 0.35899 0.448 0.52285 0.0
C1631 C 0.35564 0.45216 0.48713 0.0
C1632 C 0.36309 0.46133 0.46451 0.0
H1633 H 0.29393 0.43032 0.3601 0.0
H1634 H 0.31246 0.44074 0.38211 0.0
C1635 C 0.37369 0.46611 0.47661 0.0
C1636 C 0.3444 0.44685 0.47324 0.0
H1637 H 0.32767 0.43363 0.38349 0.0
C1638 C 0.33695 0.44621 0.50552 0.0
C1639 C 0.341 0.44229 0.4286 0.0
C1640 C 0.3486 0.44245 0.39302 0.0
C1641 C 0.32622 0.44116 0.49432 0.0
C1642 C 0.32281 0.43646 0.44997 0.0
C1643 C 0.33028 0.43724 0.41745 0.0
C1644 C 0.31151 0.43032 0.43735 0.0
C1645 C 0.31862 0.44103 0.52976 0.0
C1646 C 0.30481 0.42096 0.46075 0.0
C1647 C 0.29427 0.41495 0.44801 0.0
C1648 C 0.29012 0.41819 0.41163 0.0
C1649 C 0.29684 0.42762 0.38841 0.0
C1650 C 0.30743 0.43357 0.40086 0.0
H1651 H 0.32264 0.44705 0.55724 0.0
H1652 H 0.31266 0.44242 0.5127 0.0
H1653 H 0.31449 0.43325 0.5468 0.0
H1654 H 0.30778 0.41822 0.48866 0.0
H1655 H 0.28932 0.40782 0.46706 0.0
H1656 H 0.80528 0.76185 0.28136 0.0
H1657 H 0.79674 0.7718 0.30321 0.0
H1658 H 0.77045 0.75189 0.21595 0.0
H1659 H 0.77893 0.74193 0.19376 0.0
H1660 H 0.78946 0.78307 0.25299 0.0
H1661 H 0.75655 0.74938 0.34171 0.0
H1662 H 0.76833 0.74941 0.32475 0.0
H1663 H 0.75826 0.74661 0.28246 0.0
C1664 C 0.79773 0.75963 0.26634 0.0
C1665 C 0.79278 0.75095 0.23606 0.0
C1666 C 0.79282 0.76533 0.27909 0.0
C1667 C 0.78282 0.76249 0.26213 0.0
C1668 C 0.77802 0.75408 0.23064 0.0
H1669 H 0.7372 0.78275 0.29073 0.0
H1670 H 0.74751 0.77453 0.2707 0.0
C1671 C 0.7829 0.74837 0.21796 0.0
C1672 C 0.77728 0.76814 0.27785 0.0
H1673 H 0.75463 0.76424 0.32879 0.0
C1674 C 0.78187 0.77896 0.2698 0.0
C1675 C 0.76742 0.76286 0.3004 0.0
C1676 C 0.76239 0.75145 0.31333 0.0
C1677 C 0.7767 0.7845 0.28194 0.0
C1678 C 0.76669 0.77912 0.30316 0.0
C1679 C 0.76223 0.76837 0.31207 0.0
C1680 C 0.76056 0.78438 0.31546 0.0
C1681 C 0.78187 0.79601 0.27068 0.0
C1682 C 0.76434 0.79262 0.34789 0.0
C1683 C 0.7584 0.79732 0.35976 0.0
C1684 C 0.74847 0.79387 0.33974 0.0
C1685 C 0.74469 0.78555 0.30756 0.0
C1686 C 0.75064 0.78087 0.29574 0.0
H1687 H 0.78838 0.79845 0.24536 0.0
H1688 H 0.77612 0.798 0.25621 0.0
H1689 H 0.78515 0.8006 0.30313 0.0
H1690 H 0.77185 0.79534 0.36457 0.0
H1691 H 0.76154 0.80357 0.3852 0.0
H1692 H 0.21417 0.95545 0.27867 0.0
H1693 H 0.22234 0.97401 0.25771 0.0
H1694 H 0.20708 0.97925 0.37404 0.0
H1695 H 0.19877 0.96062 0.39497 0.0
H1696 H 0.21168 0.98706 0.241 0.0
H1697 H 0.23969 0.00117 0.38775 0.0
H1698 H 0.23372 0.98695 0.36616 0.0
H1699 H 0.22659 0.99133 0.4011 0.0
C1700 C 0.21258 0.96056 0.29991 0.0
C1701 C 0.2059 0.95655 0.33881 0.0
C1702 C 0.2172 0.97115 0.28769 0.0
C1703 C 0.21541 0.97806 0.31446 0.0
C1704 C 0.20863 0.97409 0.35298 0.0
H1705 H 0.24148 0.04695 0.29849 0.0
H1706 H 0.23107 0.02834 0.31843 0.0
C1707 C 0.20387 0.96343 0.36483 0.0
C1708 C 0.22089 0.98945 0.30275 0.0
H1709 H 0.24034 0.01423 0.33833 0.0
C1710 C 0.21805 0.99279 0.26225 0.0
C1711 C 0.22917 0.99695 0.33056 0.0
C1712 C 0.23269 0.99375 0.37376 0.0
C1713 C 0.22281 0.00437 0.24899 0.0
C1714 C 0.23121 0.01184 0.27641 0.0
C1715 C 0.23394 0.00851 0.31721 0.0
C1716 C 0.23732 0.02312 0.26313 0.0
C1717 C 0.21924 0.00762 0.20614 0.0
C1718 C 0.24437 0.02644 0.22553 0.0
C1719 C 0.25044 0.03711 0.21433 0.0
C1720 C 0.24949 0.04471 0.24014 0.0
C1721 C 0.24235 0.04133 0.27757 0.0
C1722 C 0.23641 0.03068 0.28914 0.0
H1723 H 0.21167 0.00122 0.19269 0.0
H1724 H 0.21839 0.01452 0.21398 0.0
H1725 H 0.22522 0.00992 0.17833 0.0
H1726 H 0.24525 0.02076 0.20511 0.0
H1727 H 0.25578 0.03941 0.18512 0.0
H1728 H 0.95299 0.19302 0.27404 0.0
H1729 H 0.97152 0.20118 0.29428 0.0
H1730 H 0.97765 0.22921 0.22159 0.0
H1731 H 0.95917 0.22106 0.20005 0.0
H1732 H 0.99263 0.22084 0.20568 0.0
H1733 H 0.98576 0.22621 0.3919 0.0
H1734 H 0.97718 0.21381 0.3647 0.0
H1735 H 0.9769 0.22527 0.34621 0.0
C1736 C 0.95826 0.20087 0.26164 0.0
C1737 C 0.95446 0.20636 0.23546 0.0
C1738 C 0.96887 0.20555 0.27368 0.0
C1739 C 0.97597 0.21585 0.2599 0.0
C1740 C 0.97231 0.22127 0.23278 0.0
H1741 H 0.03794 0.26089 0.3692 0.0
H1742 H 0.01971 0.25054 0.34539 0.0
C1743 C 0.96169 0.21661 0.2208 0.0
C1744 C 0.98715 0.22107 0.27481 0.0
H1745 H 0.00439 0.23192 0.36944 0.0
C1746 C 0.99494 0.22325 0.24148 0.0
C1747 C 0.99015 0.22423 0.32149 0.0
C1748 C 0.98211 0.22234 0.35837 0.0
C1749 C 0.00696 0.22858 0.25345 0.0
C1750 C 0.01 0.23177 0.30031 0.0
C1751 C 0.00214 0.22949 0.33362 0.0
C1752 C 0.02123 0.23794 0.31515 0.0
C1753 C 0.0149 0.23099 0.21538 0.0
C1754 C 0.02826 0.23431 0.30705 0.0
C1755 C 0.03884 0.24038 0.31968 0.0
C1756 C 0.04267 0.25018 0.34168 0.0
C1757 C 0.03548 0.25358 0.3513 0.0
C1758 C 0.02495 0.24757 0.3381 0.0
H1759 H 0.01154 0.23059 0.18026 0.0
H1760 H 0.02186 0.23887 0.22003 0.0
H1761 H 0.0175 0.22512 0.21646 0.0
H1762 H 0.0256 0.22679 0.29075 0.0
H1763 H 0.04403 0.23743 0.31124 0.0
H1764 H 0.25968 0.22261 0.70004 0.0
H1765 H 0.2495 0.23101 0.72059 0.0
H1766 H 0.22757 0.20337 0.79581 0.0
H1767 H 0.23784 0.19506 0.7769 0.0
H1768 H 0.22849 0.22498 0.70244 0.0
H1769 H 0.23548 0.2262 0.89318 0.0
H1770 H 0.24296 0.22347 0.85154 0.0
H1771 H 0.22998 0.21345 0.86733 0.0
C1772 C 0.25275 0.21834 0.72136 0.0
C1773 C 0.24967 0.20814 0.73692 0.0
C1774 C 0.24689 0.22314 0.73282 0.0
C1775 C 0.23784 0.21791 0.76044 0.0
C1776 C 0.23462 0.20767 0.77523 0.0
H1777 H 0.19564 0.23804 0.87699 0.0
H1778 H 0.20374 0.22777 0.85338 0.0
C1779 C 0.24046 0.20287 0.76381 0.0
C1780 C 0.23182 0.22318 0.77381 0.0
H1781 H 0.22387 0.23179 0.86757 0.0
C1782 C 0.22752 0.2265 0.73855 0.0
C1783 C 0.23039 0.22507 0.82097 0.0
C1784 C 0.23501 0.22195 0.86051 0.0
C1785 C 0.22186 0.2316 0.7491 0.0
C1786 C 0.22067 0.23372 0.7962 0.0
C1787 C 0.2248 0.23023 0.83148 0.0
C1788 C 0.21551 0.23985 0.80954 0.0
C1789 C 0.21703 0.23449 0.70967 0.0
C1790 C 0.21945 0.25012 0.79325 0.0
C1791 C 0.21481 0.25601 0.80654 0.0
C1792 C 0.20613 0.25181 0.83683 0.0
C1793 C 0.20223 0.24152 0.85329 0.0
C1794 C 0.20689 0.23564 0.83999 0.0
H1795 H 0.21587 0.22963 0.67824 0.0
H1796 H 0.20936 0.23356 0.72004 0.0
H1797 H 0.22231 0.24279 0.7 0.0
H1798 H 0.2262 0.25366 0.77048 0.0
H1799 H 0.21797 0.26382 0.79255 0.0
H1800 H 0.80252 0.04702 0.79835 0.0
H1801 H 0.79415 0.02844 0.81925 0.0
H1802 H 0.77175 0.0209 0.70865 0.0
H1803 H 0.78002 0.03951 0.68783 0.0
H1804 H 0.77116 0.01508 0.84298 0.0
H1805 H 0.78458 0.00051 0.69489 0.0
H1806 H 0.79156 0.01397 0.7141 0.0
H1807 H 0.77983 0.00927 0.68034 0.0
C1808 C 0.79586 0.0414 0.77821 0.0
C1809 C 0.79192 0.04477 0.74146 0.0
C1810 C 0.79107 0.03079 0.79031 0.0
C1811 C 0.78235 0.02327 0.7654 0.0
C1812 C 0.7785 0.02656 0.72821 0.0
H1813 H 0.73846 0.95601 0.78107 0.0
H1814 H 0.74901 0.97462 0.76151 0.0
C1815 C 0.78318 0.0372 0.71654 0.0
C1816 C 0.77697 0.01205 0.77964 0.0
H1817 H 0.77199 0.98677 0.744 0.0
C1818 C 0.77129 0.0091 0.82153 0.0
C1819 C 0.77721 0.00427 0.7518 0.0
C1820 C 0.78368 0.0071 0.70788 0.0
C1821 C 0.76601 0.9976 0.83549 0.0
C1822 C 0.76603 0.98977 0.80706 0.0
C1823 C 0.77189 0.99275 0.7656 0.0
C1824 C 0.75974 0.97843 0.81917 0.0
C1825 C 0.75972 0.99484 0.8799 0.0
C1826 C 0.76228 0.97433 0.858 0.0
C1827 C 0.75627 0.96367 0.86927 0.0
C1828 C 0.74751 0.95686 0.84213 0.0
C1829 C 0.74501 0.96102 0.80323 0.0
C1830 C 0.75109 0.97165 0.79174 0.0
H1831 H 0.75869 0.0025 0.89387 0.0
H1832 H 0.75171 0.98817 0.87394 0.0
H1833 H 0.76351 0.99241 0.90667 0.0
H1834 H 0.76897 0.97938 0.87948 0.0
H1835 H 0.75842 0.96077 0.8995 0.0
H1836 H 0.04422 0.80794 0.80258 0.0
H1837 H 0.02568 0.79961 0.78253 0.0
H1838 H 0.02008 0.77143 0.85255 0.0
H1839 H 0.03851 0.77983 0.87447 0.0
H1840 H 0.01434 0.78255 0.72884 0.0
H1841 H 0.99538 0.7751 0.9046 0.0
H1842 H 0.01049 0.78375 0.89475 0.0
H1843 H 0.00522 0.76982 0.8978 0.0
C1844 C 0.03904 0.80004 0.81463 0.0
C1845 C 0.04294 0.79459 0.84032 0.0
C1846 C 0.02842 0.79525 0.80275 0.0
C1847 C 0.02141 0.78492 0.81642 0.0
C1848 C 0.02525 0.77948 0.8423 0.0
H1849 H 0.95558 0.73781 0.77018 0.0
H1850 H 0.97401 0.74817 0.79111 0.0
C1851 C 0.03586 0.78426 0.85428 0.0
C1852 C 0.01022 0.77963 0.80143 0.0
H1853 H 0.98378 0.76575 0.84182 0.0
C1854 C 0.00794 0.77894 0.75355 0.0
C1855 C 0.00184 0.77499 0.83361 0.0
C1856 C 0.00367 0.77604 0.88557 0.0
C1857 C 0.99627 0.77337 0.73692 0.0
C1858 C 0.98788 0.76844 0.76907 0.0
C1859 C 0.99017 0.76938 0.81703 0.0
C1860 C 0.97672 0.76206 0.75397 0.0
C1861 C 0.99447 0.77256 0.68493 0.0
C1862 C 0.97201 0.76634 0.72581 0.0
C1863 C 0.96147 0.76032 0.71273 0.0
C1864 C 0.95527 0.7499 0.72824 0.0
C1865 C 0.96005 0.74568 0.75655 0.0
C1866 C 0.97061 0.75166 0.76914 0.0
H1867 H 0.00296 0.77424 0.66542 0.0
H1868 H 0.98806 0.76467 0.67496 0.0
H1869 H 0.99226 0.77841 0.67397 0.0
H1870 H 0.97643 0.7744 0.71443 0.0
H1871 H 0.95821 0.76389 0.69053 0.0
H1872 H 0.01534 0.462 0.97852 0.0
H1873 H 0.00244 0.45174 0.91885 0.0
H1874 H 0.02731 0.45827 0.82185 0.0
H1875 H 0.04028 0.46814 0.88268 0.0
H1876 H 0.9993 0.46064 0.84249 0.0
H1877 H 0.00714 0.42825 0.78859 0.0
H1878 H 0.01249 0.4355 0.84192 0.0
H1879 H 0.01862 0.44098 0.78687 0.0
C1880 C 0.01805 0.46101 0.94481 0.0
C1881 C 0.02878 0.46587 0.93512 0.0
C1882 C 0.01067 0.45515 0.91069 0.0
C1883 C 0.01384 0.45418 0.86566 0.0
C1884 C 0.02461 0.45867 0.85646 0.0
H1885 H 0.97887 0.43911 0.60287 0.0
H1886 H 0.99181 0.44254 0.66417 0.0
C1887 C 0.03203 0.46436 0.89115 0.0
C1888 C 0.00588 0.44973 0.82765 0.0
H1889 H 0.99422 0.43119 0.74163 0.0
C1890 C 0.99814 0.45413 0.82086 0.0
C1891 C 0.00447 0.44135 0.79866 0.0
C1892 C 0.01098 0.43617 0.8045 0.0
C1893 C 0.99039 0.45043 0.7863 0.0
C1894 C 0.98881 0.44192 0.75794 0.0
C1895 C 0.99533 0.4376 0.76391 0.0
C1896 C 0.98068 0.43784 0.72079 0.0
C1897 C 0.98411 0.45585 0.77977 0.0
C1898 C 0.97004 0.43361 0.73206 0.0
C1899 C 0.96264 0.43159 0.69703 0.0
C1900 C 0.96578 0.43372 0.65028 0.0
C1901 C 0.97629 0.43733 0.63876 0.0
C1902 C 0.98367 0.4393 0.6737 0.0
H1903 H 0.98796 0.46371 0.79626 0.0
H1904 H 0.98293 0.45675 0.74218 0.0
H1905 H 0.97631 0.45108 0.79615 0.0
H1906 H 0.96756 0.43237 0.76815 0.0
H1907 H 0.95461 0.42896 0.70668 0.0
H1908 H 0.54087 0.55966 0.97797 0.0
H1909 H 0.55104 0.55707 0.91766 0.0
H1910 H 0.5414 0.57238 0.81745 0.0
H1911 H 0.53156 0.57541 0.87878 0.0
H1912 H 0.54214 0.54487 0.84594 0.0
H1913 H 0.57132 0.58383 0.77755 0.0
H1914 H 0.56476 0.58217 0.83271 0.0
H1915 H 0.55828 0.5818 0.77903 0.0
C1916 C 0.54116 0.56273 0.94332 0.0
C1917 C 0.53545 0.56773 0.93292 0.0
C1918 C 0.54696 0.56123 0.90882 0.0
C1919 C 0.54704 0.56452 0.86277 0.0
C1920 C 0.54169 0.56996 0.85276 0.0
H1921 H 0.55459 0.54123 0.60058 0.0
H1922 H 0.552 0.55089 0.66363 0.0
C1923 C 0.53602 0.57166 0.88774 0.0
C1924 C 0.55151 0.56098 0.82489 0.0
H1925 H 0.56805 0.56903 0.73092 0.0
C1926 C 0.54791 0.55021 0.82128 0.0
C1927 C 0.55904 0.56789 0.79241 0.0
C1928 C 0.56366 0.57957 0.79576 0.0
C1929 C 0.5514 0.54614 0.7858 0.0
C1930 C 0.55873 0.553 0.75282 0.0
C1931 C 0.56245 0.56379 0.75639 0.0
C1932 C 0.56193 0.54884 0.71275 0.0
C1933 C 0.54701 0.53448 0.78297 0.0
C1934 C 0.56866 0.54477 0.71896 0.0
C1935 C 0.57028 0.53936 0.68262 0.0
C1936 C 0.56503 0.53777 0.63991 0.0
C1937 C 0.55867 0.54226 0.63326 0.0
C1938 C 0.55722 0.54782 0.66916 0.0
H1939 H 0.54048 0.53012 0.80789 0.0
H1940 H 0.54415 0.53163 0.74714 0.0
H1941 H 0.55329 0.53266 0.79089 0.0
H1942 H 0.57231 0.54541 0.75248 0.0
H1943 H 0.57515 0.53591 0.68881 0.0
H1944 H 0.45016 0.97262 0.89649 0.0
H1945 H 0.45164 0.98428 0.83353 0.0
H1946 H 0.42278 0.98241 0.87676 0.0
H1947 H 0.4212 0.97045 0.94083 0.0
H1948 H 0.43702 0.98072 0.75935 0.0
H1949 H 0.4447 0.01564 0.87236 0.0
H1950 H 0.44555 0.00466 0.89492 0.0
H1951 H 0.43302 0.00322 0.882 0.0
C1952 C 0.44409 0.97465 0.89279 0.0
C1953 C 0.43561 0.97069 0.92396 0.0
C1954 C 0.44494 0.98131 0.85657 0.0
C1955 C 0.43741 0.98433 0.8506 0.0
C1956 C 0.42875 0.98025 0.88097 0.0
H1957 H 0.45402 0.03457 0.63362 0.0
H1958 H 0.44306 0.02173 0.69339 0.0
C1959 C 0.42781 0.97338 0.9173 0.0
C1960 C 0.43906 0.99187 0.8125 0.0
H1961 H 0.44894 0.01903 0.79275 0.0
C1962 C 0.43947 0.98884 0.7665 0.0
C1963 C 0.44173 0.0034 0.82169 0.0
C1964 C 0.44129 0.00702 0.87035 0.0
C1965 C 0.44363 0.9962 0.73026 0.0
C1966 C 0.44718 0.00787 0.74018 0.0
C1967 C 0.44597 0.01082 0.78531 0.0
C1968 C 0.45381 0.01605 0.70561 0.0
C1969 C 0.44419 0.99254 0.68184 0.0
C1970 C 0.46353 0.01722 0.69316 0.0
C1971 C 0.4697 0.02439 0.6589 0.0
C1972 C 0.46639 0.03072 0.63661 0.0
C1973 C 0.45679 0.0298 0.6501 0.0
C1974 C 0.45053 0.02249 0.68428 0.0
H1975 H 0.43861 0.98405 0.67732 0.0
H1976 H 0.44251 0.99697 0.65522 0.0
H1977 H 0.4522 0.99394 0.67551 0.0
H1978 H 0.46632 0.0125 0.70986 0.0
H1979 H 0.47715 0.02505 0.65018 0.0
H1980 H 0.95844 0.53502 0.18325 0.0
H1981 H 0.97021 0.5437 0.24965 0.0
H1982 H 0.99684 0.55139 0.1623 0.0
H1983 H 0.98516 0.54252 0.09647 0.0
H1984 H 0.98514 0.53658 0.27979 0.0
H1985 H 0.00595 0.579 0.23998 0.0
H1986 H 0.99191 0.56964 0.21719 0.0
H1987 H 0.00482 0.57067 0.19187 0.0
C1988 C 0.96682 0.53878 0.17799 0.0
C1989 C 0.97088 0.53807 0.13463 0.0
C1990 C 0.97353 0.54371 0.21598 0.0
C1991 C 0.98443 0.54826 0.21091 0.0
C1992 C 0.98849 0.54803 0.16698 0.0
H1993 H 0.04233 0.57227 0.37449 0.0
H1994 H 0.02892 0.56861 0.31487 0.0
C1995 C 0.9818 0.54292 0.12941 0.0
C1996 C 0.99152 0.55211 0.25218 0.0
H1997 H 0.0139 0.57379 0.29841 0.0
C1998 C 0.99105 0.54473 0.28431 0.0
C1999 C 0.99927 0.56274 0.25779 0.0
C2000 C 0.00118 0.57102 0.22517 0.0
C2001 C 0.99839 0.54758 0.32064 0.0
C2002 C 0.00763 0.55821 0.32599 0.0
C2003 C 0.0079 0.56565 0.29446 0.0
C2004 C 0.01587 0.56158 0.36293 0.0
C2005 C 0.99786 0.53904 0.35149 0.0
C2006 C 0.0131 0.55924 0.41014 0.0
C2007 C 0.02072 0.56109 0.44382 0.0
C2008 C 0.03131 0.56569 0.4314 0.0
C2009 C 0.03421 0.56873 0.38489 0.0
C2010 C 0.02654 0.56664 0.35089 0.0
H2011 H 0.99323 0.5312 0.33524 0.0
H2012 H 0.00712 0.54039 0.35935 0.0
H2013 H 0.994 0.53893 0.38485 0.0
H2014 H 0.00501 0.5557 0.42082 0.0
H2015 H 0.01831 0.55881 0.47961 0.0
H2016 H 0.4626 0.42352 0.17789 0.0
H2017 H 0.4528 0.42572 0.24191 0.0
H2018 H 0.45431 0.45217 0.17089 0.0
H2019 H 0.46417 0.45012 0.10741 0.0
H2020 H 0.4604 0.44424 0.29756 0.0
H2021 H 0.4232 0.43457 0.21078 0.0
H2022 H 0.432 0.43045 0.18828 0.0
H2023 H 0.43448 0.4435 0.17744 0.0
C2024 C 0.4607 0.4297 0.17559 0.0
C2025 C 0.46421 0.43667 0.13752 0.0
C2026 C 0.45512 0.43097 0.21229 0.0
C2027 C 0.45272 0.43906 0.21108 0.0
C2028 C 0.45592 0.44579 0.17238 0.0
H2029 H 0.43733 0.4768 0.37517 0.0
H2030 H 0.44035 0.46674 0.3153 0.0
C2031 C 0.46163 0.44463 0.13617 0.0
C2032 C 0.44767 0.44113 0.25153 0.0
H2033 H 0.42746 0.44518 0.27989 0.0
C2034 C 0.45309 0.44425 0.29406 0.0
C2035 C 0.43809 0.44107 0.24715 0.0
C2036 C 0.43154 0.43712 0.2036 0.0
C2037 C 0.44957 0.44796 0.33107 0.0
C2038 C 0.44031 0.44849 0.32561 0.0
C2039 C 0.4346 0.44486 0.28397 0.0
C2040 C 0.43706 0.45375 0.36074 0.0
C2041 C 0.45609 0.45185 0.3748 0.0
C2042 C 0.43385 0.44964 0.40586 0.0
C2043 C 0.43197 0.45534 0.43993 0.0
C2044 C 0.43326 0.4652 0.42932 0.0
C2045 C 0.43609 0.46911 0.38383 0.0
C2046 C 0.43786 0.4634 0.34975 0.0
H2047 H 0.46376 0.45224 0.37103 0.0
H2048 H 0.45748 0.45975 0.38413 0.0
H2049 H 0.4518 0.4465 0.40411 0.0
H2050 H 0.43313 0.44219 0.4151 0.0
H2051 H 0.43002 0.45228 0.47509 0.0
H2052 H 0.54491 0.02316 0.15564 0.0
H2053 H 0.54334 0.01076 0.21541 0.0
H2054 H 0.57676 0.02368 0.21468 0.0
H2055 H 0.57846 0.03635 0.1544 0.0
H2056 H 0.55172 0.99471 0.20755 0.0
H2057 H 0.56831 0.02342 0.35654 0.0
H2058 H 0.56256 0.02657 0.30804 0.0
H2059 H 0.57459 0.02655 0.30028 0.0
C2060 C 0.55197 0.02341 0.16786 0.0
C2061 C 0.56183 0.03079 0.14994 0.0
C2062 C 0.55104 0.01628 0.2022 0.0
C2063 C 0.55991 0.01629 0.21972 0.0
C2064 C 0.5698 0.0236 0.20205 0.0
H2065 H 0.54668 0.97057 0.4552 0.0
H2066 H 0.55755 0.98294 0.39356 0.0
C2067 C 0.57076 0.03082 0.16751 0.0
C2068 C 0.55845 0.00846 0.25608 0.0
H2069 H 0.55814 0.0055 0.37448 0.0
C2070 C 0.55345 0.99687 0.24396 0.0
C2071 C 0.56087 0.01125 0.30355 0.0
C2072 C 0.56692 0.02255 0.31831 0.0
C2073 C 0.54965 0.989 0.2782 0.0
C2074 C 0.55113 0.99182 0.32585 0.0
C2075 C 0.55692 0.00335 0.33792 0.0
C2076 C 0.54481 0.98412 0.36272 0.0
C2077 C 0.54361 0.9777 0.26331 0.0
C2078 C 0.53411 0.98075 0.36596 0.0
C2079 C 0.52799 0.97394 0.40146 0.0
C2080 C 0.53239 0.97016 0.43418 0.0
C2081 C 0.54308 0.97334 0.43041 0.0
C2082 C 0.54929 0.9804 0.39531 0.0
H2083 H 0.54563 0.97668 0.22708 0.0
H2084 H 0.5452 0.97271 0.28705 0.0
H2085 H 0.53512 0.97496 0.26464 0.0
H2086 H 0.53049 0.98351 0.34119 0.0
H2087 H 0.51977 0.97153 0.40302 0.0
H2088 H 0.68972 0.78859 0.3057 0.0
H2089 H 0.67615 0.77823 0.24744 0.0
H2090 H 0.68969 0.80453 0.15338 0.0
H2091 H 0.70297 0.81498 0.21209 0.0
H2092 H 0.66196 0.78571 0.20501 0.0
H2093 H 0.6848 0.77721 0.07694 0.0
H2094 H 0.68845 0.77999 0.13762 0.0
H2095 H 0.6913 0.79049 0.09788 0.0
C2096 C 0.68987 0.79208 0.27225 0.0
C2097 C 0.69741 0.80256 0.26316 0.0
C2098 C 0.68211 0.78617 0.23911 0.0
C2099 C 0.68194 0.79058 0.19588 0.0
C2100 C 0.68969 0.80095 0.18634 0.0
H2101 H 0.64857 0.7869 0.95026 0.0
H2102 H 0.66073 0.7893 0.01705 0.0
C2103 C 0.69726 0.80692 0.21984 0.0
C2104 C 0.67333 0.78476 0.16167 0.0
H2105 H 0.66886 0.77587 0.04924 0.0
C2106 C 0.66338 0.78335 0.17127 0.0
C2107 C 0.67516 0.78158 0.11785 0.0
C2108 C 0.68547 0.78229 0.10687 0.0
C2109 C 0.65546 0.77955 0.13706 0.0
C2110 C 0.65753 0.77703 0.09211 0.0
C2111 C 0.66729 0.77787 0.08348 0.0
C2112 C 0.6502 0.77485 0.05227 0.0
C2113 C 0.64515 0.77885 0.14827 0.0
C2114 C 0.64027 0.76578 0.05034 0.0
C2115 C 0.63327 0.76436 0.01392 0.0
C2116 C 0.63604 0.77197 0.97509 0.0
C2117 C 0.64611 0.78086 0.97659 0.0
C2118 C 0.65311 0.78228 0.01652 0.0
H2119 H 0.64521 0.78221 0.183 0.0
H2120 H 0.6432 0.78301 0.12137 0.0
H2121 H 0.63887 0.77052 0.14809 0.0
H2122 H 0.63787 0.75988 0.07728 0.0
H2123 H 0.62558 0.75744 0.01383 0.0
H2124 H 0.21323 0.86006 0.97171 0.0
H2125 H 0.21151 0.87024 0.03853 0.0
H2126 H 0.24493 0.88707 0.05779 0.0
H2127 H 0.24679 0.87678 0.99025 0.0
H2128 H 0.21936 0.87067 0.13378 0.0
H2129 H 0.23529 0.91 0.05203 0.0
H2130 H 0.23075 0.89833 0.01713 0.0
H2131 H 0.24275 0.90339 0.04898 0.0
C2132 C 0.22027 0.86595 0.98878 0.0
C2133 C 0.23017 0.86755 0.97587 0.0
C2134 C 0.21926 0.87182 0.02886 0.0
C2135 C 0.22807 0.87943 0.05277 0.0
C2136 C 0.23802 0.88128 0.03955 0.0
H2137 H 0.21726 0.9091 0.30092 0.0
H2138 H 0.22747 0.90607 0.24093 0.0
C2139 C 0.23907 0.87541 0.00343 0.0
C2140 C 0.2265 0.88482 0.09314 0.0
H2141 H 0.22679 0.90733 0.1246 0.0
C2142 C 0.2212 0.87875 0.1322 0.0
C2143 C 0.22894 0.89538 0.09116 0.0
C2144 C 0.23472 0.90222 0.05013 0.0
C2145 C 0.21777 0.88277 0.16806 0.0
C2146 C 0.21955 0.89309 0.16462 0.0
C2147 C 0.22541 0.8994 0.12703 0.0
C2148 C 0.21412 0.89671 0.19664 0.0
C2149 C 0.21178 0.87579 0.20849 0.0
C2150 C 0.20335 0.89272 0.19088 0.0
C2151 C 0.19756 0.89432 0.22502 0.0
C2152 C 0.20246 0.90011 0.26524 0.0
C2153 C 0.21336 0.90473 0.2698 0.0
C2154 C 0.21917 0.90299 0.23568 0.0
H2155 H 0.21274 0.86881 0.21065 0.0
H2156 H 0.2144 0.88018 0.24185 0.0
H2157 H 0.20334 0.87309 0.20421 0.0
H2158 H 0.19931 0.88787 0.16104 0.0
H2159 H 0.18916 0.89066 0.2209 0.0
H2160 H 0.08753 0.30616 0.29107 0.0
H2161 H 0.08921 0.31879 0.23032 0.0
H2162 H 0.11287 0.31467 0.16172 0.0
H2163 H 0.11142 0.30239 0.2224 0.0
H2164 H 0.1096 0.33815 0.20803 0.0
H2165 H 0.09204 0.31213 0.05569 0.0
H2166 H 0.08901 0.30746 0.11511 0.0
H2167 H 0.10085 0.30944 0.08803 0.0
C2168 C 0.0929 0.30781 0.26238 0.0
C2169 C 0.09931 0.30327 0.26117 0.0
C2170 C 0.0939 0.31505 0.22792 0.0
C2171 C 0.10111 0.31761 0.19124 0.0
C2172 C 0.10719 0.31274 0.18931 0.0
H2173 H 0.14148 0.35865 0.99732 0.0
H2174 H 0.13059 0.34674 0.06219 0.0
C2175 C 0.10636 0.30574 0.22403 0.0
C2176 C 0.10307 0.32591 0.15654 0.0
H2177 H 0.1049 0.33012 0.03889 0.0
C2178 C 0.10827 0.3364 0.17111 0.0
C2179 C 0.10134 0.32365 0.10835 0.0
C2180 C 0.09541 0.31255 0.0908 0.0
C2181 C 0.11254 0.34465 0.13852 0.0
C2182 C 0.11154 0.34234 0.09034 0.0
C2183 C 0.10565 0.33189 0.07587 0.0
C2184 C 0.11817 0.35034 0.05526 0.0
C2185 C 0.11876 0.35578 0.15551 0.0
C2186 C 0.11486 0.35652 0.03148 0.0
C2187 C 0.12117 0.36345 0.99233 0.0
C2188 C 0.13078 0.36423 0.98027 0.0
C2189 C 0.13408 0.35824 0.00915 0.0
C2190 C 0.12787 0.35138 0.04414 0.0
H2191 H 0.11774 0.35641 0.19354 0.0
H2192 H 0.12719 0.35883 0.14832 0.0
H2193 H 0.11638 0.3608 0.13643 0.0
H2194 H 0.10737 0.3558 0.03956 0.0
H2195 H 0.11843 0.36803 0.9739 0.0
H2196 H 0.63978 0.85457 0.50281 0.0
H2197 H 0.65266 0.86579 0.56045 0.0
H2198 H 0.64319 0.88884 0.54291 0.0
H2199 H 0.63013 0.87757 0.48454 0.0
H2200 H 0.66932 0.89055 0.53856 0.0
H2201 H 0.64326 0.88035 0.69341 0.0
H2202 H 0.64012 0.87058 0.64883 0.0
H2203 H 0.63915 0.88194 0.63614 0.0
C2204 C 0.64035 0.86199 0.51115 0.0
C2205 C 0.63387 0.86513 0.48886 0.0
C2206 C 0.64775 0.86841 0.54418 0.0
C2207 C 0.6489 0.87814 0.55596 0.0
C2208 C 0.6424 0.88133 0.53442 0.0
H2209 H 0.69439 0.91024 0.787 0.0
H2210 H 0.68171 0.90841 0.72624 0.0
C2211 C 0.63492 0.87486 0.50118 0.0
C2212 C 0.65713 0.88484 0.59021 0.0
H2213 H 0.66143 0.88815 0.7077 0.0
C2214 C 0.66759 0.89025 0.57546 0.0
C2215 C 0.65488 0.8846 0.63825 0.0
C2216 C 0.64375 0.8791 0.6555 0.0
C2217 C 0.67586 0.89475 0.60779 0.0
C2218 C 0.67363 0.8936 0.65611 0.0
C2219 C 0.66316 0.88896 0.67069 0.0
C2220 C 0.68182 0.89549 0.69125 0.0
C2221 C 0.68696 0.90033 0.59013 0.0
C2222 C 0.68607 0.88885 0.69179 0.0
C2223 C 0.69305 0.88972 0.72678 0.0
C2224 C 0.69612 0.89737 0.7617 0.0
C2225 C 0.69218 0.90429 0.76041 0.0
C2226 C 0.68494 0.90325 0.72581 0.0
H2227 H 0.68743 0.90336 0.55419 0.0
H2228 H 0.69211 0.90697 0.6133 0.0
H2229 H 0.68996 0.89478 0.5894 0.0
H2230 H 0.68376 0.88279 0.6657 0.0
H2231 H 0.69604 0.88435 0.72658 0.0
H2232 H 0.12581 0.77996 0.43517 0.0
H2233 H 0.11608 0.78208 0.4993 0.0
H2234 H 0.12103 0.76074 0.58328 0.0
H2235 H 0.13063 0.7584 0.51855 0.0
H2236 H 0.09802 0.76664 0.56492 0.0
H2237 H 0.13733 0.79156 0.64411 0.0
H2238 H 0.13569 0.78808 0.58313 0.0
H2239 H 0.13391 0.77853 0.62628 0.0
C2240 C 0.12462 0.77553 0.46694 0.0
C2241 C 0.12905 0.76909 0.47207 0.0
C2242 C 0.11902 0.77672 0.50346 0.0
C2243 C 0.1179 0.77164 0.54617 0.0
C2244 C 0.12178 0.76471 0.55053 0.0
H2245 H 0.10958 0.79384 0.81468 0.0
H2246 H 0.11159 0.7833 0.75418 0.0
C2247 C 0.12724 0.76336 0.51356 0.0
C2248 C 0.11407 0.77481 0.58751 0.0
H2249 H 0.12303 0.7906 0.68315 0.0
C2250 C 0.10344 0.77179 0.59119 0.0
C2251 C 0.12115 0.78155 0.62154 0.0
C2252 C 0.13268 0.78521 0.61878 0.0
C2253 C 0.0997 0.77532 0.62826 0.0
C2254 C 0.10687 0.78234 0.6617 0.0
C2255 C 0.11747 0.78521 0.65797 0.0
C2256 C 0.10383 0.78716 0.70014 0.0
C2257 C 0.08812 0.77135 0.63134 0.0
C2258 C 0.09845 0.7926 0.69086 0.0
C2259 C 0.09701 0.79838 0.72605 0.0
C2260 C 0.10123 0.79912 0.77073 0.0
C2261 C 0.10633 0.79346 0.78041 0.0
C2262 C 0.10748 0.78745 0.74576 0.0
H2263 H 0.08353 0.76357 0.61441 0.0
H2264 H 0.08551 0.7707 0.6681 0.0
H2265 H 0.08631 0.77684 0.61273 0.0
H2266 H 0.0958 0.79282 0.65594 0.0
H2267 H 0.09316 0.80278 0.71757 0.0
H2268 H 0.20385 0.31938 0.80132 0.0
H2269 H 0.21429 0.3313 0.73933 0.0
H2270 H 0.21578 0.30619 0.66974 0.0
H2271 H 0.20514 0.29406 0.73235 0.0
H2272 H 0.23377 0.3379 0.70122 0.0
H2273 H 0.20212 0.31567 0.57184 0.0
H2274 H 0.20018 0.31305 0.63353 0.0
H2275 H 0.20754 0.30861 0.60043 0.0
C2276 C 0.20644 0.31637 0.77302 0.0
C2277 C 0.20351 0.30572 0.77134 0.0
C2278 C 0.21248 0.32323 0.73765 0.0
C2279 C 0.21568 0.31963 0.6993 0.0
C2280 C 0.21326 0.30911 0.69858 0.0
H2281 H 0.2411 0.35996 0.44831 0.0
H2282 H 0.23892 0.34673 0.50661 0.0
C2283 C 0.20724 0.3022 0.73448 0.0
C2284 C 0.22081 0.32688 0.65927 0.0
H2285 H 0.21601 0.33186 0.54823 0.0
C2286 C 0.22999 0.33649 0.66748 0.0
C2287 C 0.21588 0.32508 0.61513 0.0
C2288 C 0.20585 0.31509 0.6045 0.0
C2289 C 0.23404 0.34448 0.6337 0.0
C2290 C 0.22879 0.34285 0.5907 0.0
C2291 C 0.22001 0.33306 0.5813 0.0
C2292 C 0.23141 0.35156 0.55763 0.0
C2293 C 0.24368 0.35477 0.64467 0.0
C2294 C 0.22798 0.35869 0.56719 0.0
C2295 C 0.22902 0.36605 0.53376 0.0
C2296 C 0.23372 0.36659 0.49058 0.0
C2297 C 0.23761 0.35979 0.48172 0.0
C2298 C 0.23633 0.35223 0.51484 0.0
H2299 H 0.24798 0.35416 0.67519 0.0
H2300 H 0.24902 0.3576 0.61411 0.0
H2301 H 0.24136 0.36069 0.65254 0.0
H2302 H 0.22411 0.35826 0.59986 0.0
H2303 H 0.22592 0.37118 0.54118 0.0
H2304 H 0.36696 0.14824 0.54432 0.0
H2305 H 0.35417 0.13757 0.48479 0.0
H2306 H 0.34728 0.10959 0.56031 0.0
H2307 H 0.36036 0.12033 0.61986 0.0
H2308 H 0.35215 0.11967 0.42828 0.0
H2309 H 0.31865 0.10983 0.54746 0.0
H2310 H 0.33166 0.12044 0.55992 0.0
H2311 H 0.32874 0.10717 0.56633 0.0
C2312 C 0.36284 0.13981 0.54786 0.0
C2313 C 0.36466 0.13511 0.58659 0.0
C2314 C 0.35553 0.13371 0.51385 0.0
C2315 C 0.34968 0.12279 0.51824 0.0
C2316 C 0.35167 0.11801 0.55627 0.0
H2317 H 0.29593 0.08848 0.32226 0.0
H2318 H 0.30863 0.09062 0.38331 0.0
C2319 C 0.35919 0.12414 0.59003 0.0
C2320 C 0.34121 0.11669 0.4838 0.0
H2321 H 0.31481 0.10591 0.468 0.0
C2322 C 0.34397 0.11646 0.43715 0.0
C2323 C 0.33051 0.11242 0.49532 0.0
C2324 C 0.32712 0.11246 0.54488 0.0
C2325 C 0.3364 0.11261 0.40154 0.0
C2326 C 0.32581 0.10907 0.41257 0.0
C2327 C 0.32293 0.10864 0.45954 0.0
C2328 C 0.31806 0.10741 0.37545 0.0
C2329 C 0.3398 0.1127 0.35192 0.0
C2330 C 0.3191 0.1161 0.35104 0.0
C2331 C 0.31191 0.11493 0.31656 0.0
C2332 C 0.30342 0.105 0.30537 0.0
C2333 C 0.30237 0.09624 0.32984 0.0
C2334 C 0.3096 0.09745 0.36479 0.0
H2335 H 0.34758 0.11327 0.35024 0.0
H2336 H 0.334 0.10552 0.3333 0.0
H2337 H 0.34032 0.11955 0.33346 0.0
H2338 H 0.32547 0.12387 0.35905 0.0
H2339 H 0.313 0.12189 0.29896 0.0
H2340 H 0.89594 0.21362 0.2677 0.0
H2341 H 0.89402 0.22464 0.3263 0.0
H2342 H 0.89989 0.20807 0.43527 0.0
H2343 H 0.90212 0.19729 0.37639 0.0
H2344 H 0.87837 0.21619 0.3868 0.0
H2345 H 0.91514 0.23746 0.48707 0.0
H2346 H 0.91456 0.23195 0.43017 0.0
H2347 H 0.91091 0.22381 0.48137 0.0
C2348 C 0.8972 0.21263 0.30411 0.0
C2349 C 0.89929 0.20474 0.31774 0.0
C2350 C 0.89607 0.21889 0.33757 0.0
C2351 C 0.89687 0.21726 0.38534 0.0
C2352 C 0.89949 0.20969 0.39875 0.0
H2353 H 0.86917 0.22041 0.63706 0.0
H2354 H 0.87986 0.21919 0.57496 0.0
C2355 C 0.90074 0.2035 0.36515 0.0
C2356 C 0.8933 0.22218 0.42071 0.0
H2357 H 0.89948 0.23494 0.52552 0.0
C2358 C 0.88308 0.22049 0.41659 0.0
C2359 C 0.89942 0.22779 0.4597 0.0
C2360 C 0.91065 0.23046 0.46468 0.0
C2361 C 0.87863 0.22371 0.4514 0.0
C2362 C 0.88457 0.22889 0.49137 0.0
C2363 C 0.89493 0.23096 0.49485 0.0
C2364 C 0.87968 0.2311 0.53178 0.0
C2365 C 0.8674 0.22107 0.44632 0.0
C2366 C 0.87633 0.23848 0.52884 0.0
C2367 C 0.87029 0.23928 0.56471 0.0
C2368 C 0.86739 0.23259 0.60354 0.0
C2369 C 0.87118 0.22558 0.60725 0.0
C2370 C 0.87734 0.22491 0.57194 0.0
H2371 H 0.86342 0.21571 0.41658 0.0
H2372 H 0.86295 0.21736 0.47868 0.0
H2373 H 0.86714 0.22837 0.44048 0.0
H2374 H 0.87806 0.24333 0.49811 0.0
H2375 H 0.86745 0.24473 0.56092 0.0
H2376 H 0.78625 0.64288 0.58543 0.0
H2377 H 0.7879 0.65532 0.52561 0.0
H2378 H 0.7547 0.64359 0.53126 0.0
H2379 H 0.75294 0.63103 0.59199 0.0
H2380 H 0.77772 0.65012 0.43738 0.0
H2381 H 0.76779 0.67599 0.54031 0.0
H2382 H 0.77123 0.66715 0.56831 0.0
H2383 H 0.75875 0.66212 0.54057 0.0
C2384 C 0.77926 0.64291 0.57422 0.0
C2385 C 0.76945 0.63588 0.59358 0.0
C2386 C 0.78023 0.65006 0.5399 0.0
C2387 C 0.77146 0.65047 0.524 0.0
C2388 C 0.76161 0.64353 0.5433 0.0
H2389 H 0.78241 0.69284 0.28194 0.0
H2390 H 0.77188 0.6795 0.34117 0.0
C2391 C 0.76062 0.6363 0.57781 0.0
C2392 C 0.77283 0.65795 0.48591 0.0
H2393 H 0.77448 0.68156 0.46458 0.0
C2394 C 0.77679 0.65687 0.44303 0.0
C2395 C 0.77154 0.66673 0.49303 0.0
C2396 C 0.76714 0.66817 0.53803 0.0
C2397 C 0.78005 0.6646 0.40835 0.0
C2398 C 0.77947 0.67372 0.41668 0.0
C2399 C 0.77493 0.67456 0.45832 0.0
C2400 C 0.78508 0.68296 0.38553 0.0
C2401 C 0.7847 0.66327 0.36383 0.0
C2402 C 0.79589 0.68946 0.39148 0.0
C2403 C 0.80186 0.69689 0.3577 0.0
C2404 C 0.79714 0.69811 0.31752 0.0
C2405 C 0.78621 0.69211 0.31286 0.0
C2406 C 0.78021 0.68451 0.3466 0.0
H2407 H 0.78331 0.65519 0.35983 0.0
H2408 H 0.78134 0.66517 0.33326 0.0
H2409 H 0.79327 0.66879 0.36383 0.0
H2410 H 0.79981 0.68839 0.4211 0.0
H2411 H 0.81027 0.70142 0.36207 0.0
H2412 H 0.30249 0.21424 0.79856 0.0
H2413 H 0.31646 0.22502 0.85468 0.0
H2414 H 0.31299 0.197 0.91828 0.0
H2415 H 0.29937 0.18631 0.86208 0.0
H2416 H 0.31826 0.22554 0.95849 0.0
H2417 H 0.34375 0.21316 0.87172 0.0
H2418 H 0.33224 0.21208 0.84421 0.0
H2419 H 0.33105 0.20232 0.88529 0.0
C2420 C 0.3046 0.21041 0.82513 0.0
C2421 C 0.2999 0.19942 0.82563 0.0
C2422 C 0.31259 0.21657 0.8571 0.0
C2423 C 0.31593 0.21182 0.89017 0.0
C2424 C 0.31072 0.20085 0.89249 0.0
H2425 H 0.35166 0.21429 0.11847 0.0
H2426 H 0.33946 0.21237 0.05694 0.0
C2427 C 0.30291 0.19474 0.86039 0.0
C2428 C 0.32526 0.21803 0.92044 0.0
H2429 H 0.34825 0.21927 0.9506 0.0
C2430 C 0.32493 0.22437 0.95624 0.0
C2431 C 0.33413 0.21676 0.91692 0.0
C2432 C 0.3354 0.21081 0.87715 0.0
C2433 C 0.33281 0.22866 0.99083 0.0
C2434 C 0.34109 0.22644 0.9897 0.0
C2435 C 0.34182 0.22084 0.95187 0.0
C2436 C 0.34815 0.22847 0.03436 0.0
C2437 C 0.33201 0.23516 0.03381 0.0
C2438 C 0.3571 0.23825 0.04266 0.0
C2439 C 0.36419 0.23941 0.07828 0.0
C2440 C 0.36248 0.23076 0.10572 0.0
C2441 C 0.35334 0.2211 0.09783 0.0
C2442 C 0.3463 0.21998 0.06271 0.0
H2443 H 0.32546 0.23671 0.02838 0.0
H2444 H 0.33083 0.23099 0.06745 0.0
H2445 H 0.33943 0.24275 0.03649 0.0
H2446 H 0.35873 0.2449 0.02093 0.0
H2447 H 0.37112 0.24697 0.08344 0.0
H2448 H 0.81241 0.11716 0.84933 0.0
H2449 H 0.80262 0.12013 0.91015 0.0
H2450 H 0.77372 0.09528 0.85427 0.0
H2451 H 0.78364 0.09208 0.79322 0.0
H2452 H 0.78501 0.12455 0.87886 0.0
H2453 H 0.77319 0.0922 0.01068 0.0
H2454 H 0.78515 0.09663 0.97402 0.0
H2455 H 0.77282 0.08993 0.94449 0.0
C2456 C 0.80397 0.11225 0.8502 0.0
C2457 C 0.79877 0.10447 0.8163 0.0
C2458 C 0.79839 0.11393 0.88508 0.0
C2459 C 0.78745 0.10797 0.88673 0.0
C2460 C 0.78218 0.09991 0.8539 0.0
H2461 H 0.75642 0.12622 0.10768 0.0
H2462 H 0.75814 0.1162 0.04328 0.0
C2463 C 0.78783 0.0981 0.81909 0.0
C2464 C 0.78185 0.11113 0.92026 0.0
H2465 H 0.77241 0.10708 0.03591 0.0
C2466 C 0.78205 0.1206 0.91195 0.0
C2467 C 0.77783 0.10589 0.96309 0.0
C2468 C 0.77716 0.09555 0.97295 0.0
C2469 C 0.77905 0.12533 0.94641 0.0
C2470 C 0.77596 0.1206 0.99084 0.0
C2471 C 0.77496 0.1108 0.00212 0.0
C2472 C 0.77481 0.12644 0.03508 0.0
C2473 C 0.77952 0.13555 0.93551 0.0
C2474 C 0.78362 0.13544 0.05229 0.0
C2475 C 0.78269 0.14113 0.08923 0.0
C2476 C 0.7729 0.13798 0.10975 0.0
C2477 C 0.76408 0.12889 0.09267 0.0
C2478 C 0.76504 0.12313 0.05592 0.0
H2479 H 0.77915 0.13662 0.89733 0.0
H2480 H 0.77301 0.13598 0.95267 0.0
H2481 H 0.78701 0.14209 0.9487 0.0
H2482 H 0.79124 0.13811 0.03695 0.0
H2483 H 0.78965 0.14808 0.10124 0.0
H2484 H 0.90512 0.69292 0.7809 0.0
H2485 H 0.90203 0.67908 0.83756 0.0
H2486 H 0.88917 0.692 0.93435 0.0
H2487 H 0.89192 0.70553 0.87754 0.0
H2488 H 0.9069 0.6782 0.93855 0.0
H2489 H 0.86472 0.66224 0.90255 0.0
H2490 H 0.87486 0.67169 0.86492 0.0
H2491 H 0.87149 0.67586 0.91781 0.0
C2492 C 0.90192 0.69295 0.81486 0.0
C2493 C 0.89875 0.70026 0.82503 0.0
C2494 C 0.90013 0.68503 0.8471 0.0
C2495 C 0.8952 0.68439 0.88992 0.0
C2496 C 0.89282 0.69222 0.90127 0.0
H2497 H 0.87097 0.65194 0.14233 0.0
H2498 H 0.88108 0.66399 0.07954 0.0
C2499 C 0.89444 0.69998 0.86895 0.0
C2500 C 0.89142 0.67507 0.92087 0.0
H2501 H 0.86896 0.65579 0.97051 0.0
C2502 C 0.89861 0.67319 0.94505 0.0
C2503 C 0.88058 0.66838 0.92871 0.0
C2504 C 0.87244 0.66955 0.90181 0.0
C2505 C 0.8952 0.66523 0.97912 0.0
C2506 C 0.88441 0.65908 0.9891 0.0
C2507 C 0.87724 0.66057 0.963 0.0
C2508 C 0.88035 0.652 0.03396 0.0
C2509 C 0.90312 0.66371 0.00957 0.0
C2510 C 0.87683 0.64125 0.02972 0.0
C2511 C 0.87114 0.63431 0.06609 0.0
C2512 C 0.8687 0.63803 0.10664 0.0
C2513 C 0.87268 0.64884 0.11144 0.0
C2514 C 0.87849 0.65575 0.07566 0.0
H2515 H 0.91112 0.66837 0.99096 0.0
H2516 H 0.9032 0.66588 0.04669 0.0
H2517 H 0.90086 0.65531 0.00861 0.0
H2518 H 0.87804 0.6381 0.99345 0.0
H2519 H 0.86807 0.62601 0.06125 0.0
H2520 H 0.08232 0.56548 0.60677 0.0
H2521 H 0.0861 0.55536 0.66376 0.0
H2522 H 0.06256 0.55445 0.75543 0.0
H2523 H 0.05878 0.56451 0.69864 0.0
H2524 H 0.08399 0.55684 0.79689 0.0
H2525 H 0.05945 0.52334 0.67916 0.0
H2526 H 0.06876 0.53583 0.65441 0.0
H2527 H 0.05745 0.53439 0.68407 0.0
C2528 C 0.07843 0.56367 0.6403 0.0
C2529 C 0.07051 0.56608 0.64896 0.0
C2530 C 0.08047 0.55775 0.67253 0.0
C2531 C 0.0746 0.55413 0.7138 0.0
C2532 C 0.06728 0.55726 0.72414 0.0
H2533 H 0.04944 0.50136 0.88597 0.0
H2534 H 0.05459 0.51435 0.82511 0.0
C2535 C 0.06522 0.56314 0.69192 0.0
C2536 C 0.07496 0.54597 0.74294 0.0
H2537 H 0.06479 0.51954 0.74966 0.0
C2538 C 0.07995 0.54869 0.78647 0.0
C2539 C 0.06952 0.53534 0.72944 0.0
C2540 C 0.06344 0.53195 0.68432 0.0
C2541 C 0.07936 0.541 0.8176 0.0
C2542 C 0.07383 0.5303 0.80436 0.0
C2543 C 0.06918 0.5277 0.75985 0.0
C2544 C 0.07123 0.5216 0.83832 0.0
C2545 C 0.08414 0.54441 0.8654 0.0
C2546 C 0.07884 0.52087 0.86537 0.0
C2547 C 0.07583 0.51338 0.90142 0.0
C2548 C 0.06518 0.50648 0.91036 0.0
C2549 C 0.05772 0.50668 0.88054 0.0
C2550 C 0.06068 0.51413 0.84537 0.0
H2551 H 0.08616 0.55258 0.87329 0.0
H2552 H 0.07871 0.53921 0.89276 0.0
H2553 H 0.09143 0.54402 0.86719 0.0
H2554 H 0.08707 0.52628 0.85969 0.0
H2555 H 0.08176 0.5134 0.92368 0.0
H2556 H 0.48101 0.5481 0.97781 0.0
H2557 H 0.46918 0.53886 0.91375 0.0
H2558 H 0.48858 0.56424 0.82084 0.0
H2559 H 0.50078 0.57346 0.88552 0.0
H2560 H 0.45715 0.54178 0.85507 0.0
H2561 H 0.48841 0.54009 0.75491 0.0
H2562 H 0.49027 0.54478 0.81411 0.0
H2563 H 0.49107 0.55313 0.76671 0.0
C2564 C 0.48264 0.55189 0.94403 0.0
C2565 C 0.49182 0.56158 0.93694 0.0
C2566 C 0.47586 0.54654 0.90721 0.0
C2567 C 0.47803 0.55068 0.86193 0.0
C2568 C 0.48682 0.56073 0.85517 0.0
H2569 H 0.44945 0.52077 0.59723 0.0
H2570 H 0.45855 0.5335 0.6593 0.0
C2571 C 0.49369 0.56612 0.89235 0.0
C2572 C 0.47128 0.54412 0.82235 0.0
H2573 H 0.47173 0.53229 0.72039 0.0
C2574 C 0.46037 0.53978 0.82545 0.0
C2575 C 0.47538 0.54128 0.78392 0.0
C2576 C 0.4869 0.54496 0.77974 0.0
C2577 C 0.45351 0.53285 0.79137 0.0
C2578 C 0.45762 0.53006 0.7529 0.0
C2579 C 0.46854 0.53446 0.74955 0.0
C2580 C 0.45084 0.52258 0.71575 0.0
C2581 C 0.44193 0.52863 0.79684 0.0
C2582 C 0.44319 0.51219 0.72638 0.0
C2583 C 0.43779 0.50492 0.69063 0.0
C2584 C 0.44 0.50788 0.64361 0.0
C2585 C 0.44737 0.51834 0.63314 0.0
C2586 C 0.45268 0.5256 0.66867 0.0
H2587 H 0.44028 0.53362 0.82024 0.0
H2588 H 0.43815 0.52799 0.76259 0.0
H2589 H 0.43831 0.5207 0.81252 0.0
H2590 H 0.4418 0.50953 0.7622 0.0
H2591 H 0.43249 0.49682 0.6997 0.0
H2592 H 0.43498 0.91964 0.94756 0.0
H2593 H 0.44345 0.91509 0.88513 0.0
H2594 H 0.44929 0.94266 0.80888 0.0
H2595 H 0.44078 0.9471 0.87062 0.0
H2596 H 0.44521 0.92579 0.74974 0.0
H2597 H 0.4757 0.93342 0.88196 0.0
H2598 H 0.46261 0.92362 0.89779 0.0
H2599 H 0.46578 0.93697 0.89049 0.0
C2600 C 0.43762 0.92442 0.91642 0.0
C2601 C 0.43709 0.93363 0.9136 0.0
C2602 C 0.44262 0.92193 0.88109 0.0
C2603 C 0.44722 0.92865 0.84265 0.0
C2604 C 0.44584 0.93734 0.83803 0.0
H2605 H 0.50252 0.94522 0.68405 0.0
H2606 H 0.48933 0.94255 0.742 0.0
C2607 C 0.44089 0.93984 0.87323 0.0
C2608 C 0.4545 0.92745 0.81031 0.0
H2609 H 0.4784 0.929 0.80679 0.0
C2610 C 0.45239 0.92632 0.76221 0.0
C2611 C 0.46408 0.92855 0.82631 0.0
C2612 C 0.46728 0.93081 0.87685 0.0
C2613 C 0.45957 0.92625 0.72988 0.0
C2614 C 0.46902 0.92702 0.74609 0.0
C2615 C 0.47108 0.92813 0.79424 0.0
C2616 C 0.47734 0.92778 0.71368 0.0
C2617 C 0.45721 0.92597 0.67851 0.0
C2618 C 0.47526 0.92017 0.6792 0.0
C2619 C 0.48288 0.92174 0.64567 0.0
C2620 C 0.49282 0.93075 0.647 0.0
C2621 C 0.49509 0.93796 0.6834 0.0
C2622 C 0.48747 0.9365 0.71622 0.0
H2623 H 0.45093 0.92786 0.67173 0.0
H2624 H 0.46431 0.93159 0.65886 0.0
H2625 H 0.45454 0.918 0.66479 0.0
H2626 H 0.46762 0.91323 0.677 0.0
H2627 H 0.48078 0.91626 0.6171 0.0
H2628 H 0.50184 0.07745 0.68638 0.0
H2629 H 0.51396 0.08179 0.75345 0.0
H2630 H 0.5254 0.06251 0.69534 0.0
H2631 H 0.51384 0.05834 0.6299 0.0
H2632 H 0.51584 0.06525 0.81673 0.0
H2633 H 0.55208 0.09174 0.71935 0.0
H2634 H 0.53934 0.08944 0.70166 0.0
H2635 H 0.54312 0.07984 0.68983 0.0
C2636 C 0.50706 0.07429 0.68775 0.0
C2637 C 0.50684 0.06761 0.65212 0.0
C2638 C 0.51393 0.0767 0.72618 0.0
C2639 C 0.5207 0.07256 0.72912 0.0
C2640 C 0.52043 0.06595 0.69367 0.0
H2641 H 0.56656 0.06596 0.88586 0.0
H2642 H 0.55616 0.06857 0.82616 0.0
C2643 C 0.5137 0.06358 0.65594 0.0
C2644 C 0.52812 0.07477 0.76862 0.0
H2645 H 0.55419 0.08452 0.79006 0.0
C2646 C 0.52424 0.06972 0.81153 0.0
C2647 C 0.53907 0.08028 0.76126 0.0
C2648 C 0.5437 0.08571 0.71564 0.0
C2649 C 0.53098 0.0697 0.84644 0.0
C2650 C 0.54197 0.07517 0.83884 0.0
C2651 C 0.54583 0.08042 0.7963 0.0
C2652 C 0.54953 0.07512 0.87358 0.0
C2653 C 0.52619 0.06326 0.88987 0.0
C2654 C 0.54983 0.0785 0.91961 0.0
C2655 C 0.55587 0.07712 0.95351 0.0
C2656 C 0.56194 0.07252 0.94215 0.0
C2657 C 0.56232 0.06992 0.89535 0.0
C2658 C 0.5562 0.07123 0.86138 0.0
H2659 H 0.5178 0.05735 0.88477 0.0
H2660 H 0.5304 0.05914 0.9007 0.0
H2661 H 0.52669 0.0685 0.91873 0.0
H2662 H 0.54498 0.08174 0.92991 0.0
H2663 H 0.55514 0.07888 0.98952 0.0
H2664 H 0.91342 0.4314 0.63616 0.0
H2665 H 0.91041 0.44099 0.69934 0.0
H2666 H 0.94233 0.45375 0.74452 0.0
H2667 H 0.94523 0.44408 0.68316 0.0
H2668 H 0.92673 0.44782 0.81998 0.0
H2669 H 0.9249 0.47399 0.68504 0.0
H2670 H 0.91811 0.46008 0.67477 0.0
H2671 H 0.93212 0.46726 0.67582 0.0
C2672 C 0.9196 0.43586 0.66094 0.0
C2673 C 0.92948 0.43677 0.65527 0.0
C2674 C 0.91796 0.4415 0.69655 0.0
C2675 C 0.92619 0.44823 0.72645 0.0
C2676 C 0.93582 0.44857 0.72244 0.0
H2677 H 0.94426 0.50529 0.87427 0.0
H2678 H 0.94032 0.49149 0.81744 0.0
C2679 C 0.93742 0.44293 0.68748 0.0
C2680 C 0.92526 0.45557 0.7595 0.0
H2681 H 0.92497 0.47861 0.76309 0.0
C2682 C 0.92611 0.45443 0.80768 0.0
C2683 C 0.92489 0.46445 0.74342 0.0
C2684 C 0.925 0.46663 0.69198 0.0
C2685 C 0.92666 0.46191 0.84002 0.0
C2686 C 0.92604 0.4707 0.82405 0.0
C2687 C 0.92515 0.47179 0.77576 0.0
C2688 C 0.92734 0.47933 0.85616 0.0
C2689 C 0.92852 0.4606 0.8907 0.0
C2690 C 0.92108 0.47735 0.89626 0.0
C2691 C 0.92333 0.48534 0.92892 0.0
C2692 C 0.93172 0.49552 0.92159 0.0
C2693 C 0.93752 0.49762 0.88011 0.0
C2694 C 0.93533 0.48966 0.84778 0.0
H2695 H 0.93153 0.4551 0.89527 0.0
H2696 H 0.9342 0.46822 0.90659 0.0
H2697 H 0.92103 0.45738 0.91001 0.0
H2698 H 0.91472 0.46953 0.90332 0.0
H2699 H 0.91896 0.4834 0.96124 0.0
H2700 H 0.52022 0.44437 0.97745 0.0
H2701 H 0.53234 0.455 0.91559 0.0
H2702 H 0.50686 0.44259 0.81731 0.0
H2703 H 0.49474 0.43189 0.87925 0.0
H2704 H 0.53794 0.45167 0.82235 0.0
H2705 H 0.51761 0.47466 0.82432 0.0
H2706 H 0.51566 0.46523 0.86893 0.0
H2707 H 0.50912 0.46094 0.81372 0.0
C2708 C 0.51732 0.44343 0.94204 0.0
C2709 C 0.50658 0.43699 0.93293 0.0
C2710 C 0.52424 0.44966 0.90681 0.0
C2711 C 0.52052 0.44973 0.86184 0.0
C2712 C 0.50993 0.44272 0.85176 0.0
H2713 H 0.54143 0.48549 0.61128 0.0
H2714 H 0.53283 0.47343 0.67514 0.0
C2715 C 0.50303 0.4364 0.88695 0.0
C2716 C 0.52745 0.45776 0.82701 0.0
H2717 H 0.53024 0.47877 0.76468 0.0
C2718 C 0.5363 0.45763 0.80983 0.0
C2719 C 0.52545 0.4657 0.81141 0.0
C2720 C 0.51651 0.46675 0.8308 0.0
C2721 C 0.54286 0.46486 0.7758 0.0
C2722 C 0.54063 0.47254 0.7589 0.0
C2723 C 0.53197 0.47287 0.77731 0.0
C2724 C 0.54651 0.47971 0.71928 0.0
C2725 C 0.55192 0.46399 0.75695 0.0
C2726 C 0.55724 0.48729 0.72205 0.0
C2727 C 0.56231 0.49432 0.68486 0.0
C2728 C 0.5567 0.49391 0.64449 0.0
C2729 C 0.54606 0.4861 0.64168 0.0
C2730 C 0.54107 0.47916 0.67841 0.0
H2731 H 0.55148 0.45653 0.76731 0.0
H2732 H 0.55217 0.46454 0.7183 0.0
H2733 H 0.55933 0.47055 0.77066 0.0
H2734 H 0.5616 0.488 0.75348 0.0
H2735 H 0.57043 0.50033 0.68854 0.0
H2736 H 0.92087 0.48526 0.11555 0.0
H2737 H 0.91646 0.47147 0.17456 0.0
H2738 H 0.94666 0.49025 0.23844 0.0
H2739 H 0.95115 0.50382 0.17933 0.0
H2740 H 0.93305 0.46302 0.19342 0.0
H2741 H 0.92104 0.47825 0.34433 0.0
H2742 H 0.91948 0.48122 0.28466 0.0
H2743 H 0.93222 0.48746 0.31085 0.0
C2744 C 0.92641 0.48655 0.14304 0.0
C2745 C 0.93627 0.49569 0.14337 0.0
C2746 C 0.92394 0.47863 0.17645 0.0
C2747 C 0.93122 0.47985 0.21109 0.0
C2748 C 0.9409 0.48915 0.21232 0.0
H2749 H 0.94902 0.44739 0.39656 0.0
H2750 H 0.94594 0.45604 0.33135 0.0
C2751 C 0.94343 0.49693 0.17865 0.0
C2752 C 0.92917 0.47123 0.2443 0.0
H2753 H 0.92436 0.46436 0.35942 0.0
C2754 C 0.93093 0.46318 0.22949 0.0
C2755 C 0.9265 0.47148 0.29145 0.0
C2756 C 0.92464 0.48002 0.30907 0.0
C2757 C 0.93047 0.45561 0.26093 0.0
C2758 C 0.92819 0.45608 0.30861 0.0
C2759 C 0.92599 0.46389 0.32292 0.0
C2760 C 0.92943 0.44949 0.34494 0.0
C2761 C 0.93271 0.44733 0.24308 0.0
C2762 C 0.92114 0.44275 0.37463 0.0
C2763 C 0.92289 0.43766 0.41238 0.0
C2764 C 0.93299 0.43937 0.42123 0.0
C2765 C 0.9411 0.44576 0.39025 0.0
C2766 C 0.93936 0.45074 0.35278 0.0
H2767 H 0.93138 0.44617 0.20488 0.0
H2768 H 0.94103 0.44981 0.2499 0.0
H2769 H 0.92777 0.43975 0.26105 0.0
H2770 H 0.91341 0.4417 0.36949 0.0
H2771 H 0.91655 0.43297 0.43612 0.0
H2772 H 0.56092 0.5064 0.37997 0.0
H2773 H 0.55129 0.49305 0.32096 0.0
H2774 H 0.55146 0.46965 0.4104 0.0
H2775 H 0.56091 0.48308 0.47024 0.0
H2776 H 0.55315 0.47898 0.26955 0.0
H2777 H 0.52049 0.45844 0.39518 0.0
H2778 H 0.53165 0.47111 0.40705 0.0
H2779 H 0.53257 0.45948 0.41408 0.0
C2780 C 0.55931 0.49849 0.38616 0.0
C2781 C 0.56192 0.49583 0.42919 0.0
C2782 C 0.55368 0.49081 0.35258 0.0
C2783 C 0.55041 0.48025 0.36137 0.0
C2784 C 0.55369 0.47769 0.40301 0.0
H2785 H 0.51043 0.43089 0.15331 0.0
H2786 H 0.52358 0.4396 0.21589 0.0
C2787 C 0.55931 0.4854 0.43683 0.0
C2788 C 0.54294 0.472 0.32846 0.0
H2789 H 0.51796 0.4512 0.32006 0.0
C2790 C 0.54556 0.47277 0.28088 0.0
C2791 C 0.53285 0.46404 0.34272 0.0
C2792 C 0.52914 0.46324 0.3924 0.0
C2793 C 0.53838 0.46595 0.24749 0.0
C2794 C 0.52836 0.458 0.26185 0.0
C2795 C 0.52577 0.45708 0.30935 0.0
C2796 C 0.51994 0.45192 0.22725 0.0
C2797 C 0.54125 0.46771 0.19654 0.0
C2798 C 0.51339 0.45577 0.21403 0.0
C2799 C 0.50598 0.45087 0.17896 0.0
C2800 C 0.50486 0.44193 0.1558 0.0
C2801 C 0.51107 0.43772 0.17048 0.0
C2802 C 0.51862 0.44273 0.20594 0.0
H2803 H 0.54963 0.4736 0.1911 0.0
H2804 H 0.53956 0.46024 0.17981 0.0
H2805 H 0.5364 0.47048 0.1788 0.0
H2806 H 0.51424 0.46282 0.2299 0.0
H2807 H 0.5013 0.45433 0.16899 0.0
H2808 H 0.55584 0.07833 0.11374 0.0
H2809 H 0.54679 0.08237 0.17487 0.0
H2810 H 0.55609 0.06708 0.27638 0.0
H2811 H 0.56514 0.06299 0.21499 0.0
H2812 H 0.53022 0.06212 0.23778 0.0
H2813 H 0.56038 0.09775 0.32948 0.0
H2814 H 0.56172 0.09566 0.26831 0.0
H2815 H 0.56322 0.08773 0.3114 0.0
C2816 C 0.55643 0.07633 0.14953 0.0
C2817 C 0.56153 0.0707 0.15991 0.0
C2818 C 0.55112 0.0785 0.18431 0.0
C2819 C 0.55078 0.07506 0.23021 0.0
C2820 C 0.55637 0.06994 0.24132 0.0
H2821 H 0.52055 0.07614 0.48456 0.0
H2822 H 0.53283 0.0786 0.42278 0.0
C2823 C 0.56167 0.06774 0.20639 0.0
C2824 C 0.54367 0.0758 0.26489 0.0
H2825 H 0.54304 0.09034 0.35607 0.0
C2826 C 0.53298 0.06831 0.26359 0.0
C2827 C 0.54732 0.08376 0.2989 0.0
C2828 C 0.55879 0.09174 0.3025 0.0
C2829 C 0.52586 0.06846 0.29589 0.0
C2830 C 0.52943 0.07666 0.32926 0.0
C2831 C 0.54017 0.08417 0.33021 0.0
C2832 C 0.5224 0.07701 0.36628 0.0
C2833 C 0.51472 0.05949 0.2951 0.0
C2834 C 0.51257 0.07596 0.3559 0.0
C2835 C 0.50542 0.07446 0.39175 0.0
C2836 C 0.50811 0.07428 0.4386 0.0
C2837 C 0.51833 0.07648 0.44886 0.0
C2838 C 0.52535 0.07777 0.41331 0.0
H2839 H 0.51406 0.05253 0.27709 0.0
H2840 H 0.51155 0.05714 0.33094 0.0
H2841 H 0.50976 0.06191 0.27584 0.0
H2842 H 0.51018 0.0757 0.32005 0.0
H2843 H 0.49753 0.0725 0.38264 0.0
H2844 H 0.50532 0.94306 0.37524 0.0
H2845 H 0.49264 0.93961 0.31314 0.0
H2846 H 0.46836 0.91535 0.39682 0.0
H2847 H 0.48107 0.91905 0.45962 0.0
H2848 H 0.47908 0.92391 0.25846 0.0
H2849 H 0.45714 0.93507 0.38015 0.0
H2850 H 0.46974 0.93666 0.39421 0.0
H2851 H 0.45814 0.92404 0.39963 0.0
C2852 C 0.49738 0.93664 0.37943 0.0
C2853 C 0.49425 0.93111 0.42178 0.0
C2854 C 0.49007 0.93476 0.34412 0.0
C2855 C 0.47943 0.92738 0.35052 0.0
C2856 C 0.47645 0.92125 0.39131 0.0
H2857 H 0.4278 0.92053 0.16106 0.0
H2858 H 0.43665 0.91598 0.22287 0.0
C2859 C 0.48377 0.92318 0.4268 0.0
C2860 C 0.47147 0.92672 0.31608 0.0
H2861 H 0.45032 0.93025 0.30424 0.0
C2862 C 0.47269 0.9251 0.26874 0.0
C2863 C 0.46323 0.92854 0.32897 0.0
C2864 C 0.46201 0.93129 0.37838 0.0
C2865 C 0.46601 0.92534 0.23427 0.0
C2866 C 0.45778 0.92715 0.24715 0.0
C2867 C 0.45639 0.92852 0.2945 0.0
C2868 C 0.45193 0.92956 0.21139 0.0
C2869 C 0.46811 0.92412 0.18386 0.0
C2870 C 0.45746 0.93876 0.18564 0.0
C2871 C 0.45252 0.94131 0.15112 0.0
C2872 C 0.44178 0.93478 0.14071 0.0
C2873 C 0.43605 0.92567 0.16762 0.0
C2874 C 0.44111 0.92308 0.20285 0.0
H2875 H 0.47263 0.91999 0.18038 0.0
H2876 H 0.4607 0.91978 0.16394 0.0
H2877 H 0.4728 0.93199 0.16794 0.0
H2878 H 0.4657 0.94403 0.19218 0.0
H2879 H 0.45729 0.94857 0.13256 0.0
H2880 H 0.07183 0.5237 0.09118 0.0
H2881 H 0.07457 0.5357 0.15522 0.0
H2882 H 0.06947 0.51162 0.25418 0.0
H2883 H 0.06689 0.4996 0.18963 0.0
H2884 H 0.05946 0.53244 0.21962 0.0
H2885 H 0.0946 0.53689 0.31114 0.0
H2886 H 0.09112 0.53151 0.25303 0.0
H2887 H 0.08424 0.52366 0.30273 0.0
C2888 C 0.07179 0.52112 0.12658 0.0
C2889 C 0.06948 0.51079 0.13524 0.0
C2890 C 0.0732 0.52795 0.16326 0.0
C2891 C 0.07231 0.52466 0.2098 0.0
C2892 C 0.07046 0.51448 0.21873 0.0
H2893 H 0.07052 0.55134 0.4755 0.0
H2894 H 0.0724 0.54178 0.41089 0.0
C2895 C 0.0691 0.50762 0.18178 0.0
C2896 C 0.07255 0.53168 0.24815 0.0
H2897 H 0.08564 0.54455 0.34691 0.0
C2898 C 0.06525 0.53516 0.24727 0.0
C2899 C 0.07996 0.53511 0.28478 0.0
C2900 C 0.08798 0.53168 0.28801 0.0
C2901 C 0.06506 0.54181 0.28208 0.0
C2902 C 0.07266 0.54549 0.31813 0.0
C2903 C 0.07992 0.54195 0.31902 0.0
C2904 C 0.0727 0.55226 0.35737 0.0
C2905 C 0.05639 0.54442 0.28081 0.0
C2906 C 0.07272 0.56172 0.3497 0.0
C2907 C 0.0716 0.56728 0.38721 0.0
C2908 C 0.07061 0.56354 0.43308 0.0
C2909 C 0.07142 0.55454 0.4407 0.0
C2910 C 0.07241 0.54899 0.40354 0.0
H2911 H 0.04967 0.53873 0.25934 0.0
H2912 H 0.05349 0.54451 0.31644 0.0
H2913 H 0.0594 0.55228 0.26511 0.0
H2914 H 0.0732 0.56462 0.31461 0.0
H2915 H 0.07077 0.57403 0.38001 0.0
H2916 H 0.4863 0.57012 0.14192 0.0
H2917 H 0.47341 0.56109 0.20492 0.0
H2918 H 0.49021 0.5455 0.24658 0.0
H2919 H 0.5031 0.55472 0.18643 0.0
H2920 H 0.46035 0.54011 0.21441 0.0
H2921 H 0.48533 0.55351 0.37141 0.0
H2922 H 0.48988 0.55995 0.31579 0.0
H2923 H 0.49041 0.54829 0.32923 0.0
C2924 C 0.48745 0.56514 0.16602 0.0
C2925 C 0.49583 0.5633 0.15976 0.0
C2926 C 0.48001 0.55985 0.20159 0.0
C2927 C 0.48089 0.55271 0.2314 0.0
C2928 C 0.48946 0.55118 0.22559 0.0
H2929 H 0.44286 0.49725 0.38264 0.0
H2930 H 0.452 0.5107 0.32321 0.0
C2931 C 0.49685 0.55647 0.19082 0.0
C2932 C 0.47257 0.54613 0.26612 0.0
H2933 H 0.46919 0.53698 0.37824 0.0
C2934 C 0.46225 0.53962 0.25049 0.0
C2935 C 0.47497 0.54535 0.3134 0.0
C2936 C 0.48574 0.55223 0.33346 0.0
C2937 C 0.45448 0.53208 0.28002 0.0
C2938 C 0.45705 0.53104 0.32644 0.0
C2939 C 0.4672 0.53781 0.34269 0.0
C2940 C 0.44965 0.52239 0.35758 0.0
C2941 C 0.44363 0.52504 0.26131 0.0
C2942 C 0.44503 0.52437 0.39623 0.0
C2943 C 0.43962 0.51658 0.43004 0.0
C2944 C 0.4388 0.50673 0.42572 0.0
C2945 C 0.44302 0.50464 0.38591 0.0
C2946 C 0.44833 0.51236 0.35211 0.0
H2947 H 0.44249 0.52759 0.2264 0.0
H2948 H 0.4422 0.51693 0.25851 0.0
H2949 H 0.43773 0.5249 0.28577 0.0
H2950 H 0.44605 0.5321 0.40139 0.0
H2951 H 0.43676 0.51851 0.4611 0.0
H2952 H 0.7318 0.90282 0.02948 0.0
H2953 H 0.73423 0.89285 0.09236 0.0
H2954 H 0.74192 0.87626 0.98629 0.0
H2955 H 0.7396 0.88619 0.92407 0.0
H2956 H 0.72224 0.87059 0.09974 0.0
H2957 H 0.76456 0.88364 0.08887 0.0
H2958 H 0.75908 0.89113 0.06438 0.0
H2959 H 0.7577 0.87984 0.03425 0.0
C2960 C 0.73458 0.89749 0.02082 0.0
C2961 C 0.73587 0.89553 0.96983 0.0
C2962 C 0.73577 0.89163 0.05668 0.0
C2963 C 0.7384 0.8839 0.04632 0.0
C2964 C 0.74016 0.88233 0.99553 0.0
H2965 H 0.73361 0.83146 0.21544 0.0
H2966 H 0.73581 0.84296 0.14872 0.0
C2967 C 0.73892 0.8881 0.95991 0.0
C2968 C 0.73853 0.87682 0.08341 0.0
H2969 H 0.75413 0.8687 0.13569 0.0
C2970 C 0.72924 0.87025 0.10773 0.0
C2971 C 0.74759 0.87618 0.09345 0.0
C2972 C 0.75783 0.88313 0.0692 0.0
C2973 C 0.7288 0.86312 0.14165 0.0
C2974 C 0.7379 0.86259 0.15201 0.0
C2975 C 0.74715 0.86906 0.12749 0.0
C2976 C 0.73809 0.85604 0.1912 0.0
C2977 C 0.71862 0.85616 0.16642 0.0
C2978 C 0.7391 0.85973 0.23698 0.0
C2979 C 0.73802 0.85328 0.27477 0.0
C2980 C 0.73589 0.84295 0.26791 0.0
C2981 C 0.73554 0.83946 0.22194 0.0
C2982 C 0.73664 0.84597 0.18382 0.0
H2983 H 0.71195 0.85654 0.15045 0.0
H2984 H 0.71687 0.84792 0.16588 0.0
H2985 H 0.7193 0.85859 0.20349 0.0
H2986 H 0.7402 0.86744 0.24354 0.0
H2987 H 0.73814 0.85616 0.30965 0.0
H2988 H 0.11443 0.85582 0.92454 0.0
H2989 H 0.12499 0.86747 0.98741 0.0
H2990 H 0.10743 0.84323 0.09179 0.0
H2991 H 0.09686 0.83144 0.02838 0.0
H2992 H 0.12129 0.87543 0.0728 0.0
H2993 H 0.1377 0.8497 0.11195 0.0
H2994 H 0.13036 0.84838 0.05961 0.0
H2995 H 0.12367 0.84319 0.11391 0.0
C2996 C 0.11249 0.85309 0.96019 0.0
C2997 C 0.10461 0.84271 0.96942 0.0
C2998 C 0.11864 0.85974 0.99614 0.0
C2999 C 0.11717 0.85627 0.04647 0.0
C3000 C 0.10884 0.84614 0.05633 0.0
H3001 H 0.14864 0.87953 0.30797 0.0
H3002 H 0.13675 0.87071 0.24345 0.0
C3003 C 0.10262 0.83946 0.02018 0.0
C3004 C 0.12469 0.86301 0.08349 0.0
H3005 H 0.14253 0.86404 0.16266 0.0
C3006 C 0.12593 0.87294 0.09245 0.0
C3007 C 0.13098 0.85991 0.10839 0.0
C3008 C 0.13073 0.84977 0.09782 0.0
C3009 C 0.13292 0.87962 0.12686 0.0
C3010 C 0.13893 0.87636 0.15286 0.0
C3011 C 0.13788 0.86654 0.14309 0.0
C3012 C 0.14583 0.88263 0.19249 0.0
C3013 C 0.13364 0.89 0.136 0.0
C3014 C 0.15484 0.89251 0.18601 0.0
C3015 C 0.16173 0.8977 0.22349 0.0
C3016 C 0.15968 0.89305 0.26789 0.0
C3017 C 0.15039 0.88342 0.2744 0.0
C3018 C 0.1436 0.87829 0.23734 0.0
H3019 H 0.12716 0.89056 0.11913 0.0
H3020 H 0.1335 0.89132 0.17406 0.0
H3021 H 0.14115 0.89635 0.12198 0.0
H3022 H 0.15683 0.89598 0.1516 0.0
H3023 H 0.16894 0.90494 0.21703 0.0
H3024 H 0.15294 0.25286 0.96949 0.0
H3025 H 0.13986 0.24839 0.03642 0.0
H3026 H 0.155 0.28075 0.07815 0.0
H3027 H 0.16792 0.28525 0.01678 0.0
H3028 H 0.14821 0.26519 0.15489 0.0
H3029 H 0.11715 0.25824 0.02595 0.0
H3030 H 0.12533 0.25257 0.01619 0.0
H3031 H 0.13084 0.26647 0.01221 0.0
C3032 C 0.1536 0.2589 0.99296 0.0
C3033 C 0.16147 0.26936 0.98612 0.0
C3034 C 0.14608 0.25642 0.0326 0.0
C3035 C 0.14637 0.26426 0.06179 0.0
C3036 C 0.15458 0.27455 0.05634 0.0
H3037 H 0.11024 0.28206 0.2236 0.0
H3038 H 0.11955 0.27799 0.16427 0.0
C3039 C 0.16198 0.27711 0.02111 0.0
C3040 C 0.13796 0.26216 0.09642 0.0
H3041 H 0.11357 0.25941 0.10471 0.0
C3042 C 0.14051 0.26361 0.1441 0.0
C3043 C 0.12803 0.26043 0.08226 0.0
C3044 C 0.12509 0.25936 0.03141 0.0
C3045 C 0.13353 0.26362 0.17764 0.0
C3046 C 0.12367 0.26207 0.16337 0.0
C3047 C 0.12102 0.26039 0.11583 0.0
C3048 C 0.11664 0.26352 0.19634 0.0
C3049 C 0.13701 0.26599 0.22779 0.0
C3050 C 0.11153 0.25656 0.23355 0.0
C3051 C 0.10602 0.25882 0.2674 0.0
C3052 C 0.10551 0.26805 0.26439 0.0
C3053 C 0.11022 0.27472 0.22601 0.0
C3054 C 0.11564 0.27245 0.19226 0.0
H3055 H 0.14524 0.26788 0.23259 0.0
H3056 H 0.13626 0.27271 0.24034 0.0
H3057 H 0.1319 0.25913 0.24986 0.0
H3058 H 0.11216 0.2496 0.2374 0.0
H3059 H 0.10275 0.25372 0.2973 0.0
H3060 H 0.22347 0.38614 0.22384 0.0
H3061 H 0.214 0.38998 0.16442 0.0
H3062 H 0.2218 0.41876 0.23474 0.0
H3063 H 0.23147 0.41495 0.2945 0.0
H3064 H 0.19806 0.40112 0.21594 0.0
H3065 H 0.22406 0.41473 0.0604 0.0
H3066 H 0.22358 0.40427 0.09473 0.0
H3067 H 0.22916 0.41713 0.11924 0.0
C3068 C 0.2236 0.39353 0.22546 0.0
C3069 C 0.22847 0.40039 0.26314 0.0
C3070 C 0.21809 0.39568 0.19166 0.0
C3071 C 0.21721 0.40468 0.19491 0.0
C3072 C 0.22245 0.41181 0.23133 0.0
H3073 H 0.1807 0.41518 0.97284 0.0
H3074 H 0.19357 0.41928 0.0402 0.0
C3075 C 0.2281 0.40971 0.2651 0.0
C3076 C 0.20991 0.40591 0.16304 0.0
H3077 H 0.20635 0.41002 0.04877 0.0
C3078 C 0.19995 0.4033 0.17962 0.0
C3079 C 0.21231 0.4086 0.11553 0.0
C3080 C 0.22287 0.4114 0.0961 0.0
C3081 C 0.19222 0.40295 0.14966 0.0
C3082 C 0.19448 0.4053 0.10164 0.0
C3083 C 0.2046 0.40833 0.08552 0.0
C3084 C 0.18616 0.40344 0.06689 0.0
C3085 C 0.18158 0.39977 0.16956 0.0
C3086 C 0.17766 0.39329 0.06118 0.0
C3087 C 0.17038 0.39106 0.02567 0.0
C3088 C 0.17135 0.39879 0.99045 0.0
C3089 C 0.17961 0.40906 0.99692 0.0
C3090 C 0.18702 0.4114 0.03681 0.0
H3091 H 0.18205 0.40155 0.20741 0.0
H3092 H 0.17791 0.40375 0.15131 0.0
H3093 H 0.17642 0.3912 0.16537 0.0
H3094 H 0.1769 0.38694 0.08285 0.0
H3095 H 0.16419 0.38302 0.02111 0.0
H3096 H 0.58338 0.77005 0.95274 0.0
H3097 H 0.57942 0.77956 0.01687 0.0
H3098 H 0.60583 0.78367 0.09747 0.0
H3099 H 0.60979 0.77432 0.03778 0.0
H3100 H 0.58314 0.77909 0.14579 0.0
H3101 H 0.60591 0.81303 0.02753 0.0
H3102 H 0.59757 0.80014 0.00363 0.0
H3103 H 0.60926 0.80291 0.03407 0.0
C3104 C 0.58795 0.77245 0.98451 0.0
C3105 C 0.59671 0.77117 0.98916 0.0
C3106 C 0.58578 0.77803 0.02263 0.0
C3107 C 0.59234 0.78233 0.06165 0.0
C3108 C 0.60059 0.78033 0.06802 0.0
H3109 H 0.61425 0.83591 0.23227 0.0
H3110 H 0.6103 0.82286 0.17273 0.0
C3111 C 0.60279 0.77488 0.03408 0.0
C3112 C 0.59166 0.79019 0.09176 0.0
H3113 H 0.60047 0.81639 0.09881 0.0
C3114 C 0.58678 0.78723 0.13549 0.0
C3115 C 0.59664 0.80084 0.0786 0.0
C3116 C 0.60267 0.80452 0.03346 0.0
C3117 C 0.58697 0.7947 0.16692 0.0
C3118 C 0.59188 0.80541 0.15362 0.0
C3119 C 0.59652 0.80823 0.10912 0.0
C3120 C 0.59366 0.814 0.18701 0.0
C3121 C 0.58244 0.79106 0.21498 0.0
C3122 C 0.58561 0.81384 0.21429 0.0
C3123 C 0.58794 0.82136 0.24967 0.0
C3124 C 0.59833 0.82928 0.25729 0.0
C3125 C 0.60614 0.82994 0.22706 0.0
C3126 C 0.60388 0.8224 0.19289 0.0
H3127 H 0.58129 0.7832 0.22316 0.0
H3128 H 0.58759 0.79663 0.24206 0.0
H3129 H 0.57469 0.79055 0.21691 0.0
H3130 H 0.57759 0.8077 0.20955 0.0
H3131 H 0.58178 0.82056 0.27274 0.0
H3132 H 0.16449 0.76469 0.21948 0.0
H3133 H 0.17744 0.77376 0.15709 0.0
H3134 H 0.19892 0.79555 0.25801 0.0
H3135 H 0.18616 0.78656 0.31968 0.0
H3136 H 0.18537 0.79513 0.13389 0.0
H3137 H 0.218 0.78859 0.18198 0.0
H3138 H 0.20487 0.78052 0.20403 0.0
H3139 H 0.21338 0.79313 0.22946 0.0
C3140 C 0.17216 0.77111 0.22848 0.0
C3141 C 0.17441 0.77475 0.27467 0.0
C3142 C 0.1795 0.77639 0.19276 0.0
C3143 C 0.18925 0.78529 0.20281 0.0
C3144 C 0.19161 0.78859 0.2493 0.0
H3145 H 0.23284 0.83978 0.04553 0.0
H3146 H 0.22305 0.82704 0.10716 0.0
C3147 C 0.1843 0.7834 0.28465 0.0
C3148 C 0.19663 0.79175 0.16493 0.0
H3149 H 0.22207 0.80261 0.12857 0.0
C3150 C 0.19334 0.79662 0.13231 0.0
C3151 C 0.2071 0.79385 0.16306 0.0
C3152 C 0.21104 0.78868 0.19624 0.0
C3153 C 0.20028 0.80368 0.0989 0.0
C3154 C 0.21078 0.80591 0.09772 0.0
C3155 C 0.21404 0.80091 0.12961 0.0
C3156 C 0.2184 0.81348 0.06351 0.0
C3157 C 0.19645 0.80893 0.06551 0.0
C3158 C 0.21944 0.81009 0.01914 0.0
C3159 C 0.22518 0.81729 0.98007 0.0
C3160 C 0.23005 0.82809 0.98888 0.0
C3161 C 0.22957 0.83153 0.0383 0.0
C3162 C 0.22383 0.82424 0.07332 0.0
H3163 H 0.18801 0.80624 0.07024 0.0
H3164 H 0.20099 0.81754 0.0707 0.0
H3165 H 0.19776 0.80734 0.02903 0.0
H3166 H 0.21523 0.80184 0.01068 0.0
H3167 H 0.22502 0.81449 0.94499 0.0
H3168 H 0.59903 0.76466 0.71419 0.0
H3169 H 0.59604 0.77405 0.65033 0.0
H3170 H 0.5872 0.78997 0.75042 0.0
H3171 H 0.59018 0.78069 0.81384 0.0
H3172 H 0.5758 0.77862 0.63601 0.0
H3173 H 0.61599 0.81179 0.66928 0.0
H3174 H 0.61261 0.79837 0.679 0.0
H3175 H 0.60792 0.80455 0.71816 0.0
C3176 C 0.5959 0.76973 0.72227 0.0
C3177 C 0.59455 0.77171 0.76899 0.0
C3178 C 0.59436 0.77523 0.68584 0.0
C3179 C 0.59144 0.78276 0.69564 0.0
C3180 C 0.58942 0.7842 0.74199 0.0
H3181 H 0.59754 0.83616 0.53546 0.0
H3182 H 0.59439 0.82369 0.5989 0.0
C3183 C 0.59099 0.77877 0.77819 0.0
C3184 C 0.59132 0.78979 0.65857 0.0
H3185 H 0.60587 0.81446 0.61362 0.0
C3186 C 0.58237 0.78644 0.63094 0.0
C3187 C 0.59986 0.80005 0.65238 0.0
C3188 C 0.60969 0.80398 0.68101 0.0
C3189 C 0.58169 0.79309 0.59751 0.0
C3190 C 0.59027 0.80335 0.59084 0.0
C3191 C 0.59922 0.80668 0.61875 0.0
C3192 C 0.59041 0.81052 0.55333 0.0
C3193 C 0.57166 0.78909 0.57036 0.0
C3194 C 0.58891 0.80728 0.50654 0.0
C3195 C 0.59048 0.81433 0.47059 0.0
C3196 C 0.59368 0.82486 0.48015 0.0
C3197 C 0.59466 0.82802 0.52699 0.0
C3198 C 0.59306 0.82092 0.56323 0.0
H3199 H 0.5649 0.78288 0.58988 0.0
H3200 H 0.57002 0.79548 0.56209 0.0
H3201 H 0.57233 0.78561 0.53716 0.0
H3202 H 0.58722 0.79947 0.49745 0.0
H3203 H 0.59006 0.81176 0.43487 0.0
H3204 H 0.16156 0.77834 0.53184 0.0
H3205 H 0.1751 0.78753 0.59076 0.0
H3206 H 0.19633 0.78137 0.51219 0.0
H3207 H 0.18267 0.77212 0.45281 0.0
H3208 H 0.18734 0.78251 0.64781 0.0
H3209 H 0.21145 0.81372 0.52021 0.0
H3210 H 0.19789 0.80417 0.51006 0.0
H3211 H 0.2078 0.80063 0.50269 0.0
C3212 C 0.16899 0.77858 0.52811 0.0
C3213 C 0.17098 0.77427 0.48838 0.0
C3214 C 0.17677 0.78394 0.56158 0.0
C3215 C 0.18682 0.7853 0.55575 0.0
C3216 C 0.18868 0.78053 0.51727 0.0
H3217 H 0.23951 0.82339 0.75343 0.0
H3218 H 0.22991 0.81119 0.68847 0.0
C3219 C 0.18082 0.77506 0.48379 0.0
C3220 C 0.19536 0.79221 0.58871 0.0
H3221 H 0.21803 0.81587 0.59658 0.0
C3222 C 0.19417 0.78968 0.63638 0.0
C3223 C 0.20414 0.80176 0.57417 0.0
C3224 C 0.20542 0.80533 0.52411 0.0
C3225 C 0.20142 0.79642 0.66968 0.0
C3226 C 0.21019 0.80594 0.65516 0.0
C3227 C 0.2115 0.80842 0.60749 0.0
C3228 C 0.21691 0.81409 0.68978 0.0
C3229 C 0.19936 0.79359 0.72063 0.0
C3230 C 0.21301 0.82001 0.71041 0.0
C3231 C 0.21847 0.82696 0.7463 0.0
C3232 C 0.22799 0.82817 0.76329 0.0
C3233 C 0.23226 0.82267 0.74106 0.0
C3234 C 0.22673 0.81566 0.7043 0.0
H3235 H 0.19362 0.78516 0.72571 0.0
H3236 H 0.20672 0.79554 0.73908 0.0
H3237 H 0.19614 0.79821 0.73687 0.0
H3238 H 0.2055 0.81898 0.69987 0.0
H3239 H 0.21494 0.83109 0.76244 0.0
H3240 H 0.23511 0.39942 0.53686 0.0
H3241 H 0.2252 0.40199 0.59937 0.0
H3242 H 0.20919 0.41023 0.49688 0.0
H3243 H 0.21881 0.40736 0.43475 0.0
H3244 H 0.22191 0.41767 0.63095 0.0
H3245 H 0.18488 0.3856 0.55915 0.0
H3246 H 0.19752 0.38827 0.53851 0.0
H3247 H 0.19192 0.39592 0.51793 0.0
C3248 C 0.2298 0.40222 0.52796 0.0
C3249 C 0.22792 0.40343 0.48095 0.0
C3250 C 0.22401 0.40354 0.56364 0.0
C3251 C 0.2162 0.40605 0.55294 0.0
C3252 C 0.21493 0.40803 0.50619 0.0
H3253 H 0.16587 0.40575 0.72161 0.0
H3254 H 0.17863 0.40932 0.65859 0.0
C3255 C 0.22061 0.4066 0.47068 0.0
C3256 C 0.20911 0.40618 0.59002 0.0
H3257 H 0.18333 0.39534 0.62114 0.0
C3258 C 0.21348 0.41281 0.62867 0.0
C3259 C 0.19806 0.39977 0.58755 0.0
C3260 C 0.19281 0.39191 0.54884 0.0
C3261 C 0.20717 0.41336 0.66424 0.0
C3262 C 0.19612 0.407 0.66172 0.0
C3263 C 0.19175 0.40038 0.62294 0.0
C3264 C 0.18903 0.40633 0.70079 0.0
C3265 C 0.21249 0.42085 0.70406 0.0
C3266 C 0.19064 0.40365 0.74571 0.0
C3267 C 0.18354 0.40187 0.78155 0.0
C3268 C 0.17445 0.40249 0.77371 0.0
C3269 C 0.17293 0.40553 0.72924 0.0
C3270 C 0.18016 0.4074 0.69305 0.0
H3271 H 0.22013 0.42755 0.6931 0.0
H3272 H 0.20755 0.42392 0.71816 0.0
H3273 H 0.21405 0.4167 0.73242 0.0
H3274 H 0.19712 0.40237 0.75268 0.0
H3275 H 0.18484 0.39931 0.81504 0.0
H3276 H 0.11493 0.28616 0.51236 0.0
H3277 H 0.12407 0.28245 0.57269 0.0
H3278 H 0.10628 0.24957 0.5394 0.0
H3279 H 0.09737 0.25345 0.47601 0.0
H3280 H 0.11938 0.27225 0.64913 0.0
H3281 H 0.1352 0.25387 0.52988 0.0
H3282 H 0.12834 0.26029 0.50882 0.0
H3283 H 0.12118 0.24731 0.53283 0.0
C3284 C 0.11284 0.27809 0.518 0.0
C3285 C 0.10546 0.27011 0.48902 0.0
C3286 C 0.1181 0.27596 0.55281 0.0
C3287 C 0.11612 0.26574 0.5604 0.0
C3288 C 0.10821 0.25758 0.53358 0.0
H3289 H 0.15066 0.25432 0.7866 0.0
H3290 H 0.13721 0.2505 0.72647 0.0
C3291 C 0.10295 0.25975 0.49791 0.0
C3292 C 0.12266 0.26405 0.59564 0.0
H3293 H 0.14072 0.25605 0.60806 0.0
C3294 C 0.12388 0.26853 0.6402 0.0
C3295 C 0.12878 0.25939 0.58415 0.0
C3296 C 0.12842 0.25502 0.53624 0.0
C3297 C 0.13117 0.26877 0.67255 0.0
C3298 C 0.13729 0.2642 0.6609 0.0
C3299 C 0.13588 0.25939 0.6172 0.0
C3300 C 0.14596 0.26548 0.69194 0.0
C3301 C 0.13269 0.27443 0.71824 0.0
C3302 C 0.15545 0.27497 0.69141 0.0
C3303 C 0.16307 0.27711 0.72528 0.0
C3304 C 0.16145 0.26978 0.76037 0.0
C3305 C 0.15223 0.25999 0.75933 0.0
C3306 C 0.14452 0.25786 0.72527 0.0
H3307 H 0.12641 0.27631 0.72496 0.0
H3308 H 0.13296 0.26965 0.74757 0.0
H3309 H 0.1403 0.28186 0.71752 0.0
H3310 H 0.15673 0.28099 0.66631 0.0
H3311 H 0.17002 0.28479 0.72573 0.0
H3312 H 0.74468 0.89372 0.79729 0.0
H3313 H 0.74789 0.88395 0.73654 0.0
H3314 H 0.72954 0.89043 0.63977 0.0
H3315 H 0.7264 0.90025 0.70049 0.0
H3316 H 0.72337 0.867 0.66819 0.0
H3317 H 0.7633 0.89271 0.5969 0.0
H3318 H 0.76089 0.89348 0.65815 0.0
H3319 H 0.75504 0.89782 0.61551 0.0
C3320 C 0.74192 0.89364 0.76222 0.0
C3321 C 0.73566 0.89814 0.75317 0.0
C3322 C 0.7436 0.88789 0.72771 0.0
C3323 C 0.73897 0.88646 0.68352 0.0
C3324 C 0.73326 0.89149 0.67344 0.0
H3325 H 0.74109 0.85392 0.43637 0.0
H3326 H 0.74376 0.86676 0.49627 0.0
C3327 C 0.73163 0.89728 0.70792 0.0
C3328 C 0.73905 0.87874 0.65013 0.0
H3329 H 0.75425 0.87529 0.57035 0.0
C3330 C 0.73012 0.86878 0.64679 0.0
C3331 C 0.74779 0.88111 0.62195 0.0
C3332 C 0.75734 0.89186 0.62284 0.0
C3333 C 0.72968 0.86113 0.61594 0.0
C3334 C 0.73858 0.86337 0.58844 0.0
C3335 C 0.74749 0.87341 0.59179 0.0
C3336 C 0.73853 0.85573 0.55357 0.0
C3337 C 0.71951 0.8509 0.6121 0.0
C3338 C 0.73529 0.84528 0.56555 0.0
C3339 C 0.73369 0.83787 0.5309 0.0
C3340 C 0.73567 0.84084 0.48379 0.0
C3341 C 0.73983 0.85146 0.47252 0.0
C3342 C 0.74122 0.8588 0.50686 0.0
H3343 H 0.71278 0.85163 0.62464 0.0
H3344 H 0.71792 0.84804 0.57556 0.0
H3345 H 0.71992 0.84494 0.63409 0.0
H3346 H 0.73346 0.8427 0.60136 0.0
H3347 H 0.73015 0.8297 0.5405 0.0
H3348 H 0.10142 0.82858 0.70025 0.0
H3349 H 0.11094 0.84176 0.63987 0.0
H3350 H 0.11682 0.86622 0.73789 0.0
H3351 H 0.10718 0.85301 0.79815 0.0
H3352 H 0.10985 0.86088 0.60407 0.0
H3353 H 0.14626 0.86943 0.69813 0.0
H3354 H 0.13407 0.85736 0.70613 0.0
H3355 H 0.13587 0.86921 0.7319 0.0
C3356 C 0.10425 0.83674 0.70808 0.0
C3357 C 0.10325 0.83977 0.75338 0.0
C3358 C 0.10982 0.84428 0.67377 0.0
C3359 C 0.11467 0.85499 0.68446 0.0
C3360 C 0.11313 0.85801 0.72887 0.0
H3361 H 0.16677 0.90578 0.52517 0.0
H3362 H 0.15321 0.89694 0.58575 0.0
C3363 C 0.10747 0.85046 0.76305 0.0
C3364 C 0.12211 0.8629 0.65074 0.0
H3365 H 0.14823 0.87876 0.62899 0.0
C3366 C 0.11823 0.8649 0.60973 0.0
C3367 C 0.13306 0.8681 0.65803 0.0
C3368 C 0.13764 0.86592 0.70071 0.0
C3369 C 0.125 0.87191 0.57576 0.0
C3370 C 0.136 0.87693 0.58234 0.0
C3371 C 0.13984 0.87508 0.62397 0.0
C3372 C 0.14359 0.88309 0.54447 0.0
C3373 C 0.12024 0.87382 0.533 0.0
C3374 C 0.1427 0.87837 0.50101 0.0
C3375 C 0.15025 0.88344 0.46663 0.0
C3376 C 0.15909 0.89334 0.47465 0.0
C3377 C 0.15993 0.8983 0.51752 0.0
C3378 C 0.15224 0.89318 0.55228 0.0
H3379 H 0.11242 0.87281 0.54087 0.0
H3380 H 0.12531 0.88178 0.51861 0.0
H3381 H 0.11913 0.86799 0.50588 0.0
H3382 H 0.13639 0.8705 0.49427 0.0
H3383 H 0.14944 0.87931 0.43427 0.0
H3384 H 0.41576 0.18668 0.62547 0.0
H3385 H 0.41937 0.19994 0.56517 0.0
H3386 H 0.39352 0.17696 0.48389 0.0
H3387 H 0.39003 0.16375 0.5435 0.0
H3388 H 0.41222 0.19254 0.42979 0.0
H3389 H 0.3969 0.20978 0.5584 0.0
H3390 H 0.40617 0.20613 0.5788 0.0
H3391 H 0.39344 0.19621 0.56 0.0
C3392 C 0.41124 0.18434 0.59352 0.0
C3393 C 0.40283 0.17409 0.58854 0.0
C3394 C 0.41318 0.19196 0.55944 0.0
C3395 C 0.40664 0.18949 0.52016 0.0
C3396 C 0.39874 0.17907 0.51353 0.0
H3397 H 0.38618 0.22431 0.35699 0.0
H3398 H 0.38978 0.21477 0.41628 0.0
C3399 C 0.39684 0.17147 0.5474 0.0
C3400 C 0.40721 0.19786 0.48882 0.0
H3401 H 0.40166 0.21773 0.48509 0.0
C3402 C 0.41007 0.19817 0.44191 0.0
C3403 C 0.40405 0.20495 0.50426 0.0
C3404 C 0.39989 0.20429 0.55298 0.0
C3405 C 0.40983 0.20534 0.41007 0.0
C3406 C 0.40696 0.21269 0.42579 0.0
C3407 C 0.40414 0.21236 0.47295 0.0
C3408 C 0.40559 0.2199 0.39317 0.0
C3409 C 0.41208 0.20454 0.35939 0.0
C3410 C 0.41341 0.22652 0.36127 0.0
C3411 C 0.41128 0.23198 0.3266 0.0
C3412 C 0.40141 0.23116 0.32423 0.0
C3413 C 0.39396 0.2253 0.35863 0.0
C3414 C 0.396 0.21973 0.39243 0.0
H3415 H 0.41147 0.19689 0.35134 0.0
H3416 H 0.40659 0.20552 0.33633 0.0
H3417 H 0.42016 0.21077 0.35109 0.0
H3418 H 0.42101 0.22711 0.36181 0.0
H3419 H 0.41708 0.23623 0.29997 0.0
H3420 H 0.81685 0.23491 0.6145 0.0
H3421 H 0.80312 0.2265 0.55453 0.0
H3422 H 0.82098 0.21438 0.48759 0.0
H3423 H 0.83456 0.22268 0.54689 0.0
H3424 H 0.80995 0.22084 0.42386 0.0
H3425 H 0.78496 0.19367 0.56365 0.0
H3426 H 0.79086 0.20748 0.57479 0.0
H3427 H 0.79897 0.20169 0.56925 0.0
C3428 C 0.818 0.2308 0.58592 0.0
C3429 C 0.82678 0.22948 0.5852 0.0
C3430 C 0.8101 0.22589 0.55201 0.0
C3431 C 0.81093 0.21966 0.51694 0.0
C3432 C 0.82013 0.21911 0.51418 0.0
H3433 H 0.77067 0.1638 0.37345 0.0
H3434 H 0.78036 0.1775 0.43053 0.0
C3435 C 0.82791 0.2239 0.54805 0.0
C3436 C 0.80192 0.21274 0.48624 0.0
H3437 H 0.77839 0.18995 0.48762 0.0
C3438 C 0.80294 0.21419 0.43772 0.0
C3439 C 0.79293 0.20389 0.50429 0.0
C3440 C 0.7918 0.20147 0.55578 0.0
C3441 C 0.79534 0.20694 0.40682 0.0
C3442 C 0.78627 0.19808 0.42489 0.0
C3443 C 0.78518 0.1968 0.47356 0.0
C3444 C 0.77857 0.18939 0.39428 0.0
C3445 C 0.79747 0.20853 0.35512 0.0
C3446 C 0.77368 0.19119 0.35602 0.0
C3447 C 0.76809 0.18326 0.32301 0.0
C3448 C 0.76706 0.17333 0.32845 0.0
C3449 C 0.77104 0.17127 0.3691 0.0
C3450 C 0.77673 0.17919 0.40153 0.0
H3451 H 0.80583 0.21415 0.3476 0.0
H3452 H 0.79529 0.20103 0.33749 0.0
H3453 H 0.79275 0.21173 0.33979 0.0
H3454 H 0.7747 0.19888 0.35014 0.0
H3455 H 0.76539 0.18516 0.29137 0.0
H3456 H 0.81262 0.60283 0.26096 0.0
H3457 H 0.80046 0.59992 0.32324 0.0
H3458 H 0.8172 0.58992 0.41341 0.0
H3459 H 0.8301 0.59368 0.35098 0.0
H3460 H 0.78694 0.58506 0.36936 0.0
H3461 H 0.81692 0.61101 0.49689 0.0
H3462 H 0.82014 0.61 0.43728 0.0
H3463 H 0.81857 0.60026 0.47945 0.0
C3464 C 0.81372 0.59989 0.29382 0.0
C3465 C 0.82244 0.59856 0.3008 0.0
C3466 C 0.80668 0.59821 0.3297 0.0
C3467 C 0.80792 0.59491 0.37389 0.0
C3468 C 0.81619 0.5928 0.38025 0.0
H3469 H 0.77361 0.58737 0.63249 0.0
H3470 H 0.78285 0.58477 0.56768 0.0
C3471 C 0.82345 0.59471 0.34417 0.0
C3472 C 0.80056 0.59393 0.41243 0.0
H3473 H 0.79945 0.60186 0.52352 0.0
C3474 C 0.78973 0.58872 0.40309 0.0
C3475 C 0.80408 0.59886 0.45645 0.0
C3476 C 0.81555 0.60544 0.46803 0.0
C3477 C 0.78243 0.58826 0.43603 0.0
C3478 C 0.78594 0.59296 0.48023 0.0
C3479 C 0.79672 0.59809 0.48992 0.0
C3480 C 0.77865 0.59285 0.51685 0.0
C3481 C 0.77101 0.58279 0.42304 0.0
C3482 C 0.77277 0.59785 0.50966 0.0
C3483 C 0.76724 0.59911 0.54665 0.0
C3484 C 0.76753 0.59545 0.59158 0.0
C3485 C 0.7729 0.58992 0.59793 0.0
C3486 C 0.77836 0.5886 0.56103 0.0
H3487 H 0.76928 0.57746 0.39281 0.0
H3488 H 0.76602 0.57822 0.4529 0.0
H3489 H 0.76885 0.58874 0.41322 0.0
H3490 H 0.77305 0.60144 0.47638 0.0
H3491 H 0.76362 0.60385 0.54119 0.0
H3492 H 0.87582 0.71884 0.60435 0.0
H3493 H 0.86756 0.72376 0.54528 0.0
H3494 H 0.89607 0.75308 0.52541 0.0
H3495 H 0.90469 0.74821 0.58696 0.0
H3496 H 0.8663 0.74353 0.55071 0.0
H3497 H 0.88403 0.73775 0.39014 0.0
H3498 H 0.88334 0.73101 0.44369 0.0
H3499 H 0.89227 0.74478 0.43909 0.0
C3500 C 0.88051 0.72639 0.58787 0.0
C3501 C 0.891 0.7332 0.60137 0.0
C3502 C 0.87568 0.72916 0.55371 0.0
C3503 C 0.88111 0.7388 0.53109 0.0
C3504 C 0.89171 0.74558 0.54269 0.0
H3505 H 0.84899 0.74829 0.29262 0.0
H3506 H 0.86235 0.75288 0.3535 0.0
C3507 C 0.89664 0.7428 0.57773 0.0
C3508 C 0.87523 0.74148 0.49672 0.0
H3509 H 0.86937 0.73984 0.3806 0.0
C3510 C 0.86716 0.74304 0.51339 0.0
C3511 C 0.87617 0.74058 0.44815 0.0
C3512 C 0.88438 0.73841 0.42876 0.0
C3513 C 0.85985 0.74341 0.48306 0.0
C3514 C 0.86052 0.74208 0.43448 0.0
C3515 C 0.86888 0.74099 0.41765 0.0
C3516 C 0.85208 0.74068 0.40124 0.0
C3517 C 0.85131 0.74492 0.50372 0.0
C3518 C 0.84176 0.73252 0.40814 0.0
C3519 C 0.83413 0.73004 0.37381 0.0
C3520 C 0.8366 0.73562 0.33159 0.0
C3521 C 0.84675 0.74413 0.32553 0.0
C3522 C 0.85443 0.74663 0.36002 0.0
H3523 H 0.8539 0.74942 0.5368 0.0
H3524 H 0.84877 0.74904 0.4792 0.0
H3525 H 0.84447 0.73715 0.51195 0.0
H3526 H 0.83973 0.72758 0.4387 0.0
H3527 H 0.82649 0.72318 0.37866 0.0
H3528 H 0.28147 0.11417 0.35497 0.0
H3529 H 0.27777 0.12372 0.41423 0.0
H3530 H 0.24604 0.10988 0.36495 0.0
H3531 H 0.24979 0.10027 0.30443 0.0
H3532 H 0.26578 0.13678 0.37143 0.0
H3533 H 0.25149 0.11132 0.52876 0.0
H3534 H 0.26079 0.11071 0.48983 0.0
H3535 H 0.2476 0.10587 0.47086 0.0
C3536 C 0.27354 0.11276 0.35801 0.0
C3537 C 0.26585 0.10629 0.32553 0.0
C3538 C 0.27148 0.11833 0.39171 0.0
C3539 C 0.26164 0.11755 0.39409 0.0
C3540 C 0.25368 0.11056 0.3638 0.0
H3541 H 0.2503 0.15346 0.61111 0.0
H3542 H 0.24657 0.14068 0.54802 0.0
C3543 C 0.25577 0.10496 0.32965 0.0
C3544 C 0.26027 0.12495 0.42468 0.0
H3545 H 0.25522 0.12874 0.53717 0.0
C3546 C 0.26325 0.13496 0.40742 0.0
C3547 C 0.25713 0.12264 0.47174 0.0
C3548 C 0.25405 0.11206 0.49184 0.0
C3549 C 0.26336 0.14276 0.43608 0.0
C3550 C 0.26058 0.14061 0.4839 0.0
C3551 C 0.25726 0.13045 0.50067 0.0
C3552 C 0.2621 0.14901 0.51789 0.0
C3553 C 0.26663 0.15329 0.41463 0.0
C3554 C 0.27193 0.1581 0.52158 0.0
C3555 C 0.27392 0.16546 0.55644 0.0
C3556 C 0.26626 0.16391 0.58966 0.0
C3557 C 0.25626 0.15505 0.58526 0.0
C3558 C 0.2542 0.14765 0.54964 0.0
H3559 H 0.26459 0.15252 0.37699 0.0
H3560 H 0.26292 0.15729 0.43242 0.0
H3561 H 0.27526 0.1583 0.41724 0.0
H3562 H 0.27832 0.15926 0.49917 0.0
H3563 H 0.28179 0.17207 0.55956 0.0
H3564 H 0.82886 0.09834 0.55319 0.0
H3565 H 0.84138 0.10829 0.49071 0.0
H3566 H 0.86545 0.12469 0.59347 0.0
H3567 H 0.85307 0.11478 0.6553 0.0
H3568 H 0.85162 0.13082 0.48654 0.0
H3569 H 0.88085 0.11767 0.49275 0.0
H3570 H 0.86777 0.1099 0.51587 0.0
H3571 H 0.87753 0.12089 0.54819 0.0
C3572 C 0.83697 0.10361 0.5621 0.0
C3573 C 0.84007 0.10546 0.60909 0.0
C3574 C 0.84409 0.10946 0.52648 0.0
C3575 C 0.85443 0.11717 0.53721 0.0
C3576 C 0.85764 0.11861 0.58398 0.0
H3577 H 0.89657 0.17363 0.38298 0.0
H3578 H 0.88731 0.16077 0.44489 0.0
C3579 C 0.85056 0.11284 0.61937 0.0
C3580 C 0.86163 0.12443 0.50064 0.0
H3581 H 0.88554 0.13315 0.44932 0.0
C3582 C 0.85898 0.13124 0.47811 0.0
C3583 C 0.87132 0.12511 0.48992 0.0
C3584 C 0.87455 0.11796 0.51261 0.0
C3585 C 0.86579 0.13876 0.44577 0.0
C3586 C 0.87552 0.13951 0.43548 0.0
C3587 C 0.87811 0.13261 0.45739 0.0
C3588 C 0.88291 0.14728 0.40104 0.0
C3589 C 0.86253 0.14587 0.42264 0.0
C3590 C 0.88404 0.144 0.35651 0.0
C3591 C 0.88946 0.15136 0.32129 0.0
C3592 C 0.89397 0.16212 0.33015 0.0
C3593 C 0.89348 0.1654 0.37562 0.0
C3594 C 0.88804 0.15804 0.4108 0.0
H3595 H 0.85416 0.14329 0.42897 0.0
H3596 H 0.86733 0.15392 0.43654 0.0
H3597 H 0.86389 0.14619 0.38443 0.0
H3598 H 0.88011 0.13574 0.34809 0.0
H3599 H 0.88937 0.14862 0.28617 0.0
H3600 H 0.25781 0.14569 0.76781 0.0
H3601 H 0.25507 0.13359 0.83151 0.0
H3602 H 0.26188 0.158 0.93125 0.0
H3603 H 0.26462 0.1702 0.86705 0.0
H3604 H 0.27221 0.13851 0.89754 0.0
H3605 H 0.2356 0.1312 0.98576 0.0
H3606 H 0.23844 0.13567 0.926 0.0
H3607 H 0.24534 0.14451 0.9728 0.0
C3608 C 0.25824 0.14836 0.80337 0.0
C3609 C 0.26116 0.15884 0.81232 0.0
C3610 C 0.25681 0.14146 0.83979 0.0
C3611 C 0.25824 0.14483 0.8863 0.0
C3612 C 0.26055 0.15514 0.89572 0.0
H3613 H 0.25862 0.1154 0.15125 0.0
H3614 H 0.2563 0.1252 0.0888 0.0
C3615 C 0.26198 0.16209 0.85902 0.0
C3616 C 0.25822 0.13778 0.92387 0.0
H3617 H 0.2444 0.12312 0.02167 0.0
C3618 C 0.2661 0.13509 0.92375 0.0
C3619 C 0.2504 0.13348 0.9586 0.0
C3620 C 0.2419 0.13628 0.96103 0.0
C3621 C 0.26643 0.1283 0.95749 0.0
C3622 C 0.25832 0.12359 0.99121 0.0
C3623 C 0.25049 0.1264 0.99141 0.0
C3624 C 0.25826 0.1165 0.03281 0.0
C3625 C 0.27575 0.12668 0.95763 0.0
C3626 C 0.25955 0.10784 0.02292 0.0
C3627 C 0.26091 0.10216 0.05916 0.0
C3628 C 0.26078 0.10491 0.10597 0.0
C3629 C 0.25853 0.11293 0.1156 0.0
C3630 C 0.25732 0.11865 0.0797 0.0
H3631 H 0.28259 0.13319 0.93974 0.0
H3632 H 0.27812 0.12607 0.99371 0.0
H3633 H 0.27372 0.11936 0.93868 0.0
H3634 H 0.25998 0.10566 0.98309 0.0
H3635 H 0.26291 0.09624 0.05047 0.0
H3636 H 0.87373 0.15169 0.143 0.0
H3637 H 0.8656 0.13991 0.07833 0.0
H3638 H 0.89557 0.15204 0.01135 0.0
H3639 H 0.90398 0.16442 0.07683 0.0
H3640 H 0.86949 0.14883 0.97041 0.0
H3641 H 0.87709 0.11653 0.01824 0.0
H3642 H 0.87641 0.1247 0.06333 0.0
H3643 H 0.88732 0.13003 0.02421 0.0
C3644 C 0.87874 0.15189 0.11508 0.0
C3645 C 0.88958 0.15913 0.11533 0.0
C3646 C 0.874 0.14507 0.07795 0.0
C3647 C 0.87994 0.14509 0.04003 0.0
C3648 C 0.89085 0.15192 0.04047 0.0
H3649 H 0.85062 0.10688 0.7861 0.0
H3650 H 0.86354 0.11643 0.8476 0.0
C3651 C 0.89566 0.15894 0.07794 0.0
C3652 C 0.87431 0.13816 0.99558 0.0
H3653 H 0.86496 0.11333 0.95384 0.0
C3654 C 0.86868 0.14116 0.96609 0.0
C3655 C 0.87309 0.12808 0.99066 0.0
C3656 C 0.87877 0.12456 0.02668 0.0
C3657 C 0.8617 0.13426 0.9325 0.0
C3658 C 0.8602 0.12404 0.92862 0.0
C3659 C 0.8661 0.12115 0.95695 0.0
C3660 C 0.85226 0.11626 0.89613 0.0
C3661 C 0.85579 0.1379 0.90206 0.0
C3662 C 0.84157 0.11249 0.90406 0.0
C3663 C 0.8342 0.10691 0.86933 0.0
C3664 C 0.83736 0.10492 0.82619 0.0
C3665 C 0.84794 0.10798 0.81964 0.0
C3666 C 0.85533 0.11355 0.85452 0.0
H3667 H 0.85946 0.14655 0.90208 0.0
H3668 H 0.85536 0.13519 0.86557 0.0
H3669 H 0.84768 0.13453 0.91533 0.0
H3670 H 0.83902 0.11448 0.93589 0.0
H3671 H 0.82615 0.10496 0.87462 0.0
H3672 H 0.90159 0.73175 0.87482 0.0
H3673 H 0.89186 0.7343 0.93795 0.0
H3674 H 0.8807 0.74882 0.84098 0.0
H3675 H 0.89028 0.7461 0.77794 0.0
H3676 H 0.89035 0.75094 0.97775 0.0
H3677 H 0.85364 0.72338 0.88628 0.0
H3678 H 0.86621 0.72512 0.86991 0.0
H3679 H 0.8625 0.73446 0.85178 0.0
C3680 C 0.89755 0.73602 0.8676 0.0
C3681 C 0.89699 0.73905 0.82166 0.0
C3682 C 0.8918 0.7373 0.90355 0.0
C3683 C 0.88532 0.74154 0.89413 0.0
C3684 C 0.88547 0.74535 0.84907 0.0
H3685 H 0.83468 0.74124 0.06628 0.0
H3686 H 0.84766 0.74496 0.00402 0.0
C3687 C 0.89116 0.74403 0.81321 0.0
C3688 C 0.87793 0.74137 0.93035 0.0
H3689 H 0.8519 0.73138 0.95439 0.0
C3690 C 0.88195 0.74672 0.97248 0.0
C3691 C 0.86692 0.73576 0.92389 0.0
C3692 C 0.86202 0.72926 0.88077 0.0
C3693 C 0.87537 0.74688 0.01192 0.0
C3694 C 0.86434 0.74127 0.00561 0.0
C3695 C 0.86031 0.73585 0.9592 0.0
C3696 C 0.85688 0.74001 0.044 0.0
C3697 C 0.88037 0.75303 0.05569 0.0
C3698 C 0.8577 0.73608 0.08727 0.0
C3699 C 0.85057 0.73429 0.12285 0.0
C3700 C 0.84205 0.73599 0.11621 0.0
C3701 C 0.84123 0.74006 0.07309 0.0
C3702 C 0.84858 0.74205 0.03729 0.0
H3703 H 0.88835 0.75966 0.04862 0.0
H3704 H 0.87562 0.75616 0.07145 0.0
H3705 H 0.88115 0.74785 0.08144 0.0
H3706 H 0.86367 0.734 0.09323 0.0
H3707 H 0.85147 0.73103 0.15518 0.0
H3708 H 0.81395 0.58966 0.13161 0.0
H3709 H 0.80063 0.58595 0.07191 0.0
H3710 H 0.82475 0.60617 0.97179 0.0
H3711 H 0.83803 0.61005 0.03584 0.0
H3712 H 0.80941 0.61157 0.98462 0.0
H3713 H 0.79093 0.56918 0.94542 0.0
H3714 H 0.79254 0.57256 0.01046 0.0
H3715 H 0.80386 0.57663 0.97026 0.0
C3716 C 0.81644 0.59284 0.09689 0.0
C3717 C 0.82707 0.59982 0.08781 0.0
C3718 C 0.8088 0.59081 0.06286 0.0
C3719 C 0.81165 0.59575 0.01904 0.0
C3720 C 0.82233 0.60229 0.00918 0.0
H3721 H 0.7756 0.58962 0.76803 0.0
H3722 H 0.78552 0.58729 0.8304 0.0
C3723 C 0.82995 0.60433 0.04321 0.0
C3724 C 0.80351 0.59498 0.98159 0.0
H3725 H 0.78247 0.57799 0.91568 0.0
C3726 C 0.80352 0.60422 0.96962 0.0
C3727 C 0.79586 0.58542 0.96157 0.0
C3728 C 0.79579 0.57535 0.9711 0.0
C3729 C 0.79611 0.60416 0.93849 0.0
C3730 C 0.78825 0.59455 0.91935 0.0
C3731 C 0.78831 0.58533 0.93101 0.0
C3732 C 0.78052 0.5941 0.88419 0.0
C3733 C 0.79701 0.61448 0.92523 0.0
C3734 C 0.77383 0.59809 0.89389 0.0
C3735 C 0.768 0.5993 0.85808 0.0
C3736 C 0.76867 0.59642 0.81206 0.0
C3737 C 0.77465 0.59159 0.8034 0.0
C3738 C 0.78046 0.5904 0.83901 0.0
H3739 H 0.80483 0.62121 0.93394 0.0
H3740 H 0.79561 0.61476 0.88734 0.0
H3741 H 0.79107 0.61547 0.94464 0.0
H3742 H 0.77357 0.60084 0.92858 0.0
H3743 H 0.76377 0.60337 0.86554 0.0
H3744 H 0.38181 0.16934 0.82792 0.0
H3745 H 0.3856 0.18178 0.88974 0.0
H3746 H 0.41824 0.19077 0.88388 0.0
H3747 H 0.41446 0.17845 0.81839 0.0
H3748 H 0.39212 0.18421 0.97266 0.0
H3749 H 0.4211 0.21905 0.87323 0.0
H3750 H 0.41344 0.2064 0.8464 0.0
H3751 H 0.42463 0.20916 0.88152 0.0
C3752 C 0.38985 0.1739 0.83965 0.0
C3753 C 0.39786 0.17296 0.81746 0.0
C3754 C 0.392 0.18105 0.87548 0.0
C3755 C 0.40225 0.1875 0.89134 0.0
C3756 C 0.41028 0.18615 0.8715 0.0
H3757 H 0.41401 0.22966 0.13488 0.0
H3758 H 0.41684 0.21962 0.07387 0.0
C3759 C 0.40811 0.17897 0.8346 0.0
C3760 C 0.40414 0.1956 0.92776 0.0
H3761 H 0.41676 0.22204 0.94847 0.0
C3762 C 0.39763 0.19246 0.96744 0.0
C3763 C 0.41116 0.20646 0.92101 0.0
C3764 C 0.41792 0.21053 0.87809 0.0
C3765 C 0.39778 0.19984 0.00349 0.0
C3766 C 0.40475 0.21055 0.99253 0.0
C3767 C 0.41148 0.21375 0.95387 0.0
C3768 C 0.40469 0.21861 0.0284 0.0
C3769 C 0.3901 0.19601 0.04348 0.0
C3770 C 0.39726 0.22177 0.02219 0.0
C3771 C 0.3958 0.22769 0.05651 0.0
C3772 C 0.40175 0.23058 0.09778 0.0
C3773 C 0.40962 0.22794 0.10268 0.0
C3774 C 0.41113 0.22207 0.06812 0.0
H3775 H 0.38592 0.18736 0.04695 0.0
H3776 H 0.39417 0.19956 0.07678 0.0
H3777 H 0.38421 0.19848 0.03774 0.0
H3778 H 0.39207 0.21898 0.98817 0.0
H3779 H 0.38936 0.22919 0.05272 0.0
H3780 H 0.81978 0.2391 0.81084 0.0
H3781 H 0.80762 0.23085 0.87747 0.0
H3782 H 0.81684 0.20743 0.88643 0.0
H3783 H 0.82882 0.21552 0.82233 0.0
H3784 H 0.79036 0.20833 0.88411 0.0
H3785 H 0.82054 0.21857 0.02437 0.0
H3786 H 0.82335 0.22542 0.96544 0.0
H3787 H 0.82284 0.213 0.96901 0.0
C3788 C 0.81931 0.23234 0.82783 0.0
C3789 C 0.82529 0.22801 0.81129 0.0
C3790 C 0.81232 0.22757 0.86552 0.0
C3791 C 0.8114 0.21856 0.8873 0.0
C3792 C 0.81749 0.21443 0.87093 0.0
H3793 H 0.78126 0.16813 0.07456 0.0
H3794 H 0.78976 0.18075 0.01167 0.0
C3795 C 0.82434 0.21909 0.8339 0.0
C3796 C 0.80403 0.21307 0.92654 0.0
H3797 H 0.80363 0.20352 0.03948 0.0
C3798 C 0.7932 0.20753 0.91782 0.0
C3799 C 0.80775 0.21181 0.9702 0.0
C3800 C 0.81925 0.21757 0.98198 0.0
C3801 C 0.7861 0.20036 0.95067 0.0
C3802 C 0.78992 0.19879 0.99335 0.0
C3803 C 0.80069 0.20477 0.0069 0.0
C3804 C 0.7832 0.19044 0.03083 0.0
C3805 C 0.77467 0.19396 0.93852 0.0
C3806 C 0.77639 0.19149 0.06189 0.0
C3807 C 0.77143 0.18417 0.09808 0.0
C3808 C 0.77324 0.17575 0.10342 0.0
C3809 C 0.77962 0.17447 0.07079 0.0
C3810 C 0.78452 0.18171 0.03497 0.0
H3811 H 0.77295 0.19583 0.90325 0.0
H3812 H 0.77215 0.1855 0.93992 0.0
H3813 H 0.76998 0.19539 0.9646 0.0
H3814 H 0.77536 0.19823 0.05961 0.0
H3815 H 0.76676 0.18546 0.12341 0.0
H3816 H 0.03674 0.48327 0.19208 0.0
H3817 H 0.0238 0.474 0.25297 0.0
H3818 H 0.01239 0.44513 0.17668 0.0
H3819 H 0.02583 0.45442 0.11662 0.0
H3820 H 0.00377 0.46529 0.24449 0.0
H3821 H 0.01154 0.43401 0.30381 0.0
H3822 H 0.02061 0.44467 0.26734 0.0
H3823 H 0.00907 0.43387 0.2425 0.0
C3824 C 0.03169 0.47488 0.18903 0.0
C3825 C 0.03244 0.46955 0.14998 0.0
C3826 C 0.0242 0.46957 0.22375 0.0
C3827 C 0.01704 0.45878 0.22015 0.0
C3828 C 0.01792 0.45336 0.18144 0.0
H3829 H 0.95939 0.4245 0.40193 0.0
H3830 H 0.97187 0.4283 0.33751 0.0
C3831 C 0.02562 0.45868 0.14695 0.0
C3832 C 0.00829 0.45364 0.25512 0.0
H3833 H 0.99546 0.43401 0.33647 0.0
C3834 C 0.0023 0.45844 0.26441 0.0
C3835 C 0.00609 0.44456 0.281 0.0
C3836 C 0.01221 0.43901 0.27355 0.0
C3837 C 0.99324 0.45472 0.2993 0.0
C3838 C 0.99133 0.44592 0.32634 0.0
C3839 C 0.99694 0.44078 0.31597 0.0
C3840 C 0.98415 0.44265 0.36761 0.0
C3841 C 0.98723 0.46035 0.30757 0.0
C3842 C 0.98696 0.44926 0.4066 0.0
C3843 C 0.97986 0.44715 0.44306 0.0
C3844 C 0.96974 0.43833 0.44193 0.0
C3845 C 0.9671 0.43136 0.40406 0.0
C3846 C 0.97424 0.43353 0.36717 0.0
H3847 H 0.98787 0.4654 0.2776 0.0
H3848 H 0.97883 0.45469 0.314 0.0
H3849 H 0.99041 0.46539 0.3389 0.0
H3850 H 0.99457 0.45627 0.40815 0.0
H3851 H 0.98227 0.45263 0.47181 0.0
H3852 H 0.57109 0.5305 0.37535 0.0
H3853 H 0.5681 0.54016 0.31318 0.0
H3854 H 0.56222 0.55778 0.41657 0.0
H3855 H 0.56516 0.54808 0.47854 0.0
H3856 H 0.54844 0.53859 0.3062 0.0
H3857 H 0.57935 0.58034 0.31796 0.0
H3858 H 0.58084 0.56993 0.34313 0.0
H3859 H 0.57306 0.57445 0.37218 0.0
C3860 C 0.56962 0.53675 0.38467 0.0
C3861 C 0.56858 0.53871 0.43169 0.0
C3862 C 0.56782 0.54222 0.34917 0.0
C3863 C 0.56501 0.5498 0.35999 0.0
C3864 C 0.56457 0.55216 0.40711 0.0
H3865 H 0.53432 0.57726 0.19524 0.0
H3866 H 0.54393 0.57397 0.25718 0.0
C3867 C 0.56627 0.54662 0.44256 0.0
C3868 C 0.56103 0.554 0.3227 0.0
H3869 H 0.56471 0.57639 0.2694 0.0
C3870 C 0.55207 0.54685 0.29796 0.0
C3871 C 0.5656 0.56481 0.31251 0.0
C3872 C 0.57529 0.57285 0.33752 0.0
C3873 C 0.54756 0.55015 0.26365 0.0
C3874 C 0.55225 0.56092 0.25248 0.0
C3875 C 0.56114 0.56814 0.27763 0.0
C3876 C 0.54805 0.56458 0.21382 0.0
C3877 C 0.53762 0.54204 0.24028 0.0
C3878 C 0.54758 0.56084 0.16837 0.0
C3879 C 0.54202 0.56259 0.13345 0.0
C3880 C 0.53701 0.56837 0.14265 0.0
C3881 C 0.53819 0.57287 0.18706 0.0
C3882 C 0.54364 0.57096 0.22247 0.0
H3883 H 0.53352 0.53475 0.26124 0.0
H3884 H 0.53218 0.54507 0.23442 0.0
H3885 H 0.53957 0.53999 0.20593 0.0
H3886 H 0.5511 0.55611 0.16044 0.0
H3887 H 0.5413 0.55908 0.09951 0.0
H3888 H 0.45348 0.98185 0.12944 0.0
H3889 H 0.45597 0.99434 0.19021 0.0
H3890 H 0.42362 0.97558 0.23025 0.0
H3891 H 0.42101 0.96283 0.1686 0.0
H3892 H 0.44522 0.00699 0.20255 0.0
H3893 H 0.43984 0.98029 0.35495 0.0
H3894 H 0.44225 0.97714 0.29711 0.0
H3895 H 0.42974 0.97561 0.31128 0.0
C3896 C 0.44683 0.98028 0.15103 0.0
C3897 C 0.43702 0.97123 0.14398 0.0
C3898 C 0.44829 0.98751 0.1859 0.0
C3899 C 0.44005 0.98593 0.21533 0.0
C3900 C 0.43017 0.97694 0.20845 0.0
H3901 H 0.45183 0.02956 0.45783 0.0
H3902 H 0.44161 0.01621 0.39821 0.0
C3903 C 0.42866 0.96968 0.173 0.0
C3904 C 0.44206 0.99384 0.25262 0.0
H3905 H 0.44583 0.99803 0.37034 0.0
C3906 C 0.44508 0.00518 0.23928 0.0
C3907 C 0.44184 0.99154 0.30074 0.0
C3908 C 0.43827 0.98057 0.31724 0.0
C3909 C 0.44874 0.01334 0.27223 0.0
C3910 C 0.44916 0.01116 0.32 0.0
C3911 C 0.44511 0.00069 0.33377 0.0
C3912 C 0.45496 0.01974 0.35477 0.0
C3913 C 0.45239 0.02432 0.25552 0.0
C3914 C 0.46583 0.02623 0.35019 0.0
C3915 C 0.47163 0.03372 0.38417 0.0
C3916 C 0.46673 0.03509 0.42341 0.0
C3917 C 0.45579 0.02887 0.42743 0.0
C3918 C 0.44997 0.02117 0.39362 0.0
H3919 H 0.44878 0.02432 0.22155 0.0
H3920 H 0.4505 0.02873 0.28135 0.0
H3921 H 0.461 0.02848 0.25076 0.0
H3922 H 0.46991 0.02523 0.32103 0.0
H3923 H 0.48005 0.03828 0.38044 0.0
H3924 H 0.95988 0.52682 0.86338 0.0
H3925 H 0.97295 0.53707 0.80383 0.0
H3926 H 0.98928 0.56206 0.90276 0.0
H3927 H 0.97611 0.55176 0.96247 0.0
H3928 H 0.98161 0.55752 0.76345 0.0
H3929 H 0.01211 0.55306 0.86891 0.0
H3930 H 0.99696 0.54572 0.88125 0.0
H3931 H 0.00578 0.55927 0.89718 0.0
C3932 C 0.96605 0.53465 0.87186 0.0
C3933 C 0.96689 0.53856 0.91725 0.0
C3934 C 0.97357 0.54049 0.83791 0.0
C3935 C 0.98224 0.55028 0.84885 0.0
C3936 C 0.98275 0.55448 0.89351 0.0
H3937 H 0.04117 0.5807 0.67429 0.0
H3938 H 0.02837 0.5788 0.7344 0.0
C3939 C 0.97515 0.54866 0.92745 0.0
C3940 C 0.99107 0.55548 0.81481 0.0
H3941 H 0.01748 0.56081 0.79524 0.0
C3942 C 0.9892 0.55835 0.77065 0.0
C3943 C 0.00236 0.55665 0.82402 0.0
C3944 C 0.0048 0.55346 0.87022 0.0
C3945 C 0.99688 0.56204 0.73531 0.0
C3946 C 0.00796 0.5627 0.7438 0.0
C3947 C 0.01002 0.56032 0.7886 0.0
C3948 C 0.01561 0.5646 0.70549 0.0
C3949 C 0.99441 0.56507 0.68883 0.0
C3950 C 0.01274 0.55729 0.66922 0.0
C3951 C 0.02004 0.55826 0.63556 0.0
C3952 C 0.03042 0.56664 0.63677 0.0
C3953 C 0.03324 0.57419 0.67216 0.0
C3954 C 0.02593 0.5731 0.70659 0.0
H3955 H 0.98825 0.56725 0.69215 0.0
H3956 H 0.00282 0.57173 0.67318 0.0
H3957 H 0.99149 0.55831 0.66468 0.0
H3958 H 0.0049 0.55059 0.66778 0.0
H3959 H 0.01756 0.55233 0.60873 0.0
H3960 H 0.44632 0.46307 0.60336 0.0
H3961 H 0.44942 0.4539 0.66662 0.0
H3962 H 0.42555 0.45494 0.74879 0.0
H3963 H 0.42258 0.46449 0.68537 0.0
H3964 H 0.45441 0.46424 0.76696 0.0
H3965 H 0.42173 0.42307 0.75354 0.0
H3966 H 0.42655 0.43129 0.70238 0.0
H3967 H 0.41938 0.43386 0.74558 0.0
C3968 C 0.44172 0.46138 0.63483 0.0
C3969 C 0.43438 0.46475 0.63965 0.0
C3970 C 0.44343 0.45603 0.67085 0.0
C3971 C 0.43775 0.45374 0.71255 0.0
C3972 C 0.42999 0.45657 0.71681 0.0
H3973 H 0.45136 0.42839 0.96643 0.0
H3974 H 0.44167 0.4323 0.9073 0.0
C3975 C 0.42828 0.462 0.68052 0.0
C3976 C 0.44082 0.44935 0.75252 0.0
H3977 H 0.43519 0.42651 0.80757 0.0
C3978 C 0.45014 0.45601 0.77614 0.0
C3979 C 0.43522 0.43863 0.76478 0.0
C3980 C 0.42514 0.43121 0.74046 0.0
C3981 C 0.45416 0.45223 0.81072 0.0
C3982 C 0.44889 0.44141 0.82137 0.0
C3983 C 0.43931 0.43477 0.79912 0.0
C3984 C 0.4536 0.43702 0.85418 0.0
C3985 C 0.46409 0.45989 0.83555 0.0
C3986 C 0.4633 0.43789 0.84346 0.0
C3987 C 0.46883 0.43573 0.87714 0.0
C3988 C 0.46469 0.43239 0.92201 0.0
C3989 C 0.45464 0.43074 0.93178 0.0
C3990 C 0.44912 0.43303 0.89809 0.0
H3991 H 0.46567 0.46805 0.83224 0.0
H3992 H 0.46367 0.45792 0.87317 0.0
H3993 H 0.47078 0.45952 0.82003 0.0
H3994 H 0.46686 0.4408 0.8097 0.0
H3995 H 0.4766 0.43718 0.86888 0.0
H3996 H 0.57718 0.03327 0.94104 0.0
H3997 H 0.57385 0.02031 0.87915 0.0
H3998 H 0.5439 0.01758 0.85194 0.0
H3999 H 0.54705 0.03025 0.91305 0.0
H4000 H 0.5552 0.99718 0.86988 0.0
H4001 H 0.55963 0.02439 0.72244 0.0
H4002 H 0.56523 0.02922 0.77934 0.0
H4003 H 0.55162 0.02472 0.76887 0.0
C4004 C 0.56994 0.02997 0.92153 0.0
C4005 C 0.56242 0.03289 0.93208 0.0
C4006 C 0.56801 0.0225 0.88634 0.0
C4007 C 0.55863 0.01797 0.86053 0.0
C4008 C 0.55122 0.02097 0.87094 0.0
H4009 H 0.52018 0.97492 0.65511 0.0
H4010 H 0.52997 0.98792 0.71445 0.0
C4011 C 0.55306 0.02826 0.90613 0.0
C4012 C 0.5563 0.01012 0.82255 0.0
H4013 H 0.54984 0.00602 0.70686 0.0
C4014 C 0.55434 0.99894 0.834 0.0
C4015 C 0.5552 0.01238 0.77561 0.0
C4016 C 0.55815 0.0233 0.76057 0.0
C4017 C 0.55021 0.9908 0.80046 0.0
C4018 C 0.5485 0.99295 0.7541 0.0
C4019 C 0.55103 0.00427 0.74229 0.0
C4020 C 0.54257 0.98451 0.71868 0.0
C4021 C 0.54716 0.97985 0.81543 0.0
C4022 C 0.5463 0.97808 0.7008 0.0
C4023 C 0.54062 0.97049 0.66621 0.0
C4024 C 0.53113 0.96921 0.6487 0.0
C4025 C 0.52745 0.97562 0.66723 0.0
C4026 C 0.53307 0.98313 0.70143 0.0
H4027 H 0.54767 0.9792 0.85382 0.0
H4028 H 0.53905 0.97425 0.80402 0.0
H4029 H 0.55245 0.97752 0.79868 0.0
H4030 H 0.55368 0.97905 0.71285 0.0
H4031 H 0.54376 0.96578 0.65272 0.0
H4032 H 0.62321 0.76005 0.71772 0.0
H4033 H 0.63592 0.76344 0.65483 0.0
H4034 H 0.66077 0.78603 0.74175 0.0
H4035 H 0.64808 0.78296 0.80368 0.0
H4036 H 0.65055 0.78673 0.62104 0.0
H4037 H 0.67092 0.76556 0.67786 0.0
H4038 H 0.65768 0.76157 0.69543 0.0
H4039 H 0.66846 0.77286 0.72145 0.0
C4040 C 0.63141 0.76559 0.72359 0.0
C4041 C 0.63465 0.77126 0.76555 0.0
C4042 C 0.63867 0.76754 0.68766 0.0
C4043 C 0.64934 0.77495 0.6936 0.0
C4044 C 0.65262 0.78025 0.73634 0.0
H4045 H 0.70671 0.80487 0.52868 0.0
H4046 H 0.69343 0.79605 0.58977 0.0
C4047 C 0.64535 0.77851 0.77166 0.0
C4048 C 0.65689 0.77806 0.6539 0.0
H4049 H 0.6783 0.77719 0.61391 0.0
C4050 C 0.65654 0.78455 0.61912 0.0
C4051 C 0.66484 0.77538 0.6519 0.0
C4052 C 0.66553 0.76841 0.68841 0.0
C4053 C 0.66405 0.78867 0.58317 0.0
C4054 C 0.67199 0.78591 0.58054 0.0
C4055 C 0.67225 0.7793 0.61531 0.0
C4056 C 0.68018 0.79009 0.5428 0.0
C4057 C 0.66362 0.79635 0.54977 0.0
C4058 C 0.67731 0.78931 0.49552 0.0
C4059 C 0.68488 0.79456 0.4609 0.0
C4060 C 0.69556 0.80033 0.47224 0.0
C4061 C 0.69854 0.80041 0.51886 0.0
C4062 C 0.69093 0.79539 0.55383 0.0
H4063 H 0.65935 0.80006 0.56498 0.0
H4064 H 0.67159 0.80263 0.53989 0.0
H4065 H 0.65939 0.79215 0.51774 0.0
H4066 H 0.66917 0.78492 0.48544 0.0
H4067 H 0.68235 0.79429 0.42521 0.0
H4068 H 0.24352 0.88124 0.7878 0.0
H4069 H 0.23982 0.89152 0.73108 0.0
H4070 H 0.21459 0.863 0.67417 0.0
H4071 H 0.21798 0.85282 0.73138 0.0
H4072 H 0.23917 0.89258 0.63575 0.0
H4073 H 0.19938 0.87841 0.70455 0.0
H4074 H 0.20888 0.87634 0.73507 0.0
H4075 H 0.20123 0.86773 0.68836 0.0
C4076 C 0.23725 0.87718 0.76287 0.0
C4077 C 0.23097 0.86621 0.76448 0.0
C4078 C 0.23511 0.88307 0.73052 0.0
C4079 C 0.2267 0.87808 0.69904 0.0
C4080 C 0.22086 0.8671 0.69904 0.0
H4081 H 0.20608 0.88875 0.44353 0.0
H4082 H 0.21531 0.88619 0.50832 0.0
C4083 C 0.22287 0.86126 0.73161 0.0
C4084 C 0.22381 0.88419 0.66642 0.0
H4085 H 0.20274 0.88581 0.62738 0.0
C4086 C 0.23124 0.89119 0.63439 0.0
C4087 C 0.21353 0.88268 0.66509 0.0
C4088 C 0.20534 0.87597 0.70047 0.0
C4089 C 0.22845 0.89607 0.59929 0.0
C4090 C 0.21798 0.89387 0.59584 0.0
C4091 C 0.21075 0.88744 0.62965 0.0
C4092 C 0.21403 0.89704 0.55456 0.0
C4093 C 0.23665 0.90345 0.56555 0.0
C4094 C 0.2104 0.9042 0.55839 0.0
C4095 C 0.20524 0.90585 0.52071 0.0
C4096 C 0.20338 0.90012 0.47911 0.0
C4097 C 0.20738 0.89328 0.47504 0.0
C4098 C 0.21269 0.89182 0.51207 0.0
H4099 H 0.24469 0.90589 0.57785 0.0
H4100 H 0.23545 0.89953 0.53125 0.0
H4101 H 0.23595 0.91052 0.56031 0.0
H4102 H 0.21127 0.90827 0.59094 0.0
H4103 H 0.20218 0.9111 0.5251 0.0
H4104 H 0.12628 0.35108 0.808 0.0
H4105 H 0.11641 0.33881 0.74546 0.0
H4106 H 0.12216 0.36462 0.6561 0.0
H4107 H 0.13198 0.37701 0.71936 0.0
H4108 H 0.09884 0.33477 0.6858 0.0
H4109 H 0.13639 0.34978 0.59019 0.0
H4110 H 0.13585 0.35291 0.65054 0.0
H4111 H 0.1328 0.35939 0.60535 0.0
C4112 C 0.12528 0.35415 0.7753 0.0
C4113 C 0.12996 0.36502 0.7685 0.0
C4114 C 0.1196 0.3471 0.73956 0.0
C4115 C 0.11865 0.35075 0.6957 0.0
C4116 C 0.12285 0.3616 0.6895 0.0
H4117 H 0.10486 0.31834 0.42864 0.0
H4118 H 0.10765 0.33094 0.49026 0.0
C4119 C 0.1284 0.36868 0.72573 0.0
C4120 C 0.11424 0.34325 0.65577 0.0
H4121 H 0.12146 0.33619 0.55509 0.0
C4122 C 0.10375 0.33512 0.65695 0.0
C4123 C 0.12064 0.3436 0.6183 0.0
C4124 C 0.13207 0.35182 0.61591 0.0
C4125 C 0.09949 0.32745 0.6215 0.0
C4126 C 0.10597 0.32773 0.58429 0.0
C4127 C 0.11642 0.33593 0.58317 0.0
C4128 C 0.10232 0.31962 0.5464 0.0
C4129 C 0.08808 0.31922 0.62406 0.0
C4130 C 0.09799 0.3089 0.55664 0.0
C4131 C 0.09612 0.30161 0.52096 0.0
C4132 C 0.09875 0.30493 0.47451 0.0
C4133 C 0.10271 0.31555 0.4641 0.0
C4134 C 0.10436 0.32277 0.49943 0.0
H4135 H 0.08357 0.32194 0.6451 0.0
H4136 H 0.08454 0.31704 0.58877 0.0
H4137 H 0.08729 0.31212 0.64115 0.0
H4138 H 0.09659 0.30621 0.59241 0.0
H4139 H 0.09328 0.29351 0.5301 0.0
H4140 H 0.70239 0.91228 0.99221 0.0
H4141 H 0.69009 0.90916 0.06085 0.0
H4142 H 0.6758 0.87597 0.03828 0.0
H4143 H 0.68789 0.87893 0.97064 0.0
H4144 H 0.66595 0.89603 0.06483 0.0
H4145 H 0.68631 0.88142 0.17774 0.0
H4146 H 0.69246 0.88964 0.12757 0.0
H4147 H 0.68349 0.87589 0.12014 0.0
C4148 C 0.69661 0.90439 0.00502 0.0
C4149 C 0.69629 0.89587 0.97637 0.0
C4150 C 0.68954 0.90257 0.04186 0.0
C4151 C 0.68206 0.8923 0.0549 0.0
C4152 C 0.68155 0.88395 0.02941 0.0
H4153 H 0.63689 0.85249 0.2503 0.0
H4154 H 0.64968 0.86191 0.18947 0.0
C4155 C 0.68853 0.88565 0.98883 0.0
C4156 C 0.67506 0.89 0.09642 0.0
H4157 H 0.66908 0.87692 0.20034 0.0
C4158 C 0.66669 0.89199 0.09485 0.0
C4159 C 0.67606 0.88483 0.13594 0.0
C4160 C 0.68512 0.88289 0.14088 0.0
C4161 C 0.65893 0.88829 0.13018 0.0
C4162 C 0.65961 0.88253 0.16837 0.0
C4163 C 0.66837 0.88116 0.171 0.0
C4164 C 0.65102 0.87693 0.20369 0.0
C4165 C 0.64983 0.89017 0.12507 0.0
C4166 C 0.64718 0.88208 0.23206 0.0
C4167 C 0.63958 0.87656 0.26681 0.0
C4168 C 0.63588 0.86585 0.2746 0.0
C4169 C 0.63965 0.86075 0.24579 0.0
C4170 C 0.647 0.86616 0.21081 0.0
H4171 H 0.64936 0.89284 0.0894 0.0
H4172 H 0.64234 0.88296 0.1331 0.0
H4173 H 0.65079 0.89633 0.14999 0.0
H4174 H 0.65024 0.89041 0.22837 0.0
H4175 H 0.6369 0.88074 0.28863 0.0
H4176 H 0.12925 0.75617 0.22449 0.0
H4177 H 0.11971 0.75867 0.15952 0.0
H4178 H 0.12139 0.78515 0.2308 0.0
H4179 H 0.131 0.78286 0.29457 0.0
H4180 H 0.09967 0.76581 0.16999 0.0
H4181 H 0.13861 0.79143 0.0889 0.0
H4182 H 0.13578 0.77976 0.12086 0.0
H4183 H 0.13752 0.79108 0.15158 0.0
C4184 C 0.12739 0.76238 0.22657 0.0
C4185 C 0.13101 0.76941 0.26435 0.0
C4186 C 0.12193 0.7638 0.18953 0.0
C4187 C 0.11985 0.77212 0.19036 0.0
C4188 C 0.1229 0.77869 0.22941 0.0
H4189 H 0.11323 0.81506 0.02092 0.0
H4190 H 0.1165 0.80467 0.07741 0.0
C4191 C 0.12846 0.7774 0.26573 0.0
C4192 C 0.11575 0.775 0.14885 0.0
H4193 H 0.12439 0.7926 0.05934 0.0
C4194 C 0.10501 0.77153 0.14515 0.0
C4195 C 0.12273 0.78245 0.11661 0.0
C4196 C 0.13432 0.78643 0.1192 0.0
C4197 C 0.10116 0.77575 0.11141 0.0
C4198 C 0.10827 0.78365 0.08062 0.0
C4199 C 0.11892 0.78665 0.08304 0.0
C4200 C 0.10517 0.78966 0.04846 0.0
C4201 C 0.08962 0.77205 0.1106 0.0
C4202 C 0.09748 0.78476 0.01367 0.0
C4203 C 0.09539 0.79068 0.97768 0.0
C4204 C 0.10114 0.80168 0.97932 0.0
C4205 C 0.10867 0.80661 0.01872 0.0
C4206 C 0.11057 0.80065 0.05095 0.0
H4207 H 0.08562 0.76771 0.14283 0.0
H4208 H 0.08823 0.77873 0.10638 0.0
H4209 H 0.08597 0.76669 0.0806 0.0
H4210 H 0.09335 0.77634 0.00998 0.0
H4211 H 0.08969 0.78673 0.95032 0.0
H4212 H 0.19701 0.29345 0.03905 0.0
H4213 H 0.20655 0.30624 0.10122 0.0
H4214 H 0.221 0.33057 0.99404 0.0
H4215 H 0.21111 0.31794 0.93253 0.0
H4216 H 0.22684 0.32055 0.12558 0.0
H4217 H 0.20598 0.34159 0.07569 0.0
H4218 H 0.20255 0.32897 0.05192 0.0
H4219 H 0.21356 0.34066 0.02906 0.0
C4220 C 0.20241 0.30151 0.02976 0.0
C4221 C 0.20332 0.30468 0.97901 0.0
C4222 C 0.20784 0.30884 0.06528 0.0
C4223 C 0.2143 0.31952 0.05469 0.0
C4224 C 0.21584 0.32256 0.00756 0.0
H4225 H 0.24328 0.37589 0.23172 0.0
H4226 H 0.24039 0.36361 0.16771 0.0
C4227 C 0.21026 0.31523 0.96822 0.0
C4228 C 0.21874 0.32758 0.09263 0.0
H4229 H 0.21888 0.34941 0.13399 0.0
C4230 C 0.2251 0.32685 0.12733 0.0
C4231 C 0.21648 0.33584 0.09535 0.0
C4232 C 0.20919 0.33678 0.06133 0.0
C4233 C 0.22923 0.33416 0.16422 0.0
C4234 C 0.22694 0.34238 0.16675 0.0
C4235 C 0.22074 0.34319 0.13179 0.0
C4236 C 0.23008 0.34972 0.2072 0.0
C4237 C 0.23606 0.33306 0.20024 0.0
C4238 C 0.22537 0.34602 0.25087 0.0
C4239 C 0.22687 0.35302 0.28703 0.0
C4240 C 0.23325 0.36388 0.28073 0.0
C4241 C 0.23843 0.36757 0.23784 0.0
C4242 C 0.23675 0.36055 0.20121 0.0
H4243 H 0.23917 0.32803 0.18764 0.0
H4244 H 0.24272 0.34084 0.20989 0.0
H4245 H 0.23138 0.32945 0.23216 0.0
H4246 H 0.22012 0.33773 0.25631 0.0
H4247 H 0.22276 0.34993 0.31965 0.0
H4248 H 0.29485 0.08759 0.08083 0.0
H4249 H 0.30792 0.0903 0.02037 0.0
H4250 H 0.32235 0.12364 0.0388 0.0
H4251 H 0.30957 0.12109 0.09787 0.0
H4252 H 0.31288 0.10225 0.92965 0.0
H4253 H 0.3472 0.11837 0.05018 0.0
H4254 H 0.33396 0.11056 0.0713 0.0
H4255 H 0.33937 0.12434 0.06063 0.0
C4256 C 0.3008 0.09548 0.07191 0.0
C4257 C 0.30105 0.10409 0.09449 0.0
C4258 C 0.30829 0.09703 0.03732 0.0
C4259 C 0.31627 0.10721 0.02528 0.0
C4260 C 0.31645 0.11572 0.04777 0.0
H4261 H 0.35936 0.14759 0.82569 0.0
H4262 H 0.34701 0.13746 0.88761 0.0
C4263 C 0.30901 0.11421 0.08162 0.0
C4264 C 0.3243 0.1092 0.98435 0.0
H4265 H 0.35072 0.12383 0.96541 0.0
C4266 C 0.32115 0.10674 0.93757 0.0
C4267 C 0.33516 0.11494 0.99433 0.0
C4268 C 0.33915 0.11714 0.04792 0.0
C4269 C 0.32851 0.11061 0.90073 0.0
C4270 C 0.33927 0.11715 0.91069 0.0
C4271 C 0.34247 0.11897 0.95752 0.0
C4272 C 0.3471 0.12314 0.87327 0.0
C4273 C 0.32473 0.10814 0.85107 0.0
C4274 C 0.35146 0.11854 0.84479 0.0
C4275 C 0.35874 0.12442 0.80958 0.0
C4276 C 0.36161 0.13494 0.80159 0.0
C4277 C 0.35722 0.13948 0.83034 0.0
C4278 C 0.35017 0.13369 0.86593 0.0
H4279 H 0.31609 0.10315 0.84882 0.0
H4280 H 0.3272 0.1155 0.83154 0.0
H4281 H 0.32837 0.10401 0.83382 0.0
H4282 H 0.34923 0.11041 0.84971 0.0
H4283 H 0.36194 0.12068 0.78801 0.0
H4284 H 0.86131 0.24004 0.86488 0.0
H4285 H 0.86994 0.23603 0.92874 0.0
H4286 H 0.87958 0.22022 0.83157 0.0
H4287 H 0.87073 0.22394 0.76833 0.0
H4288 H 0.86397 0.21306 0.94668 0.0
H4289 H 0.9064 0.24005 0.91664 0.0
H4290 H 0.89651 0.24295 0.89669 0.0
H4291 H 0.89847 0.23343 0.86655 0.0
C4292 C 0.86553 0.23598 0.85708 0.0
C4293 C 0.86547 0.23242 0.81159 0.0
C4294 C 0.87041 0.23363 0.89356 0.0
C4295 C 0.87551 0.22789 0.88496 0.0
C4296 C 0.87582 0.22475 0.83908 0.0
H4297 H 0.90481 0.19996 0.05848 0.0
H4298 H 0.90013 0.20829 0.99192 0.0
C4299 C 0.87077 0.22689 0.80295 0.0
C4300 C 0.87952 0.22419 0.92415 0.0
H4301 H 0.90183 0.2268 0.97346 0.0
C4302 C 0.87225 0.21613 0.95285 0.0
C4303 C 0.89031 0.22802 0.93152 0.0
C4304 C 0.89843 0.23663 0.90151 0.0
C4305 C 0.87543 0.21169 0.98817 0.0
C4306 C 0.88627 0.21568 0.99656 0.0
C4307 C 0.89355 0.22375 0.96761 0.0
C4308 C 0.8901 0.21164 0.03935 0.0
C4309 C 0.86708 0.20256 0.01889 0.0
C4310 C 0.88646 0.21107 0.08514 0.0
C4311 C 0.88895 0.20611 0.12033 0.0
C4312 C 0.89549 0.20192 0.11135 0.0
C4313 C 0.89981 0.20317 0.06653 0.0
C4314 C 0.8971 0.20795 0.03079 0.0
H4315 H 0.85971 0.19828 0.99435 0.0
H4316 H 0.86965 0.19689 0.02817 0.0
H4317 H 0.86526 0.20538 0.05144 0.0
H4318 H 0.88141 0.2142 0.0935 0.0
H4319 H 0.88557 0.20536 0.15463 0.0
H4320 H 0.7872 0.64065 0.82174 0.0
H4321 H 0.79047 0.65368 0.88124 0.0
H4322 H 0.75972 0.64947 0.85878 0.0
H4323 H 0.75623 0.63598 0.79985 0.0
H4324 H 0.79175 0.67205 0.87245 0.0
H4325 H 0.75971 0.64895 0.00252 0.0
H4326 H 0.76287 0.64274 0.95166 0.0
H4327 H 0.75573 0.6494 0.93982 0.0
C4328 C 0.78107 0.64241 0.82949 0.0
C4329 C 0.77144 0.63722 0.80575 0.0
C4330 C 0.78296 0.64992 0.86373 0.0
C4331 C 0.77535 0.65261 0.87528 0.0
C4332 C 0.76567 0.64743 0.8517 0.0
H4333 H 0.78888 0.70272 0.09175 0.0
H4334 H 0.77993 0.69043 0.02678 0.0
C4335 C 0.7637 0.63974 0.81765 0.0
C4336 C 0.77799 0.66114 0.91051 0.0
H4337 H 0.77172 0.66639 0.02287 0.0
C4338 C 0.78726 0.67077 0.90416 0.0
C4339 C 0.77212 0.65968 0.95189 0.0
C4340 C 0.76209 0.6496 0.96125 0.0
C4341 C 0.79108 0.67864 0.93846 0.0
C4342 C 0.78557 0.67694 0.98091 0.0
C4343 C 0.77597 0.66761 0.98638 0.0
C4344 C 0.79047 0.68425 0.02565 0.0
C4345 C 0.80119 0.68867 0.92961 0.0
C4346 C 0.79927 0.6848 0.04702 0.0
C4347 C 0.80434 0.69173 0.08383 0.0
C4348 C 0.80081 0.6984 0.10066 0.0
C4349 C 0.79189 0.69779 0.07961 0.0
C4350 C 0.78673 0.69072 0.04258 0.0
H4351 H 0.80298 0.68999 0.89176 0.0
H4352 H 0.80091 0.69548 0.94427 0.0
H4353 H 0.80768 0.68822 0.94686 0.0
H4354 H 0.80229 0.67987 0.03497 0.0
H4355 H 0.81114 0.69188 0.09891 0.0
H4356 H 0.35012 0.21653 0.28574 0.0
H4357 H 0.33768 0.21328 0.34823 0.0
H4358 H 0.36042 0.2415 0.41745 0.0
H4359 H 0.37291 0.24499 0.35353 0.0
H4360 H 0.34054 0.20938 0.43642 0.0
H4361 H 0.33401 0.24332 0.43544 0.0
H4362 H 0.33967 0.24023 0.38644 0.0
H4363 H 0.34745 0.24653 0.43707 0.0
C4364 C 0.35247 0.22215 0.3139 0.0
C4365 C 0.36257 0.23098 0.31473 0.0
C4366 C 0.34531 0.22027 0.34974 0.0
C4367 C 0.34803 0.22709 0.38797 0.0
C4368 C 0.358 0.23617 0.38819 0.0
H4369 H 0.31649 0.2099 0.66008 0.0
H4370 H 0.32927 0.21904 0.59743 0.0
C4371 C 0.36518 0.23815 0.35167 0.0
C4372 C 0.34072 0.22397 0.42891 0.0
H4373 H 0.32608 0.23102 0.49673 0.0
C4374 C 0.33742 0.21416 0.44949 0.0
C4375 C 0.33658 0.23016 0.44635 0.0
C4376 C 0.33951 0.24061 0.42508 0.0
C4377 C 0.33016 0.21035 0.48633 0.0
C4378 C 0.32596 0.21645 0.50345 0.0
C4379 C 0.3293 0.22633 0.48356 0.0
C4380 C 0.31798 0.21241 0.54156 0.0
C4381 C 0.32685 0.1997 0.50645 0.0
C4382 C 0.30733 0.20585 0.53117 0.0
C4383 C 0.29999 0.20078 0.56697 0.0
C4384 C 0.3032 0.20204 0.61384 0.0
C4385 C 0.3138 0.20883 0.62429 0.0
C4386 C 0.32111 0.21406 0.58854 0.0
H4387 H 0.33148 0.1963 0.49214 0.0
H4388 H 0.32772 0.20021 0.54498 0.0
H4389 H 0.31846 0.19433 0.49853 0.0
H4390 H 0.30475 0.2043 0.49521 0.0
H4391 H 0.29191 0.1954 0.55787 0.0
H4392 H 0.81182 0.11022 0.55167 0.0
H4393 H 0.80182 0.11341 0.49189 0.0
H4394 H 0.77496 0.1004 0.58262 0.0
H4395 H 0.7849 0.09691 0.64208 0.0
H4396 H 0.78021 0.09826 0.4494 0.0
H4397 H 0.78319 0.13205 0.54874 0.0
H4398 H 0.79186 0.12697 0.55953 0.0
H4399 H 0.77856 0.11983 0.57916 0.0
C4400 C 0.80372 0.10786 0.55841 0.0
C4401 C 0.79909 0.10321 0.60118 0.0
C4402 C 0.79802 0.1097 0.52433 0.0
C4403 C 0.78765 0.1072 0.53279 0.0
C4404 C 0.78293 0.10237 0.57525 0.0
H4405 H 0.75463 0.13135 0.35855 0.0
H4406 H 0.75729 0.12111 0.41957 0.0
C4407 C 0.78858 0.10032 0.60904 0.0
C4408 C 0.78207 0.11018 0.49798 0.0
H4409 H 0.77533 0.12878 0.47494 0.0
C4410 C 0.77903 0.10486 0.45518 0.0
C4411 C 0.78045 0.11873 0.50555 0.0
C4412 C 0.78371 0.12481 0.55057 0.0
C4413 C 0.77467 0.10804 0.41944 0.0
C4414 C 0.77353 0.11693 0.42613 0.0
C4415 C 0.77616 0.12196 0.4697 0.0
C4416 C 0.7709 0.12192 0.38695 0.0
C4417 C 0.77141 0.10189 0.37461 0.0
C4418 C 0.77756 0.1257 0.34813 0.0
C4419 C 0.77612 0.1316 0.3139 0.0
C4420 C 0.76794 0.13385 0.3172 0.0
C4421 C 0.76094 0.12968 0.35488 0.0
C4422 C 0.7625 0.12387 0.38981 0.0
H4423 H 0.76929 0.09362 0.38053 0.0
H4424 H 0.76465 0.10203 0.3584 0.0
H4425 H 0.77805 0.10536 0.34971 0.0
H4426 H 0.78418 0.12448 0.34524 0.0
H4427 H 0.78162 0.13465 0.28522 0.0
H4428 H 0.89391 0.68503 0.65854 0.0
H4429 H 0.89068 0.67232 0.59624 0.0
H4430 H 0.88911 0.69328 0.49595 0.0
H4431 H 0.89287 0.70612 0.55782 0.0
H4432 H 0.87474 0.66155 0.54464 0.0
H4433 H 0.90662 0.68549 0.42214 0.0
H4434 H 0.90633 0.68989 0.48047 0.0
H4435 H 0.89916 0.69175 0.43407 0.0
C4436 C 0.89309 0.68698 0.62295 0.0
C4437 C 0.89381 0.69662 0.61285 0.0
C4438 C 0.89119 0.67968 0.58728 0.0
C4439 C 0.88982 0.6818 0.54065 0.0
C4440 C 0.8905 0.69148 0.53089 0.0
H4441 H 0.86117 0.64846 0.29174 0.0
H4442 H 0.87001 0.6606 0.35551 0.0
C4443 C 0.89257 0.69883 0.56641 0.0
C4444 C 0.88695 0.67366 0.50307 0.0
H4445 H 0.89174 0.67019 0.38931 0.0
C4446 C 0.87862 0.66343 0.51104 0.0
C4447 C 0.89199 0.67593 0.45894 0.0
C4448 C 0.90159 0.68633 0.44862 0.0
C4449 C 0.87488 0.65571 0.47583 0.0
C4450 C 0.87953 0.65819 0.43105 0.0
C4451 C 0.88809 0.66826 0.42346 0.0
C4452 C 0.87491 0.65082 0.39059 0.0
C4453 C 0.86566 0.64505 0.4861 0.0
C4454 C 0.87488 0.64126 0.388 0.0
C4455 C 0.86984 0.63422 0.35081 0.0
C4456 C 0.86461 0.63656 0.31589 0.0
C4457 C 0.86496 0.64627 0.31818 0.0
C4458 C 0.87007 0.6533 0.35469 0.0
H4459 H 0.86215 0.64472 0.52076 0.0
H4460 H 0.85955 0.64284 0.45892 0.0
H4461 H 0.86823 0.63916 0.48546 0.0
H4462 H 0.87866 0.6392 0.41496 0.0
H4463 H 0.86978 0.62686 0.35014 0.0
H4464 H 0.03177 0.5129 0.17014 0.0
H4465 H 0.01401 0.50511 0.19644 0.0
H4466 H 0.00744 0.52096 0.08695 0.0
H4467 H 0.02482 0.52679 0.05426 0.0
H4468 H 0.99482 0.49773 0.20393 0.0
H4469 H 0.99754 0.50861 0.03359 0.0
H4470 H 0.99637 0.49707 0.00866 0.0
H4471 H 0.00919 0.5055 0.04011 0.0
C4472 C 0.02668 0.51514 0.15267 0.0
C4473 C 0.02893 0.51898 0.10687 0.0
C4474 C 0.01634 0.51058 0.16777 0.0
C4475 C 0.00891 0.51101 0.13847 0.0
C4476 C 0.01274 0.5192 0.10561 0.0
H4477 H 0.95187 0.47822 0.12521 0.0
H4478 H 0.96128 0.47186 0.17058 0.0
C4479 C 0.02283 0.52289 0.08782 0.0
C4480 C 0.99753 0.50102 0.13032 0.0
H4481 H 0.98366 0.48353 0.04534 0.0
C4482 C 0.9923 0.49466 0.16908 0.0
C4483 C 0.9943 0.49662 0.0849 0.0
C4484 C 0.99932 0.50225 0.03968 0.0
C4485 C 0.98415 0.48425 0.1641 0.0
C4486 C 0.98043 0.48015 0.11903 0.0
C4487 C 0.98598 0.48641 0.08044 0.0
C4488 C 0.96972 0.47076 0.11065 0.0
C4489 C 0.97996 0.4777 0.20748 0.0
C4490 C 0.96743 0.46725 0.06397 0.0
C4491 C 0.96265 0.47161 0.03659 0.0
C4492 C 0.95861 0.47724 0.05947 0.0
C4493 C 0.95606 0.475 0.10698 0.0
C4494 C 0.96156 0.47136 0.13312 0.0
H4495 H 0.98651 0.47926 0.23135 0.0
H4496 H 0.97484 0.47997 0.22631 0.0
H4497 H 0.97555 0.4692 0.19958 0.0
H4498 H 0.97226 0.46472 0.04629 0.0
H4499 H 0.96401 0.47225 0.99523 0.0
H4500 H 0.46761 0.51266 0.10892 0.0
H4501 H 0.47267 0.49938 0.12339 0.0
H4502 H 0.47843 0.49912 0.97195 0.0
H4503 H 0.47208 0.51122 0.95945 0.0
H4504 H 0.48035 0.48491 0.0154 0.0
H4505 H 0.50201 0.51567 0.14466 0.0
H4506 H 0.48929 0.51309 0.12995 0.0
H4507 H 0.50045 0.52194 0.0952 0.0
C4508 C 0.46972 0.50949 0.07958 0.0
C4509 C 0.47303 0.51506 0.03716 0.0
C4510 C 0.47269 0.50199 0.08808 0.0
C4511 C 0.47765 0.49971 0.05195 0.0
C4512 C 0.47577 0.50171 0.00588 0.0
H4513 H 0.52703 0.49213 0.95071 0.0
H4514 H 0.51767 0.50184 0.95752 0.0
C4515 C 0.47225 0.50871 0.99473 0.0
C4516 C 0.4868 0.49836 0.06011 0.0
H4517 H 0.51267 0.51263 0.09008 0.0
C4518 C 0.48738 0.49087 0.03252 0.0
C4519 C 0.49604 0.50604 0.0832 0.0
C4520 C 0.49672 0.5145 0.11489 0.0
C4521 C 0.49692 0.49142 0.02292 0.0
C4522 C 0.50628 0.49967 0.04277 0.0
C4523 C 0.50558 0.50656 0.07378 0.0
C4524 C 0.51665 0.50056 0.03707 0.0
C4525 C 0.49628 0.4829 0.98704 0.0
C4526 C 0.52166 0.49935 0.07651 0.0
C4527 C 0.52742 0.49424 0.0708 0.0
C4528 C 0.52568 0.48868 0.02885 0.0
C4529 C 0.52578 0.49431 0.98512 0.0
C4530 C 0.52041 0.49987 0.98879 0.0
H4531 H 0.49282 0.48325 0.95314 0.0
H4532 H 0.50371 0.48327 0.97993 0.0
H4533 H 0.4909 0.47521 0.0065 0.0
H4534 H 0.51977 0.50067 0.11142 0.0
H4535 H 0.52972 0.49172 0.10184 0.0
H4536 H 0.51018 0.02992 0.9188 0.0
H4537 H 0.49659 0.01216 0.93153 0.0
H4538 H 0.4906 0.02067 0.07088 0.0
H4539 H 0.50477 0.03837 0.05922 0.0
H4540 H 0.50773 0.01859 0.07532 0.0
H4541 H 0.47837 0.98294 0.97658 0.0
H4542 H 0.4869 0.99249 0.93544 0.0
H4543 H 0.4788 0.99536 0.97273 0.0
C4544 C 0.50543 0.0282 0.94992 0.0
C4545 C 0.50938 0.03479 0.98893 0.0
C4546 C 0.49752 0.01789 0.95739 0.0
C4547 C 0.49377 0.01493 0.00721 0.0
C4548 C 0.49426 0.02276 0.03684 0.0
H4549 H 0.48732 0.97172 0.16155 0.0
H4550 H 0.50309 0.98841 0.15359 0.0
C4551 C 0.50245 0.03299 0.03009 0.0
C4552 C 0.49607 0.00712 0.02846 0.0
H4553 H 0.49303 0.98197 0.01122 0.0
C4554 C 0.5042 0.01068 0.06189 0.0
C4555 C 0.4924 0.99603 0.01015 0.0
C4556 C 0.48357 0.99147 0.97104 0.0
C4557 C 0.50825 0.00443 0.07722 0.0
C4558 C 0.50447 0.99326 0.05955 0.0
C4559 C 0.49652 0.98981 0.02518 0.0
C4560 C 0.50621 0.98528 0.08328 0.0
C4561 C 0.51704 0.00888 0.11236 0.0
C4562 C 0.50522 0.97703 0.0552 0.0
C4563 C 0.4959 0.96743 0.05891 0.0
C4564 C 0.48854 0.96653 0.09253 0.0
C4565 C 0.49245 0.97283 0.13246 0.0
C4566 C 0.50162 0.98248 0.12781 0.0
H4567 H 0.52255 0.01728 0.10514 0.0
H4568 H 0.51373 0.00838 0.14766 0.0
H4569 H 0.52147 0.00463 0.11254 0.0
H4570 H 0.50959 0.97873 0.02297 0.0
H4571 H 0.49357 0.96214 0.02947 0.0
H4572 H 0.46365 0.95636 0.52704 0.0
H4573 H 0.46875 0.9745 0.51197 0.0
H4574 H 0.48096 0.98235 0.65171 0.0
H4575 H 0.47508 0.96412 0.66666 0.0
H4576 H 0.48515 0.99915 0.61153 0.0
H4577 H 0.48409 0.97908 0.47132 0.0
H4578 H 0.48643 0.97163 0.51391 0.0
H4579 H 0.49651 0.97975 0.4744 0.0
C4580 C 0.46682 0.96185 0.55569 0.0
C4581 C 0.47139 0.95978 0.59445 0.0
C4582 C 0.46989 0.97231 0.54657 0.0
C4583 C 0.47674 0.97992 0.5782 0.0
C4584 C 0.47654 0.97672 0.62473 0.0
H4585 H 0.5295 0.04035 0.57103 0.0
H4586 H 0.524 0.02279 0.59917 0.0
C4587 C 0.47308 0.96617 0.63347 0.0
C4588 C 0.48659 0.98912 0.56179 0.0
H4589 H 0.5091 0.99517 0.50348 0.0
C4590 C 0.49033 0.99845 0.58678 0.0
C4591 C 0.49341 0.98815 0.52956 0.0
C4592 C 0.48996 0.97917 0.49572 0.0
C4593 C 0.50007 0.00777 0.58068 0.0
C4594 C 0.50707 0.00655 0.5503 0.0
C4595 C 0.50385 0.99611 0.52682 0.0
C4596 C 0.51705 0.01553 0.53307 0.0
C4597 C 0.5029 0.01776 0.60666 0.0
C4598 C 0.51808 0.01735 0.48446 0.0
C4599 C 0.52193 0.02752 0.46819 0.0
C4600 C 0.52354 0.03516 0.50119 0.0
C4601 C 0.5269 0.03409 0.54574 0.0
C4602 C 0.52345 0.02397 0.56228 0.0
H4603 H 0.50864 0.01904 0.6345 0.0
H4604 H 0.50629 0.02456 0.58289 0.0
H4605 H 0.49602 0.0175 0.6237 0.0
H4606 H 0.51404 0.01106 0.45966 0.0
H4607 H 0.52049 0.02856 0.43209 0.0
H4608 H 0.95291 0.48964 0.53269 0.0
H4609 H 0.96886 0.4994 0.48732 0.0
H4610 H 0.98688 0.50362 0.6122 0.0
H4611 H 0.97074 0.49358 0.65599 0.0
H4612 H 0.99728 0.51787 0.53245 0.0
H4613 H 0.97647 0.47993 0.458 0.0
H4614 H 0.9701 0.48188 0.50684 0.0
H4615 H 0.97779 0.47558 0.514 0.0
C4616 C 0.9603 0.49301 0.55098 0.0
C4617 C 0.96118 0.48883 0.59399 0.0
C4618 C 0.96941 0.49859 0.52458 0.0
C4619 C 0.97896 0.50119 0.54556 0.0
C4620 C 0.97948 0.50098 0.59456 0.0
H4621 H 0.03461 0.50745 0.59405 0.0
H4622 H 0.01581 0.49801 0.58133 0.0
C4623 C 0.97021 0.49535 0.61975 0.0
C4624 C 0.98755 0.5015 0.51867 0.0
H4625 H 0.99649 0.48499 0.48717 0.0
C4626 C 0.99707 0.51078 0.52068 0.0
C4627 C 0.98721 0.49218 0.50296 0.0
C4628 C 0.97725 0.48192 0.49566 0.0
C4629 C 0.0077 0.51082 0.51256 0.0
C4630 C 0.00748 0.5013 0.5029 0.0
C4631 C 0.99661 0.49221 0.49577 0.0
C4632 C 0.01708 0.50067 0.50665 0.0
C4633 C 0.01773 0.52096 0.51739 0.0
C4634 C 0.02388 0.50339 0.4685 0.0
C4635 C 0.03466 0.50858 0.47689 0.0
C4636 C 0.03812 0.51267 0.52206 0.0
C4637 C 0.03178 0.50623 0.55853 0.0
C4638 C 0.02097 0.50073 0.5514 0.0
H4639 H 0.01653 0.52778 0.52137 0.0
H4640 H 0.02195 0.52058 0.54856 0.0
H4641 H 0.02247 0.52213 0.48575 0.0
H4642 H 0.02102 0.50281 0.43323 0.0
H4643 H 0.03987 0.51171 0.44729 0.0
H4644 H 0.50552 0.47735 0.47876 0.0
H4645 H 0.48952 0.47705 0.49772 0.0
H4646 H 0.49622 0.47761 0.64406 0.0
H4647 H 0.51178 0.47663 0.62518 0.0
H4648 H 0.47393 0.47504 0.60654 0.0
H4649 H 0.51161 0.50967 0.55397 0.0
H4650 H 0.50824 0.49785 0.5231 0.0
H4651 H 0.51073 0.4987 0.58501 0.0
C4652 C 0.50336 0.47665 0.51513 0.0
C4653 C 0.51071 0.47888 0.55093 0.0
C4654 C 0.49405 0.47642 0.52593 0.0
C4655 C 0.49232 0.47833 0.57204 0.0
C4656 C 0.49778 0.47673 0.60795 0.0
H4657 H 0.47675 0.53 0.59147 0.0
H4658 H 0.48161 0.51501 0.62413 0.0
C4659 C 0.5068 0.47637 0.59687 0.0
C4660 C 0.489 0.48609 0.57882 0.0
H4661 H 0.49677 0.51128 0.54985 0.0
C4662 C 0.4789 0.48297 0.59402 0.0
C4663 C 0.49579 0.49669 0.56647 0.0
C4664 C 0.50724 0.501 0.55656 0.0
C4665 C 0.47503 0.48991 0.59136 0.0
C4666 C 0.48108 0.49967 0.56884 0.0
C4667 C 0.49172 0.50334 0.56184 0.0
C4668 C 0.47692 0.5066 0.55081 0.0
C4669 C 0.46444 0.48639 0.61069 0.0
C4670 C 0.46838 0.50813 0.46916 0.0
C4671 C 0.46871 0.51872 0.46457 0.0
C4672 C 0.47924 0.52315 0.50529 0.0
C4673 C 0.47927 0.52544 0.57166 0.0
C4674 C 0.48002 0.51586 0.58809 0.0
H4675 H 0.46363 0.48282 0.64567 0.0
H4676 H 0.46261 0.4928 0.61352 0.0
H4677 H 0.45896 0.48013 0.58724 0.0
H4678 H 0.46551 0.50305 0.43843 0.0
H4679 H 0.46899 0.52168 0.42979 0.0
H4680 H 0.62729 0.80643 0.30367 0.0
H4681 H 0.64532 0.81193 0.28604 0.0
H4682 H 0.65127 0.81106 0.43257 0.0
H4683 H 0.63332 0.80549 0.44953 0.0
H4684 H 0.64862 0.82963 0.32577 0.0
H4685 H 0.67994 0.82311 0.39155 0.0
H4686 H 0.6675 0.81239 0.37299 0.0
H4687 H 0.66929 0.81753 0.43151 0.0
C4688 C 0.63222 0.80647 0.33179 0.0
C4689 C 0.62958 0.80702 0.37839 0.0
C4690 C 0.64264 0.80966 0.32156 0.0
C4691 C 0.64986 0.8132 0.3585 0.0
C4692 C 0.64602 0.80922 0.4033 0.0
H4693 H 0.70167 0.86147 0.43827 0.0
H4694 H 0.6842 0.85879 0.44636 0.0
C4695 C 0.6356 0.80596 0.41333 0.0
C4696 C 0.65848 0.82422 0.35704 0.0
H4697 H 0.6821 0.84028 0.40559 0.0
C4698 C 0.65608 0.83193 0.34219 0.0
C4699 C 0.66805 0.82738 0.37966 0.0
C4700 C 0.67135 0.81964 0.39434 0.0
C4701 C 0.66282 0.84259 0.35081 0.0
C4702 C 0.67236 0.84572 0.37354 0.0
C4703 C 0.67474 0.83801 0.3885 0.0
C4704 C 0.681 0.85673 0.37248 0.0
C4705 C 0.65963 0.85043 0.33652 0.0
C4706 C 0.68582 0.85984 0.32857 0.0
C4707 C 0.69584 0.86124 0.32345 0.0
C4708 C 0.70078 0.86008 0.3629 0.0
C4709 C 0.69765 0.86167 0.40703 0.0
C4710 C 0.68758 0.8602 0.41175 0.0
H4711 H 0.651 0.84674 0.33337 0.0
H4712 H 0.66248 0.85694 0.36207 0.0
H4713 H 0.6631 0.85379 0.30206 0.0
H4714 H 0.68114 0.85827 0.29738 0.0
H4715 H 0.6985 0.86076 0.28882 0.0
H4716 H 0.1405 0.84224 0.29337 0.0
H4717 H 0.1468 0.82993 0.29508 0.0
H4718 H 0.14436 0.82888 0.44495 0.0
H4719 H 0.13857 0.84168 0.44147 0.0
H4720 H 0.16332 0.84553 0.41611 0.0
H4721 H 0.1572 0.81041 0.32187 0.0
H4722 H 0.15365 0.81794 0.28521 0.0
H4723 H 0.14638 0.81218 0.33798 0.0
C4724 C 0.14118 0.83924 0.32682 0.0
C4725 C 0.14251 0.84495 0.36806 0.0
C4726 C 0.14453 0.83191 0.32768 0.0
C4727 C 0.14752 0.82967 0.37079 0.0
C4728 C 0.14315 0.83137 0.41113 0.0
H4729 H 0.19375 0.8256 0.45648 0.0
H4730 H 0.19094 0.84035 0.45027 0.0
C4731 C 0.14007 0.83892 0.40909 0.0
C4732 C 0.15838 0.8317 0.37366 0.0
H4733 H 0.175 0.82487 0.32515 0.0
C4734 C 0.16584 0.84088 0.39681 0.0
C4735 C 0.16182 0.82596 0.34731 0.0
C4736 C 0.15429 0.81604 0.32207 0.0
C4737 C 0.17656 0.84442 0.39445 0.0
C4738 C 0.18001 0.83859 0.36878 0.0
C4739 C 0.17254 0.82953 0.34477 0.0
C4740 C 0.19072 0.84021 0.37449 0.0
C4741 C 0.18405 0.85436 0.41966 0.0
C4742 C 0.19495 0.83762 0.33622 0.0
C4743 C 0.19595 0.82871 0.34015 0.0
C4744 C 0.19237 0.82283 0.38168 0.0
C4745 C 0.19409 0.82884 0.42227 0.0
C4746 C 0.19278 0.83756 0.41881 0.0
H4747 H 0.18133 0.86013 0.41779 0.0
H4748 H 0.1843 0.85256 0.45707 0.0
H4749 H 0.1921 0.85799 0.4052 0.0
H4750 H 0.19475 0.84049 0.30171 0.0
H4751 H 0.19703 0.82536 0.30857 0.0
H4752 H 0.17726 0.37251 0.29724 0.0
H4753 H 0.16329 0.35452 0.28705 0.0
H4754 H 0.16062 0.35088 0.43621 0.0
H4755 H 0.1745 0.36862 0.44551 0.0
H4756 H 0.17789 0.34984 0.32117 0.0
H4757 H 0.14015 0.32196 0.39967 0.0
H4758 H 0.14317 0.33504 0.38433 0.0
H4759 H 0.14704 0.33242 0.44018 0.0
C4760 C 0.17341 0.36795 0.32801 0.0
C4761 C 0.17848 0.37062 0.37165 0.0
C4762 C 0.16522 0.35768 0.32203 0.0
C4763 C 0.16203 0.35095 0.36082 0.0
C4764 C 0.16373 0.3556 0.40512 0.0
H4765 H 0.15638 0.29793 0.45167 0.0
H4766 H 0.17092 0.31579 0.45046 0.0
C4767 C 0.17197 0.36582 0.41044 0.0
C4768 C 0.16316 0.34155 0.35833 0.0
H4769 H 0.15432 0.31802 0.4102 0.0
C4770 C 0.17258 0.34277 0.33979 0.0
C4771 C 0.15647 0.33241 0.38327 0.0
C4772 C 0.14611 0.33038 0.40255 0.0
C4773 C 0.17562 0.33527 0.34705 0.0
C4774 C 0.16904 0.32627 0.37307 0.0
C4775 C 0.15955 0.32499 0.39084 0.0
C4776 C 0.17069 0.31718 0.37535 0.0
C4777 C 0.1859 0.33714 0.32759 0.0
C4778 C 0.16813 0.31121 0.33427 0.0
C4779 C 0.1597 0.30097 0.33559 0.0
C4780 C 0.15374 0.2977 0.37687 0.0
C4781 C 0.15962 0.30146 0.41828 0.0
C4782 C 0.16819 0.31164 0.41773 0.0
H4783 H 0.19157 0.34563 0.3237 0.0
H4784 H 0.18943 0.3336 0.35012 0.0
H4785 H 0.18455 0.3335 0.29253 0.0
H4786 H 0.17078 0.31494 0.30062 0.0
H4787 H 0.15654 0.297 0.30285 0.0
H4788 H 0.13786 0.29645 0.94752 0.0
H4789 H 0.14161 0.31436 0.95766 0.0
H4790 H 0.14417 0.31845 0.80871 0.0
H4791 H 0.14031 0.30062 0.79984 0.0
H4792 H 0.16117 0.31886 0.9289 0.0
H4793 H 0.15313 0.3475 0.84512 0.0
H4794 H 0.14267 0.33448 0.85866 0.0
H4795 H 0.14978 0.33712 0.80445 0.0
C4796 C 0.13898 0.30114 0.91674 0.0
C4797 C 0.14201 0.29872 0.87401 0.0
C4798 C 0.14085 0.31134 0.9226 0.0
C4799 C 0.14484 0.31821 0.8844 0.0
C4800 C 0.14232 0.31367 0.83973 0.0
H4801 H 0.19364 0.36999 0.79682 0.0
H4802 H 0.18968 0.35197 0.80066 0.0
C4803 C 0.1404 0.30345 0.83469 0.0
C4804 C 0.15546 0.32745 0.88889 0.0
H4805 H 0.17117 0.35094 0.83848 0.0
C4806 C 0.16331 0.32597 0.90985 0.0
C4807 C 0.15842 0.3367 0.86379 0.0
C4808 C 0.1505 0.33904 0.84218 0.0
C4809 C 0.17396 0.33323 0.90435 0.0
C4810 C 0.1769 0.34228 0.87773 0.0
C4811 C 0.16905 0.3439 0.8581 0.0
C4812 C 0.18784 0.35103 0.87571 0.0
C4813 C 0.18198 0.33107 0.92619 0.0
C4814 C 0.19139 0.35718 0.91627 0.0
C4815 C 0.19379 0.3676 0.91341 0.0
C4816 C 0.19131 0.37082 0.87138 0.0
C4817 C 0.19322 0.36664 0.83079 0.0
C4818 C 0.19121 0.35633 0.83287 0.0
H4819 H 0.17884 0.32255 0.93116 0.0
H4820 H 0.18919 0.33428 0.90466 0.0
H4821 H 0.18415 0.33485 0.961 0.0
H4822 H 0.19001 0.35359 0.95038 0.0
H4823 H 0.19462 0.37179 0.94555 0.0
H4824 H 0.70868 0.84183 0.83929 0.0
H4825 H 0.69047 0.82836 0.83023 0.0
H4826 H 0.68519 0.83214 0.97483 0.0
H4827 H 0.70344 0.84501 0.98355 0.0
H4828 H 0.66782 0.82001 0.94076 0.0
H4829 H 0.68475 0.83869 0.79555 0.0
H4830 H 0.69325 0.84883 0.83496 0.0
H4831 H 0.68413 0.85044 0.80081 0.0
C4832 C 0.70379 0.83928 0.8701 0.0
C4833 C 0.70647 0.84577 0.90971 0.0
C4834 C 0.69326 0.83165 0.86448 0.0
C4835 C 0.68623 0.83064 0.89976 0.0
C4836 C 0.6903 0.83357 0.94528 0.0
H4837 H 0.62811 0.82614 0.93301 0.0
H4838 H 0.6464 0.83795 0.9527 0.0
C4839 C 0.70088 0.84096 0.95048 0.0
C4840 C 0.6768 0.83141 0.88875 0.0
H4841 H 0.67021 0.84858 0.84151 0.0
C4842 C 0.66813 0.82601 0.91793 0.0
C4843 C 0.67723 0.83934 0.85886 0.0
C4844 C 0.68528 0.84463 0.82074 0.0
C4845 C 0.66002 0.82834 0.91927 0.0
C4846 C 0.66079 0.83674 0.8914 0.0
C4847 C 0.66959 0.84224 0.86295 0.0
C4848 C 0.65172 0.8383 0.88194 0.0
C4849 C 0.6509 0.82163 0.95098 0.0
C4850 C 0.6486 0.83783 0.83497 0.0
C4851 C 0.63803 0.83172 0.8239 0.0
C4852 C 0.63129 0.82561 0.85965 0.0
C4853 C 0.63366 0.82986 0.90487 0.0
C4854 C 0.6442 0.83635 0.91639 0.0
H4855 H 0.65091 0.82634 0.98109 0.0
H4856 H 0.64337 0.81845 0.93238 0.0
H4857 H 0.65128 0.81483 0.96526 0.0
H4858 H 0.65413 0.84009 0.80654 0.0
H4859 H 0.63597 0.8294 0.78787 0.0
H4860 H 0.15728 0.86834 0.85731 0.0
H4861 H 0.1707 0.86386 0.84075 0.0
H4862 H 0.16644 0.8507 0.97865 0.0
H4863 H 0.15374 0.85602 0.99527 0.0
H4864 H 0.17963 0.84768 0.93875 0.0
H4865 H 0.16015 0.84874 0.7986 0.0
H4866 H 0.15035 0.84526 0.8428 0.0
H4867 H 0.14899 0.83585 0.80054 0.0
C4868 C 0.15969 0.86509 0.88529 0.0
C4869 C 0.15308 0.86017 0.92377 0.0
C4870 C 0.16729 0.86237 0.87528 0.0
C4871 C 0.16827 0.85547 0.9058 0.0
C4872 C 0.16511 0.85519 0.95246 0.0
H4873 H 0.17485 0.80233 0.90533 0.0
H4874 H 0.16293 0.80857 0.92562 0.0
C4875 C 0.15782 0.85833 0.96218 0.0
C4876 C 0.16827 0.84604 0.88789 0.0
H4877 H 0.15352 0.82396 0.82333 0.0
C4878 C 0.17407 0.84255 0.91283 0.0
C4879 C 0.16091 0.83929 0.854 0.0
C4880 C 0.15475 0.84242 0.82246 0.0
C4881 C 0.17269 0.83255 0.90605 0.0
C4882 C 0.16498 0.82562 0.87368 0.0
C4883 C 0.15923 0.82915 0.8486 0.0
C4884 C 0.16428 0.8157 0.85801 0.0
C4885 C 0.17966 0.82979 0.93394 0.0
C4886 C 0.16612 0.81477 0.81042 0.0
C4887 C 0.17238 0.81052 0.79869 0.0
C4888 C 0.1776 0.80878 0.83537 0.0
C4889 C 0.17205 0.80527 0.87761 0.0
C4890 C 0.16539 0.80908 0.88972 0.0
H4891 H 0.17501 0.82412 0.96169 0.0
H4892 H 0.18318 0.8263 0.9116 0.0
H4893 H 0.18619 0.83672 0.9512 0.0
H4894 H 0.16462 0.81905 0.78378 0.0
H4895 H 0.1756 0.81189 0.76378 0.0
H4896 H 0.2963 0.14137 0.6462 0.0
H4897 H 0.3144 0.14648 0.63355 0.0
H4898 H 0.31896 0.14689 0.78187 0.0
H4899 H 0.30088 0.14168 0.7943 0.0
H4900 H 0.31626 0.16437 0.67455 0.0
H4901 H 0.3485 0.15918 0.74264 0.0
H4902 H 0.33669 0.1485 0.71831 0.0
H4903 H 0.33693 0.15267 0.77745 0.0
C4904 C 0.3009 0.14161 0.67613 0.0
C4905 C 0.29784 0.14261 0.7214 0.0
C4906 C 0.31136 0.14454 0.66875 0.0
C4907 C 0.31823 0.1484 0.70698 0.0
C4908 C 0.31396 0.14482 0.75155 0.0
H4909 H 0.37211 0.19698 0.75265 0.0
H4910 H 0.35575 0.19578 0.77502 0.0
C4911 C 0.30349 0.1418 0.75889 0.0
C4912 C 0.32661 0.1595 0.70498 0.0
H4913 H 0.35085 0.17625 0.74577 0.0
C4914 C 0.32389 0.16694 0.68969 0.0
C4915 C 0.33639 0.16298 0.72599 0.0
C4916 C 0.33985 0.15542 0.74166 0.0
C4917 C 0.33067 0.17769 0.69497 0.0
C4918 C 0.34064 0.18121 0.71425 0.0
C4919 C 0.3432 0.17374 0.73112 0.0
C4920 C 0.34934 0.19202 0.70544 0.0
C4921 C 0.32713 0.18519 0.6794 0.0
C4922 C 0.35222 0.19392 0.65814 0.0
C4923 C 0.36153 0.1944 0.6448 0.0
C4924 C 0.36788 0.19382 0.67959 0.0
C4925 C 0.36694 0.19675 0.72526 0.0
C4926 C 0.35752 0.19614 0.73817 0.0
H4927 H 0.31864 0.18187 0.68592 0.0
H4928 H 0.33149 0.19284 0.69751 0.0
H4929 H 0.32837 0.1865 0.64127 0.0
H4930 H 0.34639 0.19202 0.63138 0.0
H4931 H 0.36249 0.19287 0.60874 0.0
H4932 H 0.81452 0.17922 0.83149 0.0
H4933 H 0.82012 0.16691 0.81331 0.0
H4934 H 0.80449 0.16077 0.68069 0.0
H4935 H 0.79987 0.17412 0.69799 0.0
H4936 H 0.82637 0.15737 0.77375 0.0
H4937 H 0.81759 0.17054 0.63122 0.0
H4938 H 0.82937 0.18265 0.62233 0.0
H4939 H 0.82093 0.18158 0.66868 0.0
C4940 C 0.81176 0.17484 0.79928 0.0
C4941 C 0.80902 0.17906 0.76169 0.0
C4942 C 0.81507 0.16774 0.78843 0.0
C4943 C 0.81446 0.16455 0.74149 0.0
C4944 C 0.8066 0.16463 0.7142 0.0
H4945 H 0.84928 0.15626 0.58618 0.0
H4946 H 0.84828 0.17169 0.60209 0.0
C4947 C 0.8037 0.1721 0.72484 0.0
C4948 C 0.82441 0.16628 0.71979 0.0
H4949 H 0.84383 0.18234 0.64427 0.0
C4950 C 0.83014 0.16274 0.74499 0.0
C4951 C 0.82948 0.17345 0.68228 0.0
C4952 C 0.82406 0.17727 0.64961 0.0
C4953 C 0.84071 0.16628 0.73576 0.0
C4954 C 0.84568 0.17314 0.69711 0.0
C4955 C 0.84005 0.17698 0.67308 0.0
C4956 C 0.85488 0.17377 0.67197 0.0
C4957 C 0.84617 0.16265 0.76915 0.0
C4958 C 0.86234 0.17241 0.69649 0.0
C4959 C 0.86273 0.16329 0.68773 0.0
C4960 C 0.85602 0.15642 0.65326 0.0
C4961 C 0.85343 0.16092 0.61631 0.0
C4962 C 0.85281 0.16984 0.62592 0.0
H4963 H 0.84141 0.15883 0.8007 0.0
H4964 H 0.84767 0.15681 0.75223 0.0
H4965 H 0.85358 0.16937 0.78172 0.0
H4966 H 0.86585 0.1768 0.72798 0.0
H4967 H 0.86609 0.16062 0.71423 0.0
H4968 H 0.84531 0.7063 0.65167 0.0
H4969 H 0.83359 0.6885 0.62754 0.0
H4970 H 0.82368 0.68024 0.77021 0.0
H4971 H 0.83555 0.69794 0.79381 0.0
H4972 H 0.84681 0.68402 0.67465 0.0
H4973 H 0.80677 0.65247 0.71486 0.0
H4974 H 0.80954 0.66527 0.69599 0.0
H4975 H 0.81092 0.66278 0.75641 0.0
C4976 C 0.83993 0.7009 0.67737 0.0
C4977 C 0.84216 0.70283 0.72521 0.0
C4978 C 0.83317 0.69062 0.66332 0.0
C4979 C 0.82865 0.68286 0.69783 0.0
C4980 C 0.82763 0.68596 0.74302 0.0
H4981 H 0.82155 0.62819 0.76619 0.0
H4982 H 0.83554 0.64568 0.78335 0.0
C4983 C 0.83447 0.69622 0.75685 0.0
C4984 C 0.83065 0.67401 0.69553 0.0
H4985 H 0.82078 0.6492 0.73467 0.0
C4986 C 0.84101 0.6763 0.68665 0.0
C4987 C 0.8233 0.66407 0.7124 0.0
C4988 C 0.812 0.66099 0.71999 0.0
C4989 C 0.84423 0.66901 0.69572 0.0
C4990 C 0.83686 0.65909 0.71272 0.0
C4991 C 0.82654 0.65684 0.72184 0.0
C4992 C 0.83877 0.65017 0.71093 0.0
C4993 C 0.85551 0.672 0.68867 0.0
C4994 C 0.8382 0.64623 0.66576 0.0
C4995 C 0.83003 0.6362 0.65557 0.0
C4996 C 0.82305 0.6304 0.69132 0.0
C4997 C 0.82653 0.63285 0.7377 0.0
C4998 C 0.83465 0.64293 0.7477 0.0
H4999 H 0.8607 0.68061 0.6858 0.0
H5000 H 0.85823 0.66907 0.71811 0.0
H5001 H 0.85629 0.66837 0.65621 0.0
H5002 H 0.84194 0.6515 0.63678 0.0
H5003 H 0.82783 0.63414 0.61944 0.0
H5004 H 0.81395 0.63878 0.31505 0.0
H5005 H 0.81752 0.6565 0.30775 0.0
H5006 H 0.80676 0.65056 0.16588 0.0
H5007 H 0.8036 0.63289 0.17249 0.0
H5008 H 0.82632 0.6526 0.17277 0.0
H5009 H 0.82784 0.68565 0.26943 0.0
H5010 H 0.8251 0.67513 0.30838 0.0
H5011 H 0.81581 0.67332 0.26334 0.0
C5012 C 0.81155 0.64098 0.2833 0.0
C5013 C 0.81003 0.63521 0.24226 0.0
C5014 C 0.81359 0.65124 0.27898 0.0
C5015 C 0.81393 0.65514 0.23385 0.0
C5016 C 0.80755 0.64786 0.19992 0.0
H5017 H 0.85275 0.69946 0.10168 0.0
H5018 H 0.85215 0.6829 0.10913 0.0
C5019 C 0.80575 0.63765 0.20372 0.0
C5020 C 0.82452 0.66331 0.21858 0.0
H5021 H 0.84429 0.68734 0.24754 0.0
C5022 C 0.83016 0.66029 0.18856 0.0
C5023 C 0.82981 0.67318 0.24005 0.0
C5024 C 0.82427 0.67702 0.27173 0.0
C5025 C 0.84084 0.66681 0.17983 0.0
C5026 C 0.84609 0.67678 0.20048 0.0
C5027 C 0.84049 0.67969 0.23141 0.0
C5028 C 0.85636 0.68513 0.18238 0.0
C5029 C 0.84636 0.66292 0.14841 0.0
C5030 C 0.86267 0.69304 0.2142 0.0
C5031 C 0.86284 0.70257 0.21055 0.0
C5032 C 0.85724 0.7038 0.1736 0.0
C5033 C 0.85604 0.69805 0.13276 0.0
C5034 C 0.85574 0.68849 0.13715 0.0
H5035 H 0.84323 0.65441 0.15352 0.0
H5036 H 0.84491 0.66408 0.11152 0.0
H5037 H 0.85493 0.6671 0.15464 0.0
H5038 H 0.8645 0.69096 0.24771 0.0
H5039 H 0.86489 0.70745 0.24135 0.0
H5040 H 0.37165 0.17536 0.13409 0.0
H5041 H 0.35256 0.16596 0.13537 0.0
H5042 H 0.35351 0.16545 0.28568 0.0
H5043 H 0.37265 0.17549 0.28196 0.0
H5044 H 0.33396 0.15249 0.17117 0.0
H5045 H 0.34795 0.18972 0.27018 0.0
H5046 H 0.35626 0.1881 0.22992 0.0
H5047 H 0.35301 0.18134 0.28522 0.0
C5048 C 0.36771 0.17313 0.16749 0.0
C5049 C 0.37275 0.17879 0.20803 0.0
C5050 C 0.35678 0.16769 0.16806 0.0
C5051 C 0.35165 0.16632 0.21103 0.0
C5052 C 0.35734 0.16753 0.25204 0.0
H5053 H 0.29395 0.16076 0.2752 0.0
H5054 H 0.31303 0.16938 0.27425 0.0
C5055 C 0.36827 0.17325 0.24967 0.0
C5056 C 0.34174 0.16649 0.21193 0.0
H5057 H 0.33147 0.18206 0.23946 0.0
C5058 C 0.33338 0.15893 0.18609 0.0
C5059 C 0.34105 0.17498 0.23152 0.0
C5060 C 0.35004 0.184 0.25596 0.0
C5061 C 0.32433 0.15955 0.17904 0.0
C5062 C 0.32368 0.16809 0.19849 0.0
C5063 C 0.33203 0.17561 0.22452 0.0
C5064 C 0.3139 0.16849 0.19868 0.0
C5065 C 0.31535 0.15047 0.15468 0.0
C5066 C 0.3083 0.16735 0.15744 0.0
C5067 C 0.29736 0.16204 0.15989 0.0
C5068 C 0.29282 0.15678 0.20198 0.0
C5069 C 0.29792 0.16268 0.24184 0.0
C5070 C 0.30885 0.16764 0.24147 0.0
H5071 H 0.31773 0.14525 0.13737 0.0
H5072 H 0.30949 0.14582 0.18143 0.0
H5073 H 0.31174 0.153 0.12776 0.0
H5074 H 0.31214 0.16916 0.1238 0.0
H5075 H 0.29297 0.15976 0.12766 0.0
H5076 H 0.85212 0.16092 0.0798 0.0
H5077 H 0.83543 0.15851 0.05559 0.0
H5078 H 0.81996 0.13442 0.15868 0.0
H5079 H 0.83693 0.13776 0.1874 0.0
H5080 H 0.81694 0.15469 0.05569 0.0
H5081 H 0.82114 0.14472 0.2191 0.0
H5082 H 0.82588 0.15698 0.2472 0.0
H5083 H 0.83433 0.15543 0.20821 0.0
C5084 C 0.84512 0.15481 0.09636 0.0
C5085 C 0.84577 0.15051 0.13902 0.0
C5086 C 0.83546 0.15329 0.08204 0.0
C5087 C 0.82672 0.14749 0.11087 0.0
C5088 C 0.82694 0.13996 0.14013 0.0
H5089 H 0.80142 0.17887 0.28886 0.0
H5090 H 0.80259 0.17231 0.1702 0.0
C5091 C 0.83668 0.14178 0.15625 0.0
C5092 C 0.8212 0.15312 0.12607 0.0
H5093 H 0.82207 0.16853 0.21634 0.0
C5094 C 0.81777 0.1575 0.09121 0.0
C5095 C 0.8222 0.15687 0.17282 0.0
C5096 C 0.82606 0.15326 0.2138 0.0
C5097 C 0.81661 0.16623 0.10054 0.0
C5098 C 0.81853 0.17033 0.14596 0.0
C5099 C 0.8207 0.16528 0.1815 0.0
C5100 C 0.81891 0.18011 0.15981 0.0
C5101 C 0.8139 0.17137 0.06191 0.0
C5102 C 0.8288 0.18824 0.17374 0.0
C5103 C 0.82967 0.19476 0.21045 0.0
C5104 C 0.82067 0.19395 0.22913 0.0
C5105 C 0.81083 0.18431 0.22532 0.0
C5106 C 0.80986 0.17906 0.18109 0.0
H5107 H 0.81414 0.16818 0.02715 0.0
H5108 H 0.80592 0.17008 0.06793 0.0
H5109 H 0.81939 0.17995 0.06199 0.0
H5110 H 0.83587 0.1888 0.15965 0.0
H5111 H 0.83724 0.20097 0.2217 0.0
loop_
_geom_bond_atom_site_label_1
_geom_bond_atom_site_label_2
_geom_bond_distance
_geom_bond_site_symmetry_2
_ccdc_geom_bond_type
C0 O16 1.251 . S
C0 O18 1.254 . S
N1 C2 1.333 . S
N1 C6 1.307 . S
N1 Zn7 2.020 . S
C2 N1 1.333 . S
C2 C3 1.379 . S
C2 H20 0.952 1_554 S
C3 C2 1.379 . S
C3 C4 1.390 . S
C3 H30 0.949 1_554 S
C4 C3 1.390 . S
C4 C5 1.357 . S
C5 C4 1.357 . S
C5 C6 1.370 . S
C5 H31 0.950 . S
C6 N1 1.307 . S
C6 C5 1.370 . S
C6 H24 0.948 . S
Zn7 N1 2.020 . S
Zn7 O16 2.039 1_554 S
Zn7 O22 2.034 . S
Zn7 O26 2.025 . S
Zn7 O28 2.024 1_554 S
C8 O27 1.246 . S
C8 O28 1.249 . S
N9 C10 1.307 . S
N9 C11 1.333 . S
N9 Zn15 2.020 . S
C10 N9 1.307 . S
C10 C14 1.370 . S
C10 H21 0.948 . S
C11 N9 1.333 . S
C11 C12 1.379 . S
C11 H19 0.952 . S
C12 C11 1.379 . S
C12 C13 1.390 . S
C12 H32 0.949 . S
C13 C12 1.390 . S
C13 C14 1.357 . S
C14 C10 1.370 . S
C14 C13 1.357 . S
C14 H33 0.950 . S
Zn15 N9 2.020 . S
Zn15 O18 2.025 1_554 S
Zn15 O23 2.024 . S
Zn15 O25 2.039 . S
Zn15 O27 2.034 1_554 S
O16 C0 1.251 . S
O16 Zn7 2.039 1_556 S
C17 O22 1.246 . S
C17 O23 1.249 . S
O18 C0 1.254 . S
O18 Zn15 2.025 1_556 S
H19 C11 0.952 . S
H20 C2 0.952 1_556 S
H21 C10 0.948 . S
O22 Zn7 2.034 . S
O22 C17 1.246 . S
O23 Zn15 2.024 . S
O23 C17 1.249 . S
H24 C6 0.948 . S
O25 Zn15 2.039 . S
O25 C29 1.251 . S
O26 Zn7 2.025 . S
O26 C29 1.254 . S
O27 C8 1.246 . S
O27 Zn15 2.034 1_556 S
O28 Zn7 2.024 1_556 S
O28 C8 1.249 . S
C29 O25 1.251 . S
C29 O26 1.254 . S
H30 C3 0.949 1_556 S
H31 C5 0.950 . S
H32 C12 0.949 . S
H33 C14 0.950 . S
C34 O50 1.251 . S
C34 O52 1.254 . S
N35 C36 1.333 . S
N35 C40 1.307 . S
N35 Zn41 2.020 . S
C36 N35 1.333 . S
C36 C37 1.379 . S
C36 H54 0.952 1_554 S
C37 C36 1.379 . S
C37 C38 1.390 . S
C37 H64 0.949 1_554 S
C38 C37 1.390 . S
C38 C39 1.357 . S
C39 C38 1.357 . S
C39 C40 1.370 . S
C39 H65 0.950 . S
C40 N35 1.307 . S
C40 C39 1.370 . S
C40 H58 0.948 . S
Zn41 N35 2.020 . S
Zn41 O50 2.039 1_554 S
Zn41 O56 2.034 . S
Zn41 O60 2.025 . S
Zn41 O62 2.024 1_554 S
C42 O61 1.246 . S
C42 O62 1.249 . S
N43 C44 1.307 . S
N43 C45 1.333 . S
N43 Zn49 2.020 . S
C44 N43 1.307 . S
C44 C48 1.370 . S
C44 H55 0.948 . S
C45 N43 1.333 . S
C45 C46 1.379 . S
C45 H53 0.952 . S
C46 C45 1.379 . S
C46 C47 1.390 . S
C46 H66 0.949 . S
C47 C46 1.390 . S
C47 C48 1.357 . S
C48 C44 1.370 . S
C48 C47 1.357 . S
C48 H67 0.950 . S
Zn49 N43 2.020 . S
Zn49 O52 2.025 1_554 S
Zn49 O57 2.024 . S
Zn49 O59 2.039 . S
Zn49 O61 2.034 1_554 S
O50 C34 1.251 . S
O50 Zn41 2.039 1_556 S
C51 O56 1.246 . S
C51 O57 1.249 . S
O52 C34 1.254 . S
O52 Zn49 2.025 1_556 S
H53 C45 0.952 . S
H54 C36 0.952 1_556 S
H55 C44 0.948 . S
O56 Zn41 2.034 . S
O56 C51 1.246 . S
O57 Zn49 2.024 . S
O57 C51 1.249 . S
H58 C40 0.948 . S
O59 Zn49 2.039 . S
O59 C63 1.251 . S
O60 Zn41 2.025 . S
O60 C63 1.254 . S
O61 C42 1.246 . S
O61 Zn49 2.034 1_556 S
O62 Zn41 2.024 1_556 S
O62 C42 1.249 . S
C63 O59 1.251 . S
C63 O60 1.254 . S
H64 C37 0.949 1_556 S
H65 C39 0.950 . S
H66 C46 0.949 . S
H67 C48 0.950 . S
C68 O84 1.251 . S
C68 O86 1.254 . S
N69 C70 1.333 . S
N69 C74 1.307 . S
N69 Zn75 2.020 . S
C70 N69 1.333 . S
C70 C71 1.379 . S
C70 H88 0.952 1_554 S
C71 C70 1.379 . S
C71 C72 1.390 . S
C71 H98 0.949 1_554 S
C72 C71 1.390 . S
C72 C73 1.357 . S
C73 C72 1.357 . S
C73 C74 1.370 . S
C73 H99 0.950 . S
C74 N69 1.307 . S
C74 C73 1.370 . S
C74 H92 0.948 . S
Zn75 N69 2.020 . S
Zn75 O84 2.039 1_554 S
Zn75 O90 2.034 . S
Zn75 O94 2.025 . S
Zn75 O96 2.024 1_554 S
C76 O95 1.246 . S
C76 O96 1.249 . S
N77 C78 1.307 . S
N77 C79 1.333 . S
N77 Zn83 2.020 . S
C78 N77 1.307 . S
C78 C82 1.370 . S
C78 H89 0.948 . S
C79 N77 1.333 . S
C79 C80 1.379 . S
C79 H87 0.952 . S
C80 C79 1.379 . S
C80 C81 1.390 . S
C80 H100 0.949 . S
C81 C80 1.390 . S
C81 C82 1.357 . S
C82 C78 1.370 . S
C82 C81 1.357 . S
C82 H101 0.950 . S
Zn83 N77 2.020 . S
Zn83 O86 2.025 1_554 S
Zn83 O91 2.024 . S
Zn83 O93 2.039 . S
Zn83 O95 2.034 1_554 S
O84 C68 1.251 . S
O84 Zn75 2.039 1_556 S
C85 O90 1.246 . S
C85 O91 1.249 . S
O86 C68 1.254 . S
O86 Zn83 2.025 1_556 S
H87 C79 0.952 . S
H88 C70 0.952 1_556 S
H89 C78 0.948 . S
O90 Zn75 2.034 . S
O90 C85 1.246 . S
O91 Zn83 2.024 . S
O91 C85 1.249 . S
H92 C74 0.948 . S
O93 Zn83 2.039 . S
O93 C97 1.251 . S
O94 Zn75 2.025 . S
O94 C97 1.254 . S
O95 C76 1.246 . S
O95 Zn83 2.034 1_556 S
O96 Zn75 2.024 1_556 S
O96 C76 1.249 . S
C97 O93 1.251 . S
C97 O94 1.254 . S
H98 C71 0.949 1_556 S
H99 C73 0.950 . S
H100 C80 0.949 . S
H101 C82 0.950 . S
C102 O118 1.251 . S
C102 O120 1.254 . S
N103 C104 1.333 . S
N103 C108 1.307 . S
N103 Zn109 2.020 . S
C104 N103 1.333 . S
C104 C105 1.379 . S
C104 H122 0.952 . S
C105 C104 1.379 . S
C105 C106 1.390 . S
C105 H132 0.949 . S
C106 C105 1.390 . S
C106 C107 1.357 . S
C107 C106 1.357 . S
C107 C108 1.370 . S
C107 H133 0.950 . S
C108 N103 1.307 . S
C108 C107 1.370 . S
C108 H126 0.948 . S
Zn109 N103 2.020 . S
Zn109 O118 2.039 . S
Zn109 O124 2.034 . S
Zn109 O128 2.025 . S
Zn109 O130 2.024 . S
C110 O129 1.246 . S
C110 O130 1.249 . S
N111 C112 1.307 . S
N111 C113 1.333 . S
N111 Zn117 2.020 . S
C112 N111 1.307 . S
C112 C116 1.370 . S
C112 H123 0.948 . S
C113 N111 1.333 . S
C113 C114 1.379 . S
C113 H121 0.952 . S
C114 C113 1.379 . S
C114 C115 1.390 . S
C114 H134 0.949 . S
C115 C114 1.390 . S
C115 C116 1.357 . S
C116 C112 1.370 . S
C116 C115 1.357 . S
C116 H135 0.950 . S
Zn117 N111 2.020 . S
Zn117 O120 2.025 . S
Zn117 O125 2.024 . S
Zn117 O127 2.039 . S
Zn117 O129 2.034 . S
O118 C102 1.251 . S
O118 Zn109 2.039 . S
C119 O124 1.246 . S
C119 O125 1.249 . S
O120 C102 1.254 . S
O120 Zn117 2.025 . S
H121 C113 0.952 . S
H122 C104 0.952 . S
H123 C112 0.948 . S
O124 Zn109 2.034 . S
O124 C119 1.246 . S
O125 Zn117 2.024 . S
O125 C119 1.249 . S
H126 C108 0.948 . S
O127 Zn117 2.039 . S
O127 C131 1.251 . S
O128 Zn109 2.025 . S
O128 C131 1.254 . S
O129 C110 1.246 . S
O129 Zn117 2.034 . S
O130 Zn109 2.024 . S
O130 C110 1.249 . S
C131 O127 1.251 . S
C131 O128 1.254 . S
H132 C105 0.949 . S
H133 C107 0.950 . S
H134 C114 0.949 . S
H135 C116 0.950 . S
C136 O152 1.251 . S
C136 O154 1.254 . S
N137 C138 1.333 . S
N137 C142 1.307 . S
N137 Zn143 2.020 . S
C138 N137 1.333 . S
C138 C139 1.379 . S
C138 H156 0.952 . S
C139 C138 1.379 . S
C139 C140 1.390 . S
C139 H166 0.949 . S
C140 C139 1.390 . S
C140 C141 1.357 . S
C141 C140 1.357 . S
C141 C142 1.370 . S
C141 H167 0.950 . S
C142 N137 1.307 . S
C142 C141 1.370 . S
C142 H160 0.948 . S
Zn143 N137 2.020 . S
Zn143 O152 2.039 . S
Zn143 O158 2.034 . S
Zn143 O162 2.025 . S
Zn143 O164 2.024 . S
C144 O163 1.246 . S
C144 O164 1.249 . S
N145 C146 1.307 . S
N145 C147 1.333 . S
N145 Zn151 2.020 . S
C146 N145 1.307 . S
C146 C150 1.370 . S
C146 H157 0.948 . S
C147 N145 1.333 . S
C147 C148 1.379 . S
C147 H155 0.952 . S
C148 C147 1.379 . S
C148 C149 1.390 . S
C148 H168 0.949 . S
C149 C148 1.390 . S
C149 C150 1.357 . S
C150 C146 1.370 . S
C150 C149 1.357 . S
C150 H169 0.950 . S
Zn151 N145 2.020 . S
Zn151 O154 2.025 . S
Zn151 O159 2.024 . S
Zn151 O161 2.039 . S
Zn151 O163 2.034 . S
O152 C136 1.251 . S
O152 Zn143 2.039 . S
C153 O158 1.246 . S
C153 O159 1.249 . S
O154 C136 1.254 . S
O154 Zn151 2.025 . S
H155 C147 0.952 . S
H156 C138 0.952 . S
H157 C146 0.948 . S
O158 Zn143 2.034 . S
O158 C153 1.246 . S
O159 Zn151 2.024 . S
O159 C153 1.249 . S
H160 C142 0.948 . S
O161 Zn151 2.039 . S
O161 C165 1.251 . S
O162 Zn143 2.025 . S
O162 C165 1.254 . S
O163 C144 1.246 . S
O163 Zn151 2.034 . S
O164 Zn143 2.024 . S
O164 C144 1.249 . S
C165 O161 1.251 . S
C165 O162 1.254 . S
H166 C139 0.949 . S
H167 C141 0.950 . S
H168 C148 0.949 . S
H169 C150 0.950 . S
C170 O186 1.251 . S
C170 O188 1.254 . S
N171 C172 1.333 . S
N171 C176 1.307 . S
N171 Zn177 2.020 . S
C172 N171 1.333 . S
C172 C173 1.379 . S
C172 H190 0.952 . S
C173 C172 1.379 . S
C173 C174 1.390 . S
C173 H200 0.949 . S
C174 C173 1.390 . S
C174 C175 1.357 . S
C175 C174 1.357 . S
C175 C176 1.370 . S
C175 H201 0.950 . S
C176 N171 1.307 . S
C176 C175 1.370 . S
C176 H194 0.948 . S
Zn177 N171 2.020 . S
Zn177 O186 2.039 . S
Zn177 O192 2.034 . S
Zn177 O196 2.025 . S
Zn177 O198 2.024 . S
C178 O197 1.246 . S
C178 O198 1.249 . S
N179 C180 1.307 . S
N179 C181 1.333 . S
N179 Zn185 2.020 . S
C180 N179 1.307 . S
C180 C184 1.370 . S
C180 H191 0.948 . S
C181 N179 1.333 . S
C181 C182 1.379 . S
C181 H189 0.952 . S
C182 C181 1.379 . S
C182 C183 1.390 . S
C182 H202 0.949 . S
C183 C182 1.390 . S
C183 C184 1.357 . S
C184 C180 1.370 . S
C184 C183 1.357 . S
C184 H203 0.950 . S
Zn185 N179 2.020 . S
Zn185 O188 2.025 . S
Zn185 O193 2.024 . S
Zn185 O195 2.039 . S
Zn185 O197 2.034 . S
O186 C170 1.251 . S
O186 Zn177 2.039 . S
C187 O192 1.246 . S
C187 O193 1.249 . S
O188 C170 1.254 . S
O188 Zn185 2.025 . S
H189 C181 0.952 . S
H190 C172 0.952 . S
H191 C180 0.948 . S
O192 Zn177 2.034 . S
O192 C187 1.246 . S
O193 Zn185 2.024 . S
O193 C187 1.249 . S
H194 C176 0.948 . S
O195 Zn185 2.039 . S
O195 C199 1.251 . S
O196 Zn177 2.025 . S
O196 C199 1.254 . S
O197 C178 1.246 . S
O197 Zn185 2.034 . S
O198 Zn177 2.024 . S
O198 C178 1.249 . S
C199 O195 1.251 . S
C199 O196 1.254 . S
H200 C173 0.949 . S
H201 C175 0.950 . S
H202 C182 0.949 . S
H203 C184 0.950 . S
C204 O220 1.251 1_556 S
C204 O222 1.254 1_556 S
N205 C206 1.333 . S
N205 C210 1.307 . S
N205 Zn211 2.020 . S
C206 N205 1.333 . S
C206 C207 1.379 . S
C206 H224 0.952 . S
C207 C206 1.379 . S
C207 C208 1.390 . S
C207 H234 0.949 . S
C208 C207 1.390 . S
C208 C209 1.357 . S
C209 C208 1.357 . S
C209 C210 1.370 . S
C209 H235 0.950 . S
C210 N205 1.307 . S
C210 C209 1.370 . S
C210 H228 0.948 . S
Zn211 N205 2.020 . S
Zn211 O220 2.039 . S
Zn211 O226 2.034 . S
Zn211 O230 2.025 . S
Zn211 O232 2.024 . S
C212 O231 1.246 1_556 S
C212 O232 1.249 1_556 S
N213 C214 1.307 . S
N213 C215 1.333 . S
N213 Zn219 2.020 . S
C214 N213 1.307 . S
C214 C218 1.370 . S
C214 H225 0.948 . S
C215 N213 1.333 . S
C215 C216 1.379 . S
C215 H223 0.952 . S
C216 C215 1.379 . S
C216 C217 1.390 . S
C216 H236 0.949 . S
C217 C216 1.390 . S
C217 C218 1.357 . S
C218 C214 1.370 . S
C218 C217 1.357 . S
C218 H237 0.950 . S
Zn219 N213 2.020 . S
Zn219 O222 2.025 . S
Zn219 O227 2.024 . S
Zn219 O229 2.039 . S
Zn219 O231 2.034 . S
O220 C204 1.251 1_554 S
O220 Zn211 2.039 . S
C221 O226 1.246 . S
C221 O227 1.249 . S
O222 C204 1.254 1_554 S
O222 Zn219 2.025 . S
H223 C215 0.952 . S
H224 C206 0.952 . S
H225 C214 0.948 . S
O226 Zn211 2.034 . S
O226 C221 1.246 . S
O227 Zn219 2.024 . S
O227 C221 1.249 . S
H228 C210 0.948 . S
O229 Zn219 2.039 . S
O229 C233 1.251 . S
O230 Zn211 2.025 . S
O230 C233 1.254 . S
O231 C212 1.246 1_554 S
O231 Zn219 2.034 . S
O232 Zn211 2.024 . S
O232 C212 1.249 1_554 S
C233 O229 1.251 . S
C233 O230 1.254 . S
H234 C207 0.949 . S
H235 C209 0.950 . S
H236 C216 0.949 . S
H237 C218 0.950 . S
C238 O254 1.251 1_556 S
C238 O256 1.254 1_556 S
N239 C240 1.333 . S
N239 C244 1.307 . S
N239 Zn245 2.020 . S
C240 N239 1.333 . S
C240 C241 1.379 . S
C240 H258 0.952 . S
C241 C240 1.379 . S
C241 C242 1.390 . S
C241 H268 0.949 . S
C242 C241 1.390 . S
C242 C243 1.357 . S
C243 C242 1.357 . S
C243 C244 1.370 . S
C243 H269 0.950 . S
C244 N239 1.307 . S
C244 C243 1.370 . S
C244 H262 0.948 . S
Zn245 N239 2.020 . S
Zn245 O254 2.039 . S
Zn245 O260 2.034 . S
Zn245 O264 2.025 . S
Zn245 O266 2.024 . S
C246 O265 1.246 1_556 S
C246 O266 1.249 1_556 S
N247 C248 1.307 . S
N247 C249 1.333 . S
N247 Zn253 2.020 . S
C248 N247 1.307 . S
C248 C252 1.370 . S
C248 H259 0.948 . S
C249 N247 1.333 . S
C249 C250 1.379 . S
C249 H257 0.952 . S
C250 C249 1.379 . S
C250 C251 1.390 . S
C250 H270 0.949 . S
C251 C250 1.390 . S
C251 C252 1.357 . S
C252 C248 1.370 . S
C252 C251 1.357 . S
C252 H271 0.950 . S
Zn253 N247 2.020 . S
Zn253 O256 2.025 . S
Zn253 O261 2.024 . S
Zn253 O263 2.039 . S
Zn253 O265 2.034 . S
O254 C238 1.251 1_554 S
O254 Zn245 2.039 . S
C255 O260 1.246 . S
C255 O261 1.249 . S
O256 C238 1.254 1_554 S
O256 Zn253 2.025 . S
H257 C249 0.952 . S
H258 C240 0.952 . S
H259 C248 0.948 . S
O260 Zn245 2.034 . S
O260 C255 1.246 . S
O261 Zn253 2.024 . S
O261 C255 1.249 . S
H262 C244 0.948 . S
O263 Zn253 2.039 . S
O263 C267 1.251 . S
O264 Zn245 2.025 . S
O264 C267 1.254 . S
O265 C246 1.246 1_554 S
O265 Zn253 2.034 . S
O266 Zn245 2.024 . S
O266 C246 1.249 1_554 S
C267 O263 1.251 . S
C267 O264 1.254 . S
H268 C241 0.949 . S
H269 C243 0.950 . S
H270 C250 0.949 . S
H271 C252 0.950 . S
C272 O288 1.251 1_556 S
C272 O290 1.254 1_556 S
N273 C274 1.333 . S
N273 C278 1.307 . S
N273 Zn279 2.020 . S
C274 N273 1.333 . S
C274 C275 1.379 . S
C274 H292 0.952 . S
C275 C274 1.379 . S
C275 C276 1.390 . S
C275 H302 0.949 . S
C276 C275 1.390 . S
C276 C277 1.357 . S
C277 C276 1.357 . S
C277 C278 1.370 . S
C277 H303 0.950 . S
C278 N273 1.307 . S
C278 C277 1.370 . S
C278 H296 0.948 . S
Zn279 N273 2.020 . S
Zn279 O288 2.039 . S
Zn279 O294 2.034 . S
Zn279 O298 2.025 . S
Zn279 O300 2.024 . S
C280 O299 1.246 1_556 S
C280 O300 1.249 1_556 S
N281 C282 1.307 . S
N281 C283 1.333 . S
N281 Zn287 2.020 . S
C282 N281 1.307 . S
C282 C286 1.370 . S
C282 H293 0.948 . S
C283 N281 1.333 . S
C283 C284 1.379 . S
C283 H291 0.952 . S
C284 C283 1.379 . S
C284 C285 1.390 . S
C284 H304 0.949 . S
C285 C284 1.390 . S
C285 C286 1.357 . S
C286 C282 1.370 . S
C286 C285 1.357 . S
C286 H305 0.950 . S
Zn287 N281 2.020 . S
Zn287 O290 2.025 . S
Zn287 O295 2.024 . S
Zn287 O297 2.039 . S
Zn287 O299 2.034 . S
O288 C272 1.251 1_554 S
O288 Zn279 2.039 . S
C289 O294 1.246 . S
C289 O295 1.249 . S
O290 C272 1.254 1_554 S
O290 Zn287 2.025 . S
H291 C283 0.952 . S
H292 C274 0.952 . S
H293 C282 0.948 . S
O294 Zn279 2.034 . S
O294 C289 1.246 . S
O295 Zn287 2.024 . S
O295 C289 1.249 . S
H296 C278 0.948 . S
O297 Zn287 2.039 . S
O297 C301 1.251 . S
O298 Zn279 2.025 . S
O298 C301 1.254 . S
O299 C280 1.246 1_554 S
O299 Zn287 2.034 . S
O300 Zn279 2.024 . S
O300 C280 1.249 1_554 S
C301 O297 1.251 . S
C301 O298 1.254 . S
H302 C275 0.949 . S
H303 C277 0.950 . S
H304 C284 0.949 . S
H305 C286 0.950 . S
C306 O322 1.251 . S
C306 O324 1.254 . S
N307 C308 1.333 . S
N307 C312 1.307 . S
N307 Zn313 2.020 . S
C308 N307 1.333 . S
C308 C309 1.379 . S
C308 H326 0.952 . S
C309 C308 1.379 . S
C309 C310 1.390 . S
C309 H336 0.949 . S
C310 C309 1.390 . S
C310 C311 1.357 . S
C311 C310 1.357 . S
C311 C312 1.370 . S
C311 H337 0.950 . S
C312 N307 1.307 . S
C312 C311 1.370 . S
C312 H330 0.948 . S
Zn313 N307 2.020 . S
Zn313 O322 2.039 . S
Zn313 O328 2.034 . S
Zn313 O332 2.025 . S
Zn313 O334 2.024 . S
C314 O333 1.246 . S
C314 O334 1.249 . S
N315 C316 1.307 . S
N315 C317 1.333 . S
N315 Zn321 2.020 . S
C316 N315 1.307 . S
C316 C320 1.370 . S
C316 H327 0.948 . S
C317 N315 1.333 . S
C317 C318 1.379 . S
C317 H325 0.952 . S
C318 C317 1.379 . S
C318 C319 1.390 . S
C318 H338 0.949 . S
C319 C318 1.390 . S
C319 C320 1.357 . S
C320 C316 1.370 . S
C320 C319 1.357 . S
C320 H339 0.950 . S
Zn321 N315 2.020 . S
Zn321 O324 2.025 . S
Zn321 O329 2.024 . S
Zn321 O331 2.039 . S
Zn321 O333 2.034 . S
O322 C306 1.251 . S
O322 Zn313 2.039 . S
C323 O328 1.246 . S
C323 O329 1.249 . S
O324 C306 1.254 . S
O324 Zn321 2.025 . S
H325 C317 0.952 . S
H326 C308 0.952 . S
H327 C316 0.948 . S
O328 Zn313 2.034 . S
O328 C323 1.246 . S
O329 Zn321 2.024 . S
O329 C323 1.249 . S
H330 C312 0.948 . S
O331 Zn321 2.039 . S
O331 C335 1.251 . S
O332 Zn313 2.025 . S
O332 C335 1.254 . S
O333 C314 1.246 . S
O333 Zn321 2.034 . S
O334 Zn313 2.024 . S
O334 C314 1.249 . S
C335 O331 1.251 . S
C335 O332 1.254 . S
H336 C309 0.949 . S
H337 C311 0.950 . S
H338 C318 0.949 . S
H339 C320 0.950 . S
C340 O356 1.251 . S
C340 O358 1.254 . S
N341 C342 1.333 . S
N341 C346 1.307 . S
N341 Zn347 2.020 . S
C342 N341 1.333 . S
C342 C343 1.379 . S
C342 H360 0.952 . S
C343 C342 1.379 . S
C343 C344 1.390 . S
C343 H370 0.949 . S
C344 C343 1.390 . S
C344 C345 1.357 . S
C345 C344 1.357 . S
C345 C346 1.370 . S
C345 H371 0.950 . S
C346 N341 1.307 . S
C346 C345 1.370 . S
C346 H364 0.948 . S
Zn347 N341 2.020 . S
Zn347 O356 2.039 . S
Zn347 O362 2.034 . S
Zn347 O366 2.025 . S
Zn347 O368 2.024 . S
C348 O367 1.246 . S
C348 O368 1.249 . S
N349 C350 1.307 . S
N349 C351 1.333 . S
N349 Zn355 2.020 . S
C350 N349 1.307 . S
C350 C354 1.370 . S
C350 H361 0.948 . S
C351 N349 1.333 . S
C351 C352 1.379 . S
C351 H359 0.952 . S
C352 C351 1.379 . S
C352 C353 1.390 . S
C352 H372 0.949 . S
C353 C352 1.390 . S
C353 C354 1.357 . S
C354 C350 1.370 . S
C354 C353 1.357 . S
C354 H373 0.950 . S
Zn355 N349 2.020 . S
Zn355 O358 2.025 . S
Zn355 O363 2.024 . S
Zn355 O365 2.039 . S
Zn355 O367 2.034 . S
O356 C340 1.251 . S
O356 Zn347 2.039 . S
C357 O362 1.246 . S
C357 O363 1.249 . S
O358 C340 1.254 . S
O358 Zn355 2.025 . S
H359 C351 0.952 . S
H360 C342 0.952 . S
H361 C350 0.948 . S
O362 Zn347 2.034 . S
O362 C357 1.246 . S
O363 Zn355 2.024 . S
O363 C357 1.249 . S
H364 C346 0.948 . S
O365 Zn355 2.039 . S
O365 C369 1.251 . S
O366 Zn347 2.025 . S
O366 C369 1.254 . S
O367 C348 1.246 . S
O367 Zn355 2.034 . S
O368 Zn347 2.024 . S
O368 C348 1.249 . S
C369 O365 1.251 . S
C369 O366 1.254 . S
H370 C343 0.949 . S
H371 C345 0.950 . S
H372 C352 0.949 . S
H373 C354 0.950 . S
C374 O390 1.251 . S
C374 O392 1.254 . S
N375 C376 1.333 . S
N375 C380 1.307 . S
N375 Zn381 2.020 . S
C376 N375 1.333 . S
C376 C377 1.379 . S
C376 H394 0.952 . S
C377 C376 1.379 . S
C377 C378 1.390 . S
C377 H404 0.949 . S
C378 C377 1.390 . S
C378 C379 1.357 . S
C379 C378 1.357 . S
C379 C380 1.370 . S
C379 H405 0.950 . S
C380 N375 1.307 . S
C380 C379 1.370 . S
C380 H398 0.948 . S
Zn381 N375 2.020 . S
Zn381 O390 2.039 . S
Zn381 O396 2.034 . S
Zn381 O400 2.025 . S
Zn381 O402 2.024 . S
C382 O401 1.246 . S
C382 O402 1.249 . S
N383 C384 1.307 . S
N383 C385 1.333 . S
N383 Zn389 2.020 . S
C384 N383 1.307 . S
C384 C388 1.370 . S
C384 H395 0.948 . S
C385 N383 1.333 . S
C385 C386 1.379 . S
C385 H393 0.952 . S
C386 C385 1.379 . S
C386 C387 1.390 . S
C386 H406 0.949 . S
C387 C386 1.390 . S
C387 C388 1.357 . S
C388 C384 1.370 . S
C388 C387 1.357 . S
C388 H407 0.950 . S
Zn389 N383 2.020 . S
Zn389 O392 2.025 . S
Zn389 O397 2.024 . S
Zn389 O399 2.039 . S
Zn389 O401 2.034 . S
O390 C374 1.251 . S
O390 Zn381 2.039 . S
C391 O396 1.246 . S
C391 O397 1.249 . S
O392 C374 1.254 . S
O392 Zn389 2.025 . S
H393 C385 0.952 . S
H394 C376 0.952 . S
H395 C384 0.948 . S
O396 Zn381 2.034 . S
O396 C391 1.246 . S
O397 Zn389 2.024 . S
O397 C391 1.249 . S
H398 C380 0.948 . S
O399 Zn389 2.039 . S
O399 C403 1.251 . S
O400 Zn381 2.025 . S
O400 C403 1.254 . S
O401 C382 1.246 . S
O401 Zn389 2.034 . S
O402 Zn381 2.024 . S
O402 C382 1.249 . S
C403 O399 1.251 . S
C403 O400 1.254 . S
H404 C377 0.949 . S
H405 C379 0.950 . S
H406 C386 0.949 . S
H407 C388 0.950 . S
C408 O424 1.251 . S
C408 O426 1.254 . S
N409 C410 1.333 . S
N409 C414 1.307 . S
N409 Zn415 2.020 . S
C410 N409 1.333 . S
C410 C411 1.379 . S
C410 H428 0.952 . S
C411 C410 1.379 . S
C411 C412 1.390 . S
C411 H438 0.949 . S
C412 C411 1.390 . S
C412 C413 1.357 . S
C413 C412 1.357 . S
C413 C414 1.370 . S
C413 H439 0.950 . S
C414 N409 1.307 . S
C414 C413 1.370 . S
C414 H432 0.948 . S
Zn415 N409 2.020 . S
Zn415 O424 2.039 . S
Zn415 O430 2.034 . S
Zn415 O434 2.025 . S
Zn415 O436 2.024 . S
C416 O435 1.246 . S
C416 O436 1.249 . S
N417 C418 1.307 . S
N417 C419 1.333 . S
N417 Zn423 2.020 . S
C418 N417 1.307 . S
C418 C422 1.370 . S
C418 H429 0.948 . S
C419 N417 1.333 . S
C419 C420 1.379 . S
C419 H427 0.952 . S
C420 C419 1.379 . S
C420 C421 1.390 . S
C420 H440 0.949 . S
C421 C420 1.390 . S
C421 C422 1.357 . S
C422 C418 1.370 . S
C422 C421 1.357 . S
C422 H441 0.950 . S
Zn423 N417 2.020 . S
Zn423 O426 2.025 . S
Zn423 O431 2.024 . S
Zn423 O433 2.039 . S
Zn423 O435 2.034 . S
O424 C408 1.251 . S
O424 Zn415 2.039 . S
C425 O430 1.246 . S
C425 O431 1.249 . S
O426 C408 1.254 . S
O426 Zn423 2.025 . S
H427 C419 0.952 . S
H428 C410 0.952 . S
H429 C418 0.948 . S
O430 Zn415 2.034 . S
O430 C425 1.246 . S
O431 Zn423 2.024 . S
O431 C425 1.249 . S
H432 C414 0.948 . S
O433 Zn423 2.039 . S
O433 C437 1.251 . S
O434 Zn415 2.025 . S
O434 C437 1.254 . S
O435 C416 1.246 . S
O435 Zn423 2.034 . S
O436 Zn415 2.024 . S
O436 C416 1.249 . S
C437 O433 1.251 . S
C437 O434 1.254 . S
H438 C411 0.949 . S
H439 C413 0.950 . S
H440 C420 0.949 . S
H441 C422 0.950 . S
C442 O458 1.251 . S
C442 O460 1.254 . S
N443 C444 1.333 . S
N443 C448 1.307 . S
N443 Zn449 2.020 . S
C444 N443 1.333 . S
C444 C445 1.379 . S
C444 H462 0.952 . S
C445 C444 1.379 . S
C445 C446 1.390 . S
C445 H472 0.949 . S
C446 C445 1.390 . S
C446 C447 1.357 . S
C447 C446 1.357 . S
C447 C448 1.370 . S
C447 H473 0.950 . S
C448 N443 1.307 . S
C448 C447 1.370 . S
C448 H466 0.948 . S
Zn449 N443 2.020 . S
Zn449 O458 2.039 . S
Zn449 O464 2.034 . S
Zn449 O468 2.025 . S
Zn449 O470 2.024 . S
C450 O469 1.246 . S
C450 O470 1.249 . S
N451 C452 1.307 . S
N451 C453 1.333 . S
N451 Zn457 2.020 . S
C452 N451 1.307 . S
C452 C456 1.370 . S
C452 H463 0.948 . S
C453 N451 1.333 . S
C453 C454 1.379 . S
C453 H461 0.952 . S
C454 C453 1.379 . S
C454 C455 1.390 . S
C454 H474 0.949 . S
C455 C454 1.390 . S
C455 C456 1.357 . S
C456 C452 1.370 . S
C456 C455 1.357 . S
C456 H475 0.950 . S
Zn457 N451 2.020 . S
Zn457 O460 2.025 . S
Zn457 O465 2.024 . S
Zn457 O467 2.039 . S
Zn457 O469 2.034 . S
O458 C442 1.251 . S
O458 Zn449 2.039 . S
C459 O464 1.246 . S
C459 O465 1.249 . S
O460 C442 1.254 . S
O460 Zn457 2.025 . S
H461 C453 0.952 . S
H462 C444 0.952 . S
H463 C452 0.948 . S
O464 Zn449 2.034 . S
O464 C459 1.246 . S
O465 Zn457 2.024 . S
O465 C459 1.249 . S
H466 C448 0.948 . S
O467 Zn457 2.039 . S
O467 C471 1.251 . S
O468 Zn449 2.025 . S
O468 C471 1.254 . S
O469 C450 1.246 . S
O469 Zn457 2.034 . S
O470 Zn449 2.024 . S
O470 C450 1.249 . S
C471 O467 1.251 . S
C471 O468 1.254 . S
H472 C445 0.949 . S
H473 C447 0.950 . S
H474 C454 0.949 . S
H475 C456 0.950 . S
C476 O492 1.251 . S
C476 O494 1.254 . S
N477 C478 1.333 . S
N477 C482 1.307 . S
N477 Zn483 2.020 . S
C478 N477 1.333 . S
C478 C479 1.379 . S
C478 H496 0.952 . S
C479 C478 1.379 . S
C479 C480 1.390 . S
C479 H506 0.949 . S
C480 C479 1.390 . S
C480 C481 1.357 . S
C481 C480 1.357 . S
C481 C482 1.370 . S
C481 H507 0.950 . S
C482 N477 1.307 . S
C482 C481 1.370 . S
C482 H500 0.948 . S
Zn483 N477 2.020 . S
Zn483 O492 2.039 . S
Zn483 O498 2.034 . S
Zn483 O502 2.025 . S
Zn483 O504 2.024 . S
C484 O503 1.246 . S
C484 O504 1.249 . S
N485 C486 1.307 . S
N485 C487 1.333 . S
N485 Zn491 2.020 . S
C486 N485 1.307 . S
C486 C490 1.370 . S
C486 H497 0.948 . S
C487 N485 1.333 . S
C487 C488 1.379 . S
C487 H495 0.952 . S
C488 C487 1.379 . S
C488 C489 1.390 . S
C488 H508 0.949 . S
C489 C488 1.390 . S
C489 C490 1.357 . S
C490 C486 1.370 . S
C490 C489 1.357 . S
C490 H509 0.950 . S
Zn491 N485 2.020 . S
Zn491 O494 2.025 . S
Zn491 O499 2.024 . S
Zn491 O501 2.039 . S
Zn491 O503 2.034 . S
O492 C476 1.251 . S
O492 Zn483 2.039 . S
C493 O498 1.246 . S
C493 O499 1.249 . S
O494 C476 1.254 . S
O494 Zn491 2.025 . S
H495 C487 0.952 . S
H496 C478 0.952 . S
H497 C486 0.948 . S
O498 Zn483 2.034 . S
O498 C493 1.246 . S
O499 Zn491 2.024 . S
O499 C493 1.249 . S
H500 C482 0.948 . S
O501 Zn491 2.039 . S
O501 C505 1.251 . S
O502 Zn483 2.025 . S
O502 C505 1.254 . S
O503 C484 1.246 . S
O503 Zn491 2.034 . S
O504 Zn483 2.024 . S
O504 C484 1.249 . S
C505 O501 1.251 . S
C505 O502 1.254 . S
H506 C479 0.949 . S
H507 C481 0.950 . S
H508 C488 0.949 . S
H509 C490 0.950 . S
C510 O526 1.251 . S
C510 O528 1.254 . S
N511 C512 1.333 . S
N511 C516 1.307 . S
N511 Zn517 2.020 . S
C512 N511 1.333 . S
C512 C513 1.379 . S
C512 H530 0.952 . S
C513 C512 1.379 . S
C513 C514 1.390 . S
C513 H540 0.949 . S
C514 C513 1.390 . S
C514 C515 1.357 . S
C515 C514 1.357 . S
C515 C516 1.370 . S
C515 H541 0.950 . S
C516 N511 1.307 . S
C516 C515 1.370 . S
C516 H534 0.948 . S
Zn517 N511 2.020 . S
Zn517 O526 2.039 . S
Zn517 O532 2.034 . S
Zn517 O536 2.025 . S
Zn517 O538 2.024 . S
C518 O537 1.246 . S
C518 O538 1.249 . S
N519 C520 1.307 . S
N519 C521 1.333 . S
N519 Zn525 2.020 . S
C520 N519 1.307 . S
C520 C524 1.370 . S
C520 H531 0.948 . S
C521 N519 1.333 . S
C521 C522 1.379 . S
C521 H529 0.952 . S
C522 C521 1.379 . S
C522 C523 1.390 . S
C522 H542 0.949 . S
C523 C522 1.390 . S
C523 C524 1.357 . S
C524 C520 1.370 . S
C524 C523 1.357 . S
C524 H543 0.950 . S
Zn525 N519 2.020 . S
Zn525 O528 2.025 . S
Zn525 O533 2.024 . S
Zn525 O535 2.039 . S
Zn525 O537 2.034 . S
O526 C510 1.251 . S
O526 Zn517 2.039 . S
C527 O532 1.246 . S
C527 O533 1.249 . S
O528 C510 1.254 . S
O528 Zn525 2.025 . S
H529 C521 0.952 . S
H530 C512 0.952 . S
H531 C520 0.948 . S
O532 Zn517 2.034 . S
O532 C527 1.246 . S
O533 Zn525 2.024 . S
O533 C527 1.249 . S
H534 C516 0.948 . S
O535 Zn525 2.039 . S
O535 C539 1.251 . S
O536 Zn517 2.025 . S
O536 C539 1.254 . S
O537 C518 1.246 . S
O537 Zn525 2.034 . S
O538 Zn517 2.024 . S
O538 C518 1.249 . S
C539 O535 1.251 . S
C539 O536 1.254 . S
H540 C513 0.949 . S
H541 C515 0.950 . S
H542 C522 0.949 . S
H543 C524 0.950 . S
C544 O560 1.251 . S
C544 O562 1.254 . S
N545 C546 1.333 . S
N545 C550 1.307 . S
N545 Zn551 2.020 . S
C546 N545 1.333 . S
C546 C547 1.379 . S
C546 H564 0.952 . S
C547 C546 1.379 . S
C547 C548 1.390 . S
C547 H574 0.949 . S
C548 C547 1.390 . S
C548 C549 1.357 . S
C549 C548 1.357 . S
C549 C550 1.370 . S
C549 H575 0.950 . S
C550 N545 1.307 . S
C550 C549 1.370 . S
C550 H568 0.948 . S
Zn551 N545 2.020 . S
Zn551 O560 2.039 . S
Zn551 O566 2.034 . S
Zn551 O570 2.025 . S
Zn551 O572 2.024 . S
C552 O571 1.246 . S
C552 O572 1.249 . S
N553 C554 1.307 . S
N553 C555 1.333 . S
N553 Zn559 2.020 . S
C554 N553 1.307 . S
C554 C558 1.370 . S
C554 H565 0.948 . S
C555 N553 1.333 . S
C555 C556 1.379 . S
C555 H563 0.952 . S
C556 C555 1.379 . S
C556 C557 1.390 . S
C556 H576 0.949 . S
C557 C556 1.390 . S
C557 C558 1.357 . S
C558 C554 1.370 . S
C558 C557 1.357 . S
C558 H577 0.950 . S
Zn559 N553 2.020 . S
Zn559 O562 2.025 . S
Zn559 O567 2.024 . S
Zn559 O569 2.039 . S
Zn559 O571 2.034 . S
O560 C544 1.251 . S
O560 Zn551 2.039 . S
C561 O566 1.246 . S
C561 O567 1.249 . S
O562 C544 1.254 . S
O562 Zn559 2.025 . S
H563 C555 0.952 . S
H564 C546 0.952 . S
H565 C554 0.948 . S
O566 Zn551 2.034 . S
O566 C561 1.246 . S
O567 Zn559 2.024 . S
O567 C561 1.249 . S
H568 C550 0.948 . S
O569 Zn559 2.039 . S
O569 C573 1.251 . S
O570 Zn551 2.025 . S
O570 C573 1.254 . S
O571 C552 1.246 . S
O571 Zn559 2.034 . S
O572 Zn551 2.024 . S
O572 C552 1.249 . S
C573 O569 1.251 . S
C573 O570 1.254 . S
H574 C547 0.949 . S
H575 C549 0.950 . S
H576 C556 0.949 . S
H577 C558 0.950 . S
C578 O594 1.251 . S
C578 O596 1.254 . S
N579 C580 1.333 . S
N579 C584 1.307 . S
N579 Zn585 2.020 . S
C580 N579 1.333 . S
C580 C581 1.379 . S
C580 H598 0.952 . S
C581 C580 1.379 . S
C581 C582 1.390 . S
C581 H608 0.949 . S
C582 C581 1.390 . S
C582 C583 1.357 . S
C583 C582 1.357 . S
C583 C584 1.370 . S
C583 H609 0.950 . S
C584 N579 1.307 . S
C584 C583 1.370 . S
C584 H602 0.948 . S
Zn585 N579 2.020 . S
Zn585 O594 2.039 . S
Zn585 O600 2.034 . S
Zn585 O604 2.025 . S
Zn585 O606 2.024 . S
C586 O605 1.246 . S
C586 O606 1.249 . S
N587 C588 1.307 . S
N587 C589 1.333 . S
N587 Zn593 2.020 . S
C588 N587 1.307 . S
C588 C592 1.370 . S
C588 H599 0.948 . S
C589 N587 1.333 . S
C589 C590 1.379 . S
C589 H597 0.952 . S
C590 C589 1.379 . S
C590 C591 1.390 . S
C590 H610 0.949 . S
C591 C590 1.390 . S
C591 C592 1.357 . S
C592 C588 1.370 . S
C592 C591 1.357 . S
C592 H611 0.950 . S
Zn593 N587 2.020 . S
Zn593 O596 2.025 . S
Zn593 O601 2.024 . S
Zn593 O603 2.039 . S
Zn593 O605 2.034 . S
O594 C578 1.251 . S
O594 Zn585 2.039 . S
C595 O600 1.246 . S
C595 O601 1.249 . S
O596 C578 1.254 . S
O596 Zn593 2.025 . S
H597 C589 0.952 . S
H598 C580 0.952 . S
H599 C588 0.948 . S
O600 Zn585 2.034 . S
O600 C595 1.246 . S
O601 Zn593 2.024 . S
O601 C595 1.249 . S
H602 C584 0.948 . S
O603 Zn593 2.039 . S
O603 C607 1.251 . S
O604 Zn585 2.025 . S
O604 C607 1.254 . S
O605 C586 1.246 . S
O605 Zn593 2.034 . S
O606 Zn585 2.024 . S
O606 C586 1.249 . S
C607 O603 1.251 . S
C607 O604 1.254 . S
H608 C581 0.949 . S
H609 C583 0.950 . S
H610 C590 0.949 . S
H611 C592 0.950 . S
C612 O628 1.251 . S
C612 O630 1.254 . S
N613 C614 1.333 . S
N613 C618 1.307 . S
N613 Zn619 2.020 . S
C614 N613 1.333 . S
C614 C615 1.379 . S
C614 H632 0.952 . S
C615 C614 1.379 . S
C615 C616 1.390 . S
C615 H642 0.949 . S
C616 C615 1.390 . S
C616 C617 1.357 . S
C617 C616 1.357 . S
C617 C618 1.370 . S
C617 H643 0.950 . S
C618 N613 1.307 . S
C618 C617 1.370 . S
C618 H636 0.948 . S
Zn619 N613 2.020 . S
Zn619 O628 2.039 . S
Zn619 O634 2.034 . S
Zn619 O638 2.025 . S
Zn619 O640 2.024 . S
C620 O639 1.246 . S
C620 O640 1.249 . S
N621 C622 1.307 . S
N621 C623 1.333 . S
N621 Zn627 2.020 . S
C622 N621 1.307 . S
C622 C626 1.370 . S
C622 H633 0.948 . S
C623 N621 1.333 . S
C623 C624 1.379 . S
C623 H631 0.952 . S
C624 C623 1.379 . S
C624 C625 1.390 . S
C624 H644 0.949 . S
C625 C624 1.390 . S
C625 C626 1.357 . S
C626 C622 1.370 . S
C626 C625 1.357 . S
C626 H645 0.950 . S
Zn627 N621 2.020 . S
Zn627 O630 2.025 . S
Zn627 O635 2.024 . S
Zn627 O637 2.039 . S
Zn627 O639 2.034 . S
O628 C612 1.251 . S
O628 Zn619 2.039 . S
C629 O634 1.246 . S
C629 O635 1.249 . S
O630 C612 1.254 . S
O630 Zn627 2.025 . S
H631 C623 0.952 . S
H632 C614 0.952 . S
H633 C622 0.948 . S
O634 Zn619 2.034 . S
O634 C629 1.246 . S
O635 Zn627 2.024 . S
O635 C629 1.249 . S
H636 C618 0.948 . S
O637 Zn627 2.039 . S
O637 C641 1.251 . S
O638 Zn619 2.025 . S
O638 C641 1.254 . S
O639 C620 1.246 . S
O639 Zn627 2.034 . S
O640 Zn619 2.024 . S
O640 C620 1.249 . S
C641 O637 1.251 . S
C641 O638 1.254 . S
H642 C615 0.949 . S
H643 C617 0.950 . S
H644 C624 0.949 . S
H645 C626 0.950 . S
C646 O662 1.251 . S
C646 O664 1.254 . S
N647 C648 1.333 . S
N647 C652 1.307 . S
N647 Zn653 2.020 . S
C648 N647 1.333 . S
C648 C649 1.379 . S
C648 H666 0.952 . S
C649 C648 1.379 . S
C649 C650 1.390 . S
C649 H676 0.949 . S
C650 C649 1.390 . S
C650 C651 1.357 . S
C651 C650 1.357 . S
C651 C652 1.370 . S
C651 H677 0.950 . S
C652 N647 1.307 . S
C652 C651 1.370 . S
C652 H670 0.948 . S
Zn653 N647 2.020 . S
Zn653 O662 2.039 . S
Zn653 O668 2.034 . S
Zn653 O672 2.025 . S
Zn653 O674 2.024 . S
C654 O673 1.246 . S
C654 O674 1.249 . S
N655 C656 1.307 . S
N655 C657 1.333 . S
N655 Zn661 2.020 . S
C656 N655 1.307 . S
C656 C660 1.370 . S
C656 H667 0.948 . S
C657 N655 1.333 . S
C657 C658 1.379 . S
C657 H665 0.952 . S
C658 C657 1.379 . S
C658 C659 1.390 . S
C658 H678 0.949 . S
C659 C658 1.390 . S
C659 C660 1.357 . S
C660 C656 1.370 . S
C660 C659 1.357 . S
C660 H679 0.950 . S
Zn661 N655 2.020 . S
Zn661 O664 2.025 . S
Zn661 O669 2.024 . S
Zn661 O671 2.039 . S
Zn661 O673 2.034 . S
O662 C646 1.251 . S
O662 Zn653 2.039 . S
C663 O668 1.246 . S
C663 O669 1.249 . S
O664 C646 1.254 . S
O664 Zn661 2.025 . S
H665 C657 0.952 . S
H666 C648 0.952 . S
H667 C656 0.948 . S
O668 Zn653 2.034 . S
O668 C663 1.246 . S
O669 Zn661 2.024 . S
O669 C663 1.249 . S
H670 C652 0.948 . S
O671 Zn661 2.039 . S
O671 C675 1.251 . S
O672 Zn653 2.025 . S
O672 C675 1.254 . S
O673 C654 1.246 . S
O673 Zn661 2.034 . S
O674 Zn653 2.024 . S
O674 C654 1.249 . S
C675 O671 1.251 . S
C675 O672 1.254 . S
H676 C649 0.949 . S
H677 C651 0.950 . S
H678 C658 0.949 . S
H679 C660 0.950 . S
C680 O696 1.251 . S
C680 O698 1.254 . S
N681 C682 1.333 . S
N681 C686 1.307 . S
N681 Zn687 2.020 . S
C682 N681 1.333 . S
C682 C683 1.379 . S
C682 H700 0.952 . S
C683 C682 1.379 . S
C683 C684 1.390 . S
C683 H710 0.949 . S
C684 C683 1.390 . S
C684 C685 1.357 . S
C685 C684 1.357 . S
C685 C686 1.370 . S
C685 H711 0.950 . S
C686 N681 1.307 . S
C686 C685 1.370 . S
C686 H704 0.948 . S
Zn687 N681 2.020 . S
Zn687 O696 2.039 . S
Zn687 O702 2.034 . S
Zn687 O706 2.025 . S
Zn687 O708 2.024 . S
C688 O707 1.246 . S
C688 O708 1.249 . S
N689 C690 1.307 . S
N689 C691 1.333 . S
N689 Zn695 2.020 . S
C690 N689 1.307 . S
C690 C694 1.370 . S
C690 H701 0.948 . S
C691 N689 1.333 . S
C691 C692 1.379 . S
C691 H699 0.952 . S
C692 C691 1.379 . S
C692 C693 1.390 . S
C692 H712 0.949 . S
C693 C692 1.390 . S
C693 C694 1.357 . S
C694 C690 1.370 . S
C694 C693 1.357 . S
C694 H713 0.950 . S
Zn695 N689 2.020 . S
Zn695 O698 2.025 . S
Zn695 O703 2.024 . S
Zn695 O705 2.039 . S
Zn695 O707 2.034 . S
O696 C680 1.251 . S
O696 Zn687 2.039 . S
C697 O702 1.246 . S
C697 O703 1.249 . S
O698 C680 1.254 . S
O698 Zn695 2.025 . S
H699 C691 0.952 . S
H700 C682 0.952 . S
H701 C690 0.948 . S
O702 Zn687 2.034 . S
O702 C697 1.246 . S
O703 Zn695 2.024 . S
O703 C697 1.249 . S
H704 C686 0.948 . S
O705 Zn695 2.039 . S
O705 C709 1.251 . S
O706 Zn687 2.025 . S
O706 C709 1.254 . S
O707 C688 1.246 . S
O707 Zn695 2.034 . S
O708 Zn687 2.024 . S
O708 C688 1.249 . S
C709 O705 1.251 . S
C709 O706 1.254 . S
H710 C683 0.949 . S
H711 C685 0.950 . S
H712 C692 0.949 . S
H713 C694 0.950 . S
C714 O730 1.251 . S
C714 O732 1.254 . S
N715 C716 1.333 . S
N715 C720 1.307 . S
N715 Zn721 2.020 . S
C716 N715 1.333 . S
C716 C717 1.379 . S
C716 H734 0.952 . S
C717 C716 1.379 . S
C717 C718 1.390 . S
C717 H744 0.949 . S
C718 C717 1.390 . S
C718 C719 1.357 . S
C719 C718 1.357 . S
C719 C720 1.370 . S
C719 H745 0.950 . S
C720 N715 1.307 . S
C720 C719 1.370 . S
C720 H738 0.948 . S
Zn721 N715 2.020 . S
Zn721 O730 2.039 . S
Zn721 O736 2.034 . S
Zn721 O740 2.025 . S
Zn721 O742 2.024 . S
C722 O741 1.246 . S
C722 O742 1.249 . S
N723 C724 1.307 . S
N723 C725 1.333 . S
N723 Zn729 2.020 . S
C724 N723 1.307 . S
C724 C728 1.370 . S
C724 H735 0.948 . S
C725 N723 1.333 . S
C725 C726 1.379 . S
C725 H733 0.952 . S
C726 C725 1.379 . S
C726 C727 1.390 . S
C726 H746 0.949 . S
C727 C726 1.390 . S
C727 C728 1.357 . S
C728 C724 1.370 . S
C728 C727 1.357 . S
C728 H747 0.950 . S
Zn729 N723 2.020 . S
Zn729 O732 2.025 . S
Zn729 O737 2.024 . S
Zn729 O739 2.039 . S
Zn729 O741 2.034 . S
O730 C714 1.251 . S
O730 Zn721 2.039 . S
C731 O736 1.246 . S
C731 O737 1.249 . S
O732 C714 1.254 . S
O732 Zn729 2.025 . S
H733 C725 0.952 . S
H734 C716 0.952 . S
H735 C724 0.948 . S
O736 Zn721 2.034 . S
O736 C731 1.246 . S
O737 Zn729 2.024 . S
O737 C731 1.249 . S
H738 C720 0.948 . S
O739 Zn729 2.039 . S
O739 C743 1.251 . S
O740 Zn721 2.025 . S
O740 C743 1.254 . S
O741 C722 1.246 . S
O741 Zn729 2.034 . S
O742 Zn721 2.024 . S
O742 C722 1.249 . S
C743 O739 1.251 . S
C743 O740 1.254 . S
H744 C717 0.949 . S
H745 C719 0.950 . S
H746 C726 0.949 . S
H747 C728 0.950 . S
C748 O764 1.251 . S
C748 O766 1.254 . S
N749 C750 1.333 . S
N749 C754 1.307 . S
N749 Zn755 2.020 . S
C750 N749 1.333 . S
C750 C751 1.379 . S
C750 H768 0.952 . S
C751 C750 1.379 . S
C751 C752 1.390 . S
C751 H778 0.949 . S
C752 C751 1.390 . S
C752 C753 1.357 . S
C753 C752 1.357 . S
C753 C754 1.370 . S
C753 H779 0.950 . S
C754 N749 1.307 . S
C754 C753 1.370 . S
C754 H772 0.948 . S
Zn755 N749 2.020 . S
Zn755 O764 2.039 . S
Zn755 O770 2.034 . S
Zn755 O774 2.025 . S
Zn755 O776 2.024 . S
C756 O775 1.246 . S
C756 O776 1.249 . S
N757 C758 1.307 . S
N757 C759 1.333 . S
N757 Zn763 2.020 . S
C758 N757 1.307 . S
C758 C762 1.370 . S
C758 H769 0.948 . S
C759 N757 1.333 . S
C759 C760 1.379 . S
C759 H767 0.952 . S
C760 C759 1.379 . S
C760 C761 1.390 . S
C760 H780 0.949 . S
C761 C760 1.390 . S
C761 C762 1.357 . S
C762 C758 1.370 . S
C762 C761 1.357 . S
C762 H781 0.950 . S
Zn763 N757 2.020 . S
Zn763 O766 2.025 . S
Zn763 O771 2.024 . S
Zn763 O773 2.039 . S
Zn763 O775 2.034 . S
O764 C748 1.251 . S
O764 Zn755 2.039 . S
C765 O770 1.246 . S
C765 O771 1.249 . S
O766 C748 1.254 . S
O766 Zn763 2.025 . S
H767 C759 0.952 . S
H768 C750 0.952 . S
H769 C758 0.948 . S
O770 Zn755 2.034 . S
O770 C765 1.246 . S
O771 Zn763 2.024 . S
O771 C765 1.249 . S
H772 C754 0.948 . S
O773 Zn763 2.039 . S
O773 C777 1.251 . S
O774 Zn755 2.025 . S
O774 C777 1.254 . S
O775 C756 1.246 . S
O775 Zn763 2.034 . S
O776 Zn755 2.024 . S
O776 C756 1.249 . S
C777 O773 1.251 . S
C777 O774 1.254 . S
H778 C751 0.949 . S
H779 C753 0.950 . S
H780 C760 0.949 . S
H781 C762 0.950 . S
C782 O798 1.251 . S
C782 O800 1.254 . S
N783 C784 1.333 . S
N783 C788 1.307 . S
N783 Zn789 2.020 . S
C784 N783 1.333 . S
C784 C785 1.379 . S
C784 H802 0.952 . S
C785 C784 1.379 . S
C785 C786 1.390 . S
C785 H812 0.949 . S
C786 C785 1.390 . S
C786 C787 1.357 . S
C787 C786 1.357 . S
C787 C788 1.370 . S
C787 H813 0.950 . S
C788 N783 1.307 . S
C788 C787 1.370 . S
C788 H806 0.948 . S
Zn789 N783 2.020 . S
Zn789 O798 2.039 . S
Zn789 O804 2.034 . S
Zn789 O808 2.025 . S
Zn789 O810 2.024 . S
C790 O809 1.246 . S
C790 O810 1.249 . S
N791 C792 1.307 . S
N791 C793 1.333 . S
N791 Zn797 2.020 . S
C792 N791 1.307 . S
C792 C796 1.370 . S
C792 H803 0.948 . S
C793 N791 1.333 . S
C793 C794 1.379 . S
C793 H801 0.952 . S
C794 C793 1.379 . S
C794 C795 1.390 . S
C794 H814 0.949 . S
C795 C794 1.390 . S
C795 C796 1.357 . S
C796 C792 1.370 . S
C796 C795 1.357 . S
C796 H815 0.950 . S
Zn797 N791 2.020 . S
Zn797 O800 2.025 . S
Zn797 O805 2.024 . S
Zn797 O807 2.039 . S
Zn797 O809 2.034 . S
O798 C782 1.251 . S
O798 Zn789 2.039 . S
C799 O804 1.246 . S
C799 O805 1.249 . S
O800 C782 1.254 . S
O800 Zn797 2.025 . S
H801 C793 0.952 . S
H802 C784 0.952 . S
H803 C792 0.948 . S
O804 Zn789 2.034 . S
O804 C799 1.246 . S
O805 Zn797 2.024 . S
O805 C799 1.249 . S
H806 C788 0.948 . S
O807 Zn797 2.039 . S
O807 C811 1.251 . S
O808 Zn789 2.025 . S
O808 C811 1.254 . S
O809 C790 1.246 . S
O809 Zn797 2.034 . S
O810 Zn789 2.024 . S
O810 C790 1.249 . S
C811 O807 1.251 . S
C811 O808 1.254 . S
H812 C785 0.949 . S
H813 C787 0.950 . S
H814 C794 0.949 . S
H815 C796 0.950 . S
C816 O832 1.251 . S
C816 O834 1.254 . S
N817 C818 1.333 . S
N817 C822 1.307 . S
N817 Zn823 2.020 . S
C818 N817 1.333 . S
C818 C819 1.379 . S
C818 H836 0.952 . S
C819 C818 1.379 . S
C819 C820 1.390 . S
C819 H846 0.949 . S
C820 C819 1.390 . S
C820 C821 1.357 . S
C821 C820 1.357 . S
C821 C822 1.370 . S
C821 H847 0.950 . S
C822 N817 1.307 . S
C822 C821 1.370 . S
C822 H840 0.948 . S
Zn823 N817 2.020 . S
Zn823 O832 2.039 . S
Zn823 O838 2.034 . S
Zn823 O842 2.025 . S
Zn823 O844 2.024 . S
C824 O843 1.246 . S
C824 O844 1.249 . S
N825 C826 1.307 . S
N825 C827 1.333 . S
N825 Zn831 2.020 . S
C826 N825 1.307 . S
C826 C830 1.370 . S
C826 H837 0.948 . S
C827 N825 1.333 . S
C827 C828 1.379 . S
C827 H835 0.952 . S
C828 C827 1.379 . S
C828 C829 1.390 . S
C828 H848 0.949 . S
C829 C828 1.390 . S
C829 C830 1.357 . S
C830 C826 1.370 . S
C830 C829 1.357 . S
C830 H849 0.950 . S
Zn831 N825 2.020 . S
Zn831 O834 2.025 . S
Zn831 O839 2.024 . S
Zn831 O841 2.039 . S
Zn831 O843 2.034 . S
O832 C816 1.251 . S
O832 Zn823 2.039 . S
C833 O838 1.246 . S
C833 O839 1.249 . S
O834 C816 1.254 . S
O834 Zn831 2.025 . S
H835 C827 0.952 . S
H836 C818 0.952 . S
H837 C826 0.948 . S
O838 Zn823 2.034 . S
O838 C833 1.246 . S
O839 Zn831 2.024 . S
O839 C833 1.249 . S
H840 C822 0.948 . S
O841 Zn831 2.039 . S
O841 C845 1.251 . S
O842 Zn823 2.025 . S
O842 C845 1.254 . S
O843 C824 1.246 . S
O843 Zn831 2.034 . S
O844 Zn823 2.024 . S
O844 C824 1.249 . S
C845 O841 1.251 . S
C845 O842 1.254 . S
H846 C819 0.949 . S
H847 C821 0.950 . S
H848 C828 0.949 . S
H849 C830 0.950 . S
C850 O866 1.251 . S
C850 O868 1.254 . S
N851 C852 1.333 . S
N851 C856 1.307 . S
N851 Zn857 2.020 . S
C852 N851 1.333 . S
C852 C853 1.379 . S
C852 H870 0.952 . S
C853 C852 1.379 . S
C853 C854 1.390 . S
C853 H880 0.949 . S
C854 C853 1.390 . S
C854 C855 1.357 . S
C855 C854 1.357 . S
C855 C856 1.370 . S
C855 H881 0.950 . S
C856 N851 1.307 . S
C856 C855 1.370 . S
C856 H874 0.948 . S
Zn857 N851 2.020 . S
Zn857 O866 2.039 . S
Zn857 O872 2.034 . S
Zn857 O876 2.025 . S
Zn857 O878 2.024 . S
C858 O877 1.246 . S
C858 O878 1.249 . S
N859 C860 1.307 . S
N859 C861 1.333 . S
N859 Zn865 2.020 . S
C860 N859 1.307 . S
C860 C864 1.370 . S
C860 H871 0.948 . S
C861 N859 1.333 . S
C861 C862 1.379 . S
C861 H869 0.952 . S
C862 C861 1.379 . S
C862 C863 1.390 . S
C862 H882 0.949 . S
C863 C862 1.390 . S
C863 C864 1.357 . S
C864 C860 1.370 . S
C864 C863 1.357 . S
C864 H883 0.950 . S
Zn865 N859 2.020 . S
Zn865 O868 2.025 . S
Zn865 O873 2.024 . S
Zn865 O875 2.039 . S
Zn865 O877 2.034 . S
O866 C850 1.251 . S
O866 Zn857 2.039 . S
C867 O872 1.246 . S
C867 O873 1.249 . S
O868 C850 1.254 . S
O868 Zn865 2.025 . S
H869 C861 0.952 . S
H870 C852 0.952 . S
H871 C860 0.948 . S
O872 Zn857 2.034 . S
O872 C867 1.246 . S
O873 Zn865 2.024 . S
O873 C867 1.249 . S
H874 C856 0.948 . S
O875 Zn865 2.039 . S
O875 C879 1.251 . S
O876 Zn857 2.025 . S
O876 C879 1.254 . S
O877 C858 1.246 . S
O877 Zn865 2.034 . S
O878 Zn857 2.024 . S
O878 C858 1.249 . S
C879 O875 1.251 . S
C879 O876 1.254 . S
H880 C853 0.949 . S
H881 C855 0.950 . S
H882 C862 0.949 . S
H883 C864 0.950 . S
C884 O900 1.251 . S
C884 O902 1.254 . S
N885 C886 1.333 . S
N885 C890 1.307 . S
N885 Zn891 2.020 . S
C886 N885 1.333 . S
C886 C887 1.379 . S
C886 H904 0.952 . S
C887 C886 1.379 . S
C887 C888 1.390 . S
C887 H914 0.949 . S
C888 C887 1.390 . S
C888 C889 1.357 . S
C889 C888 1.357 . S
C889 C890 1.370 . S
C889 H915 0.950 . S
C890 N885 1.307 . S
C890 C889 1.370 . S
C890 H908 0.948 . S
Zn891 N885 2.020 . S
Zn891 O900 2.039 . S
Zn891 O906 2.034 . S
Zn891 O910 2.025 . S
Zn891 O912 2.024 . S
C892 O911 1.246 . S
C892 O912 1.249 . S
N893 C894 1.307 . S
N893 C895 1.333 . S
N893 Zn899 2.020 . S
C894 N893 1.307 . S
C894 C898 1.370 . S
C894 H905 0.948 . S
C895 N893 1.333 . S
C895 C896 1.379 . S
C895 H903 0.952 . S
C896 C895 1.379 . S
C896 C897 1.390 . S
C896 H916 0.949 . S
C897 C896 1.390 . S
C897 C898 1.357 . S
C898 C894 1.370 . S
C898 C897 1.357 . S
C898 H917 0.950 . S
Zn899 N893 2.020 . S
Zn899 O902 2.025 . S
Zn899 O907 2.024 . S
Zn899 O909 2.039 . S
Zn899 O911 2.034 . S
O900 C884 1.251 . S
O900 Zn891 2.039 . S
C901 O906 1.246 . S
C901 O907 1.249 . S
O902 C884 1.254 . S
O902 Zn899 2.025 . S
H903 C895 0.952 . S
H904 C886 0.952 . S
H905 C894 0.948 . S
O906 Zn891 2.034 . S
O906 C901 1.246 . S
O907 Zn899 2.024 . S
O907 C901 1.249 . S
H908 C890 0.948 . S
O909 Zn899 2.039 . S
O909 C913 1.251 . S
O910 Zn891 2.025 . S
O910 C913 1.254 . S
O911 C892 1.246 . S
O911 Zn899 2.034 . S
O912 Zn891 2.024 . S
O912 C892 1.249 . S
C913 O909 1.251 . S
C913 O910 1.254 . S
H914 C887 0.949 . S
H915 C889 0.950 . S
H916 C896 0.949 . S
H917 C898 0.950 . S
C918 O934 1.251 . S
C918 O936 1.254 . S
N919 C920 1.333 . S
N919 C924 1.307 . S
N919 Zn925 2.020 . S
C920 N919 1.333 . S
C920 C921 1.379 . S
C920 H938 0.952 . S
C921 C920 1.379 . S
C921 C922 1.390 . S
C921 H948 0.949 . S
C922 C921 1.390 . S
C922 C923 1.357 . S
C923 C922 1.357 . S
C923 C924 1.370 . S
C923 H949 0.950 . S
C924 N919 1.307 . S
C924 C923 1.370 . S
C924 H942 0.948 . S
Zn925 N919 2.020 . S
Zn925 O934 2.039 . S
Zn925 O940 2.034 . S
Zn925 O944 2.025 . S
Zn925 O946 2.024 . S
C926 O945 1.246 . S
C926 O946 1.249 . S
N927 C928 1.307 . S
N927 C929 1.333 . S
N927 Zn933 2.020 . S
C928 N927 1.307 . S
C928 C932 1.370 . S
C928 H939 0.948 . S
C929 N927 1.333 . S
C929 C930 1.379 . S
C929 H937 0.952 . S
C930 C929 1.379 . S
C930 C931 1.390 . S
C930 H950 0.949 . S
C931 C930 1.390 . S
C931 C932 1.357 . S
C932 C928 1.370 . S
C932 C931 1.357 . S
C932 H951 0.950 . S
Zn933 N927 2.020 . S
Zn933 O936 2.025 . S
Zn933 O941 2.024 . S
Zn933 O943 2.039 . S
Zn933 O945 2.034 . S
O934 C918 1.251 . S
O934 Zn925 2.039 . S
C935 O940 1.246 . S
C935 O941 1.249 . S
O936 C918 1.254 . S
O936 Zn933 2.025 . S
H937 C929 0.952 . S
H938 C920 0.952 . S
H939 C928 0.948 . S
O940 Zn925 2.034 . S
O940 C935 1.246 . S
O941 Zn933 2.024 . S
O941 C935 1.249 . S
H942 C924 0.948 . S
O943 Zn933 2.039 . S
O943 C947 1.251 . S
O944 Zn925 2.025 . S
O944 C947 1.254 . S
O945 C926 1.246 . S
O945 Zn933 2.034 . S
O946 Zn925 2.024 . S
O946 C926 1.249 . S
C947 O943 1.251 . S
C947 O944 1.254 . S
H948 C921 0.949 . S
H949 C923 0.950 . S
H950 C930 0.949 . S
H951 C932 0.950 . S
C952 O968 1.251 . S
C952 O970 1.254 . S
N953 C954 1.333 . S
N953 C958 1.307 . S
N953 Zn959 2.020 . S
C954 N953 1.333 . S
C954 C955 1.379 . S
C954 H972 0.952 . S
C955 C954 1.379 . S
C955 C956 1.390 . S
C955 H982 0.949 . S
C956 C955 1.390 . S
C956 C957 1.357 . S
C957 C956 1.357 . S
C957 C958 1.370 . S
C957 H983 0.950 . S
C958 N953 1.307 . S
C958 C957 1.370 . S
C958 H976 0.948 . S
Zn959 N953 2.020 . S
Zn959 O968 2.039 . S
Zn959 O974 2.034 . S
Zn959 O978 2.025 . S
Zn959 O980 2.024 . S
C960 O979 1.246 . S
C960 O980 1.249 . S
N961 C962 1.307 . S
N961 C963 1.333 . S
N961 Zn967 2.020 . S
C962 N961 1.307 . S
C962 C966 1.370 . S
C962 H973 0.948 . S
C963 N961 1.333 . S
C963 C964 1.379 . S
C963 H971 0.952 . S
C964 C963 1.379 . S
C964 C965 1.390 . S
C964 H984 0.949 . S
C965 C964 1.390 . S
C965 C966 1.357 . S
C966 C962 1.370 . S
C966 C965 1.357 . S
C966 H985 0.950 . S
Zn967 N961 2.020 . S
Zn967 O970 2.025 . S
Zn967 O975 2.024 . S
Zn967 O977 2.039 . S
Zn967 O979 2.034 . S
O968 C952 1.251 . S
O968 Zn959 2.039 . S
C969 O974 1.246 . S
C969 O975 1.249 . S
O970 C952 1.254 . S
O970 Zn967 2.025 . S
H971 C963 0.952 . S
H972 C954 0.952 . S
H973 C962 0.948 . S
O974 Zn959 2.034 . S
O974 C969 1.246 . S
O975 Zn967 2.024 . S
O975 C969 1.249 . S
H976 C958 0.948 . S
O977 Zn967 2.039 . S
O977 C981 1.251 . S
O978 Zn959 2.025 . S
O978 C981 1.254 . S
O979 C960 1.246 . S
O979 Zn967 2.034 . S
O980 Zn959 2.024 . S
O980 C960 1.249 . S
C981 O977 1.251 . S
C981 O978 1.254 . S
H982 C955 0.949 . S
H983 C957 0.950 . S
H984 C964 0.949 . S
H985 C966 0.950 . S
C986 O1002 1.251 . S
C986 O1004 1.254 . S
N987 C988 1.333 . S
N987 C992 1.307 . S
N987 Zn993 2.020 . S
C988 N987 1.333 . S
C988 C989 1.379 . S
C988 H1006 0.952 . S
C989 C988 1.379 . S
C989 C990 1.390 . S
C989 H1016 0.949 . S
C990 C989 1.390 . S
C990 C991 1.357 . S
C991 C990 1.357 . S
C991 C992 1.370 . S
C991 H1017 0.950 . S
C992 N987 1.307 . S
C992 C991 1.370 . S
C992 H1010 0.948 . S
Zn993 N987 2.020 . S
Zn993 O1002 2.039 . S
Zn993 O1008 2.034 . S
Zn993 O1012 2.025 . S
Zn993 O1014 2.024 . S
C994 O1013 1.246 . S
C994 O1014 1.249 . S
N995 C996 1.307 . S
N995 C997 1.333 . S
N995 Zn1001 2.020 . S
C996 N995 1.307 . S
C996 C1000 1.370 . S
C996 H1007 0.948 . S
C997 N995 1.333 . S
C997 C998 1.379 . S
C997 H1005 0.952 . S
C998 C997 1.379 . S
C998 C999 1.390 . S
C998 H1018 0.949 . S
C999 C998 1.390 . S
C999 C1000 1.357 . S
C1000 C996 1.370 . S
C1000 C999 1.357 . S
C1000 H1019 0.950 . S
Zn1001 N995 2.020 . S
Zn1001 O1004 2.025 . S
Zn1001 O1009 2.024 . S
Zn1001 O1011 2.039 . S
Zn1001 O1013 2.034 . S
O1002 C986 1.251 . S
O1002 Zn993 2.039 . S
C1003 O1008 1.246 . S
C1003 O1009 1.249 . S
O1004 C986 1.254 . S
O1004 Zn1001 2.025 . S
H1005 C997 0.952 . S
H1006 C988 0.952 . S
H1007 C996 0.948 . S
O1008 Zn993 2.034 . S
O1008 C1003 1.246 . S
O1009 Zn1001 2.024 . S
O1009 C1003 1.249 . S
H1010 C992 0.948 . S
O1011 Zn1001 2.039 . S
O1011 C1015 1.251 . S
O1012 Zn993 2.025 . S
O1012 C1015 1.254 . S
O1013 C994 1.246 . S
O1013 Zn1001 2.034 . S
O1014 Zn993 2.024 . S
O1014 C994 1.249 . S
C1015 O1011 1.251 . S
C1015 O1012 1.254 . S
H1016 C989 0.949 . S
H1017 C991 0.950 . S
H1018 C998 0.949 . S
H1019 C1000 0.950 . S
C1020 O1036 1.251 . S
C1020 O1038 1.254 . S
N1021 C1022 1.333 . S
N1021 C1026 1.307 . S
N1021 Zn1027 2.020 . S
C1022 N1021 1.333 . S
C1022 C1023 1.379 . S
C1022 H1040 0.952 . S
C1023 C1022 1.379 . S
C1023 C1024 1.390 . S
C1023 H1050 0.949 . S
C1024 C1023 1.390 . S
C1024 C1025 1.357 . S
C1025 C1024 1.357 . S
C1025 C1026 1.370 . S
C1025 H1051 0.950 . S
C1026 N1021 1.307 . S
C1026 C1025 1.370 . S
C1026 H1044 0.948 . S
Zn1027 N1021 2.020 . S
Zn1027 O1036 2.039 . S
Zn1027 O1042 2.034 . S
Zn1027 O1046 2.025 . S
Zn1027 O1048 2.024 . S
C1028 O1047 1.246 . S
C1028 O1048 1.249 . S
N1029 C1030 1.307 . S
N1029 C1031 1.333 . S
N1029 Zn1035 2.020 . S
C1030 N1029 1.307 . S
C1030 C1034 1.370 . S
C1030 H1041 0.948 . S
C1031 N1029 1.333 . S
C1031 C1032 1.379 . S
C1031 H1039 0.952 . S
C1032 C1031 1.379 . S
C1032 C1033 1.390 . S
C1032 H1052 0.949 . S
C1033 C1032 1.390 . S
C1033 C1034 1.357 . S
C1034 C1030 1.370 . S
C1034 C1033 1.357 . S
C1034 H1053 0.950 . S
Zn1035 N1029 2.020 . S
Zn1035 O1038 2.025 . S
Zn1035 O1043 2.024 . S
Zn1035 O1045 2.039 . S
Zn1035 O1047 2.034 . S
O1036 C1020 1.251 . S
O1036 Zn1027 2.039 . S
C1037 O1042 1.246 . S
C1037 O1043 1.249 . S
O1038 C1020 1.254 . S
O1038 Zn1035 2.025 . S
H1039 C1031 0.952 . S
H1040 C1022 0.952 . S
H1041 C1030 0.948 . S
O1042 Zn1027 2.034 . S
O1042 C1037 1.246 . S
O1043 Zn1035 2.024 . S
O1043 C1037 1.249 . S
H1044 C1026 0.948 . S
O1045 Zn1035 2.039 . S
O1045 C1049 1.251 . S
O1046 Zn1027 2.025 . S
O1046 C1049 1.254 . S
O1047 C1028 1.246 . S
O1047 Zn1035 2.034 . S
O1048 Zn1027 2.024 . S
O1048 C1028 1.249 . S
C1049 O1045 1.251 . S
C1049 O1046 1.254 . S
H1050 C1023 0.949 . S
H1051 C1025 0.950 . S
H1052 C1032 0.949 . S
H1053 C1034 0.950 . S
C1054 O1070 1.251 . S
C1054 O1072 1.254 . S
N1055 C1056 1.333 . S
N1055 C1060 1.307 . S
N1055 Zn1061 2.020 . S
C1056 N1055 1.333 . S
C1056 C1057 1.379 . S
C1056 H1074 0.952 . S
C1057 C1056 1.379 . S
C1057 C1058 1.390 . S
C1057 H1084 0.949 . S
C1058 C1057 1.390 . S
C1058 C1059 1.357 . S
C1059 C1058 1.357 . S
C1059 C1060 1.370 . S
C1059 H1085 0.950 . S
C1060 N1055 1.307 . S
C1060 C1059 1.370 . S
C1060 H1078 0.948 . S
Zn1061 N1055 2.020 . S
Zn1061 O1070 2.039 . S
Zn1061 O1076 2.034 . S
Zn1061 O1080 2.025 . S
Zn1061 O1082 2.024 . S
C1062 O1081 1.246 . S
C1062 O1082 1.249 . S
N1063 C1064 1.307 . S
N1063 C1065 1.333 . S
N1063 Zn1069 2.020 . S
C1064 N1063 1.307 . S
C1064 C1068 1.370 . S
C1064 H1075 0.948 . S
C1065 N1063 1.333 . S
C1065 C1066 1.379 . S
C1065 H1073 0.952 . S
C1066 C1065 1.379 . S
C1066 C1067 1.390 . S
C1066 H1086 0.949 . S
C1067 C1066 1.390 . S
C1067 C1068 1.357 . S
C1068 C1064 1.370 . S
C1068 C1067 1.357 . S
C1068 H1087 0.950 . S
Zn1069 N1063 2.020 . S
Zn1069 O1072 2.025 . S
Zn1069 O1077 2.024 . S
Zn1069 O1079 2.039 . S
Zn1069 O1081 2.034 . S
O1070 C1054 1.251 . S
O1070 Zn1061 2.039 . S
C1071 O1076 1.246 . S
C1071 O1077 1.249 . S
O1072 C1054 1.254 . S
O1072 Zn1069 2.025 . S
H1073 C1065 0.952 . S
H1074 C1056 0.952 . S
H1075 C1064 0.948 . S
O1076 Zn1061 2.034 . S
O1076 C1071 1.246 . S
O1077 Zn1069 2.024 . S
O1077 C1071 1.249 . S
H1078 C1060 0.948 . S
O1079 Zn1069 2.039 . S
O1079 C1083 1.251 . S
O1080 Zn1061 2.025 . S
O1080 C1083 1.254 . S
O1081 C1062 1.246 . S
O1081 Zn1069 2.034 . S
O1082 Zn1061 2.024 . S
O1082 C1062 1.249 . S
C1083 O1079 1.251 . S
C1083 O1080 1.254 . S
H1084 C1057 0.949 . S
H1085 C1059 0.950 . S
H1086 C1066 0.949 . S
H1087 C1068 0.950 . S
C1088 O1104 1.251 . S
C1088 O1106 1.254 . S
N1089 C1090 1.333 . S
N1089 C1094 1.307 . S
N1089 Zn1095 2.020 . S
C1090 N1089 1.333 . S
C1090 C1091 1.379 . S
C1090 H1108 0.952 . S
C1091 C1090 1.379 . S
C1091 C1092 1.390 . S
C1091 H1118 0.949 . S
C1092 C1091 1.390 . S
C1092 C1093 1.357 . S
C1093 C1092 1.357 . S
C1093 C1094 1.370 . S
C1093 H1119 0.950 . S
C1094 N1089 1.307 . S
C1094 C1093 1.370 . S
C1094 H1112 0.948 . S
Zn1095 N1089 2.020 . S
Zn1095 O1104 2.039 . S
Zn1095 O1110 2.034 . S
Zn1095 O1114 2.025 . S
Zn1095 O1116 2.024 . S
C1096 O1115 1.246 . S
C1096 O1116 1.249 . S
N1097 C1098 1.307 . S
N1097 C1099 1.333 . S
N1097 Zn1103 2.020 . S
C1098 N1097 1.307 . S
C1098 C1102 1.370 . S
C1098 H1109 0.948 . S
C1099 N1097 1.333 . S
C1099 C1100 1.379 . S
C1099 H1107 0.952 . S
C1100 C1099 1.379 . S
C1100 C1101 1.390 . S
C1100 H1120 0.949 . S
C1101 C1100 1.390 . S
C1101 C1102 1.357 . S
C1102 C1098 1.370 . S
C1102 C1101 1.357 . S
C1102 H1121 0.950 . S
Zn1103 N1097 2.020 . S
Zn1103 O1106 2.025 . S
Zn1103 O1111 2.024 . S
Zn1103 O1113 2.039 . S
Zn1103 O1115 2.034 . S
O1104 C1088 1.251 . S
O1104 Zn1095 2.039 . S
C1105 O1110 1.246 . S
C1105 O1111 1.249 . S
O1106 C1088 1.254 . S
O1106 Zn1103 2.025 . S
H1107 C1099 0.952 . S
H1108 C1090 0.952 . S
H1109 C1098 0.948 . S
O1110 Zn1095 2.034 . S
O1110 C1105 1.246 . S
O1111 Zn1103 2.024 . S
O1111 C1105 1.249 . S
H1112 C1094 0.948 . S
O1113 Zn1103 2.039 . S
O1113 C1117 1.251 . S
O1114 Zn1095 2.025 . S
O1114 C1117 1.254 . S
O1115 C1096 1.246 . S
O1115 Zn1103 2.034 . S
O1116 Zn1095 2.024 . S
O1116 C1096 1.249 . S
C1117 O1113 1.251 . S
C1117 O1114 1.254 . S
H1118 C1091 0.949 . S
H1119 C1093 0.950 . S
H1120 C1100 0.949 . S
H1121 C1102 0.950 . S
C1122 O1138 1.251 . S
C1122 O1140 1.254 . S
N1123 C1124 1.333 . S
N1123 C1128 1.307 . S
N1123 Zn1129 2.020 . S
C1124 N1123 1.333 . S
C1124 C1125 1.379 . S
C1124 H1142 0.952 . S
C1125 C1124 1.379 . S
C1125 C1126 1.390 . S
C1125 H1152 0.949 . S
C1126 C1125 1.390 . S
C1126 C1127 1.357 . S
C1127 C1126 1.357 . S
C1127 C1128 1.370 . S
C1127 H1153 0.950 . S
C1128 N1123 1.307 . S
C1128 C1127 1.370 . S
C1128 H1146 0.948 . S
Zn1129 N1123 2.020 . S
Zn1129 O1138 2.039 . S
Zn1129 O1144 2.034 . S
Zn1129 O1148 2.025 . S
Zn1129 O1150 2.024 . S
C1130 O1149 1.246 . S
C1130 O1150 1.249 . S
N1131 C1132 1.307 . S
N1131 C1133 1.333 . S
N1131 Zn1137 2.020 . S
C1132 N1131 1.307 . S
C1132 C1136 1.370 . S
C1132 H1143 0.948 . S
C1133 N1131 1.333 . S
C1133 C1134 1.379 . S
C1133 H1141 0.952 . S
C1134 C1133 1.379 . S
C1134 C1135 1.390 . S
C1134 H1154 0.949 . S
C1135 C1134 1.390 . S
C1135 C1136 1.357 . S
C1136 C1132 1.370 . S
C1136 C1135 1.357 . S
C1136 H1155 0.950 . S
Zn1137 N1131 2.020 . S
Zn1137 O1140 2.025 . S
Zn1137 O1145 2.024 . S
Zn1137 O1147 2.039 . S
Zn1137 O1149 2.034 . S
O1138 C1122 1.251 . S
O1138 Zn1129 2.039 . S
C1139 O1144 1.246 . S
C1139 O1145 1.249 . S
O1140 C1122 1.254 . S
O1140 Zn1137 2.025 . S
H1141 C1133 0.952 . S
H1142 C1124 0.952 . S
H1143 C1132 0.948 . S
O1144 Zn1129 2.034 . S
O1144 C1139 1.246 . S
O1145 Zn1137 2.024 . S
O1145 C1139 1.249 . S
H1146 C1128 0.948 . S
O1147 Zn1137 2.039 . S
O1147 C1151 1.251 . S
O1148 Zn1129 2.025 . S
O1148 C1151 1.254 . S
O1149 C1130 1.246 . S
O1149 Zn1137 2.034 . S
O1150 Zn1129 2.024 . S
O1150 C1130 1.249 . S
C1151 O1147 1.251 . S
C1151 O1148 1.254 . S
H1152 C1125 0.949 . S
H1153 C1127 0.950 . S
H1154 C1134 0.949 . S
H1155 C1136 0.950 . S
C1156 O1172 1.251 . S
C1156 O1174 1.254 . S
N1157 C1158 1.333 . S
N1157 C1162 1.307 . S
N1157 Zn1163 2.020 . S
C1158 N1157 1.333 . S
C1158 C1159 1.379 . S
C1158 H1176 0.952 . S
C1159 C1158 1.379 . S
C1159 C1160 1.390 . S
C1159 H1186 0.949 . S
C1160 C1159 1.390 . S
C1160 C1161 1.357 . S
C1161 C1160 1.357 . S
C1161 C1162 1.370 . S
C1161 H1187 0.950 . S
C1162 N1157 1.307 . S
C1162 C1161 1.370 . S
C1162 H1180 0.948 . S
Zn1163 N1157 2.020 . S
Zn1163 O1172 2.039 . S
Zn1163 O1178 2.034 . S
Zn1163 O1182 2.025 . S
Zn1163 O1184 2.024 . S
C1164 O1183 1.246 . S
C1164 O1184 1.249 . S
N1165 C1166 1.307 . S
N1165 C1167 1.333 . S
N1165 Zn1171 2.020 . S
C1166 N1165 1.307 . S
C1166 C1170 1.370 . S
C1166 H1177 0.948 . S
C1167 N1165 1.333 . S
C1167 C1168 1.379 . S
C1167 H1175 0.952 . S
C1168 C1167 1.379 . S
C1168 C1169 1.390 . S
C1168 H1188 0.949 . S
C1169 C1168 1.390 . S
C1169 C1170 1.357 . S
C1170 C1166 1.370 . S
C1170 C1169 1.357 . S
C1170 H1189 0.950 . S
Zn1171 N1165 2.020 . S
Zn1171 O1174 2.025 . S
Zn1171 O1179 2.024 . S
Zn1171 O1181 2.039 . S
Zn1171 O1183 2.034 . S
O1172 C1156 1.251 . S
O1172 Zn1163 2.039 . S
C1173 O1178 1.246 . S
C1173 O1179 1.249 . S
O1174 C1156 1.254 . S
O1174 Zn1171 2.025 . S
H1175 C1167 0.952 . S
H1176 C1158 0.952 . S
H1177 C1166 0.948 . S
O1178 Zn1163 2.034 . S
O1178 C1173 1.246 . S
O1179 Zn1171 2.024 . S
O1179 C1173 1.249 . S
H1180 C1162 0.948 . S
O1181 Zn1171 2.039 . S
O1181 C1185 1.251 . S
O1182 Zn1163 2.025 . S
O1182 C1185 1.254 . S
O1183 C1164 1.246 . S
O1183 Zn1171 2.034 . S
O1184 Zn1163 2.024 . S
O1184 C1164 1.249 . S
C1185 O1181 1.251 . S
C1185 O1182 1.254 . S
H1186 C1159 0.949 . S
H1187 C1161 0.950 . S
H1188 C1168 0.949 . S
H1189 C1170 0.950 . S
C1190 O1206 1.251 . S
C1190 O1208 1.254 . S
N1191 C1192 1.333 . S
N1191 C1196 1.307 . S
N1191 Zn1197 2.020 . S
C1192 N1191 1.333 . S
C1192 C1193 1.379 . S
C1192 H1210 0.952 . S
C1193 C1192 1.379 . S
C1193 C1194 1.390 . S
C1193 H1220 0.949 . S
C1194 C1193 1.390 . S
C1194 C1195 1.357 . S
C1195 C1194 1.357 . S
C1195 C1196 1.370 . S
C1195 H1221 0.950 . S
C1196 N1191 1.307 . S
C1196 C1195 1.370 . S
C1196 H1214 0.948 . S
Zn1197 N1191 2.020 . S
Zn1197 O1206 2.039 . S
Zn1197 O1212 2.034 . S
Zn1197 O1216 2.025 . S
Zn1197 O1218 2.024 . S
C1198 O1217 1.246 . S
C1198 O1218 1.249 . S
N1199 C1200 1.307 . S
N1199 C1201 1.333 . S
N1199 Zn1205 2.020 . S
C1200 N1199 1.307 . S
C1200 C1204 1.370 . S
C1200 H1211 0.948 . S
C1201 N1199 1.333 . S
C1201 C1202 1.379 . S
C1201 H1209 0.952 . S
C1202 C1201 1.379 . S
C1202 C1203 1.390 . S
C1202 H1222 0.949 . S
C1203 C1202 1.390 . S
C1203 C1204 1.357 . S
C1204 C1200 1.370 . S
C1204 C1203 1.357 . S
C1204 H1223 0.950 . S
Zn1205 N1199 2.020 . S
Zn1205 O1208 2.025 . S
Zn1205 O1213 2.024 . S
Zn1205 O1215 2.039 . S
Zn1205 O1217 2.034 . S
O1206 C1190 1.251 . S
O1206 Zn1197 2.039 . S
C1207 O1212 1.246 . S
C1207 O1213 1.249 . S
O1208 C1190 1.254 . S
O1208 Zn1205 2.025 . S
H1209 C1201 0.952 . S
H1210 C1192 0.952 . S
H1211 C1200 0.948 . S
O1212 Zn1197 2.034 . S
O1212 C1207 1.246 . S
O1213 Zn1205 2.024 . S
O1213 C1207 1.249 . S
H1214 C1196 0.948 . S
O1215 Zn1205 2.039 . S
O1215 C1219 1.251 . S
O1216 Zn1197 2.025 . S
O1216 C1219 1.254 . S
O1217 C1198 1.246 . S
O1217 Zn1205 2.034 . S
O1218 Zn1197 2.024 . S
O1218 C1198 1.249 . S
C1219 O1215 1.251 . S
C1219 O1216 1.254 . S
H1220 C1193 0.949 . S
H1221 C1195 0.950 . S
H1222 C1202 0.949 . S
H1223 C1204 0.950 . S
H1224 C1232 0.929 . S
H1225 C1234 0.930 . S
H1226 C1236 0.930 . S
H1227 C1239 0.929 . S
H1228 C1242 0.930 . S
H1229 C1244 0.960 . S
H1230 C1244 0.960 . S
H1231 C1244 0.960 . S
C1232 H1224 0.929 . S
C1232 C1233 1.377 . S
C1232 C1234 1.384 . S
C1233 C1232 1.377 . S
C1233 C1239 1.390 . S
C1234 H1225 0.930 . S
C1234 C1232 1.384 . S
C1234 C1235 1.372 . S
C1235 C1234 1.372 . S
C1235 C1236 1.400 . S
C1235 C1240 1.490 . S
C1236 H1226 0.930 . S
C1236 C1235 1.400 . S
C1236 C1239 1.386 . S
H1237 C1253 0.930 . S
H1238 C1254 0.931 . S
C1239 H1227 0.929 . S
C1239 C1233 1.390 . S
C1239 C1236 1.386 . S
C1240 C1235 1.490 . S
C1240 C1242 1.395 . S
C1240 C1243 1.403 . S
H1241 C1247 0.930 . S
C1242 H1228 0.930 . S
C1242 C1240 1.395 . S
C1242 C1245 1.403 . S
C1243 C1240 1.403 . S
C1243 C1244 1.524 . S
C1243 C1247 1.400 . S
C1244 H1229 0.960 . S
C1244 H1230 0.960 . S
C1244 H1231 0.960 . S
C1244 C1243 1.524 . S
C1245 C1242 1.403 . S
C1245 C1246 1.392 . S
C1245 C1249 1.495 . S
C1246 C1245 1.392 . S
C1246 C1247 1.385 . S
C1246 C1248 1.478 . S
C1247 H1241 0.930 . S
C1247 C1243 1.400 . S
C1247 C1246 1.385 . S
C1248 C1246 1.478 . S
C1248 C1250 1.381 1_556 S
C1248 C1254 1.383 . S
C1249 C1245 1.495 . S
C1249 H1255 0.959 . S
C1249 H1256 0.961 . S
C1249 H1257 0.960 1_556 S
C1250 C1248 1.381 1_554 S
C1250 C1251 1.394 . S
C1250 H1258 0.930 . S
C1251 C1250 1.394 . S
C1251 C1252 1.383 . S
C1251 H1259 0.929 . S
C1252 C1251 1.383 . S
C1252 C1253 1.377 1_554 S
C1253 H1237 0.930 . S
C1253 C1252 1.377 1_556 S
C1253 C1254 1.379 . S
C1254 H1238 0.931 . S
C1254 C1248 1.383 . S
C1254 C1253 1.379 . S
H1255 C1249 0.959 . S
H1256 C1249 0.961 . S
H1257 C1249 0.960 1_554 S
H1258 C1250 0.930 . S
H1259 C1251 0.929 . S
H1260 C1268 0.929 . S
H1261 C1270 0.930 . S
H1262 C1272 0.930 . S
H1263 C1275 0.929 . S
H1264 C1278 0.930 1_554 S
H1265 C1280 0.960 . S
H1266 C1280 0.960 . S
H1267 C1280 0.960 . S
C1268 H1260 0.929 . S
C1268 C1269 1.377 . S
C1268 C1270 1.384 . S
C1269 C1268 1.377 . S
C1269 C1275 1.390 . S
C1270 H1261 0.930 . S
C1270 C1268 1.384 . S
C1270 C1271 1.372 . S
C1271 C1270 1.372 . S
C1271 C1272 1.400 . S
C1271 C1276 1.490 . S
C1272 H1262 0.930 . S
C1272 C1271 1.400 . S
C1272 C1275 1.386 . S
H1273 C1289 0.930 . S
H1274 C1290 0.931 . S
C1275 H1263 0.929 . S
C1275 C1269 1.390 . S
C1275 C1272 1.386 . S
C1276 C1271 1.490 . S
C1276 C1278 1.395 . S
C1276 C1279 1.403 . S
H1277 C1283 0.930 . S
C1278 H1264 0.930 1_556 S
C1278 C1276 1.395 . S
C1278 C1281 1.403 1_556 S
C1279 C1276 1.403 . S
C1279 C1280 1.524 . S
C1279 C1283 1.400 . S
C1280 H1265 0.960 . S
C1280 H1266 0.960 . S
C1280 H1267 0.960 . S
C1280 C1279 1.524 . S
C1281 C1278 1.403 1_554 S
C1281 C1282 1.392 1_554 S
C1281 C1285 1.495 . S
C1282 C1281 1.392 1_556 S
C1282 C1283 1.385 . S
C1282 C1284 1.478 . S
C1283 H1277 0.930 . S
C1283 C1279 1.400 . S
C1283 C1282 1.385 . S
C1284 C1282 1.478 . S
C1284 C1286 1.381 1_556 S
C1284 C1290 1.383 . S
C1285 C1281 1.495 . S
C1285 H1291 0.959 . S
C1285 H1292 0.961 . S
C1285 H1293 0.960 . S
C1286 C1284 1.381 1_554 S
C1286 C1287 1.394 . S
C1286 H1294 0.930 . S
C1287 C1286 1.394 . S
C1287 C1288 1.383 . S
C1287 H1295 0.929 . S
C1288 C1287 1.383 . S
C1288 C1289 1.377 . S
C1289 H1273 0.930 . S
C1289 C1288 1.377 . S
C1289 C1290 1.379 1_554 S
C1290 H1274 0.931 . S
C1290 C1284 1.383 . S
C1290 C1289 1.379 1_556 S
H1291 C1285 0.959 . S
H1292 C1285 0.961 . S
H1293 C1285 0.960 . S
H1294 C1286 0.930 . S
H1295 C1287 0.929 . S
H1296 C1304 0.929 . S
H1297 C1306 0.930 . S
H1298 C1308 0.930 . S
H1299 C1311 0.929 . S
H1300 C1314 0.930 . S
H1301 C1316 0.960 . S
H1302 C1316 0.960 . S
H1303 C1316 0.960 . S
C1304 H1296 0.929 . S
C1304 C1305 1.377 . S
C1304 C1306 1.384 . S
C1305 C1304 1.377 . S
C1305 C1311 1.390 1_554 S
C1306 H1297 0.930 . S
C1306 C1304 1.384 . S
C1306 C1307 1.372 1_554 S
C1307 C1306 1.372 1_556 S
C1307 C1308 1.400 . S
C1307 C1312 1.490 . S
C1308 H1298 0.930 . S
C1308 C1307 1.400 . S
C1308 C1311 1.386 . S
H1309 C1325 0.930 . S
H1310 C1326 0.931 . S
C1311 H1299 0.929 . S
C1311 C1305 1.390 1_556 S
C1311 C1308 1.386 . S
C1312 C1307 1.490 . S
C1312 C1314 1.395 . S
C1312 C1315 1.403 . S
H1313 C1319 0.930 . S
C1314 H1300 0.930 . S
C1314 C1312 1.395 . S
C1314 C1317 1.403 . S
C1315 C1312 1.403 . S
C1315 C1316 1.524 1_556 S
C1315 C1319 1.400 . S
C1316 H1301 0.960 . S
C1316 H1302 0.960 . S
C1316 H1303 0.960 . S
C1316 C1315 1.524 1_554 S
C1317 C1314 1.403 . S
C1317 C1318 1.392 . S
C1317 C1321 1.495 . S
C1318 C1317 1.392 . S
C1318 C1319 1.385 . S
C1318 C1320 1.478 . S
C1319 H1313 0.930 . S
C1319 C1315 1.400 . S
C1319 C1318 1.385 . S
C1320 C1318 1.478 . S
C1320 C1322 1.381 . S
C1320 C1326 1.383 . S
C1321 C1317 1.495 . S
C1321 H1327 0.959 . S
C1321 H1328 0.961 . S
C1321 H1329 0.960 . S
C1322 C1320 1.381 . S
C1322 C1323 1.394 . S
C1322 H1330 0.930 . S
C1323 C1322 1.394 . S
C1323 C1324 1.383 . S
C1323 H1331 0.929 . S
C1324 C1323 1.383 . S
C1324 C1325 1.377 . S
C1325 H1309 0.930 . S
C1325 C1324 1.377 . S
C1325 C1326 1.379 . S
C1326 H1310 0.931 . S
C1326 C1320 1.383 . S
C1326 C1325 1.379 . S
H1327 C1321 0.959 . S
H1328 C1321 0.961 . S
H1329 C1321 0.960 . S
H1330 C1322 0.930 . S
H1331 C1323 0.929 . S
H1332 C1340 0.929 . S
H1333 C1342 0.930 . S
H1334 C1344 0.930 . S
H1335 C1347 0.929 . S
H1336 C1350 0.930 . S
H1337 C1352 0.960 . S
H1338 C1352 0.960 . S
H1339 C1352 0.960 . S
C1340 H1332 0.929 . S
C1340 C1341 1.377 . S
C1340 C1342 1.384 . S
C1341 C1340 1.377 . S
C1341 C1347 1.390 . S
C1342 H1333 0.930 . S
C1342 C1340 1.384 . S
C1342 C1343 1.372 . S
C1343 C1342 1.372 . S
C1343 C1344 1.400 . S
C1343 C1348 1.490 . S
C1344 H1334 0.930 . S
C1344 C1343 1.400 . S
C1344 C1347 1.386 . S
H1345 C1361 0.930 . S
H1346 C1362 0.931 . S
C1347 H1335 0.929 . S
C1347 C1341 1.390 . S
C1347 C1344 1.386 . S
C1348 C1343 1.490 . S
C1348 C1350 1.395 . S
C1348 C1351 1.403 . S
H1349 C1355 0.930 . S
C1350 H1336 0.930 . S
C1350 C1348 1.395 . S
C1350 C1353 1.403 . S
C1351 C1348 1.403 . S
C1351 C1352 1.524 . S
C1351 C1355 1.400 . S
C1352 H1337 0.960 . S
C1352 H1338 0.960 . S
C1352 H1339 0.960 . S
C1352 C1351 1.524 . S
C1353 C1350 1.403 . S
C1353 C1354 1.392 . S
C1353 C1357 1.495 . S
C1354 C1353 1.392 . S
C1354 C1355 1.385 . S
C1354 C1356 1.478 . S
C1355 H1349 0.930 . S
C1355 C1351 1.400 . S
C1355 C1354 1.385 . S
C1356 C1354 1.478 . S
C1356 C1358 1.381 . S
C1356 C1362 1.383 . S
C1357 C1353 1.495 . S
C1357 H1363 0.959 . S
C1357 H1364 0.961 . S
C1357 H1365 0.960 . S
C1358 C1356 1.381 . S
C1358 C1359 1.394 . S
C1358 H1366 0.930 . S
C1359 C1358 1.394 . S
C1359 C1360 1.383 . S
C1359 H1367 0.929 . S
C1360 C1359 1.383 . S
C1360 C1361 1.377 . S
C1361 H1345 0.930 . S
C1361 C1360 1.377 . S
C1361 C1362 1.379 . S
C1362 H1346 0.931 . S
C1362 C1356 1.383 . S
C1362 C1361 1.379 . S
H1363 C1357 0.959 . S
H1364 C1357 0.961 . S
H1365 C1357 0.960 . S
H1366 C1358 0.930 . S
H1367 C1359 0.929 . S
H1368 C1376 0.929 . S
H1369 C1378 0.930 . S
H1370 C1380 0.930 . S
H1371 C1383 0.929 . S
H1372 C1386 0.930 . S
H1373 C1388 0.960 . S
H1374 C1388 0.960 . S
H1375 C1388 0.960 . S
C1376 H1368 0.929 . S
C1376 C1377 1.377 . S
C1376 C1378 1.384 . S
C1377 C1376 1.377 . S
C1377 C1383 1.390 . S
C1378 H1369 0.930 . S
C1378 C1376 1.384 . S
C1378 C1379 1.372 . S
C1379 C1378 1.372 . S
C1379 C1380 1.400 . S
C1379 C1384 1.490 . S
C1380 H1370 0.930 . S
C1380 C1379 1.400 . S
C1380 C1383 1.386 . S
H1381 C1397 0.930 . S
H1382 C1398 0.931 . S
C1383 H1371 0.929 . S
C1383 C1377 1.390 . S
C1383 C1380 1.386 . S
C1384 C1379 1.490 . S
C1384 C1386 1.395 . S
C1384 C1387 1.403 . S
H1385 C1391 0.930 . S
C1386 H1372 0.930 . S
C1386 C1384 1.395 . S
C1386 C1389 1.403 . S
C1387 C1384 1.403 . S
C1387 C1388 1.524 . S
C1387 C1391 1.400 . S
C1388 H1373 0.960 . S
C1388 H1374 0.960 . S
C1388 H1375 0.960 . S
C1388 C1387 1.524 . S
C1389 C1386 1.403 . S
C1389 C1390 1.392 . S
C1389 C1393 1.495 . S
C1390 C1389 1.392 . S
C1390 C1391 1.385 . S
C1390 C1392 1.478 . S
C1391 H1385 0.930 . S
C1391 C1387 1.400 . S
C1391 C1390 1.385 . S
C1392 C1390 1.478 . S
C1392 C1394 1.381 . S
C1392 C1398 1.383 . S
C1393 C1389 1.495 . S
C1393 H1399 0.959 . S
C1393 H1400 0.961 . S
C1393 H1401 0.960 . S
C1394 C1392 1.381 . S
C1394 C1395 1.394 . S
C1394 H1402 0.930 . S
C1395 C1394 1.394 . S
C1395 C1396 1.383 . S
C1395 H1403 0.929 . S
C1396 C1395 1.383 . S
C1396 C1397 1.377 . S
C1397 H1381 0.930 . S
C1397 C1396 1.377 . S
C1397 C1398 1.379 . S
C1398 H1382 0.931 . S
C1398 C1392 1.383 . S
C1398 C1397 1.379 . S
H1399 C1393 0.959 . S
H1400 C1393 0.961 . S
H1401 C1393 0.960 . S
H1402 C1394 0.930 . S
H1403 C1395 0.929 . S
H1404 C1412 0.929 . S
H1405 C1414 0.930 . S
H1406 C1416 0.930 . S
H1407 C1419 0.929 . S
H1408 C1422 0.930 . S
H1409 C1424 0.960 . S
H1410 C1424 0.960 . S
H1411 C1424 0.960 . S
C1412 H1404 0.929 . S
C1412 C1413 1.377 . S
C1412 C1414 1.384 . S
C1413 C1412 1.377 . S
C1413 C1419 1.390 . S
C1414 H1405 0.930 . S
C1414 C1412 1.384 . S
C1414 C1415 1.372 . S
C1415 C1414 1.372 . S
C1415 C1416 1.400 . S
C1415 C1420 1.490 . S
C1416 H1406 0.930 . S
C1416 C1415 1.400 . S
C1416 C1419 1.386 . S
H1417 C1433 0.930 . S
H1418 C1434 0.931 . S
C1419 H1407 0.929 . S
C1419 C1413 1.390 . S
C1419 C1416 1.386 . S
C1420 C1415 1.490 . S
C1420 C1422 1.395 . S
C1420 C1423 1.403 . S
H1421 C1427 0.930 . S
C1422 H1408 0.930 . S
C1422 C1420 1.395 . S
C1422 C1425 1.403 . S
C1423 C1420 1.403 . S
C1423 C1424 1.524 . S
C1423 C1427 1.400 . S
C1424 H1409 0.960 . S
C1424 H1410 0.960 . S
C1424 H1411 0.960 . S
C1424 C1423 1.524 . S
C1425 C1422 1.403 . S
C1425 C1426 1.392 . S
C1425 C1429 1.495 . S
C1426 C1425 1.392 . S
C1426 C1427 1.385 . S
C1426 C1428 1.478 . S
C1427 H1421 0.930 . S
C1427 C1423 1.400 . S
C1427 C1426 1.385 . S
C1428 C1426 1.478 . S
C1428 C1430 1.381 . S
C1428 C1434 1.383 . S
C1429 C1425 1.495 . S
C1429 H1435 0.959 . S
C1429 H1436 0.961 . S
C1429 H1437 0.960 . S
C1430 C1428 1.381 . S
C1430 C1431 1.394 . S
C1430 H1438 0.930 . S
C1431 C1430 1.394 . S
C1431 C1432 1.383 . S
C1431 H1439 0.929 . S
C1432 C1431 1.383 . S
C1432 C1433 1.377 . S
C1433 H1417 0.930 . S
C1433 C1432 1.377 . S
C1433 C1434 1.379 . S
C1434 H1418 0.931 . S
C1434 C1428 1.383 . S
C1434 C1433 1.379 . S
H1435 C1429 0.959 . S
H1436 C1429 0.961 . S
H1437 C1429 0.960 . S
H1438 C1430 0.930 . S
H1439 C1431 0.929 . S
H1440 C1448 0.929 . S
H1441 C1450 0.930 . S
H1442 C1452 0.930 . S
H1443 C1455 0.929 . S
H1444 C1458 0.930 . S
H1445 C1460 0.960 . S
H1446 C1460 0.960 . S
H1447 C1460 0.960 . S
C1448 H1440 0.929 . S
C1448 C1449 1.377 . S
C1448 C1450 1.384 . S
C1449 C1448 1.377 . S
C1449 C1455 1.390 . S
C1450 H1441 0.930 . S
C1450 C1448 1.384 . S
C1450 C1451 1.372 . S
C1451 C1450 1.372 . S
C1451 C1452 1.400 . S
C1451 C1456 1.490 . S
C1452 H1442 0.930 . S
C1452 C1451 1.400 . S
C1452 C1455 1.386 . S
H1453 C1469 0.930 . S
H1454 C1470 0.931 . S
C1455 H1443 0.929 . S
C1455 C1449 1.390 . S
C1455 C1452 1.386 . S
C1456 C1451 1.490 . S
C1456 C1458 1.395 . S
C1456 C1459 1.403 . S
H1457 C1463 0.930 . S
C1458 H1444 0.930 . S
C1458 C1456 1.395 . S
C1458 C1461 1.403 . S
C1459 C1456 1.403 . S
C1459 C1460 1.524 . S
C1459 C1463 1.400 . S
C1460 H1445 0.960 . S
C1460 H1446 0.960 . S
C1460 H1447 0.960 . S
C1460 C1459 1.524 . S
C1461 C1458 1.403 . S
C1461 C1462 1.392 . S
C1461 C1465 1.495 . S
C1462 C1461 1.392 . S
C1462 C1463 1.385 . S
C1462 C1464 1.478 . S
C1463 H1457 0.930 . S
C1463 C1459 1.400 . S
C1463 C1462 1.385 . S
C1464 C1462 1.478 . S
C1464 C1466 1.381 . S
C1464 C1470 1.383 . S
C1465 C1461 1.495 . S
C1465 H1471 0.959 . S
C1465 H1472 0.961 . S
C1465 H1473 0.960 . S
C1466 C1464 1.381 . S
C1466 C1467 1.394 . S
C1466 H1474 0.930 . S
C1467 C1466 1.394 . S
C1467 C1468 1.383 . S
C1467 H1475 0.929 . S
C1468 C1467 1.383 . S
C1468 C1469 1.377 . S
C1469 H1453 0.930 . S
C1469 C1468 1.377 . S
C1469 C1470 1.379 . S
C1470 H1454 0.931 . S
C1470 C1464 1.383 . S
C1470 C1469 1.379 . S
H1471 C1465 0.959 . S
H1472 C1465 0.961 . S
H1473 C1465 0.960 . S
H1474 C1466 0.930 . S
H1475 C1467 0.929 . S
H1476 C1484 0.929 . S
H1477 C1486 0.930 . S
H1478 C1488 0.930 . S
H1479 C1491 0.929 . S
H1480 C1494 0.930 . S
H1481 C1496 0.960 . S
H1482 C1496 0.960 . S
H1483 C1496 0.960 . S
C1484 H1476 0.929 . S
C1484 C1485 1.377 . S
C1484 C1486 1.384 . S
C1485 C1484 1.377 . S
C1485 C1491 1.390 . S
C1486 H1477 0.930 . S
C1486 C1484 1.384 . S
C1486 C1487 1.372 . S
C1487 C1486 1.372 . S
C1487 C1488 1.400 . S
C1487 C1492 1.490 . S
C1488 H1478 0.930 . S
C1488 C1487 1.400 . S
C1488 C1491 1.386 . S
H1489 C1505 0.930 . S
H1490 C1506 0.931 . S
C1491 H1479 0.929 . S
C1491 C1485 1.390 . S
C1491 C1488 1.386 . S
C1492 C1487 1.490 . S
C1492 C1494 1.395 . S
C1492 C1495 1.403 . S
H1493 C1499 0.930 . S
C1494 H1480 0.930 . S
C1494 C1492 1.395 . S
C1494 C1497 1.403 . S
C1495 C1492 1.403 . S
C1495 C1496 1.524 . S
C1495 C1499 1.400 . S
C1496 H1481 0.960 . S
C1496 H1482 0.960 . S
C1496 H1483 0.960 . S
C1496 C1495 1.524 . S
C1497 C1494 1.403 . S
C1497 C1498 1.392 . S
C1497 C1501 1.495 . S
C1498 C1497 1.392 . S
C1498 C1499 1.385 . S
C1498 C1500 1.478 . S
C1499 H1493 0.930 . S
C1499 C1495 1.400 . S
C1499 C1498 1.385 . S
C1500 C1498 1.478 . S
C1500 C1502 1.381 . S
C1500 C1506 1.383 . S
C1501 C1497 1.495 . S
C1501 H1507 0.959 . S
C1501 H1508 0.961 . S
C1501 H1509 0.960 . S
C1502 C1500 1.381 . S
C1502 C1503 1.394 . S
C1502 H1510 0.930 . S
C1503 C1502 1.394 . S
C1503 C1504 1.383 . S
C1503 H1511 0.929 . S
C1504 C1503 1.383 . S
C1504 C1505 1.377 . S
C1505 H1489 0.930 . S
C1505 C1504 1.377 . S
C1505 C1506 1.379 . S
C1506 H1490 0.931 . S
C1506 C1500 1.383 . S
C1506 C1505 1.379 . S
H1507 C1501 0.959 . S
H1508 C1501 0.961 . S
H1509 C1501 0.960 . S
H1510 C1502 0.930 . S
H1511 C1503 0.929 . S
H1512 C1520 0.929 . S
H1513 C1522 0.930 . S
H1514 C1524 0.930 . S
H1515 C1527 0.929 . S
H1516 C1530 0.930 . S
H1517 C1532 0.960 . S
H1518 C1532 0.960 . S
H1519 C1532 0.960 . S
C1520 H1512 0.929 . S
C1520 C1521 1.377 . S
C1520 C1522 1.384 . S
C1521 C1520 1.377 . S
C1521 C1527 1.390 . S
C1522 H1513 0.930 . S
C1522 C1520 1.384 . S
C1522 C1523 1.372 . S
C1523 C1522 1.372 . S
C1523 C1524 1.400 . S
C1523 C1528 1.490 . S
C1524 H1514 0.930 . S
C1524 C1523 1.400 . S
C1524 C1527 1.386 . S
H1525 C1541 0.930 . S
H1526 C1542 0.931 . S
C1527 H1515 0.929 . S
C1527 C1521 1.390 . S
C1527 C1524 1.386 . S
C1528 C1523 1.490 . S
C1528 C1530 1.395 . S
C1528 C1531 1.403 . S
H1529 C1535 0.930 . S
C1530 H1516 0.930 . S
C1530 C1528 1.395 . S
C1530 C1533 1.403 . S
C1531 C1528 1.403 . S
C1531 C1532 1.524 . S
C1531 C1535 1.400 . S
C1532 H1517 0.960 . S
C1532 H1518 0.960 . S
C1532 H1519 0.960 . S
C1532 C1531 1.524 . S
C1533 C1530 1.403 . S
C1533 C1534 1.392 . S
C1533 C1537 1.495 . S
C1534 C1533 1.392 . S
C1534 C1535 1.385 . S
C1534 C1536 1.478 . S
C1535 H1529 0.930 . S
C1535 C1531 1.400 . S
C1535 C1534 1.385 . S
C1536 C1534 1.478 . S
C1536 C1538 1.381 . S
C1536 C1542 1.383 . S
C1537 C1533 1.495 . S
C1537 H1543 0.959 . S
C1537 H1544 0.961 . S
C1537 H1545 0.960 . S
C1538 C1536 1.381 . S
C1538 C1539 1.394 . S
C1538 H1546 0.930 . S
C1539 C1538 1.394 . S
C1539 C1540 1.383 . S
C1539 H1547 0.929 . S
C1540 C1539 1.383 . S
C1540 C1541 1.377 . S
C1541 H1525 0.930 . S
C1541 C1540 1.377 . S
C1541 C1542 1.379 . S
C1542 H1526 0.931 . S
C1542 C1536 1.383 . S
C1542 C1541 1.379 . S
H1543 C1537 0.959 . S
H1544 C1537 0.961 . S
H1545 C1537 0.960 . S
H1546 C1538 0.930 . S
H1547 C1539 0.929 . S
H1548 C1556 0.929 . S
H1549 C1558 0.930 . S
H1550 C1560 0.930 . S
H1551 C1563 0.929 . S
H1552 C1566 0.930 . S
H1553 C1568 0.960 . S
H1554 C1568 0.960 . S
H1555 C1568 0.960 . S
C1556 H1548 0.929 . S
C1556 C1557 1.377 . S
C1556 C1558 1.384 . S
C1557 C1556 1.377 . S
C1557 C1563 1.390 . S
C1558 H1549 0.930 . S
C1558 C1556 1.384 . S
C1558 C1559 1.372 . S
C1559 C1558 1.372 . S
C1559 C1560 1.400 . S
C1559 C1564 1.490 . S
C1560 H1550 0.930 . S
C1560 C1559 1.400 . S
C1560 C1563 1.386 . S
H1561 C1577 0.930 . S
H1562 C1578 0.931 . S
C1563 H1551 0.929 . S
C1563 C1557 1.390 . S
C1563 C1560 1.386 . S
C1564 C1559 1.490 . S
C1564 C1566 1.395 . S
C1564 C1567 1.403 . S
H1565 C1571 0.930 . S
C1566 H1552 0.930 . S
C1566 C1564 1.395 . S
C1566 C1569 1.403 . S
C1567 C1564 1.403 . S
C1567 C1568 1.524 . S
C1567 C1571 1.400 . S
C1568 H1553 0.960 . S
C1568 H1554 0.960 . S
C1568 H1555 0.960 . S
C1568 C1567 1.524 . S
C1569 C1566 1.403 . S
C1569 C1570 1.392 . S
C1569 C1573 1.495 . S
C1570 C1569 1.392 . S
C1570 C1571 1.385 . S
C1570 C1572 1.478 . S
C1571 H1565 0.930 . S
C1571 C1567 1.400 . S
C1571 C1570 1.385 . S
C1572 C1570 1.478 . S
C1572 C1574 1.381 . S
C1572 C1578 1.383 . S
C1573 C1569 1.495 . S
C1573 H1579 0.959 . S
C1573 H1580 0.961 . S
C1573 H1581 0.960 . S
C1574 C1572 1.381 . S
C1574 C1575 1.394 . S
C1574 H1582 0.930 . S
C1575 C1574 1.394 . S
C1575 C1576 1.383 . S
C1575 H1583 0.929 . S
C1576 C1575 1.383 . S
C1576 C1577 1.377 . S
C1577 H1561 0.930 . S
C1577 C1576 1.377 . S
C1577 C1578 1.379 . S
C1578 H1562 0.931 . S
C1578 C1572 1.383 . S
C1578 C1577 1.379 . S
H1579 C1573 0.959 . S
H1580 C1573 0.961 . S
H1581 C1573 0.960 . S
H1582 C1574 0.930 . S
H1583 C1575 0.929 . S
H1584 C1592 0.929 . S
H1585 C1594 0.930 . S
H1586 C1596 0.930 . S
H1587 C1599 0.929 . S
H1588 C1602 0.930 . S
H1589 C1604 0.960 . S
H1590 C1604 0.960 . S
H1591 C1604 0.960 . S
C1592 H1584 0.929 . S
C1592 C1593 1.377 . S
C1592 C1594 1.384 . S
C1593 C1592 1.377 . S
C1593 C1599 1.390 . S
C1594 H1585 0.930 . S
C1594 C1592 1.384 . S
C1594 C1595 1.372 . S
C1595 C1594 1.372 . S
C1595 C1596 1.400 . S
C1595 C1600 1.490 . S
C1596 H1586 0.930 . S
C1596 C1595 1.400 . S
C1596 C1599 1.386 . S
H1597 C1613 0.930 . S
H1598 C1614 0.931 . S
C1599 H1587 0.929 . S
C1599 C1593 1.390 . S
C1599 C1596 1.386 . S
C1600 C1595 1.490 . S
C1600 C1602 1.395 . S
C1600 C1603 1.403 . S
H1601 C1607 0.930 . S
C1602 H1588 0.930 . S
C1602 C1600 1.395 . S
C1602 C1605 1.403 . S
C1603 C1600 1.403 . S
C1603 C1604 1.524 . S
C1603 C1607 1.400 . S
C1604 H1589 0.960 . S
C1604 H1590 0.960 . S
C1604 H1591 0.960 . S
C1604 C1603 1.524 . S
C1605 C1602 1.403 . S
C1605 C1606 1.392 . S
C1605 C1609 1.495 . S
C1606 C1605 1.392 . S
C1606 C1607 1.385 . S
C1606 C1608 1.478 . S
C1607 H1601 0.930 . S
C1607 C1603 1.400 . S
C1607 C1606 1.385 . S
C1608 C1606 1.478 . S
C1608 C1610 1.381 . S
C1608 C1614 1.383 . S
C1609 C1605 1.495 . S
C1609 H1615 0.959 . S
C1609 H1616 0.961 . S
C1609 H1617 0.960 . S
C1610 C1608 1.381 . S
C1610 C1611 1.394 . S
C1610 H1618 0.930 . S
C1611 C1610 1.394 . S
C1611 C1612 1.383 . S
C1611 H1619 0.929 . S
C1612 C1611 1.383 . S
C1612 C1613 1.377 . S
C1613 H1597 0.930 . S
C1613 C1612 1.377 . S
C1613 C1614 1.379 . S
C1614 H1598 0.931 . S
C1614 C1608 1.383 . S
C1614 C1613 1.379 . S
H1615 C1609 0.959 . S
H1616 C1609 0.961 . S
H1617 C1609 0.960 . S
H1618 C1610 0.930 . S
H1619 C1611 0.929 . S
H1620 C1628 0.929 . S
H1621 C1630 0.930 . S
H1622 C1632 0.930 . S
H1623 C1635 0.929 . S
H1624 C1638 0.930 . S
H1625 C1640 0.960 . S
H1626 C1640 0.960 . S
H1627 C1640 0.960 . S
C1628 H1620 0.929 . S
C1628 C1629 1.377 . S
C1628 C1630 1.384 . S
C1629 C1628 1.377 . S
C1629 C1635 1.390 . S
C1630 H1621 0.930 . S
C1630 C1628 1.384 . S
C1630 C1631 1.372 . S
C1631 C1630 1.372 . S
C1631 C1632 1.400 . S
C1631 C1636 1.490 . S
C1632 H1622 0.930 . S
C1632 C1631 1.400 . S
C1632 C1635 1.386 . S
H1633 C1649 0.930 . S
H1634 C1650 0.931 . S
C1635 H1623 0.929 . S
C1635 C1629 1.390 . S
C1635 C1632 1.386 . S
C1636 C1631 1.490 . S
C1636 C1638 1.395 . S
C1636 C1639 1.403 . S
H1637 C1643 0.930 . S
C1638 H1624 0.930 . S
C1638 C1636 1.395 . S
C1638 C1641 1.403 . S
C1639 C1636 1.403 . S
C1639 C1640 1.524 . S
C1639 C1643 1.400 . S
C1640 H1625 0.960 . S
C1640 H1626 0.960 . S
C1640 H1627 0.960 . S
C1640 C1639 1.524 . S
C1641 C1638 1.403 . S
C1641 C1642 1.392 . S
C1641 C1645 1.495 . S
C1642 C1641 1.392 . S
C1642 C1643 1.385 . S
C1642 C1644 1.478 . S
C1643 H1637 0.930 . S
C1643 C1639 1.400 . S
C1643 C1642 1.385 . S
C1644 C1642 1.478 . S
C1644 C1646 1.381 . S
C1644 C1650 1.383 . S
C1645 C1641 1.495 . S
C1645 H1651 0.959 . S
C1645 H1652 0.961 . S
C1645 H1653 0.960 . S
C1646 C1644 1.381 . S
C1646 C1647 1.394 . S
C1646 H1654 0.930 . S
C1647 C1646 1.394 . S
C1647 C1648 1.383 . S
C1647 H1655 0.929 . S
C1648 C1647 1.383 . S
C1648 C1649 1.377 . S
C1649 H1633 0.930 . S
C1649 C1648 1.377 . S
C1649 C1650 1.379 . S
C1650 H1634 0.931 . S
C1650 C1644 1.383 . S
C1650 C1649 1.379 . S
H1651 C1645 0.959 . S
H1652 C1645 0.961 . S
H1653 C1645 0.960 . S
H1654 C1646 0.930 . S
H1655 C1647 0.929 . S
H1656 C1664 0.929 . S
H1657 C1666 0.930 . S
H1658 C1668 0.930 . S
H1659 C1671 0.929 . S
H1660 C1674 0.930 . S
H1661 C1676 0.960 . S
H1662 C1676 0.960 . S
H1663 C1676 0.960 . S
C1664 H1656 0.929 . S
C1664 C1665 1.377 . S
C1664 C1666 1.384 . S
C1665 C1664 1.377 . S
C1665 C1671 1.390 . S
C1666 H1657 0.930 . S
C1666 C1664 1.384 . S
C1666 C1667 1.372 . S
C1667 C1666 1.372 . S
C1667 C1668 1.400 . S
C1667 C1672 1.490 . S
C1668 H1658 0.930 . S
C1668 C1667 1.400 . S
C1668 C1671 1.386 . S
H1669 C1685 0.930 . S
H1670 C1686 0.931 . S
C1671 H1659 0.929 . S
C1671 C1665 1.390 . S
C1671 C1668 1.386 . S
C1672 C1667 1.490 . S
C1672 C1674 1.395 . S
C1672 C1675 1.403 . S
H1673 C1679 0.930 . S
C1674 H1660 0.930 . S
C1674 C1672 1.395 . S
C1674 C1677 1.403 . S
C1675 C1672 1.403 . S
C1675 C1676 1.524 . S
C1675 C1679 1.400 . S
C1676 H1661 0.960 . S
C1676 H1662 0.960 . S
C1676 H1663 0.960 . S
C1676 C1675 1.524 . S
C1677 C1674 1.403 . S
C1677 C1678 1.392 . S
C1677 C1681 1.495 . S
C1678 C1677 1.392 . S
C1678 C1679 1.385 . S
C1678 C1680 1.478 . S
C1679 H1673 0.930 . S
C1679 C1675 1.400 . S
C1679 C1678 1.385 . S
C1680 C1678 1.478 . S
C1680 C1682 1.381 . S
C1680 C1686 1.383 . S
C1681 C1677 1.495 . S
C1681 H1687 0.959 . S
C1681 H1688 0.961 . S
C1681 H1689 0.960 . S
C1682 C1680 1.381 . S
C1682 C1683 1.394 . S
C1682 H1690 0.930 . S
C1683 C1682 1.394 . S
C1683 C1684 1.383 . S
C1683 H1691 0.929 . S
C1684 C1683 1.383 . S
C1684 C1685 1.377 . S
C1685 H1669 0.930 . S
C1685 C1684 1.377 . S
C1685 C1686 1.379 . S
C1686 H1670 0.931 . S
C1686 C1680 1.383 . S
C1686 C1685 1.379 . S
H1687 C1681 0.959 . S
H1688 C1681 0.961 . S
H1689 C1681 0.960 . S
H1690 C1682 0.930 . S
H1691 C1683 0.929 . S
H1692 C1700 0.929 . S
H1693 C1702 0.930 . S
H1694 C1704 0.930 . S
H1695 C1707 0.929 . S
H1696 C1710 0.930 . S
H1697 C1712 0.960 1_545 S
H1698 C1712 0.960 . S
H1699 C1712 0.960 . S
C1700 H1692 0.929 . S
C1700 C1701 1.377 . S
C1700 C1702 1.384 . S
C1701 C1700 1.377 . S
C1701 C1707 1.390 . S
C1702 H1693 0.930 . S
C1702 C1700 1.384 . S
C1702 C1703 1.372 . S
C1703 C1702 1.372 . S
C1703 C1704 1.400 . S
C1703 C1708 1.490 . S
C1704 H1694 0.930 . S
C1704 C1703 1.400 . S
C1704 C1707 1.386 . S
H1705 C1721 0.930 . S
H1706 C1722 0.931 . S
C1707 H1695 0.929 . S
C1707 C1701 1.390 . S
C1707 C1704 1.386 . S
C1708 C1703 1.490 . S
C1708 C1710 1.395 . S
C1708 C1711 1.403 . S
H1709 C1715 0.930 . S
C1710 H1696 0.930 . S
C1710 C1708 1.395 . S
C1710 C1713 1.403 1_565 S
C1711 C1708 1.403 . S
C1711 C1712 1.524 . S
C1711 C1715 1.400 1_565 S
C1712 H1697 0.960 1_565 S
C1712 H1698 0.960 . S
C1712 H1699 0.960 . S
C1712 C1711 1.524 . S
C1713 C1710 1.403 1_545 S
C1713 C1714 1.392 . S
C1713 C1717 1.495 . S
C1714 C1713 1.392 . S
C1714 C1715 1.385 . S
C1714 C1716 1.478 . S
C1715 H1709 0.930 . S
C1715 C1711 1.400 1_545 S
C1715 C1714 1.385 . S
C1716 C1714 1.478 . S
C1716 C1718 1.381 . S
C1716 C1722 1.383 . S
C1717 C1713 1.495 . S
C1717 H1723 0.962 . S
C1717 H1724 0.961 . S
C1717 H1725 0.960 . S
C1718 C1716 1.381 . S
C1718 C1719 1.394 . S
C1718 H1726 0.930 . S
C1719 C1718 1.394 . S
C1719 C1720 1.383 . S
C1719 H1727 0.929 . S
C1720 C1719 1.383 . S
C1720 C1721 1.377 . S
C1721 H1705 0.930 . S
C1721 C1720 1.377 . S
C1721 C1722 1.379 . S
C1722 H1706 0.931 . S
C1722 C1716 1.383 . S
C1722 C1721 1.379 . S
H1723 C1717 0.962 . S
H1724 C1717 0.961 . S
H1725 C1717 0.960 . S
H1726 C1718 0.930 . S
H1727 C1719 0.929 . S
H1728 C1736 0.929 . S
H1729 C1738 0.930 . S
H1730 C1740 0.930 . S
H1731 C1743 0.929 . S
H1732 C1746 0.930 . S
H1733 C1748 0.960 . S
H1734 C1748 0.960 . S
H1735 C1748 0.960 . S
C1736 H1728 0.929 . S
C1736 C1737 1.377 . S
C1736 C1738 1.384 . S
C1737 C1736 1.377 . S
C1737 C1743 1.390 . S
C1738 H1729 0.930 . S
C1738 C1736 1.384 . S
C1738 C1739 1.372 . S
C1739 C1738 1.372 . S
C1739 C1740 1.400 . S
C1739 C1744 1.490 . S
C1740 H1730 0.930 . S
C1740 C1739 1.400 . S
C1740 C1743 1.386 . S
H1741 C1757 0.930 . S
H1742 C1758 0.931 . S
C1743 H1731 0.929 . S
C1743 C1737 1.390 . S
C1743 C1740 1.386 . S
C1744 C1739 1.490 . S
C1744 C1746 1.395 . S
C1744 C1747 1.403 . S
H1745 C1751 0.930 . S
C1746 H1732 0.930 . S
C1746 C1744 1.395 . S
C1746 C1749 1.403 1_655 S
C1747 C1744 1.403 . S
C1747 C1748 1.524 . S
C1747 C1751 1.400 1_655 S
C1748 H1733 0.960 . S
C1748 H1734 0.960 . S
C1748 H1735 0.960 . S
C1748 C1747 1.524 . S
C1749 C1746 1.403 1_455 S
C1749 C1750 1.392 . S
C1749 C1753 1.495 . S
C1750 C1749 1.392 . S
C1750 C1751 1.385 . S
C1750 C1752 1.478 . S
C1751 H1745 0.930 . S
C1751 C1747 1.400 1_455 S
C1751 C1750 1.385 . S
C1752 C1750 1.478 . S
C1752 C1754 1.381 . S
C1752 C1758 1.383 . S
C1753 C1749 1.495 . S
C1753 H1759 0.959 . S
C1753 H1760 0.961 . S
C1753 H1761 0.960 . S
C1754 C1752 1.381 . S
C1754 C1755 1.394 . S
C1754 H1762 0.930 . S
C1755 C1754 1.394 . S
C1755 C1756 1.383 . S
C1755 H1763 0.929 . S
C1756 C1755 1.383 . S
C1756 C1757 1.377 . S
C1757 H1741 0.930 . S
C1757 C1756 1.377 . S
C1757 C1758 1.379 . S
C1758 H1742 0.931 . S
C1758 C1752 1.383 . S
C1758 C1757 1.379 . S
H1759 C1753 0.959 . S
H1760 C1753 0.961 . S
H1761 C1753 0.960 . S
H1762 C1754 0.930 . S
H1763 C1755 0.929 . S
H1764 C1772 0.929 . S
H1765 C1774 0.930 . S
H1766 C1776 0.930 . S
H1767 C1779 0.929 . S
H1768 C1782 0.930 . S
H1769 C1784 0.960 . S
H1770 C1784 0.960 . S
H1771 C1784 0.960 . S
C1772 H1764 0.929 . S
C1772 C1773 1.377 . S
C1772 C1774 1.384 . S
C1773 C1772 1.377 . S
C1773 C1779 1.390 . S
C1774 H1765 0.930 . S
C1774 C1772 1.384 . S
C1774 C1775 1.372 . S
C1775 C1774 1.372 . S
C1775 C1776 1.400 . S
C1775 C1780 1.490 . S
C1776 H1766 0.930 . S
C1776 C1775 1.400 . S
C1776 C1779 1.386 . S
H1777 C1793 0.930 . S
H1778 C1794 0.931 . S
C1779 H1767 0.929 . S
C1779 C1773 1.390 . S
C1779 C1776 1.386 . S
C1780 C1775 1.490 . S
C1780 C1782 1.395 . S
C1780 C1783 1.403 . S
H1781 C1787 0.930 . S
C1782 H1768 0.930 . S
C1782 C1780 1.395 . S
C1782 C1785 1.403 . S
C1783 C1780 1.403 . S
C1783 C1784 1.524 . S
C1783 C1787 1.400 . S
C1784 H1769 0.960 . S
C1784 H1770 0.960 . S
C1784 H1771 0.960 . S
C1784 C1783 1.524 . S
C1785 C1782 1.403 . S
C1785 C1786 1.392 . S
C1785 C1789 1.495 . S
C1786 C1785 1.392 . S
C1786 C1787 1.385 . S
C1786 C1788 1.478 . S
C1787 H1781 0.930 . S
C1787 C1783 1.400 . S
C1787 C1786 1.385 . S
C1788 C1786 1.478 . S
C1788 C1790 1.381 . S
C1788 C1794 1.383 . S
C1789 C1785 1.495 . S
C1789 H1795 0.959 . S
C1789 H1796 0.961 . S
C1789 H1797 0.960 . S
C1790 C1788 1.381 . S
C1790 C1791 1.394 . S
C1790 H1798 0.930 . S
C1791 C1790 1.394 . S
C1791 C1792 1.383 . S
C1791 H1799 0.929 . S
C1792 C1791 1.383 . S
C1792 C1793 1.377 . S
C1793 H1777 0.930 . S
C1793 C1792 1.377 . S
C1793 C1794 1.379 . S
C1794 H1778 0.931 . S
C1794 C1788 1.383 . S
C1794 C1793 1.379 . S
H1795 C1789 0.959 . S
H1796 C1789 0.961 . S
H1797 C1789 0.960 . S
H1798 C1790 0.930 . S
H1799 C1791 0.929 . S
H1800 C1808 0.929 . S
H1801 C1810 0.930 . S
H1802 C1812 0.930 . S
H1803 C1815 0.929 . S
H1804 C1818 0.930 . S
H1805 C1820 0.972 . S
H1806 C1820 0.960 . S
H1807 C1820 0.960 . S
C1808 H1800 0.929 . S
C1808 C1809 1.377 . S
C1808 C1810 1.384 . S
C1809 C1808 1.377 . S
C1809 C1815 1.390 . S
C1810 H1801 0.930 . S
C1810 C1808 1.384 . S
C1810 C1811 1.372 . S
C1811 C1810 1.372 . S
C1811 C1812 1.400 . S
C1811 C1816 1.490 . S
C1812 H1802 0.930 . S
C1812 C1811 1.400 . S
C1812 C1815 1.386 . S
H1813 C1829 0.930 . S
H1814 C1830 0.931 . S
C1815 H1803 0.929 . S
C1815 C1809 1.390 . S
C1815 C1812 1.386 . S
C1816 C1811 1.490 . S
C1816 C1818 1.395 . S
C1816 C1819 1.403 . S
H1817 C1823 0.930 . S
C1818 H1804 0.930 . S
C1818 C1816 1.395 . S
C1818 C1821 1.403 1_545 S
C1819 C1816 1.403 . S
C1819 C1820 1.524 . S
C1819 C1823 1.400 1_545 S
C1820 H1805 0.972 . S
C1820 H1806 0.960 . S
C1820 H1807 0.960 . S
C1820 C1819 1.524 . S
C1821 C1818 1.403 1_565 S
C1821 C1822 1.392 . S
C1821 C1825 1.495 . S
C1822 C1821 1.392 . S
C1822 C1823 1.385 . S
C1822 C1824 1.478 . S
C1823 H1817 0.930 . S
C1823 C1819 1.400 1_565 S
C1823 C1822 1.385 . S
C1824 C1822 1.478 . S
C1824 C1826 1.381 . S
C1824 C1830 1.383 . S
C1825 C1821 1.495 . S
C1825 H1831 0.959 1_565 S
C1825 H1832 0.961 . S
C1825 H1833 0.960 . S
C1826 C1824 1.381 . S
C1826 C1827 1.394 . S
C1826 H1834 0.930 . S
C1827 C1826 1.394 . S
C1827 C1828 1.383 . S
C1827 H1835 0.929 . S
C1828 C1827 1.383 . S
C1828 C1829 1.377 . S
C1829 H1813 0.930 . S
C1829 C1828 1.377 . S
C1829 C1830 1.379 . S
C1830 H1814 0.931 . S
C1830 C1824 1.383 . S
C1830 C1829 1.379 . S
H1831 C1825 0.959 1_545 S
H1832 C1825 0.961 . S
H1833 C1825 0.960 . S
H1834 C1826 0.930 . S
H1835 C1827 0.929 . S
H1836 C1844 0.929 . S
H1837 C1846 0.930 . S
H1838 C1848 0.930 . S
H1839 C1851 0.929 . S
H1840 C1854 0.930 . S
H1841 C1856 0.960 1_655 S
H1842 C1856 0.960 . S
H1843 C1856 0.960 . S
C1844 H1836 0.929 . S
C1844 C1845 1.377 . S
C1844 C1846 1.384 . S
C1845 C1844 1.377 . S
C1845 C1851 1.390 . S
C1846 H1837 0.930 . S
C1846 C1844 1.384 . S
C1846 C1847 1.372 . S
C1847 C1846 1.372 . S
C1847 C1848 1.400 . S
C1847 C1852 1.490 . S
C1848 H1838 0.930 . S
C1848 C1847 1.400 . S
C1848 C1851 1.386 . S
H1849 C1865 0.930 . S
H1850 C1866 0.931 . S
C1851 H1839 0.929 . S
C1851 C1845 1.390 . S
C1851 C1848 1.386 . S
C1852 C1847 1.490 . S
C1852 C1854 1.395 . S
C1852 C1855 1.403 . S
H1853 C1859 0.930 . S
C1854 H1840 0.930 . S
C1854 C1852 1.395 . S
C1854 C1857 1.403 1_455 S
C1855 C1852 1.403 . S
C1855 C1856 1.524 . S
C1855 C1859 1.400 1_455 S
C1856 H1841 0.960 1_455 S
C1856 H1842 0.960 . S
C1856 H1843 0.960 . S
C1856 C1855 1.524 . S
C1857 C1854 1.403 1_655 S
C1857 C1858 1.392 . S
C1857 C1861 1.495 . S
C1858 C1857 1.392 . S
C1858 C1859 1.385 . S
C1858 C1860 1.478 . S
C1859 H1853 0.930 . S
C1859 C1855 1.400 1_655 S
C1859 C1858 1.385 . S
C1860 C1858 1.478 . S
C1860 C1862 1.381 . S
C1860 C1866 1.383 . S
C1861 C1857 1.495 . S
C1861 H1867 0.959 1_655 S
C1861 H1868 0.961 . S
C1861 H1869 0.960 . S
C1862 C1860 1.381 . S
C1862 C1863 1.394 . S
C1862 H1870 0.930 . S
C1863 C1862 1.394 . S
C1863 C1864 1.383 . S
C1863 H1871 0.929 . S
C1864 C1863 1.383 . S
C1864 C1865 1.377 . S
C1865 H1849 0.930 . S
C1865 C1864 1.377 . S
C1865 C1866 1.379 . S
C1866 H1850 0.931 . S
C1866 C1860 1.383 . S
C1866 C1865 1.379 . S
H1867 C1861 0.959 1_455 S
H1868 C1861 0.961 . S
H1869 C1861 0.960 . S
H1870 C1862 0.930 . S
H1871 C1863 0.929 . S
H1872 C1880 0.929 . S
H1873 C1882 0.930 . S
H1874 C1884 0.930 . S
H1875 C1887 0.929 . S
H1876 C1890 0.930 . S
H1877 C1892 0.960 . S
H1878 C1892 0.960 . S
H1879 C1892 0.960 . S
C1880 H1872 0.929 . S
C1880 C1881 1.377 . S
C1880 C1882 1.384 . S
C1881 C1880 1.377 . S
C1881 C1887 1.390 . S
C1882 H1873 0.930 . S
C1882 C1880 1.384 . S
C1882 C1883 1.372 . S
C1883 C1882 1.372 . S
C1883 C1884 1.400 . S
C1883 C1888 1.490 . S
C1884 H1874 0.930 . S
C1884 C1883 1.400 . S
C1884 C1887 1.386 . S
H1885 C1901 0.930 . S
H1886 C1902 0.931 . S
C1887 H1875 0.929 . S
C1887 C1881 1.390 . S
C1887 C1884 1.386 . S
C1888 C1883 1.490 . S
C1888 C1890 1.392 . S
C1888 C1891 1.403 . S
H1889 C1895 0.930 . S
C1890 H1876 0.930 . S
C1890 C1888 1.392 . S
C1890 C1893 1.405 1_455 S
C1891 C1888 1.403 . S
C1891 C1892 1.524 . S
C1891 C1895 1.400 1_455 S
C1892 H1877 0.960 . S
C1892 H1878 0.960 . S
C1892 H1879 0.960 . S
C1892 C1891 1.524 . S
C1893 C1890 1.405 1_655 S
C1893 C1894 1.392 . S
C1893 C1897 1.495 . S
C1894 C1893 1.392 . S
C1894 C1895 1.385 . S
C1894 C1896 1.478 . S
C1895 H1889 0.930 . S
C1895 C1891 1.400 1_655 S
C1895 C1894 1.385 . S
C1896 C1894 1.478 . S
C1896 C1898 1.381 . S
C1896 C1902 1.383 . S
C1897 C1893 1.495 . S
C1897 H1903 0.959 . S
C1897 H1904 0.961 . S
C1897 H1905 0.960 . S
C1898 C1896 1.381 . S
C1898 C1899 1.394 . S
C1898 H1906 0.930 . S
C1899 C1898 1.394 . S
C1899 C1900 1.383 . S
C1899 H1907 0.929 . S
C1900 C1899 1.383 . S
C1900 C1901 1.377 . S
C1901 H1885 0.930 . S
C1901 C1900 1.377 . S
C1901 C1902 1.379 . S
C1902 H1886 0.931 . S
C1902 C1896 1.383 . S
C1902 C1901 1.379 . S
H1903 C1897 0.959 . S
H1904 C1897 0.961 . S
H1905 C1897 0.960 . S
H1906 C1898 0.930 . S
H1907 C1899 0.929 . S
H1908 C1916 0.929 . S
H1909 C1918 0.930 . S
H1910 C1920 0.930 . S
H1911 C1923 0.929 . S
H1912 C1926 0.930 . S
H1913 C1928 0.960 . S
H1914 C1928 0.960 . S
H1915 C1928 0.960 . S
C1916 H1908 0.929 . S
C1916 C1917 1.377 . S
C1916 C1918 1.384 . S
C1917 C1916 1.377 . S
C1917 C1923 1.390 . S
C1918 H1909 0.930 . S
C1918 C1916 1.384 . S
C1918 C1919 1.372 . S
C1919 C1918 1.372 . S
C1919 C1920 1.400 . S
C1919 C1924 1.490 . S
C1920 H1910 0.930 . S
C1920 C1919 1.400 . S
C1920 C1923 1.386 . S
H1921 C1937 0.930 . S
H1922 C1938 0.931 . S
C1923 H1911 0.929 . S
C1923 C1917 1.390 . S
C1923 C1920 1.386 . S
C1924 C1919 1.490 . S
C1924 C1926 1.395 . S
C1924 C1927 1.403 . S
H1925 C1931 0.930 . S
C1926 H1912 0.930 . S
C1926 C1924 1.395 . S
C1926 C1929 1.403 . S
C1927 C1924 1.403 . S
C1927 C1928 1.524 . S
C1927 C1931 1.400 . S
C1928 H1913 0.960 . S
C1928 H1914 0.960 . S
C1928 H1915 0.960 . S
C1928 C1927 1.524 . S
C1929 C1926 1.403 . S
C1929 C1930 1.392 . S
C1929 C1933 1.495 . S
C1930 C1929 1.392 . S
C1930 C1931 1.385 . S
C1930 C1932 1.478 . S
C1931 H1925 0.930 . S
C1931 C1927 1.400 . S
C1931 C1930 1.385 . S
C1932 C1930 1.478 . S
C1932 C1934 1.381 . S
C1932 C1938 1.383 . S
C1933 C1929 1.495 . S
C1933 H1939 0.959 . S
C1933 H1940 0.961 . S
C1933 H1941 0.960 . S
C1934 C1932 1.381 . S
C1934 C1935 1.394 . S
C1934 H1942 0.930 . S
C1935 C1934 1.394 . S
C1935 C1936 1.383 . S
C1935 H1943 0.929 . S
C1936 C1935 1.383 . S
C1936 C1937 1.377 . S
C1937 H1921 0.930 . S
C1937 C1936 1.377 . S
C1937 C1938 1.379 . S
C1938 H1922 0.931 . S
C1938 C1932 1.383 . S
C1938 C1937 1.379 . S
H1939 C1933 0.959 . S
H1940 C1933 0.961 . S
H1941 C1933 0.960 . S
H1942 C1934 0.930 . S
H1943 C1935 0.929 . S
H1944 C1952 0.929 . S
H1945 C1954 0.930 . S
H1946 C1956 0.930 . S
H1947 C1959 0.929 . S
H1948 C1962 0.930 . S
H1949 C1964 0.960 . S
H1950 C1964 0.960 . S
H1951 C1964 0.960 . S
C1952 H1944 0.929 . S
C1952 C1953 1.377 . S
C1952 C1954 1.384 . S
C1953 C1952 1.377 . S
C1953 C1959 1.390 . S
C1954 H1945 0.930 . S
C1954 C1952 1.384 . S
C1954 C1955 1.372 . S
C1955 C1954 1.372 . S
C1955 C1956 1.400 . S
C1955 C1960 1.490 . S
C1956 H1946 0.930 . S
C1956 C1955 1.400 . S
C1956 C1959 1.386 . S
H1957 C1973 0.930 . S
H1958 C1974 0.931 . S
C1959 H1947 0.929 . S
C1959 C1953 1.390 . S
C1959 C1956 1.386 . S
C1960 C1955 1.490 . S
C1960 C1962 1.395 . S
C1960 C1963 1.403 1_565 S
H1961 C1967 0.930 . S
C1962 H1948 0.930 . S
C1962 C1960 1.395 . S
C1962 C1965 1.403 . S
C1963 C1960 1.403 1_545 S
C1963 C1964 1.524 . S
C1963 C1967 1.400 . S
C1964 H1949 0.960 . S
C1964 H1950 0.960 . S
C1964 H1951 0.960 . S
C1964 C1963 1.524 . S
C1965 C1962 1.403 . S
C1965 C1966 1.392 1_565 S
C1965 C1969 1.495 . S
C1966 C1965 1.392 1_545 S
C1966 C1967 1.385 . S
C1966 C1968 1.478 . S
C1967 H1961 0.930 . S
C1967 C1963 1.400 . S
C1967 C1966 1.385 . S
C1968 C1966 1.478 . S
C1968 C1970 1.381 . S
C1968 C1974 1.383 . S
C1969 C1965 1.495 . S
C1969 H1975 0.959 . S
C1969 H1976 0.961 . S
C1969 H1977 0.974 . S
C1970 C1968 1.381 . S
C1970 C1971 1.394 . S
C1970 H1978 0.930 . S
C1971 C1970 1.394 . S
C1971 C1972 1.383 . S
C1971 H1979 0.929 . S
C1972 C1971 1.383 . S
C1972 C1973 1.377 . S
C1973 H1957 0.930 . S
C1973 C1972 1.377 . S
C1973 C1974 1.379 . S
C1974 H1958 0.931 . S
C1974 C1968 1.383 . S
C1974 C1973 1.379 . S
H1975 C1969 0.959 . S
H1976 C1969 0.961 . S
H1977 C1969 0.974 . S
H1978 C1970 0.930 . S
H1979 C1971 0.929 . S
H1980 C1988 0.929 . S
H1981 C1990 0.930 . S
H1982 C1992 0.930 . S
H1983 C1995 0.929 . S
H1984 C1998 0.930 . S
H1985 C2000 0.960 1_455 S
H1986 C2000 0.960 . S
H1987 C2000 0.960 . S
C1988 H1980 0.929 . S
C1988 C1989 1.377 . S
C1988 C1990 1.384 . S
C1989 C1988 1.377 . S
C1989 C1995 1.390 . S
C1990 H1981 0.930 . S
C1990 C1988 1.384 . S
C1990 C1991 1.372 . S
C1991 C1990 1.372 . S
C1991 C1992 1.400 . S
C1991 C1996 1.490 . S
C1992 H1982 0.930 . S
C1992 C1991 1.400 . S
C1992 C1995 1.386 . S
H1993 C2009 0.930 . S
H1994 C2010 0.931 . S
C1995 H1983 0.929 . S
C1995 C1989 1.390 . S
C1995 C1992 1.386 . S
C1996 C1991 1.490 . S
C1996 C1998 1.395 . S
C1996 C1999 1.403 . S
H1997 C2003 0.930 . S
C1998 H1984 0.930 . S
C1998 C1996 1.395 . S
C1998 C2001 1.403 . S
C1999 C1996 1.403 . S
C1999 C2000 1.524 . S
C1999 C2003 1.400 1_655 S
C2000 H1985 0.960 1_655 S
C2000 H1986 0.960 . S
C2000 H1987 0.960 . S
C2000 C1999 1.524 . S
C2001 C1998 1.403 . S
C2001 C2002 1.392 1_655 S
C2001 C2005 1.495 . S
C2002 C2001 1.392 1_455 S
C2002 C2003 1.385 . S
C2002 C2004 1.478 . S
C2003 H1997 0.930 . S
C2003 C1999 1.400 1_455 S
C2003 C2002 1.385 . S
C2004 C2002 1.478 . S
C2004 C2006 1.381 . S
C2004 C2010 1.383 . S
C2005 C2001 1.495 . S
C2005 H2011 0.959 . S
C2005 H2012 0.961 1_655 S
C2005 H2013 0.960 . S
C2006 C2004 1.381 . S
C2006 C2007 1.394 . S
C2006 H2014 0.930 . S
C2007 C2006 1.394 . S
C2007 C2008 1.383 . S
C2007 H2015 0.929 . S
C2008 C2007 1.383 . S
C2008 C2009 1.377 . S
C2009 H1993 0.930 . S
C2009 C2008 1.377 . S
C2009 C2010 1.379 . S
C2010 H1994 0.931 . S
C2010 C2004 1.383 . S
C2010 C2009 1.379 . S
H2011 C2005 0.959 . S
H2012 C2005 0.961 1_455 S
H2013 C2005 0.960 . S
H2014 C2006 0.930 . S
H2015 C2007 0.929 . S
H2016 C2024 0.929 . S
H2017 C2026 0.930 . S
H2018 C2028 0.930 . S
H2019 C2031 0.929 . S
H2020 C2034 0.930 . S
H2021 C2036 0.960 . S
H2022 C2036 0.960 . S
H2023 C2036 0.960 . S
C2024 H2016 0.929 . S
C2024 C2025 1.377 . S
C2024 C2026 1.384 . S
C2025 C2024 1.377 . S
C2025 C2031 1.390 . S
C2026 H2017 0.930 . S
C2026 C2024 1.384 . S
C2026 C2027 1.372 . S
C2027 C2026 1.372 . S
C2027 C2028 1.400 . S
C2027 C2032 1.490 . S
C2028 H2018 0.930 . S
C2028 C2027 1.400 . S
C2028 C2031 1.386 . S
H2029 C2045 0.930 . S
H2030 C2046 0.931 . S
C2031 H2019 0.929 . S
C2031 C2025 1.390 . S
C2031 C2028 1.386 . S
C2032 C2027 1.490 . S
C2032 C2034 1.395 . S
C2032 C2035 1.403 . S
H2033 C2039 0.930 . S
C2034 H2020 0.930 . S
C2034 C2032 1.395 . S
C2034 C2037 1.403 . S
C2035 C2032 1.403 . S
C2035 C2036 1.524 . S
C2035 C2039 1.400 . S
C2036 H2021 0.960 . S
C2036 H2022 0.960 . S
C2036 H2023 0.960 . S
C2036 C2035 1.524 . S
C2037 C2034 1.403 . S
C2037 C2038 1.392 . S
C2037 C2041 1.495 . S
C2038 C2037 1.392 . S
C2038 C2039 1.385 . S
C2038 C2040 1.478 . S
C2039 H2033 0.930 . S
C2039 C2035 1.400 . S
C2039 C2038 1.385 . S
C2040 C2038 1.478 . S
C2040 C2042 1.381 . S
C2040 C2046 1.383 . S
C2041 C2037 1.495 . S
C2041 H2047 0.959 . S
C2041 H2048 0.961 . S
C2041 H2049 0.960 . S
C2042 C2040 1.381 . S
C2042 C2043 1.394 . S
C2042 H2050 0.930 . S
C2043 C2042 1.394 . S
C2043 C2044 1.383 . S
C2043 H2051 0.929 . S
C2044 C2043 1.383 . S
C2044 C2045 1.377 . S
C2045 H2029 0.930 . S
C2045 C2044 1.377 . S
C2045 C2046 1.379 . S
C2046 H2030 0.931 . S
C2046 C2040 1.383 . S
C2046 C2045 1.379 . S
H2047 C2041 0.959 . S
H2048 C2041 0.961 . S
H2049 C2041 0.960 . S
H2050 C2042 0.930 . S
H2051 C2043 0.929 . S
H2052 C2060 0.929 . S
H2053 C2062 0.930 . S
H2054 C2064 0.930 . S
H2055 C2067 0.929 . S
H2056 C2070 0.930 . S
H2057 C2072 0.960 . S
H2058 C2072 0.960 . S
H2059 C2072 0.960 . S
C2060 H2052 0.929 . S
C2060 C2061 1.377 . S
C2060 C2062 1.384 . S
C2061 C2060 1.377 . S
C2061 C2067 1.390 . S
C2062 H2053 0.930 . S
C2062 C2060 1.384 . S
C2062 C2063 1.372 . S
C2063 C2062 1.372 . S
C2063 C2064 1.400 . S
C2063 C2068 1.490 . S
C2064 H2054 0.930 . S
C2064 C2063 1.400 . S
C2064 C2067 1.386 . S
H2065 C2081 0.930 . S
H2066 C2082 0.931 . S
C2067 H2055 0.929 . S
C2067 C2061 1.390 . S
C2067 C2064 1.386 . S
C2068 C2063 1.490 . S
C2068 C2070 1.395 1_545 S
C2068 C2071 1.403 . S
H2069 C2075 0.930 . S
C2070 H2056 0.930 . S
C2070 C2068 1.395 1_565 S
C2070 C2073 1.403 . S
C2071 C2068 1.403 . S
C2071 C2072 1.524 . S
C2071 C2075 1.400 . S
C2072 H2057 0.960 . S
C2072 H2058 0.960 . S
C2072 H2059 0.960 . S
C2072 C2071 1.524 . S
C2073 C2070 1.403 . S
C2073 C2074 1.392 . S
C2073 C2077 1.495 . S
C2074 C2073 1.392 . S
C2074 C2075 1.385 1_565 S
C2074 C2076 1.478 . S
C2075 H2069 0.930 . S
C2075 C2071 1.400 . S
C2075 C2074 1.385 1_545 S
C2076 C2074 1.478 . S
C2076 C2078 1.381 . S
C2076 C2082 1.383 . S
C2077 C2073 1.495 . S
C2077 H2083 0.959 . S
C2077 H2084 0.961 . S
C2077 H2085 0.960 . S
C2078 C2076 1.381 . S
C2078 C2079 1.394 . S
C2078 H2086 0.930 . S
C2079 C2078 1.394 . S
C2079 C2080 1.383 . S
C2079 H2087 0.929 . S
C2080 C2079 1.383 . S
C2080 C2081 1.377 . S
C2081 H2065 0.930 . S
C2081 C2080 1.377 . S
C2081 C2082 1.379 . S
C2082 H2066 0.931 . S
C2082 C2076 1.383 . S
C2082 C2081 1.379 . S
H2083 C2077 0.959 . S
H2084 C2077 0.961 . S
H2085 C2077 0.960 . S
H2086 C2078 0.930 . S
H2087 C2079 0.929 . S
H2088 C2096 0.929 . S
H2089 C2098 0.930 . S
H2090 C2100 0.930 . S
H2091 C2103 0.929 . S
H2092 C2106 0.930 . S
H2093 C2108 0.960 . S
H2094 C2108 0.960 . S
H2095 C2108 0.960 . S
C2096 H2088 0.929 . S
C2096 C2097 1.377 . S
C2096 C2098 1.384 . S
C2097 C2096 1.377 . S
C2097 C2103 1.390 . S
C2098 H2089 0.930 . S
C2098 C2096 1.384 . S
C2098 C2099 1.372 . S
C2099 C2098 1.372 . S
C2099 C2100 1.400 . S
C2099 C2104 1.490 . S
C2100 H2090 0.930 . S
C2100 C2099 1.400 . S
C2100 C2103 1.386 . S
H2101 C2117 0.930 . S
H2102 C2118 0.931 . S
C2103 H2091 0.929 . S
C2103 C2097 1.390 . S
C2103 C2100 1.386 . S
C2104 C2099 1.490 . S
C2104 C2106 1.395 . S
C2104 C2107 1.403 . S
H2105 C2111 0.930 . S
C2106 H2092 0.930 . S
C2106 C2104 1.395 . S
C2106 C2109 1.403 . S
C2107 C2104 1.403 . S
C2107 C2108 1.524 . S
C2107 C2111 1.400 . S
C2108 H2093 0.960 . S
C2108 H2094 0.960 . S
C2108 H2095 0.960 . S
C2108 C2107 1.524 . S
C2109 C2106 1.403 . S
C2109 C2110 1.392 . S
C2109 C2113 1.495 . S
C2110 C2109 1.392 . S
C2110 C2111 1.385 . S
C2110 C2112 1.478 . S
C2111 H2105 0.930 . S
C2111 C2107 1.400 . S
C2111 C2110 1.385 . S
C2112 C2110 1.478 . S
C2112 C2114 1.381 . S
C2112 C2118 1.383 . S
C2113 C2109 1.495 . S
C2113 H2119 0.959 . S
C2113 H2120 0.961 . S
C2113 H2121 0.960 . S
C2114 C2112 1.381 . S
C2114 C2115 1.394 . S
C2114 H2122 0.930 . S
C2115 C2114 1.394 . S
C2115 C2116 1.383 1_554 S
C2115 H2123 0.929 . S
C2116 C2115 1.383 1_556 S
C2116 C2117 1.377 . S
C2117 H2101 0.930 . S
C2117 C2116 1.377 . S
C2117 C2118 1.379 1_556 S
C2118 H2102 0.931 . S
C2118 C2112 1.383 . S
C2118 C2117 1.379 1_554 S
H2119 C2113 0.959 . S
H2120 C2113 0.961 . S
H2121 C2113 0.960 . S
H2122 C2114 0.930 . S
H2123 C2115 0.929 . S
H2124 C2132 0.929 . S
H2125 C2134 0.930 . S
H2126 C2136 0.930 . S
H2127 C2139 0.929 . S
H2128 C2142 0.930 . S
H2129 C2144 0.960 . S
H2130 C2144 0.960 . S
H2131 C2144 0.960 . S
C2132 H2124 0.929 . S
C2132 C2133 1.377 . S
C2132 C2134 1.384 1_556 S
C2133 C2132 1.377 . S
C2133 C2139 1.390 1_556 S
C2134 H2125 0.930 . S
C2134 C2132 1.384 1_554 S
C2134 C2135 1.372 . S
C2135 C2134 1.372 . S
C2135 C2136 1.400 . S
C2135 C2140 1.490 . S
C2136 H2126 0.930 . S
C2136 C2135 1.400 . S
C2136 C2139 1.386 . S
H2137 C2153 0.930 . S
H2138 C2154 0.931 . S
C2139 H2127 0.929 . S
C2139 C2133 1.390 1_554 S
C2139 C2136 1.386 . S
C2140 C2135 1.490 . S
C2140 C2142 1.395 . S
C2140 C2143 1.403 . S
H2141 C2147 0.930 . S
C2142 H2128 0.930 . S
C2142 C2140 1.395 . S
C2142 C2145 1.403 . S
C2143 C2140 1.403 . S
C2143 C2144 1.524 . S
C2143 C2147 1.400 . S
C2144 H2129 0.960 . S
C2144 H2130 0.960 . S
C2144 H2131 0.960 . S
C2144 C2143 1.524 . S
C2145 C2142 1.403 . S
C2145 C2146 1.392 . S
C2145 C2149 1.495 . S
C2146 C2145 1.392 . S
C2146 C2147 1.385 . S
C2146 C2148 1.478 . S
C2147 H2141 0.930 . S
C2147 C2143 1.400 . S
C2147 C2146 1.385 . S
C2148 C2146 1.478 . S
C2148 C2150 1.381 . S
C2148 C2154 1.383 . S
C2149 C2145 1.495 . S
C2149 H2155 0.959 . S
C2149 H2156 0.961 . S
C2149 H2157 0.960 . S
C2150 C2148 1.381 . S
C2150 C2151 1.394 . S
C2150 H2158 0.930 . S
C2151 C2150 1.394 . S
C2151 C2152 1.383 . S
C2151 H2159 0.929 . S
C2152 C2151 1.383 . S
C2152 C2153 1.377 . S
C2153 H2137 0.930 . S
C2153 C2152 1.377 . S
C2153 C2154 1.379 . S
C2154 H2138 0.931 . S
C2154 C2148 1.383 . S
C2154 C2153 1.379 . S
H2155 C2149 0.959 . S
H2156 C2149 0.961 . S
H2157 C2149 0.960 . S
H2158 C2150 0.930 . S
H2159 C2151 0.929 . S
H2160 C2168 0.929 . S
H2161 C2170 0.930 . S
H2162 C2172 0.930 . S
H2163 C2175 0.929 . S
H2164 C2178 0.930 . S
H2165 C2180 0.960 . S
H2166 C2180 0.960 . S
H2167 C2180 0.960 . S
C2168 H2160 0.929 . S
C2168 C2169 1.377 . S
C2168 C2170 1.384 . S
C2169 C2168 1.377 . S
C2169 C2175 1.390 . S
C2170 H2161 0.930 . S
C2170 C2168 1.384 . S
C2170 C2171 1.372 . S
C2171 C2170 1.372 . S
C2171 C2172 1.400 . S
C2171 C2176 1.490 . S
C2172 H2162 0.930 . S
C2172 C2171 1.400 . S
C2172 C2175 1.386 . S
H2173 C2189 0.930 . S
H2174 C2190 0.931 . S
C2175 H2163 0.929 . S
C2175 C2169 1.390 . S
C2175 C2172 1.386 . S
C2176 C2171 1.490 . S
C2176 C2178 1.395 . S
C2176 C2179 1.403 . S
H2177 C2183 0.930 . S
C2178 H2164 0.930 . S
C2178 C2176 1.395 . S
C2178 C2181 1.403 . S
C2179 C2176 1.403 . S
C2179 C2180 1.524 . S
C2179 C2183 1.400 . S
C2180 H2165 0.960 . S
C2180 H2166 0.960 . S
C2180 H2167 0.960 . S
C2180 C2179 1.524 . S
C2181 C2178 1.403 . S
C2181 C2182 1.392 . S
C2181 C2185 1.495 . S
C2182 C2181 1.392 . S
C2182 C2183 1.385 . S
C2182 C2184 1.478 . S
C2183 H2177 0.930 . S
C2183 C2179 1.400 . S
C2183 C2182 1.385 . S
C2184 C2182 1.478 . S
C2184 C2186 1.381 . S
C2184 C2190 1.383 . S
C2185 C2181 1.495 . S
C2185 H2191 0.959 . S
C2185 H2192 0.961 . S
C2185 H2193 0.960 . S
C2186 C2184 1.381 . S
C2186 C2187 1.394 . S
C2186 H2194 0.930 . S
C2187 C2186 1.394 . S
C2187 C2188 1.383 1_554 S
C2187 H2195 0.929 . S
C2188 C2187 1.383 1_556 S
C2188 C2189 1.377 . S
C2189 H2173 0.930 . S
C2189 C2188 1.377 . S
C2189 C2190 1.379 1_556 S
C2190 H2174 0.931 . S
C2190 C2184 1.383 . S
C2190 C2189 1.379 1_554 S
H2191 C2185 0.959 . S
H2192 C2185 0.961 . S
H2193 C2185 0.960 . S
H2194 C2186 0.930 . S
H2195 C2187 0.929 . S
H2196 C2204 0.929 . S
H2197 C2206 0.930 . S
H2198 C2208 0.930 . S
H2199 C2211 0.929 . S
H2200 C2214 0.930 . S
H2201 C2216 0.960 . S
H2202 C2216 0.960 . S
H2203 C2216 0.960 . S
C2204 H2196 0.929 . S
C2204 C2205 1.377 . S
C2204 C2206 1.384 . S
C2205 C2204 1.377 . S
C2205 C2211 1.390 . S
C2206 H2197 0.930 . S
C2206 C2204 1.384 . S
C2206 C2207 1.372 . S
C2207 C2206 1.372 . S
C2207 C2208 1.400 . S
C2207 C2212 1.490 . S
C2208 H2198 0.930 . S
C2208 C2207 1.400 . S
C2208 C2211 1.386 . S
H2209 C2225 0.930 . S
H2210 C2226 0.931 . S
C2211 H2199 0.929 . S
C2211 C2205 1.390 . S
C2211 C2208 1.386 . S
C2212 C2207 1.490 . S
C2212 C2214 1.395 . S
C2212 C2215 1.403 . S
H2213 C2219 0.930 . S
C2214 H2200 0.930 . S
C2214 C2212 1.395 . S
C2214 C2217 1.403 . S
C2215 C2212 1.403 . S
C2215 C2216 1.524 . S
C2215 C2219 1.400 . S
C2216 H2201 0.960 . S
C2216 H2202 0.960 . S
C2216 H2203 0.960 . S
C2216 C2215 1.524 . S
C2217 C2214 1.403 . S
C2217 C2218 1.392 . S
C2217 C2221 1.495 . S
C2218 C2217 1.392 . S
C2218 C2219 1.385 . S
C2218 C2220 1.478 . S
C2219 H2213 0.930 . S
C2219 C2215 1.400 . S
C2219 C2218 1.385 . S
C2220 C2218 1.478 . S
C2220 C2222 1.381 . S
C2220 C2226 1.383 . S
C2221 C2217 1.495 . S
C2221 H2227 0.959 . S
C2221 H2228 0.961 . S
C2221 H2229 0.960 . S
C2222 C2220 1.381 . S
C2222 C2223 1.394 . S
C2222 H2230 0.930 . S
C2223 C2222 1.394 . S
C2223 C2224 1.383 . S
C2223 H2231 0.929 . S
C2224 C2223 1.383 . S
C2224 C2225 1.377 . S
C2225 H2209 0.930 . S
C2225 C2224 1.377 . S
C2225 C2226 1.379 . S
C2226 H2210 0.931 . S
C2226 C2220 1.383 . S
C2226 C2225 1.379 . S
H2227 C2221 0.959 . S
H2228 C2221 0.961 . S
H2229 C2221 0.960 . S
H2230 C2222 0.930 . S
H2231 C2223 0.929 . S
H2232 C2240 0.929 . S
H2233 C2242 0.930 . S
H2234 C2244 0.930 . S
H2235 C2247 0.929 . S
H2236 C2250 0.930 . S
H2237 C2252 0.960 . S
H2238 C2252 0.960 . S
H2239 C2252 0.960 . S
C2240 H2232 0.929 . S
C2240 C2241 1.377 . S
C2240 C2242 1.384 . S
C2241 C2240 1.377 . S
C2241 C2247 1.390 . S
C2242 H2233 0.930 . S
C2242 C2240 1.384 . S
C2242 C2243 1.372 . S
C2243 C2242 1.372 . S
C2243 C2244 1.400 . S
C2243 C2248 1.490 . S
C2244 H2234 0.930 . S
C2244 C2243 1.400 . S
C2244 C2247 1.386 . S
H2245 C2261 0.930 . S
H2246 C2262 0.931 . S
C2247 H2235 0.929 . S
C2247 C2241 1.390 . S
C2247 C2244 1.386 . S
C2248 C2243 1.490 . S
C2248 C2250 1.395 . S
C2248 C2251 1.403 . S
H2249 C2255 0.930 . S
C2250 H2236 0.930 . S
C2250 C2248 1.395 . S
C2250 C2253 1.403 . S
C2251 C2248 1.403 . S
C2251 C2252 1.524 . S
C2251 C2255 1.400 . S
C2252 H2237 0.960 . S
C2252 H2238 0.960 . S
C2252 H2239 0.960 . S
C2252 C2251 1.524 . S
C2253 C2250 1.403 . S
C2253 C2254 1.392 . S
C2253 C2257 1.495 . S
C2254 C2253 1.392 . S
C2254 C2255 1.385 . S
C2254 C2256 1.478 . S
C2255 H2249 0.930 . S
C2255 C2251 1.400 . S
C2255 C2254 1.385 . S
C2256 C2254 1.478 . S
C2256 C2258 1.381 . S
C2256 C2262 1.383 . S
C2257 C2253 1.495 . S
C2257 H2263 0.959 . S
C2257 H2264 0.961 . S
C2257 H2265 0.960 . S
C2258 C2256 1.381 . S
C2258 C2259 1.394 . S
C2258 H2266 0.930 . S
C2259 C2258 1.394 . S
C2259 C2260 1.383 . S
C2259 H2267 0.929 . S
C2260 C2259 1.383 . S
C2260 C2261 1.377 . S
C2261 H2245 0.930 . S
C2261 C2260 1.377 . S
C2261 C2262 1.379 . S
C2262 H2246 0.931 . S
C2262 C2256 1.383 . S
C2262 C2261 1.379 . S
H2263 C2257 0.959 . S
H2264 C2257 0.961 . S
H2265 C2257 0.960 . S
H2266 C2258 0.930 . S
H2267 C2259 0.929 . S
H2268 C2276 0.929 . S
H2269 C2278 0.930 . S
H2270 C2280 0.930 . S
H2271 C2283 0.929 . S
H2272 C2286 0.930 . S
H2273 C2288 0.960 . S
H2274 C2288 0.960 . S
H2275 C2288 0.960 . S
C2276 H2268 0.929 . S
C2276 C2277 1.377 . S
C2276 C2278 1.384 . S
C2277 C2276 1.377 . S
C2277 C2283 1.390 . S
C2278 H2269 0.930 . S
C2278 C2276 1.384 . S
C2278 C2279 1.372 . S
C2279 C2278 1.372 . S
C2279 C2280 1.400 . S
C2279 C2284 1.490 . S
C2280 H2270 0.930 . S
C2280 C2279 1.400 . S
C2280 C2283 1.386 . S
H2281 C2297 0.930 . S
H2282 C2298 0.931 . S
C2283 H2271 0.929 . S
C2283 C2277 1.390 . S
C2283 C2280 1.386 . S
C2284 C2279 1.490 . S
C2284 C2286 1.395 . S
C2284 C2287 1.403 . S
H2285 C2291 0.930 . S
C2286 H2272 0.930 . S
C2286 C2284 1.395 . S
C2286 C2289 1.403 . S
C2287 C2284 1.403 . S
C2287 C2288 1.524 . S
C2287 C2291 1.400 . S
C2288 H2273 0.960 . S
C2288 H2274 0.960 . S
C2288 H2275 0.960 . S
C2288 C2287 1.524 . S
C2289 C2286 1.403 . S
C2289 C2290 1.392 . S
C2289 C2293 1.495 . S
C2290 C2289 1.392 . S
C2290 C2291 1.385 . S
C2290 C2292 1.478 . S
C2291 H2285 0.930 . S
C2291 C2287 1.400 . S
C2291 C2290 1.385 . S
C2292 C2290 1.478 . S
C2292 C2294 1.381 . S
C2292 C2298 1.383 . S
C2293 C2289 1.495 . S
C2293 H2299 0.959 . S
C2293 H2300 0.961 . S
C2293 H2301 0.960 . S
C2294 C2292 1.381 . S
C2294 C2295 1.394 . S
C2294 H2302 0.930 . S
C2295 C2294 1.394 . S
C2295 C2296 1.383 . S
C2295 H2303 0.929 . S
C2296 C2295 1.383 . S
C2296 C2297 1.377 . S
C2297 H2281 0.930 . S
C2297 C2296 1.377 . S
C2297 C2298 1.379 . S
C2298 H2282 0.931 . S
C2298 C2292 1.383 . S
C2298 C2297 1.379 . S
H2299 C2293 0.959 . S
H2300 C2293 0.961 . S
H2301 C2293 0.960 . S
H2302 C2294 0.930 . S
H2303 C2295 0.929 . S
H2304 C2312 0.929 . S
H2305 C2314 0.930 . S
H2306 C2316 0.930 . S
H2307 C2319 0.929 . S
H2308 C2322 0.930 . S
H2309 C2324 0.960 . S
H2310 C2324 0.960 . S
H2311 C2324 0.960 . S
C2312 H2304 0.929 . S
C2312 C2313 1.377 . S
C2312 C2314 1.384 . S
C2313 C2312 1.377 . S
C2313 C2319 1.390 . S
C2314 H2305 0.930 . S
C2314 C2312 1.384 . S
C2314 C2315 1.372 . S
C2315 C2314 1.372 . S
C2315 C2316 1.400 . S
C2315 C2320 1.490 . S
C2316 H2306 0.930 . S
C2316 C2315 1.400 . S
C2316 C2319 1.386 . S
H2317 C2333 0.930 . S
H2318 C2334 0.931 . S
C2319 H2307 0.929 . S
C2319 C2313 1.390 . S
C2319 C2316 1.386 . S
C2320 C2315 1.490 . S
C2320 C2322 1.395 . S
C2320 C2323 1.403 . S
H2321 C2327 0.930 . S
C2322 H2308 0.930 . S
C2322 C2320 1.395 . S
C2322 C2325 1.403 . S
C2323 C2320 1.403 . S
C2323 C2324 1.524 . S
C2323 C2327 1.400 . S
C2324 H2309 0.960 . S
C2324 H2310 0.960 . S
C2324 H2311 0.960 . S
C2324 C2323 1.524 . S
C2325 C2322 1.403 . S
C2325 C2326 1.392 . S
C2325 C2329 1.495 . S
C2326 C2325 1.392 . S
C2326 C2327 1.385 . S
C2326 C2328 1.478 . S
C2327 H2321 0.930 . S
C2327 C2323 1.400 . S
C2327 C2326 1.385 . S
C2328 C2326 1.478 . S
C2328 C2330 1.381 . S
C2328 C2334 1.383 . S
C2329 C2325 1.495 . S
C2329 H2335 0.959 . S
C2329 H2336 0.961 . S
C2329 H2337 0.960 . S
C2330 C2328 1.381 . S
C2330 C2331 1.394 . S
C2330 H2338 0.930 . S
C2331 C2330 1.394 . S
C2331 C2332 1.383 . S
C2331 H2339 0.929 . S
C2332 C2331 1.383 . S
C2332 C2333 1.377 . S
C2333 H2317 0.930 . S
C2333 C2332 1.377 . S
C2333 C2334 1.379 . S
C2334 H2318 0.931 . S
C2334 C2328 1.383 . S
C2334 C2333 1.379 . S
H2335 C2329 0.959 . S
H2336 C2329 0.961 . S
H2337 C2329 0.960 . S
H2338 C2330 0.930 . S
H2339 C2331 0.929 . S
H2340 C2348 0.929 . S
H2341 C2350 0.930 . S
H2342 C2352 0.930 . S
H2343 C2355 0.929 . S
H2344 C2358 0.930 . S
H2345 C2360 0.960 . S
H2346 C2360 0.960 . S
H2347 C2360 0.960 . S
C2348 H2340 0.929 . S
C2348 C2349 1.377 . S
C2348 C2350 1.384 . S
C2349 C2348 1.377 . S
C2349 C2355 1.390 . S
C2350 H2341 0.930 . S
C2350 C2348 1.384 . S
C2350 C2351 1.372 . S
C2351 C2350 1.372 . S
C2351 C2352 1.400 . S
C2351 C2356 1.490 . S
C2352 H2342 0.930 . S
C2352 C2351 1.400 . S
C2352 C2355 1.386 . S
H2353 C2369 0.930 . S
H2354 C2370 0.931 . S
C2355 H2343 0.929 . S
C2355 C2349 1.390 . S
C2355 C2352 1.386 . S
C2356 C2351 1.490 . S
C2356 C2358 1.395 . S
C2356 C2359 1.403 . S
H2357 C2363 0.930 . S
C2358 H2344 0.930 . S
C2358 C2356 1.395 . S
C2358 C2361 1.403 . S
C2359 C2356 1.403 . S
C2359 C2360 1.524 . S
C2359 C2363 1.400 . S
C2360 H2345 0.960 . S
C2360 H2346 0.960 . S
C2360 H2347 0.960 . S
C2360 C2359 1.524 . S
C2361 C2358 1.403 . S
C2361 C2362 1.392 . S
C2361 C2365 1.495 . S
C2362 C2361 1.392 . S
C2362 C2363 1.385 . S
C2362 C2364 1.478 . S
C2363 H2357 0.930 . S
C2363 C2359 1.400 . S
C2363 C2362 1.385 . S
C2364 C2362 1.478 . S
C2364 C2366 1.381 . S
C2364 C2370 1.383 . S
C2365 C2361 1.495 . S
C2365 H2371 0.959 . S
C2365 H2372 0.961 . S
C2365 H2373 0.960 . S
C2366 C2364 1.381 . S
C2366 C2367 1.394 . S
C2366 H2374 0.930 . S
C2367 C2366 1.394 . S
C2367 C2368 1.383 . S
C2367 H2375 0.929 . S
C2368 C2367 1.383 . S
C2368 C2369 1.377 . S
C2369 H2353 0.930 . S
C2369 C2368 1.377 . S
C2369 C2370 1.379 . S
C2370 H2354 0.931 . S
C2370 C2364 1.383 . S
C2370 C2369 1.379 . S
H2371 C2365 0.959 . S
H2372 C2365 0.961 . S
H2373 C2365 0.960 . S
H2374 C2366 0.930 . S
H2375 C2367 0.929 . S
H2376 C2384 0.929 . S
H2377 C2386 0.930 . S
H2378 C2388 0.930 . S
H2379 C2391 0.929 . S
H2380 C2394 0.930 . S
H2381 C2396 0.960 . S
H2382 C2396 0.960 . S
H2383 C2396 0.960 . S
C2384 H2376 0.929 . S
C2384 C2385 1.377 . S
C2384 C2386 1.384 . S
C2385 C2384 1.377 . S
C2385 C2391 1.390 . S
C2386 H2377 0.930 . S
C2386 C2384 1.384 . S
C2386 C2387 1.372 . S
C2387 C2386 1.372 . S
C2387 C2388 1.400 . S
C2387 C2392 1.490 . S
C2388 H2378 0.930 . S
C2388 C2387 1.400 . S
C2388 C2391 1.386 . S
H2389 C2405 0.930 . S
H2390 C2406 0.931 . S
C2391 H2379 0.929 . S
C2391 C2385 1.390 . S
C2391 C2388 1.386 . S
C2392 C2387 1.490 . S
C2392 C2394 1.395 . S
C2392 C2395 1.403 . S
H2393 C2399 0.930 . S
C2394 H2380 0.930 . S
C2394 C2392 1.395 . S
C2394 C2397 1.403 . S
C2395 C2392 1.403 . S
C2395 C2396 1.524 . S
C2395 C2399 1.400 . S
C2396 H2381 0.960 . S
C2396 H2382 0.960 . S
C2396 H2383 0.960 . S
C2396 C2395 1.524 . S
C2397 C2394 1.403 . S
C2397 C2398 1.392 . S
C2397 C2401 1.495 . S
C2398 C2397 1.392 . S
C2398 C2399 1.385 . S
C2398 C2400 1.478 . S
C2399 H2393 0.930 . S
C2399 C2395 1.400 . S
C2399 C2398 1.385 . S
C2400 C2398 1.478 . S
C2400 C2402 1.381 . S
C2400 C2406 1.383 . S
C2401 C2397 1.495 . S
C2401 H2407 0.959 . S
C2401 H2408 0.961 . S
C2401 H2409 0.960 . S
C2402 C2400 1.381 . S
C2402 C2403 1.394 . S
C2402 H2410 0.930 . S
C2403 C2402 1.394 . S
C2403 C2404 1.383 . S
C2403 H2411 0.929 . S
C2404 C2403 1.383 . S
C2404 C2405 1.377 . S
C2405 H2389 0.930 . S
C2405 C2404 1.377 . S
C2405 C2406 1.379 . S
C2406 H2390 0.931 . S
C2406 C2400 1.383 . S
C2406 C2405 1.379 . S
H2407 C2401 0.959 . S
H2408 C2401 0.961 . S
H2409 C2401 0.960 . S
H2410 C2402 0.930 . S
H2411 C2403 0.929 . S
H2412 C2420 0.929 . S
H2413 C2422 0.930 . S
H2414 C2424 0.930 . S
H2415 C2427 0.929 . S
H2416 C2430 0.930 . S
H2417 C2432 0.960 . S
H2418 C2432 0.960 . S
H2419 C2432 0.960 . S
C2420 H2412 0.929 . S
C2420 C2421 1.377 . S
C2420 C2422 1.384 . S
C2421 C2420 1.377 . S
C2421 C2427 1.390 . S
C2422 H2413 0.930 . S
C2422 C2420 1.384 . S
C2422 C2423 1.372 . S
C2423 C2422 1.372 . S
C2423 C2424 1.400 . S
C2423 C2428 1.490 . S
C2424 H2414 0.930 . S
C2424 C2423 1.400 . S
C2424 C2427 1.386 . S
H2425 C2441 0.930 . S
H2426 C2442 0.931 . S
C2427 H2415 0.929 . S
C2427 C2421 1.390 . S
C2427 C2424 1.386 . S
C2428 C2423 1.490 . S
C2428 C2430 1.395 . S
C2428 C2431 1.403 . S
H2429 C2435 0.930 . S
C2430 H2416 0.930 . S
C2430 C2428 1.395 . S
C2430 C2433 1.403 . S
C2431 C2428 1.403 . S
C2431 C2432 1.524 . S
C2431 C2435 1.400 . S
C2432 H2417 0.960 . S
C2432 H2418 0.960 . S
C2432 H2419 0.960 . S
C2432 C2431 1.524 . S
C2433 C2430 1.403 . S
C2433 C2434 1.392 . S
C2433 C2437 1.495 1_556 S
C2434 C2433 1.392 . S
C2434 C2435 1.385 . S
C2434 C2436 1.478 1_556 S
C2435 H2429 0.930 . S
C2435 C2431 1.400 . S
C2435 C2434 1.385 . S
C2436 C2434 1.478 1_554 S
C2436 C2438 1.381 . S
C2436 C2442 1.383 . S
C2437 C2433 1.495 1_554 S
C2437 H2443 0.959 . S
C2437 H2444 0.961 . S
C2437 H2445 0.960 . S
C2438 C2436 1.381 . S
C2438 C2439 1.394 . S
C2438 H2446 0.930 . S
C2439 C2438 1.394 . S
C2439 C2440 1.383 . S
C2439 H2447 0.929 . S
C2440 C2439 1.383 . S
C2440 C2441 1.377 . S
C2441 H2425 0.930 . S
C2441 C2440 1.377 . S
C2441 C2442 1.379 . S
C2442 H2426 0.931 . S
C2442 C2436 1.383 . S
C2442 C2441 1.379 . S
H2443 C2437 0.959 . S
H2444 C2437 0.961 . S
H2445 C2437 0.960 . S
H2446 C2438 0.930 . S
H2447 C2439 0.929 . S
H2448 C2456 0.929 . S
H2449 C2458 0.930 . S
H2450 C2460 0.930 . S
H2451 C2463 0.929 . S
H2452 C2466 0.930 . S
H2453 C2468 0.960 1_554 S
H2454 C2468 0.960 . S
H2455 C2468 0.960 . S
C2456 H2448 0.929 . S
C2456 C2457 1.377 . S
C2456 C2458 1.384 . S
C2457 C2456 1.377 . S
C2457 C2463 1.390 . S
C2458 H2449 0.930 . S
C2458 C2456 1.384 . S
C2458 C2459 1.372 . S
C2459 C2458 1.372 . S
C2459 C2460 1.400 . S
C2459 C2464 1.490 . S
C2460 H2450 0.930 . S
C2460 C2459 1.400 . S
C2460 C2463 1.386 . S
H2461 C2477 0.930 . S
H2462 C2478 0.931 . S
C2463 H2451 0.929 . S
C2463 C2457 1.390 . S
C2463 C2460 1.386 . S
C2464 C2459 1.490 . S
C2464 C2466 1.395 . S
C2464 C2467 1.403 . S
H2465 C2471 0.930 1_554 S
C2466 H2452 0.930 . S
C2466 C2464 1.395 . S
C2466 C2469 1.403 . S
C2467 C2464 1.403 . S
C2467 C2468 1.524 . S
C2467 C2471 1.400 . S
C2468 H2453 0.960 1_556 S
C2468 H2454 0.960 . S
C2468 H2455 0.960 . S
C2468 C2467 1.524 . S
C2469 C2466 1.403 . S
C2469 C2470 1.392 . S
C2469 C2473 1.495 . S
C2470 C2469 1.392 . S
C2470 C2471 1.385 . S
C2470 C2472 1.478 1_556 S
C2471 H2465 0.930 1_556 S
C2471 C2467 1.400 . S
C2471 C2470 1.385 . S
C2472 C2470 1.478 1_554 S
C2472 C2474 1.381 . S
C2472 C2478 1.383 . S
C2473 C2469 1.495 . S
C2473 H2479 0.959 . S
C2473 H2480 0.961 . S
C2473 H2481 0.960 . S
C2474 C2472 1.381 . S
C2474 C2475 1.394 . S
C2474 H2482 0.930 . S
C2475 C2474 1.394 . S
C2475 C2476 1.383 . S
C2475 H2483 0.929 . S
C2476 C2475 1.383 . S
C2476 C2477 1.377 . S
C2477 H2461 0.930 . S
C2477 C2476 1.377 . S
C2477 C2478 1.379 . S
C2478 H2462 0.931 . S
C2478 C2472 1.383 . S
C2478 C2477 1.379 . S
H2479 C2473 0.959 . S
H2480 C2473 0.961 . S
H2481 C2473 0.960 . S
H2482 C2474 0.930 . S
H2483 C2475 0.929 . S
H2484 C2492 0.929 . S
H2485 C2494 0.930 . S
H2486 C2496 0.930 . S
H2487 C2499 0.929 . S
H2488 C2502 0.930 . S
H2489 C2504 0.960 . S
H2490 C2504 0.960 . S
H2491 C2504 0.960 . S
C2492 H2484 0.929 . S
C2492 C2493 1.377 . S
C2492 C2494 1.384 . S
C2493 C2492 1.377 . S
C2493 C2499 1.390 . S
C2494 H2485 0.930 . S
C2494 C2492 1.384 . S
C2494 C2495 1.372 . S
C2495 C2494 1.372 . S
C2495 C2496 1.400 . S
C2495 C2500 1.490 . S
C2496 H2486 0.930 . S
C2496 C2495 1.400 . S
C2496 C2499 1.386 . S
H2497 C2513 0.930 . S
H2498 C2514 0.931 . S
C2499 H2487 0.929 . S
C2499 C2493 1.390 . S
C2499 C2496 1.386 . S
C2500 C2495 1.490 . S
C2500 C2502 1.395 . S
C2500 C2503 1.403 . S
H2501 C2507 0.930 . S
C2502 H2488 0.930 . S
C2502 C2500 1.395 . S
C2502 C2505 1.403 . S
C2503 C2500 1.403 . S
C2503 C2504 1.524 . S
C2503 C2507 1.400 . S
C2504 H2489 0.960 . S
C2504 H2490 0.960 . S
C2504 H2491 0.960 . S
C2504 C2503 1.524 . S
C2505 C2502 1.403 . S
C2505 C2506 1.392 . S
C2505 C2509 1.495 1_556 S
C2506 C2505 1.392 . S
C2506 C2507 1.385 . S
C2506 C2508 1.478 1_556 S
C2507 H2501 0.930 . S
C2507 C2503 1.400 . S
C2507 C2506 1.385 . S
C2508 C2506 1.478 1_554 S
C2508 C2510 1.381 . S
C2508 C2514 1.383 . S
C2509 C2505 1.495 1_554 S
C2509 H2515 0.959 1_554 S
C2509 H2516 0.961 . S
C2509 H2517 0.960 1_554 S
C2510 C2508 1.381 . S
C2510 C2511 1.394 . S
C2510 H2518 0.930 1_554 S
C2511 C2510 1.394 . S
C2511 C2512 1.383 . S
C2511 H2519 0.929 . S
C2512 C2511 1.383 . S
C2512 C2513 1.377 . S
C2513 H2497 0.930 . S
C2513 C2512 1.377 . S
C2513 C2514 1.379 . S
C2514 H2498 0.931 . S
C2514 C2508 1.383 . S
C2514 C2513 1.379 . S
H2515 C2509 0.959 1_556 S
H2516 C2509 0.961 . S
H2517 C2509 0.960 1_556 S
H2518 C2510 0.930 1_556 S
H2519 C2511 0.929 . S
H2520 C2528 0.929 . S
H2521 C2530 0.930 . S
H2522 C2532 0.930 . S
H2523 C2535 0.929 . S
H2524 C2538 0.930 . S
H2525 C2540 0.960 . S
H2526 C2540 0.960 . S
H2527 C2540 0.960 . S
C2528 H2520 0.929 . S
C2528 C2529 1.377 . S
C2528 C2530 1.384 . S
C2529 C2528 1.377 . S
C2529 C2535 1.390 . S
C2530 H2521 0.930 . S
C2530 C2528 1.384 . S
C2530 C2531 1.372 . S
C2531 C2530 1.372 . S
C2531 C2532 1.400 . S
C2531 C2536 1.490 . S
C2532 H2522 0.930 . S
C2532 C2531 1.400 . S
C2532 C2535 1.386 . S
H2533 C2549 0.930 . S
H2534 C2550 0.931 . S
C2535 H2523 0.929 . S
C2535 C2529 1.390 . S
C2535 C2532 1.386 . S
C2536 C2531 1.490 . S
C2536 C2538 1.395 . S
C2536 C2539 1.403 . S
H2537 C2543 0.930 . S
C2538 H2524 0.930 . S
C2538 C2536 1.395 . S
C2538 C2541 1.403 . S
C2539 C2536 1.403 . S
C2539 C2540 1.524 . S
C2539 C2543 1.400 . S
C2540 H2525 0.960 . S
C2540 H2526 0.960 . S
C2540 H2527 0.960 . S
C2540 C2539 1.524 . S
C2541 C2538 1.403 . S
C2541 C2542 1.392 . S
C2541 C2545 1.495 . S
C2542 C2541 1.392 . S
C2542 C2543 1.385 . S
C2542 C2544 1.478 . S
C2543 H2537 0.930 . S
C2543 C2539 1.400 . S
C2543 C2542 1.385 . S
C2544 C2542 1.478 . S
C2544 C2546 1.381 . S
C2544 C2550 1.383 . S
C2545 C2541 1.495 . S
C2545 H2551 0.959 . S
C2545 H2552 0.961 . S
C2545 H2553 0.960 . S
C2546 C2544 1.381 . S
C2546 C2547 1.394 . S
C2546 H2554 0.930 . S
C2547 C2546 1.394 . S
C2547 C2548 1.383 . S
C2547 H2555 0.929 . S
C2548 C2547 1.383 . S
C2548 C2549 1.377 . S
C2549 H2533 0.930 . S
C2549 C2548 1.377 . S
C2549 C2550 1.379 . S
C2550 H2534 0.931 . S
C2550 C2544 1.383 . S
C2550 C2549 1.379 . S
H2551 C2545 0.959 . S
H2552 C2545 0.961 . S
H2553 C2545 0.960 . S
H2554 C2546 0.930 . S
H2555 C2547 0.929 . S
H2556 C2564 0.929 . S
H2557 C2566 0.930 . S
H2558 C2568 0.930 . S
H2559 C2571 0.929 . S
H2560 C2574 0.930 . S
H2561 C2576 0.960 . S
H2562 C2576 0.960 . S
H2563 C2576 0.960 . S
C2564 H2556 0.929 . S
C2564 C2565 1.377 . S
C2564 C2566 1.384 . S
C2565 C2564 1.377 . S
C2565 C2571 1.390 . S
C2566 H2557 0.930 . S
C2566 C2564 1.384 . S
C2566 C2567 1.372 . S
C2567 C2566 1.372 . S
C2567 C2568 1.400 . S
C2567 C2572 1.490 . S
C2568 H2558 0.930 . S
C2568 C2567 1.400 . S
C2568 C2571 1.386 . S
H2569 C2585 0.930 . S
H2570 C2586 0.931 . S
C2571 H2559 0.929 . S
C2571 C2565 1.390 . S
C2571 C2568 1.386 . S
C2572 C2567 1.490 . S
C2572 C2574 1.395 . S
C2572 C2575 1.403 . S
H2573 C2579 0.930 . S
C2574 H2560 0.930 . S
C2574 C2572 1.395 . S
C2574 C2577 1.403 . S
C2575 C2572 1.403 . S
C2575 C2576 1.524 . S
C2575 C2579 1.400 . S
C2576 H2561 0.960 . S
C2576 H2562 0.960 . S
C2576 H2563 0.960 . S
C2576 C2575 1.524 . S
C2577 C2574 1.403 . S
C2577 C2578 1.392 . S
C2577 C2581 1.495 . S
C2578 C2577 1.392 . S
C2578 C2579 1.385 . S
C2578 C2580 1.478 . S
C2579 H2573 0.930 . S
C2579 C2575 1.400 . S
C2579 C2578 1.385 . S
C2580 C2578 1.478 . S
C2580 C2582 1.381 . S
C2580 C2586 1.383 . S
C2581 C2577 1.495 . S
C2581 H2587 0.959 . S
C2581 H2588 0.961 . S
C2581 H2589 0.960 . S
C2582 C2580 1.381 . S
C2582 C2583 1.394 . S
C2582 H2590 0.930 . S
C2583 C2582 1.394 . S
C2583 C2584 1.383 . S
C2583 H2591 0.929 . S
C2584 C2583 1.383 . S
C2584 C2585 1.377 . S
C2585 H2569 0.930 . S
C2585 C2584 1.377 . S
C2585 C2586 1.379 . S
C2586 H2570 0.931 . S
C2586 C2580 1.383 . S
C2586 C2585 1.379 . S
H2587 C2581 0.959 . S
H2588 C2581 0.961 . S
H2589 C2581 0.960 . S
H2590 C2582 0.930 . S
H2591 C2583 0.929 . S
H2592 C2600 0.929 . S
H2593 C2602 0.930 . S
H2594 C2604 0.930 . S
H2595 C2607 0.929 . S
H2596 C2610 0.930 . S
H2597 C2612 0.960 . S
H2598 C2612 0.960 . S
H2599 C2612 0.960 . S
C2600 H2592 0.929 . S
C2600 C2601 1.377 . S
C2600 C2602 1.384 . S
C2601 C2600 1.377 . S
C2601 C2607 1.390 . S
C2602 H2593 0.930 . S
C2602 C2600 1.384 . S
C2602 C2603 1.372 . S
C2603 C2602 1.372 . S
C2603 C2604 1.400 . S
C2603 C2608 1.490 . S
C2604 H2594 0.930 . S
C2604 C2603 1.400 . S
C2604 C2607 1.386 . S
H2605 C2621 0.930 . S
H2606 C2622 0.931 . S
C2607 H2595 0.929 . S
C2607 C2601 1.390 . S
C2607 C2604 1.386 . S
C2608 C2603 1.490 . S
C2608 C2610 1.395 . S
C2608 C2611 1.403 . S
H2609 C2615 0.930 . S
C2610 H2596 0.930 . S
C2610 C2608 1.395 . S
C2610 C2613 1.403 . S
C2611 C2608 1.403 . S
C2611 C2612 1.524 . S
C2611 C2615 1.400 . S
C2612 H2597 0.960 . S
C2612 H2598 0.960 . S
C2612 H2599 0.960 . S
C2612 C2611 1.524 . S
C2613 C2610 1.403 . S
C2613 C2614 1.392 . S
C2613 C2617 1.495 . S
C2614 C2613 1.392 . S
C2614 C2615 1.385 . S
C2614 C2616 1.478 . S
C2615 H2609 0.930 . S
C2615 C2611 1.400 . S
C2615 C2614 1.385 . S
C2616 C2614 1.478 . S
C2616 C2618 1.381 . S
C2616 C2622 1.383 . S
C2617 C2613 1.495 . S
C2617 H2623 0.959 . S
C2617 H2624 0.961 . S
C2617 H2625 0.960 . S
C2618 C2616 1.381 . S
C2618 C2619 1.394 . S
C2618 H2626 0.930 . S
C2619 C2618 1.394 . S
C2619 C2620 1.383 . S
C2619 H2627 0.929 . S
C2620 C2619 1.383 . S
C2620 C2621 1.377 . S
C2621 H2605 0.930 . S
C2621 C2620 1.377 . S
C2621 C2622 1.379 . S
C2622 H2606 0.931 . S
C2622 C2616 1.383 . S
C2622 C2621 1.379 . S
H2623 C2617 0.959 . S
H2624 C2617 0.961 . S
H2625 C2617 0.960 . S
H2626 C2618 0.930 . S
H2627 C2619 0.929 . S
H2628 C2636 0.929 . S
H2629 C2638 0.930 . S
H2630 C2640 0.930 . S
H2631 C2643 0.929 . S
H2632 C2646 0.930 . S
H2633 C2648 0.960 . S
H2634 C2648 0.960 . S
H2635 C2648 0.960 . S
C2636 H2628 0.929 . S
C2636 C2637 1.377 . S
C2636 C2638 1.384 . S
C2637 C2636 1.377 . S
C2637 C2643 1.390 . S
C2638 H2629 0.930 . S
C2638 C2636 1.384 . S
C2638 C2639 1.372 . S
C2639 C2638 1.372 . S
C2639 C2640 1.400 . S
C2639 C2644 1.490 . S
C2640 H2630 0.930 . S
C2640 C2639 1.400 . S
C2640 C2643 1.386 . S
H2641 C2657 0.930 . S
H2642 C2658 0.931 . S
C2643 H2631 0.929 . S
C2643 C2637 1.390 . S
C2643 C2640 1.386 . S
C2644 C2639 1.490 . S
C2644 C2646 1.395 . S
C2644 C2647 1.403 . S
H2645 C2651 0.930 . S
C2646 H2632 0.930 . S
C2646 C2644 1.395 . S
C2646 C2649 1.403 . S
C2647 C2644 1.403 . S
C2647 C2648 1.524 . S
C2647 C2651 1.400 . S
C2648 H2633 0.960 . S
C2648 H2634 0.960 . S
C2648 H2635 0.960 . S
C2648 C2647 1.524 . S
C2649 C2646 1.403 . S
C2649 C2650 1.392 . S
C2649 C2653 1.495 . S
C2650 C2649 1.392 . S
C2650 C2651 1.385 . S
C2650 C2652 1.478 . S
C2651 H2645 0.930 . S
C2651 C2647 1.400 . S
C2651 C2650 1.385 . S
C2652 C2650 1.478 . S
C2652 C2654 1.381 . S
C2652 C2658 1.383 . S
C2653 C2649 1.495 . S
C2653 H2659 0.959 . S
C2653 H2660 0.961 . S
C2653 H2661 0.960 . S
C2654 C2652 1.381 . S
C2654 C2655 1.394 . S
C2654 H2662 0.930 . S
C2655 C2654 1.394 . S
C2655 C2656 1.383 . S
C2655 H2663 0.929 . S
C2656 C2655 1.383 . S
C2656 C2657 1.377 . S
C2657 H2641 0.930 . S
C2657 C2656 1.377 . S
C2657 C2658 1.379 . S
C2658 H2642 0.931 . S
C2658 C2652 1.383 . S
C2658 C2657 1.379 . S
H2659 C2653 0.959 . S
H2660 C2653 0.961 . S
H2661 C2653 0.960 . S
H2662 C2654 0.930 . S
H2663 C2655 0.929 . S
H2664 C2672 0.929 . S
H2665 C2674 0.930 . S
H2666 C2676 0.930 . S
H2667 C2679 0.929 . S
H2668 C2682 0.930 . S
H2669 C2684 0.960 . S
H2670 C2684 0.960 . S
H2671 C2684 0.960 . S
C2672 H2664 0.929 . S
C2672 C2673 1.377 . S
C2672 C2674 1.384 . S
C2673 C2672 1.377 . S
C2673 C2679 1.390 . S
C2674 H2665 0.930 . S
C2674 C2672 1.384 . S
C2674 C2675 1.372 . S
C2675 C2674 1.372 . S
C2675 C2676 1.400 . S
C2675 C2680 1.490 . S
C2676 H2666 0.930 . S
C2676 C2675 1.400 . S
C2676 C2679 1.386 . S
H2677 C2693 0.930 . S
H2678 C2694 0.931 . S
C2679 H2667 0.929 . S
C2679 C2673 1.390 . S
C2679 C2676 1.386 . S
C2680 C2675 1.490 . S
C2680 C2682 1.395 . S
C2680 C2683 1.403 . S
H2681 C2687 0.930 . S
C2682 H2668 0.930 . S
C2682 C2680 1.395 . S
C2682 C2685 1.403 . S
C2683 C2680 1.403 . S
C2683 C2684 1.524 . S
C2683 C2687 1.400 . S
C2684 H2669 0.960 . S
C2684 H2670 0.960 . S
C2684 H2671 0.960 . S
C2684 C2683 1.524 . S
C2685 C2682 1.403 . S
C2685 C2686 1.392 . S
C2685 C2689 1.495 . S
C2686 C2685 1.392 . S
C2686 C2687 1.385 . S
C2686 C2688 1.478 . S
C2687 H2681 0.930 . S
C2687 C2683 1.400 . S
C2687 C2686 1.385 . S
C2688 C2686 1.478 . S
C2688 C2690 1.381 . S
C2688 C2694 1.383 . S
C2689 C2685 1.495 . S
C2689 H2695 0.959 . S
C2689 H2696 0.961 . S
C2689 H2697 0.960 . S
C2690 C2688 1.381 . S
C2690 C2691 1.394 . S
C2690 H2698 0.930 . S
C2691 C2690 1.394 . S
C2691 C2692 1.383 . S
C2691 H2699 0.929 . S
C2692 C2691 1.383 . S
C2692 C2693 1.377 . S
C2693 H2677 0.930 . S
C2693 C2692 1.377 . S
C2693 C2694 1.379 . S
C2694 H2678 0.931 . S
C2694 C2688 1.383 . S
C2694 C2693 1.379 . S
H2695 C2689 0.959 . S
H2696 C2689 0.961 . S
H2697 C2689 0.960 . S
H2698 C2690 0.930 . S
H2699 C2691 0.929 . S
H2700 C2708 0.929 . S
H2701 C2710 0.930 . S
H2702 C2712 0.930 . S
H2703 C2715 0.929 . S
H2704 C2718 0.930 . S
H2705 C2720 0.960 . S
H2706 C2720 0.960 . S
H2707 C2720 0.960 . S
C2708 H2700 0.929 . S
C2708 C2709 1.377 . S
C2708 C2710 1.384 . S
C2709 C2708 1.377 . S
C2709 C2715 1.390 . S
C2710 H2701 0.930 . S
C2710 C2708 1.384 . S
C2710 C2711 1.372 . S
C2711 C2710 1.372 . S
C2711 C2712 1.400 . S
C2711 C2716 1.490 . S
C2712 H2702 0.930 . S
C2712 C2711 1.400 . S
C2712 C2715 1.386 . S
H2713 C2729 0.930 . S
H2714 C2730 0.931 . S
C2715 H2703 0.929 . S
C2715 C2709 1.390 . S
C2715 C2712 1.386 . S
C2716 C2711 1.490 . S
C2716 C2718 1.395 . S
C2716 C2719 1.403 . S
H2717 C2723 0.930 . S
C2718 H2704 0.930 . S
C2718 C2716 1.395 . S
C2718 C2721 1.403 . S
C2719 C2716 1.403 . S
C2719 C2720 1.524 . S
C2719 C2723 1.400 . S
C2720 H2705 0.960 . S
C2720 H2706 0.960 . S
C2720 H2707 0.960 . S
C2720 C2719 1.524 . S
C2721 C2718 1.403 . S
C2721 C2722 1.392 . S
C2721 C2725 1.495 . S
C2722 C2721 1.392 . S
C2722 C2723 1.385 . S
C2722 C2724 1.478 . S
C2723 H2717 0.930 . S
C2723 C2719 1.400 . S
C2723 C2722 1.385 . S
C2724 C2722 1.478 . S
C2724 C2726 1.381 . S
C2724 C2730 1.383 . S
C2725 C2721 1.495 . S
C2725 H2731 0.959 . S
C2725 H2732 0.961 . S
C2725 H2733 0.960 . S
C2726 C2724 1.381 . S
C2726 C2727 1.394 . S
C2726 H2734 0.930 . S
C2727 C2726 1.394 . S
C2727 C2728 1.383 . S
C2727 H2735 0.929 . S
C2728 C2727 1.383 . S
C2728 C2729 1.377 . S
C2729 H2713 0.930 . S
C2729 C2728 1.377 . S
C2729 C2730 1.379 . S
C2730 H2714 0.931 . S
C2730 C2724 1.383 . S
C2730 C2729 1.379 . S
H2731 C2725 0.959 . S
H2732 C2725 0.961 . S
H2733 C2725 0.960 . S
H2734 C2726 0.930 . S
H2735 C2727 0.929 . S
H2736 C2744 0.929 . S
H2737 C2746 0.930 . S
H2738 C2748 0.930 . S
H2739 C2751 0.929 . S
H2740 C2754 0.930 . S
H2741 C2756 0.960 . S
H2742 C2756 0.960 . S
H2743 C2756 0.960 . S
C2744 H2736 0.929 . S
C2744 C2745 1.377 . S
C2744 C2746 1.384 . S
C2745 C2744 1.377 . S
C2745 C2751 1.390 . S
C2746 H2737 0.930 . S
C2746 C2744 1.384 . S
C2746 C2747 1.372 . S
C2747 C2746 1.372 . S
C2747 C2748 1.400 . S
C2747 C2752 1.490 . S
C2748 H2738 0.930 . S
C2748 C2747 1.400 . S
C2748 C2751 1.386 . S
H2749 C2765 0.930 . S
H2750 C2766 0.931 . S
C2751 H2739 0.929 . S
C2751 C2745 1.390 . S
C2751 C2748 1.386 . S
C2752 C2747 1.490 . S
C2752 C2754 1.395 . S
C2752 C2755 1.403 . S
H2753 C2759 0.930 . S
C2754 H2740 0.930 . S
C2754 C2752 1.395 . S
C2754 C2757 1.403 . S
C2755 C2752 1.403 . S
C2755 C2756 1.524 . S
C2755 C2759 1.400 . S
C2756 H2741 0.960 . S
C2756 H2742 0.960 . S
C2756 H2743 0.960 . S
C2756 C2755 1.524 . S
C2757 C2754 1.403 . S
C2757 C2758 1.392 . S
C2757 C2761 1.495 . S
C2758 C2757 1.392 . S
C2758 C2759 1.385 . S
C2758 C2760 1.478 . S
C2759 H2753 0.930 . S
C2759 C2755 1.400 . S
C2759 C2758 1.385 . S
C2760 C2758 1.478 . S
C2760 C2762 1.381 . S
C2760 C2766 1.383 . S
C2761 C2757 1.495 . S
C2761 H2767 0.959 . S
C2761 H2768 0.961 . S
C2761 H2769 0.960 . S
C2762 C2760 1.381 . S
C2762 C2763 1.394 . S
C2762 H2770 0.930 . S
C2763 C2762 1.394 . S
C2763 C2764 1.383 . S
C2763 H2771 0.929 . S
C2764 C2763 1.383 . S
C2764 C2765 1.377 . S
C2765 H2749 0.930 . S
C2765 C2764 1.377 . S
C2765 C2766 1.379 . S
C2766 H2750 0.931 . S
C2766 C2760 1.383 . S
C2766 C2765 1.379 . S
H2767 C2761 0.959 . S
H2768 C2761 0.961 . S
H2769 C2761 0.960 . S
H2770 C2762 0.930 . S
H2771 C2763 0.929 . S
H2772 C2780 0.929 . S
H2773 C2782 0.930 . S
H2774 C2784 0.930 . S
H2775 C2787 0.929 . S
H2776 C2790 0.930 . S
H2777 C2792 0.960 . S
H2778 C2792 0.960 . S
H2779 C2792 0.960 . S
C2780 H2772 0.929 . S
C2780 C2781 1.377 . S
C2780 C2782 1.384 . S
C2781 C2780 1.377 . S
C2781 C2787 1.390 . S
C2782 H2773 0.930 . S
C2782 C2780 1.384 . S
C2782 C2783 1.372 . S
C2783 C2782 1.372 . S
C2783 C2784 1.400 . S
C2783 C2788 1.490 . S
C2784 H2774 0.930 . S
C2784 C2783 1.400 . S
C2784 C2787 1.386 . S
H2785 C2801 0.930 . S
H2786 C2802 0.931 . S
C2787 H2775 0.929 . S
C2787 C2781 1.390 . S
C2787 C2784 1.386 . S
C2788 C2783 1.490 . S
C2788 C2790 1.395 . S
C2788 C2791 1.403 . S
H2789 C2795 0.930 . S
C2790 H2776 0.930 . S
C2790 C2788 1.395 . S
C2790 C2793 1.403 . S
C2791 C2788 1.403 . S
C2791 C2792 1.524 . S
C2791 C2795 1.400 . S
C2792 H2777 0.960 . S
C2792 H2778 0.960 . S
C2792 H2779 0.960 . S
C2792 C2791 1.524 . S
C2793 C2790 1.403 . S
C2793 C2794 1.392 . S
C2793 C2797 1.495 . S
C2794 C2793 1.392 . S
C2794 C2795 1.385 . S
C2794 C2796 1.478 . S
C2795 H2789 0.930 . S
C2795 C2791 1.400 . S
C2795 C2794 1.385 . S
C2796 C2794 1.478 . S
C2796 C2798 1.381 . S
C2796 C2802 1.383 . S
C2797 C2793 1.495 . S
C2797 H2803 0.959 . S
C2797 H2804 0.961 . S
C2797 H2805 0.960 . S
C2798 C2796 1.381 . S
C2798 C2799 1.394 . S
C2798 H2806 0.930 . S
C2799 C2798 1.394 . S
C2799 C2800 1.383 . S
C2799 H2807 0.929 . S
C2800 C2799 1.383 . S
C2800 C2801 1.377 . S
C2801 H2785 0.930 . S
C2801 C2800 1.377 . S
C2801 C2802 1.379 . S
C2802 H2786 0.931 . S
C2802 C2796 1.383 . S
C2802 C2801 1.379 . S
H2803 C2797 0.959 . S
H2804 C2797 0.961 . S
H2805 C2797 0.960 . S
H2806 C2798 0.930 . S
H2807 C2799 0.929 . S
H2808 C2816 0.929 . S
H2809 C2818 0.930 . S
H2810 C2820 0.930 . S
H2811 C2823 0.929 . S
H2812 C2826 0.930 . S
H2813 C2828 0.960 . S
H2814 C2828 0.960 . S
H2815 C2828 0.960 . S
C2816 H2808 0.929 . S
C2816 C2817 1.377 . S
C2816 C2818 1.384 . S
C2817 C2816 1.377 . S
C2817 C2823 1.390 . S
C2818 H2809 0.930 . S
C2818 C2816 1.384 . S
C2818 C2819 1.372 . S
C2819 C2818 1.372 . S
C2819 C2820 1.400 . S
C2819 C2824 1.490 . S
C2820 H2810 0.930 . S
C2820 C2819 1.400 . S
C2820 C2823 1.386 . S
H2821 C2837 0.930 . S
H2822 C2838 0.931 . S
C2823 H2811 0.929 . S
C2823 C2817 1.390 . S
C2823 C2820 1.386 . S
C2824 C2819 1.490 . S
C2824 C2826 1.395 . S
C2824 C2827 1.403 . S
H2825 C2831 0.930 . S
C2826 H2812 0.930 . S
C2826 C2824 1.395 . S
C2826 C2829 1.403 . S
C2827 C2824 1.403 . S
C2827 C2828 1.524 . S
C2827 C2831 1.400 . S
C2828 H2813 0.960 . S
C2828 H2814 0.960 . S
C2828 H2815 0.960 . S
C2828 C2827 1.524 . S
C2829 C2826 1.403 . S
C2829 C2830 1.392 . S
C2829 C2833 1.495 . S
C2830 C2829 1.392 . S
C2830 C2831 1.385 . S
C2830 C2832 1.478 . S
C2831 H2825 0.930 . S
C2831 C2827 1.400 . S
C2831 C2830 1.385 . S
C2832 C2830 1.478 . S
C2832 C2834 1.381 . S
C2832 C2838 1.383 . S
C2833 C2829 1.495 . S
C2833 H2839 0.959 . S
C2833 H2840 0.961 . S
C2833 H2841 0.960 . S
C2834 C2832 1.381 . S
C2834 C2835 1.394 . S
C2834 H2842 0.930 . S
C2835 C2834 1.394 . S
C2835 C2836 1.383 . S
C2835 H2843 0.929 . S
C2836 C2835 1.383 . S
C2836 C2837 1.377 . S
C2837 H2821 0.930 . S
C2837 C2836 1.377 . S
C2837 C2838 1.379 . S
C2838 H2822 0.931 . S
C2838 C2832 1.383 . S
C2838 C2837 1.379 . S
H2839 C2833 0.959 . S
H2840 C2833 0.961 . S
H2841 C2833 0.960 . S
H2842 C2834 0.930 . S
H2843 C2835 0.929 . S
H2844 C2852 0.929 . S
H2845 C2854 0.930 . S
H2846 C2856 0.930 . S
H2847 C2859 0.929 . S
H2848 C2862 0.930 . S
H2849 C2864 0.960 . S
H2850 C2864 0.960 . S
H2851 C2864 0.960 . S
C2852 H2844 0.929 . S
C2852 C2853 1.377 . S
C2852 C2854 1.384 . S
C2853 C2852 1.377 . S
C2853 C2859 1.390 . S
C2854 H2845 0.930 . S
C2854 C2852 1.384 . S
C2854 C2855 1.372 . S
C2855 C2854 1.372 . S
C2855 C2856 1.400 . S
C2855 C2860 1.490 . S
C2856 H2846 0.930 . S
C2856 C2855 1.400 . S
C2856 C2859 1.386 . S
H2857 C2873 0.930 . S
H2858 C2874 0.931 . S
C2859 H2847 0.929 . S
C2859 C2853 1.390 . S
C2859 C2856 1.386 . S
C2860 C2855 1.490 . S
C2860 C2862 1.395 . S
C2860 C2863 1.403 . S
H2861 C2867 0.930 . S
C2862 H2848 0.930 . S
C2862 C2860 1.395 . S
C2862 C2865 1.403 . S
C2863 C2860 1.403 . S
C2863 C2864 1.524 . S
C2863 C2867 1.400 . S
C2864 H2849 0.960 . S
C2864 H2850 0.960 . S
C2864 H2851 0.960 . S
C2864 C2863 1.524 . S
C2865 C2862 1.403 . S
C2865 C2866 1.392 . S
C2865 C2869 1.495 . S
C2866 C2865 1.392 . S
C2866 C2867 1.385 . S
C2866 C2868 1.478 . S
C2867 H2861 0.930 . S
C2867 C2863 1.400 . S
C2867 C2866 1.385 . S
C2868 C2866 1.478 . S
C2868 C2870 1.381 . S
C2868 C2874 1.383 . S
C2869 C2865 1.495 . S
C2869 H2875 0.959 . S
C2869 H2876 0.961 . S
C2869 H2877 0.960 . S
C2870 C2868 1.381 . S
C2870 C2871 1.394 . S
C2870 H2878 0.930 . S
C2871 C2870 1.394 . S
C2871 C2872 1.383 . S
C2871 H2879 0.929 . S
C2872 C2871 1.383 . S
C2872 C2873 1.377 . S
C2873 H2857 0.930 . S
C2873 C2872 1.377 . S
C2873 C2874 1.379 . S
C2874 H2858 0.931 . S
C2874 C2868 1.383 . S
C2874 C2873 1.379 . S
H2875 C2869 0.959 . S
H2876 C2869 0.961 . S
H2877 C2869 0.960 . S
H2878 C2870 0.930 . S
H2879 C2871 0.929 . S
H2880 C2888 0.929 . S
H2881 C2890 0.930 . S
H2882 C2892 0.930 . S
H2883 C2895 0.929 . S
H2884 C2898 0.930 . S
H2885 C2900 0.960 . S
H2886 C2900 0.960 . S
H2887 C2900 0.960 . S
C2888 H2880 0.929 . S
C2888 C2889 1.377 . S
C2888 C2890 1.384 . S
C2889 C2888 1.377 . S
C2889 C2895 1.390 . S
C2890 H2881 0.930 . S
C2890 C2888 1.384 . S
C2890 C2891 1.372 . S
C2891 C2890 1.372 . S
C2891 C2892 1.400 . S
C2891 C2896 1.490 . S
C2892 H2882 0.930 . S
C2892 C2891 1.400 . S
C2892 C2895 1.386 . S
H2893 C2909 0.930 . S
H2894 C2910 0.931 . S
C2895 H2883 0.929 . S
C2895 C2889 1.390 . S
C2895 C2892 1.386 . S
C2896 C2891 1.490 . S
C2896 C2898 1.395 . S
C2896 C2899 1.403 . S
H2897 C2903 0.930 . S
C2898 H2884 0.930 . S
C2898 C2896 1.395 . S
C2898 C2901 1.403 . S
C2899 C2896 1.403 . S
C2899 C2900 1.524 . S
C2899 C2903 1.400 . S
C2900 H2885 0.960 . S
C2900 H2886 0.960 . S
C2900 H2887 0.960 . S
C2900 C2899 1.524 . S
C2901 C2898 1.403 . S
C2901 C2902 1.392 . S
C2901 C2905 1.495 . S
C2902 C2901 1.392 . S
C2902 C2903 1.385 . S
C2902 C2904 1.478 . S
C2903 H2897 0.930 . S
C2903 C2899 1.400 . S
C2903 C2902 1.385 . S
C2904 C2902 1.478 . S
C2904 C2906 1.381 . S
C2904 C2910 1.383 . S
C2905 C2901 1.495 . S
C2905 H2911 0.959 . S
C2905 H2912 0.961 . S
C2905 H2913 0.960 . S
C2906 C2904 1.381 . S
C2906 C2907 1.394 . S
C2906 H2914 0.930 . S
C2907 C2906 1.394 . S
C2907 C2908 1.383 . S
C2907 H2915 0.929 . S
C2908 C2907 1.383 . S
C2908 C2909 1.377 . S
C2909 H2893 0.930 . S
C2909 C2908 1.377 . S
C2909 C2910 1.379 . S
C2910 H2894 0.931 . S
C2910 C2904 1.383 . S
C2910 C2909 1.379 . S
H2911 C2905 0.959 . S
H2912 C2905 0.961 . S
H2913 C2905 0.960 . S
H2914 C2906 0.930 . S
H2915 C2907 0.929 . S
H2916 C2924 0.929 . S
H2917 C2926 0.930 . S
H2918 C2928 0.930 . S
H2919 C2931 0.929 . S
H2920 C2934 0.930 . S
H2921 C2936 0.960 . S
H2922 C2936 0.960 . S
H2923 C2936 0.960 . S
C2924 H2916 0.929 . S
C2924 C2925 1.377 . S
C2924 C2926 1.384 . S
C2925 C2924 1.377 . S
C2925 C2931 1.390 . S
C2926 H2917 0.930 . S
C2926 C2924 1.384 . S
C2926 C2927 1.372 . S
C2927 C2926 1.372 . S
C2927 C2928 1.400 . S
C2927 C2932 1.490 . S
C2928 H2918 0.930 . S
C2928 C2927 1.400 . S
C2928 C2931 1.386 . S
H2929 C2945 0.930 . S
H2930 C2946 0.931 . S
C2931 H2919 0.929 . S
C2931 C2925 1.390 . S
C2931 C2928 1.386 . S
C2932 C2927 1.490 . S
C2932 C2934 1.395 . S
C2932 C2935 1.403 . S
H2933 C2939 0.930 . S
C2934 H2920 0.930 . S
C2934 C2932 1.395 . S
C2934 C2937 1.403 . S
C2935 C2932 1.403 . S
C2935 C2936 1.524 . S
C2935 C2939 1.400 . S
C2936 H2921 0.960 . S
C2936 H2922 0.960 . S
C2936 H2923 0.960 . S
C2936 C2935 1.524 . S
C2937 C2934 1.403 . S
C2937 C2938 1.392 . S
C2937 C2941 1.495 . S
C2938 C2937 1.392 . S
C2938 C2939 1.385 . S
C2938 C2940 1.478 . S
C2939 H2933 0.930 . S
C2939 C2935 1.400 . S
C2939 C2938 1.385 . S
C2940 C2938 1.478 . S
C2940 C2942 1.381 . S
C2940 C2946 1.383 . S
C2941 C2937 1.495 . S
C2941 H2947 0.959 . S
C2941 H2948 0.961 . S
C2941 H2949 0.960 . S
C2942 C2940 1.381 . S
C2942 C2943 1.394 . S
C2942 H2950 0.930 . S
C2943 C2942 1.394 . S
C2943 C2944 1.383 . S
C2943 H2951 0.929 . S
C2944 C2943 1.383 . S
C2944 C2945 1.377 . S
C2945 H2929 0.930 . S
C2945 C2944 1.377 . S
C2945 C2946 1.379 . S
C2946 H2930 0.931 . S
C2946 C2940 1.383 . S
C2946 C2945 1.379 . S
H2947 C2941 0.959 . S
H2948 C2941 0.961 . S
H2949 C2941 0.960 . S
H2950 C2942 0.930 . S
H2951 C2943 0.929 . S
H2952 C2960 0.929 . S
H2953 C2962 0.930 . S
H2954 C2964 0.930 . S
H2955 C2967 0.929 . S
H2956 C2970 0.930 . S
H2957 C2972 0.960 . S
H2958 C2972 0.960 . S
H2959 C2972 0.960 . S
C2960 H2952 0.929 . S
C2960 C2961 1.377 1_554 S
C2960 C2962 1.384 . S
C2961 C2960 1.377 1_556 S
C2961 C2967 1.390 . S
C2962 H2953 0.930 . S
C2962 C2960 1.384 . S
C2962 C2963 1.372 . S
C2963 C2962 1.372 . S
C2963 C2964 1.400 1_554 S
C2963 C2968 1.490 . S
C2964 H2954 0.930 . S
C2964 C2963 1.400 1_556 S
C2964 C2967 1.386 . S
H2965 C2981 0.930 . S
H2966 C2982 0.931 . S
C2967 H2955 0.929 . S
C2967 C2961 1.390 . S
C2967 C2964 1.386 . S
C2968 C2963 1.490 . S
C2968 C2970 1.395 . S
C2968 C2971 1.403 . S
H2969 C2975 0.930 . S
C2970 H2956 0.930 . S
C2970 C2968 1.395 . S
C2970 C2973 1.403 . S
C2971 C2968 1.403 . S
C2971 C2972 1.524 . S
C2971 C2975 1.400 . S
C2972 H2957 0.960 . S
C2972 H2958 0.960 . S
C2972 H2959 0.960 . S
C2972 C2971 1.524 . S
C2973 C2970 1.403 . S
C2973 C2974 1.392 . S
C2973 C2977 1.495 . S
C2974 C2973 1.392 . S
C2974 C2975 1.385 . S
C2974 C2976 1.478 . S
C2975 H2969 0.930 . S
C2975 C2971 1.400 . S
C2975 C2974 1.385 . S
C2976 C2974 1.478 . S
C2976 C2978 1.381 . S
C2976 C2982 1.383 . S
C2977 C2973 1.495 . S
C2977 H2983 0.959 . S
C2977 H2984 0.961 . S
C2977 H2985 0.960 . S
C2978 C2976 1.381 . S
C2978 C2979 1.394 . S
C2978 H2986 0.930 . S
C2979 C2978 1.394 . S
C2979 C2980 1.383 . S
C2979 H2987 0.929 . S
C2980 C2979 1.383 . S
C2980 C2981 1.377 . S
C2981 H2965 0.930 . S
C2981 C2980 1.377 . S
C2981 C2982 1.379 . S
C2982 H2966 0.931 . S
C2982 C2976 1.383 . S
C2982 C2981 1.379 . S
H2983 C2977 0.959 . S
H2984 C2977 0.961 . S
H2985 C2977 0.960 . S
H2986 C2978 0.930 . S
H2987 C2979 0.929 . S
H2988 C2996 0.929 . S
H2989 C2998 0.930 . S
H2990 C3000 0.930 . S
H2991 C3003 0.929 . S
H2992 C3006 0.930 . S
H2993 C3008 0.960 . S
H2994 C3008 0.960 . S
H2995 C3008 0.960 . S
C2996 H2988 0.929 . S
C2996 C2997 1.377 . S
C2996 C2998 1.384 . S
C2997 C2996 1.377 . S
C2997 C3003 1.390 1_556 S
C2998 H2989 0.930 . S
C2998 C2996 1.384 . S
C2998 C2999 1.372 1_556 S
C2999 C2998 1.372 1_554 S
C2999 C3000 1.400 . S
C2999 C3004 1.490 . S
C3000 H2990 0.930 . S
C3000 C2999 1.400 . S
C3000 C3003 1.386 . S
H3001 C3017 0.930 . S
H3002 C3018 0.931 . S
C3003 H2991 0.929 . S
C3003 C2997 1.390 1_554 S
C3003 C3000 1.386 . S
C3004 C2999 1.490 . S
C3004 C3006 1.395 . S
C3004 C3007 1.403 . S
H3005 C3011 0.930 . S
C3006 H2992 0.930 . S
C3006 C3004 1.395 . S
C3006 C3009 1.403 . S
C3007 C3004 1.403 . S
C3007 C3008 1.524 . S
C3007 C3011 1.400 . S
C3008 H2993 0.960 . S
C3008 H2994 0.960 . S
C3008 H2995 0.960 . S
C3008 C3007 1.524 . S
C3009 C3006 1.403 . S
C3009 C3010 1.392 . S
C3009 C3013 1.495 . S
C3010 C3009 1.392 . S
C3010 C3011 1.385 . S
C3010 C3012 1.478 . S
C3011 H3005 0.930 . S
C3011 C3007 1.400 . S
C3011 C3010 1.385 . S
C3012 C3010 1.478 . S
C3012 C3014 1.381 . S
C3012 C3018 1.383 . S
C3013 C3009 1.495 . S
C3013 H3019 0.959 . S
C3013 H3020 0.961 . S
C3013 H3021 0.960 . S
C3014 C3012 1.381 . S
C3014 C3015 1.394 . S
C3014 H3022 0.930 . S
C3015 C3014 1.394 . S
C3015 C3016 1.383 . S
C3015 H3023 0.929 . S
C3016 C3015 1.383 . S
C3016 C3017 1.377 . S
C3017 H3001 0.930 . S
C3017 C3016 1.377 . S
C3017 C3018 1.379 . S
C3018 H3002 0.931 . S
C3018 C3012 1.383 . S
C3018 C3017 1.379 . S
H3019 C3013 0.959 . S
H3020 C3013 0.961 . S
H3021 C3013 0.960 . S
H3022 C3014 0.930 . S
H3023 C3015 0.929 . S
H3024 C3032 0.929 . S
H3025 C3034 0.930 . S
H3026 C3036 0.930 . S
H3027 C3039 0.929 . S
H3028 C3042 0.930 . S
H3029 C3044 0.960 . S
H3030 C3044 0.960 . S
H3031 C3044 0.960 1_556 S
C3032 H3024 0.929 . S
C3032 C3033 1.377 1_554 S
C3032 C3034 1.384 . S
C3033 C3032 1.377 1_556 S
C3033 C3039 1.390 . S
C3034 H3025 0.930 . S
C3034 C3032 1.384 . S
C3034 C3035 1.372 . S
C3035 C3034 1.372 . S
C3035 C3036 1.400 . S
C3035 C3040 1.490 . S
C3036 H3026 0.930 . S
C3036 C3035 1.400 . S
C3036 C3039 1.386 1_554 S
H3037 C3053 0.930 . S
H3038 C3054 0.931 . S
C3039 H3027 0.929 . S
C3039 C3033 1.390 . S
C3039 C3036 1.386 1_556 S
C3040 C3035 1.490 . S
C3040 C3042 1.395 . S
C3040 C3043 1.403 . S
H3041 C3047 0.930 . S
C3042 H3028 0.930 . S
C3042 C3040 1.395 . S
C3042 C3045 1.403 . S
C3043 C3040 1.403 . S
C3043 C3044 1.524 . S
C3043 C3047 1.400 . S
C3044 H3029 0.960 . S
C3044 H3030 0.960 . S
C3044 H3031 0.960 1_554 S
C3044 C3043 1.524 . S
C3045 C3042 1.403 . S
C3045 C3046 1.392 . S
C3045 C3049 1.495 . S
C3046 C3045 1.392 . S
C3046 C3047 1.385 . S
C3046 C3048 1.478 . S
C3047 H3041 0.930 . S
C3047 C3043 1.400 . S
C3047 C3046 1.385 . S
C3048 C3046 1.478 . S
C3048 C3050 1.381 . S
C3048 C3054 1.383 . S
C3049 C3045 1.495 . S
C3049 H3055 0.959 . S
C3049 H3056 0.961 . S
C3049 H3057 0.960 . S
C3050 C3048 1.381 . S
C3050 C3051 1.394 . S
C3050 H3058 0.930 . S
C3051 C3050 1.394 . S
C3051 C3052 1.383 . S
C3051 H3059 0.929 . S
C3052 C3051 1.383 . S
C3052 C3053 1.377 . S
C3053 H3037 0.930 . S
C3053 C3052 1.377 . S
C3053 C3054 1.379 . S
C3054 H3038 0.931 . S
C3054 C3048 1.383 . S
C3054 C3053 1.379 . S
H3055 C3049 0.959 . S
H3056 C3049 0.961 . S
H3057 C3049 0.960 . S
H3058 C3050 0.930 . S
H3059 C3051 0.929 . S
H3060 C3068 0.929 . S
H3061 C3070 0.930 . S
H3062 C3072 0.930 . S
H3063 C3075 0.929 . S
H3064 C3078 0.930 . S
H3065 C3080 0.960 . S
H3066 C3080 0.960 . S
H3067 C3080 0.960 . S
C3068 H3060 0.929 . S
C3068 C3069 1.377 . S
C3068 C3070 1.384 . S
C3069 C3068 1.377 . S
C3069 C3075 1.390 . S
C3070 H3061 0.930 . S
C3070 C3068 1.384 . S
C3070 C3071 1.372 . S
C3071 C3070 1.372 . S
C3071 C3072 1.400 . S
C3071 C3076 1.490 . S
C3072 H3062 0.930 . S
C3072 C3071 1.400 . S
C3072 C3075 1.386 . S
H3073 C3089 0.930 . S
H3074 C3090 0.931 . S
C3075 H3063 0.929 . S
C3075 C3069 1.390 . S
C3075 C3072 1.386 . S
C3076 C3071 1.490 . S
C3076 C3078 1.395 . S
C3076 C3079 1.403 . S
H3077 C3083 0.930 . S
C3078 H3064 0.930 . S
C3078 C3076 1.395 . S
C3078 C3081 1.403 . S
C3079 C3076 1.403 . S
C3079 C3080 1.524 . S
C3079 C3083 1.400 . S
C3080 H3065 0.960 . S
C3080 H3066 0.960 . S
C3080 H3067 0.960 . S
C3080 C3079 1.524 . S
C3081 C3078 1.403 . S
C3081 C3082 1.392 . S
C3081 C3085 1.495 . S
C3082 C3081 1.392 . S
C3082 C3083 1.385 . S
C3082 C3084 1.478 . S
C3083 H3077 0.930 . S
C3083 C3079 1.400 . S
C3083 C3082 1.385 . S
C3084 C3082 1.478 . S
C3084 C3086 1.381 . S
C3084 C3090 1.383 . S
C3085 C3081 1.495 . S
C3085 H3091 0.959 . S
C3085 H3092 0.961 . S
C3085 H3093 0.960 . S
C3086 C3084 1.381 . S
C3086 C3087 1.394 . S
C3086 H3094 0.930 . S
C3087 C3086 1.394 . S
C3087 C3088 1.384 . S
C3087 H3095 0.929 . S
C3088 C3087 1.384 . S
C3088 C3089 1.377 . S
C3089 H3073 0.930 . S
C3089 C3088 1.377 . S
C3089 C3090 1.379 . S
C3090 H3074 0.931 . S
C3090 C3084 1.383 . S
C3090 C3089 1.379 . S
H3091 C3085 0.959 . S
H3092 C3085 0.961 . S
H3093 C3085 0.960 . S
H3094 C3086 0.930 . S
H3095 C3087 0.929 . S
H3096 C3104 0.929 1_556 S
H3097 C3106 0.930 . S
H3098 C3108 0.930 . S
H3099 C3111 0.929 . S
H3100 C3114 0.930 . S
H3101 C3116 0.960 . S
H3102 C3116 0.960 . S
H3103 C3116 0.960 . S
C3104 H3096 0.929 1_554 S
C3104 C3105 1.377 1_554 S
C3104 C3106 1.384 . S
C3105 C3104 1.377 1_556 S
C3105 C3111 1.390 1_556 S
C3106 H3097 0.930 . S
C3106 C3104 1.384 . S
C3106 C3107 1.372 . S
C3107 C3106 1.372 . S
C3107 C3108 1.400 . S
C3107 C3112 1.490 . S
C3108 H3098 0.930 . S
C3108 C3107 1.400 . S
C3108 C3111 1.386 . S
H3109 C3125 0.930 . S
H3110 C3126 0.931 . S
C3111 H3099 0.929 . S
C3111 C3105 1.390 1_554 S
C3111 C3108 1.386 . S
C3112 C3107 1.490 . S
C3112 C3114 1.395 . S
C3112 C3115 1.403 . S
H3113 C3119 0.930 . S
C3114 H3100 0.930 . S
C3114 C3112 1.395 . S
C3114 C3117 1.403 . S
C3115 C3112 1.403 . S
C3115 C3116 1.524 . S
C3115 C3119 1.400 . S
C3116 H3101 0.960 . S
C3116 H3102 0.960 . S
C3116 H3103 0.960 . S
C3116 C3115 1.524 . S
C3117 C3114 1.403 . S
C3117 C3118 1.392 . S
C3117 C3121 1.495 . S
C3118 C3117 1.392 . S
C3118 C3119 1.385 . S
C3118 C3120 1.478 . S
C3119 H3113 0.930 . S
C3119 C3115 1.400 . S
C3119 C3118 1.385 . S
C3120 C3118 1.478 . S
C3120 C3122 1.381 . S
C3120 C3126 1.383 . S
C3121 C3117 1.495 . S
C3121 H3127 0.959 . S
C3121 H3128 0.961 . S
C3121 H3129 0.960 . S
C3122 C3120 1.381 . S
C3122 C3123 1.394 . S
C3122 H3130 0.930 . S
C3123 C3122 1.394 . S
C3123 C3124 1.383 . S
C3123 H3131 0.929 . S
C3124 C3123 1.383 . S
C3124 C3125 1.377 . S
C3125 H3109 0.930 . S
C3125 C3124 1.377 . S
C3125 C3126 1.379 . S
C3126 H3110 0.931 . S
C3126 C3120 1.383 . S
C3126 C3125 1.379 . S
H3127 C3121 0.959 . S
H3128 C3121 0.961 . S
H3129 C3121 0.960 . S
H3130 C3122 0.930 . S
H3131 C3123 0.929 . S
H3132 C3140 0.929 . S
H3133 C3142 0.930 . S
H3134 C3144 0.930 . S
H3135 C3147 0.929 . S
H3136 C3150 0.930 . S
H3137 C3152 0.960 . S
H3138 C3152 0.960 . S
H3139 C3152 0.960 . S
C3140 H3132 0.929 . S
C3140 C3141 1.377 . S
C3140 C3142 1.384 . S
C3141 C3140 1.377 . S
C3141 C3147 1.390 . S
C3142 H3133 0.930 . S
C3142 C3140 1.384 . S
C3142 C3143 1.372 . S
C3143 C3142 1.372 . S
C3143 C3144 1.400 . S
C3143 C3148 1.490 . S
C3144 H3134 0.930 . S
C3144 C3143 1.400 . S
C3144 C3147 1.386 . S
H3145 C3161 0.930 . S
H3146 C3162 0.931 . S
C3147 H3135 0.929 . S
C3147 C3141 1.390 . S
C3147 C3144 1.386 . S
C3148 C3143 1.490 . S
C3148 C3150 1.395 . S
C3148 C3151 1.403 . S
H3149 C3155 0.930 . S
C3150 H3136 0.930 . S
C3150 C3148 1.395 . S
C3150 C3153 1.403 . S
C3151 C3148 1.403 . S
C3151 C3152 1.524 . S
C3151 C3155 1.400 . S
C3152 H3137 0.960 . S
C3152 H3138 0.960 . S
C3152 H3139 0.960 . S
C3152 C3151 1.524 . S
C3153 C3150 1.403 . S
C3153 C3154 1.392 . S
C3153 C3157 1.495 . S
C3154 C3153 1.392 . S
C3154 C3155 1.385 . S
C3154 C3156 1.478 . S
C3155 H3149 0.930 . S
C3155 C3151 1.400 . S
C3155 C3154 1.385 . S
C3156 C3154 1.478 . S
C3156 C3158 1.381 . S
C3156 C3162 1.383 . S
C3157 C3153 1.495 . S
C3157 H3163 0.959 . S
C3157 H3164 0.961 . S
C3157 H3165 0.960 . S
C3158 C3156 1.381 . S
C3158 C3159 1.394 1_554 S
C3158 H3166 0.930 . S
C3159 C3158 1.394 1_556 S
C3159 C3160 1.383 . S
C3159 H3167 0.929 . S
C3160 C3159 1.383 . S
C3160 C3161 1.377 1_556 S
C3161 H3145 0.930 . S
C3161 C3160 1.377 1_554 S
C3161 C3162 1.379 . S
C3162 H3146 0.931 . S
C3162 C3156 1.383 . S
C3162 C3161 1.379 . S
H3163 C3157 0.959 . S
H3164 C3157 0.961 . S
H3165 C3157 0.960 . S
H3166 C3158 0.930 . S
H3167 C3159 0.929 . S
H3168 C3176 0.929 . S
H3169 C3178 0.930 . S
H3170 C3180 0.930 . S
H3171 C3183 0.929 . S
H3172 C3186 0.930 . S
H3173 C3188 0.960 . S
H3174 C3188 0.960 . S
H3175 C3188 0.960 . S
C3176 H3168 0.929 . S
C3176 C3177 1.377 . S
C3176 C3178 1.384 . S
C3177 C3176 1.377 . S
C3177 C3183 1.390 . S
C3178 H3169 0.930 . S
C3178 C3176 1.384 . S
C3178 C3179 1.372 . S
C3179 C3178 1.372 . S
C3179 C3180 1.400 . S
C3179 C3184 1.490 . S
C3180 H3170 0.930 . S
C3180 C3179 1.400 . S
C3180 C3183 1.386 . S
H3181 C3197 0.930 . S
H3182 C3198 0.931 . S
C3183 H3171 0.929 . S
C3183 C3177 1.390 . S
C3183 C3180 1.386 . S
C3184 C3179 1.490 . S
C3184 C3186 1.395 . S
C3184 C3187 1.403 . S
H3185 C3191 0.930 . S
C3186 H3172 0.930 . S
C3186 C3184 1.395 . S
C3186 C3189 1.403 . S
C3187 C3184 1.403 . S
C3187 C3188 1.524 . S
C3187 C3191 1.400 . S
C3188 H3173 0.960 . S
C3188 H3174 0.960 . S
C3188 H3175 0.960 . S
C3188 C3187 1.524 . S
C3189 C3186 1.403 . S
C3189 C3190 1.392 . S
C3189 C3193 1.495 . S
C3190 C3189 1.392 . S
C3190 C3191 1.385 . S
C3190 C3192 1.478 . S
C3191 H3185 0.930 . S
C3191 C3187 1.400 . S
C3191 C3190 1.385 . S
C3192 C3190 1.478 . S
C3192 C3194 1.381 . S
C3192 C3198 1.383 . S
C3193 C3189 1.495 . S
C3193 H3199 0.959 . S
C3193 H3200 0.961 . S
C3193 H3201 0.960 . S
C3194 C3192 1.381 . S
C3194 C3195 1.394 . S
C3194 H3202 0.930 . S
C3195 C3194 1.394 . S
C3195 C3196 1.383 . S
C3195 H3203 0.929 . S
C3196 C3195 1.383 . S
C3196 C3197 1.377 . S
C3197 H3181 0.930 . S
C3197 C3196 1.377 . S
C3197 C3198 1.379 . S
C3198 H3182 0.931 . S
C3198 C3192 1.383 . S
C3198 C3197 1.379 . S
H3199 C3193 0.959 . S
H3200 C3193 0.961 . S
H3201 C3193 0.960 . S
H3202 C3194 0.930 . S
H3203 C3195 0.929 . S
H3204 C3212 0.929 . S
H3205 C3214 0.930 . S
H3206 C3216 0.930 . S
H3207 C3219 0.929 . S
H3208 C3222 0.930 . S
H3209 C3224 0.960 . S
H3210 C3224 0.960 . S
H3211 C3224 0.960 . S
C3212 H3204 0.929 . S
C3212 C3213 1.377 . S
C3212 C3214 1.384 . S
C3213 C3212 1.377 . S
C3213 C3219 1.390 . S
C3214 H3205 0.930 . S
C3214 C3212 1.384 . S
C3214 C3215 1.372 . S
C3215 C3214 1.372 . S
C3215 C3216 1.400 . S
C3215 C3220 1.490 . S
C3216 H3206 0.930 . S
C3216 C3215 1.400 . S
C3216 C3219 1.386 . S
H3217 C3233 0.930 . S
H3218 C3234 0.931 . S
C3219 H3207 0.929 . S
C3219 C3213 1.390 . S
C3219 C3216 1.386 . S
C3220 C3215 1.490 . S
C3220 C3222 1.395 . S
C3220 C3223 1.403 . S
H3221 C3227 0.930 . S
C3222 H3208 0.930 . S
C3222 C3220 1.395 . S
C3222 C3225 1.403 . S
C3223 C3220 1.403 . S
C3223 C3224 1.524 . S
C3223 C3227 1.400 . S
C3224 H3209 0.960 . S
C3224 H3210 0.960 . S
C3224 H3211 0.960 . S
C3224 C3223 1.524 . S
C3225 C3222 1.403 . S
C3225 C3226 1.392 . S
C3225 C3229 1.495 . S
C3226 C3225 1.392 . S
C3226 C3227 1.385 . S
C3226 C3228 1.478 . S
C3227 H3221 0.930 . S
C3227 C3223 1.400 . S
C3227 C3226 1.385 . S
C3228 C3226 1.478 . S
C3228 C3230 1.381 . S
C3228 C3234 1.383 . S
C3229 C3225 1.495 . S
C3229 H3235 0.959 . S
C3229 H3236 0.961 . S
C3229 H3237 0.960 . S
C3230 C3228 1.381 . S
C3230 C3231 1.394 . S
C3230 H3238 0.930 . S
C3231 C3230 1.394 . S
C3231 C3232 1.383 . S
C3231 H3239 0.929 . S
C3232 C3231 1.383 . S
C3232 C3233 1.377 . S
C3233 H3217 0.930 . S
C3233 C3232 1.377 . S
C3233 C3234 1.379 . S
C3234 H3218 0.931 . S
C3234 C3228 1.383 . S
C3234 C3233 1.379 . S
H3235 C3229 0.959 . S
H3236 C3229 0.961 . S
H3237 C3229 0.960 . S
H3238 C3230 0.930 . S
H3239 C3231 0.929 . S
H3240 C3248 0.929 . S
H3241 C3250 0.930 . S
H3242 C3252 0.930 . S
H3243 C3255 0.929 . S
H3244 C3258 0.930 . S
H3245 C3260 0.960 . S
H3246 C3260 0.960 . S
H3247 C3260 0.960 . S
C3248 H3240 0.929 . S
C3248 C3249 1.377 . S
C3248 C3250 1.384 . S
C3249 C3248 1.377 . S
C3249 C3255 1.390 . S
C3250 H3241 0.930 . S
C3250 C3248 1.384 . S
C3250 C3251 1.372 . S
C3251 C3250 1.372 . S
C3251 C3252 1.400 . S
C3251 C3256 1.490 . S
C3252 H3242 0.930 . S
C3252 C3251 1.400 . S
C3252 C3255 1.386 . S
H3253 C3269 0.930 . S
H3254 C3270 0.931 . S
C3255 H3243 0.929 . S
C3255 C3249 1.390 . S
C3255 C3252 1.386 . S
C3256 C3251 1.490 . S
C3256 C3258 1.395 . S
C3256 C3259 1.403 . S
H3257 C3263 0.930 . S
C3258 H3244 0.930 . S
C3258 C3256 1.395 . S
C3258 C3261 1.403 . S
C3259 C3256 1.403 . S
C3259 C3260 1.524 . S
C3259 C3263 1.400 . S
C3260 H3245 0.960 . S
C3260 H3246 0.960 . S
C3260 H3247 0.960 . S
C3260 C3259 1.524 . S
C3261 C3258 1.403 . S
C3261 C3262 1.392 . S
C3261 C3265 1.495 . S
C3262 C3261 1.392 . S
C3262 C3263 1.385 . S
C3262 C3264 1.478 . S
C3263 H3257 0.930 . S
C3263 C3259 1.400 . S
C3263 C3262 1.385 . S
C3264 C3262 1.478 . S
C3264 C3266 1.381 . S
C3264 C3270 1.383 . S
C3265 C3261 1.495 . S
C3265 H3271 0.959 . S
C3265 H3272 0.961 . S
C3265 H3273 0.960 . S
C3266 C3264 1.381 . S
C3266 C3267 1.394 . S
C3266 H3274 0.930 . S
C3267 C3266 1.394 . S
C3267 C3268 1.383 . S
C3267 H3275 0.929 . S
C3268 C3267 1.383 . S
C3268 C3269 1.377 . S
C3269 H3253 0.930 . S
C3269 C3268 1.377 . S
C3269 C3270 1.379 . S
C3270 H3254 0.931 . S
C3270 C3264 1.383 . S
C3270 C3269 1.379 . S
H3271 C3265 0.959 . S
H3272 C3265 0.961 . S
H3273 C3265 0.960 . S
H3274 C3266 0.930 . S
H3275 C3267 0.929 . S
H3276 C3284 0.929 . S
H3277 C3286 0.930 . S
H3278 C3288 0.930 . S
H3279 C3291 0.929 . S
H3280 C3294 0.930 . S
H3281 C3296 0.960 . S
H3282 C3296 0.960 . S
H3283 C3296 0.960 . S
C3284 H3276 0.929 . S
C3284 C3285 1.377 . S
C3284 C3286 1.384 . S
C3285 C3284 1.377 . S
C3285 C3291 1.390 . S
C3286 H3277 0.930 . S
C3286 C3284 1.384 . S
C3286 C3287 1.372 . S
C3287 C3286 1.372 . S
C3287 C3288 1.400 . S
C3287 C3292 1.490 . S
C3288 H3278 0.930 . S
C3288 C3287 1.400 . S
C3288 C3291 1.386 . S
H3289 C3305 0.930 . S
H3290 C3306 0.931 . S
C3291 H3279 0.929 . S
C3291 C3285 1.390 . S
C3291 C3288 1.386 . S
C3292 C3287 1.490 . S
C3292 C3294 1.395 . S
C3292 C3295 1.403 . S
H3293 C3299 0.930 . S
C3294 H3280 0.930 . S
C3294 C3292 1.395 . S
C3294 C3297 1.403 . S
C3295 C3292 1.403 . S
C3295 C3296 1.524 . S
C3295 C3299 1.400 . S
C3296 H3281 0.960 . S
C3296 H3282 0.960 . S
C3296 H3283 0.960 . S
C3296 C3295 1.524 . S
C3297 C3294 1.403 . S
C3297 C3298 1.392 . S
C3297 C3301 1.495 . S
C3298 C3297 1.392 . S
C3298 C3299 1.385 . S
C3298 C3300 1.478 . S
C3299 H3293 0.930 . S
C3299 C3295 1.400 . S
C3299 C3298 1.385 . S
C3300 C3298 1.478 . S
C3300 C3302 1.381 . S
C3300 C3306 1.383 . S
C3301 C3297 1.495 . S
C3301 H3307 0.959 . S
C3301 H3308 0.961 . S
C3301 H3309 0.960 . S
C3302 C3300 1.381 . S
C3302 C3303 1.394 . S
C3302 H3310 0.930 . S
C3303 C3302 1.394 . S
C3303 C3304 1.383 . S
C3303 H3311 0.929 . S
C3304 C3303 1.383 . S
C3304 C3305 1.377 . S
C3305 H3289 0.930 . S
C3305 C3304 1.377 . S
C3305 C3306 1.379 . S
C3306 H3290 0.931 . S
C3306 C3300 1.383 . S
C3306 C3305 1.379 . S
H3307 C3301 0.959 . S
H3308 C3301 0.961 . S
H3309 C3301 0.960 . S
H3310 C3302 0.930 . S
H3311 C3303 0.929 . S
H3312 C3320 0.929 . S
H3313 C3322 0.930 . S
H3314 C3324 0.930 . S
H3315 C3327 0.929 . S
H3316 C3330 0.930 . S
H3317 C3332 0.960 . S
H3318 C3332 0.960 . S
H3319 C3332 0.960 . S
C3320 H3312 0.929 . S
C3320 C3321 1.377 . S
C3320 C3322 1.384 . S
C3321 C3320 1.377 . S
C3321 C3327 1.390 . S
C3322 H3313 0.930 . S
C3322 C3320 1.384 . S
C3322 C3323 1.372 . S
C3323 C3322 1.372 . S
C3323 C3324 1.400 . S
C3323 C3328 1.490 . S
C3324 H3314 0.930 . S
C3324 C3323 1.400 . S
C3324 C3327 1.386 . S
H3325 C3341 0.930 . S
H3326 C3342 0.931 . S
C3327 H3315 0.929 . S
C3327 C3321 1.390 . S
C3327 C3324 1.386 . S
C3328 C3323 1.490 . S
C3328 C3330 1.395 . S
C3328 C3331 1.403 . S
H3329 C3335 0.930 . S
C3330 H3316 0.930 . S
C3330 C3328 1.395 . S
C3330 C3333 1.403 . S
C3331 C3328 1.403 . S
C3331 C3332 1.524 . S
C3331 C3335 1.400 . S
C3332 H3317 0.960 . S
C3332 H3318 0.960 . S
C3332 H3319 0.960 . S
C3332 C3331 1.524 . S
C3333 C3330 1.403 . S
C3333 C3334 1.392 . S
C3333 C3337 1.495 . S
C3334 C3333 1.392 . S
C3334 C3335 1.385 . S
C3334 C3336 1.478 . S
C3335 H3329 0.930 . S
C3335 C3331 1.400 . S
C3335 C3334 1.385 . S
C3336 C3334 1.478 . S
C3336 C3338 1.381 . S
C3336 C3342 1.383 . S
C3337 C3333 1.495 . S
C3337 H3343 0.959 . S
C3337 H3344 0.961 . S
C3337 H3345 0.960 . S
C3338 C3336 1.381 . S
C3338 C3339 1.394 . S
C3338 H3346 0.930 . S
C3339 C3338 1.394 . S
C3339 C3340 1.383 . S
C3339 H3347 0.929 . S
C3340 C3339 1.383 . S
C3340 C3341 1.377 . S
C3341 H3325 0.930 . S
C3341 C3340 1.377 . S
C3341 C3342 1.379 . S
C3342 H3326 0.931 . S
C3342 C3336 1.383 . S
C3342 C3341 1.379 . S
H3343 C3337 0.959 . S
H3344 C3337 0.961 . S
H3345 C3337 0.960 . S
H3346 C3338 0.930 . S
H3347 C3339 0.929 . S
H3348 C3356 0.929 . S
H3349 C3358 0.930 . S
H3350 C3360 0.930 . S
H3351 C3363 0.929 . S
H3352 C3366 0.930 . S
H3353 C3368 0.960 . S
H3354 C3368 0.960 . S
H3355 C3368 0.960 . S
C3356 H3348 0.929 . S
C3356 C3357 1.377 . S
C3356 C3358 1.384 . S
C3357 C3356 1.377 . S
C3357 C3363 1.390 . S
C3358 H3349 0.930 . S
C3358 C3356 1.384 . S
C3358 C3359 1.372 . S
C3359 C3358 1.372 . S
C3359 C3360 1.400 . S
C3359 C3364 1.490 . S
C3360 H3350 0.930 . S
C3360 C3359 1.400 . S
C3360 C3363 1.386 . S
H3361 C3377 0.930 . S
H3362 C3378 0.931 . S
C3363 H3351 0.929 . S
C3363 C3357 1.390 . S
C3363 C3360 1.386 . S
C3364 C3359 1.490 . S
C3364 C3366 1.395 . S
C3364 C3367 1.403 . S
H3365 C3371 0.930 . S
C3366 H3352 0.930 . S
C3366 C3364 1.395 . S
C3366 C3369 1.403 . S
C3367 C3364 1.403 . S
C3367 C3368 1.524 . S
C3367 C3371 1.400 . S
C3368 H3353 0.960 . S
C3368 H3354 0.960 . S
C3368 H3355 0.960 . S
C3368 C3367 1.524 . S
C3369 C3366 1.403 . S
C3369 C3370 1.392 . S
C3369 C3373 1.495 . S
C3370 C3369 1.392 . S
C3370 C3371 1.385 . S
C3370 C3372 1.478 . S
C3371 H3365 0.930 . S
C3371 C3367 1.400 . S
C3371 C3370 1.385 . S
C3372 C3370 1.478 . S
C3372 C3374 1.381 . S
C3372 C3378 1.383 . S
C3373 C3369 1.495 . S
C3373 H3379 0.959 . S
C3373 H3380 0.961 . S
C3373 H3381 0.960 . S
C3374 C3372 1.381 . S
C3374 C3375 1.394 . S
C3374 H3382 0.930 . S
C3375 C3374 1.394 . S
C3375 C3376 1.383 . S
C3375 H3383 0.929 . S
C3376 C3375 1.383 . S
C3376 C3377 1.377 . S
C3377 H3361 0.930 . S
C3377 C3376 1.377 . S
C3377 C3378 1.379 . S
C3378 H3362 0.931 . S
C3378 C3372 1.383 . S
C3378 C3377 1.379 . S
H3379 C3373 0.959 . S
H3380 C3373 0.961 . S
H3381 C3373 0.960 . S
H3382 C3374 0.930 . S
H3383 C3375 0.929 . S
H3384 C3392 0.929 . S
H3385 C3394 0.930 . S
H3386 C3396 0.930 . S
H3387 C3399 0.929 . S
H3388 C3402 0.930 . S
H3389 C3404 0.960 . S
H3390 C3404 0.960 . S
H3391 C3404 0.960 . S
C3392 H3384 0.929 . S
C3392 C3393 1.377 . S
C3392 C3394 1.384 . S
C3393 C3392 1.377 . S
C3393 C3399 1.390 . S
C3394 H3385 0.930 . S
C3394 C3392 1.384 . S
C3394 C3395 1.372 . S
C3395 C3394 1.372 . S
C3395 C3396 1.400 . S
C3395 C3400 1.490 . S
C3396 H3386 0.930 . S
C3396 C3395 1.400 . S
C3396 C3399 1.386 . S
H3397 C3413 0.930 . S
H3398 C3414 0.931 . S
C3399 H3387 0.929 . S
C3399 C3393 1.390 . S
C3399 C3396 1.386 . S
C3400 C3395 1.490 . S
C3400 C3402 1.395 . S
C3400 C3403 1.403 . S
H3401 C3407 0.930 . S
C3402 H3388 0.930 . S
C3402 C3400 1.395 . S
C3402 C3405 1.403 . S
C3403 C3400 1.403 . S
C3403 C3404 1.524 . S
C3403 C3407 1.400 . S
C3404 H3389 0.960 . S
C3404 H3390 0.960 . S
C3404 H3391 0.960 . S
C3404 C3403 1.524 . S
C3405 C3402 1.403 . S
C3405 C3406 1.392 . S
C3405 C3409 1.495 . S
C3406 C3405 1.392 . S
C3406 C3407 1.385 . S
C3406 C3408 1.478 . S
C3407 H3401 0.930 . S
C3407 C3403 1.400 . S
C3407 C3406 1.385 . S
C3408 C3406 1.478 . S
C3408 C3410 1.381 . S
C3408 C3414 1.383 . S
C3409 C3405 1.495 . S
C3409 H3415 0.959 . S
C3409 H3416 0.961 . S
C3409 H3417 0.960 . S
C3410 C3408 1.381 . S
C3410 C3411 1.394 . S
C3410 H3418 0.930 . S
C3411 C3410 1.394 . S
C3411 C3412 1.383 . S
C3411 H3419 0.929 . S
C3412 C3411 1.383 . S
C3412 C3413 1.377 . S
C3413 H3397 0.930 . S
C3413 C3412 1.377 . S
C3413 C3414 1.379 . S
C3414 H3398 0.931 . S
C3414 C3408 1.383 . S
C3414 C3413 1.379 . S
H3415 C3409 0.959 . S
H3416 C3409 0.961 . S
H3417 C3409 0.960 . S
H3418 C3410 0.930 . S
H3419 C3411 0.929 . S
H3420 C3428 0.929 . S
H3421 C3430 0.930 . S
H3422 C3432 0.930 . S
H3423 C3435 0.929 . S
H3424 C3438 0.930 . S
H3425 C3440 0.960 . S
H3426 C3440 0.960 . S
H3427 C3440 0.960 . S
C3428 H3420 0.929 . S
C3428 C3429 1.377 . S
C3428 C3430 1.384 . S
C3429 C3428 1.377 . S
C3429 C3435 1.390 . S
C3430 H3421 0.930 . S
C3430 C3428 1.384 . S
C3430 C3431 1.372 . S
C3431 C3430 1.372 . S
C3431 C3432 1.400 . S
C3431 C3436 1.490 . S
C3432 H3422 0.930 . S
C3432 C3431 1.400 . S
C3432 C3435 1.386 . S
H3433 C3449 0.930 . S
H3434 C3450 0.931 . S
C3435 H3423 0.929 . S
C3435 C3429 1.390 . S
C3435 C3432 1.386 . S
C3436 C3431 1.490 . S
C3436 C3438 1.395 . S
C3436 C3439 1.403 . S
H3437 C3443 0.930 . S
C3438 H3424 0.930 . S
C3438 C3436 1.395 . S
C3438 C3441 1.403 . S
C3439 C3436 1.403 . S
C3439 C3440 1.524 . S
C3439 C3443 1.400 . S
C3440 H3425 0.960 . S
C3440 H3426 0.960 . S
C3440 H3427 0.960 . S
C3440 C3439 1.524 . S
C3441 C3438 1.403 . S
C3441 C3442 1.392 . S
C3441 C3445 1.495 . S
C3442 C3441 1.392 . S
C3442 C3443 1.385 . S
C3442 C3444 1.478 . S
C3443 H3437 0.930 . S
C3443 C3439 1.400 . S
C3443 C3442 1.385 . S
C3444 C3442 1.478 . S
C3444 C3446 1.381 . S
C3444 C3450 1.383 . S
C3445 C3441 1.495 . S
C3445 H3451 0.959 . S
C3445 H3452 0.961 . S
C3445 H3453 0.960 . S
C3446 C3444 1.381 . S
C3446 C3447 1.394 . S
C3446 H3454 0.930 . S
C3447 C3446 1.394 . S
C3447 C3448 1.383 . S
C3447 H3455 0.929 . S
C3448 C3447 1.383 . S
C3448 C3449 1.377 . S
C3449 H3433 0.930 . S
C3449 C3448 1.377 . S
C3449 C3450 1.379 . S
C3450 H3434 0.931 . S
C3450 C3444 1.383 . S
C3450 C3449 1.379 . S
H3451 C3445 0.959 . S
H3452 C3445 0.961 . S
H3453 C3445 0.960 . S
H3454 C3446 0.930 . S
H3455 C3447 0.929 . S
H3456 C3464 0.929 . S
H3457 C3466 0.930 . S
H3458 C3468 0.930 . S
H3459 C3471 0.929 . S
H3460 C3474 0.930 . S
H3461 C3476 0.960 . S
H3462 C3476 0.960 . S
H3463 C3476 0.960 . S
C3464 H3456 0.929 . S
C3464 C3465 1.377 . S
C3464 C3466 1.384 . S
C3465 C3464 1.377 . S
C3465 C3471 1.390 . S
C3466 H3457 0.930 . S
C3466 C3464 1.384 . S
C3466 C3467 1.372 . S
C3467 C3466 1.372 . S
C3467 C3468 1.400 . S
C3467 C3472 1.490 . S
C3468 H3458 0.930 . S
C3468 C3467 1.400 . S
C3468 C3471 1.386 . S
H3469 C3485 0.930 . S
H3470 C3486 0.931 . S
C3471 H3459 0.929 . S
C3471 C3465 1.390 . S
C3471 C3468 1.386 . S
C3472 C3467 1.490 . S
C3472 C3474 1.395 . S
C3472 C3475 1.403 . S
H3473 C3479 0.930 . S
C3474 H3460 0.930 . S
C3474 C3472 1.395 . S
C3474 C3477 1.403 . S
C3475 C3472 1.403 . S
C3475 C3476 1.524 . S
C3475 C3479 1.400 . S
C3476 H3461 0.960 . S
C3476 H3462 0.960 . S
C3476 H3463 0.960 . S
C3476 C3475 1.524 . S
C3477 C3474 1.403 . S
C3477 C3478 1.392 . S
C3477 C3481 1.495 . S
C3478 C3477 1.392 . S
C3478 C3479 1.385 . S
C3478 C3480 1.478 . S
C3479 H3473 0.930 . S
C3479 C3475 1.400 . S
C3479 C3478 1.385 . S
C3480 C3478 1.478 . S
C3480 C3482 1.381 . S
C3480 C3486 1.383 . S
C3481 C3477 1.495 . S
C3481 H3487 0.959 . S
C3481 H3488 0.961 . S
C3481 H3489 0.960 . S
C3482 C3480 1.381 . S
C3482 C3483 1.394 . S
C3482 H3490 0.930 . S
C3483 C3482 1.394 . S
C3483 C3484 1.383 . S
C3483 H3491 0.929 . S
C3484 C3483 1.383 . S
C3484 C3485 1.377 . S
C3485 H3469 0.930 . S
C3485 C3484 1.377 . S
C3485 C3486 1.379 . S
C3486 H3470 0.931 . S
C3486 C3480 1.383 . S
C3486 C3485 1.379 . S
H3487 C3481 0.959 . S
H3488 C3481 0.961 . S
H3489 C3481 0.960 . S
H3490 C3482 0.930 . S
H3491 C3483 0.929 . S
H3492 C3500 0.929 . S
H3493 C3502 0.930 . S
H3494 C3504 0.930 . S
H3495 C3507 0.929 . S
H3496 C3510 0.930 . S
H3497 C3512 0.960 . S
H3498 C3512 0.960 . S
H3499 C3512 0.960 . S
C3500 H3492 0.929 . S
C3500 C3501 1.377 . S
C3500 C3502 1.384 . S
C3501 C3500 1.377 . S
C3501 C3507 1.390 . S
C3502 H3493 0.930 . S
C3502 C3500 1.384 . S
C3502 C3503 1.372 . S
C3503 C3502 1.372 . S
C3503 C3504 1.400 . S
C3503 C3508 1.490 . S
C3504 H3494 0.930 . S
C3504 C3503 1.400 . S
C3504 C3507 1.386 . S
H3505 C3521 0.930 . S
H3506 C3522 0.931 . S
C3507 H3495 0.929 . S
C3507 C3501 1.390 . S
C3507 C3504 1.386 . S
C3508 C3503 1.490 . S
C3508 C3510 1.395 . S
C3508 C3511 1.403 . S
H3509 C3515 0.930 . S
C3510 H3496 0.930 . S
C3510 C3508 1.395 . S
C3510 C3513 1.403 . S
C3511 C3508 1.403 . S
C3511 C3512 1.524 . S
C3511 C3515 1.400 . S
C3512 H3497 0.960 . S
C3512 H3498 0.960 . S
C3512 H3499 0.960 . S
C3512 C3511 1.524 . S
C3513 C3510 1.403 . S
C3513 C3514 1.392 . S
C3513 C3517 1.495 . S
C3514 C3513 1.392 . S
C3514 C3515 1.385 . S
C3514 C3516 1.478 . S
C3515 H3509 0.930 . S
C3515 C3511 1.400 . S
C3515 C3514 1.385 . S
C3516 C3514 1.478 . S
C3516 C3518 1.381 . S
C3516 C3522 1.383 . S
C3517 C3513 1.495 . S
C3517 H3523 0.959 . S
C3517 H3524 0.961 . S
C3517 H3525 0.960 . S
C3518 C3516 1.381 . S
C3518 C3519 1.394 . S
C3518 H3526 0.930 . S
C3519 C3518 1.394 . S
C3519 C3520 1.383 . S
C3519 H3527 0.929 . S
C3520 C3519 1.383 . S
C3520 C3521 1.377 . S
C3521 H3505 0.930 . S
C3521 C3520 1.377 . S
C3521 C3522 1.379 . S
C3522 H3506 0.931 . S
C3522 C3516 1.383 . S
C3522 C3521 1.379 . S
H3523 C3517 0.959 . S
H3524 C3517 0.961 . S
H3525 C3517 0.960 . S
H3526 C3518 0.930 . S
H3527 C3519 0.929 . S
H3528 C3536 0.929 . S
H3529 C3538 0.930 . S
H3530 C3540 0.930 . S
H3531 C3543 0.929 . S
H3532 C3546 0.930 . S
H3533 C3548 0.960 . S
H3534 C3548 0.960 . S
H3535 C3548 0.960 . S
C3536 H3528 0.929 . S
C3536 C3537 1.377 . S
C3536 C3538 1.384 . S
C3537 C3536 1.377 . S
C3537 C3543 1.390 . S
C3538 H3529 0.930 . S
C3538 C3536 1.384 . S
C3538 C3539 1.372 . S
C3539 C3538 1.372 . S
C3539 C3540 1.400 . S
C3539 C3544 1.490 . S
C3540 H3530 0.930 . S
C3540 C3539 1.400 . S
C3540 C3543 1.386 . S
H3541 C3557 0.930 . S
H3542 C3558 0.931 . S
C3543 H3531 0.929 . S
C3543 C3537 1.390 . S
C3543 C3540 1.386 . S
C3544 C3539 1.490 . S
C3544 C3546 1.395 . S
C3544 C3547 1.403 . S
H3545 C3551 0.930 . S
C3546 H3532 0.930 . S
C3546 C3544 1.395 . S
C3546 C3549 1.403 . S
C3547 C3544 1.403 . S
C3547 C3548 1.524 . S
C3547 C3551 1.400 . S
C3548 H3533 0.960 . S
C3548 H3534 0.960 . S
C3548 H3535 0.960 . S
C3548 C3547 1.524 . S
C3549 C3546 1.403 . S
C3549 C3550 1.392 . S
C3549 C3553 1.495 . S
C3550 C3549 1.392 . S
C3550 C3551 1.385 . S
C3550 C3552 1.478 . S
C3551 H3545 0.930 . S
C3551 C3547 1.400 . S
C3551 C3550 1.385 . S
C3552 C3550 1.478 . S
C3552 C3554 1.381 . S
C3552 C3558 1.383 . S
C3553 C3549 1.495 . S
C3553 H3559 0.959 . S
C3553 H3560 0.961 . S
C3553 H3561 0.960 . S
C3554 C3552 1.381 . S
C3554 C3555 1.394 . S
C3554 H3562 0.930 . S
C3555 C3554 1.394 . S
C3555 C3556 1.383 . S
C3555 H3563 0.929 . S
C3556 C3555 1.383 . S
C3556 C3557 1.377 . S
C3557 H3541 0.930 . S
C3557 C3556 1.377 . S
C3557 C3558 1.379 . S
C3558 H3542 0.931 . S
C3558 C3552 1.383 . S
C3558 C3557 1.379 . S
H3559 C3553 0.959 . S
H3560 C3553 0.961 . S
H3561 C3553 0.960 . S
H3562 C3554 0.930 . S
H3563 C3555 0.929 . S
H3564 C3572 0.929 . S
H3565 C3574 0.930 . S
H3566 C3576 0.930 . S
H3567 C3579 0.929 . S
H3568 C3582 0.930 . S
H3569 C3584 0.960 . S
H3570 C3584 0.960 . S
H3571 C3584 0.960 . S
C3572 H3564 0.929 . S
C3572 C3573 1.377 . S
C3572 C3574 1.384 . S
C3573 C3572 1.377 . S
C3573 C3579 1.390 . S
C3574 H3565 0.930 . S
C3574 C3572 1.384 . S
C3574 C3575 1.372 . S
C3575 C3574 1.372 . S
C3575 C3576 1.400 . S
C3575 C3580 1.490 . S
C3576 H3566 0.930 . S
C3576 C3575 1.400 . S
C3576 C3579 1.386 . S
H3577 C3593 0.930 . S
H3578 C3594 0.931 . S
C3579 H3567 0.929 . S
C3579 C3573 1.390 . S
C3579 C3576 1.386 . S
C3580 C3575 1.490 . S
C3580 C3582 1.395 . S
C3580 C3583 1.403 . S
H3581 C3587 0.930 . S
C3582 H3568 0.930 . S
C3582 C3580 1.395 . S
C3582 C3585 1.403 . S
C3583 C3580 1.403 . S
C3583 C3584 1.524 . S
C3583 C3587 1.400 . S
C3584 H3569 0.960 . S
C3584 H3570 0.960 . S
C3584 H3571 0.960 . S
C3584 C3583 1.524 . S
C3585 C3582 1.403 . S
C3585 C3586 1.392 . S
C3585 C3589 1.495 . S
C3586 C3585 1.392 . S
C3586 C3587 1.385 . S
C3586 C3588 1.478 . S
C3587 H3581 0.930 . S
C3587 C3583 1.400 . S
C3587 C3586 1.385 . S
C3588 C3586 1.478 . S
C3588 C3590 1.381 . S
C3588 C3594 1.383 . S
C3589 C3585 1.495 . S
C3589 H3595 0.959 . S
C3589 H3596 0.961 . S
C3589 H3597 0.960 . S
C3590 C3588 1.381 . S
C3590 C3591 1.394 . S
C3590 H3598 0.930 . S
C3591 C3590 1.394 . S
C3591 C3592 1.383 . S
C3591 H3599 0.929 . S
C3592 C3591 1.383 . S
C3592 C3593 1.377 . S
C3593 H3577 0.930 . S
C3593 C3592 1.377 . S
C3593 C3594 1.379 . S
C3594 H3578 0.931 . S
C3594 C3588 1.383 . S
C3594 C3593 1.379 . S
H3595 C3589 0.959 . S
H3596 C3589 0.961 . S
H3597 C3589 0.960 . S
H3598 C3590 0.930 . S
H3599 C3591 0.929 . S
H3600 C3608 0.929 . S
H3601 C3610 0.930 . S
H3602 C3612 0.930 . S
H3603 C3615 0.929 . S
H3604 C3618 0.930 . S
H3605 C3620 0.960 1_554 S
H3606 C3620 0.960 . S
H3607 C3620 0.960 . S
C3608 H3600 0.929 . S
C3608 C3609 1.377 . S
C3608 C3610 1.384 . S
C3609 C3608 1.377 . S
C3609 C3615 1.390 . S
C3610 H3601 0.930 . S
C3610 C3608 1.384 . S
C3610 C3611 1.372 . S
C3611 C3610 1.372 . S
C3611 C3612 1.400 . S
C3611 C3616 1.490 . S
C3612 H3602 0.930 . S
C3612 C3611 1.400 . S
C3612 C3615 1.386 . S
H3613 C3629 0.930 . S
H3614 C3630 0.931 . S
C3615 H3603 0.929 . S
C3615 C3609 1.390 . S
C3615 C3612 1.386 . S
C3616 C3611 1.490 . S
C3616 C3618 1.395 . S
C3616 C3619 1.403 . S
H3617 C3623 0.930 . S
C3618 H3604 0.930 . S
C3618 C3616 1.395 . S
C3618 C3621 1.403 . S
C3619 C3616 1.403 . S
C3619 C3620 1.524 . S
C3619 C3623 1.400 1_556 S
C3620 H3605 0.960 1_556 S
C3620 H3606 0.960 . S
C3620 H3607 0.960 . S
C3620 C3619 1.524 . S
C3621 C3618 1.403 . S
C3621 C3622 1.392 1_556 S
C3621 C3625 1.495 . S
C3622 C3621 1.392 1_554 S
C3622 C3623 1.385 . S
C3622 C3624 1.478 . S
C3623 H3617 0.930 . S
C3623 C3619 1.400 1_554 S
C3623 C3622 1.385 . S
C3624 C3622 1.478 . S
C3624 C3626 1.381 . S
C3624 C3630 1.383 . S
C3625 C3621 1.495 . S
C3625 H3631 0.959 . S
C3625 H3632 0.961 . S
C3625 H3633 0.960 . S
C3626 C3624 1.381 . S
C3626 C3627 1.394 . S
C3626 H3634 0.930 1_554 S
C3627 C3626 1.394 . S
C3627 C3628 1.383 . S
C3627 H3635 0.929 . S
C3628 C3627 1.383 . S
C3628 C3629 1.377 . S
C3629 H3613 0.930 . S
C3629 C3628 1.377 . S
C3629 C3630 1.379 . S
C3630 H3614 0.931 . S
C3630 C3624 1.383 . S
C3630 C3629 1.379 . S
H3631 C3625 0.959 . S
H3632 C3625 0.961 . S
H3633 C3625 0.960 . S
H3634 C3626 0.930 1_556 S
H3635 C3627 0.929 . S
H3636 C3644 0.929 . S
H3637 C3646 0.930 . S
H3638 C3648 0.930 . S
H3639 C3651 0.929 . S
H3640 C3654 0.930 . S
H3641 C3656 0.960 . S
H3642 C3656 0.960 . S
H3643 C3656 0.960 . S
C3644 H3636 0.929 . S
C3644 C3645 1.377 . S
C3644 C3646 1.384 . S
C3645 C3644 1.377 . S
C3645 C3651 1.390 . S
C3646 H3637 0.930 . S
C3646 C3644 1.384 . S
C3646 C3647 1.372 . S
C3647 C3646 1.372 . S
C3647 C3648 1.400 . S
C3647 C3652 1.490 . S
C3648 H3638 0.930 . S
C3648 C3647 1.400 . S
C3648 C3651 1.386 . S
H3649 C3665 0.930 . S
H3650 C3666 0.931 . S
C3651 H3639 0.929 . S
C3651 C3645 1.390 . S
C3651 C3648 1.386 . S
C3652 C3647 1.490 . S
C3652 C3654 1.395 1_554 S
C3652 C3655 1.403 . S
H3653 C3659 0.930 . S
C3654 H3640 0.930 . S
C3654 C3652 1.395 1_556 S
C3654 C3657 1.403 . S
C3655 C3652 1.403 . S
C3655 C3656 1.526 . S
C3655 C3659 1.397 1_554 S
C3656 H3641 0.960 . S
C3656 H3642 0.960 . S
C3656 H3643 0.960 . S
C3656 C3655 1.526 . S
C3657 C3654 1.403 . S
C3657 C3658 1.392 . S
C3657 C3661 1.495 . S
C3658 C3657 1.392 . S
C3658 C3659 1.385 . S
C3658 C3660 1.478 . S
C3659 H3653 0.930 . S
C3659 C3655 1.397 1_556 S
C3659 C3658 1.385 . S
C3660 C3658 1.478 . S
C3660 C3662 1.381 . S
C3660 C3666 1.383 . S
C3661 C3657 1.495 . S
C3661 H3667 0.959 . S
C3661 H3668 0.961 . S
C3661 H3669 0.960 . S
C3662 C3660 1.381 . S
C3662 C3663 1.394 . S
C3662 H3670 0.930 . S
C3663 C3662 1.394 . S
C3663 C3664 1.383 . S
C3663 H3671 0.929 . S
C3664 C3663 1.383 . S
C3664 C3665 1.377 . S
C3665 H3649 0.930 . S
C3665 C3664 1.377 . S
C3665 C3666 1.379 . S
C3666 H3650 0.931 . S
C3666 C3660 1.383 . S
C3666 C3665 1.379 . S
H3667 C3661 0.959 . S
H3668 C3661 0.961 . S
H3669 C3661 0.960 . S
H3670 C3662 0.930 . S
H3671 C3663 0.929 . S
H3672 C3680 0.929 . S
H3673 C3682 0.930 . S
H3674 C3684 0.930 . S
H3675 C3687 0.929 . S
H3676 C3690 0.930 . S
H3677 C3692 0.960 . S
H3678 C3692 0.960 . S
H3679 C3692 0.960 . S
C3680 H3672 0.929 . S
C3680 C3681 1.377 . S
C3680 C3682 1.384 . S
C3681 C3680 1.377 . S
C3681 C3687 1.390 . S
C3682 H3673 0.930 . S
C3682 C3680 1.384 . S
C3682 C3683 1.372 . S
C3683 C3682 1.372 . S
C3683 C3684 1.400 . S
C3683 C3688 1.490 . S
C3684 H3674 0.930 . S
C3684 C3683 1.400 . S
C3684 C3687 1.386 . S
H3685 C3701 0.930 . S
H3686 C3702 0.931 . S
C3687 H3675 0.929 . S
C3687 C3681 1.390 . S
C3687 C3684 1.386 . S
C3688 C3683 1.490 . S
C3688 C3690 1.395 . S
C3688 C3691 1.403 . S
H3689 C3695 0.930 . S
C3690 H3676 0.930 . S
C3690 C3688 1.395 . S
C3690 C3693 1.403 1_556 S
C3691 C3688 1.403 . S
C3691 C3692 1.524 . S
C3691 C3695 1.400 . S
C3692 H3677 0.960 . S
C3692 H3678 0.960 . S
C3692 H3679 0.960 . S
C3692 C3691 1.524 . S
C3693 C3690 1.403 1_554 S
C3693 C3694 1.392 . S
C3693 C3697 1.495 . S
C3694 C3693 1.392 . S
C3694 C3695 1.385 1_554 S
C3694 C3696 1.478 . S
C3695 H3689 0.930 . S
C3695 C3691 1.400 . S
C3695 C3694 1.385 1_556 S
C3696 C3694 1.478 . S
C3696 C3698 1.381 . S
C3696 C3702 1.383 . S
C3697 C3693 1.495 . S
C3697 H3703 0.959 . S
C3697 H3704 0.961 . S
C3697 H3705 0.960 . S
C3698 C3696 1.381 . S
C3698 C3699 1.394 . S
C3698 H3706 0.930 . S
C3699 C3698 1.394 . S
C3699 C3700 1.383 . S
C3699 H3707 0.929 . S
C3700 C3699 1.383 . S
C3700 C3701 1.377 . S
C3701 H3685 0.930 . S
C3701 C3700 1.377 . S
C3701 C3702 1.379 . S
C3702 H3686 0.931 . S
C3702 C3696 1.383 . S
C3702 C3701 1.379 . S
H3703 C3697 0.959 . S
H3704 C3697 0.961 . S
H3705 C3697 0.960 . S
H3706 C3698 0.930 . S
H3707 C3699 0.929 . S
H3708 C3716 0.929 . S
H3709 C3718 0.930 . S
H3710 C3720 0.930 1_556 S
H3711 C3723 0.929 . S
H3712 C3726 0.930 . S
H3713 C3728 0.960 . S
H3714 C3728 0.960 . S
H3715 C3728 0.960 . S
C3716 H3708 0.929 . S
C3716 C3717 1.377 . S
C3716 C3718 1.384 . S
C3717 C3716 1.377 . S
C3717 C3723 1.390 . S
C3718 H3709 0.930 . S
C3718 C3716 1.384 . S
C3718 C3719 1.372 . S
C3719 C3718 1.372 . S
C3719 C3720 1.400 . S
C3719 C3724 1.490 1_554 S
C3720 H3710 0.930 1_554 S
C3720 C3719 1.400 . S
C3720 C3723 1.386 . S
H3721 C3737 0.930 . S
H3722 C3738 0.931 . S
C3723 H3711 0.929 . S
C3723 C3717 1.390 . S
C3723 C3720 1.386 . S
C3724 C3719 1.490 1_556 S
C3724 C3726 1.395 . S
C3724 C3727 1.403 . S
H3725 C3731 0.930 . S
C3726 H3712 0.930 . S
C3726 C3724 1.395 . S
C3726 C3729 1.403 . S
C3727 C3724 1.403 . S
C3727 C3728 1.524 . S
C3727 C3731 1.400 . S
C3728 H3713 0.960 . S
C3728 H3714 0.960 . S
C3728 H3715 0.960 . S
C3728 C3727 1.524 . S
C3729 C3726 1.403 . S
C3729 C3730 1.392 . S
C3729 C3733 1.495 . S
C3730 C3729 1.392 . S
C3730 C3731 1.385 . S
C3730 C3732 1.478 . S
C3731 H3725 0.930 . S
C3731 C3727 1.400 . S
C3731 C3730 1.385 . S
C3732 C3730 1.478 . S
C3732 C3734 1.381 . S
C3732 C3738 1.383 . S
C3733 C3729 1.495 . S
C3733 H3739 0.959 . S
C3733 H3740 0.961 . S
C3733 H3741 0.960 . S
C3734 C3732 1.381 . S
C3734 C3735 1.394 . S
C3734 H3742 0.930 . S
C3735 C3734 1.394 . S
C3735 C3736 1.383 . S
C3735 H3743 0.929 . S
C3736 C3735 1.383 . S
C3736 C3737 1.377 . S
C3737 H3721 0.930 . S
C3737 C3736 1.377 . S
C3737 C3738 1.379 . S
C3738 H3722 0.931 . S
C3738 C3732 1.383 . S
C3738 C3737 1.379 . S
H3739 C3733 0.959 . S
H3740 C3733 0.961 . S
H3741 C3733 0.960 . S
H3742 C3734 0.930 . S
H3743 C3735 0.929 . S
H3744 C3752 0.929 . S
H3745 C3754 0.930 . S
H3746 C3756 0.930 . S
H3747 C3759 0.929 . S
H3748 C3762 0.930 . S
H3749 C3764 0.960 . S
H3750 C3764 0.960 . S
H3751 C3764 0.960 . S
C3752 H3744 0.929 . S
C3752 C3753 1.377 . S
C3752 C3754 1.384 . S
C3753 C3752 1.377 . S
C3753 C3759 1.390 . S
C3754 H3745 0.930 . S
C3754 C3752 1.384 . S
C3754 C3755 1.372 . S
C3755 C3754 1.372 . S
C3755 C3756 1.400 . S
C3755 C3760 1.490 . S
C3756 H3746 0.930 . S
C3756 C3755 1.400 . S
C3756 C3759 1.386 . S
H3757 C3773 0.930 . S
H3758 C3774 0.931 . S
C3759 H3747 0.929 . S
C3759 C3753 1.390 . S
C3759 C3756 1.386 . S
C3760 C3755 1.490 . S
C3760 C3762 1.395 . S
C3760 C3763 1.403 . S
H3761 C3767 0.930 . S
C3762 H3748 0.930 . S
C3762 C3760 1.395 . S
C3762 C3765 1.403 . S
C3763 C3760 1.403 . S
C3763 C3764 1.524 . S
C3763 C3767 1.400 . S
C3764 H3749 0.960 . S
C3764 H3750 0.960 . S
C3764 H3751 0.960 . S
C3764 C3763 1.524 . S
C3765 C3762 1.403 . S
C3765 C3766 1.392 . S
C3765 C3769 1.495 1_556 S
C3766 C3765 1.392 . S
C3766 C3767 1.385 . S
C3766 C3768 1.478 1_556 S
C3767 H3761 0.930 . S
C3767 C3763 1.400 . S
C3767 C3766 1.385 . S
C3768 C3766 1.478 1_554 S
C3768 C3770 1.381 . S
C3768 C3774 1.383 . S
C3769 C3765 1.495 1_554 S
C3769 H3775 0.959 . S
C3769 H3776 0.961 . S
C3769 H3777 0.960 . S
C3770 C3768 1.381 . S
C3770 C3771 1.394 . S
C3770 H3778 0.930 . S
C3771 C3770 1.394 . S
C3771 C3772 1.383 . S
C3771 H3779 0.929 . S
C3772 C3771 1.383 . S
C3772 C3773 1.377 . S
C3773 H3757 0.930 . S
C3773 C3772 1.377 . S
C3773 C3774 1.379 . S
C3774 H3758 0.931 . S
C3774 C3768 1.383 . S
C3774 C3773 1.379 . S
H3775 C3769 0.959 . S
H3776 C3769 0.961 . S
H3777 C3769 0.960 . S
H3778 C3770 0.930 . S
H3779 C3771 0.929 . S
H3780 C3788 0.929 . S
H3781 C3790 0.930 . S
H3782 C3792 0.930 . S
H3783 C3795 0.929 . S
H3784 C3798 0.930 . S
H3785 C3800 0.960 . S
H3786 C3800 0.960 . S
H3787 C3800 0.960 . S
C3788 H3780 0.929 . S
C3788 C3789 1.377 . S
C3788 C3790 1.384 . S
C3789 C3788 1.377 . S
C3789 C3795 1.390 . S
C3790 H3781 0.930 . S
C3790 C3788 1.384 . S
C3790 C3791 1.372 . S
C3791 C3790 1.372 . S
C3791 C3792 1.400 . S
C3791 C3796 1.490 . S
C3792 H3782 0.930 . S
C3792 C3791 1.400 . S
C3792 C3795 1.386 . S
H3793 C3809 0.930 . S
H3794 C3810 0.931 . S
C3795 H3783 0.929 . S
C3795 C3789 1.390 . S
C3795 C3792 1.386 . S
C3796 C3791 1.490 . S
C3796 C3798 1.395 . S
C3796 C3799 1.403 . S
H3797 C3803 0.930 1_554 S
C3798 H3784 0.930 . S
C3798 C3796 1.395 . S
C3798 C3801 1.403 . S
C3799 C3796 1.403 . S
C3799 C3800 1.524 . S
C3799 C3803 1.400 . S
C3800 H3785 0.960 . S
C3800 H3786 0.960 . S
C3800 H3787 0.960 . S
C3800 C3799 1.524 . S
C3801 C3798 1.403 . S
C3801 C3802 1.392 . S
C3801 C3805 1.495 . S
C3802 C3801 1.392 . S
C3802 C3803 1.385 . S
C3802 C3804 1.478 1_556 S
C3803 H3797 0.930 1_556 S
C3803 C3799 1.400 . S
C3803 C3802 1.385 . S
C3804 C3802 1.478 1_554 S
C3804 C3806 1.381 . S
C3804 C3810 1.383 . S
C3805 C3801 1.495 . S
C3805 H3811 0.959 . S
C3805 H3812 0.961 . S
C3805 H3813 0.960 . S
C3806 C3804 1.381 . S
C3806 C3807 1.394 . S
C3806 H3814 0.930 . S
C3807 C3806 1.394 . S
C3807 C3808 1.383 . S
C3807 H3815 0.929 . S
C3808 C3807 1.383 . S
C3808 C3809 1.377 . S
C3809 H3793 0.930 . S
C3809 C3808 1.377 . S
C3809 C3810 1.379 . S
C3810 H3794 0.931 . S
C3810 C3804 1.383 . S
C3810 C3809 1.379 . S
H3811 C3805 0.959 . S
H3812 C3805 0.961 . S
H3813 C3805 0.960 . S
H3814 C3806 0.930 . S
H3815 C3807 0.929 . S
H3816 C3824 0.929 . S
H3817 C3826 0.930 . S
H3818 C3828 0.930 . S
H3819 C3831 0.929 . S
H3820 C3834 0.930 . S
H3821 C3836 0.960 . S
H3822 C3836 0.960 . S
H3823 C3836 0.960 . S
C3824 H3816 0.929 . S
C3824 C3825 1.377 . S
C3824 C3826 1.384 . S
C3825 C3824 1.377 . S
C3825 C3831 1.390 . S
C3826 H3817 0.930 . S
C3826 C3824 1.384 . S
C3826 C3827 1.372 . S
C3827 C3826 1.372 . S
C3827 C3828 1.400 . S
C3827 C3832 1.490 . S
C3828 H3818 0.930 . S
C3828 C3827 1.400 . S
C3828 C3831 1.386 . S
H3829 C3845 0.930 . S
H3830 C3846 0.931 . S
C3831 H3819 0.929 . S
C3831 C3825 1.390 . S
C3831 C3828 1.386 . S
C3832 C3827 1.490 . S
C3832 C3834 1.395 . S
C3832 C3835 1.403 . S
H3833 C3839 0.930 . S
C3834 H3820 0.930 . S
C3834 C3832 1.395 . S
C3834 C3837 1.403 1_455 S
C3835 C3832 1.403 . S
C3835 C3836 1.524 . S
C3835 C3839 1.400 1_455 S
C3836 H3821 0.960 . S
C3836 H3822 0.960 . S
C3836 H3823 0.960 . S
C3836 C3835 1.524 . S
C3837 C3834 1.403 1_655 S
C3837 C3838 1.392 . S
C3837 C3841 1.495 . S
C3838 C3837 1.392 . S
C3838 C3839 1.385 . S
C3838 C3840 1.478 . S
C3839 H3833 0.930 . S
C3839 C3835 1.400 1_655 S
C3839 C3838 1.385 . S
C3840 C3838 1.478 . S
C3840 C3842 1.381 . S
C3840 C3846 1.383 . S
C3841 C3837 1.495 . S
C3841 H3847 0.959 . S
C3841 H3848 0.961 . S
C3841 H3849 0.960 . S
C3842 C3840 1.381 . S
C3842 C3843 1.394 . S
C3842 H3850 0.930 . S
C3843 C3842 1.394 . S
C3843 C3844 1.383 . S
C3843 H3851 0.929 . S
C3844 C3843 1.383 . S
C3844 C3845 1.377 . S
C3845 H3829 0.930 . S
C3845 C3844 1.377 . S
C3845 C3846 1.379 . S
C3846 H3830 0.931 . S
C3846 C3840 1.383 . S
C3846 C3845 1.379 . S
H3847 C3841 0.959 . S
H3848 C3841 0.961 . S
H3849 C3841 0.960 . S
H3850 C3842 0.930 . S
H3851 C3843 0.929 . S
H3852 C3860 0.929 . S
H3853 C3862 0.930 . S
H3854 C3864 0.930 . S
H3855 C3867 0.929 . S
H3856 C3870 0.930 . S
H3857 C3872 0.960 . S
H3858 C3872 0.960 . S
H3859 C3872 0.960 . S
C3860 H3852 0.929 . S
C3860 C3861 1.377 . S
C3860 C3862 1.384 . S
C3861 C3860 1.377 . S
C3861 C3867 1.390 . S
C3862 H3853 0.930 . S
C3862 C3860 1.384 . S
C3862 C3863 1.372 . S
C3863 C3862 1.372 . S
C3863 C3864 1.400 . S
C3863 C3868 1.490 . S
C3864 H3854 0.930 . S
C3864 C3863 1.400 . S
C3864 C3867 1.386 . S
H3865 C3881 0.930 . S
H3866 C3882 0.931 . S
C3867 H3855 0.929 . S
C3867 C3861 1.390 . S
C3867 C3864 1.386 . S
C3868 C3863 1.490 . S
C3868 C3870 1.395 . S
C3868 C3871 1.403 . S
H3869 C3875 0.930 . S
C3870 H3856 0.930 . S
C3870 C3868 1.395 . S
C3870 C3873 1.403 . S
C3871 C3868 1.403 . S
C3871 C3872 1.524 . S
C3871 C3875 1.400 . S
C3872 H3857 0.960 . S
C3872 H3858 0.960 . S
C3872 H3859 0.960 . S
C3872 C3871 1.524 . S
C3873 C3870 1.403 . S
C3873 C3874 1.392 . S
C3873 C3877 1.495 . S
C3874 C3873 1.392 . S
C3874 C3875 1.385 . S
C3874 C3876 1.478 . S
C3875 H3869 0.930 . S
C3875 C3871 1.400 . S
C3875 C3874 1.385 . S
C3876 C3874 1.478 . S
C3876 C3878 1.381 . S
C3876 C3882 1.383 . S
C3877 C3873 1.495 . S
C3877 H3883 0.959 . S
C3877 H3884 0.961 . S
C3877 H3885 0.960 . S
C3878 C3876 1.381 . S
C3878 C3879 1.394 . S
C3878 H3886 0.930 . S
C3879 C3878 1.394 . S
C3879 C3880 1.383 . S
C3879 H3887 0.929 . S
C3880 C3879 1.383 . S
C3880 C3881 1.377 . S
C3881 H3865 0.930 . S
C3881 C3880 1.377 . S
C3881 C3882 1.379 . S
C3882 H3866 0.931 . S
C3882 C3876 1.383 . S
C3882 C3881 1.379 . S
H3883 C3877 0.959 . S
H3884 C3877 0.961 . S
H3885 C3877 0.960 . S
H3886 C3878 0.930 . S
H3887 C3879 0.929 . S
H3888 C3896 0.929 . S
H3889 C3898 0.930 . S
H3890 C3900 0.930 . S
H3891 C3903 0.929 . S
H3892 C3906 0.930 . S
H3893 C3908 0.960 . S
H3894 C3908 0.960 . S
H3895 C3908 0.960 . S
C3896 H3888 0.929 . S
C3896 C3897 1.377 . S
C3896 C3898 1.384 . S
C3897 C3896 1.377 . S
C3897 C3903 1.390 . S
C3898 H3889 0.930 . S
C3898 C3896 1.384 . S
C3898 C3899 1.372 . S
C3899 C3898 1.372 . S
C3899 C3900 1.400 . S
C3899 C3904 1.490 . S
C3900 H3890 0.930 . S
C3900 C3899 1.400 . S
C3900 C3903 1.386 . S
H3901 C3917 0.930 . S
H3902 C3918 0.931 . S
C3903 H3891 0.929 . S
C3903 C3897 1.390 . S
C3903 C3900 1.386 . S
C3904 C3899 1.490 . S
C3904 C3906 1.395 1_565 S
C3904 C3907 1.403 . S
H3905 C3911 0.932 1_565 S
C3906 H3892 0.930 . S
C3906 C3904 1.395 1_545 S
C3906 C3909 1.403 . S
C3907 C3904 1.403 . S
C3907 C3908 1.524 . S
C3907 C3911 1.406 1_565 S
C3908 H3893 0.960 . S
C3908 H3894 0.960 . S
C3908 H3895 0.960 . S
C3908 C3907 1.524 . S
C3909 C3906 1.403 . S
C3909 C3910 1.392 . S
C3909 C3913 1.495 . S
C3910 C3909 1.392 . S
C3910 C3911 1.377 . S
C3910 C3912 1.478 . S
C3911 H3905 0.932 1_545 S
C3911 C3907 1.406 1_545 S
C3911 C3910 1.377 . S
C3912 C3910 1.478 . S
C3912 C3914 1.381 . S
C3912 C3918 1.383 . S
C3913 C3909 1.495 . S
C3913 H3919 0.959 . S
C3913 H3920 0.961 . S
C3913 H3921 0.960 . S
C3914 C3912 1.381 . S
C3914 C3915 1.394 . S
C3914 H3922 0.930 . S
C3915 C3914 1.394 . S
C3915 C3916 1.383 . S
C3915 H3923 0.929 . S
C3916 C3915 1.383 . S
C3916 C3917 1.377 . S
C3917 H3901 0.930 . S
C3917 C3916 1.377 . S
C3917 C3918 1.379 . S
C3918 H3902 0.931 . S
C3918 C3912 1.383 . S
C3918 C3917 1.379 . S
H3919 C3913 0.959 . S
H3920 C3913 0.961 . S
H3921 C3913 0.960 . S
H3922 C3914 0.930 . S
H3923 C3915 0.929 . S
H3924 C3932 0.929 . S
H3925 C3934 0.930 . S
H3926 C3936 0.930 . S
H3927 C3939 0.929 . S
H3928 C3942 0.930 . S
H3929 C3944 0.960 . S
H3930 C3944 0.960 . S
H3931 C3944 0.960 . S
C3932 H3924 0.929 . S
C3932 C3933 1.377 . S
C3932 C3934 1.384 . S
C3933 C3932 1.377 . S
C3933 C3939 1.390 . S
C3934 H3925 0.930 . S
C3934 C3932 1.384 . S
C3934 C3935 1.372 . S
C3935 C3934 1.372 . S
C3935 C3936 1.400 . S
C3935 C3940 1.490 . S
C3936 H3926 0.930 . S
C3936 C3935 1.400 . S
C3936 C3939 1.386 . S
H3937 C3953 0.930 . S
H3938 C3954 0.931 . S
C3939 H3927 0.929 . S
C3939 C3933 1.390 . S
C3939 C3936 1.386 . S
C3940 C3935 1.490 . S
C3940 C3942 1.395 . S
C3940 C3943 1.287 1_655 S
H3941 C3947 0.930 . S
C3942 H3928 0.930 . S
C3942 C3940 1.395 . S
C3942 C3945 1.403 . S
C3943 C3940 1.287 1_455 S
C3943 C3944 1.584 . S
C3943 C3947 1.464 . S
C3944 H3929 0.960 . S
C3944 H3930 0.960 . S
C3944 H3931 0.960 . S
C3944 C3943 1.584 . S
C3945 C3942 1.403 . S
C3945 C3946 1.392 1_655 S
C3945 C3949 1.495 . S
C3946 C3945 1.392 1_455 S
C3946 C3947 1.385 . S
C3946 C3948 1.478 . S
C3947 H3941 0.930 . S
C3947 C3943 1.464 . S
C3947 C3946 1.385 . S
C3948 C3946 1.478 . S
C3948 C3950 1.381 . S
C3948 C3954 1.383 . S
C3949 C3945 1.495 . S
C3949 H3955 0.959 . S
C3949 H3956 0.961 . S
C3949 H3957 0.960 . S
C3950 C3948 1.381 . S
C3950 C3951 1.394 . S
C3950 H3958 0.930 . S
C3951 C3950 1.394 . S
C3951 C3952 1.383 . S
C3951 H3959 0.929 . S
C3952 C3951 1.383 . S
C3952 C3953 1.377 . S
C3953 H3937 0.930 . S
C3953 C3952 1.377 . S
C3953 C3954 1.379 . S
C3954 H3938 0.931 . S
C3954 C3948 1.383 . S
C3954 C3953 1.379 . S
H3955 C3949 0.959 . S
H3956 C3949 0.961 . S
H3957 C3949 0.960 . S
H3958 C3950 0.930 . S
H3959 C3951 0.929 . S
H3960 C3968 0.929 . S
H3961 C3970 0.930 . S
H3962 C3972 0.930 . S
H3963 C3975 0.929 . S
H3964 C3978 0.930 . S
H3965 C3980 0.960 . S
H3966 C3980 0.960 . S
H3967 C3980 0.960 . S
C3968 H3960 0.929 . S
C3968 C3969 1.377 . S
C3968 C3970 1.384 . S
C3969 C3968 1.377 . S
C3969 C3975 1.390 . S
C3970 H3961 0.930 . S
C3970 C3968 1.384 . S
C3970 C3971 1.372 . S
C3971 C3970 1.372 . S
C3971 C3972 1.400 . S
C3971 C3976 1.490 . S
C3972 H3962 0.930 . S
C3972 C3971 1.400 . S
C3972 C3975 1.386 . S
H3973 C3989 0.930 . S
H3974 C3990 0.931 . S
C3975 H3963 0.929 . S
C3975 C3969 1.390 . S
C3975 C3972 1.386 . S
C3976 C3971 1.490 . S
C3976 C3978 1.395 . S
C3976 C3979 1.403 . S
H3977 C3983 0.930 . S
C3978 H3964 0.930 . S
C3978 C3976 1.395 . S
C3978 C3981 1.403 . S
C3979 C3976 1.403 . S
C3979 C3980 1.524 . S
C3979 C3983 1.400 . S
C3980 H3965 0.960 . S
C3980 H3966 0.960 . S
C3980 H3967 0.960 . S
C3980 C3979 1.524 . S
C3981 C3978 1.403 . S
C3981 C3982 1.392 . S
C3981 C3985 1.495 . S
C3982 C3981 1.392 . S
C3982 C3983 1.385 . S
C3982 C3984 1.478 . S
C3983 H3977 0.930 . S
C3983 C3979 1.400 . S
C3983 C3982 1.385 . S
C3984 C3982 1.478 . S
C3984 C3986 1.381 . S
C3984 C3990 1.383 . S
C3985 C3981 1.495 . S
C3985 H3991 0.959 . S
C3985 H3992 0.961 . S
C3985 H3993 0.960 . S
C3986 C3984 1.381 . S
C3986 C3987 1.394 . S
C3986 H3994 0.930 . S
C3987 C3986 1.394 . S
C3987 C3988 1.383 . S
C3987 H3995 0.929 . S
C3988 C3987 1.383 . S
C3988 C3989 1.377 . S
C3989 H3973 0.930 . S
C3989 C3988 1.377 . S
C3989 C3990 1.379 . S
C3990 H3974 0.931 . S
C3990 C3984 1.383 . S
C3990 C3989 1.379 . S
H3991 C3985 0.959 . S
H3992 C3985 0.961 . S
H3993 C3985 0.960 . S
H3994 C3986 0.930 . S
H3995 C3987 0.929 . S
H3996 C4004 0.929 . S
H3997 C4006 0.930 . S
H3998 C4008 0.930 . S
H3999 C4011 0.929 . S
H4000 C4014 0.930 . S
H4001 C4016 0.960 . S
H4002 C4016 0.960 . S
H4003 C4016 0.960 . S
C4004 H3996 0.929 . S
C4004 C4005 1.377 . S
C4004 C4006 1.384 . S
C4005 C4004 1.377 . S
C4005 C4011 1.390 . S
C4006 H3997 0.930 . S
C4006 C4004 1.384 . S
C4006 C4007 1.372 . S
C4007 C4006 1.372 . S
C4007 C4008 1.400 . S
C4007 C4012 1.490 . S
C4008 H3998 0.930 . S
C4008 C4007 1.400 . S
C4008 C4011 1.386 . S
H4009 C4025 0.930 . S
H4010 C4026 0.931 . S
C4011 H3999 0.929 . S
C4011 C4005 1.390 . S
C4011 C4008 1.386 . S
C4012 C4007 1.490 . S
C4012 C4014 1.395 1_545 S
C4012 C4015 1.403 . S
H4013 C4019 0.930 . S
C4014 H4000 0.930 . S
C4014 C4012 1.395 1_565 S
C4014 C4017 1.403 . S
C4015 C4012 1.403 . S
C4015 C4016 1.524 . S
C4015 C4019 1.400 . S
C4016 H4001 0.960 . S
C4016 H4002 0.960 . S
C4016 H4003 0.960 . S
C4016 C4015 1.524 . S
C4017 C4014 1.403 . S
C4017 C4018 1.392 . S
C4017 C4021 1.495 . S
C4018 C4017 1.392 . S
C4018 C4019 1.385 1_565 S
C4018 C4020 1.478 . S
C4019 H4013 0.930 . S
C4019 C4015 1.400 . S
C4019 C4018 1.385 1_545 S
C4020 C4018 1.478 . S
C4020 C4022 1.381 . S
C4020 C4026 1.383 . S
C4021 C4017 1.495 . S
C4021 H4027 0.959 . S
C4021 H4028 0.961 . S
C4021 H4029 0.960 . S
C4022 C4020 1.381 . S
C4022 C4023 1.394 . S
C4022 H4030 0.930 . S
C4023 C4022 1.394 . S
C4023 C4024 1.383 . S
C4023 H4031 0.929 . S
C4024 C4023 1.383 . S
C4024 C4025 1.377 . S
C4025 H4009 0.930 . S
C4025 C4024 1.377 . S
C4025 C4026 1.379 . S
C4026 H4010 0.931 . S
C4026 C4020 1.383 . S
C4026 C4025 1.379 . S
H4027 C4021 0.959 . S
H4028 C4021 0.961 . S
H4029 C4021 0.960 . S
H4030 C4022 0.930 . S
H4031 C4023 0.929 . S
H4032 C4040 0.929 . S
H4033 C4042 0.930 . S
H4034 C4044 0.930 . S
H4035 C4047 0.929 . S
H4036 C4050 0.930 . S
H4037 C4052 0.960 . S
H4038 C4052 0.960 . S
H4039 C4052 0.960 . S
C4040 H4032 0.929 . S
C4040 C4041 1.377 . S
C4040 C4042 1.384 . S
C4041 C4040 1.377 . S
C4041 C4047 1.390 . S
C4042 H4033 0.930 . S
C4042 C4040 1.384 . S
C4042 C4043 1.372 . S
C4043 C4042 1.372 . S
C4043 C4044 1.400 . S
C4043 C4048 1.490 . S
C4044 H4034 0.930 . S
C4044 C4043 1.400 . S
C4044 C4047 1.386 . S
H4045 C4061 0.930 . S
H4046 C4062 0.931 . S
C4047 H4035 0.929 . S
C4047 C4041 1.390 . S
C4047 C4044 1.386 . S
C4048 C4043 1.490 . S
C4048 C4050 1.395 . S
C4048 C4051 1.403 . S
H4049 C4055 0.930 . S
C4050 H4036 0.930 . S
C4050 C4048 1.395 . S
C4050 C4053 1.403 . S
C4051 C4048 1.403 . S
C4051 C4052 1.524 . S
C4051 C4055 1.400 . S
C4052 H4037 0.960 . S
C4052 H4038 0.960 . S
C4052 H4039 0.960 . S
C4052 C4051 1.524 . S
C4053 C4050 1.403 . S
C4053 C4054 1.392 . S
C4053 C4057 1.495 . S
C4054 C4053 1.392 . S
C4054 C4055 1.385 . S
C4054 C4056 1.478 . S
C4055 H4049 0.930 . S
C4055 C4051 1.400 . S
C4055 C4054 1.385 . S
C4056 C4054 1.478 . S
C4056 C4058 1.381 . S
C4056 C4062 1.383 . S
C4057 C4053 1.495 . S
C4057 H4063 0.959 . S
C4057 H4064 0.961 . S
C4057 H4065 0.960 . S
C4058 C4056 1.381 . S
C4058 C4059 1.394 . S
C4058 H4066 0.930 . S
C4059 C4058 1.394 . S
C4059 C4060 1.383 . S
C4059 H4067 0.929 . S
C4060 C4059 1.383 . S
C4060 C4061 1.377 . S
C4061 H4045 0.930 . S
C4061 C4060 1.377 . S
C4061 C4062 1.379 . S
C4062 H4046 0.931 . S
C4062 C4056 1.383 . S
C4062 C4061 1.379 . S
H4063 C4057 0.959 . S
H4064 C4057 0.961 . S
H4065 C4057 0.960 . S
H4066 C4058 0.930 . S
H4067 C4059 0.929 . S
H4068 C4076 0.929 . S
H4069 C4078 0.930 . S
H4070 C4080 0.930 . S
H4071 C4083 0.929 . S
H4072 C4086 0.930 . S
H4073 C4088 0.960 . S
H4074 C4088 0.960 . S
H4075 C4088 0.960 . S
C4076 H4068 0.929 . S
C4076 C4077 1.377 . S
C4076 C4078 1.384 . S
C4077 C4076 1.377 . S
C4077 C4083 1.390 . S
C4078 H4069 0.930 . S
C4078 C4076 1.384 . S
C4078 C4079 1.372 . S
C4079 C4078 1.372 . S
C4079 C4080 1.400 . S
C4079 C4084 1.490 . S
C4080 H4070 0.930 . S
C4080 C4079 1.400 . S
C4080 C4083 1.386 . S
H4081 C4097 0.930 . S
H4082 C4098 0.931 . S
C4083 H4071 0.929 . S
C4083 C4077 1.390 . S
C4083 C4080 1.386 . S
C4084 C4079 1.490 . S
C4084 C4086 1.395 . S
C4084 C4087 1.403 . S
H4085 C4091 0.930 . S
C4086 H4072 0.930 . S
C4086 C4084 1.395 . S
C4086 C4089 1.403 . S
C4087 C4084 1.403 . S
C4087 C4088 1.524 . S
C4087 C4091 1.400 . S
C4088 H4073 0.960 . S
C4088 H4074 0.960 . S
C4088 H4075 0.960 . S
C4088 C4087 1.524 . S
C4089 C4086 1.403 . S
C4089 C4090 1.392 . S
C4089 C4093 1.495 . S
C4090 C4089 1.392 . S
C4090 C4091 1.385 . S
C4090 C4092 1.478 . S
C4091 H4085 0.930 . S
C4091 C4087 1.400 . S
C4091 C4090 1.385 . S
C4092 C4090 1.478 . S
C4092 C4094 1.381 . S
C4092 C4098 1.383 . S
C4093 C4089 1.495 . S
C4093 H4099 0.959 . S
C4093 H4100 0.961 . S
C4093 H4101 0.960 . S
C4094 C4092 1.381 . S
C4094 C4095 1.394 . S
C4094 H4102 0.930 . S
C4095 C4094 1.394 . S
C4095 C4096 1.383 . S
C4095 H4103 0.929 . S
C4096 C4095 1.383 . S
C4096 C4097 1.377 . S
C4097 H4081 0.930 . S
C4097 C4096 1.377 . S
C4097 C4098 1.379 . S
C4098 H4082 0.931 . S
C4098 C4092 1.383 . S
C4098 C4097 1.379 . S
H4099 C4093 0.959 . S
H4100 C4093 0.961 . S
H4101 C4093 0.960 . S
H4102 C4094 0.930 . S
H4103 C4095 0.929 . S
H4104 C4112 0.929 . S
H4105 C4114 0.930 . S
H4106 C4116 0.930 . S
H4107 C4119 0.929 . S
H4108 C4122 0.930 . S
H4109 C4124 0.960 . S
H4110 C4124 0.960 . S
H4111 C4124 0.960 . S
C4112 H4104 0.929 . S
C4112 C4113 1.377 . S
C4112 C4114 1.384 . S
C4113 C4112 1.377 . S
C4113 C4119 1.390 . S
C4114 H4105 0.930 . S
C4114 C4112 1.384 . S
C4114 C4115 1.372 . S
C4115 C4114 1.372 . S
C4115 C4116 1.400 . S
C4115 C4120 1.490 . S
C4116 H4106 0.930 . S
C4116 C4115 1.400 . S
C4116 C4119 1.386 . S
H4117 C4133 0.930 . S
H4118 C4134 0.931 . S
C4119 H4107 0.929 . S
C4119 C4113 1.390 . S
C4119 C4116 1.386 . S
C4120 C4115 1.490 . S
C4120 C4122 1.395 . S
C4120 C4123 1.403 . S
H4121 C4127 0.930 . S
C4122 H4108 0.930 . S
C4122 C4120 1.395 . S
C4122 C4125 1.403 . S
C4123 C4120 1.403 . S
C4123 C4124 1.524 . S
C4123 C4127 1.400 . S
C4124 H4109 0.960 . S
C4124 H4110 0.960 . S
C4124 H4111 0.960 . S
C4124 C4123 1.524 . S
C4125 C4122 1.403 . S
C4125 C4126 1.392 . S
C4125 C4129 1.495 . S
C4126 C4125 1.392 . S
C4126 C4127 1.385 . S
C4126 C4128 1.478 . S
C4127 H4121 0.930 . S
C4127 C4123 1.400 . S
C4127 C4126 1.385 . S
C4128 C4126 1.478 . S
C4128 C4130 1.381 . S
C4128 C4134 1.383 . S
C4129 C4125 1.495 . S
C4129 H4135 0.959 . S
C4129 H4136 0.961 . S
C4129 H4137 0.960 . S
C4130 C4128 1.381 . S
C4130 C4131 1.394 . S
C4130 H4138 0.930 . S
C4131 C4130 1.394 . S
C4131 C4132 1.383 . S
C4131 H4139 0.929 . S
C4132 C4131 1.383 . S
C4132 C4133 1.377 . S
C4133 H4117 0.930 . S
C4133 C4132 1.377 . S
C4133 C4134 1.379 . S
C4134 H4118 0.931 . S
C4134 C4128 1.383 . S
C4134 C4133 1.379 . S
H4135 C4129 0.959 . S
H4136 C4129 0.961 . S
H4137 C4129 0.960 . S
H4138 C4130 0.930 . S
H4139 C4131 0.929 . S
H4140 C4148 0.929 . S
H4141 C4150 0.930 . S
H4142 C4152 0.930 . S
H4143 C4155 0.929 . S
H4144 C4158 0.930 . S
H4145 C4160 0.960 . S
H4146 C4160 0.960 . S
H4147 C4160 0.960 . S
C4148 H4140 0.929 . S
C4148 C4149 1.377 1_554 S
C4148 C4150 1.384 . S
C4149 C4148 1.377 1_556 S
C4149 C4155 1.390 . S
C4150 H4141 0.930 . S
C4150 C4148 1.384 . S
C4150 C4151 1.372 . S
C4151 C4150 1.372 . S
C4151 C4152 1.400 . S
C4151 C4156 1.490 . S
C4152 H4142 0.930 . S
C4152 C4151 1.400 . S
C4152 C4155 1.386 1_554 S
H4153 C4169 0.930 . S
H4154 C4170 0.931 . S
C4155 H4143 0.929 . S
C4155 C4149 1.390 . S
C4155 C4152 1.386 1_556 S
C4156 C4151 1.490 . S
C4156 C4158 1.395 . S
C4156 C4159 1.403 . S
H4157 C4163 0.930 . S
C4158 H4144 0.930 . S
C4158 C4156 1.395 . S
C4158 C4161 1.403 . S
C4159 C4156 1.403 . S
C4159 C4160 1.524 . S
C4159 C4163 1.400 . S
C4160 H4145 0.960 . S
C4160 H4146 0.960 . S
C4160 H4147 0.960 . S
C4160 C4159 1.524 . S
C4161 C4158 1.403 . S
C4161 C4162 1.392 . S
C4161 C4165 1.495 . S
C4162 C4161 1.392 . S
C4162 C4163 1.385 . S
C4162 C4164 1.478 . S
C4163 H4157 0.930 . S
C4163 C4159 1.400 . S
C4163 C4162 1.385 . S
C4164 C4162 1.478 . S
C4164 C4166 1.381 . S
C4164 C4170 1.383 . S
C4165 C4161 1.495 . S
C4165 H4171 0.959 . S
C4165 H4172 0.961 . S
C4165 H4173 0.960 . S
C4166 C4164 1.381 . S
C4166 C4167 1.394 . S
C4166 H4174 0.930 . S
C4167 C4166 1.394 . S
C4167 C4168 1.383 . S
C4167 H4175 0.929 . S
C4168 C4167 1.383 . S
C4168 C4169 1.377 . S
C4169 H4153 0.930 . S
C4169 C4168 1.377 . S
C4169 C4170 1.379 . S
C4170 H4154 0.931 . S
C4170 C4164 1.383 . S
C4170 C4169 1.379 . S
H4171 C4165 0.959 . S
H4172 C4165 0.961 . S
H4173 C4165 0.960 . S
H4174 C4166 0.930 . S
H4175 C4167 0.929 . S
H4176 C4184 0.929 . S
H4177 C4186 0.930 . S
H4178 C4188 0.930 . S
H4179 C4191 0.929 . S
H4180 C4194 0.930 . S
H4181 C4196 0.960 . S
H4182 C4196 0.960 . S
H4183 C4196 0.960 . S
C4184 H4176 0.929 . S
C4184 C4185 1.377 . S
C4184 C4186 1.384 . S
C4185 C4184 1.377 . S
C4185 C4191 1.390 . S
C4186 H4177 0.930 . S
C4186 C4184 1.384 . S
C4186 C4187 1.372 . S
C4187 C4186 1.372 . S
C4187 C4188 1.400 . S
C4187 C4192 1.490 . S
C4188 H4178 0.930 . S
C4188 C4187 1.400 . S
C4188 C4191 1.386 . S
H4189 C4205 0.930 . S
H4190 C4206 0.931 . S
C4191 H4179 0.929 . S
C4191 C4185 1.390 . S
C4191 C4188 1.386 . S
C4192 C4187 1.490 . S
C4192 C4194 1.395 . S
C4192 C4195 1.403 . S
H4193 C4199 0.930 . S
C4194 H4180 0.930 . S
C4194 C4192 1.395 . S
C4194 C4197 1.403 . S
C4195 C4192 1.403 . S
C4195 C4196 1.524 . S
C4195 C4199 1.400 . S
C4196 H4181 0.960 . S
C4196 H4182 0.960 . S
C4196 H4183 0.960 . S
C4196 C4195 1.524 . S
C4197 C4194 1.403 . S
C4197 C4198 1.392 . S
C4197 C4201 1.495 . S
C4198 C4197 1.392 . S
C4198 C4199 1.385 . S
C4198 C4200 1.478 . S
C4199 H4193 0.930 . S
C4199 C4195 1.400 . S
C4199 C4198 1.385 . S
C4200 C4198 1.478 . S
C4200 C4202 1.381 . S
C4200 C4206 1.383 . S
C4201 C4197 1.495 . S
C4201 H4207 0.959 . S
C4201 H4208 0.961 . S
C4201 H4209 0.960 . S
C4202 C4200 1.381 . S
C4202 C4203 1.394 1_554 S
C4202 H4210 0.930 . S
C4203 C4202 1.394 1_556 S
C4203 C4204 1.383 . S
C4203 H4211 0.929 . S
C4204 C4203 1.383 . S
C4204 C4205 1.377 1_556 S
C4205 H4189 0.930 . S
C4205 C4204 1.377 1_554 S
C4205 C4206 1.379 . S
C4206 H4190 0.931 . S
C4206 C4200 1.383 . S
C4206 C4205 1.379 . S
H4207 C4201 0.959 . S
H4208 C4201 0.961 . S
H4209 C4201 0.960 . S
H4210 C4202 0.930 . S
H4211 C4203 0.929 . S
H4212 C4220 0.929 . S
H4213 C4222 0.930 . S
H4214 C4224 0.926 1_556 S
H4215 C4227 0.929 . S
H4216 C4230 0.930 . S
H4217 C4232 0.960 . S
H4218 C4232 0.960 . S
H4219 C4232 0.960 . S
C4220 H4212 0.929 . S
C4220 C4221 1.377 1_554 S
C4220 C4222 1.384 . S
C4221 C4220 1.377 1_556 S
C4221 C4227 1.390 . S
C4222 H4213 0.930 . S
C4222 C4220 1.384 . S
C4222 C4223 1.372 . S
C4223 C4222 1.372 . S
C4223 C4224 1.400 . S
C4223 C4228 1.490 . S
C4224 H4214 0.926 1_554 S
C4224 C4223 1.400 . S
C4224 C4227 1.386 1_554 S
H4225 C4241 0.930 . S
H4226 C4242 0.931 . S
C4227 H4215 0.929 . S
C4227 C4221 1.390 . S
C4227 C4224 1.386 1_556 S
C4228 C4223 1.490 . S
C4228 C4230 1.395 . S
C4228 C4231 1.403 . S
H4229 C4235 0.930 . S
C4230 H4216 0.930 . S
C4230 C4228 1.395 . S
C4230 C4233 1.403 . S
C4231 C4228 1.403 . S
C4231 C4232 1.524 . S
C4231 C4235 1.400 . S
C4232 H4217 0.960 . S
C4232 H4218 0.960 . S
C4232 H4219 0.960 . S
C4232 C4231 1.524 . S
C4233 C4230 1.403 . S
C4233 C4234 1.392 . S
C4233 C4237 1.495 . S
C4234 C4233 1.392 . S
C4234 C4235 1.385 . S
C4234 C4236 1.478 . S
C4235 H4229 0.930 . S
C4235 C4231 1.400 . S
C4235 C4234 1.385 . S
C4236 C4234 1.478 . S
C4236 C4238 1.381 . S
C4236 C4242 1.383 . S
C4237 C4233 1.495 . S
C4237 H4243 0.959 . S
C4237 H4244 0.961 . S
C4237 H4245 0.960 . S
C4238 C4236 1.381 . S
C4238 C4239 1.394 . S
C4238 H4246 0.930 . S
C4239 C4238 1.394 . S
C4239 C4240 1.383 . S
C4239 H4247 0.929 . S
C4240 C4239 1.383 . S
C4240 C4241 1.377 . S
C4241 H4225 0.930 . S
C4241 C4240 1.377 . S
C4241 C4242 1.379 . S
C4242 H4226 0.931 . S
C4242 C4236 1.383 . S
C4242 C4241 1.379 . S
H4243 C4237 0.959 . S
H4244 C4237 0.961 . S
H4245 C4237 0.960 . S
H4246 C4238 0.930 . S
H4247 C4239 0.929 . S
H4248 C4256 0.929 . S
H4249 C4258 0.930 . S
H4250 C4260 0.930 . S
H4251 C4263 0.929 . S
H4252 C4266 0.930 . S
H4253 C4268 0.960 . S
H4254 C4268 0.960 . S
H4255 C4268 0.960 . S
C4256 H4248 0.929 . S
C4256 C4257 1.377 . S
C4256 C4258 1.384 . S
C4257 C4256 1.377 . S
C4257 C4263 1.390 . S
C4258 H4249 0.930 . S
C4258 C4256 1.384 . S
C4258 C4259 1.372 . S
C4259 C4258 1.372 . S
C4259 C4260 1.400 . S
C4259 C4264 1.490 1_554 S
C4260 H4250 0.930 . S
C4260 C4259 1.400 . S
C4260 C4263 1.386 . S
H4261 C4277 0.930 . S
H4262 C4278 0.931 . S
C4263 H4251 0.929 . S
C4263 C4257 1.390 . S
C4263 C4260 1.386 . S
C4264 C4259 1.490 1_556 S
C4264 C4266 1.395 . S
C4264 C4267 1.405 . S
H4265 C4271 0.930 . S
C4266 H4252 0.930 . S
C4266 C4264 1.395 . S
C4266 C4269 1.403 . S
C4267 C4264 1.405 . S
C4267 C4268 1.514 1_556 S
C4267 C4271 1.408 . S
C4268 H4253 0.960 . S
C4268 H4254 0.960 . S
C4268 H4255 0.960 . S
C4268 C4267 1.514 1_554 S
C4269 C4266 1.403 . S
C4269 C4270 1.392 . S
C4269 C4273 1.495 . S
C4270 C4269 1.392 . S
C4270 C4271 1.385 . S
C4270 C4272 1.478 . S
C4271 H4265 0.930 . S
C4271 C4267 1.408 . S
C4271 C4270 1.385 . S
C4272 C4270 1.478 . S
C4272 C4274 1.381 . S
C4272 C4278 1.383 . S
C4273 C4269 1.495 . S
C4273 H4279 0.959 . S
C4273 H4280 0.961 . S
C4273 H4281 0.960 . S
C4274 C4272 1.381 . S
C4274 C4275 1.394 . S
C4274 H4282 0.930 . S
C4275 C4274 1.394 . S
C4275 C4276 1.383 . S
C4275 H4283 0.929 . S
C4276 C4275 1.383 . S
C4276 C4277 1.377 . S
C4277 H4261 0.930 . S
C4277 C4276 1.377 . S
C4277 C4278 1.379 . S
C4278 H4262 0.931 . S
C4278 C4272 1.383 . S
C4278 C4277 1.379 . S
H4279 C4273 0.959 . S
H4280 C4273 0.961 . S
H4281 C4273 0.960 . S
H4282 C4274 0.930 . S
H4283 C4275 0.929 . S
H4284 C4292 0.929 . S
H4285 C4294 0.930 . S
H4286 C4296 0.930 . S
H4287 C4299 0.929 . S
H4288 C4302 0.930 . S
H4289 C4304 0.960 . S
H4290 C4304 0.960 . S
H4291 C4304 0.960 . S
C4292 H4284 0.929 . S
C4292 C4293 1.377 . S
C4292 C4294 1.384 . S
C4293 C4292 1.377 . S
C4293 C4299 1.390 . S
C4294 H4285 0.930 . S
C4294 C4292 1.384 . S
C4294 C4295 1.372 . S
C4295 C4294 1.372 . S
C4295 C4296 1.400 . S
C4295 C4300 1.490 . S
C4296 H4286 0.930 . S
C4296 C4295 1.400 . S
C4296 C4299 1.386 . S
H4297 C4313 0.930 . S
H4298 C4314 0.931 1_556 S
C4299 H4287 0.929 . S
C4299 C4293 1.390 . S
C4299 C4296 1.386 . S
C4300 C4295 1.490 . S
C4300 C4302 1.395 . S
C4300 C4303 1.403 . S
H4301 C4307 0.930 . S
C4302 H4288 0.930 . S
C4302 C4300 1.395 . S
C4302 C4305 1.403 . S
C4303 C4300 1.403 . S
C4303 C4304 1.524 . S
C4303 C4307 1.400 . S
C4304 H4289 0.960 . S
C4304 H4290 0.960 . S
C4304 H4291 0.960 . S
C4304 C4303 1.524 . S
C4305 C4302 1.403 . S
C4305 C4306 1.392 . S
C4305 C4309 1.495 1_556 S
C4306 C4305 1.392 . S
C4306 C4307 1.385 . S
C4306 C4308 1.478 1_556 S
C4307 H4301 0.930 . S
C4307 C4303 1.400 . S
C4307 C4306 1.385 . S
C4308 C4306 1.478 1_554 S
C4308 C4310 1.381 . S
C4308 C4314 1.383 . S
C4309 C4305 1.495 1_554 S
C4309 H4315 0.959 . S
C4309 H4316 0.961 . S
C4309 H4317 0.960 . S
C4310 C4308 1.381 . S
C4310 C4311 1.394 . S
C4310 H4318 0.930 . S
C4311 C4310 1.394 . S
C4311 C4312 1.383 . S
C4311 H4319 0.929 . S
C4312 C4311 1.383 . S
C4312 C4313 1.377 . S
C4313 H4297 0.930 . S
C4313 C4312 1.377 . S
C4313 C4314 1.379 . S
C4314 H4298 0.931 1_554 S
C4314 C4308 1.383 . S
C4314 C4313 1.379 . S
H4315 C4309 0.959 . S
H4316 C4309 0.961 . S
H4317 C4309 0.960 . S
H4318 C4310 0.930 . S
H4319 C4311 0.929 . S
H4320 C4328 0.929 . S
H4321 C4330 0.930 . S
H4322 C4332 0.930 . S
H4323 C4335 0.929 . S
H4324 C4338 0.930 . S
H4325 C4340 0.960 1_554 S
H4326 C4340 0.960 . S
H4327 C4340 0.960 . S
C4328 H4320 0.929 . S
C4328 C4329 1.377 . S
C4328 C4330 1.384 . S
C4329 C4328 1.377 . S
C4329 C4335 1.390 . S
C4330 H4321 0.930 . S
C4330 C4328 1.384 . S
C4330 C4331 1.372 . S
C4331 C4330 1.372 . S
C4331 C4332 1.400 . S
C4331 C4336 1.490 . S
C4332 H4322 0.930 . S
C4332 C4331 1.400 . S
C4332 C4335 1.386 . S
H4333 C4349 0.930 . S
H4334 C4350 0.931 . S
C4335 H4323 0.929 . S
C4335 C4329 1.390 . S
C4335 C4332 1.386 . S
C4336 C4331 1.490 . S
C4336 C4338 1.395 . S
C4336 C4339 1.403 . S
H4337 C4343 0.930 1_554 S
C4338 H4324 0.930 . S
C4338 C4336 1.395 . S
C4338 C4341 1.403 . S
C4339 C4336 1.403 . S
C4339 C4340 1.524 . S
C4339 C4343 1.400 . S
C4340 H4325 0.960 1_556 S
C4340 H4326 0.960 . S
C4340 H4327 0.960 . S
C4340 C4339 1.524 . S
C4341 C4338 1.403 . S
C4341 C4342 1.392 . S
C4341 C4345 1.495 . S
C4342 C4341 1.392 . S
C4342 C4343 1.385 . S
C4342 C4344 1.478 1_556 S
C4343 H4337 0.930 1_556 S
C4343 C4339 1.400 . S
C4343 C4342 1.385 . S
C4344 C4342 1.478 1_554 S
C4344 C4346 1.381 . S
C4344 C4350 1.383 . S
C4345 C4341 1.495 . S
C4345 H4351 0.959 . S
C4345 H4352 0.961 . S
C4345 H4353 0.960 . S
C4346 C4344 1.381 . S
C4346 C4347 1.394 . S
C4346 H4354 0.930 . S
C4347 C4346 1.394 . S
C4347 C4348 1.383 . S
C4347 H4355 0.929 . S
C4348 C4347 1.383 . S
C4348 C4349 1.377 . S
C4349 H4333 0.930 . S
C4349 C4348 1.377 . S
C4349 C4350 1.379 . S
C4350 H4334 0.931 . S
C4350 C4344 1.383 . S
C4350 C4349 1.379 . S
H4351 C4345 0.959 . S
H4352 C4345 0.961 . S
H4353 C4345 0.960 . S
H4354 C4346 0.930 . S
H4355 C4347 0.929 . S
H4356 C4364 0.929 . S
H4357 C4366 0.930 . S
H4358 C4368 0.930 . S
H4359 C4371 0.929 . S
H4360 C4374 0.930 . S
H4361 C4376 0.960 . S
H4362 C4376 0.960 . S
H4363 C4376 0.960 . S
C4364 H4356 0.929 . S
C4364 C4365 1.377 . S
C4364 C4366 1.384 . S
C4365 C4364 1.377 . S
C4365 C4371 1.390 . S
C4366 H4357 0.930 . S
C4366 C4364 1.384 . S
C4366 C4367 1.372 . S
C4367 C4366 1.372 . S
C4367 C4368 1.400 . S
C4367 C4372 1.490 . S
C4368 H4358 0.930 . S
C4368 C4367 1.400 . S
C4368 C4371 1.386 . S
H4369 C4385 0.930 . S
H4370 C4386 0.931 . S
C4371 H4359 0.929 . S
C4371 C4365 1.390 . S
C4371 C4368 1.386 . S
C4372 C4367 1.490 . S
C4372 C4374 1.395 . S
C4372 C4375 1.403 . S
H4373 C4379 0.930 . S
C4374 H4360 0.930 . S
C4374 C4372 1.395 . S
C4374 C4377 1.403 . S
C4375 C4372 1.403 . S
C4375 C4376 1.524 . S
C4375 C4379 1.400 . S
C4376 H4361 0.960 . S
C4376 H4362 0.960 . S
C4376 H4363 0.960 . S
C4376 C4375 1.524 . S
C4377 C4374 1.403 . S
C4377 C4378 1.392 . S
C4377 C4381 1.495 . S
C4378 C4377 1.392 . S
C4378 C4379 1.385 . S
C4378 C4380 1.478 . S
C4379 H4373 0.930 . S
C4379 C4375 1.400 . S
C4379 C4378 1.385 . S
C4380 C4378 1.478 . S
C4380 C4382 1.381 . S
C4380 C4386 1.383 . S
C4381 C4377 1.495 . S
C4381 H4387 0.959 . S
C4381 H4388 0.961 . S
C4381 H4389 0.960 . S
C4382 C4380 1.381 . S
C4382 C4383 1.394 . S
C4382 H4390 0.930 . S
C4383 C4382 1.394 . S
C4383 C4384 1.383 . S
C4383 H4391 0.929 . S
C4384 C4383 1.383 . S
C4384 C4385 1.377 . S
C4385 H4369 0.930 . S
C4385 C4384 1.377 . S
C4385 C4386 1.379 . S
C4386 H4370 0.931 . S
C4386 C4380 1.383 . S
C4386 C4385 1.379 . S
H4387 C4381 0.959 . S
H4388 C4381 0.961 . S
H4389 C4381 0.960 . S
H4390 C4382 0.930 . S
H4391 C4383 0.929 . S
H4392 C4400 0.929 . S
H4393 C4402 0.930 . S
H4394 C4404 0.930 . S
H4395 C4407 0.929 . S
H4396 C4410 0.930 . S
H4397 C4412 0.960 . S
H4398 C4412 0.960 . S
H4399 C4412 0.960 . S
C4400 H4392 0.929 . S
C4400 C4401 1.377 . S
C4400 C4402 1.384 . S
C4401 C4400 1.377 . S
C4401 C4407 1.390 . S
C4402 H4393 0.930 . S
C4402 C4400 1.384 . S
C4402 C4403 1.372 . S
C4403 C4402 1.372 . S
C4403 C4404 1.400 . S
C4403 C4408 1.490 . S
C4404 H4394 0.930 . S
C4404 C4403 1.400 . S
C4404 C4407 1.386 . S
H4405 C4421 0.930 . S
H4406 C4422 0.931 . S
C4407 H4395 0.929 . S
C4407 C4401 1.390 . S
C4407 C4404 1.386 . S
C4408 C4403 1.490 . S
C4408 C4410 1.395 . S
C4408 C4411 1.403 . S
H4409 C4415 0.930 . S
C4410 H4396 0.930 . S
C4410 C4408 1.395 . S
C4410 C4413 1.403 . S
C4411 C4408 1.403 . S
C4411 C4412 1.524 . S
C4411 C4415 1.400 . S
C4412 H4397 0.960 . S
C4412 H4398 0.960 . S
C4412 H4399 0.960 . S
C4412 C4411 1.524 . S
C4413 C4410 1.403 . S
C4413 C4414 1.392 . S
C4413 C4417 1.495 . S
C4414 C4413 1.392 . S
C4414 C4415 1.385 . S
C4414 C4416 1.478 . S
C4415 H4409 0.930 . S
C4415 C4411 1.400 . S
C4415 C4414 1.385 . S
C4416 C4414 1.478 . S
C4416 C4418 1.381 . S
C4416 C4422 1.383 . S
C4417 C4413 1.495 . S
C4417 H4423 0.959 . S
C4417 H4424 0.961 . S
C4417 H4425 0.960 . S
C4418 C4416 1.381 . S
C4418 C4419 1.394 . S
C4418 H4426 0.930 . S
C4419 C4418 1.394 . S
C4419 C4420 1.383 . S
C4419 H4427 0.929 . S
C4420 C4419 1.383 . S
C4420 C4421 1.377 . S
C4421 H4405 0.930 . S
C4421 C4420 1.377 . S
C4421 C4422 1.379 . S
C4422 H4406 0.931 . S
C4422 C4416 1.383 . S
C4422 C4421 1.379 . S
H4423 C4417 0.959 . S
H4424 C4417 0.961 . S
H4425 C4417 0.960 . S
H4426 C4418 0.930 . S
H4427 C4419 0.929 . S
H4428 C4436 0.929 . S
H4429 C4438 0.930 . S
H4430 C4440 0.930 . S
H4431 C4443 0.929 . S
H4432 C4446 0.930 . S
H4433 C4448 0.960 . S
H4434 C4448 0.960 . S
H4435 C4448 0.960 . S
C4436 H4428 0.929 . S
C4436 C4437 1.377 . S
C4436 C4438 1.384 . S
C4437 C4436 1.377 . S
C4437 C4443 1.390 . S
C4438 H4429 0.930 . S
C4438 C4436 1.384 . S
C4438 C4439 1.372 . S
C4439 C4438 1.372 . S
C4439 C4440 1.400 . S
C4439 C4444 1.490 . S
C4440 H4430 0.930 . S
C4440 C4439 1.400 . S
C4440 C4443 1.386 . S
H4441 C4457 0.930 . S
H4442 C4458 0.931 . S
C4443 H4431 0.929 . S
C4443 C4437 1.390 . S
C4443 C4440 1.386 . S
C4444 C4439 1.490 . S
C4444 C4446 1.395 . S
C4444 C4447 1.403 . S
H4445 C4451 0.930 . S
C4446 H4432 0.930 . S
C4446 C4444 1.395 . S
C4446 C4449 1.403 . S
C4447 C4444 1.403 . S
C4447 C4448 1.524 . S
C4447 C4451 1.400 . S
C4448 H4433 0.960 . S
C4448 H4434 0.960 . S
C4448 H4435 0.960 . S
C4448 C4447 1.524 . S
C4449 C4446 1.403 . S
C4449 C4450 1.392 . S
C4449 C4453 1.495 . S
C4450 C4449 1.392 . S
C4450 C4451 1.385 . S
C4450 C4452 1.478 . S
C4451 H4445 0.930 . S
C4451 C4447 1.400 . S
C4451 C4450 1.385 . S
C4452 C4450 1.478 . S
C4452 C4454 1.381 . S
C4452 C4458 1.383 . S
C4453 C4449 1.495 . S
C4453 H4459 0.959 . S
C4453 H4460 0.961 . S
C4453 H4461 0.960 . S
C4454 C4452 1.381 . S
C4454 C4455 1.394 . S
C4454 H4462 0.930 . S
C4455 C4454 1.394 . S
C4455 C4456 1.383 . S
C4455 H4463 0.929 . S
C4456 C4455 1.383 . S
C4456 C4457 1.377 . S
C4457 H4441 0.930 . S
C4457 C4456 1.377 . S
C4457 C4458 1.379 . S
C4458 H4442 0.931 . S
C4458 C4452 1.383 . S
C4458 C4457 1.379 . S
H4459 C4453 0.959 . S
H4460 C4453 0.961 . S
H4461 C4453 0.960 . S
H4462 C4454 0.930 . S
H4463 C4455 0.929 . S
H4464 C4472 0.929 . S
H4465 C4474 0.930 . S
H4466 C4476 0.930 . S
H4467 C4479 0.929 . S
H4468 C4482 0.930 . S
H4469 C4484 0.960 . S
H4470 C4484 0.960 . S
H4471 C4484 0.960 . S
C4472 H4464 0.929 . S
C4472 C4473 1.377 . S
C4472 C4474 1.384 . S
C4473 C4472 1.377 . S
C4473 C4479 1.390 . S
C4474 H4465 0.930 . S
C4474 C4472 1.384 . S
C4474 C4475 1.372 . S
C4475 C4474 1.372 . S
C4475 C4476 1.400 . S
C4475 C4480 1.490 . S
C4476 H4466 0.930 . S
C4476 C4475 1.400 . S
C4476 C4479 1.386 . S
H4477 C4493 0.930 . S
H4478 C4494 0.931 . S
C4479 H4467 0.929 . S
C4479 C4473 1.390 . S
C4479 C4476 1.386 . S
C4480 C4475 1.490 . S
C4480 C4482 1.395 . S
C4480 C4483 1.403 . S
H4481 C4487 0.930 1_556 S
C4482 H4468 0.930 . S
C4482 C4480 1.395 . S
C4482 C4485 1.403 1_455 S
C4483 C4480 1.403 . S
C4483 C4484 1.524 1_554 S
C4483 C4487 1.400 1_455 S
C4484 H4469 0.960 . S
C4484 H4470 0.960 . S
C4484 H4471 0.960 . S
C4484 C4483 1.524 1_556 S
C4485 C4482 1.403 1_655 S
C4485 C4486 1.392 . S
C4485 C4489 1.495 . S
C4486 C4485 1.392 . S
C4486 C4487 1.385 . S
C4486 C4488 1.478 . S
C4487 H4481 0.930 1_554 S
C4487 C4483 1.400 1_655 S
C4487 C4486 1.385 . S
C4488 C4486 1.478 . S
C4488 C4490 1.381 . S
C4488 C4494 1.383 . S
C4489 C4485 1.495 . S
C4489 H4495 0.959 . S
C4489 H4496 0.961 . S
C4489 H4497 0.960 . S
C4490 C4488 1.381 . S
C4490 C4491 1.394 . S
C4490 H4498 0.930 . S
C4491 C4490 1.394 . S
C4491 C4492 1.383 . S
C4491 H4499 0.929 . S
C4492 C4491 1.383 . S
C4492 C4493 1.377 . S
C4493 H4477 0.930 . S
C4493 C4492 1.377 . S
C4493 C4494 1.379 . S
C4494 H4478 0.931 . S
C4494 C4488 1.383 . S
C4494 C4493 1.379 . S
H4495 C4489 0.959 . S
H4496 C4489 0.961 . S
H4497 C4489 0.960 . S
H4498 C4490 0.930 . S
H4499 C4491 0.929 . S
H4500 C4508 0.929 . S
H4501 C4510 0.930 . S
H4502 C4512 0.930 1_556 S
H4503 C4515 0.929 1_556 S
H4504 C4518 0.930 . S
H4505 C4520 0.960 . S
H4506 C4520 0.960 . S
H4507 C4520 0.960 . S
C4508 H4500 0.929 . S
C4508 C4509 1.377 . S
C4508 C4510 1.384 . S
C4509 C4508 1.377 . S
C4509 C4515 1.390 . S
C4510 H4501 0.930 . S
C4510 C4508 1.384 . S
C4510 C4511 1.372 . S
C4511 C4510 1.372 . S
C4511 C4512 1.400 . S
C4511 C4516 1.490 . S
C4512 H4502 0.930 1_554 S
C4512 C4511 1.400 . S
C4512 C4515 1.386 . S
H4513 C4529 0.930 . S
H4514 C4530 0.931 . S
C4515 H4503 0.929 1_554 S
C4515 C4509 1.390 . S
C4515 C4512 1.386 . S
C4516 C4511 1.490 . S
C4516 C4518 1.395 . S
C4516 C4519 1.403 . S
H4517 C4523 0.930 . S
C4518 H4504 0.930 . S
C4518 C4516 1.395 . S
C4518 C4521 1.403 . S
C4519 C4516 1.403 . S
C4519 C4520 1.524 . S
C4519 C4523 1.400 . S
C4520 H4505 0.960 . S
C4520 H4506 0.960 . S
C4520 H4507 0.960 . S
C4520 C4519 1.524 . S
C4521 C4518 1.403 . S
C4521 C4522 1.392 . S
C4521 C4525 1.495 . S
C4522 C4521 1.392 . S
C4522 C4523 1.385 . S
C4522 C4524 1.478 . S
C4523 H4517 0.930 . S
C4523 C4519 1.400 . S
C4523 C4522 1.385 . S
C4524 C4522 1.478 . S
C4524 C4526 1.381 . S
C4524 C4530 1.383 1_554 S
C4525 C4521 1.495 . S
C4525 H4531 0.959 . S
C4525 H4532 0.961 . S
C4525 H4533 0.960 . S
C4526 C4524 1.381 . S
C4526 C4527 1.394 . S
C4526 H4534 0.930 . S
C4527 C4526 1.394 . S
C4527 C4528 1.383 . S
C4527 H4535 0.929 . S
C4528 C4527 1.383 . S
C4528 C4529 1.377 1_554 S
C4529 H4513 0.930 . S
C4529 C4528 1.377 1_556 S
C4529 C4530 1.379 . S
C4530 H4514 0.931 . S
C4530 C4524 1.383 1_556 S
C4530 C4529 1.379 . S
H4531 C4525 0.959 . S
H4532 C4525 0.961 . S
H4533 C4525 0.960 . S
H4534 C4526 0.930 . S
H4535 C4527 0.929 . S
H4536 C4544 0.929 . S
H4537 C4546 0.930 . S
H4538 C4548 0.930 . S
H4539 C4551 0.929 . S
H4540 C4554 0.930 . S
H4541 C4556 0.960 . S
H4542 C4556 0.960 . S
H4543 C4556 0.960 . S
C4544 H4536 0.929 . S
C4544 C4545 1.377 . S
C4544 C4546 1.384 . S
C4545 C4544 1.377 . S
C4545 C4551 1.390 . S
C4546 H4537 0.930 . S
C4546 C4544 1.384 . S
C4546 C4547 1.372 . S
C4547 C4546 1.372 . S
C4547 C4548 1.400 . S
C4547 C4552 1.490 . S
C4548 H4538 0.930 . S
C4548 C4547 1.400 . S
C4548 C4551 1.386 . S
H4549 C4565 0.930 . S
H4550 C4566 0.931 . S
C4551 H4539 0.929 . S
C4551 C4545 1.390 . S
C4551 C4548 1.386 . S
C4552 C4547 1.490 . S
C4552 C4554 1.395 . S
C4552 C4555 1.403 . S
H4553 C4559 0.930 1_556 S
C4554 H4540 0.930 . S
C4554 C4552 1.395 . S
C4554 C4557 1.403 1_545 S
C4555 C4552 1.403 . S
C4555 C4556 1.524 1_554 S
C4555 C4559 1.400 1_545 S
C4556 H4541 0.960 . S
C4556 H4542 0.960 . S
C4556 H4543 0.960 . S
C4556 C4555 1.524 1_556 S
C4557 C4554 1.403 1_565 S
C4557 C4558 1.392 . S
C4557 C4561 1.495 . S
C4558 C4557 1.392 . S
C4558 C4559 1.385 . S
C4558 C4560 1.478 . S
C4559 H4553 0.930 1_554 S
C4559 C4555 1.400 1_565 S
C4559 C4558 1.385 . S
C4560 C4558 1.478 . S
C4560 C4562 1.381 . S
C4560 C4566 1.383 . S
C4561 C4557 1.495 . S
C4561 H4567 0.959 . S
C4561 H4568 0.961 . S
C4561 H4569 0.960 . S
C4562 C4560 1.381 . S
C4562 C4563 1.394 . S
C4562 H4570 0.930 . S
C4563 C4562 1.394 . S
C4563 C4564 1.383 . S
C4563 H4571 0.929 . S
C4564 C4563 1.383 . S
C4564 C4565 1.377 . S
C4565 H4549 0.930 . S
C4565 C4564 1.377 . S
C4565 C4566 1.379 . S
C4566 H4550 0.931 . S
C4566 C4560 1.383 . S
C4566 C4565 1.379 . S
H4567 C4561 0.959 . S
H4568 C4561 0.961 . S
H4569 C4561 0.960 . S
H4570 C4562 0.930 . S
H4571 C4563 0.929 . S
H4572 C4580 0.929 . S
H4573 C4582 0.930 . S
H4574 C4584 0.930 . S
H4575 C4587 0.929 . S
H4576 C4590 0.930 . S
H4577 C4592 0.960 1_545 S
H4578 C4592 0.960 . S
H4579 C4592 0.960 . S
C4580 H4572 0.929 . S
C4580 C4581 1.377 . S
C4580 C4582 1.384 . S
C4581 C4580 1.377 . S
C4581 C4587 1.390 . S
C4582 H4573 0.930 . S
C4582 C4580 1.384 . S
C4582 C4583 1.372 . S
C4583 C4582 1.372 . S
C4583 C4584 1.400 . S
C4583 C4588 1.490 . S
C4584 H4574 0.930 . S
C4584 C4583 1.400 . S
C4584 C4587 1.386 . S
H4585 C4601 0.930 . S
H4586 C4602 0.931 . S
C4587 H4575 0.929 . S
C4587 C4581 1.390 . S
C4587 C4584 1.386 . S
C4588 C4583 1.490 . S
C4588 C4590 1.395 . S
C4588 C4591 1.403 . S
H4589 C4595 0.930 . S
C4590 H4576 0.930 . S
C4590 C4588 1.395 . S
C4590 C4593 1.403 1_565 S
C4591 C4588 1.403 . S
C4591 C4592 1.524 . S
C4591 C4595 1.400 1_565 S
C4592 H4577 0.960 1_565 S
C4592 H4578 0.960 . S
C4592 H4579 0.960 . S
C4592 C4591 1.524 . S
C4593 C4590 1.403 1_545 S
C4593 C4594 1.392 . S
C4593 C4597 1.495 . S
C4594 C4593 1.392 . S
C4594 C4595 1.385 . S
C4594 C4596 1.478 . S
C4595 H4589 0.930 . S
C4595 C4591 1.400 1_545 S
C4595 C4594 1.385 . S
C4596 C4594 1.478 . S
C4596 C4598 1.381 . S
C4596 C4602 1.383 . S
C4597 C4593 1.495 . S
C4597 H4603 0.959 1_545 S
C4597 H4604 0.961 . S
C4597 H4605 0.960 . S
C4598 C4596 1.381 . S
C4598 C4599 1.394 . S
C4598 H4606 0.930 . S
C4599 C4598 1.394 . S
C4599 C4600 1.383 . S
C4599 H4607 0.929 . S
C4600 C4599 1.383 . S
C4600 C4601 1.377 . S
C4601 H4585 0.930 . S
C4601 C4600 1.377 . S
C4601 C4602 1.379 . S
C4602 H4586 0.931 . S
C4602 C4596 1.383 . S
C4602 C4601 1.379 . S
H4603 C4597 0.959 1_565 S
H4604 C4597 0.961 . S
H4605 C4597 0.960 . S
H4606 C4598 0.930 . S
H4607 C4599 0.929 . S
H4608 C4616 0.929 . S
H4609 C4618 0.930 . S
H4610 C4620 0.930 . S
H4611 C4623 0.929 . S
H4612 C4626 0.930 . S
H4613 C4628 0.960 1_455 S
H4614 C4628 0.960 . S
H4615 C4628 0.960 . S
C4616 H4608 0.929 . S
C4616 C4617 1.377 . S
C4616 C4618 1.384 . S
C4617 C4616 1.377 . S
C4617 C4623 1.390 . S
C4618 H4609 0.930 . S
C4618 C4616 1.384 . S
C4618 C4619 1.372 . S
C4619 C4618 1.372 . S
C4619 C4620 1.400 . S
C4619 C4624 1.490 . S
C4620 H4610 0.930 . S
C4620 C4619 1.400 . S
C4620 C4623 1.386 . S
H4621 C4637 0.930 . S
H4622 C4638 0.931 . S
C4623 H4611 0.929 . S
C4623 C4617 1.390 . S
C4623 C4620 1.386 . S
C4624 C4619 1.490 . S
C4624 C4626 1.395 . S
C4624 C4627 1.403 . S
H4625 C4631 0.930 . S
C4626 H4612 0.930 . S
C4626 C4624 1.395 . S
C4626 C4629 1.400 . S
C4627 C4624 1.403 . S
C4627 C4628 1.524 . S
C4627 C4631 1.400 1_655 S
C4628 H4613 0.960 1_655 S
C4628 H4614 0.960 . S
C4628 H4615 0.960 . S
C4628 C4627 1.524 . S
C4629 C4626 1.400 . S
C4629 C4630 1.399 1_655 S
C4629 C4633 1.551 1_655 S
C4630 C4629 1.399 1_455 S
C4630 C4631 1.385 . S
C4630 C4632 1.478 . S
C4631 H4625 0.930 . S
C4631 C4627 1.400 1_455 S
C4631 C4630 1.385 . S
C4632 C4630 1.478 . S
C4632 C4634 1.381 . S
C4632 C4638 1.383 . S
C4633 C4629 1.551 1_455 S
C4633 H4639 0.832 1_455 S
C4633 H4640 0.995 . S
C4633 H4641 1.014 . S
C4634 C4632 1.381 . S
C4634 C4635 1.394 . S
C4634 H4642 0.930 . S
C4635 C4634 1.394 . S
C4635 C4636 1.383 . S
C4635 H4643 0.929 . S
C4636 C4635 1.383 . S
C4636 C4637 1.377 . S
C4637 H4621 0.930 . S
C4637 C4636 1.377 . S
C4637 C4638 1.379 . S
C4638 H4622 0.931 . S
C4638 C4632 1.383 . S
C4638 C4637 1.379 . S
H4639 C4633 0.832 1_655 S
H4640 C4633 0.995 . S
H4641 C4633 1.014 . S
H4642 C4634 0.930 . S
H4643 C4635 0.929 . S
H4644 C4652 0.929 . S
H4645 C4654 0.930 . S
H4646 C4656 0.930 . S
H4647 C4659 0.929 . S
H4648 C4662 0.930 . S
H4649 C4664 0.960 . S
H4650 C4664 0.960 . S
H4651 C4664 0.960 . S
C4652 H4644 0.929 . S
C4652 C4653 1.377 . S
C4652 C4654 1.384 . S
C4653 C4652 1.377 . S
C4653 C4659 1.390 . S
C4654 H4645 0.930 . S
C4654 C4652 1.384 . S
C4654 C4655 1.372 . S
C4655 C4654 1.372 . S
C4655 C4656 1.400 . S
C4655 C4660 1.490 . S
C4656 H4646 0.930 . S
C4656 C4655 1.400 . S
C4656 C4659 1.386 . S
H4657 C4673 0.930 . S
H4658 C4674 0.931 . S
C4659 H4647 0.929 . S
C4659 C4653 1.390 . S
C4659 C4656 1.386 . S
C4660 C4655 1.490 . S
C4660 C4662 1.395 . S
C4660 C4663 1.403 . S
H4661 C4667 0.930 . S
C4662 H4648 0.930 . S
C4662 C4660 1.395 . S
C4662 C4665 1.403 . S
C4663 C4660 1.403 . S
C4663 C4664 1.524 . S
C4663 C4667 1.400 . S
C4664 H4649 0.960 . S
C4664 H4650 0.960 . S
C4664 H4651 0.960 . S
C4664 C4663 1.524 . S
C4665 C4662 1.403 . S
C4665 C4666 1.392 . S
C4665 C4669 1.495 . S
C4666 C4665 1.392 . S
C4666 C4667 1.385 . S
C4666 C4668 1.478 . S
C4667 H4661 0.930 . S
C4667 C4663 1.400 . S
C4667 C4666 1.385 . S
C4668 C4666 1.478 . S
C4668 C4670 1.381 . S
C4668 C4674 1.383 . S
C4669 C4665 1.495 . S
C4669 H4675 0.959 . S
C4669 H4676 0.961 . S
C4669 H4677 0.960 . S
C4670 C4668 1.381 . S
C4670 C4671 1.394 . S
C4670 H4678 0.930 . S
C4671 C4670 1.394 . S
C4671 C4672 1.383 . S
C4671 H4679 0.929 . S
C4672 C4671 1.383 . S
C4672 C4673 1.377 . S
C4673 H4657 0.930 . S
C4673 C4672 1.377 . S
C4673 C4674 1.379 . S
C4674 H4658 0.931 . S
C4674 C4668 1.383 . S
C4674 C4673 1.379 . S
H4675 C4669 0.959 . S
H4676 C4669 0.961 . S
H4677 C4669 0.960 . S
H4678 C4670 0.930 . S
H4679 C4671 0.929 . S
H4680 C4688 0.929 . S
H4681 C4690 0.930 . S
H4682 C4692 0.930 . S
H4683 C4695 0.929 . S
H4684 C4698 0.930 . S
H4685 C4700 0.960 . S
H4686 C4700 0.960 . S
H4687 C4700 0.960 . S
C4688 H4680 0.929 . S
C4688 C4689 1.377 . S
C4688 C4690 1.384 . S
C4689 C4688 1.377 . S
C4689 C4695 1.390 . S
C4690 H4681 0.930 . S
C4690 C4688 1.384 . S
C4690 C4691 1.372 . S
C4691 C4690 1.372 . S
C4691 C4692 1.400 . S
C4691 C4696 1.490 . S
C4692 H4682 0.930 . S
C4692 C4691 1.400 . S
C4692 C4695 1.386 . S
H4693 C4709 0.930 . S
H4694 C4710 0.931 . S
C4695 H4683 0.929 . S
C4695 C4689 1.390 . S
C4695 C4692 1.386 . S
C4696 C4691 1.490 . S
C4696 C4698 1.395 . S
C4696 C4699 1.403 . S
H4697 C4703 0.930 . S
C4698 H4684 0.930 . S
C4698 C4696 1.395 . S
C4698 C4701 1.403 . S
C4699 C4696 1.403 . S
C4699 C4700 1.524 . S
C4699 C4703 1.400 . S
C4700 H4685 0.960 . S
C4700 H4686 0.960 . S
C4700 H4687 0.960 . S
C4700 C4699 1.524 . S
C4701 C4698 1.403 . S
C4701 C4702 1.392 . S
C4701 C4705 1.495 . S
C4702 C4701 1.392 . S
C4702 C4703 1.385 . S
C4702 C4704 1.478 . S
C4703 H4697 0.930 . S
C4703 C4699 1.400 . S
C4703 C4702 1.385 . S
C4704 C4702 1.478 . S
C4704 C4706 1.381 . S
C4704 C4710 1.383 . S
C4705 C4701 1.495 . S
C4705 H4711 0.959 . S
C4705 H4712 0.961 . S
C4705 H4713 0.960 . S
C4706 C4704 1.381 . S
C4706 C4707 1.394 . S
C4706 H4714 0.930 . S
C4707 C4706 1.394 . S
C4707 C4708 1.383 . S
C4707 H4715 0.929 . S
C4708 C4707 1.383 . S
C4708 C4709 1.377 . S
C4709 H4693 0.930 . S
C4709 C4708 1.377 . S
C4709 C4710 1.379 . S
C4710 H4694 0.931 . S
C4710 C4704 1.383 . S
C4710 C4709 1.379 . S
H4711 C4705 0.959 . S
H4712 C4705 0.961 . S
H4713 C4705 0.960 . S
H4714 C4706 0.930 . S
H4715 C4707 0.929 . S
H4716 C4724 0.929 . S
H4717 C4726 0.930 . S
H4718 C4728 0.930 . S
H4719 C4731 0.929 . S
H4720 C4734 0.930 . S
H4721 C4736 0.960 . S
H4722 C4736 0.960 . S
H4723 C4736 0.960 . S
C4724 H4716 0.929 . S
C4724 C4725 1.377 . S
C4724 C4726 1.384 . S
C4725 C4724 1.377 . S
C4725 C4731 1.390 . S
C4726 H4717 0.930 . S
C4726 C4724 1.384 . S
C4726 C4727 1.372 . S
C4727 C4726 1.372 . S
C4727 C4728 1.400 . S
C4727 C4732 1.490 . S
C4728 H4718 0.930 . S
C4728 C4727 1.400 . S
C4728 C4731 1.386 . S
H4729 C4745 0.930 . S
H4730 C4746 0.931 . S
C4731 H4719 0.929 . S
C4731 C4725 1.390 . S
C4731 C4728 1.386 . S
C4732 C4727 1.490 . S
C4732 C4734 1.395 . S
C4732 C4735 1.403 . S
H4733 C4739 0.930 . S
C4734 H4720 0.930 . S
C4734 C4732 1.395 . S
C4734 C4737 1.403 . S
C4735 C4732 1.403 . S
C4735 C4736 1.524 . S
C4735 C4739 1.400 . S
C4736 H4721 0.960 . S
C4736 H4722 0.960 . S
C4736 H4723 0.960 . S
C4736 C4735 1.524 . S
C4737 C4734 1.403 . S
C4737 C4738 1.392 . S
C4737 C4741 1.495 . S
C4738 C4737 1.392 . S
C4738 C4739 1.385 . S
C4738 C4740 1.478 . S
C4739 H4733 0.930 . S
C4739 C4735 1.400 . S
C4739 C4738 1.385 . S
C4740 C4738 1.478 . S
C4740 C4742 1.381 . S
C4740 C4746 1.383 . S
C4741 C4737 1.495 . S
C4741 H4747 0.959 . S
C4741 H4748 0.961 . S
C4741 H4749 0.960 . S
C4742 C4740 1.381 . S
C4742 C4743 1.394 . S
C4742 H4750 0.930 . S
C4743 C4742 1.394 . S
C4743 C4744 1.383 . S
C4743 H4751 0.929 . S
C4744 C4743 1.383 . S
C4744 C4745 1.377 . S
C4745 H4729 0.930 . S
C4745 C4744 1.377 . S
C4745 C4746 1.379 . S
C4746 H4730 0.931 . S
C4746 C4740 1.383 . S
C4746 C4745 1.379 . S
H4747 C4741 0.959 . S
H4748 C4741 0.961 . S
H4749 C4741 0.960 . S
H4750 C4742 0.930 . S
H4751 C4743 0.929 . S
H4752 C4760 0.929 . S
H4753 C4762 0.930 . S
H4754 C4764 0.930 . S
H4755 C4767 0.929 . S
H4756 C4770 0.930 . S
H4757 C4772 0.960 . S
H4758 C4772 0.960 . S
H4759 C4772 0.960 . S
C4760 H4752 0.929 . S
C4760 C4761 1.377 . S
C4760 C4762 1.384 . S
C4761 C4760 1.377 . S
C4761 C4767 1.390 . S
C4762 H4753 0.930 . S
C4762 C4760 1.384 . S
C4762 C4763 1.372 . S
C4763 C4762 1.372 . S
C4763 C4764 1.400 . S
C4763 C4768 1.490 . S
C4764 H4754 0.930 . S
C4764 C4763 1.400 . S
C4764 C4767 1.386 . S
H4765 C4781 0.930 . S
H4766 C4782 0.931 . S
C4767 H4755 0.929 . S
C4767 C4761 1.390 . S
C4767 C4764 1.386 . S
C4768 C4763 1.490 . S
C4768 C4770 1.395 . S
C4768 C4771 1.403 . S
H4769 C4775 0.930 . S
C4770 H4756 0.930 . S
C4770 C4768 1.395 . S
C4770 C4773 1.403 . S
C4771 C4768 1.403 . S
C4771 C4772 1.524 . S
C4771 C4775 1.400 . S
C4772 H4757 0.960 . S
C4772 H4758 0.960 . S
C4772 H4759 0.960 . S
C4772 C4771 1.524 . S
C4773 C4770 1.403 . S
C4773 C4774 1.392 . S
C4773 C4777 1.495 . S
C4774 C4773 1.392 . S
C4774 C4775 1.385 . S
C4774 C4776 1.478 . S
C4775 H4769 0.930 . S
C4775 C4771 1.400 . S
C4775 C4774 1.385 . S
C4776 C4774 1.478 . S
C4776 C4778 1.381 . S
C4776 C4782 1.383 . S
C4777 C4773 1.495 . S
C4777 H4783 0.959 . S
C4777 H4784 0.961 . S
C4777 H4785 0.960 . S
C4778 C4776 1.381 . S
C4778 C4779 1.394 . S
C4778 H4786 0.930 . S
C4779 C4778 1.394 . S
C4779 C4780 1.383 . S
C4779 H4787 0.929 . S
C4780 C4779 1.383 . S
C4780 C4781 1.377 . S
C4781 H4765 0.930 . S
C4781 C4780 1.377 . S
C4781 C4782 1.379 . S
C4782 H4766 0.931 . S
C4782 C4776 1.383 . S
C4782 C4781 1.379 . S
H4783 C4777 0.959 . S
H4784 C4777 0.961 . S
H4785 C4777 0.960 . S
H4786 C4778 0.930 . S
H4787 C4779 0.929 . S
H4788 C4796 0.929 . S
H4789 C4798 0.930 . S
H4790 C4800 0.930 . S
H4791 C4803 0.929 . S
H4792 C4806 0.930 . S
H4793 C4808 0.960 . S
H4794 C4808 0.960 . S
H4795 C4808 0.960 . S
C4796 H4788 0.929 . S
C4796 C4797 1.377 . S
C4796 C4798 1.384 . S
C4797 C4796 1.377 . S
C4797 C4803 1.390 . S
C4798 H4789 0.930 . S
C4798 C4796 1.384 . S
C4798 C4799 1.372 . S
C4799 C4798 1.372 . S
C4799 C4800 1.400 . S
C4799 C4804 1.490 . S
C4800 H4790 0.930 . S
C4800 C4799 1.400 . S
C4800 C4803 1.386 . S
H4801 C4817 0.930 . S
H4802 C4818 0.931 . S
C4803 H4791 0.929 . S
C4803 C4797 1.390 . S
C4803 C4800 1.386 . S
C4804 C4799 1.490 . S
C4804 C4806 1.395 . S
C4804 C4807 1.403 . S
H4805 C4811 0.930 . S
C4806 H4792 0.930 . S
C4806 C4804 1.395 . S
C4806 C4809 1.403 . S
C4807 C4804 1.403 . S
C4807 C4808 1.524 . S
C4807 C4811 1.400 . S
C4808 H4793 0.960 . S
C4808 H4794 0.960 . S
C4808 H4795 0.960 . S
C4808 C4807 1.524 . S
C4809 C4806 1.403 . S
C4809 C4810 1.392 . S
C4809 C4813 1.495 . S
C4810 C4809 1.392 . S
C4810 C4811 1.385 . S
C4810 C4812 1.478 . S
C4811 H4805 0.930 . S
C4811 C4807 1.400 . S
C4811 C4810 1.385 . S
C4812 C4810 1.478 . S
C4812 C4814 1.381 . S
C4812 C4818 1.383 . S
C4813 C4809 1.495 . S
C4813 H4819 0.959 . S
C4813 H4820 0.961 . S
C4813 H4821 0.960 . S
C4814 C4812 1.381 . S
C4814 C4815 1.394 . S
C4814 H4822 0.930 . S
C4815 C4814 1.394 . S
C4815 C4816 1.383 . S
C4815 H4823 0.929 . S
C4816 C4815 1.383 . S
C4816 C4817 1.377 . S
C4817 H4801 0.930 . S
C4817 C4816 1.377 . S
C4817 C4818 1.379 . S
C4818 H4802 0.931 . S
C4818 C4812 1.383 . S
C4818 C4817 1.379 . S
H4819 C4813 0.959 . S
H4820 C4813 0.961 . S
H4821 C4813 0.960 . S
H4822 C4814 0.930 . S
H4823 C4815 0.929 . S
H4824 C4832 0.929 . S
H4825 C4834 0.930 . S
H4826 C4836 0.930 . S
H4827 C4839 0.929 . S
H4828 C4842 0.930 . S
H4829 C4844 0.960 . S
H4830 C4844 0.960 . S
H4831 C4844 0.960 . S
C4832 H4824 0.929 . S
C4832 C4833 1.377 . S
C4832 C4834 1.384 . S
C4833 C4832 1.377 . S
C4833 C4839 1.390 . S
C4834 H4825 0.930 . S
C4834 C4832 1.384 . S
C4834 C4835 1.372 . S
C4835 C4834 1.372 . S
C4835 C4836 1.400 . S
C4835 C4840 1.490 . S
C4836 H4826 0.930 . S
C4836 C4835 1.400 . S
C4836 C4839 1.386 . S
H4837 C4853 0.930 . S
H4838 C4854 0.931 . S
C4839 H4827 0.929 . S
C4839 C4833 1.390 . S
C4839 C4836 1.386 . S
C4840 C4835 1.490 . S
C4840 C4842 1.395 . S
C4840 C4843 1.403 . S
H4841 C4847 0.930 . S
C4842 H4828 0.930 . S
C4842 C4840 1.395 . S
C4842 C4845 1.403 . S
C4843 C4840 1.403 . S
C4843 C4844 1.524 . S
C4843 C4847 1.400 . S
C4844 H4829 0.960 . S
C4844 H4830 0.960 . S
C4844 H4831 0.960 . S
C4844 C4843 1.524 . S
C4845 C4842 1.403 . S
C4845 C4846 1.392 . S
C4845 C4849 1.495 . S
C4846 C4845 1.392 . S
C4846 C4847 1.385 . S
C4846 C4848 1.478 . S
C4847 H4841 0.930 . S
C4847 C4843 1.400 . S
C4847 C4846 1.385 . S
C4848 C4846 1.478 . S
C4848 C4850 1.381 . S
C4848 C4854 1.383 . S
C4849 C4845 1.495 . S
C4849 H4855 0.959 . S
C4849 H4856 0.961 . S
C4849 H4857 0.960 . S
C4850 C4848 1.381 . S
C4850 C4851 1.394 . S
C4850 H4858 0.930 . S
C4851 C4850 1.394 . S
C4851 C4852 1.383 . S
C4851 H4859 0.929 . S
C4852 C4851 1.383 . S
C4852 C4853 1.377 . S
C4853 H4837 0.930 . S
C4853 C4852 1.377 . S
C4853 C4854 1.379 . S
C4854 H4838 0.931 . S
C4854 C4848 1.383 . S
C4854 C4853 1.379 . S
H4855 C4849 0.959 . S
H4856 C4849 0.961 . S
H4857 C4849 0.960 . S
H4858 C4850 0.930 . S
H4859 C4851 0.929 . S
H4860 C4868 0.929 . S
H4861 C4870 0.930 . S
H4862 C4872 0.930 . S
H4863 C4875 0.929 . S
H4864 C4878 0.930 . S
H4865 C4880 0.960 . S
H4866 C4880 0.960 . S
H4867 C4880 0.960 . S
C4868 H4860 0.929 . S
C4868 C4869 1.377 . S
C4868 C4870 1.384 . S
C4869 C4868 1.377 . S
C4869 C4875 1.390 . S
C4870 H4861 0.930 . S
C4870 C4868 1.384 . S
C4870 C4871 1.372 . S
C4871 C4870 1.372 . S
C4871 C4872 1.400 . S
C4871 C4876 1.490 . S
C4872 H4862 0.930 . S
C4872 C4871 1.400 . S
C4872 C4875 1.386 . S
H4873 C4889 0.930 . S
H4874 C4890 0.931 . S
C4875 H4863 0.929 . S
C4875 C4869 1.390 . S
C4875 C4872 1.386 . S
C4876 C4871 1.490 . S
C4876 C4878 1.395 . S
C4876 C4879 1.403 . S
H4877 C4883 0.930 . S
C4878 H4864 0.930 . S
C4878 C4876 1.395 . S
C4878 C4881 1.403 . S
C4879 C4876 1.403 . S
C4879 C4880 1.524 . S
C4879 C4883 1.400 . S
C4880 H4865 0.960 . S
C4880 H4866 0.960 . S
C4880 H4867 0.960 . S
C4880 C4879 1.524 . S
C4881 C4878 1.403 . S
C4881 C4882 1.392 . S
C4881 C4885 1.495 . S
C4882 C4881 1.392 . S
C4882 C4883 1.385 . S
C4882 C4884 1.478 . S
C4883 H4877 0.930 . S
C4883 C4879 1.400 . S
C4883 C4882 1.385 . S
C4884 C4882 1.478 . S
C4884 C4886 1.381 . S
C4884 C4890 1.383 . S
C4885 C4881 1.495 . S
C4885 H4891 0.959 . S
C4885 H4892 0.961 . S
C4885 H4893 0.960 . S
C4886 C4884 1.381 . S
C4886 C4887 1.394 . S
C4886 H4894 0.930 . S
C4887 C4886 1.394 . S
C4887 C4888 1.383 . S
C4887 H4895 0.929 . S
C4888 C4887 1.383 . S
C4888 C4889 1.377 . S
C4889 H4873 0.930 . S
C4889 C4888 1.377 . S
C4889 C4890 1.379 . S
C4890 H4874 0.931 . S
C4890 C4884 1.383 . S
C4890 C4889 1.379 . S
H4891 C4885 0.959 . S
H4892 C4885 0.961 . S
H4893 C4885 0.960 . S
H4894 C4886 0.930 . S
H4895 C4887 0.929 . S
H4896 C4904 0.929 . S
H4897 C4906 0.930 . S
H4898 C4908 0.930 . S
H4899 C4911 0.929 . S
H4900 C4914 0.930 . S
H4901 C4916 0.960 . S
H4902 C4916 0.960 . S
H4903 C4916 0.960 . S
C4904 H4896 0.929 . S
C4904 C4905 1.377 . S
C4904 C4906 1.384 . S
C4905 C4904 1.377 . S
C4905 C4911 1.390 . S
C4906 H4897 0.930 . S
C4906 C4904 1.384 . S
C4906 C4907 1.372 . S
C4907 C4906 1.372 . S
C4907 C4908 1.400 . S
C4907 C4912 1.490 . S
C4908 H4898 0.930 . S
C4908 C4907 1.400 . S
C4908 C4911 1.386 . S
H4909 C4925 0.930 . S
H4910 C4926 0.931 . S
C4911 H4899 0.929 . S
C4911 C4905 1.390 . S
C4911 C4908 1.386 . S
C4912 C4907 1.490 . S
C4912 C4914 1.395 . S
C4912 C4915 1.403 . S
H4913 C4919 0.930 . S
C4914 H4900 0.930 . S
C4914 C4912 1.395 . S
C4914 C4917 1.403 . S
C4915 C4912 1.403 . S
C4915 C4916 1.524 . S
C4915 C4919 1.400 . S
C4916 H4901 0.960 . S
C4916 H4902 0.960 . S
C4916 H4903 0.960 . S
C4916 C4915 1.524 . S
C4917 C4914 1.403 . S
C4917 C4918 1.392 . S
C4917 C4921 1.495 . S
C4918 C4917 1.392 . S
C4918 C4919 1.385 . S
C4918 C4920 1.478 . S
C4919 H4913 0.930 . S
C4919 C4915 1.400 . S
C4919 C4918 1.385 . S
C4920 C4918 1.478 . S
C4920 C4922 1.381 . S
C4920 C4926 1.383 . S
C4921 C4917 1.495 . S
C4921 H4927 0.959 . S
C4921 H4928 0.961 . S
C4921 H4929 0.960 . S
C4922 C4920 1.381 . S
C4922 C4923 1.394 . S
C4922 H4930 0.930 . S
C4923 C4922 1.394 . S
C4923 C4924 1.383 . S
C4923 H4931 0.929 . S
C4924 C4923 1.383 . S
C4924 C4925 1.377 . S
C4925 H4909 0.930 . S
C4925 C4924 1.377 . S
C4925 C4926 1.379 . S
C4926 H4910 0.931 . S
C4926 C4920 1.383 . S
C4926 C4925 1.379 . S
H4927 C4921 0.959 . S
H4928 C4921 0.961 . S
H4929 C4921 0.960 . S
H4930 C4922 0.930 . S
H4931 C4923 0.929 . S
H4932 C4940 0.929 . S
H4933 C4942 0.930 . S
H4934 C4944 0.930 . S
H4935 C4947 0.929 . S
H4936 C4950 0.930 . S
H4937 C4952 0.960 . S
H4938 C4952 0.960 . S
H4939 C4952 0.960 . S
C4940 H4932 0.929 . S
C4940 C4941 1.377 . S
C4940 C4942 1.384 . S
C4941 C4940 1.377 . S
C4941 C4947 1.390 . S
C4942 H4933 0.930 . S
C4942 C4940 1.384 . S
C4942 C4943 1.372 . S
C4943 C4942 1.372 . S
C4943 C4944 1.400 . S
C4943 C4948 1.490 . S
C4944 H4934 0.930 . S
C4944 C4943 1.400 . S
C4944 C4947 1.386 . S
H4945 C4961 0.930 . S
H4946 C4962 0.931 . S
C4947 H4935 0.929 . S
C4947 C4941 1.390 . S
C4947 C4944 1.386 . S
C4948 C4943 1.490 . S
C4948 C4950 1.395 . S
C4948 C4951 1.403 . S
H4949 C4955 0.930 . S
C4950 H4936 0.930 . S
C4950 C4948 1.395 . S
C4950 C4953 1.403 . S
C4951 C4948 1.403 . S
C4951 C4952 1.524 . S
C4951 C4955 1.400 . S
C4952 H4937 0.960 . S
C4952 H4938 0.960 . S
C4952 H4939 0.960 . S
C4952 C4951 1.524 . S
C4953 C4950 1.403 . S
C4953 C4954 1.392 . S
C4953 C4957 1.495 . S
C4954 C4953 1.392 . S
C4954 C4955 1.385 . S
C4954 C4956 1.478 . S
C4955 H4949 0.930 . S
C4955 C4951 1.400 . S
C4955 C4954 1.385 . S
C4956 C4954 1.478 . S
C4956 C4958 1.381 . S
C4956 C4962 1.383 . S
C4957 C4953 1.495 . S
C4957 H4963 0.959 . S
C4957 H4964 0.961 . S
C4957 H4965 0.960 . S
C4958 C4956 1.381 . S
C4958 C4959 1.394 . S
C4958 H4966 0.930 . S
C4959 C4958 1.394 . S
C4959 C4960 1.383 . S
C4959 H4967 0.929 . S
C4960 C4959 1.383 . S
C4960 C4961 1.377 . S
C4961 H4945 0.930 . S
C4961 C4960 1.377 . S
C4961 C4962 1.379 . S
C4962 H4946 0.931 . S
C4962 C4956 1.383 . S
C4962 C4961 1.379 . S
H4963 C4957 0.959 . S
H4964 C4957 0.961 . S
H4965 C4957 0.960 . S
H4966 C4958 0.930 . S
H4967 C4959 0.929 . S
H4968 C4976 0.929 . S
H4969 C4978 0.930 . S
H4970 C4980 0.930 . S
H4971 C4983 0.929 . S
H4972 C4986 0.930 . S
H4973 C4988 0.960 . S
H4974 C4988 0.960 . S
H4975 C4988 0.960 . S
C4976 H4968 0.929 . S
C4976 C4977 1.377 . S
C4976 C4978 1.384 . S
C4977 C4976 1.377 . S
C4977 C4983 1.390 . S
C4978 H4969 0.930 . S
C4978 C4976 1.384 . S
C4978 C4979 1.372 . S
C4979 C4978 1.372 . S
C4979 C4980 1.400 . S
C4979 C4984 1.490 . S
C4980 H4970 0.930 . S
C4980 C4979 1.400 . S
C4980 C4983 1.386 . S
H4981 C4997 0.930 . S
H4982 C4998 0.931 . S
C4983 H4971 0.929 . S
C4983 C4977 1.390 . S
C4983 C4980 1.386 . S
C4984 C4979 1.490 . S
C4984 C4986 1.395 . S
C4984 C4987 1.403 . S
H4985 C4991 0.930 . S
C4986 H4972 0.930 . S
C4986 C4984 1.395 . S
C4986 C4989 1.403 . S
C4987 C4984 1.403 . S
C4987 C4988 1.524 . S
C4987 C4991 1.400 . S
C4988 H4973 0.960 . S
C4988 H4974 0.960 . S
C4988 H4975 0.960 . S
C4988 C4987 1.524 . S
C4989 C4986 1.403 . S
C4989 C4990 1.392 . S
C4989 C4993 1.495 . S
C4990 C4989 1.392 . S
C4990 C4991 1.385 . S
C4990 C4992 1.478 . S
C4991 H4985 0.930 . S
C4991 C4987 1.400 . S
C4991 C4990 1.385 . S
C4992 C4990 1.478 . S
C4992 C4994 1.381 . S
C4992 C4998 1.383 . S
C4993 C4989 1.495 . S
C4993 H4999 0.959 . S
C4993 H5000 0.961 . S
C4993 H5001 0.960 . S
C4994 C4992 1.381 . S
C4994 C4995 1.394 . S
C4994 H5002 0.930 . S
C4995 C4994 1.394 . S
C4995 C4996 1.383 . S
C4995 H5003 0.929 . S
C4996 C4995 1.383 . S
C4996 C4997 1.377 . S
C4997 H4981 0.930 . S
C4997 C4996 1.377 . S
C4997 C4998 1.379 . S
C4998 H4982 0.931 . S
C4998 C4992 1.383 . S
C4998 C4997 1.379 . S
H4999 C4993 0.959 . S
H5000 C4993 0.961 . S
H5001 C4993 0.960 . S
H5002 C4994 0.930 . S
H5003 C4995 0.929 . S
H5004 C5012 0.929 . S
H5005 C5014 0.930 . S
H5006 C5016 0.930 . S
H5007 C5019 0.929 . S
H5008 C5022 0.930 . S
H5009 C5024 0.960 . S
H5010 C5024 0.960 . S
H5011 C5024 0.960 . S
C5012 H5004 0.929 . S
C5012 C5013 1.377 . S
C5012 C5014 1.384 . S
C5013 C5012 1.377 . S
C5013 C5019 1.390 . S
C5014 H5005 0.930 . S
C5014 C5012 1.384 . S
C5014 C5015 1.372 . S
C5015 C5014 1.372 . S
C5015 C5016 1.400 . S
C5015 C5020 1.490 . S
C5016 H5006 0.930 . S
C5016 C5015 1.400 . S
C5016 C5019 1.386 . S
H5017 C5033 0.930 . S
H5018 C5034 0.931 . S
C5019 H5007 0.929 . S
C5019 C5013 1.390 . S
C5019 C5016 1.386 . S
C5020 C5015 1.490 . S
C5020 C5022 1.395 . S
C5020 C5023 1.403 . S
H5021 C5027 0.930 . S
C5022 H5008 0.930 . S
C5022 C5020 1.395 . S
C5022 C5025 1.403 . S
C5023 C5020 1.403 . S
C5023 C5024 1.524 . S
C5023 C5027 1.400 . S
C5024 H5009 0.960 . S
C5024 H5010 0.960 . S
C5024 H5011 0.960 . S
C5024 C5023 1.524 . S
C5025 C5022 1.403 . S
C5025 C5026 1.392 . S
C5025 C5029 1.495 . S
C5026 C5025 1.392 . S
C5026 C5027 1.385 . S
C5026 C5028 1.478 . S
C5027 H5021 0.930 . S
C5027 C5023 1.400 . S
C5027 C5026 1.385 . S
C5028 C5026 1.478 . S
C5028 C5030 1.381 . S
C5028 C5034 1.383 . S
C5029 C5025 1.495 . S
C5029 H5035 0.959 . S
C5029 H5036 0.961 . S
C5029 H5037 0.960 . S
C5030 C5028 1.381 . S
C5030 C5031 1.394 . S
C5030 H5038 0.930 . S
C5031 C5030 1.394 . S
C5031 C5032 1.383 . S
C5031 H5039 0.929 . S
C5032 C5031 1.383 . S
C5032 C5033 1.377 . S
C5033 H5017 0.930 . S
C5033 C5032 1.377 . S
C5033 C5034 1.379 . S
C5034 H5018 0.931 . S
C5034 C5028 1.383 . S
C5034 C5033 1.379 . S
H5035 C5029 0.959 . S
H5036 C5029 0.961 . S
H5037 C5029 0.960 . S
H5038 C5030 0.930 . S
H5039 C5031 0.929 . S
H5040 C5048 0.929 . S
H5041 C5050 0.930 . S
H5042 C5052 0.930 . S
H5043 C5055 0.929 . S
H5044 C5058 0.930 . S
H5045 C5060 0.960 . S
H5046 C5060 0.960 . S
H5047 C5060 0.960 . S
C5048 H5040 0.929 . S
C5048 C5049 1.377 . S
C5048 C5050 1.384 . S
C5049 C5048 1.377 . S
C5049 C5055 1.390 . S
C5050 H5041 0.930 . S
C5050 C5048 1.384 . S
C5050 C5051 1.372 . S
C5051 C5050 1.372 . S
C5051 C5052 1.400 . S
C5051 C5056 1.490 . S
C5052 H5042 0.930 . S
C5052 C5051 1.400 . S
C5052 C5055 1.386 . S
H5053 C5069 0.930 . S
H5054 C5070 0.931 . S
C5055 H5043 0.929 . S
C5055 C5049 1.390 . S
C5055 C5052 1.386 . S
C5056 C5051 1.490 . S
C5056 C5058 1.395 . S
C5056 C5059 1.403 . S
H5057 C5063 0.930 . S
C5058 H5044 0.930 . S
C5058 C5056 1.395 . S
C5058 C5061 1.403 . S
C5059 C5056 1.403 . S
C5059 C5060 1.524 . S
C5059 C5063 1.400 . S
C5060 H5045 0.960 . S
C5060 H5046 0.960 . S
C5060 H5047 0.960 . S
C5060 C5059 1.524 . S
C5061 C5058 1.403 . S
C5061 C5062 1.392 . S
C5061 C5065 1.495 . S
C5062 C5061 1.392 . S
C5062 C5063 1.385 . S
C5062 C5064 1.478 . S
C5063 H5057 0.930 . S
C5063 C5059 1.400 . S
C5063 C5062 1.385 . S
C5064 C5062 1.478 . S
C5064 C5066 1.381 . S
C5064 C5070 1.383 . S
C5065 C5061 1.495 . S
C5065 H5071 0.959 . S
C5065 H5072 0.961 . S
C5065 H5073 0.960 . S
C5066 C5064 1.381 . S
C5066 C5067 1.394 . S
C5066 H5074 0.930 . S
C5067 C5066 1.394 . S
C5067 C5068 1.383 . S
C5067 H5075 0.929 . S
C5068 C5067 1.383 . S
C5068 C5069 1.377 . S
C5069 H5053 0.930 . S
C5069 C5068 1.377 . S
C5069 C5070 1.379 . S
C5070 H5054 0.931 . S
C5070 C5064 1.383 . S
C5070 C5069 1.379 . S
H5071 C5065 0.959 . S
H5072 C5065 0.961 . S
H5073 C5065 0.960 . S
H5074 C5066 0.930 . S
H5075 C5067 0.929 . S
H5076 C5084 0.929 . S
H5077 C5086 0.930 . S
H5078 C5088 0.930 . S
H5079 C5091 0.929 . S
H5080 C5094 0.930 . S
H5081 C5096 0.960 . S
H5082 C5096 0.960 . S
H5083 C5096 0.960 . S
C5084 H5076 0.929 . S
C5084 C5085 1.377 . S
C5084 C5086 1.384 . S
C5085 C5084 1.377 . S
C5085 C5091 1.390 . S
C5086 H5077 0.930 . S
C5086 C5084 1.384 . S
C5086 C5087 1.372 . S
C5087 C5086 1.372 . S
C5087 C5088 1.400 . S
C5087 C5092 1.490 . S
C5088 H5078 0.930 . S
C5088 C5087 1.400 . S
C5088 C5091 1.386 . S
H5089 C5105 0.930 . S
H5090 C5106 0.931 . S
C5091 H5079 0.929 . S
C5091 C5085 1.390 . S
C5091 C5088 1.386 . S
C5092 C5087 1.490 . S
C5092 C5094 1.395 . S
C5092 C5095 1.403 . S
H5093 C5099 0.930 . S
C5094 H5080 0.930 . S
C5094 C5092 1.395 . S
C5094 C5097 1.403 . S
C5095 C5092 1.403 . S
C5095 C5096 1.524 . S
C5095 C5099 1.400 . S
C5096 H5081 0.960 . S
C5096 H5082 0.960 . S
C5096 H5083 0.960 . S
C5096 C5095 1.524 . S
C5097 C5094 1.403 . S
C5097 C5098 1.392 . S
C5097 C5101 1.495 . S
C5098 C5097 1.392 . S
C5098 C5099 1.385 . S
C5098 C5100 1.478 . S
C5099 H5093 0.930 . S
C5099 C5095 1.400 . S
C5099 C5098 1.385 . S
C5100 C5098 1.478 . S
C5100 C5102 1.381 . S
C5100 C5106 1.383 . S
C5101 C5097 1.495 . S
C5101 H5107 0.959 . S
C5101 H5108 0.961 . S
C5101 H5109 0.960 . S
C5102 C5100 1.381 . S
C5102 C5103 1.394 . S
C5102 H5110 0.930 . S
C5103 C5102 1.394 . S
C5103 C5104 1.383 . S
C5103 H5111 0.929 . S
C5104 C5103 1.383 . S
C5104 C5105 1.377 . S
C5105 H5089 0.930 . S
C5105 C5104 1.377 . S
C5105 C5106 1.379 . S
C5106 H5090 0.931 . S
C5106 C5100 1.383 . S
C5106 C5105 1.379 . S
H5107 C5101 0.959 . S
H5108 C5101 0.961 . S
H5109 C5101 0.960 . S
H5110 C5102 0.930 . S
H5111 C5103 0.929 . S
C1233 C514 1.073 . S
C1252 C4 1.079 . S
C1269 C548 1.074 . S
C1288 C38 1.079 . S
C1305 C72 1.075 . S
C1324 C582 1.073 . S
C1341 C106 1.075 . S
C1360 C820 1.063 . S
C1377 C140 1.076 . S
C1396 C854 1.069 . S
C1413 C174 1.075 . S
C1432 C888 1.068 . S
C1449 C1135 1.073 . S
C1468 C217 1.071 . S
C1485 C1169 1.072 . S
C1504 C251 1.063 . S
C1521 C285 1.072 . S
C1540 C1203 1.063 . S
C1557 C625 1.075 . S
C1576 C319 1.074 . S
C1593 C353 1.072 . S
C1612 C659 1.062 . S
C1629 C387 1.073 . S
C1648 C693 1.068 . S
C1665 C922 1.073 . S
C1684 C412 1.074 . S
C1701 C446 1.072 . S
C1720 C956 1.082 . S
C1737 C990 1.073 . S
C1756 C480 1.066 . S
C1773 C1033 1.073 . S
C1792 C727 1.066 . S
C1809 C1067 1.075 . S
C1828 C761 1.074 . S
C1845 C795 1.075 . S
C1864 C1101 1.080 . S
C1881 C0 1.409 . S
C1900 C136 1.386 . S
C1917 C34 1.409 . S
C1936 C170 1.386 . S
C1953 C68 1.402 . S
C1972 C102 1.386 . S
C1989 C233 1.413 . S
C2008 C369 1.379 . S
C2025 C267 1.412 . S
C2044 C403 1.381 . S
C2061 C301 1.404 . S
C2080 C335 1.416 . S
C2097 C408 1.412 . S
C2116 C544 1.400 . S
C2133 C578 1.404 . S
C2152 C442 1.380 . S
C2169 C476 1.413 . S
C2188 C510 1.415 . S
C2205 C641 1.404 . S
C2224 C777 1.417 . S
C2241 C675 1.402 . S
C2260 C811 1.430 . S
C2277 C743 1.402 . S
C2296 C709 1.426 . S
C2313 C816 1.402 . S
C2332 C952 1.399 . S
C2349 C986 1.411 . S
C2368 C850 1.393 . S
C2385 C884 1.404 . S
C2404 C918 1.381 . S
C2421 C1049 1.406 . S
C2440 C1185 1.415 . S
C2457 C1083 1.407 . S
C2476 C1219 1.400 . S
C2493 C1117 1.404 . S
C2512 C1151 1.423 . S
C2529 C340 1.652 . S
C2548 C8 1.680 . S
C2565 C42 1.677 . S
C2584 C374 1.673 . S
C2601 C76 1.682 . S
C2620 C306 1.641 . S
C2637 C110 1.684 . S
C2656 C272 1.627 . S
C2673 C144 1.683 . S
C2692 C204 1.638 . S
C2709 C238 1.648 . S
C2728 C178 1.693 . S
C2745 C221 1.684 . S
C2764 C165 1.650 . S
C2781 C199 1.647 . S
C2800 C255 1.668 . S
C2817 C289 1.683 . S
C2836 C131 1.636 . S
C2853 C323 1.677 . S
C2872 C97 1.643 . S
C2889 C29 1.656 . S
C2908 C357 1.671 . S
C2925 C63 1.656 . S
C2944 C391 1.696 . S
C2961 C748 1.657 . S
C2980 C416 1.660 . S
C2997 C782 1.647 . S
C3016 C450 1.695 . S
C3033 C714 1.656 . S
C3052 C484 1.662 . S
C3069 C680 1.650 . S
C3088 C518 1.685 1_554 S
C3105 C552 1.680 . S
C3124 C612 1.654 . S
C3141 C646 1.657 . S
C3160 C586 1.657 . S
C3177 C573 1.650 . S
C3196 C629 1.689 . S
C3213 C663 1.676 . S
C3232 C607 1.644 . S
C3249 C697 1.678 . S
C3268 C539 1.655 . S
C3285 C505 1.648 . S
C3304 C731 1.658 . S
C3321 C765 1.682 . S
C3340 C437 1.632 . S
C3357 C799 1.677 . S
C3376 C471 1.654 . S
C3393 C824 1.681 . S
C3412 C1156 1.650 . S
C3429 C858 1.683 . S
C3448 C1190 1.637 . S
C3465 C1122 1.647 . S
C3484 C892 1.696 . S
C3501 C1088 1.648 . S
C3520 C926 1.691 . S
C3537 C960 1.680 . S
C3556 C1020 1.651 . S
C3573 C1054 1.657 . S
C3592 C994 1.659 . S
C3609 C1037 1.683 . S
C3628 C981 1.635 . S
C3645 C1015 1.649 . S
C3664 C1071 1.657 . S
C3681 C1105 1.677 . S
C3700 C947 1.654 . S
C3717 C1139 1.680 . S
C3736 C913 1.626 . S
C3753 C845 1.649 . S
C3772 C1173 1.657 . S
C3789 C879 1.656 . S
C3808 C1207 1.695 . S
C3825 C17 2.018 . S
C3844 C153 1.999 . S
C3861 C187 2.019 . S
C3880 C51 1.993 . S
C3897 C85 2.012 . S
C3916 C119 2.026 . S
C3933 C212 2.012 . S
C3952 C348 2.011 . S
C3969 C382 2.014 . S
C3988 C246 1.992 . S
C4005 C280 2.020 . S
C4024 C314 2.026 . S
C4041 C561 2.019 . S
C4060 C425 1.991 . S
C4077 C595 2.013 . S
C4096 C459 2.020 . S
C4113 C527 2.011 . S
C4132 C493 2.031 . S
C4149 C756 2.019 . S
C4168 C620 2.031 . S
C4185 C654 2.018 . S
C4204 C790 2.032 . S
C4221 C722 2.014 . S
C4240 C688 2.020 . S
C4257 C969 2.017 . S
C4276 C833 2.000 . S
C4293 C867 2.019 . S
C4312 C1003 1.992 . S
C4329 C901 2.016 . S
C4348 C935 2.011 . S
C4365 C1164 2.014 . S
C4384 C1028 1.993 . S
C4401 C1062 2.012 . S
C4420 C1198 2.013 . S
C4437 C1096 2.019 . S
C4456 C1130 2.012 . S
C4473 C13 2.901 . S
C4492 C208 2.913 . S
C4509 C47 2.904 . S
C4528 C242 2.898 . S
C4545 C276 2.904 . S
C4564 C81 2.925 . S
C4581 C310 2.904 . S
C4600 C115 2.898 . S
C4617 C149 2.903 . S
C4636 C344 2.897 . S
C4653 C183 2.906 . S
C4672 C378 2.903 . S
C4689 C616 2.906 . S
C4708 C421 2.927 . S
C4725 C455 2.903 . S
C4744 C650 2.923 . S
C4761 C684 2.907 . S
C4780 C489 2.926 . S
C4797 C718 2.907 . S
C4816 C523 2.924 . S
C4833 C752 2.904 . S
C4852 C557 2.897 . S
C4869 C786 2.904 . S
C4888 C591 2.899 . S
C4905 C1024 2.906 . S
C4924 C829 2.927 . S
C4941 C863 2.901 . S
C4960 C1058 2.910 . S
C4977 C1092 2.905 . S
C4996 C897 2.928 . S
C5013 C1126 2.905 . S
C5032 C931 2.927 . S
C5049 C1160 2.901 . S
C5068 C965 2.898 . S
C5085 C999 2.901 . S
C5104 C1194 2.910 . S
