# Generated by pormake.
# Topology upc, (4)-cn, num edge types: 1
# Building blocks:
#     Node 0, Type 0, BuildingBlock: ESEHIV_clean_sbu_0, # of connection points: 4
#     Node 1, Type 0, BuildingBlock: ESEHIV_clean_sbu_0, # of connection points: 4
#     Node 2, Type 0, BuildingBlock: ESEHIV_clean_sbu_0, # of connection points: 4
#     Node 3, Type 0, BuildingBlock: ESEHIV_clean_sbu_0, # of connection points: 4
#     Node 4, Type 0, BuildingBlock: ESEHIV_clean_sbu_0, # of connection points: 4
#     Node 5, Type 0, BuildingBlock: ESEHIV_clean_sbu_0, # of connection points: 4
#     Node 6, Type 0, BuildingBlock: ESEHIV_clean_sbu_0, # of connection points: 4
#     Node 7, Type 0, BuildingBlock: ESEHIV_clean_sbu_0, # of connection points: 4
#     Node 8, Type 0, BuildingBlock: ESEHIV_clean_sbu_0, # of connection points: 4
#     Node 9, Type 0, BuildingBlock: ESEHIV_clean_sbu_0, # of connection points: 4
#     Node 10, Type 0, BuildingBlock: ESEHIV_clean_sbu_0, # of connection points: 4
#     Node 11, Type 0, BuildingBlock: ESEHIV_clean_sbu_0, # of connection points: 4
#     Node 12, Type 0, BuildingBlock: ESEHIV_clean_sbu_0, # of connection points: 4
#     Node 13, Type 0, BuildingBlock: ESEHIV_clean_sbu_0, # of connection points: 4
#     Node 14, Type 0, BuildingBlock: ESEHIV_clean_sbu_0, # of connection points: 4
#     Node 15, Type 0, BuildingBlock: ESEHIV_clean_sbu_0, # of connection points: 4
#     Edge 16, Type (0, 0), BuildingBlock: XUDNAN_clean_linker_2, # of connection points: 2
#     Edge 17, Type (0, 0), BuildingBlock: XUDNAN_clean_linker_2, # of connection points: 2
#     Edge 18, Type (0, 0), BuildingBlock: XUDNAN_clean_linker_2, # of connection points: 2
#     Edge 19, Type (0, 0), BuildingBlock: XUDNAN_clean_linker_2, # of connection points: 2
#     Edge 20, Type (0, 0), BuildingBlock: XUDNAN_clean_linker_2, # of connection points: 2
#     Edge 21, Type (0, 0), BuildingBlock: XUDNAN_clean_linker_2, # of connection points: 2
#     Edge 22, Type (0, 0), BuildingBlock: XUDNAN_clean_linker_2, # of connection points: 2
#     Edge 23, Type (0, 0), BuildingBlock: XUDNAN_clean_linker_2, # of connection points: 2
#     Edge 24, Type (0, 0), BuildingBlock: XUDNAN_clean_linker_2, # of connection points: 2
#     Edge 25, Type (0, 0), BuildingBlock: XUDNAN_clean_linker_2, # of connection points: 2
#     Edge 26, Type (0, 0), BuildingBlock: XUDNAN_clean_linker_2, # of connection points: 2
#     Edge 27, Type (0, 0), BuildingBlock: XUDNAN_clean_linker_2, # of connection points: 2
#     Edge 28, Type (0, 0), BuildingBlock: XUDNAN_clean_linker_2, # of connection points: 2
#     Edge 29, Type (0, 0), BuildingBlock: XUDNAN_clean_linker_2, # of connection points: 2
#     Edge 30, Type (0, 0), BuildingBlock: XUDNAN_clean_linker_2, # of connection points: 2
#     Edge 31, Type (0, 0), BuildingBlock: XUDNAN_clean_linker_2, # of connection points: 2
#     Edge 32, Type (0, 0), BuildingBlock: XUDNAN_clean_linker_2, # of connection points: 2
#     Edge 33, Type (0, 0), BuildingBlock: XUDNAN_clean_linker_2, # of connection points: 2
#     Edge 34, Type (0, 0), BuildingBlock: XUDNAN_clean_linker_2, # of connection points: 2
#     Edge 35, Type (0, 0), BuildingBlock: XUDNAN_clean_linker_2, # of connection points: 2
#     Edge 36, Type (0, 0), BuildingBlock: XUDNAN_clean_linker_2, # of connection points: 2
#     Edge 37, Type (0, 0), BuildingBlock: XUDNAN_clean_linker_2, # of connection points: 2
#     Edge 38, Type (0, 0), BuildingBlock: XUDNAN_clean_linker_2, # of connection points: 2
#     Edge 39, Type (0, 0), BuildingBlock: XUDNAN_clean_linker_2, # of connection points: 2
#     Edge 40, Type (0, 0), BuildingBlock: XUDNAN_clean_linker_2, # of connection points: 2
#     Edge 41, Type (0, 0), BuildingBlock: XUDNAN_clean_linker_2, # of connection points: 2
#     Edge 42, Type (0, 0), BuildingBlock: XUDNAN_clean_linker_2, # of connection points: 2
#     Edge 43, Type (0, 0), BuildingBlock: XUDNAN_clean_linker_2, # of connection points: 2
#     Edge 44, Type (0, 0), BuildingBlock: XUDNAN_clean_linker_2, # of connection points: 2
#     Edge 45, Type (0, 0), BuildingBlock: XUDNAN_clean_linker_2, # of connection points: 2
#     Edge 46, Type (0, 0), BuildingBlock: XUDNAN_clean_linker_2, # of connection points: 2
#     Edge 47, Type (0, 0), BuildingBlock: XUDNAN_clean_linker_2, # of connection points: 2
# Relax obj value: 0.163
# Max RMSD: 0.212
# Mean RMSD: 0.186
data_MOF--net-upc--node1-ESEHIV_clean_sbu_0--edge1-XUDNAN_clean_linker_2
_symmetry_space_group_name_H-M    P1
_symmetry_Int_Tables_number       1
_symmetry_cell_setting            triclinic
loop_
_symmetry_equiv_pos_as_xyz
'x, y, z'
_cell_length_a     35.135607
_cell_length_b     41.045071
_cell_length_c     44.460788
_cell_angle_alpha  89.838259
_cell_angle_beta   89.939738
_cell_angle_gamma 89.604812
loop_
_atom_site_label
_atom_site_type_symbol
_atom_site_fract_x
_atom_site_fract_y
_atom_site_fract_z
_atom_type_partial_charge
Cu0 Cu 0.16473 0.60512 0.17051 0.0
N1 N 0.11663 0.6245 0.16913 0.0
N2 N 0.0684 0.65828 0.17935 0.0
C3 C 0.10657 0.65442 0.17856 0.0
C4 C 0.05388 0.62968 0.17016 0.0
C5 C 0.08371 0.60886 0.164 0.0
O6 O 0.20424 0.6382 0.1784 0.0
C7 C 0.1431 0.57765 0.2263 0.0
O8 O 0.13401 0.60801 0.23249 0.0
H9 H 0.1267 0.67202 0.18698 0.0
H10 H 0.08159 0.58345 0.15786 0.0
N11 N 0.17291 0.58358 0.13395 0.0
N12 N 0.15809 0.55696 0.09167 0.0
C13 C 0.14729 0.57998 0.11165 0.0
C14 C 0.20125 0.5625 0.12757 0.0
C15 C 0.1922 0.54602 0.10153 0.0
C16 C 0.20589 0.66413 0.16244 0.0
O17 O 0.18153 0.66779 0.14026 0.0
H18 H 0.11993 0.59215 0.11127 0.0
H19 H 0.22552 0.55786 0.14195 0.0
O20 O 0.16041 0.57157 0.20171 0.0
H21 H 0.02392 0.6238 0.16921 0.0
H22 H 0.2086 0.52647 0.09146 0.0
Cu23 Cu 0.90463 0.13835 0.12105 0.0
N24 N 0.87223 0.10356 0.12872 0.0
N25 N 0.84174 0.07092 0.16092 0.0
C26 C 0.85039 0.10192 0.15348 0.0
C27 C 0.85729 0.05242 0.139 0.0
C28 C 0.87625 0.07261 0.11927 0.0
O29 O 0.87622 0.17905 0.12943 0.0
C30 C 0.94364 0.12701 0.17612 0.0
O31 O 0.91128 0.13635 0.18823 0.0
H32 H 0.8442 0.12293 0.1673 0.0
H33 H 0.89502 0.06483 0.10138 0.0
N34 N 0.92266 0.13597 0.08138 0.0
N35 N 0.95298 0.1167 0.04064 0.0
C36 C 0.94391 0.11153 0.06984 0.0
C37 C 0.91851 0.15764 0.05884 0.0
C38 C 0.93697 0.14578 0.03369 0.0
C39 C 0.84722 0.18699 0.11359 0.0
O40 O 0.83776 0.16839 0.09083 0.0
H41 H 0.95231 0.09027 0.0827 0.0
H42 H 0.90346 0.18063 0.06062 0.0
O43 O 0.94798 0.12995 0.14778 0.0
H44 H 0.85841 0.02606 0.13894 0.0
H45 H 0.93895 0.15797 0.01214 0.0
Cu46 Cu 0.40676 0.91911 0.18351 0.0
N47 N 0.3752 0.93593 0.21331 0.0
N48 N 0.36606 0.93016 0.26282 0.0
C49 C 0.36533 0.91565 0.23568 0.0
C50 C 0.37491 0.9615 0.25718 0.0
C51 C 0.38015 0.96507 0.22655 0.0
O52 O 0.39256 0.87277 0.17926 0.0
C53 C 0.47211 0.95434 0.20081 0.0
O54 O 0.45736 0.97672 0.18311 0.0
H55 H 0.36608 0.88944 0.233 0.0
H56 H 0.39337 0.98576 0.21578 0.0
N57 N 0.40198 0.94241 0.1473 0.0
N58 N 0.41864 0.97026 0.10592 0.0
C59 C 0.42979 0.94853 0.12717 0.0
C60 C 0.37194 0.96036 0.13823 0.0
C61 C 0.38207 0.9775 0.11274 0.0
C62 C 0.359 0.86567 0.17039 0.0
O63 O 0.33638 0.88948 0.16165 0.0
H64 H 0.45842 0.93893 0.12938 0.0
H65 H 0.3451 0.96193 0.15008 0.0
O66 O 0.45698 0.9261 0.20168 0.0
H67 H 0.38247 0.97918 0.27414 0.0
H68 H 0.36411 0.99462 0.1007 0.0
Cu69 Cu 0.6189 0.42642 0.13417 0.0
N70 N 0.65946 0.45521 0.1369 0.0
N71 N 0.70829 0.47873 0.16 0.0
C72 C 0.68476 0.45303 0.15937 0.0
C73 C 0.69758 0.49801 0.13688 0.0
C74 C 0.66752 0.4832 0.12236 0.0
O75 O 0.64241 0.38317 0.14101 0.0
C76 C 0.57197 0.47009 0.16567 0.0
O77 O 0.58669 0.48967 0.14546 0.0
H78 H 0.6842 0.43393 0.17622 0.0
H79 H 0.65163 0.49303 0.1036 0.0
N80 N 0.59513 0.42855 0.09637 0.0
N81 N 0.56418 0.44793 0.05593 0.0
C82 C 0.58373 0.45537 0.08117 0.0
C83 C 0.58234 0.40324 0.08021 0.0
C84 C 0.56344 0.41505 0.05525 0.0
C85 C 0.66478 0.37132 0.12104 0.0
O86 O 0.6686 0.38697 0.09541 0.0
H87 H 0.58921 0.47986 0.08867 0.0
H88 H 0.58558 0.37793 0.08662 0.0
O89 O 0.5818 0.44001 0.16525 0.0
H90 H 0.70979 0.52146 0.13149 0.0
H91 H 0.54909 0.40046 0.03856 0.0
Cu92 Cu 0.09215 0.90888 0.33678 0.0
N93 N 0.05109 0.88393 0.32488 0.0
N94 N 0.01936 0.84682 0.29855 0.0
C95 C 0.05261 0.86254 0.30222 0.0
C96 C 0.99597 0.85887 0.32002 0.0
C97 C 0.01572 0.88184 0.33629 0.0
O98 O 0.13621 0.87887 0.33219 0.0
C99 C 0.06024 0.96371 0.30969 0.0
O100 O 0.03226 0.95445 0.32728 0.0
H101 H 0.07833 0.85787 0.28952 0.0
H102 H 1.00524 0.89569 0.35527 0.0
N103 N 0.08435 0.9201 0.37725 0.0
N104 N 0.0683 0.9466 0.4194 0.0
C105 C 0.07429 0.94904 0.38942 0.0
C106 C 0.08439 0.89877 0.40027 0.0
C107 C 0.07481 0.91501 0.42625 0.0
C108 C 0.16219 0.87556 0.35199 0.0
O109 O 0.16362 0.8967 0.37408 0.0
H110 H 0.07106 0.97133 0.3766 0.0
H111 H 0.09017 0.87296 0.3981 0.0
O112 O 0.09148 0.9476 0.31057 0.0
H113 H 0.96689 0.85147 0.32394 0.0
H114 H 0.0715 0.90413 0.44829 0.0
Cu115 Cu 0.66132 0.10669 0.39347 0.0
N116 N 0.69995 0.07594 0.38991 0.0
N117 N 0.74265 0.04882 0.36231 0.0
C118 C 0.7261 0.07787 0.36802 0.0
C119 C 0.72677 0.02779 0.38199 0.0
C120 C 0.70034 0.04465 0.39904 0.0
O121 O 0.68425 0.14928 0.38431 0.0
C122 C 0.62705 0.08589 0.33783 0.0
O123 O 0.65811 0.0962 0.32452 0.0
H124 H 0.72906 0.09921 0.35386 0.0
H125 H 0.68016 0.03411 0.41457 0.0
N126 N 0.63983 0.10516 0.43195 0.0
N127 N 0.60515 0.08646 0.47056 0.0
C128 C 0.62092 0.07959 0.44353 0.0
C129 C 0.63576 0.12923 0.4522 0.0
C130 C 0.61462 0.11773 0.47611 0.0
C131 C 0.70965 0.16033 0.40208 0.0
O132 O 0.71773 0.14386 0.42666 0.0
H133 H 0.61827 0.05661 0.43192 0.0
H134 H 0.64623 0.15376 0.44933 0.0
O135 O 0.62212 0.09144 0.36577 0.0
H136 H 0.73151 1.00171 0.3823 0.0
H137 H 0.60573 0.13179 0.49546 0.0
Cu138 Cu 0.38875 0.64027 0.35325 0.0
N139 N 0.42078 0.67624 0.35072 0.0
N140 N 0.4355 0.72908 0.34924 0.0
C141 C 0.40834 0.70689 0.35483 0.0
C142 C 0.46693 0.71162 0.34213 0.0
C143 C 0.45776 0.67886 0.34317 0.0
O144 O 0.33673 0.65879 0.35135 0.0
C145 C 0.41834 0.61156 0.29855 0.0
O146 O 0.42289 0.64173 0.28936 0.0
H147 H 0.37943 0.71293 0.36108 0.0
H148 H 0.47624 0.65856 0.33761 0.0
N149 N 0.39512 0.62227 0.39167 0.0
N150 N 0.41917 0.59625 0.43181 0.0
C151 C 0.42305 0.60241 0.40202 0.0
C152 C 0.37287 0.62867 0.41557 0.0
C153 C 0.38756 0.61273 0.44028 0.0
C154 C 0.32348 0.67812 0.3312 0.0
O155 O 0.34185 0.68127 0.30563 0.0
H156 H 0.44631 0.59353 0.38825 0.0
H157 H 0.34799 0.64433 0.41511 0.0
O158 O 0.40226 0.60638 0.32383 0.0
H159 H 0.49384 0.72178 0.33501 0.0
H160 H 0.37587 0.6133 0.46281 0.0
Cu161 Cu 0.92789 0.40413 0.38505 0.0
N162 N 0.88949 0.43362 0.37517 0.0
N163 N 0.8506 0.46168 0.345 0.0
C164 C 0.87784 0.43853 0.34679 0.0
C165 C 0.84482 0.47187 0.37349 0.0
C166 C 0.86885 0.45431 0.39218 0.0
O167 O 0.90562 0.36064 0.37952 0.0
C168 C 0.98056 0.44394 0.35673 0.0
O169 O 0.96291 0.46485 0.37425 0.0
H170 H 0.88968 0.42559 0.32774 0.0
H171 H 0.87101 0.45645 0.41634 0.0
N172 N 0.94469 0.41047 0.42464 0.0
N173 N 0.9662 0.43537 0.46608 0.0
C174 C 0.94875 0.43905 0.43914 0.0
C175 C 0.95986 0.38783 0.44304 0.0
C176 C 0.97301 0.40302 0.46859 0.0
C177 C 0.88153 0.34975 0.39856 0.0
O178 O 0.87457 0.36681 0.42294 0.0
H179 H 0.93976 0.46214 0.42976 0.0
H180 H 0.96245 0.36221 0.43772 0.0
O181 O 0.97027 0.41414 0.3576 0.0
H182 H 0.82429 0.49018 0.38034 0.0
H183 H 0.98792 0.39118 0.48692 0.0
Cu184 Cu 0.92832 0.38272 0.90206 0.0
N185 N 0.95261 0.3538 0.8759 0.0
N186 N 0.9571 0.31726 0.8389 0.0
C187 C 0.93604 0.32847 0.86208 0.0
C188 C 0.98868 0.33583 0.83856 0.0
C189 C 0.98584 0.35832 0.86149 0.0
O190 O 0.88376 0.36037 0.91861 0.0
C191 C 0.90845 0.42111 0.85138 0.0
O192 O 0.90382 0.39256 0.83874 0.0
H193 H 0.90745 0.3205 0.86697 0.0
H194 H 1.00513 0.37819 0.86581 0.0
N195 N 0.96169 0.39266 0.93335 0.0
N196 N 1.00067 0.41957 0.96427 0.0
C197 C 0.97742 0.42164 0.94005 0.0
C198 C 0.97533 0.37158 0.95392 0.0
C199 C 0.99931 0.38803 0.973 0.0
C200 C 0.85482 0.35283 0.90289 0.0
O201 O 0.85204 0.36392 0.87527 0.0
H202 H 0.9722 0.44362 0.92717 0.0
H203 H 0.96817 0.34602 0.95499 0.0
O204 O 0.91711 0.42247 0.87919 0.0
H205 H 1.0111 0.33455 0.82188 0.0
H206 H 1.01401 0.3776 0.99214 0.0
Cu207 Cu 0.09512 0.9358 0.8415 0.0
N208 N 0.04987 0.93293 0.81972 0.0
N209 N 1.00357 0.9472 0.78754 0.0
C210 C 0.03982 0.95232 0.79652 0.0
C211 C 0.99062 0.92332 0.80583 0.0
C212 C 0.01918 0.91466 0.82566 0.0
O213 O 0.08579 0.96133 0.8778 0.0
C214 C 0.1622 0.96941 0.82505 0.0
O215 O 0.16706 0.97319 0.85412 0.0
H216 H 0.05862 0.9704 0.78704 0.0
H217 H 0.01726 0.89719 0.84385 0.0
N218 N 0.11442 0.89461 0.85199 0.0
N219 N 0.15364 0.85135 0.85372 0.0
C220 C 0.14213 0.8777 0.8377 0.0
C221 C 0.10808 0.87832 0.87778 0.0
C222 C 0.13222 0.85168 0.87894 0.0
C223 C 0.06611 0.98753 0.87731 0.0
O224 O 0.05334 0.99854 0.85143 0.0
H225 H 0.15503 0.88554 0.81679 0.0
H226 H 0.08839 0.88607 0.89511 0.0
O227 O 0.13238 0.95556 0.81553 0.0
H228 H 0.96205 0.91365 0.80586 0.0
H229 H 0.13437 0.83424 0.89718 0.0
Cu230 Cu 0.61607 0.14077 0.89208 0.0
N231 N 0.59331 0.16731 0.86295 0.0
N232 N 0.58955 0.19508 0.81978 0.0
C233 C 0.61277 0.18192 0.84068 0.0
C234 C 0.55389 0.18942 0.82967 0.0
C235 C 0.55629 0.1721 0.85638 0.0
O236 O 0.66378 0.1624 0.90201 0.0
C237 C 0.63204 0.09279 0.84726 0.0
O238 O 0.64339 0.11746 0.83082 0.0
H239 H 0.6435 0.1812 0.83889 0.0
H240 H 0.53284 0.16211 0.86911 0.0
N241 N 0.58408 0.13567 0.92545 0.0
N242 N 0.55167 0.11085 0.96235 0.0
C243 C 0.57712 0.10732 0.93971 0.0
C244 C 0.56225 0.15805 0.93937 0.0
C245 C 0.54229 0.14286 0.96217 0.0
C246 C 0.67221 0.17401 0.92769 0.0
O247 O 0.6503 0.16766 0.9509 0.0
H248 H 0.58996 0.08443 0.93303 0.0
H249 H 0.56084 0.18356 0.93327 0.0
O250 O 0.62266 0.09751 0.87458 0.0
H251 H 0.52811 0.19529 0.81742 0.0
H252 H 0.52264 0.15463 0.97749 0.0
Cu253 Cu 0.42603 0.61357 0.84393 0.0
N254 N 0.46858 0.61091 0.81855 0.0
N255 N 0.51276 0.58873 0.78837 0.0
C256 C 0.48471 0.58312 0.80851 0.0
C257 C 0.51459 0.62151 0.78595 0.0
C258 C 0.48735 0.6351 0.80463 0.0
O259 O 0.44041 0.59589 0.883 0.0
C260 C 0.38182 0.58246 0.79915 0.0
O261 O 0.40971 0.59054 0.78102 0.0
H262 H 0.4744 0.55922 0.8145 0.0
H263 H 0.48096 0.66076 0.80725 0.0
N264 N 0.40903 0.65665 0.84881 0.0
N265 N 0.37013 0.70015 0.8488 0.0
C266 C 0.37742 0.67045 0.83689 0.0
C267 C 0.42224 0.67842 0.86872 0.0
C268 C 0.39832 0.70522 0.8688 0.0
C269 C 0.44594 0.56552 0.88719 0.0
O270 O 0.43986 0.54525 0.86493 0.0
H271 H 0.35899 0.65823 0.82108 0.0
H272 H 0.44666 0.67444 0.8831 0.0
O273 O 0.38387 0.58939 0.82699 0.0
H274 H 0.53379 0.63477 0.77143 0.0
H275 H 0.40102 0.72653 0.88292 0.0
Cu276 Cu 0.85227 0.13763 0.59871 0.0
N277 N 0.86037 0.17738 0.61765 0.0
N278 N 0.8714 0.21234 0.65496 0.0
C279 C 0.86206 0.18157 0.64758 0.0
C280 C 0.87544 0.22824 0.62853 0.0
C281 C 0.86856 0.20656 0.6055 0.0
O282 O 0.7998 0.133 0.5854 0.0
C283 C 0.8961 0.10148 0.64057 0.0
O284 O 0.92123 0.12433 0.63518 0.0
H285 H 0.85808 0.16198 0.66359 0.0
H286 H 0.87013 0.21154 0.58163 0.0
N287 N 0.88439 0.13247 0.5654 0.0
N288 N 0.92616 0.10944 0.5337 0.0
C289 C 0.90962 0.10804 0.56113 0.0
C290 C 0.88482 0.14995 0.53975 0.0
C291 C 0.91056 0.13579 0.52013 0.0
C292 C 0.77245 0.15333 0.58219 0.0
O293 O 0.74035 0.14294 0.5707 0.0
H294 H 0.91463 0.08885 0.57741 0.0
H295 H 0.86699 0.17102 0.53537 0.0
O296 O 0.86407 0.1027 0.62717 0.0
H297 H 0.88322 0.25357 0.62599 0.0
H298 H 0.91709 0.14415 0.49761 0.0
Cu299 Cu 0.4346 0.91655 0.66264 0.0
N300 N 0.47586 0.91156 0.68872 0.0
N301 N 0.51952 0.92372 0.72336 0.0
C302 C 0.49195 0.93534 0.70507 0.0
C303 C 0.52071 0.8913 0.71849 0.0
C304 C 0.49378 0.88387 0.697 0.0
O305 O 0.45157 0.93862 0.62629 0.0
C306 C 0.36197 0.94417 0.67646 0.0
O307 O 0.35007 0.92985 0.65185 0.0
H308 H 0.48258 0.96049 0.70451 0.0
H309 H 0.48718 0.85992 0.68847 0.0
N310 N 0.41556 0.87556 0.65231 0.0
N311 N 0.38089 0.8301 0.6493 0.0
C312 C 0.38467 0.85952 0.66263 0.0
C313 C 0.43162 0.85571 0.63187 0.0
C314 C 0.41044 0.82775 0.62997 0.0
C315 C 0.46453 0.96751 0.62639 0.0
O316 O 0.46494 0.98392 0.65169 0.0
H317 H 0.36571 0.86897 0.67976 0.0
H318 H 0.45705 0.86132 0.61918 0.0
O319 O 0.39677 0.94189 0.68391 0.0
H320 H 0.53955 0.87421 0.72974 0.0
H321 H 0.4161 0.80742 0.61513 0.0
Cu322 Cu 0.65477 0.39745 0.59838 0.0
N323 N 0.64751 0.35312 0.60492 0.0
N324 N 0.63985 0.30671 0.63034 0.0
C325 C 0.64003 0.33949 0.6318 0.0
C326 C 0.64732 0.29934 0.60136 0.0
C327 C 0.65167 0.32813 0.58561 0.0
O328 O 0.70848 0.40748 0.59252 0.0
C329 C 0.63675 0.45125 0.63655 0.0
O330 O 0.65109 0.46907 0.61477 0.0
H331 H 0.63661 0.35334 0.65233 0.0
H332 H 0.65886 0.33066 0.56206 0.0
N333 N 0.62772 0.4118 0.56439 0.0
N334 N 0.59 0.44231 0.53462 0.0
C335 C 0.59993 0.43461 0.56325 0.0
C336 C 0.63546 0.40446 0.53558 0.0
C337 C 0.6123 0.4231 0.51721 0.0
C338 C 0.73837 0.38964 0.59141 0.0
O339 O 0.77102 0.40354 0.58527 0.0
H340 H 0.58795 0.44578 0.58313 0.0
H341 H 0.65752 0.38766 0.52843 0.0
O342 O 0.6361 0.4204 0.63376 0.0
H343 H 0.65008 0.27496 0.59236 0.0
H344 H 0.6132 0.42339 0.4929 0.0
Cu345 Cu 0.0823 0.6194 0.6722 0.0
N346 N 0.04223 0.62063 0.69991 0.0
N347 N 0.99759 0.60127 0.73082 0.0
C348 C 0.01873 0.59571 0.70602 0.0
C349 C 1.00798 0.63091 0.74074 0.0
C350 C 0.03536 0.64295 0.72144 0.0
O351 O 0.06427 0.6019 0.63412 0.0
C352 C 0.13203 0.59398 0.71535 0.0
O353 O 0.1136 0.61453 0.73274 0.0
H354 H 0.01901 0.57295 0.69381 0.0
H355 H 0.05092 0.66542 0.72401 0.0
N356 N 0.10472 0.66039 0.66721 0.0
N357 N 0.15097 0.69775 0.66442 0.0
C358 C 0.14242 0.66593 0.66846 0.0
C359 C 0.08853 0.68972 0.66235 0.0
C360 C 0.11697 0.71282 0.66063 0.0
C361 C 0.06049 0.57121 0.63113 0.0
O362 O 0.06967 0.55203 0.65372 0.0
H363 H 0.16311 0.64682 0.6726 0.0
H364 H 0.05824 0.69399 0.66018 0.0
O365 O 0.12201 0.59127 0.68801 0.0
H366 H 0.99753 0.64244 0.76104 0.0
H367 H 0.11285 0.73857 0.65637 0.0
H368 H 0.20632 0.72612 0.13935 0.0
H369 H 0.26915 0.66234 0.19964 0.0
H370 H 0.31615 0.70627 0.2081 0.0
H371 H 0.28548 0.76505 0.10497 0.0
H372 H 0.26274 0.8045 0.10319 0.0
H373 H 0.23438 0.76814 0.10235 0.0
H374 H 0.19566 0.78859 0.14831 0.0
H375 H 0.22373 0.82512 0.14918 0.0
H376 H 0.22032 0.79978 0.18224 0.0
H377 H 0.35798 0.75835 0.20832 0.0
H378 H 0.38712 0.81295 0.20264 0.0
H379 H 0.29503 0.84187 0.14324 0.0
C380 C 0.22996 0.72121 0.15433 0.0
C381 C 0.23407 0.69049 0.16862 0.0
C382 C 0.26531 0.68553 0.18833 0.0
C383 C 0.29222 0.71039 0.19323 0.0
C384 C 0.28744 0.74028 0.17846 0.0
C385 C 0.25675 0.74575 0.15964 0.0
C386 C 0.2573 0.78001 0.14681 0.0
C387 C 0.26015 0.77937 0.11228 0.0
C388 C 0.22218 0.79952 0.15726 0.0
C389 C 0.29344 0.79298 0.16083 0.0
C390 C 0.31062 0.76983 0.17903 0.0
C391 C 0.34462 0.77653 0.19408 0.0
C392 C 0.36116 0.8076 0.19059 0.0
C393 C 0.34363 0.83181 0.17235 0.0
C394 C 0.30934 0.82405 0.15732 0.0
H395 H 0.80201 0.22276 0.07544 0.0
H396 H 0.83644 0.21586 0.16885 0.0
H397 H 0.7914 0.26056 0.18168 0.0
H398 H 0.79406 0.31089 0.07382 0.0
H399 H 0.75398 0.31088 0.04854 0.0
H400 H 0.78834 0.27817 0.04726 0.0
H401 H 0.73439 0.23645 0.0551 0.0
H402 H 0.69983 0.26899 0.05679 0.0
H403 H 0.70347 0.24016 0.08733 0.0
H404 H 0.73914 0.30487 0.18432 0.0
H405 H 0.69169 0.34892 0.17554 0.0
H406 H 0.6951 0.32881 0.07991 0.0
C407 C 0.80021 0.23072 0.09861 0.0
C408 C 0.82272 0.21566 0.12119 0.0
C409 C 0.8197 0.22708 0.15115 0.0
C410 C 0.79396 0.25233 0.15865 0.0
C411 C 0.77179 0.26634 0.13588 0.0
C412 C 0.77527 0.25627 0.10635 0.0
C413 C 0.74943 0.27603 0.08579 0.0
C414 C 0.77286 0.29513 0.06249 0.0
C415 C 0.72004 0.25409 0.07036 0.0
C416 C 0.73055 0.29868 0.10833 0.0
C417 C 0.74335 0.29248 0.13719 0.0
C418 C 0.72918 0.30998 0.16176 0.0
C419 C 0.70197 0.33482 0.15662 0.0
C420 C 0.68957 0.34236 0.12707 0.0
C421 C 0.704 0.32373 0.10277 0.0
H422 H 0.17709 0.82901 0.30731 0.0
H423 H 0.20283 0.85372 0.4 0.0
H424 H 0.24028 0.80335 0.40515 0.0
H425 H 0.17257 0.73938 0.31964 0.0
H426 H 0.19497 0.72978 0.28424 0.0
H427 H 0.16669 0.76639 0.28793 0.0
H428 H 0.22307 0.79995 0.26915 0.0
H429 H 0.25288 0.7642 0.26623 0.0
H430 H 0.26759 0.79814 0.28887 0.0
H431 H 0.27366 0.75037 0.40174 0.0
H432 H 0.31164 0.70244 0.38719 0.0
H433 H 0.27207 0.71267 0.29514 0.0
C434 C 0.19058 0.82374 0.32867 0.0
C435 C 0.18667 0.84556 0.35331 0.0
C436 C 0.20519 0.83774 0.38074 0.0
C437 C 0.22633 0.80888 0.38404 0.0
C438 C 0.22921 0.78781 0.35968 0.0
C439 C 0.21256 0.79498 0.33228 0.0
C440 C 0.2228 0.7688 0.30925 0.0
C441 C 0.18713 0.74998 0.29971 0.0
C442 C 0.2428 0.78363 0.28174 0.0
C443 C 0.24953 0.74705 0.32768 0.0
C444 C 0.25108 0.75779 0.35706 0.0
C445 C 0.2727 0.74166 0.3788 0.0
C446 C 0.29411 0.71425 0.37031 0.0
C447 C 0.29497 0.70357 0.34004 0.0
C448 C 0.27198 0.72014 0.31848 0.0
H449 H 0.84405 0.31148 0.43952 0.0
H450 H 0.86629 0.3211 0.34396 0.0
H451 H 0.82287 0.27503 0.33395 0.0
H452 H 0.84081 0.22284 0.44068 0.0
H453 H 0.8039 0.22199 0.46887 0.0
H454 H 0.83688 0.25534 0.46772 0.0
H455 H 0.77988 0.29545 0.46468 0.0
H456 H 0.7467 0.26221 0.46446 0.0
H457 H 0.74603 0.29175 0.43445 0.0
H458 H 0.77312 0.22929 0.33454 0.0
H459 H 0.72897 0.184 0.34615 0.0
H460 H 0.74288 0.20263 0.44142 0.0
C461 C 0.84006 0.30376 0.41647 0.0
C462 C 0.85862 0.32001 0.3925 0.0
C463 C 0.85266 0.30896 0.36271 0.0
C464 C 0.8278 0.28293 0.35681 0.0
C465 C 0.80945 0.26782 0.38095 0.0
C466 C 0.81591 0.27751 0.41025 0.0
C467 C 0.79353 0.25686 0.43233 0.0
C468 C 0.82038 0.23814 0.45365 0.0
C469 C 0.76485 0.27784 0.45002 0.0
C470 C 0.77337 0.234 0.41095 0.0
C471 C 0.78238 0.24096 0.38135 0.0
C472 C 0.76618 0.22355 0.35766 0.0
C473 C 0.74088 0.19802 0.36443 0.0
C474 C 0.73246 0.18973 0.39465 0.0
C475 C 0.74884 0.20826 0.41807 0.0
H476 H 0.80949 0.31417 0.86841 0.0
H477 H 0.84088 0.33301 0.96105 0.0
H478 H 0.79885 0.28815 0.97777 0.0
H479 H 0.71157 0.29356 0.88124 0.0
H480 H 0.71148 0.26185 0.85328 0.0
H481 H 0.74294 0.29602 0.84921 0.0
H482 H 0.80055 0.25642 0.84547 0.0
H483 H 0.76927 0.22214 0.84981 0.0
H484 H 0.80882 0.22719 0.87512 0.0
H485 H 0.7519 0.24145 0.98405 0.0
H486 H 0.70511 0.19698 0.97939 0.0
H487 H 0.70797 0.20729 0.88224 0.0
C488 C 0.80722 0.30919 0.89227 0.0
C489 C 0.82811 0.3274 0.91349 0.0
C490 C 0.82494 0.31953 0.94444 0.0
C491 C 0.80122 0.29406 0.95411 0.0
C492 C 0.78133 0.27638 0.9325 0.0
C493 C 0.78427 0.28358 0.90221 0.0
C494 C 0.76083 0.26049 0.88337 0.0
C495 C 0.72986 0.27909 0.86575 0.0
C496 C 0.7864 0.24037 0.8622 0.0
C497 C 0.74371 0.23935 0.90778 0.0
C498 C 0.75577 0.24889 0.93599 0.0
C499 C 0.74256 0.23365 0.96204 0.0
C500 C 0.71601 0.20836 0.95916 0.0
C501 C 0.70311 0.19835 0.93045 0.0
C502 C 0.71767 0.21391 0.9045 0.0
H503 H 0.33149 0.7365 0.88979 0.0
H504 H 0.3346 0.71062 0.79544 0.0
H505 H 0.27951 0.74734 0.78583 0.0
H506 H 0.22923 0.73882 0.89601 0.0
H507 H 0.22881 0.77238 0.92208 0.0
H508 H 0.26891 0.74484 0.92102 0.0
H509 H 0.31417 0.79349 0.91205 0.0
H510 H 0.27421 0.82118 0.91305 0.0
H511 H 0.30547 0.82072 0.88088 0.0
H512 H 0.22531 0.78941 0.78663 0.0
H513 H 0.17336 0.82855 0.79856 0.0
H514 H 0.20386 0.82391 0.89287 0.0
C515 C 0.32073 0.73875 0.86708 0.0
C516 C 0.33756 0.72099 0.84326 0.0
C517 C 0.32209 0.72401 0.81396 0.0
C518 C 0.29094 0.7449 0.80832 0.0
C519 C 0.27516 0.76223 0.83232 0.0
C520 C 0.28928 0.75899 0.8612 0.0
C521 C 0.26646 0.77929 0.88331 0.0
C522 C 0.24721 0.75752 0.907 0.0
C523 C 0.29158 0.80521 0.89819 0.0
C524 C 0.23742 0.79473 0.86242 0.0
C525 C 0.2431 0.78493 0.83302 0.0
C526 C 0.22046 0.79695 0.80963 0.0
C527 C 0.19114 0.81927 0.81656 0.0
C528 C 0.1843 0.82899 0.84664 0.0
C529 C 0.20793 0.81648 0.86974 0.0
H530 H 0.74803 0.34276 0.54908 0.0
H531 H 0.7314 0.35704 0.64463 0.0
H532 H 0.74295 0.29799 0.65349 0.0
H533 H 0.7007 0.26392 0.54617 0.0
H534 H 0.73251 0.24773 0.51805 0.0
H535 H 0.72264 0.29084 0.51925 0.0
H536 H 0.79461 0.30284 0.52321 0.0
H537 H 0.80505 0.25986 0.52198 0.0
H538 H 0.82217 0.28407 0.55282 0.0
H539 H 0.76002 0.23731 0.65163 0.0
H540 H 0.77135 0.17927 0.63854 0.0
H541 H 0.77472 0.20498 0.54411 0.0
C542 C 0.74613 0.33323 0.57177 0.0
C543 C 0.73812 0.35409 0.59617 0.0
C544 C 0.73667 0.34114 0.62566 0.0
C545 C 0.74361 0.30777 0.63087 0.0
C546 C 0.75204 0.28782 0.60631 0.0
C547 C 0.75252 0.3 0.57727 0.0
C548 C 0.76112 0.27341 0.55466 0.0
C549 C 0.72723 0.2687 0.53327 0.0
C550 C 0.79793 0.28049 0.53714 0.0
C551 C 0.76615 0.24441 0.57545 0.0
C552 C 0.76115 0.25319 0.60521 0.0
C553 C 0.76407 0.23027 0.6284 0.0
C554 C 0.77093 0.19747 0.62085 0.0
C555 C 0.77497 0.188 0.59045 0.0
C556 C 0.77283 0.21184 0.56758 0.0
H557 H 0.17024 0.76196 0.67259 0.0
H558 H 0.21791 0.66626 0.6533 0.0
H559 H 0.28178 0.68977 0.65117 0.0
H560 H 0.23047 0.80598 0.62242 0.0
H561 H 0.23556 0.84087 0.6466 0.0
H562 H 0.1933 0.8164 0.64875 0.0
H563 H 0.20473 0.8076 0.70576 0.0
H564 H 0.24713 0.83197 0.70368 0.0
H565 H 0.2496 0.79105 0.71842 0.0
H566 H 0.34016 0.72307 0.64866 0.0
H567 H 0.38982 0.76488 0.64483 0.0
H568 H 0.3061 0.84008 0.66448 0.0
C569 C 0.19403 0.74589 0.66794 0.0
C570 C 0.18861 0.71199 0.66342 0.0
C571 C 0.22089 0.69204 0.6575 0.0
C572 C 0.2575 0.70523 0.65608 0.0
C573 C 0.26176 0.73853 0.66063 0.0
C574 C 0.23103 0.7587 0.66642 0.0
C575 C 0.24371 0.79393 0.66936 0.0
C576 C 0.22463 0.81556 0.64534 0.0
C577 C 0.23582 0.80689 0.7012 0.0
C578 C 0.28621 0.79034 0.66364 0.0
C579 C 0.29586 0.75806 0.65894 0.0
C580 C 0.33299 0.74843 0.65236 0.0
C581 C 0.36099 0.77241 0.65004 0.0
C582 C 0.35193 0.8058 0.65416 0.0
C583 C 0.31402 0.81476 0.66154 0.0
H584 H 1.00662 0.50613 0.35232 0.0
H585 H 0.02203 0.41 0.31365 0.0
H586 H 0.06956 0.43269 0.278 0.0
H587 H 1.01035 0.55005 0.28439 0.0
H588 H 0.03488 0.58432 0.30035 0.0
H589 H 1.00456 0.55972 0.32367 0.0
H590 H 0.06062 0.54937 0.36041 0.0
H591 H 0.09119 0.5739 0.33713 0.0
H592 H 0.10468 0.5326 0.34629 0.0
H593 H 0.11349 0.46791 0.24453 0.0
H594 H 0.14714 0.51128 0.21644 0.0
H595 H 0.10168 0.58336 0.27822 0.0
C596 C 0.02013 0.48959 0.33661 0.0
C597 C 1.01055 0.45616 0.33591 0.0
C598 C 0.02895 0.43564 0.31475 0.0
C599 C 0.05601 0.44835 0.29443 0.0
C600 C 0.06447 0.48159 0.29567 0.0
C601 C 0.04696 0.5018 0.31634 0.0
C602 C 0.05938 0.53682 0.31255 0.0
C603 C 0.02526 0.55902 0.30477 0.0
C604 C 0.08021 0.54887 0.34077 0.0
C605 C 0.08635 0.53347 0.2862 0.0
C606 C 0.08925 0.50147 0.27678 0.0
C607 C 0.11157 0.49294 0.25197 0.0
C608 C 0.13071 0.51778 0.23618 0.0
C609 C 0.12734 0.55082 0.24514 0.0
C610 C 0.10528 0.55841 0.27083 0.0
H611 H 0.9307 0.09811 0.23045 0.0
H612 H 0.01766 0.10953 0.16205 0.0
H613 H 0.05987 0.07168 0.19037 0.0
H614 H 0.99273 0.08983 0.29621 0.0
H615 H 0.962 0.05966 0.31271 0.0
H616 H 0.94253 0.09062 0.28827 0.0
H617 H 0.91402 0.04408 0.25341 0.0
H618 H 0.93334 1.01496 0.27975 0.0
H619 H 0.9457 1.0126 0.24046 0.0
H620 H 0.09116 0.02905 0.22599 0.0
H621 H 0.10667 0.98607 0.26359 0.0
H622 H 0.99746 1.00293 0.30665 0.0
C623 C 0.95898 0.0934 0.22171 0.0
C624 C 0.97107 0.10733 0.19424 0.0
C625 C 1.0079 0.0995 0.18322 0.0
C626 C 0.03206 0.07797 0.19917 0.0
C627 C 0.01888 0.06423 0.22599 0.0
C628 C 0.98306 0.0717 0.23702 0.0
C629 C 0.97402 0.05201 0.26488 0.0
C630 C 0.96742 0.07435 0.29213 0.0
C631 C 0.93974 0.02962 0.25934 0.0
C632 C 1.01041 0.03244 0.26818 0.0
C633 C 0.03615 0.03969 0.24567 0.0
C634 C 0.07121 0.02345 0.2438 0.0
C635 C 0.07985 0.99909 0.26528 0.0
C636 C 0.05343 0.99107 0.28821 0.0
C637 C 0.01852 1.0084 0.28961 0.0
H638 H 0.61314 0.08151 0.27697 0.0
H639 H 0.5838 0.03777 0.36277 0.0
H640 H 0.54607 0.996 0.33653 0.0
H641 H 0.5203 0.07054 0.24369 0.0
H642 H 0.53896 0.06273 0.2066 0.0
H643 H 0.56497 0.08806 0.23226 0.0
H644 H 0.62408 0.05059 0.22587 0.0
H645 H 0.59797 0.02481 0.20059 0.0
H646 H 0.62006 1.00762 0.23365 0.0
H647 H 0.51298 0.95753 0.30051 0.0
H648 H 0.47839 0.93154 0.25855 0.0
H649 H 0.52511 1.00267 0.19669 0.0
C650 C 0.59864 0.0632 0.29021 0.0
C651 C 0.60149 0.06292 0.32195 0.0
C652 C 0.58184 0.03868 0.33847 0.0
C653 C 0.56062 1.01462 0.32373 0.0
C654 C 0.5588 1.0153 0.29242 0.0
C655 C 0.5766 0.03939 0.27588 0.0
C656 C 0.56808 0.03587 0.24261 0.0
C657 C 0.5468 0.06609 0.23059 0.0
C658 C 0.60474 0.02933 0.22463 0.0
C659 C 0.54265 1.00612 0.24302 0.0
C660 C 0.53831 0.99417 0.27189 0.0
C661 C 0.51614 0.96676 0.27783 0.0
C662 C 0.49686 0.95194 0.25382 0.0
C663 C 0.49919 0.96496 0.22436 0.0
C664 C 0.52301 0.99203 0.21894 0.0
H665 H 0.54743 0.53317 0.16967 0.0
H666 H 0.53588 0.43908 0.21333 0.0
H667 H 0.49273 0.46421 0.25117 0.0
H668 H 0.55034 0.58073 0.23603 0.0
H669 H 0.52404 0.61435 0.21994 0.0
H670 H 0.55238 0.5884 0.19612 0.0
H671 H 0.49321 0.57668 0.16323 0.0
H672 H 0.46462 0.60257 0.18701 0.0
H673 H 0.45073 0.56096 0.18064 0.0
H674 H 0.45175 0.50139 0.28541 0.0
H675 H 0.41869 0.546 0.3125 0.0
H676 H 0.45809 0.61491 0.24537 0.0
C677 C 0.53578 0.5176 0.18704 0.0
C678 C 0.54514 0.48399 0.18841 0.0
C679 C 0.52916 0.46481 0.2117 0.0
C680 C 0.50459 0.47892 0.23328 0.0
C681 C 0.49617 0.51223 0.23123 0.0
C682 C 0.5114 0.53121 0.20858 0.0
C683 C 0.49898 0.56651 0.21144 0.0
C684 C 0.53349 0.5888 0.21617 0.0
C685 C 0.47548 0.5773 0.18395 0.0
C686 C 0.47452 0.56472 0.23943 0.0
C687 C 0.47301 0.53325 0.25055 0.0
C688 C 0.45269 0.52602 0.2767 0.0
C689 C 0.43389 0.55157 0.29194 0.0
C690 C 0.43551 0.58409 0.28109 0.0
C691 C 0.45592 0.59042 0.25427 0.0
H692 H 0.99599 0.58669 0.79035 0.0
H693 H 0.94663 0.56213 0.70424 0.0
H694 H 0.9104 0.51758 0.72824 0.0
H695 H 1.01213 0.50715 0.8131 0.0
H696 H 1.00181 0.51335 0.85241 0.0
H697 H 0.01845 0.54673 0.82979 0.0
H698 H 0.95911 0.58083 0.84478 0.0
H699 H 0.94227 0.54745 0.86753 0.0
H700 H 0.91226 0.56454 0.83856 0.0
H701 H 0.88573 0.47248 0.75976 0.0
H702 H 0.87648 0.42779 0.79604 0.0
H703 H 0.94285 0.48011 0.86225 0.0
C704 C 0.97651 0.57257 0.77688 0.0
C705 C 0.97343 0.57804 0.74558 0.0
C706 C 0.94895 0.55835 0.72828 0.0
C707 C 0.9282 0.53317 0.74176 0.0
C708 C 0.93241 0.5279 0.77257 0.0
C709 C 0.956 0.54698 0.78997 0.0
C710 C 0.95885 0.53372 0.82181 0.0
C711 C 1.00026 0.5247 0.82972 0.0
C712 C 0.94211 0.55809 0.84451 0.0
C713 C 0.93417 0.50367 0.81931 0.0
C714 C 0.91868 0.50118 0.79083 0.0
C715 C 0.8972 0.4744 0.78227 0.0
C716 C 0.89216 0.44909 0.80304 0.0
C717 C 0.90869 0.45055 0.83205 0.0
C718 C 0.92918 0.47862 0.84049 0.0
H719 H 0.02044 1.00689 0.76342 0.0
H720 H 0.93807 0.92855 0.75966 0.0
H721 H 0.90098 0.95972 0.72224 0.0
H722 H 0.95472 0.07293 0.75615 0.0
H723 H 0.98567 0.09704 0.73277 0.0
H724 H 1.00564 0.06863 0.75946 0.0
H725 H 0.04366 0.04044 0.71675 0.0
H726 H 0.02395 0.06885 0.68994 0.0
H727 H 0.01877 0.02567 0.68413 0.0
H728 H 0.87215 1.00017 0.68537 0.0
H729 H 0.8555 0.04557 0.651 0.0
H730 H 0.95806 0.09616 0.6778 0.0
C731 C 0.99492 0.99591 0.75463 0.0
C732 C 0.98236 0.96506 0.76484 0.0
C733 C 0.94825 0.95221 0.75273 0.0
C734 C 0.92699 0.96971 0.73127 0.0
C735 C 0.94018 1.00003 0.72191 0.0
C736 C 0.97348 1.01292 0.7331 0.0
C737 C 0.98165 0.04591 0.71922 0.0
C738 C 0.98192 0.0727 0.74334 0.0
C739 C 0.01923 0.04515 0.70145 0.0
C740 C 0.94771 0.0496 0.69847 0.0
C741 C 0.924 0.02296 0.70042 0.0
C742 C 0.8906 0.02109 0.6836 0.0
C743 C 0.88133 0.04704 0.66418 0.0
C744 C 0.90548 0.07442 0.66159 0.0
C745 C 0.93905 0.07555 0.67909 0.0
H746 H 0.61415 0.08326 0.78839 0.0
H747 H 0.62688 0.03227 0.87338 0.0
H748 H 0.60438 0.98147 0.84942 0.0
H749 H 0.52767 0.04759 0.7696 0.0
H750 H 0.5368 0.04588 0.72973 0.0
H751 H 0.55912 0.07666 0.75225 0.0
H752 H 0.62554 0.05762 0.73368 0.0
H753 H 0.60339 0.02688 0.71087 0.0
H754 H 0.63933 1.01546 0.73789 0.0
H755 H 0.57692 0.93702 0.81647 0.0
H756 H 0.54317 0.90388 0.77856 0.0
H757 H 0.54489 0.98545 0.7165 0.0
C758 C 0.61327 0.06119 0.80178 0.0
C759 C 0.62296 0.06148 0.83261 0.0
C760 C 0.62004 0.03241 0.84963 0.0
C761 C 0.60734 1.00349 0.8362 0.0
C762 C 0.59726 1.00421 0.80584 0.0
C763 C 0.59992 0.03241 0.78891 0.0
C764 C 0.58384 0.02776 0.75764 0.0
C765 C 0.54984 0.05084 0.752 0.0
C766 C 0.61489 0.03219 0.7336 0.0
C767 C 0.57127 0.99265 0.75966 0.0
C768 C 0.5798 0.97927 0.78744 0.0
C769 C 0.5703 0.94723 0.79461 0.0
C770 C 0.55127 0.92855 0.77295 0.0
C771 C 0.54139 0.94215 0.74468 0.0
C772 C 0.55187 0.97453 0.73801 0.0
H773 H 0.61942 0.51606 0.64491 0.0
H774 H 0.61598 0.4218 0.68935 0.0
H775 H 0.58685 0.44745 0.73404 0.0
H776 H 0.6403 0.56444 0.71131 0.0
H777 H 0.61014 0.59791 0.69982 0.0
H778 H 0.63262 0.5725 0.67189 0.0
H779 H 0.56681 0.5604 0.64833 0.0
H780 H 0.54416 0.58582 0.67611 0.0
H781 H 0.52946 0.54412 0.67167 0.0
H782 H 0.5569 0.48308 0.7735 0.0
H783 H 0.52594 0.5256 0.80414 0.0
H784 H 0.54667 0.59647 0.73341 0.0
C785 C 0.61292 0.50085 0.66415 0.0
C786 C 0.62022 0.46691 0.66366 0.0
C787 C 0.61074 0.44783 0.68918 0.0
C788 C 0.59426 0.4622 0.71472 0.0
C789 C 0.58729 0.49567 0.7144 0.0
C790 C 0.59617 0.51475 0.68976 0.0
C791 C 0.58418 0.54991 0.69472 0.0
C792 C 0.61888 0.57252 0.69442 0.0
C793 C 0.55438 0.56068 0.67132 0.0
C794 C 0.56694 0.54756 0.72592 0.0
C795 C 0.5693 0.51611 0.73693 0.0
C796 C 0.55483 0.50779 0.76507 0.0
C797 C 0.53705 0.53214 0.78226 0.0
C798 C 0.53352 0.5645 0.77126 0.0
C799 C 0.54917 0.5722 0.74276 0.0
H800 H 0.08939 0.72135 0.17821 0.0
H801 H 1.00247 0.65586 0.21117 0.0
H802 H 0.97324 0.70092 0.2399 0.0
H803 H 0.10514 0.75991 0.24445 0.0
H804 H 0.11285 0.79995 0.22895 0.0
H805 H 0.12235 0.76453 0.20647 0.0
H806 H 0.07648 0.78608 0.16521 0.0
H807 H 0.06698 0.82185 0.18751 0.0
H808 H 0.02819 0.79678 0.175 0.0
H809 H 0.96089 0.75011 0.27194 0.0
H810 H 0.96551 0.79942 0.30323 0.0
H811 H 0.05853 0.83356 0.2473 0.0
C812 C 0.06366 0.71676 0.1909 0.0
C813 C 0.0481 0.68525 0.19241 0.0
C814 C 1.0145 0.67998 0.20932 0.0
C815 C 0.99775 0.70541 0.22576 0.0
C816 C 1.01463 0.73601 0.2246 0.0
C817 C 0.04656 0.74186 0.20724 0.0
C818 C 0.06154 0.77585 0.21209 0.0
C819 C 0.10288 0.77498 0.22369 0.0
C820 C 0.05807 0.79635 0.18323 0.0
C821 C 0.03418 0.78765 0.236 0.0
C822 C 1.00703 0.76457 0.24271 0.0
C823 C 0.98138 0.76875 0.26636 0.0
C824 C 0.98418 0.79693 0.28401 0.0
C825 C 1.01254 0.82045 0.27795 0.0
C826 C 0.03678 0.81605 0.25289 0.0
H827 H 0.84509 0.10319 0.21433 0.0
H828 H 0.80768 1.01304 0.17337 0.0
H829 H 0.78541 0.99376 0.22314 0.0
H830 H 0.8743 0.07059 0.28833 0.0
H831 H 0.85665 0.10687 0.30617 0.0
H832 H 0.87417 0.10883 0.26811 0.0
H833 H 0.80815 0.1351 0.25365 0.0
H834 H 0.79138 0.13029 0.29162 0.0
H835 H 0.7653 0.11248 0.26098 0.0
H836 H 0.76321 0.98633 0.27719 0.0
H837 H 0.73873 0.99332 0.32894 0.0
H838 H 0.79114 0.08847 0.33325 0.0
C839 C 0.83211 0.07944 0.21551 0.0
C840 C 0.82798 0.05971 0.18971 0.0
C841 C 0.81137 0.02851 0.1928 0.0
C842 C 0.79876 1.01734 0.22099 0.0
C843 C 0.8032 0.03758 0.24586 0.0
C844 C 0.81938 0.06804 0.24328 0.0
C845 C 0.81806 0.0864 0.27268 0.0
C846 C 0.85821 0.0936 0.28445 0.0
C847 C 0.7943 0.11791 0.26954 0.0
C848 C 0.79831 0.06164 0.29226 0.0
C849 C 0.79025 0.03347 0.27661 0.0
C850 C 0.7699 1.00808 0.28976 0.0
C851 C 0.75641 1.01213 0.31929 0.0
C852 C 0.76322 0.04143 0.33516 0.0
C853 C 0.7856 0.06582 0.32168 0.0
H854 H 0.37099 0.75847 0.33025 0.0
H855 H 0.48641 0.77778 0.35898 0.0
H856 H 0.47568 0.83688 0.34977 0.0
H857 H 0.37386 0.80964 0.27056 0.0
H858 H 0.325 0.82274 0.27207 0.0
H859 H 0.33831 0.78342 0.28673 0.0
H860 H 0.31059 0.79721 0.33903 0.0
H861 H 0.29503 0.83647 0.3252 0.0
H862 H 0.32477 0.83374 0.35811 0.0
H863 H 0.45395 0.89284 0.33107 0.0
H864 H 0.4273 0.937 0.29938 0.0
H865 H 0.32634 0.87995 0.28392 0.0
C866 C 0.39365 0.77515 0.33575 0.0
C867 C 0.4293 0.76364 0.34596 0.0
C868 C 0.45879 0.7862 0.35135 0.0
C869 C 0.45278 0.81977 0.34647 0.0
C870 C 0.41713 0.83024 0.33622 0.0
C871 C 0.38824 0.80837 0.33077 0.0
C872 C 0.35461 0.82444 0.3156 0.0
C873 C 0.34752 0.80916 0.28444 0.0
C874 C 0.3191 0.82291 0.33567 0.0
C875 C 0.36895 0.85884 0.31285 0.0
C876 C 0.40485 0.86204 0.32524 0.0
C877 C 0.42552 0.89074 0.32197 0.0
C878 C 0.41 0.9159 0.30419 0.0
C879 C 0.37448 0.91188 0.28962 0.0
C880 C 0.35298 0.88381 0.29557 0.0
H881 H 0.75476 0.4353 0.18662 0.0
H882 H 0.72001 0.53665 0.18764 0.0
H883 H 0.75663 0.54494 0.23467 0.0
H884 H 0.74461 0.4208 0.26228 0.0
H885 H 0.78527 0.39408 0.26598 0.0
H886 H 0.76113 0.3975 0.23046 0.0
H887 H 0.82423 0.41353 0.20423 0.0
H888 H 0.8488 0.40965 0.23963 0.0
H889 H 0.85142 0.44717 0.21858 0.0
H890 H 0.78997 0.53944 0.28545 0.0
H891 H 0.82241 0.52212 0.33247 0.0
H892 H 0.83458 0.42445 0.29679 0.0
C893 C 0.75574 0.45941 0.1964 0.0
C894 C 0.73485 0.48538 0.18365 0.0
C895 C 0.7364 0.51662 0.19696 0.0
C896 C 0.75687 0.52143 0.22372 0.0
C897 C 0.77598 0.49483 0.23642 0.0
C898 C 0.77613 0.46458 0.2228 0.0
C899 C 0.7969 0.43942 0.24155 0.0
C900 C 0.77039 0.41131 0.2506 0.0
C901 C 0.83246 0.42671 0.22501 0.0
C902 C 0.80751 0.45993 0.26835 0.0
C903 C 0.79538 0.49184 0.26509 0.0
C904 C 0.80015 0.51465 0.28798 0.0
C905 C 0.81824 0.50457 0.31467 0.0
C906 C 0.83134 0.47207 0.31807 0.0
C907 C 0.82572 0.44964 0.29455 0.0
H908 H 0.92036 0.26051 0.67083 0.0
H909 H 0.83955 0.19111 0.70694 0.0
H910 H 0.85543 0.2086 0.75843 0.0
H911 H 0.99092 0.25098 0.72821 0.0
H912 H 1.00329 0.29351 0.72911 0.0
H913 H 0.98556 0.27575 0.69492 0.0
H914 H 0.93165 0.31912 0.69261 0.0
H915 H 0.94954 0.33727 0.72655 0.0
H916 H 0.90066 0.32443 0.7246 0.0
H917 H 0.87997 0.23359 0.80596 0.0
H918 H 0.9093 0.26639 0.84614 0.0
H919 H 0.97359 0.31983 0.77908 0.0
C920 C 0.90565 0.24927 0.68952 0.0
C921 C 0.87882 0.22429 0.68482 0.0
C922 C 0.86059 0.20993 0.70999 0.0
C923 C 0.86936 0.21975 0.73932 0.0
C924 C 0.89643 0.24399 0.74316 0.0
C925 C 0.91413 0.25873 0.71897 0.0
C926 C 0.94196 0.28441 0.72931 0.0
C927 C 0.98285 0.27562 0.71982 0.0
C928 C 0.93024 0.31831 0.71758 0.0
C929 C 0.937 0.28186 0.76307 0.0
C930 C 0.9107 0.25833 0.77059 0.0
C931 C 0.90067 0.25205 0.80035 0.0
C932 C 0.91743 0.2708 0.82301 0.0
C933 C 0.94386 0.29556 0.81581 0.0
C934 C 0.95412 0.30069 0.78541 0.0
H935 H 0.28489 0.93508 0.67907 0.0
H936 H 0.3778 0.98526 0.72293 0.0
H937 H 0.33401 1.00344 0.76301 0.0
H938 H 0.20751 0.99379 0.70037 0.0
H939 H 0.174 0.96135 0.70635 0.0
H940 H 0.21106 0.95693 0.67856 0.0
H941 H 0.23341 0.90335 0.70427 0.0
H942 H 0.19668 0.90768 0.73216 0.0
H943 H 0.24568 0.90374 0.74362 0.0
H944 H 0.28275 1.00962 0.80173 0.0
H945 H 0.2275 1.00376 0.83575 0.0
H946 H 0.16804 0.94986 0.76652 0.0
C947 C 0.29573 0.95079 0.69657 0.0
C948 C 0.33464 0.95899 0.69777 0.0
C949 C 0.34801 0.9788 0.72151 0.0
C950 C 0.32334 0.98934 0.74434 0.0
C951 C 0.28536 0.97997 0.74303 0.0
C952 C 0.27153 0.96132 0.71964 0.0
C953 C 0.23056 0.95177 0.7251 0.0
C954 C 0.20423 0.96688 0.70117 0.0
C955 C 0.22637 0.91444 0.72637 0.0
C956 C 0.22393 0.96709 0.75561 0.0
C957 C 0.25571 0.98356 0.76544 0.0
C958 C 0.2574 0.99736 0.79404 0.0
C959 C 0.22595 0.99384 0.81324 0.0
C960 C 0.19335 0.97663 0.80372 0.0
C961 C 0.19223 0.96371 0.7743 0.0
H962 H 0.56165 0.24751 0.78939 0.0
H963 H 0.64284 0.16782 0.78394 0.0
H964 H 0.66292 0.18662 0.73357 0.0
H965 H 0.53461 0.24904 0.71058 0.0
H966 H 0.53186 0.29286 0.70858 0.0
H967 H 0.52255 0.27227 0.74364 0.0
H968 H 0.57449 0.30665 0.76974 0.0
H969 H 0.58391 0.32736 0.73478 0.0
H970 H 0.62205 0.30694 0.75448 0.0
H971 H 0.67394 0.21383 0.68365 0.0
H972 H 0.67829 0.25014 0.63922 0.0
H973 H 0.5924 0.31368 0.67794 0.0
C974 C 0.58344 0.23403 0.77738 0.0
C975 C 0.60077 0.20629 0.79042 0.0
C976 C 0.62953 0.18933 0.77437 0.0
C977 C 0.64093 0.19969 0.74571 0.0
C978 C 0.62352 0.22727 0.7335 0.0
C979 C 0.59564 0.24441 0.74889 0.0
C980 C 0.58286 0.27415 0.73123 0.0
C981 C 0.54045 0.27193 0.72302 0.0
C982 C 0.59135 0.30563 0.7486 0.0
C983 C 0.60789 0.271 0.70359 0.0
C984 C 0.63081 0.24357 0.70516 0.0
C985 C 0.65613 0.23539 0.68215 0.0
C986 C 0.6583 0.25599 0.65697 0.0
C987 C 0.63571 0.28461 0.65526 0.0
C988 C 0.61015 0.29204 0.67885 0.0
H989 H 0.31016 0.59031 0.8216 0.0
H990 H 0.37301 0.54932 0.7466 0.0
H991 H 0.31259 0.53794 0.72047 0.0
H992 H 0.22238 0.53723 0.8153 0.0
H993 H 0.19179 0.57124 0.82439 0.0
H994 H 0.23889 0.56859 0.84031 0.0
H995 H 0.25414 0.62595 0.8191 0.0
H996 H 0.2074 0.6287 0.80301 0.0
H997 H 0.24869 0.63359 0.77938 0.0
H998 H 0.24728 0.53996 0.69894 0.0
H999 H 0.18279 0.55684 0.68311 0.0
H1000 H 0.16256 0.59787 0.77161 0.0
C1001 C 0.31108 0.57764 0.80027 0.0
C1002 C 0.34608 0.57024 0.78624 0.0
C1003 C 0.34635 0.5549 0.75778 0.0
C1004 C 0.31219 0.5482 0.74287 0.0
C1005 C 0.27807 0.55701 0.75674 0.0
C1006 C 0.27725 0.57127 0.78491 0.0
C1007 C 0.2376 0.58301 0.79289 0.0
C1008 C 0.22173 0.56387 0.81982 0.0
C1009 C 0.23695 0.61998 0.79892 0.0
C1010 C 0.21669 0.57465 0.76423 0.0
C1011 C 0.24026 0.55892 0.74395 0.0
C1012 C 0.22829 0.55161 0.71486 0.0
C1013 C 0.19162 0.56136 0.70604 0.0
C1014 C 0.16763 0.57863 0.72614 0.0
C1015 C 0.18006 0.58439 0.75584 0.0
H1016 H 0.1569 0.4938 0.07317 0.0
H1017 H 0.10521 0.58861 0.05788 0.0
H1018 H 0.06097 0.56417 0.02118 0.0
H1019 H 0.14901 0.46381 0.99557 0.0
H1020 H 0.13826 0.42292 0.00761 0.0
H1021 H 0.1677 0.44851 0.03066 0.0
H1022 H 0.12203 0.43953 0.07568 0.0
H1023 H 0.09231 0.41415 0.05274 0.0
H1024 H 0.07216 0.44913 0.07149 0.0
H1025 H 0.01995 0.5285 0.98815 0.0
H1026 H 0.98525 0.48473 0.96216 0.0
H1027 H 0.06428 0.41338 0.99902 0.0
C1028 C 0.13694 0.50959 0.06157 0.0
C1029 C 0.13472 0.54322 0.06826 0.0
C1030 C 0.10735 0.5628 0.05318 0.0
C1031 C 0.08222 0.54915 0.03221 0.0
C1032 C 0.08475 0.51581 0.02655 0.0
C1033 C 0.11151 0.49631 0.04075 0.0
C1034 C 0.10699 0.4609 0.03198 0.0
C1035 C 0.14261 0.4483 0.01547 0.0
C1036 C 0.09782 0.43969 0.05962 0.0
C1037 C 0.0732 0.46343 0.01094 0.0
C1038 C 0.06095 0.49531 0.00789 0.0
C1039 C 0.02955 0.50348 0.99018 0.0
C1040 C 1.01007 0.4784 0.97537 0.0
C1041 C 0.02186 0.44544 0.97843 0.0
C1042 C 0.05414 0.43815 0.99634 0.0
H1043 H 0.01823 0.04018 0.88421 0.0
H1044 H 0.08968 0.97296 0.93476 0.0
H1045 H 0.06985 0.99975 0.98204 0.0
H1046 H 0.03463 0.11138 0.93065 0.0
H1047 H 0.98631 0.12595 0.92725 0.0
H1048 H 1.00741 0.10235 0.89739 0.0
H1049 H 0.95192 0.06123 0.90071 0.0
H1050 H 0.93069 0.08467 0.93058 0.0
H1051 H 0.94128 0.04206 0.93624 0.0
H1052 H 0.04064 0.03315 0.02406 0.0
H1053 H 1.00471 0.07022 0.0573 0.0
H1054 H 0.95125 0.11475 0.97921 0.0
C1055 C 0.03004 0.03122 0.90517 0.0
C1056 C 0.05568 1.00447 0.90569 0.0
C1057 C 0.0701 0.99343 0.93371 0.0
C1058 C 0.059 1.00851 0.96071 0.0
C1059 C 0.03343 0.03462 0.95937 0.0
C1060 C 0.01917 0.04591 0.9323 0.0
C1061 C 0.99127 0.07378 0.93705 0.0
C1062 C 1.00579 0.10523 0.9222 0.0
C1063 C 0.95144 0.06489 0.92546 0.0
C1064 C 0.99184 0.07632 0.97104 0.0
C1065 C 0.01641 0.0536 0.9835 0.0
C1066 C 0.02131 0.05102 0.01451 0.0
C1067 C 1.0005 0.07211 0.03327 0.0
C1068 C 0.97488 0.09553 0.02106 0.0
C1069 C 0.97082 0.09754 0.98942 0.0
H1070 H 0.40807 0.02974 0.07914 0.0
H1071 H 0.48327 0.94538 0.08087 0.0
H1072 H 0.52542 0.97221 0.0441 0.0
H1073 H 0.41775 0.04674 0.99915 0.0
H1074 H 0.4163 0.09028 1.00424 0.0
H1075 H 0.39172 0.06408 0.03026 0.0
H1076 H 0.42864 0.08989 0.07451 0.0
H1077 H 0.45354 0.116 0.04863 0.0
H1078 H 0.47995 0.08987 0.07383 0.0
H1079 H 0.56045 1.009 0.00809 0.0
H1080 H 0.58497 0.05218 0.97496 0.0
H1081 H 0.48581 0.11194 0.99538 0.0
C1082 C 0.43303 1.01658 0.07153 0.0
C1083 C 0.44222 0.9853 0.08311 0.0
C1084 C 0.47571 0.96943 0.07274 0.0
C1085 C 0.49979 0.98444 0.0517 0.0
C1086 C 0.49004 1.01536 0.04106 0.0
C1087 C 0.45736 0.03119 0.05051 0.0
C1088 C 0.45366 0.0645 0.03587 0.0
C1089 C 0.41773 0.0665 0.01621 0.0
C1090 C 0.45397 0.09166 0.05963 0.0
C1091 C 0.48949 0.06501 0.01684 0.0
C1092 C 0.51005 0.03642 0.02015 0.0
C1093 C 0.5444 0.03137 1.00514 0.0
C1094 C 0.55802 0.0561 0.98618 0.0
C1095 C 0.53738 0.08565 0.98219 0.0
C1096 C 0.50261 0.08994 0.99792 0.0
H1097 H 0.4721 0.50389 0.90028 0.0
H1098 H 0.45491 0.59951 0.93975 0.0
H1099 H 0.48258 0.57955 0.98751 0.0
H1100 H 0.4507 0.45661 0.96698 0.0
H1101 H 0.48689 0.42637 0.95944 0.0
H1102 H 0.46455 0.44791 0.92876 0.0
H1103 H 0.53071 0.46632 0.90963 0.0
H1104 H 0.55325 0.4449 0.94027 0.0
H1105 H 0.56204 0.48771 0.93473 0.0
H1106 H 0.5129 0.54921 0.03085 0.0
H1107 H 0.54359 0.51117 0.06633 0.0
H1108 H 0.54303 0.43584 0.99789 0.0
C1109 C 0.47382 0.52061 0.91902 0.0
C1110 C 0.46114 0.55327 0.91627 0.0
C1111 C 0.46434 0.57438 0.94129 0.0
C1112 C 0.48002 0.56326 0.96853 0.0
C1113 C 0.4925 0.531 0.97038 0.0
C1114 C 0.4896 0.50998 0.94629 0.0
C1115 C 0.506 0.47671 0.95389 0.0
C1116 C 0.47519 0.45035 0.95217 0.0
C1117 C 0.54002 0.46844 0.93341 0.0
C1118 C 0.51862 0.48228 0.98604 0.0
C1119 C 0.51049 0.51372 0.99514 0.0
C1120 C 0.51952 0.52457 0.0239 0.0
C1121 C 0.53729 0.50274 0.04388 0.0
C1122 C 0.5461 0.47033 0.03507 0.0
C1123 C 0.53649 0.4602 0.00563 0.0
H1124 H 0.02034 0.99752 0.40707 0.0
H1125 H 0.08564 0.9516 0.47842 0.0
H1126 H 0.05896 0.99076 0.51493 0.0
H1127 H 0.02754 0.08189 0.43542 0.0
H1128 H 0.97954 0.09219 0.4245 0.0
H1129 H 1.0062 0.06231 0.40341 0.0
H1130 H 0.95243 0.02041 0.41175 0.0
H1131 H 0.92569 0.05005 0.43294 0.0
H1132 H 0.93718 1.01109 0.44952 0.0
H1133 H 0.02217 0.03213 0.5443 0.0
H1134 H 0.97802 0.07353 0.56466 0.0
H1135 H 0.93586 0.093 0.47464 0.0
C1136 C 0.02964 0.99621 0.43024 0.0
C1137 C 0.05516 0.97149 0.4399 0.0
C1138 C 0.06595 0.97014 0.47058 0.0
C1139 C 0.05109 0.99239 0.49144 0.0
C1140 C 0.02544 1.01601 0.48135 0.0
C1141 C 0.01487 1.01822 0.45147 0.0
C1142 C 0.9852 0.04485 0.44693 0.0
C1143 C 1.00055 0.07192 0.42635 0.0
C1144 C 0.94792 0.03075 0.43456 0.0
C1145 C 0.98031 0.05682 0.47899 0.0
C1146 C 1.00401 0.03995 0.49841 0.0
C1147 C 1.00366 0.04566 0.52929 0.0
C1148 C 0.97826 0.06908 0.54068 0.0
C1149 C 0.95339 0.08657 0.52133 0.0
C1150 C 0.95485 0.08046 0.49 0.0
H1151 H 0.59029 0.09189 0.53071 0.0
H1152 H 0.56575 0.03306 0.4521 0.0
H1153 H 0.52632 0.9969 0.48321 0.0
H1154 H 0.59641 0.02666 0.58359 0.0
H1155 H 0.57364 0.04891 0.6136 0.0
H1156 H 0.59988 0.07043 0.58508 0.0
H1157 H 0.54036 0.10584 0.57332 0.0
H1158 H 0.51392 0.08441 0.60182 0.0
H1159 H 0.4962 0.08629 0.56382 0.0
H1160 H 0.49046 0.96616 0.52315 0.0
H1161 H 0.46061 0.94359 0.56896 0.0
H1162 H 0.50651 0.02346 0.62114 0.0
C1163 C 0.57639 0.07165 0.51987 0.0
C1164 C 0.58154 0.06543 0.48881 0.0
C1165 C 0.56303 0.03825 0.47583 0.0
C1166 C 0.54023 1.0176 0.49331 0.0
C1167 C 0.53591 0.02444 0.52379 0.0
C1168 C 0.55337 0.05086 0.53696 0.0
C1169 C 0.5443 0.05265 0.57026 0.0
C1170 C 0.58072 0.04946 0.58924 0.0
C1171 C 0.52238 0.08417 0.57773 0.0
C1172 C 0.51922 0.02298 0.57377 0.0
C1173 C 0.51474 1.00704 0.5467 0.0
C1174 C 0.4936 0.97854 0.54445 0.0
C1175 C 0.47676 0.96589 0.57061 0.0
C1176 C 0.48103 0.98179 0.59864 0.0
C1177 C 0.50238 1.01085 0.60004 0.0
H1178 H 0.55945 0.45075 0.47822 0.0
H1179 H 0.56068 0.49242 0.56802 0.0
H1180 H 0.51738 0.53585 0.55109 0.0
H1181 H 0.56007 0.52741 0.43847 0.0
H1182 H 0.52896 0.51375 0.40893 0.0
H1183 H 0.5594 0.48498 0.42813 0.0
H1184 H 0.50082 0.44997 0.44185 0.0
H1185 H 0.47021 0.47858 0.42263 0.0
H1186 H 0.46133 0.46848 0.46148 0.0
H1187 H 0.474 0.57516 0.52476 0.0
H1188 H 0.43357 0.60769 0.49061 0.0
H1189 H 0.46139 0.54231 0.4172 0.0
C1190 C 0.55093 0.46898 0.49442 0.0
C1191 C 0.56377 0.46763 0.52468 0.0
C1192 C 0.55117 0.49215 0.54493 0.0
C1193 C 0.52663 0.51725 0.53544 0.0
C1194 C 0.51484 0.51783 0.50555 0.0
C1195 C 0.52657 0.49441 0.48529 0.0
C1196 C 0.50985 0.50094 0.45432 0.0
C1197 C 0.54146 0.50714 0.43109 0.0
C1198 C 0.48401 0.47282 0.4445 0.0
C1199 C 0.4869 0.53172 0.46039 0.0
C1200 C 0.49015 0.54091 0.49015 0.0
C1201 C 0.47121 0.56817 0.50141 0.0
C1202 C 0.44813 0.58643 0.48185 0.0
C1203 C 0.44412 0.57755 0.45122 0.0
C1204 C 0.46414 0.54991 0.44038 0.0
H1205 H 0.98602 0.42851 0.52524 0.0
H1206 H 0.9738 0.50038 0.4539 0.0
H1207 H 0.9951 0.54314 0.48852 0.0
H1208 H 0.95545 0.47974 0.58634 0.0
H1209 H 0.98971 0.46314 0.61246 0.0
H1210 H 0.97197 0.4383 0.5823 0.0
H1211 H 0.04104 0.42725 0.56431 0.0
H1212 H 0.05898 0.45207 0.59439 0.0
H1213 H 0.07171 0.46115 0.556 0.0
H1214 H 0.01905 0.57842 0.53111 0.0
H1215 H 0.04404 0.60269 0.57793 0.0
H1216 H 0.04261 0.50739 0.62051 0.0
C1217 C 0.98788 0.45313 0.5167 0.0
C1218 C 0.97789 0.46075 0.48662 0.0
C1219 C 0.98054 0.49363 0.4768 0.0
C1220 C 0.9929 0.51822 0.49632 0.0
C1221 C 1.00271 0.50972 0.52566 0.0
C1222 C 1.00037 0.47794 0.53579 0.0
C1223 C 1.01331 0.47507 0.56819 0.0
C1224 C 0.98066 0.46338 0.58852 0.0
C1225 C 0.04834 0.45256 0.57086 0.0
C1226 C 0.02343 0.51017 0.57467 0.0
C1227 C 0.01699 0.52984 0.54992 0.0
C1228 C 0.02421 0.56322 0.55063 0.0
C1229 C 0.0384 0.5768 0.57733 0.0
C1230 C 0.04541 0.557 0.60291 0.0
C1231 C 0.03773 0.52325 0.60137 0.0
loop_
_geom_bond_atom_site_label_1
_geom_bond_atom_site_label_2
_geom_bond_distance
_geom_bond_site_symmetry_2
_ccdc_geom_bond_type
Cu0 N1 1.999 . S
Cu0 O6 1.974 . S
Cu0 N11 1.985 . S
Cu0 O20 1.959 . S
N1 Cu0 1.999 . S
N1 C3 1.263 . S
N1 C5 1.389 . S
N2 C3 1.358 . S
N2 C4 1.400 . S
C3 N1 1.263 . S
C3 N2 1.358 . S
C3 H9 0.930 . S
C4 N2 1.400 . S
C4 C5 1.351 . S
C4 H21 0.930 . S
C5 N1 1.389 . S
C5 C4 1.351 . S
C5 H10 0.930 . S
O6 Cu0 1.974 . S
O6 C16 1.282 . S
C7 O8 1.261 . S
C7 O20 1.251 . S
O8 C7 1.261 . S
H9 C3 0.930 . S
H10 C5 0.930 . S
N11 Cu0 1.985 . S
N11 C13 1.335 . S
N11 C14 1.390 . S
N12 C13 1.345 . S
N12 C15 1.336 . S
C13 N11 1.335 . S
C13 N12 1.345 . S
C13 H18 0.930 . S
C14 N11 1.390 . S
C14 C15 1.346 . S
C14 H19 0.930 . S
C15 N12 1.336 . S
C15 C14 1.346 . S
C15 H22 0.929 . S
C16 O6 1.282 . S
C16 O17 1.216 . S
O17 C16 1.216 . S
H18 C13 0.930 . S
H19 C14 0.930 . S
O20 Cu0 1.959 . S
O20 C7 1.251 . S
H21 C4 0.930 . S
H22 C15 0.929 . S
Cu23 N24 1.999 . S
Cu23 O29 1.974 . S
Cu23 N34 1.985 . S
Cu23 O43 1.959 . S
N24 Cu23 1.999 . S
N24 C26 1.263 . S
N24 C28 1.389 . S
N25 C26 1.358 . S
N25 C27 1.400 . S
C26 N24 1.263 . S
C26 N25 1.358 . S
C26 H32 0.930 . S
C27 N25 1.400 . S
C27 C28 1.351 . S
C27 H44 0.930 . S
C28 N24 1.389 . S
C28 C27 1.351 . S
C28 H33 0.930 . S
O29 Cu23 1.974 . S
O29 C39 1.282 . S
C30 O31 1.261 . S
C30 O43 1.251 . S
O31 C30 1.261 . S
H32 C26 0.930 . S
H33 C28 0.930 . S
N34 Cu23 1.985 . S
N34 C36 1.335 . S
N34 C37 1.390 . S
N35 C36 1.345 . S
N35 C38 1.336 . S
C36 N34 1.335 . S
C36 N35 1.345 . S
C36 H41 0.930 . S
C37 N34 1.390 . S
C37 C38 1.346 . S
C37 H42 0.930 . S
C38 N35 1.336 . S
C38 C37 1.346 . S
C38 H45 0.929 . S
C39 O29 1.282 . S
C39 O40 1.216 . S
O40 C39 1.216 . S
H41 C36 0.930 . S
H42 C37 0.930 . S
O43 Cu23 1.959 . S
O43 C30 1.251 . S
H44 C27 0.930 . S
H45 C38 0.929 . S
Cu46 N47 1.999 . S
Cu46 O52 1.974 . S
Cu46 N57 1.985 . S
Cu46 O66 1.959 . S
N47 Cu46 1.999 . S
N47 C49 1.263 . S
N47 C51 1.389 . S
N48 C49 1.358 . S
N48 C50 1.400 . S
C49 N47 1.263 . S
C49 N48 1.358 . S
C49 H55 0.930 . S
C50 N48 1.400 . S
C50 C51 1.351 . S
C50 H67 0.930 . S
C51 N47 1.389 . S
C51 C50 1.351 . S
C51 H56 0.930 . S
O52 Cu46 1.974 . S
O52 C62 1.282 . S
C53 O54 1.261 . S
C53 O66 1.251 . S
O54 C53 1.261 . S
H55 C49 0.930 . S
H56 C51 0.930 . S
N57 Cu46 1.985 . S
N57 C59 1.335 . S
N57 C60 1.390 . S
N58 C59 1.345 . S
N58 C61 1.336 . S
C59 N57 1.335 . S
C59 N58 1.345 . S
C59 H64 0.930 . S
C60 N57 1.390 . S
C60 C61 1.346 . S
C60 H65 0.930 . S
C61 N58 1.336 . S
C61 C60 1.346 . S
C61 H68 0.929 . S
C62 O52 1.282 . S
C62 O63 1.216 . S
O63 C62 1.216 . S
H64 C59 0.930 . S
H65 C60 0.930 . S
O66 Cu46 1.959 . S
O66 C53 1.251 . S
H67 C50 0.930 . S
H68 C61 0.929 . S
Cu69 N70 1.999 . S
Cu69 O75 1.974 . S
Cu69 N80 1.985 . S
Cu69 O89 1.959 . S
N70 Cu69 1.999 . S
N70 C72 1.263 . S
N70 C74 1.389 . S
N71 C72 1.358 . S
N71 C73 1.400 . S
C72 N70 1.263 . S
C72 N71 1.358 . S
C72 H78 0.930 . S
C73 N71 1.400 . S
C73 C74 1.351 . S
C73 H90 0.930 . S
C74 N70 1.389 . S
C74 C73 1.351 . S
C74 H79 0.930 . S
O75 Cu69 1.974 . S
O75 C85 1.282 . S
C76 O77 1.261 . S
C76 O89 1.251 . S
O77 C76 1.261 . S
H78 C72 0.930 . S
H79 C74 0.930 . S
N80 Cu69 1.985 . S
N80 C82 1.335 . S
N80 C83 1.390 . S
N81 C82 1.345 . S
N81 C84 1.336 . S
C82 N80 1.335 . S
C82 N81 1.345 . S
C82 H87 0.930 . S
C83 N80 1.390 . S
C83 C84 1.346 . S
C83 H88 0.930 . S
C84 N81 1.336 . S
C84 C83 1.346 . S
C84 H91 0.929 . S
C85 O75 1.282 . S
C85 O86 1.216 . S
O86 C85 1.216 . S
H87 C82 0.930 . S
H88 C83 0.930 . S
O89 Cu69 1.959 . S
O89 C76 1.251 . S
H90 C73 0.930 . S
H91 C84 0.929 . S
Cu92 N93 1.999 . S
Cu92 O98 1.974 . S
Cu92 N103 1.985 . S
Cu92 O112 1.959 . S
N93 Cu92 1.999 . S
N93 C95 1.263 . S
N93 C97 1.389 . S
N94 C95 1.358 . S
N94 C96 1.400 . S
C95 N93 1.263 . S
C95 N94 1.358 . S
C95 H101 0.930 . S
C96 N94 1.400 . S
C96 C97 1.351 . S
C96 H113 0.930 . S
C97 N93 1.389 . S
C97 C96 1.351 . S
C97 H102 0.930 . S
O98 Cu92 1.974 . S
O98 C108 1.282 . S
C99 O100 1.261 . S
C99 O112 1.251 . S
O100 C99 1.261 . S
H101 C95 0.930 . S
H102 C97 0.930 . S
N103 Cu92 1.985 . S
N103 C105 1.335 . S
N103 C106 1.390 . S
N104 C105 1.345 . S
N104 C107 1.336 . S
C105 N103 1.335 . S
C105 N104 1.345 . S
C105 H110 0.930 . S
C106 N103 1.390 . S
C106 C107 1.346 . S
C106 H111 0.930 . S
C107 N104 1.336 . S
C107 C106 1.346 . S
C107 H114 0.929 . S
C108 O98 1.282 . S
C108 O109 1.216 . S
O109 C108 1.216 . S
H110 C105 0.930 . S
H111 C106 0.930 . S
O112 Cu92 1.959 . S
O112 C99 1.251 . S
H113 C96 0.930 . S
H114 C107 0.929 . S
Cu115 N116 1.999 . S
Cu115 O121 1.974 . S
Cu115 N126 1.985 . S
Cu115 O135 1.959 . S
N116 Cu115 1.999 . S
N116 C118 1.263 . S
N116 C120 1.389 . S
N117 C118 1.358 . S
N117 C119 1.400 . S
C118 N116 1.263 . S
C118 N117 1.358 . S
C118 H124 0.930 . S
C119 N117 1.400 . S
C119 C120 1.351 . S
C119 H136 0.930 . S
C120 N116 1.389 . S
C120 C119 1.351 . S
C120 H125 0.930 . S
O121 Cu115 1.974 . S
O121 C131 1.282 . S
C122 O123 1.261 . S
C122 O135 1.251 . S
O123 C122 1.261 . S
H124 C118 0.930 . S
H125 C120 0.930 . S
N126 Cu115 1.985 . S
N126 C128 1.335 . S
N126 C129 1.390 . S
N127 C128 1.345 . S
N127 C130 1.336 . S
C128 N126 1.335 . S
C128 N127 1.345 . S
C128 H133 0.930 . S
C129 N126 1.390 . S
C129 C130 1.346 . S
C129 H134 0.930 . S
C130 N127 1.336 . S
C130 C129 1.346 . S
C130 H137 0.929 . S
C131 O121 1.282 . S
C131 O132 1.216 . S
O132 C131 1.216 . S
H133 C128 0.930 . S
H134 C129 0.930 . S
O135 Cu115 1.959 . S
O135 C122 1.251 . S
H136 C119 0.930 . S
H137 C130 0.929 . S
Cu138 N139 1.999 . S
Cu138 O144 1.974 . S
Cu138 N149 1.985 . S
Cu138 O158 1.959 . S
N139 Cu138 1.999 . S
N139 C141 1.263 . S
N139 C143 1.389 . S
N140 C141 1.358 . S
N140 C142 1.400 . S
C141 N139 1.263 . S
C141 N140 1.358 . S
C141 H147 0.930 . S
C142 N140 1.400 . S
C142 C143 1.351 . S
C142 H159 0.930 . S
C143 N139 1.389 . S
C143 C142 1.351 . S
C143 H148 0.930 . S
O144 Cu138 1.974 . S
O144 C154 1.282 . S
C145 O146 1.261 . S
C145 O158 1.251 . S
O146 C145 1.261 . S
H147 C141 0.930 . S
H148 C143 0.930 . S
N149 Cu138 1.985 . S
N149 C151 1.335 . S
N149 C152 1.390 . S
N150 C151 1.345 . S
N150 C153 1.336 . S
C151 N149 1.335 . S
C151 N150 1.345 . S
C151 H156 0.930 . S
C152 N149 1.390 . S
C152 C153 1.346 . S
C152 H157 0.930 . S
C153 N150 1.336 . S
C153 C152 1.346 . S
C153 H160 0.929 . S
C154 O144 1.282 . S
C154 O155 1.216 . S
O155 C154 1.216 . S
H156 C151 0.930 . S
H157 C152 0.930 . S
O158 Cu138 1.959 . S
O158 C145 1.251 . S
H159 C142 0.930 . S
H160 C153 0.929 . S
Cu161 N162 1.999 . S
Cu161 O167 1.974 . S
Cu161 N172 1.985 . S
Cu161 O181 1.959 . S
N162 Cu161 1.999 . S
N162 C164 1.263 . S
N162 C166 1.389 . S
N163 C164 1.358 . S
N163 C165 1.400 . S
C164 N162 1.263 . S
C164 N163 1.358 . S
C164 H170 0.930 . S
C165 N163 1.400 . S
C165 C166 1.351 . S
C165 H182 0.930 . S
C166 N162 1.389 . S
C166 C165 1.351 . S
C166 H171 0.930 . S
O167 Cu161 1.974 . S
O167 C177 1.282 . S
C168 O169 1.261 . S
C168 O181 1.251 . S
O169 C168 1.261 . S
H170 C164 0.930 . S
H171 C166 0.930 . S
N172 Cu161 1.985 . S
N172 C174 1.335 . S
N172 C175 1.390 . S
N173 C174 1.345 . S
N173 C176 1.336 . S
C174 N172 1.335 . S
C174 N173 1.345 . S
C174 H179 0.930 . S
C175 N172 1.390 . S
C175 C176 1.346 . S
C175 H180 0.930 . S
C176 N173 1.336 . S
C176 C175 1.346 . S
C176 H183 0.929 . S
C177 O167 1.282 . S
C177 O178 1.216 . S
O178 C177 1.216 . S
H179 C174 0.930 . S
H180 C175 0.930 . S
O181 Cu161 1.959 . S
O181 C168 1.251 . S
H182 C165 0.930 . S
H183 C176 0.929 . S
Cu184 N185 1.999 . S
Cu184 O190 1.974 . S
Cu184 N195 1.985 . S
Cu184 O204 1.959 . S
N185 Cu184 1.999 . S
N185 C187 1.263 . S
N185 C189 1.389 . S
N186 C187 1.358 . S
N186 C188 1.400 . S
C187 N185 1.263 . S
C187 N186 1.358 . S
C187 H193 0.930 . S
C188 N186 1.400 . S
C188 C189 1.351 . S
C188 H205 0.930 . S
C189 N185 1.389 . S
C189 C188 1.351 . S
C189 H194 0.930 . S
O190 Cu184 1.974 . S
O190 C200 1.282 . S
C191 O192 1.261 . S
C191 O204 1.251 . S
O192 C191 1.261 . S
H193 C187 0.930 . S
H194 C189 0.930 . S
N195 Cu184 1.985 . S
N195 C197 1.335 . S
N195 C198 1.390 . S
N196 C197 1.345 . S
N196 C199 1.336 . S
C197 N195 1.335 . S
C197 N196 1.345 . S
C197 H202 0.930 . S
C198 N195 1.390 . S
C198 C199 1.346 . S
C198 H203 0.930 . S
C199 N196 1.336 . S
C199 C198 1.346 . S
C199 H206 0.929 . S
C200 O190 1.282 . S
C200 O201 1.216 . S
O201 C200 1.216 . S
H202 C197 0.930 . S
H203 C198 0.930 . S
O204 Cu184 1.959 . S
O204 C191 1.251 . S
H205 C188 0.930 . S
H206 C199 0.929 . S
Cu207 N208 1.999 . S
Cu207 O213 1.974 . S
Cu207 N218 1.985 . S
Cu207 O227 1.959 . S
N208 Cu207 1.999 . S
N208 C210 1.263 . S
N208 C212 1.389 . S
N209 C210 1.358 . S
N209 C211 1.400 . S
C210 N208 1.263 . S
C210 N209 1.358 . S
C210 H216 0.930 . S
C211 N209 1.400 . S
C211 C212 1.351 . S
C211 H228 0.930 . S
C212 N208 1.389 . S
C212 C211 1.351 . S
C212 H217 0.930 . S
O213 Cu207 1.974 . S
O213 C223 1.282 . S
C214 O215 1.261 . S
C214 O227 1.251 . S
O215 C214 1.261 . S
H216 C210 0.930 . S
H217 C212 0.930 . S
N218 Cu207 1.985 . S
N218 C220 1.335 . S
N218 C221 1.390 . S
N219 C220 1.345 . S
N219 C222 1.336 . S
C220 N218 1.335 . S
C220 N219 1.345 . S
C220 H225 0.930 . S
C221 N218 1.390 . S
C221 C222 1.346 . S
C221 H226 0.930 . S
C222 N219 1.336 . S
C222 C221 1.346 . S
C222 H229 0.929 . S
C223 O213 1.282 . S
C223 O224 1.216 . S
O224 C223 1.216 . S
H225 C220 0.930 . S
H226 C221 0.930 . S
O227 Cu207 1.959 . S
O227 C214 1.251 . S
H228 C211 0.930 . S
H229 C222 0.929 . S
Cu230 N231 1.999 . S
Cu230 O236 1.974 . S
Cu230 N241 1.985 . S
Cu230 O250 1.959 . S
N231 Cu230 1.999 . S
N231 C233 1.263 . S
N231 C235 1.389 . S
N232 C233 1.358 . S
N232 C234 1.400 . S
C233 N231 1.263 . S
C233 N232 1.358 . S
C233 H239 0.930 . S
C234 N232 1.400 . S
C234 C235 1.351 . S
C234 H251 0.930 . S
C235 N231 1.389 . S
C235 C234 1.351 . S
C235 H240 0.930 . S
O236 Cu230 1.974 . S
O236 C246 1.282 . S
C237 O238 1.261 . S
C237 O250 1.251 . S
O238 C237 1.261 . S
H239 C233 0.930 . S
H240 C235 0.930 . S
N241 Cu230 1.985 . S
N241 C243 1.335 . S
N241 C244 1.390 . S
N242 C243 1.345 . S
N242 C245 1.336 . S
C243 N241 1.335 . S
C243 N242 1.345 . S
C243 H248 0.930 . S
C244 N241 1.390 . S
C244 C245 1.346 . S
C244 H249 0.930 . S
C245 N242 1.336 . S
C245 C244 1.346 . S
C245 H252 0.929 . S
C246 O236 1.282 . S
C246 O247 1.216 . S
O247 C246 1.216 . S
H248 C243 0.930 . S
H249 C244 0.930 . S
O250 Cu230 1.959 . S
O250 C237 1.251 . S
H251 C234 0.930 . S
H252 C245 0.929 . S
Cu253 N254 1.999 . S
Cu253 O259 1.974 . S
Cu253 N264 1.985 . S
Cu253 O273 1.959 . S
N254 Cu253 1.999 . S
N254 C256 1.263 . S
N254 C258 1.389 . S
N255 C256 1.358 . S
N255 C257 1.400 . S
C256 N254 1.263 . S
C256 N255 1.358 . S
C256 H262 0.930 . S
C257 N255 1.400 . S
C257 C258 1.351 . S
C257 H274 0.930 . S
C258 N254 1.389 . S
C258 C257 1.351 . S
C258 H263 0.930 . S
O259 Cu253 1.974 . S
O259 C269 1.282 . S
C260 O261 1.261 . S
C260 O273 1.251 . S
O261 C260 1.261 . S
H262 C256 0.930 . S
H263 C258 0.930 . S
N264 Cu253 1.985 . S
N264 C266 1.335 . S
N264 C267 1.390 . S
N265 C266 1.345 . S
N265 C268 1.336 . S
C266 N264 1.335 . S
C266 N265 1.345 . S
C266 H271 0.930 . S
C267 N264 1.390 . S
C267 C268 1.346 . S
C267 H272 0.930 . S
C268 N265 1.336 . S
C268 C267 1.346 . S
C268 H275 0.929 . S
C269 O259 1.282 . S
C269 O270 1.216 . S
O270 C269 1.216 . S
H271 C266 0.930 . S
H272 C267 0.930 . S
O273 Cu253 1.959 . S
O273 C260 1.251 . S
H274 C257 0.930 . S
H275 C268 0.929 . S
Cu276 N277 1.999 . S
Cu276 O282 1.974 . S
Cu276 N287 1.985 . S
Cu276 O296 1.959 . S
N277 Cu276 1.999 . S
N277 C279 1.263 . S
N277 C281 1.389 . S
N278 C279 1.358 . S
N278 C280 1.400 . S
C279 N277 1.263 . S
C279 N278 1.358 . S
C279 H285 0.930 . S
C280 N278 1.400 . S
C280 C281 1.351 . S
C280 H297 0.930 . S
C281 N277 1.389 . S
C281 C280 1.351 . S
C281 H286 0.930 . S
O282 Cu276 1.974 . S
O282 C292 1.282 . S
C283 O284 1.261 . S
C283 O296 1.251 . S
O284 C283 1.261 . S
H285 C279 0.930 . S
H286 C281 0.930 . S
N287 Cu276 1.985 . S
N287 C289 1.335 . S
N287 C290 1.390 . S
N288 C289 1.345 . S
N288 C291 1.336 . S
C289 N287 1.335 . S
C289 N288 1.345 . S
C289 H294 0.930 . S
C290 N287 1.390 . S
C290 C291 1.346 . S
C290 H295 0.930 . S
C291 N288 1.336 . S
C291 C290 1.346 . S
C291 H298 0.929 . S
C292 O282 1.282 . S
C292 O293 1.216 . S
O293 C292 1.216 . S
H294 C289 0.930 . S
H295 C290 0.930 . S
O296 Cu276 1.959 . S
O296 C283 1.251 . S
H297 C280 0.930 . S
H298 C291 0.929 . S
Cu299 N300 1.999 . S
Cu299 O305 1.974 . S
Cu299 N310 1.985 . S
Cu299 O319 1.959 . S
N300 Cu299 1.999 . S
N300 C302 1.263 . S
N300 C304 1.389 . S
N301 C302 1.358 . S
N301 C303 1.400 . S
C302 N300 1.263 . S
C302 N301 1.358 . S
C302 H308 0.930 . S
C303 N301 1.400 . S
C303 C304 1.351 . S
C303 H320 0.930 . S
C304 N300 1.389 . S
C304 C303 1.351 . S
C304 H309 0.930 . S
O305 Cu299 1.974 . S
O305 C315 1.282 . S
C306 O307 1.261 . S
C306 O319 1.251 . S
O307 C306 1.261 . S
H308 C302 0.930 . S
H309 C304 0.930 . S
N310 Cu299 1.985 . S
N310 C312 1.335 . S
N310 C313 1.390 . S
N311 C312 1.345 . S
N311 C314 1.336 . S
C312 N310 1.335 . S
C312 N311 1.345 . S
C312 H317 0.930 . S
C313 N310 1.390 . S
C313 C314 1.346 . S
C313 H318 0.930 . S
C314 N311 1.336 . S
C314 C313 1.346 . S
C314 H321 0.929 . S
C315 O305 1.282 . S
C315 O316 1.216 . S
O316 C315 1.216 . S
H317 C312 0.930 . S
H318 C313 0.930 . S
O319 Cu299 1.959 . S
O319 C306 1.251 . S
H320 C303 0.930 . S
H321 C314 0.929 . S
Cu322 N323 1.999 . S
Cu322 O328 1.974 . S
Cu322 N333 1.985 . S
Cu322 O342 1.959 . S
N323 Cu322 1.999 . S
N323 C325 1.263 . S
N323 C327 1.389 . S
N324 C325 1.358 . S
N324 C326 1.400 . S
C325 N323 1.263 . S
C325 N324 1.358 . S
C325 H331 0.930 . S
C326 N324 1.400 . S
C326 C327 1.351 . S
C326 H343 0.930 . S
C327 N323 1.389 . S
C327 C326 1.351 . S
C327 H332 0.930 . S
O328 Cu322 1.974 . S
O328 C338 1.282 . S
C329 O330 1.261 . S
C329 O342 1.251 . S
O330 C329 1.261 . S
H331 C325 0.930 . S
H332 C327 0.930 . S
N333 Cu322 1.985 . S
N333 C335 1.335 . S
N333 C336 1.390 . S
N334 C335 1.345 . S
N334 C337 1.336 . S
C335 N333 1.335 . S
C335 N334 1.345 . S
C335 H340 0.930 . S
C336 N333 1.390 . S
C336 C337 1.346 . S
C336 H341 0.930 . S
C337 N334 1.336 . S
C337 C336 1.346 . S
C337 H344 0.929 . S
C338 O328 1.282 . S
C338 O339 1.216 . S
O339 C338 1.216 . S
H340 C335 0.930 . S
H341 C336 0.930 . S
O342 Cu322 1.959 . S
O342 C329 1.251 . S
H343 C326 0.930 . S
H344 C337 0.929 . S
Cu345 N346 1.999 . S
Cu345 O351 1.974 . S
Cu345 N356 1.985 . S
Cu345 O365 1.959 . S
N346 Cu345 1.999 . S
N346 C348 1.263 . S
N346 C350 1.389 . S
N347 C348 1.358 . S
N347 C349 1.400 . S
C348 N346 1.263 . S
C348 N347 1.358 . S
C348 H354 0.930 . S
C349 N347 1.400 . S
C349 C350 1.351 . S
C349 H366 0.930 . S
C350 N346 1.389 . S
C350 C349 1.351 . S
C350 H355 0.930 . S
O351 Cu345 1.974 . S
O351 C361 1.282 . S
C352 O353 1.261 . S
C352 O365 1.251 . S
O353 C352 1.261 . S
H354 C348 0.930 . S
H355 C350 0.930 . S
N356 Cu345 1.985 . S
N356 C358 1.335 . S
N356 C359 1.390 . S
N357 C358 1.345 . S
N357 C360 1.336 . S
C358 N356 1.335 . S
C358 N357 1.345 . S
C358 H363 0.930 . S
C359 N356 1.390 . S
C359 C360 1.346 . S
C359 H364 0.930 . S
C360 N357 1.336 . S
C360 C359 1.346 . S
C360 H367 0.929 . S
C361 O351 1.282 . S
C361 O362 1.216 . S
O362 C361 1.216 . S
H363 C358 0.930 . S
H364 C359 0.930 . S
O365 Cu345 1.959 . S
O365 C352 1.251 . S
H366 C349 0.930 . S
H367 C360 0.929 . S
H368 C380 0.930 . S
H369 C382 0.930 . S
H370 C383 0.930 . S
H371 C387 0.959 . S
H372 C387 0.959 . S
H373 C387 0.961 . S
H374 C388 0.960 . S
H375 C388 0.961 . S
H376 C388 0.959 . S
H377 C391 0.929 . S
H378 C392 0.931 . S
H379 C394 0.930 . S
C380 H368 0.930 . S
C380 C381 1.399 . S
C380 C385 1.399 . S
C381 C380 1.399 . S
C381 C382 1.376 . S
C382 H369 0.930 . S
C382 C381 1.376 . S
C382 C383 1.388 . S
C383 H370 0.930 . S
C383 C382 1.388 . S
C383 C384 1.390 . S
C384 C383 1.390 . S
C384 C385 1.394 . S
C384 C390 1.465 . S
C385 C380 1.399 . S
C385 C384 1.394 . S
C385 C386 1.516 . S
C386 C385 1.516 . S
C386 C387 1.502 . S
C386 C388 1.561 . S
C386 C389 1.526 . S
C387 H371 0.959 . S
C387 H372 0.959 . S
C387 H373 0.961 . S
C387 C386 1.502 . S
C388 H374 0.960 . S
C388 H375 0.961 . S
C388 H376 0.959 . S
C388 C386 1.561 . S
C389 C386 1.526 . S
C389 C390 1.396 . S
C389 C394 1.390 . S
C390 C384 1.465 . S
C390 C389 1.396 . S
C390 C391 1.399 . S
C391 H377 0.929 . S
C391 C390 1.399 . S
C391 C392 1.385 . S
C392 H378 0.931 . S
C392 C391 1.385 . S
C392 C393 1.389 . S
C393 C392 1.389 . S
C393 C394 1.387 . S
C394 H379 0.930 . S
C394 C389 1.390 . S
C394 C393 1.387 . S
H395 C407 0.930 . S
H396 C409 0.930 . S
H397 C410 0.930 . S
H398 C414 0.959 . S
H399 C414 0.959 . S
H400 C414 0.961 . S
H401 C415 0.960 . S
H402 C415 0.961 . S
H403 C415 0.959 . S
H404 C418 0.929 . S
H405 C419 0.931 . S
H406 C421 0.930 . S
C407 H395 0.930 . S
C407 C408 1.399 . S
C407 C412 1.399 . S
C408 C407 1.399 . S
C408 C409 1.376 . S
C409 H396 0.930 . S
C409 C408 1.376 . S
C409 C410 1.388 . S
C410 H397 0.930 . S
C410 C409 1.388 . S
C410 C411 1.390 . S
C411 C410 1.390 . S
C411 C412 1.394 . S
C411 C417 1.465 . S
C412 C407 1.399 . S
C412 C411 1.394 . S
C412 C413 1.516 . S
C413 C412 1.516 . S
C413 C414 1.502 . S
C413 C415 1.561 . S
C413 C416 1.526 . S
C414 H398 0.959 . S
C414 H399 0.959 . S
C414 H400 0.961 . S
C414 C413 1.502 . S
C415 H401 0.960 . S
C415 H402 0.961 . S
C415 H403 0.959 . S
C415 C413 1.561 . S
C416 C413 1.526 . S
C416 C417 1.396 . S
C416 C421 1.390 . S
C417 C411 1.465 . S
C417 C416 1.396 . S
C417 C418 1.399 . S
C418 H404 0.929 . S
C418 C417 1.399 . S
C418 C419 1.385 . S
C419 H405 0.931 . S
C419 C418 1.385 . S
C419 C420 1.389 . S
C420 C419 1.389 . S
C420 C421 1.387 . S
C421 H406 0.930 . S
C421 C416 1.390 . S
C421 C420 1.387 . S
H422 C434 0.930 . S
H423 C436 0.930 . S
H424 C437 0.930 . S
H425 C441 0.959 . S
H426 C441 0.959 . S
H427 C441 0.961 . S
H428 C442 0.960 . S
H429 C442 0.961 . S
H430 C442 0.959 . S
H431 C445 0.929 . S
H432 C446 0.931 . S
H433 C448 0.930 . S
C434 H422 0.930 . S
C434 C435 1.399 . S
C434 C439 1.399 . S
C435 C434 1.399 . S
C435 C436 1.376 . S
C436 H423 0.930 . S
C436 C435 1.376 . S
C436 C437 1.388 . S
C437 H424 0.930 . S
C437 C436 1.388 . S
C437 C438 1.390 . S
C438 C437 1.390 . S
C438 C439 1.394 . S
C438 C444 1.465 . S
C439 C434 1.399 . S
C439 C438 1.394 . S
C439 C440 1.516 . S
C440 C439 1.516 . S
C440 C441 1.502 . S
C440 C442 1.561 . S
C440 C443 1.526 . S
C441 H425 0.959 . S
C441 H426 0.959 . S
C441 H427 0.961 . S
C441 C440 1.502 . S
C442 H428 0.960 . S
C442 H429 0.961 . S
C442 H430 0.959 . S
C442 C440 1.561 . S
C443 C440 1.526 . S
C443 C444 1.396 . S
C443 C448 1.390 . S
C444 C438 1.465 . S
C444 C443 1.396 . S
C444 C445 1.399 . S
C445 H431 0.929 . S
C445 C444 1.399 . S
C445 C446 1.385 . S
C446 H432 0.931 . S
C446 C445 1.385 . S
C446 C447 1.389 . S
C447 C446 1.389 . S
C447 C448 1.387 . S
C448 H433 0.930 . S
C448 C443 1.390 . S
C448 C447 1.387 . S
H449 C461 0.930 . S
H450 C463 0.930 . S
H451 C464 0.930 . S
H452 C468 0.959 . S
H453 C468 0.959 . S
H454 C468 0.961 . S
H455 C469 0.960 . S
H456 C469 0.961 . S
H457 C469 0.959 . S
H458 C472 0.929 . S
H459 C473 0.931 . S
H460 C475 0.930 . S
C461 H449 0.930 . S
C461 C462 1.399 . S
C461 C466 1.399 . S
C462 C461 1.399 . S
C462 C463 1.376 . S
C463 H450 0.930 . S
C463 C462 1.376 . S
C463 C464 1.388 . S
C464 H451 0.930 . S
C464 C463 1.388 . S
C464 C465 1.390 . S
C465 C464 1.390 . S
C465 C466 1.394 . S
C465 C471 1.465 . S
C466 C461 1.399 . S
C466 C465 1.394 . S
C466 C467 1.516 . S
C467 C466 1.516 . S
C467 C468 1.502 . S
C467 C469 1.561 . S
C467 C470 1.526 . S
C468 H452 0.959 . S
C468 H453 0.959 . S
C468 H454 0.961 . S
C468 C467 1.502 . S
C469 H455 0.960 . S
C469 H456 0.961 . S
C469 H457 0.959 . S
C469 C467 1.561 . S
C470 C467 1.526 . S
C470 C471 1.396 . S
C470 C475 1.390 . S
C471 C465 1.465 . S
C471 C470 1.396 . S
C471 C472 1.399 . S
C472 H458 0.929 . S
C472 C471 1.399 . S
C472 C473 1.385 . S
C473 H459 0.931 . S
C473 C472 1.385 . S
C473 C474 1.389 . S
C474 C473 1.389 . S
C474 C475 1.387 . S
C475 H460 0.930 . S
C475 C470 1.390 . S
C475 C474 1.387 . S
H476 C488 0.930 . S
H477 C490 0.930 . S
H478 C491 0.930 . S
H479 C495 0.959 . S
H480 C495 0.959 . S
H481 C495 0.961 . S
H482 C496 0.960 . S
H483 C496 0.961 . S
H484 C496 0.959 . S
H485 C499 0.929 . S
H486 C500 0.931 . S
H487 C502 0.930 . S
C488 H476 0.930 . S
C488 C489 1.399 . S
C488 C493 1.399 . S
C489 C488 1.399 . S
C489 C490 1.376 . S
C490 H477 0.930 . S
C490 C489 1.376 . S
C490 C491 1.388 . S
C491 H478 0.930 . S
C491 C490 1.388 . S
C491 C492 1.390 . S
C492 C491 1.390 . S
C492 C493 1.394 . S
C492 C498 1.465 . S
C493 C488 1.399 . S
C493 C492 1.394 . S
C493 C494 1.516 . S
C494 C493 1.516 . S
C494 C495 1.502 . S
C494 C496 1.561 . S
C494 C497 1.526 . S
C495 H479 0.959 . S
C495 H480 0.959 . S
C495 H481 0.961 . S
C495 C494 1.502 . S
C496 H482 0.960 . S
C496 H483 0.961 . S
C496 H484 0.959 . S
C496 C494 1.561 . S
C497 C494 1.526 . S
C497 C498 1.396 . S
C497 C502 1.390 . S
C498 C492 1.465 . S
C498 C497 1.396 . S
C498 C499 1.399 . S
C499 H485 0.929 . S
C499 C498 1.399 . S
C499 C500 1.385 . S
C500 H486 0.931 . S
C500 C499 1.385 . S
C500 C501 1.389 . S
C501 C500 1.389 . S
C501 C502 1.387 . S
C502 H487 0.930 . S
C502 C497 1.390 . S
C502 C501 1.387 . S
H503 C515 0.930 . S
H504 C517 0.930 . S
H505 C518 0.930 . S
H506 C522 0.959 . S
H507 C522 0.959 . S
H508 C522 0.961 . S
H509 C523 0.960 . S
H510 C523 0.961 . S
H511 C523 0.959 . S
H512 C526 0.929 . S
H513 C527 0.931 . S
H514 C529 0.930 . S
C515 H503 0.930 . S
C515 C516 1.399 . S
C515 C520 1.399 . S
C516 C515 1.399 . S
C516 C517 1.376 . S
C517 H504 0.930 . S
C517 C516 1.376 . S
C517 C518 1.388 . S
C518 H505 0.930 . S
C518 C517 1.388 . S
C518 C519 1.390 . S
C519 C518 1.390 . S
C519 C520 1.394 . S
C519 C525 1.465 . S
C520 C515 1.399 . S
C520 C519 1.394 . S
C520 C521 1.516 . S
C521 C520 1.516 . S
C521 C522 1.502 . S
C521 C523 1.561 . S
C521 C524 1.526 . S
C522 H506 0.959 . S
C522 H507 0.959 . S
C522 H508 0.961 . S
C522 C521 1.502 . S
C523 H509 0.960 . S
C523 H510 0.961 . S
C523 H511 0.959 . S
C523 C521 1.561 . S
C524 C521 1.526 . S
C524 C525 1.396 . S
C524 C529 1.390 . S
C525 C519 1.465 . S
C525 C524 1.396 . S
C525 C526 1.399 . S
C526 H512 0.929 . S
C526 C525 1.399 . S
C526 C527 1.385 . S
C527 H513 0.931 . S
C527 C526 1.385 . S
C527 C528 1.389 . S
C528 C527 1.389 . S
C528 C529 1.387 . S
C529 H514 0.930 . S
C529 C524 1.390 . S
C529 C528 1.387 . S
H530 C542 0.930 . S
H531 C544 0.930 . S
H532 C545 0.930 . S
H533 C549 0.959 . S
H534 C549 0.959 . S
H535 C549 0.961 . S
H536 C550 0.960 . S
H537 C550 0.961 . S
H538 C550 0.959 . S
H539 C553 0.929 . S
H540 C554 0.931 . S
H541 C556 0.930 . S
C542 H530 0.930 . S
C542 C543 1.399 . S
C542 C547 1.399 . S
C543 C542 1.399 . S
C543 C544 1.376 . S
C544 H531 0.930 . S
C544 C543 1.376 . S
C544 C545 1.388 . S
C545 H532 0.930 . S
C545 C544 1.388 . S
C545 C546 1.390 . S
C546 C545 1.390 . S
C546 C547 1.394 . S
C546 C552 1.465 . S
C547 C542 1.399 . S
C547 C546 1.394 . S
C547 C548 1.516 . S
C548 C547 1.516 . S
C548 C549 1.502 . S
C548 C550 1.561 . S
C548 C551 1.526 . S
C549 H533 0.959 . S
C549 H534 0.959 . S
C549 H535 0.961 . S
C549 C548 1.502 . S
C550 H536 0.960 . S
C550 H537 0.961 . S
C550 H538 0.959 . S
C550 C548 1.561 . S
C551 C548 1.526 . S
C551 C552 1.396 . S
C551 C556 1.390 . S
C552 C546 1.465 . S
C552 C551 1.396 . S
C552 C553 1.399 . S
C553 H539 0.929 . S
C553 C552 1.399 . S
C553 C554 1.385 . S
C554 H540 0.931 . S
C554 C553 1.385 . S
C554 C555 1.389 . S
C555 C554 1.389 . S
C555 C556 1.387 . S
C556 H541 0.930 . S
C556 C551 1.390 . S
C556 C555 1.387 . S
H557 C569 0.930 . S
H558 C571 0.930 . S
H559 C572 0.930 . S
H560 C576 0.959 . S
H561 C576 0.959 . S
H562 C576 0.961 . S
H563 C577 0.960 . S
H564 C577 0.961 . S
H565 C577 0.959 . S
H566 C580 0.929 . S
H567 C581 0.931 . S
H568 C583 0.930 . S
C569 H557 0.930 . S
C569 C570 1.399 . S
C569 C574 1.399 . S
C570 C569 1.399 . S
C570 C571 1.376 . S
C571 H558 0.930 . S
C571 C570 1.376 . S
C571 C572 1.388 . S
C572 H559 0.930 . S
C572 C571 1.388 . S
C572 C573 1.390 . S
C573 C572 1.390 . S
C573 C574 1.394 . S
C573 C579 1.465 . S
C574 C569 1.399 . S
C574 C573 1.394 . S
C574 C575 1.516 . S
C575 C574 1.516 . S
C575 C576 1.502 . S
C575 C577 1.561 . S
C575 C578 1.526 . S
C576 H560 0.959 . S
C576 H561 0.959 . S
C576 H562 0.961 . S
C576 C575 1.502 . S
C577 H563 0.960 . S
C577 H564 0.961 . S
C577 H565 0.959 . S
C577 C575 1.561 . S
C578 C575 1.526 . S
C578 C579 1.396 . S
C578 C583 1.390 . S
C579 C573 1.465 . S
C579 C578 1.396 . S
C579 C580 1.399 . S
C580 H566 0.929 . S
C580 C579 1.399 . S
C580 C581 1.385 . S
C581 H567 0.931 . S
C581 C580 1.385 . S
C581 C582 1.389 . S
C582 C581 1.389 . S
C582 C583 1.387 . S
C583 H568 0.930 . S
C583 C578 1.390 . S
C583 C582 1.387 . S
H584 C596 0.930 1_655 S
H585 C598 0.930 . S
H586 C599 0.930 . S
H587 C603 0.959 1_655 S
H588 C603 0.959 . S
H589 C603 0.961 1_655 S
H590 C604 0.960 . S
H591 C604 0.961 . S
H592 C604 0.959 . S
H593 C607 0.929 . S
H594 C608 0.931 . S
H595 C610 0.930 . S
C596 H584 0.930 1_455 S
C596 C597 1.403 . S
C596 C601 1.399 . S
C597 C596 1.403 . S
C597 C598 1.386 . S
C598 H585 0.930 . S
C598 C597 1.386 . S
C598 C599 1.388 . S
C599 H586 0.930 . S
C599 C598 1.388 . S
C599 C600 1.390 . S
C600 C599 1.390 . S
C600 C601 1.394 . S
C600 C606 1.465 . S
C601 C596 1.399 . S
C601 C600 1.394 . S
C601 C602 1.516 . S
C602 C601 1.516 . S
C602 C603 1.502 . S
C602 C604 1.561 . S
C602 C605 1.526 . S
C603 H587 0.959 1_455 S
C603 H588 0.959 . S
C603 H589 0.961 1_455 S
C603 C602 1.502 . S
C604 H590 0.960 . S
C604 H591 0.961 . S
C604 H592 0.959 . S
C604 C602 1.561 . S
C605 C602 1.526 . S
C605 C606 1.396 . S
C605 C610 1.390 . S
C606 C600 1.465 . S
C606 C605 1.396 . S
C606 C607 1.399 . S
C607 H593 0.929 . S
C607 C606 1.399 . S
C607 C608 1.385 . S
C608 H594 0.931 . S
C608 C607 1.385 . S
C608 C609 1.389 . S
C609 C608 1.389 . S
C609 C610 1.387 . S
C610 H595 0.930 . S
C610 C605 1.390 . S
C610 C609 1.387 . S
H611 C623 0.930 . S
H612 C625 0.930 . S
H613 C626 0.930 1_565 S
H614 C630 0.959 . S
H615 C630 0.959 . S
H616 C630 0.961 . S
H617 C631 0.960 . S
H618 C631 0.961 . S
H619 C631 0.959 . S
H620 C634 0.929 . S
H621 C635 0.931 . S
H622 C637 0.930 . S
C623 H611 0.930 . S
C623 C624 1.399 1_455 S
C623 C628 1.399 . S
C624 C623 1.399 1_655 S
C624 C625 1.376 . S
C625 H612 0.930 . S
C625 C624 1.376 . S
C625 C626 1.388 . S
C626 H613 0.930 1_545 S
C626 C625 1.388 . S
C626 C627 1.390 1_655 S
C627 C626 1.390 1_455 S
C627 C628 1.394 . S
C627 C633 1.482 . S
C628 C623 1.399 . S
C628 C627 1.394 . S
C628 C629 1.516 . S
C629 C628 1.516 . S
C629 C630 1.502 . S
C629 C631 1.561 . S
C629 C632 1.526 . S
C630 H614 0.959 . S
C630 H615 0.959 . S
C630 H616 0.961 . S
C630 C629 1.502 . S
C631 H617 0.960 . S
C631 H618 0.961 . S
C631 H619 0.959 . S
C631 C629 1.561 . S
C632 C629 1.526 . S
C632 C633 1.416 . S
C632 C637 1.390 . S
C633 C627 1.482 . S
C633 C632 1.416 . S
C633 C634 1.368 1_545 S
C634 H620 0.929 . S
C634 C633 1.368 1_565 S
C634 C635 1.385 . S
C635 H621 0.931 . S
C635 C634 1.385 . S
C635 C636 1.389 . S
C636 C635 1.389 . S
C636 C637 1.387 1_565 S
C637 H622 0.930 . S
C637 C632 1.390 . S
C637 C636 1.387 1_545 S
H638 C650 0.930 . S
H639 C652 0.930 . S
H640 C653 0.930 1_565 S
H641 C657 0.959 . S
H642 C657 0.959 . S
H643 C657 0.961 . S
H644 C658 0.960 . S
H645 C658 0.961 . S
H646 C658 0.959 . S
H647 C661 0.929 . S
H648 C662 0.931 . S
H649 C664 0.930 . S
C650 H638 0.930 . S
C650 C651 1.399 . S
C650 C655 1.399 . S
C651 C650 1.399 . S
C651 C652 1.376 . S
C652 H639 0.930 . S
C652 C651 1.376 . S
C652 C653 1.388 . S
C653 H640 0.930 1_545 S
C653 C652 1.388 . S
C653 C654 1.390 . S
C654 C653 1.390 . S
C654 C655 1.394 . S
C654 C660 1.465 . S
C655 C650 1.399 . S
C655 C654 1.394 . S
C655 C656 1.516 . S
C656 C655 1.516 . S
C656 C657 1.502 . S
C656 C658 1.561 . S
C656 C659 1.526 . S
C657 H641 0.959 . S
C657 H642 0.959 . S
C657 H643 0.961 . S
C657 C656 1.502 . S
C658 H644 0.960 . S
C658 H645 0.961 . S
C658 H646 0.959 . S
C658 C656 1.561 . S
C659 C656 1.526 . S
C659 C660 1.396 . S
C659 C664 1.390 . S
C660 C654 1.465 . S
C660 C659 1.396 . S
C660 C661 1.399 1_545 S
C661 H647 0.929 . S
C661 C660 1.399 1_565 S
C661 C662 1.385 . S
C662 H648 0.931 . S
C662 C661 1.385 . S
C662 C663 1.389 . S
C663 C662 1.389 . S
C663 C664 1.387 1_565 S
C664 H649 0.930 . S
C664 C659 1.390 . S
C664 C663 1.387 1_545 S
H665 C677 0.930 . S
H666 C679 0.930 . S
H667 C680 0.930 . S
H668 C684 0.959 . S
H669 C684 0.959 . S
H670 C684 0.961 . S
H671 C685 0.960 . S
H672 C685 0.961 . S
H673 C685 0.959 . S
H674 C688 0.929 . S
H675 C689 0.931 . S
H676 C691 0.930 . S
C677 H665 0.930 . S
C677 C678 1.399 . S
C677 C682 1.399 . S
C678 C677 1.399 . S
C678 C679 1.376 . S
C679 H666 0.930 . S
C679 C678 1.376 . S
C679 C680 1.388 . S
C680 H667 0.930 . S
C680 C679 1.388 . S
C680 C681 1.390 . S
C681 C680 1.390 . S
C681 C682 1.394 . S
C681 C687 1.465 . S
C682 C677 1.399 . S
C682 C681 1.394 . S
C682 C683 1.516 . S
C683 C682 1.516 . S
C683 C684 1.502 . S
C683 C685 1.561 . S
C683 C686 1.526 . S
C684 H668 0.959 . S
C684 H669 0.959 . S
C684 H670 0.961 . S
C684 C683 1.502 . S
C685 H671 0.960 . S
C685 H672 0.961 . S
C685 H673 0.959 . S
C685 C683 1.561 . S
C686 C683 1.526 . S
C686 C687 1.396 . S
C686 C691 1.390 . S
C687 C681 1.465 . S
C687 C686 1.396 . S
C687 C688 1.399 . S
C688 H674 0.929 . S
C688 C687 1.399 . S
C688 C689 1.385 . S
C689 H675 0.931 . S
C689 C688 1.385 . S
C689 C690 1.389 . S
C690 C689 1.389 . S
C690 C691 1.387 . S
C691 H676 0.930 . S
C691 C686 1.390 . S
C691 C690 1.387 . S
H692 C704 0.930 . S
H693 C706 0.930 . S
H694 C707 0.930 . S
H695 C711 0.959 . S
H696 C711 0.959 . S
H697 C711 0.961 . S
H698 C712 0.960 . S
H699 C712 0.961 . S
H700 C712 0.959 . S
H701 C715 0.929 . S
H702 C716 0.931 . S
H703 C718 0.930 . S
C704 H692 0.930 . S
C704 C705 1.399 . S
C704 C709 1.399 . S
C705 C704 1.399 . S
C705 C706 1.376 . S
C706 H693 0.930 . S
C706 C705 1.376 . S
C706 C707 1.388 . S
C707 H694 0.930 . S
C707 C706 1.388 . S
C707 C708 1.390 . S
C708 C707 1.390 . S
C708 C709 1.394 . S
C708 C714 1.465 . S
C709 C704 1.399 . S
C709 C708 1.394 . S
C709 C710 1.516 . S
C710 C709 1.516 . S
C710 C711 1.502 . S
C710 C712 1.561 . S
C710 C713 1.526 . S
C711 H695 0.959 . S
C711 H696 0.959 . S
C711 H697 0.961 . S
C711 C710 1.502 . S
C712 H698 0.960 . S
C712 H699 0.961 . S
C712 H700 0.959 . S
C712 C710 1.561 . S
C713 C710 1.526 . S
C713 C714 1.396 . S
C713 C718 1.390 . S
C714 C708 1.465 . S
C714 C713 1.396 . S
C714 C715 1.399 . S
C715 H701 0.929 . S
C715 C714 1.399 . S
C715 C716 1.385 . S
C716 H702 0.931 . S
C716 C715 1.385 . S
C716 C717 1.389 . S
C717 C716 1.389 . S
C717 C718 1.387 . S
C718 H703 0.930 . S
C718 C713 1.390 . S
C718 C717 1.387 . S
H719 C731 0.932 . S
H720 C733 0.930 . S
H721 C734 0.930 . S
H722 C738 0.959 1_565 S
H723 C738 0.959 . S
H724 C738 0.961 . S
H725 C739 0.960 . S
H726 C739 0.961 . S
H727 C739 0.959 . S
H728 C742 0.929 . S
H729 C743 0.931 . S
H730 C745 0.930 . S
C731 H719 0.932 . S
C731 C732 1.394 1_655 S
C731 C736 1.399 1_565 S
C732 C731 1.394 1_455 S
C732 C733 1.379 . S
C733 H720 0.930 . S
C733 C732 1.379 . S
C733 C734 1.388 . S
C734 H721 0.930 . S
C734 C733 1.388 . S
C734 C735 1.400 1_455 S
C735 C734 1.400 1_655 S
C735 C736 1.390 1_565 S
C735 C741 1.459 1_565 S
C736 C731 1.399 1_545 S
C736 C735 1.390 1_545 S
C736 C737 1.516 . S
C737 C736 1.516 . S
C737 C738 1.502 . S
C737 C739 1.561 . S
C737 C740 1.526 . S
C738 H722 0.959 1_545 S
C738 H723 0.959 . S
C738 H724 0.961 . S
C738 C737 1.502 . S
C739 H725 0.960 . S
C739 H726 0.961 . S
C739 H727 0.959 . S
C739 C737 1.561 . S
C740 C737 1.526 . S
C740 C741 1.396 . S
C740 C745 1.390 . S
C741 C735 1.459 1_545 S
C741 C740 1.396 . S
C741 C742 1.399 . S
C742 H728 0.929 . S
C742 C741 1.399 . S
C742 C743 1.385 . S
C743 H729 0.931 . S
C743 C742 1.385 . S
C743 C744 1.389 . S
C744 C743 1.389 . S
C744 C745 1.387 . S
C745 H730 0.930 . S
C745 C740 1.390 . S
C745 C744 1.387 . S
H746 C758 0.930 . S
H747 C760 0.930 . S
H748 C761 0.930 . S
H749 C765 0.959 . S
H750 C765 0.959 . S
H751 C765 0.961 . S
H752 C766 0.960 . S
H753 C766 0.961 . S
H754 C766 0.959 1_565 S
H755 C769 0.929 . S
H756 C770 0.931 . S
H757 C772 0.930 1_545 S
C758 H746 0.930 . S
C758 C759 1.399 . S
C758 C763 1.399 . S
C759 C758 1.399 . S
C759 C760 1.376 . S
C760 H747 0.930 . S
C760 C759 1.376 . S
C760 C761 1.388 1_545 S
C761 H748 0.930 . S
C761 C760 1.388 1_565 S
C761 C762 1.390 1_565 S
C762 C761 1.390 1_545 S
C762 C763 1.394 . S
C762 C768 1.465 1_545 S
C763 C758 1.399 . S
C763 C762 1.394 . S
C763 C764 1.516 . S
C764 C763 1.516 . S
C764 C765 1.502 . S
C764 C766 1.561 . S
C764 C767 1.526 . S
C765 H749 0.959 . S
C765 H750 0.959 . S
C765 H751 0.961 . S
C765 C764 1.502 . S
C766 H752 0.960 . S
C766 H753 0.961 . S
C766 H754 0.959 1_545 S
C766 C764 1.561 . S
C767 C764 1.526 . S
C767 C768 1.396 1_545 S
C767 C772 1.390 1_545 S
C768 C762 1.465 1_565 S
C768 C767 1.396 1_565 S
C768 C769 1.399 . S
C769 H755 0.929 . S
C769 C768 1.399 . S
C769 C770 1.385 . S
C770 H756 0.931 . S
C770 C769 1.385 . S
C770 C771 1.389 . S
C771 C770 1.389 . S
C771 C772 1.387 . S
C772 H757 0.930 1_565 S
C772 C767 1.390 1_565 S
C772 C771 1.387 . S
H773 C785 0.930 . S
H774 C787 0.930 . S
H775 C788 0.930 . S
H776 C792 0.959 . S
H777 C792 0.959 . S
H778 C792 0.961 . S
H779 C793 0.960 . S
H780 C793 0.961 . S
H781 C793 0.959 . S
H782 C796 0.929 . S
H783 C797 0.931 . S
H784 C799 0.930 . S
C785 H773 0.930 . S
C785 C786 1.399 . S
C785 C790 1.399 . S
C786 C785 1.399 . S
C786 C787 1.376 . S
C787 H774 0.930 . S
C787 C786 1.376 . S
C787 C788 1.388 . S
C788 H775 0.930 . S
C788 C787 1.388 . S
C788 C789 1.390 . S
C789 C788 1.390 . S
C789 C790 1.394 . S
C789 C795 1.465 . S
C790 C785 1.399 . S
C790 C789 1.394 . S
C790 C791 1.516 . S
C791 C790 1.516 . S
C791 C792 1.502 . S
C791 C793 1.561 . S
C791 C794 1.526 . S
C792 H776 0.959 . S
C792 H777 0.959 . S
C792 H778 0.961 . S
C792 C791 1.502 . S
C793 H779 0.960 . S
C793 H780 0.961 . S
C793 H781 0.959 . S
C793 C791 1.561 . S
C794 C791 1.526 . S
C794 C795 1.396 . S
C794 C799 1.390 . S
C795 C789 1.465 . S
C795 C794 1.396 . S
C795 C796 1.399 . S
C796 H782 0.929 . S
C796 C795 1.399 . S
C796 C797 1.385 . S
C797 H783 0.931 . S
C797 C796 1.385 . S
C797 C798 1.389 . S
C798 C797 1.389 . S
C798 C799 1.387 . S
C799 H784 0.930 . S
C799 C794 1.390 . S
C799 C798 1.387 . S
H800 C812 0.930 . S
H801 C814 0.930 . S
H802 C815 0.930 . S
H803 C819 0.959 . S
H804 C819 0.959 . S
H805 C819 0.961 . S
H806 C820 0.960 . S
H807 C820 0.961 . S
H808 C820 0.959 . S
H809 C823 0.929 . S
H810 C824 0.931 . S
H811 C826 0.930 . S
C812 H800 0.930 . S
C812 C813 1.399 . S
C812 C817 1.399 . S
C813 C812 1.399 . S
C813 C814 1.376 . S
C814 H801 0.930 . S
C814 C813 1.376 . S
C814 C815 1.388 . S
C815 H802 0.930 . S
C815 C814 1.388 . S
C815 C816 1.390 . S
C816 C815 1.390 . S
C816 C817 1.394 . S
C816 C822 1.465 . S
C817 C812 1.399 . S
C817 C816 1.394 . S
C817 C818 1.516 . S
C818 C817 1.516 . S
C818 C819 1.502 . S
C818 C820 1.561 . S
C818 C821 1.526 . S
C819 H803 0.959 . S
C819 H804 0.959 . S
C819 H805 0.961 . S
C819 C818 1.502 . S
C820 H806 0.960 . S
C820 H807 0.961 . S
C820 H808 0.959 . S
C820 C818 1.561 . S
C821 C818 1.526 . S
C821 C822 1.396 . S
C821 C826 1.390 . S
C822 C816 1.465 . S
C822 C821 1.396 . S
C822 C823 1.399 . S
C823 H809 0.929 . S
C823 C822 1.399 . S
C823 C824 1.385 . S
C824 H810 0.931 . S
C824 C823 1.385 . S
C824 C825 1.389 . S
C825 C824 1.389 . S
C825 C826 1.387 . S
C826 H811 0.930 . S
C826 C821 1.390 . S
C826 C825 1.387 . S
H827 C839 0.930 . S
H828 C841 0.930 . S
H829 C842 0.930 . S
H830 C846 0.959 . S
H831 C846 0.959 . S
H832 C846 0.961 . S
H833 C847 0.960 . S
H834 C847 0.961 . S
H835 C847 0.959 . S
H836 C850 0.929 . S
H837 C851 0.931 . S
H838 C853 0.930 . S
C839 H827 0.930 . S
C839 C840 1.399 . S
C839 C844 1.399 . S
C840 C839 1.399 . S
C840 C841 1.376 . S
C841 H828 0.930 . S
C841 C840 1.376 . S
C841 C842 1.388 . S
C842 H829 0.930 . S
C842 C841 1.388 . S
C842 C843 1.390 . S
C843 C842 1.390 . S
C843 C844 1.394 . S
C843 C849 1.465 . S
C844 C839 1.399 . S
C844 C843 1.394 . S
C844 C845 1.516 . S
C845 C844 1.516 . S
C845 C846 1.502 . S
C845 C847 1.561 . S
C845 C848 1.526 . S
C846 H830 0.959 . S
C846 H831 0.959 . S
C846 H832 0.961 . S
C846 C845 1.502 . S
C847 H833 0.960 . S
C847 H834 0.961 . S
C847 H835 0.959 . S
C847 C845 1.561 . S
C848 C845 1.526 . S
C848 C849 1.396 . S
C848 C853 1.390 . S
C849 C843 1.465 . S
C849 C848 1.396 . S
C849 C850 1.399 . S
C850 H836 0.929 . S
C850 C849 1.399 . S
C850 C851 1.385 . S
C851 H837 0.931 . S
C851 C850 1.385 . S
C851 C852 1.389 . S
C852 C851 1.389 . S
C852 C853 1.387 . S
C853 H838 0.930 . S
C853 C848 1.390 . S
C853 C852 1.387 . S
H854 C866 0.930 . S
H855 C868 0.930 . S
H856 C869 0.930 . S
H857 C873 0.959 . S
H858 C873 0.959 . S
H859 C873 0.961 . S
H860 C874 0.960 . S
H861 C874 0.961 . S
H862 C874 0.959 . S
H863 C877 0.929 . S
H864 C878 0.931 . S
H865 C880 0.930 . S
C866 H854 0.930 . S
C866 C867 1.399 . S
C866 C871 1.399 . S
C867 C866 1.399 . S
C867 C868 1.376 . S
C868 H855 0.930 . S
C868 C867 1.376 . S
C868 C869 1.388 . S
C869 H856 0.930 . S
C869 C868 1.388 . S
C869 C870 1.390 . S
C870 C869 1.390 . S
C870 C871 1.394 . S
C870 C876 1.465 . S
C871 C866 1.399 . S
C871 C870 1.394 . S
C871 C872 1.516 . S
C872 C871 1.516 . S
C872 C873 1.502 . S
C872 C874 1.561 . S
C872 C875 1.526 . S
C873 H857 0.959 . S
C873 H858 0.959 . S
C873 H859 0.961 . S
C873 C872 1.502 . S
C874 H860 0.960 . S
C874 H861 0.961 . S
C874 H862 0.959 . S
C874 C872 1.561 . S
C875 C872 1.526 . S
C875 C876 1.396 . S
C875 C880 1.390 . S
C876 C870 1.465 . S
C876 C875 1.396 . S
C876 C877 1.399 . S
C877 H863 0.929 . S
C877 C876 1.399 . S
C877 C878 1.385 . S
C878 H864 0.931 . S
C878 C877 1.385 . S
C878 C879 1.389 . S
C879 C878 1.389 . S
C879 C880 1.387 . S
C880 H865 0.930 . S
C880 C875 1.390 . S
C880 C879 1.387 . S
H881 C893 0.930 . S
H882 C895 0.930 . S
H883 C896 0.930 . S
H884 C900 0.959 . S
H885 C900 0.959 . S
H886 C900 0.961 . S
H887 C901 0.960 . S
H888 C901 0.961 . S
H889 C901 0.959 . S
H890 C904 0.929 . S
H891 C905 0.931 . S
H892 C907 0.930 . S
C893 H881 0.930 . S
C893 C894 1.399 . S
C893 C898 1.399 . S
C894 C893 1.399 . S
C894 C895 1.376 . S
C895 H882 0.930 . S
C895 C894 1.376 . S
C895 C896 1.388 . S
C896 H883 0.930 . S
C896 C895 1.388 . S
C896 C897 1.390 . S
C897 C896 1.390 . S
C897 C898 1.394 . S
C897 C903 1.465 . S
C898 C893 1.399 . S
C898 C897 1.394 . S
C898 C899 1.516 . S
C899 C898 1.516 . S
C899 C900 1.502 . S
C899 C901 1.561 . S
C899 C902 1.526 . S
C900 H884 0.959 . S
C900 H885 0.959 . S
C900 H886 0.961 . S
C900 C899 1.502 . S
C901 H887 0.960 . S
C901 H888 0.961 . S
C901 H889 0.959 . S
C901 C899 1.561 . S
C902 C899 1.526 . S
C902 C903 1.396 . S
C902 C907 1.390 . S
C903 C897 1.465 . S
C903 C902 1.396 . S
C903 C904 1.399 . S
C904 H890 0.929 . S
C904 C903 1.399 . S
C904 C905 1.385 . S
C905 H891 0.931 . S
C905 C904 1.385 . S
C905 C906 1.389 . S
C906 C905 1.389 . S
C906 C907 1.387 . S
C907 H892 0.930 . S
C907 C902 1.390 . S
C907 C906 1.387 . S
H908 C920 0.930 . S
H909 C922 0.930 . S
H910 C923 0.930 . S
H911 C927 0.959 . S
H912 C927 0.959 . S
H913 C927 0.961 . S
H914 C928 0.960 . S
H915 C928 0.961 . S
H916 C928 0.959 . S
H917 C931 0.929 . S
H918 C932 0.931 . S
H919 C934 0.930 . S
C920 H908 0.930 . S
C920 C921 1.399 . S
C920 C925 1.399 . S
C921 C920 1.399 . S
C921 C922 1.376 . S
C922 H909 0.930 . S
C922 C921 1.376 . S
C922 C923 1.388 . S
C923 H910 0.930 . S
C923 C922 1.388 . S
C923 C924 1.390 . S
C924 C923 1.390 . S
C924 C925 1.394 . S
C924 C930 1.465 . S
C925 C920 1.399 . S
C925 C924 1.394 . S
C925 C926 1.516 . S
C926 C925 1.516 . S
C926 C927 1.502 . S
C926 C928 1.561 . S
C926 C929 1.526 . S
C927 H911 0.959 . S
C927 H912 0.959 . S
C927 H913 0.961 . S
C927 C926 1.502 . S
C928 H914 0.960 . S
C928 H915 0.961 . S
C928 H916 0.959 . S
C928 C926 1.561 . S
C929 C926 1.526 . S
C929 C930 1.396 . S
C929 C934 1.390 . S
C930 C924 1.465 . S
C930 C929 1.396 . S
C930 C931 1.399 . S
C931 H917 0.929 . S
C931 C930 1.399 . S
C931 C932 1.385 . S
C932 H918 0.931 . S
C932 C931 1.385 . S
C932 C933 1.389 . S
C933 C932 1.389 . S
C933 C934 1.387 . S
C934 H919 0.930 . S
C934 C929 1.390 . S
C934 C933 1.387 . S
H935 C947 0.930 . S
H936 C949 0.930 . S
H937 C950 0.930 . S
H938 C954 0.959 . S
H939 C954 0.959 . S
H940 C954 0.961 . S
H941 C955 0.960 . S
H942 C955 0.961 . S
H943 C955 0.959 . S
H944 C958 0.929 . S
H945 C959 0.931 . S
H946 C961 0.930 . S
C947 H935 0.930 . S
C947 C948 1.399 . S
C947 C952 1.399 . S
C948 C947 1.399 . S
C948 C949 1.376 . S
C949 H936 0.930 . S
C949 C948 1.376 . S
C949 C950 1.388 . S
C950 H937 0.930 . S
C950 C949 1.388 . S
C950 C951 1.390 . S
C951 C950 1.390 . S
C951 C952 1.394 . S
C951 C957 1.465 . S
C952 C947 1.399 . S
C952 C951 1.394 . S
C952 C953 1.516 . S
C953 C952 1.516 . S
C953 C954 1.502 . S
C953 C955 1.561 . S
C953 C956 1.526 . S
C954 H938 0.959 . S
C954 H939 0.959 . S
C954 H940 0.961 . S
C954 C953 1.502 . S
C955 H941 0.960 . S
C955 H942 0.961 . S
C955 H943 0.959 . S
C955 C953 1.561 . S
C956 C953 1.526 . S
C956 C957 1.396 . S
C956 C961 1.390 . S
C957 C951 1.465 . S
C957 C956 1.396 . S
C957 C958 1.399 . S
C958 H944 0.929 . S
C958 C957 1.399 . S
C958 C959 1.385 . S
C959 H945 0.931 . S
C959 C958 1.385 . S
C959 C960 1.389 . S
C960 C959 1.389 . S
C960 C961 1.387 . S
C961 H946 0.930 . S
C961 C956 1.390 . S
C961 C960 1.387 . S
H962 C974 0.930 . S
H963 C976 0.930 . S
H964 C977 0.930 . S
H965 C981 0.959 . S
H966 C981 0.959 . S
H967 C981 0.961 . S
H968 C982 0.960 . S
H969 C982 0.961 . S
H970 C982 0.959 . S
H971 C985 0.929 . S
H972 C986 0.931 . S
H973 C988 0.930 . S
C974 H962 0.930 . S
C974 C975 1.399 . S
C974 C979 1.399 . S
C975 C974 1.399 . S
C975 C976 1.376 . S
C976 H963 0.930 . S
C976 C975 1.376 . S
C976 C977 1.388 . S
C977 H964 0.930 . S
C977 C976 1.388 . S
C977 C978 1.390 . S
C978 C977 1.390 . S
C978 C979 1.394 . S
C978 C984 1.465 . S
C979 C974 1.399 . S
C979 C978 1.394 . S
C979 C980 1.516 . S
C980 C979 1.516 . S
C980 C981 1.502 . S
C980 C982 1.561 . S
C980 C983 1.526 . S
C981 H965 0.959 . S
C981 H966 0.959 . S
C981 H967 0.961 . S
C981 C980 1.502 . S
C982 H968 0.960 . S
C982 H969 0.961 . S
C982 H970 0.959 . S
C982 C980 1.561 . S
C983 C980 1.526 . S
C983 C984 1.396 . S
C983 C988 1.390 . S
C984 C978 1.465 . S
C984 C983 1.396 . S
C984 C985 1.399 . S
C985 H971 0.929 . S
C985 C984 1.399 . S
C985 C986 1.385 . S
C986 H972 0.931 . S
C986 C985 1.385 . S
C986 C987 1.389 . S
C987 C986 1.389 . S
C987 C988 1.387 . S
C988 H973 0.930 . S
C988 C983 1.390 . S
C988 C987 1.387 . S
H989 C1001 0.930 . S
H990 C1003 0.930 . S
H991 C1004 0.930 . S
H992 C1008 0.959 . S
H993 C1008 0.959 . S
H994 C1008 0.961 . S
H995 C1009 0.960 . S
H996 C1009 0.961 . S
H997 C1009 0.959 . S
H998 C1012 0.929 . S
H999 C1013 0.931 . S
H1000 C1015 0.930 . S
C1001 H989 0.930 . S
C1001 C1002 1.399 . S
C1001 C1006 1.399 . S
C1002 C1001 1.399 . S
C1002 C1003 1.376 . S
C1003 H990 0.930 . S
C1003 C1002 1.376 . S
C1003 C1004 1.388 . S
C1004 H991 0.930 . S
C1004 C1003 1.388 . S
C1004 C1005 1.390 . S
C1005 C1004 1.390 . S
C1005 C1006 1.394 . S
C1005 C1011 1.465 . S
C1006 C1001 1.399 . S
C1006 C1005 1.394 . S
C1006 C1007 1.516 . S
C1007 C1006 1.516 . S
C1007 C1008 1.502 . S
C1007 C1009 1.561 . S
C1007 C1010 1.526 . S
C1008 H992 0.959 . S
C1008 H993 0.959 . S
C1008 H994 0.961 . S
C1008 C1007 1.502 . S
C1009 H995 0.960 . S
C1009 H996 0.961 . S
C1009 H997 0.959 . S
C1009 C1007 1.561 . S
C1010 C1007 1.526 . S
C1010 C1011 1.396 . S
C1010 C1015 1.390 . S
C1011 C1005 1.465 . S
C1011 C1010 1.396 . S
C1011 C1012 1.399 . S
C1012 H998 0.929 . S
C1012 C1011 1.399 . S
C1012 C1013 1.385 . S
C1013 H999 0.931 . S
C1013 C1012 1.385 . S
C1013 C1014 1.389 . S
C1014 C1013 1.389 . S
C1014 C1015 1.387 . S
C1015 H1000 0.930 . S
C1015 C1010 1.390 . S
C1015 C1014 1.387 . S
H1016 C1028 0.930 . S
H1017 C1030 0.930 . S
H1018 C1031 0.930 1_655 S
H1019 C1035 0.959 . S
H1020 C1035 0.959 . S
H1021 C1035 0.961 . S
H1022 C1036 0.960 . S
H1023 C1036 0.961 . S
H1024 C1036 0.959 1_655 S
H1025 C1039 0.929 . S
H1026 C1040 0.931 . S
H1027 C1042 0.930 . S
C1028 H1016 0.930 . S
C1028 C1029 1.399 . S
C1028 C1033 1.399 . S
C1029 C1028 1.399 . S
C1029 C1030 1.376 . S
C1030 H1017 0.930 . S
C1030 C1029 1.376 . S
C1030 C1031 1.388 . S
C1031 H1018 0.930 1_455 S
C1031 C1030 1.388 . S
C1031 C1032 1.390 . S
C1032 C1031 1.390 . S
C1032 C1033 1.394 . S
C1032 C1038 1.465 1_455 S
C1033 C1028 1.399 . S
C1033 C1032 1.394 . S
C1033 C1034 1.516 . S
C1034 C1033 1.516 . S
C1034 C1035 1.502 1_554 S
C1034 C1036 1.561 . S
C1034 C1037 1.526 1_454 S
C1035 H1019 0.959 . S
C1035 H1020 0.959 . S
C1035 H1021 0.961 . S
C1035 C1034 1.502 1_556 S
C1036 H1022 0.960 . S
C1036 H1023 0.961 . S
C1036 H1024 0.959 1_455 S
C1036 C1034 1.561 . S
C1037 C1034 1.526 1_656 S
C1037 C1038 1.396 1_556 S
C1037 C1042 1.390 . S
C1038 C1032 1.465 1_655 S
C1038 C1037 1.396 1_554 S
C1038 C1039 1.399 . S
C1039 H1025 0.929 . S
C1039 C1038 1.399 . S
C1039 C1040 1.385 1_554 S
C1040 H1026 0.931 . S
C1040 C1039 1.385 1_556 S
C1040 C1041 1.389 . S
C1041 C1040 1.389 . S
C1041 C1042 1.387 . S
C1042 H1027 0.930 . S
C1042 C1037 1.390 . S
C1042 C1041 1.387 . S
H1043 C1055 0.930 . S
H1044 C1057 0.930 . S
H1045 C1058 0.958 . S
H1046 C1062 0.959 . S
H1047 C1062 0.959 . S
H1048 C1062 0.961 . S
H1049 C1063 0.960 . S
H1050 C1063 0.961 . S
H1051 C1063 0.959 . S
H1052 C1066 0.929 1_565 S
H1053 C1067 0.931 . S
H1054 C1069 0.930 1_655 S
C1055 H1043 0.930 . S
C1055 C1056 1.399 . S
C1055 C1060 1.399 . S
C1056 C1055 1.399 . S
C1056 C1057 1.376 . S
C1057 H1044 0.930 . S
C1057 C1056 1.376 . S
C1057 C1058 1.388 . S
C1058 H1045 0.958 . S
C1058 C1057 1.388 . S
C1058 C1059 1.390 . S
C1059 C1058 1.390 . S
C1059 C1060 1.394 . S
C1059 C1065 1.465 1_565 S
C1060 C1055 1.399 . S
C1060 C1059 1.394 . S
C1060 C1061 1.516 1_565 S
C1061 C1060 1.516 1_545 S
C1061 C1062 1.502 . S
C1061 C1063 1.561 1_455 S
C1061 C1064 1.526 . S
C1062 H1046 0.959 . S
C1062 H1047 0.959 . S
C1062 H1048 0.961 . S
C1062 C1061 1.502 . S
C1063 H1049 0.960 . S
C1063 H1050 0.961 . S
C1063 H1051 0.959 . S
C1063 C1061 1.561 1_655 S
C1064 C1061 1.526 . S
C1064 C1065 1.396 . S
C1064 C1069 1.392 . S
C1065 C1059 1.465 1_545 S
C1065 C1064 1.396 . S
C1065 C1066 1.404 1_556 S
C1066 H1052 0.929 1_545 S
C1066 C1065 1.404 1_554 S
C1066 C1067 1.381 1_455 S
C1067 H1053 0.931 . S
C1067 C1066 1.381 1_655 S
C1067 C1068 1.389 . S
C1068 C1067 1.389 . S
C1068 C1069 1.385 1_654 S
C1069 H1054 0.930 1_455 S
C1069 C1064 1.392 . S
C1069 C1068 1.385 1_456 S
H1070 C1082 0.930 . S
H1071 C1084 0.930 . S
H1072 C1085 0.930 . S
H1073 C1089 0.959 1_556 S
H1074 C1089 0.959 1_556 S
H1075 C1089 0.961 . S
H1076 C1090 0.960 . S
H1077 C1090 0.961 . S
H1078 C1090 0.959 . S
H1079 C1093 0.929 . S
H1080 C1094 0.931 . S
H1081 C1096 0.930 . S
C1082 H1070 0.930 . S
C1082 C1083 1.399 1_545 S
C1082 C1087 1.399 . S
C1083 C1082 1.399 1_565 S
C1083 C1084 1.376 . S
C1084 H1071 0.930 . S
C1084 C1083 1.376 . S
C1084 C1085 1.388 . S
C1085 H1072 0.930 . S
C1085 C1084 1.388 . S
C1085 C1086 1.390 . S
C1086 C1085 1.390 . S
C1086 C1087 1.394 1_565 S
C1086 C1092 1.465 . S
C1087 C1082 1.399 . S
C1087 C1086 1.394 1_545 S
C1087 C1088 1.516 . S
C1088 C1087 1.516 . S
C1088 C1089 1.502 . S
C1088 C1090 1.561 . S
C1088 C1091 1.526 . S
C1089 H1073 0.959 1_554 S
C1089 H1074 0.959 1_554 S
C1089 H1075 0.961 . S
C1089 C1088 1.502 . S
C1090 H1076 0.960 . S
C1090 H1077 0.961 . S
C1090 H1078 0.959 . S
C1090 C1088 1.561 . S
C1091 C1088 1.526 . S
C1091 C1092 1.396 1_545 S
C1091 C1096 1.390 1_554 S
C1092 C1086 1.465 . S
C1092 C1091 1.396 1_565 S
C1092 C1093 1.399 1_554 S
C1093 H1079 0.929 . S
C1093 C1092 1.399 1_556 S
C1093 C1094 1.385 . S
C1094 H1080 0.931 . S
C1094 C1093 1.385 . S
C1094 C1095 1.389 1_565 S
C1095 C1094 1.389 1_545 S
C1095 C1096 1.387 . S
C1096 H1081 0.930 . S
C1096 C1091 1.390 1_556 S
C1096 C1095 1.387 . S
H1097 C1109 0.930 . S
H1098 C1111 0.930 . S
H1099 C1112 0.930 . S
H1100 C1116 0.959 . S
H1101 C1116 0.959 . S
H1102 C1116 0.961 . S
H1103 C1117 0.960 . S
H1104 C1117 0.961 . S
H1105 C1117 0.959 . S
H1106 C1120 0.929 . S
H1107 C1121 0.931 . S
H1108 C1123 0.935 . S
C1109 H1097 0.930 . S
C1109 C1110 1.399 . S
C1109 C1114 1.399 . S
C1110 C1109 1.399 . S
C1110 C1111 1.376 . S
C1111 H1098 0.930 . S
C1111 C1110 1.376 . S
C1111 C1112 1.388 . S
C1112 H1099 0.930 . S
C1112 C1111 1.388 . S
C1112 C1113 1.390 . S
C1113 C1112 1.390 . S
C1113 C1114 1.394 . S
C1113 C1119 1.465 . S
C1114 C1109 1.399 . S
C1114 C1113 1.394 . S
C1114 C1115 1.516 . S
C1115 C1114 1.516 . S
C1115 C1116 1.502 . S
C1115 C1117 1.561 . S
C1115 C1118 1.526 . S
C1116 H1100 0.959 . S
C1116 H1101 0.959 . S
C1116 H1102 0.961 . S
C1116 C1115 1.502 . S
C1117 H1103 0.960 . S
C1117 H1104 0.961 . S
C1117 H1105 0.959 . S
C1117 C1115 1.561 . S
C1118 C1115 1.526 . S
C1118 C1119 1.396 . S
C1118 C1123 1.390 1_556 S
C1119 C1113 1.465 . S
C1119 C1118 1.396 . S
C1119 C1120 1.399 1_556 S
C1120 H1106 0.929 . S
C1120 C1119 1.399 1_554 S
C1120 C1121 1.385 . S
C1121 H1107 0.931 . S
C1121 C1120 1.385 . S
C1121 C1122 1.389 . S
C1122 C1121 1.389 . S
C1122 C1123 1.387 . S
C1123 H1108 0.935 . S
C1123 C1118 1.390 1_554 S
C1123 C1122 1.387 . S
H1124 C1136 0.930 . S
H1125 C1138 0.930 . S
H1126 C1139 0.930 . S
H1127 C1143 0.959 1_455 S
H1128 C1143 0.959 . S
H1129 C1143 0.961 1_455 S
H1130 C1144 0.960 . S
H1131 C1144 0.961 . S
H1132 C1144 0.959 . S
H1133 C1147 0.929 . S
H1134 C1148 0.931 1_565 S
H1135 C1150 0.930 . S
C1136 H1124 0.930 . S
C1136 C1137 1.399 1_545 S
C1136 C1141 1.399 . S
C1137 C1136 1.399 1_565 S
C1137 C1138 1.376 . S
C1138 H1125 0.930 . S
C1138 C1137 1.376 . S
C1138 C1139 1.388 . S
C1139 H1126 0.930 . S
C1139 C1138 1.388 . S
C1139 C1140 1.390 . S
C1140 C1139 1.390 . S
C1140 C1141 1.394 1_565 S
C1140 C1146 1.476 1_455 S
C1141 C1136 1.399 . S
C1141 C1140 1.394 1_545 S
C1141 C1142 1.516 1_455 S
C1142 C1141 1.516 1_655 S
C1142 C1143 1.502 . S
C1142 C1144 1.561 . S
C1142 C1145 1.526 . S
C1143 H1127 0.959 1_655 S
C1143 H1128 0.959 . S
C1143 H1129 0.961 1_655 S
C1143 C1142 1.502 . S
C1144 H1130 0.960 . S
C1144 H1131 0.961 . S
C1144 H1132 0.959 . S
C1144 C1142 1.561 . S
C1145 C1142 1.526 . S
C1145 C1146 1.370 1_545 S
C1145 C1150 1.390 . S
C1146 C1140 1.476 1_655 S
C1146 C1145 1.370 1_565 S
C1146 C1147 1.411 . S
C1147 H1133 0.929 . S
C1147 C1146 1.411 . S
C1147 C1148 1.385 1_565 S
C1148 H1134 0.931 1_545 S
C1148 C1147 1.385 1_545 S
C1148 C1149 1.389 . S
C1149 C1148 1.389 . S
C1149 C1150 1.387 . S
C1150 H1135 0.930 . S
C1150 C1145 1.390 . S
C1150 C1149 1.387 . S
H1151 C1163 0.930 . S
H1152 C1165 0.930 . S
H1153 C1166 0.930 . S
H1154 C1170 0.959 . S
H1155 C1170 0.959 . S
H1156 C1170 0.961 . S
H1157 C1171 0.960 . S
H1158 C1171 0.961 . S
H1159 C1171 0.959 . S
H1160 C1174 0.929 . S
H1161 C1175 0.931 . S
H1162 C1177 0.930 . S
C1163 H1151 0.930 . S
C1163 C1164 1.399 . S
C1163 C1168 1.399 . S
C1164 C1163 1.399 . S
C1164 C1165 1.376 . S
C1165 H1152 0.930 . S
C1165 C1164 1.376 . S
C1165 C1166 1.388 . S
C1166 H1153 0.930 . S
C1166 C1165 1.388 . S
C1166 C1167 1.390 . S
C1167 C1166 1.390 . S
C1167 C1168 1.394 . S
C1167 C1173 1.465 1_545 S
C1168 C1163 1.399 . S
C1168 C1167 1.394 . S
C1168 C1169 1.516 . S
C1169 C1168 1.516 . S
C1169 C1170 1.502 . S
C1169 C1171 1.561 . S
C1169 C1172 1.526 1_545 S
C1170 H1154 0.959 . S
C1170 H1155 0.959 . S
C1170 H1156 0.961 . S
C1170 C1169 1.502 . S
C1171 H1157 0.960 . S
C1171 H1158 0.961 . S
C1171 H1159 0.959 . S
C1171 C1169 1.561 . S
C1172 C1169 1.526 1_565 S
C1172 C1173 1.396 . S
C1172 C1177 1.390 . S
C1173 C1167 1.465 1_565 S
C1173 C1172 1.396 . S
C1173 C1174 1.399 . S
C1174 H1160 0.929 . S
C1174 C1173 1.399 . S
C1174 C1175 1.385 . S
C1175 H1161 0.931 . S
C1175 C1174 1.385 . S
C1175 C1176 1.389 . S
C1176 C1175 1.389 . S
C1176 C1177 1.387 . S
C1177 H1162 0.930 . S
C1177 C1172 1.390 . S
C1177 C1176 1.387 . S
H1178 C1190 0.930 . S
H1179 C1192 0.930 . S
H1180 C1193 0.930 . S
H1181 C1197 0.959 . S
H1182 C1197 0.959 . S
H1183 C1197 0.961 . S
H1184 C1198 0.960 . S
H1185 C1198 0.961 . S
H1186 C1198 0.959 . S
H1187 C1201 0.929 . S
H1188 C1202 0.931 . S
H1189 C1204 0.930 . S
C1190 H1178 0.930 . S
C1190 C1191 1.399 . S
C1190 C1195 1.399 . S
C1191 C1190 1.399 . S
C1191 C1192 1.376 . S
C1192 H1179 0.930 . S
C1192 C1191 1.376 . S
C1192 C1193 1.388 . S
C1193 H1180 0.930 . S
C1193 C1192 1.388 . S
C1193 C1194 1.390 . S
C1194 C1193 1.390 . S
C1194 C1195 1.394 . S
C1194 C1200 1.465 . S
C1195 C1190 1.399 . S
C1195 C1194 1.394 . S
C1195 C1196 1.516 . S
C1196 C1195 1.516 . S
C1196 C1197 1.502 . S
C1196 C1198 1.561 . S
C1196 C1199 1.526 . S
C1197 H1181 0.959 . S
C1197 H1182 0.959 . S
C1197 H1183 0.961 . S
C1197 C1196 1.502 . S
C1198 H1184 0.960 . S
C1198 H1185 0.961 . S
C1198 H1186 0.959 . S
C1198 C1196 1.561 . S
C1199 C1196 1.526 . S
C1199 C1200 1.396 . S
C1199 C1204 1.390 . S
C1200 C1194 1.465 . S
C1200 C1199 1.396 . S
C1200 C1201 1.399 . S
C1201 H1187 0.929 . S
C1201 C1200 1.399 . S
C1201 C1202 1.385 . S
C1202 H1188 0.931 . S
C1202 C1201 1.385 . S
C1202 C1203 1.389 . S
C1203 C1202 1.389 . S
C1203 C1204 1.387 . S
C1204 H1189 0.930 . S
C1204 C1199 1.390 . S
C1204 C1203 1.387 . S
H1205 C1217 0.930 . S
H1206 C1219 0.930 . S
H1207 C1220 0.930 . S
H1208 C1224 0.959 . S
H1209 C1224 0.959 . S
H1210 C1224 0.961 . S
H1211 C1225 0.960 . S
H1212 C1225 0.961 . S
H1213 C1225 0.959 . S
H1214 C1228 0.929 . S
H1215 C1229 0.931 . S
H1216 C1231 0.930 . S
C1217 H1205 0.930 . S
C1217 C1218 1.399 . S
C1217 C1222 1.399 1_655 S
C1218 C1217 1.399 . S
C1218 C1219 1.376 1_655 S
C1219 H1206 0.930 . S
C1219 C1218 1.376 1_455 S
C1219 C1220 1.388 . S
C1220 H1207 0.930 . S
C1220 C1219 1.388 . S
C1220 C1221 1.390 . S
C1221 C1220 1.390 . S
C1221 C1222 1.394 . S
C1221 C1227 1.465 . S
C1222 C1217 1.399 1_455 S
C1222 C1221 1.394 . S
C1222 C1223 1.516 . S
C1223 C1222 1.516 . S
C1223 C1224 1.502 1_455 S
C1223 C1225 1.561 . S
C1223 C1226 1.526 . S
C1224 H1208 0.959 . S
C1224 H1209 0.959 . S
C1224 H1210 0.961 . S
C1224 C1223 1.502 1_655 S
C1225 H1211 0.960 . S
C1225 H1212 0.961 . S
C1225 H1213 0.959 . S
C1225 C1223 1.561 . S
C1226 C1223 1.526 . S
C1226 C1227 1.396 . S
C1226 C1231 1.390 . S
C1227 C1221 1.465 . S
C1227 C1226 1.396 . S
C1227 C1228 1.399 . S
C1228 H1214 0.929 . S
C1228 C1227 1.399 . S
C1228 C1229 1.385 . S
C1229 H1215 0.931 . S
C1229 C1228 1.385 . S
C1229 C1230 1.389 . S
C1230 C1229 1.389 . S
C1230 C1231 1.387 . S
C1231 H1216 0.930 . S
C1231 C1226 1.390 . S
C1231 C1230 1.387 . S
C381 C16 1.819 . S
C393 C62 1.822 . S
C408 C39 2.034 . S
C420 C85 2.032 . S
C435 C108 1.858 . S
C447 C154 1.854 . S
C462 C177 2.038 . S
C474 C131 2.034 . S
C489 C200 1.297 . S
C501 C246 1.321 . S
C516 N265 1.292 . S
C528 N219 1.288 . S
C543 C338 1.275 . S
C555 C292 1.254 . S
C570 N357 1.282 . S
C582 N311 1.288 . S
C597 C168 2.209 1_455 S
C609 C7 2.258 . S
C624 C30 2.224 . S
C636 C99 2.233 . S
C651 C122 2.219 . S
C663 C53 2.237 . S
C678 C76 2.218 . S
C690 C145 2.261 . S
C705 N347 1.531 1_655 S
C717 C191 1.555 . S
C732 N209 1.449 . S
C744 C283 1.615 . S
C759 C237 1.625 . S
C771 N301 1.417 . S
C786 C329 1.575 . S
C798 N255 1.514 . S
C813 N2 0.847 . S
C825 N94 0.805 . S
C840 N25 0.673 . S
C852 N117 0.683 . S
C867 N140 0.775 . S
C879 N48 0.772 . S
C894 N71 0.733 . S
C906 N163 0.706 . S
C921 N278 1.038 . S
C933 N186 1.042 . S
C948 C306 1.149 . S
C960 C214 1.118 . S
C975 N232 1.043 . S
C987 N324 1.016 . S
C1002 C260 1.182 . S
C1014 C352 1.165 . S
C1029 N12 2.179 . S
C1041 N196 2.226 . S
C1056 C223 1.989 . S
C1068 N35 2.045 . S
C1083 N58 2.172 . S
C1095 N242 2.229 . S
C1110 C269 1.945 . S
C1122 N81 2.072 . S
C1137 N104 2.173 . S
C1149 N288 2.222 . S
C1164 N127 2.069 . S
C1176 C315 1.954 . S
C1191 N334 2.197 . S
C1203 N150 2.197 . S
C1218 N173 2.068 . S
C1230 C361 1.956 . S
