# Generated by pormake.
# Topology vba, (4)-cn, num edge types: 1
# Building blocks:
#     Node 0, Type 0, BuildingBlock: NAWXER_clean_sbu_0, # of connection points: 4
#     Node 1, Type 0, BuildingBlock: NAWXER_clean_sbu_0, # of connection points: 4
#     Node 2, Type 0, BuildingBlock: NAWXER_clean_sbu_0, # of connection points: 4
#     Node 3, Type 0, BuildingBlock: NAWXER_clean_sbu_0, # of connection points: 4
#     Node 4, Type 0, BuildingBlock: NAWXER_clean_sbu_0, # of connection points: 4
#     Node 5, Type 0, BuildingBlock: NAWXER_clean_sbu_0, # of connection points: 4
#     Node 6, Type 0, BuildingBlock: NAWXER_clean_sbu_0, # of connection points: 4
#     Node 7, Type 0, BuildingBlock: NAWXER_clean_sbu_0, # of connection points: 4
#     Node 8, Type 0, BuildingBlock: NAWXER_clean_sbu_0, # of connection points: 4
#     Node 9, Type 0, BuildingBlock: NAWXER_clean_sbu_0, # of connection points: 4
#     Node 10, Type 0, BuildingBlock: NAWXER_clean_sbu_0, # of connection points: 4
#     Node 11, Type 0, BuildingBlock: NAWXER_clean_sbu_0, # of connection points: 4
#     Node 12, Type 0, BuildingBlock: NAWXER_clean_sbu_0, # of connection points: 4
#     Node 13, Type 0, BuildingBlock: NAWXER_clean_sbu_0, # of connection points: 4
#     Node 14, Type 0, BuildingBlock: NAWXER_clean_sbu_0, # of connection points: 4
#     Node 15, Type 0, BuildingBlock: NAWXER_clean_sbu_0, # of connection points: 4
#     Node 16, Type 0, BuildingBlock: NAWXER_clean_sbu_0, # of connection points: 4
#     Node 17, Type 0, BuildingBlock: NAWXER_clean_sbu_0, # of connection points: 4
#     Node 18, Type 0, BuildingBlock: NAWXER_clean_sbu_0, # of connection points: 4
#     Node 19, Type 0, BuildingBlock: NAWXER_clean_sbu_0, # of connection points: 4
#     Node 20, Type 0, BuildingBlock: NAWXER_clean_sbu_0, # of connection points: 4
#     Node 21, Type 0, BuildingBlock: NAWXER_clean_sbu_0, # of connection points: 4
#     Node 22, Type 0, BuildingBlock: NAWXER_clean_sbu_0, # of connection points: 4
#     Node 23, Type 0, BuildingBlock: NAWXER_clean_sbu_0, # of connection points: 4
#     Node 24, Type 0, BuildingBlock: NAWXER_clean_sbu_0, # of connection points: 4
#     Node 25, Type 0, BuildingBlock: NAWXER_clean_sbu_0, # of connection points: 4
#     Node 26, Type 0, BuildingBlock: NAWXER_clean_sbu_0, # of connection points: 4
#     Node 27, Type 0, BuildingBlock: NAWXER_clean_sbu_0, # of connection points: 4
#     Node 28, Type 0, BuildingBlock: NAWXER_clean_sbu_0, # of connection points: 4
#     Node 29, Type 0, BuildingBlock: NAWXER_clean_sbu_0, # of connection points: 4
#     Node 30, Type 0, BuildingBlock: NAWXER_clean_sbu_0, # of connection points: 4
#     Node 31, Type 0, BuildingBlock: NAWXER_clean_sbu_0, # of connection points: 4
#     Edge 32, Type (0, 0), BuildingBlock: AJUNOK_clean_linker_0, # of connection points: 2
#     Edge 33, Type (0, 0), BuildingBlock: AJUNOK_clean_linker_0, # of connection points: 2
#     Edge 34, Type (0, 0), BuildingBlock: AJUNOK_clean_linker_0, # of connection points: 2
#     Edge 35, Type (0, 0), BuildingBlock: AJUNOK_clean_linker_0, # of connection points: 2
#     Edge 36, Type (0, 0), BuildingBlock: AJUNOK_clean_linker_0, # of connection points: 2
#     Edge 37, Type (0, 0), BuildingBlock: AJUNOK_clean_linker_0, # of connection points: 2
#     Edge 38, Type (0, 0), BuildingBlock: AJUNOK_clean_linker_0, # of connection points: 2
#     Edge 39, Type (0, 0), BuildingBlock: AJUNOK_clean_linker_0, # of connection points: 2
#     Edge 40, Type (0, 0), BuildingBlock: AJUNOK_clean_linker_0, # of connection points: 2
#     Edge 41, Type (0, 0), BuildingBlock: AJUNOK_clean_linker_0, # of connection points: 2
#     Edge 42, Type (0, 0), BuildingBlock: AJUNOK_clean_linker_0, # of connection points: 2
#     Edge 43, Type (0, 0), BuildingBlock: AJUNOK_clean_linker_0, # of connection points: 2
#     Edge 44, Type (0, 0), BuildingBlock: AJUNOK_clean_linker_0, # of connection points: 2
#     Edge 45, Type (0, 0), BuildingBlock: AJUNOK_clean_linker_0, # of connection points: 2
#     Edge 46, Type (0, 0), BuildingBlock: AJUNOK_clean_linker_0, # of connection points: 2
#     Edge 47, Type (0, 0), BuildingBlock: AJUNOK_clean_linker_0, # of connection points: 2
#     Edge 48, Type (0, 0), BuildingBlock: AJUNOK_clean_linker_0, # of connection points: 2
#     Edge 49, Type (0, 0), BuildingBlock: AJUNOK_clean_linker_0, # of connection points: 2
#     Edge 50, Type (0, 0), BuildingBlock: AJUNOK_clean_linker_0, # of connection points: 2
#     Edge 51, Type (0, 0), BuildingBlock: AJUNOK_clean_linker_0, # of connection points: 2
#     Edge 52, Type (0, 0), BuildingBlock: AJUNOK_clean_linker_0, # of connection points: 2
#     Edge 53, Type (0, 0), BuildingBlock: AJUNOK_clean_linker_0, # of connection points: 2
#     Edge 54, Type (0, 0), BuildingBlock: AJUNOK_clean_linker_0, # of connection points: 2
#     Edge 55, Type (0, 0), BuildingBlock: AJUNOK_clean_linker_0, # of connection points: 2
#     Edge 56, Type (0, 0), BuildingBlock: AJUNOK_clean_linker_0, # of connection points: 2
#     Edge 57, Type (0, 0), BuildingBlock: AJUNOK_clean_linker_0, # of connection points: 2
#     Edge 58, Type (0, 0), BuildingBlock: AJUNOK_clean_linker_0, # of connection points: 2
#     Edge 59, Type (0, 0), BuildingBlock: AJUNOK_clean_linker_0, # of connection points: 2
#     Edge 60, Type (0, 0), BuildingBlock: AJUNOK_clean_linker_0, # of connection points: 2
#     Edge 61, Type (0, 0), BuildingBlock: AJUNOK_clean_linker_0, # of connection points: 2
#     Edge 62, Type (0, 0), BuildingBlock: AJUNOK_clean_linker_0, # of connection points: 2
#     Edge 63, Type (0, 0), BuildingBlock: AJUNOK_clean_linker_0, # of connection points: 2
#     Edge 64, Type (0, 0), BuildingBlock: AJUNOK_clean_linker_0, # of connection points: 2
#     Edge 65, Type (0, 0), BuildingBlock: AJUNOK_clean_linker_0, # of connection points: 2
#     Edge 66, Type (0, 0), BuildingBlock: AJUNOK_clean_linker_0, # of connection points: 2
#     Edge 67, Type (0, 0), BuildingBlock: AJUNOK_clean_linker_0, # of connection points: 2
#     Edge 68, Type (0, 0), BuildingBlock: AJUNOK_clean_linker_0, # of connection points: 2
#     Edge 69, Type (0, 0), BuildingBlock: AJUNOK_clean_linker_0, # of connection points: 2
#     Edge 70, Type (0, 0), BuildingBlock: AJUNOK_clean_linker_0, # of connection points: 2
#     Edge 71, Type (0, 0), BuildingBlock: AJUNOK_clean_linker_0, # of connection points: 2
#     Edge 72, Type (0, 0), BuildingBlock: AJUNOK_clean_linker_0, # of connection points: 2
#     Edge 73, Type (0, 0), BuildingBlock: AJUNOK_clean_linker_0, # of connection points: 2
#     Edge 74, Type (0, 0), BuildingBlock: AJUNOK_clean_linker_0, # of connection points: 2
#     Edge 75, Type (0, 0), BuildingBlock: AJUNOK_clean_linker_0, # of connection points: 2
#     Edge 76, Type (0, 0), BuildingBlock: AJUNOK_clean_linker_0, # of connection points: 2
#     Edge 77, Type (0, 0), BuildingBlock: AJUNOK_clean_linker_0, # of connection points: 2
#     Edge 78, Type (0, 0), BuildingBlock: AJUNOK_clean_linker_0, # of connection points: 2
#     Edge 79, Type (0, 0), BuildingBlock: AJUNOK_clean_linker_0, # of connection points: 2
#     Edge 80, Type (0, 0), BuildingBlock: AJUNOK_clean_linker_0, # of connection points: 2
#     Edge 81, Type (0, 0), BuildingBlock: AJUNOK_clean_linker_0, # of connection points: 2
#     Edge 82, Type (0, 0), BuildingBlock: AJUNOK_clean_linker_0, # of connection points: 2
#     Edge 83, Type (0, 0), BuildingBlock: AJUNOK_clean_linker_0, # of connection points: 2
#     Edge 84, Type (0, 0), BuildingBlock: AJUNOK_clean_linker_0, # of connection points: 2
#     Edge 85, Type (0, 0), BuildingBlock: AJUNOK_clean_linker_0, # of connection points: 2
#     Edge 86, Type (0, 0), BuildingBlock: AJUNOK_clean_linker_0, # of connection points: 2
#     Edge 87, Type (0, 0), BuildingBlock: AJUNOK_clean_linker_0, # of connection points: 2
#     Edge 88, Type (0, 0), BuildingBlock: AJUNOK_clean_linker_0, # of connection points: 2
#     Edge 89, Type (0, 0), BuildingBlock: AJUNOK_clean_linker_0, # of connection points: 2
#     Edge 90, Type (0, 0), BuildingBlock: AJUNOK_clean_linker_0, # of connection points: 2
#     Edge 91, Type (0, 0), BuildingBlock: AJUNOK_clean_linker_0, # of connection points: 2
#     Edge 92, Type (0, 0), BuildingBlock: AJUNOK_clean_linker_0, # of connection points: 2
#     Edge 93, Type (0, 0), BuildingBlock: AJUNOK_clean_linker_0, # of connection points: 2
#     Edge 94, Type (0, 0), BuildingBlock: AJUNOK_clean_linker_0, # of connection points: 2
#     Edge 95, Type (0, 0), BuildingBlock: AJUNOK_clean_linker_0, # of connection points: 2
# Relax obj value: 0.002
# Max RMSD: 0.073
# Mean RMSD: 0.072
data_MOF--net-vba--node1-NAWXER_clean_sbu_0--edge1-AJUNOK_clean_linker_0
_symmetry_space_group_name_H-M    P1
_symmetry_Int_Tables_number       1
_symmetry_cell_setting            triclinic
loop_
_symmetry_equiv_pos_as_xyz
'x, y, z'
_cell_length_a     12.428602
_cell_length_b     77.566851
_cell_length_c     40.846343
_cell_angle_alpha  90.080235
_cell_angle_beta   90.044495
_cell_angle_gamma 90.113544
loop_
_atom_site_label
_atom_site_type_symbol
_atom_site_fract_x
_atom_site_fract_y
_atom_site_fract_z
_atom_type_partial_charge
C0 C 0.41746 0.05025 0.03068 0.0
C1 C 0.23454 0.10734 0.03274 0.0
O2 O 0.31895 0.05112 0.02245 0.0
Zn3 Zn 0.19119 0.06787 1.01557 0.0
O4 O 0.46913 0.064 0.03835 0.0
Zn5 Zn 0.34593 0.07995 0.03233 0.0
O6 O 0.25035 0.07019 0.06963 0.0
O7 O 0.09961 0.05848 0.0514 0.0
O8 O 0.33401 0.10516 0.0394 0.0
O9 O 0.17841 0.09438 0.02366 0.0
O10 O 0.18174 0.06526 0.96695 0.0
O11 O 0.33559 0.07704 0.98203 0.0
C12 C 0.16319 0.06205 0.07515 0.0
C13 C 0.27527 0.07097 0.9596 0.0
C14 C 0.82971 0.23094 0.02952 0.0
C15 C 0.01076 0.17367 0.03283 0.0
O16 O 0.92716 0.22961 0.02062 0.0
Zn17 Zn 0.05309 0.21285 1.01362 0.0
O18 O 0.77648 0.21742 0.03761 0.0
Zn19 Zn 0.89792 0.2009 0.03145 0.0
O20 O 0.99624 0.21089 0.06801 0.0
O21 O 0.14624 0.22248 0.04904 0.0
O22 O 0.91101 0.17565 0.03938 0.0
O23 O 0.06546 0.18658 0.02293 0.0
O24 O 0.0586 0.21489 0.96489 0.0
O25 O 0.90669 0.20303 0.981 0.0
C26 C 0.08374 0.21904 0.07308 0.0
C27 C 0.96564 0.20876 0.95796 0.0
C28 C 0.16054 0.21834 0.21193 0.0
C29 C 0.27006 0.21037 0.32848 0.0
O30 O 0.24754 0.21037 0.21835 0.0
Zn31 Zn 0.3429 0.20116 0.25618 0.0
O32 O 0.09682 0.22237 0.23535 0.0
Zn33 Zn 0.18621 0.21333 0.27218 0.0
O34 O 0.31308 0.23006 0.26526 0.0
O35 O 0.46508 0.21758 0.25022 0.0
O36 O 0.17655 0.21598 0.32092 0.0
O37 O 0.33099 0.20436 0.30623 0.0
O38 O 0.33014 0.17576 0.24997 0.0
O39 O 0.17434 0.1869 0.26437 0.0
C40 C 0.41146 0.23121 0.25718 0.0
C41 C 0.22982 0.17383 0.25584 0.0
C42 C 0.01057 0.10692 0.25775 0.0
C43 C 0.83659 0.04896 0.25951 0.0
O44 O 0.06859 0.09414 0.26632 0.0
Zn45 Zn 0.06038 0.06759 0.27404 0.0
O46 O 0.91097 0.10442 0.25153 0.0
Zn47 Zn 0.90256 0.0791 0.25811 0.0
O48 O 0.91609 0.07612 0.3082 0.0
O49 O 0.07232 0.06501 0.32264 0.0
O50 O 0.78197 0.06245 0.2524 0.0
O51 O 0.93509 0.05034 0.26746 0.0
O52 O 0.15108 0.05877 0.23741 0.0
O53 O -0.00157 0.07009 0.2203 0.0
C54 C 0.97834 0.07034 0.33034 0.0
C55 C 0.08661 0.06245 0.21398 0.0
C56 C 0.72338 0.95995 0.08055 0.0
C57 C 0.8288 0.96781 0.96378 0.0
O58 O 0.8173 0.9653 0.07268 0.0
Zn59 Zn 0.80447 0.96273 0.02406 0.0
O60 O 0.66053 0.95417 0.05851 0.0
Zn61 Zn 0.64563 0.95117 1.00841 0.0
O62 O 0.65357 0.9258 1.00189 0.0
O63 O 0.81155 0.93623 1.0163 0.0
O64 O 0.74075 0.96015 0.97036 0.0
O65 O 0.8939 0.97156 0.98706 0.0
O66 O 0.67958 0.9799 1.01794 0.0
O67 O 0.5256 0.96794 1.00305 0.0
C68 C 0.75334 0.92339 1.00793 0.0
C69 C 0.58104 0.98138 1.01022 0.0
C70 C 0.90932 0.8119 0.96417 0.0
C71 C 0.02542 0.8206 0.07984 0.0
O72 O 0.8479 0.80766 0.98801 0.0
Zn73 Zn 0.93899 0.81725 0.02404 0.0
O74 O 0.99558 0.82026 0.96994 0.0
Zn75 Zn 0.09186 0.83005 1.00707 0.0
O76 O 0.21629 0.81437 1.00019 0.0
O77 O 0.06872 0.80106 1.01665 0.0
O78 O 0.08396 0.82692 0.05729 0.0
O79 O 0.93231 0.81459 0.07275 0.0
O80 O 0.92227 0.84367 1.01613 0.0
O81 O 0.07574 0.85529 1.0006 0.0
C82 C 0.16694 0.80045 1.00809 0.0
C83 C 0.97566 0.85689 1.00707 0.0
C84 C 0.82702 0.81154 0.8256 0.0
C85 C 0.71304 0.82085 0.71017 0.0
O86 O 0.89085 0.80837 0.80176 0.0
Zn87 Zn 0.79817 0.81757 0.76602 0.0
O88 O 0.73874 0.81935 0.82024 0.0
Zn89 Zn 0.64156 0.82897 0.78311 0.0
O90 O 0.5207 0.81229 0.78861 0.0
O91 O 0.6731 0.80028 0.77254 0.0
O92 O 0.65174 0.8264 0.73276 0.0
O93 O 0.80739 0.81547 0.71732 0.0
O94 O 0.80811 0.84401 0.7746 0.0
O95 O 0.65188 0.85432 0.79049 0.0
C96 C 0.57499 0.79885 0.78084 0.0
C97 C 0.75116 0.85679 0.78383 0.0
C98 C 0.15968 0.98064 0.78141 0.0
C99 C 0.9736 0.92352 0.78354 0.0
O100 O 0.21159 0.96696 0.78908 0.0
Zn101 Zn 0.08835 0.95077 0.78267 0.0
O102 O 0.0617 0.97962 0.7727 0.0
Zn103 Zn 0.93398 0.9629 0.76541 0.0
O104 O 0.84167 0.97241 0.80094 0.0
O105 O 0.99146 0.96067 0.81962 0.0
O106 O 0.91922 0.93654 0.77414 0.0
O107 O 0.07368 0.92543 0.7898 0.0
O108 O 0.07987 0.95362 0.73236 0.0
O109 O 0.92642 0.96523 0.71673 0.0
C110 C 0.90434 0.96883 0.82487 0.0
C111 C 0.02021 0.95957 0.70972 0.0
C112 C 0.16898 0.56176 0.57457 0.0
C113 C 0.28121 0.57042 0.45868 0.0
O114 O 0.25485 0.5702 0.56871 0.0
Zn115 Zn 0.34988 0.58004 0.53127 0.0
O116 O 0.10699 0.55751 0.55082 0.0
Zn117 Zn 0.19654 0.56716 0.5147 0.0
O118 O 0.32654 0.55109 0.52193 0.0
O119 O 0.47519 0.56444 0.53767 0.0
O120 O 0.18846 0.56439 0.46604 0.0
O121 O 0.34038 0.57682 0.48105 0.0
O122 O 0.3335 0.60529 0.53774 0.0
O123 O 0.17964 0.59356 0.52274 0.0
C124 C 0.42504 0.55052 0.53019 0.0
C125 C 0.23314 0.60681 0.53162 0.0
C126 C 0.00737 0.67297 0.53007 0.0
C127 C 0.8292 0.73045 0.52522 0.0
O128 O 0.06383 0.68577 0.52053 0.0
Zn129 Zn 0.05392 0.7122 0.51183 0.0
O130 O 0.90818 0.67531 0.53694 0.0
Zn131 Zn 0.8982 0.70052 0.52908 0.0
O132 O 0.90955 0.70256 0.47854 0.0
O133 O 0.06325 0.71418 0.46325 0.0
O134 O 0.77753 0.71706 0.53478 0.0
O135 O 0.92759 0.72918 0.51718 0.0
O136 O 0.14617 0.72158 0.54775 0.0
O137 O 0.99527 0.71016 0.56605 0.0
C138 C 0.97025 0.70821 0.45584 0.0
C139 C 0.08349 0.71799 0.57165 0.0
C140 C 0.27966 0.70812 0.82617 0.0
C141 C 0.16756 0.71776 0.71032 0.0
O142 O 0.33907 0.70225 0.8034 0.0
Zn143 Zn 0.35067 0.69999 0.75317 0.0
O144 O 0.18723 0.71427 0.81886 0.0
Zn145 Zn 0.19518 0.71189 0.77008 0.0
O146 O 0.1836 0.68535 0.76175 0.0
O147 O 0.33913 0.67477 0.74569 0.0
O148 O 0.10386 0.72126 0.73403 0.0
O149 O 0.25485 0.70974 0.71599 0.0
O150 O 0.47351 0.71632 0.74833 0.0
O151 O 0.32206 0.72881 0.76384 0.0
C152 C 0.23982 0.67247 0.7525 0.0
C153 C 0.42083 0.72991 0.75612 0.0
C154 C 0.01672 0.60589 0.75334 0.0
C155 C 0.83234 0.54878 0.75638 0.0
O156 O 0.07139 0.59296 0.76301 0.0
Zn157 Zn 0.05755 0.56665 0.77224 0.0
O158 O 0.91673 0.60391 0.74705 0.0
Zn159 Zn 0.90322 0.57862 0.75465 0.0
O160 O 0.91158 0.57606 0.80503 0.0
O161 O 0.06513 0.56459 0.82093 0.0
O162 O 0.7803 0.56241 0.74848 0.0
O163 O 0.93027 0.54984 0.76512 0.0
O164 O 0.15065 0.55704 0.73706 0.0
O165 O 0.00087 0.5686 0.71794 0.0
C166 C 0.97127 0.57027 0.82781 0.0
C167 C 0.08829 0.56046 0.71297 0.0
C168 C 0.84174 0.4684 0.46467 0.0
C169 C 0.72596 0.45959 0.58028 0.0
O170 O 0.90559 0.47178 0.48847 0.0
Zn171 Zn 0.81238 0.46277 0.52449 0.0
O172 O 0.75274 0.46084 0.47039 0.0
Zn173 Zn 0.65433 0.45162 0.50729 0.0
O174 O 0.53589 0.46855 0.50154 0.0
O175 O 0.68904 0.48024 0.51799 0.0
O176 O 0.6649 0.45407 0.55755 0.0
O177 O 0.82082 0.46487 0.57332 0.0
O178 O 0.8188 0.43632 0.51568 0.0
O179 O 0.66133 0.42639 0.4996 0.0
C180 C 0.59122 0.48187 0.50954 0.0
C181 C 0.76038 0.42371 0.5062 0.0
C182 C 0.00636 0.32242 0.58155 0.0
C183 C 0.89282 0.31123 0.46637 0.0
O184 O 0.91245 0.31668 0.57455 0.0
Zn185 Zn 0.92136 0.31787 0.52579 0.0
O186 O 0.0676 0.32749 0.55851 0.0
Zn187 Zn 0.07998 0.32879 0.50809 0.0
O188 O 0.07242 0.354 0.49908 0.0
O189 O 0.91527 0.34403 0.51539 0.0
O190 O 0.98177 0.31891 0.47164 0.0
O191 O 0.82842 0.30835 0.49021 0.0
O192 O 0.04475 0.30044 0.52102 0.0
O193 O 0.19773 0.31147 0.50365 0.0
C194 C 0.97287 0.35654 0.50522 0.0
C195 C 0.14271 0.29842 0.51328 0.0
C196 C 0.75067 0.35741 0.28299 0.0
C197 C 0.56785 0.30016 0.28013 0.0
O198 O 0.65071 0.3553 0.28916 0.0
Zn199 Zn 0.63872 0.33002 0.28258 0.0
O200 O 0.80698 0.34437 0.27467 0.0
Zn201 Zn 0.79505 0.3178 0.26718 0.0
O202 O 0.80693 0.31501 0.21857 0.0
O203 O 0.65408 0.32725 0.23253 0.0
O204 O 0.66716 0.30111 0.27304 0.0
O205 O 0.51505 0.31385 0.28713 0.0
O206 O 0.73134 0.32061 0.3208 0.0
O207 O 0.8826 0.30864 0.30423 0.0
C208 C 0.71517 0.32113 0.21042 0.0
C209 C 0.81798 0.3126 0.32744 0.0
C210 C 0.91743 0.46893 0.32579 0.0
C211 C 0.02197 0.46002 0.20944 0.0
O212 O 0.85333 0.47287 0.30242 0.0
Zn213 Zn 0.94071 0.46325 0.26585 0.0
O214 O 0.00279 0.46047 0.31964 0.0
Zn215 Zn 0.095 0.45051 0.28168 0.0
O216 O 0.22073 0.46624 0.28725 0.0
O217 O 0.07112 0.47943 0.27228 0.0
O218 O 0.08234 0.45368 0.23151 0.0
O219 O 0.92962 0.466 0.21725 0.0
O220 O 0.92427 0.43687 0.2739 0.0
O221 O 0.07861 0.42523 0.28826 0.0
C222 C 0.17012 0.48011 0.27997 0.0
C223 C 0.97797 0.42365 0.28254 0.0
C224 C 0.66499 0.06149 0.57499 0.0
C225 C 0.7795 0.07114 0.45968 0.0
O226 O 0.75249 0.06962 0.56985 0.0
Zn227 Zn 0.84921 0.07954 0.53284 0.0
O228 O 0.60242 0.05797 0.55098 0.0
Zn229 Zn 0.69532 0.06741 0.51559 0.0
O230 O 0.82293 0.05072 0.52242 0.0
O231 O 0.97283 0.06363 0.53848 0.0
O232 O 0.6872 0.06492 0.46701 0.0
O233 O 0.83895 0.07714 0.48242 0.0
O234 O 0.8375 0.1047 0.5403 0.0
O235 O 0.68263 0.09392 0.52382 0.0
C236 C 0.92143 0.0499 0.53063 0.0
C237 C 0.73832 0.10686 0.53322 0.0
C238 C 0.51275 0.173 0.53224 0.0
C239 C 0.32252 0.22943 0.52699 0.0
O240 O 0.56692 0.18613 0.52309 0.0
Zn241 Zn 0.55175 0.21249 0.51432 0.0
O242 O 0.41227 0.17466 0.53804 0.0
Zn243 Zn 0.39728 0.19982 0.53054 0.0
O244 O 0.41053 0.20223 0.48022 0.0
O245 O 0.56175 0.21485 0.46561 0.0
O246 O 0.27261 0.21569 0.53561 0.0
O247 O 0.4216 0.22863 0.51959 0.0
O248 O 0.63917 0.22238 0.55097 0.0
O249 O 0.49007 0.2099 0.56818 0.0
C250 C 0.4703 0.20842 0.45781 0.0
C251 C 0.57583 0.21829 0.57445 0.0
C252 C 0.64994 0.21908 0.71351 0.0
C253 C 0.76071 0.2097 0.82927 0.0
O254 O 0.73758 0.21115 0.71921 0.0
Zn255 Zn 0.83358 0.20146 0.7565 0.0
O256 O 0.5856 0.22244 0.73714 0.0
Zn257 Zn 0.67655 0.21311 0.77327 0.0
O258 O 0.80263 0.23016 0.76724 0.0
O259 O 0.95486 0.21814 0.7513 0.0
O260 O 0.66669 0.2152 0.82204 0.0
O261 O 0.82189 0.20404 0.80675 0.0
O262 O 0.82236 0.17608 0.74913 0.0
O263 O 0.66615 0.18677 0.76428 0.0
C264 C 0.9009 0.2316 0.75918 0.0
C265 C 0.7223 0.17391 0.75506 0.0
C266 C 0.32497 0.0493 0.75953 0.0
C267 C 0.50389 0.10691 0.75575 0.0
O268 O 0.42401 0.05038 0.76707 0.0
Zn269 Zn 0.55057 0.06753 0.77308 0.0
O270 O 0.27243 0.06291 0.75184 0.0
Zn271 Zn 0.39487 0.07923 0.75665 0.0
O272 O 0.49068 0.06972 0.71915 0.0
O273 O 0.64215 0.05835 0.73709 0.0
O274 O 0.40447 0.10445 0.74924 0.0
O275 O 0.56112 0.09411 0.76481 0.0
O276 O 0.56177 0.06527 0.82169 0.0
O277 O 0.40811 0.07698 0.80692 0.0
C278 C 0.57884 0.06194 0.71334 0.0
C279 C 0.46926 0.07125 0.82939 0.0
C280 C 0.33736 0.96849 0.46488 0.0
C281 C 0.22197 0.95913 0.58059 0.0
O282 O 0.4002 0.97214 0.48878 0.0
Zn283 Zn 0.30733 0.96291 0.52466 0.0
O284 O 0.24914 0.96066 0.47049 0.0
Zn285 Zn 0.15113 0.95119 0.50738 0.0
O286 O 0.03026 0.9677 0.50156 0.0
O287 O 0.18203 0.97993 0.51784 0.0
O288 O 0.16201 0.95343 0.55772 0.0
O289 O 0.31499 0.96514 0.57342 0.0
O290 O 0.31699 0.93644 0.51598 0.0
O291 O 0.16101 0.92602 0.49961 0.0
C292 C 0.08406 0.98122 0.50933 0.0
C293 C 0.26024 0.92365 0.50643 0.0
C294 C 0.41573 0.81188 0.46356 0.0
C295 C 0.51495 0.8226 0.58051 0.0
O296 O 0.35056 0.80815 0.48678 0.0
Zn297 Zn 0.43638 0.818 0.5238 0.0
O298 O 0.50229 0.81998 0.47013 0.0
Zn299 Zn 0.59437 0.83002 0.50787 0.0
O300 O 0.71711 0.81346 0.50452 0.0
O301 O 0.5646 0.80149 0.52029 0.0
O302 O 0.5765 0.8283 0.5581 0.0
O303 O 0.42341 0.81623 0.57258 0.0
O304 O 0.42577 0.84427 0.5144 0.0
O305 O 0.58218 0.85523 0.49975 0.0
C306 C 0.66419 0.80017 0.51404 0.0
C307 C 0.48168 0.85719 0.50523 0.0
C308 C 0.34212 0.81111 0.32451 0.0
C309 C 0.22863 0.8213 0.20892 0.0
O310 O 0.40592 0.80785 0.3007 0.0
Zn311 Zn 0.314 0.81732 0.26489 0.0
O312 O 0.25433 0.81906 0.31912 0.0
Zn313 Zn 0.15732 0.82889 0.28221 0.0
O314 O 0.03665 0.81211 0.28743 0.0
O315 O 0.18869 0.80024 0.27097 0.0
O316 O 0.16846 0.82684 0.23182 0.0
O317 O 0.32189 0.81542 0.21606 0.0
O318 O 0.32406 0.84362 0.2745 0.0
O319 O 0.16811 0.85418 0.29033 0.0
C320 C 0.09077 0.79872 0.2793 0.0
C321 C 0.26801 0.85639 0.28423 0.0
C322 C 0.67318 0.98017 0.28087 0.0
C323 C 0.48904 0.9231 0.28431 0.0
O324 O 0.7247 0.96646 0.28854 0.0
Zn325 Zn 0.60056 0.95051 0.28337 0.0
O326 O 0.57433 0.97929 0.27304 0.0
Zn327 Zn 0.44614 0.96253 0.26676 0.0
O328 O 0.35546 0.97209 0.30262 0.0
O329 O 0.50611 0.96049 0.32081 0.0
O330 O 0.4329 0.93599 0.27507 0.0
O331 O 0.58848 0.92537 0.29097 0.0
O332 O 0.58839 0.95284 0.23298 0.0
O333 O 0.43621 0.965 0.21816 0.0
C334 C 0.41919 0.96865 0.32635 0.0
C335 C 0.52816 0.95881 0.21047 0.0
C336 C 0.77199 0.57121 0.95728 0.0
C337 C 0.65967 0.56173 0.07298 0.0
O338 O 0.83264 0.57688 0.98001 0.0
Zn339 Zn 0.84449 0.57919 0.03034 0.0
O340 O 0.67893 0.56529 0.96465 0.0
Zn341 Zn 0.68806 0.56762 1.01334 0.0
O342 O 0.67877 0.59415 0.02168 0.0
O343 O 0.83518 0.60443 0.0379 0.0
O344 O 0.59553 0.55845 0.04923 0.0
O345 O 0.74781 0.5696 0.06749 0.0
O346 O 0.96544 0.56264 0.03583 0.0
O347 O 0.8132 0.55043 0.01992 0.0
C348 C 0.73615 0.60692 0.031 0.0
C349 C 0.91138 0.54913 0.02822 0.0
C350 C 0.34693 0.73198 0.02504 0.0
C351 C 0.5206 0.67399 0.02968 0.0
O352 O 0.44483 0.73033 1.01679 0.0
Zn353 Zn 0.56931 0.71306 1.01084 0.0
O354 O 0.29241 0.71863 0.03335 0.0
Zn355 Zn 0.41133 0.70164 0.02782 0.0
O356 O 0.50881 0.71111 0.06481 0.0
O357 O 0.66109 0.72235 0.04704 0.0
O358 O 0.42063 0.67629 0.0355 0.0
O359 O 0.57764 0.68673 0.02022 0.0
O360 O 0.57846 0.7149 0.96202 0.0
O361 O 0.42265 0.70401 0.97762 0.0
C362 C 0.59715 0.71885 0.0707 0.0
C363 C 0.48385 0.70951 0.95497 0.0
C364 C 0.7728 0.70968 0.32614 0.0
C365 C 0.6702 0.71906 0.20973 0.0
O366 O 0.83353 0.7035 0.30402 0.0
Zn367 Zn 0.84714 0.70058 0.25388 0.0
O368 O 0.68058 0.71574 0.31835 0.0
Zn369 Zn 0.69236 0.71322 0.26969 0.0
O370 O 0.67654 0.68684 0.26147 0.0
O371 O 0.83113 0.67531 0.24704 0.0
O372 O 0.60554 0.72289 0.23301 0.0
O373 O 0.75557 0.71062 0.21594 0.0
O374 O 0.97272 0.71638 0.24902 0.0
O375 O 0.82272 0.72947 0.26392 0.0
C376 C 0.73059 0.67364 0.25281 0.0
C377 C 0.92189 0.7302 0.25651 0.0
C378 C 0.50849 0.607 0.255 0.0
C379 C 0.33685 0.54884 0.25856 0.0
O380 O 0.5665 0.59428 0.26387 0.0
Zn381 Zn 0.5595 0.5678 0.27221 0.0
O382 O 0.40885 0.60447 0.24879 0.0
Zn383 Zn 0.40073 0.57918 0.2561 0.0
O384 O 0.41537 0.57685 0.30625 0.0
O385 O 0.57025 0.56554 0.32096 0.0
O386 O 0.28131 0.56218 0.25106 0.0
O387 O 0.43523 0.5505 0.26633 0.0
O388 O 0.64937 0.55883 0.23533 0.0
O389 O 0.49633 0.57006 0.21844 0.0
C390 C 0.47711 0.57126 0.32869 0.0
C391 C 0.58441 0.56244 0.21198 0.0
C392 C 0.21845 0.45966 0.07964 0.0
C393 C 0.33122 0.46911 0.9641 0.0
O394 O 0.31043 0.46594 0.07213 0.0
Zn395 Zn 0.30211 0.46334 0.02358 0.0
O396 O 0.15906 0.45346 0.05709 0.0
Zn397 Zn 0.149 0.45073 1.00671 0.0
O398 O 0.16406 0.42546 0.99971 0.0
O399 O 0.31799 0.43692 1.01533 0.0
O400 O 0.24462 0.46076 0.96943 0.0
O401 O 0.39362 0.47291 0.98801 0.0
O402 O 0.17304 0.47969 1.01656 0.0
O403 O 0.02396 0.46643 1.00084 0.0
C404 C 0.26409 0.42376 1.00615 0.0
C405 C 0.07445 0.4803 1.00839 0.0
C406 C 0.52293 0.32059 0.0799 0.0
C407 C 0.413 0.31246 0.96357 0.0
O408 O 0.42928 0.31502 0.0722 0.0
Zn409 Zn 0.44012 0.31774 0.02358 0.0
O410 O 0.58409 0.32664 0.05774 0.0
Zn411 Zn 0.59619 0.32967 1.00756 0.0
O412 O 0.58633 0.35495 1.00106 0.0
O413 O 0.42951 0.34433 1.01594 0.0
O414 O 0.5007 0.32035 0.96972 0.0
O415 O 0.34948 0.30862 0.98714 0.0
O416 O 0.56689 0.30082 1.01704 0.0
O417 O 0.71843 0.31346 1.00191 0.0
C418 C 0.48671 0.35724 1.00737 0.0
C419 C 0.66573 0.2998 1.00931 0.0
C420 C 0.32975 0.31129 0.82513 0.0
C421 C 0.20936 0.32134 0.71062 0.0
O422 O 0.39108 0.30773 0.80088 0.0
Zn423 Zn 0.29739 0.31743 0.76591 0.0
O424 O 0.24271 0.31956 0.82038 0.0
Zn425 Zn 0.14474 0.32975 0.78403 0.0
O426 O 0.02085 0.3138 0.79025 0.0
O427 O 0.16889 0.30086 0.77311 0.0
O428 O 0.15128 0.32726 0.73366 0.0
O429 O 0.30286 0.31538 0.71713 0.0
O430 O 0.31327 0.34374 0.77496 0.0
O431 O 0.16029 0.35501 0.79157 0.0
C432 C 0.07089 0.30004 0.78187 0.0
C433 C 0.26002 0.3568 0.78478 0.0
C434 C 0.48628 0.42309 0.78345 0.0
C435 C 0.66914 0.48029 0.77975 0.0
O436 O 0.58587 0.42532 0.79 0.0
Zn437 Zn 0.59749 0.45051 0.78253 0.0
O438 O 0.43016 0.43598 0.77427 0.0
Zn439 Zn 0.4426 0.46251 0.76584 0.0
O440 O 0.43328 0.46484 0.71711 0.0
O441 O 0.58537 0.45277 0.73225 0.0
O442 O 0.5702 0.47935 0.77207 0.0
O443 O 0.72101 0.46662 0.78746 0.0
O444 O 0.502 0.46025 0.81989 0.0
O445 O 0.35161 0.47194 0.80183 0.0
C446 C 0.52548 0.45867 0.70962 0.0
C447 C 0.41452 0.46823 0.82563 0.0
C448 C 0.03713 0.05905 0.1225 0.0
C449 C 0.14103 0.0576 0.10974 0.0
C450 C 0.02063 0.05945 0.15644 0.0
C451 C 0.10735 0.05843 0.17894 0.0
H452 H 0.96924 0.06112 0.10633 0.0
H453 H 0.93913 0.06143 0.16503 0.0
S454 S 0.39254 0.0508 0.15747 0.0
N455 N 0.33022 0.05226 0.12186 0.0
N456 N 0.29854 0.05329 0.18564 0.0
C457 C 0.2102 0.05528 0.16642 0.0
C458 C 0.22711 0.05483 0.13182 0.0
C459 C 0.22705 0.22081 0.15435 0.0
C460 C 0.14069 0.22241 0.17684 0.0
C461 C 0.21075 0.22137 0.12038 0.0
C462 C 0.10742 0.22359 0.10757 0.0
H463 H 0.30792 0.21825 0.16294 0.0
H464 H 0.27794 0.21879 0.10423 0.0
S465 S 0.8579 0.23203 0.1552 0.0
N466 N 0.95104 0.22888 0.18343 0.0
N467 N 0.91988 0.23019 0.11962 0.0
C468 C 0.02217 0.22693 0.12964 0.0
C469 C 0.03883 0.2263 0.16426 0.0
C470 C 0.7779 0.97091 0.87224 0.0
C471 C 0.8811 0.97324 0.85941 0.0
C472 C 0.7619 0.97026 0.9062 0.0
C473 C 0.84846 0.97186 0.92867 0.0
H474 H 0.71055 0.96834 0.85609 0.0
H475 H 0.68108 0.96762 0.91478 0.0
S476 S 0.13105 0.98173 0.90699 0.0
N477 N 0.06874 0.97992 0.87142 0.0
N478 N 0.03819 0.97845 0.93523 0.0
C479 C 0.95022 0.97584 0.91608 0.0
C480 C 0.96657 0.97656 0.88146 0.0
C481 C 0.95497 0.80862 0.87257 0.0
C482 C 0.85056 0.80707 0.86014 0.0
C483 C 0.97294 0.80893 0.90646 0.0
C484 C 0.88728 0.80774 0.92925 0.0
H485 H 0.02213 0.81082 0.85619 0.0
H486 H 0.05472 0.81102 0.91479 0.0
S487 S 0.6014 0.79978 0.90876 0.0
N488 N 0.66205 0.80143 0.87292 0.0
N489 N 0.69658 0.80231 0.93661 0.0
C490 C 0.78399 0.80447 0.91708 0.0
C491 C 0.76553 0.80411 0.88252 0.0
C492 C 0.23392 0.5589 0.63222 0.0
C493 C 0.14819 0.55741 0.60945 0.0
C494 C 0.21654 0.55822 0.6661 0.0
C495 C 0.1127 0.556 0.67853 0.0
H496 H 0.3151 0.56149 0.6239 0.0
H497 H 0.28332 0.56073 0.68251 0.0
S498 S 0.86437 0.54781 0.62998 0.0
N499 N 0.95853 0.55102 0.60211 0.0
N500 N 0.92528 0.5495 0.6658 0.0
C501 C 0.02802 0.55275 0.65616 0.0
C502 C 0.04582 0.55349 0.62162 0.0
C503 C 0.02175 0.72189 0.62941 0.0
C504 C 0.1074 0.72203 0.60651 0.0
C505 C 0.04032 0.72196 0.6633 0.0
C506 C 0.14537 0.72219 0.67561 0.0
H507 H 0.93917 0.72081 0.62112 0.0
H508 H 0.97251 0.72065 0.67977 0.0
S509 S 0.3967 0.72596 0.62661 0.0
N510 N 0.30011 0.72477 0.59891 0.0
N511 N 0.33592 0.72528 0.6625 0.0
C512 C 0.23124 0.72403 0.65308 0.0
C513 C 0.21214 0.7239 0.61856 0.0
C514 C 0.79337 0.47295 0.37343 0.0
C515 C 0.89762 0.47329 0.36062 0.0
C516 C 0.7769 0.47264 0.40738 0.0
C517 C 0.86394 0.47264 0.42984 0.0
H518 H 0.7246 0.47169 0.35728 0.0
H519 H 0.69479 0.4715 0.41601 0.0
S520 S 0.15174 0.47719 0.40841 0.0
N521 N 0.08884 0.47654 0.37279 0.0
N522 N 0.05692 0.47565 0.43656 0.0
C523 C 0.96786 0.47471 0.41733 0.0
C524 C 0.98484 0.47507 0.38272 0.0
C525 C 0.75041 0.31026 0.38495 0.0
C526 C 0.8368 0.30843 0.36254 0.0
C527 C 0.76618 0.3095 0.41892 0.0
C528 C 0.869 0.30684 0.43182 0.0
H529 H 0.67003 0.31315 0.3763 0.0
H530 H 0.69916 0.31227 0.43502 0.0
S531 S 0.11799 0.29775 0.38435 0.0
N532 N 0.02563 0.30133 0.35608 0.0
N533 N 0.05579 0.29965 0.41989 0.0
C534 C 0.95407 0.3033 0.4098 0.0
C535 C 0.93795 0.30413 0.37518 0.0
C536 C 0.53578 0.05846 0.62157 0.0
C537 C 0.64065 0.05709 0.60949 0.0
C538 C 0.51681 0.05884 0.6554 0.0
C539 C 0.6019 0.05787 0.67846 0.0
H540 H 0.46898 0.06047 0.60496 0.0
H541 H 0.43469 0.06077 0.66347 0.0
S542 S 0.88894 0.05056 0.65887 0.0
N543 N 0.82914 0.05196 0.62286 0.0
N544 N 0.79282 0.05292 0.6864 0.0
C545 C 0.70577 0.05482 0.66661 0.0
C546 C 0.72522 0.05441 0.63213 0.0
C547 C 0.50854 0.22137 0.63182 0.0
C548 C 0.59554 0.22256 0.60948 0.0
C549 C 0.52444 0.22182 0.66582 0.0
C550 C 0.62803 0.22349 0.67883 0.0
H551 H 0.42736 0.21919 0.62304 0.0
H552 H 0.45639 0.2196 0.68185 0.0
S553 S 0.88008 0.23062 0.63157 0.0
N554 N 0.78667 0.22798 0.60321 0.0
N555 N 0.81717 0.22913 0.66705 0.0
C556 C 0.71432 0.22641 0.65689 0.0
C557 C 0.69802 0.2259 0.62224 0.0
C558 C 0.27421 0.97204 0.40723 0.0
C559 C 0.36017 0.97265 0.43005 0.0
C560 C 0.29215 0.97228 0.37334 0.0
C561 C 0.39683 0.97317 0.36095 0.0
H562 H 0.19202 0.97045 0.41553 0.0
H563 H 0.22445 0.97052 0.35694 0.0
S564 S 0.64765 0.97888 0.40967 0.0
N565 N 0.55203 0.97689 0.43747 0.0
N566 N 0.58655 0.97765 0.37381 0.0
C567 C 0.48255 0.97559 0.38337 0.0
C568 C 0.46411 0.97529 0.41791 0.0
C569 C 0.48364 0.80919 0.40614 0.0
C570 C 0.39676 0.80765 0.42845 0.0
C571 C 0.46795 0.80871 0.37213 0.0
C572 C 0.36473 0.80661 0.35909 0.0
H573 H 0.56445 0.8117 0.41492 0.0
H574 H 0.53565 0.81124 0.35614 0.0
S575 S 0.11373 0.79836 0.40621 0.0
N576 N 0.20653 0.80138 0.43462 0.0
N577 N 0.17653 0.80017 0.37075 0.0
C578 C 0.27885 0.80332 0.38098 0.0
C579 C 0.29489 0.80388 0.41564 0.0
C580 C 0.53363 0.55928 0.12046 0.0
C581 C 0.63703 0.55733 0.10758 0.0
C582 C 0.5176 0.55978 0.15442 0.0
C583 C 0.60432 0.55838 0.17687 0.0
H584 H 0.46598 0.56167 0.10435 0.0
H585 H 0.43655 0.56213 0.16305 0.0
S586 S 0.88766 0.54936 0.15507 0.0
N587 N 0.82523 0.5511 0.11952 0.0
N588 N 0.79454 0.55232 0.18335 0.0
C589 C 0.70639 0.55474 0.16423 0.0
C590 C 0.72279 0.55417 0.12959 0.0
C591 C 0.54705 0.72326 0.16187 0.0
C592 C 0.65106 0.72353 0.17492 0.0
C593 C 0.5312 0.72306 0.12787 0.0
C594 C 0.61866 0.72309 0.1056 0.0
H595 H 0.47796 0.72198 0.17785 0.0
H596 H 0.44926 0.72196 0.11904 0.0
S597 S 0.90611 0.72746 0.12773 0.0
N598 N 0.84256 0.72675 0.1632 0.0
N599 N 0.81179 0.72603 0.09935 0.0
C600 C 0.72237 0.72509 0.11837 0.0
C601 C 0.73871 0.72535 0.15302 0.0
C602 C 0.47766 0.47163 0.88339 0.0
C603 C 0.39208 0.47248 0.86048 0.0
C604 C 0.45939 0.47211 0.91726 0.0
C605 C 0.35474 0.47346 0.92953 0.0
H606 H 0.55964 0.46971 0.87518 0.0
H607 H 0.52657 0.47018 0.93376 0.0
S608 S 0.10528 0.47966 0.88055 0.0
N609 N 0.20088 0.47728 0.85285 0.0
N610 N 0.16587 0.47841 0.91647 0.0
C611 C 0.26965 0.47601 0.90702 0.0
C612 C 0.28839 0.4755 0.8725 0.0
C613 C 0.45889 0.30915 0.87184 0.0
C614 C 0.35491 0.30685 0.85951 0.0
C615 C 0.47683 0.30984 0.90572 0.0
C616 C 0.39153 0.30829 0.92858 0.0
H617 H 0.52533 0.31169 0.85537 0.0
H618 H 0.55812 0.31247 0.91394 0.0
S619 S 0.10749 0.29857 0.90827 0.0
N620 N 0.16781 0.3003 0.87241 0.0
N621 N 0.20205 0.30182 0.93606 0.0
C622 C 0.28899 0.30434 0.91649 0.0
C623 C 0.27064 0.30359 0.88196 0.0
C624 C 0.39885 0.01841 0.03289 0.0
C625 C 0.46606 0.03297 0.02839 0.0
C626 C 0.43342 1.00172 0.02514 0.0
C627 C 0.53663 0.99897 1.01261 0.0
H628 H 0.3178 0.01996 0.04219 0.0
H629 H 0.38033 0.99091 0.02989 0.0
S630 S 0.74283 0.03264 0.9953 0.0
N631 N 0.63962 0.04348 1.01019 0.0
N632 N 0.70558 1.0122 0.99524 0.0
C633 C 0.60461 1.01343 1.00784 0.0
C634 C 0.56945 0.03039 1.016 0.0
C635 C 0.64583 0.26792 1.00814 0.0
C636 C 0.71361 0.28247 1.01214 0.0
C637 C 0.68056 0.25123 1.01583 0.0
C638 C 0.78441 0.24848 0.02788 0.0
H639 H 0.56442 0.26946 0.9991 0.0
H640 H 0.62723 0.24042 1.01129 0.0
S641 S 0.99162 0.28214 0.04443 0.0
N642 N 0.88804 0.29297 0.02977 0.0
N643 N 0.95401 0.26171 0.04476 0.0
C644 C 0.85256 0.26295 0.03248 0.0
C645 C 0.81736 0.27989 0.0243 0.0
C646 C 0.55401 0.25162 0.2758 0.0
C647 C 0.45747 0.24869 0.25907 0.0
C648 C 0.5847 0.26841 0.28453 0.0
C649 C 0.52 0.28285 0.2769 0.0
H650 H 0.60401 0.24089 0.28322 0.0
H651 H 0.66079 0.27015 0.29711 0.0
S652 S 0.26268 0.282 0.23145 0.0
N653 N 0.29879 0.26157 0.234 0.0
N654 N 0.35786 0.29308 0.25037 0.0
C655 C 0.42394 0.28009 0.25992 0.0
C656 C 0.39278 0.26303 0.25086 0.0
C657 C 0.65677 1.01199 0.28424 0.0
C658 C 0.72221 0.99743 0.27816 0.0
C659 C 0.69051 0.0287 0.27616 0.0
C660 C 0.79107 0.03143 0.26171 0.0
H661 H 0.57777 1.01042 0.29507 0.0
H662 H 0.6392 0.03952 0.2822 0.0
S663 S 0.9904 0.99773 0.23908 0.0
N664 N 0.89012 0.98687 0.25578 0.0
N665 N 0.95491 0.01822 0.24058 0.0
C666 C 0.85697 0.01697 0.25522 0.0
C667 C 0.82258 0.99999 0.2636 0.0
C668 C 0.1916 0.752 1.01695 0.0
C669 C 0.30158 0.74957 0.02236 0.0
C670 C 0.15071 0.76848 1.01078 0.0
C671 C 0.21791 0.78325 1.00996 0.0
H672 H 0.13705 0.74108 1.01679 0.0
H673 H 0.0648 0.76963 1.00686 0.0
S674 S 0.5122 0.78393 0.02323 0.0
N675 N 0.47797 0.76345 0.02693 0.0
N676 N 0.39945 0.79432 1.01526 0.0
C677 C 0.32804 0.78103 1.01514 0.0
C678 C 0.37009 0.76425 0.02152 0.0
C679 C 0.43356 0.77842 0.76141 0.0
C680 C 0.52986 0.78132 0.7783 0.0
C681 C 0.40342 0.76167 0.75223 0.0
C682 C 0.46844 0.74723 0.75957 0.0
H683 H 0.38321 0.78917 0.75426 0.0
H684 H 0.32743 0.75994 0.73959 0.0
S685 S 0.72522 0.74798 0.80533 0.0
N686 N 0.68866 0.76841 0.80318 0.0
N687 N 0.63059 0.73695 0.78605 0.0
C688 C 0.56432 0.74996 0.7767 0.0
C689 C 0.59495 0.76699 0.78618 0.0
C690 C 0.30713 1.00071 0.76478 0.0
C691 C 0.20731 0.99805 0.77977 0.0
C692 C 0.34115 0.01741 0.7566 0.0
C693 C 0.27643 0.03203 0.76294 0.0
H694 H 0.35735 0.98983 0.75827 0.0
H695 H 0.41947 0.01892 0.7453 0.0
S696 S 0.01129 0.03194 0.80396 0.0
N697 N 0.04589 1.01141 0.80215 0.0
N698 N 0.11066 0.04272 0.78657 0.0
C699 C 0.17717 0.02954 0.77826 0.0
C700 C 0.14278 1.01258 0.78686 0.0
C701 C 0.44337 0.50207 0.52448 0.0
C702 C 0.54694 0.49944 0.51218 0.0
C703 C 0.40821 0.51869 0.53238 0.0
C704 C 0.475 0.53333 0.52815 0.0
H705 H 0.39035 0.49121 0.52891 0.0
H706 H 0.32682 0.52013 0.54148 0.0
S707 S 0.75314 0.53328 0.49614 0.0
N708 N 0.71645 0.51281 0.49574 0.0
N709 N 0.64901 0.54402 0.5107 0.0
C710 C 0.57896 0.53086 0.51612 0.0
C711 C 0.6149 0.51394 0.50792 0.0
C712 C 0.79795 0.77722 0.49988 0.0
C713 C 0.7111 0.78283 0.51876 0.0
C714 C 0.83261 0.76007 0.50167 0.0
C715 C 0.78205 0.74788 0.52245 0.0
H716 H 0.83741 0.78595 0.48303 0.0
H717 H 0.89984 0.75633 0.48637 0.0
S718 S 0.55571 0.7565 0.57872 0.0
N719 N 0.57841 0.7751 0.56045 0.0
N720 N 0.64384 0.74289 0.56311 0.0
C721 C 0.69606 0.75338 0.54173 0.0
C722 C 0.661 0.77086 0.54016 0.0
C723 C 0.68714 0.5288 0.77466 0.0
C724 C 0.78478 0.53142 0.75838 0.0
C725 C 0.65437 0.51212 0.7834 0.0
C726 C 0.71818 0.4975 0.77632 0.0
H727 H 0.63783 0.53969 0.78171 0.0
H728 H 0.57751 0.51061 0.7956 0.0
S729 S 0.97767 0.49753 0.7321 0.0
N730 N 0.94334 0.51806 0.73423 0.0
N731 N 0.88065 0.48676 0.75071 0.0
C732 C 0.81533 0.49996 0.75977 0.0
C733 C 0.84849 0.51689 0.75066 0.0
C734 C 0.2926 0.27709 0.50763 0.0
C735 C 0.1868 0.28072 0.5168 0.0
C736 C 0.33425 0.26045 0.51108 0.0
C737 C 0.27209 0.24667 0.52391 0.0
H738 H 0.34377 0.28712 0.4977 0.0
H739 H 0.41675 0.25849 0.50344 0.0
S740 S 0.98961 0.24929 0.55174 0.0
N741 N 0.01936 0.26899 0.53951 0.0
N742 N 0.09954 0.23785 0.54572 0.0
C743 C 0.16613 0.25007 0.53312 0.0
C744 C 0.12316 0.26703 0.52965 0.0
C745 C 0.15288 0.51197 0.28119 0.0
C746 C 0.21991 0.49735 0.27751 0.0
C747 C 0.18833 0.52858 0.2732 0.0
C748 C 0.29251 0.53123 0.26136 0.0
H749 H 0.07111 0.51053 0.28999 0.0
H750 H 0.13499 0.53941 0.2772 0.0
S751 S 0.49954 0.49742 0.24672 0.0
N752 N 0.39481 0.4867 0.26103 0.0
N753 N 0.46272 0.51786 0.24578 0.0
C754 C 0.36064 0.51673 0.25756 0.0
C755 C 0.32439 0.49983 0.26589 0.0
C756 C 0.93831 1.0014 0.52612 0.0
C757 C 0.03836 0.99869 0.51137 0.0
C758 C 0.90495 0.01811 0.53426 0.0
C759 C 0.97038 0.03268 0.528 0.0
H760 H 0.88722 0.99057 0.53238 0.0
H761 H 0.82626 0.01968 0.54528 0.0
S762 S 0.23723 0.03242 0.48807 0.0
N763 N 0.20162 1.01191 0.48973 0.0
N764 N 0.13761 0.04328 0.50506 0.0
C765 C 0.07023 0.03014 0.51312 0.0
C766 C 0.10416 1.01316 0.50465 0.0
C767 C 0.05093 0.25158 0.7743 0.0
C768 C 0.94685 0.24911 0.76213 0.0
C769 C 0.08713 0.26814 0.78265 0.0
C770 C 0.02075 0.28284 0.77914 0.0
H771 H 0.10352 0.24066 0.77829 0.0
H772 H 0.16881 0.26948 0.79162 0.0
S773 S 0.74213 0.28324 0.74739 0.0
N774 N 0.77796 0.26276 0.74618 0.0
N775 N 0.84691 0.29377 0.76229 0.0
C776 C 0.91651 0.28052 0.76714 0.0
C777 C 0.8797 0.26371 0.75835 0.0
C778 C 0.94087 0.77864 0.26483 0.0
C779 C 0.0454 0.78117 0.27653 0.0
C780 C 0.90486 0.76209 0.2565 0.0
C781 C 0.97175 0.74742 0.25964 0.0
H782 H 0.88778 0.78953 0.26112 0.0
H783 H 0.8229 0.76075 0.24776 0.0
S784 S 0.252 0.74719 0.29005 0.0
N785 N 0.21551 0.76763 0.29162 0.0
N786 N 0.14681 0.73659 0.27558 0.0
C787 C 0.07647 0.74978 0.27122 0.0
C788 C 0.11317 0.76661 0.27995 0.0
C789 C 0.08944 0.51205 1.00337 0.0
C790 C 0.02475 0.4975 1.01046 0.0
C791 C 0.05618 0.52882 1.01113 0.0
C792 C 0.95691 0.53163 0.0263 0.0
H793 H 0.16762 0.51042 0.99205 0.0
H794 H 0.10679 0.53962 1.00431 0.0
S795 S 0.75998 0.49803 0.05164 0.0
N796 N 0.85894 0.48705 0.03456 0.0
N797 N 0.795 0.51853 0.0491 0.0
C798 C 0.89169 0.51719 0.03375 0.0
C799 C 0.92559 0.50014 0.02571 0.0
C800 C 0.26175 0.07244 0.89823 0.0
C801 C 0.32309 0.0695 0.92638 0.0
C802 C 0.31064 0.07296 0.86725 0.0
C803 C 0.42279 0.07034 0.86302 0.0
H804 H 0.17623 0.07491 0.90021 0.0
H805 H 0.25928 0.07551 0.84639 0.0
S806 S 0.61693 0.06029 0.92902 0.0
N807 N 0.5008 0.06265 0.9481 0.0
N808 N 0.59147 0.06352 0.88984 0.0
C809 C 0.48405 0.06668 0.89092 0.0
C810 C 0.43455 0.06629 0.92253 0.0
C811 C 0.8064 0.20479 0.92071 0.0
C812 C 0.91602 0.20958 0.92465 0.0
C813 C 0.75391 0.20568 0.89028 0.0
C814 C 0.80908 0.2112 0.86238 0.0
H815 H 0.75985 0.20022 0.94136 0.0
H816 H 0.67103 0.20144 0.88839 0.0
S817 S 0.09273 0.22655 0.8591 0.0
N818 N 0.07476 0.22109 0.89779 0.0
N819 N 0.97717 0.22258 0.84057 0.0
C820 C 0.91751 0.21647 0.86594 0.0
C821 C 0.97071 0.2157 0.89699 0.0
C822 C 0.31163 0.20541 0.42006 0.0
C823 C 0.42206 0.20961 0.42435 0.0
C824 C 0.26034 0.20656 0.38947 0.0
C825 C 0.3175 0.21178 0.36174 0.0
H826 H 0.26344 0.20108 0.44055 0.0
H827 H 0.17676 0.20273 0.38734 0.0
S828 S 0.60428 0.2256 0.35936 0.0
N829 N 0.58389 0.22028 0.398 0.0
N830 N 0.48859 0.22225 0.34046 0.0
C831 C 0.42681 0.2165 0.36565 0.0
C832 C 0.47879 0.21547 0.39689 0.0
C833 C 0.93772 0.07471 0.42204 0.0
C834 C 0.82782 0.07019 0.42626 0.0
C835 C 0.98867 0.07388 0.39139 0.0
C836 C 0.93162 0.06866 0.36358 0.0
H837 H 0.98563 0.07906 0.44263 0.0
H838 H 0.0718 0.07795 0.38929 0.0
S839 S 0.6466 0.05393 0.36106 0.0
N840 N 0.66687 0.05915 0.39979 0.0
N841 N 0.76162 0.05774 0.34217 0.0
C842 C 0.82299 0.06358 0.36744 0.0
C843 C 0.77136 0.0643 0.39871 0.0
C844 C 0.7353 0.95629 0.14155 0.0
C845 C 0.67755 0.96154 0.11394 0.0
C846 C 0.68519 0.95537 0.17232 0.0
C847 C 0.57544 0.95983 0.1769 0.0
H848 H 0.81835 0.95227 0.13919 0.0
H849 H 0.73367 0.951 0.19272 0.0
S850 S 0.39251 0.97612 0.11234 0.0
N851 N 0.50699 0.97242 0.09311 0.0
N852 N 0.41381 0.97084 0.15096 0.0
C853 C 0.51824 0.96574 0.14955 0.0
C854 C 0.56903 0.96656 0.11816 0.0
C855 C 0.0164 0.82251 0.14124 0.0
C856 C 0.07527 0.81916 0.11279 0.0
C857 C 0.0677 0.82321 0.17188 0.0
C858 C 0.17993 0.82038 0.17549 0.0
H859 H 0.93101 0.82518 0.13974 0.0
H860 H 0.0181 0.82608 0.19298 0.0
S861 S 0.36797 0.80927 0.10841 0.0
N862 N 0.25057 0.81174 0.09008 0.0
N863 N 0.34591 0.81291 0.14768 0.0
C864 C 0.23873 0.81633 0.14727 0.0
C865 C 0.18672 0.81577 0.11599 0.0
C866 C 0.72201 0.82548 0.64946 0.0
C867 C 0.66564 0.81967 0.67691 0.0
C868 C 0.67106 0.82661 0.61885 0.0
C869 C 0.56181 0.82177 0.61419 0.0
H870 H 0.80473 0.82973 0.65184 0.0
H871 H 0.71876 0.83138 0.59861 0.0
S872 S 0.38215 0.8042 0.67838 0.0
N873 N 0.49658 0.8081 0.69761 0.0
N874 N 0.40199 0.80994 0.63993 0.0
C875 C 0.50581 0.8154 0.6414 0.0
C876 C 0.5574 0.81442 0.6727 0.0
C877 C 0.06221 0.95631 0.61782 0.0
C878 C 0.17351 0.95995 0.61402 0.0
C879 C 0.01109 0.95695 0.64845 0.0
C880 C 0.06931 0.96105 0.67672 0.0
H881 H 0.01318 0.95284 0.59688 0.0
H882 H 0.92653 0.95366 0.65013 0.0
S883 S 0.359 0.97316 0.68055 0.0
N884 N 0.33759 0.96895 0.64144 0.0
N885 N 0.24258 0.96999 0.69906 0.0
C886 C 0.17968 0.96522 0.67333 0.0
C887 C 0.23148 0.96472 0.64205 0.0
C888 C 0.26857 0.57191 0.39731 0.0
C889 C 0.3296 0.569 0.42552 0.0
C890 C 0.31794 0.57259 0.36641 0.0
C891 C 0.43035 0.57018 0.3623 0.0
H892 H 0.18289 0.57425 0.39918 0.0
H893 H 0.26671 0.57513 0.34552 0.0
S894 S 0.62397 0.56028 0.42853 0.0
N895 N 0.50736 0.5624 0.44745 0.0
N896 N 0.59899 0.56355 0.38933 0.0
C897 C 0.49137 0.56653 0.39026 0.0
C898 C 0.44133 0.56599 0.42181 0.0
C899 C 0.76106 0.70653 0.38729 0.0
C900 C 0.81994 0.71107 0.35944 0.0
C901 C 0.8114 0.70553 0.41805 0.0
C902 C 0.92248 0.70922 0.42234 0.0
H903 H 0.67675 0.70315 0.38515 0.0
H904 H 0.76202 0.70175 0.43866 0.0
S905 S 0.10945 0.72334 0.35712 0.0
N906 N 0.99361 0.72038 0.3381 0.0
N907 N 0.08703 0.71865 0.39592 0.0
C908 C 0.98102 0.71439 0.39476 0.0
C909 C 0.93006 0.71528 0.36338 0.0
C910 C 0.49138 0.70581 0.89389 0.0
C911 C 0.43516 0.71089 0.92189 0.0
C912 C 0.43925 0.70485 0.86341 0.0
C913 C 0.32887 0.70912 0.85951 0.0
H914 H 0.57493 0.70196 0.8957 0.0
H915 H 0.48674 0.70064 0.84269 0.0
S916 S 0.14921 0.72495 0.9253 0.0
N917 N 0.26521 0.72142 0.94382 0.0
N918 N 0.16825 0.71977 0.8865 0.0
C919 C 0.2731 0.71486 0.88725 0.0
C920 C 0.32596 0.71571 0.91836 0.0
C921 C 0.98161 0.5729 0.88905 0.0
C922 C 0.92237 0.56901 0.86088 0.0
C923 C 0.93124 0.57363 0.91979 0.0
C924 C 0.81965 0.57029 0.92377 0.0
H925 H 0.06652 0.57593 0.88724 0.0
H926 H 0.98107 0.57692 0.94065 0.0
S927 S 0.63128 0.55773 0.85755 0.0
N928 N 0.74763 0.5606 0.83883 0.0
N929 N 0.65401 0.56182 0.89665 0.0
C930 C 0.76056 0.56574 0.89583 0.0
C931 C 0.81161 0.56515 0.86445 0.0
C932 C 0.73577 0.45682 0.64154 0.0
C933 C 0.67735 0.46099 0.6134 0.0
C934 C 0.68492 0.45605 0.67221 0.0
C935 C 0.57364 0.45963 0.67617 0.0
H936 H 0.82029 0.45356 0.63974 0.0
H937 H 0.73412 0.45255 0.69305 0.0
S938 S 0.38772 0.47307 0.61008 0.0
N939 N 0.50393 0.47001 0.59142 0.0
N940 N 0.40945 0.46869 0.64908 0.0
C941 C 0.51551 0.4645 0.64829 0.0
C942 C 0.56705 0.46514 0.61698 0.0
C943 C 0.16709 0.3244 0.61865 0.0
C944 C 0.05468 0.32171 0.61499 0.0
C945 C 0.21818 0.32359 0.64929 0.0
C946 C 0.15892 0.32031 0.67769 0.0
H947 H 0.21706 0.32715 0.59758 0.0
H948 H 0.30386 0.32607 0.65082 0.0
S949 S 0.86513 0.31107 0.68185 0.0
N950 N 0.88783 0.31463 0.64263 0.0
N951 N 0.98264 0.31328 0.70028 0.0
C952 C 0.04708 0.31717 0.67444 0.0
C953 C 0.99533 0.31783 0.64315 0.0
C954 C 0.5085 0.32218 0.14124 0.0
C955 C 0.56995 0.31899 0.11323 0.0
C956 C 0.55708 0.32276 0.17228 0.0
C957 C 0.66903 0.31999 0.17673 0.0
H958 H 0.42323 0.32482 0.13909 0.0
H959 H 0.50564 0.32553 0.19302 0.0
S960 S 0.86304 0.30916 0.11121 0.0
N961 N 0.74733 0.31165 0.0919 0.0
N962 N 0.83741 0.31265 0.1503 0.0
C963 C 0.73028 0.31602 0.149 0.0
C964 C 0.68109 0.31556 0.11731 0.0
C965 C 0.00921 0.4582 0.14805 0.0
C966 C 0.06947 0.46168 0.17623 0.0
C967 C 0.05891 0.45761 0.11717 0.0
C968 C 0.17075 0.46068 0.11311 0.0
H969 H 0.92412 0.45532 0.14996 0.0
H970 H 0.00855 0.45462 0.09627 0.0
S971 S 0.36166 0.47223 0.17923 0.0
N972 N 0.24545 0.46954 0.19812 0.0
N973 N 0.33766 0.46854 0.14009 0.0
C974 C 0.23072 0.46491 0.14102 0.0
C975 C 0.18042 0.46537 0.17251 0.0
C976 C 0.01139 0.14118 0.03256 0.0
C977 C 0.06723 0.15681 0.03609 0.0
C978 C 0.06648 0.12537 0.03201 0.0
C979 C 0.17978 0.12444 0.03528 0.0
H980 H 0.92497 0.14118 0.02911 0.0
H981 H 0.0193 0.11375 0.02855 0.0
S982 S 0.36256 0.16163 0.04859 0.0
N983 N 0.24191 0.17033 0.04538 0.0
N984 N 0.34438 0.14066 0.04439 0.0
C985 C 0.23599 0.13994 0.0402 0.0
C986 C 0.18006 0.15606 0.04057 0.0
C987 C 0.23089 0.14136 0.25704 0.0
C988 C 0.17392 0.15683 0.25344 0.0
C989 C 0.177 0.12542 0.25799 0.0
C990 C 0.06365 0.12418 0.25508 0.0
H991 H 0.31748 0.14157 0.26013 0.0
H992 H 0.2252 0.11395 0.2614 0.0
S993 S 0.87765 0.16084 0.24202 0.0
N994 N -0.00223 0.16986 0.24467 0.0
N995 N 0.89754 0.13994 0.24643 0.0
C996 C 0.00616 0.13951 0.25023 0.0
C997 C 0.06087 0.15579 0.24943 0.0
C998 C 0.97467 0.88934 1.00645 0.0
C999 C 0.91809 0.87371 1.00462 0.0
C1000 C 0.92022 0.90519 1.00698 0.0
C1001 C 0.80656 0.90618 1.0054 0.0
H1002 H 0.06163 0.88935 1.00841 0.0
H1003 H 0.9683 0.9168 1.009 0.0
S1004 S 0.62071 0.86899 0.99725 0.0
N1005 N 0.74151 0.86022 0.99899 0.0
N1006 N 0.64017 0.89 0.99994 0.0
C1007 C 0.74919 0.89067 1.00231 0.0
C1008 C 0.80452 0.87448 1.00196 0.0
C1009 C 0.91849 0.87511 0.78367 0.0
C1010 C 0.80504 0.87403 0.78634 0.0
C1011 C 0.97309 0.89101 0.78396 0.0
C1012 C 0.91675 0.9066 0.78661 0.0
H1013 H 0.96625 0.86354 0.7809 0.0
H1014 H 0.05973 0.89108 0.78108 0.0
S1015 S 0.62046 0.91108 0.79715 0.0
N1016 N 0.63952 0.89009 0.79385 0.0
N1017 N 0.741 0.91993 0.79433 0.0
C1018 C 0.80361 0.90573 0.79044 0.0
C1019 C 0.74816 0.8895 0.79035 0.0
C1020 C 0.17541 0.65503 0.53043 0.0
C1021 C 0.06191 0.65588 0.53294 0.0
C1022 C 0.23079 0.63926 0.53118 0.0
C1023 C 0.17521 0.62359 0.53417 0.0
H1024 H 0.2226 0.66667 0.52746 0.0
H1025 H 0.31748 0.63935 0.52841 0.0
S1026 S 0.87907 0.61857 0.54442 0.0
N1027 N 0.89705 0.63956 0.54063 0.0
N1028 N 0.00013 0.60994 0.54199 0.0
C1029 C 0.06199 0.62425 0.53783 0.0
C1030 C 0.00573 0.64035 0.53726 0.0
C1031 C 0.07208 0.65426 0.75334 0.0
C1032 C 0.18537 0.6553 0.75013 0.0
C1033 C 0.01725 0.63838 0.75311 0.0
C1034 C 0.07328 0.62279 0.74998 0.0
H1035 H 0.0247 0.66585 0.7565 0.0
H1036 H 0.93079 0.63832 0.75646 0.0
S1037 S 0.36877 0.61821 0.73785 0.0
N1038 N 0.35024 0.63919 0.74154 0.0
N1039 N 0.24825 0.6094 0.74117 0.0
C1040 C 0.18614 0.62363 0.74558 0.0
C1041 C 0.24182 0.63982 0.74561 0.0
C1042 C 0.92539 0.405 0.5069 0.0
C1043 C 0.81245 0.40643 0.5031 0.0
C1044 C 0.978 0.38898 0.50602 0.0
C1045 C 0.91989 0.37365 0.50157 0.0
H1046 H 0.9742 0.41637 0.51116 0.0
H1047 H 0.06409 0.38858 0.51009 0.0
S1048 S 0.62494 0.37017 0.48695 0.0
N1049 N 0.64603 0.39101 0.4922 0.0
N1050 N 0.74395 0.36094 0.49054 0.0
C1051 C 0.80761 0.3749 0.49635 0.0
C1052 C 0.75417 0.39123 0.49709 0.0
C1053 C 0.9193 0.37537 0.28238 0.0
C1054 C 0.80581 0.37452 0.28515 0.0
C1055 C 0.97501 0.39117 0.28265 0.0
C1056 C 0.91983 0.40685 0.2854 0.0
H1057 H 0.96617 0.36371 0.2796 0.0
H1058 H 0.06165 0.39107 0.27974 0.0
S1059 S 0.62392 0.41191 0.29604 0.0
N1060 N 0.64146 0.3909 0.2927 0.0
N1061 N 0.7451 0.42053 0.29318 0.0
C1062 C 0.80663 0.40621 0.28924 0.0
C1063 C 0.75007 0.39009 0.28914 0.0
C1064 C 0.5701 0.12477 0.53227 0.0
C1065 C 0.68341 0.12394 0.53551 0.0
C1066 C 0.51473 0.14055 0.53244 0.0
C1067 C 0.5702 0.15623 0.53553 0.0
H1068 H 0.52314 0.11311 0.52915 0.0
H1069 H 0.42825 0.14046 0.52909 0.0
S1070 S 0.86556 0.16131 0.54767 0.0
N1071 N 0.84778 0.1403 0.54405 0.0
N1072 N 0.74469 0.16992 0.54432 0.0
C1073 C 0.68311 0.1556 0.53995 0.0
C1074 C 0.73934 0.1395 0.53998 0.0
C1075 C 0.67045 0.12543 0.75663 0.0
C1076 C 0.55732 0.12415 0.7531 0.0
C1077 C 0.72423 0.1414 0.75595 0.0
C1078 C 0.66725 0.15685 0.75199 0.0
H1079 H 0.7185 0.11397 0.76041 0.0
H1080 H 0.81056 0.14166 0.7596 0.0
S1081 S 0.37184 0.16076 0.73872 0.0
N1082 N 0.39167 0.13987 0.74333 0.0
N1083 N 0.49166 0.16981 0.74207 0.0
C1084 C 0.55459 0.15576 0.74727 0.0
C1085 C 0.5 0.13947 0.74779 0.0
C1086 C 0.42749 0.90548 0.5072 0.0
C1087 C 0.31438 0.90653 0.50346 0.0
C1088 C 0.4821 0.88964 0.50633 0.0
C1089 C 0.42598 0.87411 0.50197 0.0
H1090 H 0.47489 0.91701 0.51133 0.0
H1091 H 0.56831 0.88954 0.51026 0.0
S1092 S 0.13124 0.86965 0.48777 0.0
N1093 N 0.14979 0.89056 0.49288 0.0
N1094 N 0.25144 0.86082 0.49125 0.0
C1095 C 0.31343 0.87498 0.49691 0.0
C1096 C 0.25796 0.89114 0.49763 0.0
C1097 C 0.3216 0.90479 0.28272 0.0
C1098 C 0.43453 0.90594 0.28691 0.0
C1099 C 0.26707 0.88888 0.28328 0.0
C1100 C 0.32319 0.87339 0.28773 0.0
H1101 H 0.27434 0.91629 0.27848 0.0
H1102 H 0.18104 0.8887 0.27904 0.0
S1103 S 0.61728 0.86918 0.30301 0.0
N1104 N 0.59876 0.89008 0.29799 0.0
N1105 N 0.49731 0.86025 0.29899 0.0
C1106 C 0.43546 0.87437 0.29319 0.0
C1107 C 0.49082 0.89058 0.2928 0.0
C1108 C 0.51729 0.6415 0.02941 0.0
C1109 C 0.57474 0.65694 0.03333 0.0
C1110 C 0.57043 0.6255 0.02925 0.0
C1111 C 0.68333 0.6242 0.03332 0.0
H1112 H 0.43118 0.64177 0.02533 0.0
H1113 H 0.52208 0.61404 0.02543 0.0
S1114 S 0.86952 0.66081 0.04806 0.0
N1115 N 0.75028 0.66989 0.04395 0.0
N1116 N 0.8491 0.6399 0.04368 0.0
C1117 C 0.74102 0.63952 0.03868 0.0
C1118 C 0.68707 0.65583 0.03865 0.0
C1119 C 0.7299 0.64119 0.25291 0.0
C1120 C 0.67332 0.65675 0.25041 0.0
C1121 C 0.67545 0.6253 0.25384 0.0
C1122 C 0.56183 0.62421 0.25202 0.0
H1123 H 0.81678 0.64126 0.25514 0.0
H1124 H 0.72348 0.61375 0.25639 0.0
S1125 S 0.37613 0.66118 0.24215 0.0
N1126 N 0.49686 0.67005 0.24387 0.0
N1127 N 0.39557 0.64021 0.24559 0.0
C1128 C 0.50453 0.63964 0.24823 0.0
C1129 C 0.55984 0.65587 0.24746 0.0
C1130 C 0.26477 0.39127 1.00638 0.0
C1131 C 0.32118 0.40689 1.00366 0.0
C1132 C 0.31935 0.37542 1.00713 0.0
C1133 C 0.43286 0.37442 1.00486 0.0
H1134 H 0.178 0.39129 1.00892 0.0
H1135 H 0.27155 0.36382 1.00985 0.0
S1136 S 0.61786 0.41155 0.9943 0.0
N1137 N 0.49717 0.42032 0.9965 0.0
N1138 N 0.5987 0.39057 0.99782 0.0
C1139 C 0.4899 0.38991 1.0009 0.0
C1140 C 0.43447 0.40609 1.00034 0.0
C1141 C 0.3177 0.40509 0.78401 0.0
C1142 C 0.43128 0.40599 0.78628 0.0
C1143 C 0.26216 0.38928 0.7848 0.0
C1144 C 0.31773 0.37363 0.78756 0.0
H1145 H 0.27061 0.41673 0.78119 0.0
H1146 H 0.17542 0.38933 0.78218 0.0
S1147 S 0.61409 0.36872 0.79712 0.0
N1148 N 0.59617 0.38971 0.7935 0.0
N1149 N 0.49288 0.36005 0.79491 0.0
C1150 C 0.43101 0.37434 0.79099 0.0
C1151 C 0.48741 0.39046 0.79039 0.0
loop_
_geom_bond_atom_site_label_1
_geom_bond_atom_site_label_2
_geom_bond_distance
_geom_bond_site_symmetry_2
_ccdc_geom_bond_type
C0 O2 1.247 1_554 S
C0 O4 1.258 . S
C1 O8 1.246 . S
C1 O9 1.259 1_554 S
O2 C0 1.247 1_556 S
O2 Zn3 2.028 . S
Zn3 O2 2.028 . S
Zn3 O7 2.035 1_556 S
Zn3 O9 2.035 . S
Zn3 O10 2.028 . S
O4 C0 1.258 . S
O4 Zn5 2.035 . S
Zn5 O4 2.035 . S
Zn5 O6 2.028 . S
Zn5 O8 2.028 . S
Zn5 O11 2.035 1_554 S
O6 Zn5 2.028 . S
O6 C12 1.247 . S
O7 Zn3 2.035 1_554 S
O7 C12 1.258 . S
O8 C1 1.246 . S
O8 Zn5 2.028 . S
O9 C1 1.259 1_556 S
O9 Zn3 2.035 . S
O10 Zn3 2.028 . S
O10 C13 1.247 . S
O11 Zn5 2.035 1_556 S
O11 C13 1.258 . S
C12 O6 1.247 . S
C12 O7 1.258 . S
C13 O10 1.247 . S
C13 O11 1.258 . S
C14 O16 1.247 1_554 S
C14 O18 1.258 . S
C15 O22 1.246 1_455 S
C15 O23 1.259 1_554 S
O16 C14 1.247 1_556 S
O16 Zn17 2.028 1_655 S
Zn17 O16 2.028 1_455 S
Zn17 O21 2.035 1_556 S
Zn17 O23 2.035 . S
Zn17 O24 2.028 . S
O18 C14 1.258 . S
O18 Zn19 2.035 . S
Zn19 O18 2.035 . S
Zn19 O20 2.028 . S
Zn19 O22 2.028 . S
Zn19 O25 2.035 1_554 S
O20 Zn19 2.028 . S
O20 C26 1.247 1_655 S
O21 Zn17 2.035 1_554 S
O21 C26 1.258 . S
O22 C15 1.246 1_655 S
O22 Zn19 2.028 . S
O23 C15 1.259 1_556 S
O23 Zn17 2.035 . S
O24 Zn17 2.028 . S
O24 C27 1.247 1_455 S
O25 Zn19 2.035 1_556 S
O25 C27 1.258 . S
C26 O20 1.247 1_455 S
C26 O21 1.258 . S
C27 O24 1.247 1_655 S
C27 O25 1.258 . S
C28 O30 1.247 . S
C28 O32 1.258 . S
C29 O36 1.247 . S
C29 O37 1.258 . S
O30 C28 1.247 . S
O30 Zn31 2.028 . S
Zn31 O30 2.028 . S
Zn31 O35 2.035 . S
Zn31 O37 2.035 . S
Zn31 O38 2.028 . S
O32 C28 1.258 . S
O32 Zn33 2.035 . S
Zn33 O32 2.035 . S
Zn33 O34 2.028 . S
Zn33 O36 2.028 . S
Zn33 O39 2.035 . S
O34 Zn33 2.028 . S
O34 C40 1.247 . S
O35 Zn31 2.035 . S
O35 C40 1.258 . S
O36 C29 1.247 . S
O36 Zn33 2.028 . S
O37 C29 1.258 . S
O37 Zn31 2.035 . S
O38 Zn31 2.028 . S
O38 C41 1.247 . S
O39 Zn33 2.035 . S
O39 C41 1.258 . S
C40 O34 1.247 . S
C40 O35 1.258 . S
C41 O38 1.247 . S
C41 O39 1.258 . S
C42 O44 1.247 . S
C42 O46 1.258 1_455 S
C43 O50 1.247 . S
C43 O51 1.258 . S
O44 C42 1.247 . S
O44 Zn45 2.028 . S
Zn45 O44 2.028 . S
Zn45 O49 2.035 . S
Zn45 O51 2.035 1_455 S
Zn45 O52 2.028 . S
O46 C42 1.258 1_655 S
O46 Zn47 2.035 . S
Zn47 O46 2.035 . S
Zn47 O48 2.028 . S
Zn47 O50 2.028 . S
Zn47 O53 2.035 . S
O48 Zn47 2.028 . S
O48 C54 1.247 . S
O49 Zn45 2.035 . S
O49 C54 1.258 1_455 S
O50 C43 1.247 . S
O50 Zn47 2.028 . S
O51 C43 1.258 . S
O51 Zn45 2.035 1_655 S
O52 Zn45 2.028 . S
O52 C55 1.247 . S
O53 Zn47 2.035 . S
O53 C55 1.258 1_655 S
C54 O48 1.247 . S
C54 O49 1.258 1_655 S
C55 O52 1.247 . S
C55 O53 1.258 1_455 S
C56 O58 1.247 . S
C56 O60 1.258 . S
C57 O64 1.247 . S
C57 O65 1.258 . S
O58 C56 1.247 . S
O58 Zn59 2.028 . S
Zn59 O58 2.028 . S
Zn59 O63 2.035 . S
Zn59 O65 2.035 1_554 S
Zn59 O66 2.028 . S
O60 C56 1.258 . S
O60 Zn61 2.035 1_554 S
Zn61 O60 2.035 1_556 S
Zn61 O62 2.028 . S
Zn61 O64 2.028 . S
Zn61 O67 2.035 . S
O62 Zn61 2.028 . S
O62 C68 1.246 . S
O63 Zn59 2.035 . S
O63 C68 1.259 1_554 S
O64 C57 1.247 . S
O64 Zn61 2.028 . S
O65 C57 1.258 . S
O65 Zn59 2.035 1_556 S
O66 Zn59 2.028 . S
O66 C69 1.247 1_554 S
O67 Zn61 2.035 . S
O67 C69 1.258 . S
C68 O62 1.246 . S
C68 O63 1.259 1_556 S
C69 O66 1.247 1_556 S
C69 O67 1.258 . S
C70 O72 1.247 . S
C70 O74 1.258 1_655 S
C71 O78 1.247 . S
C71 O79 1.258 1_455 S
O72 C70 1.247 . S
O72 Zn73 2.028 1_556 S
Zn73 O72 2.028 1_554 S
Zn73 O77 2.035 1_655 S
Zn73 O79 2.035 . S
Zn73 O80 2.028 . S
O74 C70 1.258 1_455 S
O74 Zn75 2.035 . S
Zn75 O74 2.035 . S
Zn75 O76 2.028 . S
Zn75 O78 2.028 1_556 S
Zn75 O81 2.035 . S
O76 Zn75 2.028 . S
O76 C82 1.247 . S
O77 Zn73 2.035 1_455 S
O77 C82 1.258 1_554 S
O78 C71 1.247 . S
O78 Zn75 2.028 1_554 S
O79 C71 1.258 1_655 S
O79 Zn73 2.035 . S
O80 Zn73 2.028 . S
O80 C83 1.246 . S
O81 Zn75 2.035 . S
O81 C83 1.259 1_456 S
C82 O76 1.247 . S
C82 O77 1.258 1_556 S
C83 O80 1.246 . S
C83 O81 1.259 1_654 S
C84 O86 1.247 . S
C84 O88 1.258 . S
C85 O92 1.247 . S
C85 O93 1.258 . S
O86 C84 1.247 . S
O86 Zn87 2.028 . S
Zn87 O86 2.028 . S
Zn87 O91 2.035 . S
Zn87 O93 2.035 . S
Zn87 O94 2.028 . S
O88 C84 1.258 . S
O88 Zn89 2.035 . S
Zn89 O88 2.035 . S
Zn89 O90 2.028 . S
Zn89 O92 2.028 . S
Zn89 O95 2.035 . S
O90 Zn89 2.028 . S
O90 C96 1.247 . S
O91 Zn87 2.035 . S
O91 C96 1.258 . S
O92 C85 1.247 . S
O92 Zn89 2.028 . S
O93 C85 1.258 . S
O93 Zn87 2.035 . S
O94 Zn87 2.028 . S
O94 C97 1.247 . S
O95 Zn89 2.035 . S
O95 C97 1.258 . S
C96 O90 1.247 . S
C96 O91 1.258 . S
C97 O94 1.247 . S
C97 O95 1.258 . S
C98 O100 1.247 . S
C98 O102 1.258 . S
C99 O106 1.247 . S
C99 O107 1.258 1_655 S
O100 C98 1.247 . S
O100 Zn101 2.028 . S
Zn101 O100 2.028 . S
Zn101 O105 2.035 . S
Zn101 O107 2.035 . S
Zn101 O108 2.028 . S
O102 C98 1.258 . S
O102 Zn103 2.035 1_455 S
Zn103 O102 2.035 1_655 S
Zn103 O104 2.028 . S
Zn103 O106 2.028 . S
Zn103 O109 2.035 . S
O104 Zn103 2.028 . S
O104 C110 1.247 . S
O105 Zn101 2.035 . S
O105 C110 1.258 1_455 S
O106 C99 1.247 . S
O106 Zn103 2.028 . S
O107 C99 1.258 1_455 S
O107 Zn101 2.035 . S
O108 Zn101 2.028 . S
O108 C111 1.247 . S
O109 Zn103 2.035 . S
O109 C111 1.258 1_655 S
C110 O104 1.247 . S
C110 O105 1.258 1_655 S
C111 O108 1.247 . S
C111 O109 1.258 1_455 S
C112 O114 1.247 . S
C112 O116 1.258 . S
C113 O120 1.247 . S
C113 O121 1.258 . S
O114 C112 1.247 . S
O114 Zn115 2.028 . S
Zn115 O114 2.028 . S
Zn115 O119 2.035 . S
Zn115 O121 2.035 . S
Zn115 O122 2.028 . S
O116 C112 1.258 . S
O116 Zn117 2.035 . S
Zn117 O116 2.035 . S
Zn117 O118 2.028 . S
Zn117 O120 2.028 . S
Zn117 O123 2.035 . S
O118 Zn117 2.028 . S
O118 C124 1.247 . S
O119 Zn115 2.035 . S
O119 C124 1.258 . S
O120 C113 1.247 . S
O120 Zn117 2.028 . S
O121 C113 1.258 . S
O121 Zn115 2.035 . S
O122 Zn115 2.028 . S
O122 C125 1.247 . S
O123 Zn117 2.035 . S
O123 C125 1.258 . S
C124 O118 1.247 . S
C124 O119 1.258 . S
C125 O122 1.247 . S
C125 O123 1.258 . S
C126 O128 1.247 . S
C126 O130 1.258 1_455 S
C127 O134 1.247 . S
C127 O135 1.258 . S
O128 C126 1.247 . S
O128 Zn129 2.028 . S
Zn129 O128 2.028 . S
Zn129 O133 2.035 . S
Zn129 O135 2.035 1_455 S
Zn129 O136 2.028 . S
O130 C126 1.258 1_655 S
O130 Zn131 2.035 . S
Zn131 O130 2.035 . S
Zn131 O132 2.028 . S
Zn131 O134 2.028 . S
Zn131 O137 2.035 . S
O132 Zn131 2.028 . S
O132 C138 1.247 . S
O133 Zn129 2.035 . S
O133 C138 1.258 1_455 S
O134 C127 1.247 . S
O134 Zn131 2.028 . S
O135 C127 1.258 . S
O135 Zn129 2.035 1_655 S
O136 Zn129 2.028 . S
O136 C139 1.247 . S
O137 Zn131 2.035 . S
O137 C139 1.258 1_655 S
C138 O132 1.247 . S
C138 O133 1.258 1_655 S
C139 O136 1.247 . S
C139 O137 1.258 1_455 S
C140 O142 1.247 . S
C140 O144 1.258 . S
C141 O148 1.247 . S
C141 O149 1.258 . S
O142 C140 1.247 . S
O142 Zn143 2.028 . S
Zn143 O142 2.028 . S
Zn143 O147 2.035 . S
Zn143 O149 2.035 . S
Zn143 O150 2.028 . S
O144 C140 1.258 . S
O144 Zn145 2.035 . S
Zn145 O144 2.035 . S
Zn145 O146 2.028 . S
Zn145 O148 2.028 . S
Zn145 O151 2.035 . S
O146 Zn145 2.028 . S
O146 C152 1.247 . S
O147 Zn143 2.035 . S
O147 C152 1.258 . S
O148 C141 1.247 . S
O148 Zn145 2.028 . S
O149 C141 1.258 . S
O149 Zn143 2.035 . S
O150 Zn143 2.028 . S
O150 C153 1.247 . S
O151 Zn145 2.035 . S
O151 C153 1.258 . S
C152 O146 1.247 . S
C152 O147 1.258 . S
C153 O150 1.247 . S
C153 O151 1.258 . S
C154 O156 1.247 . S
C154 O158 1.258 1_455 S
C155 O162 1.247 . S
C155 O163 1.258 . S
O156 C154 1.247 . S
O156 Zn157 2.028 . S
Zn157 O156 2.028 . S
Zn157 O161 2.035 . S
Zn157 O163 2.035 1_455 S
Zn157 O164 2.028 . S
O158 C154 1.258 1_655 S
O158 Zn159 2.035 . S
Zn159 O158 2.035 . S
Zn159 O160 2.028 . S
Zn159 O162 2.028 . S
Zn159 O165 2.035 . S
O160 Zn159 2.028 . S
O160 C166 1.247 . S
O161 Zn157 2.035 . S
O161 C166 1.258 1_455 S
O162 C155 1.247 . S
O162 Zn159 2.028 . S
O163 C155 1.258 . S
O163 Zn157 2.035 1_655 S
O164 Zn157 2.028 . S
O164 C167 1.247 . S
O165 Zn159 2.035 . S
O165 C167 1.258 1_655 S
C166 O160 1.247 . S
C166 O161 1.258 1_655 S
C167 O164 1.247 . S
C167 O165 1.258 1_455 S
C168 O170 1.247 . S
C168 O172 1.258 . S
C169 O176 1.247 . S
C169 O177 1.258 . S
O170 C168 1.247 . S
O170 Zn171 2.028 . S
Zn171 O170 2.028 . S
Zn171 O175 2.035 . S
Zn171 O177 2.035 . S
Zn171 O178 2.028 . S
O172 C168 1.258 . S
O172 Zn173 2.035 . S
Zn173 O172 2.035 . S
Zn173 O174 2.028 . S
Zn173 O176 2.028 . S
Zn173 O179 2.035 . S
O174 Zn173 2.028 . S
O174 C180 1.247 . S
O175 Zn171 2.035 . S
O175 C180 1.258 . S
O176 C169 1.247 . S
O176 Zn173 2.028 . S
O177 C169 1.258 . S
O177 Zn171 2.035 . S
O178 Zn171 2.028 . S
O178 C181 1.247 . S
O179 Zn173 2.035 . S
O179 C181 1.258 . S
C180 O174 1.247 . S
C180 O175 1.258 . S
C181 O178 1.247 . S
C181 O179 1.258 . S
C182 O184 1.247 1_455 S
C182 O186 1.258 . S
C183 O190 1.247 1_655 S
C183 O191 1.258 . S
O184 C182 1.247 1_655 S
O184 Zn185 2.028 . S
Zn185 O184 2.028 . S
Zn185 O189 2.035 . S
Zn185 O191 2.035 . S
Zn185 O192 2.028 1_655 S
O186 C182 1.258 . S
O186 Zn187 2.035 . S
Zn187 O186 2.035 . S
Zn187 O188 2.028 . S
Zn187 O190 2.028 . S
Zn187 O193 2.035 . S
O188 Zn187 2.028 . S
O188 C194 1.247 1_455 S
O189 Zn185 2.035 . S
O189 C194 1.258 . S
O190 C183 1.247 1_455 S
O190 Zn187 2.028 . S
O191 C183 1.258 . S
O191 Zn185 2.035 . S
O192 Zn185 2.028 1_455 S
O192 C195 1.247 . S
O193 Zn187 2.035 . S
O193 C195 1.258 . S
C194 O188 1.247 1_655 S
C194 O189 1.258 . S
C195 O192 1.247 . S
C195 O193 1.258 . S
C196 O198 1.247 . S
C196 O200 1.258 . S
C197 O204 1.247 . S
C197 O205 1.258 . S
O198 C196 1.247 . S
O198 Zn199 2.028 . S
Zn199 O198 2.028 . S
Zn199 O203 2.035 . S
Zn199 O205 2.035 . S
Zn199 O206 2.028 . S
O200 C196 1.258 . S
O200 Zn201 2.035 . S
Zn201 O200 2.035 . S
Zn201 O202 2.028 . S
Zn201 O204 2.028 . S
Zn201 O207 2.035 . S
O202 Zn201 2.028 . S
O202 C208 1.247 . S
O203 Zn199 2.035 . S
O203 C208 1.258 . S
O204 C197 1.247 . S
O204 Zn201 2.028 . S
O205 C197 1.258 . S
O205 Zn199 2.035 . S
O206 Zn199 2.028 . S
O206 C209 1.247 . S
O207 Zn201 2.035 . S
O207 C209 1.258 . S
C208 O202 1.247 . S
C208 O203 1.258 . S
C209 O206 1.247 . S
C209 O207 1.258 . S
C210 O212 1.247 . S
C210 O214 1.258 1_655 S
C211 O218 1.247 . S
C211 O219 1.258 1_455 S
O212 C210 1.247 . S
O212 Zn213 2.028 . S
Zn213 O212 2.028 . S
Zn213 O217 2.035 1_655 S
Zn213 O219 2.035 . S
Zn213 O220 2.028 . S
O214 C210 1.258 1_455 S
O214 Zn215 2.035 . S
Zn215 O214 2.035 . S
Zn215 O216 2.028 . S
Zn215 O218 2.028 . S
Zn215 O221 2.035 . S
O216 Zn215 2.028 . S
O216 C222 1.247 . S
O217 Zn213 2.035 1_455 S
O217 C222 1.258 . S
O218 C211 1.247 . S
O218 Zn215 2.028 . S
O219 C211 1.258 1_655 S
O219 Zn213 2.035 . S
O220 Zn213 2.028 . S
O220 C223 1.247 . S
O221 Zn215 2.035 . S
O221 C223 1.258 1_455 S
C222 O216 1.247 . S
C222 O217 1.258 . S
C223 O220 1.247 . S
C223 O221 1.258 1_655 S
C224 O226 1.247 . S
C224 O228 1.258 . S
C225 O232 1.247 . S
C225 O233 1.258 . S
O226 C224 1.247 . S
O226 Zn227 2.028 . S
Zn227 O226 2.028 . S
Zn227 O231 2.035 . S
Zn227 O233 2.035 . S
Zn227 O234 2.028 . S
O228 C224 1.258 . S
O228 Zn229 2.035 . S
Zn229 O228 2.035 . S
Zn229 O230 2.028 . S
Zn229 O232 2.028 . S
Zn229 O235 2.035 . S
O230 Zn229 2.028 . S
O230 C236 1.247 . S
O231 Zn227 2.035 . S
O231 C236 1.258 . S
O232 C225 1.247 . S
O232 Zn229 2.028 . S
O233 C225 1.258 . S
O233 Zn227 2.035 . S
O234 Zn227 2.028 . S
O234 C237 1.247 . S
O235 Zn229 2.035 . S
O235 C237 1.258 . S
C236 O230 1.247 . S
C236 O231 1.258 . S
C237 O234 1.247 . S
C237 O235 1.258 . S
C238 O240 1.247 . S
C238 O242 1.258 . S
C239 O246 1.247 . S
C239 O247 1.258 . S
O240 C238 1.247 . S
O240 Zn241 2.028 . S
Zn241 O240 2.028 . S
Zn241 O245 2.035 . S
Zn241 O247 2.035 . S
Zn241 O248 2.028 . S
O242 C238 1.258 . S
O242 Zn243 2.035 . S
Zn243 O242 2.035 . S
Zn243 O244 2.028 . S
Zn243 O246 2.028 . S
Zn243 O249 2.035 . S
O244 Zn243 2.028 . S
O244 C250 1.247 . S
O245 Zn241 2.035 . S
O245 C250 1.258 . S
O246 C239 1.247 . S
O246 Zn243 2.028 . S
O247 C239 1.258 . S
O247 Zn241 2.035 . S
O248 Zn241 2.028 . S
O248 C251 1.247 . S
O249 Zn243 2.035 . S
O249 C251 1.258 . S
C250 O244 1.247 . S
C250 O245 1.258 . S
C251 O248 1.247 . S
C251 O249 1.258 . S
C252 O254 1.247 . S
C252 O256 1.258 . S
C253 O260 1.247 . S
C253 O261 1.258 . S
O254 C252 1.247 . S
O254 Zn255 2.028 . S
Zn255 O254 2.028 . S
Zn255 O259 2.035 . S
Zn255 O261 2.035 . S
Zn255 O262 2.028 . S
O256 C252 1.258 . S
O256 Zn257 2.035 . S
Zn257 O256 2.035 . S
Zn257 O258 2.028 . S
Zn257 O260 2.028 . S
Zn257 O263 2.035 . S
O258 Zn257 2.028 . S
O258 C264 1.247 . S
O259 Zn255 2.035 . S
O259 C264 1.258 . S
O260 C253 1.247 . S
O260 Zn257 2.028 . S
O261 C253 1.258 . S
O261 Zn255 2.035 . S
O262 Zn255 2.028 . S
O262 C265 1.247 . S
O263 Zn257 2.035 . S
O263 C265 1.258 . S
C264 O258 1.247 . S
C264 O259 1.258 . S
C265 O262 1.247 . S
C265 O263 1.258 . S
C266 O268 1.247 . S
C266 O270 1.258 . S
C267 O274 1.247 . S
C267 O275 1.258 . S
O268 C266 1.247 . S
O268 Zn269 2.028 . S
Zn269 O268 2.028 . S
Zn269 O273 2.035 . S
Zn269 O275 2.035 . S
Zn269 O276 2.028 . S
O270 C266 1.258 . S
O270 Zn271 2.035 . S
Zn271 O270 2.035 . S
Zn271 O272 2.028 . S
Zn271 O274 2.028 . S
Zn271 O277 2.035 . S
O272 Zn271 2.028 . S
O272 C278 1.247 . S
O273 Zn269 2.035 . S
O273 C278 1.258 . S
O274 C267 1.247 . S
O274 Zn271 2.028 . S
O275 C267 1.258 . S
O275 Zn269 2.035 . S
O276 Zn269 2.028 . S
O276 C279 1.247 . S
O277 Zn271 2.035 . S
O277 C279 1.258 . S
C278 O272 1.247 . S
C278 O273 1.258 . S
C279 O276 1.247 . S
C279 O277 1.258 . S
C280 O282 1.247 . S
C280 O284 1.258 . S
C281 O288 1.247 . S
C281 O289 1.258 . S
O282 C280 1.247 . S
O282 Zn283 2.028 . S
Zn283 O282 2.028 . S
Zn283 O287 2.035 . S
Zn283 O289 2.035 . S
Zn283 O290 2.028 . S
O284 C280 1.258 . S
O284 Zn285 2.035 . S
Zn285 O284 2.035 . S
Zn285 O286 2.028 . S
Zn285 O288 2.028 . S
Zn285 O291 2.035 . S
O286 Zn285 2.028 . S
O286 C292 1.247 . S
O287 Zn283 2.035 . S
O287 C292 1.258 . S
O288 C281 1.247 . S
O288 Zn285 2.028 . S
O289 C281 1.258 . S
O289 Zn283 2.035 . S
O290 Zn283 2.028 . S
O290 C293 1.247 . S
O291 Zn285 2.035 . S
O291 C293 1.258 . S
C292 O286 1.247 . S
C292 O287 1.258 . S
C293 O290 1.247 . S
C293 O291 1.258 . S
C294 O296 1.247 . S
C294 O298 1.258 . S
C295 O302 1.247 . S
C295 O303 1.258 . S
O296 C294 1.247 . S
O296 Zn297 2.028 . S
Zn297 O296 2.028 . S
Zn297 O301 2.035 . S
Zn297 O303 2.035 . S
Zn297 O304 2.028 . S
O298 C294 1.258 . S
O298 Zn299 2.035 . S
Zn299 O298 2.035 . S
Zn299 O300 2.028 . S
Zn299 O302 2.028 . S
Zn299 O305 2.035 . S
O300 Zn299 2.028 . S
O300 C306 1.247 . S
O301 Zn297 2.035 . S
O301 C306 1.258 . S
O302 C295 1.247 . S
O302 Zn299 2.028 . S
O303 C295 1.258 . S
O303 Zn297 2.035 . S
O304 Zn297 2.028 . S
O304 C307 1.247 . S
O305 Zn299 2.035 . S
O305 C307 1.258 . S
C306 O300 1.247 . S
C306 O301 1.258 . S
C307 O304 1.247 . S
C307 O305 1.258 . S
C308 O310 1.247 . S
C308 O312 1.258 . S
C309 O316 1.247 . S
C309 O317 1.258 . S
O310 C308 1.247 . S
O310 Zn311 2.028 . S
Zn311 O310 2.028 . S
Zn311 O315 2.035 . S
Zn311 O317 2.035 . S
Zn311 O318 2.028 . S
O312 C308 1.258 . S
O312 Zn313 2.035 . S
Zn313 O312 2.035 . S
Zn313 O314 2.028 . S
Zn313 O316 2.028 . S
Zn313 O319 2.035 . S
O314 Zn313 2.028 . S
O314 C320 1.247 . S
O315 Zn311 2.035 . S
O315 C320 1.258 . S
O316 C309 1.247 . S
O316 Zn313 2.028 . S
O317 C309 1.258 . S
O317 Zn311 2.035 . S
O318 Zn311 2.028 . S
O318 C321 1.247 . S
O319 Zn313 2.035 . S
O319 C321 1.258 . S
C320 O314 1.247 . S
C320 O315 1.258 . S
C321 O318 1.247 . S
C321 O319 1.258 . S
C322 O324 1.247 . S
C322 O326 1.258 . S
C323 O330 1.247 . S
C323 O331 1.258 . S
O324 C322 1.247 . S
O324 Zn325 2.028 . S
Zn325 O324 2.028 . S
Zn325 O329 2.035 . S
Zn325 O331 2.035 . S
Zn325 O332 2.028 . S
O326 C322 1.258 . S
O326 Zn327 2.035 . S
Zn327 O326 2.035 . S
Zn327 O328 2.028 . S
Zn327 O330 2.028 . S
Zn327 O333 2.035 . S
O328 Zn327 2.028 . S
O328 C334 1.247 . S
O329 Zn325 2.035 . S
O329 C334 1.258 . S
O330 C323 1.247 . S
O330 Zn327 2.028 . S
O331 C323 1.258 . S
O331 Zn325 2.035 . S
O332 Zn325 2.028 . S
O332 C335 1.247 . S
O333 Zn327 2.035 . S
O333 C335 1.258 . S
C334 O328 1.247 . S
C334 O329 1.258 . S
C335 O332 1.247 . S
C335 O333 1.258 . S
C336 O338 1.247 . S
C336 O340 1.258 . S
C337 O344 1.247 . S
C337 O345 1.258 . S
O338 C336 1.247 . S
O338 Zn339 2.028 1_556 S
Zn339 O338 2.028 1_554 S
Zn339 O343 2.035 . S
Zn339 O345 2.035 . S
Zn339 O346 2.028 . S
O340 C336 1.258 . S
O340 Zn341 2.035 . S
Zn341 O340 2.035 . S
Zn341 O342 2.028 . S
Zn341 O344 2.028 1_556 S
Zn341 O347 2.035 . S
O342 Zn341 2.028 . S
O342 C348 1.246 . S
O343 Zn339 2.035 . S
O343 C348 1.259 1_554 S
O344 C337 1.247 . S
O344 Zn341 2.028 1_554 S
O345 C337 1.258 . S
O345 Zn339 2.035 . S
O346 Zn339 2.028 . S
O346 C349 1.247 . S
O347 Zn341 2.035 . S
O347 C349 1.258 1_556 S
C348 O342 1.246 . S
C348 O343 1.259 1_556 S
C349 O346 1.247 . S
C349 O347 1.258 1_554 S
C350 O352 1.247 1_554 S
C350 O354 1.258 . S
C351 O358 1.246 . S
C351 O359 1.259 1_554 S
O352 C350 1.247 1_556 S
O352 Zn353 2.028 . S
Zn353 O352 2.028 . S
Zn353 O357 2.035 1_556 S
Zn353 O359 2.035 . S
Zn353 O360 2.028 . S
O354 C350 1.258 . S
O354 Zn355 2.035 . S
Zn355 O354 2.035 . S
Zn355 O356 2.028 . S
Zn355 O358 2.028 . S
Zn355 O361 2.035 1_554 S
O356 Zn355 2.028 . S
O356 C362 1.247 . S
O357 Zn353 2.035 1_554 S
O357 C362 1.258 . S
O358 C351 1.246 . S
O358 Zn355 2.028 . S
O359 C351 1.259 1_556 S
O359 Zn353 2.035 . S
O360 Zn353 2.028 . S
O360 C363 1.247 . S
O361 Zn355 2.035 1_556 S
O361 C363 1.258 . S
C362 O356 1.247 . S
C362 O357 1.258 . S
C363 O360 1.247 . S
C363 O361 1.258 . S
C364 O366 1.247 . S
C364 O368 1.258 . S
C365 O372 1.247 . S
C365 O373 1.258 . S
O366 C364 1.247 . S
O366 Zn367 2.028 . S
Zn367 O366 2.028 . S
Zn367 O371 2.035 . S
Zn367 O373 2.035 . S
Zn367 O374 2.028 . S
O368 C364 1.258 . S
O368 Zn369 2.035 . S
Zn369 O368 2.035 . S
Zn369 O370 2.028 . S
Zn369 O372 2.028 . S
Zn369 O375 2.035 . S
O370 Zn369 2.028 . S
O370 C376 1.247 . S
O371 Zn367 2.035 . S
O371 C376 1.258 . S
O372 C365 1.247 . S
O372 Zn369 2.028 . S
O373 C365 1.258 . S
O373 Zn367 2.035 . S
O374 Zn367 2.028 . S
O374 C377 1.247 . S
O375 Zn369 2.035 . S
O375 C377 1.258 . S
C376 O370 1.247 . S
C376 O371 1.258 . S
C377 O374 1.247 . S
C377 O375 1.258 . S
C378 O380 1.247 . S
C378 O382 1.258 . S
C379 O386 1.247 . S
C379 O387 1.258 . S
O380 C378 1.247 . S
O380 Zn381 2.028 . S
Zn381 O380 2.028 . S
Zn381 O385 2.035 . S
Zn381 O387 2.035 . S
Zn381 O388 2.028 . S
O382 C378 1.258 . S
O382 Zn383 2.035 . S
Zn383 O382 2.035 . S
Zn383 O384 2.028 . S
Zn383 O386 2.028 . S
Zn383 O389 2.035 . S
O384 Zn383 2.028 . S
O384 C390 1.247 . S
O385 Zn381 2.035 . S
O385 C390 1.258 . S
O386 C379 1.247 . S
O386 Zn383 2.028 . S
O387 C379 1.258 . S
O387 Zn381 2.035 . S
O388 Zn381 2.028 . S
O388 C391 1.247 . S
O389 Zn383 2.035 . S
O389 C391 1.258 . S
C390 O384 1.247 . S
C390 O385 1.258 . S
C391 O388 1.247 . S
C391 O389 1.258 . S
C392 O394 1.247 . S
C392 O396 1.258 . S
C393 O400 1.247 . S
C393 O401 1.258 . S
O394 C392 1.247 . S
O394 Zn395 2.028 . S
Zn395 O394 2.028 . S
Zn395 O399 2.035 . S
Zn395 O401 2.035 1_554 S
Zn395 O402 2.028 . S
O396 C392 1.258 . S
O396 Zn397 2.035 1_554 S
Zn397 O396 2.035 1_556 S
Zn397 O398 2.028 . S
Zn397 O400 2.028 . S
Zn397 O403 2.035 . S
O398 Zn397 2.028 . S
O398 C404 1.246 . S
O399 Zn395 2.035 . S
O399 C404 1.259 1_554 S
O400 C393 1.247 . S
O400 Zn397 2.028 . S
O401 C393 1.258 . S
O401 Zn395 2.035 1_556 S
O402 Zn395 2.028 . S
O402 C405 1.247 1_554 S
O403 Zn397 2.035 . S
O403 C405 1.258 . S
C404 O398 1.246 . S
C404 O399 1.259 1_556 S
C405 O402 1.247 1_556 S
C405 O403 1.258 . S
C406 O408 1.247 . S
C406 O410 1.258 . S
C407 O414 1.247 . S
C407 O415 1.258 . S
O408 C406 1.247 . S
O408 Zn409 2.028 . S
Zn409 O408 2.028 . S
Zn409 O413 2.035 . S
Zn409 O415 2.035 1_554 S
Zn409 O416 2.028 . S
O410 C406 1.258 . S
O410 Zn411 2.035 1_554 S
Zn411 O410 2.035 1_556 S
Zn411 O412 2.028 . S
Zn411 O414 2.028 . S
Zn411 O417 2.035 . S
O412 Zn411 2.028 . S
O412 C418 1.246 . S
O413 Zn409 2.035 . S
O413 C418 1.259 1_554 S
O414 C407 1.247 . S
O414 Zn411 2.028 . S
O415 C407 1.258 . S
O415 Zn409 2.035 1_556 S
O416 Zn409 2.028 . S
O416 C419 1.247 1_554 S
O417 Zn411 2.035 . S
O417 C419 1.258 . S
C418 O412 1.246 . S
C418 O413 1.259 1_556 S
C419 O416 1.247 1_556 S
C419 O417 1.258 . S
C420 O422 1.247 . S
C420 O424 1.258 . S
C421 O428 1.247 . S
C421 O429 1.258 . S
O422 C420 1.247 . S
O422 Zn423 2.028 . S
Zn423 O422 2.028 . S
Zn423 O427 2.035 . S
Zn423 O429 2.035 . S
Zn423 O430 2.028 . S
O424 C420 1.258 . S
O424 Zn425 2.035 . S
Zn425 O424 2.035 . S
Zn425 O426 2.028 . S
Zn425 O428 2.028 . S
Zn425 O431 2.035 . S
O426 Zn425 2.028 . S
O426 C432 1.247 . S
O427 Zn423 2.035 . S
O427 C432 1.258 . S
O428 C421 1.247 . S
O428 Zn425 2.028 . S
O429 C421 1.258 . S
O429 Zn423 2.035 . S
O430 Zn423 2.028 . S
O430 C433 1.247 . S
O431 Zn425 2.035 . S
O431 C433 1.258 . S
C432 O426 1.247 . S
C432 O427 1.258 . S
C433 O430 1.247 . S
C433 O431 1.258 . S
C434 O436 1.247 . S
C434 O438 1.258 . S
C435 O442 1.247 . S
C435 O443 1.258 . S
O436 C434 1.247 . S
O436 Zn437 2.028 . S
Zn437 O436 2.028 . S
Zn437 O441 2.035 . S
Zn437 O443 2.035 . S
Zn437 O444 2.028 . S
O438 C434 1.258 . S
O438 Zn439 2.035 . S
Zn439 O438 2.035 . S
Zn439 O440 2.028 . S
Zn439 O442 2.028 . S
Zn439 O445 2.035 . S
O440 Zn439 2.028 . S
O440 C446 1.247 . S
O441 Zn437 2.035 . S
O441 C446 1.258 . S
O442 C435 1.247 . S
O442 Zn439 2.028 . S
O443 C435 1.258 . S
O443 Zn437 2.035 . S
O444 Zn437 2.028 . S
O444 C447 1.247 . S
O445 Zn439 2.035 . S
O445 C447 1.258 . S
C446 O440 1.247 . S
C446 O441 1.258 . S
C447 O444 1.247 . S
C447 O445 1.258 . S
C448 C449 1.369 . S
C448 C450 1.419 . S
C448 H452 0.930 . S
C449 C448 1.369 . S
C449 C458 1.429 . S
C450 C448 1.419 . S
C450 C451 1.363 . S
C450 H453 0.929 1_455 S
C451 C450 1.363 . S
C451 C457 1.428 . S
H452 C448 0.930 . S
H453 C450 0.929 1_655 S
S454 N455 1.613 . S
S454 N456 1.610 . S
N455 S454 1.613 . S
N455 C458 1.350 . S
N456 S454 1.610 . S
N456 C457 1.351 . S
C457 C451 1.428 . S
C457 N456 1.351 . S
C457 C458 1.434 . S
C458 C449 1.429 . S
C458 N455 1.350 . S
C458 C457 1.434 . S
C459 C460 1.369 . S
C459 C461 1.419 . S
C459 H463 0.930 . S
C460 C459 1.369 . S
C460 C469 1.429 . S
C461 C459 1.419 . S
C461 C462 1.363 . S
C461 H464 0.929 . S
C462 C461 1.363 . S
C462 C468 1.428 . S
H463 C459 0.930 . S
H464 C461 0.929 . S
S465 N466 1.613 . S
S465 N467 1.610 . S
N466 S465 1.613 . S
N466 C469 1.350 . S
N467 S465 1.610 . S
N467 C468 1.351 . S
C468 C462 1.428 . S
C468 N467 1.351 . S
C468 C469 1.434 . S
C469 C460 1.429 . S
C469 N466 1.350 . S
C469 C468 1.434 . S
C470 C471 1.369 . S
C470 C472 1.419 . S
C470 H474 0.930 . S
C471 C470 1.369 . S
C471 C480 1.429 . S
C472 C470 1.419 . S
C472 C473 1.363 . S
C472 H475 0.929 . S
C473 C472 1.363 . S
C473 C479 1.428 . S
H474 C470 0.930 . S
H475 C472 0.929 . S
S476 N477 1.613 . S
S476 N478 1.610 . S
N477 S476 1.613 . S
N477 C480 1.350 1_455 S
N478 S476 1.610 . S
N478 C479 1.351 1_455 S
C479 C473 1.428 . S
C479 N478 1.351 1_655 S
C479 C480 1.434 . S
C480 C471 1.429 . S
C480 N477 1.350 1_655 S
C480 C479 1.434 . S
C481 C482 1.369 . S
C481 C483 1.419 . S
C481 H485 0.930 . S
C482 C481 1.369 . S
C482 C491 1.429 . S
C483 C481 1.419 . S
C483 C484 1.363 . S
C483 H486 0.929 1_655 S
C484 C483 1.363 . S
C484 C490 1.428 . S
H485 C481 0.930 . S
H486 C483 0.929 1_455 S
S487 N488 1.613 . S
S487 N489 1.610 . S
N488 S487 1.613 . S
N488 C491 1.350 . S
N489 S487 1.610 . S
N489 C490 1.351 . S
C490 C484 1.428 . S
C490 N489 1.351 . S
C490 C491 1.434 . S
C491 C482 1.429 . S
C491 N488 1.350 . S
C491 C490 1.434 . S
C492 C493 1.369 . S
C492 C494 1.419 . S
C492 H496 0.930 . S
C493 C492 1.369 . S
C493 C502 1.429 . S
C494 C492 1.419 . S
C494 C495 1.363 . S
C494 H497 0.929 . S
C495 C494 1.363 . S
C495 C501 1.428 . S
H496 C492 0.930 . S
H497 C494 0.929 . S
S498 N499 1.613 . S
S498 N500 1.610 . S
N499 S498 1.613 . S
N499 C502 1.350 1_655 S
N500 S498 1.610 . S
N500 C501 1.351 1_655 S
C501 C495 1.428 . S
C501 N500 1.351 1_455 S
C501 C502 1.434 . S
C502 C493 1.429 . S
C502 N499 1.350 1_455 S
C502 C501 1.434 . S
C503 C504 1.369 . S
C503 C505 1.419 . S
C503 H507 0.930 1_455 S
C504 C503 1.369 . S
C504 C513 1.429 . S
C505 C503 1.419 . S
C505 C506 1.363 . S
C505 H508 0.929 . S
C506 C505 1.363 . S
C506 C512 1.428 . S
H507 C503 0.930 1_655 S
H508 C505 0.929 . S
S509 N510 1.613 . S
S509 N511 1.610 . S
N510 S509 1.613 . S
N510 C513 1.350 . S
N511 S509 1.610 . S
N511 C512 1.351 . S
C512 C506 1.428 . S
C512 N511 1.351 . S
C512 C513 1.434 . S
C513 C504 1.429 . S
C513 N510 1.350 . S
C513 C512 1.434 . S
C514 C515 1.369 . S
C514 C516 1.419 . S
C514 H518 0.930 . S
C515 C514 1.369 . S
C515 C524 1.429 . S
C516 C514 1.419 . S
C516 C517 1.363 . S
C516 H519 0.929 . S
C517 C516 1.363 . S
C517 C523 1.428 . S
H518 C514 0.930 . S
H519 C516 0.929 . S
S520 N521 1.613 . S
S520 N522 1.610 1_455 S
N521 S520 1.613 . S
N521 C524 1.350 1_455 S
N522 S520 1.610 1_655 S
N522 C523 1.351 . S
C523 C517 1.428 . S
C523 N522 1.351 . S
C523 C524 1.434 . S
C524 C515 1.429 . S
C524 N521 1.350 1_655 S
C524 C523 1.434 . S
C525 C526 1.369 . S
C525 C527 1.419 . S
C525 H529 0.930 . S
C526 C525 1.369 . S
C526 C535 1.429 . S
C527 C525 1.419 . S
C527 C528 1.363 . S
C527 H530 0.929 . S
C528 C527 1.363 . S
C528 C534 1.428 . S
H529 C525 0.930 . S
H530 C527 0.929 . S
S531 N532 1.613 1_455 S
S531 N533 1.610 . S
N532 S531 1.613 1_655 S
N532 C535 1.350 . S
N533 S531 1.610 . S
N533 C534 1.351 1_455 S
C534 C528 1.428 . S
C534 N533 1.351 1_655 S
C534 C535 1.434 . S
C535 C526 1.429 . S
C535 N532 1.350 . S
C535 C534 1.434 . S
C536 C537 1.369 . S
C536 C538 1.419 . S
C536 H540 0.930 . S
C537 C536 1.369 . S
C537 C546 1.429 . S
C538 C536 1.419 . S
C538 C539 1.363 . S
C538 H541 0.929 . S
C539 C538 1.363 . S
C539 C545 1.428 . S
H540 C536 0.930 . S
H541 C538 0.929 . S
S542 N543 1.613 . S
S542 N544 1.610 . S
N543 S542 1.613 . S
N543 C546 1.350 . S
N544 S542 1.610 . S
N544 C545 1.351 . S
C545 C539 1.428 . S
C545 N544 1.351 . S
C545 C546 1.434 . S
C546 C537 1.429 . S
C546 N543 1.350 . S
C546 C545 1.434 . S
C547 C548 1.369 . S
C547 C549 1.419 . S
C547 H551 0.930 . S
C548 C547 1.369 . S
C548 C557 1.429 . S
C549 C547 1.419 . S
C549 C550 1.363 . S
C549 H552 0.929 . S
C550 C549 1.363 . S
C550 C556 1.428 . S
H551 C547 0.930 . S
H552 C549 0.929 . S
S553 N554 1.613 . S
S553 N555 1.610 . S
N554 S553 1.613 . S
N554 C557 1.350 . S
N555 S553 1.610 . S
N555 C556 1.351 . S
C556 C550 1.428 . S
C556 N555 1.351 . S
C556 C557 1.434 . S
C557 C548 1.429 . S
C557 N554 1.350 . S
C557 C556 1.434 . S
C558 C559 1.369 . S
C558 C560 1.419 . S
C558 H562 0.930 . S
C559 C558 1.369 . S
C559 C568 1.429 . S
C560 C558 1.419 . S
C560 C561 1.363 . S
C560 H563 0.929 . S
C561 C560 1.363 . S
C561 C567 1.428 . S
H562 C558 0.930 . S
H563 C560 0.929 . S
S564 N565 1.613 . S
S564 N566 1.610 . S
N565 S564 1.613 . S
N565 C568 1.350 . S
N566 S564 1.610 . S
N566 C567 1.351 . S
C567 C561 1.428 . S
C567 N566 1.351 . S
C567 C568 1.434 . S
C568 C559 1.429 . S
C568 N565 1.350 . S
C568 C567 1.434 . S
C569 C570 1.369 . S
C569 C571 1.419 . S
C569 H573 0.930 . S
C570 C569 1.369 . S
C570 C579 1.429 . S
C571 C569 1.419 . S
C571 C572 1.363 . S
C571 H574 0.929 . S
C572 C571 1.363 . S
C572 C578 1.428 . S
H573 C569 0.930 . S
H574 C571 0.929 . S
S575 N576 1.613 . S
S575 N577 1.610 . S
N576 S575 1.613 . S
N576 C579 1.350 . S
N577 S575 1.610 . S
N577 C578 1.351 . S
C578 C572 1.428 . S
C578 N577 1.351 . S
C578 C579 1.434 . S
C579 C570 1.429 . S
C579 N576 1.350 . S
C579 C578 1.434 . S
C580 C581 1.369 . S
C580 C582 1.419 . S
C580 H584 0.930 . S
C581 C580 1.369 . S
C581 C590 1.429 . S
C582 C580 1.419 . S
C582 C583 1.363 . S
C582 H585 0.929 . S
C583 C582 1.363 . S
C583 C589 1.428 . S
H584 C580 0.930 . S
H585 C582 0.929 . S
S586 N587 1.613 . S
S586 N588 1.610 . S
N587 S586 1.613 . S
N587 C590 1.350 . S
N588 S586 1.610 . S
N588 C589 1.351 . S
C589 C583 1.428 . S
C589 N588 1.351 . S
C589 C590 1.434 . S
C590 C581 1.429 . S
C590 N587 1.350 . S
C590 C589 1.434 . S
C591 C592 1.369 . S
C591 C593 1.419 . S
C591 H595 0.930 . S
C592 C591 1.369 . S
C592 C601 1.429 . S
C593 C591 1.419 . S
C593 C594 1.363 . S
C593 H596 0.929 . S
C594 C593 1.363 . S
C594 C600 1.428 . S
H595 C591 0.930 . S
H596 C593 0.929 . S
S597 N598 1.613 . S
S597 N599 1.610 . S
N598 S597 1.613 . S
N598 C601 1.350 . S
N599 S597 1.610 . S
N599 C600 1.351 . S
C600 C594 1.428 . S
C600 N599 1.351 . S
C600 C601 1.434 . S
C601 C592 1.429 . S
C601 N598 1.350 . S
C601 C600 1.434 . S
C602 C603 1.369 . S
C602 C604 1.419 . S
C602 H606 0.930 . S
C603 C602 1.369 . S
C603 C612 1.429 . S
C604 C602 1.419 . S
C604 C605 1.363 . S
C604 H607 0.929 . S
C605 C604 1.363 . S
C605 C611 1.428 . S
H606 C602 0.930 . S
H607 C604 0.929 . S
S608 N609 1.613 . S
S608 N610 1.610 . S
N609 S608 1.613 . S
N609 C612 1.350 . S
N610 S608 1.610 . S
N610 C611 1.351 . S
C611 C605 1.428 . S
C611 N610 1.351 . S
C611 C612 1.434 . S
C612 C603 1.429 . S
C612 N609 1.350 . S
C612 C611 1.434 . S
C613 C614 1.369 . S
C613 C615 1.419 . S
C613 H617 0.930 . S
C614 C613 1.369 . S
C614 C623 1.429 . S
C615 C613 1.419 . S
C615 C616 1.363 . S
C615 H618 0.929 . S
C616 C615 1.363 . S
C616 C622 1.428 . S
H617 C613 0.930 . S
H618 C615 0.929 . S
S619 N620 1.613 . S
S619 N621 1.610 . S
N620 S619 1.613 . S
N620 C623 1.350 . S
N621 S619 1.610 . S
N621 C622 1.351 . S
C622 C616 1.428 . S
C622 N621 1.351 . S
C622 C623 1.434 . S
C623 C614 1.429 . S
C623 N620 1.350 . S
C623 C622 1.434 . S
C624 C625 1.369 1_564 S
C624 C626 1.419 . S
C624 H628 0.930 . S
C625 C624 1.369 1_546 S
C625 C634 1.429 . S
C626 C624 1.419 . S
C626 C627 1.361 1_554 S
C626 H629 0.929 . S
C627 C626 1.361 1_556 S
C627 C633 1.431 1_565 S
H628 C624 0.930 . S
H629 C626 0.929 . S
S630 N631 1.613 . S
S630 N632 1.610 . S
N631 S630 1.613 . S
N631 C634 1.350 . S
N632 S630 1.610 . S
N632 C633 1.351 . S
C633 C627 1.431 1_545 S
C633 N632 1.351 . S
C633 C634 1.434 . S
C634 C625 1.429 . S
C634 N631 1.350 . S
C634 C633 1.434 . S
C635 C636 1.371 1_556 S
C635 C637 1.419 . S
C635 H639 0.930 . S
C636 C635 1.371 1_554 S
C636 C645 1.427 . S
C637 C635 1.419 . S
C637 C638 1.357 1_556 S
C637 H640 0.929 . S
C638 C637 1.357 1_554 S
C638 C644 1.435 . S
H639 C635 0.930 . S
H640 C637 0.929 . S
S641 N642 1.613 . S
S641 N643 1.610 . S
N642 S641 1.613 . S
N642 C645 1.350 . S
N643 S641 1.610 . S
N643 C644 1.351 . S
C644 C638 1.435 . S
C644 N643 1.351 . S
C644 C645 1.434 . S
C645 C636 1.427 . S
C645 N642 1.350 . S
C645 C644 1.434 . S
C646 C647 1.369 . S
C646 C648 1.419 . S
C646 H650 0.930 . S
C647 C646 1.369 . S
C647 C656 1.429 . S
C648 C646 1.419 . S
C648 C649 1.363 . S
C648 H651 0.929 . S
C649 C648 1.363 . S
C649 C655 1.428 . S
H650 C646 0.930 . S
H651 C648 0.929 . S
S652 N653 1.613 . S
S652 N654 1.610 . S
N653 S652 1.613 . S
N653 C656 1.350 . S
N654 S652 1.610 . S
N654 C655 1.351 . S
C655 C649 1.428 . S
C655 N654 1.351 . S
C655 C656 1.434 . S
C656 C647 1.429 . S
C656 N653 1.350 . S
C656 C655 1.434 . S
C657 C658 1.309 1_545 S
C657 C659 1.472 . S
C657 H661 0.940 . S
C658 C657 1.309 1_565 S
C658 C667 1.429 . S
C659 C657 1.472 . S
C659 C660 1.363 . S
C659 H662 0.929 . S
C660 C659 1.363 . S
C660 C666 1.428 1_545 S
H661 C657 0.940 . S
H662 C659 0.929 . S
S663 N664 1.613 . S
S663 N665 1.610 . S
N664 S663 1.613 . S
N664 C667 1.350 . S
N665 S663 1.610 . S
N665 C666 1.351 . S
C666 C660 1.428 1_565 S
C666 N665 1.351 . S
C666 C667 1.434 . S
C667 C658 1.429 . S
C667 N664 1.350 . S
C667 C666 1.434 . S
C668 C669 1.367 1_554 S
C668 C670 1.419 . S
C668 H672 0.930 . S
C669 C668 1.367 1_556 S
C669 C678 1.430 . S
C670 C668 1.419 . S
C670 C671 1.353 1_554 S
C670 H673 0.929 . S
C671 C670 1.353 1_556 S
C671 C677 1.438 . S
H672 C668 0.930 . S
H673 C670 0.929 . S
S674 N675 1.613 . S
S674 N676 1.610 . S
N675 S674 1.613 . S
N675 C678 1.350 . S
N676 S674 1.610 . S
N676 C677 1.351 . S
C677 C671 1.438 . S
C677 N676 1.351 . S
C677 C678 1.434 . S
C678 C669 1.430 . S
C678 N675 1.350 . S
C678 C677 1.434 . S
C679 C680 1.369 . S
C679 C681 1.419 . S
C679 H683 0.930 . S
C680 C679 1.369 . S
C680 C689 1.429 . S
C681 C679 1.419 . S
C681 C682 1.363 . S
C681 H684 0.929 . S
C682 C681 1.363 . S
C682 C688 1.428 . S
H683 C679 0.930 . S
H684 C681 0.929 . S
S685 N686 1.613 . S
S685 N687 1.610 . S
N686 S685 1.613 . S
N686 C689 1.350 . S
N687 S685 1.610 . S
N687 C688 1.351 . S
C688 C682 1.428 . S
C688 N687 1.351 . S
C688 C689 1.434 . S
C689 C680 1.429 . S
C689 N686 1.350 . S
C689 C688 1.434 . S
C690 C691 1.369 . S
C690 C692 1.419 . S
C690 H694 0.930 . S
C691 C690 1.369 . S
C691 C700 1.429 1_565 S
C692 C690 1.419 . S
C692 C693 1.363 1_565 S
C692 H695 0.929 . S
C693 C692 1.363 1_545 S
C693 C699 1.428 . S
H694 C690 0.930 . S
H695 C692 0.929 . S
S696 N697 1.613 . S
S696 N698 1.610 . S
N697 S696 1.613 . S
N697 C700 1.350 . S
N698 S696 1.610 . S
N698 C699 1.351 . S
C699 C693 1.428 . S
C699 N698 1.351 . S
C699 C700 1.434 . S
C700 C691 1.429 1_545 S
C700 N697 1.350 . S
C700 C699 1.434 . S
C701 C702 1.369 . S
C701 C703 1.419 . S
C701 H705 0.930 . S
C702 C701 1.369 . S
C702 C711 1.429 . S
C703 C701 1.419 . S
C703 C704 1.363 . S
C703 H706 0.929 . S
C704 C703 1.363 . S
C704 C710 1.428 . S
H705 C701 0.930 . S
H706 C703 0.929 . S
S707 N708 1.613 . S
S707 N709 1.610 . S
N708 S707 1.613 . S
N708 C711 1.350 . S
N709 S707 1.610 . S
N709 C710 1.351 . S
C710 C704 1.428 . S
C710 N709 1.351 . S
C710 C711 1.434 . S
C711 C702 1.429 . S
C711 N708 1.350 . S
C711 C710 1.434 . S
C712 C713 1.369 . S
C712 C714 1.419 . S
C712 H716 0.930 . S
C713 C712 1.369 . S
C713 C722 1.429 . S
C714 C712 1.419 . S
C714 C715 1.363 . S
C714 H717 0.929 . S
C715 C714 1.363 . S
C715 C721 1.428 . S
H716 C712 0.930 . S
H717 C714 0.929 . S
S718 N719 1.613 . S
S718 N720 1.610 . S
N719 S718 1.613 . S
N719 C722 1.350 . S
N720 S718 1.610 . S
N720 C721 1.351 . S
C721 C715 1.428 . S
C721 N720 1.351 . S
C721 C722 1.434 . S
C722 C713 1.429 . S
C722 N719 1.350 . S
C722 C721 1.434 . S
C723 C724 1.369 . S
C723 C725 1.419 . S
C723 H727 0.930 . S
C724 C723 1.369 . S
C724 C733 1.429 . S
C725 C723 1.419 . S
C725 C726 1.363 . S
C725 H728 0.929 . S
C726 C725 1.363 . S
C726 C732 1.428 . S
H727 C723 0.930 . S
H728 C725 0.929 . S
S729 N730 1.613 . S
S729 N731 1.610 . S
N730 S729 1.613 . S
N730 C733 1.350 . S
N731 S729 1.610 . S
N731 C732 1.351 . S
C732 C726 1.428 . S
C732 N731 1.351 . S
C732 C733 1.434 . S
C733 C724 1.429 . S
C733 N730 1.350 . S
C733 C732 1.434 . S
C734 C735 1.369 . S
C734 C736 1.419 . S
C734 H738 0.930 . S
C735 C734 1.369 . S
C735 C744 1.429 . S
C736 C734 1.419 . S
C736 C737 1.363 . S
C736 H739 0.929 . S
C737 C736 1.363 . S
C737 C743 1.428 . S
H738 C734 0.930 . S
H739 C736 0.929 . S
S740 N741 1.613 . S
S740 N742 1.610 . S
N741 S740 1.613 . S
N741 C744 1.350 . S
N742 S740 1.610 . S
N742 C743 1.351 . S
C743 C737 1.428 . S
C743 N742 1.351 . S
C743 C744 1.434 . S
C744 C735 1.429 . S
C744 N741 1.350 . S
C744 C743 1.434 . S
C745 C746 1.369 . S
C745 C747 1.419 . S
C745 H749 0.930 . S
C746 C745 1.369 . S
C746 C755 1.429 . S
C747 C745 1.419 . S
C747 C748 1.363 . S
C747 H750 0.929 . S
C748 C747 1.363 . S
C748 C754 1.428 . S
H749 C745 0.930 . S
H750 C747 0.929 . S
S751 N752 1.613 . S
S751 N753 1.610 . S
N752 S751 1.613 . S
N752 C755 1.350 . S
N753 S751 1.610 . S
N753 C754 1.351 . S
C754 C748 1.428 . S
C754 N753 1.351 . S
C754 C755 1.434 . S
C755 C746 1.429 . S
C755 N752 1.350 . S
C755 C754 1.434 . S
C756 C757 1.369 1_655 S
C756 C758 1.419 . S
C756 H760 0.930 . S
C757 C756 1.369 1_455 S
C757 C766 1.429 1_565 S
C758 C756 1.419 . S
C758 C759 1.363 1_565 S
C758 H761 0.929 . S
C759 C758 1.363 1_545 S
C759 C765 1.428 1_655 S
H760 C756 0.930 . S
H761 C758 0.929 . S
S762 N763 1.613 . S
S762 N764 1.610 . S
N763 S762 1.613 . S
N763 C766 1.350 . S
N764 S762 1.610 . S
N764 C765 1.351 . S
C765 C759 1.428 1_455 S
C765 N764 1.351 . S
C765 C766 1.434 . S
C766 C757 1.429 1_545 S
C766 N763 1.350 . S
C766 C765 1.434 . S
C767 C768 1.369 1_455 S
C767 C769 1.419 . S
C767 H771 0.930 . S
C768 C767 1.369 1_655 S
C768 C777 1.429 . S
C769 C767 1.419 . S
C769 C770 1.363 . S
C769 H772 0.929 . S
C770 C769 1.363 . S
C770 C776 1.428 1_455 S
H771 C767 0.930 . S
H772 C769 0.929 . S
S773 N774 1.613 . S
S773 N775 1.610 . S
N774 S773 1.613 . S
N774 C777 1.350 . S
N775 S773 1.610 . S
N775 C776 1.351 . S
C776 C770 1.428 1_655 S
C776 N775 1.351 . S
C776 C777 1.434 . S
C777 C768 1.429 . S
C777 N774 1.350 . S
C777 C776 1.434 . S
C778 C779 1.369 1_655 S
C778 C780 1.419 . S
C778 H782 0.930 . S
C779 C778 1.369 1_455 S
C779 C788 1.429 . S
C780 C778 1.419 . S
C780 C781 1.363 . S
C780 H783 0.929 . S
C781 C780 1.363 . S
C781 C787 1.428 1_655 S
H782 C778 0.930 . S
H783 C780 0.929 . S
S784 N785 1.613 . S
S784 N786 1.610 . S
N785 S784 1.613 . S
N785 C788 1.350 . S
N786 S784 1.610 . S
N786 C787 1.351 . S
C787 C781 1.428 1_455 S
C787 N786 1.351 . S
C787 C788 1.434 . S
C788 C779 1.429 . S
C788 N785 1.350 . S
C788 C787 1.434 . S
C789 C790 1.369 . S
C789 C791 1.419 . S
C789 H793 0.930 . S
C790 C789 1.369 . S
C790 C799 1.429 1_455 S
C791 C789 1.419 . S
C791 C792 1.363 1_456 S
C791 H794 0.929 . S
C792 C791 1.363 1_654 S
C792 C798 1.428 1_554 S
H793 C789 0.930 . S
H794 C791 0.929 . S
S795 N796 1.613 . S
S795 N797 1.610 . S
N796 S795 1.613 . S
N796 C799 1.351 . S
N797 S795 1.610 . S
N797 C798 1.351 . S
C798 C792 1.428 1_556 S
C798 N797 1.351 . S
C798 C799 1.434 . S
C799 C790 1.429 1_655 S
C799 N796 1.351 . S
C799 C798 1.434 . S
C800 C801 1.369 . S
C800 C802 1.419 . S
C800 H804 0.930 . S
C801 C800 1.369 . S
C801 C810 1.429 . S
C802 C800 1.419 . S
C802 C803 1.363 . S
C802 H805 0.929 . S
C803 C802 1.363 . S
C803 C809 1.428 . S
H804 C800 0.930 . S
H805 C802 0.929 . S
S806 N807 1.613 . S
S806 N808 1.610 . S
N807 S806 1.613 . S
N807 C810 1.350 . S
N808 S806 1.610 . S
N808 C809 1.351 . S
C809 C803 1.428 . S
C809 N808 1.351 . S
C809 C810 1.434 . S
C810 C801 1.429 . S
C810 N807 1.350 . S
C810 C809 1.434 . S
C811 C812 1.369 . S
C811 C813 1.419 . S
C811 H815 0.930 . S
C812 C811 1.369 . S
C812 C821 1.429 . S
C813 C811 1.419 . S
C813 C814 1.363 . S
C813 H816 0.929 . S
C814 C813 1.363 . S
C814 C820 1.428 . S
H815 C811 0.930 . S
H816 C813 0.929 . S
S817 N818 1.613 . S
S817 N819 1.610 . S
N818 S817 1.613 . S
N818 C821 1.350 1_455 S
N819 S817 1.610 . S
N819 C820 1.351 1_455 S
C820 C814 1.428 . S
C820 N819 1.351 1_655 S
C820 C821 1.434 . S
C821 C812 1.429 . S
C821 N818 1.350 1_655 S
C821 C820 1.434 . S
C822 C823 1.369 . S
C822 C824 1.419 . S
C822 H826 0.930 . S
C823 C822 1.369 . S
C823 C832 1.429 . S
C824 C822 1.419 . S
C824 C825 1.363 . S
C824 H827 0.929 . S
C825 C824 1.363 . S
C825 C831 1.428 . S
H826 C822 0.930 . S
H827 C824 0.929 . S
S828 N829 1.613 . S
S828 N830 1.610 . S
N829 S828 1.613 . S
N829 C832 1.350 . S
N830 S828 1.610 . S
N830 C831 1.351 . S
C831 C825 1.428 . S
C831 N830 1.351 . S
C831 C832 1.434 . S
C832 C823 1.429 . S
C832 N829 1.350 . S
C832 C831 1.434 . S
C833 C834 1.369 . S
C833 C835 1.419 . S
C833 H837 0.930 . S
C834 C833 1.369 . S
C834 C843 1.429 . S
C835 C833 1.419 . S
C835 C836 1.363 . S
C835 H838 0.929 1_655 S
C836 C835 1.363 . S
C836 C842 1.428 . S
H837 C833 0.930 . S
H838 C835 0.929 1_455 S
S839 N840 1.613 . S
S839 N841 1.610 . S
N840 S839 1.613 . S
N840 C843 1.350 . S
N841 S839 1.610 . S
N841 C842 1.351 . S
C842 C836 1.428 . S
C842 N841 1.351 . S
C842 C843 1.434 . S
C843 C834 1.429 . S
C843 N840 1.350 . S
C843 C842 1.434 . S
C844 C845 1.369 . S
C844 C846 1.419 . S
C844 H848 0.930 . S
C845 C844 1.369 . S
C845 C854 1.429 . S
C846 C844 1.419 . S
C846 C847 1.363 . S
C846 H849 0.929 . S
C847 C846 1.363 . S
C847 C853 1.428 . S
H848 C844 0.930 . S
H849 C846 0.929 . S
S850 N851 1.613 . S
S850 N852 1.610 . S
N851 S850 1.613 . S
N851 C854 1.350 . S
N852 S850 1.610 . S
N852 C853 1.351 . S
C853 C847 1.428 . S
C853 N852 1.351 . S
C853 C854 1.434 . S
C854 C845 1.429 . S
C854 N851 1.350 . S
C854 C853 1.434 . S
C855 C856 1.369 . S
C855 C857 1.419 . S
C855 H859 0.930 . S
C856 C855 1.369 . S
C856 C865 1.429 . S
C857 C855 1.419 . S
C857 C858 1.363 . S
C857 H860 0.929 . S
C858 C857 1.363 . S
C858 C864 1.428 . S
H859 C855 0.930 . S
H860 C857 0.929 . S
S861 N862 1.613 . S
S861 N863 1.610 . S
N862 S861 1.613 . S
N862 C865 1.350 . S
N863 S861 1.610 . S
N863 C864 1.351 . S
C864 C858 1.428 . S
C864 N863 1.351 . S
C864 C865 1.434 . S
C865 C856 1.429 . S
C865 N862 1.350 . S
C865 C864 1.434 . S
C866 C867 1.369 . S
C866 C868 1.419 . S
C866 H870 0.930 . S
C867 C866 1.369 . S
C867 C876 1.429 . S
C868 C866 1.419 . S
C868 C869 1.363 . S
C868 H871 0.929 . S
C869 C868 1.363 . S
C869 C875 1.428 . S
H870 C866 0.930 . S
H871 C868 0.929 . S
S872 N873 1.613 . S
S872 N874 1.610 . S
N873 S872 1.613 . S
N873 C876 1.350 . S
N874 S872 1.610 . S
N874 C875 1.351 . S
C875 C869 1.428 . S
C875 N874 1.351 . S
C875 C876 1.434 . S
C876 C867 1.429 . S
C876 N873 1.350 . S
C876 C875 1.434 . S
C877 C878 1.369 . S
C877 C879 1.419 . S
C877 H881 0.930 . S
C878 C877 1.369 . S
C878 C887 1.429 . S
C879 C877 1.419 . S
C879 C880 1.363 . S
C879 H882 0.930 1_455 S
C880 C879 1.363 . S
C880 C886 1.428 . S
H881 C877 0.930 . S
H882 C879 0.930 1_655 S
S883 N884 1.613 . S
S883 N885 1.610 . S
N884 S883 1.613 . S
N884 C887 1.350 . S
N885 S883 1.610 . S
N885 C886 1.351 . S
C886 C880 1.428 . S
C886 N885 1.351 . S
C886 C887 1.434 . S
C887 C878 1.429 . S
C887 N884 1.350 . S
C887 C886 1.434 . S
C888 C889 1.369 . S
C888 C890 1.419 . S
C888 H892 0.930 . S
C889 C888 1.369 . S
C889 C898 1.429 . S
C890 C888 1.419 . S
C890 C891 1.363 . S
C890 H893 0.929 . S
C891 C890 1.363 . S
C891 C897 1.428 . S
H892 C888 0.930 . S
H893 C890 0.929 . S
S894 N895 1.613 . S
S894 N896 1.610 . S
N895 S894 1.613 . S
N895 C898 1.350 . S
N896 S894 1.610 . S
N896 C897 1.351 . S
C897 C891 1.428 . S
C897 N896 1.351 . S
C897 C898 1.434 . S
C898 C889 1.429 . S
C898 N895 1.350 . S
C898 C897 1.434 . S
C899 C900 1.369 . S
C899 C901 1.419 . S
C899 H903 0.930 . S
C900 C899 1.369 . S
C900 C909 1.429 . S
C901 C899 1.419 . S
C901 C902 1.363 . S
C901 H904 0.929 . S
C902 C901 1.363 . S
C902 C908 1.428 . S
H903 C899 0.930 . S
H904 C901 0.929 . S
S905 N906 1.613 . S
S905 N907 1.610 . S
N906 S905 1.613 . S
N906 C909 1.350 1_455 S
N907 S905 1.610 . S
N907 C908 1.351 1_455 S
C908 C902 1.428 . S
C908 N907 1.351 1_655 S
C908 C909 1.434 . S
C909 C900 1.429 . S
C909 N906 1.350 1_655 S
C909 C908 1.434 . S
C910 C911 1.369 . S
C910 C912 1.419 . S
C910 H914 0.930 . S
C911 C910 1.369 . S
C911 C920 1.429 . S
C912 C910 1.419 . S
C912 C913 1.363 . S
C912 H915 0.929 . S
C913 C912 1.363 . S
C913 C919 1.428 . S
H914 C910 0.930 . S
H915 C912 0.929 . S
S916 N917 1.613 . S
S916 N918 1.610 . S
N917 S916 1.613 . S
N917 C920 1.350 . S
N918 S916 1.610 . S
N918 C919 1.351 . S
C919 C913 1.428 . S
C919 N918 1.351 . S
C919 C920 1.434 . S
C920 C911 1.429 . S
C920 N917 1.350 . S
C920 C919 1.434 . S
C921 C922 1.369 . S
C921 C923 1.419 . S
C921 H925 0.930 . S
C922 C921 1.369 . S
C922 C931 1.429 . S
C923 C921 1.419 . S
C923 C924 1.363 . S
C923 H926 0.929 . S
C924 C923 1.363 . S
C924 C930 1.428 . S
H925 C921 0.930 . S
H926 C923 0.929 . S
S927 N928 1.613 . S
S927 N929 1.610 . S
N928 S927 1.613 . S
N928 C931 1.350 . S
N929 S927 1.610 . S
N929 C930 1.351 . S
C930 C924 1.428 . S
C930 N929 1.351 . S
C930 C931 1.434 . S
C931 C922 1.429 . S
C931 N928 1.350 . S
C931 C930 1.434 . S
C932 C933 1.369 . S
C932 C934 1.419 . S
C932 H936 0.930 . S
C933 C932 1.369 . S
C933 C942 1.429 . S
C934 C932 1.419 . S
C934 C935 1.363 . S
C934 H937 0.929 . S
C935 C934 1.363 . S
C935 C941 1.428 . S
H936 C932 0.930 . S
H937 C934 0.929 . S
S938 N939 1.613 . S
S938 N940 1.610 . S
N939 S938 1.613 . S
N939 C942 1.350 . S
N940 S938 1.610 . S
N940 C941 1.351 . S
C941 C935 1.428 . S
C941 N940 1.351 . S
C941 C942 1.434 . S
C942 C933 1.429 . S
C942 N939 1.350 . S
C942 C941 1.434 . S
C943 C944 1.369 . S
C943 C945 1.419 . S
C943 H947 0.930 . S
C944 C943 1.369 . S
C944 C953 1.429 . S
C945 C943 1.419 . S
C945 C946 1.363 . S
C945 H948 0.929 . S
C946 C945 1.363 . S
C946 C952 1.428 . S
H947 C943 0.930 . S
H948 C945 0.929 . S
S949 N950 1.613 . S
S949 N951 1.610 . S
N950 S949 1.613 . S
N950 C953 1.350 . S
N951 S949 1.610 . S
N951 C952 1.351 . S
C952 C946 1.428 . S
C952 N951 1.351 . S
C952 C953 1.434 . S
C953 C944 1.429 . S
C953 N950 1.350 . S
C953 C952 1.434 . S
C954 C955 1.369 . S
C954 C956 1.419 . S
C954 H958 0.930 . S
C955 C954 1.369 . S
C955 C964 1.429 . S
C956 C954 1.419 . S
C956 C957 1.363 . S
C956 H959 0.929 . S
C957 C956 1.363 . S
C957 C963 1.428 . S
H958 C954 0.930 . S
H959 C956 0.929 . S
S960 N961 1.613 . S
S960 N962 1.610 . S
N961 S960 1.613 . S
N961 C964 1.350 . S
N962 S960 1.610 . S
N962 C963 1.351 . S
C963 C957 1.428 . S
C963 N962 1.351 . S
C963 C964 1.434 . S
C964 C955 1.429 . S
C964 N961 1.350 . S
C964 C963 1.434 . S
C965 C966 1.369 . S
C965 C967 1.419 . S
C965 H969 0.930 1_455 S
C966 C965 1.369 . S
C966 C975 1.429 . S
C967 C965 1.419 . S
C967 C968 1.363 . S
C967 H970 0.929 1_455 S
C968 C967 1.363 . S
C968 C974 1.428 . S
H969 C965 0.930 1_655 S
H970 C967 0.929 1_655 S
S971 N972 1.613 . S
S971 N973 1.610 . S
N972 S971 1.613 . S
N972 C975 1.350 . S
N973 S971 1.610 . S
N973 C974 1.351 . S
C974 C968 1.428 . S
C974 N973 1.351 . S
C974 C975 1.434 . S
C975 C966 1.429 . S
C975 N972 1.350 . S
C975 C974 1.434 . S
C976 C977 1.369 . S
C976 C978 1.419 . S
C976 H980 0.930 . S
C977 C976 1.369 . S
C977 C986 1.429 1_554 S
C978 C976 1.419 . S
C978 C979 1.363 . S
C978 H981 0.929 . S
C979 C978 1.363 . S
C979 C985 1.428 1_554 S
H980 C976 0.930 . S
H981 C978 0.929 . S
S982 N983 1.613 . S
S982 N984 1.610 . S
N983 S982 1.613 . S
N983 C986 1.350 . S
N984 S982 1.610 . S
N984 C985 1.351 . S
C985 C979 1.428 1_556 S
C985 N984 1.351 . S
C985 C986 1.434 . S
C986 C977 1.429 1_556 S
C986 N983 1.350 . S
C986 C985 1.434 . S
C987 C988 1.369 . S
C987 C989 1.419 . S
C987 H991 0.930 . S
C988 C987 1.369 . S
C988 C997 1.429 . S
C989 C987 1.419 . S
C989 C990 1.363 . S
C989 H992 0.929 . S
C990 C989 1.363 . S
C990 C996 1.428 . S
H991 C987 0.930 . S
H992 C989 0.929 . S
S993 N994 1.613 . S
S993 N995 1.610 . S
N994 S993 1.613 . S
N994 C997 1.350 1_655 S
N995 S993 1.610 . S
N995 C996 1.351 1_655 S
C996 C990 1.428 . S
C996 N995 1.351 1_455 S
C996 C997 1.434 . S
C997 C988 1.429 . S
C997 N994 1.350 1_455 S
C997 C996 1.434 . S
C998 C999 1.369 . S
C998 C1000 1.419 . S
C998 H1002 0.932 1_655 S
C999 C998 1.369 . S
C999 C1008 1.429 . S
C1000 C998 1.419 . S
C1000 C1001 1.363 . S
C1000 H1003 0.929 1_655 S
C1001 C1000 1.363 . S
C1001 C1007 1.428 . S
H1002 C998 0.932 1_455 S
H1003 C1000 0.929 1_455 S
S1004 N1005 1.613 . S
S1004 N1006 1.610 . S
N1005 S1004 1.613 . S
N1005 C1008 1.350 . S
N1006 S1004 1.610 . S
N1006 C1007 1.351 . S
C1007 C1001 1.428 . S
C1007 N1006 1.351 . S
C1007 C1008 1.434 . S
C1008 C999 1.429 . S
C1008 N1005 1.350 . S
C1008 C1007 1.434 . S
C1009 C1010 1.369 . S
C1009 C1011 1.419 . S
C1009 H1013 0.930 . S
C1010 C1009 1.369 . S
C1010 C1019 1.429 . S
C1011 C1009 1.419 . S
C1011 C1012 1.363 . S
C1011 H1014 0.929 . S
C1012 C1011 1.363 . S
C1012 C1018 1.428 . S
H1013 C1009 0.930 . S
H1014 C1011 0.929 . S
S1015 N1016 1.613 . S
S1015 N1017 1.610 . S
N1016 S1015 1.613 . S
N1016 C1019 1.350 . S
N1017 S1015 1.610 . S
N1017 C1018 1.351 . S
C1018 C1012 1.428 . S
C1018 N1017 1.351 . S
C1018 C1019 1.434 . S
C1019 C1010 1.429 . S
C1019 N1016 1.350 . S
C1019 C1018 1.434 . S
C1020 C1021 1.369 . S
C1020 C1022 1.419 . S
C1020 H1024 0.930 . S
C1021 C1020 1.369 . S
C1021 C1030 1.429 . S
C1022 C1020 1.419 . S
C1022 C1023 1.363 . S
C1022 H1025 0.929 . S
C1023 C1022 1.363 . S
C1023 C1029 1.428 . S
H1024 C1020 0.930 . S
H1025 C1022 0.929 . S
S1026 N1027 1.613 . S
S1026 N1028 1.610 1_655 S
N1027 S1026 1.613 . S
N1027 C1030 1.350 1_655 S
N1028 S1026 1.610 1_455 S
N1028 C1029 1.351 . S
C1029 C1023 1.428 . S
C1029 N1028 1.351 . S
C1029 C1030 1.434 . S
C1030 C1021 1.429 . S
C1030 N1027 1.350 1_455 S
C1030 C1029 1.434 . S
C1031 C1032 1.369 . S
C1031 C1033 1.419 . S
C1031 H1035 0.930 1_455 S
C1032 C1031 1.369 . S
C1032 C1041 1.429 . S
C1033 C1031 1.419 . S
C1033 C1034 1.363 . S
C1033 H1036 0.929 1_455 S
C1034 C1033 1.363 . S
C1034 C1040 1.428 . S
H1035 C1031 0.930 1_655 S
H1036 C1033 0.929 1_655 S
S1037 N1038 1.613 . S
S1037 N1039 1.610 . S
N1038 S1037 1.613 . S
N1038 C1041 1.350 . S
N1039 S1037 1.610 . S
N1039 C1040 1.351 . S
C1040 C1034 1.428 . S
C1040 N1039 1.351 . S
C1040 C1041 1.434 . S
C1041 C1032 1.429 . S
C1041 N1038 1.350 . S
C1041 C1040 1.434 . S
C1042 C1043 1.369 . S
C1042 C1044 1.419 . S
C1042 H1046 0.930 . S
C1043 C1042 1.369 . S
C1043 C1052 1.429 . S
C1044 C1042 1.419 . S
C1044 C1045 1.363 . S
C1044 H1047 0.929 . S
C1045 C1044 1.363 . S
C1045 C1051 1.428 . S
H1046 C1042 0.930 . S
H1047 C1044 0.929 . S
S1048 N1049 1.613 . S
S1048 N1050 1.610 . S
N1049 S1048 1.613 . S
N1049 C1052 1.350 . S
N1050 S1048 1.610 . S
N1050 C1051 1.351 . S
C1051 C1045 1.428 . S
C1051 N1050 1.351 . S
C1051 C1052 1.434 . S
C1052 C1043 1.429 . S
C1052 N1049 1.350 . S
C1052 C1051 1.434 . S
C1053 C1054 1.369 . S
C1053 C1055 1.419 . S
C1053 H1057 0.930 1_655 S
C1054 C1053 1.369 . S
C1054 C1063 1.429 . S
C1055 C1053 1.419 . S
C1055 C1056 1.363 . S
C1055 H1058 0.929 1_655 S
C1056 C1055 1.363 . S
C1056 C1062 1.428 . S
H1057 C1053 0.930 1_455 S
H1058 C1055 0.929 1_455 S
S1059 N1060 1.613 . S
S1059 N1061 1.610 . S
N1060 S1059 1.613 . S
N1060 C1063 1.350 . S
N1061 S1059 1.610 . S
N1061 C1062 1.351 . S
C1062 C1056 1.428 . S
C1062 N1061 1.351 . S
C1062 C1063 1.434 . S
C1063 C1054 1.429 . S
C1063 N1060 1.350 . S
C1063 C1062 1.434 . S
C1064 C1065 1.369 . S
C1064 C1066 1.419 . S
C1064 H1068 0.930 . S
C1065 C1064 1.369 . S
C1065 C1074 1.429 . S
C1066 C1064 1.419 . S
C1066 C1067 1.363 . S
C1066 H1069 0.929 . S
C1067 C1066 1.363 . S
C1067 C1073 1.428 . S
H1068 C1064 0.930 . S
H1069 C1066 0.929 . S
S1070 N1071 1.613 . S
S1070 N1072 1.610 . S
N1071 S1070 1.613 . S
N1071 C1074 1.350 . S
N1072 S1070 1.610 . S
N1072 C1073 1.351 . S
C1073 C1067 1.428 . S
C1073 N1072 1.351 . S
C1073 C1074 1.434 . S
C1074 C1065 1.429 . S
C1074 N1071 1.350 . S
C1074 C1073 1.434 . S
C1075 C1076 1.369 . S
C1075 C1077 1.419 . S
C1075 H1079 0.930 . S
C1076 C1075 1.369 . S
C1076 C1085 1.429 . S
C1077 C1075 1.419 . S
C1077 C1078 1.363 . S
C1077 H1080 0.929 . S
C1078 C1077 1.363 . S
C1078 C1084 1.428 . S
H1079 C1075 0.930 . S
H1080 C1077 0.929 . S
S1081 N1082 1.613 . S
S1081 N1083 1.610 . S
N1082 S1081 1.613 . S
N1082 C1085 1.350 . S
N1083 S1081 1.610 . S
N1083 C1084 1.351 . S
C1084 C1078 1.428 . S
C1084 N1083 1.351 . S
C1084 C1085 1.434 . S
C1085 C1076 1.429 . S
C1085 N1082 1.350 . S
C1085 C1084 1.434 . S
C1086 C1087 1.369 . S
C1086 C1088 1.419 . S
C1086 H1090 0.930 . S
C1087 C1086 1.369 . S
C1087 C1096 1.429 . S
C1088 C1086 1.419 . S
C1088 C1089 1.363 . S
C1088 H1091 0.929 . S
C1089 C1088 1.363 . S
C1089 C1095 1.428 . S
H1090 C1086 0.930 . S
H1091 C1088 0.929 . S
S1092 N1093 1.613 . S
S1092 N1094 1.610 . S
N1093 S1092 1.613 . S
N1093 C1096 1.350 . S
N1094 S1092 1.610 . S
N1094 C1095 1.351 . S
C1095 C1089 1.428 . S
C1095 N1094 1.351 . S
C1095 C1096 1.434 . S
C1096 C1087 1.429 . S
C1096 N1093 1.350 . S
C1096 C1095 1.434 . S
C1097 C1098 1.369 . S
C1097 C1099 1.419 . S
C1097 H1101 0.930 . S
C1098 C1097 1.369 . S
C1098 C1107 1.429 . S
C1099 C1097 1.419 . S
C1099 C1100 1.363 . S
C1099 H1102 0.929 . S
C1100 C1099 1.363 . S
C1100 C1106 1.428 . S
H1101 C1097 0.930 . S
H1102 C1099 0.929 . S
S1103 N1104 1.613 . S
S1103 N1105 1.610 . S
N1104 S1103 1.613 . S
N1104 C1107 1.350 . S
N1105 S1103 1.610 . S
N1105 C1106 1.351 . S
C1106 C1100 1.428 . S
C1106 N1105 1.351 . S
C1106 C1107 1.434 . S
C1107 C1098 1.429 . S
C1107 N1104 1.350 . S
C1107 C1106 1.434 . S
C1108 C1109 1.369 1_556 S
C1108 C1110 1.419 . S
C1108 H1112 0.930 . S
C1109 C1108 1.369 1_554 S
C1109 C1118 1.429 . S
C1110 C1108 1.419 . S
C1110 C1111 1.363 1_556 S
C1110 H1113 0.929 . S
C1111 C1110 1.363 1_554 S
C1111 C1117 1.428 . S
H1112 C1108 0.930 . S
H1113 C1110 0.929 . S
S1114 N1115 1.613 . S
S1114 N1116 1.610 . S
N1115 S1114 1.613 . S
N1115 C1118 1.350 . S
N1116 S1114 1.610 . S
N1116 C1117 1.351 . S
C1117 C1111 1.428 . S
C1117 N1116 1.351 . S
C1117 C1118 1.434 . S
C1118 C1109 1.429 . S
C1118 N1115 1.350 . S
C1118 C1117 1.434 . S
C1119 C1120 1.369 . S
C1119 C1121 1.419 . S
C1119 H1123 0.930 . S
C1120 C1119 1.369 . S
C1120 C1129 1.429 . S
C1121 C1119 1.419 . S
C1121 C1122 1.363 . S
C1121 H1124 0.929 . S
C1122 C1121 1.363 . S
C1122 C1128 1.428 . S
H1123 C1119 0.930 . S
H1124 C1121 0.929 . S
S1125 N1126 1.613 . S
S1125 N1127 1.610 . S
N1126 S1125 1.613 . S
N1126 C1129 1.350 . S
N1127 S1125 1.610 . S
N1127 C1128 1.351 . S
C1128 C1122 1.428 . S
C1128 N1127 1.351 . S
C1128 C1129 1.434 . S
C1129 C1120 1.429 . S
C1129 N1126 1.350 . S
C1129 C1128 1.434 . S
C1130 C1131 1.369 . S
C1130 C1132 1.419 . S
C1130 H1134 0.930 . S
C1131 C1130 1.369 . S
C1131 C1140 1.429 1_556 S
C1132 C1130 1.419 . S
C1132 C1133 1.363 . S
C1132 H1135 0.929 . S
C1133 C1132 1.363 . S
C1133 C1139 1.428 1_556 S
H1134 C1130 0.930 . S
H1135 C1132 0.929 . S
S1136 N1137 1.613 . S
S1136 N1138 1.610 . S
N1137 S1136 1.613 . S
N1137 C1140 1.350 . S
N1138 S1136 1.610 . S
N1138 C1139 1.351 . S
C1139 C1133 1.428 1_554 S
C1139 N1138 1.351 . S
C1139 C1140 1.434 . S
C1140 C1131 1.429 1_554 S
C1140 N1137 1.350 . S
C1140 C1139 1.434 . S
C1141 C1142 1.369 . S
C1141 C1143 1.419 . S
C1141 H1145 0.930 . S
C1142 C1141 1.369 . S
C1142 C1151 1.429 . S
C1143 C1141 1.419 . S
C1143 C1144 1.363 . S
C1143 H1146 0.929 . S
C1144 C1143 1.363 . S
C1144 C1150 1.428 . S
H1145 C1141 0.930 . S
H1146 C1143 0.929 . S
S1147 N1148 1.613 . S
S1147 N1149 1.610 . S
N1148 S1147 1.613 . S
N1148 C1151 1.350 . S
N1149 S1147 1.610 . S
N1149 C1150 1.351 . S
C1150 C1144 1.428 . S
C1150 N1149 1.351 . S
C1150 C1151 1.434 . S
C1151 C1142 1.429 . S
C1151 N1148 1.350 . S
C1151 C1150 1.434 . S
C449 C12 1.535 . S
C451 C55 1.534 . S
C460 C28 1.534 . S
C462 C26 1.534 . S
C471 C110 1.535 . S
C473 C57 1.535 . S
C482 C84 1.535 . S
C484 C70 1.534 . S
C493 C112 1.534 . S
C495 C167 1.535 . S
C504 C139 1.534 . S
C506 C141 1.535 . S
C515 C210 1.535 . S
C517 C168 1.534 . S
C526 C209 1.534 . S
C528 C183 1.535 . S
C537 C224 1.535 . S
C539 C278 1.534 . S
C548 C251 1.533 . S
C550 C252 1.534 . S
C559 C280 1.533 . S
C561 C334 1.533 . S
C570 C294 1.533 . S
C572 C308 1.534 . S
C581 C337 1.535 . S
C583 C391 1.534 . S
C592 C365 1.535 . S
C594 C362 1.534 . S
C603 C447 1.534 . S
C605 C393 1.534 . S
C614 C420 1.535 . S
C616 C407 1.535 . S
C625 C0 1.556 1_556 S
C627 C69 1.558 . S
C636 C419 1.556 1_554 S
C638 C14 1.559 . S
C647 C40 1.558 . S
C649 C197 1.556 . S
C658 C322 1.554 . S
C660 C43 1.557 . S
C669 C350 1.559 1_556 S
C671 C82 1.555 . S
C680 C96 1.556 . S
C682 C153 1.556 . S
C691 C98 1.558 . S
C693 C266 1.556 . S
C702 C180 1.558 . S
C704 C124 1.555 . S
C713 C306 1.556 . S
C715 C127 1.555 . S
C724 C155 1.555 . S
C726 C435 1.557 . S
C735 C195 1.557 . S
C737 C239 1.555 . S
C746 C222 1.554 . S
C748 C379 1.557 . S
C757 C292 1.558 . S
C759 C236 1.555 . S
C768 C264 1.557 . S
C770 C432 1.555 . S
C779 C320 1.557 . S
C781 C377 1.554 . S
C790 C405 1.556 . S
C792 C349 1.558 . S
C801 C13 1.481 . S
C803 C279 1.479 . S
C812 C27 1.478 . S
C814 C253 1.481 . S
C823 C250 1.481 . S
C825 C29 1.481 . S
C834 C225 1.480 . S
C836 C54 1.482 . S
C845 C56 1.481 . S
C847 C335 1.480 . S
C856 C71 1.480 . S
C858 C309 1.479 . S
C867 C85 1.481 . S
C869 C295 1.481 . S
C878 C281 1.479 . S
C880 C111 1.480 . S
C889 C113 1.480 . S
C891 C390 1.479 . S
C900 C364 1.480 . S
C902 C138 1.479 . S
C911 C363 1.481 . S
C913 C140 1.479 . S
C922 C166 1.480 . S
C924 C336 1.480 . S
C933 C169 1.480 . S
C935 C446 1.479 . S
C944 C182 1.479 . S
C946 C421 1.481 . S
C955 C406 1.481 . S
C957 C208 1.479 . S
C966 C211 1.482 . S
C968 C392 1.479 . S
C977 C15 1.548 . S
C979 C1 1.546 . S
C988 C41 1.549 . S
C990 C42 1.547 . S
C999 C83 1.552 1_556 S
C1001 C68 1.546 . S
C1010 C97 1.549 . S
C1012 C99 1.551 . S
C1021 C126 1.549 . S
C1023 C125 1.549 . S
C1032 C152 1.547 . S
C1034 C154 1.551 . S
C1043 C181 1.548 . S
C1045 C194 1.549 . S
C1054 C196 1.545 . S
C1056 C223 1.550 . S
C1065 C237 1.549 . S
C1067 C238 1.549 . S
C1076 C267 1.545 . S
C1078 C265 1.549 . S
C1087 C293 1.547 . S
C1089 C307 1.549 . S
C1098 C323 1.549 . S
C1100 C321 1.548 . S
C1109 C351 1.550 . S
C1111 C348 1.549 1_554 S
C1120 C376 1.548 . S
C1122 C378 1.548 . S
C1131 C404 1.549 . S
C1133 C418 1.546 . S
C1142 C434 1.546 . S
C1144 C433 1.549 . S
