# Generated by pormake.
# Topology ukr, (4)-cn, num edge types: 1
# Building blocks:
#     Node 0, Type 0, BuildingBlock: CEKHIL_clean_sbu_0, # of connection points: 4
#     Node 1, Type 0, BuildingBlock: CEKHIL_clean_sbu_0, # of connection points: 4
#     Node 2, Type 0, BuildingBlock: CEKHIL_clean_sbu_0, # of connection points: 4
#     Node 3, Type 0, BuildingBlock: CEKHIL_clean_sbu_0, # of connection points: 4
#     Node 4, Type 0, BuildingBlock: CEKHIL_clean_sbu_0, # of connection points: 4
#     Node 5, Type 0, BuildingBlock: CEKHIL_clean_sbu_0, # of connection points: 4
#     Node 6, Type 0, BuildingBlock: CEKHIL_clean_sbu_0, # of connection points: 4
#     Node 7, Type 0, BuildingBlock: CEKHIL_clean_sbu_0, # of connection points: 4
#     Node 8, Type 0, BuildingBlock: CEKHIL_clean_sbu_0, # of connection points: 4
#     Node 9, Type 0, BuildingBlock: CEKHIL_clean_sbu_0, # of connection points: 4
#     Node 10, Type 0, BuildingBlock: CEKHIL_clean_sbu_0, # of connection points: 4
#     Node 11, Type 0, BuildingBlock: CEKHIL_clean_sbu_0, # of connection points: 4
#     Node 12, Type 0, BuildingBlock: CEKHIL_clean_sbu_0, # of connection points: 4
#     Node 13, Type 0, BuildingBlock: CEKHIL_clean_sbu_0, # of connection points: 4
#     Node 14, Type 0, BuildingBlock: CEKHIL_clean_sbu_0, # of connection points: 4
#     Node 15, Type 0, BuildingBlock: CEKHIL_clean_sbu_0, # of connection points: 4
#     Node 16, Type 0, BuildingBlock: CEKHIL_clean_sbu_0, # of connection points: 4
#     Node 17, Type 0, BuildingBlock: CEKHIL_clean_sbu_0, # of connection points: 4
#     Node 18, Type 0, BuildingBlock: CEKHIL_clean_sbu_0, # of connection points: 4
#     Node 19, Type 0, BuildingBlock: CEKHIL_clean_sbu_0, # of connection points: 4
#     Node 20, Type 0, BuildingBlock: CEKHIL_clean_sbu_0, # of connection points: 4
#     Node 21, Type 0, BuildingBlock: CEKHIL_clean_sbu_0, # of connection points: 4
#     Node 22, Type 0, BuildingBlock: CEKHIL_clean_sbu_0, # of connection points: 4
#     Node 23, Type 0, BuildingBlock: CEKHIL_clean_sbu_0, # of connection points: 4
#     Node 24, Type 0, BuildingBlock: CEKHIL_clean_sbu_0, # of connection points: 4
#     Node 25, Type 0, BuildingBlock: CEKHIL_clean_sbu_0, # of connection points: 4
#     Node 26, Type 0, BuildingBlock: CEKHIL_clean_sbu_0, # of connection points: 4
#     Node 27, Type 0, BuildingBlock: CEKHIL_clean_sbu_0, # of connection points: 4
#     Node 28, Type 0, BuildingBlock: CEKHIL_clean_sbu_0, # of connection points: 4
#     Node 29, Type 0, BuildingBlock: CEKHIL_clean_sbu_0, # of connection points: 4
#     Node 30, Type 0, BuildingBlock: CEKHIL_clean_sbu_0, # of connection points: 4
#     Node 31, Type 0, BuildingBlock: CEKHIL_clean_sbu_0, # of connection points: 4
#     Node 32, Type 0, BuildingBlock: CEKHIL_clean_sbu_0, # of connection points: 4
#     Node 33, Type 0, BuildingBlock: CEKHIL_clean_sbu_0, # of connection points: 4
#     Node 34, Type 0, BuildingBlock: CEKHIL_clean_sbu_0, # of connection points: 4
#     Node 35, Type 0, BuildingBlock: CEKHIL_clean_sbu_0, # of connection points: 4
#     Node 36, Type 0, BuildingBlock: CEKHIL_clean_sbu_0, # of connection points: 4
#     Node 37, Type 0, BuildingBlock: CEKHIL_clean_sbu_0, # of connection points: 4
#     Node 38, Type 0, BuildingBlock: CEKHIL_clean_sbu_0, # of connection points: 4
#     Node 39, Type 0, BuildingBlock: CEKHIL_clean_sbu_0, # of connection points: 4
#     Node 40, Type 0, BuildingBlock: CEKHIL_clean_sbu_0, # of connection points: 4
#     Node 41, Type 0, BuildingBlock: CEKHIL_clean_sbu_0, # of connection points: 4
#     Node 42, Type 0, BuildingBlock: CEKHIL_clean_sbu_0, # of connection points: 4
#     Node 43, Type 0, BuildingBlock: CEKHIL_clean_sbu_0, # of connection points: 4
#     Node 44, Type 0, BuildingBlock: CEKHIL_clean_sbu_0, # of connection points: 4
#     Node 45, Type 0, BuildingBlock: CEKHIL_clean_sbu_0, # of connection points: 4
#     Node 46, Type 0, BuildingBlock: CEKHIL_clean_sbu_0, # of connection points: 4
#     Node 47, Type 0, BuildingBlock: CEKHIL_clean_sbu_0, # of connection points: 4
#     Edge 48, Type (0, 0), BuildingBlock: AJUNOK_clean_linker_0, # of connection points: 2
#     Edge 49, Type (0, 0), BuildingBlock: AJUNOK_clean_linker_0, # of connection points: 2
#     Edge 50, Type (0, 0), BuildingBlock: AJUNOK_clean_linker_0, # of connection points: 2
#     Edge 51, Type (0, 0), BuildingBlock: AJUNOK_clean_linker_0, # of connection points: 2
#     Edge 52, Type (0, 0), BuildingBlock: AJUNOK_clean_linker_0, # of connection points: 2
#     Edge 53, Type (0, 0), BuildingBlock: AJUNOK_clean_linker_0, # of connection points: 2
#     Edge 54, Type (0, 0), BuildingBlock: AJUNOK_clean_linker_0, # of connection points: 2
#     Edge 55, Type (0, 0), BuildingBlock: AJUNOK_clean_linker_0, # of connection points: 2
#     Edge 56, Type (0, 0), BuildingBlock: AJUNOK_clean_linker_0, # of connection points: 2
#     Edge 57, Type (0, 0), BuildingBlock: AJUNOK_clean_linker_0, # of connection points: 2
#     Edge 58, Type (0, 0), BuildingBlock: AJUNOK_clean_linker_0, # of connection points: 2
#     Edge 59, Type (0, 0), BuildingBlock: AJUNOK_clean_linker_0, # of connection points: 2
#     Edge 60, Type (0, 0), BuildingBlock: AJUNOK_clean_linker_0, # of connection points: 2
#     Edge 61, Type (0, 0), BuildingBlock: AJUNOK_clean_linker_0, # of connection points: 2
#     Edge 62, Type (0, 0), BuildingBlock: AJUNOK_clean_linker_0, # of connection points: 2
#     Edge 63, Type (0, 0), BuildingBlock: AJUNOK_clean_linker_0, # of connection points: 2
#     Edge 64, Type (0, 0), BuildingBlock: AJUNOK_clean_linker_0, # of connection points: 2
#     Edge 65, Type (0, 0), BuildingBlock: AJUNOK_clean_linker_0, # of connection points: 2
#     Edge 66, Type (0, 0), BuildingBlock: AJUNOK_clean_linker_0, # of connection points: 2
#     Edge 67, Type (0, 0), BuildingBlock: AJUNOK_clean_linker_0, # of connection points: 2
#     Edge 68, Type (0, 0), BuildingBlock: AJUNOK_clean_linker_0, # of connection points: 2
#     Edge 69, Type (0, 0), BuildingBlock: AJUNOK_clean_linker_0, # of connection points: 2
#     Edge 70, Type (0, 0), BuildingBlock: AJUNOK_clean_linker_0, # of connection points: 2
#     Edge 71, Type (0, 0), BuildingBlock: AJUNOK_clean_linker_0, # of connection points: 2
#     Edge 72, Type (0, 0), BuildingBlock: AJUNOK_clean_linker_0, # of connection points: 2
#     Edge 73, Type (0, 0), BuildingBlock: AJUNOK_clean_linker_0, # of connection points: 2
#     Edge 74, Type (0, 0), BuildingBlock: AJUNOK_clean_linker_0, # of connection points: 2
#     Edge 75, Type (0, 0), BuildingBlock: AJUNOK_clean_linker_0, # of connection points: 2
#     Edge 76, Type (0, 0), BuildingBlock: AJUNOK_clean_linker_0, # of connection points: 2
#     Edge 77, Type (0, 0), BuildingBlock: AJUNOK_clean_linker_0, # of connection points: 2
#     Edge 78, Type (0, 0), BuildingBlock: AJUNOK_clean_linker_0, # of connection points: 2
#     Edge 79, Type (0, 0), BuildingBlock: AJUNOK_clean_linker_0, # of connection points: 2
#     Edge 80, Type (0, 0), BuildingBlock: AJUNOK_clean_linker_0, # of connection points: 2
#     Edge 81, Type (0, 0), BuildingBlock: AJUNOK_clean_linker_0, # of connection points: 2
#     Edge 82, Type (0, 0), BuildingBlock: AJUNOK_clean_linker_0, # of connection points: 2
#     Edge 83, Type (0, 0), BuildingBlock: AJUNOK_clean_linker_0, # of connection points: 2
#     Edge 84, Type (0, 0), BuildingBlock: AJUNOK_clean_linker_0, # of connection points: 2
#     Edge 85, Type (0, 0), BuildingBlock: AJUNOK_clean_linker_0, # of connection points: 2
#     Edge 86, Type (0, 0), BuildingBlock: AJUNOK_clean_linker_0, # of connection points: 2
#     Edge 87, Type (0, 0), BuildingBlock: AJUNOK_clean_linker_0, # of connection points: 2
#     Edge 88, Type (0, 0), BuildingBlock: AJUNOK_clean_linker_0, # of connection points: 2
#     Edge 89, Type (0, 0), BuildingBlock: AJUNOK_clean_linker_0, # of connection points: 2
#     Edge 90, Type (0, 0), BuildingBlock: AJUNOK_clean_linker_0, # of connection points: 2
#     Edge 91, Type (0, 0), BuildingBlock: AJUNOK_clean_linker_0, # of connection points: 2
#     Edge 92, Type (0, 0), BuildingBlock: AJUNOK_clean_linker_0, # of connection points: 2
#     Edge 93, Type (0, 0), BuildingBlock: AJUNOK_clean_linker_0, # of connection points: 2
#     Edge 94, Type (0, 0), BuildingBlock: AJUNOK_clean_linker_0, # of connection points: 2
#     Edge 95, Type (0, 0), BuildingBlock: AJUNOK_clean_linker_0, # of connection points: 2
#     Edge 96, Type (0, 0), BuildingBlock: AJUNOK_clean_linker_0, # of connection points: 2
#     Edge 97, Type (0, 0), BuildingBlock: AJUNOK_clean_linker_0, # of connection points: 2
#     Edge 98, Type (0, 0), BuildingBlock: AJUNOK_clean_linker_0, # of connection points: 2
#     Edge 99, Type (0, 0), BuildingBlock: AJUNOK_clean_linker_0, # of connection points: 2
#     Edge 100, Type (0, 0), BuildingBlock: AJUNOK_clean_linker_0, # of connection points: 2
#     Edge 101, Type (0, 0), BuildingBlock: AJUNOK_clean_linker_0, # of connection points: 2
#     Edge 102, Type (0, 0), BuildingBlock: AJUNOK_clean_linker_0, # of connection points: 2
#     Edge 103, Type (0, 0), BuildingBlock: AJUNOK_clean_linker_0, # of connection points: 2
#     Edge 104, Type (0, 0), BuildingBlock: AJUNOK_clean_linker_0, # of connection points: 2
#     Edge 105, Type (0, 0), BuildingBlock: AJUNOK_clean_linker_0, # of connection points: 2
#     Edge 106, Type (0, 0), BuildingBlock: AJUNOK_clean_linker_0, # of connection points: 2
#     Edge 107, Type (0, 0), BuildingBlock: AJUNOK_clean_linker_0, # of connection points: 2
#     Edge 108, Type (0, 0), BuildingBlock: AJUNOK_clean_linker_0, # of connection points: 2
#     Edge 109, Type (0, 0), BuildingBlock: AJUNOK_clean_linker_0, # of connection points: 2
#     Edge 110, Type (0, 0), BuildingBlock: AJUNOK_clean_linker_0, # of connection points: 2
#     Edge 111, Type (0, 0), BuildingBlock: AJUNOK_clean_linker_0, # of connection points: 2
#     Edge 112, Type (0, 0), BuildingBlock: AJUNOK_clean_linker_0, # of connection points: 2
#     Edge 113, Type (0, 0), BuildingBlock: AJUNOK_clean_linker_0, # of connection points: 2
#     Edge 114, Type (0, 0), BuildingBlock: AJUNOK_clean_linker_0, # of connection points: 2
#     Edge 115, Type (0, 0), BuildingBlock: AJUNOK_clean_linker_0, # of connection points: 2
#     Edge 116, Type (0, 0), BuildingBlock: AJUNOK_clean_linker_0, # of connection points: 2
#     Edge 117, Type (0, 0), BuildingBlock: AJUNOK_clean_linker_0, # of connection points: 2
#     Edge 118, Type (0, 0), BuildingBlock: AJUNOK_clean_linker_0, # of connection points: 2
#     Edge 119, Type (0, 0), BuildingBlock: AJUNOK_clean_linker_0, # of connection points: 2
#     Edge 120, Type (0, 0), BuildingBlock: AJUNOK_clean_linker_0, # of connection points: 2
#     Edge 121, Type (0, 0), BuildingBlock: AJUNOK_clean_linker_0, # of connection points: 2
#     Edge 122, Type (0, 0), BuildingBlock: AJUNOK_clean_linker_0, # of connection points: 2
#     Edge 123, Type (0, 0), BuildingBlock: AJUNOK_clean_linker_0, # of connection points: 2
#     Edge 124, Type (0, 0), BuildingBlock: AJUNOK_clean_linker_0, # of connection points: 2
#     Edge 125, Type (0, 0), BuildingBlock: AJUNOK_clean_linker_0, # of connection points: 2
#     Edge 126, Type (0, 0), BuildingBlock: AJUNOK_clean_linker_0, # of connection points: 2
#     Edge 127, Type (0, 0), BuildingBlock: AJUNOK_clean_linker_0, # of connection points: 2
#     Edge 128, Type (0, 0), BuildingBlock: AJUNOK_clean_linker_0, # of connection points: 2
#     Edge 129, Type (0, 0), BuildingBlock: AJUNOK_clean_linker_0, # of connection points: 2
#     Edge 130, Type (0, 0), BuildingBlock: AJUNOK_clean_linker_0, # of connection points: 2
#     Edge 131, Type (0, 0), BuildingBlock: AJUNOK_clean_linker_0, # of connection points: 2
#     Edge 132, Type (0, 0), BuildingBlock: AJUNOK_clean_linker_0, # of connection points: 2
#     Edge 133, Type (0, 0), BuildingBlock: AJUNOK_clean_linker_0, # of connection points: 2
#     Edge 134, Type (0, 0), BuildingBlock: AJUNOK_clean_linker_0, # of connection points: 2
#     Edge 135, Type (0, 0), BuildingBlock: AJUNOK_clean_linker_0, # of connection points: 2
#     Edge 136, Type (0, 0), BuildingBlock: AJUNOK_clean_linker_0, # of connection points: 2
#     Edge 137, Type (0, 0), BuildingBlock: AJUNOK_clean_linker_0, # of connection points: 2
#     Edge 138, Type (0, 0), BuildingBlock: AJUNOK_clean_linker_0, # of connection points: 2
#     Edge 139, Type (0, 0), BuildingBlock: AJUNOK_clean_linker_0, # of connection points: 2
#     Edge 140, Type (0, 0), BuildingBlock: AJUNOK_clean_linker_0, # of connection points: 2
#     Edge 141, Type (0, 0), BuildingBlock: AJUNOK_clean_linker_0, # of connection points: 2
#     Edge 142, Type (0, 0), BuildingBlock: AJUNOK_clean_linker_0, # of connection points: 2
#     Edge 143, Type (0, 0), BuildingBlock: AJUNOK_clean_linker_0, # of connection points: 2
# Relax obj value: 0.463
# Max RMSD: 0.183
# Mean RMSD: 0.183
data_MOF--net-ukr--node1-CEKHIL_clean_sbu_0--edge1-AJUNOK_clean_linker_0
_symmetry_space_group_name_H-M    P1
_symmetry_Int_Tables_number       1
_symmetry_cell_setting            triclinic
loop_
_symmetry_equiv_pos_as_xyz
'x, y, z'
_cell_length_a     50.620321
_cell_length_b     50.642764
_cell_length_c     50.648497
_cell_angle_alpha  90.137138
_cell_angle_beta   90.086462
_cell_angle_gamma 89.970051
loop_
_atom_site_label
_atom_site_type_symbol
_atom_site_fract_x
_atom_site_fract_y
_atom_site_fract_z
_atom_type_partial_charge
Co0 Co 0.09185 0.25391 0.23258 0.0
O1 O 0.0601 0.25001 0.2524 0.0
O2 O 0.06176 0.26004 0.20983 0.0
C3 C 0.11309 0.21747 0.24663 0.0
O4 O 0.12142 0.25862 0.20594 0.0
Co5 Co 0.14401 0.26293 0.26391 0.0
O6 O 0.16001 0.26206 0.22812 0.0
C7 C 0.10541 0.30535 0.26027 0.0
C8 C 0.04757 0.25563 0.23078 0.0
C9 C 0.14674 0.26094 0.20669 0.0
O10 O 0.0935 0.29277 0.24164 0.0
O11 O 0.12274 0.29439 0.27502 0.0
O12 O 0.09523 0.21561 0.22825 0.0
O13 O 0.11416 0.24008 0.2583 0.0
Co14 Co 0.23464 0.59396 0.71792 0.0
O15 O 0.23513 0.5616 0.73695 0.0
O16 O 0.22777 0.56498 0.69386 0.0
C17 C 0.27156 0.61205 0.73511 0.0
O18 O 0.2332 0.62462 0.69215 0.0
Co19 Co 0.22723 0.64529 0.75123 0.0
O20 O 0.22951 0.66226 0.71595 0.0
C21 C 0.18237 0.61056 0.74233 0.0
C22 C 0.22969 0.55009 0.71471 0.0
C23 C 0.23112 0.6499 0.69401 0.0
O24 O 0.19553 0.59808 0.72455 0.0
O25 O 0.19334 0.62639 0.75873 0.0
O26 O 0.27337 0.59485 0.71609 0.0
O27 O 0.24835 0.6143 0.74525 0.0
Co28 Co 0.89296 0.73386 0.23465 0.0
O29 O 0.9256 0.73677 0.25348 0.0
O30 O 0.92201 0.72942 0.21045 0.0
C31 C 0.87202 0.76925 0.25167 0.0
O32 O 0.86256 0.73059 0.20866 0.0
Co33 Co 0.8418 0.72235 0.2666 0.0
O34 O 0.82461 0.72576 0.23142 0.0
C35 C 0.87907 0.67951 0.25651 0.0
C36 C 0.93717 0.73289 0.23094 0.0
C37 C 0.83729 0.72815 0.20978 0.0
O38 O 0.89188 0.6945 0.24059 0.0
O39 O 0.86122 0.68833 0.27208 0.0
O40 O 0.8894 0.77222 0.23307 0.0
O41 O 0.8713 0.74596 0.26197 0.0
Co42 Co 0.75539 0.3981 0.72549 0.0
O43 O 0.75538 0.43163 0.74251 0.0
O44 O 0.76468 0.42507 0.70016 0.0
C45 C 0.71694 0.38291 0.74179 0.0
O46 O 0.75664 0.36602 0.70149 0.0
Co47 Co 0.75831 0.34811 0.76122 0.0
O48 O 0.75644 0.32932 0.72672 0.0
C49 C 0.80531 0.38055 0.7538 0.0
C50 C 0.76213 0.44143 0.71986 0.0
C51 C 0.75682 0.3408 0.70431 0.0
O52 O 0.79385 0.39274 0.73468 0.0
O53 O 0.79273 0.36566 0.76982 0.0
O54 O 0.71681 0.39869 0.72156 0.0
O55 O 0.73952 0.38013 0.75316 0.0
Co56 Co 0.10153 0.73614 0.75842 0.0
O57 O 0.06907 0.73926 0.73966 0.0
O58 O 0.07253 0.72923 0.78221 0.0
C59 C 0.12136 0.77304 0.7437 0.0
O60 O 0.13221 0.73194 0.78392 0.0
Co61 Co 0.15241 0.72821 0.72481 0.0
O62 O 0.16975 0.72887 0.76005 0.0
C63 C 0.11514 0.68485 0.73038 0.0
C64 C 0.05755 0.73308 0.76165 0.0
C65 C 0.15745 0.72961 0.78202 0.0
O66 O 0.10368 0.69735 0.74929 0.0
O67 O 0.13171 0.69596 0.71496 0.0
O68 O 0.10419 0.77451 0.76271 0.0
O69 O 0.12244 0.75048 0.73194 0.0
Co70 Co 0.75758 0.59496 0.25161 0.0
O71 O 0.75638 0.56301 0.23157 0.0
O72 O 0.76247 0.56514 0.27487 0.0
C73 C 0.72186 0.61505 0.23428 0.0
O74 O 0.75912 0.62473 0.27856 0.0
Co75 Co 0.76802 0.64723 0.22107 0.0
O76 O 0.76345 0.66326 0.25667 0.0
C77 C 0.81157 0.61066 0.23034 0.0
C78 C 0.76025 0.55071 0.25367 0.0
C79 C 0.76088 0.65008 0.27797 0.0
O80 O 0.79703 0.59766 0.24653 0.0
O81 O 0.80219 0.62824 0.21482 0.0
O82 O 0.71903 0.5971 0.25235 0.0
O83 O 0.74538 0.61688 0.22468 0.0
Co84 Co 0.89098 0.25303 0.76243 0.0
O85 O 0.92156 0.25257 0.74052 0.0
O86 O 0.92202 0.25827 0.78397 0.0
C87 C 0.8705 0.2173 0.74554 0.0
O88 O 0.86303 0.25387 0.7911 0.0
Co89 Co 0.83661 0.26244 0.73505 0.0
O90 O 0.82308 0.25774 0.77152 0.0
C91 C 0.87342 0.30627 0.74146 0.0
C92 C 0.9351 0.25665 0.7619 0.0
C93 C 0.83769 0.25535 0.79192 0.0
O94 O 0.88725 0.29246 0.75767 0.0
O95 O 0.85541 0.2962 0.72685 0.0
O96 O 0.88932 0.21432 0.76278 0.0
O97 O 0.86785 0.24092 0.7366 0.0
Co98 Co 0.22533 0.39519 0.26934 0.0
O99 O 0.22516 0.42805 0.25117 0.0
O100 O 0.21987 0.42363 0.29444 0.0
C101 C 0.26138 0.37763 0.24986 0.0
O102 O 0.22488 0.36384 0.29432 0.0
Co103 Co 0.21633 0.34467 0.2351 0.0
O104 O 0.21998 0.3268 0.26983 0.0
C105 C 0.17196 0.37941 0.24673 0.0
C106 C 0.22104 0.43904 0.27393 0.0
C107 C 0.22256 0.33863 0.29198 0.0
O108 O 0.18592 0.39146 0.26425 0.0
O109 O 0.18215 0.36386 0.22959 0.0
O110 O 0.26412 0.39407 0.26943 0.0
O111 O 0.23767 0.37556 0.24088 0.0
Co112 Co 0.23342 0.09749 0.24462 0.0
O113 O 0.25322 0.0655 0.24126 0.0
O114 O 0.20998 0.0677 0.24788 0.0
C115 C 0.25037 0.11969 0.21016 0.0
O116 O 0.20651 0.12699 0.248 0.0
Co117 Co 0.26373 0.14934 0.25784 0.0
O118 O 0.22807 0.1655 0.25423 0.0
C119 C 0.25544 0.11023 0.29913 0.0
C120 C 0.23094 0.05322 0.24437 0.0
C121 C 0.20688 0.15222 0.25099 0.0
O122 O 0.23896 0.09799 0.28412 0.0
O123 O 0.27082 0.1283 0.29053 0.0
O124 O 0.23229 0.10187 0.20631 0.0
O125 O 0.26029 0.1201 0.23364 0.0
Co126 Co 0.39656 0.7271 0.74656 0.0
O127 O 0.4285 0.74694 0.74618 0.0
O128 O 0.42627 0.70337 0.75036 0.0
C129 C 0.37633 0.74643 0.71199 0.0
O130 O 0.36665 0.70042 0.74705 0.0
Co131 Co 0.34465 0.7578 0.75879 0.0
O132 O 0.32833 0.72264 0.75239 0.0
C133 C 0.38199 0.74718 0.80133 0.0
C134 C 0.44067 0.72465 0.74953 0.0
C135 C 0.3413 0.70131 0.7488 0.0
O136 O 0.39429 0.73085 0.78623 0.0
O137 O 0.3645 0.76321 0.7926 0.0
O138 O 0.39385 0.72808 0.70791 0.0
O139 O 0.37492 0.75474 0.736 0.0
Co140 Co 0.75233 0.88998 0.25266 0.0
O141 O 0.73274 0.92217 0.25062 0.0
O142 O 0.77591 0.91951 0.25765 0.0
C143 C 0.73547 0.86924 0.21703 0.0
O144 O 0.77896 0.86012 0.25524 0.0
Co145 Co 0.72141 0.83801 0.26344 0.0
O146 O 0.75699 0.82167 0.25983 0.0
C147 C 0.73079 0.87494 0.30676 0.0
C148 C 0.75499 0.9342 0.25491 0.0
C149 C 0.77836 0.83482 0.25746 0.0
O150 O 0.7466 0.88811 0.29199 0.0
O151 O 0.71546 0.85699 0.29766 0.0
O152 O 0.75374 0.88703 0.21418 0.0
O153 O 0.72539 0.86799 0.24038 0.0
Co154 Co 0.59546 0.26416 0.75227 0.0
O155 O 0.56457 0.24265 0.7528 0.0
O156 O 0.56471 0.28633 0.7564 0.0
C157 C 0.61577 0.24526 0.71752 0.0
O158 O 0.62376 0.29252 0.75177 0.0
Co159 Co 0.64955 0.23671 0.76312 0.0
O160 O 0.66351 0.27283 0.75689 0.0
C161 C 0.61215 0.24458 0.80608 0.0
C162 C 0.55133 0.26438 0.75585 0.0
C163 C 0.6491 0.29321 0.75336 0.0
O164 O 0.59916 0.26113 0.79187 0.0
O165 O 0.62966 0.22913 0.7964 0.0
O166 O 0.59721 0.26259 0.71358 0.0
O167 O 0.61827 0.23753 0.74157 0.0
Co168 Co 0.24055 0.89415 0.74152 0.0
O169 O 0.26038 0.92615 0.74298 0.0
O170 O 0.21695 0.92383 0.73759 0.0
C171 C 0.2587 0.87333 0.77638 0.0
O172 O 0.2137 0.86446 0.73987 0.0
Co173 Co 0.27086 0.84209 0.72962 0.0
O174 O 0.23539 0.82593 0.7341 0.0
C175 C 0.26166 0.87963 0.68722 0.0
C176 C 0.23808 0.93834 0.73959 0.0
C177 C 0.21419 0.83918 0.73742 0.0
O178 O 0.24505 0.89205 0.70191 0.0
O179 O 0.27761 0.86236 0.69643 0.0
O180 O 0.24055 0.89113 0.78009 0.0
O181 O 0.26784 0.87217 0.75267 0.0
Co182 Co 0.59677 0.73018 0.23183 0.0
O183 O 0.56407 0.74882 0.23412 0.0
O184 O 0.56787 0.70569 0.2275 0.0
C185 C 0.61724 0.74791 0.26716 0.0
O186 O 0.62743 0.70446 0.2292 0.0
Co187 Co 0.64764 0.76264 0.22027 0.0
O188 O 0.66511 0.72768 0.22429 0.0
C189 C 0.61071 0.75158 0.17737 0.0
C190 C 0.55261 0.72617 0.23047 0.0
C191 C 0.6527 0.70591 0.2269 0.0
O192 O 0.59812 0.73556 0.19242 0.0
O193 O 0.62817 0.76762 0.18618 0.0
O194 O 0.6 0.72918 0.27023 0.0
O195 O 0.61807 0.75787 0.24373 0.0
Co196 Co 0.75252 0.09532 0.7399 0.0
O197 O 0.73349 0.06271 0.74089 0.0
O198 O 0.77682 0.06639 0.73559 0.0
C199 C 0.73401 0.11534 0.77509 0.0
O200 O 0.77887 0.12541 0.73883 0.0
Co201 Co 0.72159 0.14719 0.72878 0.0
O202 O 0.75679 0.1638 0.73414 0.0
C203 C 0.73211 0.11073 0.68542 0.0
C204 C 0.75621 0.05122 0.73761 0.0
C205 C 0.77814 0.15072 0.73713 0.0
O206 O 0.74803 0.0977 0.70032 0.0
O207 O 0.71623 0.12819 0.69449 0.0
O208 O 0.75249 0.09782 0.77845 0.0
O209 O 0.72482 0.11677 0.75137 0.0
Co210 Co 0.38754 0.26451 0.23635 0.0
O211 O 0.41951 0.24465 0.23756 0.0
O212 O 0.41739 0.2882 0.23381 0.0
C213 C 0.36663 0.24504 0.27035 0.0
O214 O 0.35756 0.29122 0.23542 0.0
Co215 Co 0.33604 0.2337 0.2225 0.0
O216 O 0.31957 0.26889 0.22824 0.0
C217 C 0.3742 0.24494 0.18116 0.0
C218 C 0.43184 0.267 0.23564 0.0
C219 C 0.33231 0.29025 0.23246 0.0
O220 O 0.38598 0.26135 0.19661 0.0
O221 O 0.35721 0.22827 0.18955 0.0
O222 O 0.38422 0.26319 0.27482 0.0
O223 O 0.36559 0.23678 0.24627 0.0
Co224 Co 0.25173 0.24442 0.0954 0.0
O225 O 0.25016 0.2652 0.06406 0.0
O226 O 0.25837 0.22216 0.06523 0.0
C227 C 0.21488 0.25939 0.11526 0.0
O228 O 0.25401 0.21667 0.12409 0.0
Co229 Co 0.25953 0.2732 0.14908 0.0
O230 O 0.25647 0.23693 0.16372 0.0
C231 C 0.30425 0.26778 0.11323 0.0
C232 C 0.25545 0.24356 0.05134 0.0
C233 C 0.2552 0.21617 0.14945 0.0
O234 O 0.29081 0.25148 0.09911 0.0
O235 O 0.29373 0.28197 0.13132 0.0
O236 O 0.21322 0.24169 0.09672 0.0
O237 O 0.23786 0.27007 0.11792 0.0
Co238 Co 0.26428 0.74844 0.89164 0.0
O239 O 0.26332 0.72692 0.92252 0.0
O240 O 0.26965 0.77024 0.92249 0.0
C241 C 0.22817 0.73203 0.87139 0.0
O242 O 0.26556 0.77684 0.86341 0.0
Co243 Co 0.27335 0.7207 0.83746 0.0
O244 O 0.26936 0.75718 0.82355 0.0
C245 C 0.31704 0.72601 0.87444 0.0
C246 C 0.26722 0.74846 0.93587 0.0
C247 C 0.2671 0.77771 0.83806 0.0
O248 O 0.30363 0.74289 0.88792 0.0
O249 O 0.30637 0.71103 0.85707 0.0
O250 O 0.22563 0.74955 0.89002 0.0
O251 O 0.25168 0.72267 0.86863 0.0
Co252 Co 0.73458 0.75303 0.39011 0.0
O253 O 0.75362 0.75169 0.42268 0.0
O254 O 0.71045 0.75825 0.41914 0.0
C255 C 0.75214 0.71727 0.37026 0.0
O256 O 0.7085 0.75484 0.3597 0.0
Co257 Co 0.76639 0.76336 0.33862 0.0
O258 O 0.73121 0.75888 0.32162 0.0
C259 C 0.7565 0.80694 0.37506 0.0
C260 C 0.73114 0.75598 0.43425 0.0
C261 C 0.7096 0.7565 0.33437 0.0
O262 O 0.74006 0.7924 0.38774 0.0
O263 O 0.77225 0.79761 0.35763 0.0
O264 O 0.73357 0.71449 0.38773 0.0
O265 O 0.76202 0.7407 0.36885 0.0
Co266 Co 0.73152 0.23225 0.89796 0.0
O267 O 0.73173 0.25072 0.93081 0.0
O268 O 0.72243 0.20816 0.92596 0.0
C269 C 0.76987 0.24791 0.8819 0.0
O270 O 0.73016 0.20663 0.86715 0.0
Co271 Co 0.72835 0.26505 0.8461 0.0
O272 O 0.73014 0.22964 0.82906 0.0
C273 C 0.68129 0.25902 0.87882 0.0
C274 C 0.72518 0.22844 0.94157 0.0
C275 C 0.72985 0.20794 0.84181 0.0
O276 O 0.69303 0.24105 0.89239 0.0
O277 O 0.69361 0.27408 0.86274 0.0
O278 O 0.77008 0.22845 0.8986 0.0
O279 O 0.74726 0.25908 0.87857 0.0
Co280 Co 0.25127 0.22763 0.39343 0.0
O281 O 0.2328 0.2253 0.4261 0.0
O282 O 0.27618 0.22067 0.42148 0.0
C283 C 0.23207 0.26456 0.37775 0.0
O284 O 0.27676 0.22949 0.36267 0.0
Co285 Co 0.21869 0.22159 0.34157 0.0
O286 O 0.25338 0.22889 0.32472 0.0
C287 C 0.23086 0.17477 0.37293 0.0
C288 C 0.25562 0.22086 0.4369 0.0
C289 C 0.27518 0.23041 0.33734 0.0
O290 O 0.24682 0.18849 0.38718 0.0
O291 O 0.21465 0.18528 0.35662 0.0
O292 O 0.25111 0.26627 0.39491 0.0
O293 O 0.22301 0.24104 0.37404 0.0
Co294 Co 0.73405 0.74889 0.0963 0.0
O295 O 0.73627 0.72841 0.06469 0.0
O296 O 0.72907 0.77157 0.06606 0.0
C297 C 0.76975 0.73278 0.11741 0.0
O298 O 0.73132 0.77622 0.12562 0.0
Co299 Co 0.72321 0.71886 0.14875 0.0
O300 O 0.72676 0.75477 0.16436 0.0
C301 C 0.6803 0.7264 0.11104 0.0
C302 C 0.73187 0.75019 0.052 0.0
C303 C 0.72912 0.77595 0.15095 0.0
O304 O 0.69472 0.74285 0.09824 0.0
O305 O 0.68964 0.71141 0.12909 0.0
O306 O 0.77253 0.75062 0.09922 0.0
O307 O 0.74644 0.7226 0.11887 0.0
Co308 Co 0.73504 0.23227 0.5975 0.0
O309 O 0.7547 0.23199 0.56534 0.0
O310 O 0.71131 0.22658 0.56834 0.0
C311 C 0.75301 0.26853 0.61603 0.0
O312 O 0.70818 0.23247 0.62713 0.0
Co313 Co 0.76514 0.22391 0.65037 0.0
O314 O 0.72969 0.23013 0.66608 0.0
C315 C 0.75629 0.17901 0.61534 0.0
C316 C 0.7322 0.22833 0.55352 0.0
C317 C 0.70854 0.23227 0.6525 0.0
O318 O 0.73987 0.19289 0.6018 0.0
O319 O 0.77177 0.1892 0.63256 0.0
O320 O 0.73474 0.27089 0.59813 0.0
O321 O 0.76227 0.24496 0.61883 0.0
Co322 Co 0.2569 0.76047 0.59182 0.0
O323 O 0.23686 0.76329 0.56001 0.0
O324 O 0.28037 0.76792 0.56274 0.0
C325 C 0.23825 0.72336 0.60779 0.0
O326 O 0.28391 0.75828 0.62141 0.0
Co327 Co 0.22652 0.76573 0.64508 0.0
O328 O 0.26224 0.75969 0.66033 0.0
C329 C 0.23705 0.81291 0.61378 0.0
C330 C 0.2591 0.76806 0.54826 0.0
C331 C 0.28344 0.7581 0.6468 0.0
O332 O 0.25265 0.79951 0.59886 0.0
O333 O 0.22143 0.80205 0.63037 0.0
O334 O 0.25659 0.72177 0.58991 0.0
O335 O 0.22955 0.74687 0.61217 0.0
Co336 Co 0.89956 0.73761 0.759 0.0
O337 O 0.93179 0.73944 0.73976 0.0
O338 O 0.92882 0.73139 0.78275 0.0
C339 C 0.87988 0.77399 0.74285 0.0
O340 O 0.86926 0.73498 0.78505 0.0
Co341 Co 0.84795 0.72882 0.72664 0.0
O342 O 0.83118 0.73128 0.76205 0.0
C343 C 0.88446 0.68504 0.7341 0.0
C344 C 0.94356 0.73408 0.76187 0.0
C345 C 0.84394 0.73302 0.78374 0.0
O346 O 0.89683 0.69851 0.75175 0.0
O347 O 0.86757 0.69546 0.71845 0.0
O348 O 0.89736 0.77615 0.76157 0.0
O349 O 0.87839 0.75094 0.73212 0.0
Co350 Co 0.75401 0.39199 0.25637 0.0
O351 O 0.75241 0.42302 0.23511 0.0
O352 O 0.76028 0.42273 0.27819 0.0
C353 C 0.71743 0.37161 0.24117 0.0
O354 O 0.75635 0.36338 0.28437 0.0
Co355 Co 0.76272 0.33849 0.2271 0.0
O356 O 0.76048 0.32409 0.26353 0.0
C357 C 0.80654 0.37519 0.23263 0.0
C358 C 0.75755 0.43621 0.25648 0.0
C359 C 0.75868 0.33807 0.28446 0.0
O360 O 0.79318 0.38845 0.24969 0.0
O361 O 0.79597 0.35771 0.21772 0.0
O362 O 0.71542 0.3903 0.25869 0.0
O363 O 0.74055 0.36916 0.23081 0.0
Co364 Co 0.09337 0.25351 0.75502 0.0
O365 O 0.06118 0.25192 0.73541 0.0
O366 O 0.06409 0.26021 0.77838 0.0
C367 C 0.11269 0.21662 0.73921 0.0
O368 O 0.12314 0.256 0.78169 0.0
Co369 Co 0.14576 0.26106 0.72393 0.0
O370 O 0.16174 0.2599 0.75979 0.0
C371 C 0.11025 0.30576 0.73074 0.0
C372 C 0.04935 0.25726 0.7575 0.0
C373 C 0.14839 0.25843 0.78108 0.0
O374 O 0.0969 0.29259 0.74782 0.0
O375 O 0.12719 0.2949 0.71546 0.0
O376 O 0.09497 0.21493 0.75768 0.0
O377 O 0.11476 0.2396 0.72853 0.0
Co378 Co 0.23154 0.59601 0.26733 0.0
O379 O 0.23121 0.56263 0.24996 0.0
O380 O 0.22448 0.56855 0.2929 0.0
C381 C 0.26851 0.61274 0.2492 0.0
O382 O 0.23105 0.62806 0.29151 0.0
Co383 Co 0.22437 0.64567 0.2319 0.0
O384 O 0.22873 0.66457 0.26607 0.0
C385 C 0.17891 0.61229 0.24305 0.0
C386 C 0.22576 0.55251 0.27281 0.0
C387 C 0.23034 0.6533 0.28853 0.0
O388 O 0.19239 0.60028 0.26089 0.0
O389 O 0.18956 0.62775 0.22621 0.0
O390 O 0.27023 0.59637 0.26885 0.0
O391 O 0.24529 0.61473 0.23892 0.0
Co392 Co 0.88876 0.25044 0.232 0.0
O393 O 0.92049 0.24852 0.25216 0.0
O394 O 0.91885 0.25488 0.2089 0.0
C395 C 0.86773 0.2152 0.24912 0.0
O396 O 0.85891 0.25283 0.20519 0.0
Co397 Co 0.83724 0.26236 0.26324 0.0
O398 O 0.82087 0.25843 0.22779 0.0
C399 C 0.87467 0.30482 0.25374 0.0
C400 C 0.93304 0.25263 0.23027 0.0
C401 C 0.83362 0.25548 0.20626 0.0
O402 O 0.88702 0.28994 0.23729 0.0
O403 O 0.8573 0.29583 0.26966 0.0
O404 O 0.88559 0.21189 0.23101 0.0
O405 O 0.86666 0.23871 0.25889 0.0
Co406 Co 0.2336 0.39263 0.72181 0.0
O407 O 0.2339 0.42575 0.73965 0.0
O408 O 0.2269 0.4206 0.69666 0.0
C409 C 0.27045 0.37547 0.73999 0.0
O410 O 0.23252 0.36096 0.69715 0.0
Co411 Co 0.2264 0.34245 0.75662 0.0
O412 O 0.22983 0.3241 0.72205 0.0
C413 C 0.18135 0.37695 0.74663 0.0
C414 C 0.22872 0.43635 0.71695 0.0
C415 C 0.23122 0.33572 0.69975 0.0
O416 O 0.19442 0.38873 0.72837 0.0
O417 O 0.19235 0.3615 0.76329 0.0
O418 O 0.27234 0.39173 0.72025 0.0
O419 O 0.24718 0.37349 0.74999 0.0
Co420 Co 0.0962 0.73617 0.23079 0.0
O421 O 0.06421 0.73999 0.25042 0.0
O422 O 0.06635 0.73009 0.20781 0.0
C423 C 0.1173 0.77257 0.24535 0.0
O424 O 0.12586 0.73152 0.20419 0.0
Co425 Co 0.14821 0.7269 0.2624 0.0
O426 O 0.16423 0.72717 0.22656 0.0
C427 C 0.10999 0.68432 0.25752 0.0
C428 C 0.05188 0.73459 0.22856 0.0
C429 C 0.15108 0.72845 0.20507 0.0
O430 O 0.09791 0.69727 0.23932 0.0
O431 O 0.12723 0.69502 0.27262 0.0
O432 O 0.09951 0.77449 0.22691 0.0
O433 O 0.11841 0.74987 0.25676 0.0
Co434 Co 0.76241 0.5989 0.72336 0.0
O435 O 0.76175 0.56599 0.74131 0.0
O436 O 0.76905 0.5707 0.69837 0.0
C437 C 0.72553 0.61637 0.74107 0.0
O438 O 0.76376 0.63032 0.69858 0.0
Co439 Co 0.76982 0.64938 0.75792 0.0
O440 O 0.76596 0.66744 0.72331 0.0
C441 C 0.81464 0.61436 0.74863 0.0
C442 C 0.76668 0.55511 0.71865 0.0
C443 C 0.76476 0.6556 0.70105 0.0
O444 O 0.80152 0.60254 0.73033 0.0
O445 O 0.80382 0.63036 0.76496 0.0
O446 O 0.72374 0.59991 0.72141 0.0
O447 O 0.74876 0.61842 0.75128 0.0
Co448 Co 0.75813 0.89241 0.73842 0.0
O449 O 0.73758 0.92398 0.7409 0.0
O450 O 0.78074 0.92258 0.73357 0.0
C451 C 0.74215 0.87125 0.77402 0.0
O452 O 0.78579 0.86352 0.73579 0.0
Co453 Co 0.72931 0.83928 0.72788 0.0
O454 O 0.76533 0.82414 0.73174 0.0
C455 C 0.73452 0.8776 0.68526 0.0
C456 C 0.75947 0.93666 0.73682 0.0
C457 C 0.78611 0.83819 0.73407 0.0
O458 O 0.75165 0.89039 0.69904 0.0
O459 O 0.72017 0.85933 0.69507 0.0
O460 O 0.76003 0.88945 0.77691 0.0
O461 O 0.73202 0.86965 0.7507 0.0
Co462 Co 0.59043 0.25877 0.24267 0.0
O463 O 0.55729 0.24105 0.24526 0.0
O464 O 0.56214 0.28379 0.23718 0.0
C465 C 0.6101 0.24156 0.27863 0.0
O466 O 0.6217 0.2836 0.23952 0.0
Co467 Co 0.64078 0.22474 0.23306 0.0
O468 O 0.65899 0.2594 0.23624 0.0
C469 C 0.6037 0.23354 0.18984 0.0
C470 C 0.54639 0.26376 0.24055 0.0
C471 C 0.64698 0.28153 0.23783 0.0
O472 O 0.59208 0.25157 0.20348 0.0
O473 O 0.62024 0.21739 0.20002 0.0
O474 O 0.59359 0.26108 0.28117 0.0
O475 O 0.61074 0.23096 0.25549 0.0
Co476 Co 0.23414 0.09709 0.74068 0.0
O477 O 0.25558 0.06631 0.74402 0.0
O478 O 0.21238 0.06602 0.73656 0.0
C479 C 0.24958 0.11991 0.77561 0.0
O480 O 0.20597 0.12542 0.73689 0.0
Co481 Co 0.26282 0.15 0.72822 0.0
O482 O 0.22643 0.16458 0.73097 0.0
C483 C 0.25737 0.11018 0.68699 0.0
C484 C 0.23422 0.0528 0.73979 0.0
C485 C 0.20561 0.15064 0.73379 0.0
O486 O 0.24048 0.09788 0.70134 0.0
O487 O 0.27194 0.12874 0.69609 0.0
O488 O 0.23216 0.10138 0.77906 0.0
O489 O 0.25972 0.12078 0.7523 0.0
Co490 Co 0.3938 0.72725 0.23507 0.0
O491 O 0.42597 0.74683 0.23497 0.0
O492 O 0.42328 0.70327 0.23142 0.0
C493 C 0.37421 0.74719 0.26965 0.0
O494 O 0.36369 0.70072 0.23535 0.0
Co495 Co 0.34182 0.75782 0.2232 0.0
O496 O 0.32534 0.72286 0.22987 0.0
C497 C 0.37816 0.74605 0.18024 0.0
C498 C 0.43799 0.72434 0.23244 0.0
C499 C 0.33832 0.7016 0.2337 0.0
O500 O 0.39087 0.73013 0.1954 0.0
O501 O 0.36115 0.76252 0.18908 0.0
O502 O 0.3918 0.72892 0.27365 0.0
O503 O 0.37244 0.75525 0.2456 0.0
Co504 Co 0.74982 0.0929 0.25657 0.0
O505 O 0.73077 0.06037 0.25607 0.0
O506 O 0.77408 0.06388 0.26154 0.0
C507 C 0.73125 0.11153 0.22074 0.0
O508 O 0.776 0.12328 0.25721 0.0
Co509 Co 0.71837 0.14498 0.26575 0.0
O510 O 0.75352 0.16163 0.2604 0.0
C511 C 0.72918 0.11012 0.31035 0.0
C512 C 0.75339 0.04877 0.2594 0.0
C513 C 0.77504 0.14866 0.25817 0.0
O514 O 0.74511 0.09646 0.29601 0.0
O515 O 0.71319 0.12707 0.30058 0.0
O516 O 0.75005 0.09427 0.21798 0.0
O517 O 0.72201 0.11374 0.24435 0.0
Co518 Co 0.393 0.25846 0.7528 0.0
O519 O 0.42498 0.23853 0.75414 0.0
O520 O 0.42249 0.28219 0.75699 0.0
C521 C 0.37404 0.23838 0.71784 0.0
O522 O 0.36342 0.28545 0.75146 0.0
Co523 Co 0.34021 0.22871 0.76343 0.0
O524 O 0.32463 0.26422 0.75718 0.0
C525 C 0.3752 0.24115 0.80749 0.0
C526 C 0.43703 0.26098 0.75683 0.0
C527 C 0.33811 0.28515 0.75334 0.0
O528 O 0.38892 0.25622 0.79239 0.0
O529 O 0.35807 0.22485 0.79851 0.0
O530 O 0.39202 0.25632 0.7142 0.0
O531 O 0.37149 0.23063 0.74193 0.0
Co532 Co 0.23552 0.89441 0.24225 0.0
O533 O 0.25452 0.92681 0.23866 0.0
O534 O 0.21132 0.92365 0.24514 0.0
C535 C 0.25343 0.87204 0.20821 0.0
O536 O 0.20932 0.86437 0.24599 0.0
Co537 Co 0.2669 0.84351 0.25633 0.0
O538 O 0.2317 0.82644 0.25257 0.0
C539 C 0.25718 0.88294 0.29718 0.0
C540 C 0.23194 0.93859 0.24185 0.0
C541 C 0.2102 0.83922 0.24925 0.0
O542 O 0.24083 0.89478 0.28177 0.0
O543 O 0.27301 0.86501 0.28899 0.0
O544 O 0.23478 0.88918 0.20393 0.0
O545 O 0.26302 0.87231 0.23181 0.0
Co546 Co 0.59889 0.72931 0.75039 0.0
O547 O 0.56653 0.74849 0.75068 0.0
O548 O 0.56972 0.70492 0.75399 0.0
C549 C 0.61786 0.74971 0.71574 0.0
O550 O 0.6294 0.70329 0.75021 0.0
Co551 Co 0.6503 0.76127 0.76209 0.0
O552 O 0.66716 0.72621 0.75666 0.0
C553 C 0.6148 0.74806 0.80535 0.0
C554 C 0.55483 0.72589 0.75334 0.0
C555 C 0.65464 0.70465 0.75286 0.0
O556 O 0.60198 0.73227 0.79007 0.0
O557 O 0.63143 0.76492 0.79662 0.0
O558 O 0.60078 0.73095 0.71173 0.0
O559 O 0.61967 0.75764 0.73985 0.0
Co560 Co 0.73733 0.75018 0.89335 0.0
O561 O 0.73826 0.72934 0.92469 0.0
O562 O 0.73 0.77232 0.92361 0.0
C563 C 0.77466 0.73531 0.87432 0.0
O564 O 0.73573 0.77782 0.86438 0.0
Co565 Co 0.73089 0.72068 0.83979 0.0
O566 O 0.73423 0.75683 0.82501 0.0
C567 C 0.68564 0.72572 0.87484 0.0
C568 C 0.73276 0.75087 0.93747 0.0
C569 C 0.73519 0.77782 0.83896 0.0
O570 O 0.69832 0.74293 0.88863 0.0
O571 O 0.69699 0.71108 0.85766 0.0
O572 O 0.77591 0.75304 0.89287 0.0
O573 O 0.75179 0.72452 0.87131 0.0
Co574 Co 0.72502 0.22964 0.09961 0.0
O575 O 0.72503 0.24939 0.0676 0.0
O576 O 0.7184 0.20618 0.07031 0.0
C577 C 0.76195 0.24662 0.11783 0.0
O578 O 0.72445 0.20283 0.12922 0.0
Co579 Co 0.71795 0.26039 0.1525 0.0
O580 O 0.72133 0.22453 0.1681 0.0
C581 C 0.67232 0.25185 0.11821 0.0
C582 C 0.72051 0.22713 0.05565 0.0
C583 C 0.72309 0.20333 0.15455 0.0
O584 O 0.68583 0.23551 0.10421 0.0
O585 O 0.68291 0.26714 0.13537 0.0
O586 O 0.76366 0.22824 0.09997 0.0
O587 O 0.73866 0.25651 0.12083 0.0
Co588 Co 0.25713 0.22613 0.59442 0.0
O589 O 0.23703 0.22522 0.56263 0.0
O590 O 0.28053 0.21998 0.56491 0.0
C591 C 0.23895 0.26252 0.61254 0.0
O592 O 0.28396 0.22647 0.62426 0.0
Co593 Co 0.22626 0.21794 0.64692 0.0
O594 O 0.26178 0.22348 0.66278 0.0
C595 C 0.2362 0.17288 0.61252 0.0
C596 C 0.25917 0.22076 0.55058 0.0
C597 C 0.28319 0.2257 0.64965 0.0
O598 O 0.25254 0.18686 0.5991 0.0
O599 O 0.22013 0.18309 0.62915 0.0
O600 O 0.25725 0.26484 0.59472 0.0
O601 O 0.22991 0.23893 0.61549 0.0
Co602 Co 0.25552 0.7465 0.09418 0.0
O603 O 0.25475 0.7257 0.06265 0.0
O604 O 0.26177 0.76891 0.06412 0.0
C605 C 0.21911 0.73012 0.11382 0.0
O606 O 0.257 0.77435 0.12301 0.0
Co607 Co 0.26394 0.71783 0.14782 0.0
O608 O 0.26092 0.75419 0.1625 0.0
C609 C 0.30813 0.72346 0.1115 0.0
C610 C 0.25977 0.74744 0.05009 0.0
C611 C 0.25897 0.7749 0.14832 0.0
O612 O 0.29476 0.74036 0.09807 0.0
O613 O 0.29756 0.70875 0.12905 0.0
O614 O 0.21681 0.74801 0.09556 0.0
O615 O 0.2425 0.72044 0.11646 0.0
Co616 Co 0.7341 0.7615 0.59292 0.0
O617 O 0.75361 0.76092 0.56068 0.0
O618 O 0.71012 0.76518 0.56345 0.0
C619 C 0.75353 0.72659 0.61258 0.0
O620 O 0.70752 0.76201 0.62293 0.0
Co621 Co 0.76495 0.77312 0.64493 0.0
O622 O 0.72956 0.76839 0.66121 0.0
C623 C 0.75441 0.81575 0.60833 0.0
C624 C 0.73107 0.76331 0.54869 0.0
C625 C 0.70825 0.76476 0.64819 0.0
O626 O 0.73773 0.80113 0.59588 0.0
O627 O 0.77155 0.80608 0.62418 0.0
O628 O 0.73507 0.72289 0.59509 0.0
O629 O 0.76189 0.75056 0.61442 0.0
Co630 Co 0.25149 0.24325 0.89295 0.0
O631 O 0.25046 0.26424 0.92421 0.0
O632 O 0.25799 0.22109 0.92322 0.0
C633 C 0.21474 0.25892 0.87346 0.0
O634 O 0.25314 0.21549 0.86402 0.0
Co635 Co 0.25912 0.27241 0.83947 0.0
O636 O 0.25533 0.23621 0.82467 0.0
C637 C 0.30394 0.26634 0.87524 0.0
C638 C 0.25548 0.24268 0.93702 0.0
C639 C 0.25401 0.21529 0.83863 0.0
O640 O 0.29064 0.24972 0.88902 0.0
O641 O 0.29325 0.28094 0.85765 0.0
O642 O 0.21288 0.24108 0.89177 0.0
O643 O 0.23789 0.26913 0.87077 0.0
Co644 Co 0.25642 0.76615 0.39071 0.0
O645 O 0.2365 0.768 0.42261 0.0
O646 O 0.2799 0.77354 0.4199 0.0
C647 C 0.23898 0.72881 0.37394 0.0
O648 O 0.28328 0.76468 0.36103 0.0
Co649 Co 0.22582 0.77166 0.33761 0.0
O650 O 0.26137 0.76526 0.32217 0.0
C651 C 0.23459 0.81827 0.37042 0.0
C652 C 0.25875 0.77267 0.43446 0.0
C653 C 0.28265 0.76383 0.33565 0.0
O654 O 0.25125 0.80519 0.38444 0.0
O655 O 0.21909 0.80717 0.35378 0.0
O656 O 0.25713 0.72756 0.39206 0.0
O657 O 0.22938 0.75208 0.37001 0.0
Co658 Co 0.73288 0.23582 0.3952 0.0
O659 O 0.75308 0.23571 0.42709 0.0
O660 O 0.7096 0.23056 0.42471 0.0
C661 C 0.75119 0.27155 0.37616 0.0
O662 O 0.70552 0.23567 0.36601 0.0
Co663 Co 0.76204 0.22659 0.34189 0.0
O664 O 0.72606 0.23131 0.32672 0.0
C665 C 0.7535 0.18221 0.37758 0.0
C666 C 0.7308 0.23194 0.4392 0.0
C667 C 0.70528 0.23406 0.3407 0.0
O668 O 0.73738 0.19635 0.39123 0.0
O669 O 0.76864 0.19204 0.35995 0.0
O670 O 0.73299 0.27453 0.39402 0.0
O671 O 0.75991 0.24779 0.37348 0.0
C672 C 0.97655 0.25298 0.20656 0.0
C673 C 0.96214 0.25501 0.23022 0.0
C674 C 0.00429 0.25385 0.20667 0.0
C675 C 0.01843 0.25674 0.23044 0.0
H676 H 0.9664 0.25013 0.18793 0.0
H677 H 0.0147 0.25157 0.18813 0.0
S678 S 0.98989 0.26625 0.29728 0.0
N679 N 0.9641 0.26241 0.27772 0.0
N680 N 0.01592 0.26397 0.27788 0.0
C681 C 0.00419 0.25984 0.25404 0.0
C682 C 0.97611 0.25899 0.25394 0.0
C683 C 0.23231 0.50653 0.69118 0.0
C684 C 0.22586 0.52128 0.71385 0.0
C685 C 0.23205 0.47877 0.69172 0.0
C686 C 0.22531 0.46516 0.71494 0.0
H687 H 0.23876 0.51642 0.67339 0.0
H688 H 0.23831 0.46799 0.67433 0.0
S689 S 0.20204 0.49484 0.7778 0.0
N690 N 0.20913 0.5203 0.75883 0.0
N691 N 0.20862 0.46843 0.75984 0.0
C692 C 0.21706 0.47977 0.73704 0.0
C693 C 0.21734 0.5078 0.73649 0.0
C694 C 0.00872 0.73805 0.25154 0.0
C695 C 0.02269 0.73365 0.22797 0.0
C696 C 0.98118 0.7376 0.25214 0.0
C697 C 0.96633 0.73275 0.22916 0.0
H698 H 0.01909 0.74196 0.26989 0.0
H699 H 0.97154 0.7412 0.27085 0.0
S700 S 0.99323 0.71969 0.16225 0.0
N701 N 0.01963 0.72402 0.18096 0.0
N702 N 0.96758 0.72319 0.18205 0.0
C703 C 0.97994 0.72817 0.20538 0.0
C704 C 0.00818 0.72861 0.20477 0.0
C705 C 0.77153 0.48451 0.74063 0.0
C706 C 0.76659 0.47006 0.71747 0.0
C707 C 0.77271 0.51195 0.74033 0.0
C708 C 0.76894 0.52616 0.71684 0.0
H709 H 0.7739 0.4746 0.75944 0.0
H710 H 0.77592 0.52208 0.75891 0.0
S711 S 0.75775 0.49762 0.65026 0.0
N712 N 0.75978 0.4717 0.66994 0.0
N713 N 0.76194 0.5238 0.66935 0.0
C714 C 0.76545 0.51201 0.69317 0.0
C715 C 0.76428 0.4838 0.69348 0.0
C716 C 0.98679 0.7361 0.78596 0.0
C717 C 0.97248 0.73101 0.76267 0.0
C718 C 0.01455 0.73581 0.78593 0.0
C719 C 0.02862 0.73043 0.76261 0.0
H720 H 0.97656 0.7413 0.80401 0.0
H721 H 0.02499 0.74081 0.80394 0.0
S722 S 0.00022 0.71123 0.69777 0.0
N723 N 0.97437 0.71718 0.71667 0.0
N724 N 0.02626 0.71667 0.71662 0.0
C725 C 0.01445 0.72375 0.73969 0.0
C726 C 0.9864 0.72403 0.73972 0.0
C727 C 0.75913 0.50795 0.27848 0.0
C728 C 0.76149 0.52156 0.2544 0.0
C729 C 0.75844 0.48025 0.27916 0.0
C730 C 0.76005 0.46527 0.25579 0.0
H731 H 0.75717 0.51874 0.29686 0.0
H732 H 0.75599 0.47057 0.29805 0.0
S733 S 0.76952 0.49135 0.18798 0.0
N734 N 0.76762 0.51786 0.20686 0.0
N735 N 0.76629 0.46605 0.20815 0.0
C736 C 0.76343 0.47865 0.23172 0.0
C737 C 0.76416 0.50673 0.23103 0.0
C738 C 0.00703 0.25663 0.78289 0.0
C739 C 0.02033 0.25933 0.75868 0.0
C740 C 0.97936 0.25644 0.78396 0.0
C741 C 0.96413 0.25897 0.76085 0.0
H742 H 0.01804 0.2539 0.80104 0.0
H743 H 0.96988 0.25358 0.8029 0.0
S744 S 0.98953 0.27012 0.69302 0.0
N745 N 0.01625 0.26705 0.71145 0.0
N746 N 0.9644 0.26676 0.71342 0.0
C747 C 0.97724 0.26289 0.7367 0.0
C748 C 0.00531 0.26305 0.73562 0.0
C749 C 0.22736 0.482 0.29788 0.0
C750 C 0.2182 0.46793 0.2757 0.0
C751 C 0.22861 0.50975 0.29757 0.0
C752 C 0.22078 0.52398 0.27506 0.0
H753 H 0.23485 0.47153 0.31495 0.0
H754 H 0.23698 0.51998 0.31443 0.0
S755 S 0.19044 0.49648 0.21422 0.0
N756 N 0.19766 0.47041 0.23234 0.0
N757 N 0.20008 0.52225 0.23174 0.0
C758 C 0.20977 0.51014 0.25366 0.0
C759 C 0.20846 0.48215 0.25399 0.0
C760 C 0.25363 0.98241 0.23833 0.0
C761 C 0.23041 0.96774 0.24223 0.0
C762 C 0.25341 0.00994 0.23907 0.0
C763 C 0.22995 0.02406 0.24373 0.0
H764 H 0.27234 0.97261 0.23473 0.0
H765 H 0.27191 0.02017 0.23597 0.0
S766 S 0.16357 -0.0049 0.255 0.0
N767 N 0.18313 0.96932 0.2508 0.0
N768 N 0.1827 0.02134 0.25217 0.0
C769 C 0.20647 0.00972 0.24755 0.0
C770 C 0.20668 0.98151 0.2468 0.0
C771 C 0.51203 0.70159 0.74779 0.0
C772 C 0.52578 0.72463 0.75506 0.0
C773 C 0.48429 0.70133 0.74672 0.0
C774 C 0.4696 0.72412 0.75283 0.0
H775 H 0.52273 0.68397 0.74203 0.0
H776 H 0.47438 0.6835 0.74024 0.0
S777 S 0.49621 0.78806 0.77705 0.0
N778 N 0.52256 0.76976 0.77133 0.0
N779 N 0.47073 0.7693 0.76927 0.0
C780 C 0.48315 0.74677 0.76148 0.0
C781 C 0.51119 0.74702 0.76261 0.0
C782 C 0.73156 0.00497 0.25697 0.0
C783 C 0.75501 0.01962 0.2596 0.0
C784 C 0.73197 0.97747 0.25563 0.0
C785 C 0.75582 0.96332 0.25692 0.0
H786 H 0.71258 0.01476 0.25564 0.0
H787 H 0.71327 0.96729 0.25343 0.0
S788 S 0.82282 0.99214 0.26463 0.0
N789 N 0.80286 0.01794 0.26404 0.0
N790 N 0.80362 0.96594 0.2616 0.0
C791 C 0.77949 0.9776 0.25999 0.0
C792 C 0.77908 0.0058 0.26133 0.0
C793 C 0.50729 0.28673 0.75379 0.0
C794 C 0.52231 0.2638 0.75831 0.0
C795 C 0.4796 0.2859 0.75407 0.0
C796 C 0.46608 0.26213 0.75889 0.0
H797 H 0.51693 0.30524 0.74927 0.0
H798 H 0.46875 0.30384 0.74973 0.0
S799 S 0.49637 0.19743 0.77539 0.0
N800 N 0.52166 0.21726 0.77023 0.0
N801 N 0.4698 0.21573 0.77075 0.0
C802 C 0.48092 0.23937 0.76463 0.0
C803 C 0.509 0.24022 0.76434 0.0
C804 C 0.21201 0.00864 0.74125 0.0
C805 C 0.23516 0.0237 0.73838 0.0
C806 C 0.21296 0.98094 0.74118 0.0
C807 C 0.23708 0.96745 0.7382 0.0
H808 H 0.19312 0.01827 0.74411 0.0
H809 H 0.19475 0.97008 0.744 0.0
S810 S 0.30287 -0.00218 0.72691 0.0
N811 N 0.28256 0.02308 0.73036 0.0
N812 N 0.28434 0.97126 0.7302 0.0
C813 C 0.26021 0.98233 0.73438 0.0
C814 C 0.25925 0.0104 0.73448 0.0
C815 C 0.48119 0.74738 0.2319 0.0
C816 C 0.46714 0.72346 0.23103 0.0
C817 C 0.5087 0.74783 0.23142 0.0
C818 C 0.52348 0.72438 0.23 0.0
H819 H 0.47092 0.76611 0.23317 0.0
H820 H 0.51839 0.76688 0.23232 0.0
S821 S 0.49637 0.65637 0.22655 0.0
N822 N 0.47002 0.67556 0.22813 0.0
N823 N 0.52209 0.67641 0.22718 0.0
C824 C 0.5098 0.70022 0.2287 0.0
C825 C 0.48156 0.69976 0.22923 0.0
C826 C 0.73498 0.00706 0.73946 0.0
C827 C 0.75809 0.02212 0.73659 0.0
C828 C 0.73576 0.97953 0.73928 0.0
C829 C 0.75973 0.96582 0.7362 0.0
H830 H 0.71594 0.01656 0.74206 0.0
H831 H 0.71735 0.96898 0.74172 0.0
S832 S 0.82597 -0.00411 0.72729 0.0
N833 N 0.80574 0.02133 0.73009 0.0
N834 N 0.80723 0.96933 0.72974 0.0
C835 C 0.78305 0.98055 0.73299 0.0
C836 C 0.78226 0.00875 0.7332 0.0
C837 C 0.50216 0.24283 0.2406 0.0
C838 C 0.51733 0.26598 0.23881 0.0
C839 C 0.47469 0.2436 0.23927 0.0
C840 C 0.46104 0.26757 0.23617 0.0
H841 H 0.51151 0.22374 0.24307 0.0
H842 H 0.46414 0.22507 0.24088 0.0
S843 S 0.49137 0.33398 0.23017 0.0
N844 N 0.51675 0.31374 0.23348 0.0
N845 N 0.46472 0.3152 0.23107 0.0
C846 C 0.47585 0.29099 0.23418 0.0
C847 C 0.50407 0.29019 0.23547 0.0
C848 C 0.25611 0.21953 0.00816 0.0
C849 C 0.25753 0.24343 0.0223 0.0
C850 C 0.25615 0.2193 0.98047 0.0
C851 C 0.25763 0.24296 0.96608 0.0
H852 H 0.25425 0.20092 0.01849 0.0
H853 H 0.2543 0.20052 0.97033 0.0
S854 S 0.26497 0.31052 0.99386 0.0
N855 N 0.26275 0.29114 0.01988 0.0
N856 N 0.26287 0.29072 0.96803 0.0
C857 C 0.26019 0.26688 0.98003 0.0
C858 C 0.26013 0.26711 0.00811 0.0
C859 C 0.2627 0.77141 0.00706 0.0
C860 C 0.26328 0.74752 0.02115 0.0
C861 C 0.26476 0.77169 0.97945 0.0
C862 C 0.26752 0.74808 0.96503 0.0
H863 H 0.26004 0.79001 0.01733 0.0
H864 H 0.26351 0.79047 0.96934 0.0
S865 S 0.27316 0.68051 0.99285 0.0
N866 N 0.26891 0.69983 0.01877 0.0
N867 N 0.27286 0.70035 0.96707 0.0
C868 C 0.26917 0.72416 0.97899 0.0
C869 C 0.26702 0.72387 0.00701 0.0
C870 C 0.75352 0.76008 0.50528 0.0
C871 C 0.72984 0.76272 0.51951 0.0
C872 C 0.75352 0.75803 0.47783 0.0
C873 C 0.72985 0.75859 0.4633 0.0
H874 H 0.77238 0.7593 0.51537 0.0
H875 H 0.77238 0.75589 0.46799 0.0
S876 S 0.66235 0.7659 0.49093 0.0
N877 N 0.68195 0.76631 0.51703 0.0
N878 N 0.68196 0.76253 0.4651 0.0
C879 C 0.70594 0.76162 0.47714 0.0
C880 C 0.70594 0.76367 0.50531 0.0
C881 C 0.71935 0.25005 0.01253 0.0
C882 C 0.71903 0.22616 0.02657 0.0
C883 C 0.72058 0.25036 0.98506 0.0
C884 C 0.7215 0.22679 0.9704 0.0
H885 H 0.71921 0.26885 0.0228 0.0
H886 H 0.72128 0.26936 0.97532 0.0
S887 S 0.71919 0.15882 -0.0025 0.0
N888 N 0.71824 0.17817 0.02378 0.0
N889 N 0.72051 0.17876 0.97177 0.0
C890 C 0.72008 0.20266 0.98402 0.0
C891 C 0.71885 0.20234 0.01221 0.0
C892 C 0.282 0.22374 0.50688 0.0
C893 C 0.25951 0.21717 0.52173 0.0
C894 C 0.28113 0.22373 0.47917 0.0
C895 C 0.25774 0.21714 0.46564 0.0
H896 H 0.29996 0.23007 0.51668 0.0
H897 H 0.29845 0.23007 0.46836 0.0
S898 S 0.19512 0.19375 0.49551 0.0
N899 N 0.21442 0.20054 0.52091 0.0
N900 N 0.2128 0.20053 0.46904 0.0
C901 C 0.23577 0.20879 0.48031 0.0
C902 C 0.23665 0.20881 0.50834 0.0
C903 C 0.73192 0.77419 0.00877 0.0
C904 C 0.73025 0.75034 0.02286 0.0
C905 C 0.73201 0.77438 0.98106 0.0
C906 C 0.73045 0.7507 0.96655 0.0
H907 H 0.7338 0.79282 0.01919 0.0
H908 H 0.73402 0.7931 0.97099 0.0
S909 S 0.72258 0.68324 -0.00595 0.0
N910 N 0.72478 0.70264 0.02016 0.0
N911 N 0.72494 0.70299 0.96832 0.0
C912 C 0.72771 0.72684 0.98043 0.0
C913 C 0.72762 0.72665 0.00853 0.0
C914 C 0.75433 0.22898 0.50985 0.0
C915 C 0.73078 0.22742 0.52443 0.0
C916 C 0.75398 0.23004 0.48235 0.0
C917 C 0.73007 0.22956 0.46822 0.0
H918 H 0.77332 0.22979 0.51971 0.0
H919 H 0.77272 0.23154 0.47217 0.0
S920 S 0.66284 0.22435 0.49691 0.0
N921 N 0.6828 0.2245 0.52272 0.0
N922 N 0.68215 0.22646 0.47075 0.0
C923 C 0.70632 0.22734 0.48244 0.0
C924 C 0.70668 0.22626 0.51061 0.0
C925 C 0.28301 0.76935 0.47739 0.0
C926 C 0.25973 0.77533 0.46344 0.0
C927 C 0.28306 0.76808 0.50507 0.0
C928 C 0.25982 0.77274 0.51955 0.0
H929 H 0.30099 0.76445 0.46687 0.0
H930 H 0.30109 0.76231 0.51507 0.0
S931 S 0.19498 0.79373 0.49242 0.0
N932 N 0.21381 0.78921 0.46623 0.0
N933 N 0.21388 0.78684 0.51807 0.0
C934 C 0.23692 0.78044 0.50585 0.0
C935 C 0.23688 0.78174 0.47781 0.0
C936 C 0.1278 0.36647 0.23029 0.0
C937 C 0.14335 0.37568 0.25147 0.0
C938 C 0.10945 0.3461 0.23412 0.0
C939 C 0.10659 0.33452 0.25919 0.0
H940 H 0.13303 0.37161 0.2102 0.0
H941 H 0.10139 0.33648 0.21676 0.0
S942 S 0.13247 0.36101 0.32226 0.0
N943 N 0.14679 0.37912 0.2993 0.0
N944 N 0.11261 0.34054 0.30637 0.0
C945 C 0.11664 0.3484 0.28105 0.0
C946 C 0.13511 0.36927 0.27719 0.0
C947 C 0.12051 0.64434 0.75671 0.0
C948 C 0.11675 0.65573 0.73165 0.0
C949 C 0.13892 0.62394 0.76011 0.0
C950 C 0.15365 0.61447 0.7385 0.0
H951 H 0.11305 0.65411 0.77424 0.0
H952 H 0.14486 0.61895 0.78006 0.0
S953 S 0.14047 0.62879 0.66799 0.0
N954 N 0.12123 0.64944 0.68435 0.0
N955 N 0.15547 0.61074 0.69062 0.0
C956 C 0.14458 0.62078 0.71301 0.0
C957 C 0.12608 0.64172 0.70958 0.0
C958 C 0.84773 0.61524 0.26252 0.0
C959 C 0.8402 0.61261 0.23587 0.0
C960 C 0.86638 0.63434 0.26995 0.0
C961 C 0.87792 0.65081 0.25081 0.0
H962 H 0.83595 0.60636 0.27798 0.0
H963 H 0.86808 0.6393 0.29071 0.0
S964 S 0.87536 0.6405 0.17838 0.0
N965 N 0.85332 0.61972 0.19039 0.0
N966 N 0.88899 0.65508 0.20423 0.0
C967 C 0.87612 0.64274 0.22424 0.0
C968 C 0.85687 0.62361 0.21672 0.0
C969 C 0.86319 0.35038 0.72354 0.0
C970 C 0.87165 0.33514 0.74517 0.0
C971 C 0.84475 0.37074 0.72705 0.0
C972 C 0.83411 0.37584 0.75222 0.0
H973 H 0.86735 0.34379 0.7036 0.0
H974 H 0.83556 0.37895 0.70957 0.0
S975 S 0.85926 0.34991 0.81573 0.0
N976 N 0.87548 0.33305 0.79298 0.0
N977 N 0.84044 0.37102 0.79949 0.0
C978 C 0.84736 0.36529 0.7742 0.0
C979 C 0.86636 0.34481 0.77066 0.0
C980 C 0.21714 0.13092 0.35607 0.0
C981 C 0.23665 0.14642 0.36849 0.0
C982 C 0.22402 0.11304 0.33605 0.0
C983 C 0.2505 0.11069 0.3279 0.0
H984 H 0.19644 0.13579 0.35858 0.0
H985 H 0.20824 0.10499 0.324 0.0
S986 S 0.309 0.13634 0.36351 0.0
N987 N 0.28355 0.15008 0.3786 0.0
N988 N 0.29634 0.11696 0.34047 0.0
C989 C 0.27012 0.12066 0.34483 0.0
C990 C 0.26316 0.13858 0.36543 0.0
C991 C 0.354 0.75649 0.86715 0.0
C992 C 0.34574 0.73027 0.8712 0.0
C993 C 0.3715 0.76245 0.84658 0.0
C994 C 0.38135 0.74227 0.83014 0.0
H995 H 0.34334 0.77271 0.8762 0.0
H996 H 0.37364 0.78294 0.84084 0.0
S997 S 0.37672 0.67042 0.8429 0.0
N998 N 0.35675 0.68407 0.8648 0.0
N999 N 0.39018 0.69514 0.82652 0.0
C1000 C 0.37903 0.7161 0.83908 0.0
C1001 C 0.36099 0.71007 0.8598 0.0
C1002 C 0.72446 0.84321 0.37072 0.0
C1003 C 0.7511 0.83558 0.37332 0.0
C1004 C 0.71715 0.86198 0.35176 0.0
C1005 C 0.73639 0.87357 0.33544 0.0
H1006 H 0.70893 0.83143 0.3795 0.0
H1007 H 0.6964 0.86375 0.34676 0.0
S1008 S 0.80883 0.87073 0.3458 0.0
N1009 N 0.79667 0.84861 0.36638 0.0
N1010 N 0.78304 0.88452 0.33131 0.0
C1011 C 0.76294 0.87165 0.34352 0.0
C1012 C 0.77036 0.85226 0.36249 0.0
C1013 C 0.63946 0.27878 0.86288 0.0
C1014 C 0.65238 0.25713 0.87465 0.0
C1015 C 0.6204 0.27474 0.84318 0.0
C1016 C 0.61414 0.24899 0.8348 0.0
H1017 H 0.64717 0.29856 0.8656 0.0
H1018 H 0.61439 0.29161 0.83147 0.0
S1019 S 0.63289 0.18688 0.86819 0.0
N1020 N 0.65014 0.20995 0.88355 0.0
N1021 N 0.61477 0.20249 0.84603 0.0
C1022 C 0.6219 0.2279 0.85097 0.0
C1023 C 0.64106 0.23198 0.87121 0.0
C1024 C 0.22313 0.85661 0.63089 0.0
C1025 C 0.24273 0.84121 0.61854 0.0
C1026 C 0.22992 0.8749 0.65058 0.0
C1027 C 0.25642 0.87779 0.65853 0.0
H1028 H 0.20247 0.85153 0.62847 0.0
H1029 H 0.21412 0.88303 0.66251 0.0
S1030 S 0.31505 0.85151 0.62368 0.0
N1031 N 0.28966 0.83741 0.60877 0.0
N1032 N 0.30229 0.87137 0.64622 0.0
C1033 C 0.27607 0.8675 0.64187 0.0
C1034 C 0.2692 0.84914 0.62161 0.0
C1035 C 0.64304 0.75749 0.11382 0.0
C1036 C 0.65148 0.73104 0.11199 0.0
C1037 C 0.62364 0.76468 0.13222 0.0
C1038 C 0.61231 0.74549 0.14879 0.0
H1039 H 0.65459 0.77314 0.10497 0.0
H1040 H 0.6212 0.78547 0.13674 0.0
S1041 S 0.61724 0.673 0.13992 0.0
N1042 N 0.63951 0.68531 0.11957 0.0
N1043 N 0.60244 0.69868 0.15359 0.0
C1044 C 0.61506 0.71886 0.14124 0.0
C1045 C 0.63506 0.71157 0.12285 0.0
C1046 C 0.71823 0.12361 0.64038 0.0
C1047 C 0.73781 0.11259 0.6568 0.0
C1048 C 0.72498 0.14228 0.62114 0.0
C1049 C 0.75142 0.15036 0.61821 0.0
H1050 H 0.69755 0.12136 0.6454 0.0
H1051 H 0.70914 0.15358 0.61222 0.0
S1052 S 0.81013 0.11729 0.64655 0.0
N1053 N 0.78476 0.10313 0.6613 0.0
N1054 N 0.79733 0.13864 0.62549 0.0
C1055 C 0.77113 0.1344 0.62944 0.0
C1056 C 0.76429 0.1152 0.6488 0.0
C1057 C 0.34792 0.28433 0.12776 0.0
C1058 C 0.33324 0.26428 0.1152 0.0
C1059 C 0.3675 0.2779 0.14627 0.0
C1060 C 0.37235 0.25131 0.15275 0.0
H1061 H 0.34124 0.30464 0.12681 0.0
H1062 H 0.37493 0.29362 0.1588 0.0
S1063 S 0.34945 0.19291 0.11519 0.0
N1064 N 0.33281 0.21789 0.10243 0.0
N1065 N 0.36912 0.20588 0.13781 0.0
C1066 C 0.36308 0.2319 0.13521 0.0
C1067 C 0.34342 0.23843 0.11613 0.0
C1068 C 0.85315 0.62189 0.72002 0.0
C1069 C 0.84355 0.61707 0.74563 0.0
C1070 C 0.87237 0.64136 0.71588 0.0
C1071 C 0.88239 0.65607 0.73729 0.0
H1072 H 0.84265 0.61439 0.70292 0.0
H1073 H 0.87578 0.64799 0.69585 0.0
S1074 S 0.87366 0.64022 0.80812 0.0
N1075 N 0.8528 0.62052 0.79253 0.0
N1076 N 0.88938 0.65671 0.78486 0.0
C1077 C 0.87831 0.64601 0.76284 0.0
C1078 C 0.85854 0.62645 0.76703 0.0
C1079 C 0.86302 0.34988 0.26861 0.0
C1080 C 0.87325 0.33354 0.24854 0.0
C1081 C 0.84434 0.36942 0.26262 0.0
C1082 C 0.83539 0.37262 0.23648 0.0
H1083 H 0.86581 0.34456 0.28915 0.0
H1084 H 0.83359 0.37826 0.27888 0.0
S1085 S 0.86647 0.34469 0.17656 0.0
N1086 N 0.88133 0.32954 0.20132 0.0
N1087 N 0.84565 0.36579 0.1902 0.0
C1088 C 0.8507 0.36153 0.2162 0.0
C1089 C 0.86997 0.34192 0.22226 0.0
C1090 C 0.12373 0.34927 0.71321 0.0
C1091 C 0.11339 0.3346 0.7344 0.0
C1092 C 0.14303 0.36865 0.71764 0.0
C1093 C 0.15251 0.37346 0.74335 0.0
H1094 H 0.12028 0.3428 0.69309 0.0
H1095 H 0.15357 0.37623 0.70067 0.0
S1096 S 0.12271 0.34946 0.8055 0.0
N1097 N 0.10684 0.33329 0.78198 0.0
N1098 N 0.14344 0.36938 0.7902 0.0
C1099 C 0.13759 0.36378 0.76459 0.0
C1100 C 0.11776 0.34428 0.76011 0.0
C1101 C 0.13519 0.62546 0.22553 0.0
C1102 C 0.1501 0.61565 0.24686 0.0
C1103 C 0.11598 0.64499 0.22965 0.0
C1104 C 0.11175 0.65528 0.25515 0.0
H1105 H 0.14138 0.62145 0.20544 0.0
H1106 H 0.10833 0.6552 0.21248 0.0
S1107 S 0.13563 0.62635 0.31779 0.0
N1108 N 0.15152 0.60985 0.29455 0.0
N1109 N 0.11592 0.6471 0.30214 0.0
C1110 C 0.12132 0.64066 0.27665 0.0
C1111 C 0.14059 0.62054 0.27251 0.0
C1112 C 0.76236 0.87669 0.64527 0.0
C1113 C 0.7368 0.87747 0.65613 0.0
C1114 C 0.76785 0.86009 0.62375 0.0
C1115 C 0.74791 0.84393 0.61291 0.0
H1116 H 0.77891 0.88507 0.65598 0.0
H1117 H 0.78837 0.85633 0.61895 0.0
S1118 S 0.67614 0.85001 0.62585 0.0
N1119 N 0.69023 0.86923 0.64817 0.0
N1120 N 0.70046 0.83824 0.60758 0.0
C1121 C 0.72156 0.85036 0.61897 0.0
C1122 C 0.71599 0.8671 0.64094 0.0
C1123 C 0.60936 0.26285 0.15153 0.0
C1124 C 0.6057 0.23695 0.16091 0.0
C1125 C 0.62835 0.26801 0.1321 0.0
C1126 C 0.64363 0.24734 0.12144 0.0
H1127 H 0.60134 0.27951 0.16233 0.0
H1128 H 0.6341 0.28834 0.12879 0.0
S1129 S 0.6312 0.17577 0.13004 0.0
N1130 N 0.61107 0.19031 0.1512 0.0
N1131 N 0.64638 0.19988 0.11425 0.0
C1132 C 0.63482 0.22133 0.12556 0.0
C1133 C 0.61574 0.21612 0.14556 0.0
C1134 C 0.22187 0.12883 0.62765 0.0
C1135 C 0.24181 0.14445 0.61624 0.0
C1136 C 0.2279 0.11151 0.64835 0.0
C1137 C 0.25394 0.10979 0.65801 0.0
H1138 H 0.20129 0.13346 0.62399 0.0
H1139 H 0.21162 0.10354 0.65968 0.0
S1140 S 0.3139 0.13533 0.62518 0.0
N1141 N 0.2891 0.14837 0.60846 0.0
N1142 N 0.3003 0.11632 0.64786 0.0
C1143 C 0.2743 0.11955 0.64198 0.0
C1144 C 0.2682 0.13687 0.6207 0.0
C1145 C 0.3464 0.75312 0.1161 0.0
C1146 C 0.33704 0.72703 0.11385 0.0
C1147 C 0.36563 0.75945 0.13502 0.0
C1148 C 0.37593 0.73979 0.15176 0.0
H1149 H 0.33571 0.76924 0.10697 0.0
H1150 H 0.36887 0.78012 0.13961 0.0
S1151 S 0.36779 0.66758 0.14307 0.0
N1152 N 0.34676 0.68083 0.12193 0.0
N1153 N 0.38332 0.69261 0.15715 0.0
C1154 C 0.37203 0.71329 0.14432 0.0
C1155 C 0.35226 0.70688 0.12529 0.0
C1156 C 0.72233 0.1451 0.37296 0.0
C1157 C 0.74873 0.15348 0.37542 0.0
C1158 C 0.71557 0.12531 0.35476 0.0
C1159 C 0.7351 0.11352 0.33881 0.0
H1160 H 0.70648 0.15675 0.38141 0.0
H1161 H 0.69487 0.12264 0.34998 0.0
S1162 S 0.80747 0.11952 0.34822 0.0
N1163 N 0.79469 0.14188 0.36827 0.0
N1164 N 0.7821 0.1043 0.33443 0.0
C1165 C 0.76164 0.11685 0.34646 0.0
C1166 C 0.76849 0.13718 0.36475 0.0
C1167 C 0.34215 0.23638 0.87134 0.0
C1168 C 0.33281 0.26255 0.8727 0.0
C1169 C 0.3615 0.22937 0.85282 0.0
C1170 C 0.37205 0.24844 0.83562 0.0
H1171 H 0.33145 0.2206 0.88098 0.0
H1172 H 0.36481 0.20857 0.849 0.0
S1173 S 0.36332 0.3209 0.84124 0.0
N1174 N 0.34232 0.30842 0.86277 0.0
N1175 N 0.37908 0.2954 0.82833 0.0
C1176 C 0.36788 0.2752 0.84193 0.0
C1177 C 0.34798 0.28227 0.86053 0.0
C1178 C 0.26545 0.85502 0.36278 0.0
C1179 C 0.23913 0.84681 0.36632 0.0
C1180 C 0.27181 0.8729 0.34267 0.0
C1181 C 0.25194 0.88291 0.32595 0.0
H1182 H 0.28149 0.84427 0.37201 0.0
H1183 H 0.29241 0.87507 0.3373 0.0
S1184 S 0.17981 0.87821 0.33737 0.0
N1185 N 0.19303 0.85785 0.35914 0.0
N1186 N 0.20488 0.89192 0.32171 0.0
C1187 C 0.22559 0.88052 0.33444 0.0
C1188 C 0.21914 0.86212 0.35468 0.0
C1189 C 0.62748 0.76082 0.85083 0.0
C1190 C 0.61772 0.74123 0.83362 0.0
C1191 C 0.64672 0.75462 0.86979 0.0
C1192 C 0.65672 0.72874 0.87162 0.0
H1193 H 0.62365 0.78147 0.84674 0.0
H1194 H 0.65684 0.77084 0.87945 0.0
S1195 S 0.62827 0.66912 0.84021 0.0
N1196 N 0.61207 0.69399 0.82671 0.0
N1197 N 0.64858 0.68248 0.86201 0.0
C1198 C 0.64228 0.70843 0.85936 0.0
C1199 C 0.62251 0.71469 0.84029 0.0
C1200 C 0.15509 0.2032 0.26787 0.0
C1201 C 0.13496 0.19822 0.2493 0.0
C1202 C 0.17809 0.18792 0.2685 0.0
C1203 C 0.18165 0.16674 0.25093 0.0
H1204 H 0.1535 0.21954 0.2816 0.0
H1205 H 0.19332 0.1929 0.28272 0.0
S1206 S 0.13475 0.14459 0.19918 0.0
N1207 N 0.11991 0.17 0.2133 0.0
N1208 N 0.16307 0.1409 0.21497 0.0
C1209 C 0.16134 0.16077 0.23297 0.0
C1210 C 0.13798 0.17658 0.23205 0.0
C1211 C 0.30386 0.67318 0.76303 0.0
C1212 C 0.32608 0.67658 0.74686 0.0
C1213 C 0.28739 0.65125 0.76008 0.0
C1214 C 0.29215 0.63211 0.74047 0.0
H1215 H 0.29888 0.68784 0.77785 0.0
H1216 H 0.27027 0.64981 0.77274 0.0
S1217 S 0.34874 0.63129 0.69395 0.0
N1218 N 0.35306 0.65844 0.71157 0.0
N1219 N 0.32166 0.6173 0.70551 0.0
C1220 C 0.31498 0.63469 0.72486 0.0
C1221 C 0.33205 0.65694 0.72816 0.0
C1222 C 0.80576 0.79686 0.27254 0.0
C1223 C 0.80352 0.82004 0.25748 0.0
C1224 C 0.82868 0.78143 0.27172 0.0
C1225 C 0.85009 0.78829 0.25542 0.0
H1226 H 0.78955 0.79041 0.28489 0.0
H1227 H 0.82917 0.76353 0.28335 0.0
S1228 S 0.8545 0.84792 0.21309 0.0
N1229 N 0.82501 0.84992 0.22682 0.0
N1230 N 0.86804 0.8207 0.22487 0.0
C1231 C 0.84847 0.81198 0.24098 0.0
C1232 C 0.82519 0.82789 0.24209 0.0
C1233 C 0.66175 0.33412 0.72912 0.0
C1234 C 0.66251 0.31883 0.7522 0.0
C1235 C 0.67812 0.35635 0.72644 0.0
C1236 C 0.69553 0.36383 0.74685 0.0
H1237 H 0.64961 0.32801 0.71255 0.0
H1238 H 0.67829 0.36667 0.70775 0.0
S1239 S 0.70133 0.33238 0.81272 0.0
N1240 N 0.67954 0.31409 0.79672 0.0
N1241 N 0.70994 0.35601 0.79204 0.0
C1242 C 0.69483 0.34972 0.77072 0.0
C1243 C 0.67842 0.3271 0.77329 0.0
C1244 C 0.16266 0.7877 0.72162 0.0
C1245 C 0.1428 0.79262 0.74043 0.0
C1246 C 0.18548 0.80318 0.72058 0.0
C1247 C 0.18908 0.82453 0.73792 0.0
H1248 H 0.16108 0.77121 0.70806 0.0
H1249 H 0.20055 0.79822 0.70621 0.0
S1250 S 0.14263 0.84693 0.78982 0.0
N1251 N 0.12789 0.82117 0.7762 0.0
N1252 N 0.17071 0.85068 0.77372 0.0
C1253 C 0.16896 0.83055 0.75601 0.0
C1254 C 0.1458 0.81451 0.75737 0.0
C1255 C 0.69192 0.67991 0.21255 0.0
C1256 C 0.66841 0.68133 0.22721 0.0
C1257 C 0.70828 0.65769 0.21383 0.0
C1258 C 0.70201 0.63615 0.23018 0.0
H1259 H 0.69792 0.69627 0.20017 0.0
H1260 H 0.7264 0.65785 0.20251 0.0
S1261 S 0.64192 0.62964 0.27163 0.0
N1262 N 0.63892 0.65889 0.25761 0.0
N1263 N 0.66987 0.61715 0.26039 0.0
C1264 C 0.67803 0.6369 0.24423 0.0
C1265 C 0.66119 0.65949 0.24267 0.0
C1266 C 0.82905 0.20325 0.72332 0.0
C1267 C 0.8493 0.19759 0.74152 0.0
C1268 C 0.80632 0.1877 0.72181 0.0
C1269 C 0.80315 0.16554 0.73808 0.0
H1270 H 0.83033 0.22036 0.71062 0.0
H1271 H 0.79097 0.19324 0.70794 0.0
S1272 S 0.85086 0.14098 0.7879 0.0
N1273 N 0.86514 0.16749 0.77545 0.0
N1274 N 0.82247 0.13779 0.77209 0.0
C1275 C 0.82372 0.15877 0.75547 0.0
C1276 C 0.84681 0.17489 0.75729 0.0
C1277 C 0.32126 0.33282 0.25501 0.0
C1278 C 0.31684 0.31483 0.2343 0.0
C1279 C 0.30401 0.35417 0.25919 0.0
C1280 C 0.28202 0.35826 0.24261 0.0
H1281 H 0.33725 0.32958 0.26887 0.0
H1282 H 0.30724 0.36675 0.27622 0.0
S1283 S 0.26493 0.31928 0.18287 0.0
N1284 N 0.29098 0.30413 0.19532 0.0
N1285 N 0.25902 0.34451 0.20267 0.0
C1286 C 0.2787 0.34147 0.2207 0.0
C1287 C 0.29599 0.31965 0.21669 0.0
C1288 C 0.27123 0.18684 0.18535 0.0
C1289 C 0.25535 0.19041 0.16289 0.0
C1290 C 0.27065 0.16318 0.19952 0.0
C1291 C 0.25374 0.14237 0.19209 0.0
H1292 H 0.28407 0.20257 0.19219 0.0
H1293 H 0.28295 0.16162 0.21694 0.0
S1294 S 0.20872 0.14179 0.13411 0.0
N1295 N 0.22302 0.17107 0.13311 0.0
N1296 N 0.2214 0.12665 0.16005 0.0
C1297 C 0.23835 0.14541 0.16911 0.0
C1298 C 0.23925 0.16944 0.15445 0.0
C1299 C 0.32789 0.73813 0.65528 0.0
C1300 C 0.30862 0.75718 0.66133 0.0
C1301 C 0.35068 0.73555 0.67094 0.0
C1302 C 0.35499 0.75221 0.69286 0.0
H1303 H 0.32475 0.72441 0.63912 0.0
H1304 H 0.36437 0.71972 0.66651 0.0
S1305 S 0.31237 0.808 0.71389 0.0
N1306 N 0.29649 0.79465 0.68871 0.0
N1307 N 0.33956 0.79044 0.71759 0.0
C1308 C 0.33665 0.77247 0.69782 0.0
C1309 C 0.31336 0.77478 0.68221 0.0
C1310 C 0.71465 0.82656 0.204 0.0
C1311 C 0.73168 0.84756 0.19767 0.0
C1312 C 0.71359 0.80375 0.1884 0.0
C1313 C 0.72914 0.80121 0.16557 0.0
H1314 H 0.70263 0.82725 0.22164 0.0
H1315 H 0.70069 0.78782 0.19449 0.0
S1316 S 0.77573 0.85101 0.13919 0.0
N1317 N 0.76362 0.86477 0.16618 0.0
N1318 N 0.76118 0.82194 0.13661 0.0
C1319 C 0.74531 0.82249 0.15822 0.0
C1320 C 0.74667 0.84567 0.17432 0.0
C1321 C 0.65686 0.22167 0.70493 0.0
C1322 C 0.63698 0.23989 0.69817 0.0
C1323 C 0.67971 0.21905 0.68973 0.0
C1324 C 0.68334 0.23416 0.66685 0.0
H1325 H 0.65525 0.20987 0.72265 0.0
H1326 H 0.6948 0.20529 0.69614 0.0
S1327 S 0.63673 0.28348 0.63938 0.0
N1328 N 0.62198 0.27255 0.6663 0.0
N1329 N 0.66486 0.26707 0.63726 0.0
C1330 C 0.66313 0.2515 0.659 0.0
C1331 C 0.63992 0.25447 0.67475 0.0
C1332 C 0.28097 0.83112 0.78805 0.0
C1333 C 0.26307 0.85125 0.79501 0.0
C1334 C 0.28249 0.80768 0.80248 0.0
C1335 C 0.26656 0.8036 0.82479 0.0
H1336 H 0.29332 0.83302 0.77073 0.0
H1337 H 0.29602 0.79243 0.79588 0.0
S1338 S 0.21774 0.85058 0.85258 0.0
N1339 N 0.22989 0.86596 0.82657 0.0
N1340 N 0.23329 0.82194 0.85408 0.0
C1341 C 0.24957 0.82401 0.83288 0.0
C1342 C 0.24772 0.84784 0.81792 0.0
C1343 C 0.66021 0.76866 0.27957 0.0
C1344 C 0.63884 0.75231 0.28645 0.0
C1345 C 0.68282 0.77016 0.29542 0.0
C1346 C 0.68476 0.75578 0.31905 0.0
H1347 H 0.65993 0.77981 0.26137 0.0
H1348 H 0.69903 0.78254 0.28897 0.0
S1349 S 0.63375 0.71145 0.34703 0.0
N1350 N 0.62061 0.72236 0.31926 0.0
N1351 N 0.66305 0.72559 0.34926 0.0
C1352 C 0.66313 0.7403 0.32685 0.0
C1353 C 0.64017 0.73849 0.31052 0.0
C1354 C 0.74667 0.13962 0.81636 0.0
C1355 C 0.72976 0.13697 0.79438 0.0
C1356 C 0.74599 0.16229 0.83233 0.0
C1357 C 0.72867 0.18318 0.82658 0.0
H1358 H 0.76128 0.12459 0.82068 0.0
H1359 H 0.75988 0.16399 0.84854 0.0
S1360 S 0.67763 0.18443 0.77414 0.0
N1361 N 0.69284 0.15588 0.77 0.0
N1362 N 0.69237 0.19881 0.79946 0.0
C1363 C 0.71076 0.18025 0.80563 0.0
C1364 C 0.71106 0.15702 0.7897 0.0
C1365 C 0.32366 0.22366 0.28105 0.0
C1366 C 0.3452 0.2392 0.2893 0.0
C1367 C 0.30127 0.22075 0.29689 0.0
C1368 C 0.29972 0.23282 0.32184 0.0
H1369 H 0.32365 0.21421 0.26186 0.0
H1370 H 0.28497 0.20904 0.28942 0.0
S1371 S 0.3514 0.27392 0.35366 0.0
N1372 N 0.36407 0.26576 0.32474 0.0
N1373 N 0.32203 0.2598 0.35477 0.0
C1374 C 0.32153 0.2474 0.33094 0.0
C1375 C 0.34427 0.25069 0.31462 0.0
C1376 C 0.19925 0.27953 0.15731 0.0
C1377 C 0.19468 0.26192 0.13625 0.0
C1378 C 0.18317 0.27951 0.17972 0.0
C1379 C 0.16154 0.26229 0.18172 0.0
H1380 H 0.21596 0.29285 0.15695 0.0
H1381 H 0.18796 0.29283 0.19581 0.0
S1382 S 0.13992 0.21333 0.1317 0.0
N1383 N 0.16616 0.22744 0.11848 0.0
N1384 N 0.13556 0.22793 0.16056 0.0
C1385 C 0.15585 0.24549 0.16037 0.0
C1386 C 0.17249 0.2452 0.13762 0.0
C1387 C 0.18598 0.74551 0.84931 0.0
C1388 C 0.20782 0.72831 0.85073 0.0
C1389 C 0.16887 0.74508 0.82748 0.0
C1390 C 0.1733 0.72768 0.8063 0.0
H1391 H 0.18269 0.76015 0.86457 0.0
H1392 H 0.15289 0.7593 0.82658 0.0
S1393 S 0.22498 0.67603 0.80219 0.0
N1394 N 0.23079 0.69119 0.83049 0.0
N1395 N 0.1991 0.69103 0.78923 0.0
C1396 C 0.1941 0.70946 0.80813 0.0
C1397 C 0.21123 0.70959 0.83045 0.0
C1398 C 0.77388 0.7039 0.32818 0.0
C1399 C 0.75649 0.69767 0.34891 0.0
C1400 C 0.77551 0.68804 0.3056 0.0
C1401 C 0.7602 0.66503 0.30303 0.0
H1402 H 0.78575 0.72166 0.3289 0.0
H1403 H 0.78867 0.69405 0.28986 0.0
S1404 S 0.71287 0.63881 0.35218 0.0
N1405 N 0.72448 0.66609 0.36585 0.0
N1406 N 0.72801 0.63601 0.32345 0.0
C1407 C 0.74368 0.65779 0.32405 0.0
C1408 C 0.74173 0.67416 0.347 0.0
C1409 C 0.80887 0.23153 0.85631 0.0
C1410 C 0.79131 0.25218 0.86269 0.0
C1411 C 0.8253 0.2332 0.83405 0.0
C1412 C 0.82447 0.25549 0.81764 0.0
H1413 H 0.80873 0.21336 0.86754 0.0
H1414 H 0.83749 0.2164 0.82879 0.0
S1415 S 0.78535 0.31639 0.82802 0.0
N1416 N 0.77675 0.29686 0.85262 0.0
N1417 N 0.80727 0.29962 0.81063 0.0
C1418 C 0.80846 0.27688 0.8248 0.0
C1419 C 0.79198 0.27534 0.84745 0.0
C1420 C 0.24393 0.30764 0.35657 0.0
C1421 C 0.22656 0.286 0.35871 0.0
C1422 C 0.2418 0.32556 0.33554 0.0
C1423 C 0.22246 0.32218 0.31592 0.0
H1424 H 0.26004 0.31007 0.37045 0.0
H1425 H 0.25619 0.3413 0.3339 0.0
S1426 S 0.16961 0.27158 0.31484 0.0
N1427 N 0.18728 0.26447 0.34129 0.0
N1428 N 0.18379 0.29769 0.30151 0.0
C1429 C 0.20403 0.30168 0.31874 0.0
C1430 C 0.20593 0.28372 0.34024 0.0
C1431 C 0.78285 0.71333 0.16069 0.0
C1432 C 0.78921 0.72952 0.13905 0.0
C1433 C 0.79879 0.71274 0.18327 0.0
C1434 C 0.82195 0.72793 0.18496 0.0
H1435 H 0.76501 0.70159 0.16061 0.0
H1436 H 0.79273 0.70041 0.19967 0.0
S1437 S 0.84844 0.77235 0.13329 0.0
N1438 N 0.82101 0.76029 0.12035 0.0
N1439 N 0.85117 0.75876 0.16277 0.0
C1440 C 0.82925 0.7433 0.16308 0.0
C1441 C 0.81282 0.74417 0.14014 0.0
C1442 C 0.74108 0.3287 0.65912 0.0
C1443 C 0.75809 0.32408 0.68056 0.0
C1444 C 0.74046 0.31133 0.6375 0.0
C1445 C 0.75714 0.28906 0.63648 0.0
H1446 H 0.72739 0.34515 0.65961 0.0
H1447 H 0.72611 0.31486 0.62202 0.0
S1448 S 0.80836 0.27121 0.6858 0.0
N1449 N 0.7938 0.29754 0.69838 0.0
N1450 N 0.79348 0.2655 0.65736 0.0
C1451 C 0.77552 0.28544 0.65702 0.0
C1452 C 0.77574 0.30278 0.6792 0.0
C1453 C 0.24913 0.66243 0.64983 0.0
C1454 C 0.23014 0.66582 0.66976 0.0
C1455 C 0.25069 0.68025 0.62866 0.0
C1456 C 0.23313 0.70177 0.62673 0.0
H1457 H 0.26373 0.64686 0.65138 0.0
H1458 H 0.26659 0.67791 0.61455 0.0
S1459 S 0.1769 0.71602 0.67148 0.0
N1460 N 0.19154 0.69006 0.68467 0.0
N1461 N 0.19397 0.72309 0.64468 0.0
C1462 C 0.21279 0.70395 0.64548 0.0
C1463 C 0.21145 0.6861 0.6671 0.0
C1464 C 0.81701 0.80433 0.7167 0.0
C1465 C 0.81168 0.82446 0.735 0.0
C1466 C 0.84014 0.78934 0.71847 0.0
C1467 C 0.85849 0.7935 0.73897 0.0
H1468 H 0.803 0.79988 0.7011 0.0
H1469 H 0.84321 0.77375 0.70414 0.0
S1470 S 0.85341 0.84416 0.79184 0.0
N1471 N 0.82658 0.84849 0.77377 0.0
N1472 N 0.86989 0.8198 0.77768 0.0
C1473 C 0.85371 0.81418 0.75699 0.0
C1474 C 0.83028 0.82975 0.75488 0.0
C1475 C 0.6865 0.30623 0.22244 0.0
C1476 C 0.66311 0.30579 0.23734 0.0
C1477 C 0.70311 0.32828 0.2227 0.0
C1478 C 0.6973 0.35058 0.23828 0.0
H1479 H 0.69214 0.28931 0.21061 0.0
H1480 H 0.72106 0.32739 0.21112 0.0
S1481 S 0.63771 0.35971 0.27998 0.0
N1482 N 0.6342 0.32992 0.26712 0.0
N1483 N 0.66574 0.37131 0.26807 0.0
C1484 C 0.67349 0.35075 0.25262 0.0
C1485 C 0.65634 0.32836 0.25205 0.0
C1486 C 0.17643 0.18575 0.71592 0.0
C1487 C 0.18003 0.16457 0.7334 0.0
C1488 C 0.15362 0.20127 0.71684 0.0
C1489 C 0.13374 0.19661 0.73567 0.0
H1490 H 0.19162 0.1907 0.7017 0.0
H1491 H 0.15207 0.21769 0.7033 0.0
S1492 S 0.13322 0.14249 0.78499 0.0
N1493 N 0.16139 0.1386 0.76905 0.0
N1494 N 0.11857 0.1682 0.77129 0.0
C1495 C 0.13657 0.17471 0.75252 0.0
C1496 C 0.15974 0.15861 0.7513 0.0
C1497 C 0.30144 0.67258 0.21943 0.0
C1498 C 0.3231 0.67695 0.23622 0.0
C1499 C 0.28492 0.65075 0.22287 0.0
C1500 C 0.28912 0.63269 0.24354 0.0
H1501 H 0.29694 0.68641 0.20376 0.0
H1502 H 0.26816 0.64858 0.20973 0.0
S1503 S 0.34366 0.63524 0.29262 0.0
N1504 N 0.34861 0.66125 0.27365 0.0
N1505 N 0.31722 0.62031 0.28059 0.0
C1506 C 0.31132 0.63637 0.25996 0.0
C1507 C 0.32838 0.65852 0.25619 0.0
C1508 C 0.8023 0.18724 0.2718 0.0
C1509 C 0.79995 0.16379 0.25712 0.0
C1510 C 0.82498 0.20291 0.27013 0.0
C1511 C 0.84603 0.19603 0.25333 0.0
H1512 H 0.78638 0.19369 0.28457 0.0
H1513 H 0.82559 0.22097 0.28158 0.0
S1514 S 0.84987 0.13592 0.21138 0.0
N1515 N 0.82086 0.13373 0.22607 0.0
N1516 N 0.86342 0.16347 0.22246 0.0
C1517 C 0.84426 0.17216 0.23913 0.0
C1518 C 0.82123 0.15598 0.24112 0.0
C1519 C 0.31035 0.34926 0.7269 0.0
C1520 C 0.29092 0.3555 0.74581 0.0
C1521 C 0.32661 0.32698 0.72996 0.0
C1522 C 0.32368 0.31027 0.75184 0.0
H1523 H 0.31211 0.36081 0.70902 0.0
H1524 H 0.34058 0.32208 0.71451 0.0
S1525 S 0.27927 0.32047 0.80895 0.0
N1526 N 0.27235 0.34511 0.78881 0.0
N1527 N 0.3025 0.30302 0.79413 0.0
C1528 C 0.30559 0.3172 0.77159 0.0
C1529 C 0.28932 0.33993 0.76869 0.0
C1530 C 0.1831 0.80166 0.26548 0.0
C1531 C 0.18522 0.82418 0.24951 0.0
C1532 C 0.16036 0.78602 0.26509 0.0
C1533 C 0.139 0.79197 0.24828 0.0
H1534 H 0.19928 0.7959 0.27831 0.0
H1535 H 0.15996 0.76869 0.27751 0.0
S1536 S 0.13421 0.84974 0.20354 0.0
N1537 N 0.1636 0.85259 0.21745 0.0
N1538 N 0.1209 0.82286 0.21624 0.0
C1539 C 0.14047 0.815 0.23287 0.0
C1540 C 0.16357 0.83119 0.23356 0.0
C1541 C 0.68381 0.64008 0.72888 0.0
C1542 C 0.70477 0.63611 0.74677 0.0
C1543 C 0.66667 0.66173 0.73159 0.0
C1544 C 0.67023 0.68015 0.75206 0.0
H1545 H 0.68132 0.62712 0.71201 0.0
H1546 H 0.65143 0.66479 0.71687 0.0
S1547 S 0.71917 0.67634 0.80637 0.0
N1548 N 0.72576 0.65053 0.78756 0.0
N1549 N 0.69406 0.69151 0.79214 0.0
C1550 C 0.69002 0.67553 0.77091 0.0
C1551 C 0.70715 0.65338 0.76841 0.0
C1552 C 0.71863 0.80682 0.80315 0.0
C1553 C 0.73549 0.8032 0.82488 0.0
C1554 C 0.71997 0.8297 0.78783 0.0
C1555 C 0.73859 0.84962 0.79331 0.0
H1556 H 0.70452 0.79166 0.79773 0.0
H1557 H 0.70685 0.83133 0.77101 0.0
S1558 S 0.78718 0.84941 0.84833 0.0
N1559 N 0.77089 0.82137 0.85169 0.0
N1560 N 0.77395 0.86433 0.82253 0.0
C1561 C 0.75512 0.84653 0.8155 0.0
C1562 C 0.75346 0.8233 0.83136 0.0
C1563 C 0.63847 0.25691 0.31616 0.0
C1564 C 0.63193 0.23725 0.29754 0.0
C1565 C 0.66195 0.25539 0.33086 0.0
C1566 C 0.67967 0.23438 0.3271 0.0
H1567 H 0.62604 0.27415 0.31856 0.0
H1568 H 0.66682 0.27128 0.34439 0.0
S1569 S 0.66979 0.17586 0.28437 0.0
N1570 N 0.64357 0.19447 0.27887 0.0
N1571 N 0.68796 0.19216 0.30603 0.0
C1572 C 0.67274 0.21397 0.30973 0.0
C1573 C 0.64875 0.21525 0.29509 0.0
C1574 C 0.26939 0.16335 0.78732 0.0
C1575 C 0.25256 0.14234 0.79418 0.0
C1576 C 0.26996 0.18667 0.80212 0.0
C1577 C 0.25412 0.18974 0.82465 0.0
H1578 H 0.28171 0.16219 0.76991 0.0
H1579 H 0.28278 0.20255 0.7957 0.0
S1580 S 0.20758 0.14044 0.85199 0.0
N1581 N 0.22023 0.12589 0.82567 0.0
N1582 N 0.22184 0.16972 0.85383 0.0
C1583 C 0.23803 0.16859 0.83249 0.0
C1584 C 0.23714 0.14487 0.81717 0.0
C1585 C 0.31147 0.77592 0.29797 0.0
C1586 C 0.30764 0.76116 0.32107 0.0
C1587 C 0.33396 0.7723 0.2824 0.0
C1588 C 0.35324 0.7534 0.28903 0.0
H1589 H 0.29677 0.79016 0.29167 0.0
H1590 H 0.33578 0.78387 0.26456 0.0
S1591 S 0.35246 0.70998 0.348 0.0
N1592 N 0.3251 0.72759 0.35047 0.0
N1593 N 0.36729 0.72024 0.32086 0.0
C1594 C 0.35003 0.73905 0.31259 0.0
C1595 C 0.32721 0.74304 0.32868 0.0
C1596 C 0.74387 0.16012 0.16552 0.0
C1597 C 0.7231 0.17819 0.16886 0.0
C1598 C 0.74561 0.13752 0.1814 0.0
C1599 C 0.72648 0.13229 0.20088 0.0
H1600 H 0.75948 0.16412 0.15148 0.0
H1601 H 0.76271 0.12483 0.17925 0.0
S1602 S 0.66569 0.17124 0.21341 0.0
N1603 N 0.68147 0.18798 0.19039 0.0
N1604 N 0.68433 0.14529 0.21996 0.0
C1605 C 0.70466 0.14935 0.20295 0.0
C1606 C 0.70309 0.17241 0.18701 0.0
C1607 C 0.33246 0.21566 0.70478 0.0
C1608 C 0.35335 0.23262 0.69795 0.0
C1609 C 0.3102 0.2131 0.68863 0.0
C1610 C 0.30811 0.22703 0.66476 0.0
H1611 H 0.33275 0.20493 0.72324 0.0
H1612 H 0.29428 0.20038 0.69514 0.0
S1613 S 0.35824 0.27213 0.63648 0.0
N1614 N 0.37126 0.26231 0.66473 0.0
N1615 N 0.32942 0.25705 0.6341 0.0
C1616 C 0.32944 0.24288 0.65685 0.0
C1617 C 0.35208 0.24576 0.6735 0.0
C1618 C 0.24021 0.84428 0.16933 0.0
C1619 C 0.25772 0.84917 0.19043 0.0
C1620 C 0.24125 0.82049 0.15507 0.0
C1621 C 0.25954 0.80071 0.16175 0.0
H1622 H 0.22493 0.85843 0.16442 0.0
H1623 H 0.22695 0.8171 0.13949 0.0
S1624 S 0.31214 0.80527 0.21246 0.0
N1625 N 0.29599 0.83347 0.21495 0.0
N1626 N 0.29721 0.78849 0.18879 0.0
C1627 C 0.27794 0.80585 0.18184 0.0
C1628 C 0.27724 0.83019 0.19599 0.0
C1629 C 0.66441 0.744 0.6574 0.0
C1630 C 0.68335 0.76347 0.66318 0.0
C1631 C 0.64228 0.7405 0.67369 0.0
C1632 C 0.63829 0.75656 0.69608 0.0
H1633 H 0.6674 0.73057 0.64098 0.0
H1634 H 0.62892 0.72435 0.66939 0.0
S1635 S 0.67975 0.81335 0.7167 0.0
N1636 N 0.69517 0.80093 0.6908 0.0
N1637 N 0.65331 0.79484 0.72097 0.0
C1638 C 0.65611 0.77732 0.7008 0.0
C1639 C 0.67875 0.78063 0.68448 0.0
C1640 C 0.8075 0.71451 0.81066 0.0
C1641 C 0.82861 0.73232 0.80839 0.0
C1642 C 0.7912 0.71464 0.83291 0.0
C1643 C 0.79507 0.73291 0.85355 0.0
H1644 H 0.80333 0.70056 0.79493 0.0
H1645 H 0.77487 0.70083 0.83346 0.0
S1646 S 0.84807 0.7835 0.85703 0.0
N1647 N 0.85322 0.76816 0.82868 0.0
N1648 N 0.82221 0.7689 0.87047 0.0
C1649 C 0.81668 0.75034 0.85185 0.0
C1650 C 0.83353 0.74994 0.82925 0.0
C1651 C 0.79552 0.27131 0.17974 0.0
C1652 C 0.81805 0.2552 0.18162 0.0
C1653 C 0.77842 0.26946 0.15814 0.0
C1654 C 0.78295 0.25114 0.13772 0.0
H1655 H 0.79072 0.28512 0.19541 0.0
H1656 H 0.76098 0.28185 0.15802 0.0
S1657 S 0.84017 0.20549 0.13261 0.0
N1658 N 0.84498 0.22144 0.16069 0.0
N1659 N 0.81259 0.21759 0.12004 0.0
C1660 C 0.80611 0.23574 0.13875 0.0
C1661 C 0.82373 0.23785 0.16073 0.0
C1662 C 0.24896 0.32329 0.65539 0.0
C1663 C 0.23083 0.31905 0.67591 0.0
C1664 C 0.25064 0.3056 0.63406 0.0
C1665 C 0.23398 0.28336 0.63247 0.0
H1666 H 0.26273 0.33963 0.65644 0.0
H1667 H 0.2658 0.30881 0.61934 0.0
S1668 S 0.18024 0.26634 0.67916 0.0
N1669 N 0.19412 0.29288 0.69208 0.0
N1670 N 0.19661 0.26015 0.65169 0.0
C1671 C 0.21456 0.28009 0.65202 0.0
C1672 C 0.21318 0.29779 0.67385 0.0
C1673 C 0.17776 0.74438 0.13709 0.0
C1674 C 0.19895 0.7265 0.13466 0.0
C1675 C 0.16136 0.74415 0.15945 0.0
C1676 C 0.16588 0.72627 0.18014 0.0
H1677 H 0.17455 0.75944 0.12229 0.0
H1678 H 0.14594 0.75891 0.16115 0.0
S1679 S 0.21579 0.67275 0.18149 0.0
N1680 N 0.22114 0.68818 0.15334 0.0
N1681 N 0.19091 0.68842 0.19558 0.0
C1682 C 0.18591 0.70733 0.17723 0.0
C1683 C 0.20227 0.70725 0.15438 0.0
C1684 C 0.7471 0.66615 0.65621 0.0
C1685 C 0.76443 0.67203 0.67709 0.0
C1686 C 0.74455 0.68332 0.63464 0.0
C1687 C 0.75953 0.7067 0.63312 0.0
H1688 H 0.73457 0.64884 0.65711 0.0
H1689 H 0.73003 0.67869 0.6196 0.0
S1690 S 0.8109 0.72842 0.68085 0.0
N1691 N 0.79873 0.70114 0.69377 0.0
N1692 N 0.79471 0.73292 0.65292 0.0
C1693 C 0.77825 0.71173 0.65308 0.0
C1694 C 0.78048 0.69453 0.67518 0.0
C1695 C 0.15976 0.24125 0.82581 0.0
C1696 C 0.16279 0.26053 0.80617 0.0
C1697 C 0.17561 0.24166 0.84857 0.0
C1698 C 0.19471 0.26154 0.85239 0.0
H1699 H 0.14597 0.22513 0.82298 0.0
H1700 H 0.17376 0.22562 0.86255 0.0
S1701 S 0.20649 0.31903 0.80878 0.0
N1702 N 0.18375 0.30156 0.79322 0.0
N1703 N 0.21312 0.30279 0.83621 0.0
C1704 C 0.19644 0.28192 0.83368 0.0
C1705 C 0.1806 0.28127 0.81046 0.0
C1706 C 0.21691 0.71119 0.33364 0.0
C1707 C 0.23477 0.70725 0.35458 0.0
C1708 C 0.21524 0.69325 0.31269 0.0
C1709 C 0.23102 0.67044 0.31206 0.0
H1710 H 0.20467 0.72872 0.3329 0.0
H1711 H 0.2017 0.69747 0.29663 0.0
S1712 S 0.2801 0.65008 0.36239 0.0
N1713 N 0.26801 0.6782 0.37374 0.0
N1714 N 0.26439 0.64422 0.33438 0.0
C1715 C 0.24812 0.66554 0.33333 0.0
C1716 C 0.2501 0.68401 0.35461 0.0
C1717 C 0.74024 0.32886 0.3293 0.0
C1718 C 0.75947 0.32406 0.30989 0.0
C1719 C 0.73855 0.31276 0.3518 0.0
C1720 C 0.75625 0.29162 0.35562 0.0
H1721 H 0.72555 0.34415 0.32637 0.0
H1722 H 0.72249 0.31607 0.36552 0.0
S1723 S 0.81302 0.27426 0.31277 0.0
N1724 N 0.79834 0.29893 0.29734 0.0
N1725 N 0.79571 0.26923 0.33986 0.0
C1726 C 0.77678 0.2881 0.3373 0.0
C1727 C 0.77823 0.30416 0.31433 0.0
loop_
_geom_bond_atom_site_label_1
_geom_bond_atom_site_label_2
_geom_bond_distance
_geom_bond_site_symmetry_2
_ccdc_geom_bond_type
Co0 O1 2.216 . S
Co0 O2 2.091 . S
Co0 O4 2.004 . S
Co0 O10 2.021 . S
Co0 O12 2.137 . S
Co0 O13 2.244 . S
O1 Co0 2.216 . S
O1 C8 1.247 . S
O2 Co0 2.091 . S
O2 C8 1.261 . S
C3 O12 1.247 . S
C3 O13 1.272 . S
O4 Co0 2.004 . S
O4 C9 1.259 . S
Co5 O6 2.061 . S
Co5 O11 2.052 . S
Co5 O13 2.135 . S
O6 Co5 2.061 . S
O6 C9 1.235 . S
C7 O10 1.238 . S
C7 O11 1.241 . S
C8 O1 1.247 . S
C8 O2 1.261 . S
C9 O4 1.259 . S
C9 O6 1.235 . S
O10 Co0 2.021 . S
O10 C7 1.238 . S
O11 Co5 2.052 . S
O11 C7 1.241 . S
O12 Co0 2.137 . S
O12 C3 1.247 . S
O13 Co0 2.244 . S
O13 C3 1.272 . S
O13 Co5 2.135 . S
Co14 O15 2.216 . S
Co14 O16 2.091 . S
Co14 O18 2.004 . S
Co14 O24 2.021 . S
Co14 O26 2.137 . S
Co14 O27 2.244 . S
O15 Co14 2.216 . S
O15 C22 1.247 . S
O16 Co14 2.091 . S
O16 C22 1.261 . S
C17 O26 1.247 . S
C17 O27 1.272 . S
O18 Co14 2.004 . S
O18 C23 1.259 . S
Co19 O20 2.061 . S
Co19 O25 2.052 . S
Co19 O27 2.135 . S
O20 Co19 2.061 . S
O20 C23 1.235 . S
C21 O24 1.238 . S
C21 O25 1.241 . S
C22 O15 1.247 . S
C22 O16 1.261 . S
C23 O18 1.259 . S
C23 O20 1.235 . S
O24 Co14 2.021 . S
O24 C21 1.238 . S
O25 Co19 2.052 . S
O25 C21 1.241 . S
O26 Co14 2.137 . S
O26 C17 1.247 . S
O27 Co14 2.244 . S
O27 C17 1.272 . S
O27 Co19 2.135 . S
Co28 O29 2.216 . S
Co28 O30 2.091 . S
Co28 O32 2.004 . S
Co28 O38 2.021 . S
Co28 O40 2.137 . S
Co28 O41 2.244 . S
O29 Co28 2.216 . S
O29 C36 1.247 . S
O30 Co28 2.091 . S
O30 C36 1.261 . S
C31 O40 1.247 . S
C31 O41 1.272 . S
O32 Co28 2.004 . S
O32 C37 1.259 . S
Co33 O34 2.061 . S
Co33 O39 2.052 . S
Co33 O41 2.135 . S
O34 Co33 2.061 . S
O34 C37 1.235 . S
C35 O38 1.238 . S
C35 O39 1.241 . S
C36 O29 1.247 . S
C36 O30 1.261 . S
C37 O32 1.259 . S
C37 O34 1.235 . S
O38 Co28 2.021 . S
O38 C35 1.238 . S
O39 Co33 2.052 . S
O39 C35 1.241 . S
O40 Co28 2.137 . S
O40 C31 1.247 . S
O41 Co28 2.244 . S
O41 C31 1.272 . S
O41 Co33 2.135 . S
Co42 O43 2.216 . S
Co42 O44 2.091 . S
Co42 O46 2.004 . S
Co42 O52 2.021 . S
Co42 O54 2.137 . S
Co42 O55 2.244 . S
O43 Co42 2.216 . S
O43 C50 1.247 . S
O44 Co42 2.091 . S
O44 C50 1.261 . S
C45 O54 1.247 . S
C45 O55 1.272 . S
O46 Co42 2.004 . S
O46 C51 1.259 . S
Co47 O48 2.061 . S
Co47 O53 2.052 . S
Co47 O55 2.135 . S
O48 Co47 2.061 . S
O48 C51 1.235 . S
C49 O52 1.238 . S
C49 O53 1.241 . S
C50 O43 1.247 . S
C50 O44 1.261 . S
C51 O46 1.259 . S
C51 O48 1.235 . S
O52 Co42 2.021 . S
O52 C49 1.238 . S
O53 Co47 2.052 . S
O53 C49 1.241 . S
O54 Co42 2.137 . S
O54 C45 1.247 . S
O55 Co42 2.244 . S
O55 C45 1.272 . S
O55 Co47 2.135 . S
Co56 O57 2.216 . S
Co56 O58 2.091 . S
Co56 O60 2.004 . S
Co56 O66 2.021 . S
Co56 O68 2.137 . S
Co56 O69 2.244 . S
O57 Co56 2.216 . S
O57 C64 1.247 . S
O58 Co56 2.091 . S
O58 C64 1.261 . S
C59 O68 1.247 . S
C59 O69 1.272 . S
O60 Co56 2.004 . S
O60 C65 1.259 . S
Co61 O62 2.061 . S
Co61 O67 2.052 . S
Co61 O69 2.135 . S
O62 Co61 2.061 . S
O62 C65 1.235 . S
C63 O66 1.238 . S
C63 O67 1.241 . S
C64 O57 1.247 . S
C64 O58 1.261 . S
C65 O60 1.259 . S
C65 O62 1.235 . S
O66 Co56 2.021 . S
O66 C63 1.238 . S
O67 Co61 2.052 . S
O67 C63 1.241 . S
O68 Co56 2.137 . S
O68 C59 1.247 . S
O69 Co56 2.244 . S
O69 C59 1.272 . S
O69 Co61 2.135 . S
Co70 O71 2.216 . S
Co70 O72 2.091 . S
Co70 O74 2.004 . S
Co70 O80 2.021 . S
Co70 O82 2.137 . S
Co70 O83 2.244 . S
O71 Co70 2.216 . S
O71 C78 1.247 . S
O72 Co70 2.091 . S
O72 C78 1.261 . S
C73 O82 1.247 . S
C73 O83 1.272 . S
O74 Co70 2.004 . S
O74 C79 1.259 . S
Co75 O76 2.061 . S
Co75 O81 2.052 . S
Co75 O83 2.135 . S
O76 Co75 2.061 . S
O76 C79 1.235 . S
C77 O80 1.238 . S
C77 O81 1.241 . S
C78 O71 1.247 . S
C78 O72 1.261 . S
C79 O74 1.259 . S
C79 O76 1.235 . S
O80 Co70 2.021 . S
O80 C77 1.238 . S
O81 Co75 2.052 . S
O81 C77 1.241 . S
O82 Co70 2.137 . S
O82 C73 1.247 . S
O83 Co70 2.244 . S
O83 C73 1.272 . S
O83 Co75 2.135 . S
Co84 O85 2.216 . S
Co84 O86 2.091 . S
Co84 O88 2.004 . S
Co84 O94 2.021 . S
Co84 O96 2.137 . S
Co84 O97 2.244 . S
O85 Co84 2.216 . S
O85 C92 1.247 . S
O86 Co84 2.091 . S
O86 C92 1.261 . S
C87 O96 1.247 . S
C87 O97 1.272 . S
O88 Co84 2.004 . S
O88 C93 1.259 . S
Co89 O90 2.061 . S
Co89 O95 2.052 . S
Co89 O97 2.135 . S
O90 Co89 2.061 . S
O90 C93 1.235 . S
C91 O94 1.238 . S
C91 O95 1.241 . S
C92 O85 1.247 . S
C92 O86 1.261 . S
C93 O88 1.259 . S
C93 O90 1.235 . S
O94 Co84 2.021 . S
O94 C91 1.238 . S
O95 Co89 2.052 . S
O95 C91 1.241 . S
O96 Co84 2.137 . S
O96 C87 1.247 . S
O97 Co84 2.244 . S
O97 C87 1.272 . S
O97 Co89 2.135 . S
Co98 O99 2.216 . S
Co98 O100 2.091 . S
Co98 O102 2.004 . S
Co98 O108 2.021 . S
Co98 O110 2.137 . S
Co98 O111 2.244 . S
O99 Co98 2.216 . S
O99 C106 1.247 . S
O100 Co98 2.091 . S
O100 C106 1.261 . S
C101 O110 1.247 . S
C101 O111 1.272 . S
O102 Co98 2.004 . S
O102 C107 1.259 . S
Co103 O104 2.061 . S
Co103 O109 2.052 . S
Co103 O111 2.135 . S
O104 Co103 2.061 . S
O104 C107 1.235 . S
C105 O108 1.238 . S
C105 O109 1.241 . S
C106 O99 1.247 . S
C106 O100 1.261 . S
C107 O102 1.259 . S
C107 O104 1.235 . S
O108 Co98 2.021 . S
O108 C105 1.238 . S
O109 Co103 2.052 . S
O109 C105 1.241 . S
O110 Co98 2.137 . S
O110 C101 1.247 . S
O111 Co98 2.244 . S
O111 C101 1.272 . S
O111 Co103 2.135 . S
Co112 O113 2.216 . S
Co112 O114 2.091 . S
Co112 O116 2.004 . S
Co112 O122 2.021 . S
Co112 O124 2.137 . S
Co112 O125 2.244 . S
O113 Co112 2.216 . S
O113 C120 1.247 . S
O114 Co112 2.091 . S
O114 C120 1.261 . S
C115 O124 1.247 . S
C115 O125 1.272 . S
O116 Co112 2.004 . S
O116 C121 1.259 . S
Co117 O118 2.061 . S
Co117 O123 2.052 . S
Co117 O125 2.135 . S
O118 Co117 2.061 . S
O118 C121 1.235 . S
C119 O122 1.238 . S
C119 O123 1.241 . S
C120 O113 1.247 . S
C120 O114 1.261 . S
C121 O116 1.259 . S
C121 O118 1.235 . S
O122 Co112 2.021 . S
O122 C119 1.238 . S
O123 Co117 2.052 . S
O123 C119 1.241 . S
O124 Co112 2.137 . S
O124 C115 1.247 . S
O125 Co112 2.244 . S
O125 C115 1.272 . S
O125 Co117 2.135 . S
Co126 O127 2.216 . S
Co126 O128 2.091 . S
Co126 O130 2.004 . S
Co126 O136 2.021 . S
Co126 O138 2.137 . S
Co126 O139 2.244 . S
O127 Co126 2.216 . S
O127 C134 1.247 . S
O128 Co126 2.091 . S
O128 C134 1.261 . S
C129 O138 1.247 . S
C129 O139 1.272 . S
O130 Co126 2.004 . S
O130 C135 1.259 . S
Co131 O132 2.061 . S
Co131 O137 2.052 . S
Co131 O139 2.135 . S
O132 Co131 2.061 . S
O132 C135 1.235 . S
C133 O136 1.238 . S
C133 O137 1.241 . S
C134 O127 1.247 . S
C134 O128 1.261 . S
C135 O130 1.259 . S
C135 O132 1.235 . S
O136 Co126 2.021 . S
O136 C133 1.238 . S
O137 Co131 2.052 . S
O137 C133 1.241 . S
O138 Co126 2.137 . S
O138 C129 1.247 . S
O139 Co126 2.244 . S
O139 C129 1.272 . S
O139 Co131 2.135 . S
Co140 O141 2.216 . S
Co140 O142 2.091 . S
Co140 O144 2.004 . S
Co140 O150 2.021 . S
Co140 O152 2.137 . S
Co140 O153 2.244 . S
O141 Co140 2.216 . S
O141 C148 1.247 . S
O142 Co140 2.091 . S
O142 C148 1.261 . S
C143 O152 1.247 . S
C143 O153 1.272 . S
O144 Co140 2.004 . S
O144 C149 1.259 . S
Co145 O146 2.061 . S
Co145 O151 2.052 . S
Co145 O153 2.135 . S
O146 Co145 2.061 . S
O146 C149 1.235 . S
C147 O150 1.238 . S
C147 O151 1.241 . S
C148 O141 1.247 . S
C148 O142 1.261 . S
C149 O144 1.259 . S
C149 O146 1.235 . S
O150 Co140 2.021 . S
O150 C147 1.238 . S
O151 Co145 2.052 . S
O151 C147 1.241 . S
O152 Co140 2.137 . S
O152 C143 1.247 . S
O153 Co140 2.244 . S
O153 C143 1.272 . S
O153 Co145 2.135 . S
Co154 O155 2.216 . S
Co154 O156 2.091 . S
Co154 O158 2.004 . S
Co154 O164 2.021 . S
Co154 O166 2.137 . S
Co154 O167 2.244 . S
O155 Co154 2.216 . S
O155 C162 1.247 . S
O156 Co154 2.091 . S
O156 C162 1.261 . S
C157 O166 1.247 . S
C157 O167 1.272 . S
O158 Co154 2.004 . S
O158 C163 1.259 . S
Co159 O160 2.061 . S
Co159 O165 2.052 . S
Co159 O167 2.135 . S
O160 Co159 2.061 . S
O160 C163 1.235 . S
C161 O164 1.238 . S
C161 O165 1.241 . S
C162 O155 1.247 . S
C162 O156 1.261 . S
C163 O158 1.259 . S
C163 O160 1.235 . S
O164 Co154 2.021 . S
O164 C161 1.238 . S
O165 Co159 2.052 . S
O165 C161 1.241 . S
O166 Co154 2.137 . S
O166 C157 1.247 . S
O167 Co154 2.244 . S
O167 C157 1.272 . S
O167 Co159 2.135 . S
Co168 O169 2.216 . S
Co168 O170 2.091 . S
Co168 O172 2.004 . S
Co168 O178 2.021 . S
Co168 O180 2.137 . S
Co168 O181 2.244 . S
O169 Co168 2.216 . S
O169 C176 1.247 . S
O170 Co168 2.091 . S
O170 C176 1.261 . S
C171 O180 1.247 . S
C171 O181 1.272 . S
O172 Co168 2.004 . S
O172 C177 1.259 . S
Co173 O174 2.061 . S
Co173 O179 2.052 . S
Co173 O181 2.135 . S
O174 Co173 2.061 . S
O174 C177 1.235 . S
C175 O178 1.238 . S
C175 O179 1.241 . S
C176 O169 1.247 . S
C176 O170 1.261 . S
C177 O172 1.259 . S
C177 O174 1.235 . S
O178 Co168 2.021 . S
O178 C175 1.238 . S
O179 Co173 2.052 . S
O179 C175 1.241 . S
O180 Co168 2.137 . S
O180 C171 1.247 . S
O181 Co168 2.244 . S
O181 C171 1.272 . S
O181 Co173 2.135 . S
Co182 O183 2.216 . S
Co182 O184 2.091 . S
Co182 O186 2.004 . S
Co182 O192 2.021 . S
Co182 O194 2.137 . S
Co182 O195 2.244 . S
O183 Co182 2.216 . S
O183 C190 1.247 . S
O184 Co182 2.091 . S
O184 C190 1.261 . S
C185 O194 1.247 . S
C185 O195 1.272 . S
O186 Co182 2.004 . S
O186 C191 1.259 . S
Co187 O188 2.061 . S
Co187 O193 2.052 . S
Co187 O195 2.135 . S
O188 Co187 2.061 . S
O188 C191 1.235 . S
C189 O192 1.238 . S
C189 O193 1.241 . S
C190 O183 1.247 . S
C190 O184 1.261 . S
C191 O186 1.259 . S
C191 O188 1.235 . S
O192 Co182 2.021 . S
O192 C189 1.238 . S
O193 Co187 2.052 . S
O193 C189 1.241 . S
O194 Co182 2.137 . S
O194 C185 1.247 . S
O195 Co182 2.244 . S
O195 C185 1.272 . S
O195 Co187 2.135 . S
Co196 O197 2.216 . S
Co196 O198 2.091 . S
Co196 O200 2.004 . S
Co196 O206 2.021 . S
Co196 O208 2.137 . S
Co196 O209 2.244 . S
O197 Co196 2.216 . S
O197 C204 1.247 . S
O198 Co196 2.091 . S
O198 C204 1.261 . S
C199 O208 1.247 . S
C199 O209 1.272 . S
O200 Co196 2.004 . S
O200 C205 1.259 . S
Co201 O202 2.061 . S
Co201 O207 2.052 . S
Co201 O209 2.135 . S
O202 Co201 2.061 . S
O202 C205 1.235 . S
C203 O206 1.238 . S
C203 O207 1.241 . S
C204 O197 1.247 . S
C204 O198 1.261 . S
C205 O200 1.259 . S
C205 O202 1.235 . S
O206 Co196 2.021 . S
O206 C203 1.238 . S
O207 Co201 2.052 . S
O207 C203 1.241 . S
O208 Co196 2.137 . S
O208 C199 1.247 . S
O209 Co196 2.244 . S
O209 C199 1.272 . S
O209 Co201 2.135 . S
Co210 O211 2.216 . S
Co210 O212 2.091 . S
Co210 O214 2.004 . S
Co210 O220 2.021 . S
Co210 O222 2.137 . S
Co210 O223 2.244 . S
O211 Co210 2.216 . S
O211 C218 1.247 . S
O212 Co210 2.091 . S
O212 C218 1.261 . S
C213 O222 1.247 . S
C213 O223 1.272 . S
O214 Co210 2.004 . S
O214 C219 1.259 . S
Co215 O216 2.061 . S
Co215 O221 2.052 . S
Co215 O223 2.135 . S
O216 Co215 2.061 . S
O216 C219 1.235 . S
C217 O220 1.238 . S
C217 O221 1.241 . S
C218 O211 1.247 . S
C218 O212 1.261 . S
C219 O214 1.259 . S
C219 O216 1.235 . S
O220 Co210 2.021 . S
O220 C217 1.238 . S
O221 Co215 2.052 . S
O221 C217 1.241 . S
O222 Co210 2.137 . S
O222 C213 1.247 . S
O223 Co210 2.244 . S
O223 C213 1.272 . S
O223 Co215 2.135 . S
Co224 O225 2.216 . S
Co224 O226 2.091 . S
Co224 O228 2.004 . S
Co224 O234 2.021 . S
Co224 O236 2.137 . S
Co224 O237 2.244 . S
O225 Co224 2.216 . S
O225 C232 1.247 . S
O226 Co224 2.091 . S
O226 C232 1.261 . S
C227 O236 1.247 . S
C227 O237 1.272 . S
O228 Co224 2.004 . S
O228 C233 1.259 . S
Co229 O230 2.061 . S
Co229 O235 2.052 . S
Co229 O237 2.135 . S
O230 Co229 2.061 . S
O230 C233 1.235 . S
C231 O234 1.238 . S
C231 O235 1.241 . S
C232 O225 1.247 . S
C232 O226 1.261 . S
C233 O228 1.259 . S
C233 O230 1.235 . S
O234 Co224 2.021 . S
O234 C231 1.238 . S
O235 Co229 2.052 . S
O235 C231 1.241 . S
O236 Co224 2.137 . S
O236 C227 1.247 . S
O237 Co224 2.244 . S
O237 C227 1.272 . S
O237 Co229 2.135 . S
Co238 O239 2.216 . S
Co238 O240 2.091 . S
Co238 O242 2.004 . S
Co238 O248 2.021 . S
Co238 O250 2.137 . S
Co238 O251 2.244 . S
O239 Co238 2.216 . S
O239 C246 1.247 . S
O240 Co238 2.091 . S
O240 C246 1.261 . S
C241 O250 1.247 . S
C241 O251 1.272 . S
O242 Co238 2.004 . S
O242 C247 1.259 . S
Co243 O244 2.061 . S
Co243 O249 2.052 . S
Co243 O251 2.135 . S
O244 Co243 2.061 . S
O244 C247 1.235 . S
C245 O248 1.238 . S
C245 O249 1.241 . S
C246 O239 1.247 . S
C246 O240 1.261 . S
C247 O242 1.259 . S
C247 O244 1.235 . S
O248 Co238 2.021 . S
O248 C245 1.238 . S
O249 Co243 2.052 . S
O249 C245 1.241 . S
O250 Co238 2.137 . S
O250 C241 1.247 . S
O251 Co238 2.244 . S
O251 C241 1.272 . S
O251 Co243 2.135 . S
Co252 O253 2.216 . S
Co252 O254 2.091 . S
Co252 O256 2.004 . S
Co252 O262 2.021 . S
Co252 O264 2.137 . S
Co252 O265 2.244 . S
O253 Co252 2.216 . S
O253 C260 1.247 . S
O254 Co252 2.091 . S
O254 C260 1.261 . S
C255 O264 1.247 . S
C255 O265 1.272 . S
O256 Co252 2.004 . S
O256 C261 1.259 . S
Co257 O258 2.061 . S
Co257 O263 2.052 . S
Co257 O265 2.135 . S
O258 Co257 2.061 . S
O258 C261 1.235 . S
C259 O262 1.238 . S
C259 O263 1.241 . S
C260 O253 1.247 . S
C260 O254 1.261 . S
C261 O256 1.259 . S
C261 O258 1.235 . S
O262 Co252 2.021 . S
O262 C259 1.238 . S
O263 Co257 2.052 . S
O263 C259 1.241 . S
O264 Co252 2.137 . S
O264 C255 1.247 . S
O265 Co252 2.244 . S
O265 C255 1.272 . S
O265 Co257 2.135 . S
Co266 O267 2.216 . S
Co266 O268 2.091 . S
Co266 O270 2.004 . S
Co266 O276 2.021 . S
Co266 O278 2.137 . S
Co266 O279 2.244 . S
O267 Co266 2.216 . S
O267 C274 1.247 . S
O268 Co266 2.091 . S
O268 C274 1.261 . S
C269 O278 1.247 . S
C269 O279 1.272 . S
O270 Co266 2.004 . S
O270 C275 1.259 . S
Co271 O272 2.061 . S
Co271 O277 2.052 . S
Co271 O279 2.135 . S
O272 Co271 2.061 . S
O272 C275 1.235 . S
C273 O276 1.238 . S
C273 O277 1.241 . S
C274 O267 1.247 . S
C274 O268 1.261 . S
C275 O270 1.259 . S
C275 O272 1.235 . S
O276 Co266 2.021 . S
O276 C273 1.238 . S
O277 Co271 2.052 . S
O277 C273 1.241 . S
O278 Co266 2.137 . S
O278 C269 1.247 . S
O279 Co266 2.244 . S
O279 C269 1.272 . S
O279 Co271 2.135 . S
Co280 O281 2.216 . S
Co280 O282 2.091 . S
Co280 O284 2.004 . S
Co280 O290 2.021 . S
Co280 O292 2.137 . S
Co280 O293 2.244 . S
O281 Co280 2.216 . S
O281 C288 1.247 . S
O282 Co280 2.091 . S
O282 C288 1.261 . S
C283 O292 1.247 . S
C283 O293 1.272 . S
O284 Co280 2.004 . S
O284 C289 1.259 . S
Co285 O286 2.061 . S
Co285 O291 2.052 . S
Co285 O293 2.135 . S
O286 Co285 2.061 . S
O286 C289 1.235 . S
C287 O290 1.238 . S
C287 O291 1.241 . S
C288 O281 1.247 . S
C288 O282 1.261 . S
C289 O284 1.259 . S
C289 O286 1.235 . S
O290 Co280 2.021 . S
O290 C287 1.238 . S
O291 Co285 2.052 . S
O291 C287 1.241 . S
O292 Co280 2.137 . S
O292 C283 1.247 . S
O293 Co280 2.244 . S
O293 C283 1.272 . S
O293 Co285 2.135 . S
Co294 O295 2.216 . S
Co294 O296 2.091 . S
Co294 O298 2.004 . S
Co294 O304 2.021 . S
Co294 O306 2.137 . S
Co294 O307 2.244 . S
O295 Co294 2.216 . S
O295 C302 1.247 . S
O296 Co294 2.091 . S
O296 C302 1.261 . S
C297 O306 1.247 . S
C297 O307 1.272 . S
O298 Co294 2.004 . S
O298 C303 1.259 . S
Co299 O300 2.061 . S
Co299 O305 2.052 . S
Co299 O307 2.135 . S
O300 Co299 2.061 . S
O300 C303 1.235 . S
C301 O304 1.238 . S
C301 O305 1.241 . S
C302 O295 1.247 . S
C302 O296 1.261 . S
C303 O298 1.259 . S
C303 O300 1.235 . S
O304 Co294 2.021 . S
O304 C301 1.238 . S
O305 Co299 2.052 . S
O305 C301 1.241 . S
O306 Co294 2.137 . S
O306 C297 1.247 . S
O307 Co294 2.244 . S
O307 C297 1.272 . S
O307 Co299 2.135 . S
Co308 O309 2.216 . S
Co308 O310 2.091 . S
Co308 O312 2.004 . S
Co308 O318 2.021 . S
Co308 O320 2.137 . S
Co308 O321 2.244 . S
O309 Co308 2.216 . S
O309 C316 1.247 . S
O310 Co308 2.091 . S
O310 C316 1.261 . S
C311 O320 1.247 . S
C311 O321 1.272 . S
O312 Co308 2.004 . S
O312 C317 1.259 . S
Co313 O314 2.061 . S
Co313 O319 2.052 . S
Co313 O321 2.135 . S
O314 Co313 2.061 . S
O314 C317 1.235 . S
C315 O318 1.238 . S
C315 O319 1.241 . S
C316 O309 1.247 . S
C316 O310 1.261 . S
C317 O312 1.259 . S
C317 O314 1.235 . S
O318 Co308 2.021 . S
O318 C315 1.238 . S
O319 Co313 2.052 . S
O319 C315 1.241 . S
O320 Co308 2.137 . S
O320 C311 1.247 . S
O321 Co308 2.244 . S
O321 C311 1.272 . S
O321 Co313 2.135 . S
Co322 O323 2.216 . S
Co322 O324 2.091 . S
Co322 O326 2.004 . S
Co322 O332 2.021 . S
Co322 O334 2.137 . S
Co322 O335 2.244 . S
O323 Co322 2.216 . S
O323 C330 1.247 . S
O324 Co322 2.091 . S
O324 C330 1.261 . S
C325 O334 1.247 . S
C325 O335 1.272 . S
O326 Co322 2.004 . S
O326 C331 1.259 . S
Co327 O328 2.061 . S
Co327 O333 2.052 . S
Co327 O335 2.135 . S
O328 Co327 2.061 . S
O328 C331 1.235 . S
C329 O332 1.238 . S
C329 O333 1.241 . S
C330 O323 1.247 . S
C330 O324 1.261 . S
C331 O326 1.259 . S
C331 O328 1.235 . S
O332 Co322 2.021 . S
O332 C329 1.238 . S
O333 Co327 2.052 . S
O333 C329 1.241 . S
O334 Co322 2.137 . S
O334 C325 1.247 . S
O335 Co322 2.244 . S
O335 C325 1.272 . S
O335 Co327 2.135 . S
Co336 O337 2.216 . S
Co336 O338 2.091 . S
Co336 O340 2.004 . S
Co336 O346 2.021 . S
Co336 O348 2.137 . S
Co336 O349 2.244 . S
O337 Co336 2.216 . S
O337 C344 1.247 . S
O338 Co336 2.091 . S
O338 C344 1.261 . S
C339 O348 1.247 . S
C339 O349 1.272 . S
O340 Co336 2.004 . S
O340 C345 1.259 . S
Co341 O342 2.061 . S
Co341 O347 2.052 . S
Co341 O349 2.135 . S
O342 Co341 2.061 . S
O342 C345 1.235 . S
C343 O346 1.238 . S
C343 O347 1.241 . S
C344 O337 1.247 . S
C344 O338 1.261 . S
C345 O340 1.259 . S
C345 O342 1.235 . S
O346 Co336 2.021 . S
O346 C343 1.238 . S
O347 Co341 2.052 . S
O347 C343 1.241 . S
O348 Co336 2.137 . S
O348 C339 1.247 . S
O349 Co336 2.244 . S
O349 C339 1.272 . S
O349 Co341 2.135 . S
Co350 O351 2.216 . S
Co350 O352 2.091 . S
Co350 O354 2.004 . S
Co350 O360 2.021 . S
Co350 O362 2.137 . S
Co350 O363 2.244 . S
O351 Co350 2.216 . S
O351 C358 1.247 . S
O352 Co350 2.091 . S
O352 C358 1.261 . S
C353 O362 1.247 . S
C353 O363 1.272 . S
O354 Co350 2.004 . S
O354 C359 1.259 . S
Co355 O356 2.061 . S
Co355 O361 2.052 . S
Co355 O363 2.135 . S
O356 Co355 2.061 . S
O356 C359 1.235 . S
C357 O360 1.238 . S
C357 O361 1.241 . S
C358 O351 1.247 . S
C358 O352 1.261 . S
C359 O354 1.259 . S
C359 O356 1.235 . S
O360 Co350 2.021 . S
O360 C357 1.238 . S
O361 Co355 2.052 . S
O361 C357 1.241 . S
O362 Co350 2.137 . S
O362 C353 1.247 . S
O363 Co350 2.244 . S
O363 C353 1.272 . S
O363 Co355 2.135 . S
Co364 O365 2.216 . S
Co364 O366 2.091 . S
Co364 O368 2.004 . S
Co364 O374 2.021 . S
Co364 O376 2.137 . S
Co364 O377 2.244 . S
O365 Co364 2.216 . S
O365 C372 1.247 . S
O366 Co364 2.091 . S
O366 C372 1.261 . S
C367 O376 1.247 . S
C367 O377 1.272 . S
O368 Co364 2.004 . S
O368 C373 1.259 . S
Co369 O370 2.061 . S
Co369 O375 2.052 . S
Co369 O377 2.135 . S
O370 Co369 2.061 . S
O370 C373 1.235 . S
C371 O374 1.238 . S
C371 O375 1.241 . S
C372 O365 1.247 . S
C372 O366 1.261 . S
C373 O368 1.259 . S
C373 O370 1.235 . S
O374 Co364 2.021 . S
O374 C371 1.238 . S
O375 Co369 2.052 . S
O375 C371 1.241 . S
O376 Co364 2.137 . S
O376 C367 1.247 . S
O377 Co364 2.244 . S
O377 C367 1.272 . S
O377 Co369 2.135 . S
Co378 O379 2.216 . S
Co378 O380 2.091 . S
Co378 O382 2.004 . S
Co378 O388 2.021 . S
Co378 O390 2.137 . S
Co378 O391 2.244 . S
O379 Co378 2.216 . S
O379 C386 1.247 . S
O380 Co378 2.091 . S
O380 C386 1.261 . S
C381 O390 1.247 . S
C381 O391 1.272 . S
O382 Co378 2.004 . S
O382 C387 1.259 . S
Co383 O384 2.061 . S
Co383 O389 2.052 . S
Co383 O391 2.135 . S
O384 Co383 2.061 . S
O384 C387 1.235 . S
C385 O388 1.238 . S
C385 O389 1.241 . S
C386 O379 1.247 . S
C386 O380 1.261 . S
C387 O382 1.259 . S
C387 O384 1.235 . S
O388 Co378 2.021 . S
O388 C385 1.238 . S
O389 Co383 2.052 . S
O389 C385 1.241 . S
O390 Co378 2.137 . S
O390 C381 1.247 . S
O391 Co378 2.244 . S
O391 C381 1.272 . S
O391 Co383 2.135 . S
Co392 O393 2.216 . S
Co392 O394 2.091 . S
Co392 O396 2.004 . S
Co392 O402 2.021 . S
Co392 O404 2.137 . S
Co392 O405 2.244 . S
O393 Co392 2.216 . S
O393 C400 1.247 . S
O394 Co392 2.091 . S
O394 C400 1.261 . S
C395 O404 1.247 . S
C395 O405 1.272 . S
O396 Co392 2.004 . S
O396 C401 1.259 . S
Co397 O398 2.061 . S
Co397 O403 2.052 . S
Co397 O405 2.135 . S
O398 Co397 2.061 . S
O398 C401 1.235 . S
C399 O402 1.238 . S
C399 O403 1.241 . S
C400 O393 1.247 . S
C400 O394 1.261 . S
C401 O396 1.259 . S
C401 O398 1.235 . S
O402 Co392 2.021 . S
O402 C399 1.238 . S
O403 Co397 2.052 . S
O403 C399 1.241 . S
O404 Co392 2.137 . S
O404 C395 1.247 . S
O405 Co392 2.244 . S
O405 C395 1.272 . S
O405 Co397 2.135 . S
Co406 O407 2.216 . S
Co406 O408 2.091 . S
Co406 O410 2.004 . S
Co406 O416 2.021 . S
Co406 O418 2.137 . S
Co406 O419 2.244 . S
O407 Co406 2.216 . S
O407 C414 1.247 . S
O408 Co406 2.091 . S
O408 C414 1.261 . S
C409 O418 1.247 . S
C409 O419 1.272 . S
O410 Co406 2.004 . S
O410 C415 1.259 . S
Co411 O412 2.061 . S
Co411 O417 2.052 . S
Co411 O419 2.135 . S
O412 Co411 2.061 . S
O412 C415 1.235 . S
C413 O416 1.238 . S
C413 O417 1.241 . S
C414 O407 1.247 . S
C414 O408 1.261 . S
C415 O410 1.259 . S
C415 O412 1.235 . S
O416 Co406 2.021 . S
O416 C413 1.238 . S
O417 Co411 2.052 . S
O417 C413 1.241 . S
O418 Co406 2.137 . S
O418 C409 1.247 . S
O419 Co406 2.244 . S
O419 C409 1.272 . S
O419 Co411 2.135 . S
Co420 O421 2.216 . S
Co420 O422 2.091 . S
Co420 O424 2.004 . S
Co420 O430 2.021 . S
Co420 O432 2.137 . S
Co420 O433 2.244 . S
O421 Co420 2.216 . S
O421 C428 1.247 . S
O422 Co420 2.091 . S
O422 C428 1.261 . S
C423 O432 1.247 . S
C423 O433 1.272 . S
O424 Co420 2.004 . S
O424 C429 1.259 . S
Co425 O426 2.061 . S
Co425 O431 2.052 . S
Co425 O433 2.135 . S
O426 Co425 2.061 . S
O426 C429 1.235 . S
C427 O430 1.238 . S
C427 O431 1.241 . S
C428 O421 1.247 . S
C428 O422 1.261 . S
C429 O424 1.259 . S
C429 O426 1.235 . S
O430 Co420 2.021 . S
O430 C427 1.238 . S
O431 Co425 2.052 . S
O431 C427 1.241 . S
O432 Co420 2.137 . S
O432 C423 1.247 . S
O433 Co420 2.244 . S
O433 C423 1.272 . S
O433 Co425 2.135 . S
Co434 O435 2.216 . S
Co434 O436 2.091 . S
Co434 O438 2.004 . S
Co434 O444 2.021 . S
Co434 O446 2.137 . S
Co434 O447 2.244 . S
O435 Co434 2.216 . S
O435 C442 1.247 . S
O436 Co434 2.091 . S
O436 C442 1.261 . S
C437 O446 1.247 . S
C437 O447 1.272 . S
O438 Co434 2.004 . S
O438 C443 1.259 . S
Co439 O440 2.061 . S
Co439 O445 2.052 . S
Co439 O447 2.135 . S
O440 Co439 2.061 . S
O440 C443 1.235 . S
C441 O444 1.238 . S
C441 O445 1.241 . S
C442 O435 1.247 . S
C442 O436 1.261 . S
C443 O438 1.259 . S
C443 O440 1.235 . S
O444 Co434 2.021 . S
O444 C441 1.238 . S
O445 Co439 2.052 . S
O445 C441 1.241 . S
O446 Co434 2.137 . S
O446 C437 1.247 . S
O447 Co434 2.244 . S
O447 C437 1.272 . S
O447 Co439 2.135 . S
Co448 O449 2.216 . S
Co448 O450 2.091 . S
Co448 O452 2.004 . S
Co448 O458 2.021 . S
Co448 O460 2.137 . S
Co448 O461 2.244 . S
O449 Co448 2.216 . S
O449 C456 1.247 . S
O450 Co448 2.091 . S
O450 C456 1.261 . S
C451 O460 1.247 . S
C451 O461 1.272 . S
O452 Co448 2.004 . S
O452 C457 1.259 . S
Co453 O454 2.061 . S
Co453 O459 2.052 . S
Co453 O461 2.135 . S
O454 Co453 2.061 . S
O454 C457 1.235 . S
C455 O458 1.238 . S
C455 O459 1.241 . S
C456 O449 1.247 . S
C456 O450 1.261 . S
C457 O452 1.259 . S
C457 O454 1.235 . S
O458 Co448 2.021 . S
O458 C455 1.238 . S
O459 Co453 2.052 . S
O459 C455 1.241 . S
O460 Co448 2.137 . S
O460 C451 1.247 . S
O461 Co448 2.244 . S
O461 C451 1.272 . S
O461 Co453 2.135 . S
Co462 O463 2.216 . S
Co462 O464 2.091 . S
Co462 O466 2.004 . S
Co462 O472 2.021 . S
Co462 O474 2.137 . S
Co462 O475 2.244 . S
O463 Co462 2.216 . S
O463 C470 1.247 . S
O464 Co462 2.091 . S
O464 C470 1.261 . S
C465 O474 1.247 . S
C465 O475 1.272 . S
O466 Co462 2.004 . S
O466 C471 1.259 . S
Co467 O468 2.061 . S
Co467 O473 2.052 . S
Co467 O475 2.135 . S
O468 Co467 2.061 . S
O468 C471 1.235 . S
C469 O472 1.238 . S
C469 O473 1.241 . S
C470 O463 1.247 . S
C470 O464 1.261 . S
C471 O466 1.259 . S
C471 O468 1.235 . S
O472 Co462 2.021 . S
O472 C469 1.238 . S
O473 Co467 2.052 . S
O473 C469 1.241 . S
O474 Co462 2.137 . S
O474 C465 1.247 . S
O475 Co462 2.244 . S
O475 C465 1.272 . S
O475 Co467 2.135 . S
Co476 O477 2.216 . S
Co476 O478 2.091 . S
Co476 O480 2.004 . S
Co476 O486 2.021 . S
Co476 O488 2.137 . S
Co476 O489 2.244 . S
O477 Co476 2.216 . S
O477 C484 1.247 . S
O478 Co476 2.091 . S
O478 C484 1.261 . S
C479 O488 1.247 . S
C479 O489 1.272 . S
O480 Co476 2.004 . S
O480 C485 1.259 . S
Co481 O482 2.061 . S
Co481 O487 2.052 . S
Co481 O489 2.135 . S
O482 Co481 2.061 . S
O482 C485 1.235 . S
C483 O486 1.238 . S
C483 O487 1.241 . S
C484 O477 1.247 . S
C484 O478 1.261 . S
C485 O480 1.259 . S
C485 O482 1.235 . S
O486 Co476 2.021 . S
O486 C483 1.238 . S
O487 Co481 2.052 . S
O487 C483 1.241 . S
O488 Co476 2.137 . S
O488 C479 1.247 . S
O489 Co476 2.244 . S
O489 C479 1.272 . S
O489 Co481 2.135 . S
Co490 O491 2.216 . S
Co490 O492 2.091 . S
Co490 O494 2.004 . S
Co490 O500 2.021 . S
Co490 O502 2.137 . S
Co490 O503 2.244 . S
O491 Co490 2.216 . S
O491 C498 1.247 . S
O492 Co490 2.091 . S
O492 C498 1.261 . S
C493 O502 1.247 . S
C493 O503 1.272 . S
O494 Co490 2.004 . S
O494 C499 1.259 . S
Co495 O496 2.061 . S
Co495 O501 2.052 . S
Co495 O503 2.135 . S
O496 Co495 2.061 . S
O496 C499 1.235 . S
C497 O500 1.238 . S
C497 O501 1.241 . S
C498 O491 1.247 . S
C498 O492 1.261 . S
C499 O494 1.259 . S
C499 O496 1.235 . S
O500 Co490 2.021 . S
O500 C497 1.238 . S
O501 Co495 2.052 . S
O501 C497 1.241 . S
O502 Co490 2.137 . S
O502 C493 1.247 . S
O503 Co490 2.244 . S
O503 C493 1.272 . S
O503 Co495 2.135 . S
Co504 O505 2.216 . S
Co504 O506 2.091 . S
Co504 O508 2.004 . S
Co504 O514 2.021 . S
Co504 O516 2.137 . S
Co504 O517 2.244 . S
O505 Co504 2.216 . S
O505 C512 1.247 . S
O506 Co504 2.091 . S
O506 C512 1.261 . S
C507 O516 1.247 . S
C507 O517 1.272 . S
O508 Co504 2.004 . S
O508 C513 1.259 . S
Co509 O510 2.061 . S
Co509 O515 2.052 . S
Co509 O517 2.135 . S
O510 Co509 2.061 . S
O510 C513 1.235 . S
C511 O514 1.238 . S
C511 O515 1.241 . S
C512 O505 1.247 . S
C512 O506 1.261 . S
C513 O508 1.259 . S
C513 O510 1.235 . S
O514 Co504 2.021 . S
O514 C511 1.238 . S
O515 Co509 2.052 . S
O515 C511 1.241 . S
O516 Co504 2.137 . S
O516 C507 1.247 . S
O517 Co504 2.244 . S
O517 C507 1.272 . S
O517 Co509 2.135 . S
Co518 O519 2.216 . S
Co518 O520 2.091 . S
Co518 O522 2.004 . S
Co518 O528 2.021 . S
Co518 O530 2.137 . S
Co518 O531 2.244 . S
O519 Co518 2.216 . S
O519 C526 1.247 . S
O520 Co518 2.091 . S
O520 C526 1.261 . S
C521 O530 1.247 . S
C521 O531 1.272 . S
O522 Co518 2.004 . S
O522 C527 1.259 . S
Co523 O524 2.061 . S
Co523 O529 2.052 . S
Co523 O531 2.135 . S
O524 Co523 2.061 . S
O524 C527 1.235 . S
C525 O528 1.238 . S
C525 O529 1.241 . S
C526 O519 1.247 . S
C526 O520 1.261 . S
C527 O522 1.259 . S
C527 O524 1.235 . S
O528 Co518 2.021 . S
O528 C525 1.238 . S
O529 Co523 2.052 . S
O529 C525 1.241 . S
O530 Co518 2.137 . S
O530 C521 1.247 . S
O531 Co518 2.244 . S
O531 C521 1.272 . S
O531 Co523 2.135 . S
Co532 O533 2.216 . S
Co532 O534 2.091 . S
Co532 O536 2.004 . S
Co532 O542 2.021 . S
Co532 O544 2.137 . S
Co532 O545 2.244 . S
O533 Co532 2.216 . S
O533 C540 1.247 . S
O534 Co532 2.091 . S
O534 C540 1.261 . S
C535 O544 1.247 . S
C535 O545 1.272 . S
O536 Co532 2.004 . S
O536 C541 1.259 . S
Co537 O538 2.061 . S
Co537 O543 2.052 . S
Co537 O545 2.135 . S
O538 Co537 2.061 . S
O538 C541 1.235 . S
C539 O542 1.238 . S
C539 O543 1.241 . S
C540 O533 1.247 . S
C540 O534 1.261 . S
C541 O536 1.259 . S
C541 O538 1.235 . S
O542 Co532 2.021 . S
O542 C539 1.238 . S
O543 Co537 2.052 . S
O543 C539 1.241 . S
O544 Co532 2.137 . S
O544 C535 1.247 . S
O545 Co532 2.244 . S
O545 C535 1.272 . S
O545 Co537 2.135 . S
Co546 O547 2.216 . S
Co546 O548 2.091 . S
Co546 O550 2.004 . S
Co546 O556 2.021 . S
Co546 O558 2.137 . S
Co546 O559 2.244 . S
O547 Co546 2.216 . S
O547 C554 1.247 . S
O548 Co546 2.091 . S
O548 C554 1.261 . S
C549 O558 1.247 . S
C549 O559 1.272 . S
O550 Co546 2.004 . S
O550 C555 1.259 . S
Co551 O552 2.061 . S
Co551 O557 2.052 . S
Co551 O559 2.135 . S
O552 Co551 2.061 . S
O552 C555 1.235 . S
C553 O556 1.238 . S
C553 O557 1.241 . S
C554 O547 1.247 . S
C554 O548 1.261 . S
C555 O550 1.259 . S
C555 O552 1.235 . S
O556 Co546 2.021 . S
O556 C553 1.238 . S
O557 Co551 2.052 . S
O557 C553 1.241 . S
O558 Co546 2.137 . S
O558 C549 1.247 . S
O559 Co546 2.244 . S
O559 C549 1.272 . S
O559 Co551 2.135 . S
Co560 O561 2.216 . S
Co560 O562 2.091 . S
Co560 O564 2.004 . S
Co560 O570 2.021 . S
Co560 O572 2.137 . S
Co560 O573 2.244 . S
O561 Co560 2.216 . S
O561 C568 1.247 . S
O562 Co560 2.091 . S
O562 C568 1.261 . S
C563 O572 1.247 . S
C563 O573 1.272 . S
O564 Co560 2.004 . S
O564 C569 1.259 . S
Co565 O566 2.061 . S
Co565 O571 2.052 . S
Co565 O573 2.135 . S
O566 Co565 2.061 . S
O566 C569 1.235 . S
C567 O570 1.238 . S
C567 O571 1.241 . S
C568 O561 1.247 . S
C568 O562 1.261 . S
C569 O564 1.259 . S
C569 O566 1.235 . S
O570 Co560 2.021 . S
O570 C567 1.238 . S
O571 Co565 2.052 . S
O571 C567 1.241 . S
O572 Co560 2.137 . S
O572 C563 1.247 . S
O573 Co560 2.244 . S
O573 C563 1.272 . S
O573 Co565 2.135 . S
Co574 O575 2.216 . S
Co574 O576 2.091 . S
Co574 O578 2.004 . S
Co574 O584 2.021 . S
Co574 O586 2.137 . S
Co574 O587 2.244 . S
O575 Co574 2.216 . S
O575 C582 1.247 . S
O576 Co574 2.091 . S
O576 C582 1.261 . S
C577 O586 1.247 . S
C577 O587 1.272 . S
O578 Co574 2.004 . S
O578 C583 1.259 . S
Co579 O580 2.061 . S
Co579 O585 2.052 . S
Co579 O587 2.135 . S
O580 Co579 2.061 . S
O580 C583 1.235 . S
C581 O584 1.238 . S
C581 O585 1.241 . S
C582 O575 1.247 . S
C582 O576 1.261 . S
C583 O578 1.259 . S
C583 O580 1.235 . S
O584 Co574 2.021 . S
O584 C581 1.238 . S
O585 Co579 2.052 . S
O585 C581 1.241 . S
O586 Co574 2.137 . S
O586 C577 1.247 . S
O587 Co574 2.244 . S
O587 C577 1.272 . S
O587 Co579 2.135 . S
Co588 O589 2.216 . S
Co588 O590 2.091 . S
Co588 O592 2.004 . S
Co588 O598 2.021 . S
Co588 O600 2.137 . S
Co588 O601 2.244 . S
O589 Co588 2.216 . S
O589 C596 1.247 . S
O590 Co588 2.091 . S
O590 C596 1.261 . S
C591 O600 1.247 . S
C591 O601 1.272 . S
O592 Co588 2.004 . S
O592 C597 1.259 . S
Co593 O594 2.061 . S
Co593 O599 2.052 . S
Co593 O601 2.135 . S
O594 Co593 2.061 . S
O594 C597 1.235 . S
C595 O598 1.238 . S
C595 O599 1.241 . S
C596 O589 1.247 . S
C596 O590 1.261 . S
C597 O592 1.259 . S
C597 O594 1.235 . S
O598 Co588 2.021 . S
O598 C595 1.238 . S
O599 Co593 2.052 . S
O599 C595 1.241 . S
O600 Co588 2.137 . S
O600 C591 1.247 . S
O601 Co588 2.244 . S
O601 C591 1.272 . S
O601 Co593 2.135 . S
Co602 O603 2.216 . S
Co602 O604 2.091 . S
Co602 O606 2.004 . S
Co602 O612 2.021 . S
Co602 O614 2.137 . S
Co602 O615 2.244 . S
O603 Co602 2.216 . S
O603 C610 1.247 . S
O604 Co602 2.091 . S
O604 C610 1.261 . S
C605 O614 1.247 . S
C605 O615 1.272 . S
O606 Co602 2.004 . S
O606 C611 1.259 . S
Co607 O608 2.061 . S
Co607 O613 2.052 . S
Co607 O615 2.135 . S
O608 Co607 2.061 . S
O608 C611 1.235 . S
C609 O612 1.238 . S
C609 O613 1.241 . S
C610 O603 1.247 . S
C610 O604 1.261 . S
C611 O606 1.259 . S
C611 O608 1.235 . S
O612 Co602 2.021 . S
O612 C609 1.238 . S
O613 Co607 2.052 . S
O613 C609 1.241 . S
O614 Co602 2.137 . S
O614 C605 1.247 . S
O615 Co602 2.244 . S
O615 C605 1.272 . S
O615 Co607 2.135 . S
Co616 O617 2.216 . S
Co616 O618 2.091 . S
Co616 O620 2.004 . S
Co616 O626 2.021 . S
Co616 O628 2.137 . S
Co616 O629 2.244 . S
O617 Co616 2.216 . S
O617 C624 1.247 . S
O618 Co616 2.091 . S
O618 C624 1.261 . S
C619 O628 1.247 . S
C619 O629 1.272 . S
O620 Co616 2.004 . S
O620 C625 1.259 . S
Co621 O622 2.061 . S
Co621 O627 2.052 . S
Co621 O629 2.135 . S
O622 Co621 2.061 . S
O622 C625 1.235 . S
C623 O626 1.238 . S
C623 O627 1.241 . S
C624 O617 1.247 . S
C624 O618 1.261 . S
C625 O620 1.259 . S
C625 O622 1.235 . S
O626 Co616 2.021 . S
O626 C623 1.238 . S
O627 Co621 2.052 . S
O627 C623 1.241 . S
O628 Co616 2.137 . S
O628 C619 1.247 . S
O629 Co616 2.244 . S
O629 C619 1.272 . S
O629 Co621 2.135 . S
Co630 O631 2.216 . S
Co630 O632 2.091 . S
Co630 O634 2.004 . S
Co630 O640 2.021 . S
Co630 O642 2.137 . S
Co630 O643 2.244 . S
O631 Co630 2.216 . S
O631 C638 1.247 . S
O632 Co630 2.091 . S
O632 C638 1.261 . S
C633 O642 1.247 . S
C633 O643 1.272 . S
O634 Co630 2.004 . S
O634 C639 1.259 . S
Co635 O636 2.061 . S
Co635 O641 2.052 . S
Co635 O643 2.135 . S
O636 Co635 2.061 . S
O636 C639 1.235 . S
C637 O640 1.238 . S
C637 O641 1.241 . S
C638 O631 1.247 . S
C638 O632 1.261 . S
C639 O634 1.259 . S
C639 O636 1.235 . S
O640 Co630 2.021 . S
O640 C637 1.238 . S
O641 Co635 2.052 . S
O641 C637 1.241 . S
O642 Co630 2.137 . S
O642 C633 1.247 . S
O643 Co630 2.244 . S
O643 C633 1.272 . S
O643 Co635 2.135 . S
Co644 O645 2.216 . S
Co644 O646 2.091 . S
Co644 O648 2.004 . S
Co644 O654 2.021 . S
Co644 O656 2.137 . S
Co644 O657 2.244 . S
O645 Co644 2.216 . S
O645 C652 1.247 . S
O646 Co644 2.091 . S
O646 C652 1.261 . S
C647 O656 1.247 . S
C647 O657 1.272 . S
O648 Co644 2.004 . S
O648 C653 1.259 . S
Co649 O650 2.061 . S
Co649 O655 2.052 . S
Co649 O657 2.135 . S
O650 Co649 2.061 . S
O650 C653 1.235 . S
C651 O654 1.238 . S
C651 O655 1.241 . S
C652 O645 1.247 . S
C652 O646 1.261 . S
C653 O648 1.259 . S
C653 O650 1.235 . S
O654 Co644 2.021 . S
O654 C651 1.238 . S
O655 Co649 2.052 . S
O655 C651 1.241 . S
O656 Co644 2.137 . S
O656 C647 1.247 . S
O657 Co644 2.244 . S
O657 C647 1.272 . S
O657 Co649 2.135 . S
Co658 O659 2.216 . S
Co658 O660 2.091 . S
Co658 O662 2.004 . S
Co658 O668 2.021 . S
Co658 O670 2.137 . S
Co658 O671 2.244 . S
O659 Co658 2.216 . S
O659 C666 1.247 . S
O660 Co658 2.091 . S
O660 C666 1.261 . S
C661 O670 1.247 . S
C661 O671 1.272 . S
O662 Co658 2.004 . S
O662 C667 1.259 . S
Co663 O664 2.061 . S
Co663 O669 2.052 . S
Co663 O671 2.135 . S
O664 Co663 2.061 . S
O664 C667 1.235 . S
C665 O668 1.238 . S
C665 O669 1.241 . S
C666 O659 1.247 . S
C666 O660 1.261 . S
C667 O662 1.259 . S
C667 O664 1.235 . S
O668 Co658 2.021 . S
O668 C665 1.238 . S
O669 Co663 2.052 . S
O669 C665 1.241 . S
O670 Co658 2.137 . S
O670 C661 1.247 . S
O671 Co658 2.244 . S
O671 C661 1.272 . S
O671 Co663 2.135 . S
C672 C673 1.369 . S
C672 C674 1.419 1_655 S
C672 H676 0.930 . S
C673 C672 1.369 . S
C673 C682 1.429 . S
C674 C672 1.419 1_455 S
C674 C675 1.363 . S
C674 H677 0.929 . S
C675 C674 1.363 . S
C675 C681 1.428 . S
H676 C672 0.930 . S
H677 C674 0.929 . S
S678 N679 1.616 1_455 S
S678 N680 1.607 . S
N679 S678 1.616 1_655 S
N679 C682 1.350 . S
N680 S678 1.607 . S
N680 C681 1.351 . S
C681 C675 1.428 . S
C681 N680 1.351 . S
C681 C682 1.434 1_455 S
C682 C673 1.429 . S
C682 N679 1.350 . S
C682 C681 1.434 1_655 S
C683 C684 1.369 . S
C683 C685 1.419 . S
C683 H687 0.930 . S
C684 C683 1.369 . S
C684 C693 1.429 . S
C685 C683 1.419 . S
C685 C686 1.363 . S
C685 H688 0.929 . S
C686 C685 1.363 . S
C686 C692 1.428 . S
H687 C683 0.930 . S
H688 C685 0.929 . S
S689 N690 1.613 . S
S689 N691 1.610 . S
N690 S689 1.613 . S
N690 C693 1.350 . S
N691 S689 1.610 . S
N691 C692 1.351 . S
C692 C686 1.428 . S
C692 N691 1.351 . S
C692 C693 1.434 . S
C693 C684 1.429 . S
C693 N690 1.350 . S
C693 C692 1.434 . S
C694 C695 1.369 . S
C694 C696 1.419 1_455 S
C694 H698 0.930 . S
C695 C694 1.369 . S
C695 C704 1.429 . S
C696 C694 1.419 1_655 S
C696 C697 1.363 . S
C696 H699 0.929 . S
C697 C696 1.363 . S
C697 C703 1.428 . S
H698 C694 0.930 . S
H699 C696 0.929 . S
S700 N701 1.616 1_655 S
S700 N702 1.607 . S
N701 S700 1.616 1_455 S
N701 C704 1.350 . S
N702 S700 1.607 . S
N702 C703 1.351 . S
C703 C697 1.428 . S
C703 N702 1.351 . S
C703 C704 1.434 1_655 S
C704 C695 1.429 . S
C704 N701 1.350 . S
C704 C703 1.434 1_455 S
C705 C706 1.369 . S
C705 C707 1.419 . S
C705 H709 0.930 . S
C706 C705 1.369 . S
C706 C715 1.429 . S
C707 C705 1.419 . S
C707 C708 1.363 . S
C707 H710 0.929 . S
C708 C707 1.363 . S
C708 C714 1.428 . S
H709 C705 0.930 . S
H710 C707 0.929 . S
S711 N712 1.613 . S
S711 N713 1.610 . S
N712 S711 1.613 . S
N712 C715 1.350 . S
N713 S711 1.610 . S
N713 C714 1.351 . S
C714 C708 1.428 . S
C714 N713 1.351 . S
C714 C715 1.434 . S
C715 C706 1.429 . S
C715 N712 1.350 . S
C715 C714 1.434 . S
C716 C717 1.369 . S
C716 C718 1.419 1_655 S
C716 H720 0.930 . S
C717 C716 1.369 . S
C717 C726 1.429 . S
C718 C716 1.419 1_455 S
C718 C719 1.363 . S
C718 H721 0.929 . S
C719 C718 1.363 . S
C719 C725 1.428 . S
H720 C716 0.930 . S
H721 C718 0.929 . S
S722 N723 1.616 1_455 S
S722 N724 1.607 . S
N723 S722 1.616 1_655 S
N723 C726 1.350 . S
N724 S722 1.607 . S
N724 C725 1.351 . S
C725 C719 1.428 . S
C725 N724 1.351 . S
C725 C726 1.434 1_455 S
C726 C717 1.429 . S
C726 N723 1.350 . S
C726 C725 1.434 1_655 S
C727 C728 1.369 . S
C727 C729 1.419 . S
C727 H731 0.930 . S
C728 C727 1.369 . S
C728 C737 1.429 . S
C729 C727 1.419 . S
C729 C730 1.363 . S
C729 H732 0.929 . S
C730 C729 1.363 . S
C730 C736 1.428 . S
H731 C727 0.930 . S
H732 C729 0.929 . S
S733 N734 1.613 . S
S733 N735 1.610 . S
N734 S733 1.613 . S
N734 C737 1.350 . S
N735 S733 1.610 . S
N735 C736 1.351 . S
C736 C730 1.428 . S
C736 N735 1.351 . S
C736 C737 1.434 . S
C737 C728 1.429 . S
C737 N734 1.350 . S
C737 C736 1.434 . S
C738 C739 1.369 . S
C738 C740 1.419 1_455 S
C738 H742 0.930 . S
C739 C738 1.369 . S
C739 C748 1.429 . S
C740 C738 1.419 1_655 S
C740 C741 1.363 . S
C740 H743 0.929 . S
C741 C740 1.363 . S
C741 C747 1.428 . S
H742 C738 0.930 . S
H743 C740 0.929 . S
S744 N745 1.616 1_655 S
S744 N746 1.607 . S
N745 S744 1.616 1_455 S
N745 C748 1.350 . S
N746 S744 1.607 . S
N746 C747 1.351 . S
C747 C741 1.428 . S
C747 N746 1.351 . S
C747 C748 1.434 1_655 S
C748 C739 1.429 . S
C748 N745 1.350 . S
C748 C747 1.434 1_455 S
C749 C750 1.369 . S
C749 C751 1.419 . S
C749 H753 0.930 . S
C750 C749 1.369 . S
C750 C759 1.429 . S
C751 C749 1.419 . S
C751 C752 1.363 . S
C751 H754 0.929 . S
C752 C751 1.363 . S
C752 C758 1.428 . S
H753 C749 0.930 . S
H754 C751 0.929 . S
S755 N756 1.613 . S
S755 N757 1.610 . S
N756 S755 1.613 . S
N756 C759 1.350 . S
N757 S755 1.610 . S
N757 C758 1.351 . S
C758 C752 1.428 . S
C758 N757 1.351 . S
C758 C759 1.434 . S
C759 C750 1.429 . S
C759 N756 1.350 . S
C759 C758 1.434 . S
C760 C761 1.369 . S
C760 C762 1.419 1_565 S
C760 H764 0.930 . S
C761 C760 1.369 . S
C761 C770 1.429 . S
C762 C760 1.419 1_545 S
C762 C763 1.363 . S
C762 H765 0.929 . S
C763 C762 1.363 . S
C763 C769 1.428 . S
H764 C760 0.930 . S
H765 C762 0.929 . S
S766 N767 1.616 1_545 S
S766 N768 1.607 . S
N767 S766 1.616 1_565 S
N767 C770 1.350 . S
N768 S766 1.607 . S
N768 C769 1.351 . S
C769 C763 1.428 . S
C769 N768 1.351 . S
C769 C770 1.434 1_545 S
C770 C761 1.429 . S
C770 N767 1.350 . S
C770 C769 1.434 1_565 S
C771 C772 1.369 . S
C771 C773 1.419 . S
C771 H775 0.930 . S
C772 C771 1.369 . S
C772 C781 1.429 . S
C773 C771 1.419 . S
C773 C774 1.363 . S
C773 H776 0.929 . S
C774 C773 1.363 . S
C774 C780 1.428 . S
H775 C771 0.930 . S
H776 C773 0.929 . S
S777 N778 1.613 . S
S777 N779 1.610 . S
N778 S777 1.613 . S
N778 C781 1.350 . S
N779 S777 1.610 . S
N779 C780 1.351 . S
C780 C774 1.428 . S
C780 N779 1.351 . S
C780 C781 1.434 . S
C781 C772 1.429 . S
C781 N778 1.350 . S
C781 C780 1.434 . S
C782 C783 1.369 . S
C782 C784 1.419 1_545 S
C782 H786 0.930 . S
C783 C782 1.369 . S
C783 C792 1.429 . S
C784 C782 1.419 1_565 S
C784 C785 1.363 . S
C784 H787 0.929 . S
C785 C784 1.363 . S
C785 C791 1.428 . S
H786 C782 0.930 . S
H787 C784 0.929 . S
S788 N789 1.616 1_565 S
S788 N790 1.607 . S
N789 S788 1.616 1_545 S
N789 C792 1.350 . S
N790 S788 1.607 . S
N790 C791 1.351 . S
C791 C785 1.428 . S
C791 N790 1.351 . S
C791 C792 1.434 1_565 S
C792 C783 1.429 . S
C792 N789 1.350 . S
C792 C791 1.434 1_545 S
C793 C794 1.369 . S
C793 C795 1.419 . S
C793 H797 0.930 . S
C794 C793 1.369 . S
C794 C803 1.429 . S
C795 C793 1.419 . S
C795 C796 1.363 . S
C795 H798 0.929 . S
C796 C795 1.363 . S
C796 C802 1.428 . S
H797 C793 0.930 . S
H798 C795 0.929 . S
S799 N800 1.613 . S
S799 N801 1.610 . S
N800 S799 1.613 . S
N800 C803 1.350 . S
N801 S799 1.610 . S
N801 C802 1.351 . S
C802 C796 1.428 . S
C802 N801 1.351 . S
C802 C803 1.434 . S
C803 C794 1.429 . S
C803 N800 1.350 . S
C803 C802 1.434 . S
C804 C805 1.369 . S
C804 C806 1.419 1_545 S
C804 H808 0.930 . S
C805 C804 1.369 . S
C805 C814 1.429 . S
C806 C804 1.419 1_565 S
C806 C807 1.363 . S
C806 H809 0.929 . S
C807 C806 1.363 . S
C807 C813 1.428 . S
H808 C804 0.930 . S
H809 C806 0.929 . S
S810 N811 1.616 1_565 S
S810 N812 1.607 . S
N811 S810 1.616 1_545 S
N811 C814 1.350 . S
N812 S810 1.607 . S
N812 C813 1.351 . S
C813 C807 1.428 . S
C813 N812 1.351 . S
C813 C814 1.434 1_565 S
C814 C805 1.429 . S
C814 N811 1.350 . S
C814 C813 1.434 1_545 S
C815 C816 1.369 . S
C815 C817 1.419 . S
C815 H819 0.930 . S
C816 C815 1.369 . S
C816 C825 1.429 . S
C817 C815 1.419 . S
C817 C818 1.363 . S
C817 H820 0.929 . S
C818 C817 1.363 . S
C818 C824 1.428 . S
H819 C815 0.930 . S
H820 C817 0.929 . S
S821 N822 1.613 . S
S821 N823 1.610 . S
N822 S821 1.613 . S
N822 C825 1.350 . S
N823 S821 1.610 . S
N823 C824 1.351 . S
C824 C818 1.428 . S
C824 N823 1.351 . S
C824 C825 1.434 . S
C825 C816 1.429 . S
C825 N822 1.350 . S
C825 C824 1.434 . S
C826 C827 1.369 . S
C826 C828 1.419 1_545 S
C826 H830 0.930 . S
C827 C826 1.369 . S
C827 C836 1.429 . S
C828 C826 1.419 1_565 S
C828 C829 1.363 . S
C828 H831 0.929 . S
C829 C828 1.363 . S
C829 C835 1.428 . S
H830 C826 0.930 . S
H831 C828 0.929 . S
S832 N833 1.616 1_565 S
S832 N834 1.607 . S
N833 S832 1.616 1_545 S
N833 C836 1.350 . S
N834 S832 1.607 . S
N834 C835 1.351 . S
C835 C829 1.428 . S
C835 N834 1.351 . S
C835 C836 1.434 1_565 S
C836 C827 1.429 . S
C836 N833 1.350 . S
C836 C835 1.434 1_545 S
C837 C838 1.369 . S
C837 C839 1.419 . S
C837 H841 0.930 . S
C838 C837 1.369 . S
C838 C847 1.429 . S
C839 C837 1.419 . S
C839 C840 1.363 . S
C839 H842 0.929 . S
C840 C839 1.363 . S
C840 C846 1.428 . S
H841 C837 0.930 . S
H842 C839 0.929 . S
S843 N844 1.613 . S
S843 N845 1.610 . S
N844 S843 1.613 . S
N844 C847 1.350 . S
N845 S843 1.610 . S
N845 C846 1.351 . S
C846 C840 1.428 . S
C846 N845 1.351 . S
C846 C847 1.434 . S
C847 C838 1.429 . S
C847 N844 1.350 . S
C847 C846 1.434 . S
C848 C849 1.369 . S
C848 C850 1.419 1_554 S
C848 H852 0.930 . S
C849 C848 1.369 . S
C849 C858 1.429 . S
C850 C848 1.419 1_556 S
C850 C851 1.363 . S
C850 H853 0.929 . S
C851 C850 1.363 . S
C851 C857 1.428 . S
H852 C848 0.930 . S
H853 C850 0.929 . S
S854 N855 1.616 1_556 S
S854 N856 1.607 . S
N855 S854 1.616 1_554 S
N855 C858 1.350 . S
N856 S854 1.607 . S
N856 C857 1.351 . S
C857 C851 1.428 . S
C857 N856 1.351 . S
C857 C858 1.434 1_556 S
C858 C849 1.429 . S
C858 N855 1.350 . S
C858 C857 1.434 1_554 S
C859 C860 1.369 . S
C859 C861 1.419 1_554 S
C859 H863 0.930 . S
C860 C859 1.369 . S
C860 C869 1.429 . S
C861 C859 1.419 1_556 S
C861 C862 1.363 . S
C861 H864 0.929 . S
C862 C861 1.363 . S
C862 C868 1.428 . S
H863 C859 0.930 . S
H864 C861 0.929 . S
S865 N866 1.616 1_556 S
S865 N867 1.607 . S
N866 S865 1.616 1_554 S
N866 C869 1.350 . S
N867 S865 1.607 . S
N867 C868 1.351 . S
C868 C862 1.428 . S
C868 N867 1.351 . S
C868 C869 1.434 1_556 S
C869 C860 1.429 . S
C869 N866 1.350 . S
C869 C868 1.434 1_554 S
C870 C871 1.369 . S
C870 C872 1.419 . S
C870 H874 0.930 . S
C871 C870 1.369 . S
C871 C880 1.429 . S
C872 C870 1.419 . S
C872 C873 1.363 . S
C872 H875 0.929 . S
C873 C872 1.363 . S
C873 C879 1.428 . S
H874 C870 0.930 . S
H875 C872 0.929 . S
S876 N877 1.613 . S
S876 N878 1.610 . S
N877 S876 1.613 . S
N877 C880 1.350 . S
N878 S876 1.610 . S
N878 C879 1.351 . S
C879 C873 1.428 . S
C879 N878 1.351 . S
C879 C880 1.434 . S
C880 C871 1.429 . S
C880 N877 1.350 . S
C880 C879 1.434 . S
C881 C882 1.369 . S
C881 C883 1.419 1_554 S
C881 H885 0.930 . S
C882 C881 1.369 . S
C882 C891 1.429 . S
C883 C881 1.419 1_556 S
C883 C884 1.363 . S
C883 H886 0.929 . S
C884 C883 1.363 . S
C884 C890 1.428 . S
H885 C881 0.930 . S
H886 C883 0.929 . S
S887 N888 1.616 1_556 S
S887 N889 1.607 . S
N888 S887 1.616 1_554 S
N888 C891 1.350 . S
N889 S887 1.607 . S
N889 C890 1.351 . S
C890 C884 1.428 . S
C890 N889 1.351 . S
C890 C891 1.434 1_556 S
C891 C882 1.429 . S
C891 N888 1.350 . S
C891 C890 1.434 1_554 S
C892 C893 1.369 . S
C892 C894 1.419 . S
C892 H896 0.930 . S
C893 C892 1.369 . S
C893 C902 1.429 . S
C894 C892 1.419 . S
C894 C895 1.363 . S
C894 H897 0.929 . S
C895 C894 1.363 . S
C895 C901 1.428 . S
H896 C892 0.930 . S
H897 C894 0.929 . S
S898 N899 1.613 . S
S898 N900 1.610 . S
N899 S898 1.613 . S
N899 C902 1.350 . S
N900 S898 1.610 . S
N900 C901 1.351 . S
C901 C895 1.428 . S
C901 N900 1.351 . S
C901 C902 1.434 . S
C902 C893 1.429 . S
C902 N899 1.350 . S
C902 C901 1.434 . S
C903 C904 1.369 . S
C903 C905 1.419 1_554 S
C903 H907 0.930 . S
C904 C903 1.369 . S
C904 C913 1.429 . S
C905 C903 1.419 1_556 S
C905 C906 1.363 . S
C905 H908 0.929 . S
C906 C905 1.363 . S
C906 C912 1.428 . S
H907 C903 0.930 . S
H908 C905 0.929 . S
S909 N910 1.616 1_556 S
S909 N911 1.607 . S
N910 S909 1.616 1_554 S
N910 C913 1.350 . S
N911 S909 1.607 . S
N911 C912 1.351 . S
C912 C906 1.428 . S
C912 N911 1.351 . S
C912 C913 1.434 1_556 S
C913 C904 1.429 . S
C913 N910 1.350 . S
C913 C912 1.434 1_554 S
C914 C915 1.369 . S
C914 C916 1.419 . S
C914 H918 0.930 . S
C915 C914 1.369 . S
C915 C924 1.429 . S
C916 C914 1.419 . S
C916 C917 1.363 . S
C916 H919 0.929 . S
C917 C916 1.363 . S
C917 C923 1.428 . S
H918 C914 0.930 . S
H919 C916 0.929 . S
S920 N921 1.613 . S
S920 N922 1.610 . S
N921 S920 1.613 . S
N921 C924 1.350 . S
N922 S920 1.610 . S
N922 C923 1.351 . S
C923 C917 1.428 . S
C923 N922 1.351 . S
C923 C924 1.434 . S
C924 C915 1.429 . S
C924 N921 1.350 . S
C924 C923 1.434 . S
C925 C926 1.369 . S
C925 C927 1.419 . S
C925 H929 0.930 . S
C926 C925 1.369 . S
C926 C935 1.429 . S
C927 C925 1.419 . S
C927 C928 1.363 . S
C927 H930 0.929 . S
C928 C927 1.363 . S
C928 C934 1.428 . S
H929 C925 0.930 . S
H930 C927 0.929 . S
S931 N932 1.613 . S
S931 N933 1.610 . S
N932 S931 1.613 . S
N932 C935 1.350 . S
N933 S931 1.610 . S
N933 C934 1.351 . S
C934 C928 1.428 . S
C934 N933 1.351 . S
C934 C935 1.434 . S
C935 C926 1.429 . S
C935 N932 1.350 . S
C935 C934 1.434 . S
C936 C937 1.369 . S
C936 C938 1.419 . S
C936 H940 0.930 . S
C937 C936 1.369 . S
C937 C946 1.429 . S
C938 C936 1.419 . S
C938 C939 1.363 . S
C938 H941 0.929 . S
C939 C938 1.363 . S
C939 C945 1.428 . S
H940 C936 0.930 . S
H941 C938 0.929 . S
S942 N943 1.613 . S
S942 N944 1.610 . S
N943 S942 1.613 . S
N943 C946 1.350 . S
N944 S942 1.610 . S
N944 C945 1.351 . S
C945 C939 1.428 . S
C945 N944 1.351 . S
C945 C946 1.434 . S
C946 C937 1.429 . S
C946 N943 1.350 . S
C946 C945 1.434 . S
C947 C948 1.369 . S
C947 C949 1.419 . S
C947 H951 0.930 . S
C948 C947 1.369 . S
C948 C957 1.429 . S
C949 C947 1.419 . S
C949 C950 1.363 . S
C949 H952 0.929 . S
C950 C949 1.363 . S
C950 C956 1.428 . S
H951 C947 0.930 . S
H952 C949 0.929 . S
S953 N954 1.613 . S
S953 N955 1.610 . S
N954 S953 1.613 . S
N954 C957 1.350 . S
N955 S953 1.610 . S
N955 C956 1.351 . S
C956 C950 1.428 . S
C956 N955 1.351 . S
C956 C957 1.434 . S
C957 C948 1.429 . S
C957 N954 1.350 . S
C957 C956 1.434 . S
C958 C959 1.369 . S
C958 C960 1.419 . S
C958 H962 0.930 . S
C959 C958 1.369 . S
C959 C968 1.429 . S
C960 C958 1.419 . S
C960 C961 1.363 . S
C960 H963 0.929 . S
C961 C960 1.363 . S
C961 C967 1.428 . S
H962 C958 0.930 . S
H963 C960 0.929 . S
S964 N965 1.613 . S
S964 N966 1.610 . S
N965 S964 1.613 . S
N965 C968 1.350 . S
N966 S964 1.610 . S
N966 C967 1.351 . S
C967 C961 1.428 . S
C967 N966 1.351 . S
C967 C968 1.434 . S
C968 C959 1.429 . S
C968 N965 1.350 . S
C968 C967 1.434 . S
C969 C970 1.369 . S
C969 C971 1.419 . S
C969 H973 0.930 . S
C970 C969 1.369 . S
C970 C979 1.429 . S
C971 C969 1.419 . S
C971 C972 1.363 . S
C971 H974 0.929 . S
C972 C971 1.363 . S
C972 C978 1.428 . S
H973 C969 0.930 . S
H974 C971 0.929 . S
S975 N976 1.613 . S
S975 N977 1.610 . S
N976 S975 1.613 . S
N976 C979 1.350 . S
N977 S975 1.610 . S
N977 C978 1.351 . S
C978 C972 1.428 . S
C978 N977 1.351 . S
C978 C979 1.434 . S
C979 C970 1.429 . S
C979 N976 1.350 . S
C979 C978 1.434 . S
C980 C981 1.369 . S
C980 C982 1.419 . S
C980 H984 0.930 . S
C981 C980 1.369 . S
C981 C990 1.429 . S
C982 C980 1.419 . S
C982 C983 1.363 . S
C982 H985 0.929 . S
C983 C982 1.363 . S
C983 C989 1.428 . S
H984 C980 0.930 . S
H985 C982 0.929 . S
S986 N987 1.613 . S
S986 N988 1.610 . S
N987 S986 1.613 . S
N987 C990 1.350 . S
N988 S986 1.610 . S
N988 C989 1.351 . S
C989 C983 1.428 . S
C989 N988 1.351 . S
C989 C990 1.434 . S
C990 C981 1.429 . S
C990 N987 1.350 . S
C990 C989 1.434 . S
C991 C992 1.369 . S
C991 C993 1.419 . S
C991 H995 0.930 . S
C992 C991 1.369 . S
C992 C1001 1.429 . S
C993 C991 1.419 . S
C993 C994 1.363 . S
C993 H996 0.929 . S
C994 C993 1.363 . S
C994 C1000 1.428 . S
H995 C991 0.930 . S
H996 C993 0.929 . S
S997 N998 1.613 . S
S997 N999 1.610 . S
N998 S997 1.613 . S
N998 C1001 1.350 . S
N999 S997 1.610 . S
N999 C1000 1.351 . S
C1000 C994 1.428 . S
C1000 N999 1.351 . S
C1000 C1001 1.434 . S
C1001 C992 1.429 . S
C1001 N998 1.350 . S
C1001 C1000 1.434 . S
C1002 C1003 1.369 . S
C1002 C1004 1.419 . S
C1002 H1006 0.930 . S
C1003 C1002 1.369 . S
C1003 C1012 1.429 . S
C1004 C1002 1.419 . S
C1004 C1005 1.363 . S
C1004 H1007 0.929 . S
C1005 C1004 1.363 . S
C1005 C1011 1.428 . S
H1006 C1002 0.930 . S
H1007 C1004 0.929 . S
S1008 N1009 1.613 . S
S1008 N1010 1.610 . S
N1009 S1008 1.613 . S
N1009 C1012 1.350 . S
N1010 S1008 1.610 . S
N1010 C1011 1.351 . S
C1011 C1005 1.428 . S
C1011 N1010 1.351 . S
C1011 C1012 1.434 . S
C1012 C1003 1.429 . S
C1012 N1009 1.350 . S
C1012 C1011 1.434 . S
C1013 C1014 1.369 . S
C1013 C1015 1.419 . S
C1013 H1017 0.930 . S
C1014 C1013 1.369 . S
C1014 C1023 1.429 . S
C1015 C1013 1.419 . S
C1015 C1016 1.363 . S
C1015 H1018 0.929 . S
C1016 C1015 1.363 . S
C1016 C1022 1.428 . S
H1017 C1013 0.930 . S
H1018 C1015 0.929 . S
S1019 N1020 1.613 . S
S1019 N1021 1.610 . S
N1020 S1019 1.613 . S
N1020 C1023 1.350 . S
N1021 S1019 1.610 . S
N1021 C1022 1.351 . S
C1022 C1016 1.428 . S
C1022 N1021 1.351 . S
C1022 C1023 1.434 . S
C1023 C1014 1.429 . S
C1023 N1020 1.350 . S
C1023 C1022 1.434 . S
C1024 C1025 1.369 . S
C1024 C1026 1.419 . S
C1024 H1028 0.930 . S
C1025 C1024 1.369 . S
C1025 C1034 1.429 . S
C1026 C1024 1.419 . S
C1026 C1027 1.363 . S
C1026 H1029 0.929 . S
C1027 C1026 1.363 . S
C1027 C1033 1.428 . S
H1028 C1024 0.930 . S
H1029 C1026 0.929 . S
S1030 N1031 1.613 . S
S1030 N1032 1.610 . S
N1031 S1030 1.613 . S
N1031 C1034 1.350 . S
N1032 S1030 1.610 . S
N1032 C1033 1.351 . S
C1033 C1027 1.428 . S
C1033 N1032 1.351 . S
C1033 C1034 1.434 . S
C1034 C1025 1.429 . S
C1034 N1031 1.350 . S
C1034 C1033 1.434 . S
C1035 C1036 1.369 . S
C1035 C1037 1.419 . S
C1035 H1039 0.930 . S
C1036 C1035 1.369 . S
C1036 C1045 1.429 . S
C1037 C1035 1.419 . S
C1037 C1038 1.363 . S
C1037 H1040 0.929 . S
C1038 C1037 1.363 . S
C1038 C1044 1.428 . S
H1039 C1035 0.930 . S
H1040 C1037 0.929 . S
S1041 N1042 1.613 . S
S1041 N1043 1.610 . S
N1042 S1041 1.613 . S
N1042 C1045 1.350 . S
N1043 S1041 1.610 . S
N1043 C1044 1.351 . S
C1044 C1038 1.428 . S
C1044 N1043 1.351 . S
C1044 C1045 1.434 . S
C1045 C1036 1.429 . S
C1045 N1042 1.350 . S
C1045 C1044 1.434 . S
C1046 C1047 1.369 . S
C1046 C1048 1.419 . S
C1046 H1050 0.930 . S
C1047 C1046 1.369 . S
C1047 C1056 1.429 . S
C1048 C1046 1.419 . S
C1048 C1049 1.363 . S
C1048 H1051 0.929 . S
C1049 C1048 1.363 . S
C1049 C1055 1.428 . S
H1050 C1046 0.930 . S
H1051 C1048 0.929 . S
S1052 N1053 1.613 . S
S1052 N1054 1.610 . S
N1053 S1052 1.613 . S
N1053 C1056 1.350 . S
N1054 S1052 1.610 . S
N1054 C1055 1.351 . S
C1055 C1049 1.428 . S
C1055 N1054 1.351 . S
C1055 C1056 1.434 . S
C1056 C1047 1.429 . S
C1056 N1053 1.350 . S
C1056 C1055 1.434 . S
C1057 C1058 1.369 . S
C1057 C1059 1.419 . S
C1057 H1061 0.930 . S
C1058 C1057 1.369 . S
C1058 C1067 1.429 . S
C1059 C1057 1.419 . S
C1059 C1060 1.363 . S
C1059 H1062 0.929 . S
C1060 C1059 1.363 . S
C1060 C1066 1.428 . S
H1061 C1057 0.930 . S
H1062 C1059 0.929 . S
S1063 N1064 1.613 . S
S1063 N1065 1.610 . S
N1064 S1063 1.613 . S
N1064 C1067 1.350 . S
N1065 S1063 1.610 . S
N1065 C1066 1.351 . S
C1066 C1060 1.428 . S
C1066 N1065 1.351 . S
C1066 C1067 1.434 . S
C1067 C1058 1.429 . S
C1067 N1064 1.350 . S
C1067 C1066 1.434 . S
C1068 C1069 1.369 . S
C1068 C1070 1.419 . S
C1068 H1072 0.930 . S
C1069 C1068 1.369 . S
C1069 C1078 1.429 . S
C1070 C1068 1.419 . S
C1070 C1071 1.363 . S
C1070 H1073 0.929 . S
C1071 C1070 1.363 . S
C1071 C1077 1.428 . S
H1072 C1068 0.930 . S
H1073 C1070 0.929 . S
S1074 N1075 1.613 . S
S1074 N1076 1.610 . S
N1075 S1074 1.613 . S
N1075 C1078 1.350 . S
N1076 S1074 1.610 . S
N1076 C1077 1.351 . S
C1077 C1071 1.428 . S
C1077 N1076 1.351 . S
C1077 C1078 1.434 . S
C1078 C1069 1.429 . S
C1078 N1075 1.350 . S
C1078 C1077 1.434 . S
C1079 C1080 1.369 . S
C1079 C1081 1.419 . S
C1079 H1083 0.930 . S
C1080 C1079 1.369 . S
C1080 C1089 1.429 . S
C1081 C1079 1.419 . S
C1081 C1082 1.363 . S
C1081 H1084 0.929 . S
C1082 C1081 1.363 . S
C1082 C1088 1.428 . S
H1083 C1079 0.930 . S
H1084 C1081 0.929 . S
S1085 N1086 1.613 . S
S1085 N1087 1.610 . S
N1086 S1085 1.613 . S
N1086 C1089 1.350 . S
N1087 S1085 1.610 . S
N1087 C1088 1.351 . S
C1088 C1082 1.428 . S
C1088 N1087 1.351 . S
C1088 C1089 1.434 . S
C1089 C1080 1.429 . S
C1089 N1086 1.350 . S
C1089 C1088 1.434 . S
C1090 C1091 1.369 . S
C1090 C1092 1.419 . S
C1090 H1094 0.930 . S
C1091 C1090 1.369 . S
C1091 C1100 1.429 . S
C1092 C1090 1.419 . S
C1092 C1093 1.363 . S
C1092 H1095 0.929 . S
C1093 C1092 1.363 . S
C1093 C1099 1.428 . S
H1094 C1090 0.930 . S
H1095 C1092 0.929 . S
S1096 N1097 1.613 . S
S1096 N1098 1.610 . S
N1097 S1096 1.613 . S
N1097 C1100 1.350 . S
N1098 S1096 1.610 . S
N1098 C1099 1.351 . S
C1099 C1093 1.428 . S
C1099 N1098 1.351 . S
C1099 C1100 1.434 . S
C1100 C1091 1.429 . S
C1100 N1097 1.350 . S
C1100 C1099 1.434 . S
C1101 C1102 1.369 . S
C1101 C1103 1.419 . S
C1101 H1105 0.930 . S
C1102 C1101 1.369 . S
C1102 C1111 1.429 . S
C1103 C1101 1.419 . S
C1103 C1104 1.363 . S
C1103 H1106 0.929 . S
C1104 C1103 1.363 . S
C1104 C1110 1.428 . S
H1105 C1101 0.930 . S
H1106 C1103 0.929 . S
S1107 N1108 1.613 . S
S1107 N1109 1.610 . S
N1108 S1107 1.613 . S
N1108 C1111 1.350 . S
N1109 S1107 1.610 . S
N1109 C1110 1.351 . S
C1110 C1104 1.428 . S
C1110 N1109 1.351 . S
C1110 C1111 1.434 . S
C1111 C1102 1.429 . S
C1111 N1108 1.350 . S
C1111 C1110 1.434 . S
C1112 C1113 1.369 . S
C1112 C1114 1.419 . S
C1112 H1116 0.930 . S
C1113 C1112 1.369 . S
C1113 C1122 1.429 . S
C1114 C1112 1.419 . S
C1114 C1115 1.363 . S
C1114 H1117 0.929 . S
C1115 C1114 1.363 . S
C1115 C1121 1.428 . S
H1116 C1112 0.930 . S
H1117 C1114 0.929 . S
S1118 N1119 1.613 . S
S1118 N1120 1.610 . S
N1119 S1118 1.613 . S
N1119 C1122 1.350 . S
N1120 S1118 1.610 . S
N1120 C1121 1.351 . S
C1121 C1115 1.428 . S
C1121 N1120 1.351 . S
C1121 C1122 1.434 . S
C1122 C1113 1.429 . S
C1122 N1119 1.350 . S
C1122 C1121 1.434 . S
C1123 C1124 1.369 . S
C1123 C1125 1.419 . S
C1123 H1127 0.930 . S
C1124 C1123 1.369 . S
C1124 C1133 1.429 . S
C1125 C1123 1.419 . S
C1125 C1126 1.363 . S
C1125 H1128 0.929 . S
C1126 C1125 1.363 . S
C1126 C1132 1.428 . S
H1127 C1123 0.930 . S
H1128 C1125 0.929 . S
S1129 N1130 1.613 . S
S1129 N1131 1.610 . S
N1130 S1129 1.613 . S
N1130 C1133 1.350 . S
N1131 S1129 1.610 . S
N1131 C1132 1.351 . S
C1132 C1126 1.428 . S
C1132 N1131 1.351 . S
C1132 C1133 1.434 . S
C1133 C1124 1.429 . S
C1133 N1130 1.350 . S
C1133 C1132 1.434 . S
C1134 C1135 1.369 . S
C1134 C1136 1.419 . S
C1134 H1138 0.930 . S
C1135 C1134 1.369 . S
C1135 C1144 1.429 . S
C1136 C1134 1.419 . S
C1136 C1137 1.363 . S
C1136 H1139 0.929 . S
C1137 C1136 1.363 . S
C1137 C1143 1.428 . S
H1138 C1134 0.930 . S
H1139 C1136 0.929 . S
S1140 N1141 1.613 . S
S1140 N1142 1.610 . S
N1141 S1140 1.613 . S
N1141 C1144 1.350 . S
N1142 S1140 1.610 . S
N1142 C1143 1.351 . S
C1143 C1137 1.428 . S
C1143 N1142 1.351 . S
C1143 C1144 1.434 . S
C1144 C1135 1.429 . S
C1144 N1141 1.350 . S
C1144 C1143 1.434 . S
C1145 C1146 1.369 . S
C1145 C1147 1.419 . S
C1145 H1149 0.930 . S
C1146 C1145 1.369 . S
C1146 C1155 1.429 . S
C1147 C1145 1.419 . S
C1147 C1148 1.363 . S
C1147 H1150 0.929 . S
C1148 C1147 1.363 . S
C1148 C1154 1.428 . S
H1149 C1145 0.930 . S
H1150 C1147 0.929 . S
S1151 N1152 1.613 . S
S1151 N1153 1.610 . S
N1152 S1151 1.613 . S
N1152 C1155 1.350 . S
N1153 S1151 1.610 . S
N1153 C1154 1.351 . S
C1154 C1148 1.428 . S
C1154 N1153 1.351 . S
C1154 C1155 1.434 . S
C1155 C1146 1.429 . S
C1155 N1152 1.350 . S
C1155 C1154 1.434 . S
C1156 C1157 1.369 . S
C1156 C1158 1.419 . S
C1156 H1160 0.930 . S
C1157 C1156 1.369 . S
C1157 C1166 1.429 . S
C1158 C1156 1.419 . S
C1158 C1159 1.363 . S
C1158 H1161 0.929 . S
C1159 C1158 1.363 . S
C1159 C1165 1.428 . S
H1160 C1156 0.930 . S
H1161 C1158 0.929 . S
S1162 N1163 1.613 . S
S1162 N1164 1.610 . S
N1163 S1162 1.613 . S
N1163 C1166 1.350 . S
N1164 S1162 1.610 . S
N1164 C1165 1.351 . S
C1165 C1159 1.428 . S
C1165 N1164 1.351 . S
C1165 C1166 1.434 . S
C1166 C1157 1.429 . S
C1166 N1163 1.350 . S
C1166 C1165 1.434 . S
C1167 C1168 1.369 . S
C1167 C1169 1.419 . S
C1167 H1171 0.930 . S
C1168 C1167 1.369 . S
C1168 C1177 1.429 . S
C1169 C1167 1.419 . S
C1169 C1170 1.363 . S
C1169 H1172 0.929 . S
C1170 C1169 1.363 . S
C1170 C1176 1.428 . S
H1171 C1167 0.930 . S
H1172 C1169 0.929 . S
S1173 N1174 1.613 . S
S1173 N1175 1.610 . S
N1174 S1173 1.613 . S
N1174 C1177 1.350 . S
N1175 S1173 1.610 . S
N1175 C1176 1.351 . S
C1176 C1170 1.428 . S
C1176 N1175 1.351 . S
C1176 C1177 1.434 . S
C1177 C1168 1.429 . S
C1177 N1174 1.350 . S
C1177 C1176 1.434 . S
C1178 C1179 1.369 . S
C1178 C1180 1.419 . S
C1178 H1182 0.930 . S
C1179 C1178 1.369 . S
C1179 C1188 1.429 . S
C1180 C1178 1.419 . S
C1180 C1181 1.363 . S
C1180 H1183 0.929 . S
C1181 C1180 1.363 . S
C1181 C1187 1.428 . S
H1182 C1178 0.930 . S
H1183 C1180 0.929 . S
S1184 N1185 1.613 . S
S1184 N1186 1.610 . S
N1185 S1184 1.613 . S
N1185 C1188 1.350 . S
N1186 S1184 1.610 . S
N1186 C1187 1.351 . S
C1187 C1181 1.428 . S
C1187 N1186 1.351 . S
C1187 C1188 1.434 . S
C1188 C1179 1.429 . S
C1188 N1185 1.350 . S
C1188 C1187 1.434 . S
C1189 C1190 1.369 . S
C1189 C1191 1.419 . S
C1189 H1193 0.930 . S
C1190 C1189 1.369 . S
C1190 C1199 1.429 . S
C1191 C1189 1.419 . S
C1191 C1192 1.363 . S
C1191 H1194 0.929 . S
C1192 C1191 1.363 . S
C1192 C1198 1.428 . S
H1193 C1189 0.930 . S
H1194 C1191 0.929 . S
S1195 N1196 1.613 . S
S1195 N1197 1.610 . S
N1196 S1195 1.613 . S
N1196 C1199 1.350 . S
N1197 S1195 1.610 . S
N1197 C1198 1.351 . S
C1198 C1192 1.428 . S
C1198 N1197 1.351 . S
C1198 C1199 1.434 . S
C1199 C1190 1.429 . S
C1199 N1196 1.350 . S
C1199 C1198 1.434 . S
C1200 C1201 1.369 . S
C1200 C1202 1.419 . S
C1200 H1204 0.930 . S
C1201 C1200 1.369 . S
C1201 C1210 1.429 . S
C1202 C1200 1.419 . S
C1202 C1203 1.363 . S
C1202 H1205 0.929 . S
C1203 C1202 1.363 . S
C1203 C1209 1.428 . S
H1204 C1200 0.930 . S
H1205 C1202 0.929 . S
S1206 N1207 1.613 . S
S1206 N1208 1.610 . S
N1207 S1206 1.613 . S
N1207 C1210 1.350 . S
N1208 S1206 1.610 . S
N1208 C1209 1.351 . S
C1209 C1203 1.428 . S
C1209 N1208 1.351 . S
C1209 C1210 1.434 . S
C1210 C1201 1.429 . S
C1210 N1207 1.350 . S
C1210 C1209 1.434 . S
C1211 C1212 1.369 . S
C1211 C1213 1.419 . S
C1211 H1215 0.930 . S
C1212 C1211 1.369 . S
C1212 C1221 1.429 . S
C1213 C1211 1.419 . S
C1213 C1214 1.363 . S
C1213 H1216 0.929 . S
C1214 C1213 1.363 . S
C1214 C1220 1.428 . S
H1215 C1211 0.930 . S
H1216 C1213 0.929 . S
S1217 N1218 1.613 . S
S1217 N1219 1.610 . S
N1218 S1217 1.613 . S
N1218 C1221 1.350 . S
N1219 S1217 1.610 . S
N1219 C1220 1.351 . S
C1220 C1214 1.428 . S
C1220 N1219 1.351 . S
C1220 C1221 1.434 . S
C1221 C1212 1.429 . S
C1221 N1218 1.350 . S
C1221 C1220 1.434 . S
C1222 C1223 1.369 . S
C1222 C1224 1.419 . S
C1222 H1226 0.930 . S
C1223 C1222 1.369 . S
C1223 C1232 1.429 . S
C1224 C1222 1.419 . S
C1224 C1225 1.363 . S
C1224 H1227 0.929 . S
C1225 C1224 1.363 . S
C1225 C1231 1.428 . S
H1226 C1222 0.930 . S
H1227 C1224 0.929 . S
S1228 N1229 1.613 . S
S1228 N1230 1.610 . S
N1229 S1228 1.613 . S
N1229 C1232 1.350 . S
N1230 S1228 1.610 . S
N1230 C1231 1.351 . S
C1231 C1225 1.428 . S
C1231 N1230 1.351 . S
C1231 C1232 1.434 . S
C1232 C1223 1.429 . S
C1232 N1229 1.350 . S
C1232 C1231 1.434 . S
C1233 C1234 1.369 . S
C1233 C1235 1.419 . S
C1233 H1237 0.930 . S
C1234 C1233 1.369 . S
C1234 C1243 1.429 . S
C1235 C1233 1.419 . S
C1235 C1236 1.363 . S
C1235 H1238 0.929 . S
C1236 C1235 1.363 . S
C1236 C1242 1.428 . S
H1237 C1233 0.930 . S
H1238 C1235 0.929 . S
S1239 N1240 1.613 . S
S1239 N1241 1.610 . S
N1240 S1239 1.613 . S
N1240 C1243 1.350 . S
N1241 S1239 1.610 . S
N1241 C1242 1.351 . S
C1242 C1236 1.428 . S
C1242 N1241 1.351 . S
C1242 C1243 1.434 . S
C1243 C1234 1.429 . S
C1243 N1240 1.350 . S
C1243 C1242 1.434 . S
C1244 C1245 1.369 . S
C1244 C1246 1.419 . S
C1244 H1248 0.930 . S
C1245 C1244 1.369 . S
C1245 C1254 1.429 . S
C1246 C1244 1.419 . S
C1246 C1247 1.363 . S
C1246 H1249 0.929 . S
C1247 C1246 1.363 . S
C1247 C1253 1.428 . S
H1248 C1244 0.930 . S
H1249 C1246 0.929 . S
S1250 N1251 1.613 . S
S1250 N1252 1.610 . S
N1251 S1250 1.613 . S
N1251 C1254 1.350 . S
N1252 S1250 1.610 . S
N1252 C1253 1.351 . S
C1253 C1247 1.428 . S
C1253 N1252 1.351 . S
C1253 C1254 1.434 . S
C1254 C1245 1.429 . S
C1254 N1251 1.350 . S
C1254 C1253 1.434 . S
C1255 C1256 1.369 . S
C1255 C1257 1.419 . S
C1255 H1259 0.930 . S
C1256 C1255 1.369 . S
C1256 C1265 1.429 . S
C1257 C1255 1.419 . S
C1257 C1258 1.363 . S
C1257 H1260 0.929 . S
C1258 C1257 1.363 . S
C1258 C1264 1.428 . S
H1259 C1255 0.930 . S
H1260 C1257 0.929 . S
S1261 N1262 1.613 . S
S1261 N1263 1.610 . S
N1262 S1261 1.613 . S
N1262 C1265 1.350 . S
N1263 S1261 1.610 . S
N1263 C1264 1.351 . S
C1264 C1258 1.428 . S
C1264 N1263 1.351 . S
C1264 C1265 1.434 . S
C1265 C1256 1.429 . S
C1265 N1262 1.350 . S
C1265 C1264 1.434 . S
C1266 C1267 1.369 . S
C1266 C1268 1.419 . S
C1266 H1270 0.930 . S
C1267 C1266 1.369 . S
C1267 C1276 1.429 . S
C1268 C1266 1.419 . S
C1268 C1269 1.363 . S
C1268 H1271 0.929 . S
C1269 C1268 1.363 . S
C1269 C1275 1.428 . S
H1270 C1266 0.930 . S
H1271 C1268 0.929 . S
S1272 N1273 1.613 . S
S1272 N1274 1.610 . S
N1273 S1272 1.613 . S
N1273 C1276 1.350 . S
N1274 S1272 1.610 . S
N1274 C1275 1.351 . S
C1275 C1269 1.428 . S
C1275 N1274 1.351 . S
C1275 C1276 1.434 . S
C1276 C1267 1.429 . S
C1276 N1273 1.350 . S
C1276 C1275 1.434 . S
C1277 C1278 1.369 . S
C1277 C1279 1.419 . S
C1277 H1281 0.930 . S
C1278 C1277 1.369 . S
C1278 C1287 1.429 . S
C1279 C1277 1.419 . S
C1279 C1280 1.363 . S
C1279 H1282 0.929 . S
C1280 C1279 1.363 . S
C1280 C1286 1.428 . S
H1281 C1277 0.930 . S
H1282 C1279 0.929 . S
S1283 N1284 1.613 . S
S1283 N1285 1.610 . S
N1284 S1283 1.613 . S
N1284 C1287 1.350 . S
N1285 S1283 1.610 . S
N1285 C1286 1.351 . S
C1286 C1280 1.428 . S
C1286 N1285 1.351 . S
C1286 C1287 1.434 . S
C1287 C1278 1.429 . S
C1287 N1284 1.350 . S
C1287 C1286 1.434 . S
C1288 C1289 1.369 . S
C1288 C1290 1.419 . S
C1288 H1292 0.930 . S
C1289 C1288 1.369 . S
C1289 C1298 1.429 . S
C1290 C1288 1.419 . S
C1290 C1291 1.363 . S
C1290 H1293 0.929 . S
C1291 C1290 1.363 . S
C1291 C1297 1.428 . S
H1292 C1288 0.930 . S
H1293 C1290 0.929 . S
S1294 N1295 1.613 . S
S1294 N1296 1.610 . S
N1295 S1294 1.613 . S
N1295 C1298 1.350 . S
N1296 S1294 1.610 . S
N1296 C1297 1.351 . S
C1297 C1291 1.428 . S
C1297 N1296 1.351 . S
C1297 C1298 1.434 . S
C1298 C1289 1.429 . S
C1298 N1295 1.350 . S
C1298 C1297 1.434 . S
C1299 C1300 1.369 . S
C1299 C1301 1.419 . S
C1299 H1303 0.930 . S
C1300 C1299 1.369 . S
C1300 C1309 1.429 . S
C1301 C1299 1.419 . S
C1301 C1302 1.363 . S
C1301 H1304 0.929 . S
C1302 C1301 1.363 . S
C1302 C1308 1.428 . S
H1303 C1299 0.930 . S
H1304 C1301 0.929 . S
S1305 N1306 1.613 . S
S1305 N1307 1.610 . S
N1306 S1305 1.613 . S
N1306 C1309 1.350 . S
N1307 S1305 1.610 . S
N1307 C1308 1.351 . S
C1308 C1302 1.428 . S
C1308 N1307 1.351 . S
C1308 C1309 1.434 . S
C1309 C1300 1.429 . S
C1309 N1306 1.350 . S
C1309 C1308 1.434 . S
C1310 C1311 1.369 . S
C1310 C1312 1.419 . S
C1310 H1314 0.930 . S
C1311 C1310 1.369 . S
C1311 C1320 1.429 . S
C1312 C1310 1.419 . S
C1312 C1313 1.363 . S
C1312 H1315 0.929 . S
C1313 C1312 1.363 . S
C1313 C1319 1.428 . S
H1314 C1310 0.930 . S
H1315 C1312 0.929 . S
S1316 N1317 1.613 . S
S1316 N1318 1.610 . S
N1317 S1316 1.613 . S
N1317 C1320 1.350 . S
N1318 S1316 1.610 . S
N1318 C1319 1.351 . S
C1319 C1313 1.428 . S
C1319 N1318 1.351 . S
C1319 C1320 1.434 . S
C1320 C1311 1.429 . S
C1320 N1317 1.350 . S
C1320 C1319 1.434 . S
C1321 C1322 1.369 . S
C1321 C1323 1.419 . S
C1321 H1325 0.930 . S
C1322 C1321 1.369 . S
C1322 C1331 1.429 . S
C1323 C1321 1.419 . S
C1323 C1324 1.363 . S
C1323 H1326 0.929 . S
C1324 C1323 1.363 . S
C1324 C1330 1.428 . S
H1325 C1321 0.930 . S
H1326 C1323 0.929 . S
S1327 N1328 1.613 . S
S1327 N1329 1.610 . S
N1328 S1327 1.613 . S
N1328 C1331 1.350 . S
N1329 S1327 1.610 . S
N1329 C1330 1.351 . S
C1330 C1324 1.428 . S
C1330 N1329 1.351 . S
C1330 C1331 1.434 . S
C1331 C1322 1.429 . S
C1331 N1328 1.350 . S
C1331 C1330 1.434 . S
C1332 C1333 1.369 . S
C1332 C1334 1.419 . S
C1332 H1336 0.930 . S
C1333 C1332 1.369 . S
C1333 C1342 1.429 . S
C1334 C1332 1.419 . S
C1334 C1335 1.363 . S
C1334 H1337 0.929 . S
C1335 C1334 1.363 . S
C1335 C1341 1.428 . S
H1336 C1332 0.930 . S
H1337 C1334 0.929 . S
S1338 N1339 1.613 . S
S1338 N1340 1.610 . S
N1339 S1338 1.613 . S
N1339 C1342 1.350 . S
N1340 S1338 1.610 . S
N1340 C1341 1.351 . S
C1341 C1335 1.428 . S
C1341 N1340 1.351 . S
C1341 C1342 1.434 . S
C1342 C1333 1.429 . S
C1342 N1339 1.350 . S
C1342 C1341 1.434 . S
C1343 C1344 1.369 . S
C1343 C1345 1.419 . S
C1343 H1347 0.930 . S
C1344 C1343 1.369 . S
C1344 C1353 1.429 . S
C1345 C1343 1.419 . S
C1345 C1346 1.363 . S
C1345 H1348 0.929 . S
C1346 C1345 1.363 . S
C1346 C1352 1.428 . S
H1347 C1343 0.930 . S
H1348 C1345 0.929 . S
S1349 N1350 1.613 . S
S1349 N1351 1.610 . S
N1350 S1349 1.613 . S
N1350 C1353 1.350 . S
N1351 S1349 1.610 . S
N1351 C1352 1.351 . S
C1352 C1346 1.428 . S
C1352 N1351 1.351 . S
C1352 C1353 1.434 . S
C1353 C1344 1.429 . S
C1353 N1350 1.350 . S
C1353 C1352 1.434 . S
C1354 C1355 1.369 . S
C1354 C1356 1.419 . S
C1354 H1358 0.930 . S
C1355 C1354 1.369 . S
C1355 C1364 1.429 . S
C1356 C1354 1.419 . S
C1356 C1357 1.363 . S
C1356 H1359 0.929 . S
C1357 C1356 1.363 . S
C1357 C1363 1.428 . S
H1358 C1354 0.930 . S
H1359 C1356 0.929 . S
S1360 N1361 1.613 . S
S1360 N1362 1.610 . S
N1361 S1360 1.613 . S
N1361 C1364 1.350 . S
N1362 S1360 1.610 . S
N1362 C1363 1.351 . S
C1363 C1357 1.428 . S
C1363 N1362 1.351 . S
C1363 C1364 1.434 . S
C1364 C1355 1.429 . S
C1364 N1361 1.350 . S
C1364 C1363 1.434 . S
C1365 C1366 1.369 . S
C1365 C1367 1.419 . S
C1365 H1369 0.930 . S
C1366 C1365 1.369 . S
C1366 C1375 1.429 . S
C1367 C1365 1.419 . S
C1367 C1368 1.363 . S
C1367 H1370 0.929 . S
C1368 C1367 1.363 . S
C1368 C1374 1.428 . S
H1369 C1365 0.930 . S
H1370 C1367 0.929 . S
S1371 N1372 1.613 . S
S1371 N1373 1.610 . S
N1372 S1371 1.613 . S
N1372 C1375 1.350 . S
N1373 S1371 1.610 . S
N1373 C1374 1.351 . S
C1374 C1368 1.428 . S
C1374 N1373 1.351 . S
C1374 C1375 1.434 . S
C1375 C1366 1.429 . S
C1375 N1372 1.350 . S
C1375 C1374 1.434 . S
C1376 C1377 1.369 . S
C1376 C1378 1.419 . S
C1376 H1380 0.930 . S
C1377 C1376 1.369 . S
C1377 C1386 1.429 . S
C1378 C1376 1.419 . S
C1378 C1379 1.363 . S
C1378 H1381 0.929 . S
C1379 C1378 1.363 . S
C1379 C1385 1.428 . S
H1380 C1376 0.930 . S
H1381 C1378 0.929 . S
S1382 N1383 1.613 . S
S1382 N1384 1.610 . S
N1383 S1382 1.613 . S
N1383 C1386 1.350 . S
N1384 S1382 1.610 . S
N1384 C1385 1.351 . S
C1385 C1379 1.428 . S
C1385 N1384 1.351 . S
C1385 C1386 1.434 . S
C1386 C1377 1.429 . S
C1386 N1383 1.350 . S
C1386 C1385 1.434 . S
C1387 C1388 1.369 . S
C1387 C1389 1.419 . S
C1387 H1391 0.930 . S
C1388 C1387 1.369 . S
C1388 C1397 1.429 . S
C1389 C1387 1.419 . S
C1389 C1390 1.363 . S
C1389 H1392 0.929 . S
C1390 C1389 1.363 . S
C1390 C1396 1.428 . S
H1391 C1387 0.930 . S
H1392 C1389 0.929 . S
S1393 N1394 1.613 . S
S1393 N1395 1.610 . S
N1394 S1393 1.613 . S
N1394 C1397 1.350 . S
N1395 S1393 1.610 . S
N1395 C1396 1.351 . S
C1396 C1390 1.428 . S
C1396 N1395 1.351 . S
C1396 C1397 1.434 . S
C1397 C1388 1.429 . S
C1397 N1394 1.350 . S
C1397 C1396 1.434 . S
C1398 C1399 1.369 . S
C1398 C1400 1.419 . S
C1398 H1402 0.930 . S
C1399 C1398 1.369 . S
C1399 C1408 1.429 . S
C1400 C1398 1.419 . S
C1400 C1401 1.363 . S
C1400 H1403 0.929 . S
C1401 C1400 1.363 . S
C1401 C1407 1.428 . S
H1402 C1398 0.930 . S
H1403 C1400 0.929 . S
S1404 N1405 1.613 . S
S1404 N1406 1.610 . S
N1405 S1404 1.613 . S
N1405 C1408 1.350 . S
N1406 S1404 1.610 . S
N1406 C1407 1.351 . S
C1407 C1401 1.428 . S
C1407 N1406 1.351 . S
C1407 C1408 1.434 . S
C1408 C1399 1.429 . S
C1408 N1405 1.350 . S
C1408 C1407 1.434 . S
C1409 C1410 1.369 . S
C1409 C1411 1.419 . S
C1409 H1413 0.930 . S
C1410 C1409 1.369 . S
C1410 C1419 1.429 . S
C1411 C1409 1.419 . S
C1411 C1412 1.363 . S
C1411 H1414 0.929 . S
C1412 C1411 1.363 . S
C1412 C1418 1.428 . S
H1413 C1409 0.930 . S
H1414 C1411 0.929 . S
S1415 N1416 1.613 . S
S1415 N1417 1.610 . S
N1416 S1415 1.613 . S
N1416 C1419 1.350 . S
N1417 S1415 1.610 . S
N1417 C1418 1.351 . S
C1418 C1412 1.428 . S
C1418 N1417 1.351 . S
C1418 C1419 1.434 . S
C1419 C1410 1.429 . S
C1419 N1416 1.350 . S
C1419 C1418 1.434 . S
C1420 C1421 1.369 . S
C1420 C1422 1.419 . S
C1420 H1424 0.930 . S
C1421 C1420 1.369 . S
C1421 C1430 1.429 . S
C1422 C1420 1.419 . S
C1422 C1423 1.363 . S
C1422 H1425 0.929 . S
C1423 C1422 1.363 . S
C1423 C1429 1.428 . S
H1424 C1420 0.930 . S
H1425 C1422 0.929 . S
S1426 N1427 1.613 . S
S1426 N1428 1.610 . S
N1427 S1426 1.613 . S
N1427 C1430 1.350 . S
N1428 S1426 1.610 . S
N1428 C1429 1.351 . S
C1429 C1423 1.428 . S
C1429 N1428 1.351 . S
C1429 C1430 1.434 . S
C1430 C1421 1.429 . S
C1430 N1427 1.350 . S
C1430 C1429 1.434 . S
C1431 C1432 1.369 . S
C1431 C1433 1.419 . S
C1431 H1435 0.930 . S
C1432 C1431 1.369 . S
C1432 C1441 1.429 . S
C1433 C1431 1.419 . S
C1433 C1434 1.363 . S
C1433 H1436 0.929 . S
C1434 C1433 1.363 . S
C1434 C1440 1.428 . S
H1435 C1431 0.930 . S
H1436 C1433 0.929 . S
S1437 N1438 1.613 . S
S1437 N1439 1.610 . S
N1438 S1437 1.613 . S
N1438 C1441 1.350 . S
N1439 S1437 1.610 . S
N1439 C1440 1.351 . S
C1440 C1434 1.428 . S
C1440 N1439 1.351 . S
C1440 C1441 1.434 . S
C1441 C1432 1.429 . S
C1441 N1438 1.350 . S
C1441 C1440 1.434 . S
C1442 C1443 1.369 . S
C1442 C1444 1.419 . S
C1442 H1446 0.930 . S
C1443 C1442 1.369 . S
C1443 C1452 1.429 . S
C1444 C1442 1.419 . S
C1444 C1445 1.363 . S
C1444 H1447 0.929 . S
C1445 C1444 1.363 . S
C1445 C1451 1.428 . S
H1446 C1442 0.930 . S
H1447 C1444 0.929 . S
S1448 N1449 1.613 . S
S1448 N1450 1.610 . S
N1449 S1448 1.613 . S
N1449 C1452 1.350 . S
N1450 S1448 1.610 . S
N1450 C1451 1.351 . S
C1451 C1445 1.428 . S
C1451 N1450 1.351 . S
C1451 C1452 1.434 . S
C1452 C1443 1.429 . S
C1452 N1449 1.350 . S
C1452 C1451 1.434 . S
C1453 C1454 1.369 . S
C1453 C1455 1.419 . S
C1453 H1457 0.930 . S
C1454 C1453 1.369 . S
C1454 C1463 1.429 . S
C1455 C1453 1.419 . S
C1455 C1456 1.363 . S
C1455 H1458 0.929 . S
C1456 C1455 1.363 . S
C1456 C1462 1.428 . S
H1457 C1453 0.930 . S
H1458 C1455 0.929 . S
S1459 N1460 1.613 . S
S1459 N1461 1.610 . S
N1460 S1459 1.613 . S
N1460 C1463 1.350 . S
N1461 S1459 1.610 . S
N1461 C1462 1.351 . S
C1462 C1456 1.428 . S
C1462 N1461 1.351 . S
C1462 C1463 1.434 . S
C1463 C1454 1.429 . S
C1463 N1460 1.350 . S
C1463 C1462 1.434 . S
C1464 C1465 1.369 . S
C1464 C1466 1.419 . S
C1464 H1468 0.930 . S
C1465 C1464 1.369 . S
C1465 C1474 1.429 . S
C1466 C1464 1.419 . S
C1466 C1467 1.363 . S
C1466 H1469 0.929 . S
C1467 C1466 1.363 . S
C1467 C1473 1.428 . S
H1468 C1464 0.930 . S
H1469 C1466 0.929 . S
S1470 N1471 1.613 . S
S1470 N1472 1.610 . S
N1471 S1470 1.613 . S
N1471 C1474 1.350 . S
N1472 S1470 1.610 . S
N1472 C1473 1.351 . S
C1473 C1467 1.428 . S
C1473 N1472 1.351 . S
C1473 C1474 1.434 . S
C1474 C1465 1.429 . S
C1474 N1471 1.350 . S
C1474 C1473 1.434 . S
C1475 C1476 1.369 . S
C1475 C1477 1.419 . S
C1475 H1479 0.930 . S
C1476 C1475 1.369 . S
C1476 C1485 1.429 . S
C1477 C1475 1.419 . S
C1477 C1478 1.363 . S
C1477 H1480 0.929 . S
C1478 C1477 1.363 . S
C1478 C1484 1.428 . S
H1479 C1475 0.930 . S
H1480 C1477 0.929 . S
S1481 N1482 1.613 . S
S1481 N1483 1.610 . S
N1482 S1481 1.613 . S
N1482 C1485 1.350 . S
N1483 S1481 1.610 . S
N1483 C1484 1.351 . S
C1484 C1478 1.428 . S
C1484 N1483 1.351 . S
C1484 C1485 1.434 . S
C1485 C1476 1.429 . S
C1485 N1482 1.350 . S
C1485 C1484 1.434 . S
C1486 C1487 1.369 . S
C1486 C1488 1.419 . S
C1486 H1490 0.930 . S
C1487 C1486 1.369 . S
C1487 C1496 1.429 . S
C1488 C1486 1.419 . S
C1488 C1489 1.363 . S
C1488 H1491 0.929 . S
C1489 C1488 1.363 . S
C1489 C1495 1.428 . S
H1490 C1486 0.930 . S
H1491 C1488 0.929 . S
S1492 N1493 1.613 . S
S1492 N1494 1.610 . S
N1493 S1492 1.613 . S
N1493 C1496 1.350 . S
N1494 S1492 1.610 . S
N1494 C1495 1.351 . S
C1495 C1489 1.428 . S
C1495 N1494 1.351 . S
C1495 C1496 1.434 . S
C1496 C1487 1.429 . S
C1496 N1493 1.350 . S
C1496 C1495 1.434 . S
C1497 C1498 1.369 . S
C1497 C1499 1.419 . S
C1497 H1501 0.930 . S
C1498 C1497 1.369 . S
C1498 C1507 1.429 . S
C1499 C1497 1.419 . S
C1499 C1500 1.363 . S
C1499 H1502 0.929 . S
C1500 C1499 1.363 . S
C1500 C1506 1.428 . S
H1501 C1497 0.930 . S
H1502 C1499 0.929 . S
S1503 N1504 1.613 . S
S1503 N1505 1.610 . S
N1504 S1503 1.613 . S
N1504 C1507 1.350 . S
N1505 S1503 1.610 . S
N1505 C1506 1.351 . S
C1506 C1500 1.428 . S
C1506 N1505 1.351 . S
C1506 C1507 1.434 . S
C1507 C1498 1.429 . S
C1507 N1504 1.350 . S
C1507 C1506 1.434 . S
C1508 C1509 1.369 . S
C1508 C1510 1.419 . S
C1508 H1512 0.930 . S
C1509 C1508 1.369 . S
C1509 C1518 1.429 . S
C1510 C1508 1.419 . S
C1510 C1511 1.363 . S
C1510 H1513 0.929 . S
C1511 C1510 1.363 . S
C1511 C1517 1.428 . S
H1512 C1508 0.930 . S
H1513 C1510 0.929 . S
S1514 N1515 1.613 . S
S1514 N1516 1.610 . S
N1515 S1514 1.613 . S
N1515 C1518 1.350 . S
N1516 S1514 1.610 . S
N1516 C1517 1.351 . S
C1517 C1511 1.428 . S
C1517 N1516 1.351 . S
C1517 C1518 1.434 . S
C1518 C1509 1.429 . S
C1518 N1515 1.350 . S
C1518 C1517 1.434 . S
C1519 C1520 1.369 . S
C1519 C1521 1.419 . S
C1519 H1523 0.930 . S
C1520 C1519 1.369 . S
C1520 C1529 1.429 . S
C1521 C1519 1.419 . S
C1521 C1522 1.363 . S
C1521 H1524 0.929 . S
C1522 C1521 1.363 . S
C1522 C1528 1.428 . S
H1523 C1519 0.930 . S
H1524 C1521 0.929 . S
S1525 N1526 1.613 . S
S1525 N1527 1.610 . S
N1526 S1525 1.613 . S
N1526 C1529 1.350 . S
N1527 S1525 1.610 . S
N1527 C1528 1.351 . S
C1528 C1522 1.428 . S
C1528 N1527 1.351 . S
C1528 C1529 1.434 . S
C1529 C1520 1.429 . S
C1529 N1526 1.350 . S
C1529 C1528 1.434 . S
C1530 C1531 1.369 . S
C1530 C1532 1.419 . S
C1530 H1534 0.930 . S
C1531 C1530 1.369 . S
C1531 C1540 1.429 . S
C1532 C1530 1.419 . S
C1532 C1533 1.363 . S
C1532 H1535 0.929 . S
C1533 C1532 1.363 . S
C1533 C1539 1.428 . S
H1534 C1530 0.930 . S
H1535 C1532 0.929 . S
S1536 N1537 1.613 . S
S1536 N1538 1.610 . S
N1537 S1536 1.613 . S
N1537 C1540 1.350 . S
N1538 S1536 1.610 . S
N1538 C1539 1.351 . S
C1539 C1533 1.428 . S
C1539 N1538 1.351 . S
C1539 C1540 1.434 . S
C1540 C1531 1.429 . S
C1540 N1537 1.350 . S
C1540 C1539 1.434 . S
C1541 C1542 1.369 . S
C1541 C1543 1.419 . S
C1541 H1545 0.930 . S
C1542 C1541 1.369 . S
C1542 C1551 1.429 . S
C1543 C1541 1.419 . S
C1543 C1544 1.363 . S
C1543 H1546 0.929 . S
C1544 C1543 1.363 . S
C1544 C1550 1.428 . S
H1545 C1541 0.930 . S
H1546 C1543 0.929 . S
S1547 N1548 1.613 . S
S1547 N1549 1.610 . S
N1548 S1547 1.613 . S
N1548 C1551 1.350 . S
N1549 S1547 1.610 . S
N1549 C1550 1.351 . S
C1550 C1544 1.428 . S
C1550 N1549 1.351 . S
C1550 C1551 1.434 . S
C1551 C1542 1.429 . S
C1551 N1548 1.350 . S
C1551 C1550 1.434 . S
C1552 C1553 1.369 . S
C1552 C1554 1.419 . S
C1552 H1556 0.930 . S
C1553 C1552 1.369 . S
C1553 C1562 1.429 . S
C1554 C1552 1.419 . S
C1554 C1555 1.363 . S
C1554 H1557 0.929 . S
C1555 C1554 1.363 . S
C1555 C1561 1.428 . S
H1556 C1552 0.930 . S
H1557 C1554 0.929 . S
S1558 N1559 1.613 . S
S1558 N1560 1.610 . S
N1559 S1558 1.613 . S
N1559 C1562 1.350 . S
N1560 S1558 1.610 . S
N1560 C1561 1.351 . S
C1561 C1555 1.428 . S
C1561 N1560 1.351 . S
C1561 C1562 1.434 . S
C1562 C1553 1.429 . S
C1562 N1559 1.350 . S
C1562 C1561 1.434 . S
C1563 C1564 1.369 . S
C1563 C1565 1.419 . S
C1563 H1567 0.930 . S
C1564 C1563 1.369 . S
C1564 C1573 1.429 . S
C1565 C1563 1.419 . S
C1565 C1566 1.363 . S
C1565 H1568 0.929 . S
C1566 C1565 1.363 . S
C1566 C1572 1.428 . S
H1567 C1563 0.930 . S
H1568 C1565 0.929 . S
S1569 N1570 1.613 . S
S1569 N1571 1.610 . S
N1570 S1569 1.613 . S
N1570 C1573 1.350 . S
N1571 S1569 1.610 . S
N1571 C1572 1.351 . S
C1572 C1566 1.428 . S
C1572 N1571 1.351 . S
C1572 C1573 1.434 . S
C1573 C1564 1.429 . S
C1573 N1570 1.350 . S
C1573 C1572 1.434 . S
C1574 C1575 1.369 . S
C1574 C1576 1.419 . S
C1574 H1578 0.930 . S
C1575 C1574 1.369 . S
C1575 C1584 1.429 . S
C1576 C1574 1.419 . S
C1576 C1577 1.363 . S
C1576 H1579 0.929 . S
C1577 C1576 1.363 . S
C1577 C1583 1.428 . S
H1578 C1574 0.930 . S
H1579 C1576 0.929 . S
S1580 N1581 1.613 . S
S1580 N1582 1.610 . S
N1581 S1580 1.613 . S
N1581 C1584 1.350 . S
N1582 S1580 1.610 . S
N1582 C1583 1.351 . S
C1583 C1577 1.428 . S
C1583 N1582 1.351 . S
C1583 C1584 1.434 . S
C1584 C1575 1.429 . S
C1584 N1581 1.350 . S
C1584 C1583 1.434 . S
C1585 C1586 1.369 . S
C1585 C1587 1.419 . S
C1585 H1589 0.930 . S
C1586 C1585 1.369 . S
C1586 C1595 1.429 . S
C1587 C1585 1.419 . S
C1587 C1588 1.363 . S
C1587 H1590 0.929 . S
C1588 C1587 1.363 . S
C1588 C1594 1.428 . S
H1589 C1585 0.930 . S
H1590 C1587 0.929 . S
S1591 N1592 1.613 . S
S1591 N1593 1.610 . S
N1592 S1591 1.613 . S
N1592 C1595 1.350 . S
N1593 S1591 1.610 . S
N1593 C1594 1.351 . S
C1594 C1588 1.428 . S
C1594 N1593 1.351 . S
C1594 C1595 1.434 . S
C1595 C1586 1.429 . S
C1595 N1592 1.350 . S
C1595 C1594 1.434 . S
C1596 C1597 1.369 . S
C1596 C1598 1.419 . S
C1596 H1600 0.930 . S
C1597 C1596 1.369 . S
C1597 C1606 1.429 . S
C1598 C1596 1.419 . S
C1598 C1599 1.363 . S
C1598 H1601 0.929 . S
C1599 C1598 1.363 . S
C1599 C1605 1.428 . S
H1600 C1596 0.930 . S
H1601 C1598 0.929 . S
S1602 N1603 1.613 . S
S1602 N1604 1.610 . S
N1603 S1602 1.613 . S
N1603 C1606 1.350 . S
N1604 S1602 1.610 . S
N1604 C1605 1.351 . S
C1605 C1599 1.428 . S
C1605 N1604 1.351 . S
C1605 C1606 1.434 . S
C1606 C1597 1.429 . S
C1606 N1603 1.350 . S
C1606 C1605 1.434 . S
C1607 C1608 1.369 . S
C1607 C1609 1.419 . S
C1607 H1611 0.930 . S
C1608 C1607 1.369 . S
C1608 C1617 1.429 . S
C1609 C1607 1.419 . S
C1609 C1610 1.363 . S
C1609 H1612 0.929 . S
C1610 C1609 1.363 . S
C1610 C1616 1.428 . S
H1611 C1607 0.930 . S
H1612 C1609 0.929 . S
S1613 N1614 1.613 . S
S1613 N1615 1.610 . S
N1614 S1613 1.613 . S
N1614 C1617 1.350 . S
N1615 S1613 1.610 . S
N1615 C1616 1.351 . S
C1616 C1610 1.428 . S
C1616 N1615 1.351 . S
C1616 C1617 1.434 . S
C1617 C1608 1.429 . S
C1617 N1614 1.350 . S
C1617 C1616 1.434 . S
C1618 C1619 1.369 . S
C1618 C1620 1.419 . S
C1618 H1622 0.930 . S
C1619 C1618 1.369 . S
C1619 C1628 1.429 . S
C1620 C1618 1.419 . S
C1620 C1621 1.363 . S
C1620 H1623 0.929 . S
C1621 C1620 1.363 . S
C1621 C1627 1.428 . S
H1622 C1618 0.930 . S
H1623 C1620 0.929 . S
S1624 N1625 1.613 . S
S1624 N1626 1.610 . S
N1625 S1624 1.613 . S
N1625 C1628 1.350 . S
N1626 S1624 1.610 . S
N1626 C1627 1.351 . S
C1627 C1621 1.428 . S
C1627 N1626 1.351 . S
C1627 C1628 1.434 . S
C1628 C1619 1.429 . S
C1628 N1625 1.350 . S
C1628 C1627 1.434 . S
C1629 C1630 1.369 . S
C1629 C1631 1.419 . S
C1629 H1633 0.930 . S
C1630 C1629 1.369 . S
C1630 C1639 1.429 . S
C1631 C1629 1.419 . S
C1631 C1632 1.363 . S
C1631 H1634 0.929 . S
C1632 C1631 1.363 . S
C1632 C1638 1.428 . S
H1633 C1629 0.930 . S
H1634 C1631 0.929 . S
S1635 N1636 1.613 . S
S1635 N1637 1.610 . S
N1636 S1635 1.613 . S
N1636 C1639 1.350 . S
N1637 S1635 1.610 . S
N1637 C1638 1.351 . S
C1638 C1632 1.428 . S
C1638 N1637 1.351 . S
C1638 C1639 1.434 . S
C1639 C1630 1.429 . S
C1639 N1636 1.350 . S
C1639 C1638 1.434 . S
C1640 C1641 1.369 . S
C1640 C1642 1.419 . S
C1640 H1644 0.930 . S
C1641 C1640 1.369 . S
C1641 C1650 1.429 . S
C1642 C1640 1.419 . S
C1642 C1643 1.363 . S
C1642 H1645 0.929 . S
C1643 C1642 1.363 . S
C1643 C1649 1.428 . S
H1644 C1640 0.930 . S
H1645 C1642 0.929 . S
S1646 N1647 1.613 . S
S1646 N1648 1.610 . S
N1647 S1646 1.613 . S
N1647 C1650 1.350 . S
N1648 S1646 1.610 . S
N1648 C1649 1.351 . S
C1649 C1643 1.428 . S
C1649 N1648 1.351 . S
C1649 C1650 1.434 . S
C1650 C1641 1.429 . S
C1650 N1647 1.350 . S
C1650 C1649 1.434 . S
C1651 C1652 1.369 . S
C1651 C1653 1.419 . S
C1651 H1655 0.930 . S
C1652 C1651 1.369 . S
C1652 C1661 1.429 . S
C1653 C1651 1.419 . S
C1653 C1654 1.363 . S
C1653 H1656 0.929 . S
C1654 C1653 1.363 . S
C1654 C1660 1.428 . S
H1655 C1651 0.930 . S
H1656 C1653 0.929 . S
S1657 N1658 1.613 . S
S1657 N1659 1.610 . S
N1658 S1657 1.613 . S
N1658 C1661 1.350 . S
N1659 S1657 1.610 . S
N1659 C1660 1.351 . S
C1660 C1654 1.428 . S
C1660 N1659 1.351 . S
C1660 C1661 1.434 . S
C1661 C1652 1.429 . S
C1661 N1658 1.350 . S
C1661 C1660 1.434 . S
C1662 C1663 1.369 . S
C1662 C1664 1.419 . S
C1662 H1666 0.930 . S
C1663 C1662 1.369 . S
C1663 C1672 1.429 . S
C1664 C1662 1.419 . S
C1664 C1665 1.363 . S
C1664 H1667 0.929 . S
C1665 C1664 1.363 . S
C1665 C1671 1.428 . S
H1666 C1662 0.930 . S
H1667 C1664 0.929 . S
S1668 N1669 1.613 . S
S1668 N1670 1.610 . S
N1669 S1668 1.613 . S
N1669 C1672 1.350 . S
N1670 S1668 1.610 . S
N1670 C1671 1.351 . S
C1671 C1665 1.428 . S
C1671 N1670 1.351 . S
C1671 C1672 1.434 . S
C1672 C1663 1.429 . S
C1672 N1669 1.350 . S
C1672 C1671 1.434 . S
C1673 C1674 1.369 . S
C1673 C1675 1.419 . S
C1673 H1677 0.930 . S
C1674 C1673 1.369 . S
C1674 C1683 1.429 . S
C1675 C1673 1.419 . S
C1675 C1676 1.363 . S
C1675 H1678 0.929 . S
C1676 C1675 1.363 . S
C1676 C1682 1.428 . S
H1677 C1673 0.930 . S
H1678 C1675 0.929 . S
S1679 N1680 1.613 . S
S1679 N1681 1.610 . S
N1680 S1679 1.613 . S
N1680 C1683 1.350 . S
N1681 S1679 1.610 . S
N1681 C1682 1.351 . S
C1682 C1676 1.428 . S
C1682 N1681 1.351 . S
C1682 C1683 1.434 . S
C1683 C1674 1.429 . S
C1683 N1680 1.350 . S
C1683 C1682 1.434 . S
C1684 C1685 1.369 . S
C1684 C1686 1.419 . S
C1684 H1688 0.930 . S
C1685 C1684 1.369 . S
C1685 C1694 1.429 . S
C1686 C1684 1.419 . S
C1686 C1687 1.363 . S
C1686 H1689 0.929 . S
C1687 C1686 1.363 . S
C1687 C1693 1.428 . S
H1688 C1684 0.930 . S
H1689 C1686 0.929 . S
S1690 N1691 1.613 . S
S1690 N1692 1.610 . S
N1691 S1690 1.613 . S
N1691 C1694 1.350 . S
N1692 S1690 1.610 . S
N1692 C1693 1.351 . S
C1693 C1687 1.428 . S
C1693 N1692 1.351 . S
C1693 C1694 1.434 . S
C1694 C1685 1.429 . S
C1694 N1691 1.350 . S
C1694 C1693 1.434 . S
C1695 C1696 1.369 . S
C1695 C1697 1.419 . S
C1695 H1699 0.930 . S
C1696 C1695 1.369 . S
C1696 C1705 1.429 . S
C1697 C1695 1.419 . S
C1697 C1698 1.363 . S
C1697 H1700 0.929 . S
C1698 C1697 1.363 . S
C1698 C1704 1.428 . S
H1699 C1695 0.930 . S
H1700 C1697 0.929 . S
S1701 N1702 1.613 . S
S1701 N1703 1.610 . S
N1702 S1701 1.613 . S
N1702 C1705 1.350 . S
N1703 S1701 1.610 . S
N1703 C1704 1.351 . S
C1704 C1698 1.428 . S
C1704 N1703 1.351 . S
C1704 C1705 1.434 . S
C1705 C1696 1.429 . S
C1705 N1702 1.350 . S
C1705 C1704 1.434 . S
C1706 C1707 1.369 . S
C1706 C1708 1.419 . S
C1706 H1710 0.930 . S
C1707 C1706 1.369 . S
C1707 C1716 1.429 . S
C1708 C1706 1.419 . S
C1708 C1709 1.363 . S
C1708 H1711 0.929 . S
C1709 C1708 1.363 . S
C1709 C1715 1.428 . S
H1710 C1706 0.930 . S
H1711 C1708 0.929 . S
S1712 N1713 1.613 . S
S1712 N1714 1.610 . S
N1713 S1712 1.613 . S
N1713 C1716 1.350 . S
N1714 S1712 1.610 . S
N1714 C1715 1.351 . S
C1715 C1709 1.428 . S
C1715 N1714 1.351 . S
C1715 C1716 1.434 . S
C1716 C1707 1.429 . S
C1716 N1713 1.350 . S
C1716 C1715 1.434 . S
C1717 C1718 1.369 . S
C1717 C1719 1.419 . S
C1717 H1721 0.930 . S
C1718 C1717 1.369 . S
C1718 C1727 1.429 . S
C1719 C1717 1.419 . S
C1719 C1720 1.363 . S
C1719 H1722 0.929 . S
C1720 C1719 1.363 . S
C1720 C1726 1.428 . S
H1721 C1717 0.930 . S
H1722 C1719 0.929 . S
S1723 N1724 1.613 . S
S1723 N1725 1.610 . S
N1724 S1723 1.613 . S
N1724 C1727 1.350 . S
N1725 S1723 1.610 . S
N1725 C1726 1.351 . S
C1726 C1720 1.428 . S
C1726 N1725 1.351 . S
C1726 C1727 1.434 . S
C1727 C1718 1.429 . S
C1727 N1724 1.350 . S
C1727 C1726 1.434 . S
C673 C400 1.193 . S
C675 C8 1.193 . S
C684 C22 1.193 . S
C686 C414 1.193 . S
C695 C428 1.191 . S
C697 C36 1.192 . S
C706 C50 1.192 . S
C708 C442 1.192 . S
C717 C344 1.195 . S
C719 C64 1.194 . S
C728 C78 1.194 . S
C730 C358 1.193 . S
C739 C372 1.195 . S
C741 C92 1.194 . S
C750 C106 1.194 . S
C752 C386 1.194 . S
C761 C540 1.190 . S
C763 C120 1.191 . S
C772 C554 1.193 . S
C774 C134 1.193 . S
C783 C512 1.191 . S
C785 C148 1.191 . S
C794 C162 1.190 . S
C796 C526 1.191 . S
C805 C484 1.192 . S
C807 C176 1.192 . S
C816 C498 1.191 . S
C818 C190 1.191 . S
C827 C204 1.195 . S
C829 C456 1.194 . S
C838 C470 1.193 . S
C840 C218 1.193 . S
C849 C232 1.190 . S
C851 C638 1.191 . S
C860 C610 1.192 . S
C862 C246 1.192 . S
C871 C624 1.190 . S
C873 C260 1.191 . S
C882 C582 1.191 . S
C884 C274 1.192 . S
C893 C596 1.195 . S
C895 C288 1.194 . S
C904 C302 1.191 . S
C906 C568 1.192 . S
C915 C316 1.190 . S
C917 C666 1.191 . S
C926 C652 1.195 . S
C928 C330 1.194 . S
C937 C105 1.443 . S
C939 C7 1.438 . S
C948 C63 1.432 . S
C950 C21 1.435 . S
C959 C77 1.446 . S
C961 C35 1.445 . S
C970 C91 1.433 . S
C972 C49 1.434 . S
C981 C287 1.437 . S
C983 C119 1.435 . S
C992 C245 1.445 . S
C994 C133 1.445 . S
C1003 C259 1.446 . S
C1005 C147 1.444 . S
C1014 C273 1.444 . S
C1016 C161 1.439 . S
C1025 C329 1.443 . S
C1027 C175 1.439 . S
C1036 C301 1.434 . S
C1038 C189 1.438 . S
C1047 C203 1.446 . S
C1049 C315 1.443 . S
C1058 C231 1.446 . S
C1060 C217 1.442 . S
C1069 C441 1.443 . S
C1071 C343 1.445 . S
C1080 C399 1.444 . S
C1082 C357 1.439 . S
C1091 C371 1.445 . S
C1093 C413 1.439 . S
C1102 C385 1.443 . S
C1104 C427 1.438 . S
C1113 C455 1.432 . S
C1115 C623 1.435 . S
C1124 C469 1.432 . S
C1126 C581 1.436 . S
C1135 C595 1.445 . S
C1137 C483 1.440 . S
C1146 C609 1.434 . S
C1148 C497 1.434 . S
C1157 C665 1.434 . S
C1159 C511 1.439 . S
C1168 C637 1.443 . S
C1170 C525 1.445 . S
C1179 C651 1.432 . S
C1181 C539 1.436 . S
C1190 C553 1.440 . S
C1192 C567 1.436 . S
C1201 C3 1.340 . S
C1203 C121 1.246 . S
C1212 C135 1.248 . S
C1214 C17 1.344 . S
C1223 C149 1.245 . S
C1225 C31 1.343 . S
C1234 C163 1.259 . S
C1236 C45 1.343 . S
C1245 C59 1.340 . S
C1247 C177 1.246 . S
C1256 C191 1.246 . S
C1258 C73 1.340 . S
C1267 C87 1.345 . S
C1269 C205 1.253 . S
C1278 C219 1.258 . S
C1280 C101 1.344 . S
C1289 C233 1.255 . S
C1291 C115 1.345 . S
C1300 C331 1.258 . S
C1302 C129 1.344 . S
C1311 C143 1.344 . S
C1313 C303 1.248 . S
C1322 C157 1.345 . S
C1324 C317 1.254 . S
C1333 C171 1.343 . S
C1335 C247 1.246 . S
C1344 C185 1.345 . S
C1346 C261 1.255 . S
C1355 C199 1.342 . S
C1357 C275 1.257 . S
C1366 C213 1.344 . S
C1368 C289 1.249 . S
C1377 C227 1.345 . S
C1379 C9 1.256 . S
C1388 C241 1.340 . S
C1390 C65 1.246 . S
C1399 C255 1.344 . S
C1401 C79 1.257 . S
C1410 C269 1.341 . S
C1412 C93 1.256 . S
C1421 C283 1.342 . S
C1423 C107 1.256 . S
C1432 C297 1.344 . S
C1434 C37 1.247 . S
C1443 C51 1.258 . S
C1445 C311 1.344 . S
C1454 C23 1.259 . S
C1456 C325 1.343 . S
C1465 C457 1.256 . S
C1467 C339 1.345 . S
C1476 C471 1.256 . S
C1478 C353 1.345 . S
C1487 C485 1.245 . S
C1489 C367 1.342 . S
C1498 C499 1.245 . S
C1500 C381 1.342 . S
C1509 C513 1.244 . S
C1511 C395 1.340 . S
C1520 C409 1.343 . S
C1522 C527 1.257 . S
C1531 C541 1.248 . S
C1533 C423 1.344 . S
C1542 C437 1.345 . S
C1544 C555 1.256 . S
C1553 C569 1.257 . S
C1555 C451 1.345 . S
C1564 C465 1.340 . S
C1566 C667 1.251 . S
C1575 C479 1.341 . S
C1577 C639 1.246 . S
C1586 C653 1.258 . S
C1588 C493 1.344 . S
C1597 C583 1.254 . S
C1599 C507 1.341 . S
C1608 C521 1.342 . S
C1610 C597 1.246 . S
C1619 C535 1.343 . S
C1621 C611 1.257 . S
C1630 C625 1.259 . S
C1632 C549 1.343 . S
C1641 C345 1.256 . S
C1643 C563 1.345 . S
C1652 C401 1.247 . S
C1654 C577 1.343 . S
C1663 C415 1.252 . S
C1665 C591 1.340 . S
C1674 C605 1.344 . S
C1676 C429 1.257 . S
C1685 C443 1.249 . S
C1687 C619 1.340 . S
C1696 C373 1.257 . S
C1698 C633 1.342 . S
C1707 C647 1.345 . S
C1709 C387 1.253 . S
C1718 C359 1.246 . S
C1720 C661 1.340 . S
