# Generated by pormake.
# Topology unb, (4)-cn, num edge types: 1
# Building blocks:
#     Node 0, Type 0, BuildingBlock: QUQFOY_clean_sbu_1, # of connection points: 4
#     Node 1, Type 0, BuildingBlock: QUQFOY_clean_sbu_1, # of connection points: 4
#     Node 2, Type 0, BuildingBlock: QUQFOY_clean_sbu_1, # of connection points: 4
#     Node 3, Type 0, BuildingBlock: QUQFOY_clean_sbu_1, # of connection points: 4
#     Node 4, Type 0, BuildingBlock: QUQFOY_clean_sbu_1, # of connection points: 4
#     Node 5, Type 0, BuildingBlock: QUQFOY_clean_sbu_1, # of connection points: 4
#     Node 6, Type 0, BuildingBlock: QUQFOY_clean_sbu_1, # of connection points: 4
#     Node 7, Type 0, BuildingBlock: QUQFOY_clean_sbu_1, # of connection points: 4
#     Node 8, Type 0, BuildingBlock: QUQFOY_clean_sbu_1, # of connection points: 4
#     Node 9, Type 0, BuildingBlock: QUQFOY_clean_sbu_1, # of connection points: 4
#     Node 10, Type 0, BuildingBlock: QUQFOY_clean_sbu_1, # of connection points: 4
#     Node 11, Type 0, BuildingBlock: QUQFOY_clean_sbu_1, # of connection points: 4
#     Node 12, Type 0, BuildingBlock: QUQFOY_clean_sbu_1, # of connection points: 4
#     Node 13, Type 0, BuildingBlock: QUQFOY_clean_sbu_1, # of connection points: 4
#     Node 14, Type 0, BuildingBlock: QUQFOY_clean_sbu_1, # of connection points: 4
#     Node 15, Type 0, BuildingBlock: QUQFOY_clean_sbu_1, # of connection points: 4
#     Node 16, Type 0, BuildingBlock: QUQFOY_clean_sbu_1, # of connection points: 4
#     Node 17, Type 0, BuildingBlock: QUQFOY_clean_sbu_1, # of connection points: 4
#     Edge 18, Type (0, 0), BuildingBlock: CIFDUS_clean_linker_0, # of connection points: 2
#     Edge 19, Type (0, 0), BuildingBlock: CIFDUS_clean_linker_0, # of connection points: 2
#     Edge 20, Type (0, 0), BuildingBlock: CIFDUS_clean_linker_0, # of connection points: 2
#     Edge 21, Type (0, 0), BuildingBlock: CIFDUS_clean_linker_0, # of connection points: 2
#     Edge 22, Type (0, 0), BuildingBlock: CIFDUS_clean_linker_0, # of connection points: 2
#     Edge 23, Type (0, 0), BuildingBlock: CIFDUS_clean_linker_0, # of connection points: 2
#     Edge 24, Type (0, 0), BuildingBlock: CIFDUS_clean_linker_0, # of connection points: 2
#     Edge 25, Type (0, 0), BuildingBlock: CIFDUS_clean_linker_0, # of connection points: 2
#     Edge 26, Type (0, 0), BuildingBlock: CIFDUS_clean_linker_0, # of connection points: 2
#     Edge 27, Type (0, 0), BuildingBlock: CIFDUS_clean_linker_0, # of connection points: 2
#     Edge 28, Type (0, 0), BuildingBlock: CIFDUS_clean_linker_0, # of connection points: 2
#     Edge 29, Type (0, 0), BuildingBlock: CIFDUS_clean_linker_0, # of connection points: 2
#     Edge 30, Type (0, 0), BuildingBlock: CIFDUS_clean_linker_0, # of connection points: 2
#     Edge 31, Type (0, 0), BuildingBlock: CIFDUS_clean_linker_0, # of connection points: 2
#     Edge 32, Type (0, 0), BuildingBlock: CIFDUS_clean_linker_0, # of connection points: 2
#     Edge 33, Type (0, 0), BuildingBlock: CIFDUS_clean_linker_0, # of connection points: 2
#     Edge 34, Type (0, 0), BuildingBlock: CIFDUS_clean_linker_0, # of connection points: 2
#     Edge 35, Type (0, 0), BuildingBlock: CIFDUS_clean_linker_0, # of connection points: 2
#     Edge 36, Type (0, 0), BuildingBlock: CIFDUS_clean_linker_0, # of connection points: 2
#     Edge 37, Type (0, 0), BuildingBlock: CIFDUS_clean_linker_0, # of connection points: 2
#     Edge 38, Type (0, 0), BuildingBlock: CIFDUS_clean_linker_0, # of connection points: 2
#     Edge 39, Type (0, 0), BuildingBlock: CIFDUS_clean_linker_0, # of connection points: 2
#     Edge 40, Type (0, 0), BuildingBlock: CIFDUS_clean_linker_0, # of connection points: 2
#     Edge 41, Type (0, 0), BuildingBlock: CIFDUS_clean_linker_0, # of connection points: 2
#     Edge 42, Type (0, 0), BuildingBlock: CIFDUS_clean_linker_0, # of connection points: 2
#     Edge 43, Type (0, 0), BuildingBlock: CIFDUS_clean_linker_0, # of connection points: 2
#     Edge 44, Type (0, 0), BuildingBlock: CIFDUS_clean_linker_0, # of connection points: 2
#     Edge 45, Type (0, 0), BuildingBlock: CIFDUS_clean_linker_0, # of connection points: 2
#     Edge 46, Type (0, 0), BuildingBlock: CIFDUS_clean_linker_0, # of connection points: 2
#     Edge 47, Type (0, 0), BuildingBlock: CIFDUS_clean_linker_0, # of connection points: 2
#     Edge 48, Type (0, 0), BuildingBlock: CIFDUS_clean_linker_0, # of connection points: 2
#     Edge 49, Type (0, 0), BuildingBlock: CIFDUS_clean_linker_0, # of connection points: 2
#     Edge 50, Type (0, 0), BuildingBlock: CIFDUS_clean_linker_0, # of connection points: 2
#     Edge 51, Type (0, 0), BuildingBlock: CIFDUS_clean_linker_0, # of connection points: 2
#     Edge 52, Type (0, 0), BuildingBlock: CIFDUS_clean_linker_0, # of connection points: 2
#     Edge 53, Type (0, 0), BuildingBlock: CIFDUS_clean_linker_0, # of connection points: 2
# Relax obj value: 0.079
# Max RMSD: 0.096
# Mean RMSD: 0.096
data_MOF--net-unb--node1-QUQFOY_clean_sbu_1--edge1-CIFDUS_clean_linker_0
_symmetry_space_group_name_H-M    P1
_symmetry_Int_Tables_number       1
_symmetry_cell_setting            triclinic
loop_
_symmetry_equiv_pos_as_xyz
'x, y, z'
_cell_length_a     57.33252
_cell_length_b     57.027631
_cell_length_c     24.652264
_cell_angle_alpha  90.02615
_cell_angle_beta   90.157171
_cell_angle_gamma 119.84877
loop_
_atom_site_label
_atom_site_type_symbol
_atom_site_fract_x
_atom_site_fract_y
_atom_site_fract_z
_atom_type_partial_charge
O0 O 0.17624 0.27308 0.07998 0.0
Cd1 Cd 0.15756 0.29521 0.09838 0.0
Cd2 Cd 0.11237 0.24827 0.05083 0.0
O3 O 0.13945 0.23503 0.05794 0.0
O4 O 0.1802 0.32373 0.1521 0.0
O5 O 0.13937 0.28997 0.17061 0.0
C6 C 0.16082 0.31162 0.18628 0.0
C7 C 0.06742 0.21508 0.03689 0.0
C8 C 0.16471 0.24837 0.06558 0.0
C9 C 0.13662 0.30341 0.99488 0.0
O10 O 0.12116 0.27805 0.99562 0.0
O11 O 0.15218 0.31543 0.03459 0.0
O12 O 0.08585 0.21919 1.00265 0.0
O13 O 0.07463 0.22859 0.08169 0.0
O14 O 0.70923 0.90619 0.08427 0.0
Cd15 Cd 0.69087 0.86554 0.10443 0.0
Cd16 Cd 0.7367 0.86973 0.0607 0.0
O17 O 0.7484 0.90993 0.06357 0.0
O18 O 0.66574 0.85735 0.16668 0.0
O19 O 0.70346 0.85555 0.1721 0.0
C20 C 0.68223 0.85324 0.19544 0.0
C21 C 0.76968 0.85702 0.06151 0.0
C22 C 0.7336 0.92051 0.06941 0.0
C23 C 0.68371 0.83677 1.00107 0.0
O24 O 0.70912 0.84828 1.00204 0.0
O25 O 0.67104 0.83883 0.04134 0.0
O26 O 0.76772 0.87086 0.02254 0.0
O27 O 0.75402 0.85183 0.10269 0.0
O28 O 0.07543 0.7963 0.08269 0.0
Cd29 Cd 0.1161 0.81532 0.10121 0.0
Cd30 Cd 0.11486 0.86127 0.0565 0.0
O31 O 0.07476 0.83354 0.06076 0.0
O32 O 0.12277 0.79384 0.15642 0.0
O33 O 0.1292 0.83495 0.17224 0.0
C34 C 0.13 0.81392 0.1893 0.0
C35 C 0.12596 0.90637 0.04424 0.0
C36 C 0.06262 0.80811 0.06782 0.0
C37 C 0.14632 0.83792 0.99977 0.0
O38 O 0.13691 0.85379 1.00179 0.0
O39 O 0.14172 0.82112 0.03766 0.0
O40 O 0.11217 0.88801 1.00914 0.0
O41 O 0.13203 0.89895 0.08901 0.0
O42 O 0.2524 0.17235 0.95314 0.0
Cd43 Cd 0.27812 0.1573 0.93921 0.0
Cd44 Cd 0.23436 0.1119 0.99178 0.0
O45 O 0.21612 0.13411 0.97565 0.0
O46 O 0.30261 0.18029 0.88018 0.0
O47 O 0.27581 0.13605 0.87192 0.0
C48 C 0.29346 0.15876 0.85079 0.0
C49 C 0.20533 0.066 1.00883 0.0
C50 C 0.2276 0.1592 0.96534 0.0
C51 C 0.28953 0.1444 0.0478 0.0
O52 O 0.26467 0.1271 0.0481 0.0
O53 O 0.3006 0.15811 1.00542 0.0
O54 O 0.2072 0.08441 0.04135 0.0
O55 O 0.21915 0.0735 0.96467 0.0
O56 O 0.8009 0.08399 0.95235 0.0
Cd57 Cd 0.81934 0.12504 0.93529 0.0
Cd58 Cd 0.86361 0.12387 0.98325 0.0
O59 O 0.83906 0.08392 0.96483 0.0
O60 O 0.80078 0.13185 0.87345 0.0
O61 O 0.84204 0.13794 0.86805 0.0
C62 C 0.82199 0.13839 0.84488 0.0
C63 C 0.90882 0.13735 0.99858 0.0
C64 C 0.81367 0.07128 0.95947 0.0
C65 C 0.83659 0.15134 0.04183 0.0
O66 O 0.85151 0.14081 0.04202 0.0
O67 O 0.82321 0.15004 0.99964 0.0
O68 O 0.89022 0.12098 0.03054 0.0
O69 O 0.90178 0.14516 0.95553 0.0
O70 O 0.89945 0.72236 0.95213 0.0
Cd71 Cd 0.85875 0.70004 0.93436 0.0
Cd72 Cd 0.86 0.74628 0.97642 0.0
O73 O 0.90026 0.76115 0.96446 0.0
O74 O 0.85263 0.67096 0.88175 0.0
O75 O 0.84558 0.70486 0.86181 0.0
C76 C 0.84533 0.68299 0.847 0.0
C77 C 0.84487 0.77752 0.97719 0.0
C78 C 0.91244 0.74775 0.96039 0.0
C79 C 0.832 0.69353 0.03939 0.0
O80 O 0.84241 0.71901 0.03802 0.0
O81 O 0.83375 0.68081 0.9988 0.0
O82 O 0.86043 0.77725 1.01442 0.0
O83 O 0.83877 0.7608 0.93728 0.0
O84 O 0.84044 0.60433 0.42623 0.0
Cd85 Cd 0.82526 0.62964 0.44483 0.0
Cd86 Cd 0.77845 0.58612 0.40355 0.0
O87 O 0.80085 0.5676 0.41473 0.0
O88 O 0.84902 0.65724 0.49894 0.0
O89 O 0.80697 0.62569 0.51642 0.0
C90 C 0.8292 0.64637 0.53249 0.0
C91 C 0.73187 0.55792 0.40013 0.0
C92 C 0.82628 0.57899 0.41801 0.0
C93 C 0.80638 0.63903 0.3408 0.0
O94 O 0.78979 0.6139 0.34233 0.0
O95 O 0.82162 0.65082 0.38102 0.0
O96 O 0.74738 0.55719 0.3636 0.0
O97 O 0.74282 0.57378 0.44112 0.0
O98 O 0.38451 0.2417 0.43478 0.0
Cd99 Cd 0.35948 0.20145 0.45443 0.0
Cd100 Cd 0.40277 0.19939 0.40358 0.0
O101 O 0.42052 0.24055 0.40723 0.0
O102 O 0.33435 0.20323 0.50801 0.0
O103 O 0.3603 0.18589 0.52785 0.0
C104 C 0.34278 0.19246 0.54326 0.0
C105 C 0.43101 0.18079 0.39849 0.0
C106 C 0.4085 0.2537 0.41707 0.0
C107 C 0.3475 0.17378 0.34859 0.0
O108 O 0.3724 0.18152 0.34808 0.0
O109 O 0.33673 0.17759 0.3902 0.0
O110 O 0.4298 0.19542 0.3603 0.0
O111 O 0.41708 0.17761 0.44166 0.0
O112 O 0.74553 0.14625 0.42747 0.0
Cd113 Cd 0.78599 0.16646 0.4482 0.0
Cd114 Cd 0.78367 0.20882 0.40074 0.0
O115 O 0.74322 0.1826 0.40571 0.0
O116 O 0.79242 0.14726 0.50937 0.0
O117 O 0.79705 0.18808 0.51745 0.0
C118 C 0.79776 0.16787 0.5395 0.0
C119 C 0.79887 0.25523 0.40064 0.0
C120 C 0.7319 0.15717 0.4123 0.0
C121 C 0.81335 0.18451 0.34289 0.0
O122 O 0.80277 0.19941 0.34217 0.0
O123 O 0.81166 0.17091 0.38503 0.0
O124 O 0.78443 0.23973 0.36186 0.0
O125 O 0.80362 0.24422 0.44175 0.0
O126 O 0.92842 0.51836 0.28248 0.0
Cd127 Cd 0.95124 0.50013 0.26675 0.0
Cd128 Cd 0.90707 0.45696 0.3168 0.0
O129 O 0.89181 0.48256 0.31262 0.0
O130 O 0.97633 0.52201 0.20739 0.0
O131 O 0.94668 0.47841 0.19884 0.0
C132 C 0.96545 0.5005 0.17769 0.0
C133 C 0.87656 0.41047 0.31844 0.0
C134 C 0.90459 0.50754 0.30091 0.0
C135 C 0.96168 0.48391 0.37374 0.0
O136 O 0.93663 0.46731 0.3735 0.0
O137 O 0.97301 0.49863 0.33255 0.0
O138 O 0.87815 0.42611 0.35746 0.0
O139 O 0.89151 0.42133 0.2765 0.0
O140 O 0.47313 0.41011 0.27413 0.0
Cd141 Cd 0.48423 0.44943 0.25275 0.0
Cd142 Cd 0.53213 0.45638 0.29901 0.0
O143 O 0.51335 0.41534 0.28998 0.0
O144 O 0.45653 0.44525 0.19843 0.0
O145 O 0.49998 0.46548 0.17958 0.0
C146 C 0.47562 0.45721 0.1636 0.0
C147 C 0.57901 0.47851 0.30535 0.0
C148 C 0.48811 0.40021 0.28559 0.0
C149 C 0.49847 0.47678 0.35781 0.0
O150 O 0.51676 0.47044 0.35741 0.0
O151 O 0.48379 0.47278 0.31622 0.0
O152 O 0.56385 0.46228 0.34226 0.0
O153 O 0.56765 0.48163 0.26288 0.0
O154 O 0.57478 0.06355 0.27372 0.0
Cd155 Cd 0.53556 0.03563 0.2524 0.0
Cd156 Cd 0.52835 0.07715 0.29868 0.0
O157 O 0.56926 0.09848 0.29082 0.0
O158 O 0.53939 0.0118 0.19806 0.0
O159 O 0.51951 0.03561 0.17914 0.0
C160 C 0.52756 0.01922 0.16316 0.0
C161 C 0.50734 0.10331 0.30488 0.0
C162 C 0.58446 0.08836 0.2859 0.0
C163 C 0.50766 0.02275 0.35692 0.0
O164 O 0.51361 0.04734 0.3563 0.0
O165 O 0.51229 0.01217 0.31592 0.0
O166 O 0.52311 0.10354 0.34211 0.0
O167 O 0.50397 0.08879 0.26229 0.0
O168 O 0.50723 0.9281 0.75066 0.0
Cd169 Cd 0.49291 0.95441 0.76603 0.0
Cd170 Cd 0.44726 0.91205 0.71802 0.0
O171 O 0.46842 0.89229 0.72915 0.0
O172 O 0.51581 0.97872 0.82575 0.0
O173 O 0.47177 0.95184 0.83323 0.0
C174 C 0.49436 0.96947 0.85487 0.0
C175 C 0.40052 0.88473 0.71396 0.0
C176 C 0.4935 0.90323 0.73791 0.0
C177 C 0.47899 0.96589 0.65838 0.0
O178 O 0.46117 0.94107 0.65887 0.0
O179 O 0.49341 0.97699 0.70011 0.0
O180 O 0.41582 0.88428 0.67657 0.0
O181 O 0.41173 0.90022 0.75534 0.0
O182 O 0.05709 0.5796 0.7593 0.0
Cd183 Cd 0.03004 0.53995 0.78008 0.0
Cd184 Cd 0.07239 0.53393 0.73424 0.0
O185 O 0.09242 0.57501 0.7426 0.0
O186 O 0.00583 0.54321 0.83389 0.0
O187 O 0.03041 0.52427 0.85353 0.0
C188 C 0.01369 0.53187 0.8691 0.0
C189 C 0.10016 0.51483 0.72711 0.0
C190 C 0.08184 0.58983 0.74757 0.0
C191 C 0.01803 0.51147 0.67555 0.0
O192 O 0.04265 0.51803 0.67659 0.0
O193 O 0.00724 0.51605 0.71616 0.0
O194 O 0.09932 0.53019 0.69013 0.0
O195 O 0.08572 0.51073 0.76988 0.0
O196 O 0.4047 0.47748 0.75066 0.0
Cd197 Cd 0.445 0.49144 0.76675 0.0
Cd198 Cd 0.44901 0.53743 0.72008 0.0
O199 O 0.40829 0.51686 0.73069 0.0
O200 O 0.44614 0.46846 0.82659 0.0
O201 O 0.46362 0.51282 0.83395 0.0
C202 C 0.45849 0.49011 0.85566 0.0
C203 C 0.46944 0.58451 0.71731 0.0
C204 C 0.39393 0.49161 0.73839 0.0
C205 C 0.47023 0.5051 0.65959 0.0
O206 O 0.46349 0.52317 0.66033 0.0
O207 O 0.46688 0.49061 0.70119 0.0
O208 O 0.45345 0.56951 0.6797 0.0
O209 O 0.47334 0.57281 0.7583 0.0
O210 O 0.60343 0.84914 0.6145 0.0
Cd211 Cd 0.62368 0.82874 0.59404 0.0
Cd212 Cd 0.57902 0.78597 0.63656 0.0
O213 O 0.56477 0.81238 0.63181 0.0
O214 O 0.64868 0.84706 0.5322 0.0
O215 O 0.61228 0.80649 0.52585 0.0
C216 C 0.63301 0.82627 0.50293 0.0
C217 C 0.54806 0.73973 0.63522 0.0
C218 C 0.57869 0.83791 0.62733 0.0
C219 C 0.63185 0.80856 0.69778 0.0
O220 O 0.6065 0.79396 0.69666 0.0
O221 O 0.64429 0.82307 0.65712 0.0
O222 O 0.54874 0.75509 0.67396 0.0
O223 O 0.56393 0.75084 0.5946 0.0
O224 O 0.13721 0.7523 0.61352 0.0
Cd225 Cd 0.15701 0.79296 0.5935 0.0
Cd226 Cd 0.2001 0.78968 0.63284 0.0
O227 O 0.17364 0.74914 0.62681 0.0
O228 O 0.13446 0.79949 0.5408 0.0
O229 O 0.17429 0.80439 0.52023 0.0
C230 C 0.15312 0.80534 0.50547 0.0
C231 C 0.24615 0.80501 0.63011 0.0
C232 C 0.1482 0.73818 0.62425 0.0
C233 C 0.17886 0.8202 0.69743 0.0
O234 O 0.19273 0.80857 0.69513 0.0
O235 O 0.16445 0.81917 0.65733 0.0
O236 O 0.23117 0.78962 0.66824 0.0
O237 O 0.23473 0.81029 0.59053 0.0
O238 O 0.23113 0.38289 0.60989 0.0
Cd239 Cd 0.19058 0.36197 0.58999 0.0
Cd240 Cd 0.19327 0.40853 0.63129 0.0
O241 O 0.23356 0.42213 0.62615 0.0
O242 O 0.18399 0.33299 0.53679 0.0
O243 O 0.17851 0.3679 0.51719 0.0
C244 C 0.17755 0.34572 0.50203 0.0
C245 C 0.17883 0.44025 0.63202 0.0
C246 C 0.24483 0.40786 0.62214 0.0
C247 C 0.16262 0.3559 0.6933 0.0
O248 O 0.17368 0.38139 0.69163 0.0
O249 O 0.1646 0.34289 0.65348 0.0
O250 O 0.19388 0.4394 0.66966 0.0
O251 O 0.17342 0.42431 0.59096 0.0
H252 H 0.18895 0.37467 0.40897 0.0
H253 H 0.14939 0.29319 0.47051 0.0
H254 H 0.13842 0.27528 0.37802 0.0
H255 H 0.14218 0.28281 0.27921 0.0
H256 H 0.18636 0.3642 0.21777 0.0
H257 H 0.19336 0.38219 0.31019 0.0
C258 C 0.17769 0.35302 0.40196 0.0
C259 C 0.1698 0.33524 0.44625 0.0
C260 C 0.17241 0.34289 0.34862 0.0
C261 C 0.15566 0.30722 0.43686 0.0
C262 C 0.14939 0.29699 0.38405 0.0
C263 C 0.15308 0.30447 0.28622 0.0
C264 C 0.16359 0.3222 0.24198 0.0
C265 C 0.15794 0.31462 0.33956 0.0
C266 C 0.17811 0.3502 0.25138 0.0
C267 C 0.18211 0.36049 0.30415 0.0
H268 H 0.68118 0.84933 0.45133 0.0
H269 H 0.59572 0.80274 0.42273 0.0
H270 H 0.6033 0.80645 0.32467 0.0
H271 H 0.63425 0.82535 0.24697 0.0
H272 H 0.71983 0.86864 0.27547 0.0
H273 H 0.7123 0.86369 0.37352 0.0
C274 C 0.66427 0.8398 0.42353 0.0
C275 C 0.63793 0.82601 0.4441 0.0
C276 C 0.66883 0.84152 0.36723 0.0
C277 C 0.61618 0.81342 0.4078 0.0
C278 C 0.6205 0.81565 0.35175 0.0
C279 C 0.65121 0.83346 0.27474 0.0
C280 C 0.67754 0.84756 0.25417 0.0
C281 C 0.64672 0.83 0.331 0.0
C282 C 0.69938 0.85767 0.29041 0.0
C283 C 0.69508 0.85495 0.34645 0.0
H284 H 0.16888 0.79154 0.41313 0.0
H285 H 0.12879 0.83334 0.47242 0.0
H286 H 0.12013 0.84191 0.37928 0.0
H287 H 0.12176 0.83525 0.28082 0.0
H288 H 0.15722 0.78886 0.22233 0.0
H289 H 0.16997 0.78436 0.31488 0.0
C290 C 0.15855 0.8028 0.40546 0.0
C291 C 0.14965 0.812 0.44928 0.0
C292 C 0.15267 0.80665 0.3519 0.0
C293 C 0.13582 0.8261 0.43911 0.0
C294 C 0.13085 0.83098 0.38594 0.0
C295 C 0.13251 0.82441 0.28847 0.0
C296 C 0.13869 0.81252 0.24503 0.0
C297 C 0.13886 0.82103 0.342 0.0
C298 C 0.15222 0.79812 0.25531 0.0
C299 C 0.15953 0.79557 0.30815 0.0
H300 H 0.33237 0.15143 0.61405 0.0
H301 H 0.33271 0.22696 0.5997 0.0
H302 H 0.31856 0.2237 0.69399 0.0
H303 H 0.30598 0.1995 0.78059 0.0
H304 H 0.30066 0.12166 0.79373 0.0
H305 H 0.31671 0.1255 0.70012 0.0
C306 C 0.32934 0.16711 0.6318 0.0
C307 C 0.33374 0.18949 0.60021 0.0
C308 C 0.32028 0.16465 0.68576 0.0
C309 C 0.32939 0.20952 0.62324 0.0
C310 C 0.32135 0.20771 0.67717 0.0
C311 C 0.3084 0.18342 0.76293 0.0
C312 C 0.30246 0.16048 0.79401 0.0
C313 C 0.31674 0.1854 0.7088 0.0
C314 C 0.30516 0.13953 0.77046 0.0
C315 C 0.31438 0.14176 0.71704 0.0
H316 H 0.82445 0.14556 0.58914 0.0
H317 H 0.78242 0.18912 0.62148 0.0
H318 H 0.78642 0.18422 0.71923 0.0
H319 H 0.79969 0.16519 0.79553 0.0
H320 H 0.84543 0.12543 0.76339 0.0
H321 H 0.8424 0.13132 0.66572 0.0
C322 C 0.81641 0.15418 0.61771 0.0
C323 C 0.80294 0.16746 0.59827 0.0
C324 C 0.81939 0.15187 0.67384 0.0
C325 C 0.79292 0.17886 0.63555 0.0
C326 C 0.79509 0.17595 0.69141 0.0
C327 C 0.80918 0.15806 0.76705 0.0
C328 C 0.82254 0.14467 0.78647 0.0
C329 C 0.80794 0.16215 0.71103 0.0
C330 C 0.83508 0.13583 0.74934 0.0
C331 C 0.83324 0.13909 0.69351 0.0
H332 H 0.85783 0.71124 0.75304 0.0
H333 H 0.81609 0.6303 0.81717 0.0
H334 H 0.80516 0.61169 0.72513 0.0
H335 H 0.80955 0.61843 0.62604 0.0
H336 H 0.85613 0.69913 0.56238 0.0
H337 H 0.86308 0.71793 0.65411 0.0
C338 C 0.84609 0.68956 0.74666 0.0
C339 C 0.83754 0.67212 0.79151 0.0
C340 C 0.84091 0.67901 0.69364 0.0
C341 C 0.82282 0.64405 0.78303 0.0
C342 C 0.81659 0.63343 0.73049 0.0
C343 C 0.82098 0.64012 0.63243 0.0
C344 C 0.83217 0.65743 0.58778 0.0
C345 C 0.82582 0.65069 0.68544 0.0
C346 C 0.84737 0.68547 0.59635 0.0
C347 C 0.85133 0.69621 0.64871 0.0
H348 H 0.97984 0.54168 0.1076 0.0
H349 H 0.96943 0.46167 0.11985 0.0
H350 H -0.01536 0.46451 0.02581 0.0
H351 H 0.00112 0.49022 0.93966 0.0
H352 H 0.00646 0.56813 0.92614 0.0
H353 H -0.00693 0.56575 0.02082 0.0
C354 C 0.98097 0.5249 0.08963 0.0
C355 C 0.97385 0.50164 0.12061 0.0
C356 C -0.01118 0.52635 0.03524 0.0
C357 C 0.97486 0.4798 0.09668 0.0
C358 C 0.9836 0.48146 0.04301 0.0
C359 C -0.00066 0.50661 0.95767 0.0
C360 C 0.00495 0.52941 0.92622 0.0
C361 C -0.00931 0.50469 1.01184 0.0
C362 C 0.00219 0.55036 0.94958 0.0
C363 C -0.0054 0.54905 1.00373 0.0
H364 H 0.50491 0.49858 0.09304 0.0
H365 H 0.43176 0.42182 0.10665 0.0
H366 H 0.42055 0.42479 1.01225 0.0
H367 H 0.43136 0.44907 0.92574 0.0
H368 H 0.50187 0.52791 0.91328 0.0
H369 H 0.51432 0.52444 1.00707 0.0
C370 C 0.48657 0.48255 0.07512 0.0
C371 C 0.46926 0.45992 0.10655 0.0
C372 C 0.47979 0.48481 0.02108 0.0
C373 C 0.44536 0.43945 0.08326 0.0
C374 C 0.43896 0.4411 0.02926 0.0
C375 C 0.44949 0.46546 0.94357 0.0
C376 C 0.46584 0.48857 0.91261 0.0
C377 C 0.456 0.46365 0.9978 0.0
C378 C 0.48899 0.5099 0.93642 0.0
C379 C 0.49612 0.50788 0.98996 0.0
H380 H 0.48629 0.00754 0.09239 0.0
H381 H 0.56269 0.01046 0.10624 0.0
H382 H 0.55962 -0.00363 1.01175 0.0
H383 H 0.53534 0.98313 0.92508 0.0
H384 H 0.45685 0.97542 0.91239 0.0
H385 H 0.46044 -0.00868 1.00624 0.0
C386 C 0.50222 0.0051 0.0745 0.0
C387 C 0.52478 0.0102 0.10604 0.0
C388 C 0.4999 -0.0039 0.0204 0.0
C389 C 0.54511 0.00659 0.08278 0.0
C390 C 0.54341 -0.0014 0.02872 0.0
C391 C 0.51906 0.98501 0.94288 0.0
C392 C 0.496 0.97842 0.91183 0.0
C393 C 0.52093 -0.0067 0.99716 0.0
C394 C 0.47482 0.98042 0.9356 0.0
C395 C 0.4769 0.98956 0.98917 0.0
H396 H 0.11699 0.28107 0.89684 0.0
H397 H 0.16146 0.35817 0.97824 0.0
H398 H 0.17019 0.38134 0.89082 0.0
H399 H 0.1695 0.37919 0.79181 0.0
H400 H 0.12901 0.30178 0.71051 0.0
H401 H 0.11411 0.27905 0.79813 0.0
C402 C 0.12824 0.30299 0.89576 0.0
C403 C 0.13872 0.31792 0.94398 0.0
C404 C 0.13404 0.316 0.84549 0.0
C405 C 0.15331 0.34626 0.94167 0.0
C406 C 0.15835 0.35947 0.89175 0.0
C407 C 0.15703 0.35735 0.79306 0.0
C408 C 0.15044 0.34213 0.74475 0.0
C409 C 0.14947 0.34447 0.84342 0.0
C410 C 0.13444 0.31389 0.74715 0.0
C411 C 0.12598 0.30093 0.79718 0.0
H412 H 0.60907 0.79113 0.79622 0.0
H413 H 0.68615 0.83191 0.71608 0.0
H414 H 0.70887 0.84094 0.80415 0.0
H415 H 0.70661 0.84141 0.90301 0.0
H416 H 0.6295 0.80454 0.9831 0.0
H417 H 0.60685 0.78945 0.8952 0.0
C418 C 0.63087 0.80164 0.79776 0.0
C419 C 0.64594 0.81096 0.74957 0.0
C420 C 0.64369 0.80758 0.8484 0.0
C421 C 0.67412 0.82464 0.75252 0.0
C422 C 0.68708 0.82984 0.80284 0.0
C423 C 0.68483 0.8297 0.90155 0.0
C424 C 0.66972 0.82419 0.94964 0.0
C425 C 0.67203 0.82203 0.85097 0.0
C426 C 0.64155 0.80912 0.94674 0.0
C427 C 0.62863 0.80058 0.89651 0.0
H428 H 0.14648 0.861 0.90409 0.0
H429 H 0.17563 0.81258 0.98176 0.0
H430 H 0.19195 0.80634 0.89433 0.0
H431 H 0.19298 0.81024 0.79559 0.0
H432 H 0.1594 0.85457 0.71728 0.0
H433 H 0.14995 0.86717 0.80602 0.0
C434 C 0.15679 0.84941 0.90225 0.0
C435 C 0.1597 0.83709 0.94934 0.0
C436 C 0.16509 0.84507 0.85182 0.0
C437 C 0.17301 0.82211 0.94605 0.0
C438 C 0.18227 0.81851 0.89612 0.0
C439 C 0.18403 0.82308 0.79779 0.0
C440 C 0.17676 0.83139 0.74993 0.0
C441 C 0.17769 0.82924 0.84864 0.0
C442 C 0.16503 0.84784 0.75355 0.0
C443 C 0.15958 0.85495 0.8042 0.0
H444 H 0.36817 0.18016 0.24799 0.0
H445 H 0.29276 0.14473 0.33423 0.0
H446 H 0.26832 0.13089 0.24783 0.0
H447 H 0.26866 0.13123 0.14858 0.0
H448 H 0.34417 0.1698 0.06253 0.0
H449 H 0.36853 0.18013 0.14892 0.0
C450 C 0.34636 0.16909 0.24811 0.0
C451 C 0.33224 0.16331 0.29752 0.0
C452 C 0.33259 0.16201 0.19853 0.0
C453 C 0.30403 0.14936 0.29678 0.0
C454 C 0.29011 0.14152 0.24745 0.0
C455 C 0.29047 0.14167 0.14855 0.0
C456 C 0.30465 0.14968 0.09917 0.0
C457 C 0.30422 0.14809 0.19818 0.0
C458 C 0.33285 0.16349 0.09996 0.0
C459 C 0.34673 0.16936 0.14928 0.0
H460 H 0.85317 0.14632 0.1419 0.0
H461 H 0.81296 0.18249 0.05701 0.0
H462 H 0.80514 0.19863 0.14331 0.0
H463 H 0.80666 0.19928 0.24238 0.0
H464 H 0.84366 0.15998 0.32767 0.0
H465 H 0.8562 0.14848 0.24096 0.0
C466 C 0.84294 0.15799 0.14202 0.0
C467 C 0.83357 0.16314 0.09298 0.0
C468 C 0.83793 0.16655 0.19172 0.0
C469 C 0.82025 0.17816 0.09412 0.0
C470 C 0.81579 0.18737 0.14343 0.0
C471 C 0.81783 0.18854 0.24224 0.0
C472 C 0.82421 0.18047 0.29156 0.0
C473 C 0.82412 0.18124 0.19245 0.0
C474 C 0.83849 0.16638 0.29038 0.0
C475 C 0.84556 0.15974 0.24083 0.0
H476 H 0.83981 0.71606 0.13898 0.0
H477 H 0.79935 0.63922 0.05566 0.0
H478 H 0.78533 0.61579 0.14276 0.0
H479 H 0.78822 0.61711 0.24173 0.0
H480 H 0.83201 0.69377 0.32486 0.0
H481 H 0.84098 0.71747 0.23808 0.0
C482 C 0.82756 0.69419 0.13973 0.0
C483 C 0.82066 0.67935 0.09096 0.0
C484 C 0.8204 0.68091 0.18977 0.0
C485 C 0.805 0.65105 0.09268 0.0
C486 C 0.79703 0.63768 0.14241 0.0
C487 C 0.79941 0.63904 0.24106 0.0
C488 C 0.80953 0.6537 0.28963 0.0
C489 C 0.80518 0.6524 0.19112 0.0
C490 C 0.82414 0.68206 0.28798 0.0
C491 C 0.82928 0.69558 0.23843 0.0
H492 H 0.94034 0.46974 0.47388 0.0
H493 H 0.01624 0.50777 0.38928 0.0
H494 H 0.04016 0.5174 0.47619 0.0
H495 H 0.03932 0.51754 0.5755 0.0
H496 H 0.96345 0.48303 0.65981 0.0
H497 H 0.93947 0.46927 0.57296 0.0
C498 C 0.96213 0.47983 0.47424 0.0
C499 C 0.97654 0.48795 0.42513 0.0
C500 C 0.97563 0.48602 0.52413 0.0
C501 C 0.00474 0.50134 0.42649 0.0
C502 C 0.01837 0.50685 0.47611 0.0
C503 C 0.01751 0.50669 0.57503 0.0
C504 C 0.00312 0.50118 0.62406 0.0
C505 C 0.00399 0.49965 0.5251 0.0
C506 C 0.97492 0.4875 0.62265 0.0
C507 C 0.96126 0.47967 0.57306 0.0
H508 H 0.4617 0.51815 0.55913 0.0
H509 H 0.49946 0.47957 0.64415 0.0
H510 H 0.51308 0.46918 0.55744 0.0
H511 H 0.51246 0.46943 0.45824 0.0
H512 H 0.4717 0.5049 0.37308 0.0
H513 H 0.46103 0.51835 0.45979 0.0
C514 C 0.47316 0.50771 0.5588 0.0
C515 C 0.47974 0.49976 0.60798 0.0
C516 C 0.48023 0.50122 0.509 0.0
C517 C 0.49419 0.48587 0.60684 0.0
C518 C 0.50195 0.47995 0.55734 0.0
C519 C 0.50148 0.48037 0.4585 0.0
C520 C 0.49301 0.48635 0.4093 0.0
C521 C 0.49484 0.48731 0.50827 0.0
C522 C 0.47843 0.50011 0.41041 0.0
C523 C 0.47234 0.50777 0.4599 0.0
H524 H 0.46633 0.94439 0.55775 0.0
H525 H 0.50384 0.02068 0.64317 0.0
H526 H 0.51414 0.04478 0.55653 0.0
H527 H 0.51423 0.044 0.45732 0.0
H528 H 0.47995 0.96782 0.37188 0.0
H529 H 0.46641 0.94362 0.45842 0.0
C530 C 0.47652 0.96631 0.55753 0.0
C531 C 0.4842 0.98079 0.6068 0.0
C532 C 0.48298 0.97992 0.50778 0.0
C533 C 0.49775 0.00914 0.60578 0.0
C534 C 0.50362 0.02287 0.55633 0.0
C535 C 0.50351 0.02207 0.45747 0.0
C536 C 0.49791 0.00766 0.40824 0.0
C537 C 0.49655 0.00844 0.50718 0.0
C538 C 0.48445 0.97931 0.40923 0.0
C539 C 0.47675 0.96552 0.45863 0.0
H540 H 0.14608 0.19788 0.02594 0.0
H541 H 0.21953 0.27009 0.07146 0.0
H542 H 0.24576 0.24965 0.03953 0.0
H543 H 0.24762 0.211 0.99927 0.0
H544 H 0.17375 0.13885 0.95608 0.0
H545 H 0.14785 0.15995 0.98532 0.0
C546 C 0.16783 0.2092 0.02931 0.0
C547 C 0.18079 0.23547 0.05135 0.0
C548 C 0.18271 0.19752 1.01038 0.0
C549 C 0.20901 0.24977 0.05502 0.0
C550 C 0.22403 0.23818 0.0364 0.0
C551 C 0.22589 0.20014 0.99534 0.0
C552 C 0.21257 0.17351 0.97515 0.0
C553 C 0.21108 0.21212 1.01371 0.0
C554 C 0.1844 0.15941 0.97128 0.0
C555 C 0.16959 0.17138 0.98832 0.0
H556 H 0.76467 0.04021 1.00635 0.0
H557 H 0.83143 0.03677 0.9343 0.0
H558 H 0.81254 0.98993 0.963 0.0
H559 H 0.77894 0.95118 1.01275 0.0
H560 H 0.71186 0.95343 0.08637 0.0
H561 H 0.72923 -0.00024 0.05352 0.0
C562 C 0.77469 0.02894 0.99597 0.0
C563 C 0.79934 0.04182 0.96813 0.0
C564 C 0.76404 0.00212 1.01391 0.0
C565 C 0.81242 0.02722 0.95566 0.0
C566 C 0.80174 0.00053 0.97236 0.0
C567 C 0.76811 0.96177 0.02208 0.0
C568 C 0.74432 0.94897 0.05266 0.0
C569 C 0.77795 0.98804 1.00255 0.0
C570 C 0.73037 0.96292 0.06336 0.0
C571 C 0.74022 0.98934 0.04433 0.0
H572 H 0.94192 0.72641 1.00198 0.0
H573 H 0.94797 0.80092 0.9457 0.0
H574 H -0.00538 0.826 0.97585 0.0
H575 H 0.03282 0.82718 0.02082 0.0
H576 H 0.02794 0.75338 0.07843 0.0
H577 H 0.98139 0.7276 0.04593 0.0
C578 C 0.95365 0.74806 0.9955 0.0
C579 C 0.94158 0.76181 0.97147 0.0
C580 C 0.98038 0.76251 1.0141 0.0
C581 C 0.95683 0.78991 0.96407 0.0
C582 C 0.98344 0.80428 0.98156 0.0
C583 C 0.02164 0.80547 0.02675 0.0
C584 C 0.03385 0.79228 0.05246 0.0
C585 C -0.00477 0.79086 1.00739 0.0
C586 C 0.01898 0.76408 0.05913 0.0
C587 C -0.00757 0.74932 0.04025 0.0
H588 H 0.8364 0.7967 0.07052 0.0
H589 H 0.82589 0.79679 0.89717 0.0
H590 H 0.80386 0.82388 0.90846 0.0
H591 H 0.78558 0.84523 0.96789 0.0
H592 H 0.79188 0.84107 0.14164 0.0
H593 H 0.81789 0.81791 0.13007 0.0
C594 C 0.82956 0.80293 0.03516 0.0
C595 C 0.83289 0.795 0.98301 0.0
C596 C 0.81617 0.81764 0.04218 0.0
C597 C 0.82352 0.80272 0.93763 0.0
C598 C 0.81097 0.81818 0.94411 0.0
C599 C 0.79298 0.83959 1.00325 0.0
C600 C 0.78713 0.84504 0.05558 0.0
C601 C 0.80693 0.82545 0.99622 0.0
C602 C 0.79628 0.83714 0.10103 0.0
C603 C 0.81107 0.82389 0.09438 0.0
H604 H 0.1468 0.94979 0.11245 0.0
H605 H 0.12997 0.92723 0.9437 0.0
H606 H 0.15288 0.97462 0.9174 0.0
H607 H 0.18008 0.02266 0.94177 0.0
H608 H 0.1945 0.04549 0.11053 0.0
H609 H 0.17023 -0.002 0.13734 0.0
C610 C 0.14791 0.95531 0.07004 0.0
C611 C 0.13688 0.93507 0.03017 0.0
C612 C 0.16089 0.98268 0.05508 0.0
C613 C 0.13825 0.94245 0.97531 0.0
C614 C 0.15149 0.96956 0.96009 0.0
C615 C 0.17775 0.01714 0.98434 0.0
C616 C 0.18919 0.03736 0.02407 0.0
C617 C 0.16328 0.98985 0.99953 0.0
C618 C 0.18578 0.03014 0.0792 0.0
C619 C 0.17198 0.00303 0.09459 0.0
H620 H 0.95202 0.15607 0.93181 0.0
H621 H 0.92899 0.14357 0.10029 0.0
H622 H 0.97614 0.16565 0.12783 0.0
H623 H 0.02414 0.19105 0.10401 0.0
H624 H 0.04699 0.20083 0.93535 0.0
H625 H -0.00012 0.1771 0.908 0.0
C626 C 0.95741 0.15803 0.97446 0.0
C627 C 0.93721 0.14848 1.01392 0.0
C628 C -0.01546 0.17029 0.99005 0.0
C629 C 0.94429 0.15077 0.06912 0.0
C630 C 0.97123 0.16348 0.08497 0.0
C631 C 0.01873 0.18769 0.06136 0.0
C632 C 0.03894 0.19782 0.02185 0.0
C633 C -0.00845 0.17367 0.0458 0.0
C634 C 0.03175 0.19314 0.96665 0.0
C635 C 0.00481 0.1797 0.95087 0.0
H636 H 0.87427 0.59592 0.36842 0.0
H637 H 0.80617 0.52544 0.43624 0.0
H638 H 0.82382 0.49696 0.40342 0.0
H639 H 0.8577 0.49187 0.35361 0.0
H640 H 0.92564 0.56191 0.28373 0.0
H641 H 0.90858 0.59071 0.31815 0.0
C642 C 0.8636 0.57441 0.37682 0.0
C643 C 0.83912 0.5628 0.40515 0.0
C644 C 0.87348 0.55802 0.35645 0.0
C645 C 0.82514 0.53482 0.41477 0.0
C646 C 0.83512 0.51851 0.3957 0.0
C647 C 0.86872 0.5134 0.34535 0.0
C648 C 0.89288 0.52465 0.31587 0.0
C649 C 0.85904 0.52984 0.36585 0.0
C650 C 0.90691 0.55265 0.30601 0.0
C651 C 0.89728 0.56918 0.32605 0.0
H652 H 0.43995 0.37013 0.33378 0.0
H653 H 0.50989 0.36735 0.27876 0.0
H654 H 0.49209 0.32218 0.31769 0.0
H655 H 0.45697 0.28393 0.36816 0.0
H656 H 0.38778 0.28757 0.4261 0.0
H657 H 0.4054 0.33237 0.38635 0.0
C658 C 0.45106 0.35942 0.32951 0.0
C659 C 0.47596 0.37178 0.30272 0.0
C660 C 0.44115 0.33394 0.35352 0.0
C661 C 0.49053 0.35805 0.29875 0.0
C662 C 0.48046 0.33236 0.32133 0.0
C663 C 0.44585 0.29461 0.37271 0.0
C664 C 0.42105 0.28232 0.40012 0.0
C665 C 0.45593 0.32024 0.34927 0.0
C666 C 0.40695 0.29652 0.40541 0.0
C667 C 0.41689 0.32207 0.3823 0.0
H668 H 0.61661 0.07051 0.32775 0.0
H669 H 0.61552 0.14312 0.28308 0.0
H670 H 0.66054 0.17075 0.32116 0.0
H671 H 0.69953 0.17426 0.36855 0.0
H672 H 0.70078 0.10188 0.4151 0.0
H673 H 0.65596 0.07412 0.37595 0.0
C674 C 0.62644 0.09238 0.32554 0.0
C675 C 0.61292 0.10479 0.30213 0.0
C676 C 0.65202 0.10813 0.34885 0.0
C677 C 0.62562 0.13313 0.3006 0.0
C678 C 0.65126 0.14892 0.32268 0.0
C679 C 0.68998 0.1524 0.37069 0.0
C680 C 0.70354 0.14021 0.39494 0.0
C681 C 0.66447 0.13662 0.34748 0.0
C682 C 0.69079 0.11184 0.39699 0.0
C683 C 0.66524 0.09594 0.37422 0.0
H684 H 0.49633 0.11886 0.40016 0.0
H685 H 0.4858 0.12122 0.22726 0.0
H686 H 0.46218 0.1466 0.24147 0.0
H687 H 0.4443 0.16755 0.30314 0.0
H688 H 0.45191 0.16227 0.47626 0.0
H689 H 0.47712 0.13848 0.46195 0.0
C690 C 0.48898 0.12505 0.36555 0.0
C691 C 0.49296 0.11844 0.31267 0.0
C692 C 0.47497 0.13903 0.37416 0.0
C693 C 0.48296 0.12613 0.26827 0.0
C694 C 0.46953 0.14065 0.27641 0.0
C695 C 0.45165 0.16136 0.33776 0.0
C696 C 0.44657 0.16686 0.39071 0.0
C697 C 0.46543 0.14716 0.32917 0.0
C698 C 0.45569 0.15829 0.43519 0.0
C699 C 0.47007 0.14473 0.42698 0.0
H700 H 0.80933 0.28339 0.30753 0.0
H701 H 0.81711 0.29324 0.48135 0.0
H702 H 0.84022 0.34247 0.47072 0.0
H703 H 0.85993 0.38239 0.41182 0.0
H704 H 0.85575 0.37245 0.23791 0.0
H705 H 0.82931 0.32328 0.24865 0.0
C706 C 0.81581 0.29631 0.34314 0.0
C707 C 0.81137 0.2848 0.39522 0.0
C708 C 0.82978 0.32444 0.33657 0.0
C709 C 0.82029 0.30172 0.44093 0.0
C710 C 0.83349 0.3298 0.43482 0.0
C711 C 0.85298 0.36947 0.37624 0.0
C712 C 0.85956 0.38094 0.3241 0.0
C713 C 0.83858 0.34134 0.38282 0.0
C714 C 0.85088 0.36401 0.27839 0.0
C715 C 0.83579 0.33596 0.28455 0.0
H716 H 0.60531 0.49202 0.40096 0.0
H717 H 0.61818 0.49928 0.22798 0.0
H718 H 0.66694 0.52377 0.24275 0.0
H719 H 0.70553 0.54295 0.30488 0.0
H720 H 0.69273 0.53884 0.47779 0.0
H721 H 0.64394 0.51307 0.46313 0.0
C722 C 0.61882 0.49888 0.3665 0.0
C723 C 0.60833 0.49368 0.31343 0.0
C724 C 0.64664 0.5134 0.37538 0.0
C725 C 0.62591 0.50307 0.26911 0.0
C726 C 0.6537 0.51698 0.27758 0.0
C727 C 0.69204 0.53625 0.33938 0.0
C728 C 0.70255 0.54239 0.39238 0.0
C729 C 0.66423 0.52219 0.33052 0.0
C730 C 0.68497 0.53419 0.43671 0.0
C731 C 0.65718 0.51949 0.4283 0.0
H732 H 0.52866 0.81979 0.66716 0.0
H733 H 0.60161 0.89321 0.62587 0.0
H734 H 0.58247 0.92008 0.66118 0.0
H735 H 0.54476 0.92254 0.70329 0.0
H736 H 0.47187 0.84875 0.74254 0.0
H737 H 0.49162 0.82215 0.70964 0.0
C738 C 0.54041 0.84168 0.66541 0.0
C739 C 0.56652 0.85444 0.64358 0.0
C740 C 0.52946 0.85692 0.68632 0.0
C741 C 0.5814 0.88284 0.6421 0.0
C742 C 0.57054 0.89822 0.66264 0.0
C743 C 0.53343 0.90064 0.70554 0.0
C744 C 0.50699 0.88759 0.72571 0.0
C745 C 0.54465 0.88545 0.68516 0.0
C746 C 0.4923 0.85922 0.7274 0.0
C747 C 0.5035 0.84401 0.70828 0.0
H748 H 0.16583 0.70581 0.66571 0.0
H749 H 0.09318 0.70683 0.62352 0.0
H750 H 0.06613 0.66166 0.66216 0.0
H751 H 0.06327 0.62202 0.70841 0.0
H752 H 0.13625 0.62146 0.74937 0.0
H753 H 0.16308 0.66676 0.71181 0.0
C754 C 0.14407 0.69613 0.66437 0.0
C755 C 0.13158 0.70969 0.64145 0.0
C756 C 0.12873 0.67047 0.6874 0.0
C757 C 0.10334 0.69681 0.6406 0.0
C758 C 0.08786 0.67107 0.66306 0.0
C759 C 0.08505 0.63203 0.70994 0.0
C760 C 0.09779 0.61853 0.73202 0.0
C761 C 0.10036 0.65783 0.68704 0.0
C762 C 0.126 0.63151 0.7328 0.0
C763 C 0.14135 0.65731 0.71101 0.0
H764 H 0.36195 0.4404 0.70169 0.0
H765 H 0.36167 0.51385 0.74267 0.0
H766 H 0.31587 0.49467 0.70782 0.0
H767 H 0.27679 0.45795 0.66334 0.0
H768 H 0.27666 0.38443 0.62055 0.0
H769 H 0.32214 0.40306 0.65746 0.0
C770 C 0.35165 0.45198 0.70389 0.0
C771 C 0.36504 0.4784 0.72512 0.0
C772 C 0.32558 0.4411 0.6824 0.0
C773 C 0.35169 0.49341 0.72674 0.0
C774 C 0.32561 0.48255 0.70649 0.0
C775 C 0.2867 0.44598 0.66155 0.0
C776 C 0.27332 0.41985 0.63888 0.0
C777 C 0.31256 0.45661 0.68348 0.0
C778 C 0.28653 0.40467 0.63742 0.0
C779 C 0.31246 0.41522 0.65889 0.0
H780 H 0.16803 0.4557 0.72717 0.0
H781 H 0.15969 0.46065 0.55421 0.0
H782 H 0.13558 0.48555 0.569 0.0
H783 H 0.11564 0.50427 0.63135 0.0
H784 H 0.12057 0.49557 0.80421 0.0
H785 H 0.14736 0.47352 0.7893 0.0
C786 C 0.16123 0.46254 0.69265 0.0
C787 C 0.16587 0.45673 0.63962 0.0
C788 C 0.14667 0.47588 0.70158 0.0
C789 C 0.15644 0.46508 0.59531 0.0
C790 C 0.14265 0.47922 0.60381 0.0
C791 C 0.12274 0.4977 0.66577 0.0
C792 C 0.11637 0.50165 0.71885 0.0
C793 C 0.13746 0.48449 0.65678 0.0
C794 C 0.12526 0.49268 0.76306 0.0
C795 C 0.14058 0.48016 0.75452 0.0
H796 H 0.48107 0.61264 0.62397 0.0
H797 H 0.48989 0.62253 0.79769 0.0
H798 H 0.51357 0.67176 0.78703 0.0
H799 H 0.53249 0.71161 0.72824 0.0
H800 H 0.52725 0.70184 0.55431 0.0
H801 H 0.50115 0.65259 0.56498 0.0
C802 C 0.48804 0.6256 0.65951 0.0
C803 C 0.48361 0.61412 0.7116 0.0
C804 C 0.50218 0.65372 0.65292 0.0
C805 C 0.49311 0.63102 0.75727 0.0
C806 C 0.50657 0.65908 0.75115 0.0
C807 C 0.52538 0.6987 0.69265 0.0
C808 C 0.53141 0.7102 0.64053 0.0
C809 C 0.51127 0.6706 0.69918 0.0
C810 C 0.52268 0.69333 0.59475 0.0
C811 C 0.50783 0.66526 0.60089 0.0
H812 H 0.2742 0.81721 0.72323 0.0
H813 H 0.28386 0.82366 0.54944 0.0
H814 H 0.33291 0.84801 0.5606 0.0
H815 H 0.37268 0.86844 0.62009 0.0
H816 H 0.36265 0.8655 0.79381 0.0
H817 H 0.31376 0.8387 0.78249 0.0
C818 C 0.28706 0.82367 0.68775 0.0
C819 C 0.27559 0.81839 0.63553 0.0
C820 C 0.315 0.83838 0.6946 0.0
C821 C 0.29236 0.82741 0.58995 0.0
C822 C 0.32031 0.84133 0.59637 0.0
C823 C 0.35976 0.86178 0.65547 0.0
C824 C 0.37111 0.86867 0.70776 0.0
C825 C 0.3318 0.84707 0.64853 0.0
C826 C 0.35426 0.86039 0.75324 0.0
C827 C 0.3264 0.84506 0.74675 0.0
loop_
_geom_bond_atom_site_label_1
_geom_bond_atom_site_label_2
_geom_bond_distance
_geom_bond_site_symmetry_2
_ccdc_geom_bond_type
O0 Cd1 2.223 . S
O0 C8 1.315 . S
Cd1 O0 2.223 . S
Cd1 O4 2.297 . S
Cd1 O5 2.439 . S
Cd1 O11 2.256 . S
Cd2 O3 2.240 . S
Cd2 O10 2.223 1_554 S
Cd2 O12 2.297 1_554 S
Cd2 O13 2.439 . S
O3 Cd2 2.240 . S
O3 C8 1.279 . S
O4 Cd1 2.297 . S
O4 C6 1.247 . S
O5 Cd1 2.439 . S
O5 C6 1.208 . S
C6 O4 1.247 . S
C6 O5 1.208 . S
C7 O12 1.247 1_554 S
C7 O13 1.208 . S
C8 O0 1.315 . S
C8 O3 1.279 . S
C9 O10 1.315 . S
C9 O11 1.262 1_556 S
O10 Cd2 2.223 1_556 S
O10 C9 1.315 . S
O11 Cd1 2.256 . S
O11 C9 1.262 1_554 S
O12 Cd2 2.297 1_556 S
O12 C7 1.247 1_556 S
O13 Cd2 2.439 . S
O13 C7 1.208 . S
O14 Cd15 2.223 . S
O14 C22 1.315 . S
Cd15 O14 2.223 . S
Cd15 O18 2.297 . S
Cd15 O19 2.439 . S
Cd15 O25 2.256 . S
Cd16 O17 2.240 . S
Cd16 O24 2.223 1_554 S
Cd16 O26 2.297 1_554 S
Cd16 O27 2.439 . S
O17 Cd16 2.240 . S
O17 C22 1.279 . S
O18 Cd15 2.297 . S
O18 C20 1.247 . S
O19 Cd15 2.439 . S
O19 C20 1.208 . S
C20 O18 1.247 . S
C20 O19 1.208 . S
C21 O26 1.247 1_554 S
C21 O27 1.208 . S
C22 O14 1.315 . S
C22 O17 1.279 . S
C23 O24 1.315 . S
C23 O25 1.262 1_556 S
O24 Cd16 2.223 1_556 S
O24 C23 1.315 . S
O25 Cd15 2.256 . S
O25 C23 1.262 1_554 S
O26 Cd16 2.297 1_556 S
O26 C21 1.247 1_556 S
O27 Cd16 2.439 . S
O27 C21 1.208 . S
O28 Cd29 2.223 . S
O28 C36 1.315 . S
Cd29 O28 2.223 . S
Cd29 O32 2.297 . S
Cd29 O33 2.439 . S
Cd29 O39 2.256 . S
Cd30 O31 2.240 . S
Cd30 O38 2.223 1_554 S
Cd30 O40 2.297 1_554 S
Cd30 O41 2.439 . S
O31 Cd30 2.240 . S
O31 C36 1.279 . S
O32 Cd29 2.297 . S
O32 C34 1.247 . S
O33 Cd29 2.439 . S
O33 C34 1.208 . S
C34 O32 1.247 . S
C34 O33 1.208 . S
C35 O40 1.247 1_554 S
C35 O41 1.208 . S
C36 O28 1.315 . S
C36 O31 1.279 . S
C37 O38 1.315 . S
C37 O39 1.262 1_556 S
O38 Cd30 2.223 1_556 S
O38 C37 1.315 . S
O39 Cd29 2.256 . S
O39 C37 1.262 1_554 S
O40 Cd30 2.297 1_556 S
O40 C35 1.247 1_556 S
O41 Cd30 2.439 . S
O41 C35 1.208 . S
O42 Cd43 2.223 . S
O42 C50 1.315 . S
Cd43 O42 2.223 . S
Cd43 O46 2.297 . S
Cd43 O47 2.439 . S
Cd43 O53 2.256 . S
Cd44 O45 2.240 . S
Cd44 O52 2.223 1_556 S
Cd44 O54 2.297 1_556 S
Cd44 O55 2.439 . S
O45 Cd44 2.240 . S
O45 C50 1.279 . S
O46 Cd43 2.297 . S
O46 C48 1.247 . S
O47 Cd43 2.439 . S
O47 C48 1.208 . S
C48 O46 1.247 . S
C48 O47 1.208 . S
C49 O54 1.247 1_556 S
C49 O55 1.208 . S
C50 O42 1.315 . S
C50 O45 1.279 . S
C51 O52 1.315 . S
C51 O53 1.262 1_554 S
O52 Cd44 2.223 1_554 S
O52 C51 1.315 . S
O53 Cd43 2.256 . S
O53 C51 1.262 1_556 S
O54 Cd44 2.297 1_554 S
O54 C49 1.247 1_554 S
O55 Cd44 2.439 . S
O55 C49 1.208 . S
O56 Cd57 2.223 . S
O56 C64 1.315 . S
Cd57 O56 2.223 . S
Cd57 O60 2.297 . S
Cd57 O61 2.439 . S
Cd57 O67 2.256 . S
Cd58 O59 2.240 . S
Cd58 O66 2.223 1_556 S
Cd58 O68 2.297 1_556 S
Cd58 O69 2.439 . S
O59 Cd58 2.240 . S
O59 C64 1.279 . S
O60 Cd57 2.297 . S
O60 C62 1.247 . S
O61 Cd57 2.439 . S
O61 C62 1.208 . S
C62 O60 1.247 . S
C62 O61 1.208 . S
C63 O68 1.247 1_556 S
C63 O69 1.208 . S
C64 O56 1.315 . S
C64 O59 1.279 . S
C65 O66 1.315 . S
C65 O67 1.262 1_554 S
O66 Cd58 2.223 1_554 S
O66 C65 1.315 . S
O67 Cd57 2.256 . S
O67 C65 1.262 1_556 S
O68 Cd58 2.297 1_554 S
O68 C63 1.247 1_554 S
O69 Cd58 2.439 . S
O69 C63 1.208 . S
O70 Cd71 2.223 . S
O70 C78 1.315 . S
Cd71 O70 2.223 . S
Cd71 O74 2.297 . S
Cd71 O75 2.439 . S
Cd71 O81 2.256 . S
Cd72 O73 2.240 . S
Cd72 O80 2.223 1_556 S
Cd72 O82 2.297 1_556 S
Cd72 O83 2.439 . S
O73 Cd72 2.240 . S
O73 C78 1.279 . S
O74 Cd71 2.297 . S
O74 C76 1.247 . S
O75 Cd71 2.439 . S
O75 C76 1.208 . S
C76 O74 1.247 . S
C76 O75 1.208 . S
C77 O82 1.247 1_556 S
C77 O83 1.208 . S
C78 O70 1.315 . S
C78 O73 1.279 . S
C79 O80 1.315 . S
C79 O81 1.262 1_554 S
O80 Cd72 2.223 1_554 S
O80 C79 1.315 . S
O81 Cd71 2.256 . S
O81 C79 1.262 1_556 S
O82 Cd72 2.297 1_554 S
O82 C77 1.247 1_554 S
O83 Cd72 2.439 . S
O83 C77 1.208 . S
O84 Cd85 2.223 . S
O84 C92 1.315 . S
Cd85 O84 2.223 . S
Cd85 O88 2.297 . S
Cd85 O89 2.439 . S
Cd85 O95 2.240 . S
Cd86 O87 2.240 . S
Cd86 O94 2.223 . S
Cd86 O96 2.297 . S
Cd86 O97 2.439 . S
O87 Cd86 2.240 . S
O87 C92 1.279 . S
O88 Cd85 2.297 . S
O88 C90 1.247 . S
O89 Cd85 2.439 . S
O89 C90 1.208 . S
C90 O88 1.247 . S
C90 O89 1.208 . S
C91 O96 1.247 . S
C91 O97 1.208 . S
C92 O84 1.315 . S
C92 O87 1.279 . S
C93 O94 1.315 . S
C93 O95 1.279 . S
O94 Cd86 2.223 . S
O94 C93 1.315 . S
O95 Cd85 2.240 . S
O95 C93 1.279 . S
O96 Cd86 2.297 . S
O96 C91 1.247 . S
O97 Cd86 2.439 . S
O97 C91 1.208 . S
O98 Cd99 2.223 . S
O98 C106 1.315 . S
Cd99 O98 2.223 . S
Cd99 O102 2.297 . S
Cd99 O103 2.439 . S
Cd99 O109 2.240 . S
Cd100 O101 2.240 . S
Cd100 O108 2.223 . S
Cd100 O110 2.297 . S
Cd100 O111 2.439 . S
O101 Cd100 2.240 . S
O101 C106 1.279 . S
O102 Cd99 2.297 . S
O102 C104 1.247 . S
O103 Cd99 2.439 . S
O103 C104 1.208 . S
C104 O102 1.247 . S
C104 O103 1.208 . S
C105 O110 1.247 . S
C105 O111 1.208 . S
C106 O98 1.315 . S
C106 O101 1.279 . S
C107 O108 1.315 . S
C107 O109 1.279 . S
O108 Cd100 2.223 . S
O108 C107 1.315 . S
O109 Cd99 2.240 . S
O109 C107 1.279 . S
O110 Cd100 2.297 . S
O110 C105 1.247 . S
O111 Cd100 2.439 . S
O111 C105 1.208 . S
O112 Cd113 2.223 . S
O112 C120 1.315 . S
Cd113 O112 2.223 . S
Cd113 O116 2.297 . S
Cd113 O117 2.439 . S
Cd113 O123 2.240 . S
Cd114 O115 2.240 . S
Cd114 O122 2.223 . S
Cd114 O124 2.297 . S
Cd114 O125 2.439 . S
O115 Cd114 2.240 . S
O115 C120 1.279 . S
O116 Cd113 2.297 . S
O116 C118 1.247 . S
O117 Cd113 2.439 . S
O117 C118 1.208 . S
C118 O116 1.247 . S
C118 O117 1.208 . S
C119 O124 1.247 . S
C119 O125 1.208 . S
C120 O112 1.315 . S
C120 O115 1.279 . S
C121 O122 1.315 . S
C121 O123 1.279 . S
O122 Cd114 2.223 . S
O122 C121 1.315 . S
O123 Cd113 2.240 . S
O123 C121 1.279 . S
O124 Cd114 2.297 . S
O124 C119 1.247 . S
O125 Cd114 2.439 . S
O125 C119 1.208 . S
O126 Cd127 2.223 . S
O126 C134 1.315 . S
Cd127 O126 2.223 . S
Cd127 O130 2.297 . S
Cd127 O131 2.439 . S
Cd127 O137 2.240 . S
Cd128 O129 2.240 . S
Cd128 O136 2.223 . S
Cd128 O138 2.297 . S
Cd128 O139 2.439 . S
O129 Cd128 2.240 . S
O129 C134 1.279 . S
O130 Cd127 2.297 . S
O130 C132 1.247 . S
O131 Cd127 2.439 . S
O131 C132 1.208 . S
C132 O130 1.247 . S
C132 O131 1.208 . S
C133 O138 1.247 . S
C133 O139 1.208 . S
C134 O126 1.315 . S
C134 O129 1.279 . S
C135 O136 1.315 . S
C135 O137 1.279 . S
O136 Cd128 2.223 . S
O136 C135 1.315 . S
O137 Cd127 2.240 . S
O137 C135 1.279 . S
O138 Cd128 2.297 . S
O138 C133 1.247 . S
O139 Cd128 2.439 . S
O139 C133 1.208 . S
O140 Cd141 2.223 . S
O140 C148 1.315 . S
Cd141 O140 2.223 . S
Cd141 O144 2.297 . S
Cd141 O145 2.439 . S
Cd141 O151 2.240 . S
Cd142 O143 2.240 . S
Cd142 O150 2.223 . S
Cd142 O152 2.297 . S
Cd142 O153 2.439 . S
O143 Cd142 2.240 . S
O143 C148 1.279 . S
O144 Cd141 2.297 . S
O144 C146 1.247 . S
O145 Cd141 2.439 . S
O145 C146 1.208 . S
C146 O144 1.247 . S
C146 O145 1.208 . S
C147 O152 1.247 . S
C147 O153 1.208 . S
C148 O140 1.315 . S
C148 O143 1.279 . S
C149 O150 1.315 . S
C149 O151 1.279 . S
O150 Cd142 2.223 . S
O150 C149 1.315 . S
O151 Cd141 2.240 . S
O151 C149 1.279 . S
O152 Cd142 2.297 . S
O152 C147 1.247 . S
O153 Cd142 2.439 . S
O153 C147 1.208 . S
O154 Cd155 2.223 . S
O154 C162 1.315 . S
Cd155 O154 2.223 . S
Cd155 O158 2.297 . S
Cd155 O159 2.439 . S
Cd155 O165 2.240 . S
Cd156 O157 2.240 . S
Cd156 O164 2.223 . S
Cd156 O166 2.297 . S
Cd156 O167 2.439 . S
O157 Cd156 2.240 . S
O157 C162 1.279 . S
O158 Cd155 2.297 . S
O158 C160 1.247 . S
O159 Cd155 2.439 . S
O159 C160 1.208 . S
C160 O158 1.247 . S
C160 O159 1.208 . S
C161 O166 1.247 . S
C161 O167 1.208 . S
C162 O154 1.315 . S
C162 O157 1.279 . S
C163 O164 1.315 . S
C163 O165 1.279 . S
O164 Cd156 2.223 . S
O164 C163 1.315 . S
O165 Cd155 2.240 . S
O165 C163 1.279 . S
O166 Cd156 2.297 . S
O166 C161 1.247 . S
O167 Cd156 2.439 . S
O167 C161 1.208 . S
O168 Cd169 2.223 . S
O168 C176 1.315 . S
Cd169 O168 2.223 . S
Cd169 O172 2.297 . S
Cd169 O173 2.439 . S
Cd169 O179 2.240 . S
Cd170 O171 2.240 . S
Cd170 O178 2.223 . S
Cd170 O180 2.297 . S
Cd170 O181 2.439 . S
O171 Cd170 2.240 . S
O171 C176 1.279 . S
O172 Cd169 2.297 . S
O172 C174 1.247 . S
O173 Cd169 2.439 . S
O173 C174 1.208 . S
C174 O172 1.247 . S
C174 O173 1.208 . S
C175 O180 1.247 . S
C175 O181 1.208 . S
C176 O168 1.315 . S
C176 O171 1.279 . S
C177 O178 1.315 . S
C177 O179 1.279 . S
O178 Cd170 2.223 . S
O178 C177 1.315 . S
O179 Cd169 2.240 . S
O179 C177 1.279 . S
O180 Cd170 2.297 . S
O180 C175 1.247 . S
O181 Cd170 2.439 . S
O181 C175 1.208 . S
O182 Cd183 2.223 . S
O182 C190 1.315 . S
Cd183 O182 2.223 . S
Cd183 O186 2.297 . S
Cd183 O187 2.439 . S
Cd183 O193 2.240 . S
Cd184 O185 2.240 . S
Cd184 O192 2.223 . S
Cd184 O194 2.297 . S
Cd184 O195 2.439 . S
O185 Cd184 2.240 . S
O185 C190 1.279 . S
O186 Cd183 2.297 . S
O186 C188 1.247 . S
O187 Cd183 2.439 . S
O187 C188 1.208 . S
C188 O186 1.247 . S
C188 O187 1.208 . S
C189 O194 1.247 . S
C189 O195 1.208 . S
C190 O182 1.315 . S
C190 O185 1.279 . S
C191 O192 1.315 . S
C191 O193 1.279 . S
O192 Cd184 2.223 . S
O192 C191 1.315 . S
O193 Cd183 2.240 . S
O193 C191 1.279 . S
O194 Cd184 2.297 . S
O194 C189 1.247 . S
O195 Cd184 2.439 . S
O195 C189 1.208 . S
O196 Cd197 2.223 . S
O196 C204 1.315 . S
Cd197 O196 2.223 . S
Cd197 O200 2.297 . S
Cd197 O201 2.439 . S
Cd197 O207 2.240 . S
Cd198 O199 2.240 . S
Cd198 O206 2.223 . S
Cd198 O208 2.297 . S
Cd198 O209 2.439 . S
O199 Cd198 2.240 . S
O199 C204 1.279 . S
O200 Cd197 2.297 . S
O200 C202 1.247 . S
O201 Cd197 2.439 . S
O201 C202 1.208 . S
C202 O200 1.247 . S
C202 O201 1.208 . S
C203 O208 1.247 . S
C203 O209 1.208 . S
C204 O196 1.315 . S
C204 O199 1.279 . S
C205 O206 1.315 . S
C205 O207 1.279 . S
O206 Cd198 2.223 . S
O206 C205 1.315 . S
O207 Cd197 2.240 . S
O207 C205 1.279 . S
O208 Cd198 2.297 . S
O208 C203 1.247 . S
O209 Cd198 2.439 . S
O209 C203 1.208 . S
O210 Cd211 2.223 . S
O210 C218 1.315 . S
Cd211 O210 2.223 . S
Cd211 O214 2.297 . S
Cd211 O215 2.439 . S
Cd211 O221 2.240 . S
Cd212 O213 2.240 . S
Cd212 O220 2.223 . S
Cd212 O222 2.297 . S
Cd212 O223 2.439 . S
O213 Cd212 2.240 . S
O213 C218 1.279 . S
O214 Cd211 2.297 . S
O214 C216 1.247 . S
O215 Cd211 2.439 . S
O215 C216 1.208 . S
C216 O214 1.247 . S
C216 O215 1.208 . S
C217 O222 1.247 . S
C217 O223 1.208 . S
C218 O210 1.315 . S
C218 O213 1.279 . S
C219 O220 1.315 . S
C219 O221 1.279 . S
O220 Cd212 2.223 . S
O220 C219 1.315 . S
O221 Cd211 2.240 . S
O221 C219 1.279 . S
O222 Cd212 2.297 . S
O222 C217 1.247 . S
O223 Cd212 2.439 . S
O223 C217 1.208 . S
O224 Cd225 2.223 . S
O224 C232 1.315 . S
Cd225 O224 2.223 . S
Cd225 O228 2.297 . S
Cd225 O229 2.439 . S
Cd225 O235 2.240 . S
Cd226 O227 2.240 . S
Cd226 O234 2.223 . S
Cd226 O236 2.297 . S
Cd226 O237 2.439 . S
O227 Cd226 2.240 . S
O227 C232 1.279 . S
O228 Cd225 2.297 . S
O228 C230 1.247 . S
O229 Cd225 2.439 . S
O229 C230 1.208 . S
C230 O228 1.247 . S
C230 O229 1.208 . S
C231 O236 1.247 . S
C231 O237 1.208 . S
C232 O224 1.315 . S
C232 O227 1.279 . S
C233 O234 1.315 . S
C233 O235 1.279 . S
O234 Cd226 2.223 . S
O234 C233 1.315 . S
O235 Cd225 2.240 . S
O235 C233 1.279 . S
O236 Cd226 2.297 . S
O236 C231 1.247 . S
O237 Cd226 2.439 . S
O237 C231 1.208 . S
O238 Cd239 2.223 . S
O238 C246 1.315 . S
Cd239 O238 2.223 . S
Cd239 O242 2.297 . S
Cd239 O243 2.439 . S
Cd239 O249 2.240 . S
Cd240 O241 2.240 . S
Cd240 O248 2.223 . S
Cd240 O250 2.297 . S
Cd240 O251 2.439 . S
O241 Cd240 2.240 . S
O241 C246 1.279 . S
O242 Cd239 2.297 . S
O242 C244 1.247 . S
O243 Cd239 2.439 . S
O243 C244 1.208 . S
C244 O242 1.247 . S
C244 O243 1.208 . S
C245 O250 1.247 . S
C245 O251 1.208 . S
C246 O238 1.315 . S
C246 O241 1.279 . S
C247 O248 1.315 . S
C247 O249 1.279 . S
O248 Cd240 2.223 . S
O248 C247 1.315 . S
O249 Cd239 2.240 . S
O249 C247 1.279 . S
O250 Cd240 2.297 . S
O250 C245 1.247 . S
O251 Cd240 2.439 . S
O251 C245 1.208 . S
H252 C258 0.930 . S
H253 C261 0.930 . S
H254 C262 0.930 . S
H255 C263 0.930 . S
H256 C266 0.930 . S
H257 C267 0.930 . S
C258 H252 0.930 . S
C258 C259 1.355 . S
C258 C260 1.415 . S
C259 C258 1.355 . S
C259 C261 1.419 . S
C260 C258 1.415 . S
C260 C265 1.425 . S
C260 C267 1.409 . S
C261 H253 0.930 . S
C261 C259 1.419 . S
C261 C262 1.362 . S
C262 H254 0.930 . S
C262 C261 1.362 . S
C262 C265 1.409 . S
C263 H255 0.930 . S
C263 C264 1.355 . S
C263 C265 1.415 . S
C264 C263 1.355 . S
C264 C266 1.419 . S
C265 C260 1.425 . S
C265 C262 1.409 . S
C265 C263 1.415 . S
C266 H256 0.930 . S
C266 C264 1.419 . S
C266 C267 1.362 . S
C267 H257 0.930 . S
C267 C260 1.409 . S
C267 C266 1.362 . S
H268 C274 0.930 . S
H269 C277 0.930 . S
H270 C278 0.930 . S
H271 C279 0.930 . S
H272 C282 0.930 . S
H273 C283 0.930 . S
C274 H268 0.930 . S
C274 C275 1.355 . S
C274 C276 1.415 . S
C275 C274 1.355 . S
C275 C277 1.419 . S
C276 C274 1.415 . S
C276 C281 1.425 . S
C276 C283 1.409 . S
C277 H269 0.930 . S
C277 C275 1.419 . S
C277 C278 1.362 . S
C278 H270 0.930 . S
C278 C277 1.362 . S
C278 C281 1.409 . S
C279 H271 0.930 . S
C279 C280 1.355 . S
C279 C281 1.415 . S
C280 C279 1.355 . S
C280 C282 1.419 . S
C281 C276 1.425 . S
C281 C278 1.409 . S
C281 C279 1.415 . S
C282 H272 0.930 . S
C282 C280 1.419 . S
C282 C283 1.362 . S
C283 H273 0.930 . S
C283 C276 1.409 . S
C283 C282 1.362 . S
H284 C290 0.930 . S
H285 C293 0.930 . S
H286 C294 0.930 . S
H287 C295 0.930 . S
H288 C298 0.930 . S
H289 C299 0.930 . S
C290 H284 0.930 . S
C290 C291 1.355 . S
C290 C292 1.415 . S
C291 C290 1.355 . S
C291 C293 1.419 . S
C292 C290 1.415 . S
C292 C297 1.425 . S
C292 C299 1.409 . S
C293 H285 0.930 . S
C293 C291 1.419 . S
C293 C294 1.362 . S
C294 H286 0.930 . S
C294 C293 1.362 . S
C294 C297 1.409 . S
C295 H287 0.930 . S
C295 C296 1.355 . S
C295 C297 1.415 . S
C296 C295 1.355 . S
C296 C298 1.419 . S
C297 C292 1.425 . S
C297 C294 1.409 . S
C297 C295 1.415 . S
C298 H288 0.930 . S
C298 C296 1.419 . S
C298 C299 1.362 . S
C299 H289 0.930 . S
C299 C292 1.409 . S
C299 C298 1.362 . S
H300 C306 0.930 . S
H301 C309 0.930 . S
H302 C310 0.930 . S
H303 C311 0.930 . S
H304 C314 0.930 . S
H305 C315 0.930 . S
C306 H300 0.930 . S
C306 C307 1.355 . S
C306 C308 1.415 . S
C307 C306 1.355 . S
C307 C309 1.419 . S
C308 C306 1.415 . S
C308 C313 1.425 . S
C308 C315 1.409 . S
C309 H301 0.930 . S
C309 C307 1.419 . S
C309 C310 1.362 . S
C310 H302 0.930 . S
C310 C309 1.362 . S
C310 C313 1.409 . S
C311 H303 0.930 . S
C311 C312 1.355 . S
C311 C313 1.415 . S
C312 C311 1.355 . S
C312 C314 1.419 . S
C313 C308 1.425 . S
C313 C310 1.409 . S
C313 C311 1.415 . S
C314 H304 0.930 . S
C314 C312 1.419 . S
C314 C315 1.362 . S
C315 H305 0.930 . S
C315 C308 1.409 . S
C315 C314 1.362 . S
H316 C322 0.930 . S
H317 C325 0.930 . S
H318 C326 0.930 . S
H319 C327 0.930 . S
H320 C330 0.930 . S
H321 C331 0.930 . S
C322 H316 0.930 . S
C322 C323 1.355 . S
C322 C324 1.415 . S
C323 C322 1.355 . S
C323 C325 1.419 . S
C324 C322 1.415 . S
C324 C329 1.425 . S
C324 C331 1.409 . S
C325 H317 0.930 . S
C325 C323 1.419 . S
C325 C326 1.362 . S
C326 H318 0.930 . S
C326 C325 1.362 . S
C326 C329 1.409 . S
C327 H319 0.930 . S
C327 C328 1.355 . S
C327 C329 1.415 . S
C328 C327 1.355 . S
C328 C330 1.419 . S
C329 C324 1.425 . S
C329 C326 1.409 . S
C329 C327 1.415 . S
C330 H320 0.930 . S
C330 C328 1.419 . S
C330 C331 1.362 . S
C331 H321 0.930 . S
C331 C324 1.409 . S
C331 C330 1.362 . S
H332 C338 0.930 . S
H333 C341 0.930 . S
H334 C342 0.930 . S
H335 C343 0.930 . S
H336 C346 0.930 . S
H337 C347 0.930 . S
C338 H332 0.930 . S
C338 C339 1.355 . S
C338 C340 1.415 . S
C339 C338 1.355 . S
C339 C341 1.419 . S
C340 C338 1.415 . S
C340 C345 1.425 . S
C340 C347 1.409 . S
C341 H333 0.930 . S
C341 C339 1.419 . S
C341 C342 1.362 . S
C342 H334 0.930 . S
C342 C341 1.362 . S
C342 C345 1.409 . S
C343 H335 0.930 . S
C343 C344 1.355 . S
C343 C345 1.415 . S
C344 C343 1.355 . S
C344 C346 1.419 . S
C345 C340 1.425 . S
C345 C342 1.409 . S
C345 C343 1.415 . S
C346 H336 0.930 . S
C346 C344 1.419 . S
C346 C347 1.362 . S
C347 H337 0.930 . S
C347 C340 1.409 . S
C347 C346 1.362 . S
H348 C354 0.930 . S
H349 C357 0.929 . S
H350 C358 0.930 . S
H351 C359 0.930 . S
H352 C362 0.930 . S
H353 C363 0.930 1_655 S
C354 H348 0.930 . S
C354 C355 1.355 . S
C354 C356 1.414 1_655 S
C355 C354 1.355 . S
C355 C357 1.433 . S
C356 C354 1.414 1_455 S
C356 C361 1.427 1_554 S
C356 C363 1.408 1_554 S
C357 H349 0.929 . S
C357 C355 1.433 . S
C357 C358 1.356 1_655 S
C358 H350 0.930 . S
C358 C357 1.356 1_455 S
C358 C361 1.409 1_554 S
C359 H351 0.930 . S
C359 C360 1.355 . S
C359 C361 1.415 . S
C360 C359 1.355 . S
C360 C362 1.419 . S
C361 C356 1.427 1_556 S
C361 C358 1.409 1_556 S
C361 C359 1.415 . S
C362 H352 0.930 . S
C362 C360 1.419 . S
C362 C363 1.362 . S
C363 H353 0.930 1_455 S
C363 C356 1.408 1_556 S
C363 C362 1.362 . S
H364 C370 0.930 . S
H365 C373 0.930 . S
H366 C374 0.930 . S
H367 C375 0.930 . S
H368 C378 0.930 . S
H369 C379 0.930 . S
C370 H364 0.930 . S
C370 C371 1.355 . S
C370 C372 1.415 . S
C371 C370 1.355 . S
C371 C373 1.419 . S
C372 C370 1.415 . S
C372 C377 1.425 1_554 S
C372 C379 1.409 1_554 S
C373 H365 0.930 . S
C373 C371 1.419 . S
C373 C374 1.362 . S
C374 H366 0.930 . S
C374 C373 1.362 . S
C374 C377 1.409 1_554 S
C375 H367 0.930 . S
C375 C376 1.355 . S
C375 C377 1.415 . S
C376 C375 1.355 . S
C376 C378 1.419 . S
C377 C372 1.425 1_556 S
C377 C374 1.409 1_556 S
C377 C375 1.415 . S
C378 H368 0.930 . S
C378 C376 1.419 . S
C378 C379 1.362 . S
C379 H369 0.930 . S
C379 C372 1.409 1_556 S
C379 C378 1.362 . S
H380 C386 0.930 . S
H381 C389 0.930 . S
H382 C390 0.930 . S
H383 C391 0.930 . S
H384 C394 0.930 . S
H385 C395 0.930 . S
C386 H380 0.930 . S
C386 C387 1.355 . S
C386 C388 1.415 . S
C387 C386 1.355 . S
C387 C389 1.419 1_545 S
C388 C386 1.415 . S
C388 C393 1.425 1_544 S
C388 C395 1.409 1_554 S
C389 H381 0.930 . S
C389 C387 1.419 1_565 S
C389 C390 1.362 . S
C390 H382 0.930 . S
C390 C389 1.362 . S
C390 C393 1.409 1_554 S
C391 H383 0.930 . S
C391 C392 1.355 . S
C391 C393 1.415 . S
C392 C391 1.355 . S
C392 C394 1.419 1_565 S
C393 C388 1.425 1_566 S
C393 C390 1.409 1_556 S
C393 C391 1.415 . S
C394 H384 0.930 . S
C394 C392 1.419 1_545 S
C394 C395 1.362 . S
C395 H385 0.930 . S
C395 C388 1.409 1_556 S
C395 C394 1.362 . S
H396 C402 0.930 . S
H397 C405 0.930 . S
H398 C406 0.930 . S
H399 C407 0.930 . S
H400 C410 0.930 . S
H401 C411 0.930 . S
C402 H396 0.930 . S
C402 C403 1.355 . S
C402 C404 1.415 . S
C403 C402 1.355 . S
C403 C405 1.419 . S
C404 C402 1.415 . S
C404 C409 1.425 . S
C404 C411 1.409 . S
C405 H397 0.930 . S
C405 C403 1.419 . S
C405 C406 1.362 . S
C406 H398 0.930 . S
C406 C405 1.362 . S
C406 C409 1.409 . S
C407 H399 0.930 . S
C407 C408 1.355 . S
C407 C409 1.415 . S
C408 C407 1.355 . S
C408 C410 1.419 . S
C409 C404 1.425 . S
C409 C406 1.409 . S
C409 C407 1.415 . S
C410 H400 0.930 . S
C410 C408 1.419 . S
C410 C411 1.362 . S
C411 H401 0.930 . S
C411 C404 1.409 . S
C411 C410 1.362 . S
H412 C418 0.930 . S
H413 C421 0.930 . S
H414 C422 0.930 . S
H415 C423 0.930 . S
H416 C426 0.930 . S
H417 C427 0.930 . S
C418 H412 0.930 . S
C418 C419 1.355 . S
C418 C420 1.415 . S
C419 C418 1.355 . S
C419 C421 1.419 . S
C420 C418 1.415 . S
C420 C425 1.425 . S
C420 C427 1.409 . S
C421 H413 0.930 . S
C421 C419 1.419 . S
C421 C422 1.362 . S
C422 H414 0.930 . S
C422 C421 1.362 . S
C422 C425 1.409 . S
C423 H415 0.930 . S
C423 C424 1.355 . S
C423 C425 1.415 . S
C424 C423 1.355 . S
C424 C426 1.419 . S
C425 C420 1.425 . S
C425 C422 1.409 . S
C425 C423 1.415 . S
C426 H416 0.930 . S
C426 C424 1.419 . S
C426 C427 1.362 . S
C427 H417 0.930 . S
C427 C420 1.409 . S
C427 C426 1.362 . S
H428 C434 0.930 . S
H429 C437 0.930 . S
H430 C438 0.930 . S
H431 C439 0.930 . S
H432 C442 0.930 . S
H433 C443 0.930 . S
C434 H428 0.930 . S
C434 C435 1.355 . S
C434 C436 1.415 . S
C435 C434 1.355 . S
C435 C437 1.419 . S
C436 C434 1.415 . S
C436 C441 1.425 . S
C436 C443 1.409 . S
C437 H429 0.930 . S
C437 C435 1.419 . S
C437 C438 1.362 . S
C438 H430 0.930 . S
C438 C437 1.362 . S
C438 C441 1.409 . S
C439 H431 0.930 . S
C439 C440 1.355 . S
C439 C441 1.415 . S
C440 C439 1.355 . S
C440 C442 1.419 . S
C441 C436 1.425 . S
C441 C438 1.409 . S
C441 C439 1.415 . S
C442 H432 0.930 . S
C442 C440 1.419 . S
C442 C443 1.362 . S
C443 H433 0.930 . S
C443 C436 1.409 . S
C443 C442 1.362 . S
H444 C450 0.930 . S
H445 C453 0.930 . S
H446 C454 0.930 . S
H447 C455 0.930 . S
H448 C458 0.930 . S
H449 C459 0.930 . S
C450 H444 0.930 . S
C450 C451 1.355 . S
C450 C452 1.415 . S
C451 C450 1.355 . S
C451 C453 1.419 . S
C452 C450 1.415 . S
C452 C457 1.425 . S
C452 C459 1.409 . S
C453 H445 0.930 . S
C453 C451 1.419 . S
C453 C454 1.362 . S
C454 H446 0.930 . S
C454 C453 1.362 . S
C454 C457 1.409 . S
C455 H447 0.930 . S
C455 C456 1.355 . S
C455 C457 1.415 . S
C456 C455 1.355 . S
C456 C458 1.419 . S
C457 C452 1.425 . S
C457 C454 1.409 . S
C457 C455 1.415 . S
C458 H448 0.930 . S
C458 C456 1.419 . S
C458 C459 1.362 . S
C459 H449 0.930 . S
C459 C452 1.409 . S
C459 C458 1.362 . S
H460 C466 0.930 . S
H461 C469 0.930 . S
H462 C470 0.930 . S
H463 C471 0.930 . S
H464 C474 0.930 . S
H465 C475 0.930 . S
C466 H460 0.930 . S
C466 C467 1.355 . S
C466 C468 1.415 . S
C467 C466 1.355 . S
C467 C469 1.419 . S
C468 C466 1.415 . S
C468 C473 1.425 . S
C468 C475 1.409 . S
C469 H461 0.930 . S
C469 C467 1.419 . S
C469 C470 1.362 . S
C470 H462 0.930 . S
C470 C469 1.362 . S
C470 C473 1.409 . S
C471 H463 0.930 . S
C471 C472 1.355 . S
C471 C473 1.415 . S
C472 C471 1.355 . S
C472 C474 1.419 . S
C473 C468 1.425 . S
C473 C470 1.409 . S
C473 C471 1.415 . S
C474 H464 0.930 . S
C474 C472 1.419 . S
C474 C475 1.362 . S
C475 H465 0.930 . S
C475 C468 1.409 . S
C475 C474 1.362 . S
H476 C482 0.930 . S
H477 C485 0.930 . S
H478 C486 0.930 . S
H479 C487 0.930 . S
H480 C490 0.930 . S
H481 C491 0.930 . S
C482 H476 0.930 . S
C482 C483 1.355 . S
C482 C484 1.415 . S
C483 C482 1.355 . S
C483 C485 1.419 . S
C484 C482 1.415 . S
C484 C489 1.425 . S
C484 C491 1.409 . S
C485 H477 0.930 . S
C485 C483 1.419 . S
C485 C486 1.362 . S
C486 H478 0.930 . S
C486 C485 1.362 . S
C486 C489 1.409 . S
C487 H479 0.930 . S
C487 C488 1.355 . S
C487 C489 1.415 . S
C488 C487 1.355 . S
C488 C490 1.419 . S
C489 C484 1.425 . S
C489 C486 1.409 . S
C489 C487 1.415 . S
C490 H480 0.930 . S
C490 C488 1.419 . S
C490 C491 1.362 . S
C491 H481 0.930 . S
C491 C484 1.409 . S
C491 C490 1.362 . S
H492 C498 0.930 . S
H493 C501 0.930 . S
H494 C502 0.930 . S
H495 C503 0.930 . S
H496 C506 0.930 . S
H497 C507 0.930 . S
C498 H492 0.930 . S
C498 C499 1.355 1_455 S
C498 C500 1.415 . S
C499 C498 1.355 1_655 S
C499 C501 1.419 . S
C500 C498 1.415 . S
C500 C505 1.425 1_455 S
C500 C507 1.409 . S
C501 H493 0.930 . S
C501 C499 1.419 . S
C501 C502 1.362 . S
C502 H494 0.930 . S
C502 C501 1.362 . S
C502 C505 1.409 . S
C503 H495 0.930 . S
C503 C504 1.355 1_655 S
C503 C505 1.415 . S
C504 C503 1.355 1_455 S
C504 C506 1.419 . S
C505 C500 1.425 1_655 S
C505 C502 1.409 . S
C505 C503 1.415 . S
C506 H496 0.930 . S
C506 C504 1.419 . S
C506 C507 1.362 . S
C507 H497 0.930 . S
C507 C500 1.409 . S
C507 C506 1.362 . S
H508 C514 0.930 . S
H509 C517 0.930 . S
H510 C518 0.930 . S
H511 C519 0.930 . S
H512 C522 0.930 . S
H513 C523 0.930 . S
C514 H508 0.930 . S
C514 C515 1.355 . S
C514 C516 1.415 . S
C515 C514 1.355 . S
C515 C517 1.419 . S
C516 C514 1.415 . S
C516 C521 1.425 . S
C516 C523 1.409 . S
C517 H509 0.930 . S
C517 C515 1.419 . S
C517 C518 1.362 . S
C518 H510 0.930 . S
C518 C517 1.362 . S
C518 C521 1.409 . S
C519 H511 0.930 . S
C519 C520 1.355 . S
C519 C521 1.415 . S
C520 C519 1.355 . S
C520 C522 1.419 . S
C521 C516 1.425 . S
C521 C518 1.409 . S
C521 C519 1.415 . S
C522 H512 0.930 . S
C522 C520 1.419 . S
C522 C523 1.362 . S
C523 H513 0.930 . S
C523 C516 1.409 . S
C523 C522 1.362 . S
H524 C530 0.930 . S
H525 C533 0.930 . S
H526 C534 0.930 . S
H527 C535 0.930 . S
H528 C538 0.930 . S
H529 C539 0.930 . S
C530 H524 0.930 . S
C530 C531 1.355 . S
C530 C532 1.415 . S
C531 C530 1.355 . S
C531 C533 1.419 1_565 S
C532 C530 1.415 . S
C532 C537 1.425 1_565 S
C532 C539 1.409 . S
C533 H525 0.930 . S
C533 C531 1.419 1_545 S
C533 C534 1.362 . S
C534 H526 0.930 . S
C534 C533 1.362 . S
C534 C537 1.409 . S
C535 H527 0.930 . S
C535 C536 1.355 . S
C535 C537 1.415 . S
C536 C535 1.355 . S
C536 C538 1.419 1_545 S
C537 C532 1.425 1_545 S
C537 C534 1.409 . S
C537 C535 1.415 . S
C538 H528 0.930 . S
C538 C536 1.419 1_565 S
C538 C539 1.362 . S
C539 H529 0.930 . S
C539 C532 1.409 . S
C539 C538 1.362 . S
H540 C546 0.930 . S
H541 C549 0.930 . S
H542 C550 0.930 . S
H543 C551 0.930 . S
H544 C554 0.930 . S
H545 C555 0.930 . S
C546 H540 0.930 . S
C546 C547 1.355 . S
C546 C548 1.415 1_554 S
C547 C546 1.355 . S
C547 C549 1.419 . S
C548 C546 1.415 1_556 S
C548 C553 1.425 1_556 S
C548 C555 1.409 . S
C549 H541 0.930 . S
C549 C547 1.419 . S
C549 C550 1.362 . S
C550 H542 0.930 . S
C550 C549 1.362 . S
C550 C553 1.409 . S
C551 H543 0.930 . S
C551 C552 1.355 . S
C551 C553 1.415 1_556 S
C552 C551 1.355 . S
C552 C554 1.419 . S
C553 C548 1.425 1_554 S
C553 C550 1.409 . S
C553 C551 1.415 1_554 S
C554 H544 0.930 . S
C554 C552 1.419 . S
C554 C555 1.362 . S
C555 H545 0.930 . S
C555 C548 1.409 . S
C555 C554 1.362 . S
H556 C562 0.930 . S
H557 C565 0.930 . S
H558 C566 0.930 . S
H559 C567 0.930 . S
H560 C570 0.930 . S
H561 C571 0.930 . S
C562 H556 0.930 . S
C562 C563 1.355 . S
C562 C564 1.415 . S
C563 C562 1.355 . S
C563 C565 1.419 1_556 S
C564 C562 1.415 . S
C564 C569 1.425 1_556 S
C564 C571 1.409 1_545 S
C565 H557 0.930 . S
C565 C563 1.419 1_554 S
C565 C566 1.362 . S
C566 H558 0.930 . S
C566 C565 1.362 . S
C566 C569 1.409 . S
C567 H559 0.930 . S
C567 C568 1.355 . S
C567 C569 1.415 1_565 S
C568 C567 1.355 . S
C568 C570 1.419 1_554 S
C569 C564 1.425 1_554 S
C569 C566 1.409 . S
C569 C567 1.415 1_545 S
C570 H560 0.930 . S
C570 C568 1.419 1_556 S
C570 C571 1.362 . S
C571 H561 0.930 . S
C571 C564 1.409 1_565 S
C571 C570 1.362 . S
H572 C578 0.930 . S
H573 C581 0.930 . S
H574 C582 0.930 . S
H575 C583 0.930 . S
H576 C586 0.930 . S
H577 C587 0.930 . S
C578 H572 0.930 . S
C578 C579 1.355 . S
C578 C580 1.415 1_655 S
C579 C578 1.355 . S
C579 C581 1.419 1_556 S
C580 C578 1.415 1_455 S
C580 C585 1.425 1_556 S
C580 C587 1.409 . S
C581 H573 0.930 . S
C581 C579 1.419 1_554 S
C581 C582 1.362 . S
C582 H574 0.930 . S
C582 C581 1.362 . S
C582 C585 1.409 1_655 S
C583 H575 0.930 . S
C583 C584 1.355 . S
C583 C585 1.415 . S
C584 C583 1.355 . S
C584 C586 1.419 1_554 S
C585 C580 1.425 1_554 S
C585 C582 1.409 1_455 S
C585 C583 1.415 . S
C586 H576 0.930 . S
C586 C584 1.419 1_556 S
C586 C587 1.362 . S
C587 H577 0.930 . S
C587 C580 1.409 . S
C587 C586 1.362 . S
H588 C594 0.930 . S
H589 C597 0.930 . S
H590 C598 0.930 . S
H591 C599 0.930 . S
H592 C602 0.930 . S
H593 C603 0.930 . S
C594 H588 0.930 . S
C594 C595 1.355 1_554 S
C594 C596 1.415 . S
C595 C594 1.355 1_556 S
C595 C597 1.419 . S
C596 C594 1.415 . S
C596 C601 1.425 1_554 S
C596 C603 1.409 . S
C597 H589 0.930 . S
C597 C595 1.419 . S
C597 C598 1.362 . S
C598 H590 0.930 . S
C598 C597 1.362 . S
C598 C601 1.409 . S
C599 H591 0.930 . S
C599 C600 1.355 1_556 S
C599 C601 1.415 . S
C600 C599 1.355 1_554 S
C600 C602 1.419 . S
C601 C596 1.425 1_556 S
C601 C598 1.409 . S
C601 C599 1.415 . S
C602 H592 0.930 . S
C602 C600 1.419 . S
C602 C603 1.362 . S
C603 H593 0.930 . S
C603 C596 1.409 . S
C603 C602 1.362 . S
H604 C610 0.930 . S
H605 C613 0.930 . S
H606 C614 0.930 . S
H607 C615 0.930 . S
H608 C618 0.930 . S
H609 C619 0.930 . S
C610 H604 0.930 . S
C610 C611 1.355 . S
C610 C612 1.415 1_565 S
C611 C610 1.355 . S
C611 C613 1.419 1_554 S
C612 C610 1.415 1_545 S
C612 C617 1.425 1_554 S
C612 C619 1.409 . S
C613 H605 0.930 . S
C613 C611 1.419 1_556 S
C613 C614 1.362 . S
C614 H606 0.930 . S
C614 C613 1.362 . S
C614 C617 1.409 1_565 S
C615 H607 0.930 . S
C615 C616 1.355 . S
C615 C617 1.415 . S
C616 C615 1.355 . S
C616 C618 1.419 1_556 S
C617 C612 1.425 1_556 S
C617 C614 1.409 1_545 S
C617 C615 1.415 . S
C618 H608 0.930 . S
C618 C616 1.419 1_554 S
C618 C619 1.362 . S
C619 H609 0.930 . S
C619 C612 1.409 . S
C619 C618 1.362 . S
H620 C626 0.930 . S
H621 C629 0.930 . S
H622 C630 0.930 . S
H623 C631 0.930 . S
H624 C634 0.930 . S
H625 C635 0.930 . S
C626 H620 0.930 . S
C626 C627 1.355 . S
C626 C628 1.415 1_655 S
C627 C626 1.355 . S
C627 C629 1.419 1_556 S
C628 C626 1.415 1_455 S
C628 C633 1.425 1_556 S
C628 C635 1.409 . S
C629 H621 0.930 . S
C629 C627 1.419 1_554 S
C629 C630 1.362 . S
C630 H622 0.930 . S
C630 C629 1.362 . S
C630 C633 1.409 1_655 S
C631 H623 0.930 . S
C631 C632 1.355 . S
C631 C633 1.415 . S
C632 C631 1.355 . S
C632 C634 1.419 1_554 S
C633 C628 1.425 1_554 S
C633 C630 1.409 1_455 S
C633 C631 1.415 . S
C634 H624 0.930 . S
C634 C632 1.419 1_556 S
C634 C635 1.362 . S
C635 H625 0.930 . S
C635 C628 1.409 . S
C635 C634 1.362 . S
H636 C642 0.930 . S
H637 C645 0.930 . S
H638 C646 0.930 . S
H639 C647 0.930 . S
H640 C650 0.930 . S
H641 C651 0.930 . S
C642 H636 0.930 . S
C642 C643 1.355 . S
C642 C644 1.415 . S
C643 C642 1.355 . S
C643 C645 1.419 . S
C644 C642 1.415 . S
C644 C649 1.425 . S
C644 C651 1.409 . S
C645 H637 0.930 . S
C645 C643 1.419 . S
C645 C646 1.362 . S
C646 H638 0.930 . S
C646 C645 1.362 . S
C646 C649 1.409 . S
C647 H639 0.930 . S
C647 C648 1.355 . S
C647 C649 1.415 . S
C648 C647 1.355 . S
C648 C650 1.419 . S
C649 C644 1.425 . S
C649 C646 1.409 . S
C649 C647 1.415 . S
C650 H640 0.930 . S
C650 C648 1.419 . S
C650 C651 1.362 . S
C651 H641 0.930 . S
C651 C644 1.409 . S
C651 C650 1.362 . S
H652 C658 0.930 . S
H653 C661 0.930 . S
H654 C662 0.930 . S
H655 C663 0.930 . S
H656 C666 0.930 . S
H657 C667 0.930 . S
C658 H652 0.930 . S
C658 C659 1.355 . S
C658 C660 1.415 . S
C659 C658 1.355 . S
C659 C661 1.419 . S
C660 C658 1.415 . S
C660 C665 1.425 . S
C660 C667 1.409 . S
C661 H653 0.930 . S
C661 C659 1.419 . S
C661 C662 1.362 . S
C662 H654 0.930 . S
C662 C661 1.362 . S
C662 C665 1.409 . S
C663 H655 0.930 . S
C663 C664 1.355 . S
C663 C665 1.415 . S
C664 C663 1.355 . S
C664 C666 1.419 . S
C665 C660 1.425 . S
C665 C662 1.409 . S
C665 C663 1.415 . S
C666 H656 0.930 . S
C666 C664 1.419 . S
C666 C667 1.362 . S
C667 H657 0.930 . S
C667 C660 1.409 . S
C667 C666 1.362 . S
H668 C674 0.930 . S
H669 C677 0.930 . S
H670 C678 0.930 . S
H671 C679 0.930 . S
H672 C682 0.930 . S
H673 C683 0.930 . S
C674 H668 0.930 . S
C674 C675 1.355 . S
C674 C676 1.415 . S
C675 C674 1.355 . S
C675 C677 1.419 . S
C676 C674 1.415 . S
C676 C681 1.425 . S
C676 C683 1.409 . S
C677 H669 0.930 . S
C677 C675 1.419 . S
C677 C678 1.362 . S
C678 H670 0.930 . S
C678 C677 1.362 . S
C678 C681 1.409 . S
C679 H671 0.930 . S
C679 C680 1.355 . S
C679 C681 1.415 . S
C680 C679 1.355 . S
C680 C682 1.419 . S
C681 C676 1.425 . S
C681 C678 1.409 . S
C681 C679 1.415 . S
C682 H672 0.930 . S
C682 C680 1.419 . S
C682 C683 1.362 . S
C683 H673 0.930 . S
C683 C676 1.409 . S
C683 C682 1.362 . S
H684 C690 0.930 . S
H685 C693 0.930 . S
H686 C694 0.930 . S
H687 C695 0.930 . S
H688 C698 0.930 . S
H689 C699 0.930 . S
C690 H684 0.930 . S
C690 C691 1.355 . S
C690 C692 1.415 . S
C691 C690 1.355 . S
C691 C693 1.419 . S
C692 C690 1.415 . S
C692 C697 1.425 . S
C692 C699 1.409 . S
C693 H685 0.930 . S
C693 C691 1.419 . S
C693 C694 1.362 . S
C694 H686 0.930 . S
C694 C693 1.362 . S
C694 C697 1.409 . S
C695 H687 0.930 . S
C695 C696 1.355 . S
C695 C697 1.415 . S
C696 C695 1.355 . S
C696 C698 1.419 . S
C697 C692 1.425 . S
C697 C694 1.409 . S
C697 C695 1.415 . S
C698 H688 0.930 . S
C698 C696 1.419 . S
C698 C699 1.362 . S
C699 H689 0.930 . S
C699 C692 1.409 . S
C699 C698 1.362 . S
H700 C706 0.930 . S
H701 C709 0.930 . S
H702 C710 0.930 . S
H703 C711 0.930 . S
H704 C714 0.930 . S
H705 C715 0.930 . S
C706 H700 0.930 . S
C706 C707 1.355 . S
C706 C708 1.415 . S
C707 C706 1.355 . S
C707 C709 1.419 . S
C708 C706 1.415 . S
C708 C713 1.425 . S
C708 C715 1.409 . S
C709 H701 0.930 . S
C709 C707 1.419 . S
C709 C710 1.362 . S
C710 H702 0.930 . S
C710 C709 1.362 . S
C710 C713 1.409 . S
C711 H703 0.930 . S
C711 C712 1.355 . S
C711 C713 1.415 . S
C712 C711 1.355 . S
C712 C714 1.419 . S
C713 C708 1.425 . S
C713 C710 1.409 . S
C713 C711 1.415 . S
C714 H704 0.930 . S
C714 C712 1.419 . S
C714 C715 1.362 . S
C715 H705 0.930 . S
C715 C708 1.409 . S
C715 C714 1.362 . S
H716 C722 0.930 . S
H717 C725 0.930 . S
H718 C726 0.930 . S
H719 C727 0.930 . S
H720 C730 0.930 . S
H721 C731 0.930 . S
C722 H716 0.930 . S
C722 C723 1.355 . S
C722 C724 1.415 . S
C723 C722 1.355 . S
C723 C725 1.419 . S
C724 C722 1.415 . S
C724 C729 1.425 . S
C724 C731 1.409 . S
C725 H717 0.930 . S
C725 C723 1.419 . S
C725 C726 1.362 . S
C726 H718 0.930 . S
C726 C725 1.362 . S
C726 C729 1.409 . S
C727 H719 0.930 . S
C727 C728 1.355 . S
C727 C729 1.415 . S
C728 C727 1.355 . S
C728 C730 1.419 . S
C729 C724 1.425 . S
C729 C726 1.409 . S
C729 C727 1.415 . S
C730 H720 0.930 . S
C730 C728 1.419 . S
C730 C731 1.362 . S
C731 H721 0.930 . S
C731 C724 1.409 . S
C731 C730 1.362 . S
H732 C738 0.930 . S
H733 C741 0.930 . S
H734 C742 0.930 . S
H735 C743 0.930 . S
H736 C746 0.930 . S
H737 C747 0.930 . S
C738 H732 0.930 . S
C738 C739 1.355 . S
C738 C740 1.415 . S
C739 C738 1.355 . S
C739 C741 1.419 . S
C740 C738 1.415 . S
C740 C745 1.425 . S
C740 C747 1.409 . S
C741 H733 0.930 . S
C741 C739 1.419 . S
C741 C742 1.362 . S
C742 H734 0.930 . S
C742 C741 1.362 . S
C742 C745 1.409 . S
C743 H735 0.930 . S
C743 C744 1.355 . S
C743 C745 1.415 . S
C744 C743 1.355 . S
C744 C746 1.419 . S
C745 C740 1.425 . S
C745 C742 1.409 . S
C745 C743 1.415 . S
C746 H736 0.930 . S
C746 C744 1.419 . S
C746 C747 1.362 . S
C747 H737 0.930 . S
C747 C740 1.409 . S
C747 C746 1.362 . S
H748 C754 0.930 . S
H749 C757 0.930 . S
H750 C758 0.930 . S
H751 C759 0.930 . S
H752 C762 0.930 . S
H753 C763 0.930 . S
C754 H748 0.930 . S
C754 C755 1.355 . S
C754 C756 1.415 . S
C755 C754 1.355 . S
C755 C757 1.419 . S
C756 C754 1.415 . S
C756 C761 1.425 . S
C756 C763 1.409 . S
C757 H749 0.930 . S
C757 C755 1.419 . S
C757 C758 1.362 . S
C758 H750 0.930 . S
C758 C757 1.362 . S
C758 C761 1.409 . S
C759 H751 0.930 . S
C759 C760 1.355 . S
C759 C761 1.415 . S
C760 C759 1.355 . S
C760 C762 1.419 . S
C761 C756 1.425 . S
C761 C758 1.409 . S
C761 C759 1.415 . S
C762 H752 0.930 . S
C762 C760 1.419 . S
C762 C763 1.362 . S
C763 H753 0.930 . S
C763 C756 1.409 . S
C763 C762 1.362 . S
H764 C770 0.930 . S
H765 C773 0.930 . S
H766 C774 0.930 . S
H767 C775 0.930 . S
H768 C778 0.930 . S
H769 C779 0.930 . S
C770 H764 0.930 . S
C770 C771 1.355 . S
C770 C772 1.415 . S
C771 C770 1.355 . S
C771 C773 1.419 . S
C772 C770 1.415 . S
C772 C777 1.425 . S
C772 C779 1.409 . S
C773 H765 0.930 . S
C773 C771 1.419 . S
C773 C774 1.362 . S
C774 H766 0.930 . S
C774 C773 1.362 . S
C774 C777 1.409 . S
C775 H767 0.930 . S
C775 C776 1.355 . S
C775 C777 1.415 . S
C776 C775 1.355 . S
C776 C778 1.419 . S
C777 C772 1.425 . S
C777 C774 1.409 . S
C777 C775 1.415 . S
C778 H768 0.930 . S
C778 C776 1.419 . S
C778 C779 1.362 . S
C779 H769 0.930 . S
C779 C772 1.409 . S
C779 C778 1.362 . S
H780 C786 0.930 . S
H781 C789 0.930 . S
H782 C790 0.930 . S
H783 C791 0.930 . S
H784 C794 0.930 . S
H785 C795 0.930 . S
C786 H780 0.930 . S
C786 C787 1.355 . S
C786 C788 1.415 . S
C787 C786 1.355 . S
C787 C789 1.419 . S
C788 C786 1.415 . S
C788 C793 1.425 . S
C788 C795 1.409 . S
C789 H781 0.930 . S
C789 C787 1.419 . S
C789 C790 1.362 . S
C790 H782 0.930 . S
C790 C789 1.362 . S
C790 C793 1.409 . S
C791 H783 0.930 . S
C791 C792 1.355 . S
C791 C793 1.415 . S
C792 C791 1.355 . S
C792 C794 1.419 . S
C793 C788 1.425 . S
C793 C790 1.409 . S
C793 C791 1.415 . S
C794 H784 0.930 . S
C794 C792 1.419 . S
C794 C795 1.362 . S
C795 H785 0.930 . S
C795 C788 1.409 . S
C795 C794 1.362 . S
H796 C802 0.930 . S
H797 C805 0.930 . S
H798 C806 0.930 . S
H799 C807 0.930 . S
H800 C810 0.930 . S
H801 C811 0.930 . S
C802 H796 0.930 . S
C802 C803 1.355 . S
C802 C804 1.415 . S
C803 C802 1.355 . S
C803 C805 1.419 . S
C804 C802 1.415 . S
C804 C809 1.425 . S
C804 C811 1.409 . S
C805 H797 0.930 . S
C805 C803 1.419 . S
C805 C806 1.362 . S
C806 H798 0.930 . S
C806 C805 1.362 . S
C806 C809 1.409 . S
C807 H799 0.930 . S
C807 C808 1.355 . S
C807 C809 1.415 . S
C808 C807 1.355 . S
C808 C810 1.419 . S
C809 C804 1.425 . S
C809 C806 1.409 . S
C809 C807 1.415 . S
C810 H800 0.930 . S
C810 C808 1.419 . S
C810 C811 1.362 . S
C811 H801 0.930 . S
C811 C804 1.409 . S
C811 C810 1.362 . S
H812 C818 0.930 . S
H813 C821 0.930 . S
H814 C822 0.930 . S
H815 C823 0.930 . S
H816 C826 0.930 . S
H817 C827 0.930 . S
C818 H812 0.930 . S
C818 C819 1.355 . S
C818 C820 1.415 . S
C819 C818 1.355 . S
C819 C821 1.419 . S
C820 C818 1.415 . S
C820 C825 1.425 . S
C820 C827 1.409 . S
C821 H813 0.930 . S
C821 C819 1.419 . S
C821 C822 1.362 . S
C822 H814 0.930 . S
C822 C821 1.362 . S
C822 C825 1.409 . S
C823 H815 0.930 . S
C823 C824 1.355 . S
C823 C825 1.415 . S
C824 C823 1.355 . S
C824 C826 1.419 . S
C825 C820 1.425 . S
C825 C822 1.409 . S
C825 C823 1.415 . S
C826 H816 0.930 . S
C826 C824 1.419 . S
C826 C827 1.362 . S
C827 H817 0.930 . S
C827 C820 1.409 . S
C827 C826 1.362 . S
C259 C244 1.599 . S
C264 C6 1.604 . S
C275 C216 1.635 . S
C280 C20 1.630 . S
C291 C230 1.599 . S
C296 C34 1.604 . S
C307 C104 1.601 . S
C312 C48 1.608 . S
C323 C118 1.630 . S
C328 C62 1.635 . S
C339 C76 1.601 . S
C344 C90 1.600 . S
C355 C132 1.624 . S
C360 C188 1.614 . S
C371 C146 1.607 . S
C376 C202 1.617 . S
C387 C160 1.600 . S
C392 C174 1.606 . S
C403 C9 0.906 . S
C408 C247 0.917 . S
C419 C219 0.917 . S
C424 C23 0.906 . S
C435 C37 0.912 . S
C440 C233 0.908 . S
C451 C107 0.996 . S
C456 C51 1.006 . S
C467 C65 0.907 . S
C472 C121 0.913 . S
C483 C79 1.005 . S
C488 C93 0.998 . S
C499 C135 0.905 . S
C504 C191 0.928 . S
C515 C205 0.928 . S
C520 C149 0.905 . S
C531 C177 1.006 . S
C536 C163 0.998 . S
C547 C8 1.755 . S
C552 C50 1.766 . S
C563 C64 1.763 . S
C568 C22 1.761 . S
C579 C78 1.763 . S
C584 C36 1.761 . S
C595 C77 1.702 . S
C600 C21 1.683 . S
C611 C35 1.658 . S
C616 C49 1.673 . S
C627 C63 1.669 . S
C632 C7 1.661 . S
C643 C92 1.767 . S
C648 C134 1.756 . S
C659 C148 1.761 . S
C664 C106 1.763 . S
C675 C162 1.766 . S
C680 C120 1.755 . S
C691 C161 1.658 . S
C696 C105 1.706 . S
C707 C119 1.699 . S
C712 C133 1.686 . S
C723 C147 1.653 . S
C728 C91 1.702 . S
C739 C218 1.756 . S
C744 C176 1.765 . S
C755 C232 1.755 . S
C760 C190 1.767 . S
C771 C204 1.767 . S
C776 C246 1.754 . S
C787 C245 1.698 . S
C792 C189 1.688 . S
C803 C203 1.653 . S
C808 C217 1.703 . S
C819 C231 1.677 . S
C824 C175 1.656 . S
