# Generated by pormake.
# Topology wiq, (6)-cn, num edge types: 1
# Building blocks:
#     Node 0, Type 0, BuildingBlock: MIDCAF_clean_sbu_0, # of connection points: 6
#     Node 1, Type 0, BuildingBlock: MIDCAF_clean_sbu_0, # of connection points: 6
#     Node 2, Type 0, BuildingBlock: MIDCAF_clean_sbu_0, # of connection points: 6
#     Node 3, Type 0, BuildingBlock: MIDCAF_clean_sbu_0, # of connection points: 6
#     Node 4, Type 0, BuildingBlock: MIDCAF_clean_sbu_0, # of connection points: 6
#     Node 5, Type 0, BuildingBlock: MIDCAF_clean_sbu_0, # of connection points: 6
#     Node 6, Type 0, BuildingBlock: MIDCAF_clean_sbu_0, # of connection points: 6
#     Node 7, Type 0, BuildingBlock: MIDCAF_clean_sbu_0, # of connection points: 6
#     Node 8, Type 0, BuildingBlock: MIDCAF_clean_sbu_0, # of connection points: 6
#     Node 9, Type 0, BuildingBlock: MIDCAF_clean_sbu_0, # of connection points: 6
#     Node 10, Type 0, BuildingBlock: MIDCAF_clean_sbu_0, # of connection points: 6
#     Node 11, Type 0, BuildingBlock: MIDCAF_clean_sbu_0, # of connection points: 6
#     Node 12, Type 0, BuildingBlock: MIDCAF_clean_sbu_0, # of connection points: 6
#     Node 13, Type 0, BuildingBlock: MIDCAF_clean_sbu_0, # of connection points: 6
#     Node 14, Type 0, BuildingBlock: MIDCAF_clean_sbu_0, # of connection points: 6
#     Node 15, Type 0, BuildingBlock: MIDCAF_clean_sbu_0, # of connection points: 6
#     Node 16, Type 0, BuildingBlock: MIDCAF_clean_sbu_0, # of connection points: 6
#     Node 17, Type 0, BuildingBlock: MIDCAF_clean_sbu_0, # of connection points: 6
#     Node 18, Type 0, BuildingBlock: MIDCAF_clean_sbu_0, # of connection points: 6
#     Node 19, Type 0, BuildingBlock: MIDCAF_clean_sbu_0, # of connection points: 6
#     Node 20, Type 0, BuildingBlock: MIDCAF_clean_sbu_0, # of connection points: 6
#     Node 21, Type 0, BuildingBlock: MIDCAF_clean_sbu_0, # of connection points: 6
#     Node 22, Type 0, BuildingBlock: MIDCAF_clean_sbu_0, # of connection points: 6
#     Node 23, Type 0, BuildingBlock: MIDCAF_clean_sbu_0, # of connection points: 6
#     Node 24, Type 0, BuildingBlock: MIDCAF_clean_sbu_0, # of connection points: 6
#     Node 25, Type 0, BuildingBlock: MIDCAF_clean_sbu_0, # of connection points: 6
#     Node 26, Type 0, BuildingBlock: MIDCAF_clean_sbu_0, # of connection points: 6
#     Node 27, Type 0, BuildingBlock: MIDCAF_clean_sbu_0, # of connection points: 6
#     Node 28, Type 0, BuildingBlock: MIDCAF_clean_sbu_0, # of connection points: 6
#     Node 29, Type 0, BuildingBlock: MIDCAF_clean_sbu_0, # of connection points: 6
#     Node 30, Type 0, BuildingBlock: MIDCAF_clean_sbu_0, # of connection points: 6
#     Node 31, Type 0, BuildingBlock: MIDCAF_clean_sbu_0, # of connection points: 6
#     Edge 32, Type (0, 0), BuildingBlock: UVAHIK_clean_linker_0, # of connection points: 2
#     Edge 33, Type (0, 0), BuildingBlock: UVAHIK_clean_linker_0, # of connection points: 2
#     Edge 34, Type (0, 0), BuildingBlock: UVAHIK_clean_linker_0, # of connection points: 2
#     Edge 35, Type (0, 0), BuildingBlock: UVAHIK_clean_linker_0, # of connection points: 2
#     Edge 36, Type (0, 0), BuildingBlock: UVAHIK_clean_linker_0, # of connection points: 2
#     Edge 37, Type (0, 0), BuildingBlock: UVAHIK_clean_linker_0, # of connection points: 2
#     Edge 38, Type (0, 0), BuildingBlock: UVAHIK_clean_linker_0, # of connection points: 2
#     Edge 39, Type (0, 0), BuildingBlock: UVAHIK_clean_linker_0, # of connection points: 2
#     Edge 40, Type (0, 0), BuildingBlock: UVAHIK_clean_linker_0, # of connection points: 2
#     Edge 41, Type (0, 0), BuildingBlock: UVAHIK_clean_linker_0, # of connection points: 2
#     Edge 42, Type (0, 0), BuildingBlock: UVAHIK_clean_linker_0, # of connection points: 2
#     Edge 43, Type (0, 0), BuildingBlock: UVAHIK_clean_linker_0, # of connection points: 2
#     Edge 44, Type (0, 0), BuildingBlock: UVAHIK_clean_linker_0, # of connection points: 2
#     Edge 45, Type (0, 0), BuildingBlock: UVAHIK_clean_linker_0, # of connection points: 2
#     Edge 46, Type (0, 0), BuildingBlock: UVAHIK_clean_linker_0, # of connection points: 2
#     Edge 47, Type (0, 0), BuildingBlock: UVAHIK_clean_linker_0, # of connection points: 2
#     Edge 48, Type (0, 0), BuildingBlock: UVAHIK_clean_linker_0, # of connection points: 2
#     Edge 49, Type (0, 0), BuildingBlock: UVAHIK_clean_linker_0, # of connection points: 2
#     Edge 50, Type (0, 0), BuildingBlock: UVAHIK_clean_linker_0, # of connection points: 2
#     Edge 51, Type (0, 0), BuildingBlock: UVAHIK_clean_linker_0, # of connection points: 2
#     Edge 52, Type (0, 0), BuildingBlock: UVAHIK_clean_linker_0, # of connection points: 2
#     Edge 53, Type (0, 0), BuildingBlock: UVAHIK_clean_linker_0, # of connection points: 2
#     Edge 54, Type (0, 0), BuildingBlock: UVAHIK_clean_linker_0, # of connection points: 2
#     Edge 55, Type (0, 0), BuildingBlock: UVAHIK_clean_linker_0, # of connection points: 2
#     Edge 56, Type (0, 0), BuildingBlock: UVAHIK_clean_linker_0, # of connection points: 2
#     Edge 57, Type (0, 0), BuildingBlock: UVAHIK_clean_linker_0, # of connection points: 2
#     Edge 58, Type (0, 0), BuildingBlock: UVAHIK_clean_linker_0, # of connection points: 2
#     Edge 59, Type (0, 0), BuildingBlock: UVAHIK_clean_linker_0, # of connection points: 2
#     Edge 60, Type (0, 0), BuildingBlock: UVAHIK_clean_linker_0, # of connection points: 2
#     Edge 61, Type (0, 0), BuildingBlock: UVAHIK_clean_linker_0, # of connection points: 2
#     Edge 62, Type (0, 0), BuildingBlock: UVAHIK_clean_linker_0, # of connection points: 2
#     Edge 63, Type (0, 0), BuildingBlock: UVAHIK_clean_linker_0, # of connection points: 2
#     Edge 64, Type (0, 0), BuildingBlock: UVAHIK_clean_linker_0, # of connection points: 2
#     Edge 65, Type (0, 0), BuildingBlock: UVAHIK_clean_linker_0, # of connection points: 2
#     Edge 66, Type (0, 0), BuildingBlock: UVAHIK_clean_linker_0, # of connection points: 2
#     Edge 67, Type (0, 0), BuildingBlock: UVAHIK_clean_linker_0, # of connection points: 2
#     Edge 68, Type (0, 0), BuildingBlock: UVAHIK_clean_linker_0, # of connection points: 2
#     Edge 69, Type (0, 0), BuildingBlock: UVAHIK_clean_linker_0, # of connection points: 2
#     Edge 70, Type (0, 0), BuildingBlock: UVAHIK_clean_linker_0, # of connection points: 2
#     Edge 71, Type (0, 0), BuildingBlock: UVAHIK_clean_linker_0, # of connection points: 2
#     Edge 72, Type (0, 0), BuildingBlock: UVAHIK_clean_linker_0, # of connection points: 2
#     Edge 73, Type (0, 0), BuildingBlock: UVAHIK_clean_linker_0, # of connection points: 2
#     Edge 74, Type (0, 0), BuildingBlock: UVAHIK_clean_linker_0, # of connection points: 2
#     Edge 75, Type (0, 0), BuildingBlock: UVAHIK_clean_linker_0, # of connection points: 2
#     Edge 76, Type (0, 0), BuildingBlock: UVAHIK_clean_linker_0, # of connection points: 2
#     Edge 77, Type (0, 0), BuildingBlock: UVAHIK_clean_linker_0, # of connection points: 2
#     Edge 78, Type (0, 0), BuildingBlock: UVAHIK_clean_linker_0, # of connection points: 2
#     Edge 79, Type (0, 0), BuildingBlock: UVAHIK_clean_linker_0, # of connection points: 2
#     Edge 80, Type (0, 0), BuildingBlock: UVAHIK_clean_linker_0, # of connection points: 2
#     Edge 81, Type (0, 0), BuildingBlock: UVAHIK_clean_linker_0, # of connection points: 2
#     Edge 82, Type (0, 0), BuildingBlock: UVAHIK_clean_linker_0, # of connection points: 2
#     Edge 83, Type (0, 0), BuildingBlock: UVAHIK_clean_linker_0, # of connection points: 2
#     Edge 84, Type (0, 0), BuildingBlock: UVAHIK_clean_linker_0, # of connection points: 2
#     Edge 85, Type (0, 0), BuildingBlock: UVAHIK_clean_linker_0, # of connection points: 2
#     Edge 86, Type (0, 0), BuildingBlock: UVAHIK_clean_linker_0, # of connection points: 2
#     Edge 87, Type (0, 0), BuildingBlock: UVAHIK_clean_linker_0, # of connection points: 2
#     Edge 88, Type (0, 0), BuildingBlock: UVAHIK_clean_linker_0, # of connection points: 2
#     Edge 89, Type (0, 0), BuildingBlock: UVAHIK_clean_linker_0, # of connection points: 2
#     Edge 90, Type (0, 0), BuildingBlock: UVAHIK_clean_linker_0, # of connection points: 2
#     Edge 91, Type (0, 0), BuildingBlock: UVAHIK_clean_linker_0, # of connection points: 2
#     Edge 92, Type (0, 0), BuildingBlock: UVAHIK_clean_linker_0, # of connection points: 2
#     Edge 93, Type (0, 0), BuildingBlock: UVAHIK_clean_linker_0, # of connection points: 2
#     Edge 94, Type (0, 0), BuildingBlock: UVAHIK_clean_linker_0, # of connection points: 2
#     Edge 95, Type (0, 0), BuildingBlock: UVAHIK_clean_linker_0, # of connection points: 2
#     Edge 96, Type (0, 0), BuildingBlock: UVAHIK_clean_linker_0, # of connection points: 2
#     Edge 97, Type (0, 0), BuildingBlock: UVAHIK_clean_linker_0, # of connection points: 2
#     Edge 98, Type (0, 0), BuildingBlock: UVAHIK_clean_linker_0, # of connection points: 2
#     Edge 99, Type (0, 0), BuildingBlock: UVAHIK_clean_linker_0, # of connection points: 2
#     Edge 100, Type (0, 0), BuildingBlock: UVAHIK_clean_linker_0, # of connection points: 2
#     Edge 101, Type (0, 0), BuildingBlock: UVAHIK_clean_linker_0, # of connection points: 2
#     Edge 102, Type (0, 0), BuildingBlock: UVAHIK_clean_linker_0, # of connection points: 2
#     Edge 103, Type (0, 0), BuildingBlock: UVAHIK_clean_linker_0, # of connection points: 2
#     Edge 104, Type (0, 0), BuildingBlock: UVAHIK_clean_linker_0, # of connection points: 2
#     Edge 105, Type (0, 0), BuildingBlock: UVAHIK_clean_linker_0, # of connection points: 2
#     Edge 106, Type (0, 0), BuildingBlock: UVAHIK_clean_linker_0, # of connection points: 2
#     Edge 107, Type (0, 0), BuildingBlock: UVAHIK_clean_linker_0, # of connection points: 2
#     Edge 108, Type (0, 0), BuildingBlock: UVAHIK_clean_linker_0, # of connection points: 2
#     Edge 109, Type (0, 0), BuildingBlock: UVAHIK_clean_linker_0, # of connection points: 2
#     Edge 110, Type (0, 0), BuildingBlock: UVAHIK_clean_linker_0, # of connection points: 2
#     Edge 111, Type (0, 0), BuildingBlock: UVAHIK_clean_linker_0, # of connection points: 2
#     Edge 112, Type (0, 0), BuildingBlock: UVAHIK_clean_linker_0, # of connection points: 2
#     Edge 113, Type (0, 0), BuildingBlock: UVAHIK_clean_linker_0, # of connection points: 2
#     Edge 114, Type (0, 0), BuildingBlock: UVAHIK_clean_linker_0, # of connection points: 2
#     Edge 115, Type (0, 0), BuildingBlock: UVAHIK_clean_linker_0, # of connection points: 2
#     Edge 116, Type (0, 0), BuildingBlock: UVAHIK_clean_linker_0, # of connection points: 2
#     Edge 117, Type (0, 0), BuildingBlock: UVAHIK_clean_linker_0, # of connection points: 2
#     Edge 118, Type (0, 0), BuildingBlock: UVAHIK_clean_linker_0, # of connection points: 2
#     Edge 119, Type (0, 0), BuildingBlock: UVAHIK_clean_linker_0, # of connection points: 2
#     Edge 120, Type (0, 0), BuildingBlock: UVAHIK_clean_linker_0, # of connection points: 2
#     Edge 121, Type (0, 0), BuildingBlock: UVAHIK_clean_linker_0, # of connection points: 2
#     Edge 122, Type (0, 0), BuildingBlock: UVAHIK_clean_linker_0, # of connection points: 2
#     Edge 123, Type (0, 0), BuildingBlock: UVAHIK_clean_linker_0, # of connection points: 2
#     Edge 124, Type (0, 0), BuildingBlock: UVAHIK_clean_linker_0, # of connection points: 2
#     Edge 125, Type (0, 0), BuildingBlock: UVAHIK_clean_linker_0, # of connection points: 2
#     Edge 126, Type (0, 0), BuildingBlock: UVAHIK_clean_linker_0, # of connection points: 2
#     Edge 127, Type (0, 0), BuildingBlock: UVAHIK_clean_linker_0, # of connection points: 2
# Relax obj value: 0.522
# Max RMSD: 0.295
# Mean RMSD: 0.295
data_MOF--net-wiq--node1-MIDCAF_clean_sbu_0--edge1-UVAHIK_clean_linker_0
_symmetry_space_group_name_H-M    P1
_symmetry_Int_Tables_number       1
_symmetry_cell_setting            triclinic
loop_
_symmetry_equiv_pos_as_xyz
'x, y, z'
_cell_length_a     60.85556
_cell_length_b     60.805228
_cell_length_c     62.842159
_cell_angle_alpha  89.841296
_cell_angle_beta   89.926115
_cell_angle_gamma 89.97745
loop_
_atom_site_label
_atom_site_type_symbol
_atom_site_fract_x
_atom_site_fract_y
_atom_site_fract_z
_atom_type_partial_charge
Zn0 Zn 0.14421 0.13312 0.24142 0.0
Zn1 Zn 0.06224 0.17014 0.30187 0.0
Zn2 Zn 0.11542 0.1493 0.26481 0.0
C3 C 0.06691 0.13785 0.26961 0.0
C4 C 0.09616 0.18999 0.26856 0.0
O5 O 0.1346 0.1776 0.25225 0.0
O6 O 0.16347 0.15908 0.24072 0.0
C7 C 0.14181 0.11103 0.28193 0.0
O8 O 0.08405 0.1317 0.25933 0.0
O9 O 0.06476 0.15829 0.27213 0.0
O10 O 0.08862 0.17664 0.28224 0.0
O11 O 0.11339 0.1839 0.25876 0.0
O12 O 0.14834 0.10976 0.26286 0.0
O13 O 0.13074 0.12787 0.28807 0.0
O14 O 0.0962 0.13343 0.23991 0.0
O15 O 0.12349 0.12903 0.21721 0.0
C16 C 0.10311 0.12937 0.22101 0.0
O17 O 0.12152 0.14844 0.29931 0.0
O18 O 0.09402 0.16764 0.31495 0.0
C19 C 0.15437 0.17722 0.24494 0.0
C20 C 0.1136 0.15984 0.31494 0.0
Zn21 Zn 0.10811 0.88748 0.49736 0.0
Zn22 Zn 0.07387 0.81961 0.55753 0.0
Zn23 Zn 0.09296 0.86044 0.51919 0.0
C24 C 0.10318 0.81402 0.52369 0.0
C25 C 0.04691 0.83805 0.51726 0.0
O26 O 0.06398 0.87816 0.50552 0.0
O27 O 0.08358 0.9075 0.49745 0.0
C28 C 0.1327 0.88883 0.53362 0.0
O29 O 0.11089 0.83024 0.51324 0.0
O30 O 0.08293 0.81503 0.52745 0.0
O31 O 0.05291 0.82442 0.53167 0.0
O32 O 0.0583 0.85526 0.51252 0.0
O33 O 0.13351 0.89444 0.51434 0.0
O34 O 0.11588 0.8781 0.54062 0.0
O35 O 0.11232 0.84294 0.49486 0.0
O36 O 0.11346 0.87007 0.47165 0.0
C37 C 0.11635 0.85003 0.47601 0.0
O38 O 0.09533 0.87307 0.55195 0.0
O39 O 0.07755 0.84862 0.57252 0.0
C40 C 0.06508 0.89842 0.49945 0.0
C41 C 0.08587 0.86752 0.5696 0.0
Zn42 Zn 0.38882 0.85426 0.80358 0.0
Zn43 Zn 0.35171 0.85694 0.74077 0.0
Zn44 Zn 0.3746 0.85141 0.77086 0.0
C45 C 0.39737 0.85356 0.72852 0.0
C46 C 0.34712 0.8934 0.76835 0.0
O47 O 0.36188 0.82458 0.79267 0.0
O48 O 0.36285 0.84497 0.82144 0.0
C49 C 0.40102 0.8147 0.78192 0.0
O50 O 0.40108 0.85354 0.74852 0.0
O51 O 0.3779 0.85457 0.72154 0.0
O52 O 0.34173 0.8868 0.75003 0.0
O53 O 0.3582 0.88083 0.78058 0.0
O54 O 0.40982 0.82965 0.79303 0.0
O55 O 0.38052 0.81685 0.77713 0.0
O56 O 0.40816 0.86521 0.76953 0.0
O57 O 0.39898 0.88491 0.79735 0.0
C58 C 0.41217 0.8814 0.78211 0.0
O59 O 0.35691 0.81953 0.76929 0.0
O60 O 0.33334 0.83005 0.7444 0.0
C61 C 0.35671 0.82743 0.81239 0.0
C62 C 0.34014 0.81561 0.75731 0.0
Zn63 Zn 0.39182 0.09212 0.00496 0.0
Zn64 Zn 0.40899 0.17493 0.06285 0.0
Zn65 Zn 0.39973 0.12567 0.02243 0.0
C66 C 0.38653 0.17007 0.02224 0.0
C67 C 0.44256 0.15128 0.0258 0.0
O68 O 0.43072 0.1089 0.01559 0.0
O69 O 0.41556 0.07654 0.02065 0.0
C70 C 0.35899 0.10177 0.03476 0.0
O71 O 0.38181 0.15419 0.00979 0.0
O72 O 0.40455 0.16834 0.03181 0.0
O73 O 0.43276 0.16457 0.03864 0.0
O74 O 0.43419 0.13259 0.02077 0.0
O75 O 0.36193 0.09284 0.01688 0.0
O76 O 0.37472 0.11262 0.04338 0.0
O77 O 0.38658 0.13918 0.99374 0.0
O78 O 0.39898 0.10929 0.97802 0.0
C79 C 0.3928 0.12915 0.97691 0.0
O80 O 0.40106 0.13343 0.05532 0.0
O81 O 0.40381 0.15036 0.08537 0.0
C82 C 0.43262 0.08821 0.01916 0.0
C83 C 0.40613 0.13262 0.07505 0.0
Zn84 Zn 0.08803 0.78767 0.20147 0.0
Zn85 Zn 0.14091 0.8715 0.2454 0.0
Zn86 Zn 0.11743 0.85073 0.22217 0.0
C87 C 0.10553 0.86448 0.26912 0.0
C88 C 0.13159 0.89889 0.2148 0.0
O89 O 0.13759 0.82894 0.20136 0.0
O90 O 0.11793 0.80054 0.21089 0.0
C91 C 0.08994 0.81238 0.24073 0.0
O92 O 0.10519 0.84948 0.25479 0.0
O93 O 0.11817 0.88078 0.26674 0.0
O94 O 0.14975 0.89204 0.22191 0.0
O95 O 0.11523 0.88571 0.21509 0.0
O96 O 0.10245 0.80111 0.22869 0.0
O97 O 0.0936 0.83316 0.24198 0.0
O98 O 0.09244 0.83576 0.20326 0.0
O99 O 0.0698 0.8128 0.18731 0.0
C100 C 0.07595 0.83251 0.19122 0.0
O101 O 0.15052 0.83718 0.22095 0.0
O102 O 0.15976 0.84602 0.25352 0.0
C103 C 0.13144 0.80904 0.19779 0.0
C104 C 0.16267 0.83426 0.23728 0.0
Zn105 Zn 0.45432 0.83534 0.44762 0.0
Zn106 Zn 0.37631 0.89236 0.49895 0.0
Zn107 Zn 0.39586 0.86882 0.47419 0.0
C108 C 0.38702 0.85839 0.52307 0.0
C109 C 0.34669 0.88325 0.46976 0.0
O110 O 0.41669 0.88923 0.45251 0.0
O111 O 0.44291 0.86553 0.45774 0.0
C112 C 0.4342 0.83944 0.48967 0.0
O113 O 0.39995 0.85756 0.50694 0.0
O114 O 0.37025 0.87063 0.52237 0.0
O115 O 0.35288 0.90089 0.47841 0.0
O116 O 0.36036 0.8673 0.46849 0.0
O117 O 0.44456 0.85074 0.47582 0.0
O118 O 0.41394 0.84431 0.493 0.0
O119 O 0.40673 0.84257 0.4539 0.0
O120 O 0.427 0.81882 0.43588 0.0
C121 C 0.40811 0.82619 0.44133 0.0
O122 O 0.41044 0.90158 0.47214 0.0
O123 O 0.40112 0.91257 0.50417 0.0
C124 C 0.43506 0.88092 0.44638 0.0
C125 C 0.41297 0.91469 0.48784 0.0
Zn126 Zn 0.42055 0.16195 0.68886 0.0
Zn127 Zn 0.33964 0.14221 0.74011 0.0
Zn128 Zn 0.37491 0.1494 0.72209 0.0
C129 C 0.37699 0.13619 0.76624 0.0
C130 C 0.3454 0.11149 0.7083 0.0
O131 O 0.3645 0.14632 0.68918 0.0
O132 O 0.39258 0.16158 0.67135 0.0
C133 C 0.40309 0.19234 0.72588 0.0
O134 O 0.38536 0.13005 0.74856 0.0
O135 O 0.35825 0.14519 0.76645 0.0
O136 O 0.33687 0.11342 0.7265 0.0
O137 O 0.35708 0.12734 0.7007 0.0
O138 O 0.4178 0.18404 0.7138 0.0
O139 O 0.384 0.18351 0.72813 0.0
O140 O 0.40124 0.12709 0.73136 0.0
O141 O 0.42122 0.1532 0.71965 0.0
C142 C 0.41939 0.13292 0.723 0.0
O143 O 0.36044 0.18086 0.73319 0.0
O144 O 0.32694 0.16887 0.72687 0.0
C145 C 0.37276 0.1551 0.67227 0.0
C146 C 0.33981 0.18468 0.73049 0.0
Zn147 Zn 0.09753 0.13752 0.94102 0.0
Zn148 Zn 0.10953 0.10909 0.00504 0.0
Zn149 Zn 0.09843 0.12765 0.975 0.0
C150 C 0.10533 0.15434 0.01525 0.0
C151 C 0.14177 0.10081 0.97496 0.0
O152 O 0.06968 0.11225 0.95739 0.0
O153 O 0.08754 0.10953 0.92705 0.0
C154 C 0.06002 0.1523 0.96499 0.0
O155 O 0.10145 0.15623 0.99532 0.0
O156 O 0.10948 0.13568 0.02316 0.0
O157 O 0.1377 0.0975 0.9944 0.0
O158 O 0.1278 0.11109 0.96345 0.0
O159 O 0.07337 0.15929 0.95104 0.0
O160 O 0.06319 0.13271 0.97238 0.0
O161 O 0.11127 0.16176 0.97078 0.0
O162 O 0.12783 0.15013 0.94182 0.0
C163 C 0.12547 0.16494 0.95581 0.0
O164 O 0.06803 0.10756 0.98179 0.0
O165 O 0.08429 0.08906 0.00758 0.0
C166 C 0.07067 0.10506 0.93806 0.0
C167 C 0.06766 0.092 0.99592 0.0
Zn168 Zn 0.90157 0.81383 0.69899 0.0
Zn169 Zn 0.84748 0.85119 0.73311 0.0
Zn170 Zn 0.8799 0.83326 0.72058 0.0
C171 C 0.88197 0.85647 0.76278 0.0
C172 C 0.87113 0.88306 0.71681 0.0
O173 O 0.85993 0.83014 0.69192 0.0
O174 O 0.876 0.79854 0.68577 0.0
C175 C 0.90785 0.79636 0.739 0.0
O176 O 0.89228 0.85607 0.7448 0.0
O177 O 0.86145 0.85306 0.76281 0.0
O178 O 0.85181 0.87665 0.71272 0.0
O179 O 0.88506 0.86897 0.72407 0.0
O180 O 0.91849 0.79936 0.72201 0.0
O181 O 0.88893 0.80541 0.74127 0.0
O182 O 0.90802 0.85596 0.71696 0.0
O183 O 0.91474 0.84084 0.68578 0.0
C184 C 0.91806 0.85622 0.69888 0.0
O185 O 0.86358 0.80832 0.73975 0.0
O186 O 0.8333 0.82279 0.7264 0.0
C187 C 0.86029 0.81163 0.68231 0.0
C188 C 0.84314 0.80661 0.73483 0.0
Zn189 Zn 0.88121 0.10369 0.50247 0.0
Zn190 Zn 0.89679 0.13805 0.44245 0.0
Zn191 Zn 0.89639 0.12335 0.4748 0.0
C192 C 0.87022 0.16346 0.46273 0.0
C193 C 0.93562 0.14756 0.46636 0.0
O194 O 0.92534 0.10222 0.4804 0.0
O195 O 0.90635 0.08327 0.50407 0.0
C196 C 0.85266 0.09852 0.46845 0.0
O197 O 0.88528 0.15792 0.47608 0.0
O198 O 0.86668 0.15101 0.44695 0.0
O199 O 0.92201 0.15724 0.4543 0.0
O200 O 0.93172 0.1274 0.47157 0.0
O201 O 0.85429 0.09384 0.48796 0.0
O202 O 0.86796 0.10929 0.45925 0.0
O203 O 0.89379 0.14908 0.49895 0.0
O204 O 0.87966 0.12765 0.52374 0.0
C205 C 0.88697 0.14619 0.51807 0.0
O206 O 0.92461 0.10884 0.45594 0.0
O207 O 0.90577 0.11071 0.42617 0.0
C208 C 0.92383 0.08586 0.49346 0.0
C209 C 0.92264 0.10391 0.43604 0.0
Zn210 Zn 0.64607 0.13437 0.24099 0.0
Zn211 Zn 0.56671 0.16434 0.19045 0.0
Zn212 Zn 0.60959 0.14529 0.22399 0.0
C213 C 0.56735 0.13003 0.22158 0.0
C214 C 0.58488 0.19319 0.22633 0.0
O215 O 0.62444 0.17523 0.2368 0.0
O216 O 0.65817 0.16292 0.23147 0.0
C217 C 0.63841 0.10797 0.20584 0.0
O218 O 0.58327 0.12215 0.23221 0.0
O219 O 0.56857 0.15034 0.21859 0.0
O220 O 0.57079 0.18905 0.21189 0.0
O221 O 0.60047 0.17967 0.2312 0.0
O222 O 0.64815 0.10789 0.22353 0.0
O223 O 0.62629 0.1245 0.20062 0.0
O224 O 0.59887 0.12503 0.25007 0.0
O225 O 0.62862 0.1336 0.2681 0.0
C226 C 0.60879 0.12742 0.26789 0.0
O227 O 0.61985 0.14458 0.19047 0.0
O228 O 0.59356 0.16201 0.17179 0.0
C229 C 0.64522 0.17869 0.23522 0.0
C230 C 0.61279 0.154 0.17332 0.0
Zn231 Zn 0.61325 0.8938 0.99136 0.0
Zn232 Zn 0.5425 0.83428 0.9563 0.0
Zn233 Zn 0.5934 0.86535 0.97234 0.0
C234 C 0.58241 0.81845 0.95036 0.0
C235 C 0.55759 0.83609 0.99683 0.0
O236 O 0.57483 0.89531 0.96747 0.0
O237 O 0.58735 0.91306 0.99541 0.0
C238 C 0.64091 0.88064 0.96209 0.0
O239 O 0.58233 0.8368 0.95975 0.0
O240 O 0.56404 0.80902 0.94801 0.0
O241 O 0.54318 0.84645 0.98644 0.0
O242 O 0.57802 0.84015 0.99302 0.0
O243 O 0.63434 0.89948 0.96758 0.0
O244 O 0.62798 0.86433 0.96463 0.0
O245 O 0.59219 0.85894 0.00613 0.0
O246 O 0.62235 0.87543 0.01659 0.0
C247 C 0.60667 0.8624 0.02047 0.0
O248 O 0.57265 0.882 0.94775 0.0
O249 O 0.5456 0.85977 0.93574 0.0
C250 C 0.57336 0.91115 0.98075 0.0
C251 C 0.55704 0.87724 0.93449 0.0
Zn252 Zn 0.92317 0.20477 0.79335 0.0
Zn253 Zn 0.85048 0.1394 0.76568 0.0
Zn254 Zn 0.88621 0.15716 0.76995 0.0
C255 C 0.8787 0.13222 0.73046 0.0
C256 C 0.87541 0.10764 0.7788 0.0
O257 O 0.87213 0.16531 0.79974 0.0
O258 O 0.89341 0.19439 0.80838 0.0
C259 C 0.89906 0.19893 0.75366 0.0
O260 O 0.89149 0.1319 0.74668 0.0
O261 O 0.85866 0.13684 0.7335 0.0
O262 O 0.85727 0.11462 0.78592 0.0
O263 O 0.88791 0.12111 0.76867 0.0
O264 O 0.89696 0.20214 0.77342 0.0
O265 O 0.88833 0.18265 0.74618 0.0
O266 O 0.91623 0.16569 0.78245 0.0
O267 O 0.94583 0.17918 0.79604 0.0
C268 C 0.93462 0.16233 0.79127 0.0
O269 O 0.86156 0.17895 0.75573 0.0
O270 O 0.83323 0.16556 0.77336 0.0
C271 C 0.87677 0.18186 0.81159 0.0
C272 C 0.84166 0.18056 0.76205 0.0
Zn273 Zn 0.59775 0.14189 0.55378 0.0
Zn274 Zn 0.6066 0.10135 0.49414 0.0
Zn275 Zn 0.59664 0.12578 0.52156 0.0
C276 C 0.60506 0.14472 0.47711 0.0
C277 C 0.63827 0.09672 0.52587 0.0
O278 O 0.56913 0.11299 0.54234 0.0
O279 O 0.58871 0.11545 0.57159 0.0
C280 C 0.55835 0.15178 0.53113 0.0
O281 O 0.59951 0.14959 0.49617 0.0
O282 O 0.60999 0.12513 0.47239 0.0
O283 O 0.63321 0.08885 0.50795 0.0
O284 O 0.6255 0.11058 0.53476 0.0
O285 O 0.57267 0.16167 0.54215 0.0
O286 O 0.56166 0.13133 0.52676 0.0
O287 O 0.60819 0.15975 0.51842 0.0
O288 O 0.62814 0.15271 0.54663 0.0
C289 C 0.62395 0.16518 0.53094 0.0
O290 O 0.56573 0.10757 0.51873 0.0
O291 O 0.57835 0.08508 0.49384 0.0
C292 C 0.57159 0.10852 0.5623 0.0
C293 C 0.5629 0.09139 0.5058 0.0
Zn294 Zn 0.60722 0.85453 0.30332 0.0
Zn295 Zn 0.64016 0.85337 0.23831 0.0
Zn296 Zn 0.61993 0.8514 0.27037 0.0
C297 C 0.59351 0.85113 0.23035 0.0
C298 C 0.64905 0.89127 0.26334 0.0
O299 O 0.63206 0.82411 0.29211 0.0
O300 O 0.63223 0.84357 0.32153 0.0
C301 C 0.59269 0.81549 0.28162 0.0
O302 O 0.59148 0.85442 0.25032 0.0
O303 O 0.61235 0.84958 0.22198 0.0
O304 O 0.65155 0.88349 0.24485 0.0
O305 O 0.63888 0.88004 0.27743 0.0
O306 O 0.58494 0.83066 0.29323 0.0
O307 O 0.61308 0.81686 0.27607 0.0
O308 O 0.58687 0.86636 0.27104 0.0
O309 O 0.59785 0.88583 0.29831 0.0
C310 C 0.58353 0.88231 0.28408 0.0
O311 O 0.63713 0.81905 0.26919 0.0
O312 O 0.6588 0.82699 0.24187 0.0
C313 C 0.63719 0.82595 0.31195 0.0
C314 C 0.65303 0.8139 0.25647 0.0
Zn315 Zn 0.89989 0.85679 0.05241 0.0
Zn316 Zn 0.8831 0.88509 0.98962 0.0
Zn317 Zn 0.8983 0.86531 0.01738 0.0
C318 C 0.88819 0.84114 0.97583 0.0
C319 C 0.855 0.89159 0.02354 0.0
O320 O 0.92644 0.88227 0.03385 0.0
O321 O 0.90756 0.88679 0.0634 0.0
C322 C 0.93733 0.84195 0.02856 0.0
O323 O 0.89571 0.8387 0.9947 0.0
O324 O 0.88051 0.85953 0.97011 0.0
O325 O 0.8567 0.89666 0.00411 0.0
O326 O 0.87003 0.88017 0.03233 0.0
O327 O 0.92485 0.83592 0.04364 0.0
O328 O 0.93351 0.86091 0.02012 0.0
O329 O 0.88624 0.83091 0.0223 0.0
O330 O 0.87078 0.84203 0.05207 0.0
C331 C 0.8726 0.8275 0.03774 0.0
O332 O 0.9274 0.88643 0.00932 0.0
O333 O 0.90849 0.90492 0.98526 0.0
C334 C 0.92458 0.89098 0.05252 0.0
C335 C 0.92619 0.90217 0.99543 0.0
Zn336 Zn 0.62984 0.64006 0.74491 0.0
Zn337 Zn 0.58637 0.68062 0.83172 0.0
Zn338 Zn 0.61019 0.65434 0.77305 0.0
C339 C 0.58789 0.63358 0.80951 0.0
C340 C 0.57203 0.69265 0.7885 0.0
O341 O 0.64319 0.66944 0.77068 0.0
O342 O 0.64825 0.66598 0.73618 0.0
C343 C 0.63011 0.60821 0.77462 0.0
O344 O 0.59542 0.62644 0.7918 0.0
O345 O 0.59415 0.65281 0.8144 0.0
O346 O 0.56947 0.69784 0.80815 0.0
O347 O 0.58625 0.67838 0.78277 0.0
O348 O 0.64419 0.61653 0.76222 0.0
O349 O 0.61261 0.61915 0.77894 0.0
O350 O 0.59199 0.66269 0.7445 0.0
O351 O 0.6026 0.63271 0.72844 0.0
C352 C 0.5897 0.64895 0.7293 0.0
O353 O 0.63429 0.67421 0.78979 0.0
O354 O 0.613 0.66689 0.81642 0.0
C355 C 0.65387 0.67447 0.75365 0.0
C356 C 0.62937 0.67744 0.80926 0.0
Zn357 Zn 0.61515 0.39568 0.99344 0.0
Zn358 Zn 0.56144 0.3635 0.03819 0.0
Zn359 Zn 0.59898 0.37089 0.02099 0.0
C360 C 0.59216 0.33312 0.05154 0.0
C361 C 0.56052 0.33484 0.00705 0.0
O362 O 0.57854 0.39929 0.0191 0.0
O363 O 0.58886 0.41457 0.98892 0.0
C364 C 0.64734 0.38992 0.02089 0.0
O365 O 0.5987 0.33859 0.03311 0.0
O366 O 0.57753 0.34451 0.06057 0.0
O367 O 0.54615 0.34663 0.016 0.0
O368 O 0.58111 0.34031 0.00841 0.0
O369 O 0.63977 0.40655 0.01133 0.0
O370 O 0.63474 0.37338 0.02399 0.0
O371 O 0.59185 0.35795 0.99059 0.0
O372 O 0.62052 0.37052 0.9732 0.0
C373 C 0.60461 0.35725 0.97451 0.0
O374 O 0.58388 0.39337 0.04762 0.0
O375 O 0.54783 0.38968 0.05036 0.0
C376 C 0.57568 0.41348 0.00439 0.0
C377 C 0.56541 0.39844 0.05682 0.0
Zn378 Zn 0.89425 0.32591 0.31219 0.0
Zn379 Zn 0.84821 0.36085 0.2414 0.0
Zn380 Zn 0.86816 0.34573 0.26966 0.0
C381 C 0.88969 0.35166 0.2255 0.0
C382 C 0.84777 0.39341 0.27009 0.0
O383 O 0.85049 0.32257 0.29101 0.0
O384 O 0.87835 0.30089 0.29751 0.0
C385 C 0.90921 0.31181 0.2683 0.0
O386 O 0.88978 0.3403 0.24272 0.0
O387 O 0.87415 0.36496 0.22202 0.0
O388 O 0.83536 0.38711 0.25526 0.0
O389 O 0.86258 0.38036 0.277 0.0
O390 O 0.90566 0.30558 0.28741 0.0
O391 O 0.89994 0.32943 0.26086 0.0
O392 O 0.90204 0.35298 0.27423 0.0
O393 O 0.89141 0.35916 0.30665 0.0
C394 C 0.90484 0.36306 0.29173 0.0
O395 O 0.84013 0.32344 0.26724 0.0
O396 O 0.82862 0.33541 0.23622 0.0
C397 C 0.8582 0.305 0.29965 0.0
C398 C 0.82725 0.32163 0.25123 0.0
Zn399 Zn 0.8869 0.60491 0.4886 0.0
Zn400 Zn 0.89301 0.63942 0.55234 0.0
Zn401 Zn 0.89384 0.62664 0.51884 0.0
C402 C 0.86416 0.66303 0.53317 0.0
C403 C 0.93092 0.65341 0.52892 0.0
O404 O 0.92536 0.60872 0.5152 0.0
O405 O 0.91418 0.58735 0.48883 0.0
C406 C 0.8527 0.59706 0.51756 0.0
O407 O 0.87963 0.66 0.51949 0.0
O408 O 0.86188 0.64909 0.54805 0.0
O409 O 0.91649 0.6614 0.54122 0.0
O410 O 0.92868 0.63316 0.52318 0.0
O411 O 0.8587 0.59231 0.49887 0.0
O412 O 0.86506 0.60897 0.5292 0.0
O413 O 0.89031 0.65362 0.49663 0.0
O414 O 0.88645 0.63099 0.46953 0.0
C415 C 0.88832 0.65032 0.47663 0.0
O416 O 0.92217 0.61346 0.53884 0.0
O417 O 0.90388 0.61324 0.56904 0.0
C418 C 0.92889 0.59295 0.50187 0.0
C419 C 0.92083 0.60772 0.55863 0.0
Zn420 Zn 0.64287 0.36862 0.74515 0.0
Zn421 Zn 0.59028 0.28596 0.6955 0.0
Zn422 Zn 0.61975 0.34596 0.72134 0.0
C423 C 0.57675 0.33112 0.68962 0.0
C424 C 0.59066 0.3079 0.73723 0.0
O425 O 0.65256 0.33149 0.72345 0.0
O426 O 0.66518 0.34657 0.75281 0.0
C427 C 0.63269 0.39389 0.71169 0.0
O428 O 0.59373 0.33397 0.70121 0.0
O429 O 0.57151 0.31168 0.68375 0.0
O430 O 0.60307 0.29707 0.72465 0.0
O431 O 0.59466 0.32851 0.73949 0.0
O432 O 0.65 0.38977 0.72197 0.0
O433 O 0.61721 0.37978 0.71177 0.0
O434 O 0.60722 0.34395 0.75326 0.0
O435 O 0.61954 0.37476 0.7671 0.0
C436 C 0.60729 0.35801 0.76839 0.0
O437 O 0.64239 0.32561 0.70231 0.0
O438 O 0.61875 0.29934 0.70701 0.0
C439 C 0.66668 0.33211 0.73855 0.0
C440 C 0.63415 0.3074 0.69589 0.0
Zn441 Zn 0.91986 0.34169 0.95541 0.0
Zn442 Zn 0.88882 0.3917 0.00142 0.0
Zn443 Zn 0.90428 0.36474 0.97759 0.0
C444 C 0.87953 0.3492 0.01753 0.0
C445 C 0.86608 0.39609 0.96368 0.0
O446 O 0.90276 0.37972 0.9453 0.0
O447 O 0.93583 0.36602 0.941 0.0
C448 C 0.94409 0.33898 0.99017 0.0
O449 O 0.88568 0.3433 -0.00117 0.0
O450 O 0.88064 0.36919 0.02289 0.0
O451 O 0.86563 0.40246 0.98274 0.0
O452 O 0.88235 0.38431 0.95706 0.0
O453 O 0.93406 0.32515 0.97888 0.0
O454 O 0.9386 0.35942 0.98878 0.0
O455 O 0.88561 0.33313 0.97851 0.0
O456 O 0.89129 0.33127 0.94405 0.0
C457 C 0.88026 0.32547 0.96012 0.0
O458 O 0.93333 0.38187 0.99165 0.0
O459 O 0.91495 0.40966 0.00559 0.0
C460 C 0.92141 0.37982 0.93554 0.0
C461 C 0.93304 0.401 0.00052 0.0
Zn462 Zn 0.90078 0.65914 0.19776 0.0
Zn463 Zn 0.84562 0.6415 0.24605 0.0
Zn464 Zn 0.87591 0.65192 0.22315 0.0
C465 C 0.88652 0.63886 0.26757 0.0
C466 C 0.84794 0.61135 0.21313 0.0
O467 O 0.85912 0.64767 0.19166 0.0
O468 O 0.88022 0.67368 0.17837 0.0
C469 C 0.90405 0.68993 0.22952 0.0
O470 O 0.89395 0.63633 0.24863 0.0
O471 O 0.86661 0.64407 0.27046 0.0
O472 O 0.842 0.61282 0.23231 0.0
O473 O 0.85767 0.62776 0.20411 0.0
O474 O 0.91661 0.67745 0.21903 0.0
O475 O 0.88321 0.68643 0.22923 0.0
O476 O 0.90721 0.63384 0.22912 0.0
O477 O 0.90787 0.62717 0.19493 0.0
C478 C 0.91506 0.62291 0.21331 0.0
O479 O 0.86051 0.68341 0.2324 0.0
O480 O 0.82834 0.66716 0.23639 0.0
C481 C 0.86271 0.66271 0.17751 0.0
C482 C 0.83945 0.6845 0.23394 0.0
Zn483 Zn 0.6115 0.59832 0.49703 0.0
Zn484 Zn 0.57892 0.67592 0.44343 0.0
Zn485 Zn 0.59815 0.63162 0.47657 0.0
C486 C 0.60995 0.67702 0.47591 0.0
C487 C 0.55155 0.65538 0.48086 0.0
O488 O 0.56797 0.61508 0.48625 0.0
O489 O 0.58475 0.58292 0.48805 0.0
C490 C 0.63724 0.60419 0.46062 0.0
O491 O 0.61757 0.66003 0.48516 0.0
O492 O 0.58948 0.67703 0.4735 0.0
O493 O 0.55719 0.67073 0.46809 0.0
O494 O 0.56328 0.63792 0.48355 0.0
O495 O 0.63768 0.59648 0.47927 0.0
O496 O 0.6204 0.6152 0.45419 0.0
O497 O 0.61692 0.6451 0.50305 0.0
O498 O 0.61297 0.61591 0.52362 0.0
C499 C 0.61753 0.63609 0.52153 0.0
O500 O 0.60064 0.62176 0.44297 0.0
O501 O 0.5822 0.64834 0.42569 0.0
C502 C 0.5673 0.59396 0.48632 0.0
C503 C 0.59068 0.62926 0.4263 0.0
Zn504 Zn 0.39602 0.30851 0.19804 0.0
Zn505 Zn 0.34776 0.35667 0.23201 0.0
Zn506 Zn 0.37473 0.33492 0.21681 0.0
C507 C 0.37663 0.34569 0.26435 0.0
C508 C 0.36583 0.38521 0.20902 0.0
O509 O 0.35083 0.32222 0.19413 0.0
O510 O 0.37246 0.29726 0.17984 0.0
C511 C 0.40438 0.29659 0.23842 0.0
O512 O 0.3781 0.32975 0.2509 0.0
O513 O 0.36631 0.36293 0.25898 0.0
O514 O 0.34585 0.37958 0.20927 0.0
O515 O 0.38048 0.37073 0.21371 0.0
O516 O 0.40767 0.28866 0.22018 0.0
O517 O 0.39198 0.31363 0.24046 0.0
O518 O 0.39997 0.35725 0.20654 0.0
O519 O 0.41716 0.33174 0.18797 0.0
C520 C 0.41586 0.35136 0.1945 0.0
O521 O 0.35924 0.3144 0.24147 0.0
O522 O 0.32775 0.33082 0.2343 0.0
C523 C 0.35388 0.30632 0.1812 0.0
C524 C 0.33806 0.31452 0.24191 0.0
Zn525 Zn 0.38544 0.59851 -0.00247 0.0
Zn526 Zn 0.40445 0.66513 0.92293 0.0
Zn527 Zn 0.39661 0.62808 0.97415 0.0
C528 C 0.38434 0.67086 0.96522 0.0
C529 C 0.43944 0.6515 0.96377 0.0
O530 O 0.4277 0.61206 0.98135 0.0
O531 O 0.4115 0.58077 0.98966 0.0
C532 C 0.35625 0.60161 0.96253 0.0
O533 O 0.38052 0.65948 0.98193 0.0
O534 O 0.40092 0.66517 0.95469 0.0
O535 O 0.4292 0.66136 0.94849 0.0
O536 O 0.43115 0.63452 0.973 0.0
O537 O 0.35802 0.59447 0.98135 0.0
O538 O 0.37177 0.61313 0.95437 0.0
O539 O 0.38408 0.64733 0.00058 0.0
O540 O 0.3859 0.61902 0.02261 0.0
C541 C 0.38372 0.63949 0.01954 0.0
O542 O 0.39322 0.62724 0.93979 0.0
O543 O 0.39477 0.6366 0.90675 0.0
C544 C 0.42863 0.59128 0.98466 0.0
C545 C 0.39766 0.62162 0.92053 0.0
Zn546 Zn 0.06303 0.68993 0.67442 0.0
Zn547 Zn 0.14032 0.63566 0.73929 0.0
Zn548 Zn 0.11186 0.65481 0.71941 0.0
C549 C 0.1057 0.64782 0.76656 0.0
C550 C 0.12596 0.60381 0.71617 0.0
O551 O 0.10278 0.67632 0.69276 0.0
O552 O 0.09423 0.69836 0.66622 0.0
C553 C 0.06947 0.68972 0.71855 0.0
O554 O 0.10165 0.66061 0.75102 0.0
O555 O 0.12002 0.63287 0.76457 0.0
O556 O 0.14525 0.60948 0.721 0.0
O557 O 0.11075 0.61843 0.71635 0.0
O558 O 0.05694 0.69904 0.7051 0.0
O559 O 0.08425 0.67632 0.71149 0.0
O560 O 0.08594 0.65638 0.69534 0.0
O561 O 0.05933 0.65674 0.67171 0.0
C562 C 0.07224 0.64572 0.68353 0.0
O563 O 0.14232 0.67321 0.71611 0.0
O564 O 0.16309 0.65858 0.74096 0.0
C565 C 0.10896 0.68951 0.67773 0.0
C566 C 0.15986 0.67334 0.72721 0.0
Zn567 Zn 0.03389 0.33884 0.44622 0.0
Zn568 Zn 0.115 0.38985 0.49692 0.0
Zn569 Zn 0.09425 0.3675 0.47229 0.0
C570 C 0.10672 0.35421 0.51956 0.0
C571 C 0.14142 0.3826 0.46391 0.0
O572 O 0.07352 0.39026 0.45369 0.0
O573 O 0.04698 0.36702 0.45867 0.0
C574 C 0.05762 0.33735 0.48697 0.0
O575 O 0.0923 0.3543 0.50466 0.0
O576 O 0.12348 0.36635 0.51787 0.0
O577 O 0.13567 0.39959 0.47398 0.0
O578 O 0.12834 0.36622 0.46354 0.0
O579 O 0.04715 0.35036 0.47471 0.0
O580 O 0.07781 0.34188 0.49066 0.0
O581 O 0.08401 0.34262 0.44941 0.0
O582 O 0.05964 0.32279 0.43132 0.0
C583 C 0.0796 0.32758 0.43582 0.0
O584 O 0.08021 0.40087 0.47387 0.0
O585 O 0.09087 0.40968 0.5061 0.0
C586 C 0.05486 0.38271 0.44774 0.0
C587 C 0.07842 0.41302 0.49041 0.0
Zn588 Zn 0.35408 0.63783 0.2427 0.0
Zn589 Zn 0.38503 0.6539 0.30701 0.0
Zn590 Zn 0.37463 0.64821 0.27305 0.0
C591 C 0.41362 0.62486 0.29646 0.0
C592 C 0.41328 0.67782 0.2783 0.0
O593 O 0.35031 0.67468 0.26929 0.0
O594 O 0.33735 0.66549 0.23774 0.0
C595 C 0.34927 0.60397 0.27104 0.0
O596 O 0.40919 0.63637 0.27981 0.0
O597 O 0.39996 0.62496 0.31157 0.0
O598 O 0.40427 0.68109 0.29626 0.0
O599 O 0.40719 0.66088 0.26755 0.0
O600 O 0.33891 0.61195 0.25541 0.0
O601 O 0.3646 0.61519 0.27956 0.0
O602 O 0.39838 0.65233 0.24728 0.0
O603 O 0.38015 0.63248 0.22403 0.0
C604 C 0.3973 0.64292 0.22911 0.0
O605 O 0.35579 0.67434 0.29117 0.0
O606 O 0.35789 0.66009 0.32326 0.0
C607 C 0.33792 0.67872 0.25316 0.0
C608 C 0.34998 0.67444 0.31095 0.0
Zn609 Zn 0.10086 0.59675 0.01232 0.0
Zn610 Zn 0.07137 0.65584 0.04273 0.0
Zn611 Zn 0.08678 0.62867 0.02391 0.0
C612 C 0.1149 0.66748 0.03909 0.0
C613 C 0.05202 0.65785 0.00331 0.0
O614 O 0.06204 0.61241 0.00383 0.0
O615 O 0.07297 0.5811 0.01817 0.0
C616 C 0.13712 0.61394 0.0253 0.0
O617 O 0.11369 0.65341 0.02375 0.0
O618 O 0.09924 0.6692 0.05219 0.0
O619 O 0.05693 0.6703 0.01857 0.0
O620 O 0.05914 0.63796 0.00311 0.0
O621 O 0.1291 0.59508 0.02892 0.0
O622 O 0.12388 0.6297 0.02033 0.0
O623 O 0.11099 0.64132 0.00144 0.0
O624 O 0.10177 0.61219 0.98304 0.0
C625 C 0.1081 0.63203 0.98318 0.0
O626 O 0.08128 0.61169 0.05378 0.0
O627 O 0.05455 0.63481 0.06073 0.0
C628 C 0.05877 0.59187 0.00773 0.0
C629 C 0.06413 0.61679 0.06443 0.0
Zn630 Zn 0.09547 0.32934 0.79829 0.0
Zn631 Zn 0.14617 0.35709 0.75154 0.0
Zn632 Zn 0.11618 0.3439 0.77298 0.0
C633 C 0.10381 0.36294 0.7316 0.0
C634 C 0.14483 0.38567 0.78437 0.0
O635 O 0.13406 0.34765 0.8037 0.0
O636 O 0.12166 0.31452 0.81023 0.0
C637 C 0.08935 0.30387 0.76425 0.0
O638 O 0.09625 0.36099 0.75054 0.0
O639 O 0.12411 0.36023 0.7281 0.0
O640 O 0.15442 0.38387 0.76668 0.0
O641 O 0.13409 0.36898 0.79185 0.0
O642 O 0.07723 0.31329 0.77771 0.0
O643 O 0.10971 0.3096 0.76282 0.0
O644 O 0.08368 0.36027 0.77178 0.0
O645 O 0.08621 0.35974 0.80658 0.0
C646 C 0.07734 0.36753 0.79003 0.0
O647 O 0.13235 0.31368 0.7603 0.0
O648 O 0.16384 0.33011 0.75273 0.0
C649 C 0.13567 0.32926 0.81384 0.0
C650 C 0.1528 0.31267 0.75492 0.0
Zn651 Zn 0.43648 0.36388 0.53626 0.0
Zn652 Zn 0.38074 0.39627 0.49848 0.0
Zn653 Zn 0.40156 0.37191 0.52303 0.0
C654 C 0.38874 0.35224 0.4807 0.0
C655 C 0.35239 0.38832 0.53013 0.0
O656 O 0.41001 0.38535 0.55504 0.0
O657 O 0.44465 0.39273 0.54855 0.0
C658 C 0.43977 0.33733 0.50487 0.0
O659 O 0.39897 0.34807 0.49819 0.0
O660 O 0.3798 0.37082 0.47768 0.0
O661 O 0.35483 0.40294 0.51607 0.0
O662 O 0.36792 0.3747 0.53364 0.0
O663 O 0.45404 0.34974 0.51313 0.0
O664 O 0.41908 0.34159 0.50804 0.0
O665 O 0.40146 0.33671 0.52587 0.0
O666 O 0.41858 0.34219 0.55594 0.0
C667 C 0.405 0.33099 0.54523 0.0
O668 O 0.42312 0.39808 0.51341 0.0
O669 O 0.40212 0.42024 0.49468 0.0
C670 C 0.42787 0.39526 0.56015 0.0
C671 C 0.42041 0.41591 0.50309 0.0
C672 C 0.15967 0.07633 0.2914 0.0
C673 C 0.14094 0.08976 0.29313 0.0
C674 C 0.15749 0.05416 0.28591 0.0
C675 C 0.11931 0.00795 0.27559 0.0
H676 H 0.15177 0.00371 0.22258 0.0
C677 C 0.1086 0.93227 0.22173 0.0
C678 C 0.12844 0.92306 0.21451 0.0
C679 C 0.10816 0.95376 0.2298 0.0
C680 C 0.14274 0.0044 0.23742 0.0
H681 H 0.10549 0.08945 0.29535 0.0
H682 H 0.10164 0.05063 0.28672 0.0
H683 H 0.15651 0.03572 0.24517 0.0
H684 H 0.16259 0.93006 0.20752 0.0
H685 H 0.16196 0.96706 0.22154 0.0
H686 H 0.10594 0.97635 0.26814 0.0
C687 C 0.118 0.05732 0.28872 0.0
C688 C 0.14555 0.02276 0.25045 0.0
C689 C 0.12023 0.07956 0.29414 0.0
C690 C 0.14706 0.93665 0.21306 0.0
C691 C 0.14667 0.95798 0.22121 0.0
C692 C 0.11674 0.98933 0.26269 0.0
C693 C 0.13655 0.04499 0.28275 0.0
C694 C 0.13404 0.02469 0.26978 0.0
C695 C 0.12752 0.96643 0.23077 0.0
C696 C 0.12855 0.98721 0.24346 0.0
H697 H 0.17586 0.08371 0.29064 0.0
H698 H 0.17213 0.04485 0.28201 0.0
H699 H 0.11008 0.00907 0.2903 0.0
H700 H 0.09394 0.92226 0.22305 0.0
H701 H 0.09292 0.95995 0.23636 0.0
C702 C 0.31338 0.85987 0.47503 0.0
C703 C 0.32267 0.87984 0.46826 0.0
C704 C 0.29161 0.8592 0.48235 0.0
C705 C 0.24027 0.89292 0.48861 0.0
H706 H 0.23547 0.86129 0.54215 0.0
C707 C 0.16667 0.90835 0.5418 0.0
C708 C 0.15408 0.88915 0.54451 0.0
C709 C 0.1888 0.90692 0.53593 0.0
C710 C 0.23658 0.87019 0.52723 0.0
H711 H 0.31566 0.914 0.46112 0.0
H712 H 0.278 0.91291 0.47369 0.0
H713 H 0.26871 0.85761 0.52059 0.0
H714 H 0.15595 0.8538 0.54791 0.0
H715 H 0.19482 0.85131 0.53883 0.0
H716 H 0.20835 0.90585 0.49552 0.0
C717 C 0.2873 0.89773 0.47365 0.0
C718 C 0.25551 0.86789 0.51469 0.0
C719 C 0.30897 0.89837 0.46633 0.0
C720 C 0.16517 0.86891 0.54598 0.0
C721 C 0.18742 0.86744 0.54027 0.0
C722 C 0.2215 0.8954 0.50126 0.0
C723 C 0.27873 0.87847 0.48294 0.0
C724 C 0.25768 0.87931 0.49523 0.0
C725 C 0.19888 0.88628 0.53347 0.0
C726 C 0.21949 0.8842 0.5208 0.0
H727 H 0.3235 0.84531 0.47672 0.0
H728 H 0.28532 0.84389 0.48876 0.0
H729 H 0.24111 0.90171 0.47363 0.0
H730 H 0.15858 0.9242 0.5406 0.0
H731 H 0.19739 0.92181 0.53138 0.0
C732 C 0.32861 0.07558 0.70117 0.0
C733 C 0.34754 0.08874 0.70073 0.0
C734 C 0.32995 0.0535 0.70724 0.0
C735 C 0.36687 0.0071 0.72152 0.0
H736 H 0.32363 -0.00181 0.76621 0.0
C737 C 0.36676 0.92857 0.77295 0.0
C738 C 0.34662 0.91731 0.77176 0.0
C739 C 0.36817 0.95068 0.76688 0.0
C740 C 0.33579 0.00042 0.75378 0.0
H741 H 0.38296 0.08839 0.70345 0.0
H742 H 0.38545 0.04974 0.71347 0.0
H743 H 0.32367 0.0324 0.74591 0.0
H744 H 0.31195 0.9207 0.76512 0.0
H745 H 0.31408 0.95962 0.75572 0.0
H746 H 0.37889 0.97494 0.72946 0.0
C747 C 0.36952 0.05645 0.70934 0.0
C748 C 0.3357 0.01992 0.74198 0.0
C749 C 0.36814 0.07857 0.70315 0.0
C750 C 0.32756 0.92912 0.7666 0.0
C751 C 0.32887 0.95135 0.76101 0.0
C752 C 0.36697 0.98754 0.73338 0.0
C753 C 0.35027 0.0442 0.71296 0.0
C754 C 0.35091 0.02332 0.72539 0.0
C755 C 0.34936 0.96202 0.75996 0.0
C756 C 0.35116 0.98385 0.74939 0.0
H757 H 0.31251 0.08304 0.69961 0.0
H758 H 0.31486 0.04427 0.70927 0.0
H759 H 0.37889 0.0093 0.70897 0.0
H760 H 0.38182 0.91974 0.77628 0.0
H761 H 0.38414 0.95853 0.76642 0.0
C762 C 0.32565 0.12447 0.03537 0.0
C763 C 0.3358 0.1045 0.04089 0.0
C764 C 0.3036 0.12496 0.02905 0.0
C765 C 0.25252 0.09149 0.02372 0.0
H766 H 0.2466 0.12283 0.97014 0.0
C767 C 0.1756 0.0786 0.97447 0.0
C768 C 0.16486 0.09809 0.96855 0.0
C769 C 0.19779 0.07892 0.98017 0.0
C770 C 0.24792 0.11408 0.98511 0.0
H771 H 0.33027 0.06976 0.0459 0.0
H772 H 0.29171 0.0706 0.03557 0.0
H773 H 0.28045 0.12616 0.99068 0.0
H774 H 0.16946 0.13258 0.96126 0.0
H775 H 0.20816 0.13325 0.97114 0.0
H776 H 0.22006 0.07943 0.01825 0.0
C777 C 0.30067 0.08597 0.0361 0.0
C778 C 0.26727 0.11613 -0.00297 0.0
C779 C 0.32274 0.08551 0.04237 0.0
C780 C 0.17742 0.11722 0.96545 0.0
C781 C 0.1996 0.11765 0.97144 0.0
C782 C 0.23321 0.08947 0.01185 0.0
C783 C 0.29123 0.10545 0.02811 0.0
C784 C 0.26987 0.10476 0.01645 0.0
C785 C 0.20957 0.09883 0.98031 0.0
C786 C 0.23069 0.10055 0.99227 0.0
H787 H 0.33539 0.13912 0.03301 0.0
H788 H 0.29675 0.14033 0.02335 0.0
H789 H 0.25383 0.08271 0.03868 0.0
H790 H 0.16624 0.06367 0.97711 0.0
H791 H 0.20518 0.06394 0.98616 0.0
C792 C 0.86067 0.92207 0.70951 0.0
C793 C 0.87538 0.90684 0.71856 0.0
C794 C 0.86161 0.94424 0.71518 0.0
C795 C 0.8752 0.9775 0.76062 0.0
H796 H 0.87778 0.02722 0.72192 0.0
C797 C 0.86285 0.06898 0.78479 0.0
C798 C 0.87847 0.08371 0.77636 0.0
C799 C 0.86269 0.047 0.77844 0.0
C800 C 0.87707 0.01343 0.73286 0.0
H801 H 0.9035 0.9031 0.73947 0.0
H802 H 0.9049 0.9418 0.74952 0.0
H803 H 0.87729 0.98974 0.70763 0.0
H804 H 0.90709 0.08654 0.75589 0.0
H805 H 0.90678 0.04813 0.74491 0.0
H806 H 0.87472 0.00115 0.78585 0.0
C807 C 0.89263 0.93649 0.73815 0.0
C808 C 0.87668 0.99211 0.7247 0.0
C809 C 0.89194 0.91442 0.73223 0.0
C810 C 0.8948 0.07567 0.76262 0.0
C811 C 0.8945 0.05376 0.75614 0.0
C812 C 0.87522 -0.00118 0.76877 0.0
C813 C 0.87706 0.9514 0.73018 0.0
C814 C 0.87623 0.974 0.73855 0.0
C815 C 0.87808 0.03944 0.76351 0.0
C816 C 0.87664 0.01692 0.75497 0.0
H817 H 0.84777 0.91667 0.69888 0.0
H818 H 0.84951 0.95553 0.70877 0.0
H819 H 0.87444 0.96371 0.77155 0.0
H820 H 0.85003 0.07467 0.79541 0.0
H821 H 0.84991 0.03619 0.78439 0.0
C822 C 0.81977 0.0764 0.4618 0.0
C823 C 0.83063 0.09657 0.45932 0.0
C824 C 0.79743 0.07594 0.46682 0.0
C825 C 0.74813 0.11088 0.47804 0.0
H826 H 0.74305 0.07143 0.5265 0.0
C827 C 0.6735 0.11517 0.53286 0.0
C828 C 0.66161 0.0954 0.53175 0.0
C829 C 0.69565 0.11568 0.52693 0.0
C830 C 0.74429 0.08255 0.51306 0.0
H831 H 0.82616 0.13174 0.4564 0.0
H832 H 0.78732 0.1311 0.4653 0.0
H833 H 0.77611 0.07071 0.50466 0.0
H834 H 0.66412 0.06031 0.52677 0.0
H835 H 0.70309 0.06096 0.51767 0.0
H836 H 0.71631 0.12292 0.48687 0.0
C837 C 0.79582 0.11557 0.46354 0.0
C838 C 0.76305 0.08194 0.50029 0.0
C839 C 0.81812 0.11594 0.45811 0.0
C840 C 0.67298 0.07571 0.52794 0.0
C841 C 0.69524 0.07615 0.52248 0.0
C842 C 0.72942 0.11163 0.49098 0.0
C843 C 0.78577 0.0957 0.46971 0.0
C844 C 0.76511 0.09587 0.48242 0.0
C845 C 0.70629 0.09633 0.52045 0.0
C846 C 0.72726 0.09733 0.5085 0.0
H847 H 0.8291 0.06125 0.46279 0.0
H848 H 0.7899 0.06027 0.47057 0.0
H849 H 0.74915 0.12184 0.46446 0.0
H850 H 0.66512 0.13065 0.53545 0.0
H851 H 0.70394 0.13141 0.52579 0.0
C852 C 0.61524 0.07556 0.20219 0.0
C853 C 0.635 0.08611 0.19664 0.0
C854 C 0.61521 0.05317 0.20744 0.0
C855 C 0.64761 0.00173 0.20785 0.0
H856 H 0.62864 0.99692 0.26669 0.0
C857 C 0.66989 0.92509 0.25476 0.0
C858 C 0.65246 0.91511 0.26577 0.0
C859 C 0.66841 0.94704 0.24832 0.0
C860 C 0.63384 -0.00212 0.25023 0.0
H861 H 0.66918 0.08098 0.18874 0.0
H862 H 0.66881 0.04164 0.19629 0.0
H863 H 0.62156 0.03074 0.24674 0.0
H864 H 0.62097 0.92088 0.28083 0.0
H865 H 0.61818 0.95908 0.26943 0.0
H866 H 0.65969 0.96894 0.21107 0.0
C867 C 0.65353 0.05071 0.19739 0.0
C868 C 0.62964 0.0172 0.23874 0.0
C869 C 0.65368 0.07319 0.19267 0.0
C870 C 0.63477 0.92821 0.27255 0.0
C871 C 0.63309 0.95012 0.26579 0.0
C872 C 0.65161 0.98237 0.21923 0.0
C873 C 0.63475 0.0409 0.20637 0.0
C874 C 0.6367 0.0194 0.21749 0.0
C875 C 0.64926 0.95932 0.25241 0.0
C876 C 0.64511 0.98028 0.24068 0.0
H877 H 0.60069 0.08517 0.20571 0.0
H878 H 0.60041 0.04593 0.21399 0.0
H879 H 0.65315 0.00294 0.1915 0.0
H880 H 0.68372 0.91535 0.24936 0.0
H881 H 0.68159 0.95387 0.23878 0.0
C882 C 0.82181 0.87352 0.03714 0.0
C883 C 0.83296 0.89327 0.03285 0.0
C884 C 0.7993 0.87188 0.03298 0.0
C885 C 0.76535 0.89609 0.99224 0.0
H886 H 0.71842 0.85967 0.01449 0.0
C887 C 0.67842 0.89588 0.9576 0.0
C888 C 0.66493 0.8774 0.96072 0.0
C889 C 0.70001 0.89589 0.96496 0.0
C890 C 0.73156 0.86955 0.00787 0.0
H891 H 0.82899 0.92772 0.02523 0.0
H892 H 0.78953 0.92522 0.01908 0.0
H893 H 0.75141 0.86573 0.03589 0.0
H894 H 0.66446 0.84333 0.97101 0.0
H895 H 0.70256 0.84307 0.98314 0.0
H896 H 0.74604 0.89958 0.9641 0.0
C897 C 0.79822 0.91075 0.02463 0.0
C898 C 0.75029 0.87324 0.02028 0.0
C899 C 0.82072 0.9123 0.02853 0.0
C900 C 0.67439 0.8579 0.96852 0.0
C901 C 0.69611 0.85788 0.97585 0.0
C902 C 0.74682 0.89224 0.9798 0.0
C903 C 0.7878 0.89012 0.0249 0.0
C904 C 0.76722 0.88685 0.0127 0.0
C905 C 0.70869 0.87729 0.97532 0.0
C906 C 0.72954 0.87916 0.98752 0.0
H907 H 0.83089 0.85855 0.04034 0.0
H908 H 0.79166 0.8558 0.03356 0.0
H909 H 0.77847 0.90603 0.98562 0.0
H910 H 0.67163 0.91111 0.95149 0.0
H911 H 0.70915 0.91114 0.96417 0.0
C912 C 0.65174 0.57382 0.77579 0.0
C913 C 0.63167 0.58462 0.77929 0.0
C914 C 0.65196 0.55151 0.77094 0.0
C915 C 0.61863 0.50138 0.76438 0.0
H916 H 0.6466 0.49992 0.7088 0.0
C917 C 0.60811 0.42626 0.71244 0.0
C918 C 0.6285 0.41715 0.70685 0.0
C919 C 0.60683 0.44828 0.71856 0.0
C920 C 0.63877 0.50004 0.72429 0.0
H921 H 0.59672 0.58008 0.78455 0.0
H922 H 0.59713 0.54104 0.77611 0.0
H923 H 0.65034 0.53242 0.73104 0.0
H924 H 0.66251 0.42448 0.6995 0.0
H925 H 0.6603 0.46278 0.70992 0.0
H926 H 0.60729 0.46889 0.75774 0.0
C927 C 0.61261 0.54981 0.7767 0.0
C928 C 0.64111 0.51852 0.73713 0.0
C929 C 0.61239 0.57218 0.78158 0.0
C930 C 0.64662 0.43113 0.70393 0.0
C931 C 0.64536 0.45309 0.71003 0.0
C932 C 0.61641 0.48281 0.75158 0.0
C933 C 0.63213 0.53983 0.7697 0.0
C934 C 0.63112 0.51932 0.7573 0.0
C935 C 0.62586 0.46138 0.7189 0.0
C936 C 0.62644 0.48196 0.73138 0.0
H937 H 0.66693 0.58302 0.77448 0.0
H938 H 0.66732 0.54394 0.76619 0.0
H939 H 0.61074 0.50169 0.77983 0.0
H940 H 0.59384 0.41586 0.71474 0.0
H941 H 0.59141 0.45451 0.72473 0.0
C942 C 0.83471 0.37257 0.9566 0.0
C943 C 0.84405 0.39356 0.95446 0.0
C944 C 0.81234 0.37007 0.96106 0.0
C945 C 0.75946 0.40053 0.96829 0.0
H946 H 0.75232 0.36086 0.01635 0.0
C947 C 0.68423 0.40742 0.0213 0.0
C948 C 0.67155 0.38812 0.02243 0.0
C949 C 0.7061 0.4066 0.01469 0.0
C950 C 0.75406 0.3719 0.00289 0.0
H951 H 0.83685 0.42832 0.95309 0.0
H952 H 0.79775 0.42418 0.96032 0.0
H953 H 0.7871 0.36162 0.99686 0.0
H954 H 0.67271 0.35257 0.02028 0.0
H955 H 0.71127 0.35111 0.00911 0.0
H956 H 0.72664 0.41124 0.97478 0.0
C957 C 0.8076 0.40946 0.95857 0.0
C958 C 0.77389 0.37222 0.99154 0.0
C959 C 0.83003 0.41189 0.95406 0.0
C960 C 0.68203 0.36772 0.01954 0.0
C961 C 0.70407 0.3669 0.01298 0.0
C962 C 0.73977 0.40035 0.97976 0.0
C963 C 0.79882 0.38862 0.96356 0.0
C964 C 0.77692 0.38668 0.97416 0.0
C965 C 0.71583 0.38645 0.00924 0.0
C966 C 0.73693 0.38624 -0.00268 0.0
H967 H 0.84526 0.35843 0.95845 0.0
H968 H 0.80613 0.35373 0.96443 0.0
H969 H 0.76104 0.41165 0.95489 0.0
H970 H 0.67671 0.42338 0.02372 0.0
H971 H 0.71499 0.42188 0.01252 0.0
C972 C 0.86876 0.42815 0.27505 0.0
C973 C 0.84842 0.41722 0.27439 0.0
C974 C 0.87014 0.45038 0.26918 0.0
C975 C 0.84115 0.48498 0.23135 0.0
H976 H 0.87684 0.53324 0.25173 0.0
C977 C 0.83122 0.57534 0.20566 0.0
C978 C 0.84996 0.58877 0.20515 0.0
C979 C 0.83304 0.55301 0.21078 0.0
C980 C 0.86713 0.51973 0.24564 0.0
H981 H 0.81332 0.42158 0.27061 0.0
H982 H 0.81565 0.46032 0.26101 0.0
H983 H 0.87539 0.49878 0.27209 0.0
H984 H 0.88533 0.58893 0.20732 0.0
H985 H 0.88867 0.55 0.21626 0.0
H986 H 0.83269 0.50581 0.20508 0.0
C987 C 0.8306 0.45168 0.26524 0.0
C988 C 0.86617 0.50012 0.2574 0.0
C989 C 0.82923 0.42957 0.27102 0.0
C990 C 0.87071 0.57888 0.20713 0.0
C991 C 0.87256 0.55668 0.21277 0.0
C992 C 0.84212 0.50448 0.21964 0.0
C993 C 0.85117 0.46182 0.26276 0.0
C994 C 0.85282 0.48271 0.25056 0.0
C995 C 0.85363 0.54385 0.21581 0.0
C996 C 0.85485 0.52219 0.22677 0.0
H997 H 0.88382 0.419 0.27757 0.0
H998 H 0.8862 0.4579 0.26766 0.0
H999 H 0.83123 0.47159 0.22533 0.0
H1000 H 0.81499 0.58263 0.20469 0.0
H1001 H 0.81813 0.54354 0.21293 0.0
C1002 C 0.6713 0.58664 0.44886 0.0
C1003 C 0.65889 0.60604 0.4505 0.0
C1004 C 0.69365 0.58664 0.45402 0.0
C1005 C 0.72788 0.61596 0.49196 0.0
H1006 H 0.77425 0.5782 0.47088 0.0
C1007 C 0.81669 0.6137 0.5257 0.0
C1008 C 0.8291 0.59457 0.52215 0.0
C1009 C 0.79472 0.61476 0.51913 0.0
C1010 C 0.76133 0.5885 0.47727 0.0
H1011 H 0.66082 0.64118 0.45537 0.0
H1012 H 0.69992 0.64136 0.46384 0.0
H1013 H 0.74077 0.58269 0.45021 0.0
H1014 H 0.82757 0.56063 0.51209 0.0
H1015 H 0.7889 0.56189 0.50211 0.0
H1016 H 0.74826 0.62146 0.51924 0.0
C1017 C 0.6923 0.62602 0.45916 0.0
C1018 C 0.74224 0.59128 0.46521 0.0
C1019 C 0.67 0.62601 0.45368 0.0
C1020 C 0.81834 0.57557 0.51502 0.0
C1021 C 0.79632 0.57649 0.50882 0.0
C1022 C 0.74696 0.61306 0.50412 0.0
C1023 C 0.70394 0.6061 0.46082 0.0
C1024 C 0.72524 0.60496 0.47242 0.0
C1025 C 0.78476 0.59655 0.50926 0.0
C1026 C 0.76388 0.59913 0.49702 0.0
H1027 H 0.6631 0.57097 0.44676 0.0
H1028 H 0.70214 0.57102 0.45499 0.0
H1029 H 0.71488 0.62627 0.49821 0.0
H1030 H 0.82463 0.6287 0.53087 0.0
H1031 H 0.78637 0.63046 0.5199 0.0
C1032 C 0.35532 0.42404 0.20205 0.0
C1033 C 0.37091 0.40892 0.20965 0.0
C1034 C 0.3558 0.44588 0.2087 0.0
C1035 C 0.37228 0.47679 0.25581 0.0
H1036 H 0.35095 0.52643 0.22298 0.0
C1037 C 0.36586 0.56848 0.28276 0.0
C1038 C 0.34767 0.58006 0.27468 0.0
C1039 C 0.36864 0.54621 0.27793 0.0
C1040 C 0.35671 0.51262 0.23238 0.0
H1041 H 0.40061 0.40531 0.22837 0.0
H1042 H 0.40163 0.44369 0.2398 0.0
H1043 H 0.35989 0.49216 0.20494 0.0
H1044 H 0.31634 0.57668 0.25857 0.0
H1045 H 0.32119 0.53791 0.2503 0.0
H1046 H 0.36916 0.49757 0.28326 0.0
C1047 C 0.38877 0.43849 0.22903 0.0
C1048 C 0.36196 0.49306 0.22204 0.0
C1049 C 0.38837 0.41659 0.22223 0.0
C1050 C 0.33075 0.56828 0.26464 0.0
C1051 C 0.33359 0.54614 0.25974 0.0
C1052 C 0.36719 0.4965 0.26616 0.0
C1053 C 0.37189 0.45307 0.22313 0.0
C1054 C 0.3694 0.47477 0.23366 0.0
C1055 C 0.35322 0.53537 0.26508 0.0
C1056 C 0.35891 0.51441 0.25457 0.0
H1057 H 0.34169 0.41858 0.19232 0.0
H1058 H 0.34252 0.45663 0.20385 0.0
H1059 H 0.37766 0.4629 0.26528 0.0
H1060 H 0.3791 0.57708 0.2907 0.0
H1061 H 0.3838 0.53813 0.28246 0.0
C1062 C 0.32316 0.62188 0.95116 0.0
C1063 C 0.33377 0.60153 0.95387 0.0
C1064 C 0.30064 0.62393 0.95547 0.0
C1065 C 0.2637 0.59922 0.99359 0.0
H1066 H 0.21741 0.63373 0.96754 0.0
C1067 C 0.17489 0.59775 0.02487 0.0
C1068 C 0.16116 0.61608 0.02176 0.0
C1069 C 0.19638 0.59767 0.01707 0.0
C1070 C 0.23029 0.62438 0.97525 0.0
H1071 H 0.32865 0.56687 0.95994 0.0
H1072 H 0.28938 0.5703 0.96693 0.0
H1073 H 0.25248 0.62911 0.94898 0.0
H1074 H 0.15996 0.64945 0.00953 0.0
H1075 H 0.1978 0.64959 0.99651 0.0
H1076 H 0.24212 0.59496 0.02011 0.0
C1077 C 0.29847 0.58477 0.96202 0.0
C1078 C 0.25028 0.62155 0.96446 0.0
C1079 C 0.32088 0.58273 0.9576 0.0
C1080 C 0.17004 0.635 0.01211 0.0
C1081 C 0.19166 0.63496 0.00438 0.0
C1082 C 0.24392 0.60229 0.00448 0.0
C1083 C 0.28851 0.60561 0.96246 0.0
C1084 C 0.26703 0.6086 0.97337 0.0
C1085 C 0.20487 0.61601 0.00609 0.0
C1086 C 0.22676 0.61461 0.99535 0.0
H1087 H 0.33267 0.6367 0.94882 0.0
H1088 H 0.29337 0.64019 0.95558 0.0
H1089 H 0.27657 0.58971 0.00117 0.0
H1090 H 0.16866 0.5829 0.03227 0.0
H1091 H 0.20586 0.58269 0.01864 0.0
C1092 C 0.13739 0.56466 0.71158 0.0
C1093 C 0.12097 0.57994 0.71711 0.0
C1094 C 0.13635 0.54287 0.71882 0.0
C1095 C 0.11734 0.51271 0.76528 0.0
H1096 H 0.13182 0.4602 0.73333 0.0
C1097 C 0.15326 0.42508 0.79139 0.0
C1098 C 0.1375 0.40839 0.78873 0.0
C1099 C 0.14866 0.44681 0.78514 0.0
C1100 C 0.12777 0.47477 0.7424 0.0
H1101 H 0.08986 0.58386 0.73343 0.0
H1102 H 0.08812 0.54579 0.74623 0.0
H1103 H 0.12777 0.49552 0.71467 0.0
H1104 H 0.10443 0.40178 0.77789 0.0
H1105 H 0.09648 0.43946 0.76702 0.0
H1106 H 0.1181 0.49196 0.7931 0.0
C1107 C 0.10179 0.55074 0.73626 0.0
C1108 C 0.12545 0.49494 0.73175 0.0
C1109 C 0.10261 0.57246 0.72865 0.0
C1110 C 0.11653 0.41431 0.78119 0.0
C1111 C 0.11212 0.43585 0.77448 0.0
C1112 C 0.12004 0.49258 0.77597 0.0
C1113 C 0.11905 0.53594 0.73209 0.0
C1114 C 0.12017 0.51416 0.74306 0.0
C1115 C 0.12841 0.45209 0.77568 0.0
C1116 C 0.12529 0.47347 0.76462 0.0
H1117 H 0.15185 0.56997 0.7029 0.0
H1118 H 0.1499 0.5319 0.71532 0.0
H1119 H 0.11363 0.52728 0.77449 0.0
H1120 H 0.16977 0.42093 0.79642 0.0
H1121 H 0.16151 0.45909 0.78612 0.0
C1122 C 0.17477 0.35897 0.4627 0.0
C1123 C 0.16514 0.3798 0.45996 0.0
C1124 C 0.19657 0.35728 0.46953 0.0
C1125 C 0.2284 0.38816 0.50623 0.0
H1126 H 0.27808 0.35107 0.49229 0.0
C1127 C 0.31484 0.40122 0.53779 0.0
C1128 C 0.32979 0.38368 0.53697 0.0
C1129 C 0.29278 0.39775 0.53296 0.0
C1130 C 0.2641 0.36107 0.49674 0.0
H1131 H 0.17176 0.4148 0.45794 0.0
H1132 H 0.20969 0.41179 0.46986 0.0
H1133 H 0.24597 0.3515 0.46895 0.0
H1134 H 0.33298 0.3483 0.53438 0.0
H1135 H 0.29423 0.3421 0.5265 0.0
H1136 H 0.24615 0.39766 0.53405 0.0
C1137 C 0.2003 0.39688 0.46738 0.0
C1138 C 0.24592 0.36153 0.48317 0.0
C1139 C 0.17865 0.39855 0.46039 0.0
C1140 C 0.32177 0.36214 0.535 0.0
C1141 C 0.29965 0.35865 0.53008 0.0
C1142 C 0.24638 0.38749 0.51993 0.0
C1143 C 0.2088 0.37639 0.47353 0.0
C1144 C 0.22819 0.37548 0.48757 0.0
C1145 C 0.28539 0.37664 0.52735 0.0
C1146 C 0.26466 0.3743 0.51513 0.0
H1147 H 0.16482 0.3442 0.46226 0.0
H1148 H 0.20298 0.34128 0.47392 0.0
H1149 H 0.21459 0.39861 0.51024 0.0
H1150 H 0.32068 0.41797 0.53943 0.0
H1151 H 0.28227 0.41202 0.53123 0.0
C1152 C 0.30961 0.30119 0.26666 0.0
C1153 C 0.32502 0.29644 0.25069 0.0
C1154 C 0.29137 0.28762 0.26969 0.0
C1155 C 0.26518 0.23519 0.25195 0.0
H1156 H 0.21129 0.26891 0.25767 0.0
C1157 C 0.18407 0.19802 0.2273 0.0
C1158 C 0.16798 0.19715 0.24329 0.0
C1159 C 0.20187 0.21224 0.2291 0.0
C1160 C 0.22621 0.25931 0.25623 0.0
H1161 H 0.33444 0.27339 0.22627 0.0
H1162 H 0.30248 0.24976 0.23114 0.0
H1163 H 0.24677 0.28722 0.26165 0.0
H1164 H 0.15653 0.21197 0.27257 0.0
H1165 H 0.1879 0.23722 0.27571 0.0
H1166 H 0.24456 0.2075 0.24568 0.0
C1167 C 0.30453 0.26359 0.24176 0.0
C1168 C 0.24658 0.26969 0.25868 0.0
C1169 C 0.32298 0.27701 0.239 0.0
C1170 C 0.16871 0.21244 0.25999 0.0
C1171 C 0.1867 0.22674 0.26185 0.0
C1172 C 0.24489 0.22493 0.24925 0.0
C1173 C 0.28796 0.26933 0.25646 0.0
C1174 C 0.26636 0.25781 0.25626 0.0
C1175 C 0.20399 0.22584 0.24697 0.0
C1176 C 0.22523 0.23694 0.25099 0.0
H1177 H 0.3108 0.31631 0.27566 0.0
H1178 H 0.2793 0.29222 0.28155 0.0
H1179 H 0.27997 0.22541 0.25039 0.0
H1180 H 0.18375 0.1865 0.21417 0.0
H1181 H 0.2147 0.21165 0.21713 0.0
C1182 C 0.95998 0.06805 0.483 0.0
C1183 C 0.94055 0.06815 0.49507 0.0
C1184 C 0.97384 0.04953 0.48327 0.0
C1185 C 0.98517 -0.00219 0.51351 0.0
H1186 H 0.00509 0.97569 0.45909 0.0
C1187 C 0.02701 0.91267 0.50744 0.0
C1188 C 0.04588 0.91241 0.49461 0.0
C1189 C 0.01237 0.93056 0.50627 0.0
C1190 C -0.00017 0.98166 0.47449 0.0
H1191 H 0.92099 0.04903 0.51756 0.0
H1192 H 0.94453 0.01735 0.51764 0.0
H1193 H 0.98642 0.01103 0.46077 0.0
H1194 H 0.06332 0.92956 0.46941 0.0
H1195 H 0.03867 0.96044 0.46783 0.0
H1196 H -0.00122 0.96866 0.52732 0.0
C1197 C 0.94944 0.03146 0.50821 0.0
C1198 C 0.98923 0.00204 0.47543 0.0
C1199 C 0.9358 0.04977 0.508 0.0
C1200 C 0.04888 0.92928 0.47953 0.0
C1201 C 0.03459 0.94706 0.47854 0.0
C1202 C 0.9959 0.9775 0.5126 0.0
C1203 C 0.96847 0.0309 0.49568 0.0
C1204 C 0.98165 0.01031 0.49493 0.0
C1205 C 0.0165 0.94838 0.49232 0.0
C1206 C 0.00339 0.96912 0.49307 0.0
H1207 H 0.96422 0.08197 0.4731 0.0
H1208 H 0.98859 0.04967 0.47362 0.0
H1209 H 0.97971 0.0038 0.52885 0.0
H1210 H 0.02442 0.89998 0.51932 0.0
H1211 H -0.00169 0.93083 0.51684 0.0
C1212 C 0.31042 0.79436 0.77455 0.0
C1213 C 0.32723 0.79541 0.75931 0.0
C1214 C 0.29299 0.7796 0.77199 0.0
C1215 C 0.264 0.75297 0.72772 0.0
H1216 H 0.23059 0.72429 0.77235 0.0
C1217 C 0.19271 0.69196 0.71197 0.0
C1218 C 0.17527 0.69181 0.72652 0.0
C1219 C 0.21071 0.70589 0.71523 0.0
C1220 C 0.23958 0.73247 0.75973 0.0
H1221 H 0.34014 0.78115 0.73042 0.0
H1222 H 0.31027 0.75464 0.72636 0.0
H1223 H 0.26472 0.74318 0.78118 0.0
H1224 H 0.16207 0.70651 0.75512 0.0
H1225 H 0.19313 0.7313 0.76053 0.0
H1226 H 0.23886 0.74233 0.70629 0.0
C1227 C 0.31015 0.76548 0.74001 0.0
C1228 C 0.25922 0.74318 0.7648 0.0
C1229 C 0.32743 0.78034 0.7425 0.0
C1230 C 0.17533 0.70662 0.74358 0.0
C1231 C 0.19323 0.72053 0.74683 0.0
C1232 C 0.2444 0.74225 0.72266 0.0
C1233 C 0.29215 0.76575 0.75409 0.0
C1234 C 0.27172 0.75349 0.74883 0.0
C1235 C 0.21152 0.71971 0.73318 0.0
C1236 C 0.23195 0.73186 0.73859 0.0
H1237 H 0.30978 0.80622 0.78737 0.0
H1238 H 0.2794 0.78031 0.78311 0.0
H1239 H 0.2729 0.76124 0.7151 0.0
H1240 H 0.19308 0.68032 0.69895 0.0
H1241 H 0.22457 0.70479 0.70446 0.0
C1242 C 0.46536 0.07786 -0.00184 0.0
C1243 C 0.45358 0.07664 0.01732 0.0
C1244 C 0.47944 0.0607 0.99234 0.0
C1245 C 0.48256 0.00144 0.00216 0.0
H1246 H 0.53802 0.0038 0.97184 0.0
C1247 C 0.54371 0.93099 -0.001 0.0
C1248 C 0.55512 0.92675 0.98009 0.0
C1249 C 0.52895 0.94838 0.00011 0.0
C1250 C 0.52229 0.00298 0.97988 0.0
H1251 H 0.44892 0.05832 0.04652 0.0
H1252 H 0.4743 0.02894 0.03694 0.0
H1253 H 0.52003 0.03806 0.98263 0.0
H1254 H 0.55969 0.93637 0.94721 0.0
H1255 H 0.53394 0.9676 0.94926 0.0
H1256 H 0.48513 0.96642 3e-05 0.0
C1257 C 0.47215 0.04258 0.02602 0.0
C1258 C 0.51211 0.02253 0.9862 0.0
C1259 C 0.45796 0.05954 0.03169 0.0
C1260 C 0.55085 0.93941 0.96189 0.0
C1261 C 0.53632 0.95724 0.96311 0.0
C1262 C 0.49274 0.98198 0.99592 0.0
C1263 C 0.48192 0.0423 0.00574 0.0
C1264 C 0.49246 0.0219 -0.00207 0.0
C1265 C 0.52567 0.96211 0.98241 0.0
C1266 C 0.51294 0.98256 0.9852 0.0
H1267 H 0.46189 0.09077 0.98672 0.0
H1268 H 0.48684 0.06096 0.97666 0.0
H1269 H 0.46703 0.00043 0.01055 0.0
H1270 H 0.54687 0.92133 0.0132 0.0
H1271 H 0.52112 0.95187 0.01522 0.0
C1272 C 0.18179 0.80483 0.25723 0.0
C1273 C 0.17866 0.81623 0.23805 0.0
C1274 C 0.19762 0.78839 0.25873 0.0
C1275 C 0.23611 0.75385 0.22718 0.0
H1276 H 0.26989 0.75511 0.27951 0.0
C1277 C 0.31902 0.70951 0.23477 0.0
C1278 C 0.32217 0.69699 0.25328 0.0
C1279 C 0.30148 0.72422 0.23336 0.0
C1280 C 0.26051 0.75443 0.26489 0.0
H1281 H 0.18857 0.81882 0.20506 0.0
H1282 H 0.21731 0.79081 0.20788 0.0
H1283 H 0.23814 0.77902 0.27563 0.0
H1284 H 0.30941 0.6895 0.28461 0.0
H1285 H 0.27897 0.71559 0.28245 0.0
H1286 H 0.25891 0.72952 0.21636 0.0
C1287 C 0.20721 0.79418 0.22169 0.0
C1288 C 0.24221 0.76804 0.26267 0.0
C1289 C 0.19094 0.81034 0.22007 0.0
C1290 C 0.30784 0.6997 0.27055 0.0
C1291 C 0.29029 0.71443 0.26918 0.0
C1292 C 0.25454 0.74035 0.22936 0.0
C1293 C 0.21105 0.78337 0.2412 0.0
C1294 C 0.22984 0.76801 0.24375 0.0
C1295 C 0.28666 0.72646 0.25038 0.0
C1296 C 0.267 0.74064 0.24818 0.0
H1297 H 0.172 0.80869 0.27115 0.0
H1298 H 0.19957 0.77987 0.27376 0.0
H1299 H 0.22674 0.75312 0.21256 0.0
H1300 H 0.32977 0.70744 0.22116 0.0
H1301 H 0.29928 0.73355 0.2188 0.0
C1302 C 0.43779 0.94124 0.46901 0.0
C1303 C 0.43046 0.93128 0.48788 0.0
C1304 C 0.45324 0.95824 0.46987 0.0
C1305 C 0.49458 0.98447 0.50421 0.0
H1306 H 0.4753 0.03889 0.47783 0.0
C1307 C 0.53656 0.06628 0.5235 0.0
C1308 C 0.54266 0.07856 0.50555 0.0
C1309 C 0.52155 0.04904 0.52149 0.0
C1310 C 0.48097 0.02378 0.48515 0.0
H1311 H 0.43459 0.9298 0.52215 0.0
H1312 H 0.46156 0.95918 0.5236 0.0
H1313 H 0.45461 0.0051 0.47179 0.0
H1314 H 0.53758 0.08344 0.47181 0.0
H1315 H 0.51116 0.05361 0.46826 0.0
H1316 H 0.52095 0.00307 0.51759 0.0
C1317 C 0.45531 0.95417 0.50823 0.0
C1318 C 0.46926 0.00445 0.48155 0.0
C1319 C 0.43969 0.93755 0.5074 0.0
C1320 C 0.53267 0.07438 0.48591 0.0
C1321 C 0.51763 0.05728 0.4839 0.0
C1322 C 0.50637 0.00377 0.50774 0.0
C1323 C 0.4618 0.96505 0.48957 0.0
C1324 C 0.47584 0.9847 0.49122 0.0
C1325 C 0.51256 0.04392 0.50149 0.0
C1326 C 0.49954 0.02366 0.4984 0.0
H1327 H 0.43101 0.93649 0.45377 0.0
H1328 H 0.45818 0.96635 0.45526 0.0
H1329 H 0.5 0.96937 0.51176 0.0
H1330 H 0.5447 0.0688 0.5386 0.0
H1331 H 0.51775 0.03911 0.53535 0.0
C1332 C 0.17574 0.29021 0.73129 0.0
C1333 C 0.1644 0.29194 0.75067 0.0
C1334 C 0.194 0.27648 0.72945 0.0
C1335 C 0.23794 0.25574 0.76397 0.0
H1336 H 0.25889 0.22954 0.7116 0.0
C1337 C 0.31929 0.2067 0.75624 0.0
C1338 C 0.32927 0.20554 0.73612 0.0
C1339 C 0.3002 0.21914 0.75922 0.0
C1340 C 0.25349 0.23716 0.72626 0.0
H1341 H 0.16182 0.27925 0.78272 0.0
H1342 H 0.19355 0.25454 0.77944 0.0
H1343 H 0.22115 0.24236 0.71392 0.0
H1344 H 0.32869 0.21819 0.70398 0.0
H1345 H 0.29627 0.24126 0.70945 0.0
H1346 H 0.27036 0.25057 0.77627 0.0
C1347 C 0.18858 0.26417 0.76575 0.0
C1348 C 0.2317 0.24431 0.72765 0.0
C1349 C 0.17016 0.27797 0.76754 0.0
C1350 C 0.32151 0.21914 0.71974 0.0
C1351 C 0.3026 0.23188 0.72277 0.0
C1352 C 0.25977 0.24856 0.76258 0.0
C1353 C 0.2014 0.26419 0.74702 0.0
C1354 C 0.22367 0.25393 0.74644 0.0
C1355 C 0.29088 0.23083 0.74212 0.0
C1356 C 0.26793 0.23941 0.7436 0.0
H1357 H 0.17179 0.30113 0.71817 0.0
H1358 H 0.2034 0.2771 0.71483 0.0
H1359 H 0.2325 0.26342 0.77858 0.0
H1360 H 0.32463 0.19587 0.76895 0.0
H1361 H 0.29172 0.21784 0.77432 0.0
C1362 C 0.93932 0.93722 0.97889 0.0
C1363 C 0.94336 0.91947 0.99285 0.0
C1364 C 0.95292 0.95567 0.97865 0.0
C1365 C 0.00692 0.97743 0.9963 0.0
H1366 H 0.97702 0.03365 0.99145 0.0
C1367 C 0.05177 0.05835 0.01286 0.0
C1368 C 0.04981 0.07526 -0.00245 0.0
C1369 C 0.03789 0.04013 0.01255 0.0
C1370 C 0.98562 0.0181 0.99262 0.0
H1371 H 0.96658 0.9064 0.01534 0.0
H1372 H 0.98998 0.93909 0.01596 0.0
H1373 H 0.95587 -0.00038 0.99002 0.0
H1374 H 0.03 0.08707 0.97161 0.0
H1375 H 0.00561 0.05499 0.97069 0.0
H1376 H 0.03663 0.99601 -0.00072 0.0
C1377 C 0.97602 0.93876 0.00531 0.0
C1378 C 0.97354 -0.00147 0.99175 0.0
C1379 C 0.96244 0.92008 0.00531 0.0
C1380 C 0.03236 0.07417 0.98305 0.0
C1381 C 0.01832 0.05582 0.98271 0.0
C1382 C 0.01897 -0.003 -0.00267 0.0
C1383 C 0.971 0.95711 0.9924 0.0
C1384 C 0.98402 0.9779 0.99351 0.0
C1385 C 0.02148 0.03824 -0.00296 0.0
C1386 C 0.00847 0.01756 0.99554 0.0
H1387 H 0.92511 0.93732 0.96854 0.0
H1388 H 0.94896 0.96902 0.96787 0.0
H1389 H 0.01563 0.96194 -0.00261 0.0
H1390 H 0.06466 0.05866 0.02471 0.0
H1391 H 0.04035 0.02724 0.02424 0.0
C1392 C 0.67973 0.70072 0.73631 0.0
C1393 C 0.67278 0.68951 0.75465 0.0
C1394 C 0.69906 0.71298 0.73657 0.0
C1395 C 0.74234 0.73733 0.77033 0.0
H1396 H 0.77833 0.72487 0.72082 0.0
C1397 C 0.82903 0.77575 0.75771 0.0
C1398 C 0.83016 0.78653 0.73797 0.0
C1399 C 0.81188 0.76083 0.7618 0.0
C1400 C 0.76854 0.72843 0.7348 0.0
H1401 H 0.67961 0.68358 0.78805 0.0
H1402 H 0.71381 0.70461 0.78834 0.0
H1403 H 0.74237 0.70795 0.72414 0.0
H1404 H 0.81501 0.78985 0.70697 0.0
H1405 H 0.78609 0.76363 0.71362 0.0
H1406 H 0.76854 0.75842 0.78058 0.0
C1407 C 0.70423 0.70405 0.77383 0.0
C1408 C 0.74785 0.71892 0.73661 0.0
C1409 C 0.68472 0.69194 0.77363 0.0
C1410 C 0.81492 0.78124 0.72207 0.0
C1411 C 0.79821 0.76629 0.72597 0.0
C1412 C 0.76315 0.74701 0.76846 0.0
C1413 C 0.71198 0.714 0.75508 0.0
C1414 C 0.73429 0.72366 0.7541 0.0
C1415 C 0.79607 0.75637 0.74603 0.0
C1416 C 0.77619 0.74305 0.75037 0.0
H1417 H 0.67051 0.69958 0.72162 0.0
H1418 H 0.7043 0.72109 0.72205 0.0
H1419 H 0.73225 0.74117 0.78404 0.0
H1420 H 0.84033 0.78 0.77036 0.0
H1421 H 0.81055 0.75336 0.77742 0.0
C1422 C 0.66747 0.19972 0.26029 0.0
C1423 C 0.65552 0.19948 0.24122 0.0
C1424 C 0.68508 0.21413 0.26287 0.0
C1425 C 0.7256 0.24201 0.22893 0.0
H1426 H 0.74613 0.26686 0.28208 0.0
C1427 C 0.79525 0.30478 0.23286 0.0
C1428 C 0.80983 0.30469 0.25022 0.0
C1429 C 0.77753 0.29039 0.23219 0.0
C1430 C 0.74078 0.25968 0.2672 0.0
H1431 H 0.6513 0.21497 0.21052 0.0
H1432 H 0.68139 0.24122 0.2154 0.0
H1433 H 0.71065 0.24823 0.2809 0.0
H1434 H 0.81778 0.28847 0.27998 0.0
H1435 H 0.78664 0.26295 0.27873 0.0
H1436 H 0.75563 0.25356 0.21521 0.0
C1437 C 0.67755 0.22988 0.22819 0.0
C1438 C 0.72037 0.24916 0.26647 0.0
C1439 C 0.66002 0.21525 0.22555 0.0
C1440 C 0.80674 0.28913 0.26652 0.0
C1441 C 0.78888 0.27459 0.26583 0.0
C1442 C 0.74595 0.25254 0.22966 0.0
C1443 C 0.69102 0.22863 0.2464 0.0
C1444 C 0.71238 0.24047 0.24725 0.0
C1445 C 0.77388 0.27537 0.2488 0.0
C1446 C 0.75362 0.2618 0.24872 0.0
H1447 H 0.66463 0.18722 0.27232 0.0
H1448 H 0.69512 0.21253 0.27701 0.0
H1449 H 0.72036 0.23485 0.21402 0.0
H1450 H 0.79708 0.31647 0.21994 0.0
H1451 H 0.76616 0.29167 0.219 0.0
C1452 C 0.8085 0.19081 0.74234 0.0
C1453 C 0.82709 0.19747 0.75376 0.0
C1454 C 0.79152 0.20556 0.73848 0.0
C1455 C 0.76626 0.25191 0.76423 0.0
H1456 H 0.73359 0.25878 0.71166 0.0
C1457 C 0.70305 0.32005 0.75204 0.0
C1458 C 0.68419 0.3156 0.73999 0.0
C1459 C 0.71954 0.30435 0.75396 0.0
C1460 C 0.74235 0.25672 0.72653 0.0
H1461 H 0.84359 0.22461 0.76909 0.0
H1462 H 0.81356 0.25079 0.76244 0.0
H1463 H 0.76608 0.23522 0.71242 0.0
H1464 H 0.66709 0.29079 0.72168 0.0
H1465 H 0.69605 0.26328 0.72488 0.0
H1466 H 0.74245 0.2731 0.77847 0.0
C1467 C 0.81216 0.23413 0.75651 0.0
C1468 C 0.76101 0.24344 0.72689 0.0
C1469 C 0.82933 0.21936 0.76013 0.0
C1470 C 0.6818 0.29493 0.73038 0.0
C1471 C 0.69829 0.27914 0.73237 0.0
C1472 C 0.74754 0.26504 0.76391 0.0
C1473 C 0.79285 0.22708 0.7463 0.0
C1474 C 0.77332 0.2413 0.74564 0.0
C1475 C 0.7174 0.28382 0.74401 0.0
C1476 C 0.73567 0.26792 0.74496 0.0
H1477 H 0.8066 0.17384 0.73742 0.0
H1478 H 0.77679 0.19973 0.73065 0.0
H1479 H 0.77512 0.2499 0.77905 0.0
H1480 H 0.70522 0.33581 0.75976 0.0
H1481 H 0.73421 0.30853 0.7628 0.0
C1482 C 0.82687 0.71863 0.25173 0.0
C1483 C 0.82713 0.70519 0.23361 0.0
C1484 C 0.80852 0.73193 0.25596 0.0
C1485 C 0.74966 0.72831 0.24532 0.0
H1486 H 0.74504 0.78673 0.26932 0.0
C1487 C 0.67148 0.78048 0.24334 0.0
C1488 C 0.66709 0.79476 0.26028 0.0
C1489 C 0.69018 0.76721 0.24364 0.0
C1490 C 0.74614 0.7702 0.26302 0.0
H1491 H 0.80951 0.69623 0.20506 0.0
H1492 H 0.77858 0.72043 0.2115 0.0
H1493 H 0.78135 0.77162 0.26086 0.0
H1494 H 0.67807 0.80589 0.29115 0.0
H1495 H 0.71075 0.78241 0.29188 0.0
H1496 H 0.71458 0.72695 0.24703 0.0
C1497 C 0.79207 0.72043 0.22274 0.0
C1498 C 0.76689 0.76166 0.25805 0.0
C1499 C 0.8101 0.70702 0.21872 0.0
C1500 C 0.68078 0.79447 0.27822 0.0
C1501 C 0.69968 0.78138 0.27844 0.0
C1502 C 0.72902 0.73681 0.25025 0.0
C1503 C 0.7904 0.73182 0.24206 0.0
C1504 C 0.76879 0.74085 0.24862 0.0
C1505 C 0.70501 0.76832 0.26075 0.0
C1506 C 0.72698 0.75801 0.25872 0.0
H1507 H 0.83958 0.71703 0.26368 0.0
H1508 H 0.8077 0.74064 0.27095 0.0
H1509 H 0.75063 0.71191 0.23869 0.0
H1510 H 0.66138 0.78086 0.22915 0.0
H1511 H 0.69391 0.75746 0.2297 0.0
C1512 C 0.53952 0.42711 0.99212 0.0
C1513 C 0.55776 0.42938 0.00551 0.0
C1514 C 0.52452 0.44437 0.98996 0.0
C1515 C 0.50653 0.49698 0.01329 0.0
H1516 H 0.49581 0.51427 0.95474 0.0
C1517 C 0.4661 0.57963 0.99547 0.0
C1518 C 0.44862 0.5785 0.98108 0.0
C1519 C 0.48117 0.56228 0.99668 0.0
C1520 C 0.49851 0.50961 0.97118 0.0
H1521 H 0.57469 0.45066 0.02755 0.0
H1522 H 0.54858 0.48101 0.02377 0.0
H1523 H 0.51538 0.48011 0.96229 0.0
H1524 H 0.43401 0.55992 0.95543 0.0
H1525 H 0.46013 0.52977 0.95742 0.0
H1526 H 0.48943 0.52618 0.02228 0.0
C1527 C 0.54552 0.46586 0.01525 0.0
C1528 C 0.5096 0.48997 0.97549 0.0
C1529 C 0.56044 0.44858 0.01744 0.0
C1530 C 0.44756 0.56106 0.96656 0.0
C1531 C 0.46252 0.54378 0.96775 0.0
C1532 C 0.49531 0.5165 0.009 0.0
C1533 C 0.52776 0.46415 0.00106 0.0
C1534 C 0.51396 0.48365 0.99659 0.0
C1535 C 0.47879 0.54364 0.98358 0.0
C1536 C 0.49144 0.52322 0.9879 0.0
H1537 H 0.53737 0.41236 0.98271 0.0
H1538 H 0.51082 0.44255 0.97912 0.0
H1539 H 0.50943 0.49232 0.0297 0.0
H1540 H 0.467 0.59288 0.00693 0.0
H1541 H 0.4939 0.56289 0.00868 0.0
C1542 C 0.05343 0.44063 0.47343 0.0
C1543 C 0.06145 0.43018 0.49176 0.0
C1544 C 0.03826 0.4578 0.4752 0.0
C1545 C 0.01904 0.49873 0.51459 0.0
H1546 H 0.97501 0.51112 0.47169 0.0
C1547 C 0.95173 0.56598 0.52141 0.0
C1548 C 0.94836 0.57888 0.50319 0.0
C1549 C 0.96641 0.54833 0.52093 0.0
C1550 C 0.98738 0.5079 0.48369 0.0
H1551 H 0.05873 0.42811 0.52612 0.0
H1552 H 0.03171 0.45737 0.52917 0.0
H1553 H -0.00307 0.47762 0.46911 0.0
H1554 H 0.9572 0.58351 0.47012 0.0
H1555 H 0.98292 0.55256 0.46917 0.0
H1556 H 0.00907 0.52885 0.52935 0.0
C1557 C 0.03778 0.45313 0.5135 0.0
C1558 C -6e-05 0.48875 0.48221 0.0
C1559 C 0.05321 0.43632 0.51176 0.0
C1560 C 0.9601 0.57414 0.48455 0.0
C1561 C 0.97453 0.55633 0.48394 0.0
C1562 C 0.00629 0.51772 0.51619 0.0
C1563 C 0.03058 0.46452 0.49532 0.0
C1564 C 0.01613 0.48408 0.4975 0.0
C1565 C 0.97738 0.54295 0.50198 0.0
C1566 C 0.9906 0.52263 0.50058 0.0
H1567 H 0.05944 0.43607 0.45782 0.0
H1568 H 0.0332 0.46629 0.46086 0.0
H1569 H 0.03159 0.49588 0.52648 0.0
H1570 H 0.94173 0.56837 0.53545 0.0
H1571 H 0.96806 0.53805 0.53494 0.0
C1572 C 0.02166 0.57571 0.01015 0.0
C1573 C 0.04083 0.57914 -0.00174 0.0
C1574 C 0.00938 0.55649 0.00732 0.0
C1575 C 0.00169 0.50555 0.97593 0.0
H1576 H -0.00221 0.47856 0.03177 0.0
C1577 C 0.96804 0.417 0.98624 0.0
C1578 C 0.95278 0.41486 0.00289 0.0
C1579 C 0.98173 0.4356 0.98514 0.0
C1580 C -0.00155 0.48582 0.01604 0.0
H1581 H 0.06127 0.56641 0.97293 0.0
H1582 H 0.03963 0.53302 0.9677 0.0
H1583 H 0.01108 0.51597 0.02838 0.0
H1584 H 0.94115 0.42927 0.0323 0.0
H1585 H 0.96434 0.46131 0.03037 0.0
H1586 H 0.98835 0.47554 0.96364 0.0
C1587 C 0.03393 0.54511 0.97906 0.0
C1588 C 0.00603 0.50738 0.01412 0.0
C1589 C 0.0462 0.56433 0.98192 0.0
C1590 C 0.95288 0.43042 0.01934 0.0
C1591 C 0.9663 0.44891 0.0182 0.0
C1592 C 0.99365 0.484 0.97787 0.0
C1593 C 0.01622 0.54038 0.99266 0.0
C1594 C 0.00743 0.51763 0.99412 0.0
C1595 C 0.98031 0.45227 0.00067 0.0
C1596 C 0.99158 0.47396 -0.00196 0.0
H1597 H 0.0175 0.58666 0.02312 0.0
H1598 H 0.99557 0.55338 0.0178 0.0
H1599 H 0.00291 0.51295 0.96027 0.0
H1600 H 0.9681 0.40537 0.97321 0.0
H1601 H 0.99264 0.43739 0.97163 0.0
C1602 C 0.52945 0.58313 0.49737 0.0
C1603 C 0.54704 0.58154 0.4831 0.0
C1604 C 0.51394 0.56613 0.49847 0.0
C1605 C 0.4967 0.5136 0.47221 0.0
H1606 H 0.48263 0.49641 0.53012 0.0
C1607 C 0.45814 0.42957 0.49489 0.0
C1608 C 0.43715 0.43305 0.50343 0.0
C1609 C 0.47281 0.44721 0.49317 0.0
C1610 C 0.48666 0.50102 0.51391 0.0
H1611 H 0.56141 0.56252 0.45755 0.0
H1612 H 0.53491 0.53306 0.4595 0.0
H1613 H 0.50281 0.53047 0.52366 0.0
H1614 H 0.41517 0.45666 0.51796 0.0
H1615 H 0.44107 0.48722 0.51571 0.0
H1616 H 0.48101 0.48366 0.46267 0.0
C1617 C 0.53256 0.54714 0.46976 0.0
C1618 C 0.49782 0.52068 0.51014 0.0
C1619 C 0.54782 0.56405 0.46862 0.0
C1620 C 0.43134 0.4538 0.51126 0.0
C1621 C 0.44611 0.47116 0.51008 0.0
C1622 C 0.48592 0.49375 0.47604 0.0
C1623 C 0.51603 0.54744 0.48535 0.0
C1624 C 0.50283 0.52731 0.48922 0.0
C1625 C 0.46671 0.46814 0.50058 0.0
C1626 C 0.48069 0.48745 0.49689 0.0
H1627 H 0.52871 0.59645 0.50877 0.0
H1628 H 0.50105 0.56708 0.51032 0.0
H1629 H 0.50005 0.51826 0.45589 0.0
H1630 H 0.46276 0.41359 0.48874 0.0
H1631 H 0.48869 0.44466 0.48575 0.0
C1632 C 0.12352 0.17109 0.35154 0.0
C1633 C 0.12866 0.17091 0.32978 0.0
C1634 C 0.13033 0.18854 0.36443 0.0
C1635 C 0.13595 0.24718 0.35811 0.0
H1636 H 0.14612 0.24531 0.41896 0.0
C1637 C 0.11091 0.32014 0.41103 0.0
C1638 C 0.09701 0.31321 0.42755 0.0
C1639 C 0.1242 0.30481 0.40038 0.0
C1640 C 0.14343 0.24619 0.40195 0.0
H1641 H 0.14614 0.188 0.3047 0.0
H1642 H 0.15783 0.21868 0.32714 0.0
H1643 H 0.15361 0.21276 0.3974 0.0
H1644 H 0.0868 0.28558 0.44686 0.0
H1645 H 0.10995 0.25895 0.42865 0.0
H1646 H 0.12424 0.28001 0.3628 0.0
C1647 C 0.14884 0.20519 0.33434 0.0
C1648 C 0.14777 0.22755 0.3896 0.0
C1649 C 0.14246 0.18744 0.32157 0.0
C1650 C 0.09755 0.29123 0.43422 0.0
C1651 C 0.11094 0.27603 0.42382 0.0
C1652 C 0.13149 0.26579 0.37047 0.0
C1653 C 0.14193 0.20644 0.35567 0.0
C1654 C 0.14311 0.2275 0.3677 0.0
C1655 C 0.12385 0.28242 0.40627 0.0
C1656 C 0.13415 0.26515 0.3927 0.0
H1657 H 0.11245 0.15888 0.35811 0.0
H1658 H 0.12455 0.18904 0.38073 0.0
H1659 H 0.132 0.2477 0.34131 0.0
H1660 H 0.11056 0.33706 0.4056 0.0
H1661 H 0.13405 0.3103 0.38702 0.0
C1662 C 0.05939 0.89638 0.57912 0.0
C1663 C 0.07822 0.88428 0.58478 0.0
C1664 C 0.04402 0.9026 0.59466 0.0
C1665 C 0.02683 0.88071 0.64711 0.0
H1666 H 0.98057 0.92432 0.64289 0.0
C1667 C 0.95401 0.87505 0.70361 0.0
C1668 C 0.93404 0.87331 0.69267 0.0
C1669 C 0.97249 0.88401 0.69342 0.0
C1670 C 0.99348 0.91215 0.64436 0.0
H1671 H 0.09714 0.87182 0.61123 0.0
H1672 H 0.07159 0.88444 0.63847 0.0
H1673 H 0.01275 0.92689 0.61946 0.0
H1674 H 0.91695 0.88158 0.66356 0.0
H1675 H 0.94893 0.89771 0.64598 0.0
H1676 H 0.00749 0.86562 0.67146 0.0
C1677 C 0.06791 0.8881 0.62199 0.0
C1678 C 0.01191 0.91355 0.63087 0.0
C1679 C 0.08294 0.88137 0.60643 0.0
C1680 C 0.93218 0.88293 0.67238 0.0
C1681 C 0.95055 0.89211 0.66229 0.0
C1682 C 0.00866 0.87947 0.66064 0.0
C1683 C 0.04743 0.8972 0.61622 0.0
C1684 C 0.0288 0.89768 0.63192 0.0
C1685 C 0.97123 0.89152 0.67219 0.0
C1686 C 0.99162 0.895 0.65937 0.0
H1687 H 0.05506 0.89841 0.5625 0.0
H1688 H 0.02858 0.90961 0.58943 0.0
H1689 H 0.03886 0.86763 0.64802 0.0
H1690 H 0.95594 0.86747 0.71912 0.0
H1691 H 0.98814 0.88362 0.7016 0.0
C1692 C 0.34907 0.78722 0.81836 0.0
C1693 C 0.34812 0.80908 0.82558 0.0
C1694 C 0.34526 0.76969 0.83246 0.0
C1695 C 0.32631 0.75666 0.88818 0.0
H1696 H 0.36899 0.70959 0.88379 0.0
C1697 C 0.36409 0.70555 0.95756 0.0
C1698 C 0.36704 0.68302 0.95386 0.0
C1699 C 0.35464 0.71895 0.94182 0.0
C1700 C 0.35672 0.72244 0.88506 0.0
H1701 H 0.34101 0.82965 0.85285 0.0
H1702 H 0.33483 0.79946 0.87729 0.0
H1703 H 0.36591 0.73637 0.85511 0.0
H1704 H 0.36132 0.65658 0.93158 0.0
H1705 H 0.34491 0.67981 0.90424 0.0
H1706 H 0.31836 0.74335 0.91895 0.0
C1707 C 0.3382 0.7956 0.8608 0.0
C1708 C 0.35484 0.73777 0.86854 0.0
C1709 C 0.34191 0.81302 0.84676 0.0
C1710 C 0.35878 0.67382 0.93502 0.0
C1711 C 0.34964 0.68715 0.91925 0.0
C1712 C 0.3285 0.74154 0.90488 0.0
C1713 C 0.34046 0.77367 0.85407 0.0
C1714 C 0.33996 0.75543 0.87006 0.0
C1715 C 0.34841 0.70997 0.9221 0.0
C1716 C 0.34399 0.72452 0.90362 0.0
H1717 H 0.35389 0.78358 0.80215 0.0
H1718 H 0.34679 0.75305 0.82656 0.0
H1719 H 0.3143 0.7697 0.88974 0.0
H1720 H 0.37087 0.7131 0.97171 0.0
H1721 H 0.354 0.73656 0.94433 0.0
C1722 C 0.56438 0.11462 0.18495 0.0
C1723 C 0.55564 0.11672 0.20556 0.0
C1724 C 0.55094 0.10831 0.1679 0.0
C1725 C 0.49605 0.08509 0.15387 0.0
H1726 H 0.49778 0.12678 0.10712 0.0
C1727 C 0.4202 0.10987 0.10497 0.0
C1728 C 0.42251 0.11691 0.08379 0.0
C1729 C 0.43844 0.10264 0.11665 0.0
C1730 C 0.4973 0.11461 0.11973 0.0
H1731 H 0.52642 0.11287 0.22474 0.0
H1732 H 0.50308 0.10104 0.19527 0.0
H1733 H 0.52672 0.12724 0.13393 0.0
H1734 H 0.44578 0.12046 0.05797 0.0
H1735 H 0.4776 0.10796 0.07821 0.0
H1736 H 0.46618 0.07302 0.14011 0.0
C1737 C 0.52029 0.10425 0.19214 0.0
C1738 C 0.51395 0.1149 0.13517 0.0
C1739 C 0.53366 0.11091 0.2091 0.0
C1740 C 0.44323 0.11482 0.07405 0.0
C1741 C 0.46162 0.10796 0.08583 0.0
C1742 C 0.47945 0.08476 0.13841 0.0
C1743 C 0.52851 0.10369 0.17118 0.0
C1744 C 0.51313 0.10064 0.15285 0.0
C1745 C 0.45961 0.10268 0.10758 0.0
C1746 C 0.47941 0.10002 0.12153 0.0
H1747 H 0.58125 0.11918 0.18181 0.0
H1748 H 0.55789 0.10787 0.15203 0.0
H1749 H 0.49513 0.07361 0.16704 0.0
H1750 H 0.40457 0.11168 0.11306 0.0
H1751 H 0.43618 0.09883 0.13335 0.0
C1752 C 0.13349 0.70308 0.03564 0.0
C1753 C 0.13415 0.68133 0.04306 0.0
C1754 C 0.14216 0.72011 0.04802 0.0
C1755 C 0.16882 0.73203 0.10101 0.0
H1756 H 0.12222 0.77543 0.10442 0.0
C1757 C 0.1411 0.77459 0.17859 0.0
C1758 C 0.13751 0.79739 0.17807 0.0
C1759 C 0.14616 0.76315 0.15994 0.0
C1760 C 0.13559 0.7637 0.10349 0.0
H1761 H 0.14706 0.65983 0.06742 0.0
H1762 H 0.16211 0.68914 0.08901 0.0
H1763 H 0.12395 0.75089 0.07404 0.0
H1764 H 0.13625 0.82618 0.15777 0.0
H1765 H 0.14418 0.80594 0.12483 0.0
H1766 H 0.17931 0.74404 0.13145 0.0
C1767 C 0.15505 0.69346 0.07376 0.0
C1768 C 0.13674 0.74965 0.08594 0.0
C1769 C 0.14659 0.67649 0.06124 0.0
C1770 C 0.13912 0.80861 0.15857 0.0
C1771 C 0.14359 0.79705 0.13978 0.0
C1772 C 0.16744 0.74589 0.11874 0.0
C1773 C 0.15136 0.7156 0.06814 0.0
C1774 C 0.15305 0.73321 0.08466 0.0
C1775 C 0.14717 0.7742 0.14029 0.0
C1776 C 0.15051 0.76152 0.12036 0.0
H1777 H 0.12379 0.70725 0.02175 0.0
H1778 H 0.13972 0.73691 0.04276 0.0
H1779 H 0.18181 0.71988 0.1005 0.0
H1780 H 0.13999 0.7656 0.19346 0.0
H1781 H 0.14858 0.74552 0.16079 0.0
C1782 C 0.45948 0.90218 0.42217 0.0
C1783 C 0.44396 0.88542 0.42507 0.0
C1784 C 0.46977 0.90504 0.40242 0.0
C1785 C 0.48461 0.87361 0.35456 0.0
H1786 H 0.50102 0.93077 0.33215 0.0
C1787 C 0.54279 0.87764 0.28392 0.0
C1788 C 0.56117 0.89088 0.28816 0.0
C1789 C 0.52337 0.88045 0.2956 0.0
C1790 C 0.49654 0.91468 0.33814 0.0
H1791 H 0.42652 0.85879 0.40988 0.0
H1792 H 0.44429 0.86382 0.37521 0.0
H1793 H 0.47744 0.92838 0.36357 0.0
H1794 H 0.57249 0.91964 0.3052 0.0
H1795 H 0.53893 0.92453 0.32546 0.0
H1796 H 0.50439 0.85982 0.32991 0.0
C1797 C 0.44872 0.87468 0.38814 0.0
C1798 C 0.48307 0.91331 0.3562 0.0
C1799 C 0.43845 0.87185 0.4079 0.0
C1800 C 0.55866 0.909 0.3018 0.0
C1801 C 0.53932 0.91178 0.31347 0.0
C1802 C 0.49811 0.87497 0.3366 0.0
C1803 C 0.46477 0.8911 0.38523 0.0
C1804 C 0.47727 0.89275 0.36486 0.0
C1805 C 0.52199 0.89661 0.31158 0.0
C1806 C 0.50463 0.89551 0.32836 0.0
H1807 H 0.46413 0.91263 0.43536 0.0
H1808 H 0.48227 0.91762 0.40087 0.0
H1809 H 0.4808 0.8575 0.36096 0.0
H1810 H 0.54412 0.86367 0.27334 0.0
H1811 H 0.51005 0.8689 0.29323 0.0
C1812 C 0.40009 0.29039 0.54756 0.0
C1813 C 0.39457 0.31148 0.55461 0.0
C1814 C 0.39155 0.27188 0.55788 0.0
C1815 C 0.34864 0.25189 0.59534 0.0
H1816 H 0.39261 0.20766 0.60801 0.0
C1817 C 0.34617 0.18273 0.66023 0.0
C1818 C 0.35849 0.16379 0.65542 0.0
C1819 C 0.34366 0.19941 0.64497 0.0
C1820 C 0.37997 0.2196 0.60424 0.0
H1821 H 0.3753 0.33016 0.57718 0.0
H1822 H 0.36011 0.29772 0.59524 0.0
H1823 H 0.40285 0.23997 0.58767 0.0
H1824 H 0.37442 0.14568 0.63023 0.0
H1825 H 0.36891 0.17404 0.60329 0.0
H1826 H 0.32596 0.23149 0.61284 0.0
C1827 C 0.371 0.2954 0.58179 0.0
C1828 C 0.38588 0.23817 0.59259 0.0
C1829 C 0.37978 0.31391 0.5716 0.0
C1830 C 0.36473 0.16004 0.63427 0.0
C1831 C 0.36193 0.17649 0.61897 0.0
C1832 C 0.3427 0.23316 0.60718 0.0
C1833 C 0.37721 0.27415 0.57536 0.0
C1834 C 0.3703 0.25446 0.58777 0.0
C1835 C 0.35313 0.19703 0.62469 0.0
C1836 C 0.3583 0.21668 0.61148 0.0
H1837 H 0.41163 0.28819 0.53463 0.0
H1838 H 0.39649 0.25574 0.55241 0.0
H1839 H 0.33628 0.26423 0.59196 0.0
H1840 H 0.34147 0.18615 0.67654 0.0
H1841 H 0.33669 0.21501 0.64983 0.0
C1842 C 0.92633 0.13043 0.81444 0.0
C1843 C 0.94073 0.14078 0.8001 0.0
C1844 C 0.93444 0.11529 0.82929 0.0
C1845 C 0.9811 0.08282 0.84868 0.0
H1846 H 0.98084 0.12206 0.89711 0.0
C1847 C 0.05288 0.08557 0.9076 0.0
C1848 C 0.0508 0.09703 0.92687 0.0
C1849 C 0.03476 0.08282 0.89417 0.0
C1850 C 0.98074 0.11023 0.88431 0.0
H1851 H 0.97395 0.14144 0.78787 0.0
H1852 H 0.9879 0.11404 0.81304 0.0
H1853 H 0.95625 0.12886 0.86786 0.0
H1854 H 0.02777 0.11413 0.94728 0.0
H1855 H 0.99585 0.1068 0.92559 0.0
H1856 H 0.00556 0.06406 0.86503 0.0
C1857 C 0.97052 0.11789 0.81315 0.0
C1858 C 0.96652 0.1143 0.86737 0.0
C1859 C 0.96258 0.13358 0.79879 0.0
C1860 C 0.02988 0.10434 0.93306 0.0
C1861 C 0.01158 0.10078 0.92009 0.0
C1862 C 0.9949 0.07826 0.86601 0.0
C1863 C 0.95688 0.10983 0.82944 0.0
C1864 C 0.96725 0.10125 0.84904 0.0
C1865 C 0.0139 0.09111 0.89983 0.0
C1866 C 0.99578 0.09258 0.88367 0.0
H1867 H 0.90944 0.13591 0.81584 0.0
H1868 H 0.92368 0.1094 0.84182 0.0
H1869 H 0.98192 0.07253 0.83466 0.0
H1870 H 0.06885 0.08 0.90221 0.0
H1871 H 0.03766 0.07551 0.87875 0.0
C1872 C 0.86476 0.70416 0.53209 0.0
C1873 C 0.85335 0.68457 0.53626 0.0
C1874 C 0.85865 0.72368 0.5424 0.0
C1875 C 0.81746 0.74725 0.58159 0.0
H1876 H 0.86922 0.77719 0.60266 0.0
C1877 C 0.83636 0.78451 0.66469 0.0
C1878 C 0.84527 0.80583 0.6649 0.0
C1879 C 0.8301 0.77473 0.64556 0.0
C1880 C 0.85455 0.76931 0.59658 0.0
H1881 H 0.82504 0.67057 0.5522 0.0
H1882 H 0.81475 0.70395 0.57041 0.0
H1883 H 0.87292 0.75074 0.57405 0.0
H1884 H 0.85337 0.83416 0.64556 0.0
H1885 H 0.84319 0.81667 0.61182 0.0
H1886 H 0.79967 0.76453 0.60599 0.0
C1887 C 0.8283 0.70475 0.55927 0.0
C1888 C 0.8566 0.75417 0.58002 0.0
C1889 C 0.83423 0.68543 0.5488 0.0
C1890 C 0.84601 0.81794 0.64588 0.0
C1891 C 0.84039 0.80788 0.62658 0.0
C1892 C 0.81555 0.76205 0.59857 0.0
C1893 C 0.84115 0.72388 0.55719 0.0
C1894 C 0.83816 0.74256 0.57247 0.0
C1895 C 0.83335 0.78587 0.62624 0.0
C1896 C 0.83414 0.77302 0.6063 0.0
H1897 H 0.87958 0.70402 0.52252 0.0
H1898 H 0.86852 0.73823 0.53975 0.0
H1899 H 0.80278 0.73901 0.57609 0.0
H1900 H 0.83637 0.77454 0.679 0.0
H1901 H 0.82503 0.75765 0.64567 0.0
C1902 C 0.9633 0.10113 0.42947 0.0
C1903 C 0.94168 0.0961 0.42329 0.0
C1904 C 0.98078 0.09901 0.415 0.0
C1905 C 0.99503 0.07865 0.35998 0.0
H1906 H 0.03458 0.12861 0.3599 0.0
C1907 C 0.03526 0.11745 0.28518 0.0
C1908 C 0.05748 0.12344 0.28627 0.0
C1909 C 0.02455 0.10855 0.30298 0.0
C1910 C 0.02391 0.11435 0.35988 0.0
H1911 H 0.9217 0.08363 0.39753 0.0
H1912 H 0.95176 0.08021 0.37238 0.0
H1913 H 0.00975 0.12299 0.38987 0.0
H1914 H 0.08613 0.12406 0.30653 0.0
H1915 H 0.06724 0.10945 0.33802 0.0
H1916 H 0.00831 0.07106 0.32917 0.0
C1917 C 0.95556 0.08549 0.38839 0.0
C1918 C 0.00968 0.11102 0.37715 0.0
C1919 C 0.93818 0.08753 0.40285 0.0
C1920 C 0.06904 0.11954 0.30525 0.0
C1921 C 0.05821 0.11123 0.32327 0.0
C1922 C 0.009 0.08223 0.34255 0.0
C1923 C 0.97702 0.09194 0.39396 0.0
C1924 C 0.99459 0.09343 0.37723 0.0
C1925 C 0.0357 0.10611 0.32245 0.0
C1926 C 0.02324 0.10038 0.34211 0.0
H1927 H 0.96656 0.10822 0.44492 0.0
H1928 H -0.00292 0.1038 0.42008 0.0
H1929 H 0.98412 0.0646 0.35961 0.0
H1930 H 0.0259 0.12063 0.27084 0.0
H1931 H 0.00717 0.1049 0.30192 0.0
C1932 C 0.60777 0.31342 0.08284 0.0
C1933 C 0.60092 0.31317 0.06155 0.0
C1934 C 0.61656 0.29444 0.09214 0.0
C1935 C 0.61028 0.23597 0.08973 0.0
H1936 H 0.66373 0.23202 0.12309 0.0
C1937 C 0.62394 0.1584 0.13587 0.0
C1938 C 0.62841 0.1622 0.1574 0.0
C1939 C 0.62875 0.17452 0.12069 0.0
C1940 C 0.64876 0.23283 0.11384 0.0
H1941 H 0.59813 0.29343 0.03309 0.0
H1942 H 0.61238 0.25988 0.04965 0.0
H1943 H 0.65499 0.26618 0.10401 0.0
H1944 H 0.64403 0.1843 0.17966 0.0
H1945 H 0.65158 0.21278 0.15354 0.0
H1946 H 0.60293 0.20363 0.10038 0.0
C1947 C 0.61141 0.27479 0.059 0.0
C1948 C 0.6438 0.25237 0.10294 0.0
C1949 C 0.6032 0.29388 0.04958 0.0
C1950 C 0.64067 0.18086 0.16306 0.0
C1951 C 0.64482 0.19735 0.14801 0.0
C1952 C 0.61501 0.21669 0.10079 0.0
C1953 C 0.61805 0.27487 0.0804 0.0
C1954 C 0.62443 0.25408 0.09092 0.0
C1955 C 0.6373 0.19504 0.12696 0.0
C1956 C 0.63424 0.21479 0.11312 0.0
H1957 H 0.60647 0.32831 0.09219 0.0
H1958 H 0.62146 0.29484 0.1087 0.0
H1959 H 0.59503 0.23704 0.0809 0.0
H1960 H 0.61437 0.1442 0.13117 0.0
H1961 H 0.62362 0.17178 0.10442 0.0
C1962 C 0.45302 0.87868 0.77995 0.0
C1963 C 0.43421 0.89137 0.78395 0.0
C1964 C 0.47278 0.88353 0.79037 0.0
C1965 C 0.49826 0.92219 0.8306 0.0
H1966 H 0.52103 0.86744 0.85334 0.0
C1967 C 0.53375 0.90415 0.91527 0.0
C1968 C 0.55278 0.89112 0.91586 0.0
C1969 C 0.52437 0.91002 0.89571 0.0
C1970 C 0.51512 0.8829 0.8469 0.0
H1971 H 0.42217 0.92106 0.79892 0.0
H1972 H 0.45602 0.92923 0.81732 0.0
H1973 H 0.49596 0.86659 0.82345 0.0
H1974 H 0.57757 0.87491 0.89686 0.0
H1975 H 0.56107 0.88491 0.8627 0.0
H1976 H 0.51628 0.93811 0.85566 0.0
C1977 C 0.45595 0.9155 0.80641 0.0
C1978 C 0.50084 0.88248 0.82956 0.0
C1979 C 0.43638 0.9108 0.79581 0.0
C1980 C 0.56324 0.8855 0.89673 0.0
C1981 C 0.55368 0.891 0.87724 0.0
C1982 C 0.51224 0.92253 0.84833 0.0
C1983 C 0.47394 0.90103 0.80505 0.0
C1984 C 0.49191 0.90208 0.82127 0.0
C1985 C 0.53365 0.90244 0.87659 0.0
C1986 C 0.52063 0.90285 0.8567 0.0
H1987 H 0.45191 0.8637 0.77073 0.0
H1988 H 0.48658 0.87252 0.78818 0.0
H1989 H 0.49202 0.93767 0.8246 0.0
H1990 H 0.5251 0.90808 0.92985 0.0
H1991 H 0.50879 0.91866 0.89561 0.0
C1992 C 0.8673 0.28686 0.96179 0.0
C1993 C 0.86303 0.30892 0.95662 0.0
C1994 C 0.85788 0.26994 0.94969 0.0
C1995 C 0.84402 0.2659 0.89377 0.0
H1996 H 0.8345 0.20406 0.90559 0.0
C1997 C 0.84721 0.20542 0.82548 0.0
C1998 C 0.86213 0.18824 0.82899 0.0
C1999 C 0.83871 0.21728 0.84263 0.0
C2000 C 0.83702 0.22131 0.90207 0.0
H2001 H 0.8439 0.33035 0.93618 0.0
H2002 H 0.82607 0.30125 0.91684 0.0
H2003 H 0.83407 0.23065 0.93493 0.0
H2004 H 0.87905 0.169 0.85283 0.0
H2005 H 0.86414 0.18955 0.88297 0.0
H2006 H 0.84824 0.25679 0.86133 0.0
C2007 C 0.83712 0.29685 0.92967 0.0
C2008 C 0.83675 0.2365 0.91885 0.0
C2009 C 0.84696 0.31365 0.94125 0.0
C2010 C 0.86714 0.1819 0.84988 0.0
C2011 C 0.85862 0.19374 0.86709 0.0
C2012 C 0.84431 0.25083 0.87714 0.0
C2013 C 0.84393 0.27498 0.93247 0.0
C2014 C 0.84064 0.25894 0.9149 0.0
C2015 C 0.84522 0.21228 0.86359 0.0
C2016 C 0.84126 0.22828 0.88107 0.0
H2017 H 0.88 0.28279 0.97321 0.0
H2018 H 0.86345 0.25323 0.9523 0.0
H2019 H 0.84773 0.28291 0.89012 0.0
H2020 H 0.84353 0.21083 0.80943 0.0
H2021 H 0.82822 0.23129 0.83939 0.0
C2022 C 0.55658 0.09354 0.59646 0.0
C2023 C 0.55294 0.10037 0.57539 0.0
C2024 C 0.53897 0.09022 0.61041 0.0
C2025 C 0.48209 0.10943 0.6187 0.0
H2026 H 0.48515 0.06994 0.66718 0.0
C2027 C 0.41953 0.11446 0.68764 0.0
C2028 C 0.42988 0.11835 0.70725 0.0
C2029 C 0.43161 0.10665 0.67025 0.0
C2030 C 0.484 0.08096 0.65366 0.0
H2031 H 0.52774 0.10795 0.55212 0.0
H2032 H 0.49693 0.10171 0.57635 0.0
H2033 H 0.51144 0.06599 0.63802 0.0
H2034 H 0.46054 0.11617 0.72442 0.0
H2035 H 0.48151 0.10151 0.69436 0.0
H2036 H 0.45483 0.12458 0.63459 0.0
C2037 C 0.51347 0.09923 0.58221 0.0
C2038 C 0.49912 0.0788 0.63697 0.0
C2039 C 0.53115 0.10255 0.56822 0.0
C2040 C 0.45211 0.11285 0.7096 0.0
C2041 C 0.4641 0.10457 0.69236 0.0
C2042 C 0.46681 0.11141 0.63527 0.0
C2043 C 0.51718 0.09367 0.60369 0.0
C2044 C 0.49885 0.09347 0.61959 0.0
C2045 C 0.45419 0.10221 0.67227 0.0
C2046 C 0.46801 0.09761 0.65323 0.0
H2047 H 0.57315 0.09177 0.60252 0.0
H2048 H 0.54261 0.0862 0.62682 0.0
H2049 H 0.48146 0.12124 0.60579 0.0
H2050 H 0.40251 0.119 0.68534 0.0
H2051 H 0.42353 0.10494 0.65499 0.0
C2052 C 0.63986 0.78503 0.31723 0.0
C2053 C 0.64416 0.80648 0.32451 0.0
C2054 C 0.64217 0.76693 0.33093 0.0
C2055 C 0.66404 0.75043 0.38441 0.0
H2056 H 0.61395 0.71104 0.38555 0.0
C2057 C 0.62661 0.71012 0.45929 0.0
C2058 C 0.62298 0.68738 0.45884 0.0
C2059 C 0.63435 0.72109 0.44118 0.0
C2060 C 0.62824 0.72167 0.38518 0.0
H2061 H 0.65557 0.82554 0.35137 0.0
H2062 H 0.65957 0.79429 0.37512 0.0
H2063 H 0.61839 0.73679 0.35589 0.0
H2064 H 0.62503 0.65813 0.43947 0.0
H2065 H 0.63754 0.67748 0.40732 0.0
H2066 H 0.67287 0.73633 0.41455 0.0
C2067 C 0.65455 0.79123 0.35887 0.0
C2068 C 0.63087 0.73638 0.36816 0.0
C2069 C 0.65215 0.80925 0.34526 0.0
C2070 C 0.62787 0.67564 0.4402 0.0
C2071 C 0.63493 0.68669 0.42184 0.0
C2072 C 0.6612 0.736 0.40155 0.0
C2073 C 0.64899 0.76989 0.35214 0.0
C2074 C 0.64843 0.75148 0.36792 0.0
C2075 C 0.63791 0.70957 0.42212 0.0
C2076 C 0.64298 0.72193 0.40237 0.0
H2077 H 0.63356 0.78231 0.30134 0.0
H2078 H 0.63798 0.75072 0.32511 0.0
H2079 H 0.67804 0.76141 0.38452 0.0
H2080 H 0.62256 0.71955 0.47336 0.0
H2081 H 0.63638 0.73878 0.4417 0.0
C2082 C 0.07423 0.86792 0.1715 0.0
C2083 C 0.06344 0.85105 0.18261 0.0
C2084 C 0.06206 0.88283 0.15929 0.0
C2085 C 0.01294 0.90892 0.14301 0.0
H2086 H 0.01242 0.87383 0.09167 0.0
C2087 C 0.94133 0.91052 0.08346 0.0
C2088 C 0.94394 0.90002 0.06371 0.0
C2089 C 0.95922 0.91295 0.09722 0.0
C2090 C 0.01273 0.88459 0.10533 0.0
H2091 H 0.03187 0.83783 0.19206 0.0
H2092 H 0.01056 0.86431 0.17112 0.0
H2093 H 0.03755 0.86475 0.11979 0.0
H2094 H 0.9677 0.88474 0.04279 0.0
H2095 H -0.00084 0.89269 0.06458 0.0
H2096 H 0.98807 0.92889 0.12862 0.0
C2097 C 0.02829 0.8659 0.17165 0.0
C2098 C 0.02714 0.8791 0.12161 0.0
C2099 C 0.04043 0.85064 0.18334 0.0
C2100 C 0.96514 0.89409 0.05717 0.0
C2101 C 0.98318 0.89774 0.07032 0.0
C2102 C -0.00119 0.91491 0.12635 0.0
C2103 C 0.03906 0.88135 0.15873 0.0
C2104 C 0.02692 0.89077 0.14072 0.0
C2105 C 0.98028 0.90554 0.09123 0.0
C2106 C -0.00202 0.90234 0.10748 0.0
H2107 H 0.09202 0.86842 0.1708 0.0
H2108 H 0.07062 0.89436 0.14906 0.0
H2109 H 0.01249 0.91797 0.15782 0.0
H2110 H 0.92514 0.91514 0.08907 0.0
H2111 H 0.956 0.91903 0.11308 0.0
C2112 C 0.64411 0.71583 0.81183 0.0
C2113 C 0.63871 0.69569 0.82146 0.0
C2114 C 0.65012 0.73382 0.82444 0.0
C2115 C 0.664 0.74957 0.88038 0.0
H2116 H 0.6229 0.79719 0.87049 0.0
C2117 C 0.60665 0.78722 0.94068 0.0
C2118 C 0.60224 0.80981 0.94013 0.0
C2119 C 0.62224 0.77824 0.92693 0.0
C2120 C 0.63504 0.78444 0.87323 0.0
H2121 H 0.63697 0.67776 0.85119 0.0
H2122 H 0.64759 0.70874 0.87309 0.0
H2123 H 0.63051 0.77114 0.84213 0.0
H2124 H 0.61128 0.84106 0.926 0.0
H2125 H 0.63783 0.82509 0.90101 0.0
H2126 H 0.66643 0.76158 0.91234 0.0
C2127 C 0.64725 0.71097 0.85599 0.0
C2128 C 0.63944 0.7695 0.85694 0.0
C2129 C 0.64088 0.69325 0.8435 0.0
C2130 C 0.61466 0.82357 0.92676 0.0
C2131 C 0.62978 0.81449 0.9125 0.0
C2132 C 0.65933 0.76433 0.89676 0.0
C2133 C 0.65125 0.73166 0.84673 0.0
C2134 C 0.65289 0.75113 0.86081 0.0
C2135 C 0.6331 0.79166 0.912 0.0
C2136 C 0.64388 0.78113 0.89362 0.0
H2137 H 0.64255 0.71798 0.79478 0.0
H2138 H 0.65309 0.74957 0.81687 0.0
H2139 H 0.67481 0.73581 0.88365 0.0
H2140 H 0.59719 0.77639 0.95089 0.0
H2141 H 0.62436 0.76055 0.92668 0.0
C2142 C 0.54667 0.42477 0.08021 0.0
C2143 C 0.5642 0.41009 0.0772 0.0
C2144 C 0.53589 0.42575 0.09984 0.0
C2145 C 0.5232 0.3843 0.13933 0.0
H2146 H 0.48434 0.42894 0.16228 0.0
C2147 C 0.45541 0.35893 0.19583 0.0
C2148 C 0.43438 0.36603 0.18997 0.0
C2149 C 0.47398 0.36933 0.18771 0.0
C2150 C 0.49513 0.41635 0.15604 0.0
H2151 H 0.58653 0.38774 0.09302 0.0
H2152 H 0.56815 0.38982 0.12744 0.0
H2153 H 0.51483 0.43973 0.13889 0.0
H2154 H 0.41584 0.39032 0.17233 0.0
H2155 H 0.44862 0.40849 0.15749 0.0
H2156 H 0.50316 0.36083 0.15547 0.0
C2157 C 0.56233 0.40021 0.1146 0.0
C2158 C 0.51263 0.42251 0.14275 0.0
C2159 C 0.57319 0.39938 0.09498 0.0
C2160 C 0.43202 0.38474 0.17709 0.0
C2161 C 0.45075 0.39508 0.16867 0.0
C2162 C 0.50585 0.3782 0.15256 0.0
C2163 C 0.54254 0.41203 0.1167 0.0
C2164 C 0.52664 0.40649 0.13393 0.0
C2165 C 0.47189 0.3868 0.1732 0.0
C2166 C 0.49141 0.39407 0.16083 0.0
H2167 H 0.53937 0.43306 0.06667 0.0
H2168 H 0.52081 0.43514 0.10086 0.0
H2169 H 0.53313 0.3714 0.13236 0.0
H2170 H 0.45749 0.34454 0.20586 0.0
H2171 H 0.49001 0.36287 0.19188 0.0
C2172 C 0.84115 0.18989 0.45247 0.0
C2173 C 0.86238 0.18629 0.46059 0.0
C2174 C 0.83657 0.20871 0.44042 0.0
C2175 C 0.83671 0.25587 0.41586 0.0
H2176 H 0.8699 0.23826 0.36595 0.0
C2177 C 0.84544 0.30691 0.33708 0.0
C2178 C 0.84736 0.29484 0.31814 0.0
C2179 C 0.84331 0.29604 0.35668 0.0
C2180 C 0.86038 0.24338 0.37965 0.0
H2181 H 0.8946 0.20071 0.46474 0.0
H2182 H 0.8867 0.23338 0.44326 0.0
H2183 H 0.87448 0.21823 0.39923 0.0
H2184 H 0.84703 0.26227 0.30449 0.0
H2185 H 0.84212 0.24327 0.33847 0.0
H2186 H 0.82261 0.28114 0.39611 0.0
C2187 C 0.87357 0.22182 0.4465 0.0
C2188 C 0.86329 0.23209 0.39878 0.0
C2189 C 0.87802 0.2032 0.45895 0.0
C2190 C 0.84524 0.27191 0.31887 0.0
C2191 C 0.84281 0.26107 0.33836 0.0
C2192 C 0.83404 0.2675 0.39667 0.0
C2193 C 0.85323 0.22402 0.43613 0.0
C2194 C 0.8514 0.23809 0.41699 0.0
C2195 C 0.843 0.27292 0.35758 0.0
C2196 C 0.84558 0.26109 0.37824 0.0
H2197 H 0.82891 0.17697 0.45331 0.0
H2198 H 0.82085 0.20996 0.43242 0.0
H2199 H 0.82725 0.26061 0.42971 0.0
H2200 H 0.84773 0.32458 0.33694 0.0
H2201 H 0.84365 0.30565 0.37116 0.0
C2202 C 0.93763 0.59071 0.59118 0.0
C2203 C 0.94003 0.59845 0.57021 0.0
C2204 C 0.95603 0.58536 0.6035 0.0
C2205 C 0.01541 0.599 0.60615 0.0
H2206 H 0.01295 0.56212 0.65656 0.0
C2207 C 0.08095 0.61154 0.66547 0.0
C2208 C 0.07037 0.62172 0.68266 0.0
C2209 C 0.06931 0.59684 0.65261 0.0
C2210 C 0.01403 0.57219 0.64235 0.0
H2211 H 0.96379 0.60567 0.54544 0.0
H2212 H 0.99572 0.59503 0.5663 0.0
H2213 H 0.98351 0.56006 0.63013 0.0
H2214 H 0.0419 0.62046 0.70317 0.0
H2215 H 0.02176 0.59457 0.68121 0.0
H2216 H 0.04553 0.61148 0.6185 0.0
C2217 C 0.97966 0.59377 0.57362 0.0
C2218 C -0.00296 0.57125 0.62728 0.0
C2219 C 0.96127 0.59958 0.56146 0.0
C2220 C 0.05034 0.61294 0.68984 0.0
C2221 C 0.03865 0.59824 0.67704 0.0
C2222 C 0.03248 0.59961 0.62093 0.0
C2223 C 0.97741 0.58737 0.59511 0.0
C2224 C -0.0029 0.58524 0.60931 0.0
C2225 C 0.04719 0.59196 0.65716 0.0
C2226 C 0.03172 0.58676 0.63955 0.0
H2227 H 0.92152 0.5897 0.59847 0.0
H2228 H 0.9534 0.58081 0.61996 0.0
H2229 H 0.01607 0.61043 0.59294 0.0
H2230 H 0.09651 0.61787 0.65971 0.0
H2231 H 0.07655 0.59173 0.63766 0.0
C2232 C 0.61576 0.20503 0.53336 0.0
C2233 C 0.63149 0.18809 0.53288 0.0
C2234 C 0.61935 0.22374 0.54588 0.0
C2235 C 0.6418 0.22975 0.59685 0.0
H2236 H 0.63593 0.2931 0.59303 0.0
C2237 C 0.65299 0.28197 0.67121 0.0
C2238 C 0.6382 0.29926 0.67434 0.0
C2239 C 0.65441 0.27172 0.65141 0.0
C2240 C 0.63743 0.27541 0.59435 0.0
H2241 H 0.66456 0.17896 0.54196 0.0
H2242 H 0.67094 0.21167 0.56341 0.0
H2243 H 0.63474 0.27076 0.56046 0.0
H2244 H 0.61369 0.32 0.65955 0.0
H2245 H 0.61568 0.30176 0.6249 0.0
H2246 H 0.64337 0.23378 0.63046 0.0
C2247 C 0.65576 0.2104 0.55451 0.0
C2248 C 0.63687 0.26272 0.57572 0.0
C2249 C 0.65218 0.19179 0.54207 0.0
C2250 C 0.62533 0.30673 0.6573 0.0
C2251 C 0.62656 0.29633 0.63749 0.0
C2252 C 0.64205 0.24227 0.61535 0.0
C2253 C 0.63878 0.22566 0.55777 0.0
C2254 C 0.63941 0.23981 0.57687 0.0
C2255 C 0.64072 0.27829 0.63446 0.0
C2256 C 0.64021 0.2653 0.6144 0.0
H2257 H 0.59961 0.20252 0.52658 0.0
H2258 H 0.60602 0.23531 0.54817 0.0
H2259 H 0.64313 0.21202 0.59819 0.0
H2260 H 0.66296 0.27593 0.68425 0.0
H2261 H 0.66586 0.25822 0.64956 0.0
C2262 C 0.94489 0.40637 0.91657 0.0
C2263 C 0.92624 0.39276 0.91629 0.0
C2264 C 0.95673 0.41053 0.89787 0.0
C2265 C 0.96925 0.38087 0.84875 0.0
H2266 H 0.00508 0.43186 0.83574 0.0
C2267 C 0.03716 0.37386 0.786 0.0
C2268 C 0.05764 0.38126 0.79327 0.0
C2269 C 0.01779 0.38053 0.79629 0.0
C2270 C 0.99518 0.41747 0.83911 0.0
H2271 H 0.90447 0.37409 0.8961 0.0
H2272 H 0.92473 0.38179 0.86325 0.0
H2273 H 0.97651 0.43438 0.86303 0.0
H2274 H 0.07388 0.40306 0.81536 0.0
H2275 H 0.04038 0.41495 0.83302 0.0
H2276 H 0.98849 0.36359 0.82577 0.0
C2277 C 0.93034 0.38917 0.87793 0.0
C2278 C 0.97877 0.41893 0.85476 0.0
C2279 C 0.91842 0.38515 0.89666 0.0
C2280 C 0.05824 0.3973 0.80931 0.0
C2281 C 0.03896 0.40403 0.81952 0.0
C2282 C 0.98566 0.37939 0.8332 0.0
C2283 C 0.95029 0.40093 0.8785 0.0
C2284 C 0.96579 0.40055 0.86001 0.0
C2285 C 0.01858 0.39477 0.81398 0.0
C2286 C -0.00087 0.39755 0.82836 0.0
H2287 H 0.95162 0.4119 0.93159 0.0
H2288 H 0.97204 0.41953 0.89903 0.0
H2289 H 0.96002 0.36619 0.85269 0.0
H2290 H 0.03625 0.36122 0.77391 0.0
H2291 H 0.00234 0.37342 0.79127 0.0
C2292 C 0.84454 0.80532 0.05693 0.0
C2293 C 0.8621 0.8059 0.04233 0.0
C2294 C 0.83844 0.78578 0.06703 0.0
C2295 C 0.86262 0.73118 0.08088 0.0
H2296 H 0.80666 0.72389 0.10969 0.0
C2297 C 0.85082 0.66067 0.14004 0.0
C2298 C 0.84726 0.66901 0.16056 0.0
C2299 C 0.84645 0.67371 0.12207 0.0
C2300 C 0.82229 0.72558 0.10157 0.0
H2301 H 0.8854 0.78572 0.02519 0.0
H2302 H 0.87404 0.75118 0.04198 0.0
H2303 H 0.81104 0.75297 0.08318 0.0
H2304 H 0.83513 0.69695 0.17818 0.0
H2305 H 0.82614 0.71904 0.14704 0.0
H2306 H 0.87369 0.70364 0.09931 0.0
C2307 C 0.86559 0.76614 0.04641 0.0
C2308 C 0.82496 0.74244 0.08648 0.0
C2309 C 0.87191 0.78592 0.03642 0.0
C2310 C 0.83688 0.68956 0.16263 0.0
C2311 C 0.8322 0.70246 0.14471 0.0
C2312 C 0.85976 0.71406 0.09558 0.0
C2313 C 0.84941 0.76593 0.06261 0.0
C2314 C 0.84539 0.74593 0.07627 0.0
C2315 C 0.83824 0.69522 0.12432 0.0
C2316 C 0.83973 0.71132 0.10643 0.0
H2317 H 0.83648 0.82039 0.0618 0.0
H2318 H 0.82608 0.78674 0.07938 0.0
H2319 H 0.87875 0.73338 0.07396 0.0
H2320 H 0.85944 0.64524 0.13796 0.0
H2321 H 0.85114 0.66765 0.10652 0.0
C2322 C 0.58714 0.62233 0.38784 0.0
C2323 C 0.58404 0.6147 0.40871 0.0
C2324 C 0.57213 0.61697 0.37185 0.0
C2325 C 0.52289 0.58487 0.35637 0.0
H2326 H 0.50321 0.64123 0.33449 0.0
C2327 C 0.43803 0.59903 0.31615 0.0
C2328 C 0.43583 0.61611 0.30115 0.0
C2329 C 0.45822 0.59484 0.32599 0.0
C2330 C 0.50871 0.62524 0.33992 0.0
H2331 H 0.56417 0.59354 0.4287 0.0
H2332 H 0.53806 0.58382 0.40063 0.0
H2333 H 0.53518 0.6395 0.35741 0.0
H2334 H 0.4535 0.64109 0.28356 0.0
H2335 H 0.48897 0.63346 0.30021 0.0
H2336 H 0.49609 0.57066 0.33898 0.0
C2337 C 0.55212 0.59393 0.39659 0.0
C2338 C 0.52708 0.62426 0.35319 0.0
C2339 C 0.56729 0.59924 0.41262 0.0
C2340 C 0.4547 0.62769 0.29486 0.0
C2341 C 0.47495 0.62353 0.30475 0.0
C2342 C 0.50451 0.58581 0.34284 0.0
C2343 C 0.55361 0.60395 0.37642 0.0
C2344 C 0.53449 0.60411 0.36155 0.0
C2345 C 0.47678 0.60768 0.32112 0.0
C2346 C 0.49716 0.60606 0.33441 0.0
H2347 H 0.59968 0.63451 0.38446 0.0
H2348 H 0.57397 0.62459 0.35634 0.0
H2349 H 0.5281 0.56911 0.36268 0.0
H2350 H 0.42373 0.58986 0.32138 0.0
H2351 H 0.45882 0.58256 0.33849 0.0
C2352 C 0.35926 0.17393 0.051 0.0
C2353 C 0.36929 0.18287 0.03284 0.0
C2354 C 0.34876 0.18753 0.06569 0.0
C2355 C 0.32967 0.24458 0.07667 0.0
H2356 H 0.34935 0.23067 0.13379 0.0
C2357 C 0.33745 0.30658 0.14574 0.0
C2358 C 0.33704 0.29825 0.16656 0.0
C2359 C 0.33334 0.29268 0.12848 0.0
C2360 C 0.34315 0.23458 0.11807 0.0
H2361 H 0.37607 0.21286 0.01552 0.0
H2362 H 0.35762 0.23686 0.04119 0.0
H2363 H 0.35793 0.20584 0.10487 0.0
H2364 H 0.32893 0.26999 0.18599 0.0
H2365 H 0.32063 0.246 0.15603 0.0
H2366 H 0.31564 0.27389 0.08997 0.0
C2367 C 0.35729 0.21926 0.04383 0.0
C2368 C 0.34815 0.2203 0.10142 0.0
C2369 C 0.36775 0.20555 0.02905 0.0
C2370 C 0.32908 0.27689 0.17007 0.0
C2371 C 0.32484 0.26301 0.15286 0.0
C2372 C 0.32463 0.25893 0.09342 0.0
C2373 C 0.34849 0.21046 0.06276 0.0
C2374 C 0.34158 0.22514 0.08048 0.0
C2375 C 0.32858 0.27031 0.13189 0.0
C2376 C 0.33142 0.25414 0.11432 0.0
H2377 H 0.36116 0.15666 0.05479 0.0
H2378 H 0.34198 0.18018 0.07998 0.0
H2379 H 0.32436 0.24877 0.06072 0.0
H2380 H 0.34396 0.32287 0.14265 0.0
H2381 H 0.33633 0.29891 0.11259 0.0
C2382 C 0.43451 0.60466 0.92672 0.0
C2383 C 0.41502 0.60542 0.91491 0.0
C2384 C 0.45437 0.59869 0.91713 0.0
C2385 C 0.48361 0.5787 0.86944 0.0
H2386 H 0.51525 0.63375 0.87466 0.0
C2387 C 0.55514 0.60835 0.8131 0.0
C2388 C 0.57117 0.62193 0.82239 0.0
C2389 C 0.53733 0.6006 0.82531 0.0
C2390 C 0.50703 0.61802 0.87331 0.0
H2391 H 0.40051 0.59704 0.88455 0.0
H2392 H 0.43514 0.58604 0.86784 0.0
H2393 H 0.48225 0.62784 0.89538 0.0
H2394 H 0.58244 0.63618 0.85193 0.0
H2395 H 0.5523 0.62198 0.87328 0.0
H2396 H 0.50866 0.56906 0.84707 0.0
C2397 C 0.43515 0.59046 0.88452 0.0
C2398 C 0.48801 0.61466 0.88522 0.0
C2399 C 0.41528 0.59669 0.89416 0.0
C2400 C 0.57008 0.6261 0.84428 0.0
C2401 C 0.5527 0.61805 0.85648 0.0
C2402 C 0.50302 0.58197 0.85759 0.0
C2403 C 0.45507 0.59302 0.89548 0.0
C2404 C 0.47609 0.595 0.88354 0.0
C2405 C 0.53551 0.6061 0.84703 0.0
C2406 C 0.51502 0.60171 0.85948 0.0
H2407 H 0.43505 0.61119 0.94246 0.0
H2408 H 0.46947 0.6006 0.92607 0.0
H2409 H 0.47456 0.56349 0.86767 0.0
H2410 H 0.55567 0.60482 0.79622 0.0
H2411 H 0.52444 0.59139 0.8175 0.0
C2412 C 0.13998 0.68847 0.65344 0.0
C2413 C 0.13177 0.69563 0.6731 0.0
C2414 C 0.15046 0.70334 0.63977 0.0
C2415 C 0.14072 0.76163 0.63097 0.0
H2416 H 0.16898 0.74916 0.57704 0.0
C2417 C 0.12439 0.81584 0.55755 0.0
C2418 C 0.11736 0.80371 0.53986 0.0
C2419 C 0.13479 0.80532 0.57463 0.0
C2420 C 0.16115 0.75296 0.59207 0.0
H2421 H 0.13284 0.72189 0.69614 0.0
H2422 H 0.15225 0.74754 0.6729 0.0
H2423 H 0.17603 0.72536 0.60773 0.0
H2424 H 0.1162 0.77145 0.52559 0.0
H2425 H 0.1347 0.75296 0.55526 0.0
H2426 H 0.12508 0.78857 0.61515 0.0
C2427 C 0.14947 0.73093 0.66734 0.0
C2428 C 0.16522 0.73936 0.60969 0.0
C2429 C 0.1388 0.71604 0.68091 0.0
C2430 C 0.12171 0.78111 0.53902 0.0
C2431 C 0.13238 0.77061 0.55596 0.0
C2432 C 0.13681 0.77528 0.61346 0.0
C2433 C 0.15324 0.72543 0.64588 0.0
C2434 C 0.15429 0.74293 0.62914 0.0
C2435 C 0.13851 0.78248 0.57423 0.0
C2436 C 0.14626 0.77059 0.59358 0.0
H2437 H 0.13484 0.67274 0.64707 0.0
H2438 H 0.15341 0.69821 0.62354 0.0
H2439 H 0.13161 0.76484 0.64544 0.0
H2440 H 0.12095 0.83328 0.55858 0.0
H2441 H 0.13934 0.81494 0.58842 0.0
C2442 C 0.94602 0.36386 0.29059 0.0
C2443 C 0.92605 0.37294 0.29751 0.0
C2444 C 0.96574 0.3699 0.30049 0.0
C2445 C 0.9894 0.40847 0.34103 0.0
H2446 H 0.02031 0.35636 0.36034 0.0
C2447 C 0.02587 0.39785 0.42436 0.0
C2448 C 0.04627 0.38746 0.4265 0.0
C2449 C 0.01628 0.40013 0.40431 0.0
C2450 C 0.0122 0.37116 0.35477 0.0
H2451 H 0.91103 0.39677 0.31849 0.0
H2452 H 0.94501 0.40724 0.33571 0.0
H2453 H 0.99444 0.35358 0.33097 0.0
H2454 H 0.07298 0.37149 0.40985 0.0
H2455 H 0.05583 0.37483 0.3746 0.0
H2456 H 0.00599 0.42559 0.36609 0.0
C2457 C 0.94584 0.39559 0.32274 0.0
C2458 C -0.00258 0.36961 0.33784 0.0
C2459 C 0.92626 0.38949 0.31298 0.0
C2460 C 0.05728 0.37976 0.40838 0.0
C2461 C 0.04748 0.38161 0.38833 0.0
C2462 C 0.00396 0.40994 0.35813 0.0
C2463 C 0.9657 0.3852 0.3173 0.0
C2464 C 0.98517 0.38807 0.33133 0.0
C2465 C 0.02675 0.39157 0.38617 0.0
C2466 C 0.01489 0.39113 0.36562 0.0
H2467 H 0.94623 0.35099 0.27871 0.0
H2468 H 0.98081 0.36179 0.29574 0.0
H2469 H 0.98058 0.42311 0.33613 0.0
H2470 H 0.01712 0.40373 0.43827 0.0
H2471 H 0.00016 0.4076 0.40314 0.0
C2472 C 0.38477 0.79336 0.43578 0.0
C2473 C 0.38835 0.81591 0.43269 0.0
C2474 C 0.36901 0.78239 0.42367 0.0
C2475 C 0.35679 0.7811 0.37072 0.0
H2476 H 0.30905 0.7408 0.38287 0.0
C2477 C 0.33985 0.71432 0.31113 0.0
C2478 C 0.33853 0.69342 0.32058 0.0
C2479 C 0.33561 0.73316 0.32317 0.0
C2480 C 0.32238 0.75197 0.37916 0.0
H2481 H 0.37776 0.84515 0.41593 0.0
H2482 H 0.3509 0.82564 0.39377 0.0
H2483 H 0.32123 0.76669 0.41024 0.0
H2484 H 0.32902 0.67569 0.34909 0.0
H2485 H 0.32283 0.70817 0.37029 0.0
H2486 H 0.36002 0.76523 0.34084 0.0
C2487 C 0.35969 0.81666 0.406 0.0
C2488 C 0.32914 0.76688 0.39479 0.0
C2489 C 0.37502 0.82774 0.41856 0.0
C2490 C 0.33048 0.69163 0.34146 0.0
C2491 C 0.32672 0.71041 0.35362 0.0
C2492 C 0.35048 0.76591 0.35536 0.0
C2493 C 0.35719 0.79379 0.40795 0.0
C2494 C 0.34671 0.78119 0.39076 0.0
C2495 C 0.33063 0.73145 0.34504 0.0
C2496 C 0.33362 0.75063 0.35954 0.0
H2497 H 0.395 0.78405 0.44665 0.0
H2498 H 0.36751 0.7647 0.42522 0.0
H2499 H 0.3707 0.79173 0.36748 0.0
H2500 H 0.34596 0.71626 0.29504 0.0
H2501 H 0.33795 0.74908 0.31574 0.0
C2502 C 0.95513 0.6252 0.21251 0.0
C2503 C 0.93645 0.61178 0.21394 0.0
C2504 C 0.97364 0.61815 0.20118 0.0
C2505 C 0.98442 0.57965 0.15659 0.0
H2506 H 0.04096 0.60884 0.15717 0.0
C2507 C 0.03192 0.59894 0.08052 0.0
C2508 C 0.05464 0.60273 0.08112 0.0
C2509 C 0.02056 0.59281 0.09886 0.0
C2510 C 0.0255 0.60004 0.15689 0.0
H2511 H 0.9236 0.57935 0.20745 0.0
H2512 H 0.95653 0.56617 0.18955 0.0
H2513 H 0.01729 0.61102 0.1882 0.0
H2514 H 0.0837 0.60147 0.10079 0.0
H2515 H 0.06398 0.58988 0.13301 0.0
H2516 H 0.99278 0.5684 0.12543 0.0
C2517 C 0.95657 0.5827 0.19592 0.0
C2518 C 0.01167 0.60163 0.17465 0.0
C2519 C 0.93782 0.59002 0.20672 0.0
C2520 C 0.06621 0.59832 0.09992 0.0
C2521 C 0.0548 0.5921 0.11842 0.0
C2522 C -0.00159 0.57772 0.13903 0.0
C2523 C 0.97403 0.59725 0.19152 0.0
C2524 C 0.99057 0.59211 0.17451 0.0
C2525 C 0.03168 0.59028 0.11834 0.0
C2526 C 0.01881 0.58857 0.13857 0.0
H2527 H 0.95431 0.64224 0.21751 0.0
H2528 H 0.98655 0.63002 0.19826 0.0
H2529 H 0.96829 0.57228 0.15546 0.0
H2530 H 0.02263 0.6025 0.0662 0.0
H2531 H 0.00282 0.59185 0.098 0.0
C2532 C 0.14153 0.33187 0.85234 0.0
C2533 C 0.14973 0.32528 0.83247 0.0
C2534 C 0.14468 0.31862 0.87038 0.0
C2535 C 0.17268 0.26927 0.89273 0.0
H2536 H 0.11467 0.25534 0.91446 0.0
C2537 C 0.15313 0.18801 0.93691 0.0
C2538 C 0.13505 0.18684 0.95085 0.0
C2539 C 0.15845 0.20763 0.92644 0.0
C2540 C 0.13112 0.25928 0.90912 0.0
H2541 H 0.16992 0.30116 0.81646 0.0
H2542 H 0.17627 0.27857 0.84801 0.0
H2543 H 0.11922 0.28544 0.88941 0.0
H2544 H 0.10957 0.20597 0.96614 0.0
H2545 H 0.11937 0.24056 0.9486 0.0
H2546 H 0.1846 0.24296 0.9123 0.0
C2547 C 0.16716 0.29377 0.84972 0.0
C2548 C 0.13371 0.27661 0.89462 0.0
C2549 C 0.16381 0.30693 0.83165 0.0
C2550 C 0.12365 0.20631 0.9556 0.0
C2551 C 0.12906 0.22607 0.94518 0.0
C2552 C 0.17015 0.25208 0.90751 0.0
C2553 C 0.15639 0.29871 0.86894 0.0
C2554 C 0.15447 0.28171 0.88606 0.0
C2555 C 0.14595 0.22679 0.92973 0.0
C2556 C 0.14925 0.2466 0.91574 0.0
H2557 H 0.13021 0.34559 0.85337 0.0
H2558 H 0.13646 0.32305 0.88505 0.0
H2559 H 0.18888 0.27274 0.8864 0.0
H2560 H 0.16227 0.1733 0.93288 0.0
H2561 H 0.17146 0.20724 0.91469 0.0
C2562 C 0.56443 0.36584 0.67194 0.0
C2563 C 0.56072 0.34879 0.68657 0.0
C2564 C 0.54689 0.37922 0.6654 0.0
C2565 C 0.48952 0.36994 0.65615 0.0
H2566 H 0.4859 0.43137 0.64002 0.0
C2567 C 0.42293 0.39336 0.59938 0.0
C2568 C 0.43169 0.40421 0.58158 0.0
C2569 C 0.43407 0.39411 0.61883 0.0
C2570 C 0.48661 0.41418 0.64448 0.0
H2571 H 0.53692 0.33349 0.70745 0.0
H2572 H 0.50656 0.35707 0.69657 0.0
H2573 H 0.51694 0.41843 0.66157 0.0
H2574 H 0.45624 0.42755 0.57093 0.0
H2575 H 0.47591 0.42841 0.60433 0.0
H2576 H 0.4606 0.3649 0.63799 0.0
C2577 C 0.52269 0.36 0.68983 0.0
C2578 C 0.50438 0.40683 0.65682 0.0
C2579 C 0.54003 0.34656 0.6961 0.0
C2580 C 0.4494 0.41872 0.58441 0.0
C2581 C 0.4607 0.41922 0.60369 0.0
C2582 C 0.47207 0.37714 0.64368 0.0
C2583 C 0.52563 0.37558 0.67356 0.0
C2584 C 0.50607 0.38456 0.66253 0.0
C2585 C 0.45423 0.40545 0.62057 0.0
C2586 C 0.47048 0.39927 0.6373 0.0
H2587 H 0.58036 0.3677 0.66442 0.0
H2588 H 0.54957 0.39107 0.65277 0.0
H2589 H 0.49065 0.35256 0.65985 0.0
H2590 H 0.40918 0.38219 0.59769 0.0
H2591 H 0.42808 0.38403 0.63183 0.0
C2592 C 0.08286 0.22884 0.26627 0.0
C2593 C 0.08181 0.20697 0.25955 0.0
C2594 C 0.06667 0.24381 0.25978 0.0
C2595 C 0.01605 0.24917 0.22524 0.0
H2596 H -0.00337 0.28605 0.27181 0.0
C2597 C 0.93025 0.2782 0.25878 0.0
C2598 C 0.9268 0.30087 0.25622 0.0
C2599 C 0.94964 0.26854 0.25148 0.0
C2600 C 0.0021 0.27609 0.25854 0.0
H2601 H 0.06431 0.18371 0.23988 0.0
H2602 H 0.03558 0.20903 0.22963 0.0
H2603 H 0.03153 0.26701 0.27451 0.0
H2604 H 0.93979 0.33093 0.24253 0.0
H2605 H 0.97431 0.31408 0.23061 0.0
H2606 H 0.98519 0.25709 0.21034 0.0
C2607 C 0.04891 0.21521 0.23929 0.0
C2608 C 0.02223 0.26528 0.25995 0.0
C2609 C 0.06527 0.20051 0.24541 0.0
C2610 C 0.94212 0.3134 0.24466 0.0
C2611 C 0.96177 0.30381 0.23777 0.0
C2612 C 0.99563 0.25974 0.22405 0.0
C2613 C 0.04895 0.23694 0.2469 0.0
C2614 C 0.02932 0.25123 0.24356 0.0
C2615 C 0.96591 0.28151 0.24186 0.0
C2616 C 0.98847 0.27295 0.2409 0.0
H2617 H 0.09566 0.23412 0.27707 0.0
H2618 H 0.06764 0.26055 0.26551 0.0
H2619 H 0.02107 0.23885 0.21209 0.0
H2620 H 0.91855 0.26821 0.26749 0.0
H2621 H 0.95269 0.25133 0.2549 0.0
C2622 C 0.03599 0.81603 0.48647 0.0
C2623 C 0.02947 0.82993 0.5032 0.0
C2624 C 0.02347 0.79741 0.48138 0.0
C2625 C 0.99338 0.75995 0.5142 0.0
H2626 H 0.97873 0.72655 0.46371 0.0
C2627 C 0.93465 0.68619 0.50604 0.0
C2628 C 0.94499 0.66893 0.51709 0.0
C2629 C 0.94679 0.7037 0.49786 0.0
C2630 C 0.98315 0.73568 0.47785 0.0
H2631 H 0.00319 0.83751 0.52509 0.0
H2632 H 0.98082 0.80576 0.51556 0.0
H2633 H 0.99293 0.76446 0.46011 0.0
H2634 H 0.9762 0.65593 0.52765 0.0
H2635 H -0.00235 0.68759 0.51424 0.0
H2636 H 0.98391 0.7314 0.53195 0.0
C2637 C 0.99589 0.80875 0.50683 0.0
C2638 C 0.99102 0.75733 0.47581 0.0
C2639 C 0.0085 0.82718 0.51204 0.0
C2640 C 0.96794 0.66894 0.51899 0.0
C2641 C 0.98013 0.68695 0.51129 0.0
C2642 C 0.98609 0.73832 0.51617 0.0
C2643 C 0.00419 0.79274 0.49283 0.0
C2644 C 0.9957 0.76984 0.49406 0.0
C2645 C 0.96949 0.70469 0.50114 0.0
C2646 C 0.98068 0.72606 0.4981 0.0
H2647 H 0.05227 0.81761 0.47963 0.0
H2648 H 0.03022 0.78544 0.47043 0.0
H2649 H -0.00269 0.76897 0.52854 0.0
H2650 H 0.91693 0.68673 0.50463 0.0
H2651 H 0.93818 0.71734 0.49049 0.0
C2652 C 0.40852 0.77717 0.76641 0.0
C2653 C 0.4153 0.79865 0.77112 0.0
C2654 C 0.4233 0.76238 0.75689 0.0
C2655 C 0.4792 0.75972 0.73128 0.0
H2656 H 0.48504 0.70649 0.76478 0.0
C2657 C 0.55487 0.72544 0.77175 0.0
C2658 C 0.55787 0.70262 0.77237 0.0
C2659 C 0.53792 0.73442 0.7596 0.0
C2660 C 0.48335 0.72092 0.75475 0.0
H2661 H 0.44185 0.82221 0.76787 0.0
H2662 H 0.4673 0.79686 0.75171 0.0
H2663 H 0.45115 0.72746 0.76658 0.0
H2664 H 0.54744 0.67135 0.75949 0.0
H2665 H 0.51674 0.68698 0.73926 0.0
H2666 H 0.51264 0.75436 0.72163 0.0
C2667 C 0.45088 0.79105 0.75525 0.0
C2668 C 0.46387 0.73296 0.75575 0.0
C2669 C 0.43639 0.80553 0.76497 0.0
C2670 C 0.54519 0.68903 0.75923 0.0
C2671 C 0.52779 0.69793 0.7476 0.0
C2672 C 0.4989 0.74791 0.73067 0.0
C2673 C 0.4448 0.76913 0.75153 0.0
C2674 C 0.46204 0.75317 0.74501 0.0
C2675 C 0.52342 0.72056 0.74854 0.0
C2676 C 0.50141 0.72899 0.74321 0.0
H2677 H 0.39219 0.77164 0.77072 0.0
H2678 H 0.41809 0.7456 0.75416 0.0
H2679 H 0.47808 0.77494 0.72235 0.0
H2680 H 0.5648 0.73615 0.78159 0.0
H2681 H 0.53478 0.75193 0.76062 0.0
C2682 C 0.45271 0.17652 -0.00308 0.0
C2683 C 0.45945 0.16099 0.01209 0.0
C2684 C 0.46775 0.1914 0.98833 0.0
C2685 C 0.51974 0.21706 0.00557 0.0
H2686 H 0.50966 0.25363 0.95586 0.0
C2687 C 0.56774 0.29666 0.99389 0.0
C2688 C 0.55331 0.31447 0.99632 0.0
C2689 C 0.55956 0.27584 0.98875 0.0
C2690 C 0.51284 0.24334 0.96963 0.0
H2691 H 0.4872 0.14698 0.02865 0.0
H2692 H 0.51403 0.17206 0.01263 0.0
H2693 H 0.49048 0.21841 0.9593 0.0
H2694 H 0.51953 0.32524 0.99237 0.0
H2695 H 0.50544 0.28903 0.98286 0.0
H2696 H 0.54196 0.24207 0.01587 0.0
C2697 C 0.49697 0.17353 0.00798 0.0
C2698 C 0.50174 0.22326 0.97175 0.0
C2699 C 0.48176 0.15888 0.01692 0.0
C2700 C 0.53101 0.31169 0.99102 0.0
C2701 C 0.52293 0.29102 0.98541 0.0
C2702 C 0.53116 0.23678 0.00318 0.0
C2703 C 0.48993 0.19089 0.99463 0.0
C2704 C 0.50456 0.2101 0.99009 0.0
C2705 C 0.53696 0.27272 0.9853 0.0
C2706 C 0.52746 0.25034 0.98548 0.0
H2707 H 0.43544 0.17837 0.99308 0.0
H2708 H 0.46146 0.20438 0.97822 0.0
H2709 H 0.522 0.20798 0.02024 0.0
H2710 H 0.58505 0.29844 -0.00258 0.0
H2711 H 0.57068 0.26192 0.98861 0.0
C2712 C 0.93304 0.70038 0.25455 0.0
C2713 C 0.91451 0.70675 0.24278 0.0
C2714 C 0.948 0.71596 0.26168 0.0
C2715 C 0.96837 0.76892 0.24281 0.0
H2716 H 0.01133 0.75922 0.28743 0.0
C2717 C 0.04969 0.81743 0.2472 0.0
C2718 C 0.06821 0.80364 0.24668 0.0
C2719 C 0.02891 0.80871 0.25147 0.0
C2720 C -0.00064 0.76221 0.275 0.0
H2721 H 0.89583 0.73436 0.23084 0.0
H2722 H 0.922 0.76207 0.24365 0.0
H2723 H 0.97616 0.73984 0.28871 0.0
H2724 H 0.07983 0.77027 0.25108 0.0
H2725 H 0.04346 0.75507 0.25903 0.0
H2726 H 0.9918 0.79103 0.22901 0.0
C2727 C 0.9251 0.7449 0.24713 0.0
C2728 C 0.97924 0.75113 0.27568 0.0
C2729 C 0.90995 0.72914 0.24004 0.0
C2730 C 0.06575 0.78118 0.25129 0.0
C2731 C 0.04503 0.77254 0.256 0.0
C2732 C 0.98831 0.78026 0.24235 0.0
C2733 C 0.94489 0.73835 0.25701 0.0
C2734 C 0.96379 0.75374 0.25917 0.0
C2735 C 0.02638 0.78617 0.25573 0.0
C2736 C 0.00422 0.7765 0.25808 0.0
H2737 H 0.93693 0.68311 0.25671 0.0
H2738 H 0.96299 0.71011 0.26903 0.0
H2739 H 0.95721 0.77107 0.22957 0.0
H2740 H 0.05115 0.83481 0.24366 0.0
H2741 H 0.01475 0.81951 0.25118 0.0
C2742 C 0.54 0.67616 0.51213 0.0
C2743 C 0.53425 0.66126 0.49606 0.0
C2744 C 0.52483 0.69176 0.51924 0.0
C2745 C 0.47788 0.7199 0.49414 0.0
H2746 H 0.48344 0.75907 0.54244 0.0
C2747 C 0.42932 0.80098 0.50324 0.0
C2748 C 0.44328 0.81831 0.49723 0.0
C2749 C 0.43807 0.78049 0.5088 0.0
C2750 C 0.48164 0.7481 0.529 0.0
H2751 H 0.50751 0.64844 0.47729 0.0
H2752 H 0.4803 0.6742 0.49115 0.0
H2753 H 0.50052 0.72251 0.54374 0.0
H2754 H 0.47727 0.82839 0.49374 0.0
H2755 H 0.49255 0.79251 0.50382 0.0
H2756 H 0.45908 0.74556 0.47951 0.0
C2757 C 0.49686 0.67491 0.49736 0.0
C2758 C 0.49145 0.72722 0.52964 0.0
C2759 C 0.51226 0.65973 0.48978 0.0
C2760 C 0.46615 0.81519 0.49806 0.0
C2761 C 0.47489 0.79483 0.50402 0.0
C2762 C 0.4678 0.74047 0.49371 0.0
C2763 C 0.50348 0.69238 0.51064 0.0
C2764 C 0.49007 0.71295 0.512 0.0
C2765 C 0.46088 0.77723 0.50896 0.0
C2766 C 0.46991 0.75483 0.51093 0.0
H2767 H 0.557 0.67779 0.517 0.0
H2768 H 0.53071 0.70469 0.52957 0.0
H2769 H 0.47694 0.70999 0.4799 0.0
H2770 H 0.41163 0.80297 0.50284 0.0
H2771 H 0.42703 0.76699 0.51233 0.0
C2772 C 0.42698 0.20229 0.75555 0.0
C2773 C 0.411 0.209 0.74081 0.0
C2774 C 0.44286 0.21705 0.76268 0.0
C2775 C 0.46957 0.26618 0.73988 0.0
H2776 H 0.51056 0.25657 0.7862 0.0
C2777 C 0.55136 0.31312 0.74772 0.0
C2778 C 0.56914 0.29897 0.74372 0.0
C2779 C 0.53064 0.30454 0.75247 0.0
C2780 C 0.4991 0.25949 0.77331 0.0
H2781 H 0.3971 0.2368 0.72416 0.0
H2782 H 0.42377 0.26321 0.73791 0.0
H2783 H 0.4741 0.23955 0.78757 0.0
H2784 H 0.57969 0.26494 0.74303 0.0
H2785 H 0.54339 0.24994 0.75197 0.0
H2786 H 0.49463 0.28621 0.7258 0.0
C2787 C 0.42483 0.24628 0.74319 0.0
C2788 C 0.47826 0.24971 0.77398 0.0
C2789 C 0.40918 0.23132 0.73566 0.0
C2790 C 0.56615 0.27616 0.74576 0.0
C2791 C 0.54552 0.2676 0.75105 0.0
C2792 C 0.49011 0.2763 0.73949 0.0
C2793 C 0.44292 0.23894 0.75535 0.0
C2794 C 0.46336 0.25246 0.75698 0.0
C2795 C 0.52754 0.28174 0.75395 0.0
C2796 C 0.50517 0.27267 0.75593 0.0
H2797 H 0.42886 0.18501 0.75946 0.0
H2798 H 0.45632 0.21055 0.77202 0.0
H2799 H 0.45909 0.26829 0.72613 0.0
H2800 H 0.55324 0.33078 0.74642 0.0
H2801 H 0.51691 0.31568 0.75454 0.0
C2802 C 0.95927 0.31583 0.01854 0.0
C2803 C 0.96332 0.33065 0.00178 0.0
C2804 C 0.97219 0.29691 0.02095 0.0
C2805 C -0.0 0.26122 0.98338 0.0
H2806 H 0.01573 0.22498 0.03189 0.0
C2807 C 0.05848 0.18765 0.98401 0.0
C2808 C 0.04721 0.16893 0.97677 0.0
C2809 C 0.04719 0.2055 0.99247 0.0
C2810 C 0.01097 0.23487 0.01829 0.0
H2811 H 0.98629 0.33949 0.97699 0.0
H2812 H 0.00955 0.30717 0.98177 0.0
H2813 H 0.00196 0.26266 0.03758 0.0
H2814 H 0.01522 0.15387 0.97332 0.0
H2815 H 0.99499 0.1861 0.98737 0.0
H2816 H 0.00903 0.23362 0.96413 0.0
C2817 C 0.99584 0.30958 0.99252 0.0
C2818 C 0.00335 0.25644 0.0215 0.0
C2819 C 0.98284 0.32842 0.99011 0.0
C2820 C 0.02426 0.16804 0.97896 0.0
C2821 C 0.01278 0.18636 0.987 0.0
C2822 C 0.00722 0.23969 0.98024 0.0
C2823 C 0.98954 0.29278 0.00674 0.0
C2824 C -0.0018 0.27001 0.004 0.0
C2825 C 0.02426 0.20533 0.99345 0.0
C2826 C 0.01292 0.22639 -0.0024 0.0
H2827 H 0.94442 0.31722 0.02787 0.0
H2828 H 0.96705 0.28448 0.03229 0.0
H2829 H 0.99565 0.27098 0.96956 0.0
H2830 H 0.07614 0.18887 0.98239 0.0
H2831 H 0.05634 0.22004 -0.00299 0.0
C2832 C 0.05146 0.67871 0.75175 0.0
C2833 C 0.065 0.69382 0.74113 0.0
C2834 C 0.03533 0.68623 0.76587 0.0
C2835 C 0.00855 0.73611 0.78885 0.0
H2836 H 0.95941 0.7171 0.75431 0.0
C2837 C 0.93882 0.79275 0.76374 0.0
C2838 C 0.91904 0.78404 0.75598 0.0
C2839 C 0.95467 0.7791 0.77283 0.0
C2840 C 0.97253 0.72225 0.76478 0.0
H2841 H 0.07533 0.72779 0.73976 0.0
H2842 H 0.04766 0.7409 0.76466 0.0
H2843 H 0.99361 0.69711 0.75284 0.0
H2844 H 0.89953 0.75456 0.75298 0.0
H2845 H 0.92699 0.7305 0.76949 0.0
H2846 H 0.98756 0.76189 0.80013 0.0
C2847 C 0.04907 0.72335 0.76206 0.0
C2848 C 0.99232 0.71069 0.76389 0.0
C2849 C 0.0651 0.71582 0.74787 0.0
C2850 C 0.91447 0.76172 0.75926 0.0
C2851 C 0.93042 0.74793 0.76838 0.0
C2852 C 0.98854 0.74752 0.79003 0.0
C2853 C 0.03275 0.70891 0.76954 0.0
C2854 C 0.01081 0.71792 0.77528 0.0
C2855 C 0.95127 0.75626 0.77407 0.0
C2856 C 0.97052 0.74129 0.77729 0.0
H2857 H 0.05101 0.66168 0.74674 0.0
H2858 H 0.0232 0.67468 0.77176 0.0
H2859 H 0.02253 0.74209 0.79778 0.0
H2860 H 0.94294 0.80985 0.76088 0.0
H2861 H 0.97041 0.78629 0.77677 0.0
C2862 C 0.02613 0.31241 0.49411 0.0
C2863 C 0.04885 0.31532 0.49164 0.0
C2864 C 0.01744 0.29145 0.49749 0.0
C2865 C 0.02689 0.23513 0.48329 0.0
H2866 H 0.98129 0.22242 0.52465 0.0
C2867 C 0.9747 0.15652 0.47608 0.0
C2868 C 0.95215 0.16099 0.47727 0.0
C2869 C 0.9899 0.17215 0.48339 0.0
C2870 C 0.99402 0.22566 0.513 0.0
H2871 H 0.08044 0.29884 0.49114 0.0
H2872 H 0.06508 0.2619 0.49625 0.0
H2873 H 0.00135 0.25715 0.52657 0.0
H2874 H 0.92756 0.18402 0.48834 0.0
H2875 H 0.95363 0.21105 0.50088 0.0
H2876 H 0.01859 0.20454 0.46869 0.0
C2877 C 0.05409 0.27592 0.49591 0.0
C2878 C 0.00552 0.24551 0.51418 0.0
C2879 C 0.06284 0.29699 0.49303 0.0
C2880 C 0.94495 0.18035 0.48714 0.0
C2881 C 0.95996 0.19576 0.49454 0.0
C2882 C 0.01518 0.21542 0.48191 0.0
C2883 C 0.03129 0.27297 0.49802 0.0
C2884 C 0.02163 0.25066 0.49897 0.0
C2885 C 0.98265 0.19227 0.49213 0.0
C2886 C -0.00191 0.21075 0.49633 0.0
H2887 H 0.01506 0.32634 0.49323 0.0
H2888 H -0.00021 0.28959 0.49887 0.0
H2889 H 0.03913 0.23883 0.47126 0.0
H2890 H 0.98054 0.14164 0.4685 0.0
H2891 H 0.00728 0.16885 0.48153 0.0
C2892 C 0.42501 0.2679 0.25821 0.0
C2893 C 0.42008 0.29023 0.25513 0.0
C2894 C 0.44564 0.26159 0.26593 0.0
C2895 C 0.49743 0.27528 0.25152 0.0
H2896 H 0.52224 0.23984 0.29684 0.0
C2897 C 0.57818 0.23232 0.23562 0.0
C2898 C 0.57816 0.21012 0.2416 0.0
C2899 C 0.56345 0.24705 0.24513 0.0
C2900 C 0.51562 0.24969 0.28398 0.0
H2901 H 0.43185 0.32351 0.25957 0.0
H2902 H 0.46818 0.31242 0.27232 0.0
H2903 H 0.48509 0.25496 0.30061 0.0
H2904 H 0.56368 0.1861 0.26278 0.0
H2905 H 0.53799 0.21116 0.27897 0.0
H2906 H 0.52639 0.26849 0.23378 0.0
C2907 C 0.45594 0.29987 0.26933 0.0
C2908 C 0.49442 0.25847 0.28631 0.0
C2909 C 0.4351 0.30618 0.26217 0.0
C2910 C 0.5647 0.20333 0.25852 0.0
C2911 C 0.54966 0.21783 0.26767 0.0
C2912 C 0.51828 0.26612 0.24894 0.0
C2913 C 0.4617 0.27754 0.27019 0.0
C2914 C 0.4851 0.27104 0.26992 0.0
C2915 C 0.54783 0.23959 0.26015 0.0
C2916 C 0.52757 0.25272 0.26491 0.0
H2917 H 0.41382 0.25535 0.25259 0.0
H2918 H 0.44984 0.24427 0.26626 0.0
H2919 H 0.49036 0.28461 0.2385 0.0
H2920 H 0.58817 0.23783 0.22236 0.0
H2921 H 0.56317 0.26386 0.23943 0.0
C2922 C 0.52904 0.81188 0.01276 0.0
C2923 C 0.551 0.81495 0.00649 0.0
C2924 C 0.52087 0.79079 0.01646 0.0
C2925 C 0.5299 0.73708 0.99418 0.0
H2926 H 0.48222 0.71963 0.0315 0.0
C2927 C 0.47805 0.66099 0.9743 0.0
C2928 C 0.45539 0.66461 0.97577 0.0
C2929 C 0.49271 0.67564 0.98404 0.0
C2930 C 0.49553 0.72422 0.02094 0.0
H2931 H 0.58228 0.79867 0.00155 0.0
H2932 H 0.56794 0.76167 0.00795 0.0
H2933 H 0.50311 0.753 0.03923 0.0
H2934 H 0.42998 0.68514 0.98937 0.0
H2935 H 0.45526 0.71086 0.0059 0.0
H2936 H 0.52154 0.70943 0.97503 0.0
C2937 C 0.55701 0.7756 0.00974 0.0
C2938 C 0.50755 0.74327 0.02546 0.0
C2939 C 0.56524 0.79678 0.0062 0.0
C2940 C 0.4475 0.68221 0.98796 0.0
C2941 C 0.46202 0.6968 -0.00237 0.0
C2942 C 0.5178 0.7182 0.98955 0.0
C2943 C 0.5345 0.77234 0.01385 0.0
C2944 C 0.52451 0.75018 0.0118 0.0
C2945 C 0.48486 0.69411 0.99531 0.0
C2946 C 0.50004 0.71184 0.00251 0.0
H2947 H 0.51777 0.82568 0.01335 0.0
H2948 H 0.50346 0.78886 0.01957 0.0
H2949 H 0.54257 0.74218 0.98309 0.0
H2950 H 0.48438 0.64737 0.96506 0.0
H2951 H 0.51018 0.67285 0.98223 0.0
C2952 C 0.92428 0.22786 0.74023 0.0
C2953 C 0.91976 0.20551 0.7435 0.0
C2954 C 0.94528 0.23454 0.73389 0.0
C2955 C 0.00125 0.21958 0.74301 0.0
H2956 H 0.01504 0.26392 0.70065 0.0
C2957 C 0.08223 0.26646 0.74898 0.0
C2958 C 0.07832 0.28918 0.7491 0.0
C2959 C 0.06641 0.25213 0.74045 0.0
C2960 C 0.01153 0.25143 0.71249 0.0
H2961 H 0.9334 0.17261 0.74308 0.0
H2962 H 0.97016 0.18429 0.73219 0.0
H2963 H 0.9785 0.2472 0.70125 0.0
H2964 H 0.05562 0.31481 0.7396 0.0
H2965 H 0.0289 0.29045 0.72425 0.0
H2966 H 0.03336 0.22503 0.75556 0.0
C2967 C 0.95738 0.19656 0.73396 0.0
C2968 C 0.99063 0.24189 0.71278 0.0
C2969 C 0.93632 0.18988 0.73997 0.0
C2970 C 0.05941 0.29739 0.73907 0.0
C2971 C 0.04396 0.2833 0.7303 0.0
C2972 C 0.022 0.22938 0.74299 0.0
C2973 C 0.96216 0.21897 0.73126 0.0
C2974 C 0.98513 0.22637 0.72845 0.0
C2975 C 0.04661 0.26042 0.73188 0.0
C2976 C 0.02715 0.24605 0.72823 0.0
H2977 H 0.9118 0.24017 0.7433 0.0
H2978 H 0.94866 0.25196 0.73225 0.0
H2979 H -0.00268 0.20777 0.75539 0.0
H2980 H 0.09642 0.25972 0.75711 0.0
H2981 H 0.06904 0.23456 0.74177 0.0
C2982 C 0.43203 0.29848 0.49399 0.0
C2983 C 0.44675 0.31625 0.49522 0.0
C2984 C 0.4398 0.27719 0.49017 0.0
C2985 C 0.48825 0.24445 0.47337 0.0
H2986 H 0.47377 0.20734 0.52169 0.0
C2987 C 0.54888 0.18405 0.50931 0.0
C2988 C 0.54179 0.16494 0.51979 0.0
C2989 C 0.53384 0.1984 0.50009 0.0
C2990 C 0.47758 0.21709 0.50773 0.0
H2991 H 0.48066 0.32612 0.49066 0.0
H2992 H 0.49411 0.28916 0.4834 0.0
H2993 H 0.45306 0.24102 0.51549 0.0
H2994 H 0.51362 0.14491 0.52781 0.0
H2995 H 0.48675 0.17049 0.51189 0.0
H2996 H 0.51334 0.22097 0.46607 0.0
C2997 C 0.47665 0.29152 0.48588 0.0
C2998 C 0.46572 0.23646 0.50419 0.0
C2999 C 0.46896 0.31271 0.49014 0.0
C3000 C 0.51936 0.1597 0.51994 0.0
C3001 C 0.50409 0.17434 0.51089 0.0
C3002 C 0.49997 0.22497 0.47677 0.0
C3003 C 0.46234 0.27341 0.48687 0.0
C3004 C 0.47151 0.25078 0.48749 0.0
C3005 C 0.51119 0.19411 0.50125 0.0
C3006 C 0.49543 0.21156 0.49456 0.0
H3007 H 0.41474 0.30074 0.49746 0.0
H3008 H 0.42837 0.26355 0.49076 0.0
H3009 H 0.4929 0.25504 0.46023 0.0
H3010 H 0.56619 0.18818 0.50864 0.0
H3011 H 0.53999 0.21347 0.49307 0.0
C3012 C 0.4352 0.7127 0.27775 0.0
C3013 C 0.43226 0.69093 0.27099 0.0
C3014 C 0.45364 0.72464 0.27114 0.0
C3015 C 0.50982 0.71912 0.26349 0.0
H3016 H 0.50901 0.77425 0.2324 0.0
C3017 C 0.58401 0.77785 0.26686 0.0
C3018 C 0.57751 0.79923 0.27235 0.0
C3019 C 0.56837 0.76274 0.25934 0.0
C3020 C 0.50956 0.75884 0.24107 0.0
H3021 H 0.44582 0.66482 0.25142 0.0
H3022 H 0.47867 0.68538 0.24098 0.0
H3023 H 0.47576 0.75169 0.23414 0.0
H3024 H 0.55033 0.82231 0.27227 0.0
H3025 H 0.52343 0.79642 0.25962 0.0
H3026 H 0.54284 0.72697 0.27214 0.0
C3027 C 0.46649 0.69324 0.25099 0.0
C3028 C 0.49056 0.74596 0.24195 0.0
C3029 C 0.44777 0.68152 0.25707 0.0
C3030 C 0.55569 0.80572 0.26877 0.0
C3031 C 0.54028 0.7909 0.26108 0.0
C3032 C 0.5287 0.7322 0.26299 0.0
C3033 C 0.46961 0.7148 0.25811 0.0
C3034 C 0.4904 0.7264 0.25377 0.0
C3035 C 0.54618 0.76902 0.25682 0.0
C3036 C 0.5285 0.75269 0.25256 0.0
H3037 H 0.42332 0.72042 0.28819 0.0
H3038 H 0.45586 0.7413 0.27684 0.0
H3039 H 0.50995 0.70404 0.27271 0.0
H3040 H 0.60087 0.77262 0.2691 0.0
H3041 H 0.57351 0.74606 0.25597 0.0
C3042 C 0.96973 0.82632 0.0077 0.0
C3043 C 0.94867 0.82425 0.01669 0.0
C3044 C 0.98008 0.8078 -0.00145 0.0
C3045 C 0.97864 0.74826 0.00599 0.0
H3046 H 0.01053 0.74197 0.95295 0.0
C3047 C 0.01518 0.66593 0.98946 0.0
C3048 C 0.03797 0.66756 0.9868 0.0
C3049 C 0.00173 0.68401 0.98484 0.0
C3050 C 0.00157 0.7435 0.96777 0.0
H3051 H 0.92114 0.80205 0.02109 0.0
H3052 H 0.93863 0.7706 0.0051 0.0
H3053 H 0.99388 0.77767 0.96219 0.0
H3054 H 0.06414 0.6877 0.97397 0.0
H3055 H 0.04088 0.71903 0.9658 0.0
H3056 H 0.98646 0.71476 0.01215 0.0
C3057 C 0.94762 0.78598 0.00565 0.0
C3058 C 0.99224 0.76396 0.97311 0.0
C3059 C 0.93761 0.80407 0.01489 0.0
C3060 C 0.04653 0.68594 0.97597 0.0
C3061 C 0.03316 0.70408 0.9715 0.0
C3062 C 0.98782 0.72805 0.00071 0.0
C3063 C 0.96926 0.78726 -0.00185 0.0
C3064 C 0.98056 0.76644 0.99227 0.0
C3065 C 0.01099 0.70399 0.97771 0.0
C3066 C -0.00068 0.72524 0.98151 0.0
H3067 H 0.97847 0.8418 0.0086 0.0
H3068 H -0.00322 0.80926 0.99275 0.0
H3069 H 0.97013 0.74974 0.02108 0.0
H3070 H 0.00818 0.65205 -0.00207 0.0
H3071 H 0.9845 0.68316 0.98915 0.0
C3072 C 0.07889 0.17343 0.03775 0.0
C3073 C 0.10075 0.17184 0.03063 0.0
C3074 C 0.07438 0.17567 0.05951 0.0
C3075 C 0.10203 0.15313 0.10498 0.0
H3076 H 0.05373 0.17523 0.13903 0.0
C3077 C 0.0894 0.11625 0.18622 0.0
C3078 C 0.08855 0.13185 0.20255 0.0
C3079 C 0.08434 0.12233 0.16533 0.0
C3080 C 0.06725 0.16889 0.12966 0.0
H3081 H 0.13471 0.17598 0.0397 0.0
H3082 H 0.12692 0.18113 0.07737 0.0
H3083 H 0.05967 0.18972 0.10287 0.0
H3084 H 0.08023 0.16546 0.21029 0.0
H3085 H 0.07185 0.17628 0.17388 0.0
H3086 H 0.10991 0.13247 0.13126 0.0
C3087 C 0.11325 0.17968 0.06643 0.0
C3088 C 0.07068 0.17724 0.10904 0.0
C3089 C 0.11772 0.1772 0.04476 0.0
C3090 C 0.08036 0.15295 0.19807 0.0
C3091 C 0.07576 0.15921 0.17709 0.0
C3092 C 0.09854 0.14474 0.12532 0.0
C3093 C 0.09174 0.17677 0.07419 0.0
C3094 C 0.0883 0.16958 0.09659 0.0
C3095 C 0.07909 0.14432 0.16032 0.0
C3096 C 0.08113 0.15242 0.13799 0.0
H3097 H 0.06549 0.1691 0.02722 0.0
H3098 H 0.05761 0.1736 0.06495 0.0
H3099 H 0.1154 0.14639 0.09564 0.0
H3100 H 0.09593 0.09996 0.18927 0.0
H3101 H 0.08643 0.11026 0.15284 0.0
C3102 C 0.13482 0.84125 0.44246 0.0
C3103 C 0.11975 0.83502 0.4582 0.0
C3104 C 0.13122 0.8354 0.42137 0.0
C3105 C 0.08252 0.83123 0.38952 0.0
H3106 H 0.12518 0.83028 0.34369 0.0
C3107 C 0.08462 0.84042 0.29425 0.0
C3108 C 0.09465 0.86077 0.28983 0.0
C3109 C 0.0809 0.83391 0.31521 0.0
C3110 C 0.11309 0.83029 0.35637 0.0
H3111 H 0.09111 0.81518 0.46519 0.0
H3112 H 0.08475 0.80477 0.42812 0.0
H3113 H 0.13616 0.8184 0.37927 0.0
H3114 H 0.10509 0.89176 0.30362 0.0
H3115 H 0.09879 0.88013 0.34032 0.0
H3116 H 0.05978 0.8441 0.36643 0.0
C3117 C 0.09917 0.8144 0.432 0.0
C3118 C 0.11931 0.82346 0.37663 0.0
C3119 C 0.10299 0.82006 0.45322 0.0
C3120 C 0.09778 0.87578 0.30652 0.0
C3121 C 0.09403 0.86925 0.3275 0.0
C3122 C 0.07629 0.83805 0.36914 0.0
C3123 C 0.11236 0.82338 0.41578 0.0
C3124 C 0.10434 0.82462 0.3936 0.0
C3125 C 0.08691 0.84779 0.33189 0.0
C3126 C 0.09179 0.8382 0.35272 0.0
H3127 H 0.14777 0.8529 0.44603 0.0
H3128 H 0.14172 0.84262 0.40931 0.0
H3129 H 0.0707 0.83265 0.40233 0.0
H3130 H 0.08165 0.82859 0.28187 0.0
H3131 H 0.07544 0.81727 0.31841 0.0
C3132 C 0.41969 0.8277 0.70803 0.0
C3133 C 0.41468 0.84964 0.71292 0.0
C3134 C 0.42582 0.82201 0.68732 0.0
C3135 C 0.43844 0.84368 0.63356 0.0
H3136 H 0.38923 0.80762 0.61557 0.0
C3137 C 0.41474 0.84004 0.54628 0.0
C3138 C 0.39298 0.84701 0.54299 0.0
C3139 C 0.42153 0.83276 0.56624 0.0
C3140 C 0.40325 0.8174 0.62035 0.0
H3141 H 0.41464 0.88309 0.70126 0.0
H3142 H 0.42627 0.87342 0.66541 0.0
H3143 H 0.39849 0.80995 0.6533 0.0
H3144 H 0.36085 0.85022 0.55759 0.0
H3145 H 0.37283 0.83781 0.59269 0.0
H3146 H 0.44228 0.85233 0.60081 0.0
C3147 C 0.42539 0.86053 0.67732 0.0
C3148 C 0.40873 0.81856 0.64189 0.0
C3149 C 0.41891 0.86614 0.69789 0.0
C3150 C 0.37776 0.84509 0.5597 0.0
C3151 C 0.38457 0.83779 0.57972 0.0
C3152 C 0.43312 0.84234 0.61202 0.0
C3153 C 0.42731 0.8383 0.6715 0.0
C3154 C 0.42582 0.83241 0.64875 0.0
C3155 C 0.40674 0.83241 0.58334 0.0
C3156 C 0.41495 0.82987 0.60533 0.0
H3157 H 0.41606 0.81469 0.71932 0.0
H3158 H 0.42732 0.80478 0.68322 0.0
H3159 H 0.45158 0.85455 0.63847 0.0
H3160 H 0.42698 0.84157 0.53391 0.0
H3161 H 0.43866 0.82855 0.56858 0.0
C3162 C 0.39557 0.12201 0.7987 0.0
C3163 C 0.39093 0.13937 0.78481 0.0
C3164 C 0.40399 0.12648 0.81892 0.0
C3165 C 0.39852 0.16993 0.85787 0.0
H3166 H 0.43382 0.13037 0.89206 0.0
C3167 C 0.37979 0.14813 0.94423 0.0
C3168 C 0.39704 0.1413 0.95733 0.0
C3169 C 0.38424 0.15515 0.92348 0.0
C3170 C 0.42432 0.14197 0.88275 0.0
H3171 H 0.39269 0.17456 0.77986 0.0
H3172 H 0.40791 0.1824 0.81495 0.0
H3173 H 0.43492 0.12748 0.85349 0.0
H3174 H 0.43232 0.13826 0.96049 0.0
H3175 H 0.44022 0.15103 0.9244 0.0
H3176 H 0.38722 0.18381 0.88718 0.0
C3177 C 0.40487 0.16545 0.81055 0.0
C3178 C 0.42481 0.14012 0.86066 0.0
C3179 C 0.39635 0.16098 0.79049 0.0
C3180 C 0.41882 0.14334 0.95035 0.0
C3181 C 0.42331 0.15055 0.92977 0.0
C3182 C 0.39803 0.17177 0.87998 0.0
C3183 C 0.40778 0.14837 0.82532 0.0
C3184 C 0.41123 0.15347 0.84806 0.0
C3185 C 0.40601 0.15546 0.91578 0.0
C3186 C 0.41023 0.1572 0.89265 0.0
H3187 H 0.39122 0.10529 0.79456 0.0
H3188 H 0.40588 0.11299 0.83005 0.0
H3189 H 0.38775 0.18039 0.84859 0.0
H3190 H 0.36289 0.14654 0.94947 0.0
H3191 H 0.37054 0.15866 0.91302 0.0
C3192 C 0.91563 0.82603 0.95129 0.0
C3193 C 0.89373 0.82599 0.95844 0.0
C3194 C 0.92032 0.82392 0.92955 0.0
C3195 C 0.89758 0.8115 0.87624 0.0
H3196 H 0.92398 0.86692 0.85909 0.0
C3197 C 0.90546 0.83625 0.78808 0.0
C3198 C 0.8937 0.85544 0.78327 0.0
C3199 C 0.91084 0.83097 0.8091 0.0
C3200 C 0.91682 0.85129 0.86364 0.0
H3201 H 0.86001 0.82055 0.94912 0.0
H3202 H 0.86825 0.81531 0.91149 0.0
H3203 H 0.92378 0.85622 0.89672 0.0
H3204 H 0.87914 0.88483 0.79652 0.0
H3205 H 0.88975 0.87635 0.8334 0.0
H3206 H 0.89014 0.80685 0.84322 0.0
C3207 C 0.88177 0.81758 0.92246 0.0
C3208 C 0.91687 0.84504 0.88512 0.0
C3209 C 0.87704 0.82026 0.94409 0.0
C3210 C 0.88868 0.87015 0.79976 0.0
C3211 C 0.89463 0.86521 0.82083 0.0
C3212 C 0.89794 0.81753 0.85472 0.0
C3213 C 0.90322 0.82099 0.91479 0.0
C3214 C 0.90677 0.82533 0.89172 0.0
C3215 C 0.90493 0.8451 0.82578 0.0
C3216 C 0.90709 0.83773 0.84826 0.0
H3217 H 0.92877 0.8308 0.96196 0.0
H3218 H 0.93703 0.82637 0.9241 0.0
H3219 H 0.88956 0.79632 0.88087 0.0
H3220 H 0.90872 0.82441 0.77578 0.0
H3221 H 0.91871 0.81535 0.81242 0.0
C3222 C 0.87452 0.16738 0.54914 0.0
C3223 C 0.89164 0.16187 0.53515 0.0
C3224 C 0.87892 0.17129 0.57061 0.0
C3225 C 0.91336 0.14517 0.60804 0.0
H3226 H 0.88617 0.18349 0.64966 0.0
C3227 C 0.87959 0.12145 0.69199 0.0
C3228 C 0.88793 0.13396 0.70886 0.0
C3229 C 0.88558 0.12648 0.67098 0.0
C3230 C 0.89404 0.1728 0.63818 0.0
H3231 H 0.92689 0.15867 0.53187 0.0
H3232 H 0.93457 0.16508 0.56956 0.0
H3233 H 0.88683 0.19441 0.61202 0.0
H3234 H 0.90905 0.16112 0.71714 0.0
H3235 H 0.91855 0.1707 0.68054 0.0
H3236 H 0.91906 0.12282 0.63399 0.0
C3237 C 0.91783 0.16659 0.56391 0.0
C3238 C 0.89447 0.17907 0.61675 0.0
C3239 C 0.91345 0.16325 0.5423 0.0
C3240 C 0.90275 0.15106 0.70447 0.0
C3241 C 0.90808 0.15661 0.68354 0.0
C3242 C 0.91247 0.13868 0.62939 0.0
C3243 C 0.90045 0.16926 0.57842 0.0
C3244 C 0.9038 0.16513 0.60143 0.0
C3245 C 0.89925 0.1446 0.66662 0.0
C3246 C 0.90244 0.15228 0.64452 0.0
H3247 H 0.85757 0.16601 0.54405 0.0
H3248 H 0.86521 0.17326 0.58146 0.0
H3249 H 0.92034 0.13395 0.5965 0.0
H3250 H 0.86797 0.10832 0.69501 0.0
H3251 H 0.87853 0.11705 0.65807 0.0
C3252 C 0.61856 0.16242 0.44436 0.0
C3253 C 0.60164 0.15992 0.45932 0.0
C3254 C 0.61361 0.16712 0.42315 0.0
C3255 C 0.5721 0.14942 0.38721 0.0
H3256 H 0.60654 0.18111 0.34526 0.0
C3257 C 0.59514 0.11687 0.30391 0.0
C3258 C 0.59615 0.13206 0.28716 0.0
C3259 C 0.58919 0.12389 0.32434 0.0
C3260 C 0.59646 0.1724 0.35673 0.0
H3261 H 0.56657 0.16235 0.46457 0.0
H3262 H 0.55783 0.1703 0.42731 0.0
H3263 H 0.60921 0.19119 0.38277 0.0
H3264 H 0.592 0.16613 0.27824 0.0
H3265 H 0.58121 0.17839 0.3137 0.0
H3266 H 0.56045 0.12969 0.36131 0.0
C3267 C 0.57489 0.16887 0.432 0.0
C3268 C 0.59805 0.17816 0.37818 0.0
C3269 C 0.57992 0.16466 0.45335 0.0
C3270 C 0.59026 0.15403 0.2908 0.0
C3271 C 0.58453 0.16109 0.31114 0.0
C3272 C 0.57074 0.14345 0.36578 0.0
C3273 C 0.59162 0.16889 0.41656 0.0
C3274 C 0.58633 0.16635 0.39369 0.0
C3275 C 0.58472 0.14626 0.32828 0.0
C3276 C 0.58334 0.15453 0.35041 0.0
H3277 H 0.63535 0.15839 0.44858 0.0
H3278 H 0.62683 0.16693 0.41159 0.0
H3279 H 0.56312 0.1398 0.39886 0.0
H3280 H 0.60033 0.10002 0.30151 0.0
H3281 H 0.58975 0.11216 0.33733 0.0
C3282 C 0.5726 0.82742 0.20708 0.0
C3283 C 0.57481 0.84839 0.21613 0.0
C3284 C 0.56939 0.82535 0.18518 0.0
C3285 C 0.58898 0.85916 0.14174 0.0
H3286 H 0.57046 0.81107 0.10564 0.0
C3287 C 0.62095 0.85452 0.05706 0.0
C3288 C 0.60401 0.85293 0.04197 0.0
C3289 C 0.61705 0.84882 0.07829 0.0
C3290 C 0.57577 0.82457 0.1156 0.0
H3291 H 0.56998 0.88317 0.21097 0.0
H3292 H 0.56264 0.8796 0.17305 0.0
H3293 H 0.55688 0.81319 0.1423 0.0
H3294 H 0.57022 0.84286 0.03719 0.0
H3295 H 0.56351 0.83288 0.07378 0.0
H3296 H 0.6075 0.87085 0.11523 0.0
C3297 C 0.56484 0.86479 0.18243 0.0
C3298 C 0.56794 0.82582 0.13651 0.0
C3299 C 0.56849 0.86684 0.20426 0.0
C3300 C 0.58373 0.84399 0.04821 0.0
C3301 C 0.57985 0.83824 0.06933 0.0
C3302 C 0.59675 0.85792 0.12097 0.0
C3303 C 0.5677 0.84428 0.17244 0.0
C3304 C 0.57422 0.84336 0.14971 0.0
C3305 C 0.59613 0.84152 0.08476 0.0
C3306 C 0.5901 0.84076 0.10758 0.0
H3307 H 0.57732 0.81293 0.21608 0.0
H3308 H 0.57129 0.80925 0.17809 0.0
H3309 H 0.59487 0.87245 0.15165 0.0
H3310 H 0.63688 0.86107 0.05269 0.0
H3311 H 0.63007 0.85114 0.08981 0.0
C3312 C 0.60475 0.66755 0.54332 0.0
C3313 C 0.61876 0.64936 0.54097 0.0
C3314 C 0.59896 0.67486 0.56368 0.0
C3315 C 0.61189 0.67015 0.62094 0.0
H3316 H 0.54885 0.66443 0.62916 0.0
C3317 C 0.57278 0.63729 0.69521 0.0
C3318 C 0.57711 0.65423 0.70986 0.0
C3319 C 0.57049 0.64208 0.67359 0.0
C3320 C 0.56639 0.66651 0.62697 0.0
H3321 H 0.63965 0.62618 0.55753 0.0
H3322 H 0.63041 0.6395 0.59293 0.0
H3323 H 0.56417 0.66523 0.59293 0.0
H3324 H 0.57843 0.68954 0.71402 0.0
H3325 H 0.57485 0.69784 0.67606 0.0
H3326 H 0.6142 0.67045 0.65491 0.0
C3327 C 0.62354 0.64792 0.57925 0.0
C3328 C 0.57517 0.66707 0.60635 0.0
C3329 C 0.62894 0.64033 0.559 0.0
C3330 C 0.57534 0.67617 0.70307 0.0
C3331 C 0.57332 0.68094 0.68135 0.0
C3332 C 0.60312 0.66994 0.64143 0.0
C3333 C 0.60758 0.66441 0.58182 0.0
C3334 C 0.59807 0.6683 0.60319 0.0
C3335 C 0.57245 0.66384 0.66644 0.0
C3336 C 0.5804 0.66768 0.64461 0.0
H3337 H 0.59655 0.6746 0.52962 0.0
H3338 H 0.5868 0.68777 0.56526 0.0
H3339 H 0.62956 0.67095 0.61898 0.0
H3340 H 0.5738 0.62019 0.70006 0.0
H3341 H 0.56991 0.62864 0.66231 0.0
C3342 C 0.5937 0.36905 0.8043 0.0
C3343 C 0.59529 0.3532 0.78818 0.0
C3344 C 0.58624 0.36303 0.82448 0.0
C3345 C 0.59083 0.31591 0.85822 0.0
H3346 H 0.55875 0.35242 0.89796 0.0
C3347 C 0.61582 0.33671 0.94209 0.0
C3348 C 0.59937 0.34291 0.95652 0.0
C3349 C 0.61005 0.32784 0.92246 0.0
C3350 C 0.56723 0.34158 0.88703 0.0
H3351 H 0.58883 0.31907 0.78021 0.0
H3352 H 0.57559 0.30882 0.81515 0.0
H3353 H 0.55563 0.3596 0.86001 0.0
H3354 H 0.56436 0.34261 0.9629 0.0
H3355 H 0.55438 0.32662 0.92894 0.0
H3356 H 0.6038 0.29902 0.8854 0.0
C3357 C 0.5802 0.32578 0.8122 0.0
C3358 C 0.56559 0.34589 0.86536 0.0
C3359 C 0.58763 0.33176 0.7921 0.0
C3360 C 0.57738 0.3377 0.9522 0.0
C3361 C 0.57163 0.32869 0.93269 0.0
C3362 C 0.59264 0.31172 0.87995 0.0
C3363 C 0.58036 0.3411 0.82875 0.0
C3364 C 0.57801 0.33361 0.85088 0.0
C3365 C 0.58777 0.32526 0.91712 0.0
C3366 C 0.58148 0.32507 0.89454 0.0
H3367 H 0.59935 0.38573 0.80169 0.0
H3368 H 0.58664 0.37514 0.8371 0.0
H3369 H 0.60077 0.30637 0.8473 0.0
H3370 H 0.63295 0.34022 0.94532 0.0
H3371 H 0.62285 0.32528 0.91073 0.0
C3372 C 0.89475 0.32015 0.04028 0.0
C3373 C 0.87662 0.33325 0.03484 0.0
C3374 C 0.8995 0.31598 0.06172 0.0
C3375 C 0.88943 0.34723 0.11024 0.0
H3376 H 0.92377 0.30239 0.13885 0.0
C3377 C 0.91157 0.36339 0.19434 0.0
C3378 C 0.90438 0.34638 0.20772 0.0
C3379 C 0.91656 0.35904 0.1731 0.0
C3380 C 0.91426 0.31509 0.13102 0.0
H3381 H 0.84662 0.3479 0.04658 0.0
H3382 H 0.85364 0.33884 0.08368 0.0
H3383 H 0.91059 0.29598 0.10252 0.0
H3384 H 0.90004 0.31121 0.2107 0.0
H3385 H 0.90763 0.30365 0.17343 0.0
H3386 H 0.89206 0.36607 0.13848 0.0
C3387 C 0.86519 0.33321 0.07175 0.0
C3388 C 0.9067 0.3114 0.11023 0.0
C3389 C 0.86085 0.33795 0.05045 0.0
C3390 C 0.90546 0.32459 0.20055 0.0
C3391 C 0.90981 0.32029 0.17911 0.0
C3392 C 0.89684 0.35087 0.13083 0.0
C3393 C 0.88558 0.32419 0.07772 0.0
C3394 C 0.89374 0.32727 0.09982 0.0
C3395 C 0.91353 0.33776 0.16481 0.0
C3396 C 0.90911 0.33478 0.14169 0.0
H3397 H 0.90689 0.31608 0.02834 0.0
H3398 H 0.91517 0.30859 0.06571 0.0
H3399 H 0.8802 0.36021 0.1025 0.0
H3400 H 0.91114 0.38032 0.19969 0.0
H3401 H 0.92039 0.37276 0.1627 0.0
C3402 C 0.87422 0.67166 0.4467 0.0
C3403 C 0.89167 0.66756 0.46068 0.0
C3404 C 0.87831 0.67458 0.425 0.0
C3405 C 0.92034 0.67711 0.38218 0.0
H3406 H 0.88402 0.631 0.3582 0.0
C3407 C 0.90711 0.66168 0.29267 0.0
C3408 C 0.9011 0.64052 0.28602 0.0
C3409 C 0.91258 0.66566 0.31387 0.0
C3410 C 0.89461 0.64364 0.36465 0.0
H3411 H 0.92706 0.66702 0.46378 0.0
H3412 H 0.93427 0.67245 0.42599 0.0
H3413 H 0.87862 0.64198 0.39481 0.0
H3414 H 0.89747 0.60661 0.29572 0.0
H3415 H 0.9078 0.61326 0.3328 0.0
H3416 H 0.93631 0.67865 0.3517 0.0
C3417 C 0.91745 0.67325 0.43159 0.0
C3418 C 0.89115 0.65031 0.38556 0.0
C3419 C 0.91331 0.67049 0.45336 0.0
C3420 C 0.90257 0.62296 0.30041 0.0
C3421 C 0.90814 0.62689 0.32167 0.0
C3422 C 0.92372 0.67053 0.36103 0.0
C3423 C 0.89991 0.67337 0.41709 0.0
C3424 C 0.90368 0.66735 0.39449 0.0
C3425 C 0.91186 0.64851 0.32889 0.0
C3426 C 0.91074 0.6538 0.35199 0.0
H3427 H 0.85741 0.6693 0.45193 0.0
H3428 H 0.86448 0.67523 0.41418 0.0
H3429 H 0.93047 0.69005 0.38879 0.0
H3430 H 0.90514 0.67558 0.28203 0.0
H3431 H 0.91509 0.68251 0.31884 0.0
C3432 C 0.4138 0.33673 0.45388 0.0
C3433 C 0.39234 0.33859 0.46188 0.0
C3434 C 0.41738 0.33099 0.43271 0.0
C3435 C 0.39091 0.31187 0.38335 0.0
H3436 H 0.42395 0.35906 0.35655 0.0
C3437 C 0.39045 0.32151 0.29337 0.0
C3438 C 0.38512 0.34272 0.28612 0.0
C3439 C 0.3974 0.31811 0.31418 0.0
C3440 C 0.41484 0.3457 0.36381 0.0
H3441 H 0.35783 0.33509 0.45452 0.0
H3442 H 0.36398 0.3247 0.41746 0.0
H3443 H 0.42424 0.35523 0.39524 0.0
H3444 H 0.38356 0.37717 0.29478 0.0
H3445 H 0.39485 0.37111 0.33168 0.0
H3446 H 0.38042 0.30309 0.35216 0.0
C3447 C 0.37809 0.32726 0.42764 0.0
C3448 C 0.4152 0.34332 0.38591 0.0
C3449 C 0.37453 0.33313 0.44883 0.0
C3450 C 0.38744 0.36062 0.29999 0.0
C3451 C 0.39419 0.35717 0.321 0.0
C3452 C 0.39063 0.31417 0.3613 0.0
C3453 C 0.3995 0.3272 0.41918 0.0
C3454 C 0.40267 0.3268 0.39589 0.0
C3455 C 0.39869 0.33577 0.32841 0.0
C3456 C 0.40203 0.33151 0.35136 0.0
H3457 H 0.42772 0.34207 0.46318 0.0
H3458 H 0.43402 0.33111 0.42654 0.0
H3459 H 0.38119 0.29899 0.39068 0.0
H3460 H 0.38848 0.30731 0.28324 0.0
H3461 H 0.40101 0.30149 0.31935 0.0
C3462 C 0.41371 0.66953 0.20418 0.0
C3463 C 0.4129 0.6479 0.21199 0.0
C3464 C 0.41756 0.67334 0.18251 0.0
C3465 C 0.40217 0.64204 0.13612 0.0
H3466 H 0.42052 0.69305 0.10351 0.0
C3467 C 0.36838 0.65157 0.05389 0.0
C3468 C 0.38456 0.65381 0.0382 0.0
C3469 C 0.37299 0.65724 0.07491 0.0
C3470 C 0.4153 0.67874 0.11248 0.0
H3471 H 0.41942 0.61381 0.20469 0.0
H3472 H 0.42769 0.62051 0.1673 0.0
H3473 H 0.43283 0.68869 0.14056 0.0
H3474 H 0.41741 0.66549 0.0314 0.0
H3475 H 0.4258 0.67485 0.06832 0.0
H3476 H 0.38482 0.63183 0.10852 0.0
C3477 C 0.4243 0.63447 0.17747 0.0
C3478 C 0.42239 0.67622 0.13362 0.0
C3479 C 0.41992 0.63062 0.19894 0.0
C3480 C 0.40457 0.66398 0.04329 0.0
C3481 C 0.4094 0.66924 0.06445 0.0
C3482 C 0.39508 0.64459 0.11526 0.0
C3483 C 0.42101 0.65553 0.16867 0.0
C3484 C 0.41589 0.65777 0.14564 0.0
C3485 C 0.39414 0.66451 0.08064 0.0
C3486 C 0.40131 0.66303 0.1032 0.0
H3487 H 0.40824 0.6831 0.21402 0.0
H3488 H 0.41514 0.6898 0.1763 0.0
H3489 H 0.39631 0.6279 0.14498 0.0
H3490 H 0.35292 0.64358 0.05028 0.0
H3491 H 0.36066 0.65402 0.08697 0.0
C3492 C 0.12251 0.65153 0.95073 0.0
C3493 C 0.10493 0.64489 0.96366 0.0
C3494 C 0.11846 0.6587 0.92981 0.0
C3495 C 0.07661 0.64821 0.88901 0.0
H3496 H 0.11178 0.68742 0.85425 0.0
C3497 C 0.09386 0.63368 0.80168 0.0
C3498 C 0.09594 0.65151 0.78763 0.0
C3499 C 0.08936 0.63724 0.82308 0.0
C3500 C 0.10147 0.67679 0.86386 0.0
H3501 H 0.06968 0.64073 0.96512 0.0
H3502 H 0.06245 0.65532 0.93021 0.0
H3503 H 0.11637 0.68752 0.89298 0.0
H3504 H 0.09339 0.68692 0.78442 0.0
H3505 H 0.08574 0.69323 0.8223 0.0
H3506 H 0.06215 0.63705 0.86003 0.0
C3507 C 0.07933 0.65456 0.93561 0.0
C3508 C 0.10433 0.67663 0.88596 0.0
C3509 C 0.08343 0.64673 0.95595 0.0
C3510 C 0.09184 0.67291 0.795 0.0
C3511 C 0.08766 0.67653 0.81662 0.0
C3512 C 0.07374 0.64843 0.86706 0.0
C3513 C 0.09678 0.65944 0.92183 0.0
C3514 C 0.09229 0.66194 0.89873 0.0
C3515 C 0.08708 0.65873 0.83093 0.0
C3516 C 0.08662 0.66218 0.8542 0.0
H3517 H 0.13928 0.6497 0.95622 0.0
H3518 H 0.13231 0.66217 0.91951 0.0
H3519 H 0.06726 0.63638 0.89821 0.0
H3520 H 0.09684 0.61702 0.79631 0.0
H3521 H 0.08915 0.6232 0.83373 0.0
C3522 C 0.11862 0.341 0.55535 0.0
C3523 C 0.10208 0.34302 0.53991 0.0
C3524 C 0.1132 0.33569 0.57632 0.0
C3525 C 0.06933 0.34878 0.61178 0.0
H3526 H 0.10368 0.31614 0.65304 0.0
C3527 C 0.08806 0.3762 0.69748 0.0
C3528 C 0.08953 0.35987 0.71319 0.0
C3529 C 0.08255 0.37051 0.67658 0.0
C3530 C 0.09362 0.32505 0.64171 0.0
H3531 H 0.06722 0.33878 0.53379 0.0
H3532 H 0.0578 0.32985 0.57049 0.0
H3533 H 0.10878 0.30905 0.6151 0.0
H3534 H 0.08717 0.3251 0.7194 0.0
H3535 H 0.07642 0.31516 0.68345 0.0
H3536 H 0.05519 0.36578 0.63833 0.0
C3537 C 0.07489 0.33245 0.56636 0.0
C3538 C 0.09664 0.32104 0.62004 0.0
C3539 C 0.08035 0.33749 0.54533 0.0
C3540 C 0.08432 0.3381 0.708 0.0
C3541 C 0.0789 0.33235 0.68723 0.0
C3542 C 0.06653 0.35301 0.63344 0.0
C3543 C 0.09113 0.33255 0.58218 0.0
C3544 C 0.08493 0.33328 0.60489 0.0
C3545 C 0.07896 0.34834 0.67114 0.0
C3546 C 0.07904 0.34156 0.64856 0.0
H3547 H 0.13555 0.34493 0.55156 0.0
H3548 H 0.12604 0.33589 0.58824 0.0
H3549 H 0.0603 0.35867 0.60039 0.0
H3550 H 0.09302 0.39292 0.70094 0.0
H3551 H 0.08307 0.38311 0.66437 0.0
loop_
_geom_bond_atom_site_label_1
_geom_bond_atom_site_label_2
_geom_bond_distance
_geom_bond_site_symmetry_2
_ccdc_geom_bond_type
Zn0 O6 1.920 . S
Zn0 O12 1.898 . S
Zn0 O15 1.905 . S
Zn1 O9 1.905 . S
Zn1 O10 1.898 . S
Zn1 O18 1.920 . S
Zn2 O5 2.080 . S
Zn2 O8 2.114 . S
Zn2 O11 2.120 . S
Zn2 O13 2.120 . S
Zn2 O14 2.114 . S
Zn2 O17 2.080 . S
C3 O8 1.166 . S
C3 O9 1.182 . S
C4 O10 1.167 . S
C4 O11 1.299 . S
O5 Zn2 2.080 . S
O5 C19 1.305 . S
O6 Zn0 1.920 . S
O6 C19 1.234 . S
C7 O12 1.167 . S
C7 O13 1.299 . S
O8 Zn2 2.114 . S
O8 C3 1.166 . S
O9 Zn1 1.905 . S
O9 C3 1.182 . S
O10 Zn1 1.898 . S
O10 C4 1.167 . S
O11 Zn2 2.120 . S
O11 C4 1.299 . S
O12 Zn0 1.898 . S
O12 C7 1.167 . S
O13 Zn2 2.120 . S
O13 C7 1.299 . S
O14 Zn2 2.114 . S
O14 C16 1.166 . S
O15 Zn0 1.905 . S
O15 C16 1.182 . S
C16 O14 1.166 . S
C16 O15 1.182 . S
O17 Zn2 2.080 . S
O17 C20 1.305 . S
O18 Zn1 1.920 . S
O18 C20 1.234 . S
C19 O5 1.305 . S
C19 O6 1.234 . S
C20 O17 1.305 . S
C20 O18 1.234 . S
Zn21 O27 1.920 . S
Zn21 O33 1.898 . S
Zn21 O36 1.905 . S
Zn22 O30 1.905 . S
Zn22 O31 1.898 . S
Zn22 O39 1.920 . S
Zn23 O26 2.080 . S
Zn23 O29 2.114 . S
Zn23 O32 2.120 . S
Zn23 O34 2.120 . S
Zn23 O35 2.114 . S
Zn23 O38 2.080 . S
C24 O29 1.166 . S
C24 O30 1.182 . S
C25 O31 1.167 . S
C25 O32 1.299 . S
O26 Zn23 2.080 . S
O26 C40 1.305 . S
O27 Zn21 1.920 . S
O27 C40 1.234 . S
C28 O33 1.167 . S
C28 O34 1.299 . S
O29 Zn23 2.114 . S
O29 C24 1.166 . S
O30 Zn22 1.905 . S
O30 C24 1.182 . S
O31 Zn22 1.898 . S
O31 C25 1.167 . S
O32 Zn23 2.120 . S
O32 C25 1.299 . S
O33 Zn21 1.898 . S
O33 C28 1.167 . S
O34 Zn23 2.120 . S
O34 C28 1.299 . S
O35 Zn23 2.114 . S
O35 C37 1.166 . S
O36 Zn21 1.905 . S
O36 C37 1.182 . S
C37 O35 1.166 . S
C37 O36 1.182 . S
O38 Zn23 2.080 . S
O38 C41 1.305 . S
O39 Zn22 1.920 . S
O39 C41 1.234 . S
C40 O26 1.305 . S
C40 O27 1.234 . S
C41 O38 1.305 . S
C41 O39 1.234 . S
Zn42 O48 1.920 . S
Zn42 O54 1.898 . S
Zn42 O57 1.905 . S
Zn43 O51 1.905 . S
Zn43 O52 1.898 . S
Zn43 O60 1.920 . S
Zn44 O47 2.080 . S
Zn44 O50 2.114 . S
Zn44 O53 2.120 . S
Zn44 O55 2.120 . S
Zn44 O56 2.114 . S
Zn44 O59 2.080 . S
C45 O50 1.166 . S
C45 O51 1.182 . S
C46 O52 1.167 . S
C46 O53 1.299 . S
O47 Zn44 2.080 . S
O47 C61 1.305 . S
O48 Zn42 1.920 . S
O48 C61 1.234 . S
C49 O54 1.167 . S
C49 O55 1.299 . S
O50 Zn44 2.114 . S
O50 C45 1.166 . S
O51 Zn43 1.905 . S
O51 C45 1.182 . S
O52 Zn43 1.898 . S
O52 C46 1.167 . S
O53 Zn44 2.120 . S
O53 C46 1.299 . S
O54 Zn42 1.898 . S
O54 C49 1.167 . S
O55 Zn44 2.120 . S
O55 C49 1.299 . S
O56 Zn44 2.114 . S
O56 C58 1.166 . S
O57 Zn42 1.905 . S
O57 C58 1.182 . S
C58 O56 1.166 . S
C58 O57 1.182 . S
O59 Zn44 2.080 . S
O59 C62 1.305 . S
O60 Zn43 1.920 . S
O60 C62 1.234 . S
C61 O47 1.305 . S
C61 O48 1.234 . S
C62 O59 1.305 . S
C62 O60 1.234 . S
Zn63 O69 1.920 . S
Zn63 O75 1.898 1_556 S
Zn63 O78 1.905 . S
Zn64 O72 1.905 . S
Zn64 O73 1.898 . S
Zn64 O81 1.920 . S
Zn65 O68 2.080 . S
Zn65 O71 2.114 . S
Zn65 O74 2.120 . S
Zn65 O76 2.120 . S
Zn65 O77 2.114 1_554 S
Zn65 O80 2.080 . S
C66 O71 1.166 . S
C66 O72 1.182 . S
C67 O73 1.167 . S
C67 O74 1.299 . S
O68 Zn65 2.080 . S
O68 C82 1.305 . S
O69 Zn63 1.920 . S
O69 C82 1.234 1_556 S
C70 O75 1.167 . S
C70 O76 1.299 . S
O71 Zn65 2.114 . S
O71 C66 1.166 . S
O72 Zn64 1.905 . S
O72 C66 1.182 . S
O73 Zn64 1.898 . S
O73 C67 1.167 . S
O74 Zn65 2.120 . S
O74 C67 1.299 . S
O75 Zn63 1.898 1_554 S
O75 C70 1.167 . S
O76 Zn65 2.120 . S
O76 C70 1.299 . S
O77 Zn65 2.114 1_556 S
O77 C79 1.166 . S
O78 Zn63 1.905 . S
O78 C79 1.182 . S
C79 O77 1.166 . S
C79 O78 1.182 . S
O80 Zn65 2.080 . S
O80 C83 1.305 . S
O81 Zn64 1.920 . S
O81 C83 1.234 . S
C82 O68 1.305 . S
C82 O69 1.234 1_554 S
C83 O80 1.305 . S
C83 O81 1.234 . S
Zn84 O90 1.920 . S
Zn84 O96 1.898 . S
Zn84 O99 1.905 . S
Zn85 O93 1.905 . S
Zn85 O94 1.898 . S
Zn85 O102 1.920 . S
Zn86 O89 2.080 . S
Zn86 O92 2.114 . S
Zn86 O95 2.120 . S
Zn86 O97 2.120 . S
Zn86 O98 2.114 . S
Zn86 O101 2.080 . S
C87 O92 1.166 . S
C87 O93 1.182 . S
C88 O94 1.167 . S
C88 O95 1.299 . S
O89 Zn86 2.080 . S
O89 C103 1.305 . S
O90 Zn84 1.920 . S
O90 C103 1.234 . S
C91 O96 1.167 . S
C91 O97 1.299 . S
O92 Zn86 2.114 . S
O92 C87 1.166 . S
O93 Zn85 1.905 . S
O93 C87 1.182 . S
O94 Zn85 1.898 . S
O94 C88 1.167 . S
O95 Zn86 2.120 . S
O95 C88 1.299 . S
O96 Zn84 1.898 . S
O96 C91 1.167 . S
O97 Zn86 2.120 . S
O97 C91 1.299 . S
O98 Zn86 2.114 . S
O98 C100 1.166 . S
O99 Zn84 1.905 . S
O99 C100 1.182 . S
C100 O98 1.166 . S
C100 O99 1.182 . S
O101 Zn86 2.080 . S
O101 C104 1.305 . S
O102 Zn85 1.920 . S
O102 C104 1.234 . S
C103 O89 1.305 . S
C103 O90 1.234 . S
C104 O101 1.305 . S
C104 O102 1.234 . S
Zn105 O111 1.920 . S
Zn105 O117 1.898 . S
Zn105 O120 1.905 . S
Zn106 O114 1.905 . S
Zn106 O115 1.898 . S
Zn106 O123 1.920 . S
Zn107 O110 2.080 . S
Zn107 O113 2.114 . S
Zn107 O116 2.120 . S
Zn107 O118 2.120 . S
Zn107 O119 2.114 . S
Zn107 O122 2.080 . S
C108 O113 1.166 . S
C108 O114 1.182 . S
C109 O115 1.167 . S
C109 O116 1.299 . S
O110 Zn107 2.080 . S
O110 C124 1.305 . S
O111 Zn105 1.920 . S
O111 C124 1.234 . S
C112 O117 1.167 . S
C112 O118 1.299 . S
O113 Zn107 2.114 . S
O113 C108 1.166 . S
O114 Zn106 1.905 . S
O114 C108 1.182 . S
O115 Zn106 1.898 . S
O115 C109 1.167 . S
O116 Zn107 2.120 . S
O116 C109 1.299 . S
O117 Zn105 1.898 . S
O117 C112 1.167 . S
O118 Zn107 2.120 . S
O118 C112 1.299 . S
O119 Zn107 2.114 . S
O119 C121 1.166 . S
O120 Zn105 1.905 . S
O120 C121 1.182 . S
C121 O119 1.166 . S
C121 O120 1.182 . S
O122 Zn107 2.080 . S
O122 C125 1.305 . S
O123 Zn106 1.920 . S
O123 C125 1.234 . S
C124 O110 1.305 . S
C124 O111 1.234 . S
C125 O122 1.305 . S
C125 O123 1.234 . S
Zn126 O132 1.920 . S
Zn126 O138 1.898 . S
Zn126 O141 1.905 . S
Zn127 O135 1.905 . S
Zn127 O136 1.898 . S
Zn127 O144 1.920 . S
Zn128 O131 2.080 . S
Zn128 O134 2.114 . S
Zn128 O137 2.120 . S
Zn128 O139 2.120 . S
Zn128 O140 2.114 . S
Zn128 O143 2.080 . S
C129 O134 1.166 . S
C129 O135 1.182 . S
C130 O136 1.167 . S
C130 O137 1.299 . S
O131 Zn128 2.080 . S
O131 C145 1.305 . S
O132 Zn126 1.920 . S
O132 C145 1.234 . S
C133 O138 1.167 . S
C133 O139 1.299 . S
O134 Zn128 2.114 . S
O134 C129 1.166 . S
O135 Zn127 1.905 . S
O135 C129 1.182 . S
O136 Zn127 1.898 . S
O136 C130 1.167 . S
O137 Zn128 2.120 . S
O137 C130 1.299 . S
O138 Zn126 1.898 . S
O138 C133 1.167 . S
O139 Zn128 2.120 . S
O139 C133 1.299 . S
O140 Zn128 2.114 . S
O140 C142 1.166 . S
O141 Zn126 1.905 . S
O141 C142 1.182 . S
C142 O140 1.166 . S
C142 O141 1.182 . S
O143 Zn128 2.080 . S
O143 C146 1.305 . S
O144 Zn127 1.920 . S
O144 C146 1.234 . S
C145 O131 1.305 . S
C145 O132 1.234 . S
C146 O143 1.305 . S
C146 O144 1.234 . S
Zn147 O153 1.920 . S
Zn147 O159 1.898 . S
Zn147 O162 1.905 . S
Zn148 O156 1.905 . S
Zn148 O157 1.898 1_554 S
Zn148 O165 1.920 . S
Zn149 O152 2.080 . S
Zn149 O155 2.114 1_556 S
Zn149 O158 2.120 . S
Zn149 O160 2.120 . S
Zn149 O161 2.114 . S
Zn149 O164 2.080 . S
C150 O155 1.166 . S
C150 O156 1.182 . S
C151 O157 1.167 . S
C151 O158 1.299 . S
O152 Zn149 2.080 . S
O152 C166 1.305 . S
O153 Zn147 1.920 . S
O153 C166 1.234 . S
C154 O159 1.167 . S
C154 O160 1.299 . S
O155 Zn149 2.114 1_554 S
O155 C150 1.166 . S
O156 Zn148 1.905 . S
O156 C150 1.182 . S
O157 Zn148 1.898 1_556 S
O157 C151 1.167 . S
O158 Zn149 2.120 . S
O158 C151 1.299 . S
O159 Zn147 1.898 . S
O159 C154 1.167 . S
O160 Zn149 2.120 . S
O160 C154 1.299 . S
O161 Zn149 2.114 . S
O161 C163 1.166 . S
O162 Zn147 1.905 . S
O162 C163 1.182 . S
C163 O161 1.166 . S
C163 O162 1.182 . S
O164 Zn149 2.080 . S
O164 C167 1.305 . S
O165 Zn148 1.920 . S
O165 C167 1.234 1_554 S
C166 O152 1.305 . S
C166 O153 1.234 . S
C167 O164 1.305 . S
C167 O165 1.234 1_556 S
Zn168 O174 1.920 . S
Zn168 O180 1.898 . S
Zn168 O183 1.905 . S
Zn169 O177 1.905 . S
Zn169 O178 1.898 . S
Zn169 O186 1.920 . S
Zn170 O173 2.080 . S
Zn170 O176 2.114 . S
Zn170 O179 2.120 . S
Zn170 O181 2.120 . S
Zn170 O182 2.114 . S
Zn170 O185 2.080 . S
C171 O176 1.166 . S
C171 O177 1.182 . S
C172 O178 1.167 . S
C172 O179 1.299 . S
O173 Zn170 2.080 . S
O173 C187 1.305 . S
O174 Zn168 1.920 . S
O174 C187 1.234 . S
C175 O180 1.167 . S
C175 O181 1.299 . S
O176 Zn170 2.114 . S
O176 C171 1.166 . S
O177 Zn169 1.905 . S
O177 C171 1.182 . S
O178 Zn169 1.898 . S
O178 C172 1.167 . S
O179 Zn170 2.120 . S
O179 C172 1.299 . S
O180 Zn168 1.898 . S
O180 C175 1.167 . S
O181 Zn170 2.120 . S
O181 C175 1.299 . S
O182 Zn170 2.114 . S
O182 C184 1.166 . S
O183 Zn168 1.905 . S
O183 C184 1.182 . S
C184 O182 1.166 . S
C184 O183 1.182 . S
O185 Zn170 2.080 . S
O185 C188 1.305 . S
O186 Zn169 1.920 . S
O186 C188 1.234 . S
C187 O173 1.305 . S
C187 O174 1.234 . S
C188 O185 1.305 . S
C188 O186 1.234 . S
Zn189 O195 1.920 . S
Zn189 O201 1.898 . S
Zn189 O204 1.905 . S
Zn190 O198 1.905 . S
Zn190 O199 1.898 . S
Zn190 O207 1.920 . S
Zn191 O194 2.080 . S
Zn191 O197 2.114 . S
Zn191 O200 2.120 . S
Zn191 O202 2.120 . S
Zn191 O203 2.114 . S
Zn191 O206 2.080 . S
C192 O197 1.166 . S
C192 O198 1.182 . S
C193 O199 1.167 . S
C193 O200 1.299 . S
O194 Zn191 2.080 . S
O194 C208 1.305 . S
O195 Zn189 1.920 . S
O195 C208 1.234 . S
C196 O201 1.167 . S
C196 O202 1.299 . S
O197 Zn191 2.114 . S
O197 C192 1.166 . S
O198 Zn190 1.905 . S
O198 C192 1.182 . S
O199 Zn190 1.898 . S
O199 C193 1.167 . S
O200 Zn191 2.120 . S
O200 C193 1.299 . S
O201 Zn189 1.898 . S
O201 C196 1.167 . S
O202 Zn191 2.120 . S
O202 C196 1.299 . S
O203 Zn191 2.114 . S
O203 C205 1.166 . S
O204 Zn189 1.905 . S
O204 C205 1.182 . S
C205 O203 1.166 . S
C205 O204 1.182 . S
O206 Zn191 2.080 . S
O206 C209 1.305 . S
O207 Zn190 1.920 . S
O207 C209 1.234 . S
C208 O194 1.305 . S
C208 O195 1.234 . S
C209 O206 1.305 . S
C209 O207 1.234 . S
Zn210 O216 1.920 . S
Zn210 O222 1.898 . S
Zn210 O225 1.905 . S
Zn211 O219 1.905 . S
Zn211 O220 1.898 . S
Zn211 O228 1.920 . S
Zn212 O215 2.080 . S
Zn212 O218 2.114 . S
Zn212 O221 2.120 . S
Zn212 O223 2.120 . S
Zn212 O224 2.114 . S
Zn212 O227 2.080 . S
C213 O218 1.166 . S
C213 O219 1.182 . S
C214 O220 1.167 . S
C214 O221 1.299 . S
O215 Zn212 2.080 . S
O215 C229 1.305 . S
O216 Zn210 1.920 . S
O216 C229 1.234 . S
C217 O222 1.167 . S
C217 O223 1.299 . S
O218 Zn212 2.114 . S
O218 C213 1.166 . S
O219 Zn211 1.905 . S
O219 C213 1.182 . S
O220 Zn211 1.898 . S
O220 C214 1.167 . S
O221 Zn212 2.120 . S
O221 C214 1.299 . S
O222 Zn210 1.898 . S
O222 C217 1.167 . S
O223 Zn212 2.120 . S
O223 C217 1.299 . S
O224 Zn212 2.114 . S
O224 C226 1.166 . S
O225 Zn210 1.905 . S
O225 C226 1.182 . S
C226 O224 1.166 . S
C226 O225 1.182 . S
O227 Zn212 2.080 . S
O227 C230 1.305 . S
O228 Zn211 1.920 . S
O228 C230 1.234 . S
C229 O215 1.305 . S
C229 O216 1.234 . S
C230 O227 1.305 . S
C230 O228 1.234 . S
Zn231 O237 1.920 . S
Zn231 O243 1.898 1_554 S
Zn231 O246 1.905 . S
Zn232 O240 1.905 . S
Zn232 O241 1.898 . S
Zn232 O249 1.920 . S
Zn233 O236 2.080 . S
Zn233 O239 2.114 . S
Zn233 O242 2.120 . S
Zn233 O244 2.120 . S
Zn233 O245 2.114 1_556 S
Zn233 O248 2.080 . S
C234 O239 1.166 . S
C234 O240 1.182 . S
C235 O241 1.167 . S
C235 O242 1.299 . S
O236 Zn233 2.080 . S
O236 C250 1.305 . S
O237 Zn231 1.920 . S
O237 C250 1.234 1_554 S
C238 O243 1.167 . S
C238 O244 1.299 . S
O239 Zn233 2.114 . S
O239 C234 1.166 . S
O240 Zn232 1.905 . S
O240 C234 1.182 . S
O241 Zn232 1.898 . S
O241 C235 1.167 . S
O242 Zn233 2.120 . S
O242 C235 1.299 . S
O243 Zn231 1.898 1_556 S
O243 C238 1.167 . S
O244 Zn233 2.120 . S
O244 C238 1.299 . S
O245 Zn233 2.114 1_554 S
O245 C247 1.166 . S
O246 Zn231 1.905 . S
O246 C247 1.182 . S
C247 O245 1.166 . S
C247 O246 1.182 . S
O248 Zn233 2.080 . S
O248 C251 1.305 . S
O249 Zn232 1.920 . S
O249 C251 1.234 . S
C250 O236 1.305 . S
C250 O237 1.234 1_556 S
C251 O248 1.305 . S
C251 O249 1.234 . S
Zn252 O258 1.920 . S
Zn252 O264 1.898 . S
Zn252 O267 1.905 . S
Zn253 O261 1.905 . S
Zn253 O262 1.898 . S
Zn253 O270 1.920 . S
Zn254 O257 2.080 . S
Zn254 O260 2.114 . S
Zn254 O263 2.120 . S
Zn254 O265 2.120 . S
Zn254 O266 2.114 . S
Zn254 O269 2.080 . S
C255 O260 1.166 . S
C255 O261 1.182 . S
C256 O262 1.167 . S
C256 O263 1.299 . S
O257 Zn254 2.080 . S
O257 C271 1.305 . S
O258 Zn252 1.920 . S
O258 C271 1.234 . S
C259 O264 1.167 . S
C259 O265 1.299 . S
O260 Zn254 2.114 . S
O260 C255 1.166 . S
O261 Zn253 1.905 . S
O261 C255 1.182 . S
O262 Zn253 1.898 . S
O262 C256 1.167 . S
O263 Zn254 2.120 . S
O263 C256 1.299 . S
O264 Zn252 1.898 . S
O264 C259 1.167 . S
O265 Zn254 2.120 . S
O265 C259 1.299 . S
O266 Zn254 2.114 . S
O266 C268 1.166 . S
O267 Zn252 1.905 . S
O267 C268 1.182 . S
C268 O266 1.166 . S
C268 O267 1.182 . S
O269 Zn254 2.080 . S
O269 C272 1.305 . S
O270 Zn253 1.920 . S
O270 C272 1.234 . S
C271 O257 1.305 . S
C271 O258 1.234 . S
C272 O269 1.305 . S
C272 O270 1.234 . S
Zn273 O279 1.920 . S
Zn273 O285 1.898 . S
Zn273 O288 1.905 . S
Zn274 O282 1.905 . S
Zn274 O283 1.898 . S
Zn274 O291 1.920 . S
Zn275 O278 2.080 . S
Zn275 O281 2.114 . S
Zn275 O284 2.120 . S
Zn275 O286 2.120 . S
Zn275 O287 2.114 . S
Zn275 O290 2.080 . S
C276 O281 1.166 . S
C276 O282 1.182 . S
C277 O283 1.167 . S
C277 O284 1.299 . S
O278 Zn275 2.080 . S
O278 C292 1.305 . S
O279 Zn273 1.920 . S
O279 C292 1.234 . S
C280 O285 1.167 . S
C280 O286 1.299 . S
O281 Zn275 2.114 . S
O281 C276 1.166 . S
O282 Zn274 1.905 . S
O282 C276 1.182 . S
O283 Zn274 1.898 . S
O283 C277 1.167 . S
O284 Zn275 2.120 . S
O284 C277 1.299 . S
O285 Zn273 1.898 . S
O285 C280 1.167 . S
O286 Zn275 2.120 . S
O286 C280 1.299 . S
O287 Zn275 2.114 . S
O287 C289 1.166 . S
O288 Zn273 1.905 . S
O288 C289 1.182 . S
C289 O287 1.166 . S
C289 O288 1.182 . S
O290 Zn275 2.080 . S
O290 C293 1.305 . S
O291 Zn274 1.920 . S
O291 C293 1.234 . S
C292 O278 1.305 . S
C292 O279 1.234 . S
C293 O290 1.305 . S
C293 O291 1.234 . S
Zn294 O300 1.920 . S
Zn294 O306 1.898 . S
Zn294 O309 1.905 . S
Zn295 O303 1.905 . S
Zn295 O304 1.898 . S
Zn295 O312 1.920 . S
Zn296 O299 2.080 . S
Zn296 O302 2.114 . S
Zn296 O305 2.120 . S
Zn296 O307 2.120 . S
Zn296 O308 2.114 . S
Zn296 O311 2.080 . S
C297 O302 1.166 . S
C297 O303 1.182 . S
C298 O304 1.167 . S
C298 O305 1.299 . S
O299 Zn296 2.080 . S
O299 C313 1.305 . S
O300 Zn294 1.920 . S
O300 C313 1.234 . S
C301 O306 1.167 . S
C301 O307 1.299 . S
O302 Zn296 2.114 . S
O302 C297 1.166 . S
O303 Zn295 1.905 . S
O303 C297 1.182 . S
O304 Zn295 1.898 . S
O304 C298 1.167 . S
O305 Zn296 2.120 . S
O305 C298 1.299 . S
O306 Zn294 1.898 . S
O306 C301 1.167 . S
O307 Zn296 2.120 . S
O307 C301 1.299 . S
O308 Zn296 2.114 . S
O308 C310 1.166 . S
O309 Zn294 1.905 . S
O309 C310 1.182 . S
C310 O308 1.166 . S
C310 O309 1.182 . S
O311 Zn296 2.080 . S
O311 C314 1.305 . S
O312 Zn295 1.920 . S
O312 C314 1.234 . S
C313 O299 1.305 . S
C313 O300 1.234 . S
C314 O311 1.305 . S
C314 O312 1.234 . S
Zn315 O321 1.920 . S
Zn315 O327 1.898 . S
Zn315 O330 1.905 . S
Zn316 O324 1.905 . S
Zn316 O325 1.898 1_556 S
Zn316 O333 1.920 . S
Zn317 O320 2.080 . S
Zn317 O323 2.114 1_554 S
Zn317 O326 2.120 . S
Zn317 O328 2.120 . S
Zn317 O329 2.114 . S
Zn317 O332 2.080 . S
C318 O323 1.166 . S
C318 O324 1.182 . S
C319 O325 1.167 . S
C319 O326 1.299 . S
O320 Zn317 2.080 . S
O320 C334 1.305 . S
O321 Zn315 1.920 . S
O321 C334 1.234 . S
C322 O327 1.167 . S
C322 O328 1.299 . S
O323 Zn317 2.114 1_556 S
O323 C318 1.166 . S
O324 Zn316 1.905 . S
O324 C318 1.182 . S
O325 Zn316 1.898 1_554 S
O325 C319 1.167 . S
O326 Zn317 2.120 . S
O326 C319 1.299 . S
O327 Zn315 1.898 . S
O327 C322 1.167 . S
O328 Zn317 2.120 . S
O328 C322 1.299 . S
O329 Zn317 2.114 . S
O329 C331 1.166 . S
O330 Zn315 1.905 . S
O330 C331 1.182 . S
C331 O329 1.166 . S
C331 O330 1.182 . S
O332 Zn317 2.080 . S
O332 C335 1.305 . S
O333 Zn316 1.920 . S
O333 C335 1.234 1_556 S
C334 O320 1.305 . S
C334 O321 1.234 . S
C335 O332 1.305 . S
C335 O333 1.234 1_554 S
Zn336 O342 1.920 . S
Zn336 O348 1.898 . S
Zn336 O351 1.905 . S
Zn337 O345 1.905 . S
Zn337 O346 1.898 . S
Zn337 O354 1.920 . S
Zn338 O341 2.080 . S
Zn338 O344 2.114 . S
Zn338 O347 2.120 . S
Zn338 O349 2.120 . S
Zn338 O350 2.114 . S
Zn338 O353 2.080 . S
C339 O344 1.166 . S
C339 O345 1.182 . S
C340 O346 1.167 . S
C340 O347 1.299 . S
O341 Zn338 2.080 . S
O341 C355 1.305 . S
O342 Zn336 1.920 . S
O342 C355 1.234 . S
C343 O348 1.167 . S
C343 O349 1.299 . S
O344 Zn338 2.114 . S
O344 C339 1.166 . S
O345 Zn337 1.905 . S
O345 C339 1.182 . S
O346 Zn337 1.898 . S
O346 C340 1.167 . S
O347 Zn338 2.120 . S
O347 C340 1.299 . S
O348 Zn336 1.898 . S
O348 C343 1.167 . S
O349 Zn338 2.120 . S
O349 C343 1.299 . S
O350 Zn338 2.114 . S
O350 C352 1.166 . S
O351 Zn336 1.905 . S
O351 C352 1.182 . S
C352 O350 1.166 . S
C352 O351 1.182 . S
O353 Zn338 2.080 . S
O353 C356 1.305 . S
O354 Zn337 1.920 . S
O354 C356 1.234 . S
C355 O341 1.305 . S
C355 O342 1.234 . S
C356 O353 1.305 . S
C356 O354 1.234 . S
Zn357 O363 1.920 . S
Zn357 O369 1.898 1_556 S
Zn357 O372 1.905 . S
Zn358 O366 1.905 . S
Zn358 O367 1.898 . S
Zn358 O375 1.920 . S
Zn359 O362 2.080 . S
Zn359 O365 2.114 . S
Zn359 O368 2.120 . S
Zn359 O370 2.120 . S
Zn359 O371 2.114 1_554 S
Zn359 O374 2.080 . S
C360 O365 1.166 . S
C360 O366 1.182 . S
C361 O367 1.167 . S
C361 O368 1.299 . S
O362 Zn359 2.080 . S
O362 C376 1.305 . S
O363 Zn357 1.920 . S
O363 C376 1.234 1_556 S
C364 O369 1.167 . S
C364 O370 1.299 . S
O365 Zn359 2.114 . S
O365 C360 1.166 . S
O366 Zn358 1.905 . S
O366 C360 1.182 . S
O367 Zn358 1.898 . S
O367 C361 1.167 . S
O368 Zn359 2.120 . S
O368 C361 1.299 . S
O369 Zn357 1.898 1_554 S
O369 C364 1.167 . S
O370 Zn359 2.120 . S
O370 C364 1.299 . S
O371 Zn359 2.114 1_556 S
O371 C373 1.166 . S
O372 Zn357 1.905 . S
O372 C373 1.182 . S
C373 O371 1.166 . S
C373 O372 1.182 . S
O374 Zn359 2.080 . S
O374 C377 1.305 . S
O375 Zn358 1.920 . S
O375 C377 1.234 . S
C376 O362 1.305 . S
C376 O363 1.234 1_554 S
C377 O374 1.305 . S
C377 O375 1.234 . S
Zn378 O384 1.920 . S
Zn378 O390 1.898 . S
Zn378 O393 1.905 . S
Zn379 O387 1.905 . S
Zn379 O388 1.898 . S
Zn379 O396 1.920 . S
Zn380 O383 2.080 . S
Zn380 O386 2.114 . S
Zn380 O389 2.120 . S
Zn380 O391 2.120 . S
Zn380 O392 2.114 . S
Zn380 O395 2.080 . S
C381 O386 1.166 . S
C381 O387 1.182 . S
C382 O388 1.167 . S
C382 O389 1.299 . S
O383 Zn380 2.080 . S
O383 C397 1.305 . S
O384 Zn378 1.920 . S
O384 C397 1.234 . S
C385 O390 1.167 . S
C385 O391 1.299 . S
O386 Zn380 2.114 . S
O386 C381 1.166 . S
O387 Zn379 1.905 . S
O387 C381 1.182 . S
O388 Zn379 1.898 . S
O388 C382 1.167 . S
O389 Zn380 2.120 . S
O389 C382 1.299 . S
O390 Zn378 1.898 . S
O390 C385 1.167 . S
O391 Zn380 2.120 . S
O391 C385 1.299 . S
O392 Zn380 2.114 . S
O392 C394 1.166 . S
O393 Zn378 1.905 . S
O393 C394 1.182 . S
C394 O392 1.166 . S
C394 O393 1.182 . S
O395 Zn380 2.080 . S
O395 C398 1.305 . S
O396 Zn379 1.920 . S
O396 C398 1.234 . S
C397 O383 1.305 . S
C397 O384 1.234 . S
C398 O395 1.305 . S
C398 O396 1.234 . S
Zn399 O405 1.920 . S
Zn399 O411 1.898 . S
Zn399 O414 1.905 . S
Zn400 O408 1.905 . S
Zn400 O409 1.898 . S
Zn400 O417 1.920 . S
Zn401 O404 2.080 . S
Zn401 O407 2.114 . S
Zn401 O410 2.120 . S
Zn401 O412 2.120 . S
Zn401 O413 2.114 . S
Zn401 O416 2.080 . S
C402 O407 1.166 . S
C402 O408 1.182 . S
C403 O409 1.167 . S
C403 O410 1.299 . S
O404 Zn401 2.080 . S
O404 C418 1.305 . S
O405 Zn399 1.920 . S
O405 C418 1.234 . S
C406 O411 1.167 . S
C406 O412 1.299 . S
O407 Zn401 2.114 . S
O407 C402 1.166 . S
O408 Zn400 1.905 . S
O408 C402 1.182 . S
O409 Zn400 1.898 . S
O409 C403 1.167 . S
O410 Zn401 2.120 . S
O410 C403 1.299 . S
O411 Zn399 1.898 . S
O411 C406 1.167 . S
O412 Zn401 2.120 . S
O412 C406 1.299 . S
O413 Zn401 2.114 . S
O413 C415 1.166 . S
O414 Zn399 1.905 . S
O414 C415 1.182 . S
C415 O413 1.166 . S
C415 O414 1.182 . S
O416 Zn401 2.080 . S
O416 C419 1.305 . S
O417 Zn400 1.920 . S
O417 C419 1.234 . S
C418 O404 1.305 . S
C418 O405 1.234 . S
C419 O416 1.305 . S
C419 O417 1.234 . S
Zn420 O426 1.920 . S
Zn420 O432 1.898 . S
Zn420 O435 1.905 . S
Zn421 O429 1.905 . S
Zn421 O430 1.898 . S
Zn421 O438 1.920 . S
Zn422 O425 2.080 . S
Zn422 O428 2.114 . S
Zn422 O431 2.120 . S
Zn422 O433 2.120 . S
Zn422 O434 2.114 . S
Zn422 O437 2.080 . S
C423 O428 1.166 . S
C423 O429 1.182 . S
C424 O430 1.167 . S
C424 O431 1.299 . S
O425 Zn422 2.080 . S
O425 C439 1.305 . S
O426 Zn420 1.920 . S
O426 C439 1.234 . S
C427 O432 1.167 . S
C427 O433 1.299 . S
O428 Zn422 2.114 . S
O428 C423 1.166 . S
O429 Zn421 1.905 . S
O429 C423 1.182 . S
O430 Zn421 1.898 . S
O430 C424 1.167 . S
O431 Zn422 2.120 . S
O431 C424 1.299 . S
O432 Zn420 1.898 . S
O432 C427 1.167 . S
O433 Zn422 2.120 . S
O433 C427 1.299 . S
O434 Zn422 2.114 . S
O434 C436 1.166 . S
O435 Zn420 1.905 . S
O435 C436 1.182 . S
C436 O434 1.166 . S
C436 O435 1.182 . S
O437 Zn422 2.080 . S
O437 C440 1.305 . S
O438 Zn421 1.920 . S
O438 C440 1.234 . S
C439 O425 1.305 . S
C439 O426 1.234 . S
C440 O437 1.305 . S
C440 O438 1.234 . S
Zn441 O447 1.920 . S
Zn441 O453 1.898 . S
Zn441 O456 1.905 . S
Zn442 O450 1.905 . S
Zn442 O451 1.898 1_554 S
Zn442 O459 1.920 . S
Zn443 O446 2.080 . S
Zn443 O449 2.114 1_556 S
Zn443 O452 2.120 . S
Zn443 O454 2.120 . S
Zn443 O455 2.114 . S
Zn443 O458 2.080 . S
C444 O449 1.166 . S
C444 O450 1.182 . S
C445 O451 1.167 . S
C445 O452 1.299 . S
O446 Zn443 2.080 . S
O446 C460 1.305 . S
O447 Zn441 1.920 . S
O447 C460 1.234 . S
C448 O453 1.167 . S
C448 O454 1.299 . S
O449 Zn443 2.114 1_554 S
O449 C444 1.166 . S
O450 Zn442 1.905 . S
O450 C444 1.182 . S
O451 Zn442 1.898 1_556 S
O451 C445 1.167 . S
O452 Zn443 2.120 . S
O452 C445 1.299 . S
O453 Zn441 1.898 . S
O453 C448 1.167 . S
O454 Zn443 2.120 . S
O454 C448 1.299 . S
O455 Zn443 2.114 . S
O455 C457 1.166 . S
O456 Zn441 1.905 . S
O456 C457 1.182 . S
C457 O455 1.166 . S
C457 O456 1.182 . S
O458 Zn443 2.080 . S
O458 C461 1.305 . S
O459 Zn442 1.920 . S
O459 C461 1.234 1_554 S
C460 O446 1.305 . S
C460 O447 1.234 . S
C461 O458 1.305 . S
C461 O459 1.234 1_556 S
Zn462 O468 1.920 . S
Zn462 O474 1.898 . S
Zn462 O477 1.905 . S
Zn463 O471 1.905 . S
Zn463 O472 1.898 . S
Zn463 O480 1.920 . S
Zn464 O467 2.080 . S
Zn464 O470 2.114 . S
Zn464 O473 2.120 . S
Zn464 O475 2.120 . S
Zn464 O476 2.114 . S
Zn464 O479 2.080 . S
C465 O470 1.166 . S
C465 O471 1.182 . S
C466 O472 1.167 . S
C466 O473 1.299 . S
O467 Zn464 2.080 . S
O467 C481 1.305 . S
O468 Zn462 1.920 . S
O468 C481 1.234 . S
C469 O474 1.167 . S
C469 O475 1.299 . S
O470 Zn464 2.114 . S
O470 C465 1.166 . S
O471 Zn463 1.905 . S
O471 C465 1.182 . S
O472 Zn463 1.898 . S
O472 C466 1.167 . S
O473 Zn464 2.120 . S
O473 C466 1.299 . S
O474 Zn462 1.898 . S
O474 C469 1.167 . S
O475 Zn464 2.120 . S
O475 C469 1.299 . S
O476 Zn464 2.114 . S
O476 C478 1.166 . S
O477 Zn462 1.905 . S
O477 C478 1.182 . S
C478 O476 1.166 . S
C478 O477 1.182 . S
O479 Zn464 2.080 . S
O479 C482 1.305 . S
O480 Zn463 1.920 . S
O480 C482 1.234 . S
C481 O467 1.305 . S
C481 O468 1.234 . S
C482 O479 1.305 . S
C482 O480 1.234 . S
Zn483 O489 1.920 . S
Zn483 O495 1.898 . S
Zn483 O498 1.905 . S
Zn484 O492 1.905 . S
Zn484 O493 1.898 . S
Zn484 O501 1.920 . S
Zn485 O488 2.080 . S
Zn485 O491 2.114 . S
Zn485 O494 2.120 . S
Zn485 O496 2.120 . S
Zn485 O497 2.114 . S
Zn485 O500 2.080 . S
C486 O491 1.166 . S
C486 O492 1.182 . S
C487 O493 1.167 . S
C487 O494 1.299 . S
O488 Zn485 2.080 . S
O488 C502 1.305 . S
O489 Zn483 1.920 . S
O489 C502 1.234 . S
C490 O495 1.167 . S
C490 O496 1.299 . S
O491 Zn485 2.114 . S
O491 C486 1.166 . S
O492 Zn484 1.905 . S
O492 C486 1.182 . S
O493 Zn484 1.898 . S
O493 C487 1.167 . S
O494 Zn485 2.120 . S
O494 C487 1.299 . S
O495 Zn483 1.898 . S
O495 C490 1.167 . S
O496 Zn485 2.120 . S
O496 C490 1.299 . S
O497 Zn485 2.114 . S
O497 C499 1.166 . S
O498 Zn483 1.905 . S
O498 C499 1.182 . S
C499 O497 1.166 . S
C499 O498 1.182 . S
O500 Zn485 2.080 . S
O500 C503 1.305 . S
O501 Zn484 1.920 . S
O501 C503 1.234 . S
C502 O488 1.305 . S
C502 O489 1.234 . S
C503 O500 1.305 . S
C503 O501 1.234 . S
Zn504 O510 1.920 . S
Zn504 O516 1.898 . S
Zn504 O519 1.905 . S
Zn505 O513 1.905 . S
Zn505 O514 1.898 . S
Zn505 O522 1.920 . S
Zn506 O509 2.080 . S
Zn506 O512 2.114 . S
Zn506 O515 2.120 . S
Zn506 O517 2.120 . S
Zn506 O518 2.114 . S
Zn506 O521 2.080 . S
C507 O512 1.166 . S
C507 O513 1.182 . S
C508 O514 1.167 . S
C508 O515 1.299 . S
O509 Zn506 2.080 . S
O509 C523 1.305 . S
O510 Zn504 1.920 . S
O510 C523 1.234 . S
C511 O516 1.167 . S
C511 O517 1.299 . S
O512 Zn506 2.114 . S
O512 C507 1.166 . S
O513 Zn505 1.905 . S
O513 C507 1.182 . S
O514 Zn505 1.898 . S
O514 C508 1.167 . S
O515 Zn506 2.120 . S
O515 C508 1.299 . S
O516 Zn504 1.898 . S
O516 C511 1.167 . S
O517 Zn506 2.120 . S
O517 C511 1.299 . S
O518 Zn506 2.114 . S
O518 C520 1.166 . S
O519 Zn504 1.905 . S
O519 C520 1.182 . S
C520 O518 1.166 . S
C520 O519 1.182 . S
O521 Zn506 2.080 . S
O521 C524 1.305 . S
O522 Zn505 1.920 . S
O522 C524 1.234 . S
C523 O509 1.305 . S
C523 O510 1.234 . S
C524 O521 1.305 . S
C524 O522 1.234 . S
Zn525 O531 1.920 . S
Zn525 O537 1.898 1_554 S
Zn525 O540 1.905 . S
Zn526 O534 1.905 . S
Zn526 O535 1.898 . S
Zn526 O543 1.920 . S
Zn527 O530 2.080 . S
Zn527 O533 2.114 . S
Zn527 O536 2.120 . S
Zn527 O538 2.120 . S
Zn527 O539 2.114 1_556 S
Zn527 O542 2.080 . S
C528 O533 1.166 . S
C528 O534 1.182 . S
C529 O535 1.167 . S
C529 O536 1.299 . S
O530 Zn527 2.080 . S
O530 C544 1.305 . S
O531 Zn525 1.920 . S
O531 C544 1.234 1_554 S
C532 O537 1.167 . S
C532 O538 1.299 . S
O533 Zn527 2.114 . S
O533 C528 1.166 . S
O534 Zn526 1.905 . S
O534 C528 1.182 . S
O535 Zn526 1.898 . S
O535 C529 1.167 . S
O536 Zn527 2.120 . S
O536 C529 1.299 . S
O537 Zn525 1.898 1_556 S
O537 C532 1.167 . S
O538 Zn527 2.120 . S
O538 C532 1.299 . S
O539 Zn527 2.114 1_554 S
O539 C541 1.166 . S
O540 Zn525 1.905 . S
O540 C541 1.182 . S
C541 O539 1.166 . S
C541 O540 1.182 . S
O542 Zn527 2.080 . S
O542 C545 1.305 . S
O543 Zn526 1.920 . S
O543 C545 1.234 . S
C544 O530 1.305 . S
C544 O531 1.234 1_556 S
C545 O542 1.305 . S
C545 O543 1.234 . S
Zn546 O552 1.920 . S
Zn546 O558 1.898 . S
Zn546 O561 1.905 . S
Zn547 O555 1.905 . S
Zn547 O556 1.898 . S
Zn547 O564 1.920 . S
Zn548 O551 2.080 . S
Zn548 O554 2.114 . S
Zn548 O557 2.120 . S
Zn548 O559 2.120 . S
Zn548 O560 2.114 . S
Zn548 O563 2.080 . S
C549 O554 1.166 . S
C549 O555 1.182 . S
C550 O556 1.167 . S
C550 O557 1.299 . S
O551 Zn548 2.080 . S
O551 C565 1.305 . S
O552 Zn546 1.920 . S
O552 C565 1.234 . S
C553 O558 1.167 . S
C553 O559 1.299 . S
O554 Zn548 2.114 . S
O554 C549 1.166 . S
O555 Zn547 1.905 . S
O555 C549 1.182 . S
O556 Zn547 1.898 . S
O556 C550 1.167 . S
O557 Zn548 2.120 . S
O557 C550 1.299 . S
O558 Zn546 1.898 . S
O558 C553 1.167 . S
O559 Zn548 2.120 . S
O559 C553 1.299 . S
O560 Zn548 2.114 . S
O560 C562 1.166 . S
O561 Zn546 1.905 . S
O561 C562 1.182 . S
C562 O560 1.166 . S
C562 O561 1.182 . S
O563 Zn548 2.080 . S
O563 C566 1.305 . S
O564 Zn547 1.920 . S
O564 C566 1.234 . S
C565 O551 1.305 . S
C565 O552 1.234 . S
C566 O563 1.305 . S
C566 O564 1.234 . S
Zn567 O573 1.920 . S
Zn567 O579 1.898 . S
Zn567 O582 1.905 . S
Zn568 O576 1.905 . S
Zn568 O577 1.898 . S
Zn568 O585 1.920 . S
Zn569 O572 2.080 . S
Zn569 O575 2.114 . S
Zn569 O578 2.120 . S
Zn569 O580 2.120 . S
Zn569 O581 2.114 . S
Zn569 O584 2.080 . S
C570 O575 1.166 . S
C570 O576 1.182 . S
C571 O577 1.167 . S
C571 O578 1.299 . S
O572 Zn569 2.080 . S
O572 C586 1.305 . S
O573 Zn567 1.920 . S
O573 C586 1.234 . S
C574 O579 1.167 . S
C574 O580 1.299 . S
O575 Zn569 2.114 . S
O575 C570 1.166 . S
O576 Zn568 1.905 . S
O576 C570 1.182 . S
O577 Zn568 1.898 . S
O577 C571 1.167 . S
O578 Zn569 2.120 . S
O578 C571 1.299 . S
O579 Zn567 1.898 . S
O579 C574 1.167 . S
O580 Zn569 2.120 . S
O580 C574 1.299 . S
O581 Zn569 2.114 . S
O581 C583 1.166 . S
O582 Zn567 1.905 . S
O582 C583 1.182 . S
C583 O581 1.166 . S
C583 O582 1.182 . S
O584 Zn569 2.080 . S
O584 C587 1.305 . S
O585 Zn568 1.920 . S
O585 C587 1.234 . S
C586 O572 1.305 . S
C586 O573 1.234 . S
C587 O584 1.305 . S
C587 O585 1.234 . S
Zn588 O594 1.920 . S
Zn588 O600 1.898 . S
Zn588 O603 1.905 . S
Zn589 O597 1.905 . S
Zn589 O598 1.898 . S
Zn589 O606 1.920 . S
Zn590 O593 2.080 . S
Zn590 O596 2.114 . S
Zn590 O599 2.120 . S
Zn590 O601 2.120 . S
Zn590 O602 2.114 . S
Zn590 O605 2.080 . S
C591 O596 1.166 . S
C591 O597 1.182 . S
C592 O598 1.167 . S
C592 O599 1.299 . S
O593 Zn590 2.080 . S
O593 C607 1.305 . S
O594 Zn588 1.920 . S
O594 C607 1.234 . S
C595 O600 1.167 . S
C595 O601 1.299 . S
O596 Zn590 2.114 . S
O596 C591 1.166 . S
O597 Zn589 1.905 . S
O597 C591 1.182 . S
O598 Zn589 1.898 . S
O598 C592 1.167 . S
O599 Zn590 2.120 . S
O599 C592 1.299 . S
O600 Zn588 1.898 . S
O600 C595 1.167 . S
O601 Zn590 2.120 . S
O601 C595 1.299 . S
O602 Zn590 2.114 . S
O602 C604 1.166 . S
O603 Zn588 1.905 . S
O603 C604 1.182 . S
C604 O602 1.166 . S
C604 O603 1.182 . S
O605 Zn590 2.080 . S
O605 C608 1.305 . S
O606 Zn589 1.920 . S
O606 C608 1.234 . S
C607 O593 1.305 . S
C607 O594 1.234 . S
C608 O605 1.305 . S
C608 O606 1.234 . S
Zn609 O615 1.920 . S
Zn609 O621 1.898 1_556 S
Zn609 O624 1.905 . S
Zn610 O618 1.905 . S
Zn610 O619 1.898 . S
Zn610 O627 1.920 . S
Zn611 O614 2.080 . S
Zn611 O617 2.114 . S
Zn611 O620 2.120 . S
Zn611 O622 2.120 . S
Zn611 O623 2.114 1_554 S
Zn611 O626 2.080 . S
C612 O617 1.166 . S
C612 O618 1.182 . S
C613 O619 1.167 . S
C613 O620 1.299 . S
O614 Zn611 2.080 . S
O614 C628 1.305 . S
O615 Zn609 1.920 . S
O615 C628 1.234 1_556 S
C616 O621 1.167 . S
C616 O622 1.299 . S
O617 Zn611 2.114 . S
O617 C612 1.166 . S
O618 Zn610 1.905 . S
O618 C612 1.182 . S
O619 Zn610 1.898 . S
O619 C613 1.167 . S
O620 Zn611 2.120 . S
O620 C613 1.299 . S
O621 Zn609 1.898 1_554 S
O621 C616 1.167 . S
O622 Zn611 2.120 . S
O622 C616 1.299 . S
O623 Zn611 2.114 1_556 S
O623 C625 1.166 . S
O624 Zn609 1.905 . S
O624 C625 1.182 . S
C625 O623 1.166 . S
C625 O624 1.182 . S
O626 Zn611 2.080 . S
O626 C629 1.305 . S
O627 Zn610 1.920 . S
O627 C629 1.234 . S
C628 O614 1.305 . S
C628 O615 1.234 1_554 S
C629 O626 1.305 . S
C629 O627 1.234 . S
Zn630 O636 1.920 . S
Zn630 O642 1.898 . S
Zn630 O645 1.905 . S
Zn631 O639 1.905 . S
Zn631 O640 1.898 . S
Zn631 O648 1.920 . S
Zn632 O635 2.080 . S
Zn632 O638 2.114 . S
Zn632 O641 2.120 . S
Zn632 O643 2.120 . S
Zn632 O644 2.114 . S
Zn632 O647 2.080 . S
C633 O638 1.166 . S
C633 O639 1.182 . S
C634 O640 1.167 . S
C634 O641 1.299 . S
O635 Zn632 2.080 . S
O635 C649 1.305 . S
O636 Zn630 1.920 . S
O636 C649 1.234 . S
C637 O642 1.167 . S
C637 O643 1.299 . S
O638 Zn632 2.114 . S
O638 C633 1.166 . S
O639 Zn631 1.905 . S
O639 C633 1.182 . S
O640 Zn631 1.898 . S
O640 C634 1.167 . S
O641 Zn632 2.120 . S
O641 C634 1.299 . S
O642 Zn630 1.898 . S
O642 C637 1.167 . S
O643 Zn632 2.120 . S
O643 C637 1.299 . S
O644 Zn632 2.114 . S
O644 C646 1.166 . S
O645 Zn630 1.905 . S
O645 C646 1.182 . S
C646 O644 1.166 . S
C646 O645 1.182 . S
O647 Zn632 2.080 . S
O647 C650 1.305 . S
O648 Zn631 1.920 . S
O648 C650 1.234 . S
C649 O635 1.305 . S
C649 O636 1.234 . S
C650 O647 1.305 . S
C650 O648 1.234 . S
Zn651 O657 1.920 . S
Zn651 O663 1.898 . S
Zn651 O666 1.905 . S
Zn652 O660 1.905 . S
Zn652 O661 1.898 . S
Zn652 O669 1.920 . S
Zn653 O656 2.080 . S
Zn653 O659 2.114 . S
Zn653 O662 2.120 . S
Zn653 O664 2.120 . S
Zn653 O665 2.114 . S
Zn653 O668 2.080 . S
C654 O659 1.166 . S
C654 O660 1.182 . S
C655 O661 1.167 . S
C655 O662 1.299 . S
O656 Zn653 2.080 . S
O656 C670 1.305 . S
O657 Zn651 1.920 . S
O657 C670 1.234 . S
C658 O663 1.167 . S
C658 O664 1.299 . S
O659 Zn653 2.114 . S
O659 C654 1.166 . S
O660 Zn652 1.905 . S
O660 C654 1.182 . S
O661 Zn652 1.898 . S
O661 C655 1.167 . S
O662 Zn653 2.120 . S
O662 C655 1.299 . S
O663 Zn651 1.898 . S
O663 C658 1.167 . S
O664 Zn653 2.120 . S
O664 C658 1.299 . S
O665 Zn653 2.114 . S
O665 C667 1.166 . S
O666 Zn651 1.905 . S
O666 C667 1.182 . S
C667 O665 1.166 . S
C667 O666 1.182 . S
O668 Zn653 2.080 . S
O668 C671 1.305 . S
O669 Zn652 1.920 . S
O669 C671 1.234 . S
C670 O656 1.305 . S
C670 O657 1.234 . S
C671 O668 1.305 . S
C671 O669 1.234 . S
C672 C673 1.349 . S
C672 C674 1.327 . S
C672 H697 0.950 . S
C673 C672 1.349 . S
C673 C689 1.349 . S
C674 C672 1.327 . S
C674 C693 1.429 . S
C674 H698 0.950 . S
C675 C692 1.574 1_545 S
C675 C694 1.368 . S
C675 H699 0.949 . S
H676 C680 0.949 . S
C677 C678 1.349 . S
C677 C679 1.327 . S
C677 H700 0.950 . S
C678 C677 1.349 . S
C678 C690 1.349 . S
C679 C677 1.327 . S
C679 C695 1.429 . S
C679 H701 0.950 . S
C680 H676 0.949 . S
C680 C688 1.574 1_565 S
C680 C696 1.368 . S
H681 C689 0.950 . S
H682 C687 0.950 . S
H683 C688 0.949 . S
H684 C690 0.950 . S
H685 C691 0.950 . S
H686 C692 0.949 . S
C687 H682 0.950 . S
C687 C689 1.327 . S
C687 C693 1.429 . S
C688 C680 1.574 1_545 S
C688 H683 0.949 . S
C688 C694 1.368 . S
C689 C673 1.349 . S
C689 H681 0.950 . S
C689 C687 1.327 . S
C690 C678 1.349 . S
C690 H684 0.950 . S
C690 C691 1.327 . S
C691 H685 0.950 . S
C691 C690 1.327 . S
C691 C695 1.429 . S
C692 C675 1.574 1_565 S
C692 H686 0.949 . S
C692 C696 1.368 . S
C693 C674 1.429 . S
C693 C687 1.429 . S
C693 C694 1.523 . S
C694 C675 1.368 . S
C694 C688 1.368 . S
C694 C693 1.523 . S
C695 C679 1.429 . S
C695 C691 1.429 . S
C695 C696 1.523 . S
C696 C680 1.368 . S
C696 C692 1.368 . S
C696 C695 1.523 . S
H697 C672 0.950 . S
H698 C674 0.950 . S
H699 C675 0.949 . S
H700 C677 0.950 . S
H701 C679 0.950 . S
C702 C703 1.349 . S
C702 C704 1.327 . S
C702 H727 0.950 . S
C703 C702 1.349 . S
C703 C719 1.349 . S
C704 C702 1.327 . S
C704 C723 1.429 . S
C704 H728 0.950 . S
C705 C722 1.574 . S
C705 C724 1.368 . S
C705 H729 0.949 . S
H706 C710 0.949 . S
C707 C708 1.349 . S
C707 C709 1.327 . S
C707 H730 0.950 . S
C708 C707 1.349 . S
C708 C720 1.349 . S
C709 C707 1.327 . S
C709 C725 1.429 . S
C709 H731 0.950 . S
C710 H706 0.949 . S
C710 C718 1.574 . S
C710 C726 1.368 . S
H711 C719 0.950 . S
H712 C717 0.950 . S
H713 C718 0.949 . S
H714 C720 0.950 . S
H715 C721 0.950 . S
H716 C722 0.949 . S
C717 H712 0.950 . S
C717 C719 1.327 . S
C717 C723 1.429 . S
C718 C710 1.574 . S
C718 H713 0.949 . S
C718 C724 1.368 . S
C719 C703 1.349 . S
C719 H711 0.950 . S
C719 C717 1.327 . S
C720 C708 1.349 . S
C720 H714 0.950 . S
C720 C721 1.327 . S
C721 H715 0.950 . S
C721 C720 1.327 . S
C721 C725 1.429 . S
C722 C705 1.574 . S
C722 H716 0.949 . S
C722 C726 1.368 . S
C723 C704 1.429 . S
C723 C717 1.429 . S
C723 C724 1.523 . S
C724 C705 1.368 . S
C724 C718 1.368 . S
C724 C723 1.523 . S
C725 C709 1.429 . S
C725 C721 1.429 . S
C725 C726 1.523 . S
C726 C710 1.368 . S
C726 C722 1.368 . S
C726 C725 1.523 . S
H727 C702 0.950 . S
H728 C704 0.950 . S
H729 C705 0.949 . S
H730 C707 0.950 . S
H731 C709 0.950 . S
C732 C733 1.349 . S
C732 C734 1.327 . S
C732 H757 0.950 . S
C733 C732 1.349 . S
C733 C749 1.349 . S
C734 C732 1.327 . S
C734 C753 1.429 . S
C734 H758 0.950 . S
C735 C752 1.574 1_545 S
C735 C754 1.368 . S
C735 H759 0.949 . S
H736 C740 0.949 . S
C737 C738 1.349 . S
C737 C739 1.327 . S
C737 H760 0.950 . S
C738 C737 1.349 . S
C738 C750 1.349 . S
C739 C737 1.327 . S
C739 C755 1.429 . S
C739 H761 0.950 . S
C740 H736 0.949 . S
C740 C748 1.574 1_565 S
C740 C756 1.368 . S
H741 C749 0.950 . S
H742 C747 0.950 . S
H743 C748 0.949 . S
H744 C750 0.950 . S
H745 C751 0.950 . S
H746 C752 0.949 . S
C747 H742 0.950 . S
C747 C749 1.327 . S
C747 C753 1.429 . S
C748 C740 1.574 1_545 S
C748 H743 0.949 . S
C748 C754 1.368 . S
C749 C733 1.349 . S
C749 H741 0.950 . S
C749 C747 1.327 . S
C750 C738 1.349 . S
C750 H744 0.950 . S
C750 C751 1.327 . S
C751 H745 0.950 . S
C751 C750 1.327 . S
C751 C755 1.429 . S
C752 C735 1.574 1_565 S
C752 H746 0.949 . S
C752 C756 1.368 . S
C753 C734 1.429 . S
C753 C747 1.429 . S
C753 C754 1.523 . S
C754 C735 1.368 . S
C754 C748 1.368 . S
C754 C753 1.523 . S
C755 C739 1.429 . S
C755 C751 1.429 . S
C755 C756 1.523 . S
C756 C740 1.368 . S
C756 C752 1.368 . S
C756 C755 1.523 . S
H757 C732 0.950 . S
H758 C734 0.950 . S
H759 C735 0.949 . S
H760 C737 0.950 . S
H761 C739 0.950 . S
C762 C763 1.349 . S
C762 C764 1.327 . S
C762 H787 0.950 . S
C763 C762 1.349 . S
C763 C779 1.349 . S
C764 C762 1.327 . S
C764 C783 1.429 . S
C764 H788 0.950 1_554 S
C765 C782 1.574 . S
C765 C784 1.368 . S
C765 H789 0.949 . S
H766 C770 0.949 . S
C767 C768 1.349 . S
C767 C769 1.327 . S
C767 H790 0.950 . S
C768 C767 1.349 . S
C768 C780 1.349 . S
C769 C767 1.327 . S
C769 C785 1.429 . S
C769 H791 0.950 1_556 S
C770 H766 0.949 . S
C770 C778 1.574 . S
C770 C786 1.368 . S
H771 C779 0.950 . S
H772 C777 0.950 . S
H773 C778 0.949 . S
H774 C780 0.950 . S
H775 C781 0.950 . S
H776 C782 0.949 . S
C777 H772 0.950 . S
C777 C779 1.327 . S
C777 C783 1.429 . S
C778 C770 1.574 . S
C778 H773 0.949 . S
C778 C784 1.368 1_556 S
C779 C763 1.349 . S
C779 H771 0.950 . S
C779 C777 1.327 . S
C780 C768 1.349 . S
C780 H774 0.950 . S
C780 C781 1.327 . S
C781 H775 0.950 . S
C781 C780 1.327 . S
C781 C785 1.429 . S
C782 C765 1.574 . S
C782 H776 0.949 . S
C782 C786 1.368 1_554 S
C783 C764 1.429 . S
C783 C777 1.429 . S
C783 C784 1.523 . S
C784 C765 1.368 . S
C784 C778 1.368 1_554 S
C784 C783 1.523 . S
C785 C769 1.429 . S
C785 C781 1.429 . S
C785 C786 1.523 . S
C786 C770 1.368 . S
C786 C782 1.368 1_556 S
C786 C785 1.523 . S
H787 C762 0.950 . S
H788 C764 0.950 1_556 S
H789 C765 0.949 . S
H790 C767 0.950 . S
H791 C769 0.950 1_554 S
C792 C793 1.349 . S
C792 C794 1.327 . S
C792 H817 0.950 . S
C793 C792 1.349 . S
C793 C809 1.349 . S
C794 C792 1.327 . S
C794 C813 1.429 . S
C794 H818 0.950 . S
C795 C812 1.574 1_565 S
C795 C814 1.368 . S
C795 H819 0.949 . S
H796 C800 0.949 . S
C797 C798 1.349 . S
C797 C799 1.327 . S
C797 H820 0.950 . S
C798 C797 1.349 . S
C798 C810 1.349 . S
C799 C797 1.327 . S
C799 C815 1.429 . S
C799 H821 0.950 . S
C800 H796 0.949 . S
C800 C808 1.574 1_545 S
C800 C816 1.368 . S
H801 C809 0.950 . S
H802 C807 0.950 . S
H803 C808 0.949 . S
H804 C810 0.950 . S
H805 C811 0.950 . S
H806 C812 0.949 . S
C807 H802 0.950 . S
C807 C809 1.327 . S
C807 C813 1.429 . S
C808 C800 1.574 1_565 S
C808 H803 0.949 . S
C808 C814 1.368 . S
C809 C793 1.349 . S
C809 H801 0.950 . S
C809 C807 1.327 . S
C810 C798 1.349 . S
C810 H804 0.950 . S
C810 C811 1.327 . S
C811 H805 0.950 . S
C811 C810 1.327 . S
C811 C815 1.429 . S
C812 C795 1.574 1_545 S
C812 H806 0.949 . S
C812 C816 1.368 . S
C813 C794 1.429 . S
C813 C807 1.429 . S
C813 C814 1.523 . S
C814 C795 1.368 . S
C814 C808 1.368 . S
C814 C813 1.523 . S
C815 C799 1.429 . S
C815 C811 1.429 . S
C815 C816 1.523 . S
C816 C800 1.368 . S
C816 C812 1.368 . S
C816 C815 1.523 . S
H817 C792 0.950 . S
H818 C794 0.950 . S
H819 C795 0.949 . S
H820 C797 0.950 . S
H821 C799 0.950 . S
C822 C823 1.349 . S
C822 C824 1.327 . S
C822 H847 0.950 . S
C823 C822 1.349 . S
C823 C839 1.349 . S
C824 C822 1.327 . S
C824 C843 1.429 . S
C824 H848 0.950 . S
C825 C842 1.574 . S
C825 C844 1.368 . S
C825 H849 0.949 . S
H826 C830 0.949 . S
C827 C828 1.349 . S
C827 C829 1.327 . S
C827 H850 0.950 . S
C828 C827 1.349 . S
C828 C840 1.349 . S
C829 C827 1.327 . S
C829 C845 1.429 . S
C829 H851 0.950 . S
C830 H826 0.949 . S
C830 C838 1.574 . S
C830 C846 1.368 . S
H831 C839 0.950 . S
H832 C837 0.950 . S
H833 C838 0.949 . S
H834 C840 0.950 . S
H835 C841 0.950 . S
H836 C842 0.949 . S
C837 H832 0.950 . S
C837 C839 1.327 . S
C837 C843 1.429 . S
C838 C830 1.574 . S
C838 H833 0.949 . S
C838 C844 1.368 . S
C839 C823 1.349 . S
C839 H831 0.950 . S
C839 C837 1.327 . S
C840 C828 1.349 . S
C840 H834 0.950 . S
C840 C841 1.327 . S
C841 H835 0.950 . S
C841 C840 1.327 . S
C841 C845 1.429 . S
C842 C825 1.574 . S
C842 H836 0.949 . S
C842 C846 1.368 . S
C843 C824 1.429 . S
C843 C837 1.429 . S
C843 C844 1.523 . S
C844 C825 1.368 . S
C844 C838 1.368 . S
C844 C843 1.523 . S
C845 C829 1.429 . S
C845 C841 1.429 . S
C845 C846 1.523 . S
C846 C830 1.368 . S
C846 C842 1.368 . S
C846 C845 1.523 . S
H847 C822 0.950 . S
H848 C824 0.950 . S
H849 C825 0.949 . S
H850 C827 0.950 . S
H851 C829 0.950 . S
C852 C853 1.349 . S
C852 C854 1.327 . S
C852 H877 0.950 . S
C853 C852 1.349 . S
C853 C869 1.349 . S
C854 C852 1.327 . S
C854 C873 1.429 . S
C854 H878 0.950 . S
C855 C872 1.574 1_545 S
C855 C874 1.368 . S
C855 H879 0.949 . S
H856 C860 0.949 . S
C857 C858 1.349 . S
C857 C859 1.327 . S
C857 H880 0.950 . S
C858 C857 1.349 . S
C858 C870 1.349 . S
C859 C857 1.327 . S
C859 C875 1.429 . S
C859 H881 0.950 . S
C860 H856 0.949 . S
C860 C868 1.574 1_565 S
C860 C876 1.368 . S
H861 C869 0.950 . S
H862 C867 0.950 . S
H863 C868 0.949 . S
H864 C870 0.950 . S
H865 C871 0.950 . S
H866 C872 0.949 . S
C867 H862 0.950 . S
C867 C869 1.327 . S
C867 C873 1.429 . S
C868 C860 1.574 1_545 S
C868 H863 0.949 . S
C868 C874 1.368 . S
C869 C853 1.349 . S
C869 H861 0.950 . S
C869 C867 1.327 . S
C870 C858 1.349 . S
C870 H864 0.950 . S
C870 C871 1.327 . S
C871 H865 0.950 . S
C871 C870 1.327 . S
C871 C875 1.429 . S
C872 C855 1.574 1_565 S
C872 H866 0.949 . S
C872 C876 1.368 . S
C873 C854 1.429 . S
C873 C867 1.429 . S
C873 C874 1.523 . S
C874 C855 1.368 . S
C874 C868 1.368 . S
C874 C873 1.523 . S
C875 C859 1.429 . S
C875 C871 1.429 . S
C875 C876 1.523 . S
C876 C860 1.368 . S
C876 C872 1.368 . S
C876 C875 1.523 . S
H877 C852 0.950 . S
H878 C854 0.950 . S
H879 C855 0.949 . S
H880 C857 0.950 . S
H881 C859 0.950 . S
C882 C883 1.349 . S
C882 C884 1.327 . S
C882 H907 0.950 . S
C883 C882 1.349 . S
C883 C899 1.349 . S
C884 C882 1.327 . S
C884 C903 1.429 . S
C884 H908 0.950 . S
C885 C902 1.574 . S
C885 C904 1.368 1_556 S
C885 H909 0.949 . S
H886 C890 0.949 . S
C887 C888 1.349 . S
C887 C889 1.327 . S
C887 H910 0.950 . S
C888 C887 1.349 . S
C888 C900 1.349 . S
C889 C887 1.327 . S
C889 C905 1.429 . S
C889 H911 0.950 . S
C890 H886 0.949 . S
C890 C898 1.574 . S
C890 C906 1.368 1_554 S
H891 C899 0.950 . S
H892 C897 0.950 1_556 S
H893 C898 0.949 . S
H894 C900 0.950 . S
H895 C901 0.950 1_554 S
H896 C902 0.949 . S
C897 H892 0.950 1_554 S
C897 C899 1.327 . S
C897 C903 1.429 . S
C898 C890 1.574 . S
C898 H893 0.949 . S
C898 C904 1.368 . S
C899 C883 1.349 . S
C899 H891 0.950 . S
C899 C897 1.327 . S
C900 C888 1.349 . S
C900 H894 0.950 . S
C900 C901 1.327 . S
C901 H895 0.950 1_556 S
C901 C900 1.327 . S
C901 C905 1.429 . S
C902 C885 1.574 . S
C902 H896 0.949 . S
C902 C906 1.368 . S
C903 C884 1.429 . S
C903 C897 1.429 . S
C903 C904 1.523 . S
C904 C885 1.368 1_554 S
C904 C898 1.368 . S
C904 C903 1.523 . S
C905 C889 1.429 . S
C905 C901 1.429 . S
C905 C906 1.523 . S
C906 C890 1.368 1_556 S
C906 C902 1.368 . S
C906 C905 1.523 . S
H907 C882 0.950 . S
H908 C884 0.950 . S
H909 C885 0.949 . S
H910 C887 0.950 . S
H911 C889 0.950 . S
C912 C913 1.349 . S
C912 C914 1.327 . S
C912 H937 0.950 . S
C913 C912 1.349 . S
C913 C929 1.349 . S
C914 C912 1.327 . S
C914 C933 1.429 . S
C914 H938 0.950 . S
C915 C932 1.574 . S
C915 C934 1.368 . S
C915 H939 0.949 . S
H916 C920 0.949 . S
C917 C918 1.349 . S
C917 C919 1.327 . S
C917 H940 0.950 . S
C918 C917 1.349 . S
C918 C930 1.349 . S
C919 C917 1.327 . S
C919 C935 1.429 . S
C919 H941 0.950 . S
C920 H916 0.949 . S
C920 C928 1.574 . S
C920 C936 1.368 . S
H921 C929 0.950 . S
H922 C927 0.950 . S
H923 C928 0.949 . S
H924 C930 0.950 . S
H925 C931 0.950 . S
H926 C932 0.949 . S
C927 H922 0.950 . S
C927 C929 1.327 . S
C927 C933 1.429 . S
C928 C920 1.574 . S
C928 H923 0.949 . S
C928 C934 1.368 . S
C929 C913 1.349 . S
C929 H921 0.950 . S
C929 C927 1.327 . S
C930 C918 1.349 . S
C930 H924 0.950 . S
C930 C931 1.327 . S
C931 H925 0.950 . S
C931 C930 1.327 . S
C931 C935 1.429 . S
C932 C915 1.574 . S
C932 H926 0.949 . S
C932 C936 1.368 . S
C933 C914 1.429 . S
C933 C927 1.429 . S
C933 C934 1.523 . S
C934 C915 1.368 . S
C934 C928 1.368 . S
C934 C933 1.523 . S
C935 C919 1.429 . S
C935 C931 1.429 . S
C935 C936 1.523 . S
C936 C920 1.368 . S
C936 C932 1.368 . S
C936 C935 1.523 . S
H937 C912 0.950 . S
H938 C914 0.950 . S
H939 C915 0.949 . S
H940 C917 0.950 . S
H941 C919 0.950 . S
C942 C943 1.349 . S
C942 C944 1.327 . S
C942 H967 0.950 . S
C943 C942 1.349 . S
C943 C959 1.349 . S
C944 C942 1.327 . S
C944 C963 1.429 . S
C944 H968 0.950 1_556 S
C945 C962 1.574 . S
C945 C964 1.368 . S
C945 H969 0.949 . S
H946 C950 0.949 . S
C947 C948 1.349 . S
C947 C949 1.327 . S
C947 H970 0.950 . S
C948 C947 1.349 . S
C948 C960 1.349 . S
C949 C947 1.327 . S
C949 C965 1.429 . S
C949 H971 0.950 1_554 S
C950 H946 0.949 . S
C950 C958 1.574 . S
C950 C966 1.368 . S
H951 C959 0.950 . S
H952 C957 0.950 . S
H953 C958 0.949 . S
H954 C960 0.950 . S
H955 C961 0.950 . S
H956 C962 0.949 . S
C957 H952 0.950 . S
C957 C959 1.327 . S
C957 C963 1.429 . S
C958 C950 1.574 . S
C958 H953 0.949 . S
C958 C964 1.368 1_554 S
C959 C943 1.349 . S
C959 H951 0.950 . S
C959 C957 1.327 . S
C960 C948 1.349 . S
C960 H954 0.950 . S
C960 C961 1.327 . S
C961 H955 0.950 . S
C961 C960 1.327 . S
C961 C965 1.429 . S
C962 C945 1.574 . S
C962 H956 0.949 . S
C962 C966 1.368 1_556 S
C963 C944 1.429 . S
C963 C957 1.429 . S
C963 C964 1.523 . S
C964 C945 1.368 . S
C964 C958 1.368 1_556 S
C964 C963 1.523 . S
C965 C949 1.429 . S
C965 C961 1.429 . S
C965 C966 1.523 . S
C966 C950 1.368 . S
C966 C962 1.368 1_554 S
C966 C965 1.523 . S
H967 C942 0.950 . S
H968 C944 0.950 1_554 S
H969 C945 0.949 . S
H970 C947 0.950 . S
H971 C949 0.950 1_556 S
C972 C973 1.349 . S
C972 C974 1.327 . S
C972 H997 0.950 . S
C973 C972 1.349 . S
C973 C989 1.349 . S
C974 C972 1.327 . S
C974 C993 1.429 . S
C974 H998 0.950 . S
C975 C992 1.574 . S
C975 C994 1.368 . S
C975 H999 0.949 . S
H976 C980 0.949 . S
C977 C978 1.349 . S
C977 C979 1.327 . S
C977 H1000 0.950 . S
C978 C977 1.349 . S
C978 C990 1.349 . S
C979 C977 1.327 . S
C979 C995 1.429 . S
C979 H1001 0.950 . S
C980 H976 0.949 . S
C980 C988 1.574 . S
C980 C996 1.368 . S
H981 C989 0.950 . S
H982 C987 0.950 . S
H983 C988 0.949 . S
H984 C990 0.950 . S
H985 C991 0.950 . S
H986 C992 0.949 . S
C987 H982 0.950 . S
C987 C989 1.327 . S
C987 C993 1.429 . S
C988 C980 1.574 . S
C988 H983 0.949 . S
C988 C994 1.368 . S
C989 C973 1.349 . S
C989 H981 0.950 . S
C989 C987 1.327 . S
C990 C978 1.349 . S
C990 H984 0.950 . S
C990 C991 1.327 . S
C991 H985 0.950 . S
C991 C990 1.327 . S
C991 C995 1.429 . S
C992 C975 1.574 . S
C992 H986 0.949 . S
C992 C996 1.368 . S
C993 C974 1.429 . S
C993 C987 1.429 . S
C993 C994 1.523 . S
C994 C975 1.368 . S
C994 C988 1.368 . S
C994 C993 1.523 . S
C995 C979 1.429 . S
C995 C991 1.429 . S
C995 C996 1.523 . S
C996 C980 1.368 . S
C996 C992 1.368 . S
C996 C995 1.523 . S
H997 C972 0.950 . S
H998 C974 0.950 . S
H999 C975 0.949 . S
H1000 C977 0.950 . S
H1001 C979 0.950 . S
C1002 C1003 1.349 . S
C1002 C1004 1.327 . S
C1002 H1027 0.950 . S
C1003 C1002 1.349 . S
C1003 C1019 1.349 . S
C1004 C1002 1.327 . S
C1004 C1023 1.429 . S
C1004 H1028 0.950 . S
C1005 C1022 1.574 . S
C1005 C1024 1.368 . S
C1005 H1029 0.949 . S
H1006 C1010 0.949 . S
C1007 C1008 1.349 . S
C1007 C1009 1.327 . S
C1007 H1030 0.950 . S
C1008 C1007 1.349 . S
C1008 C1020 1.349 . S
C1009 C1007 1.327 . S
C1009 C1025 1.429 . S
C1009 H1031 0.950 . S
C1010 H1006 0.949 . S
C1010 C1018 1.574 . S
C1010 C1026 1.368 . S
H1011 C1019 0.950 . S
H1012 C1017 0.950 . S
H1013 C1018 0.949 . S
H1014 C1020 0.950 . S
H1015 C1021 0.950 . S
H1016 C1022 0.949 . S
C1017 H1012 0.950 . S
C1017 C1019 1.327 . S
C1017 C1023 1.429 . S
C1018 C1010 1.574 . S
C1018 H1013 0.949 . S
C1018 C1024 1.368 . S
C1019 C1003 1.349 . S
C1019 H1011 0.950 . S
C1019 C1017 1.327 . S
C1020 C1008 1.349 . S
C1020 H1014 0.950 . S
C1020 C1021 1.327 . S
C1021 H1015 0.950 . S
C1021 C1020 1.327 . S
C1021 C1025 1.429 . S
C1022 C1005 1.574 . S
C1022 H1016 0.949 . S
C1022 C1026 1.368 . S
C1023 C1004 1.429 . S
C1023 C1017 1.429 . S
C1023 C1024 1.523 . S
C1024 C1005 1.368 . S
C1024 C1018 1.368 . S
C1024 C1023 1.523 . S
C1025 C1009 1.429 . S
C1025 C1021 1.429 . S
C1025 C1026 1.523 . S
C1026 C1010 1.368 . S
C1026 C1022 1.368 . S
C1026 C1025 1.523 . S
H1027 C1002 0.950 . S
H1028 C1004 0.950 . S
H1029 C1005 0.949 . S
H1030 C1007 0.950 . S
H1031 C1009 0.950 . S
C1032 C1033 1.349 . S
C1032 C1034 1.327 . S
C1032 H1057 0.950 . S
C1033 C1032 1.349 . S
C1033 C1049 1.349 . S
C1034 C1032 1.327 . S
C1034 C1053 1.429 . S
C1034 H1058 0.950 . S
C1035 C1052 1.574 . S
C1035 C1054 1.368 . S
C1035 H1059 0.949 . S
H1036 C1040 0.949 . S
C1037 C1038 1.349 . S
C1037 C1039 1.327 . S
C1037 H1060 0.950 . S
C1038 C1037 1.349 . S
C1038 C1050 1.349 . S
C1039 C1037 1.327 . S
C1039 C1055 1.429 . S
C1039 H1061 0.950 . S
C1040 H1036 0.949 . S
C1040 C1048 1.574 . S
C1040 C1056 1.368 . S
H1041 C1049 0.950 . S
H1042 C1047 0.950 . S
H1043 C1048 0.949 . S
H1044 C1050 0.950 . S
H1045 C1051 0.950 . S
H1046 C1052 0.949 . S
C1047 H1042 0.950 . S
C1047 C1049 1.327 . S
C1047 C1053 1.429 . S
C1048 C1040 1.574 . S
C1048 H1043 0.949 . S
C1048 C1054 1.368 . S
C1049 C1033 1.349 . S
C1049 H1041 0.950 . S
C1049 C1047 1.327 . S
C1050 C1038 1.349 . S
C1050 H1044 0.950 . S
C1050 C1051 1.327 . S
C1051 H1045 0.950 . S
C1051 C1050 1.327 . S
C1051 C1055 1.429 . S
C1052 C1035 1.574 . S
C1052 H1046 0.949 . S
C1052 C1056 1.368 . S
C1053 C1034 1.429 . S
C1053 C1047 1.429 . S
C1053 C1054 1.523 . S
C1054 C1035 1.368 . S
C1054 C1048 1.368 . S
C1054 C1053 1.523 . S
C1055 C1039 1.429 . S
C1055 C1051 1.429 . S
C1055 C1056 1.523 . S
C1056 C1040 1.368 . S
C1056 C1052 1.368 . S
C1056 C1055 1.523 . S
H1057 C1032 0.950 . S
H1058 C1034 0.950 . S
H1059 C1035 0.949 . S
H1060 C1037 0.950 . S
H1061 C1039 0.950 . S
C1062 C1063 1.349 . S
C1062 C1064 1.327 . S
C1062 H1087 0.950 . S
C1063 C1062 1.349 . S
C1063 C1079 1.349 . S
C1064 C1062 1.327 . S
C1064 C1083 1.429 . S
C1064 H1088 0.950 . S
C1065 C1082 1.574 . S
C1065 C1084 1.368 1_554 S
C1065 H1089 0.949 . S
H1066 C1070 0.949 . S
C1067 C1068 1.349 . S
C1067 C1069 1.327 . S
C1067 H1090 0.950 . S
C1068 C1067 1.349 . S
C1068 C1080 1.349 . S
C1069 C1067 1.327 . S
C1069 C1085 1.429 . S
C1069 H1091 0.950 . S
C1070 H1066 0.949 . S
C1070 C1078 1.574 . S
C1070 C1086 1.368 1_556 S
H1071 C1079 0.950 . S
H1072 C1077 0.950 1_554 S
H1073 C1078 0.949 . S
H1074 C1080 0.950 . S
H1075 C1081 0.950 1_556 S
H1076 C1082 0.949 . S
C1077 H1072 0.950 1_556 S
C1077 C1079 1.327 . S
C1077 C1083 1.429 . S
C1078 C1070 1.574 . S
C1078 H1073 0.949 . S
C1078 C1084 1.368 . S
C1079 C1063 1.349 . S
C1079 H1071 0.950 . S
C1079 C1077 1.327 . S
C1080 C1068 1.349 . S
C1080 H1074 0.950 . S
C1080 C1081 1.327 . S
C1081 H1075 0.950 1_554 S
C1081 C1080 1.327 . S
C1081 C1085 1.429 . S
C1082 C1065 1.574 . S
C1082 H1076 0.949 . S
C1082 C1086 1.368 . S
C1083 C1064 1.429 . S
C1083 C1077 1.429 . S
C1083 C1084 1.523 . S
C1084 C1065 1.368 1_556 S
C1084 C1078 1.368 . S
C1084 C1083 1.523 . S
C1085 C1069 1.429 . S
C1085 C1081 1.429 . S
C1085 C1086 1.523 . S
C1086 C1070 1.368 1_554 S
C1086 C1082 1.368 . S
C1086 C1085 1.523 . S
H1087 C1062 0.950 . S
H1088 C1064 0.950 . S
H1089 C1065 0.949 . S
H1090 C1067 0.950 . S
H1091 C1069 0.950 . S
C1092 C1093 1.349 . S
C1092 C1094 1.327 . S
C1092 H1117 0.950 . S
C1093 C1092 1.349 . S
C1093 C1109 1.349 . S
C1094 C1092 1.327 . S
C1094 C1113 1.429 . S
C1094 H1118 0.950 . S
C1095 C1112 1.574 . S
C1095 C1114 1.368 . S
C1095 H1119 0.949 . S
H1096 C1100 0.949 . S
C1097 C1098 1.349 . S
C1097 C1099 1.327 . S
C1097 H1120 0.950 . S
C1098 C1097 1.349 . S
C1098 C1110 1.349 . S
C1099 C1097 1.327 . S
C1099 C1115 1.429 . S
C1099 H1121 0.950 . S
C1100 H1096 0.949 . S
C1100 C1108 1.574 . S
C1100 C1116 1.368 . S
H1101 C1109 0.950 . S
H1102 C1107 0.950 . S
H1103 C1108 0.949 . S
H1104 C1110 0.950 . S
H1105 C1111 0.950 . S
H1106 C1112 0.949 . S
C1107 H1102 0.950 . S
C1107 C1109 1.327 . S
C1107 C1113 1.429 . S
C1108 C1100 1.574 . S
C1108 H1103 0.949 . S
C1108 C1114 1.368 . S
C1109 C1093 1.349 . S
C1109 H1101 0.950 . S
C1109 C1107 1.327 . S
C1110 C1098 1.349 . S
C1110 H1104 0.950 . S
C1110 C1111 1.327 . S
C1111 H1105 0.950 . S
C1111 C1110 1.327 . S
C1111 C1115 1.429 . S
C1112 C1095 1.574 . S
C1112 H1106 0.949 . S
C1112 C1116 1.368 . S
C1113 C1094 1.429 . S
C1113 C1107 1.429 . S
C1113 C1114 1.523 . S
C1114 C1095 1.368 . S
C1114 C1108 1.368 . S
C1114 C1113 1.523 . S
C1115 C1099 1.429 . S
C1115 C1111 1.429 . S
C1115 C1116 1.523 . S
C1116 C1100 1.368 . S
C1116 C1112 1.368 . S
C1116 C1115 1.523 . S
H1117 C1092 0.950 . S
H1118 C1094 0.950 . S
H1119 C1095 0.949 . S
H1120 C1097 0.950 . S
H1121 C1099 0.950 . S
C1122 C1123 1.349 . S
C1122 C1124 1.327 . S
C1122 H1147 0.950 . S
C1123 C1122 1.349 . S
C1123 C1139 1.349 . S
C1124 C1122 1.327 . S
C1124 C1143 1.429 . S
C1124 H1148 0.950 . S
C1125 C1142 1.574 . S
C1125 C1144 1.368 . S
C1125 H1149 0.949 . S
H1126 C1130 0.949 . S
C1127 C1128 1.349 . S
C1127 C1129 1.327 . S
C1127 H1150 0.950 . S
C1128 C1127 1.349 . S
C1128 C1140 1.349 . S
C1129 C1127 1.327 . S
C1129 C1145 1.429 . S
C1129 H1151 0.950 . S
C1130 H1126 0.949 . S
C1130 C1138 1.574 . S
C1130 C1146 1.368 . S
H1131 C1139 0.950 . S
H1132 C1137 0.950 . S
H1133 C1138 0.949 . S
H1134 C1140 0.950 . S
H1135 C1141 0.950 . S
H1136 C1142 0.949 . S
C1137 H1132 0.950 . S
C1137 C1139 1.327 . S
C1137 C1143 1.429 . S
C1138 C1130 1.574 . S
C1138 H1133 0.949 . S
C1138 C1144 1.368 . S
C1139 C1123 1.349 . S
C1139 H1131 0.950 . S
C1139 C1137 1.327 . S
C1140 C1128 1.349 . S
C1140 H1134 0.950 . S
C1140 C1141 1.327 . S
C1141 H1135 0.950 . S
C1141 C1140 1.327 . S
C1141 C1145 1.429 . S
C1142 C1125 1.574 . S
C1142 H1136 0.949 . S
C1142 C1146 1.368 . S
C1143 C1124 1.429 . S
C1143 C1137 1.429 . S
C1143 C1144 1.523 . S
C1144 C1125 1.368 . S
C1144 C1138 1.368 . S
C1144 C1143 1.523 . S
C1145 C1129 1.429 . S
C1145 C1141 1.429 . S
C1145 C1146 1.523 . S
C1146 C1130 1.368 . S
C1146 C1142 1.368 . S
C1146 C1145 1.523 . S
H1147 C1122 0.950 . S
H1148 C1124 0.950 . S
H1149 C1125 0.949 . S
H1150 C1127 0.950 . S
H1151 C1129 0.950 . S
C1152 C1153 1.349 . S
C1152 C1154 1.327 . S
C1152 H1177 0.950 . S
C1153 C1152 1.349 . S
C1153 C1169 1.349 . S
C1154 C1152 1.327 . S
C1154 C1173 1.429 . S
C1154 H1178 0.950 . S
C1155 C1172 1.574 . S
C1155 C1174 1.368 . S
C1155 H1179 0.949 . S
H1156 C1160 0.949 . S
C1157 C1158 1.349 . S
C1157 C1159 1.327 . S
C1157 H1180 0.950 . S
C1158 C1157 1.349 . S
C1158 C1170 1.349 . S
C1159 C1157 1.327 . S
C1159 C1175 1.429 . S
C1159 H1181 0.950 . S
C1160 H1156 0.949 . S
C1160 C1168 1.574 . S
C1160 C1176 1.368 . S
H1161 C1169 0.950 . S
H1162 C1167 0.950 . S
H1163 C1168 0.949 . S
H1164 C1170 0.950 . S
H1165 C1171 0.950 . S
H1166 C1172 0.949 . S
C1167 H1162 0.950 . S
C1167 C1169 1.327 . S
C1167 C1173 1.429 . S
C1168 C1160 1.574 . S
C1168 H1163 0.949 . S
C1168 C1174 1.368 . S
C1169 C1153 1.349 . S
C1169 H1161 0.950 . S
C1169 C1167 1.327 . S
C1170 C1158 1.349 . S
C1170 H1164 0.950 . S
C1170 C1171 1.327 . S
C1171 H1165 0.950 . S
C1171 C1170 1.327 . S
C1171 C1175 1.429 . S
C1172 C1155 1.574 . S
C1172 H1166 0.949 . S
C1172 C1176 1.368 . S
C1173 C1154 1.429 . S
C1173 C1167 1.429 . S
C1173 C1174 1.523 . S
C1174 C1155 1.368 . S
C1174 C1168 1.368 . S
C1174 C1173 1.523 . S
C1175 C1159 1.429 . S
C1175 C1171 1.429 . S
C1175 C1176 1.523 . S
C1176 C1160 1.368 . S
C1176 C1172 1.368 . S
C1176 C1175 1.523 . S
H1177 C1152 0.950 . S
H1178 C1154 0.950 . S
H1179 C1155 0.949 . S
H1180 C1157 0.950 . S
H1181 C1159 0.950 . S
C1182 C1183 1.349 . S
C1182 C1184 1.327 . S
C1182 H1207 0.950 . S
C1183 C1182 1.349 . S
C1183 C1199 1.349 . S
C1184 C1182 1.327 . S
C1184 C1203 1.429 . S
C1184 H1208 0.950 . S
C1185 C1202 1.595 . S
C1185 C1204 1.347 1_565 S
C1185 H1209 0.949 . S
H1186 C1190 0.949 . S
C1187 C1188 1.349 . S
C1187 C1189 1.327 . S
C1187 H1210 0.950 . S
C1188 C1187 1.349 . S
C1188 C1200 1.349 . S
C1189 C1187 1.327 . S
C1189 C1205 1.429 . S
C1189 H1211 0.950 . S
C1190 H1186 0.949 . S
C1190 C1198 1.595 . S
C1190 C1206 1.347 1_545 S
H1191 C1199 0.950 . S
H1192 C1197 0.950 . S
H1193 C1198 0.949 . S
H1194 C1200 0.950 . S
H1195 C1201 0.950 . S
H1196 C1202 0.949 . S
C1197 H1192 0.950 . S
C1197 C1199 1.327 . S
C1197 C1203 1.429 . S
C1198 C1190 1.595 . S
C1198 H1193 0.949 . S
C1198 C1204 1.368 1_455 S
C1199 C1183 1.349 . S
C1199 H1191 0.950 . S
C1199 C1197 1.327 . S
C1200 C1188 1.349 . S
C1200 H1194 0.950 . S
C1200 C1201 1.327 . S
C1201 H1195 0.950 . S
C1201 C1200 1.327 . S
C1201 C1205 1.429 . S
C1202 C1185 1.595 . S
C1202 H1196 0.949 . S
C1202 C1206 1.368 1_655 S
C1203 C1184 1.429 . S
C1203 C1197 1.429 . S
C1203 C1204 1.523 . S
C1204 C1185 1.347 1_545 S
C1204 C1198 1.368 1_655 S
C1204 C1203 1.523 . S
C1205 C1189 1.429 . S
C1205 C1201 1.429 . S
C1205 C1206 1.523 . S
C1206 C1190 1.347 1_565 S
C1206 C1202 1.368 1_455 S
C1206 C1205 1.523 . S
H1207 C1182 0.950 . S
H1208 C1184 0.950 . S
H1209 C1185 0.949 . S
H1210 C1187 0.950 . S
H1211 C1189 0.950 . S
C1212 C1213 1.349 . S
C1212 C1214 1.327 . S
C1212 H1237 0.950 . S
C1213 C1212 1.349 . S
C1213 C1229 1.349 . S
C1214 C1212 1.327 . S
C1214 C1233 1.429 . S
C1214 H1238 0.950 . S
C1215 C1232 1.574 . S
C1215 C1234 1.368 . S
C1215 H1239 0.949 . S
H1216 C1220 0.949 . S
C1217 C1218 1.349 . S
C1217 C1219 1.327 . S
C1217 H1240 0.950 . S
C1218 C1217 1.349 . S
C1218 C1230 1.349 . S
C1219 C1217 1.327 . S
C1219 C1235 1.429 . S
C1219 H1241 0.950 . S
C1220 H1216 0.949 . S
C1220 C1228 1.574 . S
C1220 C1236 1.368 . S
H1221 C1229 0.950 . S
H1222 C1227 0.950 . S
H1223 C1228 0.949 . S
H1224 C1230 0.950 . S
H1225 C1231 0.950 . S
H1226 C1232 0.949 . S
C1227 H1222 0.950 . S
C1227 C1229 1.327 . S
C1227 C1233 1.429 . S
C1228 C1220 1.574 . S
C1228 H1223 0.949 . S
C1228 C1234 1.368 . S
C1229 C1213 1.349 . S
C1229 H1221 0.950 . S
C1229 C1227 1.327 . S
C1230 C1218 1.349 . S
C1230 H1224 0.950 . S
C1230 C1231 1.327 . S
C1231 H1225 0.950 . S
C1231 C1230 1.327 . S
C1231 C1235 1.429 . S
C1232 C1215 1.574 . S
C1232 H1226 0.949 . S
C1232 C1236 1.368 . S
C1233 C1214 1.429 . S
C1233 C1227 1.429 . S
C1233 C1234 1.523 . S
C1234 C1215 1.368 . S
C1234 C1228 1.368 . S
C1234 C1233 1.523 . S
C1235 C1219 1.429 . S
C1235 C1231 1.429 . S
C1235 C1236 1.523 . S
C1236 C1220 1.368 . S
C1236 C1232 1.368 . S
C1236 C1235 1.523 . S
H1237 C1212 0.950 . S
H1238 C1214 0.950 . S
H1239 C1215 0.949 . S
H1240 C1217 0.950 . S
H1241 C1219 0.950 . S
C1242 C1243 1.349 1_556 S
C1242 C1244 1.327 . S
C1242 H1267 0.950 . S
C1243 C1242 1.349 1_554 S
C1243 C1259 1.349 . S
C1244 C1242 1.327 . S
C1244 C1263 1.429 1_556 S
C1244 H1268 0.950 . S
C1245 C1262 1.534 1_545 S
C1245 C1264 1.405 . S
C1245 H1269 0.954 . S
H1246 C1250 0.954 . S
C1247 C1248 1.349 1_554 S
C1247 C1249 1.327 . S
C1247 H1270 0.950 . S
C1248 C1247 1.349 1_556 S
C1248 C1260 1.349 . S
C1249 C1247 1.327 . S
C1249 C1265 1.429 1_554 S
C1249 H1271 0.950 . S
C1250 H1246 0.954 . S
C1250 C1258 1.534 1_565 S
C1250 C1266 1.405 . S
H1251 C1259 0.950 . S
H1252 C1257 0.950 . S
H1253 C1258 0.949 . S
H1254 C1260 0.950 . S
H1255 C1261 0.950 . S
H1256 C1262 0.949 . S
C1257 H1252 0.950 . S
C1257 C1259 1.327 . S
C1257 C1263 1.429 . S
C1258 C1250 1.534 1_545 S
C1258 H1253 0.949 . S
C1258 C1264 1.368 1_556 S
C1259 C1243 1.349 . S
C1259 H1251 0.950 . S
C1259 C1257 1.327 . S
C1260 C1248 1.349 . S
C1260 H1254 0.950 . S
C1260 C1261 1.327 . S
C1261 H1255 0.950 . S
C1261 C1260 1.327 . S
C1261 C1265 1.429 . S
C1262 C1245 1.534 1_565 S
C1262 H1256 0.949 . S
C1262 C1266 1.368 1_554 S
C1263 C1244 1.429 1_554 S
C1263 C1257 1.429 . S
C1263 C1264 1.523 . S
C1264 C1245 1.405 . S
C1264 C1258 1.368 1_554 S
C1264 C1263 1.523 . S
C1265 C1249 1.429 1_556 S
C1265 C1261 1.429 . S
C1265 C1266 1.523 . S
C1266 C1250 1.405 . S
C1266 C1262 1.368 1_556 S
C1266 C1265 1.523 . S
H1267 C1242 0.950 . S
H1268 C1244 0.950 . S
H1269 C1245 0.954 . S
H1270 C1247 0.950 . S
H1271 C1249 0.950 . S
C1272 C1273 1.349 . S
C1272 C1274 1.327 . S
C1272 H1297 0.950 . S
C1273 C1272 1.349 . S
C1273 C1289 1.349 . S
C1274 C1272 1.327 . S
C1274 C1293 1.429 . S
C1274 H1298 0.950 . S
C1275 C1292 1.574 . S
C1275 C1294 1.368 . S
C1275 H1299 0.949 . S
H1276 C1280 0.949 . S
C1277 C1278 1.349 . S
C1277 C1279 1.327 . S
C1277 H1300 0.950 . S
C1278 C1277 1.349 . S
C1278 C1290 1.349 . S
C1279 C1277 1.327 . S
C1279 C1295 1.429 . S
C1279 H1301 0.950 . S
C1280 H1276 0.949 . S
C1280 C1288 1.574 . S
C1280 C1296 1.368 . S
H1281 C1289 0.950 . S
H1282 C1287 0.950 . S
H1283 C1288 0.949 . S
H1284 C1290 0.950 . S
H1285 C1291 0.950 . S
H1286 C1292 0.949 . S
C1287 H1282 0.950 . S
C1287 C1289 1.327 . S
C1287 C1293 1.429 . S
C1288 C1280 1.574 . S
C1288 H1283 0.949 . S
C1288 C1294 1.368 . S
C1289 C1273 1.349 . S
C1289 H1281 0.950 . S
C1289 C1287 1.327 . S
C1290 C1278 1.349 . S
C1290 H1284 0.950 . S
C1290 C1291 1.327 . S
C1291 H1285 0.950 . S
C1291 C1290 1.327 . S
C1291 C1295 1.429 . S
C1292 C1275 1.574 . S
C1292 H1286 0.949 . S
C1292 C1296 1.368 . S
C1293 C1274 1.429 . S
C1293 C1287 1.429 . S
C1293 C1294 1.523 . S
C1294 C1275 1.368 . S
C1294 C1288 1.368 . S
C1294 C1293 1.523 . S
C1295 C1279 1.429 . S
C1295 C1291 1.429 . S
C1295 C1296 1.523 . S
C1296 C1280 1.368 . S
C1296 C1292 1.368 . S
C1296 C1295 1.523 . S
H1297 C1272 0.950 . S
H1298 C1274 0.950 . S
H1299 C1275 0.949 . S
H1300 C1277 0.950 . S
H1301 C1279 0.950 . S
C1302 C1303 1.349 . S
C1302 C1304 1.327 . S
C1302 H1327 0.950 . S
C1303 C1302 1.349 . S
C1303 C1319 1.349 . S
C1304 C1302 1.327 . S
C1304 C1323 1.429 . S
C1304 H1328 0.950 . S
C1305 C1322 1.574 1_565 S
C1305 C1324 1.368 . S
C1305 H1329 0.949 . S
H1306 C1310 0.949 . S
C1307 C1308 1.349 . S
C1307 C1309 1.327 . S
C1307 H1330 0.950 . S
C1308 C1307 1.349 . S
C1308 C1320 1.349 . S
C1309 C1307 1.327 . S
C1309 C1325 1.429 . S
C1309 H1331 0.950 . S
C1310 H1306 0.949 . S
C1310 C1318 1.574 1_545 S
C1310 C1326 1.368 . S
H1311 C1319 0.950 . S
H1312 C1317 0.950 . S
H1313 C1318 0.949 . S
H1314 C1320 0.950 . S
H1315 C1321 0.950 . S
H1316 C1322 0.949 . S
C1317 H1312 0.950 . S
C1317 C1319 1.327 . S
C1317 C1323 1.429 . S
C1318 C1310 1.574 1_565 S
C1318 H1313 0.949 . S
C1318 C1324 1.368 . S
C1319 C1303 1.349 . S
C1319 H1311 0.950 . S
C1319 C1317 1.327 . S
C1320 C1308 1.349 . S
C1320 H1314 0.950 . S
C1320 C1321 1.327 . S
C1321 H1315 0.950 . S
C1321 C1320 1.327 . S
C1321 C1325 1.429 . S
C1322 C1305 1.574 1_545 S
C1322 H1316 0.949 . S
C1322 C1326 1.368 . S
C1323 C1304 1.429 . S
C1323 C1317 1.429 . S
C1323 C1324 1.523 . S
C1324 C1305 1.368 . S
C1324 C1318 1.368 . S
C1324 C1323 1.523 . S
C1325 C1309 1.429 . S
C1325 C1321 1.429 . S
C1325 C1326 1.523 . S
C1326 C1310 1.368 . S
C1326 C1322 1.368 . S
C1326 C1325 1.523 . S
H1327 C1302 0.950 . S
H1328 C1304 0.950 . S
H1329 C1305 0.949 . S
H1330 C1307 0.950 . S
H1331 C1309 0.950 . S
C1332 C1333 1.349 . S
C1332 C1334 1.327 . S
C1332 H1357 0.950 . S
C1333 C1332 1.349 . S
C1333 C1349 1.349 . S
C1334 C1332 1.327 . S
C1334 C1353 1.429 . S
C1334 H1358 0.950 . S
C1335 C1352 1.574 . S
C1335 C1354 1.368 . S
C1335 H1359 0.949 . S
H1336 C1340 0.949 . S
C1337 C1338 1.349 . S
C1337 C1339 1.327 . S
C1337 H1360 0.950 . S
C1338 C1337 1.349 . S
C1338 C1350 1.349 . S
C1339 C1337 1.327 . S
C1339 C1355 1.429 . S
C1339 H1361 0.950 . S
C1340 H1336 0.949 . S
C1340 C1348 1.574 . S
C1340 C1356 1.368 . S
H1341 C1349 0.950 . S
H1342 C1347 0.950 . S
H1343 C1348 0.949 . S
H1344 C1350 0.950 . S
H1345 C1351 0.950 . S
H1346 C1352 0.949 . S
C1347 H1342 0.950 . S
C1347 C1349 1.327 . S
C1347 C1353 1.429 . S
C1348 C1340 1.574 . S
C1348 H1343 0.949 . S
C1348 C1354 1.368 . S
C1349 C1333 1.349 . S
C1349 H1341 0.950 . S
C1349 C1347 1.327 . S
C1350 C1338 1.349 . S
C1350 H1344 0.950 . S
C1350 C1351 1.327 . S
C1351 H1345 0.950 . S
C1351 C1350 1.327 . S
C1351 C1355 1.429 . S
C1352 C1335 1.574 . S
C1352 H1346 0.949 . S
C1352 C1356 1.368 . S
C1353 C1334 1.429 . S
C1353 C1347 1.429 . S
C1353 C1354 1.523 . S
C1354 C1335 1.368 . S
C1354 C1348 1.368 . S
C1354 C1353 1.523 . S
C1355 C1339 1.429 . S
C1355 C1351 1.429 . S
C1355 C1356 1.523 . S
C1356 C1340 1.368 . S
C1356 C1352 1.368 . S
C1356 C1355 1.523 . S
H1357 C1332 0.950 . S
H1358 C1334 0.950 . S
H1359 C1335 0.949 . S
H1360 C1337 0.950 . S
H1361 C1339 0.950 . S
C1362 C1363 1.349 1_556 S
C1362 C1364 1.327 . S
C1362 H1387 0.950 . S
C1363 C1362 1.349 1_554 S
C1363 C1379 1.349 . S
C1364 C1362 1.327 . S
C1364 C1383 1.429 1_556 S
C1364 H1388 0.950 . S
C1365 C1382 1.549 1_565 S
C1365 C1384 1.368 1_455 S
C1365 H1389 0.949 . S
H1366 C1370 0.949 . S
C1367 C1368 1.349 1_554 S
C1367 C1369 1.327 . S
C1367 H1390 0.950 . S
C1368 C1367 1.349 1_556 S
C1368 C1380 1.349 . S
C1369 C1367 1.327 . S
C1369 C1385 1.429 1_554 S
C1369 H1391 0.950 . S
C1370 H1366 0.949 . S
C1370 C1378 1.549 1_545 S
C1370 C1386 1.368 1_655 S
H1371 C1379 0.950 . S
H1372 C1377 0.950 . S
H1373 C1378 0.951 . S
H1374 C1380 0.950 . S
H1375 C1381 0.950 . S
H1376 C1382 0.951 . S
C1377 H1372 0.950 . S
C1377 C1379 1.327 . S
C1377 C1383 1.429 . S
C1378 C1370 1.549 1_565 S
C1378 H1373 0.951 . S
C1378 C1384 1.391 1_556 S
C1379 C1363 1.349 . S
C1379 H1371 0.950 . S
C1379 C1377 1.327 . S
C1380 C1368 1.349 . S
C1380 H1374 0.950 . S
C1380 C1381 1.327 . S
C1381 H1375 0.950 . S
C1381 C1380 1.327 . S
C1381 C1385 1.429 . S
C1382 C1365 1.549 1_545 S
C1382 H1376 0.951 . S
C1382 C1386 1.391 1_554 S
C1383 C1364 1.429 1_554 S
C1383 C1377 1.429 . S
C1383 C1384 1.523 . S
C1384 C1365 1.368 1_655 S
C1384 C1378 1.391 1_554 S
C1384 C1383 1.523 . S
C1385 C1369 1.429 1_556 S
C1385 C1381 1.429 . S
C1385 C1386 1.523 . S
C1386 C1370 1.368 1_455 S
C1386 C1382 1.391 1_556 S
C1386 C1385 1.523 . S
H1387 C1362 0.950 . S
H1388 C1364 0.950 . S
H1389 C1365 0.949 . S
H1390 C1367 0.950 . S
H1391 C1369 0.950 . S
C1392 C1393 1.349 . S
C1392 C1394 1.327 . S
C1392 H1417 0.950 . S
C1393 C1392 1.349 . S
C1393 C1409 1.349 . S
C1394 C1392 1.327 . S
C1394 C1413 1.429 . S
C1394 H1418 0.950 . S
C1395 C1412 1.574 . S
C1395 C1414 1.368 . S
C1395 H1419 0.949 . S
H1396 C1400 0.949 . S
C1397 C1398 1.349 . S
C1397 C1399 1.327 . S
C1397 H1420 0.950 . S
C1398 C1397 1.349 . S
C1398 C1410 1.349 . S
C1399 C1397 1.327 . S
C1399 C1415 1.429 . S
C1399 H1421 0.950 . S
C1400 H1396 0.949 . S
C1400 C1408 1.574 . S
C1400 C1416 1.368 . S
H1401 C1409 0.950 . S
H1402 C1407 0.950 . S
H1403 C1408 0.949 . S
H1404 C1410 0.950 . S
H1405 C1411 0.950 . S
H1406 C1412 0.949 . S
C1407 H1402 0.950 . S
C1407 C1409 1.327 . S
C1407 C1413 1.429 . S
C1408 C1400 1.574 . S
C1408 H1403 0.949 . S
C1408 C1414 1.368 . S
C1409 C1393 1.349 . S
C1409 H1401 0.950 . S
C1409 C1407 1.327 . S
C1410 C1398 1.349 . S
C1410 H1404 0.950 . S
C1410 C1411 1.327 . S
C1411 H1405 0.950 . S
C1411 C1410 1.327 . S
C1411 C1415 1.429 . S
C1412 C1395 1.574 . S
C1412 H1406 0.949 . S
C1412 C1416 1.368 . S
C1413 C1394 1.429 . S
C1413 C1407 1.429 . S
C1413 C1414 1.523 . S
C1414 C1395 1.368 . S
C1414 C1408 1.368 . S
C1414 C1413 1.523 . S
C1415 C1399 1.429 . S
C1415 C1411 1.429 . S
C1415 C1416 1.523 . S
C1416 C1400 1.368 . S
C1416 C1412 1.368 . S
C1416 C1415 1.523 . S
H1417 C1392 0.950 . S
H1418 C1394 0.950 . S
H1419 C1395 0.949 . S
H1420 C1397 0.950 . S
H1421 C1399 0.950 . S
C1422 C1423 1.349 . S
C1422 C1424 1.327 . S
C1422 H1447 0.950 . S
C1423 C1422 1.349 . S
C1423 C1439 1.349 . S
C1424 C1422 1.327 . S
C1424 C1443 1.429 . S
C1424 H1448 0.950 . S
C1425 C1442 1.574 . S
C1425 C1444 1.368 . S
C1425 H1449 0.949 . S
H1426 C1430 0.949 . S
C1427 C1428 1.349 . S
C1427 C1429 1.327 . S
C1427 H1450 0.950 . S
C1428 C1427 1.349 . S
C1428 C1440 1.349 . S
C1429 C1427 1.327 . S
C1429 C1445 1.429 . S
C1429 H1451 0.950 . S
C1430 H1426 0.949 . S
C1430 C1438 1.574 . S
C1430 C1446 1.368 . S
H1431 C1439 0.950 . S
H1432 C1437 0.950 . S
H1433 C1438 0.949 . S
H1434 C1440 0.950 . S
H1435 C1441 0.950 . S
H1436 C1442 0.949 . S
C1437 H1432 0.950 . S
C1437 C1439 1.327 . S
C1437 C1443 1.429 . S
C1438 C1430 1.574 . S
C1438 H1433 0.949 . S
C1438 C1444 1.368 . S
C1439 C1423 1.349 . S
C1439 H1431 0.950 . S
C1439 C1437 1.327 . S
C1440 C1428 1.349 . S
C1440 H1434 0.950 . S
C1440 C1441 1.327 . S
C1441 H1435 0.950 . S
C1441 C1440 1.327 . S
C1441 C1445 1.429 . S
C1442 C1425 1.574 . S
C1442 H1436 0.949 . S
C1442 C1446 1.368 . S
C1443 C1424 1.429 . S
C1443 C1437 1.429 . S
C1443 C1444 1.523 . S
C1444 C1425 1.368 . S
C1444 C1438 1.368 . S
C1444 C1443 1.523 . S
C1445 C1429 1.429 . S
C1445 C1441 1.429 . S
C1445 C1446 1.523 . S
C1446 C1430 1.368 . S
C1446 C1442 1.368 . S
C1446 C1445 1.523 . S
H1447 C1422 0.950 . S
H1448 C1424 0.950 . S
H1449 C1425 0.949 . S
H1450 C1427 0.950 . S
H1451 C1429 0.950 . S
C1452 C1453 1.349 . S
C1452 C1454 1.327 . S
C1452 H1477 0.950 . S
C1453 C1452 1.349 . S
C1453 C1469 1.349 . S
C1454 C1452 1.327 . S
C1454 C1473 1.429 . S
C1454 H1478 0.950 . S
C1455 C1472 1.574 . S
C1455 C1474 1.368 . S
C1455 H1479 0.949 . S
H1456 C1460 0.949 . S
C1457 C1458 1.349 . S
C1457 C1459 1.327 . S
C1457 H1480 0.950 . S
C1458 C1457 1.349 . S
C1458 C1470 1.349 . S
C1459 C1457 1.327 . S
C1459 C1475 1.429 . S
C1459 H1481 0.950 . S
C1460 H1456 0.949 . S
C1460 C1468 1.574 . S
C1460 C1476 1.368 . S
H1461 C1469 0.950 . S
H1462 C1467 0.950 . S
H1463 C1468 0.949 . S
H1464 C1470 0.950 . S
H1465 C1471 0.950 . S
H1466 C1472 0.949 . S
C1467 H1462 0.950 . S
C1467 C1469 1.327 . S
C1467 C1473 1.429 . S
C1468 C1460 1.574 . S
C1468 H1463 0.949 . S
C1468 C1474 1.368 . S
C1469 C1453 1.349 . S
C1469 H1461 0.950 . S
C1469 C1467 1.327 . S
C1470 C1458 1.349 . S
C1470 H1464 0.950 . S
C1470 C1471 1.327 . S
C1471 H1465 0.950 . S
C1471 C1470 1.327 . S
C1471 C1475 1.429 . S
C1472 C1455 1.574 . S
C1472 H1466 0.949 . S
C1472 C1476 1.368 . S
C1473 C1454 1.429 . S
C1473 C1467 1.429 . S
C1473 C1474 1.523 . S
C1474 C1455 1.368 . S
C1474 C1468 1.368 . S
C1474 C1473 1.523 . S
C1475 C1459 1.429 . S
C1475 C1471 1.429 . S
C1475 C1476 1.523 . S
C1476 C1460 1.368 . S
C1476 C1472 1.368 . S
C1476 C1475 1.523 . S
H1477 C1452 0.950 . S
H1478 C1454 0.950 . S
H1479 C1455 0.949 . S
H1480 C1457 0.950 . S
H1481 C1459 0.950 . S
C1482 C1483 1.349 . S
C1482 C1484 1.327 . S
C1482 H1507 0.950 . S
C1483 C1482 1.349 . S
C1483 C1499 1.349 . S
C1484 C1482 1.327 . S
C1484 C1503 1.429 . S
C1484 H1508 0.950 . S
C1485 C1502 1.574 . S
C1485 C1504 1.368 . S
C1485 H1509 0.949 . S
H1486 C1490 0.949 . S
C1487 C1488 1.349 . S
C1487 C1489 1.327 . S
C1487 H1510 0.950 . S
C1488 C1487 1.349 . S
C1488 C1500 1.349 . S
C1489 C1487 1.327 . S
C1489 C1505 1.429 . S
C1489 H1511 0.950 . S
C1490 H1486 0.949 . S
C1490 C1498 1.574 . S
C1490 C1506 1.368 . S
H1491 C1499 0.950 . S
H1492 C1497 0.950 . S
H1493 C1498 0.949 . S
H1494 C1500 0.950 . S
H1495 C1501 0.950 . S
H1496 C1502 0.949 . S
C1497 H1492 0.950 . S
C1497 C1499 1.327 . S
C1497 C1503 1.429 . S
C1498 C1490 1.574 . S
C1498 H1493 0.949 . S
C1498 C1504 1.368 . S
C1499 C1483 1.349 . S
C1499 H1491 0.950 . S
C1499 C1497 1.327 . S
C1500 C1488 1.349 . S
C1500 H1494 0.950 . S
C1500 C1501 1.327 . S
C1501 H1495 0.950 . S
C1501 C1500 1.327 . S
C1501 C1505 1.429 . S
C1502 C1485 1.574 . S
C1502 H1496 0.949 . S
C1502 C1506 1.368 . S
C1503 C1484 1.429 . S
C1503 C1497 1.429 . S
C1503 C1504 1.523 . S
C1504 C1485 1.368 . S
C1504 C1498 1.368 . S
C1504 C1503 1.523 . S
C1505 C1489 1.429 . S
C1505 C1501 1.429 . S
C1505 C1506 1.523 . S
C1506 C1490 1.368 . S
C1506 C1502 1.368 . S
C1506 C1505 1.523 . S
H1507 C1482 0.950 . S
H1508 C1484 0.950 . S
H1509 C1485 0.949 . S
H1510 C1487 0.950 . S
H1511 C1489 0.950 . S
C1512 C1513 1.349 1_556 S
C1512 C1514 1.327 . S
C1512 H1537 0.950 . S
C1513 C1512 1.349 1_554 S
C1513 C1529 1.349 . S
C1514 C1512 1.327 . S
C1514 C1533 1.429 1_556 S
C1514 H1538 0.950 . S
C1515 C1532 1.574 . S
C1515 C1534 1.368 . S
C1515 H1539 0.949 . S
H1516 C1520 0.949 . S
C1517 C1518 1.349 1_554 S
C1517 C1519 1.327 . S
C1517 H1540 0.950 . S
C1518 C1517 1.349 1_556 S
C1518 C1530 1.349 . S
C1519 C1517 1.327 . S
C1519 C1535 1.429 1_554 S
C1519 H1541 0.950 . S
C1520 H1516 0.949 . S
C1520 C1528 1.574 . S
C1520 C1536 1.368 . S
H1521 C1529 0.950 . S
H1522 C1527 0.950 . S
H1523 C1528 0.949 . S
H1524 C1530 0.950 . S
H1525 C1531 0.950 . S
H1526 C1532 0.949 . S
C1527 H1522 0.950 . S
C1527 C1529 1.327 . S
C1527 C1533 1.429 . S
C1528 C1520 1.574 . S
C1528 H1523 0.949 . S
C1528 C1534 1.368 1_556 S
C1529 C1513 1.349 . S
C1529 H1521 0.950 . S
C1529 C1527 1.327 . S
C1530 C1518 1.349 . S
C1530 H1524 0.950 . S
C1530 C1531 1.327 . S
C1531 H1525 0.950 . S
C1531 C1530 1.327 . S
C1531 C1535 1.429 . S
C1532 C1515 1.574 . S
C1532 H1526 0.949 . S
C1532 C1536 1.368 1_554 S
C1533 C1514 1.429 1_554 S
C1533 C1527 1.429 . S
C1533 C1534 1.523 . S
C1534 C1515 1.368 . S
C1534 C1528 1.368 1_554 S
C1534 C1533 1.523 . S
C1535 C1519 1.429 1_556 S
C1535 C1531 1.429 . S
C1535 C1536 1.523 . S
C1536 C1520 1.368 . S
C1536 C1532 1.368 1_556 S
C1536 C1535 1.523 . S
H1537 C1512 0.950 . S
H1538 C1514 0.950 . S
H1539 C1515 0.949 . S
H1540 C1517 0.950 . S
H1541 C1519 0.950 . S
C1542 C1543 1.349 . S
C1542 C1544 1.327 . S
C1542 H1567 0.950 . S
C1543 C1542 1.349 . S
C1543 C1559 1.349 . S
C1544 C1542 1.327 . S
C1544 C1563 1.429 . S
C1544 H1568 0.950 . S
C1545 C1562 1.574 1_455 S
C1545 C1564 1.368 . S
C1545 H1569 0.949 . S
H1546 C1550 0.949 . S
C1547 C1548 1.349 . S
C1547 C1549 1.327 . S
C1547 H1570 0.950 . S
C1548 C1547 1.349 . S
C1548 C1560 1.349 . S
C1549 C1547 1.327 . S
C1549 C1565 1.429 . S
C1549 H1571 0.950 . S
C1550 H1546 0.949 . S
C1550 C1558 1.574 1_655 S
C1550 C1566 1.368 . S
H1551 C1559 0.950 . S
H1552 C1557 0.950 . S
H1553 C1558 0.949 . S
H1554 C1560 0.950 . S
H1555 C1561 0.950 . S
H1556 C1562 0.949 . S
C1557 H1552 0.950 . S
C1557 C1559 1.327 . S
C1557 C1563 1.429 . S
C1558 C1550 1.574 1_455 S
C1558 H1553 0.949 . S
C1558 C1564 1.368 . S
C1559 C1543 1.349 . S
C1559 H1551 0.950 . S
C1559 C1557 1.327 . S
C1560 C1548 1.349 . S
C1560 H1554 0.950 . S
C1560 C1561 1.327 . S
C1561 H1555 0.950 . S
C1561 C1560 1.327 . S
C1561 C1565 1.429 . S
C1562 C1545 1.574 1_655 S
C1562 H1556 0.949 . S
C1562 C1566 1.368 . S
C1563 C1544 1.429 . S
C1563 C1557 1.429 . S
C1563 C1564 1.523 . S
C1564 C1545 1.368 . S
C1564 C1558 1.368 . S
C1564 C1563 1.523 . S
C1565 C1549 1.429 . S
C1565 C1561 1.429 . S
C1565 C1566 1.523 . S
C1566 C1550 1.368 . S
C1566 C1562 1.368 . S
C1566 C1565 1.523 . S
H1567 C1542 0.950 . S
H1568 C1544 0.950 . S
H1569 C1545 0.949 . S
H1570 C1547 0.950 . S
H1571 C1549 0.950 . S
C1572 C1573 1.349 . S
C1572 C1574 1.327 . S
C1572 H1597 0.950 . S
C1573 C1572 1.349 . S
C1573 C1589 1.349 1_554 S
C1574 C1572 1.327 . S
C1574 C1593 1.429 . S
C1574 H1598 0.950 . S
C1575 C1592 1.574 . S
C1575 C1594 1.368 1_556 S
C1575 H1599 0.949 . S
H1576 C1580 0.949 . S
C1577 C1578 1.349 . S
C1577 C1579 1.327 . S
C1577 H1600 0.950 . S
C1578 C1577 1.349 . S
C1578 C1590 1.349 1_556 S
C1579 C1577 1.327 . S
C1579 C1595 1.429 . S
C1579 H1601 0.950 . S
C1580 H1576 0.949 . S
C1580 C1588 1.574 . S
C1580 C1596 1.368 1_554 S
H1581 C1589 0.950 . S
H1582 C1587 0.950 . S
H1583 C1588 0.949 . S
H1584 C1590 0.950 . S
H1585 C1591 0.950 . S
H1586 C1592 0.949 . S
C1587 H1582 0.950 . S
C1587 C1589 1.327 . S
C1587 C1593 1.429 1_556 S
C1588 C1580 1.574 . S
C1588 H1583 0.949 . S
C1588 C1594 1.368 1_655 S
C1589 C1573 1.349 1_556 S
C1589 H1581 0.950 . S
C1589 C1587 1.327 . S
C1590 C1578 1.349 1_554 S
C1590 H1584 0.950 . S
C1590 C1591 1.327 . S
C1591 H1585 0.950 . S
C1591 C1590 1.327 . S
C1591 C1595 1.429 1_554 S
C1592 C1575 1.574 . S
C1592 H1586 0.949 . S
C1592 C1596 1.368 1_455 S
C1593 C1574 1.429 . S
C1593 C1587 1.429 1_554 S
C1593 C1594 1.523 . S
C1594 C1575 1.368 1_554 S
C1594 C1588 1.368 1_455 S
C1594 C1593 1.523 . S
C1595 C1579 1.429 . S
C1595 C1591 1.429 1_556 S
C1595 C1596 1.523 . S
C1596 C1580 1.368 1_556 S
C1596 C1592 1.368 1_655 S
C1596 C1595 1.523 . S
H1597 C1572 0.950 . S
H1598 C1574 0.950 . S
H1599 C1575 0.949 . S
H1600 C1577 0.950 . S
H1601 C1579 0.950 . S
C1602 C1603 1.349 . S
C1602 C1604 1.327 . S
C1602 H1627 0.950 . S
C1603 C1602 1.349 . S
C1603 C1619 1.349 . S
C1604 C1602 1.327 . S
C1604 C1623 1.429 . S
C1604 H1628 0.950 . S
C1605 C1622 1.574 . S
C1605 C1624 1.368 . S
C1605 H1629 0.949 . S
H1606 C1610 0.949 . S
C1607 C1608 1.349 . S
C1607 C1609 1.327 . S
C1607 H1630 0.950 . S
C1608 C1607 1.349 . S
C1608 C1620 1.349 . S
C1609 C1607 1.327 . S
C1609 C1625 1.429 . S
C1609 H1631 0.950 . S
C1610 H1606 0.949 . S
C1610 C1618 1.574 . S
C1610 C1626 1.368 . S
H1611 C1619 0.950 . S
H1612 C1617 0.950 . S
H1613 C1618 0.949 . S
H1614 C1620 0.950 . S
H1615 C1621 0.950 . S
H1616 C1622 0.949 . S
C1617 H1612 0.950 . S
C1617 C1619 1.327 . S
C1617 C1623 1.429 . S
C1618 C1610 1.574 . S
C1618 H1613 0.949 . S
C1618 C1624 1.368 . S
C1619 C1603 1.349 . S
C1619 H1611 0.950 . S
C1619 C1617 1.327 . S
C1620 C1608 1.349 . S
C1620 H1614 0.950 . S
C1620 C1621 1.327 . S
C1621 H1615 0.950 . S
C1621 C1620 1.327 . S
C1621 C1625 1.429 . S
C1622 C1605 1.574 . S
C1622 H1616 0.949 . S
C1622 C1626 1.368 . S
C1623 C1604 1.429 . S
C1623 C1617 1.429 . S
C1623 C1624 1.523 . S
C1624 C1605 1.368 . S
C1624 C1618 1.368 . S
C1624 C1623 1.523 . S
C1625 C1609 1.429 . S
C1625 C1621 1.429 . S
C1625 C1626 1.523 . S
C1626 C1610 1.368 . S
C1626 C1622 1.368 . S
C1626 C1625 1.523 . S
H1627 C1602 0.950 . S
H1628 C1604 0.950 . S
H1629 C1605 0.949 . S
H1630 C1607 0.950 . S
H1631 C1609 0.950 . S
C1632 C1633 1.349 . S
C1632 C1634 1.327 . S
C1632 H1657 0.950 . S
C1633 C1632 1.349 . S
C1633 C1649 1.349 . S
C1634 C1632 1.327 . S
C1634 C1653 1.429 . S
C1634 H1658 0.950 . S
C1635 C1652 1.574 . S
C1635 C1654 1.368 . S
C1635 H1659 0.949 . S
H1636 C1640 0.949 . S
C1637 C1638 1.349 . S
C1637 C1639 1.327 . S
C1637 H1660 0.950 . S
C1638 C1637 1.349 . S
C1638 C1650 1.349 . S
C1639 C1637 1.327 . S
C1639 C1655 1.429 . S
C1639 H1661 0.950 . S
C1640 H1636 0.949 . S
C1640 C1648 1.574 . S
C1640 C1656 1.368 . S
H1641 C1649 0.950 . S
H1642 C1647 0.950 . S
H1643 C1648 0.949 . S
H1644 C1650 0.950 . S
H1645 C1651 0.950 . S
H1646 C1652 0.949 . S
C1647 H1642 0.950 . S
C1647 C1649 1.327 . S
C1647 C1653 1.429 . S
C1648 C1640 1.574 . S
C1648 H1643 0.949 . S
C1648 C1654 1.368 . S
C1649 C1633 1.349 . S
C1649 H1641 0.950 . S
C1649 C1647 1.327 . S
C1650 C1638 1.349 . S
C1650 H1644 0.950 . S
C1650 C1651 1.327 . S
C1651 H1645 0.950 . S
C1651 C1650 1.327 . S
C1651 C1655 1.429 . S
C1652 C1635 1.574 . S
C1652 H1646 0.949 . S
C1652 C1656 1.368 . S
C1653 C1634 1.429 . S
C1653 C1647 1.429 . S
C1653 C1654 1.523 . S
C1654 C1635 1.368 . S
C1654 C1648 1.368 . S
C1654 C1653 1.523 . S
C1655 C1639 1.429 . S
C1655 C1651 1.429 . S
C1655 C1656 1.523 . S
C1656 C1640 1.368 . S
C1656 C1652 1.368 . S
C1656 C1655 1.523 . S
H1657 C1632 0.950 . S
H1658 C1634 0.950 . S
H1659 C1635 0.949 . S
H1660 C1637 0.950 . S
H1661 C1639 0.950 . S
C1662 C1663 1.349 . S
C1662 C1664 1.327 . S
C1662 H1687 0.950 . S
C1663 C1662 1.349 . S
C1663 C1679 1.349 . S
C1664 C1662 1.327 . S
C1664 C1683 1.429 . S
C1664 H1688 0.950 . S
C1665 C1682 1.574 1_455 S
C1665 C1684 1.368 . S
C1665 H1689 0.949 . S
H1666 C1670 0.949 . S
C1667 C1668 1.349 . S
C1667 C1669 1.327 . S
C1667 H1690 0.950 . S
C1668 C1667 1.349 . S
C1668 C1680 1.349 . S
C1669 C1667 1.327 . S
C1669 C1685 1.429 . S
C1669 H1691 0.950 . S
C1670 H1666 0.949 . S
C1670 C1678 1.574 . S
C1670 C1686 1.368 . S
H1671 C1679 0.950 . S
H1672 C1677 0.950 . S
H1673 C1678 0.949 . S
H1674 C1680 0.950 . S
H1675 C1681 0.950 . S
H1676 C1682 0.949 . S
C1677 H1672 0.950 . S
C1677 C1679 1.327 . S
C1677 C1683 1.429 . S
C1678 C1670 1.574 . S
C1678 H1673 0.949 . S
C1678 C1684 1.368 1_655 S
C1679 C1663 1.349 . S
C1679 H1671 0.950 . S
C1679 C1677 1.327 . S
C1680 C1668 1.349 . S
C1680 H1674 0.950 . S
C1680 C1681 1.327 . S
C1681 H1675 0.950 . S
C1681 C1680 1.327 . S
C1681 C1685 1.429 . S
C1682 C1665 1.574 1_655 S
C1682 H1676 0.949 . S
C1682 C1686 1.368 . S
C1683 C1664 1.429 . S
C1683 C1677 1.429 . S
C1683 C1684 1.523 . S
C1684 C1665 1.368 . S
C1684 C1678 1.368 1_455 S
C1684 C1683 1.523 . S
C1685 C1669 1.429 . S
C1685 C1681 1.429 . S
C1685 C1686 1.523 . S
C1686 C1670 1.368 . S
C1686 C1682 1.368 . S
C1686 C1685 1.523 . S
H1687 C1662 0.950 . S
H1688 C1664 0.950 . S
H1689 C1665 0.949 . S
H1690 C1667 0.950 . S
H1691 C1669 0.950 . S
C1692 C1693 1.349 . S
C1692 C1694 1.327 . S
C1692 H1717 0.950 . S
C1693 C1692 1.349 . S
C1693 C1709 1.349 . S
C1694 C1692 1.327 . S
C1694 C1713 1.429 . S
C1694 H1718 0.950 . S
C1695 C1712 1.574 . S
C1695 C1714 1.368 . S
C1695 H1719 0.949 . S
H1696 C1700 0.949 . S
C1697 C1698 1.349 . S
C1697 C1699 1.327 . S
C1697 H1720 0.950 . S
C1698 C1697 1.349 . S
C1698 C1710 1.349 . S
C1699 C1697 1.327 . S
C1699 C1715 1.429 . S
C1699 H1721 0.950 . S
C1700 H1696 0.949 . S
C1700 C1708 1.574 . S
C1700 C1716 1.368 . S
H1701 C1709 0.950 . S
H1702 C1707 0.950 . S
H1703 C1708 0.949 . S
H1704 C1710 0.950 . S
H1705 C1711 0.950 . S
H1706 C1712 0.949 . S
C1707 H1702 0.950 . S
C1707 C1709 1.327 . S
C1707 C1713 1.429 . S
C1708 C1700 1.574 . S
C1708 H1703 0.949 . S
C1708 C1714 1.368 . S
C1709 C1693 1.349 . S
C1709 H1701 0.950 . S
C1709 C1707 1.327 . S
C1710 C1698 1.349 . S
C1710 H1704 0.950 . S
C1710 C1711 1.327 . S
C1711 H1705 0.950 . S
C1711 C1710 1.327 . S
C1711 C1715 1.429 . S
C1712 C1695 1.574 . S
C1712 H1706 0.949 . S
C1712 C1716 1.368 . S
C1713 C1694 1.429 . S
C1713 C1707 1.429 . S
C1713 C1714 1.523 . S
C1714 C1695 1.368 . S
C1714 C1708 1.368 . S
C1714 C1713 1.523 . S
C1715 C1699 1.429 . S
C1715 C1711 1.429 . S
C1715 C1716 1.523 . S
C1716 C1700 1.368 . S
C1716 C1712 1.368 . S
C1716 C1715 1.523 . S
H1717 C1692 0.950 . S
H1718 C1694 0.950 . S
H1719 C1695 0.949 . S
H1720 C1697 0.950 . S
H1721 C1699 0.950 . S
C1722 C1723 1.349 . S
C1722 C1724 1.327 . S
C1722 H1747 0.950 . S
C1723 C1722 1.349 . S
C1723 C1739 1.349 . S
C1724 C1722 1.327 . S
C1724 C1743 1.429 . S
C1724 H1748 0.950 . S
C1725 C1742 1.574 . S
C1725 C1744 1.368 . S
C1725 H1749 0.949 . S
H1726 C1730 0.949 . S
C1727 C1728 1.349 . S
C1727 C1729 1.327 . S
C1727 H1750 0.950 . S
C1728 C1727 1.349 . S
C1728 C1740 1.349 . S
C1729 C1727 1.327 . S
C1729 C1745 1.429 . S
C1729 H1751 0.950 . S
C1730 H1726 0.949 . S
C1730 C1738 1.574 . S
C1730 C1746 1.368 . S
H1731 C1739 0.950 . S
H1732 C1737 0.950 . S
H1733 C1738 0.949 . S
H1734 C1740 0.950 . S
H1735 C1741 0.950 . S
H1736 C1742 0.949 . S
C1737 H1732 0.950 . S
C1737 C1739 1.327 . S
C1737 C1743 1.429 . S
C1738 C1730 1.574 . S
C1738 H1733 0.949 . S
C1738 C1744 1.368 . S
C1739 C1723 1.349 . S
C1739 H1731 0.950 . S
C1739 C1737 1.327 . S
C1740 C1728 1.349 . S
C1740 H1734 0.950 . S
C1740 C1741 1.327 . S
C1741 H1735 0.950 . S
C1741 C1740 1.327 . S
C1741 C1745 1.429 . S
C1742 C1725 1.574 . S
C1742 H1736 0.949 . S
C1742 C1746 1.368 . S
C1743 C1724 1.429 . S
C1743 C1737 1.429 . S
C1743 C1744 1.523 . S
C1744 C1725 1.368 . S
C1744 C1738 1.368 . S
C1744 C1743 1.523 . S
C1745 C1729 1.429 . S
C1745 C1741 1.429 . S
C1745 C1746 1.523 . S
C1746 C1730 1.368 . S
C1746 C1742 1.368 . S
C1746 C1745 1.523 . S
H1747 C1722 0.950 . S
H1748 C1724 0.950 . S
H1749 C1725 0.949 . S
H1750 C1727 0.950 . S
H1751 C1729 0.950 . S
C1752 C1753 1.349 . S
C1752 C1754 1.327 . S
C1752 H1777 0.950 . S
C1753 C1752 1.349 . S
C1753 C1769 1.349 . S
C1754 C1752 1.327 . S
C1754 C1773 1.429 . S
C1754 H1778 0.950 . S
C1755 C1772 1.574 . S
C1755 C1774 1.368 . S
C1755 H1779 0.949 . S
H1756 C1760 0.949 . S
C1757 C1758 1.349 . S
C1757 C1759 1.327 . S
C1757 H1780 0.950 . S
C1758 C1757 1.349 . S
C1758 C1770 1.349 . S
C1759 C1757 1.327 . S
C1759 C1775 1.429 . S
C1759 H1781 0.950 . S
C1760 H1756 0.949 . S
C1760 C1768 1.574 . S
C1760 C1776 1.368 . S
H1761 C1769 0.950 . S
H1762 C1767 0.950 . S
H1763 C1768 0.949 . S
H1764 C1770 0.950 . S
H1765 C1771 0.950 . S
H1766 C1772 0.949 . S
C1767 H1762 0.950 . S
C1767 C1769 1.327 . S
C1767 C1773 1.429 . S
C1768 C1760 1.574 . S
C1768 H1763 0.949 . S
C1768 C1774 1.368 . S
C1769 C1753 1.349 . S
C1769 H1761 0.950 . S
C1769 C1767 1.327 . S
C1770 C1758 1.349 . S
C1770 H1764 0.950 . S
C1770 C1771 1.327 . S
C1771 H1765 0.950 . S
C1771 C1770 1.327 . S
C1771 C1775 1.429 . S
C1772 C1755 1.574 . S
C1772 H1766 0.949 . S
C1772 C1776 1.368 . S
C1773 C1754 1.429 . S
C1773 C1767 1.429 . S
C1773 C1774 1.523 . S
C1774 C1755 1.368 . S
C1774 C1768 1.368 . S
C1774 C1773 1.523 . S
C1775 C1759 1.429 . S
C1775 C1771 1.429 . S
C1775 C1776 1.523 . S
C1776 C1760 1.368 . S
C1776 C1772 1.368 . S
C1776 C1775 1.523 . S
H1777 C1752 0.950 . S
H1778 C1754 0.950 . S
H1779 C1755 0.949 . S
H1780 C1757 0.950 . S
H1781 C1759 0.950 . S
C1782 C1783 1.349 . S
C1782 C1784 1.327 . S
C1782 H1807 0.950 . S
C1783 C1782 1.349 . S
C1783 C1799 1.349 . S
C1784 C1782 1.327 . S
C1784 C1803 1.429 . S
C1784 H1808 0.950 . S
C1785 C1802 1.574 . S
C1785 C1804 1.368 . S
C1785 H1809 0.949 . S
H1786 C1790 0.949 . S
C1787 C1788 1.349 . S
C1787 C1789 1.327 . S
C1787 H1810 0.950 . S
C1788 C1787 1.349 . S
C1788 C1800 1.349 . S
C1789 C1787 1.327 . S
C1789 C1805 1.429 . S
C1789 H1811 0.950 . S
C1790 H1786 0.949 . S
C1790 C1798 1.574 . S
C1790 C1806 1.368 . S
H1791 C1799 0.950 . S
H1792 C1797 0.950 . S
H1793 C1798 0.949 . S
H1794 C1800 0.950 . S
H1795 C1801 0.950 . S
H1796 C1802 0.949 . S
C1797 H1792 0.950 . S
C1797 C1799 1.327 . S
C1797 C1803 1.429 . S
C1798 C1790 1.574 . S
C1798 H1793 0.949 . S
C1798 C1804 1.368 . S
C1799 C1783 1.349 . S
C1799 H1791 0.950 . S
C1799 C1797 1.327 . S
C1800 C1788 1.349 . S
C1800 H1794 0.950 . S
C1800 C1801 1.327 . S
C1801 H1795 0.950 . S
C1801 C1800 1.327 . S
C1801 C1805 1.429 . S
C1802 C1785 1.574 . S
C1802 H1796 0.949 . S
C1802 C1806 1.368 . S
C1803 C1784 1.429 . S
C1803 C1797 1.429 . S
C1803 C1804 1.523 . S
C1804 C1785 1.368 . S
C1804 C1798 1.368 . S
C1804 C1803 1.523 . S
C1805 C1789 1.429 . S
C1805 C1801 1.429 . S
C1805 C1806 1.523 . S
C1806 C1790 1.368 . S
C1806 C1802 1.368 . S
C1806 C1805 1.523 . S
H1807 C1782 0.950 . S
H1808 C1784 0.950 . S
H1809 C1785 0.949 . S
H1810 C1787 0.950 . S
H1811 C1789 0.950 . S
C1812 C1813 1.349 . S
C1812 C1814 1.327 . S
C1812 H1837 0.950 . S
C1813 C1812 1.349 . S
C1813 C1829 1.349 . S
C1814 C1812 1.327 . S
C1814 C1833 1.429 . S
C1814 H1838 0.950 . S
C1815 C1832 1.574 . S
C1815 C1834 1.368 . S
C1815 H1839 0.949 . S
H1816 C1820 0.949 . S
C1817 C1818 1.349 . S
C1817 C1819 1.327 . S
C1817 H1840 0.950 . S
C1818 C1817 1.349 . S
C1818 C1830 1.349 . S
C1819 C1817 1.327 . S
C1819 C1835 1.429 . S
C1819 H1841 0.950 . S
C1820 H1816 0.949 . S
C1820 C1828 1.574 . S
C1820 C1836 1.368 . S
H1821 C1829 0.950 . S
H1822 C1827 0.950 . S
H1823 C1828 0.949 . S
H1824 C1830 0.950 . S
H1825 C1831 0.950 . S
H1826 C1832 0.949 . S
C1827 H1822 0.950 . S
C1827 C1829 1.327 . S
C1827 C1833 1.429 . S
C1828 C1820 1.574 . S
C1828 H1823 0.949 . S
C1828 C1834 1.368 . S
C1829 C1813 1.349 . S
C1829 H1821 0.950 . S
C1829 C1827 1.327 . S
C1830 C1818 1.349 . S
C1830 H1824 0.950 . S
C1830 C1831 1.327 . S
C1831 H1825 0.950 . S
C1831 C1830 1.327 . S
C1831 C1835 1.429 . S
C1832 C1815 1.574 . S
C1832 H1826 0.949 . S
C1832 C1836 1.368 . S
C1833 C1814 1.429 . S
C1833 C1827 1.429 . S
C1833 C1834 1.523 . S
C1834 C1815 1.368 . S
C1834 C1828 1.368 . S
C1834 C1833 1.523 . S
C1835 C1819 1.429 . S
C1835 C1831 1.429 . S
C1835 C1836 1.523 . S
C1836 C1820 1.368 . S
C1836 C1832 1.368 . S
C1836 C1835 1.523 . S
H1837 C1812 0.950 . S
H1838 C1814 0.950 . S
H1839 C1815 0.949 . S
H1840 C1817 0.950 . S
H1841 C1819 0.950 . S
C1842 C1843 1.349 . S
C1842 C1844 1.327 . S
C1842 H1867 0.950 . S
C1843 C1842 1.349 . S
C1843 C1859 1.349 . S
C1844 C1842 1.327 . S
C1844 C1863 1.429 . S
C1844 H1868 0.950 . S
C1845 C1862 1.574 1_655 S
C1845 C1864 1.368 . S
C1845 H1869 0.949 . S
H1846 C1850 0.949 . S
C1847 C1848 1.349 . S
C1847 C1849 1.327 . S
C1847 H1870 0.950 . S
C1848 C1847 1.349 . S
C1848 C1860 1.349 . S
C1849 C1847 1.327 . S
C1849 C1865 1.429 . S
C1849 H1871 0.950 . S
C1850 H1846 0.949 . S
C1850 C1858 1.574 . S
C1850 C1866 1.368 1_655 S
H1851 C1859 0.950 . S
H1852 C1857 0.950 . S
H1853 C1858 0.949 . S
H1854 C1860 0.950 . S
H1855 C1861 0.950 . S
H1856 C1862 0.949 . S
C1857 H1852 0.950 . S
C1857 C1859 1.327 . S
C1857 C1863 1.429 . S
C1858 C1850 1.574 . S
C1858 H1853 0.949 . S
C1858 C1864 1.368 . S
C1859 C1843 1.349 . S
C1859 H1851 0.950 . S
C1859 C1857 1.327 . S
C1860 C1848 1.349 . S
C1860 H1854 0.950 . S
C1860 C1861 1.327 . S
C1861 H1855 0.950 . S
C1861 C1860 1.327 . S
C1861 C1865 1.429 . S
C1862 C1845 1.574 1_455 S
C1862 H1856 0.949 . S
C1862 C1866 1.368 . S
C1863 C1844 1.429 . S
C1863 C1857 1.429 . S
C1863 C1864 1.523 . S
C1864 C1845 1.368 . S
C1864 C1858 1.368 . S
C1864 C1863 1.523 . S
C1865 C1849 1.429 . S
C1865 C1861 1.429 . S
C1865 C1866 1.523 . S
C1866 C1850 1.368 1_455 S
C1866 C1862 1.368 . S
C1866 C1865 1.523 . S
H1867 C1842 0.950 . S
H1868 C1844 0.950 . S
H1869 C1845 0.949 . S
H1870 C1847 0.950 . S
H1871 C1849 0.950 . S
C1872 C1873 1.349 . S
C1872 C1874 1.327 . S
C1872 H1897 0.950 . S
C1873 C1872 1.349 . S
C1873 C1889 1.349 . S
C1874 C1872 1.327 . S
C1874 C1893 1.429 . S
C1874 H1898 0.950 . S
C1875 C1892 1.574 . S
C1875 C1894 1.368 . S
C1875 H1899 0.949 . S
H1876 C1880 0.949 . S
C1877 C1878 1.349 . S
C1877 C1879 1.327 . S
C1877 H1900 0.950 . S
C1878 C1877 1.349 . S
C1878 C1890 1.349 . S
C1879 C1877 1.327 . S
C1879 C1895 1.429 . S
C1879 H1901 0.950 . S
C1880 H1876 0.949 . S
C1880 C1888 1.574 . S
C1880 C1896 1.368 . S
H1881 C1889 0.950 . S
H1882 C1887 0.950 . S
H1883 C1888 0.949 . S
H1884 C1890 0.950 . S
H1885 C1891 0.950 . S
H1886 C1892 0.949 . S
C1887 H1882 0.950 . S
C1887 C1889 1.327 . S
C1887 C1893 1.429 . S
C1888 C1880 1.574 . S
C1888 H1883 0.949 . S
C1888 C1894 1.368 . S
C1889 C1873 1.349 . S
C1889 H1881 0.950 . S
C1889 C1887 1.327 . S
C1890 C1878 1.349 . S
C1890 H1884 0.950 . S
C1890 C1891 1.327 . S
C1891 H1885 0.950 . S
C1891 C1890 1.327 . S
C1891 C1895 1.429 . S
C1892 C1875 1.574 . S
C1892 H1886 0.949 . S
C1892 C1896 1.368 . S
C1893 C1874 1.429 . S
C1893 C1887 1.429 . S
C1893 C1894 1.523 . S
C1894 C1875 1.368 . S
C1894 C1888 1.368 . S
C1894 C1893 1.523 . S
C1895 C1879 1.429 . S
C1895 C1891 1.429 . S
C1895 C1896 1.523 . S
C1896 C1880 1.368 . S
C1896 C1892 1.368 . S
C1896 C1895 1.523 . S
H1897 C1872 0.950 . S
H1898 C1874 0.950 . S
H1899 C1875 0.949 . S
H1900 C1877 0.950 . S
H1901 C1879 0.950 . S
C1902 C1903 1.349 . S
C1902 C1904 1.327 . S
C1902 H1927 0.950 . S
C1903 C1902 1.349 . S
C1903 C1919 1.349 . S
C1904 C1902 1.327 . S
C1904 C1923 1.429 . S
C1904 H1928 0.950 . S
C1905 C1922 1.574 1_655 S
C1905 C1924 1.368 . S
C1905 H1929 0.949 . S
H1906 C1910 0.949 . S
C1907 C1908 1.349 . S
C1907 C1909 1.327 . S
C1907 H1930 0.950 . S
C1908 C1907 1.349 . S
C1908 C1920 1.349 . S
C1909 C1907 1.327 . S
C1909 C1925 1.429 . S
C1909 H1931 0.950 . S
C1910 H1906 0.949 . S
C1910 C1918 1.574 . S
C1910 C1926 1.368 . S
H1911 C1919 0.950 . S
H1912 C1917 0.950 . S
H1913 C1918 0.949 . S
H1914 C1920 0.950 . S
H1915 C1921 0.950 . S
H1916 C1922 0.949 . S
C1917 H1912 0.950 . S
C1917 C1919 1.327 . S
C1917 C1923 1.429 . S
C1918 C1910 1.574 . S
C1918 H1913 0.949 . S
C1918 C1924 1.368 1_455 S
C1919 C1903 1.349 . S
C1919 H1911 0.950 . S
C1919 C1917 1.327 . S
C1920 C1908 1.349 . S
C1920 H1914 0.950 . S
C1920 C1921 1.327 . S
C1921 H1915 0.950 . S
C1921 C1920 1.327 . S
C1921 C1925 1.429 . S
C1922 C1905 1.574 1_455 S
C1922 H1916 0.949 . S
C1922 C1926 1.368 . S
C1923 C1904 1.429 . S
C1923 C1917 1.429 . S
C1923 C1924 1.523 . S
C1924 C1905 1.368 . S
C1924 C1918 1.368 1_655 S
C1924 C1923 1.523 . S
C1925 C1909 1.429 . S
C1925 C1921 1.429 . S
C1925 C1926 1.523 . S
C1926 C1910 1.368 . S
C1926 C1922 1.368 . S
C1926 C1925 1.523 . S
H1927 C1902 0.950 . S
H1928 C1904 0.950 . S
H1929 C1905 0.949 . S
H1930 C1907 0.950 . S
H1931 C1909 0.950 . S
C1932 C1933 1.349 . S
C1932 C1934 1.327 . S
C1932 H1957 0.950 . S
C1933 C1932 1.349 . S
C1933 C1949 1.349 . S
C1934 C1932 1.327 . S
C1934 C1953 1.429 . S
C1934 H1958 0.950 . S
C1935 C1952 1.574 . S
C1935 C1954 1.368 . S
C1935 H1959 0.949 . S
H1936 C1940 0.949 . S
C1937 C1938 1.349 . S
C1937 C1939 1.327 . S
C1937 H1960 0.950 . S
C1938 C1937 1.349 . S
C1938 C1950 1.349 . S
C1939 C1937 1.327 . S
C1939 C1955 1.429 . S
C1939 H1961 0.950 . S
C1940 H1936 0.949 . S
C1940 C1948 1.574 . S
C1940 C1956 1.368 . S
H1941 C1949 0.950 . S
H1942 C1947 0.950 . S
H1943 C1948 0.949 . S
H1944 C1950 0.950 . S
H1945 C1951 0.950 . S
H1946 C1952 0.949 . S
C1947 H1942 0.950 . S
C1947 C1949 1.327 . S
C1947 C1953 1.429 . S
C1948 C1940 1.574 . S
C1948 H1943 0.949 . S
C1948 C1954 1.368 . S
C1949 C1933 1.349 . S
C1949 H1941 0.950 . S
C1949 C1947 1.327 . S
C1950 C1938 1.349 . S
C1950 H1944 0.950 . S
C1950 C1951 1.327 . S
C1951 H1945 0.950 . S
C1951 C1950 1.327 . S
C1951 C1955 1.429 . S
C1952 C1935 1.574 . S
C1952 H1946 0.949 . S
C1952 C1956 1.368 . S
C1953 C1934 1.429 . S
C1953 C1947 1.429 . S
C1953 C1954 1.523 . S
C1954 C1935 1.368 . S
C1954 C1948 1.368 . S
C1954 C1953 1.523 . S
C1955 C1939 1.429 . S
C1955 C1951 1.429 . S
C1955 C1956 1.523 . S
C1956 C1940 1.368 . S
C1956 C1952 1.368 . S
C1956 C1955 1.523 . S
H1957 C1932 0.950 . S
H1958 C1934 0.950 . S
H1959 C1935 0.949 . S
H1960 C1937 0.950 . S
H1961 C1939 0.950 . S
C1962 C1963 1.349 . S
C1962 C1964 1.327 . S
C1962 H1987 0.950 . S
C1963 C1962 1.349 . S
C1963 C1979 1.349 . S
C1964 C1962 1.327 . S
C1964 C1983 1.429 . S
C1964 H1988 0.950 . S
C1965 C1982 1.574 . S
C1965 C1984 1.368 . S
C1965 H1989 0.949 . S
H1966 C1970 0.949 . S
C1967 C1968 1.349 . S
C1967 C1969 1.327 . S
C1967 H1990 0.950 . S
C1968 C1967 1.349 . S
C1968 C1980 1.349 . S
C1969 C1967 1.327 . S
C1969 C1985 1.429 . S
C1969 H1991 0.950 . S
C1970 H1966 0.949 . S
C1970 C1978 1.574 . S
C1970 C1986 1.368 . S
H1971 C1979 0.950 . S
H1972 C1977 0.950 . S
H1973 C1978 0.949 . S
H1974 C1980 0.950 . S
H1975 C1981 0.950 . S
H1976 C1982 0.949 . S
C1977 H1972 0.950 . S
C1977 C1979 1.327 . S
C1977 C1983 1.429 . S
C1978 C1970 1.574 . S
C1978 H1973 0.949 . S
C1978 C1984 1.368 . S
C1979 C1963 1.349 . S
C1979 H1971 0.950 . S
C1979 C1977 1.327 . S
C1980 C1968 1.349 . S
C1980 H1974 0.950 . S
C1980 C1981 1.327 . S
C1981 H1975 0.950 . S
C1981 C1980 1.327 . S
C1981 C1985 1.429 . S
C1982 C1965 1.574 . S
C1982 H1976 0.949 . S
C1982 C1986 1.368 . S
C1983 C1964 1.429 . S
C1983 C1977 1.429 . S
C1983 C1984 1.523 . S
C1984 C1965 1.368 . S
C1984 C1978 1.368 . S
C1984 C1983 1.523 . S
C1985 C1969 1.429 . S
C1985 C1981 1.429 . S
C1985 C1986 1.523 . S
C1986 C1970 1.368 . S
C1986 C1982 1.368 . S
C1986 C1985 1.523 . S
H1987 C1962 0.950 . S
H1988 C1964 0.950 . S
H1989 C1965 0.949 . S
H1990 C1967 0.950 . S
H1991 C1969 0.950 . S
C1992 C1993 1.349 . S
C1992 C1994 1.327 . S
C1992 H2017 0.950 . S
C1993 C1992 1.349 . S
C1993 C2009 1.349 . S
C1994 C1992 1.327 . S
C1994 C2013 1.429 . S
C1994 H2018 0.950 . S
C1995 C2012 1.574 . S
C1995 C2014 1.368 . S
C1995 H2019 0.949 . S
H1996 C2000 0.949 . S
C1997 C1998 1.349 . S
C1997 C1999 1.327 . S
C1997 H2020 0.950 . S
C1998 C1997 1.349 . S
C1998 C2010 1.349 . S
C1999 C1997 1.327 . S
C1999 C2015 1.429 . S
C1999 H2021 0.950 . S
C2000 H1996 0.949 . S
C2000 C2008 1.574 . S
C2000 C2016 1.368 . S
H2001 C2009 0.950 . S
H2002 C2007 0.950 . S
H2003 C2008 0.949 . S
H2004 C2010 0.950 . S
H2005 C2011 0.950 . S
H2006 C2012 0.949 . S
C2007 H2002 0.950 . S
C2007 C2009 1.327 . S
C2007 C2013 1.429 . S
C2008 C2000 1.574 . S
C2008 H2003 0.949 . S
C2008 C2014 1.368 . S
C2009 C1993 1.349 . S
C2009 H2001 0.950 . S
C2009 C2007 1.327 . S
C2010 C1998 1.349 . S
C2010 H2004 0.950 . S
C2010 C2011 1.327 . S
C2011 H2005 0.950 . S
C2011 C2010 1.327 . S
C2011 C2015 1.429 . S
C2012 C1995 1.574 . S
C2012 H2006 0.949 . S
C2012 C2016 1.368 . S
C2013 C1994 1.429 . S
C2013 C2007 1.429 . S
C2013 C2014 1.523 . S
C2014 C1995 1.368 . S
C2014 C2008 1.368 . S
C2014 C2013 1.523 . S
C2015 C1999 1.429 . S
C2015 C2011 1.429 . S
C2015 C2016 1.523 . S
C2016 C2000 1.368 . S
C2016 C2012 1.368 . S
C2016 C2015 1.523 . S
H2017 C1992 0.950 . S
H2018 C1994 0.950 . S
H2019 C1995 0.949 . S
H2020 C1997 0.950 . S
H2021 C1999 0.950 . S
C2022 C2023 1.349 . S
C2022 C2024 1.327 . S
C2022 H2047 0.950 . S
C2023 C2022 1.349 . S
C2023 C2039 1.349 . S
C2024 C2022 1.327 . S
C2024 C2043 1.429 . S
C2024 H2048 0.950 . S
C2025 C2042 1.574 . S
C2025 C2044 1.368 . S
C2025 H2049 0.949 . S
H2026 C2030 0.949 . S
C2027 C2028 1.349 . S
C2027 C2029 1.327 . S
C2027 H2050 0.950 . S
C2028 C2027 1.349 . S
C2028 C2040 1.349 . S
C2029 C2027 1.327 . S
C2029 C2045 1.429 . S
C2029 H2051 0.950 . S
C2030 H2026 0.949 . S
C2030 C2038 1.574 . S
C2030 C2046 1.368 . S
H2031 C2039 0.950 . S
H2032 C2037 0.950 . S
H2033 C2038 0.949 . S
H2034 C2040 0.950 . S
H2035 C2041 0.950 . S
H2036 C2042 0.949 . S
C2037 H2032 0.950 . S
C2037 C2039 1.327 . S
C2037 C2043 1.429 . S
C2038 C2030 1.574 . S
C2038 H2033 0.949 . S
C2038 C2044 1.368 . S
C2039 C2023 1.349 . S
C2039 H2031 0.950 . S
C2039 C2037 1.327 . S
C2040 C2028 1.349 . S
C2040 H2034 0.950 . S
C2040 C2041 1.327 . S
C2041 H2035 0.950 . S
C2041 C2040 1.327 . S
C2041 C2045 1.429 . S
C2042 C2025 1.574 . S
C2042 H2036 0.949 . S
C2042 C2046 1.368 . S
C2043 C2024 1.429 . S
C2043 C2037 1.429 . S
C2043 C2044 1.523 . S
C2044 C2025 1.368 . S
C2044 C2038 1.368 . S
C2044 C2043 1.523 . S
C2045 C2029 1.429 . S
C2045 C2041 1.429 . S
C2045 C2046 1.523 . S
C2046 C2030 1.368 . S
C2046 C2042 1.368 . S
C2046 C2045 1.523 . S
H2047 C2022 0.950 . S
H2048 C2024 0.950 . S
H2049 C2025 0.949 . S
H2050 C2027 0.950 . S
H2051 C2029 0.950 . S
C2052 C2053 1.349 . S
C2052 C2054 1.327 . S
C2052 H2077 0.950 . S
C2053 C2052 1.349 . S
C2053 C2069 1.349 . S
C2054 C2052 1.327 . S
C2054 C2073 1.429 . S
C2054 H2078 0.950 . S
C2055 C2072 1.574 . S
C2055 C2074 1.368 . S
C2055 H2079 0.949 . S
H2056 C2060 0.949 . S
C2057 C2058 1.349 . S
C2057 C2059 1.327 . S
C2057 H2080 0.950 . S
C2058 C2057 1.349 . S
C2058 C2070 1.349 . S
C2059 C2057 1.327 . S
C2059 C2075 1.429 . S
C2059 H2081 0.950 . S
C2060 H2056 0.949 . S
C2060 C2068 1.574 . S
C2060 C2076 1.368 . S
H2061 C2069 0.950 . S
H2062 C2067 0.950 . S
H2063 C2068 0.949 . S
H2064 C2070 0.950 . S
H2065 C2071 0.950 . S
H2066 C2072 0.949 . S
C2067 H2062 0.950 . S
C2067 C2069 1.327 . S
C2067 C2073 1.429 . S
C2068 C2060 1.574 . S
C2068 H2063 0.949 . S
C2068 C2074 1.368 . S
C2069 C2053 1.349 . S
C2069 H2061 0.950 . S
C2069 C2067 1.327 . S
C2070 C2058 1.349 . S
C2070 H2064 0.950 . S
C2070 C2071 1.327 . S
C2071 H2065 0.950 . S
C2071 C2070 1.327 . S
C2071 C2075 1.429 . S
C2072 C2055 1.574 . S
C2072 H2066 0.949 . S
C2072 C2076 1.368 . S
C2073 C2054 1.429 . S
C2073 C2067 1.429 . S
C2073 C2074 1.523 . S
C2074 C2055 1.368 . S
C2074 C2068 1.368 . S
C2074 C2073 1.523 . S
C2075 C2059 1.429 . S
C2075 C2071 1.429 . S
C2075 C2076 1.523 . S
C2076 C2060 1.368 . S
C2076 C2072 1.368 . S
C2076 C2075 1.523 . S
H2077 C2052 0.950 . S
H2078 C2054 0.950 . S
H2079 C2055 0.949 . S
H2080 C2057 0.950 . S
H2081 C2059 0.950 . S
C2082 C2083 1.349 . S
C2082 C2084 1.327 . S
C2082 H2107 0.950 . S
C2083 C2082 1.349 . S
C2083 C2099 1.349 . S
C2084 C2082 1.327 . S
C2084 C2103 1.429 . S
C2084 H2108 0.950 . S
C2085 C2102 1.574 1_455 S
C2085 C2104 1.368 . S
C2085 H2109 0.949 . S
H2086 C2090 0.949 . S
C2087 C2088 1.349 . S
C2087 C2089 1.327 . S
C2087 H2110 0.950 . S
C2088 C2087 1.349 . S
C2088 C2100 1.349 . S
C2089 C2087 1.327 . S
C2089 C2105 1.429 . S
C2089 H2111 0.950 . S
C2090 H2086 0.949 . S
C2090 C2098 1.574 . S
C2090 C2106 1.368 1_455 S
H2091 C2099 0.950 . S
H2092 C2097 0.950 . S
H2093 C2098 0.949 . S
H2094 C2100 0.950 . S
H2095 C2101 0.950 . S
H2096 C2102 0.949 . S
C2097 H2092 0.950 . S
C2097 C2099 1.327 . S
C2097 C2103 1.429 . S
C2098 C2090 1.574 . S
C2098 H2093 0.949 . S
C2098 C2104 1.368 . S
C2099 C2083 1.349 . S
C2099 H2091 0.950 . S
C2099 C2097 1.327 . S
C2100 C2088 1.349 . S
C2100 H2094 0.950 . S
C2100 C2101 1.327 . S
C2101 H2095 0.950 . S
C2101 C2100 1.327 . S
C2101 C2105 1.429 . S
C2102 C2085 1.574 1_655 S
C2102 H2096 0.949 . S
C2102 C2106 1.368 . S
C2103 C2084 1.429 . S
C2103 C2097 1.429 . S
C2103 C2104 1.523 . S
C2104 C2085 1.368 . S
C2104 C2098 1.368 . S
C2104 C2103 1.523 . S
C2105 C2089 1.429 . S
C2105 C2101 1.429 . S
C2105 C2106 1.523 . S
C2106 C2090 1.368 1_655 S
C2106 C2102 1.368 . S
C2106 C2105 1.523 . S
H2107 C2082 0.950 . S
H2108 C2084 0.950 . S
H2109 C2085 0.949 . S
H2110 C2087 0.950 . S
H2111 C2089 0.950 . S
C2112 C2113 1.349 . S
C2112 C2114 1.327 . S
C2112 H2137 0.950 . S
C2113 C2112 1.349 . S
C2113 C2129 1.349 . S
C2114 C2112 1.327 . S
C2114 C2133 1.429 . S
C2114 H2138 0.950 . S
C2115 C2132 1.574 . S
C2115 C2134 1.368 . S
C2115 H2139 0.949 . S
H2116 C2120 0.949 . S
C2117 C2118 1.349 . S
C2117 C2119 1.327 . S
C2117 H2140 0.950 . S
C2118 C2117 1.349 . S
C2118 C2130 1.349 . S
C2119 C2117 1.327 . S
C2119 C2135 1.429 . S
C2119 H2141 0.950 . S
C2120 H2116 0.949 . S
C2120 C2128 1.574 . S
C2120 C2136 1.368 . S
H2121 C2129 0.950 . S
H2122 C2127 0.950 . S
H2123 C2128 0.949 . S
H2124 C2130 0.950 . S
H2125 C2131 0.950 . S
H2126 C2132 0.949 . S
C2127 H2122 0.950 . S
C2127 C2129 1.327 . S
C2127 C2133 1.429 . S
C2128 C2120 1.574 . S
C2128 H2123 0.949 . S
C2128 C2134 1.368 . S
C2129 C2113 1.349 . S
C2129 H2121 0.950 . S
C2129 C2127 1.327 . S
C2130 C2118 1.349 . S
C2130 H2124 0.950 . S
C2130 C2131 1.327 . S
C2131 H2125 0.950 . S
C2131 C2130 1.327 . S
C2131 C2135 1.429 . S
C2132 C2115 1.574 . S
C2132 H2126 0.949 . S
C2132 C2136 1.368 . S
C2133 C2114 1.429 . S
C2133 C2127 1.429 . S
C2133 C2134 1.523 . S
C2134 C2115 1.368 . S
C2134 C2128 1.368 . S
C2134 C2133 1.523 . S
C2135 C2119 1.429 . S
C2135 C2131 1.429 . S
C2135 C2136 1.523 . S
C2136 C2120 1.368 . S
C2136 C2132 1.368 . S
C2136 C2135 1.523 . S
H2137 C2112 0.950 . S
H2138 C2114 0.950 . S
H2139 C2115 0.949 . S
H2140 C2117 0.950 . S
H2141 C2119 0.950 . S
C2142 C2143 1.349 . S
C2142 C2144 1.327 . S
C2142 H2167 0.950 . S
C2143 C2142 1.349 . S
C2143 C2159 1.349 . S
C2144 C2142 1.327 . S
C2144 C2163 1.429 . S
C2144 H2168 0.950 . S
C2145 C2162 1.574 . S
C2145 C2164 1.368 . S
C2145 H2169 0.949 . S
H2146 C2150 0.949 . S
C2147 C2148 1.349 . S
C2147 C2149 1.327 . S
C2147 H2170 0.950 . S
C2148 C2147 1.349 . S
C2148 C2160 1.349 . S
C2149 C2147 1.327 . S
C2149 C2165 1.429 . S
C2149 H2171 0.950 . S
C2150 H2146 0.949 . S
C2150 C2158 1.574 . S
C2150 C2166 1.368 . S
H2151 C2159 0.950 . S
H2152 C2157 0.950 . S
H2153 C2158 0.949 . S
H2154 C2160 0.950 . S
H2155 C2161 0.950 . S
H2156 C2162 0.949 . S
C2157 H2152 0.950 . S
C2157 C2159 1.327 . S
C2157 C2163 1.429 . S
C2158 C2150 1.574 . S
C2158 H2153 0.949 . S
C2158 C2164 1.368 . S
C2159 C2143 1.349 . S
C2159 H2151 0.950 . S
C2159 C2157 1.327 . S
C2160 C2148 1.349 . S
C2160 H2154 0.950 . S
C2160 C2161 1.327 . S
C2161 H2155 0.950 . S
C2161 C2160 1.327 . S
C2161 C2165 1.429 . S
C2162 C2145 1.574 . S
C2162 H2156 0.949 . S
C2162 C2166 1.368 . S
C2163 C2144 1.429 . S
C2163 C2157 1.429 . S
C2163 C2164 1.523 . S
C2164 C2145 1.368 . S
C2164 C2158 1.368 . S
C2164 C2163 1.523 . S
C2165 C2149 1.429 . S
C2165 C2161 1.429 . S
C2165 C2166 1.523 . S
C2166 C2150 1.368 . S
C2166 C2162 1.368 . S
C2166 C2165 1.523 . S
H2167 C2142 0.950 . S
H2168 C2144 0.950 . S
H2169 C2145 0.949 . S
H2170 C2147 0.950 . S
H2171 C2149 0.950 . S
C2172 C2173 1.349 . S
C2172 C2174 1.327 . S
C2172 H2197 0.950 . S
C2173 C2172 1.349 . S
C2173 C2189 1.349 . S
C2174 C2172 1.327 . S
C2174 C2193 1.429 . S
C2174 H2198 0.950 . S
C2175 C2192 1.574 . S
C2175 C2194 1.368 . S
C2175 H2199 0.949 . S
H2176 C2180 0.949 . S
C2177 C2178 1.349 . S
C2177 C2179 1.327 . S
C2177 H2200 0.950 . S
C2178 C2177 1.349 . S
C2178 C2190 1.349 . S
C2179 C2177 1.327 . S
C2179 C2195 1.429 . S
C2179 H2201 0.950 . S
C2180 H2176 0.949 . S
C2180 C2188 1.574 . S
C2180 C2196 1.368 . S
H2181 C2189 0.950 . S
H2182 C2187 0.950 . S
H2183 C2188 0.949 . S
H2184 C2190 0.950 . S
H2185 C2191 0.950 . S
H2186 C2192 0.949 . S
C2187 H2182 0.950 . S
C2187 C2189 1.327 . S
C2187 C2193 1.429 . S
C2188 C2180 1.574 . S
C2188 H2183 0.949 . S
C2188 C2194 1.368 . S
C2189 C2173 1.349 . S
C2189 H2181 0.950 . S
C2189 C2187 1.327 . S
C2190 C2178 1.349 . S
C2190 H2184 0.950 . S
C2190 C2191 1.327 . S
C2191 H2185 0.950 . S
C2191 C2190 1.327 . S
C2191 C2195 1.429 . S
C2192 C2175 1.574 . S
C2192 H2186 0.949 . S
C2192 C2196 1.368 . S
C2193 C2174 1.429 . S
C2193 C2187 1.429 . S
C2193 C2194 1.523 . S
C2194 C2175 1.368 . S
C2194 C2188 1.368 . S
C2194 C2193 1.523 . S
C2195 C2179 1.429 . S
C2195 C2191 1.429 . S
C2195 C2196 1.523 . S
C2196 C2180 1.368 . S
C2196 C2192 1.368 . S
C2196 C2195 1.523 . S
H2197 C2172 0.950 . S
H2198 C2174 0.950 . S
H2199 C2175 0.949 . S
H2200 C2177 0.950 . S
H2201 C2179 0.950 . S
C2202 C2203 1.349 . S
C2202 C2204 1.327 . S
C2202 H2227 0.950 . S
C2203 C2202 1.349 . S
C2203 C2219 1.349 . S
C2204 C2202 1.327 . S
C2204 C2223 1.429 . S
C2204 H2228 0.950 . S
C2205 C2222 1.574 . S
C2205 C2224 1.368 1_455 S
C2205 H2229 0.949 . S
H2206 C2210 0.949 . S
C2207 C2208 1.349 . S
C2207 C2209 1.327 . S
C2207 H2230 0.950 . S
C2208 C2207 1.349 . S
C2208 C2220 1.349 . S
C2209 C2207 1.327 . S
C2209 C2225 1.429 . S
C2209 H2231 0.950 . S
C2210 H2206 0.949 . S
C2210 C2218 1.574 1_455 S
C2210 C2226 1.368 . S
H2211 C2219 0.950 . S
H2212 C2217 0.950 . S
H2213 C2218 0.949 . S
H2214 C2220 0.950 . S
H2215 C2221 0.950 . S
H2216 C2222 0.949 . S
C2217 H2212 0.950 . S
C2217 C2219 1.327 . S
C2217 C2223 1.429 . S
C2218 C2210 1.574 1_655 S
C2218 H2213 0.949 . S
C2218 C2224 1.368 . S
C2219 C2203 1.349 . S
C2219 H2211 0.950 . S
C2219 C2217 1.327 . S
C2220 C2208 1.349 . S
C2220 H2214 0.950 . S
C2220 C2221 1.327 . S
C2221 H2215 0.950 . S
C2221 C2220 1.327 . S
C2221 C2225 1.429 . S
C2222 C2205 1.574 . S
C2222 H2216 0.949 . S
C2222 C2226 1.368 . S
C2223 C2204 1.429 . S
C2223 C2217 1.429 . S
C2223 C2224 1.523 . S
C2224 C2205 1.368 1_655 S
C2224 C2218 1.368 . S
C2224 C2223 1.523 . S
C2225 C2209 1.429 . S
C2225 C2221 1.429 . S
C2225 C2226 1.523 . S
C2226 C2210 1.368 . S
C2226 C2222 1.368 . S
C2226 C2225 1.523 . S
H2227 C2202 0.950 . S
H2228 C2204 0.950 . S
H2229 C2205 0.949 . S
H2230 C2207 0.950 . S
H2231 C2209 0.950 . S
C2232 C2233 1.349 . S
C2232 C2234 1.327 . S
C2232 H2257 0.950 . S
C2233 C2232 1.349 . S
C2233 C2249 1.349 . S
C2234 C2232 1.327 . S
C2234 C2253 1.429 . S
C2234 H2258 0.950 . S
C2235 C2252 1.574 . S
C2235 C2254 1.368 . S
C2235 H2259 0.949 . S
H2236 C2240 0.949 . S
C2237 C2238 1.349 . S
C2237 C2239 1.327 . S
C2237 H2260 0.950 . S
C2238 C2237 1.349 . S
C2238 C2250 1.349 . S
C2239 C2237 1.327 . S
C2239 C2255 1.429 . S
C2239 H2261 0.950 . S
C2240 H2236 0.949 . S
C2240 C2248 1.574 . S
C2240 C2256 1.368 . S
H2241 C2249 0.950 . S
H2242 C2247 0.950 . S
H2243 C2248 0.949 . S
H2244 C2250 0.950 . S
H2245 C2251 0.950 . S
H2246 C2252 0.949 . S
C2247 H2242 0.950 . S
C2247 C2249 1.327 . S
C2247 C2253 1.429 . S
C2248 C2240 1.574 . S
C2248 H2243 0.949 . S
C2248 C2254 1.368 . S
C2249 C2233 1.349 . S
C2249 H2241 0.950 . S
C2249 C2247 1.327 . S
C2250 C2238 1.349 . S
C2250 H2244 0.950 . S
C2250 C2251 1.327 . S
C2251 H2245 0.950 . S
C2251 C2250 1.327 . S
C2251 C2255 1.429 . S
C2252 C2235 1.574 . S
C2252 H2246 0.949 . S
C2252 C2256 1.368 . S
C2253 C2234 1.429 . S
C2253 C2247 1.429 . S
C2253 C2254 1.523 . S
C2254 C2235 1.368 . S
C2254 C2248 1.368 . S
C2254 C2253 1.523 . S
C2255 C2239 1.429 . S
C2255 C2251 1.429 . S
C2255 C2256 1.523 . S
C2256 C2240 1.368 . S
C2256 C2252 1.368 . S
C2256 C2255 1.523 . S
H2257 C2232 0.950 . S
H2258 C2234 0.950 . S
H2259 C2235 0.949 . S
H2260 C2237 0.950 . S
H2261 C2239 0.950 . S
C2262 C2263 1.349 . S
C2262 C2264 1.327 . S
C2262 H2287 0.950 . S
C2263 C2262 1.349 . S
C2263 C2279 1.349 . S
C2264 C2262 1.327 . S
C2264 C2283 1.429 . S
C2264 H2288 0.950 . S
C2265 C2282 1.574 1_655 S
C2265 C2284 1.368 . S
C2265 H2289 0.949 . S
H2266 C2270 0.949 . S
C2267 C2268 1.349 . S
C2267 C2269 1.327 . S
C2267 H2290 0.950 . S
C2268 C2267 1.349 . S
C2268 C2280 1.349 . S
C2269 C2267 1.327 . S
C2269 C2285 1.429 . S
C2269 H2291 0.950 . S
C2270 H2266 0.949 . S
C2270 C2278 1.574 . S
C2270 C2286 1.368 . S
H2271 C2279 0.950 . S
H2272 C2277 0.950 . S
H2273 C2278 0.949 . S
H2274 C2280 0.950 . S
H2275 C2281 0.950 . S
H2276 C2282 0.949 . S
C2277 H2272 0.950 . S
C2277 C2279 1.327 . S
C2277 C2283 1.429 . S
C2278 C2270 1.574 . S
C2278 H2273 0.949 . S
C2278 C2284 1.368 1_455 S
C2279 C2263 1.349 . S
C2279 H2271 0.950 . S
C2279 C2277 1.327 . S
C2280 C2268 1.349 . S
C2280 H2274 0.950 . S
C2280 C2281 1.327 . S
C2281 H2275 0.950 . S
C2281 C2280 1.327 . S
C2281 C2285 1.429 . S
C2282 C2265 1.574 1_455 S
C2282 H2276 0.949 . S
C2282 C2286 1.368 . S
C2283 C2264 1.429 . S
C2283 C2277 1.429 . S
C2283 C2284 1.523 . S
C2284 C2265 1.368 . S
C2284 C2278 1.368 1_655 S
C2284 C2283 1.523 . S
C2285 C2269 1.429 . S
C2285 C2281 1.429 . S
C2285 C2286 1.523 . S
C2286 C2270 1.368 . S
C2286 C2282 1.368 . S
C2286 C2285 1.523 . S
H2287 C2262 0.950 . S
H2288 C2264 0.950 . S
H2289 C2265 0.949 . S
H2290 C2267 0.950 . S
H2291 C2269 0.950 . S
C2292 C2293 1.349 . S
C2292 C2294 1.327 . S
C2292 H2317 0.950 . S
C2293 C2292 1.349 . S
C2293 C2309 1.349 . S
C2294 C2292 1.327 . S
C2294 C2313 1.429 . S
C2294 H2318 0.950 . S
C2295 C2312 1.574 . S
C2295 C2314 1.368 . S
C2295 H2319 0.949 . S
H2296 C2300 0.949 . S
C2297 C2298 1.349 . S
C2297 C2299 1.327 . S
C2297 H2320 0.950 . S
C2298 C2297 1.349 . S
C2298 C2310 1.349 . S
C2299 C2297 1.327 . S
C2299 C2315 1.429 . S
C2299 H2321 0.950 . S
C2300 H2296 0.949 . S
C2300 C2308 1.574 . S
C2300 C2316 1.368 . S
H2301 C2309 0.950 . S
H2302 C2307 0.950 . S
H2303 C2308 0.949 . S
H2304 C2310 0.950 . S
H2305 C2311 0.950 . S
H2306 C2312 0.949 . S
C2307 H2302 0.950 . S
C2307 C2309 1.327 . S
C2307 C2313 1.429 . S
C2308 C2300 1.574 . S
C2308 H2303 0.949 . S
C2308 C2314 1.368 . S
C2309 C2293 1.349 . S
C2309 H2301 0.950 . S
C2309 C2307 1.327 . S
C2310 C2298 1.349 . S
C2310 H2304 0.950 . S
C2310 C2311 1.327 . S
C2311 H2305 0.950 . S
C2311 C2310 1.327 . S
C2311 C2315 1.429 . S
C2312 C2295 1.574 . S
C2312 H2306 0.949 . S
C2312 C2316 1.368 . S
C2313 C2294 1.429 . S
C2313 C2307 1.429 . S
C2313 C2314 1.523 . S
C2314 C2295 1.368 . S
C2314 C2308 1.368 . S
C2314 C2313 1.523 . S
C2315 C2299 1.429 . S
C2315 C2311 1.429 . S
C2315 C2316 1.523 . S
C2316 C2300 1.368 . S
C2316 C2312 1.368 . S
C2316 C2315 1.523 . S
H2317 C2292 0.950 . S
H2318 C2294 0.950 . S
H2319 C2295 0.949 . S
H2320 C2297 0.950 . S
H2321 C2299 0.950 . S
C2322 C2323 1.349 . S
C2322 C2324 1.327 . S
C2322 H2347 0.950 . S
C2323 C2322 1.349 . S
C2323 C2339 1.349 . S
C2324 C2322 1.327 . S
C2324 C2343 1.429 . S
C2324 H2348 0.950 . S
C2325 C2342 1.574 . S
C2325 C2344 1.368 . S
C2325 H2349 0.949 . S
H2326 C2330 0.949 . S
C2327 C2328 1.349 . S
C2327 C2329 1.327 . S
C2327 H2350 0.950 . S
C2328 C2327 1.349 . S
C2328 C2340 1.349 . S
C2329 C2327 1.327 . S
C2329 C2345 1.429 . S
C2329 H2351 0.950 . S
C2330 H2326 0.949 . S
C2330 C2338 1.574 . S
C2330 C2346 1.368 . S
H2331 C2339 0.950 . S
H2332 C2337 0.950 . S
H2333 C2338 0.949 . S
H2334 C2340 0.950 . S
H2335 C2341 0.950 . S
H2336 C2342 0.949 . S
C2337 H2332 0.950 . S
C2337 C2339 1.327 . S
C2337 C2343 1.429 . S
C2338 C2330 1.574 . S
C2338 H2333 0.949 . S
C2338 C2344 1.368 . S
C2339 C2323 1.349 . S
C2339 H2331 0.950 . S
C2339 C2337 1.327 . S
C2340 C2328 1.349 . S
C2340 H2334 0.950 . S
C2340 C2341 1.327 . S
C2341 H2335 0.950 . S
C2341 C2340 1.327 . S
C2341 C2345 1.429 . S
C2342 C2325 1.574 . S
C2342 H2336 0.949 . S
C2342 C2346 1.368 . S
C2343 C2324 1.429 . S
C2343 C2337 1.429 . S
C2343 C2344 1.523 . S
C2344 C2325 1.368 . S
C2344 C2338 1.368 . S
C2344 C2343 1.523 . S
C2345 C2329 1.429 . S
C2345 C2341 1.429 . S
C2345 C2346 1.523 . S
C2346 C2330 1.368 . S
C2346 C2342 1.368 . S
C2346 C2345 1.523 . S
H2347 C2322 0.950 . S
H2348 C2324 0.950 . S
H2349 C2325 0.949 . S
H2350 C2327 0.950 . S
H2351 C2329 0.950 . S
C2352 C2353 1.349 . S
C2352 C2354 1.327 . S
C2352 H2377 0.950 . S
C2353 C2352 1.349 . S
C2353 C2369 1.349 . S
C2354 C2352 1.327 . S
C2354 C2373 1.429 . S
C2354 H2378 0.950 . S
C2355 C2372 1.574 . S
C2355 C2374 1.368 . S
C2355 H2379 0.949 . S
H2356 C2360 0.949 . S
C2357 C2358 1.349 . S
C2357 C2359 1.327 . S
C2357 H2380 0.950 . S
C2358 C2357 1.349 . S
C2358 C2370 1.349 . S
C2359 C2357 1.327 . S
C2359 C2375 1.429 . S
C2359 H2381 0.950 . S
C2360 H2356 0.949 . S
C2360 C2368 1.574 . S
C2360 C2376 1.368 . S
H2361 C2369 0.950 . S
H2362 C2367 0.950 . S
H2363 C2368 0.949 . S
H2364 C2370 0.950 . S
H2365 C2371 0.950 . S
H2366 C2372 0.949 . S
C2367 H2362 0.950 . S
C2367 C2369 1.327 . S
C2367 C2373 1.429 . S
C2368 C2360 1.574 . S
C2368 H2363 0.949 . S
C2368 C2374 1.368 . S
C2369 C2353 1.349 . S
C2369 H2361 0.950 . S
C2369 C2367 1.327 . S
C2370 C2358 1.349 . S
C2370 H2364 0.950 . S
C2370 C2371 1.327 . S
C2371 H2365 0.950 . S
C2371 C2370 1.327 . S
C2371 C2375 1.429 . S
C2372 C2355 1.574 . S
C2372 H2366 0.949 . S
C2372 C2376 1.368 . S
C2373 C2354 1.429 . S
C2373 C2367 1.429 . S
C2373 C2374 1.523 . S
C2374 C2355 1.368 . S
C2374 C2368 1.368 . S
C2374 C2373 1.523 . S
C2375 C2359 1.429 . S
C2375 C2371 1.429 . S
C2375 C2376 1.523 . S
C2376 C2360 1.368 . S
C2376 C2372 1.368 . S
C2376 C2375 1.523 . S
H2377 C2352 0.950 . S
H2378 C2354 0.950 . S
H2379 C2355 0.949 . S
H2380 C2357 0.950 . S
H2381 C2359 0.950 . S
C2382 C2383 1.349 . S
C2382 C2384 1.327 . S
C2382 H2407 0.950 . S
C2383 C2382 1.349 . S
C2383 C2399 1.349 . S
C2384 C2382 1.327 . S
C2384 C2403 1.429 . S
C2384 H2408 0.950 . S
C2385 C2402 1.574 . S
C2385 C2404 1.368 . S
C2385 H2409 0.949 . S
H2386 C2390 0.949 . S
C2387 C2388 1.349 . S
C2387 C2389 1.327 . S
C2387 H2410 0.950 . S
C2388 C2387 1.349 . S
C2388 C2400 1.349 . S
C2389 C2387 1.327 . S
C2389 C2405 1.429 . S
C2389 H2411 0.950 . S
C2390 H2386 0.949 . S
C2390 C2398 1.574 . S
C2390 C2406 1.368 . S
H2391 C2399 0.950 . S
H2392 C2397 0.950 . S
H2393 C2398 0.949 . S
H2394 C2400 0.950 . S
H2395 C2401 0.950 . S
H2396 C2402 0.949 . S
C2397 H2392 0.950 . S
C2397 C2399 1.327 . S
C2397 C2403 1.429 . S
C2398 C2390 1.574 . S
C2398 H2393 0.949 . S
C2398 C2404 1.368 . S
C2399 C2383 1.349 . S
C2399 H2391 0.950 . S
C2399 C2397 1.327 . S
C2400 C2388 1.349 . S
C2400 H2394 0.950 . S
C2400 C2401 1.327 . S
C2401 H2395 0.950 . S
C2401 C2400 1.327 . S
C2401 C2405 1.429 . S
C2402 C2385 1.574 . S
C2402 H2396 0.949 . S
C2402 C2406 1.368 . S
C2403 C2384 1.429 . S
C2403 C2397 1.429 . S
C2403 C2404 1.523 . S
C2404 C2385 1.368 . S
C2404 C2398 1.368 . S
C2404 C2403 1.523 . S
C2405 C2389 1.429 . S
C2405 C2401 1.429 . S
C2405 C2406 1.523 . S
C2406 C2390 1.368 . S
C2406 C2402 1.368 . S
C2406 C2405 1.523 . S
H2407 C2382 0.950 . S
H2408 C2384 0.950 . S
H2409 C2385 0.949 . S
H2410 C2387 0.950 . S
H2411 C2389 0.950 . S
C2412 C2413 1.349 . S
C2412 C2414 1.327 . S
C2412 H2437 0.950 . S
C2413 C2412 1.349 . S
C2413 C2429 1.349 . S
C2414 C2412 1.327 . S
C2414 C2433 1.429 . S
C2414 H2438 0.950 . S
C2415 C2432 1.574 . S
C2415 C2434 1.368 . S
C2415 H2439 0.949 . S
H2416 C2420 0.949 . S
C2417 C2418 1.349 . S
C2417 C2419 1.327 . S
C2417 H2440 0.950 . S
C2418 C2417 1.349 . S
C2418 C2430 1.349 . S
C2419 C2417 1.327 . S
C2419 C2435 1.429 . S
C2419 H2441 0.950 . S
C2420 H2416 0.949 . S
C2420 C2428 1.574 . S
C2420 C2436 1.368 . S
H2421 C2429 0.950 . S
H2422 C2427 0.950 . S
H2423 C2428 0.949 . S
H2424 C2430 0.950 . S
H2425 C2431 0.950 . S
H2426 C2432 0.949 . S
C2427 H2422 0.950 . S
C2427 C2429 1.327 . S
C2427 C2433 1.429 . S
C2428 C2420 1.574 . S
C2428 H2423 0.949 . S
C2428 C2434 1.368 . S
C2429 C2413 1.349 . S
C2429 H2421 0.950 . S
C2429 C2427 1.327 . S
C2430 C2418 1.349 . S
C2430 H2424 0.950 . S
C2430 C2431 1.327 . S
C2431 H2425 0.950 . S
C2431 C2430 1.327 . S
C2431 C2435 1.429 . S
C2432 C2415 1.574 . S
C2432 H2426 0.949 . S
C2432 C2436 1.368 . S
C2433 C2414 1.429 . S
C2433 C2427 1.429 . S
C2433 C2434 1.523 . S
C2434 C2415 1.368 . S
C2434 C2428 1.368 . S
C2434 C2433 1.523 . S
C2435 C2419 1.429 . S
C2435 C2431 1.429 . S
C2435 C2436 1.523 . S
C2436 C2420 1.368 . S
C2436 C2432 1.368 . S
C2436 C2435 1.523 . S
H2437 C2412 0.950 . S
H2438 C2414 0.950 . S
H2439 C2415 0.949 . S
H2440 C2417 0.950 . S
H2441 C2419 0.950 . S
C2442 C2443 1.349 . S
C2442 C2444 1.327 . S
C2442 H2467 0.950 . S
C2443 C2442 1.349 . S
C2443 C2459 1.349 . S
C2444 C2442 1.327 . S
C2444 C2463 1.429 . S
C2444 H2468 0.950 . S
C2445 C2462 1.574 . S
C2445 C2464 1.368 . S
C2445 H2469 0.949 . S
H2446 C2450 0.949 . S
C2447 C2448 1.349 . S
C2447 C2449 1.327 . S
C2447 H2470 0.950 . S
C2448 C2447 1.349 . S
C2448 C2460 1.349 . S
C2449 C2447 1.327 . S
C2449 C2465 1.429 . S
C2449 H2471 0.950 . S
C2450 H2446 0.949 . S
C2450 C2458 1.574 1_455 S
C2450 C2466 1.368 . S
H2451 C2459 0.950 . S
H2452 C2457 0.950 . S
H2453 C2458 0.949 . S
H2454 C2460 0.950 . S
H2455 C2461 0.950 . S
H2456 C2462 0.949 . S
C2457 H2452 0.950 . S
C2457 C2459 1.327 . S
C2457 C2463 1.429 . S
C2458 C2450 1.574 1_655 S
C2458 H2453 0.949 . S
C2458 C2464 1.368 . S
C2459 C2443 1.349 . S
C2459 H2451 0.950 . S
C2459 C2457 1.327 . S
C2460 C2448 1.349 . S
C2460 H2454 0.950 . S
C2460 C2461 1.327 . S
C2461 H2455 0.950 . S
C2461 C2460 1.327 . S
C2461 C2465 1.429 . S
C2462 C2445 1.574 . S
C2462 H2456 0.949 . S
C2462 C2466 1.368 1_655 S
C2463 C2444 1.429 . S
C2463 C2457 1.429 . S
C2463 C2464 1.523 . S
C2464 C2445 1.368 . S
C2464 C2458 1.368 . S
C2464 C2463 1.523 . S
C2465 C2449 1.429 . S
C2465 C2461 1.429 . S
C2465 C2466 1.523 . S
C2466 C2450 1.368 . S
C2466 C2462 1.368 1_455 S
C2466 C2465 1.523 . S
H2467 C2442 0.950 . S
H2468 C2444 0.950 . S
H2469 C2445 0.949 . S
H2470 C2447 0.950 . S
H2471 C2449 0.950 . S
C2472 C2473 1.349 . S
C2472 C2474 1.327 . S
C2472 H2497 0.950 . S
C2473 C2472 1.349 . S
C2473 C2489 1.349 . S
C2474 C2472 1.327 . S
C2474 C2493 1.429 . S
C2474 H2498 0.950 . S
C2475 C2492 1.574 . S
C2475 C2494 1.368 . S
C2475 H2499 0.949 . S
H2476 C2480 0.949 . S
C2477 C2478 1.349 . S
C2477 C2479 1.327 . S
C2477 H2500 0.950 . S
C2478 C2477 1.349 . S
C2478 C2490 1.349 . S
C2479 C2477 1.327 . S
C2479 C2495 1.429 . S
C2479 H2501 0.950 . S
C2480 H2476 0.949 . S
C2480 C2488 1.574 . S
C2480 C2496 1.368 . S
H2481 C2489 0.950 . S
H2482 C2487 0.950 . S
H2483 C2488 0.949 . S
H2484 C2490 0.950 . S
H2485 C2491 0.950 . S
H2486 C2492 0.949 . S
C2487 H2482 0.950 . S
C2487 C2489 1.327 . S
C2487 C2493 1.429 . S
C2488 C2480 1.574 . S
C2488 H2483 0.949 . S
C2488 C2494 1.368 . S
C2489 C2473 1.349 . S
C2489 H2481 0.950 . S
C2489 C2487 1.327 . S
C2490 C2478 1.349 . S
C2490 H2484 0.950 . S
C2490 C2491 1.327 . S
C2491 H2485 0.950 . S
C2491 C2490 1.327 . S
C2491 C2495 1.429 . S
C2492 C2475 1.574 . S
C2492 H2486 0.949 . S
C2492 C2496 1.368 . S
C2493 C2474 1.429 . S
C2493 C2487 1.429 . S
C2493 C2494 1.523 . S
C2494 C2475 1.368 . S
C2494 C2488 1.368 . S
C2494 C2493 1.523 . S
C2495 C2479 1.429 . S
C2495 C2491 1.429 . S
C2495 C2496 1.523 . S
C2496 C2480 1.368 . S
C2496 C2492 1.368 . S
C2496 C2495 1.523 . S
H2497 C2472 0.950 . S
H2498 C2474 0.950 . S
H2499 C2475 0.949 . S
H2500 C2477 0.950 . S
H2501 C2479 0.950 . S
C2502 C2503 1.349 . S
C2502 C2504 1.327 . S
C2502 H2527 0.950 . S
C2503 C2502 1.349 . S
C2503 C2519 1.349 . S
C2504 C2502 1.327 . S
C2504 C2523 1.429 . S
C2504 H2528 0.950 . S
C2505 C2522 1.574 . S
C2505 C2524 1.368 . S
C2505 H2529 0.949 . S
H2506 C2510 0.949 . S
C2507 C2508 1.349 . S
C2507 C2509 1.327 . S
C2507 H2530 0.950 . S
C2508 C2507 1.349 . S
C2508 C2520 1.349 . S
C2509 C2507 1.327 . S
C2509 C2525 1.429 . S
C2509 H2531 0.950 . S
C2510 H2506 0.949 . S
C2510 C2518 1.574 1_455 S
C2510 C2526 1.368 . S
H2511 C2519 0.950 . S
H2512 C2517 0.950 . S
H2513 C2518 0.949 . S
H2514 C2520 0.950 . S
H2515 C2521 0.950 . S
H2516 C2522 0.949 . S
C2517 H2512 0.950 . S
C2517 C2519 1.327 . S
C2517 C2523 1.429 . S
C2518 C2510 1.574 1_655 S
C2518 H2513 0.949 . S
C2518 C2524 1.368 . S
C2519 C2503 1.349 . S
C2519 H2511 0.950 . S
C2519 C2517 1.327 . S
C2520 C2508 1.349 . S
C2520 H2514 0.950 . S
C2520 C2521 1.327 . S
C2521 H2515 0.950 . S
C2521 C2520 1.327 . S
C2521 C2525 1.429 . S
C2522 C2505 1.574 . S
C2522 H2516 0.949 . S
C2522 C2526 1.368 1_655 S
C2523 C2504 1.429 . S
C2523 C2517 1.429 . S
C2523 C2524 1.523 . S
C2524 C2505 1.368 . S
C2524 C2518 1.368 . S
C2524 C2523 1.523 . S
C2525 C2509 1.429 . S
C2525 C2521 1.429 . S
C2525 C2526 1.523 . S
C2526 C2510 1.368 . S
C2526 C2522 1.368 1_455 S
C2526 C2525 1.523 . S
H2527 C2502 0.950 . S
H2528 C2504 0.950 . S
H2529 C2505 0.949 . S
H2530 C2507 0.950 . S
H2531 C2509 0.950 . S
C2532 C2533 1.349 . S
C2532 C2534 1.327 . S
C2532 H2557 0.950 . S
C2533 C2532 1.349 . S
C2533 C2549 1.349 . S
C2534 C2532 1.327 . S
C2534 C2553 1.429 . S
C2534 H2558 0.950 . S
C2535 C2552 1.574 . S
C2535 C2554 1.368 . S
C2535 H2559 0.949 . S
H2536 C2540 0.949 . S
C2537 C2538 1.349 . S
C2537 C2539 1.327 . S
C2537 H2560 0.950 . S
C2538 C2537 1.349 . S
C2538 C2550 1.349 . S
C2539 C2537 1.327 . S
C2539 C2555 1.429 . S
C2539 H2561 0.950 . S
C2540 H2536 0.949 . S
C2540 C2548 1.574 . S
C2540 C2556 1.368 . S
H2541 C2549 0.950 . S
H2542 C2547 0.950 . S
H2543 C2548 0.949 . S
H2544 C2550 0.950 . S
H2545 C2551 0.950 . S
H2546 C2552 0.949 . S
C2547 H2542 0.950 . S
C2547 C2549 1.327 . S
C2547 C2553 1.429 . S
C2548 C2540 1.574 . S
C2548 H2543 0.949 . S
C2548 C2554 1.368 . S
C2549 C2533 1.349 . S
C2549 H2541 0.950 . S
C2549 C2547 1.327 . S
C2550 C2538 1.349 . S
C2550 H2544 0.950 . S
C2550 C2551 1.327 . S
C2551 H2545 0.950 . S
C2551 C2550 1.327 . S
C2551 C2555 1.429 . S
C2552 C2535 1.574 . S
C2552 H2546 0.949 . S
C2552 C2556 1.368 . S
C2553 C2534 1.429 . S
C2553 C2547 1.429 . S
C2553 C2554 1.523 . S
C2554 C2535 1.368 . S
C2554 C2548 1.368 . S
C2554 C2553 1.523 . S
C2555 C2539 1.429 . S
C2555 C2551 1.429 . S
C2555 C2556 1.523 . S
C2556 C2540 1.368 . S
C2556 C2552 1.368 . S
C2556 C2555 1.523 . S
H2557 C2532 0.950 . S
H2558 C2534 0.950 . S
H2559 C2535 0.949 . S
H2560 C2537 0.950 . S
H2561 C2539 0.950 . S
C2562 C2563 1.349 . S
C2562 C2564 1.327 . S
C2562 H2587 0.950 . S
C2563 C2562 1.349 . S
C2563 C2579 1.349 . S
C2564 C2562 1.327 . S
C2564 C2583 1.429 . S
C2564 H2588 0.950 . S
C2565 C2582 1.574 . S
C2565 C2584 1.368 . S
C2565 H2589 0.949 . S
H2566 C2570 0.949 . S
C2567 C2568 1.349 . S
C2567 C2569 1.327 . S
C2567 H2590 0.950 . S
C2568 C2567 1.349 . S
C2568 C2580 1.349 . S
C2569 C2567 1.327 . S
C2569 C2585 1.429 . S
C2569 H2591 0.950 . S
C2570 H2566 0.949 . S
C2570 C2578 1.574 . S
C2570 C2586 1.368 . S
H2571 C2579 0.950 . S
H2572 C2577 0.950 . S
H2573 C2578 0.949 . S
H2574 C2580 0.950 . S
H2575 C2581 0.950 . S
H2576 C2582 0.949 . S
C2577 H2572 0.950 . S
C2577 C2579 1.327 . S
C2577 C2583 1.429 . S
C2578 C2570 1.574 . S
C2578 H2573 0.949 . S
C2578 C2584 1.368 . S
C2579 C2563 1.349 . S
C2579 H2571 0.950 . S
C2579 C2577 1.327 . S
C2580 C2568 1.349 . S
C2580 H2574 0.950 . S
C2580 C2581 1.327 . S
C2581 H2575 0.950 . S
C2581 C2580 1.327 . S
C2581 C2585 1.429 . S
C2582 C2565 1.574 . S
C2582 H2576 0.949 . S
C2582 C2586 1.368 . S
C2583 C2564 1.429 . S
C2583 C2577 1.429 . S
C2583 C2584 1.523 . S
C2584 C2565 1.368 . S
C2584 C2578 1.368 . S
C2584 C2583 1.523 . S
C2585 C2569 1.429 . S
C2585 C2581 1.429 . S
C2585 C2586 1.523 . S
C2586 C2570 1.368 . S
C2586 C2582 1.368 . S
C2586 C2585 1.523 . S
H2587 C2562 0.950 . S
H2588 C2564 0.950 . S
H2589 C2565 0.949 . S
H2590 C2567 0.950 . S
H2591 C2569 0.950 . S
C2592 C2593 1.349 . S
C2592 C2594 1.327 . S
C2592 H2617 0.950 . S
C2593 C2592 1.349 . S
C2593 C2609 1.349 . S
C2594 C2592 1.327 . S
C2594 C2613 1.429 . S
C2594 H2618 0.950 . S
C2595 C2612 1.574 1_455 S
C2595 C2614 1.368 . S
C2595 H2619 0.949 . S
H2596 C2600 0.949 . S
C2597 C2598 1.349 . S
C2597 C2599 1.327 . S
C2597 H2620 0.950 . S
C2598 C2597 1.349 . S
C2598 C2610 1.349 . S
C2599 C2597 1.327 . S
C2599 C2615 1.429 . S
C2599 H2621 0.950 . S
C2600 H2596 0.949 . S
C2600 C2608 1.574 1_655 S
C2600 C2616 1.368 . S
H2601 C2609 0.950 . S
H2602 C2607 0.950 . S
H2603 C2608 0.949 . S
H2604 C2610 0.950 . S
H2605 C2611 0.950 . S
H2606 C2612 0.949 . S
C2607 H2602 0.950 . S
C2607 C2609 1.327 . S
C2607 C2613 1.429 . S
C2608 C2600 1.574 1_455 S
C2608 H2603 0.949 . S
C2608 C2614 1.368 . S
C2609 C2593 1.349 . S
C2609 H2601 0.950 . S
C2609 C2607 1.327 . S
C2610 C2598 1.349 . S
C2610 H2604 0.950 . S
C2610 C2611 1.327 . S
C2611 H2605 0.950 . S
C2611 C2610 1.327 . S
C2611 C2615 1.429 . S
C2612 C2595 1.574 1_655 S
C2612 H2606 0.949 . S
C2612 C2616 1.368 . S
C2613 C2594 1.429 . S
C2613 C2607 1.429 . S
C2613 C2614 1.523 . S
C2614 C2595 1.368 . S
C2614 C2608 1.368 . S
C2614 C2613 1.523 . S
C2615 C2599 1.429 . S
C2615 C2611 1.429 . S
C2615 C2616 1.523 . S
C2616 C2600 1.368 . S
C2616 C2612 1.368 . S
C2616 C2615 1.523 . S
H2617 C2592 0.950 . S
H2618 C2594 0.950 . S
H2619 C2595 0.949 . S
H2620 C2597 0.950 . S
H2621 C2599 0.950 . S
C2622 C2623 1.349 . S
C2622 C2624 1.327 . S
C2622 H2647 0.950 . S
C2623 C2622 1.349 . S
C2623 C2639 1.349 . S
C2624 C2622 1.327 . S
C2624 C2643 1.429 . S
C2624 H2648 0.950 . S
C2625 C2642 1.574 . S
C2625 C2644 1.368 1_655 S
C2625 H2649 0.949 . S
H2626 C2630 0.949 . S
C2627 C2628 1.349 . S
C2627 C2629 1.327 . S
C2627 H2650 0.950 . S
C2628 C2627 1.349 . S
C2628 C2640 1.349 . S
C2629 C2627 1.327 . S
C2629 C2645 1.429 . S
C2629 H2651 0.950 . S
C2630 H2626 0.949 . S
C2630 C2638 1.574 . S
C2630 C2646 1.368 1_455 S
H2631 C2639 0.950 . S
H2632 C2637 0.950 . S
H2633 C2638 0.949 . S
H2634 C2640 0.950 . S
H2635 C2641 0.950 . S
H2636 C2642 0.949 . S
C2637 H2632 0.950 . S
C2637 C2639 1.327 . S
C2637 C2643 1.429 . S
C2638 C2630 1.574 . S
C2638 H2633 0.949 . S
C2638 C2644 1.368 . S
C2639 C2623 1.349 . S
C2639 H2631 0.950 . S
C2639 C2637 1.327 . S
C2640 C2628 1.349 . S
C2640 H2634 0.950 . S
C2640 C2641 1.327 . S
C2641 H2635 0.950 . S
C2641 C2640 1.327 . S
C2641 C2645 1.429 . S
C2642 C2625 1.574 . S
C2642 H2636 0.949 . S
C2642 C2646 1.368 . S
C2643 C2624 1.429 . S
C2643 C2637 1.429 . S
C2643 C2644 1.523 . S
C2644 C2625 1.368 1_455 S
C2644 C2638 1.368 . S
C2644 C2643 1.523 . S
C2645 C2629 1.429 . S
C2645 C2641 1.429 . S
C2645 C2646 1.523 . S
C2646 C2630 1.368 1_655 S
C2646 C2642 1.368 . S
C2646 C2645 1.523 . S
H2647 C2622 0.950 . S
H2648 C2624 0.950 . S
H2649 C2625 0.949 . S
H2650 C2627 0.950 . S
H2651 C2629 0.950 . S
C2652 C2653 1.349 . S
C2652 C2654 1.327 . S
C2652 H2677 0.950 . S
C2653 C2652 1.349 . S
C2653 C2669 1.349 . S
C2654 C2652 1.327 . S
C2654 C2673 1.429 . S
C2654 H2678 0.950 . S
C2655 C2672 1.574 . S
C2655 C2674 1.368 . S
C2655 H2679 0.949 . S
H2656 C2660 0.949 . S
C2657 C2658 1.349 . S
C2657 C2659 1.327 . S
C2657 H2680 0.950 . S
C2658 C2657 1.349 . S
C2658 C2670 1.349 . S
C2659 C2657 1.327 . S
C2659 C2675 1.429 . S
C2659 H2681 0.950 . S
C2660 H2656 0.949 . S
C2660 C2668 1.574 . S
C2660 C2676 1.368 . S
H2661 C2669 0.950 . S
H2662 C2667 0.950 . S
H2663 C2668 0.949 . S
H2664 C2670 0.950 . S
H2665 C2671 0.950 . S
H2666 C2672 0.949 . S
C2667 H2662 0.950 . S
C2667 C2669 1.327 . S
C2667 C2673 1.429 . S
C2668 C2660 1.574 . S
C2668 H2663 0.949 . S
C2668 C2674 1.368 . S
C2669 C2653 1.349 . S
C2669 H2661 0.950 . S
C2669 C2667 1.327 . S
C2670 C2658 1.349 . S
C2670 H2664 0.950 . S
C2670 C2671 1.327 . S
C2671 H2665 0.950 . S
C2671 C2670 1.327 . S
C2671 C2675 1.429 . S
C2672 C2655 1.574 . S
C2672 H2666 0.949 . S
C2672 C2676 1.368 . S
C2673 C2654 1.429 . S
C2673 C2667 1.429 . S
C2673 C2674 1.523 . S
C2674 C2655 1.368 . S
C2674 C2668 1.368 . S
C2674 C2673 1.523 . S
C2675 C2659 1.429 . S
C2675 C2671 1.429 . S
C2675 C2676 1.523 . S
C2676 C2660 1.368 . S
C2676 C2672 1.368 . S
C2676 C2675 1.523 . S
H2677 C2652 0.950 . S
H2678 C2654 0.950 . S
H2679 C2655 0.949 . S
H2680 C2657 0.950 . S
H2681 C2659 0.950 . S
C2682 C2683 1.349 1_556 S
C2682 C2684 1.327 . S
C2682 H2707 0.950 . S
C2683 C2682 1.349 1_554 S
C2683 C2699 1.349 . S
C2684 C2682 1.327 . S
C2684 C2703 1.429 1_556 S
C2684 H2708 0.950 . S
C2685 C2702 1.574 . S
C2685 C2704 1.368 . S
C2685 H2709 0.949 . S
H2686 C2690 0.949 . S
C2687 C2688 1.349 . S
C2687 C2689 1.327 . S
C2687 H2710 0.950 . S
C2688 C2687 1.349 . S
C2688 C2700 1.349 1_554 S
C2689 C2687 1.327 . S
C2689 C2705 1.429 . S
C2689 H2711 0.950 . S
C2690 H2686 0.949 . S
C2690 C2698 1.574 . S
C2690 C2706 1.368 1_556 S
H2691 C2699 0.950 . S
H2692 C2697 0.950 . S
H2693 C2698 0.949 . S
H2694 C2700 0.950 . S
H2695 C2701 0.950 . S
H2696 C2702 0.949 . S
C2697 H2692 0.950 . S
C2697 C2699 1.327 . S
C2697 C2703 1.429 . S
C2698 C2690 1.574 . S
C2698 H2693 0.949 . S
C2698 C2704 1.368 1_556 S
C2699 C2683 1.349 . S
C2699 H2691 0.950 . S
C2699 C2697 1.327 . S
C2700 C2688 1.349 1_556 S
C2700 H2694 0.950 . S
C2700 C2701 1.327 . S
C2701 H2695 0.950 . S
C2701 C2700 1.327 . S
C2701 C2705 1.429 1_556 S
C2702 C2685 1.574 . S
C2702 H2696 0.949 . S
C2702 C2706 1.368 . S
C2703 C2684 1.429 1_554 S
C2703 C2697 1.429 . S
C2703 C2704 1.523 . S
C2704 C2685 1.368 . S
C2704 C2698 1.368 1_554 S
C2704 C2703 1.523 . S
C2705 C2689 1.429 . S
C2705 C2701 1.429 1_554 S
C2705 C2706 1.523 . S
C2706 C2690 1.368 1_554 S
C2706 C2702 1.368 . S
C2706 C2705 1.523 . S
H2707 C2682 0.950 . S
H2708 C2684 0.950 . S
H2709 C2685 0.949 . S
H2710 C2687 0.950 . S
H2711 C2689 0.950 . S
C2712 C2713 1.349 . S
C2712 C2714 1.327 . S
C2712 H2737 0.950 . S
C2713 C2712 1.349 . S
C2713 C2729 1.349 . S
C2714 C2712 1.327 . S
C2714 C2733 1.429 . S
C2714 H2738 0.950 . S
C2715 C2732 1.574 1_655 S
C2715 C2734 1.368 . S
C2715 H2739 0.949 . S
H2716 C2720 0.949 . S
C2717 C2718 1.349 . S
C2717 C2719 1.327 . S
C2717 H2740 0.950 . S
C2718 C2717 1.349 . S
C2718 C2730 1.349 . S
C2719 C2717 1.327 . S
C2719 C2735 1.429 . S
C2719 H2741 0.950 . S
C2720 H2716 0.949 . S
C2720 C2728 1.574 1_455 S
C2720 C2736 1.368 . S
H2721 C2729 0.950 . S
H2722 C2727 0.950 . S
H2723 C2728 0.949 . S
H2724 C2730 0.950 . S
H2725 C2731 0.950 . S
H2726 C2732 0.949 . S
C2727 H2722 0.950 . S
C2727 C2729 1.327 . S
C2727 C2733 1.429 . S
C2728 C2720 1.574 1_655 S
C2728 H2723 0.949 . S
C2728 C2734 1.368 . S
C2729 C2713 1.349 . S
C2729 H2721 0.950 . S
C2729 C2727 1.327 . S
C2730 C2718 1.349 . S
C2730 H2724 0.950 . S
C2730 C2731 1.327 . S
C2731 H2725 0.950 . S
C2731 C2730 1.327 . S
C2731 C2735 1.429 . S
C2732 C2715 1.574 1_455 S
C2732 H2726 0.949 . S
C2732 C2736 1.368 . S
C2733 C2714 1.429 . S
C2733 C2727 1.429 . S
C2733 C2734 1.523 . S
C2734 C2715 1.368 . S
C2734 C2728 1.368 . S
C2734 C2733 1.523 . S
C2735 C2719 1.429 . S
C2735 C2731 1.429 . S
C2735 C2736 1.523 . S
C2736 C2720 1.368 . S
C2736 C2732 1.368 . S
C2736 C2735 1.523 . S
H2737 C2712 0.950 . S
H2738 C2714 0.950 . S
H2739 C2715 0.949 . S
H2740 C2717 0.950 . S
H2741 C2719 0.950 . S
C2742 C2743 1.349 . S
C2742 C2744 1.327 . S
C2742 H2767 0.950 . S
C2743 C2742 1.349 . S
C2743 C2759 1.349 . S
C2744 C2742 1.327 . S
C2744 C2763 1.429 . S
C2744 H2768 0.950 . S
C2745 C2762 1.574 . S
C2745 C2764 1.368 . S
C2745 H2769 0.949 . S
H2746 C2750 0.949 . S
C2747 C2748 1.349 . S
C2747 C2749 1.327 . S
C2747 H2770 0.950 . S
C2748 C2747 1.349 . S
C2748 C2760 1.349 . S
C2749 C2747 1.327 . S
C2749 C2765 1.429 . S
C2749 H2771 0.950 . S
C2750 H2746 0.949 . S
C2750 C2758 1.574 . S
C2750 C2766 1.368 . S
H2751 C2759 0.950 . S
H2752 C2757 0.950 . S
H2753 C2758 0.949 . S
H2754 C2760 0.950 . S
H2755 C2761 0.950 . S
H2756 C2762 0.949 . S
C2757 H2752 0.950 . S
C2757 C2759 1.327 . S
C2757 C2763 1.429 . S
C2758 C2750 1.574 . S
C2758 H2753 0.949 . S
C2758 C2764 1.368 . S
C2759 C2743 1.349 . S
C2759 H2751 0.950 . S
C2759 C2757 1.327 . S
C2760 C2748 1.349 . S
C2760 H2754 0.950 . S
C2760 C2761 1.327 . S
C2761 H2755 0.950 . S
C2761 C2760 1.327 . S
C2761 C2765 1.429 . S
C2762 C2745 1.574 . S
C2762 H2756 0.949 . S
C2762 C2766 1.368 . S
C2763 C2744 1.429 . S
C2763 C2757 1.429 . S
C2763 C2764 1.523 . S
C2764 C2745 1.368 . S
C2764 C2758 1.368 . S
C2764 C2763 1.523 . S
C2765 C2749 1.429 . S
C2765 C2761 1.429 . S
C2765 C2766 1.523 . S
C2766 C2750 1.368 . S
C2766 C2762 1.368 . S
C2766 C2765 1.523 . S
H2767 C2742 0.950 . S
H2768 C2744 0.950 . S
H2769 C2745 0.949 . S
H2770 C2747 0.950 . S
H2771 C2749 0.950 . S
C2772 C2773 1.349 . S
C2772 C2774 1.327 . S
C2772 H2797 0.950 . S
C2773 C2772 1.349 . S
C2773 C2789 1.349 . S
C2774 C2772 1.327 . S
C2774 C2793 1.429 . S
C2774 H2798 0.950 . S
C2775 C2792 1.574 . S
C2775 C2794 1.368 . S
C2775 H2799 0.949 . S
H2776 C2780 0.949 . S
C2777 C2778 1.349 . S
C2777 C2779 1.327 . S
C2777 H2800 0.950 . S
C2778 C2777 1.349 . S
C2778 C2790 1.349 . S
C2779 C2777 1.327 . S
C2779 C2795 1.429 . S
C2779 H2801 0.950 . S
C2780 H2776 0.949 . S
C2780 C2788 1.574 . S
C2780 C2796 1.368 . S
H2781 C2789 0.950 . S
H2782 C2787 0.950 . S
H2783 C2788 0.949 . S
H2784 C2790 0.950 . S
H2785 C2791 0.950 . S
H2786 C2792 0.949 . S
C2787 H2782 0.950 . S
C2787 C2789 1.327 . S
C2787 C2793 1.429 . S
C2788 C2780 1.574 . S
C2788 H2783 0.949 . S
C2788 C2794 1.368 . S
C2789 C2773 1.349 . S
C2789 H2781 0.950 . S
C2789 C2787 1.327 . S
C2790 C2778 1.349 . S
C2790 H2784 0.950 . S
C2790 C2791 1.327 . S
C2791 H2785 0.950 . S
C2791 C2790 1.327 . S
C2791 C2795 1.429 . S
C2792 C2775 1.574 . S
C2792 H2786 0.949 . S
C2792 C2796 1.368 . S
C2793 C2774 1.429 . S
C2793 C2787 1.429 . S
C2793 C2794 1.523 . S
C2794 C2775 1.368 . S
C2794 C2788 1.368 . S
C2794 C2793 1.523 . S
C2795 C2779 1.429 . S
C2795 C2791 1.429 . S
C2795 C2796 1.523 . S
C2796 C2780 1.368 . S
C2796 C2792 1.368 . S
C2796 C2795 1.523 . S
H2797 C2772 0.950 . S
H2798 C2774 0.950 . S
H2799 C2775 0.949 . S
H2800 C2777 0.950 . S
H2801 C2779 0.950 . S
C2802 C2803 1.349 1_554 S
C2802 C2804 1.327 . S
C2802 H2827 0.950 . S
C2803 C2802 1.349 1_556 S
C2803 C2819 1.349 . S
C2804 C2802 1.327 . S
C2804 C2823 1.429 1_554 S
C2804 H2828 0.950 . S
C2805 C2822 1.574 . S
C2805 C2824 1.368 1_455 S
C2805 H2829 0.949 . S
H2806 C2810 0.949 . S
C2807 C2808 1.349 . S
C2807 C2809 1.327 . S
C2807 H2830 0.950 . S
C2808 C2807 1.349 . S
C2808 C2820 1.349 1_556 S
C2809 C2807 1.327 . S
C2809 C2825 1.429 . S
C2809 H2831 0.950 . S
C2810 H2806 0.949 . S
C2810 C2818 1.574 . S
C2810 C2826 1.368 1_654 S
H2811 C2819 0.950 . S
H2812 C2817 0.950 . S
H2813 C2818 0.949 . S
H2814 C2820 0.950 . S
H2815 C2821 0.950 . S
H2816 C2822 0.949 . S
C2817 H2812 0.950 . S
C2817 C2819 1.327 . S
C2817 C2823 1.429 . S
C2818 C2810 1.574 . S
C2818 H2813 0.949 . S
C2818 C2824 1.368 1_554 S
C2819 C2803 1.349 . S
C2819 H2811 0.950 . S
C2819 C2817 1.327 . S
C2820 C2808 1.349 1_554 S
C2820 H2814 0.950 . S
C2820 C2821 1.327 . S
C2821 H2815 0.950 . S
C2821 C2820 1.327 . S
C2821 C2825 1.429 1_554 S
C2822 C2805 1.574 . S
C2822 H2816 0.949 . S
C2822 C2826 1.368 . S
C2823 C2804 1.429 1_556 S
C2823 C2817 1.429 . S
C2823 C2824 1.523 . S
C2824 C2805 1.368 1_655 S
C2824 C2818 1.368 1_556 S
C2824 C2823 1.523 . S
C2825 C2809 1.429 . S
C2825 C2821 1.429 1_556 S
C2825 C2826 1.523 . S
C2826 C2810 1.368 1_456 S
C2826 C2822 1.368 . S
C2826 C2825 1.523 . S
H2827 C2802 0.950 . S
H2828 C2804 0.950 . S
H2829 C2805 0.949 . S
H2830 C2807 0.950 . S
H2831 C2809 0.950 . S
C2832 C2833 1.349 . S
C2832 C2834 1.327 . S
C2832 H2857 0.950 . S
C2833 C2832 1.349 . S
C2833 C2849 1.349 . S
C2834 C2832 1.327 . S
C2834 C2853 1.429 . S
C2834 H2858 0.950 . S
C2835 C2852 1.574 1_455 S
C2835 C2854 1.368 . S
C2835 H2859 0.949 . S
H2836 C2840 0.949 . S
C2837 C2838 1.349 . S
C2837 C2839 1.327 . S
C2837 H2860 0.950 . S
C2838 C2837 1.349 . S
C2838 C2850 1.349 . S
C2839 C2837 1.327 . S
C2839 C2855 1.429 . S
C2839 H2861 0.950 . S
C2840 H2836 0.949 . S
C2840 C2848 1.574 1_655 S
C2840 C2856 1.368 . S
H2841 C2849 0.950 . S
H2842 C2847 0.950 . S
H2843 C2848 0.949 . S
H2844 C2850 0.950 . S
H2845 C2851 0.950 . S
H2846 C2852 0.949 . S
C2847 H2842 0.950 . S
C2847 C2849 1.327 . S
C2847 C2853 1.429 . S
C2848 C2840 1.574 1_455 S
C2848 H2843 0.949 . S
C2848 C2854 1.368 . S
C2849 C2833 1.349 . S
C2849 H2841 0.950 . S
C2849 C2847 1.327 . S
C2850 C2838 1.349 . S
C2850 H2844 0.950 . S
C2850 C2851 1.327 . S
C2851 H2845 0.950 . S
C2851 C2850 1.327 . S
C2851 C2855 1.429 . S
C2852 C2835 1.574 1_655 S
C2852 H2846 0.949 . S
C2852 C2856 1.368 . S
C2853 C2834 1.429 . S
C2853 C2847 1.429 . S
C2853 C2854 1.523 . S
C2854 C2835 1.368 . S
C2854 C2848 1.368 . S
C2854 C2853 1.523 . S
C2855 C2839 1.429 . S
C2855 C2851 1.429 . S
C2855 C2856 1.523 . S
C2856 C2840 1.368 . S
C2856 C2852 1.368 . S
C2856 C2855 1.523 . S
H2857 C2832 0.950 . S
H2858 C2834 0.950 . S
H2859 C2835 0.949 . S
H2860 C2837 0.950 . S
H2861 C2839 0.950 . S
C2862 C2863 1.349 . S
C2862 C2864 1.327 . S
C2862 H2887 0.950 . S
C2863 C2862 1.349 . S
C2863 C2879 1.349 . S
C2864 C2862 1.327 . S
C2864 C2883 1.429 . S
C2864 H2888 0.950 . S
C2865 C2882 1.574 . S
C2865 C2884 1.368 . S
C2865 H2889 0.949 . S
H2866 C2870 0.949 . S
C2867 C2868 1.349 . S
C2867 C2869 1.327 . S
C2867 H2890 0.950 . S
C2868 C2867 1.349 . S
C2868 C2880 1.349 . S
C2869 C2867 1.327 . S
C2869 C2885 1.429 . S
C2869 H2891 0.950 . S
C2870 H2866 0.949 . S
C2870 C2878 1.574 . S
C2870 C2886 1.368 . S
H2871 C2879 0.950 . S
H2872 C2877 0.950 . S
H2873 C2878 0.949 . S
H2874 C2880 0.950 . S
H2875 C2881 0.950 . S
H2876 C2882 0.949 . S
C2877 H2872 0.950 . S
C2877 C2879 1.327 . S
C2877 C2883 1.429 . S
C2878 C2870 1.574 . S
C2878 H2873 0.949 . S
C2878 C2884 1.368 1_655 S
C2879 C2863 1.349 . S
C2879 H2871 0.950 . S
C2879 C2877 1.327 . S
C2880 C2868 1.349 . S
C2880 H2874 0.950 . S
C2880 C2881 1.327 . S
C2881 H2875 0.950 . S
C2881 C2880 1.327 . S
C2881 C2885 1.429 . S
C2882 C2865 1.574 . S
C2882 H2876 0.949 . S
C2882 C2886 1.368 1_455 S
C2883 C2864 1.429 . S
C2883 C2877 1.429 . S
C2883 C2884 1.523 . S
C2884 C2865 1.368 . S
C2884 C2878 1.368 1_455 S
C2884 C2883 1.523 . S
C2885 C2869 1.429 . S
C2885 C2881 1.429 . S
C2885 C2886 1.523 . S
C2886 C2870 1.368 . S
C2886 C2882 1.368 1_655 S
C2886 C2885 1.523 . S
H2887 C2862 0.950 . S
H2888 C2864 0.950 . S
H2889 C2865 0.949 . S
H2890 C2867 0.950 . S
H2891 C2869 0.950 . S
C2892 C2893 1.349 . S
C2892 C2894 1.327 . S
C2892 H2917 0.950 . S
C2893 C2892 1.349 . S
C2893 C2909 1.349 . S
C2894 C2892 1.327 . S
C2894 C2913 1.429 . S
C2894 H2918 0.950 . S
C2895 C2912 1.574 . S
C2895 C2914 1.368 . S
C2895 H2919 0.949 . S
H2896 C2900 0.949 . S
C2897 C2898 1.349 . S
C2897 C2899 1.327 . S
C2897 H2920 0.950 . S
C2898 C2897 1.349 . S
C2898 C2910 1.349 . S
C2899 C2897 1.327 . S
C2899 C2915 1.429 . S
C2899 H2921 0.950 . S
C2900 H2896 0.949 . S
C2900 C2908 1.574 . S
C2900 C2916 1.368 . S
H2901 C2909 0.950 . S
H2902 C2907 0.950 . S
H2903 C2908 0.949 . S
H2904 C2910 0.950 . S
H2905 C2911 0.950 . S
H2906 C2912 0.949 . S
C2907 H2902 0.950 . S
C2907 C2909 1.327 . S
C2907 C2913 1.429 . S
C2908 C2900 1.574 . S
C2908 H2903 0.949 . S
C2908 C2914 1.368 . S
C2909 C2893 1.349 . S
C2909 H2901 0.950 . S
C2909 C2907 1.327 . S
C2910 C2898 1.349 . S
C2910 H2904 0.950 . S
C2910 C2911 1.327 . S
C2911 H2905 0.950 . S
C2911 C2910 1.327 . S
C2911 C2915 1.429 . S
C2912 C2895 1.574 . S
C2912 H2906 0.949 . S
C2912 C2916 1.368 . S
C2913 C2894 1.429 . S
C2913 C2907 1.429 . S
C2913 C2914 1.523 . S
C2914 C2895 1.368 . S
C2914 C2908 1.368 . S
C2914 C2913 1.523 . S
C2915 C2899 1.429 . S
C2915 C2911 1.429 . S
C2915 C2916 1.523 . S
C2916 C2900 1.368 . S
C2916 C2912 1.368 . S
C2916 C2915 1.523 . S
H2917 C2892 0.950 . S
H2918 C2894 0.950 . S
H2919 C2895 0.949 . S
H2920 C2897 0.950 . S
H2921 C2899 0.950 . S
C2922 C2923 1.349 1_554 S
C2922 C2924 1.327 . S
C2922 H2947 0.950 . S
C2923 C2922 1.349 1_556 S
C2923 C2939 1.349 . S
C2924 C2922 1.327 . S
C2924 C2943 1.429 1_554 S
C2924 H2948 0.950 . S
C2925 C2942 1.574 . S
C2925 C2944 1.368 . S
C2925 H2949 0.949 . S
H2926 C2930 0.949 . S
C2927 C2928 1.349 . S
C2927 C2929 1.327 . S
C2927 H2950 0.950 . S
C2928 C2927 1.349 . S
C2928 C2940 1.349 1_556 S
C2929 C2927 1.327 . S
C2929 C2945 1.429 . S
C2929 H2951 0.950 . S
C2930 H2926 0.949 . S
C2930 C2938 1.574 . S
C2930 C2946 1.368 1_554 S
H2931 C2939 0.950 . S
H2932 C2937 0.950 . S
H2933 C2938 0.949 . S
H2934 C2940 0.950 . S
H2935 C2941 0.950 . S
H2936 C2942 0.949 . S
C2937 H2932 0.950 . S
C2937 C2939 1.327 . S
C2937 C2943 1.429 . S
C2938 C2930 1.574 . S
C2938 H2933 0.949 . S
C2938 C2944 1.368 1_554 S
C2939 C2923 1.349 . S
C2939 H2931 0.950 . S
C2939 C2937 1.327 . S
C2940 C2928 1.349 1_554 S
C2940 H2934 0.950 . S
C2940 C2941 1.327 . S
C2941 H2935 0.950 . S
C2941 C2940 1.327 . S
C2941 C2945 1.429 1_554 S
C2942 C2925 1.574 . S
C2942 H2936 0.949 . S
C2942 C2946 1.368 . S
C2943 C2924 1.429 1_556 S
C2943 C2937 1.429 . S
C2943 C2944 1.523 . S
C2944 C2925 1.368 . S
C2944 C2938 1.368 1_556 S
C2944 C2943 1.523 . S
C2945 C2929 1.429 . S
C2945 C2941 1.429 1_556 S
C2945 C2946 1.523 . S
C2946 C2930 1.368 1_556 S
C2946 C2942 1.368 . S
C2946 C2945 1.523 . S
H2947 C2922 0.950 . S
H2948 C2924 0.950 . S
H2949 C2925 0.949 . S
H2950 C2927 0.950 . S
H2951 C2929 0.950 . S
C2952 C2953 1.349 . S
C2952 C2954 1.327 . S
C2952 H2977 0.950 . S
C2953 C2952 1.349 . S
C2953 C2969 1.349 . S
C2954 C2952 1.327 . S
C2954 C2973 1.429 . S
C2954 H2978 0.950 . S
C2955 C2972 1.574 1_655 S
C2955 C2974 1.368 . S
C2955 H2979 0.949 . S
H2956 C2960 0.949 . S
C2957 C2958 1.349 . S
C2957 C2959 1.327 . S
C2957 H2980 0.950 . S
C2958 C2957 1.349 . S
C2958 C2970 1.349 . S
C2959 C2957 1.327 . S
C2959 C2975 1.429 . S
C2959 H2981 0.950 . S
C2960 H2956 0.949 . S
C2960 C2968 1.574 1_455 S
C2960 C2976 1.368 . S
H2961 C2969 0.950 . S
H2962 C2967 0.950 . S
H2963 C2968 0.949 . S
H2964 C2970 0.950 . S
H2965 C2971 0.950 . S
H2966 C2972 0.949 . S
C2967 H2962 0.950 . S
C2967 C2969 1.327 . S
C2967 C2973 1.429 . S
C2968 C2960 1.574 1_655 S
C2968 H2963 0.949 . S
C2968 C2974 1.368 . S
C2969 C2953 1.349 . S
C2969 H2961 0.950 . S
C2969 C2967 1.327 . S
C2970 C2958 1.349 . S
C2970 H2964 0.950 . S
C2970 C2971 1.327 . S
C2971 H2965 0.950 . S
C2971 C2970 1.327 . S
C2971 C2975 1.429 . S
C2972 C2955 1.574 1_455 S
C2972 H2966 0.949 . S
C2972 C2976 1.368 . S
C2973 C2954 1.429 . S
C2973 C2967 1.429 . S
C2973 C2974 1.523 . S
C2974 C2955 1.368 . S
C2974 C2968 1.368 . S
C2974 C2973 1.523 . S
C2975 C2959 1.429 . S
C2975 C2971 1.429 . S
C2975 C2976 1.523 . S
C2976 C2960 1.368 . S
C2976 C2972 1.368 . S
C2976 C2975 1.523 . S
H2977 C2952 0.950 . S
H2978 C2954 0.950 . S
H2979 C2955 0.949 . S
H2980 C2957 0.950 . S
H2981 C2959 0.950 . S
C2982 C2983 1.349 . S
C2982 C2984 1.327 . S
C2982 H3007 0.950 . S
C2983 C2982 1.349 . S
C2983 C2999 1.349 . S
C2984 C2982 1.327 . S
C2984 C3003 1.429 . S
C2984 H3008 0.950 . S
C2985 C3002 1.574 . S
C2985 C3004 1.368 . S
C2985 H3009 0.949 . S
H2986 C2990 0.949 . S
C2987 C2988 1.349 . S
C2987 C2989 1.327 . S
C2987 H3010 0.950 . S
C2988 C2987 1.349 . S
C2988 C3000 1.349 . S
C2989 C2987 1.327 . S
C2989 C3005 1.429 . S
C2989 H3011 0.950 . S
C2990 H2986 0.949 . S
C2990 C2998 1.574 . S
C2990 C3006 1.368 . S
H2991 C2999 0.950 . S
H2992 C2997 0.950 . S
H2993 C2998 0.949 . S
H2994 C3000 0.950 . S
H2995 C3001 0.950 . S
H2996 C3002 0.949 . S
C2997 H2992 0.950 . S
C2997 C2999 1.327 . S
C2997 C3003 1.429 . S
C2998 C2990 1.574 . S
C2998 H2993 0.949 . S
C2998 C3004 1.368 . S
C2999 C2983 1.349 . S
C2999 H2991 0.950 . S
C2999 C2997 1.327 . S
C3000 C2988 1.349 . S
C3000 H2994 0.950 . S
C3000 C3001 1.327 . S
C3001 H2995 0.950 . S
C3001 C3000 1.327 . S
C3001 C3005 1.429 . S
C3002 C2985 1.574 . S
C3002 H2996 0.949 . S
C3002 C3006 1.368 . S
C3003 C2984 1.429 . S
C3003 C2997 1.429 . S
C3003 C3004 1.523 . S
C3004 C2985 1.368 . S
C3004 C2998 1.368 . S
C3004 C3003 1.523 . S
C3005 C2989 1.429 . S
C3005 C3001 1.429 . S
C3005 C3006 1.523 . S
C3006 C2990 1.368 . S
C3006 C3002 1.368 . S
C3006 C3005 1.523 . S
H3007 C2982 0.950 . S
H3008 C2984 0.950 . S
H3009 C2985 0.949 . S
H3010 C2987 0.950 . S
H3011 C2989 0.950 . S
C3012 C3013 1.349 . S
C3012 C3014 1.327 . S
C3012 H3037 0.950 . S
C3013 C3012 1.349 . S
C3013 C3029 1.349 . S
C3014 C3012 1.327 . S
C3014 C3033 1.429 . S
C3014 H3038 0.950 . S
C3015 C3032 1.574 . S
C3015 C3034 1.368 . S
C3015 H3039 0.949 . S
H3016 C3020 0.949 . S
C3017 C3018 1.349 . S
C3017 C3019 1.327 . S
C3017 H3040 0.950 . S
C3018 C3017 1.349 . S
C3018 C3030 1.349 . S
C3019 C3017 1.327 . S
C3019 C3035 1.429 . S
C3019 H3041 0.950 . S
C3020 H3016 0.949 . S
C3020 C3028 1.574 . S
C3020 C3036 1.368 . S
H3021 C3029 0.950 . S
H3022 C3027 0.950 . S
H3023 C3028 0.949 . S
H3024 C3030 0.950 . S
H3025 C3031 0.950 . S
H3026 C3032 0.949 . S
C3027 H3022 0.950 . S
C3027 C3029 1.327 . S
C3027 C3033 1.429 . S
C3028 C3020 1.574 . S
C3028 H3023 0.949 . S
C3028 C3034 1.368 . S
C3029 C3013 1.349 . S
C3029 H3021 0.950 . S
C3029 C3027 1.327 . S
C3030 C3018 1.349 . S
C3030 H3024 0.950 . S
C3030 C3031 1.327 . S
C3031 H3025 0.950 . S
C3031 C3030 1.327 . S
C3031 C3035 1.429 . S
C3032 C3015 1.574 . S
C3032 H3026 0.949 . S
C3032 C3036 1.368 . S
C3033 C3014 1.429 . S
C3033 C3027 1.429 . S
C3033 C3034 1.523 . S
C3034 C3015 1.368 . S
C3034 C3028 1.368 . S
C3034 C3033 1.523 . S
C3035 C3019 1.429 . S
C3035 C3031 1.429 . S
C3035 C3036 1.523 . S
C3036 C3020 1.368 . S
C3036 C3032 1.368 . S
C3036 C3035 1.523 . S
H3037 C3012 0.950 . S
H3038 C3014 0.950 . S
H3039 C3015 0.949 . S
H3040 C3017 0.950 . S
H3041 C3019 0.950 . S
C3042 C3043 1.349 1_556 S
C3042 C3044 1.327 . S
C3042 H3067 0.950 . S
C3043 C3042 1.349 1_554 S
C3043 C3059 1.349 . S
C3044 C3042 1.327 . S
C3044 C3063 1.429 1_556 S
C3044 H3068 0.950 . S
C3045 C3062 1.574 . S
C3045 C3064 1.368 . S
C3045 H3069 0.949 . S
H3046 C3050 0.949 . S
C3047 C3048 1.349 . S
C3047 C3049 1.327 . S
C3047 H3070 0.950 . S
C3048 C3047 1.349 . S
C3048 C3060 1.349 1_554 S
C3049 C3047 1.327 . S
C3049 C3065 1.429 . S
C3049 H3071 0.950 . S
C3050 H3046 0.949 . S
C3050 C3058 1.574 . S
C3050 C3066 1.368 1_556 S
H3051 C3059 0.950 . S
H3052 C3057 0.950 . S
H3053 C3058 0.949 . S
H3054 C3060 0.950 . S
H3055 C3061 0.950 . S
H3056 C3062 0.949 . S
C3057 H3052 0.950 . S
C3057 C3059 1.327 . S
C3057 C3063 1.429 . S
C3058 C3050 1.574 . S
C3058 H3053 0.949 . S
C3058 C3064 1.368 1_456 S
C3059 C3043 1.349 . S
C3059 H3051 0.950 . S
C3059 C3057 1.327 . S
C3060 C3048 1.349 1_556 S
C3060 H3054 0.950 . S
C3060 C3061 1.327 . S
C3061 H3055 0.950 . S
C3061 C3060 1.327 . S
C3061 C3065 1.429 1_556 S
C3062 C3045 1.574 . S
C3062 H3056 0.949 . S
C3062 C3066 1.368 1_655 S
C3063 C3044 1.429 1_554 S
C3063 C3057 1.429 . S
C3063 C3064 1.523 . S
C3064 C3045 1.368 . S
C3064 C3058 1.368 1_654 S
C3064 C3063 1.523 . S
C3065 C3049 1.429 . S
C3065 C3061 1.429 1_554 S
C3065 C3066 1.523 . S
C3066 C3050 1.368 1_554 S
C3066 C3062 1.368 1_455 S
C3066 C3065 1.523 . S
H3067 C3042 0.950 . S
H3068 C3044 0.950 . S
H3069 C3045 0.949 . S
H3070 C3047 0.950 . S
H3071 C3049 0.950 . S
C3072 C3073 1.349 . S
C3072 C3074 1.327 . S
C3072 H3097 0.950 . S
C3073 C3072 1.349 . S
C3073 C3089 1.349 . S
C3074 C3072 1.327 . S
C3074 C3093 1.429 . S
C3074 H3098 0.950 . S
C3075 C3092 1.574 . S
C3075 C3094 1.368 . S
C3075 H3099 0.949 . S
H3076 C3080 0.949 . S
C3077 C3078 1.349 . S
C3077 C3079 1.327 . S
C3077 H3100 0.950 . S
C3078 C3077 1.349 . S
C3078 C3090 1.349 . S
C3079 C3077 1.327 . S
C3079 C3095 1.429 . S
C3079 H3101 0.950 . S
C3080 H3076 0.949 . S
C3080 C3088 1.574 . S
C3080 C3096 1.368 . S
H3081 C3089 0.950 . S
H3082 C3087 0.950 . S
H3083 C3088 0.949 . S
H3084 C3090 0.950 . S
H3085 C3091 0.950 . S
H3086 C3092 0.949 . S
C3087 H3082 0.950 . S
C3087 C3089 1.327 . S
C3087 C3093 1.429 . S
C3088 C3080 1.574 . S
C3088 H3083 0.949 . S
C3088 C3094 1.368 . S
C3089 C3073 1.349 . S
C3089 H3081 0.950 . S
C3089 C3087 1.327 . S
C3090 C3078 1.349 . S
C3090 H3084 0.950 . S
C3090 C3091 1.327 . S
C3091 H3085 0.950 . S
C3091 C3090 1.327 . S
C3091 C3095 1.429 . S
C3092 C3075 1.574 . S
C3092 H3086 0.949 . S
C3092 C3096 1.368 . S
C3093 C3074 1.429 . S
C3093 C3087 1.429 . S
C3093 C3094 1.523 . S
C3094 C3075 1.368 . S
C3094 C3088 1.368 . S
C3094 C3093 1.523 . S
C3095 C3079 1.429 . S
C3095 C3091 1.429 . S
C3095 C3096 1.523 . S
C3096 C3080 1.368 . S
C3096 C3092 1.368 . S
C3096 C3095 1.523 . S
H3097 C3072 0.950 . S
H3098 C3074 0.950 . S
H3099 C3075 0.949 . S
H3100 C3077 0.950 . S
H3101 C3079 0.950 . S
C3102 C3103 1.349 . S
C3102 C3104 1.327 . S
C3102 H3127 0.950 . S
C3103 C3102 1.349 . S
C3103 C3119 1.349 . S
C3104 C3102 1.327 . S
C3104 C3123 1.429 . S
C3104 H3128 0.950 . S
C3105 C3122 1.574 . S
C3105 C3124 1.368 . S
C3105 H3129 0.949 . S
H3106 C3110 0.949 . S
C3107 C3108 1.349 . S
C3107 C3109 1.327 . S
C3107 H3130 0.950 . S
C3108 C3107 1.349 . S
C3108 C3120 1.349 . S
C3109 C3107 1.327 . S
C3109 C3125 1.429 . S
C3109 H3131 0.950 . S
C3110 H3106 0.949 . S
C3110 C3118 1.574 . S
C3110 C3126 1.368 . S
H3111 C3119 0.950 . S
H3112 C3117 0.950 . S
H3113 C3118 0.949 . S
H3114 C3120 0.950 . S
H3115 C3121 0.950 . S
H3116 C3122 0.949 . S
C3117 H3112 0.950 . S
C3117 C3119 1.327 . S
C3117 C3123 1.429 . S
C3118 C3110 1.574 . S
C3118 H3113 0.949 . S
C3118 C3124 1.368 . S
C3119 C3103 1.349 . S
C3119 H3111 0.950 . S
C3119 C3117 1.327 . S
C3120 C3108 1.349 . S
C3120 H3114 0.950 . S
C3120 C3121 1.327 . S
C3121 H3115 0.950 . S
C3121 C3120 1.327 . S
C3121 C3125 1.429 . S
C3122 C3105 1.574 . S
C3122 H3116 0.949 . S
C3122 C3126 1.368 . S
C3123 C3104 1.429 . S
C3123 C3117 1.429 . S
C3123 C3124 1.523 . S
C3124 C3105 1.368 . S
C3124 C3118 1.368 . S
C3124 C3123 1.523 . S
C3125 C3109 1.429 . S
C3125 C3121 1.429 . S
C3125 C3126 1.523 . S
C3126 C3110 1.368 . S
C3126 C3122 1.368 . S
C3126 C3125 1.523 . S
H3127 C3102 0.950 . S
H3128 C3104 0.950 . S
H3129 C3105 0.949 . S
H3130 C3107 0.950 . S
H3131 C3109 0.950 . S
C3132 C3133 1.349 . S
C3132 C3134 1.327 . S
C3132 H3157 0.950 . S
C3133 C3132 1.349 . S
C3133 C3149 1.349 . S
C3134 C3132 1.327 . S
C3134 C3153 1.429 . S
C3134 H3158 0.950 . S
C3135 C3152 1.574 . S
C3135 C3154 1.368 . S
C3135 H3159 0.949 . S
H3136 C3140 0.949 . S
C3137 C3138 1.349 . S
C3137 C3139 1.327 . S
C3137 H3160 0.950 . S
C3138 C3137 1.349 . S
C3138 C3150 1.349 . S
C3139 C3137 1.327 . S
C3139 C3155 1.429 . S
C3139 H3161 0.950 . S
C3140 H3136 0.949 . S
C3140 C3148 1.574 . S
C3140 C3156 1.368 . S
H3141 C3149 0.950 . S
H3142 C3147 0.950 . S
H3143 C3148 0.949 . S
H3144 C3150 0.950 . S
H3145 C3151 0.950 . S
H3146 C3152 0.949 . S
C3147 H3142 0.950 . S
C3147 C3149 1.327 . S
C3147 C3153 1.429 . S
C3148 C3140 1.574 . S
C3148 H3143 0.949 . S
C3148 C3154 1.368 . S
C3149 C3133 1.349 . S
C3149 H3141 0.950 . S
C3149 C3147 1.327 . S
C3150 C3138 1.349 . S
C3150 H3144 0.950 . S
C3150 C3151 1.327 . S
C3151 H3145 0.950 . S
C3151 C3150 1.327 . S
C3151 C3155 1.429 . S
C3152 C3135 1.574 . S
C3152 H3146 0.949 . S
C3152 C3156 1.368 . S
C3153 C3134 1.429 . S
C3153 C3147 1.429 . S
C3153 C3154 1.523 . S
C3154 C3135 1.368 . S
C3154 C3148 1.368 . S
C3154 C3153 1.523 . S
C3155 C3139 1.429 . S
C3155 C3151 1.429 . S
C3155 C3156 1.523 . S
C3156 C3140 1.368 . S
C3156 C3152 1.368 . S
C3156 C3155 1.523 . S
H3157 C3132 0.950 . S
H3158 C3134 0.950 . S
H3159 C3135 0.949 . S
H3160 C3137 0.950 . S
H3161 C3139 0.950 . S
C3162 C3163 1.349 . S
C3162 C3164 1.327 . S
C3162 H3187 0.950 . S
C3163 C3162 1.349 . S
C3163 C3179 1.349 . S
C3164 C3162 1.327 . S
C3164 C3183 1.429 . S
C3164 H3188 0.950 . S
C3165 C3182 1.574 . S
C3165 C3184 1.368 . S
C3165 H3189 0.949 . S
H3166 C3170 0.949 . S
C3167 C3168 1.349 . S
C3167 C3169 1.327 . S
C3167 H3190 0.950 . S
C3168 C3167 1.349 . S
C3168 C3180 1.349 . S
C3169 C3167 1.327 . S
C3169 C3185 1.429 . S
C3169 H3191 0.950 . S
C3170 H3166 0.949 . S
C3170 C3178 1.574 . S
C3170 C3186 1.368 . S
H3171 C3179 0.950 . S
H3172 C3177 0.950 . S
H3173 C3178 0.949 . S
H3174 C3180 0.950 . S
H3175 C3181 0.950 . S
H3176 C3182 0.949 . S
C3177 H3172 0.950 . S
C3177 C3179 1.327 . S
C3177 C3183 1.429 . S
C3178 C3170 1.574 . S
C3178 H3173 0.949 . S
C3178 C3184 1.368 . S
C3179 C3163 1.349 . S
C3179 H3171 0.950 . S
C3179 C3177 1.327 . S
C3180 C3168 1.349 . S
C3180 H3174 0.950 . S
C3180 C3181 1.327 . S
C3181 H3175 0.950 . S
C3181 C3180 1.327 . S
C3181 C3185 1.429 . S
C3182 C3165 1.574 . S
C3182 H3176 0.949 . S
C3182 C3186 1.368 . S
C3183 C3164 1.429 . S
C3183 C3177 1.429 . S
C3183 C3184 1.523 . S
C3184 C3165 1.368 . S
C3184 C3178 1.368 . S
C3184 C3183 1.523 . S
C3185 C3169 1.429 . S
C3185 C3181 1.429 . S
C3185 C3186 1.523 . S
C3186 C3170 1.368 . S
C3186 C3182 1.368 . S
C3186 C3185 1.523 . S
H3187 C3162 0.950 . S
H3188 C3164 0.950 . S
H3189 C3165 0.949 . S
H3190 C3167 0.950 . S
H3191 C3169 0.950 . S
C3192 C3193 1.349 . S
C3192 C3194 1.327 . S
C3192 H3217 0.950 . S
C3193 C3192 1.349 . S
C3193 C3209 1.349 . S
C3194 C3192 1.327 . S
C3194 C3213 1.429 . S
C3194 H3218 0.950 . S
C3195 C3212 1.574 . S
C3195 C3214 1.368 . S
C3195 H3219 0.949 . S
H3196 C3200 0.949 . S
C3197 C3198 1.349 . S
C3197 C3199 1.327 . S
C3197 H3220 0.950 . S
C3198 C3197 1.349 . S
C3198 C3210 1.349 . S
C3199 C3197 1.327 . S
C3199 C3215 1.429 . S
C3199 H3221 0.950 . S
C3200 H3196 0.949 . S
C3200 C3208 1.574 . S
C3200 C3216 1.368 . S
H3201 C3209 0.950 . S
H3202 C3207 0.950 . S
H3203 C3208 0.949 . S
H3204 C3210 0.950 . S
H3205 C3211 0.950 . S
H3206 C3212 0.949 . S
C3207 H3202 0.950 . S
C3207 C3209 1.327 . S
C3207 C3213 1.429 . S
C3208 C3200 1.574 . S
C3208 H3203 0.949 . S
C3208 C3214 1.368 . S
C3209 C3193 1.349 . S
C3209 H3201 0.950 . S
C3209 C3207 1.327 . S
C3210 C3198 1.349 . S
C3210 H3204 0.950 . S
C3210 C3211 1.327 . S
C3211 H3205 0.950 . S
C3211 C3210 1.327 . S
C3211 C3215 1.429 . S
C3212 C3195 1.574 . S
C3212 H3206 0.949 . S
C3212 C3216 1.368 . S
C3213 C3194 1.429 . S
C3213 C3207 1.429 . S
C3213 C3214 1.523 . S
C3214 C3195 1.368 . S
C3214 C3208 1.368 . S
C3214 C3213 1.523 . S
C3215 C3199 1.429 . S
C3215 C3211 1.429 . S
C3215 C3216 1.523 . S
C3216 C3200 1.368 . S
C3216 C3212 1.368 . S
C3216 C3215 1.523 . S
H3217 C3192 0.950 . S
H3218 C3194 0.950 . S
H3219 C3195 0.949 . S
H3220 C3197 0.950 . S
H3221 C3199 0.950 . S
C3222 C3223 1.349 . S
C3222 C3224 1.327 . S
C3222 H3247 0.950 . S
C3223 C3222 1.349 . S
C3223 C3239 1.349 . S
C3224 C3222 1.327 . S
C3224 C3243 1.429 . S
C3224 H3248 0.950 . S
C3225 C3242 1.574 . S
C3225 C3244 1.368 . S
C3225 H3249 0.949 . S
H3226 C3230 0.949 . S
C3227 C3228 1.349 . S
C3227 C3229 1.327 . S
C3227 H3250 0.950 . S
C3228 C3227 1.349 . S
C3228 C3240 1.349 . S
C3229 C3227 1.327 . S
C3229 C3245 1.429 . S
C3229 H3251 0.950 . S
C3230 H3226 0.949 . S
C3230 C3238 1.574 . S
C3230 C3246 1.368 . S
H3231 C3239 0.950 . S
H3232 C3237 0.950 . S
H3233 C3238 0.949 . S
H3234 C3240 0.950 . S
H3235 C3241 0.950 . S
H3236 C3242 0.949 . S
C3237 H3232 0.950 . S
C3237 C3239 1.327 . S
C3237 C3243 1.429 . S
C3238 C3230 1.574 . S
C3238 H3233 0.949 . S
C3238 C3244 1.368 . S
C3239 C3223 1.349 . S
C3239 H3231 0.950 . S
C3239 C3237 1.327 . S
C3240 C3228 1.349 . S
C3240 H3234 0.950 . S
C3240 C3241 1.327 . S
C3241 H3235 0.950 . S
C3241 C3240 1.327 . S
C3241 C3245 1.429 . S
C3242 C3225 1.574 . S
C3242 H3236 0.949 . S
C3242 C3246 1.368 . S
C3243 C3224 1.429 . S
C3243 C3237 1.429 . S
C3243 C3244 1.523 . S
C3244 C3225 1.368 . S
C3244 C3238 1.368 . S
C3244 C3243 1.523 . S
C3245 C3229 1.429 . S
C3245 C3241 1.429 . S
C3245 C3246 1.523 . S
C3246 C3230 1.368 . S
C3246 C3242 1.368 . S
C3246 C3245 1.523 . S
H3247 C3222 0.950 . S
H3248 C3224 0.950 . S
H3249 C3225 0.949 . S
H3250 C3227 0.950 . S
H3251 C3229 0.950 . S
C3252 C3253 1.349 . S
C3252 C3254 1.327 . S
C3252 H3277 0.950 . S
C3253 C3252 1.349 . S
C3253 C3269 1.349 . S
C3254 C3252 1.327 . S
C3254 C3273 1.429 . S
C3254 H3278 0.950 . S
C3255 C3272 1.574 . S
C3255 C3274 1.368 . S
C3255 H3279 0.949 . S
H3256 C3260 0.949 . S
C3257 C3258 1.349 . S
C3257 C3259 1.327 . S
C3257 H3280 0.950 . S
C3258 C3257 1.349 . S
C3258 C3270 1.349 . S
C3259 C3257 1.327 . S
C3259 C3275 1.429 . S
C3259 H3281 0.950 . S
C3260 H3256 0.949 . S
C3260 C3268 1.574 . S
C3260 C3276 1.368 . S
H3261 C3269 0.950 . S
H3262 C3267 0.950 . S
H3263 C3268 0.949 . S
H3264 C3270 0.950 . S
H3265 C3271 0.950 . S
H3266 C3272 0.949 . S
C3267 H3262 0.950 . S
C3267 C3269 1.327 . S
C3267 C3273 1.429 . S
C3268 C3260 1.574 . S
C3268 H3263 0.949 . S
C3268 C3274 1.368 . S
C3269 C3253 1.349 . S
C3269 H3261 0.950 . S
C3269 C3267 1.327 . S
C3270 C3258 1.349 . S
C3270 H3264 0.950 . S
C3270 C3271 1.327 . S
C3271 H3265 0.950 . S
C3271 C3270 1.327 . S
C3271 C3275 1.429 . S
C3272 C3255 1.574 . S
C3272 H3266 0.949 . S
C3272 C3276 1.368 . S
C3273 C3254 1.429 . S
C3273 C3267 1.429 . S
C3273 C3274 1.523 . S
C3274 C3255 1.368 . S
C3274 C3268 1.368 . S
C3274 C3273 1.523 . S
C3275 C3259 1.429 . S
C3275 C3271 1.429 . S
C3275 C3276 1.523 . S
C3276 C3260 1.368 . S
C3276 C3272 1.368 . S
C3276 C3275 1.523 . S
H3277 C3252 0.950 . S
H3278 C3254 0.950 . S
H3279 C3255 0.949 . S
H3280 C3257 0.950 . S
H3281 C3259 0.950 . S
C3282 C3283 1.349 . S
C3282 C3284 1.327 . S
C3282 H3307 0.950 . S
C3283 C3282 1.349 . S
C3283 C3299 1.349 . S
C3284 C3282 1.327 . S
C3284 C3303 1.429 . S
C3284 H3308 0.950 . S
C3285 C3302 1.574 . S
C3285 C3304 1.368 . S
C3285 H3309 0.949 . S
H3286 C3290 0.949 . S
C3287 C3288 1.349 . S
C3287 C3289 1.327 . S
C3287 H3310 0.950 . S
C3288 C3287 1.349 . S
C3288 C3300 1.349 . S
C3289 C3287 1.327 . S
C3289 C3305 1.429 . S
C3289 H3311 0.950 . S
C3290 H3286 0.949 . S
C3290 C3298 1.574 . S
C3290 C3306 1.368 . S
H3291 C3299 0.950 . S
H3292 C3297 0.950 . S
H3293 C3298 0.949 . S
H3294 C3300 0.950 . S
H3295 C3301 0.950 . S
H3296 C3302 0.949 . S
C3297 H3292 0.950 . S
C3297 C3299 1.327 . S
C3297 C3303 1.429 . S
C3298 C3290 1.574 . S
C3298 H3293 0.949 . S
C3298 C3304 1.368 . S
C3299 C3283 1.349 . S
C3299 H3291 0.950 . S
C3299 C3297 1.327 . S
C3300 C3288 1.349 . S
C3300 H3294 0.950 . S
C3300 C3301 1.327 . S
C3301 H3295 0.950 . S
C3301 C3300 1.327 . S
C3301 C3305 1.429 . S
C3302 C3285 1.574 . S
C3302 H3296 0.949 . S
C3302 C3306 1.368 . S
C3303 C3284 1.429 . S
C3303 C3297 1.429 . S
C3303 C3304 1.523 . S
C3304 C3285 1.368 . S
C3304 C3298 1.368 . S
C3304 C3303 1.523 . S
C3305 C3289 1.429 . S
C3305 C3301 1.429 . S
C3305 C3306 1.523 . S
C3306 C3290 1.368 . S
C3306 C3302 1.368 . S
C3306 C3305 1.523 . S
H3307 C3282 0.950 . S
H3308 C3284 0.950 . S
H3309 C3285 0.949 . S
H3310 C3287 0.950 . S
H3311 C3289 0.950 . S
C3312 C3313 1.349 . S
C3312 C3314 1.327 . S
C3312 H3337 0.950 . S
C3313 C3312 1.349 . S
C3313 C3329 1.349 . S
C3314 C3312 1.327 . S
C3314 C3333 1.429 . S
C3314 H3338 0.950 . S
C3315 C3332 1.574 . S
C3315 C3334 1.368 . S
C3315 H3339 0.949 . S
H3316 C3320 0.949 . S
C3317 C3318 1.349 . S
C3317 C3319 1.327 . S
C3317 H3340 0.950 . S
C3318 C3317 1.349 . S
C3318 C3330 1.349 . S
C3319 C3317 1.327 . S
C3319 C3335 1.429 . S
C3319 H3341 0.950 . S
C3320 H3316 0.949 . S
C3320 C3328 1.574 . S
C3320 C3336 1.368 . S
H3321 C3329 0.950 . S
H3322 C3327 0.950 . S
H3323 C3328 0.949 . S
H3324 C3330 0.950 . S
H3325 C3331 0.950 . S
H3326 C3332 0.949 . S
C3327 H3322 0.950 . S
C3327 C3329 1.327 . S
C3327 C3333 1.429 . S
C3328 C3320 1.574 . S
C3328 H3323 0.949 . S
C3328 C3334 1.368 . S
C3329 C3313 1.349 . S
C3329 H3321 0.950 . S
C3329 C3327 1.327 . S
C3330 C3318 1.349 . S
C3330 H3324 0.950 . S
C3330 C3331 1.327 . S
C3331 H3325 0.950 . S
C3331 C3330 1.327 . S
C3331 C3335 1.429 . S
C3332 C3315 1.574 . S
C3332 H3326 0.949 . S
C3332 C3336 1.368 . S
C3333 C3314 1.429 . S
C3333 C3327 1.429 . S
C3333 C3334 1.523 . S
C3334 C3315 1.368 . S
C3334 C3328 1.368 . S
C3334 C3333 1.523 . S
C3335 C3319 1.429 . S
C3335 C3331 1.429 . S
C3335 C3336 1.523 . S
C3336 C3320 1.368 . S
C3336 C3332 1.368 . S
C3336 C3335 1.523 . S
H3337 C3312 0.950 . S
H3338 C3314 0.950 . S
H3339 C3315 0.949 . S
H3340 C3317 0.950 . S
H3341 C3319 0.950 . S
C3342 C3343 1.349 . S
C3342 C3344 1.327 . S
C3342 H3367 0.950 . S
C3343 C3342 1.349 . S
C3343 C3359 1.349 . S
C3344 C3342 1.327 . S
C3344 C3363 1.429 . S
C3344 H3368 0.950 . S
C3345 C3362 1.574 . S
C3345 C3364 1.368 . S
C3345 H3369 0.949 . S
H3346 C3350 0.949 . S
C3347 C3348 1.349 . S
C3347 C3349 1.327 . S
C3347 H3370 0.950 . S
C3348 C3347 1.349 . S
C3348 C3360 1.349 . S
C3349 C3347 1.327 . S
C3349 C3365 1.429 . S
C3349 H3371 0.950 . S
C3350 H3346 0.949 . S
C3350 C3358 1.574 . S
C3350 C3366 1.368 . S
H3351 C3359 0.950 . S
H3352 C3357 0.950 . S
H3353 C3358 0.949 . S
H3354 C3360 0.950 . S
H3355 C3361 0.950 . S
H3356 C3362 0.949 . S
C3357 H3352 0.950 . S
C3357 C3359 1.327 . S
C3357 C3363 1.429 . S
C3358 C3350 1.574 . S
C3358 H3353 0.949 . S
C3358 C3364 1.368 . S
C3359 C3343 1.349 . S
C3359 H3351 0.950 . S
C3359 C3357 1.327 . S
C3360 C3348 1.349 . S
C3360 H3354 0.950 . S
C3360 C3361 1.327 . S
C3361 H3355 0.950 . S
C3361 C3360 1.327 . S
C3361 C3365 1.429 . S
C3362 C3345 1.574 . S
C3362 H3356 0.949 . S
C3362 C3366 1.368 . S
C3363 C3344 1.429 . S
C3363 C3357 1.429 . S
C3363 C3364 1.523 . S
C3364 C3345 1.368 . S
C3364 C3358 1.368 . S
C3364 C3363 1.523 . S
C3365 C3349 1.429 . S
C3365 C3361 1.429 . S
C3365 C3366 1.523 . S
C3366 C3350 1.368 . S
C3366 C3362 1.368 . S
C3366 C3365 1.523 . S
H3367 C3342 0.950 . S
H3368 C3344 0.950 . S
H3369 C3345 0.949 . S
H3370 C3347 0.950 . S
H3371 C3349 0.950 . S
C3372 C3373 1.349 . S
C3372 C3374 1.327 . S
C3372 H3397 0.950 . S
C3373 C3372 1.349 . S
C3373 C3389 1.349 . S
C3374 C3372 1.327 . S
C3374 C3393 1.429 . S
C3374 H3398 0.950 . S
C3375 C3392 1.574 . S
C3375 C3394 1.368 . S
C3375 H3399 0.949 . S
H3376 C3380 0.949 . S
C3377 C3378 1.349 . S
C3377 C3379 1.327 . S
C3377 H3400 0.950 . S
C3378 C3377 1.349 . S
C3378 C3390 1.349 . S
C3379 C3377 1.327 . S
C3379 C3395 1.429 . S
C3379 H3401 0.950 . S
C3380 H3376 0.949 . S
C3380 C3388 1.574 . S
C3380 C3396 1.368 . S
H3381 C3389 0.950 . S
H3382 C3387 0.950 . S
H3383 C3388 0.949 . S
H3384 C3390 0.950 . S
H3385 C3391 0.950 . S
H3386 C3392 0.949 . S
C3387 H3382 0.950 . S
C3387 C3389 1.327 . S
C3387 C3393 1.429 . S
C3388 C3380 1.574 . S
C3388 H3383 0.949 . S
C3388 C3394 1.368 . S
C3389 C3373 1.349 . S
C3389 H3381 0.950 . S
C3389 C3387 1.327 . S
C3390 C3378 1.349 . S
C3390 H3384 0.950 . S
C3390 C3391 1.327 . S
C3391 H3385 0.950 . S
C3391 C3390 1.327 . S
C3391 C3395 1.429 . S
C3392 C3375 1.574 . S
C3392 H3386 0.949 . S
C3392 C3396 1.368 . S
C3393 C3374 1.429 . S
C3393 C3387 1.429 . S
C3393 C3394 1.523 . S
C3394 C3375 1.368 . S
C3394 C3388 1.368 . S
C3394 C3393 1.523 . S
C3395 C3379 1.429 . S
C3395 C3391 1.429 . S
C3395 C3396 1.523 . S
C3396 C3380 1.368 . S
C3396 C3392 1.368 . S
C3396 C3395 1.523 . S
H3397 C3372 0.950 . S
H3398 C3374 0.950 . S
H3399 C3375 0.949 . S
H3400 C3377 0.950 . S
H3401 C3379 0.950 . S
C3402 C3403 1.349 . S
C3402 C3404 1.327 . S
C3402 H3427 0.950 . S
C3403 C3402 1.349 . S
C3403 C3419 1.349 . S
C3404 C3402 1.327 . S
C3404 C3423 1.429 . S
C3404 H3428 0.950 . S
C3405 C3422 1.574 . S
C3405 C3424 1.368 . S
C3405 H3429 0.949 . S
H3406 C3410 0.949 . S
C3407 C3408 1.349 . S
C3407 C3409 1.327 . S
C3407 H3430 0.950 . S
C3408 C3407 1.349 . S
C3408 C3420 1.349 . S
C3409 C3407 1.327 . S
C3409 C3425 1.429 . S
C3409 H3431 0.950 . S
C3410 H3406 0.949 . S
C3410 C3418 1.574 . S
C3410 C3426 1.368 . S
H3411 C3419 0.950 . S
H3412 C3417 0.950 . S
H3413 C3418 0.949 . S
H3414 C3420 0.950 . S
H3415 C3421 0.950 . S
H3416 C3422 0.949 . S
C3417 H3412 0.950 . S
C3417 C3419 1.327 . S
C3417 C3423 1.429 . S
C3418 C3410 1.574 . S
C3418 H3413 0.949 . S
C3418 C3424 1.368 . S
C3419 C3403 1.349 . S
C3419 H3411 0.950 . S
C3419 C3417 1.327 . S
C3420 C3408 1.349 . S
C3420 H3414 0.950 . S
C3420 C3421 1.327 . S
C3421 H3415 0.950 . S
C3421 C3420 1.327 . S
C3421 C3425 1.429 . S
C3422 C3405 1.574 . S
C3422 H3416 0.949 . S
C3422 C3426 1.368 . S
C3423 C3404 1.429 . S
C3423 C3417 1.429 . S
C3423 C3424 1.523 . S
C3424 C3405 1.368 . S
C3424 C3418 1.368 . S
C3424 C3423 1.523 . S
C3425 C3409 1.429 . S
C3425 C3421 1.429 . S
C3425 C3426 1.523 . S
C3426 C3410 1.368 . S
C3426 C3422 1.368 . S
C3426 C3425 1.523 . S
H3427 C3402 0.950 . S
H3428 C3404 0.950 . S
H3429 C3405 0.949 . S
H3430 C3407 0.950 . S
H3431 C3409 0.950 . S
C3432 C3433 1.349 . S
C3432 C3434 1.327 . S
C3432 H3457 0.950 . S
C3433 C3432 1.349 . S
C3433 C3449 1.349 . S
C3434 C3432 1.327 . S
C3434 C3453 1.429 . S
C3434 H3458 0.950 . S
C3435 C3452 1.574 . S
C3435 C3454 1.368 . S
C3435 H3459 0.949 . S
H3436 C3440 0.949 . S
C3437 C3438 1.349 . S
C3437 C3439 1.327 . S
C3437 H3460 0.950 . S
C3438 C3437 1.349 . S
C3438 C3450 1.349 . S
C3439 C3437 1.327 . S
C3439 C3455 1.429 . S
C3439 H3461 0.950 . S
C3440 H3436 0.949 . S
C3440 C3448 1.574 . S
C3440 C3456 1.368 . S
H3441 C3449 0.950 . S
H3442 C3447 0.950 . S
H3443 C3448 0.949 . S
H3444 C3450 0.950 . S
H3445 C3451 0.950 . S
H3446 C3452 0.949 . S
C3447 H3442 0.950 . S
C3447 C3449 1.327 . S
C3447 C3453 1.429 . S
C3448 C3440 1.574 . S
C3448 H3443 0.949 . S
C3448 C3454 1.368 . S
C3449 C3433 1.349 . S
C3449 H3441 0.950 . S
C3449 C3447 1.327 . S
C3450 C3438 1.349 . S
C3450 H3444 0.950 . S
C3450 C3451 1.327 . S
C3451 H3445 0.950 . S
C3451 C3450 1.327 . S
C3451 C3455 1.429 . S
C3452 C3435 1.574 . S
C3452 H3446 0.949 . S
C3452 C3456 1.368 . S
C3453 C3434 1.429 . S
C3453 C3447 1.429 . S
C3453 C3454 1.523 . S
C3454 C3435 1.368 . S
C3454 C3448 1.368 . S
C3454 C3453 1.523 . S
C3455 C3439 1.429 . S
C3455 C3451 1.429 . S
C3455 C3456 1.523 . S
C3456 C3440 1.368 . S
C3456 C3452 1.368 . S
C3456 C3455 1.523 . S
H3457 C3432 0.950 . S
H3458 C3434 0.950 . S
H3459 C3435 0.949 . S
H3460 C3437 0.950 . S
H3461 C3439 0.950 . S
C3462 C3463 1.349 . S
C3462 C3464 1.327 . S
C3462 H3487 0.950 . S
C3463 C3462 1.349 . S
C3463 C3479 1.349 . S
C3464 C3462 1.327 . S
C3464 C3483 1.429 . S
C3464 H3488 0.950 . S
C3465 C3482 1.574 . S
C3465 C3484 1.368 . S
C3465 H3489 0.949 . S
H3466 C3470 0.949 . S
C3467 C3468 1.349 . S
C3467 C3469 1.327 . S
C3467 H3490 0.950 . S
C3468 C3467 1.349 . S
C3468 C3480 1.349 . S
C3469 C3467 1.327 . S
C3469 C3485 1.429 . S
C3469 H3491 0.950 . S
C3470 H3466 0.949 . S
C3470 C3478 1.574 . S
C3470 C3486 1.368 . S
H3471 C3479 0.950 . S
H3472 C3477 0.950 . S
H3473 C3478 0.949 . S
H3474 C3480 0.950 . S
H3475 C3481 0.950 . S
H3476 C3482 0.949 . S
C3477 H3472 0.950 . S
C3477 C3479 1.327 . S
C3477 C3483 1.429 . S
C3478 C3470 1.574 . S
C3478 H3473 0.949 . S
C3478 C3484 1.368 . S
C3479 C3463 1.349 . S
C3479 H3471 0.950 . S
C3479 C3477 1.327 . S
C3480 C3468 1.349 . S
C3480 H3474 0.950 . S
C3480 C3481 1.327 . S
C3481 H3475 0.950 . S
C3481 C3480 1.327 . S
C3481 C3485 1.429 . S
C3482 C3465 1.574 . S
C3482 H3476 0.949 . S
C3482 C3486 1.368 . S
C3483 C3464 1.429 . S
C3483 C3477 1.429 . S
C3483 C3484 1.523 . S
C3484 C3465 1.368 . S
C3484 C3478 1.368 . S
C3484 C3483 1.523 . S
C3485 C3469 1.429 . S
C3485 C3481 1.429 . S
C3485 C3486 1.523 . S
C3486 C3470 1.368 . S
C3486 C3482 1.368 . S
C3486 C3485 1.523 . S
H3487 C3462 0.950 . S
H3488 C3464 0.950 . S
H3489 C3465 0.949 . S
H3490 C3467 0.950 . S
H3491 C3469 0.950 . S
C3492 C3493 1.349 . S
C3492 C3494 1.327 . S
C3492 H3517 0.950 . S
C3493 C3492 1.349 . S
C3493 C3509 1.349 . S
C3494 C3492 1.327 . S
C3494 C3513 1.429 . S
C3494 H3518 0.950 . S
C3495 C3512 1.574 . S
C3495 C3514 1.368 . S
C3495 H3519 0.949 . S
H3496 C3500 0.949 . S
C3497 C3498 1.349 . S
C3497 C3499 1.327 . S
C3497 H3520 0.950 . S
C3498 C3497 1.349 . S
C3498 C3510 1.349 . S
C3499 C3497 1.327 . S
C3499 C3515 1.429 . S
C3499 H3521 0.950 . S
C3500 H3496 0.949 . S
C3500 C3508 1.574 . S
C3500 C3516 1.368 . S
H3501 C3509 0.950 . S
H3502 C3507 0.950 . S
H3503 C3508 0.949 . S
H3504 C3510 0.950 . S
H3505 C3511 0.950 . S
H3506 C3512 0.949 . S
C3507 H3502 0.950 . S
C3507 C3509 1.327 . S
C3507 C3513 1.429 . S
C3508 C3500 1.574 . S
C3508 H3503 0.949 . S
C3508 C3514 1.368 . S
C3509 C3493 1.349 . S
C3509 H3501 0.950 . S
C3509 C3507 1.327 . S
C3510 C3498 1.349 . S
C3510 H3504 0.950 . S
C3510 C3511 1.327 . S
C3511 H3505 0.950 . S
C3511 C3510 1.327 . S
C3511 C3515 1.429 . S
C3512 C3495 1.574 . S
C3512 H3506 0.949 . S
C3512 C3516 1.368 . S
C3513 C3494 1.429 . S
C3513 C3507 1.429 . S
C3513 C3514 1.523 . S
C3514 C3495 1.368 . S
C3514 C3508 1.368 . S
C3514 C3513 1.523 . S
C3515 C3499 1.429 . S
C3515 C3511 1.429 . S
C3515 C3516 1.523 . S
C3516 C3500 1.368 . S
C3516 C3512 1.368 . S
C3516 C3515 1.523 . S
H3517 C3492 0.950 . S
H3518 C3494 0.950 . S
H3519 C3495 0.949 . S
H3520 C3497 0.950 . S
H3521 C3499 0.950 . S
C3522 C3523 1.349 . S
C3522 C3524 1.327 . S
C3522 H3547 0.950 . S
C3523 C3522 1.349 . S
C3523 C3539 1.349 . S
C3524 C3522 1.327 . S
C3524 C3543 1.429 . S
C3524 H3548 0.950 . S
C3525 C3542 1.574 . S
C3525 C3544 1.368 . S
C3525 H3549 0.949 . S
H3526 C3530 0.949 . S
C3527 C3528 1.349 . S
C3527 C3529 1.327 . S
C3527 H3550 0.950 . S
C3528 C3527 1.349 . S
C3528 C3540 1.349 . S
C3529 C3527 1.327 . S
C3529 C3545 1.429 . S
C3529 H3551 0.950 . S
C3530 H3526 0.949 . S
C3530 C3538 1.574 . S
C3530 C3546 1.368 . S
H3531 C3539 0.950 . S
H3532 C3537 0.950 . S
H3533 C3538 0.949 . S
H3534 C3540 0.950 . S
H3535 C3541 0.950 . S
H3536 C3542 0.949 . S
C3537 H3532 0.950 . S
C3537 C3539 1.327 . S
C3537 C3543 1.429 . S
C3538 C3530 1.574 . S
C3538 H3533 0.949 . S
C3538 C3544 1.368 . S
C3539 C3523 1.349 . S
C3539 H3531 0.950 . S
C3539 C3537 1.327 . S
C3540 C3528 1.349 . S
C3540 H3534 0.950 . S
C3540 C3541 1.327 . S
C3541 H3535 0.950 . S
C3541 C3540 1.327 . S
C3541 C3545 1.429 . S
C3542 C3525 1.574 . S
C3542 H3536 0.949 . S
C3542 C3546 1.368 . S
C3543 C3524 1.429 . S
C3543 C3537 1.429 . S
C3543 C3544 1.523 . S
C3544 C3525 1.368 . S
C3544 C3538 1.368 . S
C3544 C3543 1.523 . S
C3545 C3529 1.429 . S
C3545 C3541 1.429 . S
C3545 C3546 1.523 . S
C3546 C3530 1.368 . S
C3546 C3542 1.368 . S
C3546 C3545 1.523 . S
H3547 C3522 0.950 . S
H3548 C3524 0.950 . S
H3549 C3525 0.949 . S
H3550 C3527 0.950 . S
H3551 C3529 0.950 . S
C673 C7 1.607 . S
C678 C88 1.607 . S
C703 C109 1.607 . S
C708 C28 1.607 . S
C733 C130 1.607 . S
C738 C46 1.607 . S
C763 C70 1.607 . S
C768 C151 1.607 . S
C793 C172 1.607 . S
C798 C256 1.607 . S
C823 C196 1.607 . S
C828 C277 1.607 . S
C853 C217 1.607 . S
C858 C298 1.607 . S
C883 C319 1.607 . S
C888 C238 1.607 . S
C913 C343 1.607 . S
C918 C427 1.607 . S
C943 C445 1.607 . S
C948 C364 1.607 . S
C973 C382 1.607 . S
C978 C466 1.607 . S
C1003 C490 1.607 . S
C1008 C406 1.607 . S
C1033 C508 1.607 . S
C1038 C595 1.607 . S
C1063 C532 1.607 . S
C1068 C616 1.607 . S
C1093 C550 1.607 . S
C1098 C634 1.607 . S
C1123 C571 1.607 . S
C1128 C655 1.607 . S
C1153 C524 1.282 . S
C1158 C19 1.282 . S
C1183 C208 1.282 . S
C1188 C40 1.282 . S
C1213 C62 1.282 . S
C1218 C566 1.282 . S
C1243 C82 1.282 . S
C1248 C250 1.282 . S
C1273 C104 1.282 . S
C1278 C607 1.282 . S
C1303 C125 1.282 . S
C1308 C293 1.282 . S
C1333 C650 1.282 . S
C1338 C146 1.282 . S
C1363 C335 1.282 . S
C1368 C167 1.282 . S
C1393 C355 1.282 . S
C1398 C188 1.282 . S
C1423 C229 1.282 . S
C1428 C398 1.282 . S
C1453 C272 1.282 . S
C1458 C439 1.282 . S
C1483 C482 1.282 . S
C1488 C314 1.282 . S
C1513 C376 1.282 . S
C1518 C544 1.282 . S
C1543 C587 1.282 . S
C1548 C418 1.282 . S
C1573 C628 1.282 . S
C1578 C461 1.282 . S
C1603 C502 1.282 . S
C1608 C671 1.282 . S
C1633 C20 0.828 . S
C1638 C583 0.819 . S
C1663 C41 0.828 . S
C1668 C184 0.819 . S
C1693 C61 0.828 . S
C1698 C528 0.819 . S
C1723 C213 0.819 . S
C1728 C83 0.828 . S
C1753 C612 0.819 . S
C1758 C103 0.828 . S
C1783 C124 0.828 . S
C1788 C310 0.819 . S
C1813 C667 0.819 . S
C1818 C145 0.828 . S
C1843 C268 0.819 . S
C1848 C166 0.828 . S
C1873 C402 0.819 . S
C1878 C187 0.828 . S
C1903 C209 0.828 . S
C1908 C3 0.819 . S
C1933 C360 0.819 . S
C1938 C230 0.828 . S
C1963 C58 0.819 . S
C1968 C251 0.828 . S
C1993 C457 0.819 . S
C1998 C271 0.828 . S
C2023 C292 0.828 . S
C2028 C142 0.819 . S
C2053 C313 0.828 . S
C2058 C486 0.819 . S
C2083 C100 0.819 . S
C2088 C334 0.828 . S
C2113 C356 0.828 . S
C2118 C234 0.819 . S
C2143 C377 0.828 . S
C2148 C520 0.819 . S
C2173 C192 0.819 . S
C2178 C397 0.828 . S
C2203 C419 0.828 . S
C2208 C562 0.819 . S
C2233 C289 0.819 . S
C2238 C440 0.828 . S
C2263 C460 0.828 . S
C2268 C646 0.819 . S
C2293 C331 0.819 . S
C2298 C481 0.828 . S
C2323 C503 0.828 . S
C2328 C591 0.819 . S
C2353 C66 0.819 . S
C2358 C523 0.828 . S
C2383 C545 0.828 . S
C2388 C339 0.819 . S
C2413 C565 0.828 . S
C2418 C24 0.819 . S
C2443 C394 0.819 . S
C2448 C586 0.828 . S
C2473 C121 0.819 . S
C2478 C608 0.828 . S
C2503 C478 0.819 . S
C2508 C629 0.828 . S
C2533 C649 0.828 . S
C2538 C163 0.819 . S
C2563 C423 0.819 . S
C2568 C670 0.828 . S
C2593 C4 0.693 . S
C2598 C385 0.693 . S
C2623 C25 0.693 . S
C2628 C403 0.693 . S
C2653 C49 0.693 . S
C2658 C340 0.693 . S
C2683 C67 0.693 . S
C2688 C361 0.693 . S
C2713 C469 0.693 . S
C2718 C91 0.693 . S
C2743 C487 0.693 . S
C2748 C112 0.693 . S
C2773 C133 0.693 . S
C2778 C424 0.693 . S
C2803 C448 0.693 . S
C2808 C154 0.693 . S
C2833 C553 0.693 . S
C2838 C175 0.693 . S
C2863 C574 0.693 . S
C2868 C193 0.693 . S
C2893 C511 0.693 . S
C2898 C214 0.693 . S
C2923 C235 0.693 . S
C2928 C529 0.693 . S
C2953 C259 0.693 . S
C2958 C637 0.693 . S
C2983 C658 0.693 . S
C2988 C280 0.693 . S
C3013 C592 0.693 . S
C3018 C301 0.693 . S
C3043 C322 0.693 . S
C3048 C613 0.693 . S
C3073 C150 0.777 . S
C3078 C16 0.777 . S
C3103 C37 0.777 . S
C3108 C87 0.777 . S
C3133 C45 0.777 . S
C3138 C108 0.777 . S
C3163 C129 0.777 . S
C3168 C79 0.777 . S
C3193 C318 0.777 . S
C3198 C171 0.777 . S
C3223 C205 0.777 . S
C3228 C255 0.777 . S
C3253 C276 0.777 . S
C3258 C226 0.777 . S
C3283 C297 0.777 . S
C3288 C247 0.777 . S
C3313 C499 0.777 . S
C3318 C352 0.777 . S
C3343 C436 0.777 . S
C3348 C373 0.777 . S
C3373 C444 0.777 . S
C3378 C381 0.777 . S
C3403 C415 0.777 . S
C3408 C465 0.777 . S
C3433 C654 0.777 . S
C3438 C507 0.777 . S
C3463 C604 0.777 . S
C3468 C541 0.777 . S
C3493 C625 0.777 . S
C3498 C549 0.777 . S
C3523 C570 0.777 . S
C3528 C633 0.777 . S
