# Generated by pormake.
# Topology snz, (6)-cn, num edge types: 1
# Building blocks:
#     Node 0, Type 0, BuildingBlock: BETDAH_clean_sbu_0, # of connection points: 6
#     Node 1, Type 0, BuildingBlock: BETDAH_clean_sbu_0, # of connection points: 6
#     Node 2, Type 0, BuildingBlock: BETDAH_clean_sbu_0, # of connection points: 6
#     Node 3, Type 0, BuildingBlock: BETDAH_clean_sbu_0, # of connection points: 6
#     Node 4, Type 0, BuildingBlock: BETDAH_clean_sbu_0, # of connection points: 6
#     Node 5, Type 0, BuildingBlock: BETDAH_clean_sbu_0, # of connection points: 6
#     Node 6, Type 0, BuildingBlock: BETDAH_clean_sbu_0, # of connection points: 6
#     Node 7, Type 0, BuildingBlock: BETDAH_clean_sbu_0, # of connection points: 6
#     Node 8, Type 0, BuildingBlock: BETDAH_clean_sbu_0, # of connection points: 6
#     Edge 9, Type (0, 0), BuildingBlock: XUDNAN_clean_linker_2, # of connection points: 2
#     Edge 10, Type (0, 0), BuildingBlock: XUDNAN_clean_linker_2, # of connection points: 2
#     Edge 11, Type (0, 0), BuildingBlock: XUDNAN_clean_linker_2, # of connection points: 2
#     Edge 12, Type (0, 0), BuildingBlock: XUDNAN_clean_linker_2, # of connection points: 2
#     Edge 13, Type (0, 0), BuildingBlock: XUDNAN_clean_linker_2, # of connection points: 2
#     Edge 14, Type (0, 0), BuildingBlock: XUDNAN_clean_linker_2, # of connection points: 2
#     Edge 15, Type (0, 0), BuildingBlock: XUDNAN_clean_linker_2, # of connection points: 2
#     Edge 16, Type (0, 0), BuildingBlock: XUDNAN_clean_linker_2, # of connection points: 2
#     Edge 17, Type (0, 0), BuildingBlock: XUDNAN_clean_linker_2, # of connection points: 2
#     Edge 18, Type (0, 0), BuildingBlock: XUDNAN_clean_linker_2, # of connection points: 2
#     Edge 19, Type (0, 0), BuildingBlock: XUDNAN_clean_linker_2, # of connection points: 2
#     Edge 20, Type (0, 0), BuildingBlock: XUDNAN_clean_linker_2, # of connection points: 2
#     Edge 21, Type (0, 0), BuildingBlock: XUDNAN_clean_linker_2, # of connection points: 2
#     Edge 22, Type (0, 0), BuildingBlock: XUDNAN_clean_linker_2, # of connection points: 2
#     Edge 23, Type (0, 0), BuildingBlock: XUDNAN_clean_linker_2, # of connection points: 2
#     Edge 24, Type (0, 0), BuildingBlock: XUDNAN_clean_linker_2, # of connection points: 2
#     Edge 25, Type (0, 0), BuildingBlock: XUDNAN_clean_linker_2, # of connection points: 2
#     Edge 26, Type (0, 0), BuildingBlock: XUDNAN_clean_linker_2, # of connection points: 2
#     Edge 27, Type (0, 0), BuildingBlock: XUDNAN_clean_linker_2, # of connection points: 2
#     Edge 28, Type (0, 0), BuildingBlock: XUDNAN_clean_linker_2, # of connection points: 2
#     Edge 29, Type (0, 0), BuildingBlock: XUDNAN_clean_linker_2, # of connection points: 2
#     Edge 30, Type (0, 0), BuildingBlock: XUDNAN_clean_linker_2, # of connection points: 2
#     Edge 31, Type (0, 0), BuildingBlock: XUDNAN_clean_linker_2, # of connection points: 2
#     Edge 32, Type (0, 0), BuildingBlock: XUDNAN_clean_linker_2, # of connection points: 2
#     Edge 33, Type (0, 0), BuildingBlock: XUDNAN_clean_linker_2, # of connection points: 2
#     Edge 34, Type (0, 0), BuildingBlock: XUDNAN_clean_linker_2, # of connection points: 2
#     Edge 35, Type (0, 0), BuildingBlock: XUDNAN_clean_linker_2, # of connection points: 2
# Relax obj value: 0.428
# Max RMSD: 0.272
# Mean RMSD: 0.178
data_MOF--net-snz--node1-BETDAH_clean_sbu_0--edge1-XUDNAN_clean_linker_2
_symmetry_space_group_name_H-M    P1
_symmetry_Int_Tables_number       1
_symmetry_cell_setting            triclinic
loop_
_symmetry_equiv_pos_as_xyz
'x, y, z'
_cell_length_a     68.007908
_cell_length_b     54.945929
_cell_length_c     16.040613
_cell_angle_alpha  96.833563
_cell_angle_beta   96.97935
_cell_angle_gamma 121.09674
loop_
_atom_site_label
_atom_site_type_symbol
_atom_site_fract_x
_atom_site_fract_y
_atom_site_fract_z
_atom_type_partial_charge
Ho0 Ho 0.1161 0.48472 0.22681 0.0
Ho1 Ho 0.08319 0.49414 0.22738 0.0
C2 C 0.06324 0.42768 0.15743 0.0
C3 C 0.14039 0.46256 0.27231 0.0
C4 C 0.15319 0.44861 0.3013 0.0
C5 C 0.14342 0.42687 0.34942 0.0
C6 C 0.15562 0.41445 0.38067 0.0
C7 C 0.17805 0.42338 0.36499 0.0
C8 C 0.18758 0.44467 0.31501 0.0
C9 C 0.17533 0.45711 0.28371 0.0
C10 C 0.10936 0.49549 1.0614 0.0
C11 C 0.13427 0.55151 0.26892 0.0
C12 C 0.05346 0.51073 0.20985 0.0
C13 C 0.04603 0.52567 0.15582 0.0
C14 C 0.05979 0.54236 0.10169 0.0
C15 C 0.05212 0.55644 1.05187 0.0
C16 C 0.03053 0.55391 1.05508 0.0
C17 C 1.01684 0.53698 0.10922 0.0
C18 C 0.02452 0.52302 0.15888 0.0
C19 C 0.09431 0.48656 0.39605 0.0
O20 O 0.08579 0.43759 0.16933 0.0
O21 O 0.0571 0.44627 0.17696 0.0
O22 O 0.14775 0.4828 0.22714 0.0
O23 O 0.12013 0.45486 0.29132 0.0
O24 O 0.12914 0.50416 0.11303 0.0
O25 O 0.09283 0.48135 0.10252 0.0
O26 O 0.11252 0.54038 0.22794 0.0
O27 O 0.14019 0.53304 0.28706 0.0
O28 O 0.07428 0.52625 0.25998 0.0
O29 O 0.04879 0.48541 0.17311 0.0
O30 O 0.07357 0.4748 0.34826 0.0
O31 O 0.10839 0.50096 0.34854 0.0
H32 H 0.12638 0.41969 0.36433 0.0
H33 H 0.14772 0.39844 0.41942 0.0
H34 H 0.2046 0.45185 0.30004 0.0
H35 H 0.18334 0.47363 0.24653 0.0
H36 H 0.07642 0.54455 0.09819 0.0
H37 H 0.06304 0.56919 1.0106 0.0
H38 H 1.0004 0.53502 0.11482 0.0
H39 H 1.01368 0.51029 0.20042 0.0
Ho40 Ho 0.62446 0.50491 1.0487 0.0
Ho41 Ho 0.58577 0.50273 1.01522 0.0
C42 C 0.62868 0.5669 1.07153 0.0
C43 C 0.66678 0.51453 1.05917 0.0
C44 C 0.68984 0.53243 1.03442 0.0
C45 C 0.69679 0.51933 0.9738 0.0
C46 C 0.7197 0.53446 0.95891 0.0
C47 C 0.73644 0.56307 1.00491 0.0
C48 C 0.7292 0.57651 1.06333 0.0
C49 C 0.70628 0.56142 0.078 0.0
C50 C 0.6072 0.49868 0.20365 0.0
C51 C 0.57955 0.4406 1.0026 0.0
C52 C 0.54319 0.49022 1.01226 0.0
C53 C 0.52777 0.47625 1.07146 0.0
C54 C 0.53619 0.46887 0.14216 0.0
C55 C 0.52212 0.4564 0.20045 0.0
C56 C 0.49931 0.45116 0.18977 0.0
C57 C 0.49074 0.45804 0.11767 0.0
C58 C 0.50487 0.4705 1.05904 0.0
C59 C 0.60266 0.51091 0.86051 0.0
O60 O 0.63943 0.55352 1.05022 0.0
O61 O 0.60633 0.55054 0.07256 0.0
O62 O 0.66095 0.52712 0.11615 0.0
O63 O 0.64865 0.49513 0.99918 0.0
O64 O 0.6159 0.48479 0.1691 0.0
O65 O 0.60713 0.51456 0.15069 0.0
O66 O 0.57001 0.45539 1.02202 0.0
O67 O 0.6021 0.45557 1.00176 0.0
O68 O 0.56191 0.5158 1.04602 0.0
O69 O 0.54812 0.47383 0.96576 0.0
O70 O 0.59362 0.5236 0.89896 0.0
O71 O 0.60347 0.49438 0.91048 0.0
H72 H 0.68473 0.49691 0.93998 0.0
H73 H 0.72457 0.52321 0.91406 0.0
H74 H 0.7414 0.59865 0.09903 0.0
H75 H 0.70171 0.57226 0.1255 0.0
H76 H 0.5538 0.47304 0.15283 0.0
H77 H 0.5292 0.45098 0.25423 0.0
H78 H 0.47336 0.45457 0.10785 0.0
H79 H 0.49806 0.47602 1.0048 0.0
Ho80 Ho 0.57756 0.03562 0.85474 0.0
Ho81 Ho 0.62055 0.07974 0.90512 0.0
C82 C 0.58126 0.09515 0.88725 0.0
C83 C 0.53263 0.99704 0.82643 0.0
C84 C 0.51478 0.98142 0.87683 0.0
C85 C 0.51351 0.99594 0.95243 0.0
C86 C 0.49515 0.98111 0.99464 0.0
C87 C 0.47771 0.95146 0.96223 0.0
C88 C 0.47962 0.93685 0.88837 0.0
C89 C 0.49789 0.95169 0.84611 0.0
C90 C 0.59546 0.0504 0.70266 0.0
C91 C 0.61203 0.01654 0.90842 0.0
C92 C 0.66543 0.1154 0.90654 0.0
C93 C 0.68815 0.11678 0.90799 0.0
C94 C 0.69296 0.0976 0.94272 0.0
C95 C 0.71428 0.09915 0.9394 0.0
C96 C 0.73148 0.11989 0.90102 0.0
C97 C 0.7264 0.13893 0.86626 0.0
C98 C 0.70517 0.13736 0.8697 0.0
C99 C 0.60368 0.07018 1.05897 0.0
O100 O 0.56945 0.06896 0.90217 0.0
O101 O 0.60288 0.10487 0.87596 0.0
O102 O 0.54833 0.99035 0.82198 0.0
O103 O 0.54174 0.02493 0.83644 0.0
O104 O 0.58391 0.02471 0.71937 0.0
O105 O 0.59799 0.06735 0.77152 0.0
O106 O 0.62706 0.04269 0.89729 0.0
O107 O 0.59031 1.00907 0.90521 0.0
O108 O 0.65662 0.11266 0.97524 0.0
O109 O 0.64901 0.09986 0.83765 0.0
O110 O 0.61603 0.09495 1.03611 0.0
O111 O 0.59942 0.0503 0.99384 0.0
H112 H 0.52637 0.01889 0.97785 0.0
H113 H 0.4942 0.99314 1.05092 0.0
H114 H 0.46684 0.91391 0.86251 0.0
H115 H 0.49856 0.94001 0.78825 0.0
H116 H 0.6802 0.0813 0.97196 0.0
H117 H 0.71708 0.08371 0.96604 0.0
H118 H 0.73903 0.15551 0.83733 0.0
H119 H 0.70202 0.15241 0.84197 0.0
Ho120 Ho 0.77724 0.84181 0.2858 0.0
Ho121 Ho 0.74475 0.85257 0.28695 0.0
C122 C 0.72568 0.78564 0.24519 0.0
C123 C 0.80567 0.82315 0.29815 0.0
C124 C 0.81202 0.80544 0.34437 0.0
C125 C 0.80478 0.77719 0.30314 0.0
C126 C 0.81308 0.76165 0.34131 0.0
C127 C 0.82897 0.774 0.4216 0.0
C128 C 0.83582 0.80204 0.46366 0.0
C129 C 0.82751 0.81759 0.42548 0.0
C130 C 0.76884 0.85336 0.12112 0.0
C131 C 0.79827 0.9085 0.35847 0.0
C132 C 0.72023 0.87466 0.24372 0.0
C133 C 0.70734 0.88861 0.21579 0.0
C134 C 0.71703 0.91052 0.16819 0.0
C135 C 0.70453 0.9225 0.13618 0.0
C136 C 0.68189 0.91294 0.15052 0.0
C137 C 0.67248 0.89156 0.20031 0.0
C138 C 0.68501 0.87956 0.23238 0.0
C139 C 0.75366 0.84363 0.45492 0.0
O140 O 0.74722 0.7963 0.28736 0.0
O141 O 0.7203 0.80444 0.22596 0.0
O142 O 0.78559 0.80974 0.24338 0.0
O143 O 0.81054 0.84786 0.34142 0.0
O144 O 0.78871 0.86454 0.17448 0.0
O145 O 0.75334 0.83769 0.16311 0.0
O146 O 0.77591 0.89974 0.33834 0.0
O147 O 0.80378 0.88893 0.34608 0.0
O148 O 0.71283 0.85391 0.28703 0.0
O149 O 0.74075 0.88309 0.22621 0.0
O150 O 0.73329 0.8353 0.40845 0.0
O151 O 0.76879 0.85657 0.40842 0.0
H152 H 0.79321 0.76738 0.23999 0.0
H153 H 0.80764 0.74029 0.30635 0.0
H154 H 0.84775 0.8121 0.52603 0.0
H155 H 0.83368 0.83941 0.45882 0.0
H156 H 0.73418 0.91808 0.1539 0.0
H157 H 0.71237 0.93859 0.09761 0.0
H158 H 0.65528 0.8839 0.21425 0.0
H159 H 0.67704 0.86285 0.26899 0.0
Ho160 Ho 0.27314 0.83347 0.49779 0.0
Ho161 Ho 0.2359 0.83395 0.46781 0.0
C162 C 0.28221 0.89655 0.50521 0.0
C163 C 0.31513 0.8434 0.50388 0.0
C164 C 0.3305 0.85351 0.44189 0.0
C165 C 0.32259 0.85869 0.36508 0.0
C166 C 0.33676 0.86772 0.30489 0.0
C167 C 0.35918 0.87172 0.31997 0.0
C168 C 0.3672 0.86693 0.39781 0.0
C169 C 0.35294 0.85785 0.45819 0.0
C170 C 0.25674 0.82659 0.65419 0.0
C171 C 0.22958 0.77063 0.43885 0.0
C172 C 0.19442 0.82695 0.45948 0.0
C173 C 0.17083 0.80985 0.48139 0.0
C174 C 0.16734 0.8146 0.56518 0.0
C175 C 0.1445 0.80156 0.58132 0.0
C176 C 0.12455 0.78374 0.51395 0.0
C177 C 0.12818 0.77823 0.43097 0.0
C178 C 0.15092 0.79112 0.41498 0.0
C179 C 0.25224 0.83856 0.31088 0.0
O180 O 0.28928 0.87954 0.47795 0.0
O181 O 0.26054 0.88351 0.51722 0.0
O182 O 0.29596 0.81775 0.47709 0.0
O183 O 0.311 0.86213 0.54149 0.0
O184 O 0.26444 0.81253 0.61384 0.0
O185 O 0.25685 0.84375 0.6051 0.0
O186 O 0.21987 0.78484 0.46598 0.0
O187 O 0.25155 0.78643 0.43287 0.0
O188 O 0.19958 0.81417 0.40047 0.0
O189 O 0.21271 0.84482 0.52086 0.0
O190 O 0.24476 0.85377 0.34696 0.0
O191 O 0.25165 0.82222 0.36324 0.0
H192 H 0.30535 0.85559 0.35143 0.0
H193 H 0.33013 0.87165 0.24652 0.0
H194 H 0.38425 0.86954 0.41123 0.0
H195 H 0.35934 0.85397 0.51716 0.0
H196 H 0.1822 0.82915 0.61791 0.0
H197 H 0.14246 0.80645 0.64592 0.0
H198 H 0.11335 0.76424 0.37762 0.0
H199 H 0.15287 0.78716 0.34961 0.0
Ho200 Ho 0.23559 0.2512 0.59513 0.0
Ho201 Ho 0.27869 0.29442 0.64568 0.0
C202 C 0.24532 0.31535 0.59425 0.0
C203 C 0.19071 0.21689 0.59595 0.0
C204 C 0.16758 0.21476 0.5867 0.0
C205 C 0.16387 0.23536 0.55626 0.0
C206 C 0.14251 0.23398 0.55706 0.0
C207 C 0.12429 0.21211 0.58913 0.0
C208 C 0.12816 0.19145 0.6187 0.0
C209 C 0.14937 0.19278 0.61745 0.0
C210 C 0.25239 0.26294 0.44102 0.0
C211 C 0.27388 0.23455 0.61014 0.0
C212 C 0.324 0.33146 0.67768 0.0
C213 C 0.34284 0.34448 0.62923 0.0
C214 C 0.34336 0.32811 0.55608 0.0
C215 C 0.36231 0.34065 0.51494 0.0
C216 C 0.38108 0.36976 0.54622 0.0
C217 C 0.38004 0.3862 0.61795 0.0
C218 C 0.36117 0.37367 0.65898 0.0
C219 C 0.26046 0.28241 0.79759 0.0
O220 O 0.22974 0.28887 0.60178 0.0
O221 O 0.26703 0.32249 0.59881 0.0
O222 O 0.19964 0.21612 0.52876 0.0
O223 O 0.20693 0.23561 0.66224 0.0
O224 O 0.23894 0.23734 0.4577 0.0
O225 O 0.2569 0.2815 0.50971 0.0
O226 O 0.28539 0.26028 0.59206 0.0
O227 O 0.25275 0.22565 0.62525 0.0
O228 O 0.30872 0.33902 0.67081 0.0
O229 O 0.31413 0.30381 0.67608 0.0
O230 O 0.27149 0.30708 0.77457 0.0
O231 O 0.25774 0.26393 0.732 0.0
H232 H 0.1776 0.25279 0.53319 0.0
H233 H 0.14056 0.25056 0.53435 0.0
H234 H 0.11469 0.17397 0.64258 0.0
H235 H 0.1517 0.17671 0.64214 0.0
H236 H 0.32937 0.30552 0.53162 0.0
H237 H 0.36258 0.32732 0.4602 0.0
H238 H 0.3939 0.40882 0.64277 0.0
H239 H 0.36106 0.38674 0.71493 0.0
Ho240 Ho 0.43347 0.17613 0.67841 0.0
Ho241 Ho 0.42614 0.16386 0.83162 0.0
C242 C 0.39152 0.17827 0.7274 0.0
C243 C 0.44468 0.1902 0.53618 0.0
C244 C 0.45459 0.21957 0.51838 0.0
C245 C 0.4466 0.23732 0.54885 0.0
C246 C 0.45893 0.26691 0.54669 0.0
C247 C 0.47951 0.27933 0.51412 0.0
C248 C 0.48715 0.26127 0.48232 0.0
C249 C 0.47489 0.23181 0.4848 0.0
C250 C 0.45644 0.22731 0.80359 0.0
C251 C 0.46446 0.15313 0.7704 0.0
C252 C 0.43198 0.17411 0.99581 0.0
C253 C 0.44813 0.20362 1.04918 0.0
C254 C 0.46954 0.22264 1.02681 0.0
C255 C 0.48213 0.25253 1.06154 0.0
C256 C 0.4735 0.26409 0.11873 0.0
C257 C 0.45262 0.24477 0.14401 0.0
C258 C 0.44003 0.21491 0.10923 0.0
C259 C 0.39351 0.11335 0.71252 0.0
O260 O 0.39719 0.16882 0.66118 0.0
O261 O 0.40413 0.18358 0.8043 0.0
O262 O 0.45846 0.18859 0.59585 0.0
O263 O 0.42292 0.17641 0.54527 0.0
O264 O 0.44226 0.22189 0.73332 0.0
O265 O 0.45591 0.20414 0.80627 0.0
O266 O 0.4531 0.15125 0.83275 0.0
O267 O 0.45918 0.16135 0.70118 0.0
O268 O 0.44149 0.1621 0.956 0.0
O269 O 0.41415 0.17138 0.94522 0.0
O270 O 0.39042 0.12235 0.78497 0.0
O271 O 0.41464 0.13121 0.70687 0.0
H272 H 0.43111 0.22852 0.5762 0.0
H273 H 0.45241 0.28007 0.57059 0.0
H274 H 0.50243 0.26975 0.45377 0.0
H275 H 0.48159 0.2187 0.46225 0.0
H276 H 0.47608 0.21463 0.97948 0.0
H277 H 0.49834 0.26665 1.0422 0.0
H278 H 0.4459 0.25265 0.19088 0.0
H279 H 0.42344 0.2008 0.12651 0.0
Ho280 Ho 0.9363 0.15924 0.81652 0.0
Ho281 Ho 0.92345 0.17963 0.69351 0.0
C282 C 0.88495 0.15197 0.79898 0.0
C283 C 0.95131 0.15243 0.96254 0.0
C284 C 0.97476 0.1713 1.01931 0.0
C285 C 0.99236 0.19505 0.99218 0.0
C286 C 1.0128 0.21688 1.05048 0.0
C287 C 1.01588 0.21552 0.13742 0.0
C288 C 0.99924 0.19039 0.16297 0.0
C289 C 0.97873 0.16845 0.10422 0.0
C290 C 0.91203 0.11506 0.67274 0.0
C291 C 0.97234 0.18295 0.69671 0.0
C292 C 0.91897 0.20248 0.56697 0.0
C293 C 0.93775 0.22995 0.55076 0.0
C294 C 0.95602 0.25093 0.6198 0.0
C295 C 0.97698 0.27328 0.60463 0.0
C296 C 0.98009 0.27488 0.52016 0.0
C297 C 0.9609 0.25547 0.45128 0.0
C298 C 0.93992 0.23308 0.46656 0.0
C299 C 0.94873 0.22214 0.84163 0.0
O300 O 0.903 0.15504 0.85218 0.0
O301 O 0.88722 0.15584 0.72063 0.0
O302 O 0.93926 0.16464 0.9542 0.0
O303 O 0.95044 0.13869 0.88878 0.0
O304 O 0.93126 0.12183 0.7228 0.0
O305 O 0.90609 0.13251 0.70004 0.0
O306 O 0.95402 0.17986 0.64619 0.0
O307 O 0.97102 0.18027 0.77616 0.0
O308 O 0.91153 0.20484 0.63666 0.0
O309 O 0.92286 0.1815 0.55893 0.0
O310 O 0.92827 0.21439 0.80022 0.0
O311 O 0.95426 0.20543 0.80628 0.0
H312 H 0.98962 0.19801 0.92755 0.0
H313 H 0.0252 0.23605 1.02921 0.0
H314 H 1.00093 0.18897 0.22997 0.0
H315 H 0.96531 0.15039 0.12651 0.0
H316 H 0.95483 0.24884 0.68556 0.0
H317 H 0.9914 0.28785 0.65883 0.0
H318 H 0.9628 0.25572 0.38526 0.0
H319 H 0.92615 0.21698 0.4126 0.0
Ho320 Ho 0.91801 0.64466 0.69492 0.0
Ho321 Ho 0.94552 0.69506 0.83812 0.0
C322 C 0.97091 0.69454 0.68736 0.0
C323 C 0.90171 0.6084 0.55073 0.0
C324 C 0.91631 0.60058 0.50864 0.0
C325 C 0.91647 0.6013 0.42186 0.0
C326 C 0.93548 0.60413 0.38897 0.0
C327 C 0.95466 0.60642 0.44269 0.0
C328 C 0.9533 0.6028 0.52725 0.0
C329 C 0.9343 0.59992 0.56 0.0
C330 C 0.94435 0.6372 0.81936 0.0
C331 C 0.89129 0.64534 0.84105 0.0
C332 C 0.9707 0.72881 0.98573 0.0
C333 C 0.99251 0.7335 1.03506 0.0
C334 C 1.00591 0.72535 0.99348 0.0
C335 C 0.02128 0.71972 1.04053 0.0
C336 C 0.02376 0.7228 0.12995 0.0
C337 C 1.01266 0.73466 0.17225 0.0
C338 C 0.99693 0.73969 0.12497 0.0
C339 C 0.91998 0.70314 0.71251 0.0
O340 O 0.9493 0.67604 0.64173 0.0
O341 O 0.97449 0.70118 0.77161 0.0
O342 O 0.89759 0.60004 0.62304 0.0
O343 O 0.90816 0.63557 0.55602 0.0
O344 O 0.92301 0.61759 0.7802 0.0
O345 O 0.95052 0.65984 0.79075 0.0
O346 O 0.91277 0.66503 0.88732 0.0
O347 O 0.88803 0.63674 0.7573 0.0
O348 O 0.95243 0.70246 0.97665 0.0
O349 O 0.972 0.73813 0.91406 0.0
O350 O 0.94037 0.72362 0.75863 0.0
O351 O 0.91351 0.68034 0.74037 0.0
H352 H 0.90304 0.60235 0.38166 0.0
H353 H 0.9361 0.60726 0.32372 0.0
H354 H 0.96771 0.60431 0.56984 0.0
H355 H 0.93482 0.59976 0.62768 0.0
H356 H 1.00296 0.72083 0.92411 0.0
H357 H 0.02957 0.71054 1.00652 0.0
H358 H 1.014 0.73689 0.24109 0.0
H359 H 0.98669 0.74584 0.15819 0.0
H360 H 0.0711 0.46668 0.89938 0.0
H361 H 0.14653 0.52601 0.98764 0.0
H362 H 0.15052 0.52964 0.83909 0.0
H363 H 0.07366 0.42929 0.69552 0.0
H364 H 0.04843 0.42591 0.63083 0.0
H365 H 0.05059 0.42741 0.74474 0.0
H366 H 0.04552 0.47096 0.76117 0.0
H367 H 0.04333 0.46955 0.64728 0.0
H368 H 0.06508 0.5028 0.72314 0.0
H369 H 0.14758 0.52739 0.67223 0.0
H370 H 0.13745 0.51977 0.51383 0.0
H371 H 0.06398 0.46236 0.51767 0.0
C372 C 0.08853 0.4806 0.88824 0.0
C373 C 0.10858 0.49607 0.96131 0.0
C374 C 0.13062 0.51362 0.9378 0.0
C375 C 0.13318 0.51593 0.85144 0.0
C376 C 0.11358 0.50065 0.78247 0.0
C377 C 0.09152 0.48326 0.79964 0.0
C378 C 0.07349 0.46928 0.71148 0.0
C379 C 0.06077 0.43598 0.69466 0.0
C380 C 0.05579 0.47869 0.71073 0.0
C381 C 0.08872 0.48141 0.64334 0.0
C382 C 0.1119 0.4995 0.68666 0.0
C383 C 0.12935 0.51321 0.63897 0.0
C384 C 0.12336 0.50869 0.54708 0.0
C385 C 0.09983 0.49043 0.49813 0.0
C386 C 0.08231 0.47661 0.54964 0.0
H387 H 0.61117 0.47727 0.72111 0.0
H388 H 0.59542 0.54426 0.76408 0.0
H389 H 0.59448 0.54751 0.61289 0.0
H390 H 0.64908 0.50905 0.56489 0.0
H391 H 0.63892 0.47474 0.49507 0.0
H392 H 0.6383 0.4766 0.60767 0.0
H393 H 0.594 0.4371 0.56817 0.0
H394 H 0.59452 0.43518 0.45548 0.0
H395 H 0.5743 0.44239 0.49828 0.0
H396 H 0.59451 0.54424 0.44774 0.0
H397 H 0.59689 0.5355 0.2955 0.0
H398 H 0.61343 0.47142 0.3431 0.0
C399 C 0.60753 0.49273 0.69944 0.0
C400 C 0.60326 0.5105 0.76061 0.0
C401 C 0.5987 0.53005 0.72376 0.0
C402 C 0.59811 0.53217 0.63567 0.0
C403 C 0.60218 0.51471 0.57837 0.0
C404 C 0.60692 0.4953 0.60883 0.0
C405 C 0.61083 0.47937 0.53131 0.0
C406 C 0.63577 0.48527 0.55091 0.0
C407 C 0.59232 0.44655 0.51221 0.0
C408 C 0.60767 0.49283 0.45401 0.0
C409 C 0.60255 0.51315 0.48351 0.0
C410 C 0.59863 0.52836 0.4254 0.0
C411 C 0.60004 0.52318 0.33713 0.0
C412 C 0.60548 0.5028 0.30226 0.0
C413 C 0.60927 0.48737 0.36414 0.0
H414 H 0.58389 0.0134 0.53292 0.0
H415 H 0.61278 0.10343 0.65132 0.0
H416 H 0.61711 0.11622 0.50897 0.0
H417 H 0.62168 0.0283 0.37249 0.0
H418 H 0.5991 0.99901 0.28669 0.0
H419 H 0.59794 0.99623 0.39713 0.0
H420 H 0.5563 0.98701 0.37064 0.0
H421 H 0.55734 0.98978 0.26013 0.0
H422 H 0.55135 0.01273 0.32781 0.0
H423 H 0.61849 0.12029 0.34603 0.0
H424 H 0.61737 0.11571 0.19125 0.0
H425 H 0.58795 0.02312 0.16225 0.0
C426 C 0.59118 0.03595 0.52964 0.0
C427 C 0.59793 0.05727 0.60867 0.0
C428 C 0.60731 0.08622 0.59619 0.0
C429 C 0.60987 0.0938 0.51367 0.0
C430 C 0.60312 0.07257 0.43865 0.0
C431 C 0.59393 0.04405 0.44584 0.0
C432 C 0.58815 0.0256 0.35377 0.0
C433 C 0.60257 0.01142 0.35244 0.0
C434 C 0.56171 1.00238 0.32647 0.0
C435 C 0.59547 0.04792 0.29378 0.0
C436 C 0.60402 0.07491 0.34536 0.0
C437 C 0.6118 0.09907 0.30675 0.0
C438 C 0.61107 0.09612 0.21631 0.0
C439 C 0.60267 0.06918 0.15838 0.0
C440 C 0.59462 0.04448 0.20049 0.0
H441 H 0.72297 0.82211 0.57773 0.0
H442 H 0.79688 0.87292 0.5714 0.0
H443 H 0.80704 0.87988 0.72941 0.0
H444 H 0.72736 0.86455 0.78507 0.0
H445 H 0.7063 0.83359 0.82277 0.0
H446 H 0.70421 0.83226 0.70893 0.0
H447 H 0.70547 0.78591 0.68974 0.0
H448 H 0.70755 0.7871 0.80351 0.0
H449 H 0.72948 0.78626 0.75272 0.0
H450 H 0.81008 0.88265 0.89608 0.0
H451 H 0.8062 0.88004 1.04499 0.0
H452 H 0.73028 0.82627 0.95994 0.0
C453 C 0.74139 0.83476 0.60907 0.0
C454 C 0.75903 0.84695 0.55689 0.0
C455 C 0.78269 0.86312 0.6051 0.0
C456 C 0.78871 0.86727 0.6968 0.0
C457 C 0.77117 0.85519 0.74513 0.0
C458 C 0.74785 0.83905 0.70265 0.0
C459 C 0.73258 0.82829 0.77158 0.0
C460 C 0.71665 0.84037 0.77208 0.0
C461 C 0.71788 0.7949 0.75327 0.0
C462 C 0.75076 0.84082 0.85908 0.0
C463 C 0.77292 0.85636 0.84095 0.0
C464 C 0.79267 0.87032 0.90918 0.0
C465 C 0.79015 0.86861 0.99583 0.0
C466 C 0.76801 0.85285 1.02041 0.0
C467 C 0.74782 0.83863 0.94799 0.0
H468 H 0.2484 0.86027 0.79387 0.0
H469 H 0.26414 0.79329 0.75047 0.0
H470 H 0.26498 0.78987 0.90151 0.0
H471 H 0.285 0.89502 1.01669 0.0
H472 H 0.26465 0.90202 1.05932 0.0
H473 H 0.26525 0.90019 0.9467 0.0
H474 H 0.22101 0.86052 0.90682 0.0
H475 H 0.22031 0.86227 1.01935 0.0
H476 H 0.21031 0.82804 0.94942 0.0
H477 H 0.2647 0.79285 1.06648 0.0
H478 H 0.26226 0.80149 0.21869 0.0
H479 H 0.24606 0.86589 0.17163 0.0
C480 C 0.25206 0.84482 0.81546 0.0
C481 C 0.25635 0.8271 0.75422 0.0
C482 C 0.26086 0.80747 0.79086 0.0
C483 C 0.26139 0.80525 0.87886 0.0
C484 C 0.25726 0.82264 0.93621 0.0
C485 C 0.25257 0.84212 0.90592 0.0
C486 C 0.24855 0.85791 0.98337 0.0
C487 C 0.26695 0.89075 1.00264 0.0
C488 C 0.22356 0.85184 0.96355 0.0
C489 C 0.25172 0.84443 1.06059 0.0
C490 C 0.25682 0.82409 1.03099 0.0
C491 C 0.26063 0.80876 0.08892 0.0
C492 C 0.25917 0.81388 0.17715 0.0
C493 C 0.25385 0.83436 0.21219 0.0
C494 C 0.25014 0.84989 0.15048 0.0
H495 H 0.24356 0.23481 0.89955 0.0
H496 H 0.27632 0.32813 0.93147 0.0
H497 H 0.27791 0.33267 0.08624 0.0
H498 H 0.20786 0.22688 1.06607 0.0
H499 H 0.21125 0.19986 0.1074 0.0
H500 H 0.21259 0.20283 0.99716 0.0
H501 H 0.25324 0.20913 1.02204 0.0
H502 H 0.25201 0.20618 0.13235 0.0
H503 H 0.27652 0.23753 0.10805 0.0
H504 H 0.2768 0.32871 0.24823 0.0
H505 H 0.27203 0.31602 0.39033 0.0
H506 H 0.23913 0.22513 0.27052 0.0
C507 C 0.25114 0.25633 0.93849 0.0
C508 C 0.25998 0.28124 0.89713 0.0
C509 C 0.26941 0.30836 0.95587 0.0
C510 C 0.27043 0.31131 1.04635 0.0
C511 C 0.26183 0.28696 0.08418 0.0
C512 C 0.25221 0.25978 1.03193 0.0
C513 C 0.24401 0.2373 0.09149 0.0
C514 C 0.21734 0.21539 1.06385 0.0
C515 C 0.25722 0.22158 0.08825 0.0
C516 C 0.25052 0.25592 0.18392 0.0
C517 C 0.26089 0.28465 0.1773 0.0
C518 C 0.2686 0.30613 0.25258 0.0
C519 C 0.26579 0.2986 0.33493 0.0
C520 C 0.25512 0.26944 0.34691 0.0
C521 C 0.2474 0.24783 0.26758 0.0
H522 H 0.45881 0.30672 0.45581 0.0
H523 H 0.52684 0.32 0.54042 0.0
H524 H 0.5428 0.35261 0.44239 0.0
H525 H 0.44331 0.29019 0.2983 0.0
H526 H 0.43637 0.3117 0.23903 0.0
H527 H 0.43741 0.31581 0.35201 0.0
H528 H 0.4668 0.37041 0.37253 0.0
H529 H 0.46606 0.36614 0.2587 0.0
H530 H 0.49368 0.38404 0.33469 0.0
H531 H 0.54032 0.34294 0.29258 0.0
H532 H 0.52142 0.30126 0.17286 0.0
H533 H 0.45642 0.2982 0.15575 0.0
C534 C 0.47749 0.31858 0.45791 0.0
C535 C 0.49126 0.30965 0.5006 0.0
C536 C 0.51568 0.32556 0.5047 0.0
C537 C 0.52494 0.34451 0.44934 0.0
C538 C 0.50952 0.34708 0.39037 0.0
C539 C 0.4867 0.33735 0.40101 0.0
C540 C 0.47222 0.33622 0.31916 0.0
C541 C 0.44579 0.31194 0.30107 0.0
C542 C 0.47489 0.36595 0.32143 0.0
C543 C 0.48553 0.33188 0.25584 0.0
C544 C 0.50863 0.34285 0.29771 0.0
C545 C 0.52245 0.33457 0.26025 0.0
C546 C 0.51147 0.31047 0.19166 0.0
C547 C 0.48706 0.29569 0.15899 0.0
C548 C 0.47498 0.30894 0.18324 0.0
H549 H 0.99467 0.30679 0.39774 0.0
H550 H 1.01875 0.27707 0.60031 0.0
H551 H 0.04965 0.28105 0.52957 0.0
H552 H 0.98823 0.26822 0.2469 0.0
H553 H 1.00065 0.28949 0.16831 0.0
H554 H 0.99268 0.30387 0.25359 0.0
H555 H 0.05952 0.34576 0.32013 0.0
H556 H 0.03459 0.34934 0.29916 0.0
H557 H 0.04275 0.33519 0.21202 0.0
H558 H 0.05862 0.26023 0.4146 0.0
H559 H 0.04629 0.2236 0.28305 0.0
H560 H 1.01957 0.26653 0.14301 0.0
C561 C 1.00764 0.30317 0.42919 0.0
C562 C 1.00408 0.2911 0.50283 0.0
C563 C 0.02109 0.28644 0.54381 0.0
C564 C 0.03887 0.28867 0.50356 0.0
C565 C 0.0396 0.29588 0.42291 0.0
C566 C 0.02523 0.30481 0.38802 0.0
C567 C 0.02516 0.30448 0.29328 0.0
C568 C 1.00019 0.29059 0.23749 0.0
C569 C 0.04149 0.33551 0.28046 0.0
C570 C 0.03582 0.28646 0.27633 0.0
C571 C 0.04599 0.28401 0.35279 0.0
C572 C 0.0516 0.26285 0.35452 0.0
C573 C 0.04443 0.2419 0.27946 0.0
C574 C 0.03209 0.24253 0.20338 0.0
C575 C 0.0297 0.26643 0.20026 0.0
H576 H 0.96153 0.59083 0.28702 0.0
H577 H 0.99834 0.64988 0.53472 0.0
H578 H 0.03232 0.67989 0.474 0.0
H579 H 1.01965 0.61077 0.19895 0.0
H580 H 1.00445 0.60811 0.09551 0.0
H581 H 0.98873 0.58339 0.16175 0.0
H582 H 0.95826 0.59865 0.15049 0.0
H583 H 0.97344 0.62206 0.08176 0.0
H584 H 0.96866 0.63673 0.17848 0.0
H585 H 0.0542 0.71149 0.38353 0.0
H586 H 0.05626 0.74259 0.28099 0.0
H587 H 1.00685 0.66587 0.08471 0.0
C588 C 0.97731 0.60931 0.32892 0.0
C589 C 0.97731 0.61796 0.41503 0.0
C590 C 0.99805 0.64236 0.46874 0.0
C591 C 1.01756 0.65963 0.43457 0.0
C592 C 1.01619 0.65218 0.3468 0.0
C593 C 0.99659 0.6272 0.29489 0.0
C594 C 0.99655 0.62757 0.2009 0.0
C595 C 1.00271 0.60613 0.16213 0.0
C596 C 0.97287 0.62092 0.15016 0.0
C597 C 1.01648 0.65868 0.20784 0.0
C598 C 0.02884 0.67171 0.29219 0.0
C599 C 0.04485 0.7017 0.31747 0.0
C600 C 0.04608 0.71918 0.25884 0.0
C601 C 0.03161 0.70641 0.17556 0.0
C602 C 1.01845 0.67588 0.14765 0.0
H603 H 0.20088 0.30442 0.52891 0.0
H604 H 0.27473 0.37345 0.6058 0.0
H605 H 0.26538 0.40793 0.55784 0.0
H606 H 0.18883 0.32632 0.3378 0.0
H607 H 0.15984 0.31736 0.34786 0.0
H608 H 0.1718 0.298 0.39275 0.0
H609 H 0.16516 0.31174 0.54189 0.0
H610 H 0.15302 0.331 0.49749 0.0
H611 H 0.1774 0.34946 0.58896 0.0
H612 H 0.24869 0.43496 0.4974 0.0
H613 H 0.22555 0.45311 0.43156 0.0
H614 H 0.16212 0.36707 0.38884 0.0
C615 C 0.21501 0.32687 0.53697 0.0
C616 C 0.23859 0.33613 0.57189 0.0
C617 C 0.25655 0.36569 0.57962 0.0
C618 C 0.25142 0.38554 0.55244 0.0
C619 C 0.22817 0.37569 0.51709 0.0
C620 C 0.21018 0.3471 0.50944 0.0
C621 C 0.1868 0.34221 0.46651 0.0
C622 C 0.1762 0.31963 0.38116 0.0
C623 C 0.16958 0.33306 0.52736 0.0
C624 C 0.19453 0.37246 0.45129 0.0
C625 C 0.21849 0.39136 0.48109 0.0
C626 C 0.2299 0.42034 0.47371 0.0
C627 C 0.21656 0.43041 0.43528 0.0
C628 C 0.1919 0.41166 0.40393 0.0
C629 C 0.18085 0.38219 0.41249 0.0
H630 H 0.67699 0.61195 0.12883 0.0
H631 H 0.60733 0.59711 1.06125 0.0
H632 H 0.62434 0.64984 0.09725 0.0
H633 H 0.6985 0.67192 0.3118 0.0
H634 H 0.7279 0.69267 0.29355 0.0
H635 H 0.71075 0.65359 0.2594 0.0
H636 H 0.71659 0.65806 0.10446 0.0
H637 H 0.73382 0.69715 0.13829 0.0
H638 H 0.70845 0.67958 1.0507 0.0
H639 H 0.64847 0.70468 0.1393 0.0
H640 H 0.67795 0.75733 0.18836 0.0
H641 H 0.73292 0.73943 0.23746 0.0
C642 C 0.66535 0.61983 0.12087 0.0
C643 C 0.64057 0.59979 0.09126 0.0
C644 C 0.62621 0.61146 0.08345 0.0
C645 C 0.63576 0.64163 0.10381 0.0
C646 C 0.65999 0.66066 0.13335 0.0
C647 C 0.67469 0.65032 0.1424 0.0
C648 C 0.70012 0.67593 0.17814 0.0
C649 C 0.7099 0.67337 0.26594 0.0
C650 C 0.71566 0.67779 0.11407 0.0
C651 C 0.69732 0.70204 0.18725 0.0
C652 C 0.67395 0.69254 0.16037 0.0
C653 C 0.6668 0.71228 0.16082 0.0
C654 C 0.68378 0.74235 0.18898 0.0
C655 C 0.70794 0.75305 0.21778 0.0
C656 C 0.71465 0.73228 0.21694 0.0
H657 H 0.47634 0.95642 0.13529 0.0
H658 H 0.43185 0.91205 0.87991 0.0
H659 H 0.39733 0.88649 0.94385 0.0
H660 H 0.44631 0.89659 0.23996 0.0
H661 H 0.44936 0.91914 0.33813 0.0
H662 H 0.47091 0.93377 0.27288 0.0
H663 H 0.46398 0.97563 0.26457 0.0
H664 H 0.44246 0.96118 0.32999 0.0
H665 H 0.43462 0.96709 0.22628 0.0
H666 H 0.36747 0.8659 1.03416 0.0
H667 H 0.34408 0.85178 0.14548 0.0
H668 H 0.40725 0.91035 0.34341 0.0
C669 C 0.45934 0.94143 0.09273 0.0
C670 C 0.45697 0.9361 1.00229 0.0
C671 C 0.43433 0.91612 0.94926 0.0
C672 C 0.41453 0.9016 0.98497 0.0
C673 C 0.4175 0.90727 0.07404 0.0
C674 C 0.43929 0.92672 0.12737 0.0
C675 C 0.43748 0.92899 0.2211 0.0
C676 C 0.45187 0.91902 0.27094 0.0
C677 C 0.44508 0.96007 0.26293 0.0
C678 C 0.41127 0.90779 0.2119 0.0
C679 C 0.40013 0.89554 0.12643 0.0
C680 C 0.37598 0.87543 0.10133 0.0
C681 C 0.36281 0.86769 0.16517 0.0
C682 C 0.37371 0.88005 0.25345 0.0
C683 C 0.39835 0.90029 0.27673 0.0
H684 H 0.54049 0.08575 0.93692 0.0
H685 H 0.59206 0.13855 0.79612 0.0
H686 H 0.56803 0.15852 0.75118 0.0
H687 H 0.48922 0.06827 0.78989 0.0
H688 H 0.47378 0.07094 0.87069 0.0
H689 H 0.49528 0.0615 0.89427 0.0
H690 H 0.51791 0.10451 1.02604 0.0
H691 H 0.49635 0.11393 1.00344 0.0
H692 H 0.52706 0.14071 1.01232 0.0
H693 H 0.53592 0.16953 0.71027 0.0
H694 H 0.50213 0.17548 0.69283 0.0
H695 H 0.4723 0.11866 0.86898 0.0
C696 C 0.547 0.10191 0.89781 0.0
C697 C 0.56851 0.11061 0.87074 0.0
C698 C 0.57601 0.13168 0.81898 0.0
C699 C 0.56227 0.143 0.79247 0.0
C700 C 0.54102 0.13355 0.81894 0.0
C701 C 0.53368 0.11389 0.87206 0.0
C702 C 0.51028 0.10756 0.89241 0.0
C703 C 0.491 0.07514 0.85988 0.0
C704 C 0.51307 0.11726 0.98932 0.0
C705 C 0.50536 0.12639 0.84163 0.0
C706 C 0.52322 0.14092 0.79884 0.0
C707 C 0.5221 0.15849 0.74459 0.0
C708 C 0.50263 0.16162 0.73463 0.0
C709 C 0.48432 0.14775 0.7795 0.0
C710 C 0.48593 0.12987 0.83402 0.0
H711 H 0.99778 0.26249 0.8689 0.0
H712 H 0.9351 0.24773 0.95398 0.0
H713 H 0.95805 0.29668 1.04791 0.0
H714 H 0.04052 0.30783 0.07563 0.0
H715 H 0.06284 0.33244 1.02481 0.0
H716 H 0.04217 0.29511 0.96956 0.0
H717 H 0.03039 0.31262 0.84098 0.0
H718 H 0.05088 0.34995 0.89616 0.0
H719 H 1.02033 0.33701 0.85893 0.0
H720 H 0.98635 0.34808 0.12508 0.0
H721 H 1.0186 0.39903 0.18284 0.0
H722 H 0.06479 0.3838 1.05249 0.0
C723 C 0.98908 0.26939 0.90891 0.0
C724 C 0.96449 0.25085 0.90458 0.0
C725 C 0.95378 0.26121 0.95628 0.0
C726 C 0.96672 0.28912 1.00997 0.0
C727 C 0.99063 0.30708 1.01159 0.0
C728 C 1.00186 0.29775 0.96283 0.0
C729 C 0.02756 0.32251 0.97383 0.0
C730 C 0.04426 0.31396 1.01329 0.0
C731 C 0.03258 0.33102 0.88734 0.0
C732 C 0.02889 0.347 1.03623 0.0
C733 C 1.00725 0.33733 1.05675 0.0
C734 C 1.00341 0.35581 0.10984 0.0
C735 C 0.02194 0.38492 0.14233 0.0
C736 C 0.04446 0.39584 0.12306 0.0
C737 C 0.04795 0.37628 1.06962 0.0
H738 H 0.84404 0.6098 0.76314 0.0
H739 H 0.89131 0.65721 1.01234 0.0
H740 H 0.85714 0.64151 0.08026 0.0
H741 H 0.80067 0.62639 0.7988 0.0
H742 H 0.77597 0.5912 0.74167 0.0
H743 H 0.8041 0.60562 0.71254 0.0
H744 H 0.80357 0.55939 0.73488 0.0
H745 H 0.77541 0.54479 0.76389 0.0
H746 H 0.79968 0.54847 0.83633 0.0
H747 H 0.81765 0.62126 0.12132 0.0
H748 H 0.77617 0.59713 0.13303 0.0
H749 H 0.75409 0.56292 0.85726 0.0
C750 C 0.84726 0.61675 0.83212 0.0
C751 C 0.87054 0.63478 0.88227 0.0
C752 C 0.87379 0.64344 0.97228 0.0
C753 C 0.85443 0.63463 1.01154 0.0
C754 C 0.83179 0.6171 0.96021 0.0
C755 C 0.8281 0.60818 0.87245 0.0
C756 C 0.80194 0.58956 0.83192 0.0
C757 C 0.79528 0.60406 0.76742 0.0
C758 C 0.79473 0.55872 0.78925 0.0
C759 C 0.79148 0.58932 0.9106 0.0
C760 C 0.80904 0.60544 0.98386 0.0
C761 C 0.80379 0.60865 1.06425 0.0
C762 C 0.78008 0.59499 1.07012 0.0
C763 C 0.76163 0.57817 0.99615 0.0
C764 C 0.76762 0.57539 0.91531 0.0
H765 H 0.93499 0.58394 0.84469 0.0
H766 H 0.99213 0.67294 0.86595 0.0
H767 H 0.02084 0.6601 0.91376 0.0
H768 H 0.95825 0.56846 1.02458 0.0
H769 H 0.94811 0.53194 0.97257 0.0
H770 H 0.93263 0.54866 0.93811 0.0
H771 H 0.93764 0.53789 0.7829 0.0
H772 H 0.95379 0.522 0.81846 0.0
H773 H 0.9667 0.55149 0.76308 0.0
H774 H 0.04317 0.63823 0.96775 0.0
H775 H 0.05714 0.60985 1.03256 0.0
H776 H 0.98574 0.53423 0.96856 0.0
C777 C 0.95354 0.60074 0.85985 0.0
C778 C 0.96133 0.62964 0.85321 0.0
C779 C 0.98575 0.65089 0.8725 0.0
C780 C 1.00221 0.64366 0.89843 0.0
C781 C 0.99399 0.61492 0.90338 0.0
C782 C 0.97023 0.59379 0.88479 0.0
C783 C 0.96602 0.56463 0.89681 0.0
C784 C 0.95034 0.55275 0.9619 0.0
C785 C 0.95541 0.54271 0.81015 0.0
C786 C 0.99102 0.57318 0.93111 0.0
C787 C 1.00697 0.60205 0.93151 0.0
C788 C 0.03093 0.61542 0.96581 0.0
C789 C 0.03872 0.5991 1.00255 0.0
C790 C 0.02259 0.56977 1.00563 0.0
C791 C 0.99852 0.5566 0.96742 0.0
H792 H 0.53069 0.40366 0.9572 0.0
H793 H 0.59413 0.40193 0.99413 0.0
H794 H 0.56987 0.34805 0.95422 0.0
H795 H 0.494 0.33822 1.03565 0.0
H796 H 0.46777 0.32593 0.95663 0.0
H797 H 0.48977 0.36427 0.99162 0.0
H798 H 0.49322 0.36857 0.83453 0.0
H799 H 0.47098 0.33039 0.79837 0.0
H800 H 0.49924 0.34495 0.77017 0.0
H801 H 0.53791 0.29301 0.90967 0.0
H802 H 0.50231 0.24354 0.85587 0.0
H803 H 0.45924 0.28024 0.83769 0.0
C804 C 0.53955 0.392 0.95764 0.0
C805 C 0.56462 0.40753 0.97999 0.0
C806 C 0.57517 0.391 0.97798 0.0
C807 C 0.56142 0.36019 0.95537 0.0
C808 C 0.53686 0.34566 0.93349 0.0
C809 C 0.52603 0.36112 0.93373 0.0
C810 C 0.49937 0.3403 0.90406 0.0
C811 C 0.48699 0.3423 0.97626 0.0
C812 C 0.49016 0.34643 0.82191 0.0
C813 C 0.49682 0.31075 0.88613 0.0
C814 C 0.51867 0.31432 0.90489 0.0
C815 C 0.52081 0.29019 0.8947 0.0
C816 C 0.50037 0.26199 0.86416 0.0
C817 C 0.47774 0.25759 0.84244 0.0
C818 C 0.47615 0.2826 0.85373 0.0
H819 H 0.84699 0.15292 0.71551 0.0
H820 H 0.8718 0.135 0.9482 0.0
H821 H 0.83558 0.12411 0.99758 0.0
H822 H 0.82104 0.18849 0.81629 0.0
H823 H 0.79643 0.17389 0.72713 0.0
H824 H 0.82391 0.17937 0.7086 0.0
H825 H 0.80252 0.12526 0.63195 0.0
H826 H 0.77497 0.11962 0.65013 0.0
H827 H 0.78495 0.09731 0.68705 0.0
H828 H 0.79602 0.11525 1.02268 0.0
H829 H 0.75802 0.11073 1.02312 0.0
H830 H 0.75845 0.13471 0.77473 0.0
C831 C 0.84478 0.14651 0.77666 0.0
C832 C 0.86249 0.14471 0.82754 0.0
C833 C 0.85873 0.13654 0.90759 0.0
C834 C 0.83808 0.13027 0.93628 0.0
C835 C 0.8211 0.13235 0.88484 0.0
C836 C 0.82427 0.14039 0.80674 0.0
C837 C 0.80354 0.14168 0.76476 0.0
C838 C 0.81172 0.1727 0.75354 0.0
C839 C 0.79074 0.11965 0.67834 0.0
C840 C 0.78817 0.13307 0.83113 0.0
C841 C 0.7986 0.12767 0.89978 0.0
C842 C 0.78776 0.11937 0.96891 0.0
C843 C 0.76591 0.11664 0.96824 0.0
C844 C 0.75471 0.12219 0.89901 0.0
C845 C 0.7663 0.13052 0.82949 0.0
H846 H 0.65676 0.02901 0.97719 0.0
H847 H 0.58348 0.95834 0.89662 0.0
H848 H 0.59355 0.9248 0.94765 0.0
H849 H 0.68206 0.9856 0.9233 0.0
H850 H 0.70598 1.00472 1.01633 0.0
H851 H 0.69341 0.02316 0.96922 0.0
H852 H 0.6855 0.03645 0.11617 0.0
H853 H 0.69787 0.0179 0.16376 0.0
H854 H 0.66848 1.00799 0.17067 0.0
H855 H 0.61084 0.89891 1.01173 0.0
H856 H 0.63449 0.88196 0.08119 0.0
H857 H 0.69695 0.96893 0.12558 0.0
C858 C 0.64293 1.00638 0.96888 0.0
C859 C 0.61929 0.99637 0.93206 0.0
C860 C 0.6017 0.96664 0.9242 0.0
C861 C 0.60724 0.94734 0.95314 0.0
C862 C 0.63052 0.95792 0.99046 0.0
C863 C 0.64816 0.98669 0.99827 0.0
C864 C 0.67164 0.99242 1.04369 0.0
C865 C 0.68931 1.00204 0.98459 0.0
C866 C 0.68144 0.01503 0.12862 0.0
C867 C 0.66436 0.96239 1.05997 0.0
C868 C 0.64054 0.94291 1.02865 0.0
C869 C 0.62952 0.914 1.03661 0.0
C870 C 0.64314 0.90461 0.07712 0.0
C871 C 0.66769 0.92397 0.10994 0.0
C872 C 0.67832 0.95336 0.10085 0.0
H873 H 0.1811 0.72503 0.38097 0.0
H874 H 0.25094 0.74077 0.45362 0.0
H875 H 0.23437 0.68819 0.41937 0.0
H876 H 0.14963 0.65726 0.46008 0.0
H877 H 0.12453 0.63927 0.37134 0.0
H878 H 0.14136 0.67838 0.40464 0.0
H879 H 0.14776 0.68276 0.25022 0.0
H880 H 0.13103 0.64367 0.2166 0.0
H881 H 0.16056 0.66479 0.19991 0.0
H882 H 0.21086 0.63351 0.37769 0.0
H883 H 0.18196 0.58075 0.3284 0.0
H884 H 0.12628 0.59718 0.27423 0.0
C885 C 0.19285 0.71737 0.39056 0.0
C886 C 0.21759 0.73768 0.42094 0.0
C887 C 0.2321 0.72625 0.43073 0.0
C888 C 0.2228 0.69614 0.41138 0.0
C889 C 0.19865 0.67686 0.38086 0.0
C890 C 0.18376 0.68688 0.37003 0.0
C891 C 0.15848 0.66092 0.3334 0.0
C892 C 0.14256 0.65884 0.3961 0.0
C893 C 0.14889 0.66318 0.24476 0.0
C894 C 0.16162 0.63505 0.32581 0.0
C895 C 0.18501 0.64496 0.35421 0.0
C896 C 0.1925 0.62558 0.35508 0.0
C897 C 0.17584 0.59542 0.32673 0.0
C898 C 0.15164 0.58424 0.29649 0.0
C899 C 0.14459 0.60468 0.29601 0.0
H900 H 0.4515 0.41089 0.16567 0.0
H901 H 0.51498 0.46658 0.36454 0.0
H902 H 0.49195 0.44967 0.47555 0.0
H903 H 0.41366 0.42295 0.27285 0.0
H904 H 0.3886 0.38612 0.23787 0.0
H905 H 0.41021 0.40082 0.17295 0.0
H906 H 0.4167 0.35819 0.1766 0.0
H907 H 0.39458 0.34331 0.23964 0.0
H908 H 0.42348 0.35071 0.27894 0.0
H909 H 0.46213 0.42893 0.56556 0.0
H910 H 0.42728 0.40537 0.62917 0.0
H911 H 0.38251 0.36374 0.37351 0.0
C912 C 0.46056 0.41951 0.23255 0.0
C913 C 0.48515 0.44 0.25605 0.0
C914 C 0.49629 0.45052 0.3445 0.0
C915 C 0.48333 0.44115 0.40824 0.0
C916 C 0.45917 0.42116 0.38292 0.0
C917 C 0.44786 0.41032 0.2973 0.0
C918 C 0.42157 0.38955 0.28795 0.0
C919 C 0.4077 0.40053 0.24009 0.0
C920 C 0.41363 0.35862 0.2431 0.0
C921 C 0.41986 0.39108 0.3817 0.0
C922 C 0.44182 0.40923 0.43522 0.0
C923 C 0.44483 0.41463 0.52432 0.0
C924 C 0.42487 0.40131 0.55984 0.0
C925 C 0.40206 0.38286 0.50656 0.0
C926 C 0.39966 0.37751 0.41614 0.0
H927 H 0.92776 0.75479 0.67566 0.0
H928 H 0.87463 0.66261 0.63115 0.0
H929 H 0.84574 0.67057 0.5514 0.0
H930 H 0.89001 0.78021 0.70992 0.0
H931 H 0.9037 0.8098 0.65537 0.0
H932 H 0.92061 0.79685 0.70599 0.0
H933 H 0.93187 0.78792 0.56198 0.0
H934 H 0.91515 0.80107 0.51106 0.0
H935 H 0.90899 0.76548 0.4672 0.0
H936 H 0.82214 0.68875 0.48125 0.0
H937 H 0.80583 0.7156 0.4216 0.0
H938 H 0.87434 0.79597 0.50889 0.0
C939 C 0.91011 0.73627 0.64837 0.0
C940 C 0.90342 0.70807 0.65967 0.0
C941 C 0.88013 0.6844 0.62333 0.0
C942 C 0.86358 0.68871 0.57796 0.0
C943 C 0.87059 0.71682 0.56906 0.0
C944 C 0.89332 0.74019 0.6027 0.0
C945 C 0.89616 0.76822 0.5848 0.0
C946 C 0.90302 0.79005 0.66904 0.0
C947 C 0.91411 0.78144 0.52786 0.0
C948 C 0.87143 0.75699 0.53668 0.0
C949 C 0.85698 0.72727 0.52819 0.0
C950 C 0.83334 0.71201 0.48692 0.0
C951 C 0.82426 0.72746 0.45286 0.0
C952 C 0.83874 0.75795 0.46006 0.0
C953 C 0.86266 0.77277 0.50296 0.0
H954 H 0.3506 0.06879 0.73862 0.0
H955 H 0.4018 0.0849 0.58093 0.0
H956 H 0.37828 0.0327 0.50916 0.0
H957 H 0.33832 0.99854 0.76836 0.0
H958 H 0.30733 0.9828 0.76263 0.0
H959 H 0.32765 0.02147 0.79995 0.0
H960 H 0.30395 0.03075 0.6837 0.0
H961 H 0.28355 0.99208 0.64594 0.0
H962 H 0.29836 0.01421 0.5724 0.0
H963 H 0.34984 0.97763 0.45787 0.0
H964 H 0.3193 0.9254 0.42985 0.0
H965 H 0.28473 0.94294 0.61681 0.0
C966 C 0.35683 0.06142 0.6885 0.0
C967 C 0.37835 0.08151 0.66581 0.0
C968 C 0.38559 0.07047 0.59991 0.0
C969 C 0.37224 0.04064 0.55865 0.0
C970 C 0.35133 0.02153 0.58293 0.0
C971 C 0.34358 0.03151 0.64619 0.0
C972 C 0.32057 1.00617 0.66071 0.0
C973 C 0.32365 1.002 0.75343 0.0
C974 C 0.30041 0.0111 0.63943 0.0
C975 C 0.31663 0.9803 0.59634 0.0
C976 C 0.33471 0.98984 0.55235 0.0
C977 C 0.3356 0.97017 0.49173 0.0
C978 C 0.31798 0.94027 0.47613 0.0
C979 C 0.2991 0.92943 0.51984 0.0
C980 C 0.29847 0.95013 0.5806 0.0
H981 H 1.00913 0.17921 0.77392 0.0
H982 H 0.9858 0.20199 0.5493 0.0
H983 H 0.022 0.21294 0.49886 0.0
H984 H 0.07128 0.23375 0.80679 0.0
H985 H 0.08044 0.21018 0.83915 0.0
H986 H 0.05304 0.2049 0.85794 0.0
H987 H 0.03094 0.15142 0.77452 0.0
H988 H 0.05825 0.15653 0.75537 0.0
H989 H 0.034 0.14364 0.66616 0.0
H990 H 0.06155 0.22094 0.4722 0.0
H991 H 0.09927 0.22453 0.47092 0.0
H992 H 0.09668 0.1959 0.71233 0.0
C993 C 1.01159 0.18654 0.71409 0.0
C994 C 0.99434 0.18963 0.66567 0.0
C995 C 0.99847 0.19921 0.58757 0.0
C996 C 1.01911 0.20556 0.55844 0.0
C997 C 0.03562 0.20206 0.60746 0.0
C998 C 0.032 0.19267 0.68362 0.0
C999 C 0.0522 0.19015 0.72372 0.0
C1000 C 0.065 0.21099 0.81214 0.0
C1001 C 0.04331 0.15856 0.73032 0.0
C1002 C 0.06781 0.19951 0.65846 0.0
C1003 C 0.05802 0.20644 0.59201 0.0
C1004 C 0.06931 0.21567 0.52436 0.0
C1005 C 0.09094 0.2178 0.52444 0.0
C1006 C 0.10137 0.21056 0.59136 0.0
C1007 C 0.08937 0.20134 0.65929 0.0
H1008 H 0.38095 0.20764 0.61683 0.0
H1009 H 0.3561 0.15926 0.81541 0.0
H1010 H 0.32213 0.16508 0.79967 0.0
H1011 H 0.36628 0.26051 0.68942 0.0
H1012 H 0.35826 0.26441 0.58282 0.0
H1013 H 0.37958 0.25461 0.60506 0.0
H1014 H 0.35458 0.20883 0.48222 0.0
H1015 H 0.33311 0.21841 0.46001 0.0
H1016 H 0.32421 0.18322 0.48274 0.0
H1017 H 0.28945 0.17518 0.75845 0.0
H1018 H 0.26504 0.1945 0.71225 0.0
H1019 H 0.31282 0.24089 0.55113 0.0
C1020 C 0.36822 0.19807 0.65645 0.0
C1021 C 0.37114 0.18249 0.71669 0.0
C1022 C 0.35432 0.17106 0.76861 0.0
C1023 C 0.33484 0.1742 0.75978 0.0
C1024 C 0.33241 0.18955 0.69994 0.0
C1025 C 0.34896 0.20185 0.65038 0.0
C1026 C 0.34316 0.21922 0.59571 0.0
C1027 C 0.363 0.2516 0.61969 0.0
C1028 C 0.33849 0.20667 0.49945 0.0
C1029 C 0.32071 0.21454 0.62144 0.0
C1030 C 0.31458 0.19692 0.68057 0.0
C1031 C 0.29429 0.18912 0.7125 0.0
C1032 C 0.28031 0.20004 0.68524 0.0
C1033 C 0.28665 0.21917 0.62741 0.0
C1034 C 0.30719 0.22621 0.59495 0.0
H1035 H 0.79565 0.95512 0.43964 0.0
H1036 H 0.84506 0.93369 0.36476 0.0
H1037 H 0.87774 0.9839 0.4283 0.0
H1038 H 0.82684 0.03028 0.4054 0.0
H1039 H 0.82099 0.04507 0.49872 0.0
H1040 H 0.8007 1.00764 0.44378 0.0
H1041 H 0.80438 0.99098 0.58577 0.0
H1042 H 0.82462 0.02834 0.64112 0.0
H1043 H 0.83306 1.00226 0.64488 0.0
H1044 H 0.90567 0.03556 0.50234 0.0
H1045 H 0.92764 0.08554 0.58841 0.0
H1046 H 0.86219 0.07697 0.62254 0.0
C1047 C 0.81333 0.96111 0.43588 0.0
C1048 C 0.81752 0.94 0.3961 0.0
C1049 C 0.84109 0.94898 0.39427 0.0
C1050 C 0.85992 0.97768 0.43022 0.0
C1051 C 0.8553 0.99775 0.46908 0.0
C1052 C 0.83266 0.99001 0.47279 0.0
C1053 C 0.83314 0.01608 0.5222 0.0
C1054 C 0.81961 0.02531 0.46404 0.0
C1055 C 0.82321 1.00899 0.60331 0.0
C1056 C 0.85953 0.03946 0.54564 0.0
C1057 C 0.87178 0.02813 0.51344 0.0
C1058 C 0.89623 0.04464 0.52748 0.0
C1059 C 0.90861 0.0732 0.57665 0.0
C1060 C 0.89689 0.08566 0.61218 0.0
C1061 C 0.8718 0.06848 0.59531 0.0
H1062 H 1.01598 0.70956 0.75194 0.0
H1063 H 0.97209 0.70729 0.52737 0.0
H1064 H 1.0068 0.73125 0.46153 0.0
H1065 H 0.06835 0.77788 0.75964 0.0
H1066 H 0.0881 0.76615 0.78861 0.0
H1067 H 0.06002 0.74933 0.81885 0.0
H1068 H 0.04958 0.69869 0.74239 0.0
H1069 H 0.0777 0.71524 0.7124 0.0
H1070 H 0.05104 0.69255 0.63108 0.0
H1071 H 0.0472 0.76002 0.42745 0.0
H1072 H 0.08816 0.78139 0.41091 0.0
H1073 H 0.10545 0.76064 0.65089 0.0
C1074 C 1.0137 0.71414 0.68888 0.0
C1075 C 0.99137 0.707 0.64523 0.0
C1076 C 0.98901 0.71272 0.56209 0.0
C1077 C 1.00866 0.72647 0.52449 0.0
C1078 C 0.03052 0.73381 0.57002 0.0
C1079 C 0.03302 0.72712 0.64937 0.0
C1080 C 0.05819 0.73584 0.68248 0.0
C1081 C 0.06932 0.75866 0.76744 0.0
C1082 C 0.05918 0.70898 0.69264 0.0
C1083 C 0.06959 0.74888 0.60993 0.0
C1084 C 0.05336 0.748 0.54664 0.0
C1085 C 0.05989 0.76014 0.47557 0.0
C1086 C 0.08324 0.7721 0.4665 0.0
C1087 C 0.10006 0.77204 0.52813 0.0
C1088 C 0.09308 0.76074 0.60184 0.0
loop_
_geom_bond_atom_site_label_1
_geom_bond_atom_site_label_2
_geom_bond_distance
_geom_bond_site_symmetry_2
_ccdc_geom_bond_type
Ho0 C3 2.811 . S
Ho0 O20 2.322 . S
Ho0 O22 2.378 . S
Ho0 O23 2.524 . S
Ho0 O24 2.381 1_554 S
Ho0 O25 2.669 1_554 S
Ho0 O27 2.346 . S
Ho0 O31 2.305 . S
Ho1 C12 2.811 . S
Ho1 O21 2.346 . S
Ho1 O25 2.305 1_554 S
Ho1 O26 2.322 . S
Ho1 O28 2.378 1_455 S
Ho1 O29 2.524 1_554 S
Ho1 O30 2.381 . S
Ho1 O31 2.669 . S
C2 O20 1.259 . S
C2 O21 1.268 . S
C3 Ho0 2.811 . S
C3 C4 1.488 . S
C3 O22 1.215 . S
C3 O23 1.289 . S
C4 C3 1.488 . S
C4 C5 1.348 . S
C4 C9 1.413 . S
C5 C4 1.348 . S
C5 C6 1.442 . S
C5 H32 0.930 . S
C6 C5 1.442 . S
C6 C7 1.381 . S
C6 H33 0.931 . S
C7 C6 1.381 . S
C7 C8 1.321 . S
C8 C7 1.321 . S
C8 C9 1.403 . S
C8 H34 0.934 . S
C9 C4 1.413 . S
C9 C8 1.403 . S
C9 H35 0.930 . S
C10 O24 1.275 . S
C10 O25 1.256 . S
C11 O26 1.259 . S
C11 O27 1.268 . S
C12 Ho1 2.811 . S
C12 C13 1.488 1_455 S
C12 O28 1.215 1_455 S
C12 O29 1.289 1_554 S
C13 C12 1.488 1_655 S
C13 C14 1.348 1_654 S
C13 C18 1.413 . S
C14 C13 1.348 1_456 S
C14 C15 1.442 1_455 S
C14 H36 0.930 . S
C15 C14 1.442 1_655 S
C15 C16 1.381 1_556 S
C15 H37 0.931 1_655 S
C16 C15 1.381 1_554 S
C16 C17 1.321 . S
C17 C16 1.321 . S
C17 C18 1.403 . S
C17 H38 0.934 . S
C18 C13 1.413 . S
C18 C17 1.403 . S
C18 H39 0.930 . S
C19 O30 1.275 . S
C19 O31 1.256 . S
O20 Ho0 2.322 . S
O20 C2 1.259 . S
O21 Ho1 2.346 . S
O21 C2 1.268 . S
O22 Ho0 2.378 . S
O22 C3 1.215 . S
O23 Ho0 2.524 . S
O23 C3 1.289 . S
O24 Ho0 2.381 1_556 S
O24 C10 1.275 . S
O25 Ho0 2.669 1_556 S
O25 Ho1 2.305 1_556 S
O25 C10 1.256 . S
O26 Ho1 2.322 . S
O26 C11 1.259 . S
O27 Ho0 2.346 . S
O27 C11 1.268 . S
O28 Ho1 2.378 1_655 S
O28 C12 1.215 1_655 S
O29 Ho1 2.524 1_556 S
O29 C12 1.289 1_556 S
O30 Ho1 2.381 . S
O30 C19 1.275 . S
O31 Ho0 2.305 . S
O31 Ho1 2.669 . S
O31 C19 1.256 . S
H32 C5 0.930 . S
H33 C6 0.931 . S
H34 C8 0.934 . S
H35 C9 0.930 . S
H36 C14 0.930 . S
H37 C15 0.931 1_455 S
H38 C17 0.934 . S
H39 C18 0.930 . S
Ho40 C43 2.811 . S
Ho40 O60 2.322 . S
Ho40 O62 2.378 . S
Ho40 O63 2.524 . S
Ho40 O64 2.381 . S
Ho40 O65 2.669 . S
Ho40 O67 2.346 . S
Ho40 O71 2.305 . S
Ho41 C52 2.811 . S
Ho41 O61 2.346 . S
Ho41 O65 2.305 . S
Ho41 O66 2.322 . S
Ho41 O68 2.378 . S
Ho41 O69 2.524 . S
Ho41 O70 2.392 . S
Ho41 O71 2.669 . S
C42 O60 1.259 . S
C42 O61 1.268 . S
C43 Ho40 2.811 . S
C43 C44 1.488 . S
C43 O62 1.215 . S
C43 O63 1.289 . S
C44 C43 1.488 . S
C44 C45 1.348 . S
C44 C49 1.413 . S
C45 C44 1.348 . S
C45 C46 1.442 . S
C45 H72 0.930 . S
C46 C45 1.442 . S
C46 C47 1.381 . S
C46 H73 0.931 . S
C47 C46 1.381 . S
C47 C48 1.321 . S
C48 C47 1.321 . S
C48 C49 1.403 . S
C48 H74 0.934 . S
C49 C44 1.413 . S
C49 C48 1.403 . S
C49 H75 0.930 . S
C50 O64 1.275 . S
C50 O65 1.256 . S
C51 O66 1.259 . S
C51 O67 1.268 . S
C52 Ho41 2.811 . S
C52 C53 1.488 . S
C52 O68 1.215 . S
C52 O69 1.289 . S
C53 C52 1.488 . S
C53 C54 1.348 . S
C53 C58 1.413 . S
C54 C53 1.348 . S
C54 C55 1.442 . S
C54 H76 0.930 . S
C55 C54 1.442 . S
C55 C56 1.381 . S
C55 H77 0.931 . S
C56 C55 1.381 . S
C56 C57 1.321 . S
C57 C56 1.321 . S
C57 C58 1.403 . S
C57 H78 0.934 . S
C58 C53 1.413 . S
C58 C57 1.403 . S
C58 H79 0.930 . S
C59 O70 1.272 1_556 S
C59 O71 1.256 1_556 S
O60 Ho40 2.322 . S
O60 C42 1.259 . S
O61 Ho41 2.346 . S
O61 C42 1.268 . S
O62 Ho40 2.378 . S
O62 C43 1.215 . S
O63 Ho40 2.524 . S
O63 C43 1.289 . S
O64 Ho40 2.381 . S
O64 C50 1.275 . S
O65 Ho40 2.669 . S
O65 Ho41 2.305 . S
O65 C50 1.256 . S
O66 Ho41 2.322 . S
O66 C51 1.259 . S
O67 Ho40 2.346 . S
O67 C51 1.268 . S
O68 Ho41 2.378 . S
O68 C52 1.215 . S
O69 Ho41 2.524 . S
O69 C52 1.289 . S
O70 Ho41 2.392 . S
O70 C59 1.272 1_554 S
O71 Ho40 2.305 . S
O71 Ho41 2.669 . S
O71 C59 1.256 1_554 S
H72 C45 0.930 . S
H73 C46 0.931 . S
H74 C48 0.934 . S
H75 C49 0.930 . S
H76 C54 0.930 . S
H77 C55 0.931 . S
H78 C57 0.934 . S
H79 C58 0.930 . S
Ho80 C83 2.811 . S
Ho80 O100 2.322 . S
Ho80 O102 2.378 . S
Ho80 O103 2.524 . S
Ho80 O104 2.381 . S
Ho80 O105 2.669 . S
Ho80 O107 2.346 . S
Ho80 O111 2.305 . S
Ho81 C92 2.811 . S
Ho81 O101 2.346 . S
Ho81 O105 2.305 . S
Ho81 O106 2.322 . S
Ho81 O108 2.378 . S
Ho81 O109 2.524 . S
Ho81 O110 2.381 . S
Ho81 O111 2.669 . S
C82 O100 1.259 . S
C82 O101 1.268 . S
C83 Ho80 2.811 . S
C83 C84 1.488 . S
C83 O102 1.215 . S
C83 O103 1.289 . S
C84 C83 1.488 . S
C84 C85 1.348 . S
C84 C89 1.413 . S
C85 C84 1.348 . S
C85 C86 1.442 . S
C85 H112 0.930 . S
C86 C85 1.442 . S
C86 C87 1.381 . S
C86 H113 0.931 . S
C87 C86 1.381 . S
C87 C88 1.321 . S
C88 C87 1.321 . S
C88 C89 1.403 . S
C88 H114 0.934 . S
C89 C84 1.413 . S
C89 C88 1.403 . S
C89 H115 0.930 . S
C90 O104 1.275 . S
C90 O105 1.256 . S
C91 O106 1.259 . S
C91 O107 1.268 . S
C92 Ho81 2.811 . S
C92 C93 1.488 . S
C92 O108 1.215 . S
C92 O109 1.289 . S
C93 C92 1.488 . S
C93 C94 1.348 . S
C93 C98 1.413 . S
C94 C93 1.348 . S
C94 C95 1.442 . S
C94 H116 0.930 . S
C95 C94 1.442 . S
C95 C96 1.381 . S
C95 H117 0.931 . S
C96 C95 1.381 . S
C96 C97 1.321 . S
C97 C96 1.321 . S
C97 C98 1.403 . S
C97 H118 0.934 . S
C98 C93 1.413 . S
C98 C97 1.403 . S
C98 H119 0.930 . S
C99 O110 1.275 . S
C99 O111 1.256 . S
O100 Ho80 2.322 . S
O100 C82 1.259 . S
O101 Ho81 2.346 . S
O101 C82 1.268 . S
O102 Ho80 2.378 . S
O102 C83 1.215 . S
O103 Ho80 2.524 . S
O103 C83 1.289 . S
O104 Ho80 2.381 . S
O104 C90 1.275 . S
O105 Ho80 2.669 . S
O105 Ho81 2.305 . S
O105 C90 1.256 . S
O106 Ho81 2.322 . S
O106 C91 1.259 . S
O107 Ho80 2.346 . S
O107 C91 1.268 . S
O108 Ho81 2.378 . S
O108 C92 1.215 . S
O109 Ho81 2.524 . S
O109 C92 1.289 . S
O110 Ho81 2.381 . S
O110 C99 1.275 . S
O111 Ho80 2.305 . S
O111 Ho81 2.669 . S
O111 C99 1.256 . S
H112 C85 0.930 . S
H113 C86 0.931 . S
H114 C88 0.934 . S
H115 C89 0.930 . S
H116 C94 0.930 . S
H117 C95 0.931 . S
H118 C97 0.934 . S
H119 C98 0.930 . S
Ho120 C123 2.811 . S
Ho120 O140 2.322 . S
Ho120 O142 2.378 . S
Ho120 O143 2.524 . S
Ho120 O144 2.381 . S
Ho120 O145 2.669 . S
Ho120 O147 2.346 . S
Ho120 O151 2.305 . S
Ho121 C132 2.811 . S
Ho121 O141 2.346 . S
Ho121 O145 2.305 . S
Ho121 O146 2.322 . S
Ho121 O148 2.378 . S
Ho121 O149 2.524 . S
Ho121 O150 2.381 . S
Ho121 O151 2.669 . S
C122 O140 1.259 . S
C122 O141 1.268 . S
C123 Ho120 2.811 . S
C123 C124 1.488 . S
C123 O142 1.215 . S
C123 O143 1.289 . S
C124 C123 1.488 . S
C124 C125 1.348 . S
C124 C129 1.413 . S
C125 C124 1.348 . S
C125 C126 1.442 . S
C125 H152 0.930 . S
C126 C125 1.442 . S
C126 C127 1.381 . S
C126 H153 0.931 . S
C127 C126 1.381 . S
C127 C128 1.321 . S
C128 C127 1.321 . S
C128 C129 1.403 . S
C128 H154 0.934 . S
C129 C124 1.413 . S
C129 C128 1.403 . S
C129 H155 0.930 . S
C130 O144 1.275 . S
C130 O145 1.256 . S
C131 O146 1.259 . S
C131 O147 1.268 . S
C132 Ho121 2.811 . S
C132 C133 1.488 . S
C132 O148 1.215 . S
C132 O149 1.289 . S
C133 C132 1.488 . S
C133 C134 1.348 . S
C133 C138 1.413 . S
C134 C133 1.348 . S
C134 C135 1.442 . S
C134 H156 0.930 . S
C135 C134 1.442 . S
C135 C136 1.381 . S
C135 H157 0.931 . S
C136 C135 1.381 . S
C136 C137 1.321 . S
C137 C136 1.321 . S
C137 C138 1.403 . S
C137 H158 0.934 . S
C138 C133 1.413 . S
C138 C137 1.403 . S
C138 H159 0.930 . S
C139 O150 1.275 . S
C139 O151 1.256 . S
O140 Ho120 2.322 . S
O140 C122 1.259 . S
O141 Ho121 2.346 . S
O141 C122 1.268 . S
O142 Ho120 2.378 . S
O142 C123 1.215 . S
O143 Ho120 2.524 . S
O143 C123 1.289 . S
O144 Ho120 2.381 . S
O144 C130 1.275 . S
O145 Ho120 2.669 . S
O145 Ho121 2.305 . S
O145 C130 1.256 . S
O146 Ho121 2.322 . S
O146 C131 1.259 . S
O147 Ho120 2.346 . S
O147 C131 1.268 . S
O148 Ho121 2.378 . S
O148 C132 1.215 . S
O149 Ho121 2.524 . S
O149 C132 1.289 . S
O150 Ho121 2.381 . S
O150 C139 1.275 . S
O151 Ho120 2.305 . S
O151 Ho121 2.669 . S
O151 C139 1.256 . S
H152 C125 0.930 . S
H153 C126 0.931 . S
H154 C128 0.934 . S
H155 C129 0.930 . S
H156 C134 0.930 . S
H157 C135 0.931 . S
H158 C137 0.934 . S
H159 C138 0.930 . S
Ho160 C163 2.811 . S
Ho160 O180 2.322 . S
Ho160 O182 2.378 . S
Ho160 O183 2.524 . S
Ho160 O184 2.381 . S
Ho160 O185 2.669 . S
Ho160 O187 2.346 . S
Ho160 O191 2.305 . S
Ho161 C172 2.811 . S
Ho161 O181 2.346 . S
Ho161 O185 2.305 . S
Ho161 O186 2.322 . S
Ho161 O188 2.378 . S
Ho161 O189 2.524 . S
Ho161 O190 2.381 . S
Ho161 O191 2.669 . S
C162 O180 1.259 . S
C162 O181 1.268 . S
C163 Ho160 2.811 . S
C163 C164 1.488 . S
C163 O182 1.215 . S
C163 O183 1.289 . S
C164 C163 1.488 . S
C164 C165 1.348 . S
C164 C169 1.413 . S
C165 C164 1.348 . S
C165 C166 1.442 . S
C165 H192 0.930 . S
C166 C165 1.442 . S
C166 C167 1.381 . S
C166 H193 0.931 . S
C167 C166 1.381 . S
C167 C168 1.321 . S
C168 C167 1.321 . S
C168 C169 1.403 . S
C168 H194 0.934 . S
C169 C164 1.413 . S
C169 C168 1.403 . S
C169 H195 0.930 . S
C170 O184 1.275 . S
C170 O185 1.256 . S
C171 O186 1.259 . S
C171 O187 1.268 . S
C172 Ho161 2.811 . S
C172 C173 1.488 . S
C172 O188 1.215 . S
C172 O189 1.289 . S
C173 C172 1.488 . S
C173 C174 1.348 . S
C173 C178 1.413 . S
C174 C173 1.348 . S
C174 C175 1.442 . S
C174 H196 0.930 . S
C175 C174 1.442 . S
C175 C176 1.381 . S
C175 H197 0.931 . S
C176 C175 1.381 . S
C176 C177 1.321 . S
C177 C176 1.321 . S
C177 C178 1.403 . S
C177 H198 0.934 . S
C178 C173 1.413 . S
C178 C177 1.403 . S
C178 H199 0.930 . S
C179 O190 1.275 . S
C179 O191 1.256 . S
O180 Ho160 2.322 . S
O180 C162 1.259 . S
O181 Ho161 2.346 . S
O181 C162 1.268 . S
O182 Ho160 2.378 . S
O182 C163 1.215 . S
O183 Ho160 2.524 . S
O183 C163 1.289 . S
O184 Ho160 2.381 . S
O184 C170 1.275 . S
O185 Ho160 2.669 . S
O185 Ho161 2.305 . S
O185 C170 1.256 . S
O186 Ho161 2.322 . S
O186 C171 1.259 . S
O187 Ho160 2.346 . S
O187 C171 1.268 . S
O188 Ho161 2.378 . S
O188 C172 1.215 . S
O189 Ho161 2.524 . S
O189 C172 1.289 . S
O190 Ho161 2.381 . S
O190 C179 1.275 . S
O191 Ho160 2.305 . S
O191 Ho161 2.669 . S
O191 C179 1.256 . S
H192 C165 0.930 . S
H193 C166 0.931 . S
H194 C168 0.934 . S
H195 C169 0.930 . S
H196 C174 0.930 . S
H197 C175 0.931 . S
H198 C177 0.934 . S
H199 C178 0.930 . S
Ho200 C203 2.811 . S
Ho200 O220 2.322 . S
Ho200 O222 2.378 . S
Ho200 O223 2.524 . S
Ho200 O224 2.381 . S
Ho200 O225 2.669 . S
Ho200 O227 2.346 . S
Ho200 O231 2.305 . S
Ho201 C212 2.811 . S
Ho201 O221 2.346 . S
Ho201 O225 2.305 . S
Ho201 O226 2.322 . S
Ho201 O228 2.378 . S
Ho201 O229 2.524 . S
Ho201 O230 2.381 . S
Ho201 O231 2.669 . S
C202 O220 1.259 . S
C202 O221 1.268 . S
C203 Ho200 2.811 . S
C203 C204 1.488 . S
C203 O222 1.215 . S
C203 O223 1.289 . S
C204 C203 1.488 . S
C204 C205 1.348 . S
C204 C209 1.413 . S
C205 C204 1.348 . S
C205 C206 1.442 . S
C205 H232 0.930 . S
C206 C205 1.442 . S
C206 C207 1.381 . S
C206 H233 0.931 . S
C207 C206 1.381 . S
C207 C208 1.321 . S
C208 C207 1.321 . S
C208 C209 1.403 . S
C208 H234 0.934 . S
C209 C204 1.413 . S
C209 C208 1.403 . S
C209 H235 0.930 . S
C210 O224 1.275 . S
C210 O225 1.256 . S
C211 O226 1.259 . S
C211 O227 1.268 . S
C212 Ho201 2.811 . S
C212 C213 1.488 . S
C212 O228 1.215 . S
C212 O229 1.289 . S
C213 C212 1.488 . S
C213 C214 1.348 . S
C213 C218 1.413 . S
C214 C213 1.348 . S
C214 C215 1.442 . S
C214 H236 0.930 . S
C215 C214 1.442 . S
C215 C216 1.381 . S
C215 H237 0.931 . S
C216 C215 1.381 . S
C216 C217 1.321 . S
C217 C216 1.321 . S
C217 C218 1.403 . S
C217 H238 0.934 . S
C218 C213 1.413 . S
C218 C217 1.403 . S
C218 H239 0.930 . S
C219 O230 1.275 . S
C219 O231 1.256 . S
O220 Ho200 2.322 . S
O220 C202 1.259 . S
O221 Ho201 2.346 . S
O221 C202 1.268 . S
O222 Ho200 2.378 . S
O222 C203 1.215 . S
O223 Ho200 2.524 . S
O223 C203 1.289 . S
O224 Ho200 2.381 . S
O224 C210 1.275 . S
O225 Ho200 2.669 . S
O225 Ho201 2.305 . S
O225 C210 1.256 . S
O226 Ho201 2.322 . S
O226 C211 1.259 . S
O227 Ho200 2.346 . S
O227 C211 1.268 . S
O228 Ho201 2.378 . S
O228 C212 1.215 . S
O229 Ho201 2.524 . S
O229 C212 1.289 . S
O230 Ho201 2.381 . S
O230 C219 1.275 . S
O231 Ho200 2.305 . S
O231 Ho201 2.669 . S
O231 C219 1.256 . S
H232 C205 0.930 . S
H233 C206 0.931 . S
H234 C208 0.934 . S
H235 C209 0.930 . S
H236 C214 0.930 . S
H237 C215 0.931 . S
H238 C217 0.934 . S
H239 C218 0.930 . S
Ho240 C243 2.811 . S
Ho240 O260 2.322 . S
Ho240 O262 2.378 . S
Ho240 O263 2.524 . S
Ho240 O264 2.381 . S
Ho240 O265 2.669 . S
Ho240 O267 2.346 . S
Ho240 O271 2.305 . S
Ho241 C252 2.811 . S
Ho241 O261 2.346 . S
Ho241 O265 2.305 . S
Ho241 O266 2.322 . S
Ho241 O268 2.378 . S
Ho241 O269 2.524 . S
Ho241 O270 2.381 . S
Ho241 O271 2.669 . S
C242 O260 1.259 . S
C242 O261 1.268 . S
C243 Ho240 2.811 . S
C243 C244 1.488 . S
C243 O262 1.215 . S
C243 O263 1.289 . S
C244 C243 1.488 . S
C244 C245 1.348 . S
C244 C249 1.413 . S
C245 C244 1.348 . S
C245 C246 1.442 . S
C245 H272 0.930 . S
C246 C245 1.442 . S
C246 C247 1.381 . S
C246 H273 0.931 . S
C247 C246 1.381 . S
C247 C248 1.321 . S
C248 C247 1.321 . S
C248 C249 1.403 . S
C248 H274 0.934 . S
C249 C244 1.413 . S
C249 C248 1.403 . S
C249 H275 0.930 . S
C250 O264 1.275 . S
C250 O265 1.256 . S
C251 O266 1.259 . S
C251 O267 1.268 . S
C252 Ho241 2.811 . S
C252 C253 1.488 1_556 S
C252 O268 1.215 . S
C252 O269 1.289 . S
C253 C252 1.488 1_554 S
C253 C254 1.348 . S
C253 C258 1.413 . S
C254 C253 1.348 . S
C254 C255 1.442 . S
C254 H276 0.930 . S
C255 C254 1.442 . S
C255 C256 1.381 . S
C255 H277 0.931 . S
C256 C255 1.381 . S
C256 C257 1.321 . S
C257 C256 1.321 . S
C257 C258 1.403 . S
C257 H278 0.934 . S
C258 C253 1.413 . S
C258 C257 1.403 . S
C258 H279 0.930 1_554 S
C259 O270 1.275 . S
C259 O271 1.256 . S
O260 Ho240 2.322 . S
O260 C242 1.259 . S
O261 Ho241 2.346 . S
O261 C242 1.268 . S
O262 Ho240 2.378 . S
O262 C243 1.215 . S
O263 Ho240 2.524 . S
O263 C243 1.289 . S
O264 Ho240 2.381 . S
O264 C250 1.275 . S
O265 Ho240 2.669 . S
O265 Ho241 2.305 . S
O265 C250 1.256 . S
O266 Ho241 2.322 . S
O266 C251 1.259 . S
O267 Ho240 2.346 . S
O267 C251 1.268 . S
O268 Ho241 2.378 . S
O268 C252 1.215 . S
O269 Ho241 2.524 . S
O269 C252 1.289 . S
O270 Ho241 2.381 . S
O270 C259 1.275 . S
O271 Ho240 2.305 . S
O271 Ho241 2.669 . S
O271 C259 1.256 . S
H272 C245 0.930 . S
H273 C246 0.931 . S
H274 C248 0.934 . S
H275 C249 0.930 . S
H276 C254 0.930 . S
H277 C255 0.931 . S
H278 C257 0.934 . S
H279 C258 0.930 1_556 S
Ho280 C283 2.811 . S
Ho280 O300 2.322 . S
Ho280 O302 2.378 . S
Ho280 O303 2.524 . S
Ho280 O304 2.381 . S
Ho280 O305 2.669 . S
Ho280 O307 2.346 . S
Ho280 O311 2.305 . S
Ho281 C292 2.811 . S
Ho281 O301 2.346 . S
Ho281 O305 2.305 . S
Ho281 O306 2.322 . S
Ho281 O308 2.378 . S
Ho281 O309 2.524 . S
Ho281 O310 2.381 . S
Ho281 O311 2.669 . S
C282 O300 1.259 . S
C282 O301 1.268 . S
C283 Ho280 2.811 . S
C283 C284 1.480 1_556 S
C283 O302 1.215 . S
C283 O303 1.289 . S
C284 C283 1.480 1_554 S
C284 C285 1.352 . S
C284 C289 1.417 . S
C285 C284 1.352 . S
C285 C286 1.442 . S
C285 H312 0.930 . S
C286 C285 1.442 . S
C286 C287 1.381 . S
C286 H313 0.931 . S
C287 C286 1.381 . S
C287 C288 1.321 . S
C288 C287 1.321 . S
C288 C289 1.403 . S
C288 H314 0.934 . S
C289 C284 1.417 . S
C289 C288 1.403 . S
C289 H315 0.930 1_554 S
C290 O304 1.275 . S
C290 O305 1.256 . S
C291 O306 1.259 . S
C291 O307 1.268 . S
C292 Ho281 2.811 . S
C292 C293 1.488 . S
C292 O308 1.215 . S
C292 O309 1.289 . S
C293 C292 1.488 . S
C293 C294 1.348 . S
C293 C298 1.413 . S
C294 C293 1.348 . S
C294 C295 1.442 . S
C294 H316 0.930 . S
C295 C294 1.442 . S
C295 C296 1.381 . S
C295 H317 0.931 . S
C296 C295 1.381 . S
C296 C297 1.321 . S
C297 C296 1.321 . S
C297 C298 1.403 . S
C297 H318 0.934 . S
C298 C293 1.413 . S
C298 C297 1.403 . S
C298 H319 0.930 . S
C299 O310 1.275 . S
C299 O311 1.256 . S
O300 Ho280 2.322 . S
O300 C282 1.259 . S
O301 Ho281 2.346 . S
O301 C282 1.268 . S
O302 Ho280 2.378 . S
O302 C283 1.215 . S
O303 Ho280 2.524 . S
O303 C283 1.289 . S
O304 Ho280 2.381 . S
O304 C290 1.275 . S
O305 Ho280 2.669 . S
O305 Ho281 2.305 . S
O305 C290 1.256 . S
O306 Ho281 2.322 . S
O306 C291 1.259 . S
O307 Ho280 2.346 . S
O307 C291 1.268 . S
O308 Ho281 2.378 . S
O308 C292 1.215 . S
O309 Ho281 2.524 . S
O309 C292 1.289 . S
O310 Ho281 2.381 . S
O310 C299 1.275 . S
O311 Ho280 2.305 . S
O311 Ho281 2.669 . S
O311 C299 1.256 . S
H312 C285 0.930 . S
H313 C286 0.931 . S
H314 C288 0.934 . S
H315 C289 0.930 1_556 S
H316 C294 0.930 . S
H317 C295 0.931 . S
H318 C297 0.934 . S
H319 C298 0.930 . S
Ho320 C323 2.811 . S
Ho320 O340 2.322 . S
Ho320 O342 2.378 . S
Ho320 O343 2.524 . S
Ho320 O344 2.381 . S
Ho320 O345 2.669 . S
Ho320 O347 2.346 . S
Ho320 O351 2.305 . S
Ho321 C332 2.811 . S
Ho321 O341 2.346 . S
Ho321 O345 2.305 . S
Ho321 O346 2.322 . S
Ho321 O348 2.378 . S
Ho321 O349 2.524 . S
Ho321 O350 2.381 . S
Ho321 O351 2.669 . S
C322 O340 1.259 . S
C322 O341 1.268 . S
C323 Ho320 2.811 . S
C323 C324 1.488 . S
C323 O342 1.215 . S
C323 O343 1.289 . S
C324 C323 1.488 . S
C324 C325 1.348 . S
C324 C329 1.413 . S
C325 C324 1.348 . S
C325 C326 1.442 . S
C325 H352 0.930 . S
C326 C325 1.442 . S
C326 C327 1.381 . S
C326 H353 0.931 . S
C327 C326 1.381 . S
C327 C328 1.321 . S
C328 C327 1.321 . S
C328 C329 1.403 . S
C328 H354 0.934 . S
C329 C324 1.413 . S
C329 C328 1.403 . S
C329 H355 0.930 . S
C330 O344 1.275 . S
C330 O345 1.256 . S
C331 O346 1.259 . S
C331 O347 1.268 . S
C332 Ho321 2.811 . S
C332 C333 1.488 1_556 S
C332 O348 1.215 . S
C332 O349 1.289 . S
C333 C332 1.488 1_554 S
C333 C334 1.348 . S
C333 C338 1.413 . S
C334 C333 1.348 . S
C334 C335 1.442 . S
C334 H356 0.930 . S
C335 C334 1.442 . S
C335 C336 1.381 . S
C335 H357 0.931 . S
C336 C335 1.381 . S
C336 C337 1.321 . S
C337 C336 1.321 . S
C337 C338 1.403 . S
C337 H358 0.934 . S
C338 C333 1.413 . S
C338 C337 1.403 . S
C338 H359 0.930 . S
C339 O350 1.275 . S
C339 O351 1.256 . S
O340 Ho320 2.322 . S
O340 C322 1.259 . S
O341 Ho321 2.346 . S
O341 C322 1.268 . S
O342 Ho320 2.378 . S
O342 C323 1.215 . S
O343 Ho320 2.524 . S
O343 C323 1.289 . S
O344 Ho320 2.381 . S
O344 C330 1.275 . S
O345 Ho320 2.669 . S
O345 Ho321 2.305 . S
O345 C330 1.256 . S
O346 Ho321 2.322 . S
O346 C331 1.259 . S
O347 Ho320 2.346 . S
O347 C331 1.268 . S
O348 Ho321 2.378 . S
O348 C332 1.215 . S
O349 Ho321 2.524 . S
O349 C332 1.289 . S
O350 Ho321 2.381 . S
O350 C339 1.275 . S
O351 Ho320 2.305 . S
O351 Ho321 2.669 . S
O351 C339 1.256 . S
H352 C325 0.930 . S
H353 C326 0.931 . S
H354 C328 0.934 . S
H355 C329 0.930 . S
H356 C334 0.930 . S
H357 C335 0.931 . S
H358 C337 0.934 . S
H359 C338 0.930 . S
H360 C372 0.930 . S
H361 C374 0.930 . S
H362 C375 0.930 . S
H363 C379 0.959 . S
H364 C379 0.959 . S
H365 C379 0.961 . S
H366 C380 0.960 . S
H367 C380 0.961 . S
H368 C380 0.959 1_655 S
H369 C383 0.929 . S
H370 C384 0.931 . S
H371 C386 0.930 . S
C372 H360 0.930 . S
C372 C373 1.399 . S
C372 C377 1.399 . S
C373 C372 1.399 . S
C373 C374 1.376 . S
C374 H361 0.930 . S
C374 C373 1.376 . S
C374 C375 1.388 . S
C375 H362 0.930 . S
C375 C374 1.388 . S
C375 C376 1.390 . S
C376 C375 1.390 . S
C376 C377 1.394 . S
C376 C382 1.465 . S
C377 C372 1.399 . S
C377 C376 1.394 . S
C377 C378 1.516 . S
C378 C377 1.516 . S
C378 C379 1.502 . S
C378 C380 1.561 . S
C378 C381 1.526 . S
C379 H363 0.959 . S
C379 H364 0.959 . S
C379 H365 0.961 . S
C379 C378 1.502 . S
C380 H366 0.960 . S
C380 H367 0.961 . S
C380 H368 0.959 1_455 S
C380 C378 1.561 . S
C381 C378 1.526 . S
C381 C382 1.396 . S
C381 C386 1.390 . S
C382 C376 1.465 . S
C382 C381 1.396 . S
C382 C383 1.399 . S
C383 H369 0.929 . S
C383 C382 1.399 . S
C383 C384 1.385 . S
C384 H370 0.931 . S
C384 C383 1.385 . S
C384 C385 1.389 . S
C385 C384 1.389 . S
C385 C386 1.387 . S
C386 H371 0.930 . S
C386 C381 1.390 . S
C386 C385 1.387 . S
H387 C399 0.930 . S
H388 C401 0.930 . S
H389 C402 0.930 . S
H390 C406 0.959 . S
H391 C406 0.959 . S
H392 C406 0.961 . S
H393 C407 0.960 . S
H394 C407 0.961 . S
H395 C407 0.959 . S
H396 C410 0.929 . S
H397 C411 0.931 . S
H398 C413 0.930 . S
C399 H387 0.930 . S
C399 C400 1.399 . S
C399 C404 1.399 . S
C400 C399 1.399 . S
C400 C401 1.376 . S
C401 H388 0.930 . S
C401 C400 1.376 . S
C401 C402 1.388 . S
C402 H389 0.930 . S
C402 C401 1.388 . S
C402 C403 1.390 . S
C403 C402 1.390 . S
C403 C404 1.394 . S
C403 C409 1.465 . S
C404 C399 1.399 . S
C404 C403 1.394 . S
C404 C405 1.516 . S
C405 C404 1.516 . S
C405 C406 1.502 . S
C405 C407 1.561 . S
C405 C408 1.526 . S
C406 H390 0.959 . S
C406 H391 0.959 . S
C406 H392 0.961 . S
C406 C405 1.502 . S
C407 H393 0.960 . S
C407 H394 0.961 . S
C407 H395 0.959 . S
C407 C405 1.561 . S
C408 C405 1.526 . S
C408 C409 1.396 . S
C408 C413 1.390 . S
C409 C403 1.465 . S
C409 C408 1.396 . S
C409 C410 1.399 . S
C410 H396 0.929 . S
C410 C409 1.399 . S
C410 C411 1.385 . S
C411 H397 0.931 . S
C411 C410 1.385 . S
C411 C412 1.389 . S
C412 C411 1.389 . S
C412 C413 1.387 . S
C413 H398 0.930 . S
C413 C408 1.390 . S
C413 C412 1.387 . S
H414 C426 0.930 . S
H415 C428 0.930 . S
H416 C429 0.930 . S
H417 C433 0.959 . S
H418 C433 0.959 . S
H419 C433 0.961 . S
H420 C434 0.960 . S
H421 C434 0.961 . S
H422 C434 0.959 . S
H423 C437 0.929 . S
H424 C438 0.931 . S
H425 C440 0.930 . S
C426 H414 0.930 . S
C426 C427 1.399 . S
C426 C431 1.399 . S
C427 C426 1.399 . S
C427 C428 1.376 . S
C428 H415 0.930 . S
C428 C427 1.376 . S
C428 C429 1.388 . S
C429 H416 0.930 . S
C429 C428 1.388 . S
C429 C430 1.390 . S
C430 C429 1.390 . S
C430 C431 1.394 . S
C430 C436 1.465 . S
C431 C426 1.399 . S
C431 C430 1.394 . S
C431 C432 1.516 . S
C432 C431 1.516 . S
C432 C433 1.502 . S
C432 C434 1.561 . S
C432 C435 1.526 . S
C433 H417 0.959 . S
C433 H418 0.959 . S
C433 H419 0.961 . S
C433 C432 1.502 . S
C434 H420 0.960 . S
C434 H421 0.961 . S
C434 H422 0.959 . S
C434 C432 1.561 . S
C435 C432 1.526 . S
C435 C436 1.396 . S
C435 C440 1.390 . S
C436 C430 1.465 . S
C436 C435 1.396 . S
C436 C437 1.399 . S
C437 H423 0.929 . S
C437 C436 1.399 . S
C437 C438 1.385 . S
C438 H424 0.931 . S
C438 C437 1.385 . S
C438 C439 1.389 . S
C439 C438 1.389 . S
C439 C440 1.387 . S
C440 H425 0.930 . S
C440 C435 1.390 . S
C440 C439 1.387 . S
H441 C453 0.930 . S
H442 C455 0.930 . S
H443 C456 0.930 . S
H444 C460 0.959 . S
H445 C460 0.959 . S
H446 C460 0.961 . S
H447 C461 0.960 . S
H448 C461 0.961 . S
H449 C461 0.959 . S
H450 C464 0.929 . S
H451 C465 0.931 . S
H452 C467 0.930 . S
C453 H441 0.930 . S
C453 C454 1.399 . S
C453 C458 1.399 . S
C454 C453 1.399 . S
C454 C455 1.376 . S
C455 H442 0.930 . S
C455 C454 1.376 . S
C455 C456 1.388 . S
C456 H443 0.930 . S
C456 C455 1.388 . S
C456 C457 1.390 . S
C457 C456 1.390 . S
C457 C458 1.394 . S
C457 C463 1.465 . S
C458 C453 1.399 . S
C458 C457 1.394 . S
C458 C459 1.516 . S
C459 C458 1.516 . S
C459 C460 1.502 . S
C459 C461 1.561 . S
C459 C462 1.526 . S
C460 H444 0.959 . S
C460 H445 0.959 . S
C460 H446 0.961 . S
C460 C459 1.502 . S
C461 H447 0.960 . S
C461 H448 0.961 . S
C461 H449 0.959 . S
C461 C459 1.561 . S
C462 C459 1.526 . S
C462 C463 1.396 . S
C462 C467 1.390 . S
C463 C457 1.465 . S
C463 C462 1.396 . S
C463 C464 1.399 . S
C464 H450 0.929 . S
C464 C463 1.399 . S
C464 C465 1.385 1_556 S
C465 H451 0.931 . S
C465 C464 1.385 1_554 S
C465 C466 1.389 . S
C466 C465 1.389 . S
C466 C467 1.387 1_554 S
C467 H452 0.930 . S
C467 C462 1.390 . S
C467 C466 1.387 1_556 S
H468 C480 0.930 . S
H469 C482 0.930 . S
H470 C483 0.930 . S
H471 C487 0.959 . S
H472 C487 0.959 . S
H473 C487 0.961 . S
H474 C488 0.960 . S
H475 C488 0.961 . S
H476 C488 0.959 . S
H477 C491 0.929 . S
H478 C492 0.931 . S
H479 C494 0.930 . S
C480 H468 0.930 . S
C480 C481 1.399 . S
C480 C485 1.399 . S
C481 C480 1.399 . S
C481 C482 1.376 . S
C482 H469 0.930 . S
C482 C481 1.376 . S
C482 C483 1.388 . S
C483 H470 0.930 . S
C483 C482 1.388 . S
C483 C484 1.390 . S
C484 C483 1.390 . S
C484 C485 1.394 . S
C484 C490 1.465 . S
C485 C480 1.399 . S
C485 C484 1.394 . S
C485 C486 1.516 . S
C486 C485 1.516 . S
C486 C487 1.502 . S
C486 C488 1.561 . S
C486 C489 1.526 . S
C487 H471 0.959 . S
C487 H472 0.959 . S
C487 H473 0.961 . S
C487 C486 1.502 . S
C488 H474 0.960 . S
C488 H475 0.961 . S
C488 H476 0.959 . S
C488 C486 1.561 . S
C489 C486 1.526 . S
C489 C490 1.396 . S
C489 C494 1.390 . S
C490 C484 1.465 . S
C490 C489 1.396 . S
C490 C491 1.399 . S
C491 H477 0.929 . S
C491 C490 1.399 . S
C491 C492 1.385 . S
C492 H478 0.931 . S
C492 C491 1.385 . S
C492 C493 1.389 . S
C493 C492 1.389 . S
C493 C494 1.387 . S
C494 H479 0.930 . S
C494 C489 1.390 . S
C494 C493 1.387 . S
H495 C507 0.930 . S
H496 C509 0.930 . S
H497 C510 0.930 . S
H498 C514 0.959 . S
H499 C514 0.959 . S
H500 C514 0.961 . S
H501 C515 0.960 . S
H502 C515 0.961 . S
H503 C515 0.959 . S
H504 C518 0.929 . S
H505 C519 0.931 . S
H506 C521 0.930 . S
C507 H495 0.930 . S
C507 C508 1.399 . S
C507 C512 1.399 . S
C508 C507 1.399 . S
C508 C509 1.376 . S
C509 H496 0.930 . S
C509 C508 1.376 . S
C509 C510 1.388 . S
C510 H497 0.930 . S
C510 C509 1.388 . S
C510 C511 1.390 . S
C511 C510 1.390 . S
C511 C512 1.394 . S
C511 C517 1.465 . S
C512 C507 1.399 . S
C512 C511 1.394 . S
C512 C513 1.516 . S
C513 C512 1.516 . S
C513 C514 1.502 . S
C513 C515 1.561 . S
C513 C516 1.526 . S
C514 H498 0.959 . S
C514 H499 0.959 . S
C514 H500 0.961 . S
C514 C513 1.502 . S
C515 H501 0.960 . S
C515 H502 0.961 . S
C515 H503 0.959 . S
C515 C513 1.561 . S
C516 C513 1.526 . S
C516 C517 1.396 . S
C516 C521 1.390 . S
C517 C511 1.465 . S
C517 C516 1.396 . S
C517 C518 1.399 . S
C518 H504 0.929 . S
C518 C517 1.399 . S
C518 C519 1.385 . S
C519 H505 0.931 . S
C519 C518 1.385 . S
C519 C520 1.389 . S
C520 C519 1.389 . S
C520 C521 1.387 . S
C521 H506 0.930 . S
C521 C516 1.390 . S
C521 C520 1.387 . S
H522 C534 0.930 . S
H523 C536 0.930 . S
H524 C537 0.930 . S
H525 C541 0.959 . S
H526 C541 0.959 . S
H527 C541 0.961 . S
H528 C542 0.960 . S
H529 C542 0.961 . S
H530 C542 0.959 . S
H531 C545 0.929 . S
H532 C546 0.931 . S
H533 C548 0.930 . S
C534 H522 0.930 . S
C534 C535 1.399 . S
C534 C539 1.399 . S
C535 C534 1.399 . S
C535 C536 1.376 . S
C536 H523 0.930 . S
C536 C535 1.376 . S
C536 C537 1.388 . S
C537 H524 0.930 . S
C537 C536 1.388 . S
C537 C538 1.390 . S
C538 C537 1.390 . S
C538 C539 1.394 . S
C538 C544 1.465 . S
C539 C534 1.399 . S
C539 C538 1.394 . S
C539 C540 1.516 . S
C540 C539 1.516 . S
C540 C541 1.502 . S
C540 C542 1.561 . S
C540 C543 1.526 . S
C541 H525 0.959 . S
C541 H526 0.959 . S
C541 H527 0.961 . S
C541 C540 1.502 . S
C542 H528 0.960 . S
C542 H529 0.961 . S
C542 H530 0.959 . S
C542 C540 1.561 . S
C543 C540 1.526 . S
C543 C544 1.396 . S
C543 C548 1.390 . S
C544 C538 1.465 . S
C544 C543 1.396 . S
C544 C545 1.399 . S
C545 H531 0.929 . S
C545 C544 1.399 . S
C545 C546 1.385 . S
C546 H532 0.931 . S
C546 C545 1.385 . S
C546 C547 1.389 . S
C547 C546 1.389 . S
C547 C548 1.387 . S
C548 H533 0.930 . S
C548 C543 1.390 . S
C548 C547 1.387 . S
H549 C561 0.930 . S
H550 C563 0.930 . S
H551 C564 0.930 . S
H552 C568 0.959 . S
H553 C568 0.959 . S
H554 C568 0.961 . S
H555 C569 0.960 . S
H556 C569 0.961 1_556 S
H557 C569 0.959 . S
H558 C572 0.929 . S
H559 C573 0.931 . S
H560 C575 0.930 . S
C561 H549 0.930 . S
C561 C562 1.399 . S
C561 C566 1.399 . S
C562 C561 1.399 . S
C562 C563 1.376 . S
C563 H550 0.930 . S
C563 C562 1.376 . S
C563 C564 1.388 . S
C564 H551 0.930 . S
C564 C563 1.388 . S
C564 C565 1.390 . S
C565 C564 1.390 . S
C565 C566 1.394 . S
C565 C571 1.465 . S
C566 C561 1.399 . S
C566 C565 1.394 . S
C566 C567 1.516 . S
C567 C566 1.516 . S
C567 C568 1.502 . S
C567 C569 1.561 . S
C567 C570 1.526 . S
C568 H552 0.959 . S
C568 H553 0.959 . S
C568 H554 0.961 . S
C568 C567 1.502 . S
C569 H555 0.960 . S
C569 H556 0.961 1_554 S
C569 H557 0.959 . S
C569 C567 1.561 . S
C570 C567 1.526 . S
C570 C571 1.396 . S
C570 C575 1.390 . S
C571 C565 1.465 . S
C571 C570 1.396 . S
C571 C572 1.399 . S
C572 H558 0.929 . S
C572 C571 1.399 . S
C572 C573 1.385 . S
C573 H559 0.931 . S
C573 C572 1.385 . S
C573 C574 1.389 . S
C574 C573 1.389 . S
C574 C575 1.387 . S
C575 H560 0.930 . S
C575 C570 1.390 . S
C575 C574 1.387 . S
H576 C588 0.930 . S
H577 C590 0.930 . S
H578 C591 0.930 . S
H579 C595 0.959 . S
H580 C595 0.959 . S
H581 C595 0.961 . S
H582 C596 0.960 . S
H583 C596 0.961 . S
H584 C596 0.959 . S
H585 C599 0.929 . S
H586 C600 0.931 . S
H587 C602 0.930 . S
C588 H576 0.930 . S
C588 C589 1.399 . S
C588 C593 1.399 . S
C589 C588 1.399 . S
C589 C590 1.376 . S
C590 H577 0.930 . S
C590 C589 1.376 . S
C590 C591 1.388 . S
C591 H578 0.930 . S
C591 C590 1.388 . S
C591 C592 1.390 . S
C592 C591 1.390 . S
C592 C593 1.394 . S
C592 C598 1.465 . S
C593 C588 1.399 . S
C593 C592 1.394 . S
C593 C594 1.516 . S
C594 C593 1.516 . S
C594 C595 1.502 . S
C594 C596 1.561 . S
C594 C597 1.526 . S
C595 H579 0.959 . S
C595 H580 0.959 . S
C595 H581 0.961 . S
C595 C594 1.502 . S
C596 H582 0.960 . S
C596 H583 0.961 . S
C596 H584 0.959 . S
C596 C594 1.561 . S
C597 C594 1.526 . S
C597 C598 1.396 . S
C597 C602 1.390 . S
C598 C592 1.465 . S
C598 C597 1.396 . S
C598 C599 1.399 . S
C599 H585 0.929 . S
C599 C598 1.399 . S
C599 C600 1.385 . S
C600 H586 0.931 . S
C600 C599 1.385 . S
C600 C601 1.389 . S
C601 C600 1.389 . S
C601 C602 1.387 . S
C602 H587 0.930 . S
C602 C597 1.390 . S
C602 C601 1.387 . S
H603 C615 0.930 . S
H604 C617 0.930 . S
H605 C618 0.930 . S
H606 C622 0.959 . S
H607 C622 0.959 1_556 S
H608 C622 0.961 . S
H609 C623 0.965 . S
H610 C623 0.961 1_556 S
H611 C623 0.959 . S
H612 C626 0.929 . S
H613 C627 0.931 . S
H614 C629 0.930 . S
C615 H603 0.930 . S
C615 C616 1.399 . S
C615 C620 1.399 . S
C616 C615 1.399 . S
C616 C617 1.376 . S
C617 H604 0.930 . S
C617 C616 1.376 . S
C617 C618 1.388 . S
C618 H605 0.930 . S
C618 C617 1.388 . S
C618 C619 1.390 . S
C619 C618 1.390 . S
C619 C620 1.394 . S
C619 C625 1.465 . S
C620 C615 1.399 . S
C620 C619 1.394 . S
C620 C621 1.516 . S
C621 C620 1.516 . S
C621 C622 1.502 . S
C621 C623 1.561 . S
C621 C624 1.526 . S
C622 H606 0.959 . S
C622 H607 0.959 1_554 S
C622 H608 0.961 . S
C622 C621 1.502 . S
C623 H609 0.965 . S
C623 H610 0.961 1_554 S
C623 H611 0.959 . S
C623 C621 1.561 . S
C624 C621 1.526 . S
C624 C625 1.396 . S
C624 C629 1.390 . S
C625 C619 1.465 . S
C625 C624 1.396 . S
C625 C626 1.399 . S
C626 H612 0.929 . S
C626 C625 1.399 . S
C626 C627 1.385 . S
C627 H613 0.931 . S
C627 C626 1.385 . S
C627 C628 1.389 . S
C628 C627 1.389 . S
C628 C629 1.387 . S
C629 H614 0.930 . S
C629 C624 1.390 . S
C629 C628 1.387 . S
H630 C642 0.930 . S
H631 C644 0.930 . S
H632 C645 0.930 . S
H633 C649 0.959 . S
H634 C649 0.959 . S
H635 C649 0.961 . S
H636 C650 0.960 . S
H637 C650 0.961 . S
H638 C650 0.959 . S
H639 C653 0.929 . S
H640 C654 0.931 . S
H641 C656 0.930 . S
C642 H630 0.930 . S
C642 C643 1.399 . S
C642 C647 1.399 . S
C643 C642 1.399 . S
C643 C644 1.376 . S
C644 H631 0.930 . S
C644 C643 1.376 . S
C644 C645 1.388 . S
C645 H632 0.930 . S
C645 C644 1.388 . S
C645 C646 1.390 . S
C646 C645 1.390 . S
C646 C647 1.394 . S
C646 C652 1.465 . S
C647 C642 1.399 . S
C647 C646 1.394 . S
C647 C648 1.516 . S
C648 C647 1.516 . S
C648 C649 1.502 . S
C648 C650 1.561 . S
C648 C651 1.526 . S
C649 H633 0.959 . S
C649 H634 0.959 . S
C649 H635 0.961 . S
C649 C648 1.502 . S
C650 H636 0.960 . S
C650 H637 0.961 . S
C650 H638 0.959 . S
C650 C648 1.561 . S
C651 C648 1.526 . S
C651 C652 1.396 . S
C651 C656 1.390 . S
C652 C646 1.465 . S
C652 C651 1.396 . S
C652 C653 1.399 . S
C653 H639 0.929 . S
C653 C652 1.399 . S
C653 C654 1.385 . S
C654 H640 0.931 . S
C654 C653 1.385 . S
C654 C655 1.389 . S
C655 C654 1.389 . S
C655 C656 1.387 . S
C656 H641 0.930 . S
C656 C651 1.390 . S
C656 C655 1.387 . S
H657 C669 0.930 . S
H658 C671 0.930 . S
H659 C672 0.930 1_565 S
H660 C676 0.959 . S
H661 C676 0.959 . S
H662 C676 0.961 . S
H663 C677 0.960 . S
H664 C677 0.961 . S
H665 C677 0.959 . S
H666 C680 0.929 . S
H667 C681 0.931 . S
H668 C683 0.930 . S
C669 H657 0.930 . S
C669 C670 1.399 . S
C669 C674 1.399 1_545 S
C670 C669 1.399 . S
C670 C671 1.376 . S
C671 H658 0.930 . S
C671 C670 1.376 . S
C671 C672 1.388 . S
C672 H659 0.930 1_545 S
C672 C671 1.388 . S
C672 C673 1.390 1_545 S
C673 C672 1.390 1_565 S
C673 C674 1.394 . S
C673 C679 1.465 . S
C674 C669 1.399 1_565 S
C674 C673 1.394 . S
C674 C675 1.516 . S
C675 C674 1.516 . S
C675 C676 1.502 . S
C675 C677 1.561 1_565 S
C675 C678 1.526 . S
C676 H660 0.959 . S
C676 H661 0.959 . S
C676 H662 0.961 . S
C676 C675 1.502 . S
C677 H663 0.960 . S
C677 H664 0.961 . S
C677 H665 0.959 . S
C677 C675 1.561 1_545 S
C678 C675 1.526 . S
C678 C679 1.396 . S
C678 C683 1.390 . S
C679 C673 1.465 . S
C679 C678 1.396 . S
C679 C680 1.399 . S
C680 H666 0.929 . S
C680 C679 1.399 . S
C680 C681 1.385 . S
C681 H667 0.931 . S
C681 C680 1.385 . S
C681 C682 1.389 . S
C682 C681 1.389 . S
C682 C683 1.387 . S
C683 H668 0.930 . S
C683 C678 1.390 . S
C683 C682 1.387 . S
H684 C696 0.930 . S
H685 C698 0.930 . S
H686 C699 0.930 . S
H687 C703 0.959 . S
H688 C703 0.959 . S
H689 C703 0.961 . S
H690 C704 0.960 . S
H691 C704 0.961 . S
H692 C704 0.959 . S
H693 C707 0.929 . S
H694 C708 0.931 . S
H695 C710 0.930 . S
C696 H684 0.930 . S
C696 C697 1.399 . S
C696 C701 1.399 . S
C697 C696 1.399 . S
C697 C698 1.376 . S
C698 H685 0.930 . S
C698 C697 1.376 . S
C698 C699 1.388 . S
C699 H686 0.930 . S
C699 C698 1.388 . S
C699 C700 1.390 . S
C700 C699 1.390 . S
C700 C701 1.394 . S
C700 C706 1.465 1_554 S
C701 C696 1.399 . S
C701 C700 1.394 . S
C701 C702 1.516 1_554 S
C702 C701 1.516 1_556 S
C702 C703 1.502 . S
C702 C704 1.561 1_556 S
C702 C705 1.526 . S
C703 H687 0.959 . S
C703 H688 0.959 . S
C703 H689 0.961 . S
C703 C702 1.502 . S
C704 H690 0.960 . S
C704 H691 0.961 . S
C704 H692 0.959 . S
C704 C702 1.561 1_554 S
C705 C702 1.526 . S
C705 C706 1.396 . S
C705 C710 1.390 . S
C706 C700 1.465 1_556 S
C706 C705 1.396 . S
C706 C707 1.399 . S
C707 H693 0.929 . S
C707 C706 1.399 . S
C707 C708 1.385 . S
C708 H694 0.931 . S
C708 C707 1.385 . S
C708 C709 1.389 . S
C709 C708 1.389 . S
C709 C710 1.387 . S
C710 H695 0.930 . S
C710 C705 1.390 . S
C710 C709 1.387 . S
H711 C723 0.930 . S
H712 C725 0.930 . S
H713 C726 0.930 . S
H714 C730 0.966 1_554 S
H715 C730 0.959 . S
H716 C730 0.961 . S
H717 C731 0.960 . S
H718 C731 0.961 . S
H719 C731 0.959 . S
H720 C734 0.929 . S
H721 C735 0.931 . S
H722 C737 0.930 1_554 S
C723 H711 0.930 . S
C723 C724 1.399 . S
C723 C728 1.399 . S
C724 C723 1.399 . S
C724 C725 1.376 . S
C725 H712 0.930 . S
C725 C724 1.376 . S
C725 C726 1.388 . S
C726 H713 0.930 . S
C726 C725 1.388 . S
C726 C727 1.390 . S
C727 C726 1.390 . S
C727 C728 1.394 . S
C727 C733 1.465 . S
C728 C723 1.399 . S
C728 C727 1.394 . S
C728 C729 1.516 1_655 S
C729 C728 1.516 1_455 S
C729 C730 1.502 . S
C729 C731 1.561 . S
C729 C732 1.526 1_455 S
C730 H714 0.966 1_556 S
C730 H715 0.959 . S
C730 H716 0.961 . S
C730 C729 1.502 . S
C731 H717 0.960 . S
C731 H718 0.961 . S
C731 H719 0.959 . S
C731 C729 1.561 . S
C732 C729 1.526 1_655 S
C732 C733 1.396 . S
C732 C737 1.390 1_655 S
C733 C727 1.465 . S
C733 C732 1.396 . S
C733 C734 1.399 . S
C734 H720 0.929 . S
C734 C733 1.399 . S
C734 C735 1.385 . S
C735 H721 0.931 . S
C735 C734 1.385 . S
C735 C736 1.389 1_656 S
C736 C735 1.389 1_454 S
C736 C737 1.387 1_554 S
C737 H722 0.930 1_556 S
C737 C732 1.390 1_455 S
C737 C736 1.387 1_556 S
H738 C750 0.930 . S
H739 C752 0.930 . S
H740 C753 0.930 . S
H741 C757 0.959 . S
H742 C757 0.959 . S
H743 C757 0.961 . S
H744 C758 0.960 . S
H745 C758 0.961 1_554 S
H746 C758 0.959 . S
H747 C761 0.929 . S
H748 C762 0.931 . S
H749 C764 0.930 . S
C750 H738 0.930 . S
C750 C751 1.399 . S
C750 C755 1.399 . S
C751 C750 1.399 . S
C751 C752 1.376 . S
C752 H739 0.930 . S
C752 C751 1.376 . S
C752 C753 1.388 . S
C753 H740 0.930 . S
C753 C752 1.388 . S
C753 C754 1.390 . S
C754 C753 1.390 . S
C754 C755 1.394 . S
C754 C760 1.465 . S
C755 C750 1.399 . S
C755 C754 1.394 . S
C755 C756 1.516 . S
C756 C755 1.516 . S
C756 C757 1.502 1_556 S
C756 C758 1.561 . S
C756 C759 1.526 1_556 S
C757 H741 0.959 . S
C757 H742 0.959 . S
C757 H743 0.961 . S
C757 C756 1.502 1_554 S
C758 H744 0.960 . S
C758 H745 0.961 1_556 S
C758 H746 0.959 . S
C758 C756 1.561 . S
C759 C756 1.526 1_554 S
C759 C760 1.396 1_554 S
C759 C764 1.390 . S
C760 C754 1.465 . S
C760 C759 1.396 1_556 S
C760 C761 1.399 . S
C761 H747 0.929 . S
C761 C760 1.399 . S
C761 C762 1.385 1_556 S
C762 H748 0.931 . S
C762 C761 1.385 1_554 S
C762 C763 1.389 . S
C763 C762 1.389 . S
C763 C764 1.387 . S
C764 H749 0.930 . S
C764 C759 1.390 . S
C764 C763 1.387 . S
H765 C777 0.930 . S
H766 C779 0.930 . S
H767 C780 0.930 . S
H768 C784 0.959 . S
H769 C784 0.959 . S
H770 C784 0.961 . S
H771 C785 0.960 . S
H772 C785 0.961 . S
H773 C785 0.959 . S
H774 C788 0.929 . S
H775 C789 0.931 1_455 S
H776 C791 0.930 . S
C777 H765 0.930 . S
C777 C778 1.399 . S
C777 C782 1.399 . S
C778 C777 1.399 . S
C778 C779 1.376 . S
C779 H766 0.930 . S
C779 C778 1.376 . S
C779 C780 1.388 . S
C780 H767 0.930 . S
C780 C779 1.388 . S
C780 C781 1.390 . S
C781 C780 1.390 . S
C781 C782 1.394 . S
C781 C787 1.465 . S
C782 C777 1.399 . S
C782 C781 1.394 . S
C782 C783 1.516 . S
C783 C782 1.516 . S
C783 C784 1.502 . S
C783 C785 1.561 . S
C783 C786 1.526 . S
C784 H768 0.959 . S
C784 H769 0.959 . S
C784 H770 0.961 . S
C784 C783 1.502 . S
C785 H771 0.960 . S
C785 H772 0.961 . S
C785 H773 0.959 . S
C785 C783 1.561 . S
C786 C783 1.526 . S
C786 C787 1.396 . S
C786 C791 1.390 . S
C787 C781 1.465 . S
C787 C786 1.396 . S
C787 C788 1.399 . S
C788 H774 0.929 . S
C788 C787 1.399 . S
C788 C789 1.385 1_556 S
C789 H775 0.931 1_655 S
C789 C788 1.385 1_554 S
C789 C790 1.389 1_554 S
C790 C789 1.389 1_556 S
C790 C791 1.387 . S
C791 H776 0.930 . S
C791 C786 1.390 . S
C791 C790 1.387 . S
H792 C804 0.930 . S
H793 C806 0.930 . S
H794 C807 0.930 . S
H795 C811 0.959 . S
H796 C811 0.959 . S
H797 C811 0.961 . S
H798 C812 0.960 . S
H799 C812 0.961 . S
H800 C812 0.959 . S
H801 C815 0.929 . S
H802 C816 0.931 . S
H803 C818 0.930 . S
C804 H792 0.930 . S
C804 C805 1.399 1_556 S
C804 C809 1.399 . S
C805 C804 1.399 1_554 S
C805 C806 1.376 . S
C806 H793 0.930 . S
C806 C805 1.376 . S
C806 C807 1.388 . S
C807 H794 0.930 . S
C807 C806 1.388 . S
C807 C808 1.390 1_554 S
C808 C807 1.390 1_556 S
C808 C809 1.394 . S
C808 C814 1.465 . S
C809 C804 1.399 . S
C809 C808 1.394 . S
C809 C810 1.516 . S
C810 C809 1.516 . S
C810 C811 1.502 . S
C810 C812 1.561 . S
C810 C813 1.526 . S
C811 H795 0.959 . S
C811 H796 0.959 . S
C811 H797 0.961 . S
C811 C810 1.502 . S
C812 H798 0.960 . S
C812 H799 0.961 . S
C812 H800 0.959 . S
C812 C810 1.561 . S
C813 C810 1.526 . S
C813 C814 1.396 . S
C813 C818 1.390 . S
C814 C808 1.465 . S
C814 C813 1.396 . S
C814 C815 1.399 . S
C815 H801 0.929 . S
C815 C814 1.399 . S
C815 C816 1.385 . S
C816 H802 0.931 . S
C816 C815 1.385 . S
C816 C817 1.389 . S
C817 C816 1.389 . S
C817 C818 1.387 . S
C818 H803 0.930 . S
C818 C813 1.390 . S
C818 C817 1.387 . S
H819 C831 0.930 . S
H820 C833 0.930 . S
H821 C834 0.930 . S
H822 C838 0.959 . S
H823 C838 0.959 . S
H824 C838 0.961 . S
H825 C839 0.960 . S
H826 C839 0.961 . S
H827 C839 0.959 . S
H828 C842 0.929 1_556 S
H829 C843 0.931 . S
H830 C845 0.930 . S
C831 H819 0.930 . S
C831 C832 1.399 . S
C831 C836 1.399 . S
C832 C831 1.399 . S
C832 C833 1.376 . S
C833 H820 0.930 . S
C833 C832 1.376 . S
C833 C834 1.388 . S
C834 H821 0.930 . S
C834 C833 1.388 . S
C834 C835 1.390 . S
C835 C834 1.390 . S
C835 C836 1.394 . S
C835 C841 1.465 . S
C836 C831 1.399 . S
C836 C835 1.394 . S
C836 C837 1.516 . S
C837 C836 1.516 . S
C837 C838 1.502 1_556 S
C837 C839 1.561 . S
C837 C840 1.526 1_556 S
C838 H822 0.959 . S
C838 H823 0.959 . S
C838 H824 0.961 . S
C838 C837 1.502 1_554 S
C839 H825 0.960 . S
C839 H826 0.961 . S
C839 H827 0.959 . S
C839 C837 1.561 . S
C840 C837 1.526 1_554 S
C840 C841 1.396 1_554 S
C840 C845 1.390 . S
C841 C835 1.465 . S
C841 C840 1.396 1_556 S
C841 C842 1.399 1_556 S
C842 H828 0.929 1_554 S
C842 C841 1.399 1_554 S
C842 C843 1.385 . S
C843 H829 0.931 . S
C843 C842 1.385 . S
C843 C844 1.389 . S
C844 C843 1.389 . S
C844 C845 1.387 . S
C845 H830 0.930 . S
C845 C840 1.390 . S
C845 C844 1.387 . S
H846 C858 0.930 . S
H847 C860 0.930 . S
H848 C861 0.930 . S
H849 C865 0.959 . S
H850 C865 0.959 . S
H851 C865 0.961 . S
H852 C866 0.973 . S
H853 C866 0.948 1_565 S
H854 C866 0.952 1_565 S
H855 C869 0.929 . S
H856 C870 0.931 . S
H857 C872 0.920 1_565 S
C858 H846 0.930 . S
C858 C859 1.399 . S
C858 C863 1.399 . S
C859 C858 1.399 . S
C859 C860 1.376 . S
C860 H847 0.930 . S
C860 C859 1.376 . S
C860 C861 1.388 . S
C861 H848 0.930 . S
C861 C860 1.388 . S
C861 C862 1.390 . S
C862 C861 1.390 . S
C862 C863 1.394 . S
C862 C868 1.465 . S
C863 C858 1.399 . S
C863 C862 1.394 . S
C863 C864 1.516 . S
C864 C863 1.516 . S
C864 C865 1.502 . S
C864 C866 1.569 . S
C864 C867 1.526 . S
C865 H849 0.959 . S
C865 H850 0.959 . S
C865 H851 0.961 . S
C865 C864 1.502 . S
C866 H852 0.973 . S
C866 H853 0.948 1_545 S
C866 H854 0.952 1_545 S
C866 C864 1.569 . S
C867 C864 1.526 . S
C867 C868 1.396 . S
C867 C872 1.419 . S
C868 C862 1.465 . S
C868 C867 1.396 . S
C868 C869 1.399 . S
C869 H855 0.929 . S
C869 C868 1.399 . S
C869 C870 1.385 1_545 S
C870 H856 0.931 . S
C870 C869 1.385 1_565 S
C870 C871 1.389 . S
C871 C870 1.389 . S
C871 C872 1.368 1_565 S
C872 H857 0.920 1_545 S
C872 C867 1.419 . S
C872 C871 1.368 1_545 S
H873 C885 0.930 . S
H874 C887 0.930 . S
H875 C888 0.930 . S
H876 C892 0.959 . S
H877 C892 0.959 1_556 S
H878 C892 0.961 . S
H879 C893 0.960 1_556 S
H880 C893 0.961 1_556 S
H881 C893 0.959 . S
H882 C896 0.929 . S
H883 C897 0.931 . S
H884 C899 0.930 . S
C885 H873 0.930 . S
C885 C886 1.399 . S
C885 C890 1.399 . S
C886 C885 1.399 . S
C886 C887 1.376 . S
C887 H874 0.930 . S
C887 C886 1.376 . S
C887 C888 1.388 . S
C888 H875 0.930 . S
C888 C887 1.388 . S
C888 C889 1.390 . S
C889 C888 1.390 . S
C889 C890 1.394 . S
C889 C895 1.465 . S
C890 C885 1.399 . S
C890 C889 1.394 . S
C890 C891 1.516 . S
C891 C890 1.516 . S
C891 C892 1.502 . S
C891 C893 1.561 . S
C891 C894 1.526 . S
C892 H876 0.959 . S
C892 H877 0.959 1_554 S
C892 H878 0.961 . S
C892 C891 1.502 . S
C893 H879 0.960 1_554 S
C893 H880 0.961 1_554 S
C893 H881 0.959 . S
C893 C891 1.561 . S
C894 C891 1.526 . S
C894 C895 1.396 . S
C894 C899 1.390 . S
C895 C889 1.465 . S
C895 C894 1.396 . S
C895 C896 1.399 . S
C896 H882 0.929 . S
C896 C895 1.399 . S
C896 C897 1.385 . S
C897 H883 0.931 . S
C897 C896 1.385 . S
C897 C898 1.389 . S
C898 C897 1.389 . S
C898 C899 1.387 . S
C899 H884 0.930 . S
C899 C894 1.390 . S
C899 C898 1.387 . S
H900 C912 0.930 . S
H901 C914 0.930 . S
H902 C915 0.930 . S
H903 C919 0.959 . S
H904 C919 0.959 . S
H905 C919 0.961 1_556 S
H906 C920 0.960 . S
H907 C920 0.961 . S
H908 C920 0.959 . S
H909 C923 0.929 . S
H910 C924 0.931 . S
H911 C926 0.930 . S
C912 H900 0.930 . S
C912 C913 1.399 . S
C912 C917 1.399 . S
C913 C912 1.399 . S
C913 C914 1.376 . S
C914 H901 0.930 . S
C914 C913 1.376 . S
C914 C915 1.388 . S
C915 H902 0.930 . S
C915 C914 1.388 . S
C915 C916 1.390 . S
C916 C915 1.390 . S
C916 C917 1.394 . S
C916 C922 1.465 . S
C917 C912 1.399 . S
C917 C916 1.394 . S
C917 C918 1.516 . S
C918 C917 1.516 . S
C918 C919 1.502 . S
C918 C920 1.561 . S
C918 C921 1.526 . S
C919 H903 0.959 . S
C919 H904 0.959 . S
C919 H905 0.961 1_554 S
C919 C918 1.502 . S
C920 H906 0.960 . S
C920 H907 0.961 . S
C920 H908 0.959 . S
C920 C918 1.561 . S
C921 C918 1.526 . S
C921 C922 1.396 . S
C921 C926 1.390 . S
C922 C916 1.465 . S
C922 C921 1.396 . S
C922 C923 1.399 . S
C923 H909 0.929 . S
C923 C922 1.399 . S
C923 C924 1.385 . S
C924 H910 0.931 . S
C924 C923 1.385 . S
C924 C925 1.389 . S
C925 C924 1.389 . S
C925 C926 1.387 . S
C926 H911 0.930 . S
C926 C921 1.390 . S
C926 C925 1.387 . S
H927 C939 0.930 . S
H928 C941 0.930 . S
H929 C942 0.930 . S
H930 C946 0.959 . S
H931 C946 0.959 . S
H932 C946 0.961 . S
H933 C947 0.960 . S
H934 C947 0.961 . S
H935 C947 0.959 . S
H936 C950 0.929 . S
H937 C951 0.931 . S
H938 C953 0.930 . S
C939 H927 0.930 . S
C939 C940 1.399 . S
C939 C944 1.399 . S
C940 C939 1.399 . S
C940 C941 1.376 . S
C941 H928 0.930 . S
C941 C940 1.376 . S
C941 C942 1.388 . S
C942 H929 0.930 . S
C942 C941 1.388 . S
C942 C943 1.390 . S
C943 C942 1.390 . S
C943 C944 1.394 . S
C943 C949 1.465 . S
C944 C939 1.399 . S
C944 C943 1.394 . S
C944 C945 1.516 . S
C945 C944 1.516 . S
C945 C946 1.502 . S
C945 C947 1.561 . S
C945 C948 1.526 . S
C946 H930 0.959 . S
C946 H931 0.959 . S
C946 H932 0.961 . S
C946 C945 1.502 . S
C947 H933 0.960 . S
C947 H934 0.961 . S
C947 H935 0.959 . S
C947 C945 1.561 . S
C948 C945 1.526 . S
C948 C949 1.396 . S
C948 C953 1.390 . S
C949 C943 1.465 . S
C949 C948 1.396 . S
C949 C950 1.399 . S
C950 H936 0.929 . S
C950 C949 1.399 . S
C950 C951 1.385 . S
C951 H937 0.931 . S
C951 C950 1.385 . S
C951 C952 1.389 . S
C952 C951 1.389 . S
C952 C953 1.387 . S
C953 H938 0.930 . S
C953 C948 1.390 . S
C953 C952 1.387 . S
H954 C966 0.930 . S
H955 C968 0.930 . S
H956 C969 0.930 . S
H957 C973 0.959 . S
H958 C973 0.959 . S
H959 C973 0.961 . S
H960 C974 0.960 . S
H961 C974 0.961 . S
H962 C974 0.959 . S
H963 C977 0.929 . S
H964 C978 0.931 . S
H965 C980 0.930 . S
C966 H954 0.930 . S
C966 C967 1.399 . S
C966 C971 1.399 . S
C967 C966 1.399 . S
C967 C968 1.376 . S
C968 H955 0.930 . S
C968 C967 1.376 . S
C968 C969 1.388 . S
C969 H956 0.930 . S
C969 C968 1.388 . S
C969 C970 1.390 . S
C970 C969 1.390 . S
C970 C971 1.394 . S
C970 C976 1.465 1_545 S
C971 C966 1.399 . S
C971 C970 1.394 . S
C971 C972 1.516 . S
C972 C971 1.516 . S
C972 C973 1.502 . S
C972 C974 1.561 . S
C972 C975 1.526 1_545 S
C973 H957 0.959 . S
C973 H958 0.959 . S
C973 H959 0.961 . S
C973 C972 1.502 . S
C974 H960 0.960 . S
C974 H961 0.961 . S
C974 H962 0.959 . S
C974 C972 1.561 . S
C975 C972 1.526 1_565 S
C975 C976 1.396 . S
C975 C980 1.390 . S
C976 C970 1.465 1_565 S
C976 C975 1.396 . S
C976 C977 1.399 . S
C977 H963 0.929 . S
C977 C976 1.399 . S
C977 C978 1.385 . S
C978 H964 0.931 . S
C978 C977 1.385 . S
C978 C979 1.389 . S
C979 C978 1.389 . S
C979 C980 1.387 . S
C980 H965 0.930 . S
C980 C975 1.390 . S
C980 C979 1.387 . S
H981 C993 0.930 . S
H982 C995 0.930 . S
H983 C996 0.930 1_455 S
H984 C1000 0.959 . S
H985 C1000 0.959 . S
H986 C1000 0.961 1_655 S
H987 C1001 0.960 . S
H988 C1001 0.961 . S
H989 C1001 0.959 . S
H990 C1004 0.929 . S
H991 C1005 0.931 . S
H992 C1007 0.930 . S
C993 H981 0.930 . S
C993 C994 1.399 . S
C993 C998 1.399 . S
C994 C993 1.399 . S
C994 C995 1.376 . S
C995 H982 0.930 . S
C995 C994 1.376 . S
C995 C996 1.388 . S
C996 H983 0.930 1_655 S
C996 C995 1.388 . S
C996 C997 1.390 . S
C997 C996 1.390 . S
C997 C998 1.394 . S
C997 C1003 1.465 1_655 S
C998 C993 1.399 . S
C998 C997 1.394 . S
C998 C999 1.516 . S
C999 C998 1.516 . S
C999 C1000 1.502 1_655 S
C999 C1001 1.561 . S
C999 C1002 1.526 1_655 S
C1000 H984 0.959 . S
C1000 H985 0.959 . S
C1000 H986 0.961 1_455 S
C1000 C999 1.502 1_455 S
C1001 H987 0.960 . S
C1001 H988 0.961 . S
C1001 H989 0.959 . S
C1001 C999 1.561 . S
C1002 C999 1.526 1_455 S
C1002 C1003 1.396 . S
C1002 C1007 1.390 . S
C1003 C997 1.465 1_455 S
C1003 C1002 1.396 . S
C1003 C1004 1.399 . S
C1004 H990 0.929 . S
C1004 C1003 1.399 . S
C1004 C1005 1.385 . S
C1005 H991 0.931 . S
C1005 C1004 1.385 . S
C1005 C1006 1.389 . S
C1006 C1005 1.389 . S
C1006 C1007 1.387 . S
C1007 H992 0.930 . S
C1007 C1002 1.390 . S
C1007 C1006 1.387 . S
H1008 C1020 0.930 . S
H1009 C1022 0.930 . S
H1010 C1023 0.930 . S
H1011 C1027 0.959 . S
H1012 C1027 0.959 . S
H1013 C1027 0.961 . S
H1014 C1028 0.960 . S
H1015 C1028 0.961 . S
H1016 C1028 0.959 . S
H1017 C1031 0.929 . S
H1018 C1032 0.931 . S
H1019 C1034 0.930 . S
C1020 H1008 0.930 . S
C1020 C1021 1.399 . S
C1020 C1025 1.399 . S
C1021 C1020 1.399 . S
C1021 C1022 1.376 . S
C1022 H1009 0.930 . S
C1022 C1021 1.376 . S
C1022 C1023 1.388 . S
C1023 H1010 0.930 . S
C1023 C1022 1.388 . S
C1023 C1024 1.390 . S
C1024 C1023 1.390 . S
C1024 C1025 1.394 . S
C1024 C1030 1.465 . S
C1025 C1020 1.399 . S
C1025 C1024 1.394 . S
C1025 C1026 1.516 . S
C1026 C1025 1.516 . S
C1026 C1027 1.502 . S
C1026 C1028 1.561 . S
C1026 C1029 1.526 . S
C1027 H1011 0.959 . S
C1027 H1012 0.959 . S
C1027 H1013 0.961 . S
C1027 C1026 1.502 . S
C1028 H1014 0.960 . S
C1028 H1015 0.961 . S
C1028 H1016 0.959 . S
C1028 C1026 1.561 . S
C1029 C1026 1.526 . S
C1029 C1030 1.396 . S
C1029 C1034 1.390 . S
C1030 C1024 1.465 . S
C1030 C1029 1.396 . S
C1030 C1031 1.399 . S
C1031 H1017 0.929 . S
C1031 C1030 1.399 . S
C1031 C1032 1.385 . S
C1032 H1018 0.931 . S
C1032 C1031 1.385 . S
C1032 C1033 1.389 . S
C1033 C1032 1.389 . S
C1033 C1034 1.387 . S
C1034 H1019 0.930 . S
C1034 C1029 1.390 . S
C1034 C1033 1.387 . S
H1035 C1047 0.930 . S
H1036 C1049 0.930 . S
H1037 C1050 0.930 . S
H1038 C1054 0.959 . S
H1039 C1054 0.959 . S
H1040 C1054 0.961 1_565 S
H1041 C1055 0.960 . S
H1042 C1055 0.961 1_545 S
H1043 C1055 0.959 1_545 S
H1044 C1058 0.929 . S
H1045 C1059 0.931 . S
H1046 C1061 0.930 . S
C1047 H1035 0.930 . S
C1047 C1048 1.399 . S
C1047 C1052 1.399 . S
C1048 C1047 1.399 . S
C1048 C1049 1.376 . S
C1049 H1036 0.930 . S
C1049 C1048 1.376 . S
C1049 C1050 1.388 1_565 S
C1050 H1037 0.930 . S
C1050 C1049 1.388 1_545 S
C1050 C1051 1.390 . S
C1051 C1050 1.390 . S
C1051 C1052 1.394 1_545 S
C1051 C1057 1.465 . S
C1052 C1047 1.399 . S
C1052 C1051 1.394 1_565 S
C1052 C1053 1.516 1_565 S
C1053 C1052 1.516 1_545 S
C1053 C1054 1.502 . S
C1053 C1055 1.561 1_545 S
C1053 C1056 1.526 . S
C1054 H1038 0.959 . S
C1054 H1039 0.959 . S
C1054 H1040 0.961 1_545 S
C1054 C1053 1.502 . S
C1055 H1041 0.960 . S
C1055 H1042 0.961 1_565 S
C1055 H1043 0.959 1_565 S
C1055 C1053 1.561 1_565 S
C1056 C1053 1.526 . S
C1056 C1057 1.396 . S
C1056 C1061 1.390 . S
C1057 C1051 1.465 . S
C1057 C1056 1.396 . S
C1057 C1058 1.399 . S
C1058 H1044 0.929 . S
C1058 C1057 1.399 . S
C1058 C1059 1.385 . S
C1059 H1045 0.931 . S
C1059 C1058 1.385 . S
C1059 C1060 1.389 . S
C1060 C1059 1.389 . S
C1060 C1061 1.387 . S
C1061 H1046 0.930 . S
C1061 C1056 1.390 . S
C1061 C1060 1.387 . S
H1062 C1074 0.930 . S
H1063 C1076 0.930 . S
H1064 C1077 0.930 . S
H1065 C1081 0.959 . S
H1066 C1081 0.959 . S
H1067 C1081 0.961 . S
H1068 C1082 0.960 . S
H1069 C1082 0.961 1_455 S
H1070 C1082 0.959 . S
H1071 C1085 0.929 1_655 S
H1072 C1086 0.931 . S
H1073 C1088 0.930 . S
C1074 H1062 0.930 . S
C1074 C1075 1.399 . S
C1074 C1079 1.399 . S
C1075 C1074 1.399 . S
C1075 C1076 1.376 . S
C1076 H1063 0.930 . S
C1076 C1075 1.376 . S
C1076 C1077 1.388 . S
C1077 H1064 0.930 . S
C1077 C1076 1.388 . S
C1077 C1078 1.390 . S
C1078 C1077 1.390 . S
C1078 C1079 1.394 . S
C1078 C1084 1.465 1_655 S
C1079 C1074 1.399 . S
C1079 C1078 1.394 . S
C1079 C1080 1.516 1_655 S
C1080 C1079 1.516 1_455 S
C1080 C1081 1.502 . S
C1080 C1082 1.561 1_455 S
C1080 C1083 1.526 . S
C1081 H1065 0.959 . S
C1081 H1066 0.959 . S
C1081 H1067 0.961 . S
C1081 C1080 1.502 . S
C1082 H1068 0.960 . S
C1082 H1069 0.961 1_655 S
C1082 H1070 0.959 . S
C1082 C1080 1.561 1_655 S
C1083 C1080 1.526 . S
C1083 C1084 1.396 . S
C1083 C1088 1.390 . S
C1084 C1078 1.465 1_455 S
C1084 C1083 1.396 . S
C1084 C1085 1.399 . S
C1085 H1071 0.929 1_455 S
C1085 C1084 1.399 . S
C1085 C1086 1.385 . S
C1086 H1072 0.931 . S
C1086 C1085 1.385 . S
C1086 C1087 1.389 . S
C1087 C1086 1.389 . S
C1087 C1088 1.387 . S
C1088 H1073 0.930 . S
C1088 C1083 1.390 . S
C1088 C1087 1.387 . S
C373 C10 3.368 . S
C385 C19 3.352 . S
C400 C59 3.432 . S
C412 C50 3.435 . S
C427 C90 3.469 1_556 S
C439 C99 3.474 . S
C454 C139 3.364 . S
C466 C130 3.358 . S
C481 C170 3.439 . S
C493 C179 3.432 1_556 S
C508 C219 3.465 . S
C520 C210 3.478 1_556 S
C535 C247 2.475 . S
C547 C256 2.512 . S
C562 C296 2.781 . S
C574 C287 2.827 . S
C589 C327 1.831 . S
C601 C336 1.939 . S
C616 C202 1.771 . S
C628 C7 1.776 . S
C643 C42 2.766 . S
C655 C122 2.772 . S
C670 C87 1.264 . S
C682 C167 1.220 . S
C697 C82 2.969 . S
C709 C251 3.104 . S
C724 C299 1.146 . S
C736 C2 1.094 . S
C751 C331 1.966 . S
C763 C47 1.805 . S
C778 C330 0.844 . S
C790 C16 0.870 1_556 S
C805 C51 2.202 . S
C817 C250 2.242 . S
C832 C282 2.910 . S
C844 C96 2.712 . S
C859 C91 1.766 . S
C871 C136 1.775 . S
C886 C171 2.749 . S
C898 C11 2.771 . S
C913 C56 1.219 . S
C925 C216 1.250 . S
C940 C339 0.848 . S
C952 C127 0.750 . S
C967 C259 2.257 . S
C979 C162 2.148 . S
C994 C291 2.903 . S
C1006 C207 2.734 . S
C1021 C242 3.107 . S
C1033 C211 2.971 . S
C1048 C131 1.157 . S
C1060 C290 1.179 . S
C1075 C322 1.950 . S
C1087 C176 1.855 . S
