# Generated by pormake.
# Topology mer, (4)-cn, num edge types: 1
# Building blocks:
#     Node 0, Type 0, BuildingBlock: QUQFOY_clean_sbu_1, # of connection points: 4
#     Node 1, Type 0, BuildingBlock: QUQFOY_clean_sbu_1, # of connection points: 4
#     Node 2, Type 0, BuildingBlock: QUQFOY_clean_sbu_1, # of connection points: 4
#     Node 3, Type 0, BuildingBlock: QUQFOY_clean_sbu_1, # of connection points: 4
#     Node 4, Type 0, BuildingBlock: QUQFOY_clean_sbu_1, # of connection points: 4
#     Node 5, Type 0, BuildingBlock: QUQFOY_clean_sbu_1, # of connection points: 4
#     Node 6, Type 0, BuildingBlock: QUQFOY_clean_sbu_1, # of connection points: 4
#     Node 7, Type 0, BuildingBlock: QUQFOY_clean_sbu_1, # of connection points: 4
#     Node 8, Type 0, BuildingBlock: QUQFOY_clean_sbu_1, # of connection points: 4
#     Node 9, Type 0, BuildingBlock: QUQFOY_clean_sbu_1, # of connection points: 4
#     Node 10, Type 0, BuildingBlock: QUQFOY_clean_sbu_1, # of connection points: 4
#     Node 11, Type 0, BuildingBlock: QUQFOY_clean_sbu_1, # of connection points: 4
#     Node 12, Type 0, BuildingBlock: QUQFOY_clean_sbu_1, # of connection points: 4
#     Node 13, Type 0, BuildingBlock: QUQFOY_clean_sbu_1, # of connection points: 4
#     Node 14, Type 0, BuildingBlock: QUQFOY_clean_sbu_1, # of connection points: 4
#     Node 15, Type 0, BuildingBlock: QUQFOY_clean_sbu_1, # of connection points: 4
#     Node 16, Type 0, BuildingBlock: QUQFOY_clean_sbu_1, # of connection points: 4
#     Node 17, Type 0, BuildingBlock: QUQFOY_clean_sbu_1, # of connection points: 4
#     Node 18, Type 0, BuildingBlock: QUQFOY_clean_sbu_1, # of connection points: 4
#     Node 19, Type 0, BuildingBlock: QUQFOY_clean_sbu_1, # of connection points: 4
#     Node 20, Type 0, BuildingBlock: QUQFOY_clean_sbu_1, # of connection points: 4
#     Node 21, Type 0, BuildingBlock: QUQFOY_clean_sbu_1, # of connection points: 4
#     Node 22, Type 0, BuildingBlock: QUQFOY_clean_sbu_1, # of connection points: 4
#     Node 23, Type 0, BuildingBlock: QUQFOY_clean_sbu_1, # of connection points: 4
#     Node 24, Type 0, BuildingBlock: QUQFOY_clean_sbu_1, # of connection points: 4
#     Node 25, Type 0, BuildingBlock: QUQFOY_clean_sbu_1, # of connection points: 4
#     Node 26, Type 0, BuildingBlock: QUQFOY_clean_sbu_1, # of connection points: 4
#     Node 27, Type 0, BuildingBlock: QUQFOY_clean_sbu_1, # of connection points: 4
#     Node 28, Type 0, BuildingBlock: QUQFOY_clean_sbu_1, # of connection points: 4
#     Node 29, Type 0, BuildingBlock: QUQFOY_clean_sbu_1, # of connection points: 4
#     Node 30, Type 0, BuildingBlock: QUQFOY_clean_sbu_1, # of connection points: 4
#     Node 31, Type 0, BuildingBlock: QUQFOY_clean_sbu_1, # of connection points: 4
#     Edge 32, Type (0, 0), BuildingBlock: XUDNAN_clean_linker_2, # of connection points: 2
#     Edge 33, Type (0, 0), BuildingBlock: XUDNAN_clean_linker_2, # of connection points: 2
#     Edge 34, Type (0, 0), BuildingBlock: XUDNAN_clean_linker_2, # of connection points: 2
#     Edge 35, Type (0, 0), BuildingBlock: XUDNAN_clean_linker_2, # of connection points: 2
#     Edge 36, Type (0, 0), BuildingBlock: XUDNAN_clean_linker_2, # of connection points: 2
#     Edge 37, Type (0, 0), BuildingBlock: XUDNAN_clean_linker_2, # of connection points: 2
#     Edge 38, Type (0, 0), BuildingBlock: XUDNAN_clean_linker_2, # of connection points: 2
#     Edge 39, Type (0, 0), BuildingBlock: XUDNAN_clean_linker_2, # of connection points: 2
#     Edge 40, Type (0, 0), BuildingBlock: XUDNAN_clean_linker_2, # of connection points: 2
#     Edge 41, Type (0, 0), BuildingBlock: XUDNAN_clean_linker_2, # of connection points: 2
#     Edge 42, Type (0, 0), BuildingBlock: XUDNAN_clean_linker_2, # of connection points: 2
#     Edge 43, Type (0, 0), BuildingBlock: XUDNAN_clean_linker_2, # of connection points: 2
#     Edge 44, Type (0, 0), BuildingBlock: XUDNAN_clean_linker_2, # of connection points: 2
#     Edge 45, Type (0, 0), BuildingBlock: XUDNAN_clean_linker_2, # of connection points: 2
#     Edge 46, Type (0, 0), BuildingBlock: XUDNAN_clean_linker_2, # of connection points: 2
#     Edge 47, Type (0, 0), BuildingBlock: XUDNAN_clean_linker_2, # of connection points: 2
#     Edge 48, Type (0, 0), BuildingBlock: XUDNAN_clean_linker_2, # of connection points: 2
#     Edge 49, Type (0, 0), BuildingBlock: XUDNAN_clean_linker_2, # of connection points: 2
#     Edge 50, Type (0, 0), BuildingBlock: XUDNAN_clean_linker_2, # of connection points: 2
#     Edge 51, Type (0, 0), BuildingBlock: XUDNAN_clean_linker_2, # of connection points: 2
#     Edge 52, Type (0, 0), BuildingBlock: XUDNAN_clean_linker_2, # of connection points: 2
#     Edge 53, Type (0, 0), BuildingBlock: XUDNAN_clean_linker_2, # of connection points: 2
#     Edge 54, Type (0, 0), BuildingBlock: XUDNAN_clean_linker_2, # of connection points: 2
#     Edge 55, Type (0, 0), BuildingBlock: XUDNAN_clean_linker_2, # of connection points: 2
#     Edge 56, Type (0, 0), BuildingBlock: XUDNAN_clean_linker_2, # of connection points: 2
#     Edge 57, Type (0, 0), BuildingBlock: XUDNAN_clean_linker_2, # of connection points: 2
#     Edge 58, Type (0, 0), BuildingBlock: XUDNAN_clean_linker_2, # of connection points: 2
#     Edge 59, Type (0, 0), BuildingBlock: XUDNAN_clean_linker_2, # of connection points: 2
#     Edge 60, Type (0, 0), BuildingBlock: XUDNAN_clean_linker_2, # of connection points: 2
#     Edge 61, Type (0, 0), BuildingBlock: XUDNAN_clean_linker_2, # of connection points: 2
#     Edge 62, Type (0, 0), BuildingBlock: XUDNAN_clean_linker_2, # of connection points: 2
#     Edge 63, Type (0, 0), BuildingBlock: XUDNAN_clean_linker_2, # of connection points: 2
#     Edge 64, Type (0, 0), BuildingBlock: XUDNAN_clean_linker_2, # of connection points: 2
#     Edge 65, Type (0, 0), BuildingBlock: XUDNAN_clean_linker_2, # of connection points: 2
#     Edge 66, Type (0, 0), BuildingBlock: XUDNAN_clean_linker_2, # of connection points: 2
#     Edge 67, Type (0, 0), BuildingBlock: XUDNAN_clean_linker_2, # of connection points: 2
#     Edge 68, Type (0, 0), BuildingBlock: XUDNAN_clean_linker_2, # of connection points: 2
#     Edge 69, Type (0, 0), BuildingBlock: XUDNAN_clean_linker_2, # of connection points: 2
#     Edge 70, Type (0, 0), BuildingBlock: XUDNAN_clean_linker_2, # of connection points: 2
#     Edge 71, Type (0, 0), BuildingBlock: XUDNAN_clean_linker_2, # of connection points: 2
#     Edge 72, Type (0, 0), BuildingBlock: XUDNAN_clean_linker_2, # of connection points: 2
#     Edge 73, Type (0, 0), BuildingBlock: XUDNAN_clean_linker_2, # of connection points: 2
#     Edge 74, Type (0, 0), BuildingBlock: XUDNAN_clean_linker_2, # of connection points: 2
#     Edge 75, Type (0, 0), BuildingBlock: XUDNAN_clean_linker_2, # of connection points: 2
#     Edge 76, Type (0, 0), BuildingBlock: XUDNAN_clean_linker_2, # of connection points: 2
#     Edge 77, Type (0, 0), BuildingBlock: XUDNAN_clean_linker_2, # of connection points: 2
#     Edge 78, Type (0, 0), BuildingBlock: XUDNAN_clean_linker_2, # of connection points: 2
#     Edge 79, Type (0, 0), BuildingBlock: XUDNAN_clean_linker_2, # of connection points: 2
#     Edge 80, Type (0, 0), BuildingBlock: XUDNAN_clean_linker_2, # of connection points: 2
#     Edge 81, Type (0, 0), BuildingBlock: XUDNAN_clean_linker_2, # of connection points: 2
#     Edge 82, Type (0, 0), BuildingBlock: XUDNAN_clean_linker_2, # of connection points: 2
#     Edge 83, Type (0, 0), BuildingBlock: XUDNAN_clean_linker_2, # of connection points: 2
#     Edge 84, Type (0, 0), BuildingBlock: XUDNAN_clean_linker_2, # of connection points: 2
#     Edge 85, Type (0, 0), BuildingBlock: XUDNAN_clean_linker_2, # of connection points: 2
#     Edge 86, Type (0, 0), BuildingBlock: XUDNAN_clean_linker_2, # of connection points: 2
#     Edge 87, Type (0, 0), BuildingBlock: XUDNAN_clean_linker_2, # of connection points: 2
#     Edge 88, Type (0, 0), BuildingBlock: XUDNAN_clean_linker_2, # of connection points: 2
#     Edge 89, Type (0, 0), BuildingBlock: XUDNAN_clean_linker_2, # of connection points: 2
#     Edge 90, Type (0, 0), BuildingBlock: XUDNAN_clean_linker_2, # of connection points: 2
#     Edge 91, Type (0, 0), BuildingBlock: XUDNAN_clean_linker_2, # of connection points: 2
#     Edge 92, Type (0, 0), BuildingBlock: XUDNAN_clean_linker_2, # of connection points: 2
#     Edge 93, Type (0, 0), BuildingBlock: XUDNAN_clean_linker_2, # of connection points: 2
#     Edge 94, Type (0, 0), BuildingBlock: XUDNAN_clean_linker_2, # of connection points: 2
#     Edge 95, Type (0, 0), BuildingBlock: XUDNAN_clean_linker_2, # of connection points: 2
# Relax obj value: 0.010
# Max RMSD: 0.056
# Mean RMSD: 0.056
data_MOF--net-mer--node1-QUQFOY_clean_sbu_1--edge1-XUDNAN_clean_linker_2
_symmetry_space_group_name_H-M    P1
_symmetry_Int_Tables_number       1
_symmetry_cell_setting            triclinic
loop_
_symmetry_equiv_pos_as_xyz
'x, y, z'
_cell_length_a     67.815164
_cell_length_b     67.790833
_cell_length_c     54.410668
_cell_angle_alpha  89.983998
_cell_angle_beta   90.024382
_cell_angle_gamma 89.97667
loop_
_atom_site_label
_atom_site_type_symbol
_atom_site_fract_x
_atom_site_fract_y
_atom_site_fract_z
_atom_type_partial_charge
O0 O 0.15973 0.27073 0.36668 0.0
Cd1 Cd 0.14457 0.29703 0.37019 0.0
Cd2 Cd 0.11248 0.27156 0.3781 0.0
O3 O 0.13336 0.25168 0.3654 0.0
O4 O 0.16166 0.31793 0.35552 0.0
O5 O 0.13331 0.3086 0.339 0.0
C6 C 0.14899 0.3194 0.33795 0.0
C7 C 0.07929 0.26483 0.36836 0.0
C8 C 0.15195 0.25384 0.36367 0.0
C9 C 0.12665 0.29735 0.42044 0.0
O10 O 0.11629 0.28288 0.41309 0.0
O11 O 0.13801 0.30632 0.40558 0.0
O12 O 0.08938 0.25376 0.38287 0.0
O13 O 0.08809 0.27984 0.35874 0.0
O14 O 0.74342 0.15777 0.36689 0.0
Cd15 Cd 0.7171 0.14266 0.36928 0.0
Cd16 Cd 0.74143 0.11079 0.37917 0.0
O17 O 0.76222 0.13122 0.36753 0.0
O18 O 0.69751 0.15711 0.34854 0.0
O19 O 0.70895 0.12739 0.33936 0.0
C20 C 0.6983 0.14248 0.33336 0.0
C21 C 0.74818 0.07747 0.37015 0.0
C22 C 0.76033 0.1498 0.36516 0.0
C23 C 0.71425 0.12617 0.41977 0.0
O24 O 0.72856 0.1152 0.41326 0.0
O25 O 0.70615 0.1377 0.40429 0.0
O26 O 0.75863 0.08745 0.38544 0.0
O27 O 0.73372 0.0864 0.35946 0.0
O28 O 0.85385 0.74061 0.3706 0.0
Cd29 Cd 0.86793 0.71382 0.37437 0.0
Cd30 Cd 0.90136 0.73669 0.37458 0.0
O31 O 0.88087 0.75823 0.36503 0.0
O32 O 0.85105 0.69277 0.35965 0.0
O33 O 0.87932 0.70257 0.34322 0.0
C34 C 0.86373 0.69164 0.342 0.0
C35 C 0.93336 0.73719 0.35802 0.0
C36 C 0.86213 0.757 0.36585 0.0
C37 C 0.89063 0.71362 0.421 0.0
O38 O 0.90139 0.72631 0.41026 0.0
O39 O 0.8763 0.70564 0.4097 0.0
O40 O 0.92741 0.75039 0.37331 0.0
O41 O 0.92071 0.72416 0.35085 0.0
O42 O 0.26614 0.85406 0.36589 0.0
Cd43 Cd 0.29266 0.86881 0.36953 0.0
Cd44 Cd 0.26726 0.9012 0.37803 0.0
O45 O 0.247 0.88041 0.36598 0.0
O46 O 0.31328 0.85077 0.35607 0.0
O47 O 0.3053 0.8791 0.33845 0.0
C48 C 0.31566 0.86309 0.33828 0.0
C49 C 0.26121 0.93438 0.36769 0.0
C50 C 0.24917 0.86186 0.3637 0.0
C51 C 0.29333 0.88689 0.41991 0.0
O52 O 0.27895 0.89751 0.41285 0.0
O53 O 0.3019 0.87533 0.4049 0.0
O54 O 0.25 0.92476 0.3825 0.0
O55 O 0.27594 0.92511 0.3581 0.0
O56 O 0.15284 0.74754 0.65505 0.0
Cd57 Cd 0.13761 0.72125 0.65267 0.0
Cd58 Cd 0.10609 0.74588 0.642 0.0
O59 O 0.12658 0.76669 0.65334 0.0
O60 O 0.15251 0.70153 0.67281 0.0
O61 O 0.1229 0.71267 0.68288 0.0
C62 C 0.13813 0.70203 0.68834 0.0
C63 C 0.07293 0.75209 0.65231 0.0
C64 C 0.14508 0.76459 0.65618 0.0
C65 C 0.12126 0.7184 0.60182 0.0
O66 O 0.1104 0.73291 0.60791 0.0
O67 O 0.13251 0.7103 0.61763 0.0
O68 O 0.08233 0.76275 0.63665 0.0
O69 O 0.08234 0.7377 0.66251 0.0
O70 O 0.27547 0.1563 0.65741 0.0
Cd71 Cd 0.29941 0.138 0.65251 0.0
Cd72 Cd 0.26989 0.11255 0.64182 0.0
O73 O 0.25121 0.1348 0.6539 0.0
O74 O 0.32123 0.15168 0.67047 0.0
O75 O 0.30856 0.1232 0.68241 0.0
C76 C 0.32036 0.13778 0.68663 0.0
C77 C 0.26937 0.08036 0.65723 0.0
C78 C 0.25718 0.15224 0.65831 0.0
C79 C 0.29777 0.12357 0.60074 0.0
O80 O 0.28159 0.11555 0.60704 0.0
O81 O 0.30833 0.13241 0.61665 0.0
O82 O 0.256 0.08656 0.6422 0.0
O83 O 0.28256 0.09284 0.66449 0.0
O84 O 0.858 0.26132 0.65447 0.0
Cd85 Cd 0.87235 0.28811 0.65178 0.0
Cd86 Cd 0.90467 0.26396 0.64024 0.0
O87 O 0.88454 0.24268 0.65113 0.0
O88 O 0.85659 0.3075 0.67129 0.0
O89 O 0.88661 0.29781 0.68182 0.0
C90 C 0.87098 0.30799 0.68682 0.0
C91 C 0.93802 0.25721 0.64897 0.0
C92 C 0.86609 0.2444 0.65474 0.0
C93 C 0.88855 0.29188 0.60093 0.0
O94 O 0.89995 0.27773 0.60678 0.0
O95 O 0.87688 0.29927 0.61676 0.0
O96 O 0.92813 0.24714 0.63319 0.0
O97 O 0.92898 0.27131 0.66025 0.0
O98 O 0.7363 0.85331 0.65682 0.0
Cd99 Cd 0.71266 0.87204 0.65198 0.0
Cd100 Cd 0.74259 0.89693 0.64142 0.0
O101 O 0.76096 0.87438 0.65348 0.0
O102 O 0.69055 0.85904 0.67017 0.0
O103 O 0.70394 0.8873 0.68168 0.0
C104 C 0.69175 0.87309 0.68609 0.0
C105 C 0.74321 0.92914 0.65666 0.0
C106 C 0.75467 0.85703 0.65774 0.0
C107 C 0.71456 0.88643 0.60028 0.0
O108 O 0.73087 0.89412 0.60665 0.0
O109 O 0.70381 0.87776 0.61613 0.0
O110 O 0.75663 0.92286 0.64175 0.0
O111 O 0.73002 0.91672 0.66401 0.0
O112 O 0.85146 0.73534 0.65248 0.0
Cd113 Cd 0.87016 0.71174 0.64808 0.0
Cd114 Cd 0.8977 0.74278 0.64299 0.0
O115 O 0.87331 0.75951 0.6534 0.0
O116 O 0.8556 0.68853 0.66166 0.0
O117 O 0.88192 0.70138 0.67964 0.0
C118 C 0.86758 0.68882 0.68007 0.0
C119 C 0.92944 0.75149 0.65645 0.0
C120 C 0.8556 0.75349 0.65526 0.0
C121 C 0.89031 0.71528 0.59941 0.0
O122 O 0.89825 0.73073 0.6082 0.0
O123 O 0.87892 0.70469 0.61248 0.0
O124 O 0.91956 0.76242 0.6415 0.0
O125 O 0.92093 0.73587 0.66494 0.0
O126 O 0.26551 0.8573 0.65403 0.0
Cd127 Cd 0.29265 0.87088 0.65024 0.0
Cd128 Cd 0.26921 0.90344 0.64195 0.0
O129 O 0.24725 0.88426 0.65324 0.0
O130 O 0.31252 0.85207 0.66387 0.0
O131 O 0.30576 0.88082 0.68121 0.0
C132 C 0.31544 0.86441 0.6815 0.0
C133 C 0.2698 0.93604 0.65644 0.0
C134 C 0.24877 0.86566 0.65578 0.0
C135 C 0.29402 0.88851 0.5997 0.0
O136 O 0.28011 0.89972 0.60679 0.0
O137 O 0.30217 0.8767 0.61478 0.0
O138 O 0.25677 0.93014 0.64084 0.0
O139 O 0.28226 0.92317 0.66458 0.0
O140 O 0.15835 0.27266 0.65696 0.0
Cd141 Cd 0.13887 0.29569 0.6524 0.0
Cd142 Cd 0.11443 0.26518 0.63995 0.0
O143 O 0.13763 0.24786 0.65236 0.0
O144 O 0.15063 0.31776 0.67186 0.0
O145 O 0.12277 0.30292 0.6821 0.0
C146 C 0.13645 0.31551 0.68742 0.0
C147 C 0.08187 0.25709 0.65034 0.0
C148 C 0.15481 0.25425 0.65729 0.0
C149 C 0.12514 0.29478 0.60029 0.0
O150 O 0.11753 0.27824 0.60591 0.0
O151 O 0.13352 0.30524 0.61669 0.0
O152 O 0.09213 0.24638 0.63554 0.0
O153 O 0.0903 0.27228 0.66007 0.0
O154 O 0.74651 0.15123 0.65462 0.0
Cd155 Cd 0.71875 0.13913 0.65074 0.0
Cd156 Cd 0.74102 0.10638 0.63971 0.0
O157 O 0.76434 0.1243 0.65 0.0
O158 O 0.70185 0.15808 0.66928 0.0
O159 O 0.70512 0.12669 0.67989 0.0
C160 C 0.69795 0.14397 0.6844 0.0
C161 C 0.7404 0.0735 0.65322 0.0
C162 C 0.76319 0.14269 0.65434 0.0
C163 C 0.71513 0.1241 0.59945 0.0
O164 O 0.7283 0.11171 0.60575 0.0
O165 O 0.70819 0.13619 0.61513 0.0
O166 O 0.75251 0.07937 0.63651 0.0
O167 O 0.72875 0.08648 0.66278 0.0
O168 O 0.85519 0.26875 0.36807 0.0
Cd169 Cd 0.87042 0.29497 0.37112 0.0
Cd170 Cd 0.90215 0.27042 0.37981 0.0
O171 O 0.88165 0.24983 0.36786 0.0
O172 O 0.85591 0.31506 0.35124 0.0
O173 O 0.88552 0.30374 0.34137 0.0
C174 C 0.87044 0.3146 0.33591 0.0
C175 C 0.93538 0.26418 0.3699 0.0
C176 C 0.86307 0.25183 0.36578 0.0
C177 C 0.88727 0.29673 0.42146 0.0
O178 O 0.89809 0.28248 0.4144 0.0
O179 O 0.8757 0.30522 0.40638 0.0
O180 O 0.92569 0.25325 0.38495 0.0
O181 O 0.9262 0.27881 0.35992 0.0
O182 O 0.74386 0.85302 0.3671 0.0
Cd183 Cd 0.71727 0.86772 0.37039 0.0
Cd184 Cd 0.74288 0.90019 0.37915 0.0
O185 O 0.76308 0.87931 0.36721 0.0
O186 O 0.6968 0.84938 0.35721 0.0
O187 O 0.7045 0.8776 0.33915 0.0
C188 C 0.69426 0.86153 0.33927 0.0
C189 C 0.74948 0.93342 0.36948 0.0
C190 C 0.76086 0.86075 0.36499 0.0
C191 C 0.71629 0.88591 0.42063 0.0
O192 O 0.73081 0.8964 0.41374 0.0
O193 O 0.70775 0.87441 0.40555 0.0
O194 O 0.76036 0.92348 0.38437 0.0
O195 O 0.73478 0.92444 0.35942 0.0
O196 O 0.15585 0.74183 0.36755 0.0
Cd197 Cd 0.14157 0.71506 0.37147 0.0
Cd198 Cd 0.10962 0.73852 0.37841 0.0
O199 O 0.12902 0.76025 0.36686 0.0
O200 O 0.15896 0.69451 0.3565 0.0
O201 O 0.13016 0.70314 0.34057 0.0
C202 C 0.14608 0.69271 0.3392 0.0
C203 C 0.07738 0.73734 0.36273 0.0
C204 C 0.14766 0.75859 0.36497 0.0
C205 C 0.12372 0.71448 0.4218 0.0
O206 O 0.11276 0.72838 0.41407 0.0
O207 O 0.13554 0.70587 0.40713 0.0
O208 O 0.08283 0.7508 0.37802 0.0
O209 O 0.0905 0.72475 0.3556 0.0
O210 O 0.27085 0.15862 0.36696 0.0
Cd211 Cd 0.2971 0.14341 0.37068 0.0
Cd212 Cd 0.27122 0.11126 0.37874 0.0
O213 O 0.25153 0.13243 0.36625 0.0
O214 O 0.31806 0.16103 0.35722 0.0
O215 O 0.30946 0.13289 0.33957 0.0
C216 C 0.32012 0.14869 0.3394 0.0
C217 C 0.26411 0.07824 0.36858 0.0
C218 C 0.25387 0.15098 0.36421 0.0
C219 C 0.29736 0.12511 0.42088 0.0
O220 O 0.28282 0.11478 0.41366 0.0
O221 O 0.30621 0.13655 0.406 0.0
O222 O 0.25323 0.08828 0.38333 0.0
O223 O 0.27918 0.08697 0.35902 0.0
O224 O 0.65553 0.76962 0.86751 0.0
Cd225 Cd 0.64052 0.79603 0.87137 0.0
Cd226 Cd 0.60931 0.77139 0.87921 0.0
O227 O 0.62945 0.75015 0.86812 0.0
O228 O 0.65768 0.81702 0.85712 0.0
O229 O 0.62903 0.80841 0.8408 0.0
C230 C 0.64474 0.81918 0.83998 0.0
C231 C 0.57678 0.7712 0.86445 0.0
C232 C 0.64798 0.7525 0.86576 0.0
C233 C 0.62302 0.79653 0.92179 0.0
O234 O 0.61237 0.78227 0.91447 0.0
O235 O 0.63456 0.80521 0.90689 0.0
O236 O 0.58298 0.75819 0.8799 0.0
O237 O 0.58935 0.78402 0.85649 0.0
O238 O 0.24022 0.65649 0.87003 0.0
Cd239 Cd 0.21277 0.64378 0.87383 0.0
Cd240 Cd 0.23477 0.609 0.87525 0.0
O241 O 0.25726 0.62881 0.8669 0.0
O242 O 0.1927 0.66263 0.86069 0.0
O243 O 0.19979 0.63419 0.84269 0.0
C244 C 0.18999 0.65055 0.84269 0.0
C245 C 0.23501 0.57711 0.85812 0.0
C246 C 0.25653 0.6476 0.86672 0.0
C247 C 0.21102 0.621 0.92068 0.0
O248 O 0.22314 0.60933 0.91037 0.0
O249 O 0.20427 0.63585 0.90914 0.0
O250 O 0.24773 0.5825 0.87435 0.0
O251 O 0.22255 0.5902 0.85055 0.0
O252 O 0.35214 0.24507 0.86652 0.0
Cd253 Cd 0.36792 0.21915 0.87079 0.0
Cd254 Cd 0.39926 0.24516 0.87894 0.0
O255 O 0.37791 0.26494 0.86711 0.0
O256 O 0.35142 0.19749 0.85684 0.0
O257 O 0.37978 0.20684 0.8404 0.0
C258 C 0.36444 0.19556 0.83975 0.0
C259 C 0.43209 0.25148 0.86736 0.0
C260 C 0.35946 0.26227 0.86452 0.0
C261 C 0.38592 0.21913 0.92122 0.0
O262 O 0.39634 0.23359 0.91396 0.0
O263 O 0.37437 0.21041 0.90636 0.0
O264 O 0.42269 0.26271 0.88238 0.0
O265 O 0.42278 0.23655 0.85831 0.0
O266 O 0.76737 0.3564 0.8652 0.0
Cd267 Cd 0.7943 0.37042 0.86864 0.0
Cd268 Cd 0.76934 0.40355 0.87775 0.0
O269 O 0.74866 0.38306 0.86613 0.0
O270 O 0.81434 0.35142 0.85575 0.0
O271 O 0.80748 0.37971 0.83736 0.0
C272 C 0.81726 0.36336 0.83769 0.0
C273 C 0.76324 0.43677 0.86753 0.0
C274 C 0.7505 0.3645 0.86353 0.0
C275 C 0.79564 0.38859 0.91912 0.0
O276 O 0.78146 0.3996 0.91231 0.0
O277 O 0.80377 0.37685 0.90397 0.0
O278 O 0.75231 0.42721 0.88272 0.0
O279 O 0.77779 0.42744 0.85759 0.0
O280 O 0.6605 0.24304 0.14905 0.0
Cd281 Cd 0.64695 0.21603 0.14487 0.0
Cd282 Cd 0.61285 0.23878 0.14391 0.0
O283 O 0.63322 0.2606 0.1528 0.0
O284 O 0.66453 0.19519 0.15878 0.0
O285 O 0.63603 0.20373 0.17568 0.0
C286 C 0.65191 0.19318 0.17636 0.0
C287 C 0.5808 0.24016 0.16027 0.0
C288 C 0.65198 0.25947 0.15286 0.0
C289 C 0.62423 0.21508 0.09816 0.0
O290 O 0.61291 0.22739 0.1087 0.0
O291 O 0.63897 0.20789 0.10947 0.0
O292 O 0.58692 0.25274 0.14428 0.0
O293 O 0.59329 0.22722 0.16813 0.0
O294 O 0.77219 0.65785 0.14925 0.0
Cd295 Cd 0.79953 0.64485 0.14658 0.0
Cd296 Cd 0.77812 0.61056 0.14261 0.0
O297 O 0.75535 0.63002 0.15105 0.0
O298 O 0.81878 0.6596 0.16759 0.0
O299 O 0.80809 0.62947 0.17612 0.0
C300 C 0.81834 0.64474 0.18247 0.0
C301 C 0.7771 0.57814 0.15801 0.0
C302 C 0.75591 0.64879 0.15181 0.0
C303 C 0.80333 0.62422 0.09892 0.0
O304 O 0.79099 0.61222 0.10819 0.0
O305 O 0.80971 0.63875 0.11138 0.0
O306 O 0.76507 0.58413 0.1413 0.0
O307 O 0.78935 0.59084 0.16691 0.0
O308 O 0.35259 0.76626 0.15172 0.0
Cd309 Cd 0.36814 0.79235 0.14941 0.0
Cd310 Cd 0.39951 0.76737 0.13977 0.0
O311 O 0.37867 0.74684 0.15088 0.0
O312 O 0.35346 0.81233 0.16921 0.0
O313 O 0.38293 0.80092 0.17952 0.0
C314 C 0.36785 0.81183 0.18475 0.0
C315 C 0.43258 0.76019 0.14952 0.0
C316 C 0.36015 0.74915 0.15321 0.0
C317 C 0.38503 0.7949 0.09911 0.0
O318 O 0.39568 0.78037 0.10566 0.0
O319 O 0.37356 0.80316 0.11449 0.0
O320 O 0.4227 0.74989 0.13398 0.0
O321 O 0.42368 0.77474 0.16005 0.0
O322 O 0.24476 0.35533 0.14913 0.0
Cd323 Cd 0.21752 0.36859 0.14616 0.0
Cd324 Cd 0.23922 0.40263 0.14408 0.0
O325 O 0.26184 0.38294 0.15222 0.0
O326 O 0.19775 0.35358 0.16607 0.0
O327 O 0.20851 0.38344 0.17583 0.0
C328 C 0.19795 0.36818 0.18135 0.0
C329 C 0.2396 0.43452 0.16104 0.0
C330 C 0.2611 0.36416 0.15233 0.0
C331 C 0.21452 0.39046 0.09932 0.0
O332 O 0.22692 0.40202 0.10931 0.0
O333 O 0.20783 0.37569 0.11107 0.0
O334 O 0.25204 0.42918 0.14447 0.0
O335 O 0.22736 0.42141 0.169 0.0
O336 O 0.35866 0.24761 0.15392 0.0
Cd337 Cd 0.37319 0.2209 0.15139 0.0
Cd338 Cd 0.4044 0.24436 0.14233 0.0
O339 O 0.38507 0.26656 0.1527 0.0
O340 O 0.35775 0.20129 0.17098 0.0
O341 O 0.38765 0.21145 0.18132 0.0
C342 C 0.37221 0.20105 0.18643 0.0
C343 C 0.43676 0.24336 0.15759 0.0
C344 C 0.36649 0.26462 0.15506 0.0
C345 C 0.38966 0.21837 0.10089 0.0
O346 O 0.40061 0.23262 0.10756 0.0
O347 O 0.3782 0.21015 0.11632 0.0
O348 O 0.43136 0.25628 0.14155 0.0
O349 O 0.42354 0.2313 0.1657 0.0
O350 O 0.76972 0.35558 0.15278 0.0
Cd351 Cd 0.79652 0.36989 0.1493 0.0
Cd352 Cd 0.77265 0.40165 0.14173 0.0
O353 O 0.75087 0.38213 0.1528 0.0
O354 O 0.8169 0.35186 0.16343 0.0
O355 O 0.80896 0.38047 0.18036 0.0
C356 C 0.8192 0.3644 0.181 0.0
C357 C 0.77375 0.43395 0.15707 0.0
C358 C 0.75279 0.36352 0.15481 0.0
C359 C 0.79738 0.38774 0.09897 0.0
O360 O 0.78321 0.3985 0.10632 0.0
O361 O 0.80596 0.37609 0.11387 0.0
O362 O 0.76041 0.42844 0.14166 0.0
O363 O 0.78616 0.42082 0.16465 0.0
O364 O 0.65617 0.76377 0.15328 0.0
Cd365 Cd 0.6404 0.78978 0.15144 0.0
Cd366 Cd 0.60943 0.76463 0.14131 0.0
O367 O 0.63036 0.74403 0.15205 0.0
O368 O 0.65527 0.80969 0.17111 0.0
O369 O 0.62592 0.79824 0.18183 0.0
C370 C 0.64103 0.80917 0.18684 0.0
C371 C 0.57632 0.75798 0.15116 0.0
C372 C 0.64885 0.74654 0.15441 0.0
C373 C 0.62345 0.79273 0.10119 0.0
O374 O 0.61312 0.77789 0.10737 0.0
O375 O 0.63473 0.80099 0.11678 0.0
O376 O 0.58601 0.74747 0.13563 0.0
O377 O 0.5855 0.77233 0.16175 0.0
O378 O 0.23878 0.65781 0.14849 0.0
Cd379 Cd 0.21185 0.64398 0.14577 0.0
Cd380 Cd 0.23415 0.61022 0.14408 0.0
O381 O 0.25623 0.63046 0.15228 0.0
O382 O 0.1919 0.65853 0.16596 0.0
O383 O 0.20352 0.62895 0.17563 0.0
C384 C 0.19269 0.64399 0.18133 0.0
C385 C 0.23587 0.57826 0.1608 0.0
C386 C 0.25521 0.64923 0.15204 0.0
C387 C 0.20936 0.62185 0.09909 0.0
O388 O 0.22191 0.61052 0.10926 0.0
O389 O 0.20234 0.63655 0.11069 0.0
O390 O 0.248 0.58418 0.14417 0.0
O391 O 0.22312 0.59082 0.1689 0.0
O392 O 0.35401 0.76419 0.86683 0.0
Cd393 Cd 0.36844 0.79097 0.86922 0.0
Cd394 Cd 0.39981 0.76754 0.87869 0.0
O395 O 0.38048 0.74528 0.86833 0.0
O396 O 0.35299 0.81047 0.84942 0.0
O397 O 0.38291 0.80027 0.83923 0.0
C398 C 0.36746 0.81065 0.83402 0.0
C399 C 0.43241 0.76833 0.8642 0.0
C400 C 0.3619 0.74718 0.86582 0.0
C401 C 0.38494 0.79401 0.91968 0.0
O402 O 0.3959 0.7797 0.91321 0.0
O403 O 0.37338 0.80203 0.90418 0.0
O404 O 0.42673 0.75553 0.88022 0.0
O405 O 0.4193 0.78032 0.85556 0.0
O406 O 0.23784 0.35346 0.86939 0.0
Cd407 Cd 0.21095 0.36712 0.87421 0.0
Cd408 Cd 0.23357 0.40119 0.87416 0.0
O409 O 0.25525 0.38075 0.86477 0.0
O410 O 0.18983 0.34957 0.86096 0.0
O411 O 0.19807 0.37805 0.84376 0.0
C412 C 0.18749 0.36218 0.84342 0.0
C413 C 0.23417 0.43311 0.85713 0.0
C414 C 0.25417 0.36197 0.865 0.0
C415 C 0.211 0.38995 0.92084 0.0
O416 O 0.22306 0.40126 0.90982 0.0
O417 O 0.20355 0.37521 0.9098 0.0
O418 O 0.24722 0.42731 0.87272 0.0
O419 O 0.22117 0.42039 0.85006 0.0
O420 O 0.65617 0.24569 0.86808 0.0
Cd421 Cd 0.64284 0.21866 0.87224 0.0
Cd422 Cd 0.60837 0.24272 0.87633 0.0
O423 O 0.62922 0.26387 0.86666 0.0
O424 O 0.661 0.19989 0.85542 0.0
O425 O 0.63041 0.20559 0.84282 0.0
C426 C 0.6472 0.19696 0.8395 0.0
C427 C 0.57555 0.2499 0.86521 0.0
C428 C 0.64789 0.26234 0.86533 0.0
C429 C 0.62196 0.21663 0.91995 0.0
O430 O 0.61028 0.22918 0.9104 0.0
O431 O 0.63645 0.20979 0.9078 0.0
O432 O 0.58497 0.26012 0.88126 0.0
O433 O 0.5848 0.23552 0.85481 0.0
O434 O 0.77017 0.66155 0.87052 0.0
Cd435 Cd 0.79682 0.64714 0.87354 0.0
Cd436 Cd 0.77333 0.61309 0.87832 0.0
O437 O 0.75233 0.63434 0.86931 0.0
O438 O 0.81699 0.66092 0.85291 0.0
O439 O 0.80511 0.63127 0.84423 0.0
C440 C 0.81624 0.64599 0.83816 0.0
C441 C 0.7656 0.58042 0.86707 0.0
C442 C 0.75358 0.65306 0.86809 0.0
C443 C 0.80022 0.6261 0.92113 0.0
O444 O 0.78744 0.61446 0.91205 0.0
O445 O 0.80672 0.64061 0.90872 0.0
O446 O 0.75572 0.58987 0.88342 0.0
O447 O 0.77991 0.58957 0.8564 0.0
H448 H 0.25192 0.19154 0.36594 0.0
H449 H 0.21625 0.13937 0.35297 0.0
H450 H 0.18675 0.16033 0.34846 0.0
H451 H 0.21726 0.21655 0.40246 0.0
H452 H 0.22283 0.24076 0.39065 0.0
H453 H 0.24151 0.2219 0.39062 0.0
H454 H 0.24627 0.22651 0.34372 0.0
H455 H 0.22761 0.24545 0.34362 0.0
H456 H 0.2253 0.22445 0.32352 0.0
H457 H 0.16075 0.18658 0.34825 0.0
H458 H 0.14005 0.21629 0.35247 0.0
H459 H 0.19248 0.25153 0.36561 0.0
C460 C 0.23798 0.18452 0.36175 0.0
C461 C 0.23646 0.16377 0.35973 0.0
C462 C 0.21784 0.15521 0.35457 0.0
C463 C 0.20098 0.167 0.35192 0.0
C464 C 0.20294 0.18736 0.3544 0.0
C465 C 0.22096 0.19608 0.35911 0.0
C466 C 0.21883 0.21821 0.36224 0.0
C467 C 0.2255 0.22473 0.38803 0.0
C468 C 0.23018 0.22931 0.34207 0.0
C469 C 0.19675 0.2205 0.35903 0.0
C470 C 0.18789 0.20254 0.35433 0.0
C471 C 0.16754 0.20076 0.3517 0.0
C472 C 0.15589 0.21774 0.35417 0.0
C473 C 0.1646 0.23631 0.3593 0.0
C474 C 0.18535 0.23764 0.36145 0.0
H475 H 0.7627 0.19032 0.36543 0.0
H476 H 0.79827 0.13746 0.35705 0.0
H477 H 0.82815 0.15801 0.35357 0.0
H478 H 0.79115 0.22163 0.32333 0.0
H479 H 0.78827 0.24325 0.34226 0.0
H480 H 0.76947 0.22448 0.34215 0.0
H481 H 0.77245 0.22127 0.38947 0.0
H482 H 0.79126 0.23998 0.38972 0.0
H483 H 0.79618 0.21612 0.40299 0.0
H484 H 0.85441 0.1841 0.35363 0.0
H485 H 0.87515 0.21383 0.35739 0.0
H486 H 0.82253 0.24975 0.36579 0.0
C487 C 0.77672 0.18305 0.36249 0.0
C488 C 0.77808 0.16224 0.36143 0.0
C489 C 0.7968 0.15336 0.35788 0.0
C490 C 0.81387 0.16491 0.35583 0.0
C491 C 0.81203 0.18535 0.3573 0.0
C492 C 0.79393 0.19436 0.36047 0.0
C493 C 0.79612 0.21654 0.36266 0.0
C494 C 0.78563 0.22709 0.34133 0.0
C495 C 0.78856 0.2239 0.3877 0.0
C496 C 0.81831 0.21856 0.36067 0.0
C497 C 0.82719 0.2004 0.35739 0.0
C498 C 0.84761 0.19842 0.35598 0.0
C499 C 0.85927 0.21542 0.35817 0.0
C500 C 0.85051 0.23418 0.36182 0.0
C501 C 0.82972 0.23569 0.3628 0.0
H502 H 0.82171 0.75997 0.36751 0.0
H503 H 0.87472 0.7947 0.35613 0.0
H504 H 0.85439 0.82476 0.35221 0.0
H505 H 0.79015 0.78754 0.32508 0.0
H506 H 0.76876 0.78535 0.34453 0.0
H507 H 0.7874 0.76639 0.34489 0.0
H508 H 0.79124 0.77064 0.39198 0.0
H509 H 0.77265 0.78959 0.39177 0.0
H510 H 0.7967 0.79469 0.40436 0.0
H511 H 0.82842 0.85135 0.35204 0.0
H512 H 0.79883 0.87239 0.35545 0.0
H513 H 0.76276 0.82023 0.36658 0.0
C514 C 0.82907 0.77384 0.36391 0.0
C515 C 0.84986 0.77492 0.36209 0.0
C516 C 0.85885 0.79344 0.35755 0.0
C517 C 0.84741 0.81062 0.35526 0.0
C518 C 0.827 0.80904 0.35743 0.0
C519 C 0.8179 0.79112 0.36155 0.0
C520 C 0.79577 0.79353 0.36407 0.0
C521 C 0.78488 0.78255 0.34341 0.0
C522 C 0.78868 0.78671 0.38956 0.0
C523 C 0.79387 0.81568 0.36116 0.0
C524 C 0.81203 0.82434 0.35721 0.0
C525 C 0.8141 0.84471 0.35491 0.0
C526 C 0.79718 0.85654 0.35691 0.0
C527 C 0.77841 0.848 0.36119 0.0
C528 C 0.77682 0.82725 0.36306 0.0
H529 H 0.18814 0.76122 0.365 0.0
H530 H 0.13508 0.79641 0.35618 0.0
H531 H 0.15547 0.82638 0.35205 0.0
H532 H 0.21388 0.79521 0.4018 0.0
H533 H 0.23772 0.79024 0.38851 0.0
H534 H 0.21909 0.77135 0.38868 0.0
H535 H 0.22214 0.76787 0.34141 0.0
H536 H 0.24083 0.78676 0.34109 0.0
H537 H 0.21914 0.78934 0.32221 0.0
H538 H 0.18148 0.8528 0.3516 0.0
H539 H 0.21113 0.87371 0.35502 0.0
H540 H 0.24726 0.8213 0.3641 0.0
C541 C 0.18078 0.77517 0.36183 0.0
C542 C 0.15996 0.7764 0.36084 0.0
C543 C 0.15098 0.79503 0.35697 0.0
C544 C 0.16244 0.81216 0.35455 0.0
C545 C 0.18289 0.81044 0.35596 0.0
C546 C 0.19199 0.79241 0.35943 0.0
C547 C 0.21417 0.79471 0.36148 0.0
C548 C 0.22164 0.78745 0.38661 0.0
C549 C 0.22469 0.78404 0.34028 0.0
C550 C 0.21609 0.8169 0.35908 0.0
C551 C 0.19789 0.82567 0.35572 0.0
C552 C 0.19583 0.84608 0.354 0.0
C553 C 0.21278 0.85784 0.356 0.0
C554 C 0.23159 0.84919 0.35975 0.0
C555 C 0.23317 0.8284 0.36101 0.0
H556 H 0.18561 0.76635 0.65722 0.0
H557 H 0.13318 0.80289 0.66269 0.0
H558 H 0.15411 0.83254 0.66594 0.0
H559 H 0.21641 0.79518 0.69949 0.0
H560 H 0.23839 0.79157 0.68141 0.0
H561 H 0.21932 0.77307 0.68144 0.0
H562 H 0.2172 0.77513 0.63396 0.0
H563 H 0.23621 0.79364 0.63378 0.0
H564 H 0.21273 0.79866 0.61954 0.0
H565 H 0.18064 0.85843 0.66593 0.0
H566 H 0.21081 0.87861 0.66253 0.0
H567 H 0.24594 0.8252 0.65704 0.0
C568 C 0.1785 0.78054 0.65947 0.0
C569 C 0.15771 0.78224 0.65977 0.0
C570 C 0.14905 0.80116 0.66244 0.0
C571 C 0.16082 0.81811 0.66435 0.0
C572 C 0.18124 0.81593 0.66364 0.0
C573 C 0.19002 0.79762 0.66134 0.0
C574 C 0.21227 0.79942 0.65985 0.0
C575 C 0.22218 0.7892 0.68186 0.0
C576 C 0.22005 0.79123 0.63532 0.0
C577 C 0.2146 0.82162 0.66123 0.0
C578 C 0.19654 0.83086 0.66359 0.0
C579 C 0.19489 0.85135 0.6643 0.0
C580 C 0.21212 0.86269 0.66232 0.0
C581 C 0.2308 0.85354 0.65959 0.0
C582 C 0.23195 0.83269 0.65932 0.0
H583 H 0.21745 0.15444 0.64717 0.0
H584 H 0.2653 0.18663 0.68185 0.0
H585 H 0.24326 0.21498 0.68838 0.0
H586 H 0.19823 0.19474 0.61452 0.0
H587 H 0.17266 0.18809 0.61802 0.0
H588 H 0.19136 0.16925 0.61849 0.0
H589 H 0.17894 0.15732 0.66097 0.0
H590 H 0.16011 0.1761 0.6606 0.0
H591 H 0.17713 0.17465 0.68599 0.0
H592 H 0.21758 0.2408 0.68785 0.0
H593 H 0.18928 0.2628 0.68063 0.0
H594 H 0.15737 0.21453 0.6464 0.0
C595 C 0.22312 0.1673 0.65662 0.0
C596 C 0.24309 0.16828 0.66408 0.0
C597 C 0.25009 0.18553 0.67593 0.0
C598 C 0.23766 0.2017 0.67983 0.0
C599 C 0.21822 0.20046 0.6718 0.0
C600 C 0.21089 0.18373 0.66053 0.0
C601 C 0.18975 0.18692 0.65218 0.0
C602 C 0.18791 0.18462 0.62414 0.0
C603 C 0.17565 0.17291 0.66575 0.0
C604 C 0.18658 0.20817 0.66005 0.0
C605 C 0.20319 0.21558 0.6715 0.0
C606 C 0.20438 0.23512 0.67919 0.0
C607 C 0.18824 0.24753 0.67491 0.0
C608 C 0.17107 0.24039 0.66304 0.0
C609 C 0.17018 0.22034 0.65583 0.0
H610 H 0.76605 0.18286 0.65923 0.0
H611 H 0.80151 0.12955 0.65664 0.0
H612 H 0.83177 0.14975 0.6594 0.0
H613 H 0.79661 0.21152 0.62147 0.0
H614 H 0.79287 0.23418 0.63816 0.0
H615 H 0.77404 0.21548 0.63827 0.0
H616 H 0.77468 0.21482 0.68589 0.0
H617 H 0.7935 0.23358 0.68593 0.0
H618 H 0.79768 0.21055 0.70165 0.0
H619 H 0.85818 0.17595 0.65967 0.0
H620 H 0.87865 0.20596 0.65714 0.0
H621 H 0.82576 0.24207 0.65931 0.0
C622 C 0.78014 0.17535 0.65963 0.0
C623 C 0.78136 0.15457 0.65781 0.0
C624 C 0.80016 0.14543 0.65809 0.0
C625 C 0.81744 0.15678 0.65969 0.0
C626 C 0.81568 0.17724 0.66107 0.0
C627 C 0.79749 0.18644 0.66114 0.0
C628 C 0.79962 0.20868 0.66147 0.0
C629 C 0.79023 0.218 0.63847 0.0
C630 C 0.79085 0.21742 0.68515 0.0
C631 C 0.82185 0.2106 0.66111 0.0
C632 C 0.83086 0.19231 0.6611 0.0
C633 C 0.85129 0.19035 0.65989 0.0
C634 C 0.86279 0.20751 0.65843 0.0
C635 C 0.85386 0.22644 0.65808 0.0
C636 C 0.8331 0.22788 0.65972 0.0
H637 H 0.85393 0.79356 0.64603 0.0
H638 H 0.82047 0.7448 0.67662 0.0
H639 H 0.79236 0.76702 0.68394 0.0
H640 H 0.83391 0.83255 0.68664 0.0
H641 H 0.83297 0.85061 0.66235 0.0
H642 H 0.85143 0.83147 0.66177 0.0
H643 H 0.83969 0.82094 0.61841 0.0
H644 H 0.82122 0.84001 0.61886 0.0
H645 H 0.81412 0.81473 0.61365 0.0
H646 H 0.76721 0.79324 0.68529 0.0
H647 H 0.74573 0.8221 0.67957 0.0
H648 H 0.79461 0.85456 0.64759 0.0
C649 C 0.84081 0.78769 0.65469 0.0
C650 C 0.83942 0.76745 0.66087 0.0
C651 C 0.82186 0.76022 0.6717 0.0
C652 C 0.80584 0.77275 0.67605 0.0
C653 C 0.80753 0.7925 0.66942 0.0
C654 C 0.8245 0.80001 0.65894 0.0
C655 C 0.82175 0.82153 0.65191 0.0
C656 C 0.83585 0.83483 0.66655 0.0
C657 C 0.82435 0.82446 0.62406 0.0
C658 C 0.80048 0.82476 0.65968 0.0
C659 C 0.79271 0.80782 0.66996 0.0
C660 C 0.77314 0.80667 0.67748 0.0
C661 C 0.76104 0.82315 0.67406 0.0
C662 C 0.76847 0.84063 0.66318 0.0
C663 C 0.78857 0.84151 0.65627 0.0
H664 H 0.68853 0.75138 0.86615 0.0
H665 H 0.6369 0.71402 0.85837 0.0
H666 H 0.65844 0.68473 0.85585 0.0
H667 H 0.72088 0.72329 0.82504 0.0
H668 H 0.74232 0.72721 0.84401 0.0
H669 H 0.72292 0.74537 0.84334 0.0
H670 H 0.71968 0.74303 0.8907 0.0
H671 H 0.739 0.72483 0.89152 0.0
H672 H 0.71527 0.71937 0.90478 0.0
H673 H 0.68547 0.65929 0.85665 0.0
H674 H 0.71592 0.63963 0.86055 0.0
H675 H 0.74997 0.69355 0.86801 0.0
C676 C 0.68172 0.73709 0.86354 0.0
C677 C 0.66097 0.73506 0.86236 0.0
C678 C 0.65273 0.71601 0.85926 0.0
C679 C 0.66485 0.69926 0.85778 0.0
C680 C 0.68521 0.70177 0.85938 0.0
C681 C 0.6936 0.72021 0.8621 0.0
C682 C 0.71583 0.71879 0.86446 0.0
C683 C 0.72609 0.72929 0.84293 0.0
C684 C 0.72285 0.72699 0.88934 0.0
C685 C 0.71862 0.69664 0.86304 0.0
C686 C 0.70078 0.68711 0.85994 0.0
C687 C 0.69953 0.66661 0.85888 0.0
C688 C 0.71694 0.65556 0.86116 0.0
C689 C 0.73541 0.665 0.86454 0.0
C690 C 0.73615 0.68585 0.86529 0.0
H691 H 0.26034 0.68793 0.86568 0.0
H692 H 0.29439 0.6338 0.86103 0.0
H693 H 0.32504 0.65337 0.85814 0.0
H694 H 0.2905 0.7168 0.82336 0.0
H695 H 0.28776 0.73915 0.84096 0.0
H696 H 0.26849 0.72086 0.84123 0.0
H697 H 0.27035 0.71929 0.88877 0.0
H698 H 0.28962 0.73754 0.88865 0.0
H699 H 0.29364 0.71407 0.9034 0.0
H700 H 0.35222 0.67902 0.85811 0.0
H701 H 0.37352 0.70854 0.86059 0.0
H702 H 0.32145 0.74567 0.8649 0.0
C703 C 0.27419 0.68013 0.86379 0.0
C704 C 0.27489 0.65928 0.86355 0.0
C705 C 0.29342 0.64974 0.8612 0.0
C706 C 0.31092 0.66074 0.85953 0.0
C707 C 0.30969 0.68127 0.86011 0.0
C708 C 0.29178 0.69086 0.86208 0.0
C709 C 0.29447 0.71302 0.8631 0.0
C710 C 0.28473 0.72304 0.84083 0.0
C711 C 0.28656 0.72147 0.88743 0.0
C712 C 0.31673 0.71442 0.86179 0.0
C713 C 0.32526 0.69597 0.85996 0.0
C714 C 0.34568 0.69355 0.85934 0.0
C715 C 0.35766 0.71042 0.86078 0.0
C716 C 0.34921 0.72948 0.86284 0.0
C717 C 0.32844 0.73138 0.86312 0.0
H718 H 0.31888 0.26346 0.86608 0.0
H719 H 0.37037 0.30035 0.85443 0.0
H720 H 0.34886 0.32956 0.85074 0.0
H721 H 0.28563 0.29013 0.82438 0.0
H722 H 0.26463 0.28703 0.8443 0.0
H723 H 0.28395 0.26878 0.84402 0.0
H724 H 0.28831 0.27286 0.89106 0.0
H725 H 0.26907 0.29115 0.89148 0.0
H726 H 0.29311 0.29702 0.90356 0.0
H727 H 0.32193 0.35512 0.85085 0.0
H728 H 0.29163 0.37505 0.8549 0.0
H729 H 0.25771 0.32155 0.86676 0.0
C730 C 0.32564 0.27761 0.86235 0.0
C731 C 0.34636 0.27954 0.86044 0.0
C732 C 0.35456 0.29843 0.85592 0.0
C733 C 0.34245 0.31514 0.85375 0.0
C734 C 0.32214 0.31276 0.85611 0.0
C735 C 0.31378 0.29447 0.86024 0.0
C736 C 0.29161 0.29608 0.8633 0.0
C737 C 0.28082 0.28484 0.84277 0.0
C738 C 0.28516 0.28886 0.88887 0.0
C739 C 0.28887 0.31817 0.86066 0.0
C740 C 0.30663 0.32751 0.85633 0.0
C741 C 0.3079 0.34795 0.85404 0.0
C742 C 0.29059 0.35915 0.85639 0.0
C743 C 0.27222 0.34993 0.8611 0.0
C744 C 0.27145 0.32911 0.86302 0.0
H745 H 0.68832 0.26468 0.86437 0.0
H746 H 0.63543 0.30049 0.85815 0.0
H747 H 0.65605 0.33035 0.85424 0.0
H748 H 0.71519 0.29776 0.90126 0.0
H749 H 0.73866 0.29272 0.88704 0.0
H750 H 0.7198 0.27405 0.88739 0.0
H751 H 0.72178 0.27129 0.83995 0.0
H752 H 0.74069 0.28996 0.83945 0.0
H753 H 0.71862 0.2931 0.82139 0.0
H754 H 0.68243 0.35654 0.8536 0.0
H755 H 0.71243 0.377 0.85646 0.0
H756 H 0.74804 0.32399 0.86302 0.0
C757 C 0.68102 0.27875 0.86187 0.0
C758 C 0.6602 0.28018 0.8615 0.0
C759 C 0.65132 0.29896 0.85843 0.0
C760 C 0.66292 0.31602 0.85615 0.0
C761 C 0.68338 0.31408 0.85689 0.0
C762 C 0.69235 0.29591 0.8596 0.0
C763 C 0.71458 0.29791 0.86094 0.0
C764 C 0.72251 0.29016 0.88563 0.0
C765 C 0.7245 0.28745 0.83913 0.0
C766 C 0.71671 0.32009 0.85902 0.0
C767 C 0.69856 0.32914 0.85652 0.0
C768 C 0.69674 0.34959 0.85534 0.0
C769 C 0.71389 0.3611 0.85701 0.0
C770 C 0.73266 0.35215 0.85989 0.0
C771 C 0.73399 0.33133 0.8606 0.0
H772 H 0.69238 0.26264 0.15288 0.0
H773 H 0.63888 0.29731 0.1607 0.0
H774 H 0.65894 0.32756 0.16451 0.0
H775 H 0.72253 0.2912 0.19572 0.0
H776 H 0.74448 0.28869 0.17731 0.0
H777 H 0.72594 0.26966 0.17676 0.0
H778 H 0.72342 0.2729 0.1294 0.0
H779 H 0.74192 0.29193 0.1298 0.0
H780 H 0.71822 0.29667 0.11599 0.0
H781 H 0.68486 0.35432 0.16501 0.0
H782 H 0.71451 0.37536 0.16226 0.0
H783 H 0.75094 0.32304 0.15441 0.0
C784 C 0.68483 0.27654 0.15567 0.0
C785 C 0.66401 0.27754 0.15653 0.0
C786 C 0.6548 0.29611 0.16003 0.0
C787 C 0.66607 0.31339 0.16225 0.0
C788 C 0.68655 0.31188 0.16104 0.0
C789 C 0.69584 0.29391 0.15793 0.0
C790 C 0.71801 0.29636 0.15632 0.0
C791 C 0.72834 0.28586 0.17781 0.0
C792 C 0.72584 0.28904 0.13139 0.0
C793 C 0.71973 0.31855 0.15857 0.0
C794 C 0.70144 0.32724 0.16143 0.0
C795 C 0.69927 0.34765 0.163 0.0
C796 C 0.71622 0.35949 0.16139 0.0
C797 C 0.73511 0.3509 0.15822 0.0
C798 C 0.73678 0.33012 0.15706 0.0
H799 H 0.75154 0.68909 0.15279 0.0
H800 H 0.71833 0.63447 0.15775 0.0
H801 H 0.68745 0.65358 0.16124 0.0
H802 H 0.72141 0.71741 0.19569 0.0
H803 H 0.72356 0.73986 0.17815 0.0
H804 H 0.74313 0.72188 0.17743 0.0
H805 H 0.74073 0.7204 0.12993 0.0
H806 H 0.72117 0.73835 0.13049 0.0
H807 H 0.71736 0.71486 0.11572 0.0
H808 H 0.66 0.67868 0.16205 0.0
H809 H 0.63813 0.70776 0.16002 0.0
H810 H 0.68939 0.74592 0.15474 0.0
C811 C 0.73782 0.6811 0.15485 0.0
C812 C 0.73742 0.66023 0.15504 0.0
C813 C 0.71907 0.65042 0.15761 0.0
C814 C 0.70143 0.66116 0.15963 0.0
C815 C 0.70237 0.68169 0.15916 0.0
C816 C 0.7201 0.69156 0.1569 0.0
C817 C 0.71703 0.71369 0.15602 0.0
C818 C 0.72687 0.7238 0.17814 0.0
C819 C 0.72451 0.72233 0.13159 0.0
C820 C 0.69476 0.71473 0.15775 0.0
C821 C 0.68659 0.69613 0.15969 0.0
C822 C 0.66625 0.69333 0.16072 0.0
C823 C 0.65395 0.70996 0.15954 0.0
C824 C 0.662 0.72918 0.1573 0.0
C825 C 0.68272 0.73149 0.15665 0.0
H826 H 0.25868 0.68962 0.15125 0.0
H827 H 0.29295 0.63591 0.15975 0.0
H828 H 0.32333 0.65576 0.16324 0.0
H829 H 0.29302 0.71502 0.11404 0.0
H830 H 0.28844 0.73884 0.1276 0.0
H831 H 0.26928 0.72049 0.12729 0.0
H832 H 0.26595 0.72331 0.17461 0.0
H833 H 0.28513 0.7417 0.17507 0.0
H834 H 0.28741 0.71982 0.1937 0.0
H835 H 0.3502 0.68138 0.1636 0.0
H836 H 0.37151 0.7108 0.16084 0.0
H837 H 0.31963 0.74777 0.15241 0.0
C838 C 0.27253 0.682 0.15409 0.0
C839 C 0.27337 0.66117 0.15526 0.0
C840 C 0.29187 0.65183 0.15883 0.0
C841 C 0.30923 0.66299 0.16087 0.0
C842 C 0.30786 0.68347 0.15941 0.0
C843 C 0.28998 0.69289 0.15618 0.0
C844 C 0.29261 0.71504 0.15436 0.0
C845 C 0.28542 0.7228 0.12934 0.0
C846 C 0.28215 0.72559 0.17571 0.0
C847 C 0.31481 0.71659 0.1567 0.0
C848 C 0.32333 0.69822 0.15972 0.0
C849 C 0.34369 0.69585 0.16144 0.0
C850 C 0.35567 0.71267 0.15982 0.0
C851 C 0.34728 0.73165 0.1565 0.0
C852 C 0.32654 0.73354 0.15518 0.0
H853 H 0.26491 0.32383 0.15329 0.0
H854 H 0.29891 0.37795 0.15827 0.0
H855 H 0.32953 0.35838 0.1617 0.0
H856 H 0.29459 0.29511 0.1962 0.0
H857 H 0.29207 0.27269 0.17869 0.0
H858 H 0.2728 0.29098 0.17793 0.0
H859 H 0.27522 0.29238 0.13042 0.0
H860 H 0.29448 0.27412 0.13103 0.0
H861 H 0.29867 0.29754 0.11622 0.0
H862 H 0.35668 0.33276 0.16243 0.0
H863 H 0.37803 0.30325 0.16048 0.0
H864 H 0.32605 0.26608 0.1554 0.0
C865 C 0.27875 0.33162 0.15533 0.0
C866 C 0.27945 0.35247 0.15554 0.0
C867 C 0.29794 0.36201 0.15811 0.0
C868 C 0.31543 0.35101 0.1601 0.0
C869 C 0.3142 0.33049 0.1596 0.0
C870 C 0.29632 0.3209 0.15736 0.0
C871 C 0.29903 0.29873 0.15652 0.0
C872 C 0.28903 0.2888 0.17866 0.0
C873 C 0.2914 0.2902 0.1321 0.0
C874 C 0.32127 0.29734 0.15827 0.0
C875 C 0.32977 0.3158 0.16015 0.0
C876 C 0.35017 0.31823 0.16116 0.0
C877 C 0.36218 0.30137 0.16003 0.0
C878 C 0.35376 0.2823 0.15789 0.0
C879 C 0.333 0.28039 0.15725 0.0
H880 H 0.96458 0.29011 0.35534 0.0
H881 H 0.95389 0.22895 0.37472 0.0
H882 H 0.98942 0.22198 0.37151 0.0
H883 H 0.00684 0.28091 0.31256 0.0
H884 H 0.02004 0.30243 0.32294 0.0
H885 H 0.99346 0.30223 0.32323 0.0
H886 H 0.99372 0.31092 0.36958 0.0
H887 H 0.02025 0.31108 0.36945 0.0
H888 H 0.00717 0.29541 0.39066 0.0
H889 H 0.02572 0.22212 0.37097 0.0
H890 H 0.06122 0.2294 0.37336 0.0
H891 H 0.04962 0.29051 0.35444 0.0
C892 C 0.96972 0.27516 0.35822 0.0
C893 C 0.95646 0.26001 0.36507 0.0
C894 C 0.96376 0.24075 0.36938 0.0
C895 C 0.98392 0.23663 0.36751 0.0
C896 C 0.99668 0.25192 0.36132 0.0
C897 C 0.98995 0.27081 0.35666 0.0
C898 C 0.00712 0.28484 0.35256 0.0
C899 C 0.00685 0.29309 0.32625 0.0
C900 C 0.00705 0.30154 0.37171 0.0
C901 C 0.02447 0.27097 0.35637 0.0
C902 C 0.01801 0.25201 0.3611 0.0
C903 C 0.03101 0.23682 0.36691 0.0
C904 C 0.05116 0.24113 0.3683 0.0
C905 C 0.0582 0.26046 0.3639 0.0
C906 C 0.04469 0.2755 0.3574 0.0
H907 H 0.72301 0.04782 0.35486 0.0
H908 H 0.78345 0.05941 0.37673 0.0
H909 H 0.79095 0.02395 0.37412 0.0
H910 H 0.71734 1.00523 0.39028 0.0
H911 H 0.70242 0.99188 0.36849 0.0
H912 H 0.70223 0.01842 0.3685 0.0
H913 H 0.71213 0.01866 0.32253 0.0
H914 H 0.7123 0.99206 0.32236 0.0
H915 H 0.7339 1.00553 0.31282 0.0
H916 H 0.79133 0.98762 0.37374 0.0
H917 H 0.7845 0.95201 0.37591 0.0
H918 H 0.72379 0.96273 0.35442 0.0
C919 C 0.73793 0.04289 0.35844 0.0
C920 C 0.75271 0.05639 0.3658 0.0
C921 C 0.77192 0.04935 0.371 0.0
C922 C 0.77635 0.02923 0.36947 0.0
C923 C 0.76141 0.01624 0.36274 0.0
C924 C 0.74258 0.0227 0.35724 0.0
C925 C 0.72891 1.00531 0.35263 0.0
C926 C 0.71171 1.00521 0.37108 0.0
C927 C 0.72137 1.0054 0.326 0.0
C928 C 0.7429 0.98816 0.35711 0.0
C929 C 0.76162 0.99491 0.36262 0.0
C930 C 0.77682 0.98212 0.36908 0.0
C931 C 0.77277 0.96191 0.37034 0.0
C932 C 0.75367 0.95458 0.36515 0.0
C933 C 0.73863 0.96788 0.35801 0.0
H934 H 0.0468 0.76111 0.37664 0.0
H935 H 0.06048 0.70998 0.33182 0.0
H936 H 0.025 0.70611 0.32214 0.0
H937 H 1.00426 0.74203 0.40334 0.0
H938 H 0.99106 0.76511 0.40382 0.0
H939 H 0.01756 0.76502 0.40481 0.0
H940 H 0.01866 0.78763 0.3664 0.0
H941 H 0.9921 0.7878 0.36531 0.0
H942 H 0.00604 0.78018 0.33876 0.0
H943 H 0.98737 0.70623 0.32061 0.0
H944 H 0.95151 0.71016 0.3277 0.0
H945 H 0.96316 0.76133 0.37333 0.0
C946 C 0.04244 0.7493 0.3644 0.0
C947 C 0.05647 0.7359 0.35489 0.0
C948 C 0.05003 0.7205 0.33922 0.0
C949 C 0.0299 0.71821 0.3336 0.0
C950 C 0.01642 0.7315 0.34367 0.0
C951 C 0.02249 0.74681 0.35865 0.0
C952 C 1.00511 0.75836 0.36851 0.0
C953 C 1.00447 0.75756 0.39679 0.0
C954 C 1.0055 0.77976 0.35918 0.0
C955 C 0.98823 0.74693 0.35723 0.0
C956 C 0.99497 0.73158 0.34277 0.0
C957 C 0.98196 0.71837 0.33163 0.0
C958 C 0.9616 0.72072 0.33574 0.0
C959 C 0.95447 0.73613 0.35093 0.0
C960 C 0.96805 0.74954 0.36137 0.0
H961 H 0.28765 0.96331 0.3538 0.0
H962 H 0.22617 0.95333 0.372 0.0
H963 H 0.21977 0.98901 0.36925 0.0
H964 H 0.29327 1.00532 0.38987 0.0
H965 H 0.30934 0.01844 0.36915 0.0
H966 H 0.30876 0.99191 0.36874 0.0
H967 H 0.30048 0.99239 0.32227 0.0
H968 H 0.30111 0.01898 0.32251 0.0
H969 H 0.27948 0.00627 0.31156 0.0
H970 H 0.22052 0.02533 0.36957 0.0
H971 H 0.22837 0.06069 0.37284 0.0
H972 H 0.28939 0.04833 0.35442 0.0
C973 C 0.27275 0.96864 0.35648 0.0
C974 C 0.25735 0.95553 0.3629 0.0
C975 C 0.23816 0.96308 0.36699 0.0
C976 C 0.23436 0.98333 0.36537 0.0
C977 C 0.2499 0.99593 0.35966 0.0
C978 C 0.26871 0.98896 0.35517 0.0
C979 C 0.28305 0.00596 0.35161 0.0
C980 C 0.29957 1.00536 0.371 0.0
C981 C 0.29153 0.00589 0.32543 0.0
C982 C 0.26944 0.02348 0.35557 0.0
C983 C 0.25034 0.01726 0.35989 0.0
C984 C 0.23533 0.03043 0.36581 0.0
C985 C 0.23996 0.05049 0.36771 0.0
C986 C 0.25943 0.05728 0.36368 0.0
C987 C 0.27429 0.0436 0.35709 0.0
H988 H 0.04393 0.7263 0.6677 0.0
H989 H 0.05447 0.78741 0.64802 0.0
H990 H 0.01907 0.79459 0.65269 0.0
H991 H 1.00064 0.72138 0.63378 0.0
H992 H 0.98799 0.70561 0.65529 0.0
H993 H 0.0145 0.70574 0.65428 0.0
H994 H 0.01572 0.71415 0.7007 0.0
H995 H 0.98914 0.71406 0.70184 0.0
H996 H 1.00264 0.73547 0.71196 0.0
H997 H 0.98269 0.79464 0.65473 0.0
H998 H 0.94716 0.7873 0.6527 0.0
H999 H 0.95909 0.72608 0.67068 0.0
C1000 C 0.0388 0.74128 0.66506 0.0
C1001 C 0.05197 0.75637 0.65774 0.0
C1002 C 0.04466 0.77567 0.65373 0.0
C1003 C 0.02458 0.77992 0.65646 0.0
C1004 C 0.01189 0.7647 0.66316 0.0
C1005 C 0.01864 0.74575 0.66742 0.0
C1006 C 1.00152 0.73176 0.67196 0.0
C1007 C 1.00115 0.71515 0.65268 0.0
C1008 C 1.0023 0.72337 0.69818 0.0
C1009 C 0.98415 0.7457 0.66882 0.0
C1010 C 0.99056 0.76468 0.66413 0.0
C1011 C 0.97746 0.77991 0.65878 0.0
C1012 C 0.95729 0.77559 0.65764 0.0
C1013 C 0.95033 0.75618 0.66179 0.0
C1014 C 0.96394 0.74115 0.66801 0.0
H1015 H 0.24662 0.96627 0.63987 0.0
H1016 H 0.29593 0.95371 0.68826 0.0
H1017 H 0.29943 0.9894 0.69683 0.0
H1018 H 0.26671 0.00838 0.61285 0.0
H1019 H 0.24368 0.02154 0.61055 0.0
H1020 H 0.24382 0.99501 0.61042 0.0
H1021 H 0.21976 0.99463 0.64742 0.0
H1022 H 0.21952 0.02121 0.64764 0.0
H1023 H 0.22613 0.00782 0.67507 0.0
H1024 H 0.2992 0.02692 0.69716 0.0
H1025 H 0.29538 0.06263 0.6891 0.0
H1026 H 0.24614 0.05017 0.64057 0.0
C1027 C 0.25795 0.97094 0.65264 0.0
C1028 C 0.27095 0.95715 0.6635 0.0
C1029 C 0.28573 0.96397 0.67983 0.0
C1030 C 0.28781 0.98422 0.68482 0.0
C1031 C 0.27494 0.99745 0.67344 0.0
C1032 C 0.26023 0.99103 0.65777 0.0
C1033 C 0.24906 0.0082 0.64665 0.0
C1034 C 0.25095 0.00828 0.61845 0.0
C1035 C 0.22733 0.00794 0.65468 0.0
C1036 C 0.26002 0.02534 0.65807 0.0
C1037 C 0.2748 0.01889 0.67363 0.0
C1038 C 0.28751 0.03211 0.68524 0.0
C1039 C 0.28523 0.05238 0.68055 0.0
C1040 C 0.27038 0.05925 0.66433 0.0
C1041 C 0.25748 0.04547 0.65331 0.0
H1042 H 0.05234 0.28196 0.6664 0.0
H1043 H 0.06372 0.22188 0.64279 0.0
H1044 H 0.02817 0.21467 0.64454 0.0
H1045 H 0.00949 0.27042 0.70743 0.0
H1046 H 0.9964 0.29243 0.69845 0.0
H1047 H 0.02299 0.29226 0.69885 0.0
H1048 H 0.02345 0.30337 0.6533 0.0
H1049 H 0.99693 0.30347 0.65272 0.0
H1050 H 0.01044 0.28896 0.63066 0.0
H1051 H 0.99179 0.21483 0.64372 0.0
H1052 H 0.9563 0.22222 0.64102 0.0
H1053 H 0.96742 0.28212 0.66547 0.0
C1054 C 0.04736 0.26715 0.66231 0.0
C1055 C 0.06082 0.25242 0.65465 0.0
C1056 C 0.05371 0.23336 0.64878 0.0
C1057 C 0.03353 0.2291 0.6498 0.0
C1058 C 0.02059 0.24403 0.65675 0.0
C1059 C 0.02714 0.26266 0.66306 0.0
C1060 C 0.00987 0.27642 0.66783 0.0
C1061 C 0.00968 0.28329 0.69474 0.0
C1062 C 0.0102 0.29409 0.65007 0.0
C1063 C 0.99265 0.26277 0.66245 0.0
C1064 C 0.99925 0.24411 0.65635 0.0
C1065 C 0.9864 0.22928 0.64888 0.0
C1066 C 0.96626 0.23364 0.64731 0.0
C1067 C 0.95909 0.25267 0.65324 0.0
C1068 C 0.97245 0.26733 0.66132 0.0
H1069 H 0.76317 0.04335 0.63558 0.0
H1070 H 0.71541 0.05575 0.68635 0.0
H1071 H 0.7127 0.02009 0.69564 0.0
H1072 H 0.74295 1.00034 0.61046 0.0
H1073 H 0.76618 0.98766 0.60734 0.0
H1074 H 0.76543 0.01417 0.60654 0.0
H1075 H 0.79069 0.01566 0.64226 0.0
H1076 H 0.79151 0.9891 0.64318 0.0
H1077 H 0.78552 1.00283 0.67055 0.0
H1078 H 0.71358 0.9826 0.69669 0.0
H1079 H 0.71789 0.94684 0.68935 0.0
H1080 H 0.76535 0.95949 0.63825 0.0
C1081 C 0.75231 0.03866 0.64894 0.0
C1082 C 0.73954 0.05238 0.6603 0.0
C1083 C 0.72542 0.04553 0.67749 0.0
C1084 C 0.72379 0.0253 0.6829 0.0
C1085 C 0.73647 0.01215 0.67109 0.0
C1086 C 0.75052 0.0186 0.65455 0.0
C1087 C 0.76169 1.00148 0.64333 0.0
C1088 C 0.75888 1.00089 0.61526 0.0
C1089 C 0.78366 1.00232 0.65025 0.0
C1090 C 0.75149 0.98431 0.65574 0.0
C1091 C 0.73707 0.99072 0.67182 0.0
C1092 C 0.725 0.97744 0.68437 0.0
C1093 C 0.72756 0.95715 0.68009 0.0
C1094 C 0.74206 0.95032 0.66337 0.0
C1095 C 0.75433 0.96417 0.65142 0.0
H1096 H 0.54696 0.74782 0.88158 0.0
H1097 H 0.55859 0.7968 0.83234 0.0
H1098 H 0.52281 0.7998 0.82405 0.0
H1099 H 0.5055 0.72646 0.84721 0.0
H1100 H 0.49239 0.72 0.87487 0.0
H1101 H 0.51896 0.72059 0.87484 0.0
H1102 H 0.51846 0.74507 0.91142 0.0
H1103 H 0.49195 0.74461 0.91152 0.0
H1104 H 0.50478 0.76778 0.90869 0.0
H1105 H 0.48522 0.79896 0.82387 0.0
H1106 H 0.44958 0.79451 0.83201 0.0
H1107 H 0.46314 0.74616 0.88151 0.0
C1108 C 0.54207 0.75896 0.86868 0.0
C1109 C 0.55563 0.77201 0.85749 0.0
C1110 C 0.54851 0.78656 0.84102 0.0
C1111 C 0.52821 0.78836 0.83619 0.0
C1112 C 0.51522 0.77546 0.84791 0.0
C1113 C 0.52193 0.76099 0.86374 0.0
C1114 C 0.50499 0.74973 0.87521 0.0
C1115 C 0.50549 0.7279 0.86756 0.0
C1116 C 0.50506 0.75194 0.90337 0.0
C1117 C 0.48764 0.76034 0.86375 0.0
C1118 C 0.49377 0.77503 0.84789 0.0
C1119 C 0.48028 0.78735 0.83605 0.0
C1120 C 0.46006 0.78471 0.84079 0.0
C1121 C 0.45352 0.76993 0.85731 0.0
C1122 C 0.46759 0.75748 0.8686 0.0
H1123 H 0.25834 0.46304 0.87203 0.0
H1124 H 0.20768 0.45091 0.82573 0.0
H1125 H 0.20425 0.48665 0.81727 0.0
H1126 H 0.23914 0.50466 0.90013 0.0
H1127 H 0.26217 0.51784 0.90176 0.0
H1128 H 0.26212 0.49132 0.9014 0.0
H1129 H 0.28519 0.49143 0.86343 0.0
H1130 H 0.28538 0.51801 0.86372 0.0
H1131 H 0.2781 0.50498 0.83631 0.0
H1132 H 0.20452 0.52433 0.81745 0.0
H1133 H 0.20836 0.55995 0.82642 0.0
H1134 H 0.25877 0.54672 0.87271 0.0
C1135 C 0.24677 0.46779 0.85963 0.0
C1136 C 0.23335 0.45411 0.84941 0.0
C1137 C 0.21824 0.46107 0.83363 0.0
C1138 C 0.21618 0.48136 0.82872 0.0
C1139 C 0.22942 0.49449 0.83961 0.0
C1140 C 0.2445 0.4879 0.85463 0.0
C1141 C 0.25591 0.50494 0.86563 0.0
C1142 C 0.25475 0.50467 0.89389 0.0
C1143 C 0.27742 0.50483 0.85673 0.0
C1144 C 0.24463 0.52221 0.85498 0.0
C1145 C 0.22952 0.51596 0.8398 0.0
C1146 C 0.21647 0.52936 0.82904 0.0
C1147 C 0.21877 0.54957 0.83423 0.0
C1148 C 0.23393 0.55618 0.85015 0.0
C1149 C 0.24716 0.54224 0.86024 0.0
H1150 H 0.46097 0.22525 0.85275 0.0
H1151 H 0.45066 0.2868 0.87046 0.0
H1152 H 0.48616 0.29358 0.86632 0.0
H1153 H 0.50366 0.22039 0.88742 0.0
H1154 H 0.51655 0.20428 0.86655 0.0
H1155 H 0.49003 0.2046 0.86688 0.0
H1156 H 0.48956 0.21248 0.82031 0.0
H1157 H 0.51615 0.21213 0.81981 0.0
H1158 H 0.503 0.23353 0.80894 0.0
H1159 H 0.52245 0.29319 0.86577 0.0
H1160 H 0.55788 0.2856 0.86879 0.0
H1161 H 0.54591 0.22435 0.8512 0.0
C1162 C 0.46617 0.24024 0.855 0.0
C1163 C 0.45304 0.25556 0.86171 0.0
C1164 C 0.46043 0.27487 0.86524 0.0
C1165 C 0.48058 0.2789 0.86282 0.0
C1166 C 0.49322 0.26345 0.85686 0.0
C1167 C 0.48639 0.2445 0.85288 0.0
C1168 C 0.50347 0.2303 0.84903 0.0
C1169 C 0.50342 0.21393 0.86864 0.0
C1170 C 0.50302 0.2216 0.82297 0.0
C1171 C 0.5209 0.24413 0.85231 0.0
C1172 C 0.51455 0.26322 0.8565 0.0
C1173 C 0.52764 0.27839 0.86205 0.0
C1174 C 0.54774 0.27392 0.8638 0.0
C1175 C 0.55464 0.25446 0.85994 0.0
C1176 C 0.54107 0.23945 0.85363 0.0
H1177 H 0.78928 0.46568 0.85241 0.0
H1178 H 0.72822 0.45561 0.87261 0.0
H1179 H 0.72156 0.4912 0.86931 0.0
H1180 H 0.79533 0.50813 0.88748 0.0
H1181 H 0.81094 0.52108 0.86606 0.0
H1182 H 0.81048 0.49455 0.86615 0.0
H1183 H 0.80135 0.49447 0.81992 0.0
H1184 H 0.80183 0.52107 0.81968 0.0
H1185 H 0.78008 0.50812 0.80958 0.0
H1186 H 0.72212 0.52751 0.86904 0.0
H1187 H 0.72993 0.5629 0.87197 0.0
H1188 H 0.79061 0.55069 0.85179 0.0
C1189 C 0.77441 0.47096 0.85542 0.0
C1190 C 0.75921 0.45786 0.86256 0.0
C1191 C 0.74006 0.46536 0.86705 0.0
C1192 C 0.7361 0.48556 0.86512 0.0
C1193 C 0.75145 0.49816 0.85867 0.0
C1194 C 0.77022 0.49124 0.85379 0.0
C1195 C 0.78439 0.50828 0.84952 0.0
C1196 C 0.80128 0.50799 0.86843 0.0
C1197 C 0.79238 0.50796 0.8231 0.0
C1198 C 0.77076 0.52577 0.85356 0.0
C1199 C 0.75177 0.5195 0.8585 0.0
C1200 C 0.73683 0.53265 0.86476 0.0
C1201 C 0.74143 0.55272 0.86645 0.0
C1202 C 0.7608 0.55955 0.86184 0.0
C1203 C 0.77557 0.54592 0.85482 0.0
H1204 H 0.46768 0.26586 0.14169 0.0
H1205 H 0.45341 0.21696 0.18997 0.0
H1206 H 0.48888 0.21264 0.19928 0.0
H1207 H 0.50948 0.24472 0.11554 0.0
H1208 H 0.5232 0.26742 0.11339 0.0
H1209 H 0.4967 0.26795 0.11285 0.0
H1210 H 0.49656 0.29209 0.1498 0.0
H1211 H 0.52312 0.29165 0.15044 0.0
H1212 H 0.50932 0.28543 0.17766 0.0
H1213 H 0.52648 0.21187 0.20016 0.0
H1214 H 0.56236 0.21469 0.19234 0.0
H1215 H 0.55135 0.26423 0.1437 0.0
C1216 C 0.47193 0.25447 0.1546 0.0
C1217 C 0.45772 0.24181 0.16519 0.0
C1218 C 0.464 0.22692 0.18173 0.0
C1219 C 0.48413 0.22437 0.18715 0.0
C1220 C 0.49778 0.2369 0.176 0.0
C1221 C 0.49188 0.25173 0.16017 0.0
C1222 C 0.5094 0.26244 0.14931 0.0
C1223 C 0.50971 0.2605 0.12111 0.0
C1224 C 0.50961 0.28419 0.15729 0.0
C1225 C 0.52614 0.25106 0.16102 0.0
C1226 C 0.51922 0.23648 0.17654 0.0
C1227 C 0.53205 0.22342 0.1883 0.0
C1228 C 0.55241 0.22513 0.18376 0.0
C1229 C 0.55972 0.23975 0.16754 0.0
C1230 C 0.54633 0.25303 0.15644 0.0
H1231 H 0.75332 0.54854 0.14122 0.0
H1232 H 0.80243 0.55984 0.19037 0.0
H1233 H 0.80526 0.52401 0.19855 0.0
H1234 H 0.7319 0.50694 0.17567 0.0
H1235 H 0.72527 0.49401 0.14793 0.0
H1236 H 0.72591 0.52058 0.14822 0.0
H1237 H 0.75017 0.52026 0.11142 0.0
H1238 H 0.74968 0.49374 0.11108 0.0
H1239 H 0.77287 0.50654 0.11384 0.0
H1240 H 0.80457 0.48638 0.19805 0.0
H1241 H 0.80017 0.4508 0.18928 0.0
H1242 H 0.75141 0.46482 0.14064 0.0
C1243 C 0.76444 0.54357 0.1541 0.0
C1244 C 0.7776 0.55704 0.16525 0.0
C1245 C 0.7921 0.54983 0.18174 0.0
C1246 C 0.79381 0.5295 0.18649 0.0
C1247 C 0.78084 0.51659 0.17473 0.0
C1248 C 0.76635 0.52341 0.15902 0.0
C1249 C 0.75501 0.50657 0.14747 0.0
C1250 C 0.73323 0.50706 0.1553 0.0
C1251 C 0.75707 0.5068 0.11929 0.0
C1252 C 0.76565 0.48913 0.15868 0.0
C1253 C 0.78042 0.49514 0.17451 0.0
C1254 C 0.79287 0.48154 0.18594 0.0
C1255 C 0.79028 0.46136 0.18084 0.0
C1256 C 0.77538 0.45497 0.16439 0.0
C1257 C 0.7628 0.46913 0.15352 0.0
H1258 H 0.46224 0.78505 0.16544 0.0
H1259 H 0.45034 0.72474 0.14324 0.0
H1260 H 0.48571 0.71694 0.14633 0.0
H1261 H 0.50496 0.79052 0.1306 0.0
H1262 H 0.51832 0.80528 0.15256 0.0
H1263 H 0.4918 0.80565 0.15236 0.0
H1264 H 0.49129 0.79558 0.19827 0.0
H1265 H 0.51788 0.79523 0.19864 0.0
H1266 H 0.50423 0.77369 0.20798 0.0
H1267 H 0.522 0.71634 0.14687 0.0
H1268 H 0.55764 0.72303 0.14467 0.0
H1269 H 0.54723 0.7837 0.16652 0.0
C1270 C 0.46708 0.77009 0.16192 0.0
C1271 C 0.45353 0.75544 0.15429 0.0
C1272 C 0.46044 0.73617 0.14916 0.0
C1273 C 0.4805 0.73156 0.15097 0.0
C1274 C 0.49355 0.74639 0.15792 0.0
C1275 C 0.48721 0.76526 0.16341 0.0
C1276 C 0.50465 0.77881 0.1682 0.0
C1277 C 0.50494 0.79608 0.14983 0.0
C1278 C 0.5045 0.78626 0.19486 0.0
C1279 C 0.52171 0.76472 0.16379 0.0
C1280 C 0.51488 0.74604 0.15819 0.0
C1281 C 0.52758 0.7308 0.15163 0.0
C1282 C 0.5478 0.73476 0.15035 0.0
C1283 C 0.55521 0.75382 0.15564 0.0
C1284 C 0.542 0.76889 0.16291 0.0
H1285 H 0.26236 0.46516 0.14506 0.0
H1286 H 0.21387 0.45132 0.19411 0.0
H1287 H 0.20971 0.48689 0.20305 0.0
H1288 H 0.28215 0.5076 0.18001 0.0
H1289 H 0.28801 0.52094 0.15229 0.0
H1290 H 0.28868 0.49436 0.15246 0.0
H1291 H 0.26428 0.49362 0.11578 0.0
H1292 H 0.26346 0.52012 0.11556 0.0
H1293 H 0.24095 0.50619 0.11839 0.0
H1294 H 0.20871 0.52448 0.20297 0.0
H1295 H 0.21098 0.5602 0.19386 0.0
H1296 H 0.26012 0.54877 0.14484 0.0
C1297 C 0.25114 0.46951 0.15815 0.0
C1298 C 0.23851 0.45542 0.169 0.0
C1299 C 0.22382 0.46183 0.18571 0.0
C1300 C 0.22136 0.48201 0.1909 0.0
C1301 C 0.23379 0.49557 0.17937 0.0
C1302 C 0.24848 0.48951 0.16346 0.0
C1303 C 0.25893 0.50693 0.15193 0.0
C1304 C 0.28073 0.50749 0.15964 0.0
C1305 C 0.25676 0.50669 0.12376 0.0
C1306 C 0.2475 0.52378 0.16329 0.0
C1307 C 0.23318 0.51701 0.17928 0.0
C1308 C 0.22006 0.52993 0.19076 0.0
C1309 C 0.22146 0.5502 0.18547 0.0
C1310 C 0.23579 0.55733 0.16875 0.0
C1311 C 0.24914 0.54388 0.15793 0.0
H1312 H 0.10673 0.27878 0.45758 0.0
H1313 H 0.14641 0.32771 0.44345 0.0
H1314 H 0.14809 0.33447 0.48809 0.0
H1315 H 0.08041 0.30094 0.50989 0.0
H1316 H 0.07879 0.27769 0.52584 0.0
H1317 H 0.07909 0.27823 0.49273 0.0
H1318 H 0.10908 0.2545 0.49255 0.0
H1319 H 0.1089 0.25393 0.52559 0.0
H1320 H 0.13098 0.26109 0.50946 0.0
H1321 H 0.14736 0.33408 0.53497 0.0
H1322 H 0.14483 0.32612 0.57927 0.0
H1323 H 0.10597 0.27722 0.56184 0.0
C1324 C 0.1155 0.29117 0.46374 0.0
C1325 C 0.12636 0.30277 0.4469 0.0
C1326 C 0.13787 0.31866 0.45592 0.0
C1327 C 0.13889 0.32263 0.48127 0.0
C1328 C 0.12827 0.31064 0.49737 0.0
C1329 C 0.11675 0.29527 0.48887 0.0
C1330 C 0.1078 0.2837 0.50988 0.0
C1331 C 0.08518 0.28524 0.50956 0.0
C1332 C 0.11461 0.26203 0.50933 0.0
C1333 C 0.11646 0.29462 0.53158 0.0
C1334 C 0.12804 0.31027 0.52409 0.0
C1335 C 0.13817 0.32197 0.54101 0.0
C1336 C 0.13663 0.31735 0.56616 0.0
C1337 C 0.12519 0.30106 0.57412 0.0
C1338 C 0.11478 0.28982 0.55647 0.0
H1339 H 0.72879 0.1017 0.56121 0.0
H1340 H 0.68822 0.14935 0.57806 0.0
H1341 H 0.6809 0.15304 0.53374 0.0
H1342 H 0.74949 0.12323 0.50944 0.0
H1343 H 0.75217 0.10055 0.49249 0.0
H1344 H 0.75226 0.10014 0.52553 0.0
H1345 H 0.72345 0.07502 0.52535 0.0
H1346 H 0.7233 0.07531 0.49223 0.0
H1347 H 0.70106 0.08085 0.50901 0.0
H1348 H 0.68044 0.15337 0.48686 0.0
H1349 H 0.68723 0.1506 0.4423 0.0
H1350 H 0.72825 0.10285 0.45698 0.0
C1351 C 0.71805 0.11269 0.55573 0.0
C1352 C 0.70902 0.12518 0.57323 0.0
C1353 C 0.69526 0.13952 0.56508 0.0
C1354 C 0.69099 0.14171 0.53991 0.0
C1355 C 0.70051 0.12939 0.52313 0.0
C1356 C 0.71368 0.11509 0.53079 0.0
C1357 C 0.72302 0.1046 0.50916 0.0
C1358 C 0.74556 0.1073 0.50916 0.0
C1359 C 0.71736 0.08264 0.50893 0.0
C1360 C 0.71347 0.11557 0.48807 0.0
C1361 C 0.70034 0.12965 0.49639 0.0
C1362 C 0.69052 0.14222 0.48016 0.0
C1363 C 0.69446 0.14053 0.45486 0.0
C1364 C 0.70824 0.12647 0.44604 0.0
C1365 C 0.71753 0.11367 0.46299 0.0
H1366 H 0.86444 0.70274 0.45748 0.0
H1367 H 0.92623 0.71504 0.44362 0.0
H1368 H 0.9333 0.71205 0.48784 0.0
H1369 H 0.8608 0.73139 0.50985 0.0
H1370 H 0.84437 0.7154 0.5266 0.0
H1371 H 0.84442 0.71503 0.49355 0.0
H1372 H 0.85129 0.67745 0.49402 0.0
H1373 H 0.85117 0.67769 0.52716 0.0
H1374 H 0.8722 0.66806 0.51083 0.0
H1375 H 0.93317 0.71284 0.53303 0.0
H1376 H 0.92587 0.71677 0.57715 0.0
H1377 H 0.86435 0.70339 0.56336 0.0
C1378 C 0.87954 0.70414 0.46374 0.0
C1379 C 0.89483 0.70895 0.44709 0.0
C1380 C 0.9143 0.7113 0.45602 0.0
C1381 C 0.91849 0.70955 0.48111 0.0
C1382 C 0.90305 0.70541 0.49716 0.0
C1383 C 0.88396 0.70261 0.48893 0.0
C1384 C 0.86986 0.70032 0.51046 0.0
C1385 C 0.85393 0.7165 0.51009 0.0
C1386 C 0.86058 0.67964 0.51062 0.0
C1387 C 0.88392 0.70298 0.53197 0.0
C1388 C 0.90302 0.70568 0.52376 0.0
C1389 C 0.91838 0.7103 0.53976 0.0
C1390 C 0.91409 0.71255 0.56476 0.0
C1391 C 0.89465 0.71004 0.57363 0.0
C1392 C 0.87944 0.70479 0.5571 0.0
H1393 H 0.27703 0.90915 0.56187 0.0
H1394 H 0.32337 0.86679 0.57766 0.0
H1395 H 0.3304 0.86401 0.53323 0.0
H1396 H 0.2584 0.88529 0.51031 0.0
H1397 H 0.2528 0.90746 0.49341 0.0
H1398 H 0.25305 0.90789 0.52645 0.0
H1399 H 0.27861 0.9363 0.52581 0.0
H1400 H 0.2784 0.93601 0.49269 0.0
H1401 H 0.30134 0.93321 0.50906 0.0
H1402 H 0.33026 0.86362 0.48668 0.0
H1403 H 0.32288 0.8656 0.44226 0.0
H1404 H 0.27657 0.90814 0.45736 0.0
C1405 C 0.28894 0.89957 0.5561 0.0
C1406 C 0.2997 0.88825 0.57334 0.0
C1407 C 0.31497 0.87569 0.56486 0.0
C1408 C 0.31909 0.87403 0.53964 0.0
C1409 C 0.3079 0.88509 0.52312 0.0
C1410 C 0.29321 0.89771 0.53105 0.0
C1411 C 0.28242 0.90698 0.50959 0.0
C1412 C 0.26037 0.90157 0.50997 0.0
C1413 C 0.28538 0.92946 0.50927 0.0
C1414 C 0.29297 0.89723 0.48831 0.0
C1415 C 0.30777 0.88482 0.49643 0.0
C1416 C 0.31886 0.87348 0.48011 0.0
C1417 C 0.31455 0.87469 0.45489 0.0
C1418 C 0.29918 0.88707 0.44622 0.0
C1419 C 0.28852 0.89866 0.46326 0.0
H1420 H 0.1022 0.73192 0.45855 0.0
H1421 H 0.14549 0.68591 0.4455 0.0
H1422 H 0.1475 0.67978 0.49023 0.0
H1423 H 0.12468 0.75183 0.51052 0.0
H1424 H 0.10203 0.75737 0.5264 0.0
H1425 H 0.10243 0.75659 0.49337 0.0
H1426 H 0.07439 0.73062 0.49361 0.0
H1427 H 0.07386 0.73136 0.52671 0.0
H1428 H 0.07739 0.7082 0.51105 0.0
H1429 H 0.1468 0.68072 0.53695 0.0
H1430 H 0.14354 0.68875 0.5811 0.0
H1431 H 0.10072 0.73413 0.56303 0.0
C1432 C 0.11185 0.72028 0.46497 0.0
C1433 C 0.12363 0.70935 0.44839 0.0
C1434 C 0.13624 0.69444 0.45775 0.0
C1435 C 0.13747 0.69083 0.48316 0.0
C1436 C 0.12593 0.70216 0.49901 0.0
C1437 C 0.11328 0.71652 0.49021 0.0
C1438 C 0.10334 0.72751 0.51104 0.0
C1439 C 0.10844 0.74963 0.51028 0.0
C1440 C 0.08091 0.72422 0.51057 0.0
C1441 C 0.11271 0.71744 0.53297 0.0
C1442 C 0.12556 0.70273 0.52572 0.0
C1443 C 0.1366 0.69206 0.54281 0.0
C1444 C 0.13465 0.69674 0.56788 0.0
C1445 C 0.12182 0.71203 0.57566 0.0
C1446 C 0.11054 0.72224 0.55784 0.0
H1447 H 0.27895 0.10548 0.45843 0.0
H1448 H 0.32834 0.14431 0.44319 0.0
H1449 H 0.33581 0.14586 0.48763 0.0
H1450 H 0.26253 0.13 0.51077 0.0
H1451 H 0.25527 0.10804 0.52711 0.0
H1452 H 0.25529 0.10821 0.49406 0.0
H1453 H 0.27849 0.07781 0.49367 0.0
H1454 H 0.2785 0.07751 0.52679 0.0
H1455 H 0.30149 0.07875 0.51025 0.0
H1456 H 0.33613 0.14521 0.53436 0.0
H1457 H 0.32893 0.14283 0.57884 0.0
H1458 H 0.27915 0.10469 0.5628 0.0
C1459 C 0.29158 0.11402 0.46431 0.0
C1460 C 0.30311 0.12469 0.44722 0.0
C1461 C 0.31933 0.13592 0.45586 0.0
C1462 C 0.32371 0.13687 0.48109 0.0
C1463 C 0.31179 0.12645 0.49745 0.0
C1464 C 0.2961 0.11518 0.48935 0.0
C1465 C 0.28473 0.10643 0.51065 0.0
C1466 C 0.26319 0.11361 0.51064 0.0
C1467 C 0.28588 0.08378 0.51032 0.0
C1468 C 0.29616 0.11491 0.53206 0.0
C1469 C 0.31186 0.12623 0.52416 0.0
C1470 C 0.324 0.1362 0.54073 0.0
C1471 C 0.31979 0.13476 0.56598 0.0
C1472 C 0.30349 0.12355 0.57439 0.0
C1473 C 0.29178 0.11331 0.55708 0.0
H1474 H 0.90992 0.28102 0.45824 0.0
H1475 H 0.86397 0.3243 0.4448 0.0
H1476 H 0.86143 0.33032 0.48953 0.0
H1477 H 0.88849 0.2596 0.50941 0.0
H1478 H 0.91128 0.25536 0.52564 0.0
H1479 H 0.91119 0.25639 0.49263 0.0
H1480 H 0.93751 0.28409 0.49363 0.0
H1481 H 0.93776 0.28309 0.52673 0.0
H1482 H 0.93294 0.30612 0.5113 0.0
H1483 H 0.86169 0.32897 0.53631 0.0
H1484 H 0.8648 0.32049 0.58037 0.0
H1485 H 0.9106 0.27812 0.56241 0.0
C1486 C 0.89958 0.29208 0.46457 0.0
C1487 C 0.88719 0.30223 0.44791 0.0
C1488 C 0.87372 0.31641 0.45713 0.0
C1489 C 0.87218 0.31994 0.48254 0.0
C1490 C 0.88431 0.30929 0.49847 0.0
C1491 C 0.89786 0.29576 0.48976 0.0
C1492 C 0.90825 0.28522 0.5106 0.0
C1493 C 0.90457 0.26283 0.5095 0.0
C1494 C 0.93043 0.28992 0.51056 0.0
C1495 C 0.89805 0.2945 0.53245 0.0
C1496 C 0.88444 0.30851 0.52517 0.0
C1497 C 0.8725 0.31822 0.5422 0.0
C1498 C 0.87437 0.31329 0.56721 0.0
C1499 C 0.88799 0.29868 0.57496 0.0
C1500 C 0.90015 0.28948 0.55724 0.0
H1501 H 0.733 0.90595 0.56279 0.0
H1502 H 0.68369 0.867 0.57794 0.0
H1503 H 0.67674 0.86486 0.53337 0.0
H1504 H 0.71054 0.93195 0.51019 0.0
H1505 H 0.73371 0.93337 0.49407 0.0
H1506 H 0.73332 0.93342 0.52719 0.0
H1507 H 0.75701 0.90339 0.52772 0.0
H1508 H 0.75741 0.9032 0.49468 0.0
H1509 H 0.7503 0.88131 0.51126 0.0
H1510 H 0.67745 0.86444 0.48664 0.0
H1511 H 0.68534 0.86621 0.44232 0.0
H1512 H 0.73398 0.90575 0.45852 0.0
C1513 C 0.72051 0.89722 0.55686 0.0
C1514 C 0.70888 0.88665 0.57393 0.0
C1515 C 0.69275 0.87532 0.56526 0.0
C1516 C 0.6887 0.87401 0.53996 0.0
C1517 C 0.70077 0.88429 0.52361 0.0
C1518 C 0.71624 0.89582 0.53179 0.0
C1519 C 0.72773 0.90453 0.51057 0.0
C1520 C 0.72623 0.92716 0.51051 0.0
C1521 C 0.74939 0.89769 0.5111 0.0
C1522 C 0.7167 0.89565 0.4891 0.0
C1523 C 0.70108 0.88416 0.49692 0.0
C1524 C 0.68947 0.87362 0.48032 0.0
C1525 C 0.69409 0.8747 0.45517 0.0
C1526 C 0.71023 0.88619 0.44685 0.0
C1527 C 0.72142 0.897 0.46415 0.0
H1528 H 0.60201 0.77726 0.06318 0.0
H1529 H 0.645 0.82272 0.08008 0.0
H1530 H 0.64716 0.83105 0.03592 0.0
H1531 H 0.62486 0.75983 1.01062 0.0
H1532 H 0.60243 0.75492 0.99394 0.0
H1533 H 0.60241 0.75433 0.02697 0.0
H1534 H 0.57429 0.78024 0.02785 0.0
H1535 H 0.57417 0.78086 0.99473 0.0
H1536 H 0.57743 0.80335 0.01192 0.0
H1537 H 0.64703 0.83202 0.98931 0.0
H1538 H 0.64465 0.82554 0.9447 0.0
H1539 H 0.60175 0.77941 0.95891 0.0
C1540 C 0.6116 0.78926 0.05774 0.0
C1541 C 0.62329 0.79937 0.07519 0.0
C1542 C 0.63581 0.81481 0.06713 0.0
C1543 C 0.63712 0.81967 0.04206 0.0
C1544 C 0.62571 0.80906 0.02531 0.0
C1545 C 0.61309 0.79426 0.03289 0.0
C1546 C 0.60344 0.78412 0.01122 0.0
C1547 C 0.60861 0.762 1.01066 0.0
C1548 C 0.581 0.78734 0.01145 0.0
C1549 C 0.61304 0.7951 0.99019 0.0
C1550 C 0.62567 0.80959 0.99863 0.0
C1551 C 0.63698 0.82089 0.98251 0.0
C1552 C 0.63554 0.81708 0.95718 0.0
C1553 C 0.62296 0.80201 0.94821 0.0
C1554 C 0.61137 0.79117 0.96505 0.0
H1555 H 0.20229 0.64823 0.95673 0.0
H1556 H 0.20855 0.58545 0.94342 0.0
H1557 H 0.20381 0.57888 0.98756 0.0
H1558 H 0.23016 0.64896 1.01 0.0
H1559 H 0.2157 0.66714 0.02612 0.0
H1560 H 0.21602 0.66694 0.99307 0.0
H1561 H 0.17793 0.66421 0.99232 0.0
H1562 H 0.17749 0.66445 0.02545 0.0
H1563 H 0.16599 0.64452 1.00887 0.0
H1564 H 0.20303 0.5791 0.03285 0.0
H1565 H 0.20674 0.58612 0.07704 0.0
H1566 H 0.20106 0.64877 0.06247 0.0
C1567 C 0.202 0.63309 0.96307 0.0
C1568 C 0.20555 0.61731 0.94663 0.0
C1569 C 0.20576 0.59773 0.95568 0.0
C1570 C 0.20299 0.59385 0.98071 0.0
C1571 C 0.20007 0.6097 0.99658 0.0
C1572 C 0.1995 0.62895 0.9882 0.0
C1573 C 0.1983 0.64333 1.00959 0.0
C1574 C 0.2161 0.65741 1.00969 0.0
C1575 C 0.17876 0.65481 1.00902 0.0
C1576 C 0.19898 0.62917 0.03122 0.0
C1577 C 0.1997 0.60983 0.02318 0.0
C1578 C 0.20209 0.59413 0.03942 0.0
C1579 C 0.20423 0.59827 0.06448 0.0
C1580 C 0.20393 0.61794 0.07319 0.0
C1581 C 0.2008 0.63356 0.05638 0.0
H1582 H 0.40998 0.23515 0.06275 0.0
H1583 H 0.3678 0.18887 0.07928 0.0
H1584 H 0.3645 0.18184 0.03488 0.0
H1585 H 0.38553 0.2539 0.01185 0.0
H1586 H 0.40745 0.25951 0.99449 0.0
H1587 H 0.40835 0.25917 0.02752 0.0
H1588 H 0.4367 0.23353 0.02618 0.0
H1589 H 0.43596 0.23385 0.99307 0.0
H1590 H 0.43335 0.21086 1.00938 0.0
H1591 H 0.3635 0.18209 0.98831 0.0
H1592 H 0.36489 0.18959 0.94389 0.0
H1593 H 0.40761 0.23586 0.95834 0.0
C1594 C 0.40035 0.22324 0.05715 0.0
C1595 C 0.38921 0.21251 0.0746 0.0
C1596 C 0.37657 0.19724 0.06633 0.0
C1597 C 0.37461 0.19312 0.04113 0.0
C1598 C 0.38547 0.20432 0.02442 0.0
C1599 C 0.39819 0.21899 0.03214 0.0
C1600 C 0.40716 0.22984 1.01055 0.0
C1601 C 0.40179 0.2519 0.01115 0.0
C1602 C 0.42963 0.22683 1.00975 0.0
C1603 C 0.39711 0.21936 0.98943 0.0
C1604 C 0.38482 0.20454 0.99774 0.0
C1605 C 0.37327 0.19351 0.9816 0.0
C1606 C 0.37414 0.1979 0.95638 0.0
C1607 C 0.3864 0.21329 0.94752 0.0
C1608 C 0.3982 0.2239 0.96438 0.0
H1609 H 0.78008 0.40882 0.06172 0.0
H1610 H 0.82667 0.36643 0.07618 0.0
H1611 H 0.83344 0.36427 0.03163 0.0
H1612 H 0.76125 0.38566 1.00974 0.0
H1613 H 0.75551 0.40808 0.9934 0.0
H1614 H 0.75592 0.408 0.02645 0.0
H1615 H 0.7814 0.43648 0.02627 0.0
H1616 H 0.78102 0.4367 0.99315 0.0
H1617 H 0.80405 0.43371 1.00929 0.0
H1618 H 0.833 0.36451 0.98507 0.0
H1619 H 0.82537 0.36709 0.94077 0.0
H1620 H 0.77909 0.40935 0.95718 0.0
C1621 C 0.79199 0.39935 0.05563 0.0
C1622 C 0.8029 0.38785 0.07255 0.0
C1623 C 0.81816 0.37546 0.06365 0.0
C1624 C 0.82213 0.37416 0.03836 0.0
C1625 C 0.81081 0.38541 0.02217 0.0
C1626 C 0.79612 0.39786 0.03051 0.0
C1627 C 0.7852 0.40742 1.00934 0.0
C1628 C 0.76317 0.40195 1.00977 0.0
C1629 C 0.7881 0.42991 1.00953 0.0
C1630 C 0.79568 0.39803 0.98775 0.0
C1631 C 0.81054 0.38553 0.99548 0.0
C1632 C 0.82156 0.37444 0.97882 0.0
C1633 C 0.8171 0.376 0.95366 0.0
C1634 C 0.80168 0.38848 0.94538 0.0
C1635 C 0.7911 0.39982 0.96277 0.0
H1636 H 0.65093 0.2071 0.06128 0.0
H1637 H 0.58837 0.21244 0.07641 0.0
H1638 H 0.58107 0.20835 0.03235 0.0
H1639 H 0.65046 0.23593 1.00898 0.0
H1640 H 0.66847 0.22201 0.99187 0.0
H1641 H 0.66887 0.22161 0.02492 0.0
H1642 H 0.66652 0.18348 0.02448 0.0
H1643 H 0.66619 0.18376 0.99134 0.0
H1644 H 0.64667 0.1717 1.00805 0.0
H1645 H 0.5805 0.20855 0.98713 0.0
H1646 H 0.58668 0.21331 0.94292 0.0
H1647 H 0.64961 0.20796 0.95556 0.0
C1648 C 0.63569 0.20672 0.05532 0.0
C1649 C 0.62017 0.20983 0.07225 0.0
C1650 C 0.60045 0.20996 0.06375 0.0
C1651 C 0.59615 0.20756 0.03877 0.0
C1652 C 0.61175 0.2051 0.02242 0.0
C1653 C 0.63115 0.20459 0.03025 0.0
C1654 C 0.64515 0.204 1.00846 0.0
C1655 C 0.65905 0.22196 1.00857 0.0
C1656 C 0.65682 0.18457 1.00806 0.0
C1657 C 0.63061 0.20499 0.98725 0.0
C1658 C 0.61142 0.20531 0.99583 0.0
C1659 C 0.59541 0.20792 0.98013 0.0
C1660 C 0.59908 0.21068 0.95505 0.0
C1661 C 0.61859 0.21077 0.94581 0.0
C1662 C 0.63453 0.20744 0.96206 0.0
H1663 H 0.80945 0.65239 0.06318 0.0
H1664 H 0.80926 0.58927 0.07604 0.0
H1665 H 0.81367 0.58336 0.0317 0.0
H1666 H 0.7804 0.65093 0.01144 0.0
H1667 H 0.79262 0.67035 0.99472 0.0
H1668 H 0.79346 0.67004 0.02775 0.0
H1669 H 0.83162 0.67066 0.02653 0.0
H1670 H 0.83091 0.67109 0.9934 0.0
H1671 H 0.84469 0.65217 1.00915 0.0
H1672 H 0.81266 0.58383 0.9865 0.0
H1673 H 0.80655 0.59067 0.94266 0.0
H1674 H 0.8075 0.65351 0.95747 0.0
C1675 C 0.81112 0.63738 0.05667 0.0
C1676 C 0.80933 0.62126 0.07304 0.0
C1677 C 0.81078 0.6018 0.06382 0.0
C1678 C 0.81335 0.5983 0.03867 0.0
C1679 C 0.8144 0.61443 0.02286 0.0
C1680 C 0.81345 0.63362 0.03141 0.0
C1681 C 0.81262 0.64813 1.01012 0.0
C1682 C 0.79365 0.66059 0.01108 0.0
C1683 C 0.83106 0.66129 1.00979 0.0
C1684 C 0.81248 0.63406 0.98839 0.0
C1685 C 0.8138 0.6147 0.99626 0.0
C1686 C 0.81207 0.59891 0.98003 0.0
C1687 C 0.80854 0.60294 0.95518 0.0
C1688 C 0.80687 0.62259 0.94666 0.0
C1689 C 0.8093 0.63836 0.96341 0.0
H1690 H 0.40704 0.779 0.95741 0.0
H1691 H 0.362 0.82268 0.94142 0.0
H1692 H 0.35947 0.8303 0.98576 0.0
H1693 H 0.38502 0.75982 1.00956 0.0
H1694 H 0.40766 0.75568 0.02613 0.0
H1695 H 0.40769 0.75557 0.9931 0.0
H1696 H 0.43459 0.78273 0.9928 0.0
H1697 H 0.43469 0.78288 0.02592 0.0
H1698 H 0.4304 0.80545 1.00922 0.0
H1699 H 0.35959 0.83064 0.03251 0.0
H1700 H 0.36223 0.82351 0.07697 0.0
H1701 H 0.40718 0.7796 0.06163 0.0
C1702 C 0.3969 0.79047 0.96309 0.0
C1703 C 0.38477 0.80028 0.94584 0.0
C1704 C 0.37154 0.81502 0.95422 0.0
C1705 C 0.37001 0.81947 0.97939 0.0
C1706 C 0.38191 0.80917 0.99593 0.0
C1707 C 0.39519 0.79506 0.98804 0.0
C1708 C 0.4053 0.78505 1.00949 0.0
C1709 C 0.40116 0.76272 1.00957 0.0
C1710 C 0.42757 0.78929 1.00934 0.0
C1711 C 0.39522 0.79529 0.03075 0.0
C1712 C 0.38194 0.80933 0.02265 0.0
C1713 C 0.37014 0.81986 0.03904 0.0
C1714 C 0.37174 0.8157 0.06429 0.0
C1715 C 0.38496 0.80103 0.07289 0.0
C1716 C 0.39705 0.79102 0.05579 0.0
H1717 H 0.20289 0.36317 0.95761 0.0
H1718 H 0.20994 0.4257 0.9432 0.0
H1719 H 0.20677 0.43268 0.98746 0.0
H1720 H 0.16839 0.36801 0.01146 0.0
H1721 H 0.18001 0.34795 0.0277 0.0
H1722 H 0.17938 0.34795 0.99457 0.0
H1723 H 0.2174 0.34442 0.99347 0.0
H1724 H 0.21815 0.34447 0.02651 0.0
H1725 H 0.23243 0.36222 1.00944 0.0
H1726 H 0.2074 0.43281 0.03273 0.0
H1727 H 0.21219 0.42606 0.0768 0.0
H1728 H 0.20492 0.36341 0.06333 0.0
C1729 C 0.2031 0.37835 0.96377 0.0
C1730 C 0.20642 0.39394 0.94697 0.0
C1731 C 0.2073 0.41357 0.95574 0.0
C1732 C 0.20543 0.41769 0.98084 0.0
C1733 C 0.20272 0.40201 0.99703 0.0
C1734 C 0.2015 0.38272 0.98894 0.0
C1735 C 0.20071 0.36852 1.01055 0.0
C1736 C 0.18094 0.35745 0.0111 0.0
C1737 C 0.21822 0.35406 1.00995 0.0
C1738 C 0.20237 0.38282 0.03194 0.0
C1739 C 0.20321 0.40207 0.02363 0.0
C1740 C 0.20639 0.41784 0.03952 0.0
C1741 C 0.20916 0.41385 0.06453 0.0
C1742 C 0.20872 0.39425 0.07351 0.0
C1743 C 0.20484 0.37857 0.05705 0.0
H1744 H 0.17266 0.33916 0.19735 0.0
H1745 H 0.20099 0.39354 0.22026 0.0
H1746 H 0.18817 0.38877 0.26226 0.0
H1747 H 0.1282 0.34443 0.23766 0.0
H1748 H 0.12724 0.31829 0.24363 0.0
H1749 H 0.13658 0.32721 0.21467 0.0
H1750 H 0.16904 0.30786 0.22172 0.0
H1751 H 0.15987 0.29897 0.25068 0.0
H1752 H 0.183 0.31203 0.24945 0.0
H1753 H 0.17705 0.37542 0.30287 0.0
H1754 H 0.16602 0.35571 0.33857 0.0
H1755 H 0.14277 0.31118 0.28936 0.0
C1756 C 0.17576 0.35032 0.21104 0.0
C1757 C 0.18782 0.36675 0.20546 0.0
C1758 C 0.19169 0.3809 0.224 0.0
C1759 C 0.18448 0.37831 0.24796 0.0
C1760 C 0.1731 0.36168 0.25302 0.0
C1761 C 0.16846 0.34809 0.235 0.0
C1762 C 0.15689 0.33092 0.24562 0.0
C1763 C 0.13599 0.33018 0.23475 0.0
C1764 C 0.16786 0.31129 0.24163 0.0
C1765 C 0.15644 0.3366 0.27257 0.0
C1766 C 0.16585 0.35443 0.27642 0.0
C1767 C 0.16917 0.36173 0.30002 0.0
C1768 C 0.16291 0.35044 0.32018 0.0
C1769 C 0.15317 0.33222 0.31663 0.0
C1770 C 0.14959 0.32541 0.29251 0.0
H1771 H 0.6439 0.19963 0.22494 0.0
H1772 H 0.67107 0.15787 0.17509 0.0
H1773 H 0.68198 0.1377 0.21047 0.0
H1774 H 0.68263 0.19972 0.26663 0.0
H1775 H 0.66766 0.20239 0.29379 0.0
H1776 H 0.65884 0.21152 0.26477 0.0
H1777 H 0.62722 0.19037 0.26914 0.0
H1778 H 0.63595 0.18118 0.29828 0.0
H1779 H 0.62935 0.16417 0.27417 0.0
H1780 H 0.69233 0.1236 0.25118 0.0
H1781 H 0.70389 0.11826 0.2937 0.0
H1782 H 0.67199 0.17047 0.31717 0.0
C1783 C 0.65159 0.1859 0.22153 0.0
C1784 C 0.65631 0.18003 0.19733 0.0
C1785 C 0.66711 0.16244 0.19351 0.0
C1786 C 0.67329 0.15087 0.21349 0.0
C1787 C 0.66878 0.15725 0.2372 0.0
C1788 C 0.65829 0.17443 0.24132 0.0
C1789 C 0.65756 0.17932 0.26851 0.0
C1790 C 0.66726 0.19942 0.27372 0.0
C1791 C 0.63625 0.17872 0.27809 0.0
C1792 C 0.66967 0.16248 0.27896 0.0
C1793 C 0.67561 0.14966 0.26066 0.0
C1794 C 0.68761 0.13344 0.26569 0.0
C1795 C 0.69408 0.1305 0.28994 0.0
C1796 C 0.68884 0.1439 0.30881 0.0
C1797 C 0.67615 0.15987 0.30321 0.0
H1798 H 0.84322 0.67353 0.2001 0.0
H1799 H 0.81407 0.61904 0.22089 0.0
H1800 H 0.82557 0.62342 0.26357 0.0
H1801 H 0.8864 0.6677 0.24226 0.0
H1802 H 0.88731 0.69377 0.24867 0.0
H1803 H 0.87872 0.68519 0.21919 0.0
H1804 H 0.84618 0.70464 0.22515 0.0
H1805 H 0.8546 0.71318 0.25463 0.0
H1806 H 0.83146 0.70025 0.25219 0.0
H1807 H 0.83562 0.63637 0.30495 0.0
H1808 H 0.84607 0.65555 0.34138 0.0
H1809 H 0.87086 0.70037 0.29376 0.0
C1810 C 0.83966 0.66226 0.21349 0.0
C1811 C 0.82776 0.64591 0.20708 0.0
C1812 C 0.82327 0.63162 0.22525 0.0
C1813 C 0.82972 0.63399 0.24959 0.0
C1814 C 0.84097 0.65055 0.25544 0.0
C1815 C 0.84621 0.66427 0.23783 0.0
C1816 C 0.85757 0.68127 0.24919 0.0
C1817 C 0.87876 0.68202 0.23924 0.0
C1818 C 0.8468 0.70099 0.24505 0.0
C1819 C 0.85726 0.67532 0.27606 0.0
C1820 C 0.84761 0.65754 0.27927 0.0
C1821 C 0.84367 0.65002 0.30262 0.0
C1822 C 0.84961 0.66102 0.3232 0.0
C1823 C 0.85964 0.67916 0.32032 0.0
C1824 C 0.86379 0.68621 0.29643 0.0
H1825 H 0.33982 0.8387 0.19907 0.0
H1826 H 0.39162 0.80739 0.22507 0.0
H1827 H 0.38592 0.82043 0.26683 0.0
H1828 H 0.3458 0.88277 0.23993 0.0
H1829 H 0.31954 0.88508 0.24421 0.0
H1830 H 0.32915 0.87536 0.2158 0.0
H1831 H 0.30789 0.84394 0.22134 0.0
H1832 H 0.29832 0.85347 0.24977 0.0
H1833 H 0.3102 0.82969 0.24918 0.0
H1834 H 0.37153 0.8322 0.30667 0.0
H1835 H 0.35096 0.84416 0.34112 0.0
H1836 H 0.30976 0.86979 0.28925 0.0
C1837 C 0.35026 0.83499 0.21341 0.0
C1838 C 0.3662 0.82204 0.20877 0.0
C1839 C 0.3794 0.81738 0.2281 0.0
C1840 C 0.37627 0.82471 0.25192 0.0
C1841 C 0.36008 0.83698 0.25602 0.0
C1842 C 0.34749 0.84238 0.23721 0.0
C1843 C 0.33053 0.85479 0.24678 0.0
C1844 C 0.33131 0.87575 0.23604 0.0
C1845 C 0.31056 0.84487 0.24146 0.0
C1846 C 0.33511 0.85487 0.27405 0.0
C1847 C 0.35226 0.84454 0.27898 0.0
C1848 C 0.35839 0.84078 0.30299 0.0
C1849 C 0.34661 0.84757 0.32243 0.0
C1850 C 0.32906 0.85823 0.31777 0.0
C1851 C 0.32346 0.86223 0.29328 0.0
H1852 H 0.19588 0.64401 0.79361 0.0
H1853 H 0.15526 0.6706 0.84537 0.0
H1854 H 0.13502 0.68305 0.81085 0.0
H1855 H 0.19631 0.68409 0.75355 0.0
H1856 H 0.19837 0.66981 0.72573 0.0
H1857 H 0.20768 0.66006 0.7542 0.0
H1858 H 0.18593 0.62894 0.7489 0.0
H1859 H 0.17655 0.63861 0.72033 0.0
H1860 H 0.15972 0.63167 0.74446 0.0
H1861 H 0.12058 0.6947 0.77083 0.0
H1862 H 0.11474 0.70723 0.72883 0.0
H1863 H 0.16612 0.67515 0.70307 0.0
C1864 C 0.18238 0.65193 0.7976 0.0
C1865 C 0.17684 0.65601 0.8221 0.0
C1866 C 0.15957 0.66712 0.8267 0.0
C1867 C 0.14796 0.67419 0.80721 0.0
C1868 C 0.154 0.67026 0.7832 0.0
C1869 C 0.1709 0.65952 0.77832 0.0
C1870 C 0.17544 0.65944 0.75102 0.0
C1871 C 0.19564 0.66892 0.74583 0.0
C1872 C 0.17434 0.63841 0.74056 0.0
C1873 C 0.15871 0.67214 0.74139 0.0
C1874 C 0.14626 0.67786 0.76018 0.0
C1875 C 0.13015 0.69019 0.75594 0.0
C1876 C 0.12691 0.6972 0.73198 0.0
C1877 C 0.13993 0.69217 0.71261 0.0
C1878 C 0.15582 0.67918 0.71742 0.0
H1879 H 0.34639 0.16669 0.7006 0.0
H1880 H 0.31672 0.11415 0.7272 0.0
H1881 H 0.32863 0.12117 0.76914 0.0
H1882 H 0.38973 0.16384 0.74399 0.0
H1883 H 0.39046 0.19029 0.74722 0.0
H1884 H 0.38234 0.1794 0.71873 0.0
H1885 H 0.3497 0.19913 0.72157 0.0
H1886 H 0.35758 0.20991 0.7501 0.0
H1887 H 0.33453 0.19673 0.74861 0.0
H1888 H 0.33823 0.13712 0.80882 0.0
H1889 H 0.34748 0.15931 0.84298 0.0
H1890 H 0.37275 0.20053 0.79092 0.0
C1891 C 0.34293 0.1563 0.71509 0.0
C1892 C 0.33066 0.13981 0.71056 0.0
C1893 C 0.32621 0.12678 0.73013 0.0
C1894 C 0.3329 0.13066 0.75406 0.0
C1895 C 0.34432 0.14746 0.75807 0.0
C1896 C 0.34965 0.15987 0.73905 0.0
C1897 C 0.36075 0.17774 0.74856 0.0
C1898 C 0.38209 0.17781 0.73906 0.0
C1899 C 0.34999 0.197 0.74181 0.0
C1900 C 0.36006 0.17389 0.77599 0.0
C1901 C 0.35059 0.15628 0.78107 0.0
C1902 C 0.34617 0.15063 0.80508 0.0
C1903 C 0.3514 0.16334 0.82435 0.0
C1904 C 0.36116 0.18138 0.81955 0.0
C1905 C 0.36587 0.18651 0.7951 0.0
H1906 H 0.84235 0.33468 0.69983 0.0
H1907 H 0.8943 0.30469 0.72769 0.0
H1908 H 0.88806 0.31865 0.76889 0.0
H1909 H 0.84766 0.37981 0.73872 0.0
H1910 H 0.82136 0.38208 0.74266 0.0
H1911 H 0.8312 0.37156 0.71481 0.0
H1912 H 0.81011 0.34019 0.72165 0.0
H1913 H 0.8003 0.35053 0.74951 0.0
H1914 H 0.81233 0.32682 0.75017 0.0
H1915 H 0.87324 0.3314 0.80806 0.0
H1916 H 0.85248 0.34446 0.84173 0.0
H1917 H 0.81152 0.36831 0.7883 0.0
C1918 C 0.85268 0.33142 0.71446 0.0
C1919 C 0.86885 0.3186 0.71051 0.0
C1920 C 0.88191 0.31458 0.7302 0.0
C1921 C 0.87846 0.32242 0.75369 0.0
C1922 C 0.8621 0.33458 0.75711 0.0
C1923 C 0.84961 0.33936 0.73794 0.0
C1924 C 0.83252 0.35196 0.74676 0.0
C1925 C 0.83324 0.37258 0.73504 0.0
C1926 C 0.81265 0.34176 0.74173 0.0
C1927 C 0.83693 0.3529 0.77405 0.0
C1928 C 0.85408 0.34278 0.77963 0.0
C1929 C 0.8601 0.33982 0.80386 0.0
C1930 C 0.84822 0.34723 0.82285 0.0
C1931 C 0.8307 0.35774 0.81752 0.0
C1932 C 0.82519 0.36089 0.7928 0.0
H1933 H 0.66484 0.84511 0.70044 0.0
H1934 H 0.69577 0.89722 0.72611 0.0
H1935 H 0.68325 0.89128 0.76802 0.0
H1936 H 0.62119 0.85 0.74296 0.0
H1937 H 0.61964 0.82364 0.74693 0.0
H1938 H 0.62837 0.83377 0.71829 0.0
H1939 H 0.66038 0.81315 0.72226 0.0
H1940 H 0.65187 0.80312 0.75094 0.0
H1941 H 0.67532 0.81558 0.74951 0.0
H1942 H 0.6728 0.87634 0.80795 0.0
H1943 H 0.66262 0.85501 0.84255 0.0
H1944 H 0.63663 0.81365 0.79122 0.0
C1945 C 0.66847 0.85564 0.71471 0.0
C1946 C 0.68125 0.87168 0.70994 0.0
C1947 C 0.6859 0.88492 0.72922 0.0
C1948 C 0.67886 0.88166 0.75313 0.0
C1949 C 0.66691 0.86528 0.7574 0.0
C1950 C 0.66142 0.85269 0.73864 0.0
C1951 C 0.64969 0.83533 0.74845 0.0
C1952 C 0.62846 0.83572 0.73857 0.0
C1953 C 0.65994 0.81564 0.74243 0.0
C1954 C 0.65021 0.83965 0.77577 0.0
C1955 C 0.66014 0.85706 0.78053 0.0
C1956 C 0.6645 0.86301 0.80445 0.0
C1957 C 0.65874 0.85078 0.82397 0.0
C1958 C 0.64851 0.83296 0.8195 0.0
C1959 C 0.64386 0.82754 0.79512 0.0
H1960 H 0.87335 0.69855 0.72828 0.0
H1961 H 0.85118 0.6521 0.68109 0.0
H1962 H 0.83946 0.63379 0.71759 0.0
H1963 H 0.88693 0.66717 0.78244 0.0
H1964 H 0.87824 0.68544 0.80392 0.0
H1965 H 0.88821 0.69299 0.77469 0.0
H1966 H 0.85604 0.71222 0.76538 0.0
H1967 H 0.84594 0.70465 0.79443 0.0
H1968 H 0.83274 0.69944 0.76642 0.0
H1969 H 0.82707 0.62227 0.75866 0.0
H1970 H 0.81341 0.61927 0.80054 0.0
H1971 H 0.84188 0.67422 0.82091 0.0
C1972 C 0.8667 0.68417 0.72576 0.0
C1973 C 0.86356 0.67648 0.70194 0.0
C1974 C 0.85399 0.65806 0.69923 0.0
C1975 C 0.84732 0.64757 0.71986 0.0
C1976 C 0.85012 0.65579 0.74309 0.0
C1977 C 0.85956 0.67371 0.74616 0.0
C1978 C 0.8585 0.68048 0.77271 0.0
C1979 C 0.8792 0.68158 0.78411 0.0
C1980 C 0.84766 0.70036 0.77484 0.0
C1981 C 0.84656 0.66385 0.78394 0.0
C1982 C 0.84222 0.64956 0.76666 0.0
C1983 C 0.83057 0.63325 0.77241 0.0
C1984 C 0.82287 0.63168 0.79629 0.0
C1985 C 0.82659 0.64646 0.81409 0.0
C1986 C 0.83888 0.66257 0.80783 0.0
H1987 H 0.33909 0.83736 0.82016 0.0
H1988 H 0.39127 0.80701 0.79368 0.0
H1989 H 0.38557 0.82068 0.75222 0.0
H1990 H 0.30967 0.82915 0.76947 0.0
H1991 H 0.29768 0.85288 0.76952 0.0
H1992 H 0.30716 0.84281 0.79773 0.0
H1993 H 0.32824 0.87422 0.80442 0.0
H1994 H 0.31873 0.88447 0.77622 0.0
H1995 H 0.34497 0.88219 0.78067 0.0
H1996 H 0.37122 0.83302 0.71262 0.0
H1997 H 0.35076 0.8456 0.67836 0.0
H1998 H 0.30928 0.87011 0.73063 0.0
C1999 C 0.34959 0.83397 0.80578 0.0
C2000 C 0.36565 0.82112 0.81019 0.0
C2001 C 0.37895 0.81692 0.79081 0.0
C2002 C 0.37582 0.82461 0.76717 0.0
C2003 C 0.35954 0.83679 0.76329 0.0
C2004 C 0.34684 0.84176 0.78216 0.0
C2005 C 0.32987 0.85429 0.77283 0.0
C2006 C 0.30992 0.84417 0.77767 0.0
C2007 C 0.3305 0.87502 0.78421 0.0
C2008 C 0.33458 0.85494 0.74561 0.0
C2009 C 0.35179 0.84477 0.74051 0.0
C2010 C 0.35804 0.84149 0.71644 0.0
C2011 C 0.34633 0.84863 0.69711 0.0
C2012 C 0.32875 0.85917 0.70195 0.0
C2013 C 0.32302 0.86266 0.72651 0.0
H2014 H 0.16265 0.34369 0.70306 0.0
H2015 H 0.1128 0.30864 0.72734 0.0
H2016 H 0.11809 0.32023 0.76984 0.0
H2017 H 0.19301 0.33372 0.75171 0.0
H2018 H 0.20388 0.35791 0.75407 0.0
H2019 H 0.19437 0.3495 0.72507 0.0
H2020 H 0.17168 0.38017 0.72242 0.0
H2021 H 0.18126 0.38881 0.75139 0.0
H2022 H 0.15507 0.38561 0.74738 0.0
H2023 H 0.1324 0.33072 0.81034 0.0
H2024 H 0.15296 0.34168 0.84532 0.0
H2025 H 0.19236 0.37155 0.79489 0.0
C2026 C 0.15246 0.33892 0.71717 0.0
C2027 C 0.13725 0.32529 0.7118 0.0
C2028 C 0.12444 0.3192 0.7309 0.0
C2029 C 0.12735 0.32568 0.75515 0.0
C2030 C 0.14294 0.33854 0.75996 0.0
C2031 C 0.15506 0.3454 0.74142 0.0
C2032 C 0.1716 0.35801 0.75169 0.0
C2033 C 0.19191 0.34925 0.74525 0.0
C2034 C 0.16979 0.37942 0.74269 0.0
C2035 C 0.16739 0.35649 0.77899 0.0
C2036 C 0.15074 0.34525 0.78336 0.0
C2037 C 0.14513 0.33999 0.80713 0.0
C2038 C 0.15692 0.34621 0.82688 0.0
C2039 C 0.17398 0.35777 0.8228 0.0
C2040 C 0.17904 0.36326 0.79856 0.0
H2041 H 0.7073 0.17154 0.71822 0.0
H2042 H 0.66481 0.12564 0.70226 0.0
H2043 H 0.64654 0.13408 0.74051 0.0
H2044 H 0.70901 0.16211 0.78368 0.0
H2045 H 0.71237 0.18774 0.79142 0.0
H2046 H 0.72129 0.17845 0.76248 0.0
H2047 H 0.701 0.20505 0.7394 0.0
H2048 H 0.69199 0.21441 0.76825 0.0
H2049 H 0.67483 0.20686 0.74477 0.0
H2050 H 0.63169 0.14999 0.77936 0.0
H2051 H 0.62425 0.16848 0.81774 0.0
H2052 H 0.67908 0.20062 0.81006 0.0
C2053 C 0.69411 0.16331 0.72282 0.0
C2054 C 0.6872 0.14816 0.70733 0.0
C2055 C 0.67018 0.13737 0.71399 0.0
C2056 C 0.65975 0.14211 0.73558 0.0
C2057 C 0.66691 0.15729 0.7505 0.0
C2058 C 0.68397 0.16741 0.74458 0.0
C2059 C 0.68924 0.18238 0.76412 0.0
C2060 C 0.70916 0.17736 0.77614 0.0
C2061 C 0.68926 0.20342 0.7535 0.0
C2062 C 0.67235 0.17939 0.78186 0.0
C2063 C 0.65939 0.16511 0.77357 0.0
C2064 C 0.64196 0.1609 0.78622 0.0
C2065 C 0.63781 0.17145 0.80791 0.0
C2066 C 0.65131 0.1856 0.81697 0.0
C2067 C 0.66877 0.1895 0.80379 0.0
H2068 H 0.81279 0.37137 0.22985 0.0
H2069 H 0.85463 0.34566 0.17894 0.0
H2070 H 0.87498 0.33412 0.21384 0.0
H2071 H 0.84829 0.38499 0.2796 0.0
H2072 H 0.83138 0.37769 0.30347 0.0
H2073 H 0.82208 0.38709 0.27471 0.0
H2074 H 0.80112 0.35545 0.26915 0.0
H2075 H 0.81036 0.34596 0.29779 0.0
H2076 H 0.81307 0.33169 0.27005 0.0
H2077 H 0.88918 0.32285 0.25402 0.0
H2078 H 0.89463 0.31017 0.29602 0.0
H2079 H 0.84232 0.34118 0.32089 0.0
C2080 C 0.82659 0.36389 0.22614 0.0
C2081 C 0.83243 0.35975 0.20178 0.0
C2082 C 0.8501 0.34918 0.19751 0.0
C2083 C 0.86176 0.34265 0.21721 0.0
C2084 C 0.85541 0.34656 0.24108 0.0
C2085 C 0.83815 0.35683 0.24564 0.0
C2086 C 0.83331 0.35684 0.27286 0.0
C2087 C 0.8338 0.37791 0.28327 0.0
C2088 C 0.81329 0.34689 0.27774 0.0
C2089 C 0.85024 0.34458 0.28279 0.0
C2090 C 0.86307 0.33919 0.26424 0.0
C2091 C 0.87935 0.32714 0.26874 0.0
C2092 C 0.88234 0.32003 0.29269 0.0
C2093 C 0.86894 0.3247 0.31178 0.0
C2094 C 0.85292 0.33746 0.30675 0.0
H2095 H 0.66903 0.83622 0.2006 0.0
H2096 H 0.61771 0.80472 0.22753 0.0
H2097 H 0.62371 0.81799 0.26912 0.0
H2098 H 0.69919 0.82763 0.25038 0.0
H2099 H 0.71091 0.85149 0.25061 0.0
H2100 H 0.70115 0.84174 0.22239 0.0
H2101 H 0.67961 0.87301 0.21688 0.0
H2102 H 0.68942 0.88294 0.24508 0.0
H2103 H 0.66314 0.88045 0.24117 0.0
H2104 H 0.63837 0.83008 0.30865 0.0
H2105 H 0.65915 0.84237 0.34272 0.0
H2106 H 0.69971 0.86796 0.29011 0.0
C2107 C 0.65876 0.83251 0.21511 0.0
C2108 C 0.64286 0.81944 0.21079 0.0
C2109 C 0.62989 0.8148 0.23033 0.0
C2110 C 0.63319 0.82226 0.25404 0.0
C2111 C 0.64933 0.83464 0.25783 0.0
C2112 C 0.66171 0.84003 0.23881 0.0
C2113 C 0.67866 0.8526 0.24804 0.0
C2114 C 0.69865 0.84277 0.24253 0.0
C2115 C 0.67764 0.87349 0.23714 0.0
C2116 C 0.67433 0.85279 0.27537 0.0
C2117 C 0.6573 0.84238 0.28061 0.0
C2118 C 0.65142 0.83872 0.30473 0.0
C2119 C 0.66332 0.84569 0.32395 0.0
C2120 C 0.68075 0.85643 0.31897 0.0
C2121 C 0.6861 0.86033 0.29437 0.0
H2122 H 0.13873 0.70053 0.29074 0.0
H2123 H 0.16409 0.65685 0.33955 0.0
H2124 H 0.17482 0.63718 0.30367 0.0
H2125 H 0.12379 0.66665 0.2399 0.0
H2126 H 0.13119 0.684 0.21655 0.0
H2127 H 0.12236 0.69278 0.24582 0.0
H2128 H 0.15452 0.71287 0.25158 0.0
H2129 H 0.16344 0.70415 0.22242 0.0
H2130 H 0.17797 0.70042 0.24979 0.0
H2131 H 0.18523 0.62375 0.26278 0.0
H2132 H 0.19712 0.61894 0.22036 0.0
H2133 H 0.16712 0.67258 0.19795 0.0
C2134 C 0.14596 0.68649 0.29378 0.0
C2135 C 0.15022 0.67991 0.31784 0.0
C2136 C 0.16047 0.66194 0.32122 0.0
C2137 C 0.16655 0.65067 0.30096 0.0
C2138 C 0.16252 0.65773 0.27741 0.0
C2139 C 0.15257 0.6753 0.27371 0.0
C2140 C 0.15235 0.68082 0.24668 0.0
C2141 C 0.13116 0.68107 0.23665 0.0
C2142 C 0.16269 0.70074 0.24238 0.0
C2143 C 0.1641 0.66388 0.23586 0.0
C2144 C 0.16943 0.65049 0.25384 0.0
C2145 C 0.181 0.63404 0.24851 0.0
C2146 C 0.18767 0.63142 0.22432 0.0
C2147 C 0.18305 0.64535 0.20576 0.0
C2148 C 0.17079 0.66158 0.21164 0.0
H2149 H 0.3134 0.14308 0.29038 0.0
H2150 H 0.35613 0.16617 0.3421 0.0
H2151 H 0.37666 0.17808 0.30759 0.0
H2152 H 0.34835 0.12993 0.23974 0.0
H2153 H 0.3315 0.13837 0.21637 0.0
H2154 H 0.32212 0.12836 0.24475 0.0
H2155 H 0.30199 0.16033 0.25191 0.0
H2156 H 0.31133 0.17045 0.22367 0.0
H2157 H 0.31452 0.18379 0.25205 0.0
H2158 H 0.39093 0.19016 0.26787 0.0
H2159 H 0.39653 0.20387 0.22642 0.0
H2160 H 0.3433 0.17502 0.20055 0.0
C2161 C 0.32743 0.15003 0.29432 0.0
C2162 C 0.33348 0.15335 0.3188 0.0
C2163 C 0.35145 0.16327 0.32341 0.0
C2164 C 0.3632 0.17002 0.30393 0.0
C2165 C 0.35664 0.16696 0.27995 0.0
C2166 C 0.3391 0.1573 0.27506 0.0
C2167 C 0.33411 0.15823 0.24791 0.0
C2168 C 0.33402 0.13748 0.23652 0.0
C2169 C 0.31432 0.16883 0.24365 0.0
C2170 C 0.35129 0.17034 0.23842 0.0
C2171 C 0.36435 0.17483 0.2571 0.0
C2172 C 0.38091 0.18658 0.25304 0.0
C2173 C 0.38398 0.19429 0.22941 0.0
C2174 C 0.37038 0.19052 0.21021 0.0
C2175 C 0.35404 0.17808 0.21478 0.0
loop_
_geom_bond_atom_site_label_1
_geom_bond_atom_site_label_2
_geom_bond_distance
_geom_bond_site_symmetry_2
_ccdc_geom_bond_type
O0 Cd1 2.223 . S
O0 C8 1.315 . S
Cd1 O0 2.223 . S
Cd1 O4 2.297 . S
Cd1 O5 2.439 . S
Cd1 O11 2.240 . S
Cd2 O3 2.240 . S
Cd2 O10 2.223 . S
Cd2 O12 2.297 . S
Cd2 O13 2.439 . S
O3 Cd2 2.240 . S
O3 C8 1.279 . S
O4 Cd1 2.297 . S
O4 C6 1.247 . S
O5 Cd1 2.439 . S
O5 C6 1.208 . S
C6 O4 1.247 . S
C6 O5 1.208 . S
C7 O12 1.247 . S
C7 O13 1.208 . S
C8 O0 1.315 . S
C8 O3 1.279 . S
C9 O10 1.315 . S
C9 O11 1.279 . S
O10 Cd2 2.223 . S
O10 C9 1.315 . S
O11 Cd1 2.240 . S
O11 C9 1.279 . S
O12 Cd2 2.297 . S
O12 C7 1.247 . S
O13 Cd2 2.439 . S
O13 C7 1.208 . S
O14 Cd15 2.223 . S
O14 C22 1.315 . S
Cd15 O14 2.223 . S
Cd15 O18 2.297 . S
Cd15 O19 2.439 . S
Cd15 O25 2.240 . S
Cd16 O17 2.240 . S
Cd16 O24 2.223 . S
Cd16 O26 2.297 . S
Cd16 O27 2.439 . S
O17 Cd16 2.240 . S
O17 C22 1.279 . S
O18 Cd15 2.297 . S
O18 C20 1.247 . S
O19 Cd15 2.439 . S
O19 C20 1.208 . S
C20 O18 1.247 . S
C20 O19 1.208 . S
C21 O26 1.247 . S
C21 O27 1.208 . S
C22 O14 1.315 . S
C22 O17 1.279 . S
C23 O24 1.315 . S
C23 O25 1.279 . S
O24 Cd16 2.223 . S
O24 C23 1.315 . S
O25 Cd15 2.240 . S
O25 C23 1.279 . S
O26 Cd16 2.297 . S
O26 C21 1.247 . S
O27 Cd16 2.439 . S
O27 C21 1.208 . S
O28 Cd29 2.223 . S
O28 C36 1.315 . S
Cd29 O28 2.223 . S
Cd29 O32 2.297 . S
Cd29 O33 2.439 . S
Cd29 O39 2.240 . S
Cd30 O31 2.240 . S
Cd30 O38 2.223 . S
Cd30 O40 2.297 . S
Cd30 O41 2.439 . S
O31 Cd30 2.240 . S
O31 C36 1.279 . S
O32 Cd29 2.297 . S
O32 C34 1.247 . S
O33 Cd29 2.439 . S
O33 C34 1.208 . S
C34 O32 1.247 . S
C34 O33 1.208 . S
C35 O40 1.247 . S
C35 O41 1.208 . S
C36 O28 1.315 . S
C36 O31 1.279 . S
C37 O38 1.315 . S
C37 O39 1.279 . S
O38 Cd30 2.223 . S
O38 C37 1.315 . S
O39 Cd29 2.240 . S
O39 C37 1.279 . S
O40 Cd30 2.297 . S
O40 C35 1.247 . S
O41 Cd30 2.439 . S
O41 C35 1.208 . S
O42 Cd43 2.223 . S
O42 C50 1.315 . S
Cd43 O42 2.223 . S
Cd43 O46 2.297 . S
Cd43 O47 2.439 . S
Cd43 O53 2.240 . S
Cd44 O45 2.240 . S
Cd44 O52 2.223 . S
Cd44 O54 2.297 . S
Cd44 O55 2.439 . S
O45 Cd44 2.240 . S
O45 C50 1.279 . S
O46 Cd43 2.297 . S
O46 C48 1.247 . S
O47 Cd43 2.439 . S
O47 C48 1.208 . S
C48 O46 1.247 . S
C48 O47 1.208 . S
C49 O54 1.247 . S
C49 O55 1.208 . S
C50 O42 1.315 . S
C50 O45 1.279 . S
C51 O52 1.315 . S
C51 O53 1.279 . S
O52 Cd44 2.223 . S
O52 C51 1.315 . S
O53 Cd43 2.240 . S
O53 C51 1.279 . S
O54 Cd44 2.297 . S
O54 C49 1.247 . S
O55 Cd44 2.439 . S
O55 C49 1.208 . S
O56 Cd57 2.223 . S
O56 C64 1.315 . S
Cd57 O56 2.223 . S
Cd57 O60 2.297 . S
Cd57 O61 2.439 . S
Cd57 O67 2.240 . S
Cd58 O59 2.240 . S
Cd58 O66 2.223 . S
Cd58 O68 2.297 . S
Cd58 O69 2.439 . S
O59 Cd58 2.240 . S
O59 C64 1.279 . S
O60 Cd57 2.297 . S
O60 C62 1.247 . S
O61 Cd57 2.439 . S
O61 C62 1.208 . S
C62 O60 1.247 . S
C62 O61 1.208 . S
C63 O68 1.247 . S
C63 O69 1.208 . S
C64 O56 1.315 . S
C64 O59 1.279 . S
C65 O66 1.315 . S
C65 O67 1.279 . S
O66 Cd58 2.223 . S
O66 C65 1.315 . S
O67 Cd57 2.240 . S
O67 C65 1.279 . S
O68 Cd58 2.297 . S
O68 C63 1.247 . S
O69 Cd58 2.439 . S
O69 C63 1.208 . S
O70 Cd71 2.223 . S
O70 C78 1.315 . S
Cd71 O70 2.223 . S
Cd71 O74 2.297 . S
Cd71 O75 2.439 . S
Cd71 O81 2.240 . S
Cd72 O73 2.240 . S
Cd72 O80 2.223 . S
Cd72 O82 2.297 . S
Cd72 O83 2.439 . S
O73 Cd72 2.240 . S
O73 C78 1.279 . S
O74 Cd71 2.297 . S
O74 C76 1.247 . S
O75 Cd71 2.439 . S
O75 C76 1.208 . S
C76 O74 1.247 . S
C76 O75 1.208 . S
C77 O82 1.247 . S
C77 O83 1.208 . S
C78 O70 1.315 . S
C78 O73 1.279 . S
C79 O80 1.315 . S
C79 O81 1.279 . S
O80 Cd72 2.223 . S
O80 C79 1.315 . S
O81 Cd71 2.240 . S
O81 C79 1.279 . S
O82 Cd72 2.297 . S
O82 C77 1.247 . S
O83 Cd72 2.439 . S
O83 C77 1.208 . S
O84 Cd85 2.223 . S
O84 C92 1.315 . S
Cd85 O84 2.223 . S
Cd85 O88 2.297 . S
Cd85 O89 2.439 . S
Cd85 O95 2.240 . S
Cd86 O87 2.240 . S
Cd86 O94 2.223 . S
Cd86 O96 2.297 . S
Cd86 O97 2.439 . S
O87 Cd86 2.240 . S
O87 C92 1.279 . S
O88 Cd85 2.297 . S
O88 C90 1.247 . S
O89 Cd85 2.439 . S
O89 C90 1.208 . S
C90 O88 1.247 . S
C90 O89 1.208 . S
C91 O96 1.247 . S
C91 O97 1.208 . S
C92 O84 1.315 . S
C92 O87 1.279 . S
C93 O94 1.315 . S
C93 O95 1.279 . S
O94 Cd86 2.223 . S
O94 C93 1.315 . S
O95 Cd85 2.240 . S
O95 C93 1.279 . S
O96 Cd86 2.297 . S
O96 C91 1.247 . S
O97 Cd86 2.439 . S
O97 C91 1.208 . S
O98 Cd99 2.223 . S
O98 C106 1.315 . S
Cd99 O98 2.223 . S
Cd99 O102 2.297 . S
Cd99 O103 2.439 . S
Cd99 O109 2.240 . S
Cd100 O101 2.240 . S
Cd100 O108 2.223 . S
Cd100 O110 2.297 . S
Cd100 O111 2.439 . S
O101 Cd100 2.240 . S
O101 C106 1.279 . S
O102 Cd99 2.297 . S
O102 C104 1.247 . S
O103 Cd99 2.439 . S
O103 C104 1.208 . S
C104 O102 1.247 . S
C104 O103 1.208 . S
C105 O110 1.247 . S
C105 O111 1.208 . S
C106 O98 1.315 . S
C106 O101 1.279 . S
C107 O108 1.315 . S
C107 O109 1.279 . S
O108 Cd100 2.223 . S
O108 C107 1.315 . S
O109 Cd99 2.240 . S
O109 C107 1.279 . S
O110 Cd100 2.297 . S
O110 C105 1.247 . S
O111 Cd100 2.439 . S
O111 C105 1.208 . S
O112 Cd113 2.223 . S
O112 C120 1.315 . S
Cd113 O112 2.223 . S
Cd113 O116 2.297 . S
Cd113 O117 2.439 . S
Cd113 O123 2.240 . S
Cd114 O115 2.240 . S
Cd114 O122 2.223 . S
Cd114 O124 2.297 . S
Cd114 O125 2.439 . S
O115 Cd114 2.240 . S
O115 C120 1.279 . S
O116 Cd113 2.297 . S
O116 C118 1.247 . S
O117 Cd113 2.439 . S
O117 C118 1.208 . S
C118 O116 1.247 . S
C118 O117 1.208 . S
C119 O124 1.247 . S
C119 O125 1.208 . S
C120 O112 1.315 . S
C120 O115 1.279 . S
C121 O122 1.315 . S
C121 O123 1.279 . S
O122 Cd114 2.223 . S
O122 C121 1.315 . S
O123 Cd113 2.240 . S
O123 C121 1.279 . S
O124 Cd114 2.297 . S
O124 C119 1.247 . S
O125 Cd114 2.439 . S
O125 C119 1.208 . S
O126 Cd127 2.223 . S
O126 C134 1.315 . S
Cd127 O126 2.223 . S
Cd127 O130 2.297 . S
Cd127 O131 2.439 . S
Cd127 O137 2.240 . S
Cd128 O129 2.240 . S
Cd128 O136 2.223 . S
Cd128 O138 2.297 . S
Cd128 O139 2.439 . S
O129 Cd128 2.240 . S
O129 C134 1.279 . S
O130 Cd127 2.297 . S
O130 C132 1.247 . S
O131 Cd127 2.439 . S
O131 C132 1.208 . S
C132 O130 1.247 . S
C132 O131 1.208 . S
C133 O138 1.247 . S
C133 O139 1.208 . S
C134 O126 1.315 . S
C134 O129 1.279 . S
C135 O136 1.315 . S
C135 O137 1.279 . S
O136 Cd128 2.223 . S
O136 C135 1.315 . S
O137 Cd127 2.240 . S
O137 C135 1.279 . S
O138 Cd128 2.297 . S
O138 C133 1.247 . S
O139 Cd128 2.439 . S
O139 C133 1.208 . S
O140 Cd141 2.223 . S
O140 C148 1.315 . S
Cd141 O140 2.223 . S
Cd141 O144 2.297 . S
Cd141 O145 2.439 . S
Cd141 O151 2.240 . S
Cd142 O143 2.240 . S
Cd142 O150 2.223 . S
Cd142 O152 2.297 . S
Cd142 O153 2.439 . S
O143 Cd142 2.240 . S
O143 C148 1.279 . S
O144 Cd141 2.297 . S
O144 C146 1.247 . S
O145 Cd141 2.439 . S
O145 C146 1.208 . S
C146 O144 1.247 . S
C146 O145 1.208 . S
C147 O152 1.247 . S
C147 O153 1.208 . S
C148 O140 1.315 . S
C148 O143 1.279 . S
C149 O150 1.315 . S
C149 O151 1.279 . S
O150 Cd142 2.223 . S
O150 C149 1.315 . S
O151 Cd141 2.240 . S
O151 C149 1.279 . S
O152 Cd142 2.297 . S
O152 C147 1.247 . S
O153 Cd142 2.439 . S
O153 C147 1.208 . S
O154 Cd155 2.223 . S
O154 C162 1.315 . S
Cd155 O154 2.223 . S
Cd155 O158 2.297 . S
Cd155 O159 2.439 . S
Cd155 O165 2.240 . S
Cd156 O157 2.240 . S
Cd156 O164 2.223 . S
Cd156 O166 2.297 . S
Cd156 O167 2.439 . S
O157 Cd156 2.240 . S
O157 C162 1.279 . S
O158 Cd155 2.297 . S
O158 C160 1.247 . S
O159 Cd155 2.439 . S
O159 C160 1.208 . S
C160 O158 1.247 . S
C160 O159 1.208 . S
C161 O166 1.247 . S
C161 O167 1.208 . S
C162 O154 1.315 . S
C162 O157 1.279 . S
C163 O164 1.315 . S
C163 O165 1.279 . S
O164 Cd156 2.223 . S
O164 C163 1.315 . S
O165 Cd155 2.240 . S
O165 C163 1.279 . S
O166 Cd156 2.297 . S
O166 C161 1.247 . S
O167 Cd156 2.439 . S
O167 C161 1.208 . S
O168 Cd169 2.223 . S
O168 C176 1.315 . S
Cd169 O168 2.223 . S
Cd169 O172 2.297 . S
Cd169 O173 2.439 . S
Cd169 O179 2.240 . S
Cd170 O171 2.240 . S
Cd170 O178 2.223 . S
Cd170 O180 2.297 . S
Cd170 O181 2.439 . S
O171 Cd170 2.240 . S
O171 C176 1.279 . S
O172 Cd169 2.297 . S
O172 C174 1.247 . S
O173 Cd169 2.439 . S
O173 C174 1.208 . S
C174 O172 1.247 . S
C174 O173 1.208 . S
C175 O180 1.247 . S
C175 O181 1.208 . S
C176 O168 1.315 . S
C176 O171 1.279 . S
C177 O178 1.315 . S
C177 O179 1.279 . S
O178 Cd170 2.223 . S
O178 C177 1.315 . S
O179 Cd169 2.240 . S
O179 C177 1.279 . S
O180 Cd170 2.297 . S
O180 C175 1.247 . S
O181 Cd170 2.439 . S
O181 C175 1.208 . S
O182 Cd183 2.223 . S
O182 C190 1.315 . S
Cd183 O182 2.223 . S
Cd183 O186 2.297 . S
Cd183 O187 2.439 . S
Cd183 O193 2.240 . S
Cd184 O185 2.240 . S
Cd184 O192 2.223 . S
Cd184 O194 2.297 . S
Cd184 O195 2.439 . S
O185 Cd184 2.240 . S
O185 C190 1.279 . S
O186 Cd183 2.297 . S
O186 C188 1.247 . S
O187 Cd183 2.439 . S
O187 C188 1.208 . S
C188 O186 1.247 . S
C188 O187 1.208 . S
C189 O194 1.247 . S
C189 O195 1.208 . S
C190 O182 1.315 . S
C190 O185 1.279 . S
C191 O192 1.315 . S
C191 O193 1.279 . S
O192 Cd184 2.223 . S
O192 C191 1.315 . S
O193 Cd183 2.240 . S
O193 C191 1.279 . S
O194 Cd184 2.297 . S
O194 C189 1.247 . S
O195 Cd184 2.439 . S
O195 C189 1.208 . S
O196 Cd197 2.223 . S
O196 C204 1.315 . S
Cd197 O196 2.223 . S
Cd197 O200 2.297 . S
Cd197 O201 2.439 . S
Cd197 O207 2.240 . S
Cd198 O199 2.240 . S
Cd198 O206 2.223 . S
Cd198 O208 2.297 . S
Cd198 O209 2.439 . S
O199 Cd198 2.240 . S
O199 C204 1.279 . S
O200 Cd197 2.297 . S
O200 C202 1.247 . S
O201 Cd197 2.439 . S
O201 C202 1.208 . S
C202 O200 1.247 . S
C202 O201 1.208 . S
C203 O208 1.247 . S
C203 O209 1.208 . S
C204 O196 1.315 . S
C204 O199 1.279 . S
C205 O206 1.315 . S
C205 O207 1.279 . S
O206 Cd198 2.223 . S
O206 C205 1.315 . S
O207 Cd197 2.240 . S
O207 C205 1.279 . S
O208 Cd198 2.297 . S
O208 C203 1.247 . S
O209 Cd198 2.439 . S
O209 C203 1.208 . S
O210 Cd211 2.223 . S
O210 C218 1.315 . S
Cd211 O210 2.223 . S
Cd211 O214 2.297 . S
Cd211 O215 2.439 . S
Cd211 O221 2.240 . S
Cd212 O213 2.240 . S
Cd212 O220 2.223 . S
Cd212 O222 2.297 . S
Cd212 O223 2.439 . S
O213 Cd212 2.240 . S
O213 C218 1.279 . S
O214 Cd211 2.297 . S
O214 C216 1.247 . S
O215 Cd211 2.439 . S
O215 C216 1.208 . S
C216 O214 1.247 . S
C216 O215 1.208 . S
C217 O222 1.247 . S
C217 O223 1.208 . S
C218 O210 1.315 . S
C218 O213 1.279 . S
C219 O220 1.315 . S
C219 O221 1.279 . S
O220 Cd212 2.223 . S
O220 C219 1.315 . S
O221 Cd211 2.240 . S
O221 C219 1.279 . S
O222 Cd212 2.297 . S
O222 C217 1.247 . S
O223 Cd212 2.439 . S
O223 C217 1.208 . S
O224 Cd225 2.223 . S
O224 C232 1.315 . S
Cd225 O224 2.223 . S
Cd225 O228 2.297 . S
Cd225 O229 2.439 . S
Cd225 O235 2.240 . S
Cd226 O227 2.240 . S
Cd226 O234 2.223 . S
Cd226 O236 2.297 . S
Cd226 O237 2.439 . S
O227 Cd226 2.240 . S
O227 C232 1.279 . S
O228 Cd225 2.297 . S
O228 C230 1.247 . S
O229 Cd225 2.439 . S
O229 C230 1.208 . S
C230 O228 1.247 . S
C230 O229 1.208 . S
C231 O236 1.247 . S
C231 O237 1.208 . S
C232 O224 1.315 . S
C232 O227 1.279 . S
C233 O234 1.315 . S
C233 O235 1.279 . S
O234 Cd226 2.223 . S
O234 C233 1.315 . S
O235 Cd225 2.240 . S
O235 C233 1.279 . S
O236 Cd226 2.297 . S
O236 C231 1.247 . S
O237 Cd226 2.439 . S
O237 C231 1.208 . S
O238 Cd239 2.223 . S
O238 C246 1.315 . S
Cd239 O238 2.223 . S
Cd239 O242 2.297 . S
Cd239 O243 2.439 . S
Cd239 O249 2.240 . S
Cd240 O241 2.240 . S
Cd240 O248 2.223 . S
Cd240 O250 2.297 . S
Cd240 O251 2.439 . S
O241 Cd240 2.240 . S
O241 C246 1.279 . S
O242 Cd239 2.297 . S
O242 C244 1.247 . S
O243 Cd239 2.439 . S
O243 C244 1.208 . S
C244 O242 1.247 . S
C244 O243 1.208 . S
C245 O250 1.247 . S
C245 O251 1.208 . S
C246 O238 1.315 . S
C246 O241 1.279 . S
C247 O248 1.315 . S
C247 O249 1.279 . S
O248 Cd240 2.223 . S
O248 C247 1.315 . S
O249 Cd239 2.240 . S
O249 C247 1.279 . S
O250 Cd240 2.297 . S
O250 C245 1.247 . S
O251 Cd240 2.439 . S
O251 C245 1.208 . S
O252 Cd253 2.223 . S
O252 C260 1.315 . S
Cd253 O252 2.223 . S
Cd253 O256 2.297 . S
Cd253 O257 2.439 . S
Cd253 O263 2.240 . S
Cd254 O255 2.240 . S
Cd254 O262 2.223 . S
Cd254 O264 2.297 . S
Cd254 O265 2.439 . S
O255 Cd254 2.240 . S
O255 C260 1.279 . S
O256 Cd253 2.297 . S
O256 C258 1.247 . S
O257 Cd253 2.439 . S
O257 C258 1.208 . S
C258 O256 1.247 . S
C258 O257 1.208 . S
C259 O264 1.247 . S
C259 O265 1.208 . S
C260 O252 1.315 . S
C260 O255 1.279 . S
C261 O262 1.315 . S
C261 O263 1.279 . S
O262 Cd254 2.223 . S
O262 C261 1.315 . S
O263 Cd253 2.240 . S
O263 C261 1.279 . S
O264 Cd254 2.297 . S
O264 C259 1.247 . S
O265 Cd254 2.439 . S
O265 C259 1.208 . S
O266 Cd267 2.223 . S
O266 C274 1.315 . S
Cd267 O266 2.223 . S
Cd267 O270 2.297 . S
Cd267 O271 2.439 . S
Cd267 O277 2.240 . S
Cd268 O269 2.240 . S
Cd268 O276 2.223 . S
Cd268 O278 2.297 . S
Cd268 O279 2.439 . S
O269 Cd268 2.240 . S
O269 C274 1.279 . S
O270 Cd267 2.297 . S
O270 C272 1.247 . S
O271 Cd267 2.439 . S
O271 C272 1.208 . S
C272 O270 1.247 . S
C272 O271 1.208 . S
C273 O278 1.247 . S
C273 O279 1.208 . S
C274 O266 1.315 . S
C274 O269 1.279 . S
C275 O276 1.315 . S
C275 O277 1.279 . S
O276 Cd268 2.223 . S
O276 C275 1.315 . S
O277 Cd267 2.240 . S
O277 C275 1.279 . S
O278 Cd268 2.297 . S
O278 C273 1.247 . S
O279 Cd268 2.439 . S
O279 C273 1.208 . S
O280 Cd281 2.223 . S
O280 C288 1.315 . S
Cd281 O280 2.223 . S
Cd281 O284 2.297 . S
Cd281 O285 2.439 . S
Cd281 O291 2.240 . S
Cd282 O283 2.240 . S
Cd282 O290 2.223 . S
Cd282 O292 2.297 . S
Cd282 O293 2.439 . S
O283 Cd282 2.240 . S
O283 C288 1.279 . S
O284 Cd281 2.297 . S
O284 C286 1.247 . S
O285 Cd281 2.439 . S
O285 C286 1.208 . S
C286 O284 1.247 . S
C286 O285 1.208 . S
C287 O292 1.247 . S
C287 O293 1.208 . S
C288 O280 1.315 . S
C288 O283 1.279 . S
C289 O290 1.315 . S
C289 O291 1.279 . S
O290 Cd282 2.223 . S
O290 C289 1.315 . S
O291 Cd281 2.240 . S
O291 C289 1.279 . S
O292 Cd282 2.297 . S
O292 C287 1.247 . S
O293 Cd282 2.439 . S
O293 C287 1.208 . S
O294 Cd295 2.223 . S
O294 C302 1.315 . S
Cd295 O294 2.223 . S
Cd295 O298 2.297 . S
Cd295 O299 2.439 . S
Cd295 O305 2.240 . S
Cd296 O297 2.240 . S
Cd296 O304 2.223 . S
Cd296 O306 2.297 . S
Cd296 O307 2.439 . S
O297 Cd296 2.240 . S
O297 C302 1.279 . S
O298 Cd295 2.297 . S
O298 C300 1.247 . S
O299 Cd295 2.439 . S
O299 C300 1.208 . S
C300 O298 1.247 . S
C300 O299 1.208 . S
C301 O306 1.247 . S
C301 O307 1.208 . S
C302 O294 1.315 . S
C302 O297 1.279 . S
C303 O304 1.315 . S
C303 O305 1.279 . S
O304 Cd296 2.223 . S
O304 C303 1.315 . S
O305 Cd295 2.240 . S
O305 C303 1.279 . S
O306 Cd296 2.297 . S
O306 C301 1.247 . S
O307 Cd296 2.439 . S
O307 C301 1.208 . S
O308 Cd309 2.223 . S
O308 C316 1.315 . S
Cd309 O308 2.223 . S
Cd309 O312 2.297 . S
Cd309 O313 2.439 . S
Cd309 O319 2.240 . S
Cd310 O311 2.240 . S
Cd310 O318 2.223 . S
Cd310 O320 2.297 . S
Cd310 O321 2.439 . S
O311 Cd310 2.240 . S
O311 C316 1.279 . S
O312 Cd309 2.297 . S
O312 C314 1.247 . S
O313 Cd309 2.439 . S
O313 C314 1.208 . S
C314 O312 1.247 . S
C314 O313 1.208 . S
C315 O320 1.247 . S
C315 O321 1.208 . S
C316 O308 1.315 . S
C316 O311 1.279 . S
C317 O318 1.315 . S
C317 O319 1.279 . S
O318 Cd310 2.223 . S
O318 C317 1.315 . S
O319 Cd309 2.240 . S
O319 C317 1.279 . S
O320 Cd310 2.297 . S
O320 C315 1.247 . S
O321 Cd310 2.439 . S
O321 C315 1.208 . S
O322 Cd323 2.223 . S
O322 C330 1.315 . S
Cd323 O322 2.223 . S
Cd323 O326 2.297 . S
Cd323 O327 2.439 . S
Cd323 O333 2.240 . S
Cd324 O325 2.240 . S
Cd324 O332 2.223 . S
Cd324 O334 2.297 . S
Cd324 O335 2.439 . S
O325 Cd324 2.240 . S
O325 C330 1.279 . S
O326 Cd323 2.297 . S
O326 C328 1.247 . S
O327 Cd323 2.439 . S
O327 C328 1.208 . S
C328 O326 1.247 . S
C328 O327 1.208 . S
C329 O334 1.247 . S
C329 O335 1.208 . S
C330 O322 1.315 . S
C330 O325 1.279 . S
C331 O332 1.315 . S
C331 O333 1.279 . S
O332 Cd324 2.223 . S
O332 C331 1.315 . S
O333 Cd323 2.240 . S
O333 C331 1.279 . S
O334 Cd324 2.297 . S
O334 C329 1.247 . S
O335 Cd324 2.439 . S
O335 C329 1.208 . S
O336 Cd337 2.223 . S
O336 C344 1.315 . S
Cd337 O336 2.223 . S
Cd337 O340 2.297 . S
Cd337 O341 2.439 . S
Cd337 O347 2.240 . S
Cd338 O339 2.240 . S
Cd338 O346 2.223 . S
Cd338 O348 2.297 . S
Cd338 O349 2.439 . S
O339 Cd338 2.240 . S
O339 C344 1.279 . S
O340 Cd337 2.297 . S
O340 C342 1.247 . S
O341 Cd337 2.439 . S
O341 C342 1.208 . S
C342 O340 1.247 . S
C342 O341 1.208 . S
C343 O348 1.247 . S
C343 O349 1.208 . S
C344 O336 1.315 . S
C344 O339 1.279 . S
C345 O346 1.315 . S
C345 O347 1.279 . S
O346 Cd338 2.223 . S
O346 C345 1.315 . S
O347 Cd337 2.240 . S
O347 C345 1.279 . S
O348 Cd338 2.297 . S
O348 C343 1.247 . S
O349 Cd338 2.439 . S
O349 C343 1.208 . S
O350 Cd351 2.223 . S
O350 C358 1.315 . S
Cd351 O350 2.223 . S
Cd351 O354 2.297 . S
Cd351 O355 2.439 . S
Cd351 O361 2.240 . S
Cd352 O353 2.240 . S
Cd352 O360 2.223 . S
Cd352 O362 2.297 . S
Cd352 O363 2.439 . S
O353 Cd352 2.240 . S
O353 C358 1.279 . S
O354 Cd351 2.297 . S
O354 C356 1.247 . S
O355 Cd351 2.439 . S
O355 C356 1.208 . S
C356 O354 1.247 . S
C356 O355 1.208 . S
C357 O362 1.247 . S
C357 O363 1.208 . S
C358 O350 1.315 . S
C358 O353 1.279 . S
C359 O360 1.315 . S
C359 O361 1.279 . S
O360 Cd352 2.223 . S
O360 C359 1.315 . S
O361 Cd351 2.240 . S
O361 C359 1.279 . S
O362 Cd352 2.297 . S
O362 C357 1.247 . S
O363 Cd352 2.439 . S
O363 C357 1.208 . S
O364 Cd365 2.223 . S
O364 C372 1.315 . S
Cd365 O364 2.223 . S
Cd365 O368 2.297 . S
Cd365 O369 2.439 . S
Cd365 O375 2.240 . S
Cd366 O367 2.240 . S
Cd366 O374 2.223 . S
Cd366 O376 2.297 . S
Cd366 O377 2.439 . S
O367 Cd366 2.240 . S
O367 C372 1.279 . S
O368 Cd365 2.297 . S
O368 C370 1.247 . S
O369 Cd365 2.439 . S
O369 C370 1.208 . S
C370 O368 1.247 . S
C370 O369 1.208 . S
C371 O376 1.247 . S
C371 O377 1.208 . S
C372 O364 1.315 . S
C372 O367 1.279 . S
C373 O374 1.315 . S
C373 O375 1.279 . S
O374 Cd366 2.223 . S
O374 C373 1.315 . S
O375 Cd365 2.240 . S
O375 C373 1.279 . S
O376 Cd366 2.297 . S
O376 C371 1.247 . S
O377 Cd366 2.439 . S
O377 C371 1.208 . S
O378 Cd379 2.223 . S
O378 C386 1.315 . S
Cd379 O378 2.223 . S
Cd379 O382 2.297 . S
Cd379 O383 2.439 . S
Cd379 O389 2.240 . S
Cd380 O381 2.240 . S
Cd380 O388 2.223 . S
Cd380 O390 2.297 . S
Cd380 O391 2.439 . S
O381 Cd380 2.240 . S
O381 C386 1.279 . S
O382 Cd379 2.297 . S
O382 C384 1.247 . S
O383 Cd379 2.439 . S
O383 C384 1.208 . S
C384 O382 1.247 . S
C384 O383 1.208 . S
C385 O390 1.247 . S
C385 O391 1.208 . S
C386 O378 1.315 . S
C386 O381 1.279 . S
C387 O388 1.315 . S
C387 O389 1.279 . S
O388 Cd380 2.223 . S
O388 C387 1.315 . S
O389 Cd379 2.240 . S
O389 C387 1.279 . S
O390 Cd380 2.297 . S
O390 C385 1.247 . S
O391 Cd380 2.439 . S
O391 C385 1.208 . S
O392 Cd393 2.223 . S
O392 C400 1.315 . S
Cd393 O392 2.223 . S
Cd393 O396 2.297 . S
Cd393 O397 2.439 . S
Cd393 O403 2.240 . S
Cd394 O395 2.240 . S
Cd394 O402 2.223 . S
Cd394 O404 2.297 . S
Cd394 O405 2.439 . S
O395 Cd394 2.240 . S
O395 C400 1.279 . S
O396 Cd393 2.297 . S
O396 C398 1.247 . S
O397 Cd393 2.439 . S
O397 C398 1.208 . S
C398 O396 1.247 . S
C398 O397 1.208 . S
C399 O404 1.247 . S
C399 O405 1.208 . S
C400 O392 1.315 . S
C400 O395 1.279 . S
C401 O402 1.315 . S
C401 O403 1.279 . S
O402 Cd394 2.223 . S
O402 C401 1.315 . S
O403 Cd393 2.240 . S
O403 C401 1.279 . S
O404 Cd394 2.297 . S
O404 C399 1.247 . S
O405 Cd394 2.439 . S
O405 C399 1.208 . S
O406 Cd407 2.223 . S
O406 C414 1.315 . S
Cd407 O406 2.223 . S
Cd407 O410 2.297 . S
Cd407 O411 2.439 . S
Cd407 O417 2.240 . S
Cd408 O409 2.240 . S
Cd408 O416 2.223 . S
Cd408 O418 2.297 . S
Cd408 O419 2.439 . S
O409 Cd408 2.240 . S
O409 C414 1.279 . S
O410 Cd407 2.297 . S
O410 C412 1.247 . S
O411 Cd407 2.439 . S
O411 C412 1.208 . S
C412 O410 1.247 . S
C412 O411 1.208 . S
C413 O418 1.247 . S
C413 O419 1.208 . S
C414 O406 1.315 . S
C414 O409 1.279 . S
C415 O416 1.315 . S
C415 O417 1.279 . S
O416 Cd408 2.223 . S
O416 C415 1.315 . S
O417 Cd407 2.240 . S
O417 C415 1.279 . S
O418 Cd408 2.297 . S
O418 C413 1.247 . S
O419 Cd408 2.439 . S
O419 C413 1.208 . S
O420 Cd421 2.223 . S
O420 C428 1.315 . S
Cd421 O420 2.223 . S
Cd421 O424 2.297 . S
Cd421 O425 2.439 . S
Cd421 O431 2.240 . S
Cd422 O423 2.240 . S
Cd422 O430 2.223 . S
Cd422 O432 2.297 . S
Cd422 O433 2.439 . S
O423 Cd422 2.240 . S
O423 C428 1.279 . S
O424 Cd421 2.297 . S
O424 C426 1.247 . S
O425 Cd421 2.439 . S
O425 C426 1.208 . S
C426 O424 1.247 . S
C426 O425 1.208 . S
C427 O432 1.247 . S
C427 O433 1.208 . S
C428 O420 1.315 . S
C428 O423 1.279 . S
C429 O430 1.315 . S
C429 O431 1.279 . S
O430 Cd422 2.223 . S
O430 C429 1.315 . S
O431 Cd421 2.240 . S
O431 C429 1.279 . S
O432 Cd422 2.297 . S
O432 C427 1.247 . S
O433 Cd422 2.439 . S
O433 C427 1.208 . S
O434 Cd435 2.223 . S
O434 C442 1.315 . S
Cd435 O434 2.223 . S
Cd435 O438 2.297 . S
Cd435 O439 2.439 . S
Cd435 O445 2.240 . S
Cd436 O437 2.240 . S
Cd436 O444 2.223 . S
Cd436 O446 2.297 . S
Cd436 O447 2.439 . S
O437 Cd436 2.240 . S
O437 C442 1.279 . S
O438 Cd435 2.297 . S
O438 C440 1.247 . S
O439 Cd435 2.439 . S
O439 C440 1.208 . S
C440 O438 1.247 . S
C440 O439 1.208 . S
C441 O446 1.247 . S
C441 O447 1.208 . S
C442 O434 1.315 . S
C442 O437 1.279 . S
C443 O444 1.315 . S
C443 O445 1.279 . S
O444 Cd436 2.223 . S
O444 C443 1.315 . S
O445 Cd435 2.240 . S
O445 C443 1.279 . S
O446 Cd436 2.297 . S
O446 C441 1.247 . S
O447 Cd436 2.439 . S
O447 C441 1.208 . S
H448 C460 0.930 . S
H449 C462 0.930 . S
H450 C463 0.930 . S
H451 C467 0.959 . S
H452 C467 0.959 . S
H453 C467 0.961 . S
H454 C468 0.960 . S
H455 C468 0.961 . S
H456 C468 0.959 . S
H457 C471 0.929 . S
H458 C472 0.931 . S
H459 C474 0.930 . S
C460 H448 0.930 . S
C460 C461 1.399 . S
C460 C465 1.399 . S
C461 C460 1.399 . S
C461 C462 1.376 . S
C462 H449 0.930 . S
C462 C461 1.376 . S
C462 C463 1.388 . S
C463 H450 0.930 . S
C463 C462 1.388 . S
C463 C464 1.390 . S
C464 C463 1.390 . S
C464 C465 1.394 . S
C464 C470 1.465 . S
C465 C460 1.399 . S
C465 C464 1.394 . S
C465 C466 1.516 . S
C466 C465 1.516 . S
C466 C467 1.502 . S
C466 C468 1.561 . S
C466 C469 1.526 . S
C467 H451 0.959 . S
C467 H452 0.959 . S
C467 H453 0.961 . S
C467 C466 1.502 . S
C468 H454 0.960 . S
C468 H455 0.961 . S
C468 H456 0.959 . S
C468 C466 1.561 . S
C469 C466 1.526 . S
C469 C470 1.396 . S
C469 C474 1.390 . S
C470 C464 1.465 . S
C470 C469 1.396 . S
C470 C471 1.399 . S
C471 H457 0.929 . S
C471 C470 1.399 . S
C471 C472 1.385 . S
C472 H458 0.931 . S
C472 C471 1.385 . S
C472 C473 1.389 . S
C473 C472 1.389 . S
C473 C474 1.387 . S
C474 H459 0.930 . S
C474 C469 1.390 . S
C474 C473 1.387 . S
H475 C487 0.930 . S
H476 C489 0.930 . S
H477 C490 0.930 . S
H478 C494 0.959 . S
H479 C494 0.959 . S
H480 C494 0.961 . S
H481 C495 0.960 . S
H482 C495 0.961 . S
H483 C495 0.959 . S
H484 C498 0.929 . S
H485 C499 0.931 . S
H486 C501 0.930 . S
C487 H475 0.930 . S
C487 C488 1.399 . S
C487 C492 1.399 . S
C488 C487 1.399 . S
C488 C489 1.376 . S
C489 H476 0.930 . S
C489 C488 1.376 . S
C489 C490 1.388 . S
C490 H477 0.930 . S
C490 C489 1.388 . S
C490 C491 1.390 . S
C491 C490 1.390 . S
C491 C492 1.394 . S
C491 C497 1.465 . S
C492 C487 1.399 . S
C492 C491 1.394 . S
C492 C493 1.516 . S
C493 C492 1.516 . S
C493 C494 1.502 . S
C493 C495 1.561 . S
C493 C496 1.526 . S
C494 H478 0.959 . S
C494 H479 0.959 . S
C494 H480 0.961 . S
C494 C493 1.502 . S
C495 H481 0.960 . S
C495 H482 0.961 . S
C495 H483 0.959 . S
C495 C493 1.561 . S
C496 C493 1.526 . S
C496 C497 1.396 . S
C496 C501 1.390 . S
C497 C491 1.465 . S
C497 C496 1.396 . S
C497 C498 1.399 . S
C498 H484 0.929 . S
C498 C497 1.399 . S
C498 C499 1.385 . S
C499 H485 0.931 . S
C499 C498 1.385 . S
C499 C500 1.389 . S
C500 C499 1.389 . S
C500 C501 1.387 . S
C501 H486 0.930 . S
C501 C496 1.390 . S
C501 C500 1.387 . S
H502 C514 0.930 . S
H503 C516 0.930 . S
H504 C517 0.930 . S
H505 C521 0.959 . S
H506 C521 0.959 . S
H507 C521 0.961 . S
H508 C522 0.960 . S
H509 C522 0.961 . S
H510 C522 0.959 . S
H511 C525 0.929 . S
H512 C526 0.931 . S
H513 C528 0.930 . S
C514 H502 0.930 . S
C514 C515 1.399 . S
C514 C519 1.399 . S
C515 C514 1.399 . S
C515 C516 1.376 . S
C516 H503 0.930 . S
C516 C515 1.376 . S
C516 C517 1.388 . S
C517 H504 0.930 . S
C517 C516 1.388 . S
C517 C518 1.390 . S
C518 C517 1.390 . S
C518 C519 1.394 . S
C518 C524 1.465 . S
C519 C514 1.399 . S
C519 C518 1.394 . S
C519 C520 1.516 . S
C520 C519 1.516 . S
C520 C521 1.502 . S
C520 C522 1.561 . S
C520 C523 1.526 . S
C521 H505 0.959 . S
C521 H506 0.959 . S
C521 H507 0.961 . S
C521 C520 1.502 . S
C522 H508 0.960 . S
C522 H509 0.961 . S
C522 H510 0.959 . S
C522 C520 1.561 . S
C523 C520 1.526 . S
C523 C524 1.396 . S
C523 C528 1.390 . S
C524 C518 1.465 . S
C524 C523 1.396 . S
C524 C525 1.399 . S
C525 H511 0.929 . S
C525 C524 1.399 . S
C525 C526 1.385 . S
C526 H512 0.931 . S
C526 C525 1.385 . S
C526 C527 1.389 . S
C527 C526 1.389 . S
C527 C528 1.387 . S
C528 H513 0.930 . S
C528 C523 1.390 . S
C528 C527 1.387 . S
H529 C541 0.930 . S
H530 C543 0.930 . S
H531 C544 0.930 . S
H532 C548 0.959 . S
H533 C548 0.959 . S
H534 C548 0.961 . S
H535 C549 0.960 . S
H536 C549 0.961 . S
H537 C549 0.959 . S
H538 C552 0.929 . S
H539 C553 0.931 . S
H540 C555 0.930 . S
C541 H529 0.930 . S
C541 C542 1.399 . S
C541 C546 1.399 . S
C542 C541 1.399 . S
C542 C543 1.376 . S
C543 H530 0.930 . S
C543 C542 1.376 . S
C543 C544 1.388 . S
C544 H531 0.930 . S
C544 C543 1.388 . S
C544 C545 1.390 . S
C545 C544 1.390 . S
C545 C546 1.394 . S
C545 C551 1.465 . S
C546 C541 1.399 . S
C546 C545 1.394 . S
C546 C547 1.516 . S
C547 C546 1.516 . S
C547 C548 1.502 . S
C547 C549 1.561 . S
C547 C550 1.526 . S
C548 H532 0.959 . S
C548 H533 0.959 . S
C548 H534 0.961 . S
C548 C547 1.502 . S
C549 H535 0.960 . S
C549 H536 0.961 . S
C549 H537 0.959 . S
C549 C547 1.561 . S
C550 C547 1.526 . S
C550 C551 1.396 . S
C550 C555 1.390 . S
C551 C545 1.465 . S
C551 C550 1.396 . S
C551 C552 1.399 . S
C552 H538 0.929 . S
C552 C551 1.399 . S
C552 C553 1.385 . S
C553 H539 0.931 . S
C553 C552 1.385 . S
C553 C554 1.389 . S
C554 C553 1.389 . S
C554 C555 1.387 . S
C555 H540 0.930 . S
C555 C550 1.390 . S
C555 C554 1.387 . S
H556 C568 0.930 . S
H557 C570 0.930 . S
H558 C571 0.930 . S
H559 C575 0.959 . S
H560 C575 0.959 . S
H561 C575 0.961 . S
H562 C576 0.960 . S
H563 C576 0.961 . S
H564 C576 0.959 . S
H565 C579 0.929 . S
H566 C580 0.931 . S
H567 C582 0.930 . S
C568 H556 0.930 . S
C568 C569 1.399 . S
C568 C573 1.399 . S
C569 C568 1.399 . S
C569 C570 1.376 . S
C570 H557 0.930 . S
C570 C569 1.376 . S
C570 C571 1.388 . S
C571 H558 0.930 . S
C571 C570 1.388 . S
C571 C572 1.390 . S
C572 C571 1.390 . S
C572 C573 1.394 . S
C572 C578 1.465 . S
C573 C568 1.399 . S
C573 C572 1.394 . S
C573 C574 1.516 . S
C574 C573 1.516 . S
C574 C575 1.502 . S
C574 C576 1.561 . S
C574 C577 1.526 . S
C575 H559 0.959 . S
C575 H560 0.959 . S
C575 H561 0.961 . S
C575 C574 1.502 . S
C576 H562 0.960 . S
C576 H563 0.961 . S
C576 H564 0.959 . S
C576 C574 1.561 . S
C577 C574 1.526 . S
C577 C578 1.396 . S
C577 C582 1.390 . S
C578 C572 1.465 . S
C578 C577 1.396 . S
C578 C579 1.399 . S
C579 H565 0.929 . S
C579 C578 1.399 . S
C579 C580 1.385 . S
C580 H566 0.931 . S
C580 C579 1.385 . S
C580 C581 1.389 . S
C581 C580 1.389 . S
C581 C582 1.387 . S
C582 H567 0.930 . S
C582 C577 1.390 . S
C582 C581 1.387 . S
H583 C595 0.930 . S
H584 C597 0.930 . S
H585 C598 0.930 . S
H586 C602 0.959 . S
H587 C602 0.959 . S
H588 C602 0.961 . S
H589 C603 0.960 . S
H590 C603 0.961 . S
H591 C603 0.959 . S
H592 C606 0.929 . S
H593 C607 0.931 . S
H594 C609 0.930 . S
C595 H583 0.930 . S
C595 C596 1.399 . S
C595 C600 1.399 . S
C596 C595 1.399 . S
C596 C597 1.376 . S
C597 H584 0.930 . S
C597 C596 1.376 . S
C597 C598 1.388 . S
C598 H585 0.930 . S
C598 C597 1.388 . S
C598 C599 1.390 . S
C599 C598 1.390 . S
C599 C600 1.394 . S
C599 C605 1.465 . S
C600 C595 1.399 . S
C600 C599 1.394 . S
C600 C601 1.516 . S
C601 C600 1.516 . S
C601 C602 1.502 . S
C601 C603 1.561 . S
C601 C604 1.526 . S
C602 H586 0.959 . S
C602 H587 0.959 . S
C602 H588 0.961 . S
C602 C601 1.502 . S
C603 H589 0.960 . S
C603 H590 0.961 . S
C603 H591 0.959 . S
C603 C601 1.561 . S
C604 C601 1.526 . S
C604 C605 1.396 . S
C604 C609 1.390 . S
C605 C599 1.465 . S
C605 C604 1.396 . S
C605 C606 1.399 . S
C606 H592 0.929 . S
C606 C605 1.399 . S
C606 C607 1.385 . S
C607 H593 0.931 . S
C607 C606 1.385 . S
C607 C608 1.389 . S
C608 C607 1.389 . S
C608 C609 1.387 . S
C609 H594 0.930 . S
C609 C604 1.390 . S
C609 C608 1.387 . S
H610 C622 0.930 . S
H611 C624 0.930 . S
H612 C625 0.930 . S
H613 C629 0.959 . S
H614 C629 0.959 . S
H615 C629 0.961 . S
H616 C630 0.960 . S
H617 C630 0.961 . S
H618 C630 0.959 . S
H619 C633 0.929 . S
H620 C634 0.931 . S
H621 C636 0.930 . S
C622 H610 0.930 . S
C622 C623 1.399 . S
C622 C627 1.399 . S
C623 C622 1.399 . S
C623 C624 1.376 . S
C624 H611 0.930 . S
C624 C623 1.376 . S
C624 C625 1.388 . S
C625 H612 0.930 . S
C625 C624 1.388 . S
C625 C626 1.390 . S
C626 C625 1.390 . S
C626 C627 1.394 . S
C626 C632 1.465 . S
C627 C622 1.399 . S
C627 C626 1.394 . S
C627 C628 1.516 . S
C628 C627 1.516 . S
C628 C629 1.502 . S
C628 C630 1.561 . S
C628 C631 1.526 . S
C629 H613 0.959 . S
C629 H614 0.959 . S
C629 H615 0.961 . S
C629 C628 1.502 . S
C630 H616 0.960 . S
C630 H617 0.961 . S
C630 H618 0.959 . S
C630 C628 1.561 . S
C631 C628 1.526 . S
C631 C632 1.396 . S
C631 C636 1.390 . S
C632 C626 1.465 . S
C632 C631 1.396 . S
C632 C633 1.399 . S
C633 H619 0.929 . S
C633 C632 1.399 . S
C633 C634 1.385 . S
C634 H620 0.931 . S
C634 C633 1.385 . S
C634 C635 1.389 . S
C635 C634 1.389 . S
C635 C636 1.387 . S
C636 H621 0.930 . S
C636 C631 1.390 . S
C636 C635 1.387 . S
H637 C649 0.930 . S
H638 C651 0.930 . S
H639 C652 0.930 . S
H640 C656 0.959 . S
H641 C656 0.959 . S
H642 C656 0.961 . S
H643 C657 0.960 . S
H644 C657 0.961 . S
H645 C657 0.959 . S
H646 C660 0.929 . S
H647 C661 0.931 . S
H648 C663 0.930 . S
C649 H637 0.930 . S
C649 C650 1.399 . S
C649 C654 1.399 . S
C650 C649 1.399 . S
C650 C651 1.376 . S
C651 H638 0.930 . S
C651 C650 1.376 . S
C651 C652 1.388 . S
C652 H639 0.930 . S
C652 C651 1.388 . S
C652 C653 1.390 . S
C653 C652 1.390 . S
C653 C654 1.394 . S
C653 C659 1.465 . S
C654 C649 1.399 . S
C654 C653 1.394 . S
C654 C655 1.516 . S
C655 C654 1.516 . S
C655 C656 1.502 . S
C655 C657 1.561 . S
C655 C658 1.526 . S
C656 H640 0.959 . S
C656 H641 0.959 . S
C656 H642 0.961 . S
C656 C655 1.502 . S
C657 H643 0.960 . S
C657 H644 0.961 . S
C657 H645 0.959 . S
C657 C655 1.561 . S
C658 C655 1.526 . S
C658 C659 1.396 . S
C658 C663 1.390 . S
C659 C653 1.465 . S
C659 C658 1.396 . S
C659 C660 1.399 . S
C660 H646 0.929 . S
C660 C659 1.399 . S
C660 C661 1.385 . S
C661 H647 0.931 . S
C661 C660 1.385 . S
C661 C662 1.389 . S
C662 C661 1.389 . S
C662 C663 1.387 . S
C663 H648 0.930 . S
C663 C658 1.390 . S
C663 C662 1.387 . S
H664 C676 0.930 . S
H665 C678 0.930 . S
H666 C679 0.930 . S
H667 C683 0.959 . S
H668 C683 0.959 . S
H669 C683 0.961 . S
H670 C684 0.960 . S
H671 C684 0.961 . S
H672 C684 0.959 . S
H673 C687 0.929 . S
H674 C688 0.931 . S
H675 C690 0.930 . S
C676 H664 0.930 . S
C676 C677 1.399 . S
C676 C681 1.399 . S
C677 C676 1.399 . S
C677 C678 1.376 . S
C678 H665 0.930 . S
C678 C677 1.376 . S
C678 C679 1.388 . S
C679 H666 0.930 . S
C679 C678 1.388 . S
C679 C680 1.390 . S
C680 C679 1.390 . S
C680 C681 1.394 . S
C680 C686 1.465 . S
C681 C676 1.399 . S
C681 C680 1.394 . S
C681 C682 1.516 . S
C682 C681 1.516 . S
C682 C683 1.502 . S
C682 C684 1.561 . S
C682 C685 1.526 . S
C683 H667 0.959 . S
C683 H668 0.959 . S
C683 H669 0.961 . S
C683 C682 1.502 . S
C684 H670 0.960 . S
C684 H671 0.961 . S
C684 H672 0.959 . S
C684 C682 1.561 . S
C685 C682 1.526 . S
C685 C686 1.396 . S
C685 C690 1.390 . S
C686 C680 1.465 . S
C686 C685 1.396 . S
C686 C687 1.399 . S
C687 H673 0.929 . S
C687 C686 1.399 . S
C687 C688 1.385 . S
C688 H674 0.931 . S
C688 C687 1.385 . S
C688 C689 1.389 . S
C689 C688 1.389 . S
C689 C690 1.387 . S
C690 H675 0.930 . S
C690 C685 1.390 . S
C690 C689 1.387 . S
H691 C703 0.930 . S
H692 C705 0.930 . S
H693 C706 0.930 . S
H694 C710 0.959 . S
H695 C710 0.959 . S
H696 C710 0.961 . S
H697 C711 0.960 . S
H698 C711 0.961 . S
H699 C711 0.959 . S
H700 C714 0.929 . S
H701 C715 0.931 . S
H702 C717 0.930 . S
C703 H691 0.930 . S
C703 C704 1.399 . S
C703 C708 1.399 . S
C704 C703 1.399 . S
C704 C705 1.376 . S
C705 H692 0.930 . S
C705 C704 1.376 . S
C705 C706 1.388 . S
C706 H693 0.930 . S
C706 C705 1.388 . S
C706 C707 1.390 . S
C707 C706 1.390 . S
C707 C708 1.394 . S
C707 C713 1.465 . S
C708 C703 1.399 . S
C708 C707 1.394 . S
C708 C709 1.516 . S
C709 C708 1.516 . S
C709 C710 1.502 . S
C709 C711 1.561 . S
C709 C712 1.526 . S
C710 H694 0.959 . S
C710 H695 0.959 . S
C710 H696 0.961 . S
C710 C709 1.502 . S
C711 H697 0.960 . S
C711 H698 0.961 . S
C711 H699 0.959 . S
C711 C709 1.561 . S
C712 C709 1.526 . S
C712 C713 1.396 . S
C712 C717 1.390 . S
C713 C707 1.465 . S
C713 C712 1.396 . S
C713 C714 1.399 . S
C714 H700 0.929 . S
C714 C713 1.399 . S
C714 C715 1.385 . S
C715 H701 0.931 . S
C715 C714 1.385 . S
C715 C716 1.389 . S
C716 C715 1.389 . S
C716 C717 1.387 . S
C717 H702 0.930 . S
C717 C712 1.390 . S
C717 C716 1.387 . S
H718 C730 0.930 . S
H719 C732 0.930 . S
H720 C733 0.930 . S
H721 C737 0.959 . S
H722 C737 0.959 . S
H723 C737 0.961 . S
H724 C738 0.960 . S
H725 C738 0.961 . S
H726 C738 0.959 . S
H727 C741 0.929 . S
H728 C742 0.931 . S
H729 C744 0.930 . S
C730 H718 0.930 . S
C730 C731 1.399 . S
C730 C735 1.399 . S
C731 C730 1.399 . S
C731 C732 1.376 . S
C732 H719 0.930 . S
C732 C731 1.376 . S
C732 C733 1.388 . S
C733 H720 0.930 . S
C733 C732 1.388 . S
C733 C734 1.390 . S
C734 C733 1.390 . S
C734 C735 1.394 . S
C734 C740 1.465 . S
C735 C730 1.399 . S
C735 C734 1.394 . S
C735 C736 1.516 . S
C736 C735 1.516 . S
C736 C737 1.502 . S
C736 C738 1.561 . S
C736 C739 1.526 . S
C737 H721 0.959 . S
C737 H722 0.959 . S
C737 H723 0.961 . S
C737 C736 1.502 . S
C738 H724 0.960 . S
C738 H725 0.961 . S
C738 H726 0.959 . S
C738 C736 1.561 . S
C739 C736 1.526 . S
C739 C740 1.396 . S
C739 C744 1.390 . S
C740 C734 1.465 . S
C740 C739 1.396 . S
C740 C741 1.399 . S
C741 H727 0.929 . S
C741 C740 1.399 . S
C741 C742 1.385 . S
C742 H728 0.931 . S
C742 C741 1.385 . S
C742 C743 1.389 . S
C743 C742 1.389 . S
C743 C744 1.387 . S
C744 H729 0.930 . S
C744 C739 1.390 . S
C744 C743 1.387 . S
H745 C757 0.930 . S
H746 C759 0.930 . S
H747 C760 0.930 . S
H748 C764 0.959 . S
H749 C764 0.959 . S
H750 C764 0.961 . S
H751 C765 0.960 . S
H752 C765 0.961 . S
H753 C765 0.959 . S
H754 C768 0.929 . S
H755 C769 0.931 . S
H756 C771 0.930 . S
C757 H745 0.930 . S
C757 C758 1.399 . S
C757 C762 1.399 . S
C758 C757 1.399 . S
C758 C759 1.376 . S
C759 H746 0.930 . S
C759 C758 1.376 . S
C759 C760 1.388 . S
C760 H747 0.930 . S
C760 C759 1.388 . S
C760 C761 1.390 . S
C761 C760 1.390 . S
C761 C762 1.394 . S
C761 C767 1.465 . S
C762 C757 1.399 . S
C762 C761 1.394 . S
C762 C763 1.516 . S
C763 C762 1.516 . S
C763 C764 1.502 . S
C763 C765 1.561 . S
C763 C766 1.526 . S
C764 H748 0.959 . S
C764 H749 0.959 . S
C764 H750 0.961 . S
C764 C763 1.502 . S
C765 H751 0.960 . S
C765 H752 0.961 . S
C765 H753 0.959 . S
C765 C763 1.561 . S
C766 C763 1.526 . S
C766 C767 1.396 . S
C766 C771 1.390 . S
C767 C761 1.465 . S
C767 C766 1.396 . S
C767 C768 1.399 . S
C768 H754 0.929 . S
C768 C767 1.399 . S
C768 C769 1.385 . S
C769 H755 0.931 . S
C769 C768 1.385 . S
C769 C770 1.389 . S
C770 C769 1.389 . S
C770 C771 1.387 . S
C771 H756 0.930 . S
C771 C766 1.390 . S
C771 C770 1.387 . S
H772 C784 0.930 . S
H773 C786 0.930 . S
H774 C787 0.930 . S
H775 C791 0.959 . S
H776 C791 0.959 . S
H777 C791 0.961 . S
H778 C792 0.960 . S
H779 C792 0.961 . S
H780 C792 0.959 . S
H781 C795 0.929 . S
H782 C796 0.931 . S
H783 C798 0.930 . S
C784 H772 0.930 . S
C784 C785 1.399 . S
C784 C789 1.399 . S
C785 C784 1.399 . S
C785 C786 1.376 . S
C786 H773 0.930 . S
C786 C785 1.376 . S
C786 C787 1.388 . S
C787 H774 0.930 . S
C787 C786 1.388 . S
C787 C788 1.390 . S
C788 C787 1.390 . S
C788 C789 1.394 . S
C788 C794 1.465 . S
C789 C784 1.399 . S
C789 C788 1.394 . S
C789 C790 1.516 . S
C790 C789 1.516 . S
C790 C791 1.502 . S
C790 C792 1.561 . S
C790 C793 1.526 . S
C791 H775 0.959 . S
C791 H776 0.959 . S
C791 H777 0.961 . S
C791 C790 1.502 . S
C792 H778 0.960 . S
C792 H779 0.961 . S
C792 H780 0.959 . S
C792 C790 1.561 . S
C793 C790 1.526 . S
C793 C794 1.396 . S
C793 C798 1.390 . S
C794 C788 1.465 . S
C794 C793 1.396 . S
C794 C795 1.399 . S
C795 H781 0.929 . S
C795 C794 1.399 . S
C795 C796 1.385 . S
C796 H782 0.931 . S
C796 C795 1.385 . S
C796 C797 1.389 . S
C797 C796 1.389 . S
C797 C798 1.387 . S
C798 H783 0.930 . S
C798 C793 1.390 . S
C798 C797 1.387 . S
H799 C811 0.930 . S
H800 C813 0.930 . S
H801 C814 0.930 . S
H802 C818 0.959 . S
H803 C818 0.959 . S
H804 C818 0.961 . S
H805 C819 0.960 . S
H806 C819 0.961 . S
H807 C819 0.959 . S
H808 C822 0.929 . S
H809 C823 0.931 . S
H810 C825 0.930 . S
C811 H799 0.930 . S
C811 C812 1.399 . S
C811 C816 1.399 . S
C812 C811 1.399 . S
C812 C813 1.376 . S
C813 H800 0.930 . S
C813 C812 1.376 . S
C813 C814 1.388 . S
C814 H801 0.930 . S
C814 C813 1.388 . S
C814 C815 1.390 . S
C815 C814 1.390 . S
C815 C816 1.394 . S
C815 C821 1.465 . S
C816 C811 1.399 . S
C816 C815 1.394 . S
C816 C817 1.516 . S
C817 C816 1.516 . S
C817 C818 1.502 . S
C817 C819 1.561 . S
C817 C820 1.526 . S
C818 H802 0.959 . S
C818 H803 0.959 . S
C818 H804 0.961 . S
C818 C817 1.502 . S
C819 H805 0.960 . S
C819 H806 0.961 . S
C819 H807 0.959 . S
C819 C817 1.561 . S
C820 C817 1.526 . S
C820 C821 1.396 . S
C820 C825 1.390 . S
C821 C815 1.465 . S
C821 C820 1.396 . S
C821 C822 1.399 . S
C822 H808 0.929 . S
C822 C821 1.399 . S
C822 C823 1.385 . S
C823 H809 0.931 . S
C823 C822 1.385 . S
C823 C824 1.389 . S
C824 C823 1.389 . S
C824 C825 1.387 . S
C825 H810 0.930 . S
C825 C820 1.390 . S
C825 C824 1.387 . S
H826 C838 0.930 . S
H827 C840 0.930 . S
H828 C841 0.930 . S
H829 C845 0.959 . S
H830 C845 0.959 . S
H831 C845 0.961 . S
H832 C846 0.960 . S
H833 C846 0.961 . S
H834 C846 0.959 . S
H835 C849 0.929 . S
H836 C850 0.931 . S
H837 C852 0.930 . S
C838 H826 0.930 . S
C838 C839 1.399 . S
C838 C843 1.399 . S
C839 C838 1.399 . S
C839 C840 1.376 . S
C840 H827 0.930 . S
C840 C839 1.376 . S
C840 C841 1.388 . S
C841 H828 0.930 . S
C841 C840 1.388 . S
C841 C842 1.390 . S
C842 C841 1.390 . S
C842 C843 1.394 . S
C842 C848 1.465 . S
C843 C838 1.399 . S
C843 C842 1.394 . S
C843 C844 1.516 . S
C844 C843 1.516 . S
C844 C845 1.502 . S
C844 C846 1.561 . S
C844 C847 1.526 . S
C845 H829 0.959 . S
C845 H830 0.959 . S
C845 H831 0.961 . S
C845 C844 1.502 . S
C846 H832 0.960 . S
C846 H833 0.961 . S
C846 H834 0.959 . S
C846 C844 1.561 . S
C847 C844 1.526 . S
C847 C848 1.396 . S
C847 C852 1.390 . S
C848 C842 1.465 . S
C848 C847 1.396 . S
C848 C849 1.399 . S
C849 H835 0.929 . S
C849 C848 1.399 . S
C849 C850 1.385 . S
C850 H836 0.931 . S
C850 C849 1.385 . S
C850 C851 1.389 . S
C851 C850 1.389 . S
C851 C852 1.387 . S
C852 H837 0.930 . S
C852 C847 1.390 . S
C852 C851 1.387 . S
H853 C865 0.930 . S
H854 C867 0.930 . S
H855 C868 0.930 . S
H856 C872 0.959 . S
H857 C872 0.959 . S
H858 C872 0.961 . S
H859 C873 0.960 . S
H860 C873 0.961 . S
H861 C873 0.959 . S
H862 C876 0.929 . S
H863 C877 0.931 . S
H864 C879 0.930 . S
C865 H853 0.930 . S
C865 C866 1.399 . S
C865 C870 1.399 . S
C866 C865 1.399 . S
C866 C867 1.376 . S
C867 H854 0.930 . S
C867 C866 1.376 . S
C867 C868 1.388 . S
C868 H855 0.930 . S
C868 C867 1.388 . S
C868 C869 1.390 . S
C869 C868 1.390 . S
C869 C870 1.394 . S
C869 C875 1.465 . S
C870 C865 1.399 . S
C870 C869 1.394 . S
C870 C871 1.516 . S
C871 C870 1.516 . S
C871 C872 1.502 . S
C871 C873 1.561 . S
C871 C874 1.526 . S
C872 H856 0.959 . S
C872 H857 0.959 . S
C872 H858 0.961 . S
C872 C871 1.502 . S
C873 H859 0.960 . S
C873 H860 0.961 . S
C873 H861 0.959 . S
C873 C871 1.561 . S
C874 C871 1.526 . S
C874 C875 1.396 . S
C874 C879 1.390 . S
C875 C869 1.465 . S
C875 C874 1.396 . S
C875 C876 1.399 . S
C876 H862 0.929 . S
C876 C875 1.399 . S
C876 C877 1.385 . S
C877 H863 0.931 . S
C877 C876 1.385 . S
C877 C878 1.389 . S
C878 C877 1.389 . S
C878 C879 1.387 . S
C879 H864 0.930 . S
C879 C874 1.390 . S
C879 C878 1.387 . S
H880 C892 0.930 . S
H881 C894 0.930 . S
H882 C895 0.930 . S
H883 C899 0.962 . S
H884 C899 0.978 . S
H885 C899 0.940 1_655 S
H886 C900 0.959 1_655 S
H887 C900 0.962 . S
H888 C900 0.959 . S
H889 C903 0.929 . S
H890 C904 0.931 . S
H891 C906 0.930 . S
C892 H880 0.930 . S
C892 C893 1.399 . S
C892 C897 1.399 . S
C893 C892 1.399 . S
C893 C894 1.376 . S
C894 H881 0.930 . S
C894 C893 1.376 . S
C894 C895 1.388 . S
C895 H882 0.930 . S
C895 C894 1.388 . S
C895 C896 1.390 . S
C896 C895 1.390 . S
C896 C897 1.394 . S
C896 C902 1.465 1_655 S
C897 C892 1.399 . S
C897 C896 1.394 . S
C897 C898 1.518 1_655 S
C898 C897 1.518 1_455 S
C898 C899 1.502 . S
C898 C900 1.561 . S
C898 C901 1.524 . S
C899 H883 0.962 . S
C899 H884 0.978 . S
C899 H885 0.940 1_455 S
C899 C898 1.502 . S
C900 H886 0.959 1_455 S
C900 H887 0.962 . S
C900 H888 0.959 . S
C900 C898 1.561 . S
C901 C898 1.524 . S
C901 C902 1.396 . S
C901 C906 1.390 . S
C902 C896 1.465 1_455 S
C902 C901 1.396 . S
C902 C903 1.399 . S
C903 H889 0.929 . S
C903 C902 1.399 . S
C903 C904 1.385 . S
C904 H890 0.931 . S
C904 C903 1.385 . S
C904 C905 1.389 . S
C905 C904 1.389 . S
C905 C906 1.387 . S
C906 H891 0.930 . S
C906 C901 1.390 . S
C906 C905 1.387 . S
H907 C919 0.930 . S
H908 C921 0.930 . S
H909 C922 0.930 . S
H910 C926 0.962 . S
H911 C926 0.978 . S
H912 C926 0.940 1_545 S
H913 C927 0.959 1_545 S
H914 C927 0.962 . S
H915 C927 0.959 . S
H916 C930 0.929 . S
H917 C931 0.931 . S
H918 C933 0.930 . S
C919 H907 0.930 . S
C919 C920 1.399 . S
C919 C924 1.399 . S
C920 C919 1.399 . S
C920 C921 1.376 . S
C921 H908 0.930 . S
C921 C920 1.376 . S
C921 C922 1.388 . S
C922 H909 0.930 . S
C922 C921 1.388 . S
C922 C923 1.390 . S
C923 C922 1.390 . S
C923 C924 1.394 . S
C923 C929 1.465 1_545 S
C924 C919 1.399 . S
C924 C923 1.394 . S
C924 C925 1.518 1_545 S
C925 C924 1.518 1_565 S
C925 C926 1.502 . S
C925 C927 1.561 . S
C925 C928 1.524 . S
C926 H910 0.962 . S
C926 H911 0.978 . S
C926 H912 0.940 1_565 S
C926 C925 1.502 . S
C927 H913 0.959 1_565 S
C927 H914 0.962 . S
C927 H915 0.959 . S
C927 C925 1.561 . S
C928 C925 1.524 . S
C928 C929 1.396 . S
C928 C933 1.390 . S
C929 C923 1.465 1_565 S
C929 C928 1.396 . S
C929 C930 1.399 . S
C930 H916 0.929 . S
C930 C929 1.399 . S
C930 C931 1.385 . S
C931 H917 0.931 . S
C931 C930 1.385 . S
C931 C932 1.389 . S
C932 C931 1.389 . S
C932 C933 1.387 . S
C933 H918 0.930 . S
C933 C928 1.390 . S
C933 C932 1.387 . S
H934 C946 0.930 . S
H935 C948 0.930 . S
H936 C949 0.930 . S
H937 C953 0.962 . S
H938 C953 0.978 . S
H939 C953 0.940 1_455 S
H940 C954 0.959 1_455 S
H941 C954 0.962 . S
H942 C954 0.959 . S
H943 C957 0.929 . S
H944 C958 0.931 . S
H945 C960 0.930 . S
C946 H934 0.930 . S
C946 C947 1.399 . S
C946 C951 1.399 . S
C947 C946 1.399 . S
C947 C948 1.376 . S
C948 H935 0.930 . S
C948 C947 1.376 . S
C948 C949 1.388 . S
C949 H936 0.930 . S
C949 C948 1.388 . S
C949 C950 1.390 . S
C950 C949 1.390 . S
C950 C951 1.394 . S
C950 C956 1.465 1_455 S
C951 C946 1.399 . S
C951 C950 1.394 . S
C951 C952 1.518 1_455 S
C952 C951 1.518 1_655 S
C952 C953 1.502 . S
C952 C954 1.561 . S
C952 C955 1.524 . S
C953 H937 0.962 . S
C953 H938 0.978 . S
C953 H939 0.940 1_655 S
C953 C952 1.502 . S
C954 H940 0.959 1_655 S
C954 H941 0.962 . S
C954 H942 0.959 . S
C954 C952 1.561 . S
C955 C952 1.524 . S
C955 C956 1.396 . S
C955 C960 1.390 . S
C956 C950 1.465 1_655 S
C956 C955 1.396 . S
C956 C957 1.399 . S
C957 H943 0.929 . S
C957 C956 1.399 . S
C957 C958 1.385 . S
C958 H944 0.931 . S
C958 C957 1.385 . S
C958 C959 1.389 . S
C959 C958 1.389 . S
C959 C960 1.387 . S
C960 H945 0.930 . S
C960 C955 1.390 . S
C960 C959 1.387 . S
H961 C973 0.930 . S
H962 C975 0.930 . S
H963 C976 0.930 . S
H964 C980 0.962 . S
H965 C980 0.978 . S
H966 C980 0.940 1_565 S
H967 C981 0.959 1_565 S
H968 C981 0.962 . S
H969 C981 0.959 . S
H970 C984 0.929 . S
H971 C985 0.931 . S
H972 C987 0.930 . S
C973 H961 0.930 . S
C973 C974 1.399 . S
C973 C978 1.399 . S
C974 C973 1.399 . S
C974 C975 1.376 . S
C975 H962 0.930 . S
C975 C974 1.376 . S
C975 C976 1.388 . S
C976 H963 0.930 . S
C976 C975 1.388 . S
C976 C977 1.390 . S
C977 C976 1.390 . S
C977 C978 1.394 . S
C977 C983 1.465 1_565 S
C978 C973 1.399 . S
C978 C977 1.394 . S
C978 C979 1.518 1_565 S
C979 C978 1.518 1_545 S
C979 C980 1.502 . S
C979 C981 1.561 . S
C979 C982 1.524 . S
C980 H964 0.962 . S
C980 H965 0.978 . S
C980 H966 0.940 1_545 S
C980 C979 1.502 . S
C981 H967 0.959 1_545 S
C981 H968 0.962 . S
C981 H969 0.959 . S
C981 C979 1.561 . S
C982 C979 1.524 . S
C982 C983 1.396 . S
C982 C987 1.390 . S
C983 C977 1.465 1_545 S
C983 C982 1.396 . S
C983 C984 1.399 . S
C984 H970 0.929 . S
C984 C983 1.399 . S
C984 C985 1.385 . S
C985 H971 0.931 . S
C985 C984 1.385 . S
C985 C986 1.389 . S
C986 C985 1.389 . S
C986 C987 1.387 . S
C987 H972 0.930 . S
C987 C982 1.390 . S
C987 C986 1.387 . S
H988 C1000 0.930 . S
H989 C1002 0.930 . S
H990 C1003 0.930 . S
H991 C1007 0.962 . S
H992 C1007 0.978 . S
H993 C1007 0.940 1_455 S
H994 C1008 0.959 1_455 S
H995 C1008 0.962 . S
H996 C1008 0.959 . S
H997 C1011 0.929 . S
H998 C1012 0.931 . S
H999 C1014 0.930 . S
C1000 H988 0.930 . S
C1000 C1001 1.399 . S
C1000 C1005 1.399 . S
C1001 C1000 1.399 . S
C1001 C1002 1.376 . S
C1002 H989 0.930 . S
C1002 C1001 1.376 . S
C1002 C1003 1.388 . S
C1003 H990 0.930 . S
C1003 C1002 1.388 . S
C1003 C1004 1.390 . S
C1004 C1003 1.390 . S
C1004 C1005 1.394 . S
C1004 C1010 1.465 1_455 S
C1005 C1000 1.399 . S
C1005 C1004 1.394 . S
C1005 C1006 1.518 1_455 S
C1006 C1005 1.518 1_655 S
C1006 C1007 1.502 . S
C1006 C1008 1.561 . S
C1006 C1009 1.524 . S
C1007 H991 0.962 . S
C1007 H992 0.978 . S
C1007 H993 0.940 1_655 S
C1007 C1006 1.502 . S
C1008 H994 0.959 1_655 S
C1008 H995 0.962 . S
C1008 H996 0.959 . S
C1008 C1006 1.561 . S
C1009 C1006 1.524 . S
C1009 C1010 1.396 . S
C1009 C1014 1.390 . S
C1010 C1004 1.465 1_655 S
C1010 C1009 1.396 . S
C1010 C1011 1.399 . S
C1011 H997 0.929 . S
C1011 C1010 1.399 . S
C1011 C1012 1.385 . S
C1012 H998 0.931 . S
C1012 C1011 1.385 . S
C1012 C1013 1.389 . S
C1013 C1012 1.389 . S
C1013 C1014 1.387 . S
C1014 H999 0.930 . S
C1014 C1009 1.390 . S
C1014 C1013 1.387 . S
H1015 C1027 0.930 . S
H1016 C1029 0.930 . S
H1017 C1030 0.930 . S
H1018 C1034 0.962 . S
H1019 C1034 0.978 . S
H1020 C1034 0.940 1_565 S
H1021 C1035 0.959 1_565 S
H1022 C1035 0.962 . S
H1023 C1035 0.959 . S
H1024 C1038 0.929 . S
H1025 C1039 0.931 . S
H1026 C1041 0.930 . S
C1027 H1015 0.930 . S
C1027 C1028 1.399 . S
C1027 C1032 1.399 . S
C1028 C1027 1.399 . S
C1028 C1029 1.376 . S
C1029 H1016 0.930 . S
C1029 C1028 1.376 . S
C1029 C1030 1.388 . S
C1030 H1017 0.930 . S
C1030 C1029 1.388 . S
C1030 C1031 1.390 . S
C1031 C1030 1.390 . S
C1031 C1032 1.394 . S
C1031 C1037 1.465 1_565 S
C1032 C1027 1.399 . S
C1032 C1031 1.394 . S
C1032 C1033 1.518 1_565 S
C1033 C1032 1.518 1_545 S
C1033 C1034 1.502 . S
C1033 C1035 1.561 . S
C1033 C1036 1.524 . S
C1034 H1018 0.962 . S
C1034 H1019 0.978 . S
C1034 H1020 0.940 1_545 S
C1034 C1033 1.502 . S
C1035 H1021 0.959 1_545 S
C1035 H1022 0.962 . S
C1035 H1023 0.959 . S
C1035 C1033 1.561 . S
C1036 C1033 1.524 . S
C1036 C1037 1.396 . S
C1036 C1041 1.390 . S
C1037 C1031 1.465 1_545 S
C1037 C1036 1.396 . S
C1037 C1038 1.399 . S
C1038 H1024 0.929 . S
C1038 C1037 1.399 . S
C1038 C1039 1.385 . S
C1039 H1025 0.931 . S
C1039 C1038 1.385 . S
C1039 C1040 1.389 . S
C1040 C1039 1.389 . S
C1040 C1041 1.387 . S
C1041 H1026 0.930 . S
C1041 C1036 1.390 . S
C1041 C1040 1.387 . S
H1042 C1054 0.930 . S
H1043 C1056 0.930 . S
H1044 C1057 0.930 . S
H1045 C1061 0.962 . S
H1046 C1061 0.978 . S
H1047 C1061 0.940 1_455 S
H1048 C1062 0.959 1_455 S
H1049 C1062 0.962 . S
H1050 C1062 0.959 . S
H1051 C1065 0.929 . S
H1052 C1066 0.931 . S
H1053 C1068 0.930 . S
C1054 H1042 0.930 . S
C1054 C1055 1.399 . S
C1054 C1059 1.399 . S
C1055 C1054 1.399 . S
C1055 C1056 1.376 . S
C1056 H1043 0.930 . S
C1056 C1055 1.376 . S
C1056 C1057 1.388 . S
C1057 H1044 0.930 . S
C1057 C1056 1.388 . S
C1057 C1058 1.390 . S
C1058 C1057 1.390 . S
C1058 C1059 1.394 . S
C1058 C1064 1.465 1_455 S
C1059 C1054 1.399 . S
C1059 C1058 1.394 . S
C1059 C1060 1.518 1_455 S
C1060 C1059 1.518 1_655 S
C1060 C1061 1.502 . S
C1060 C1062 1.561 . S
C1060 C1063 1.524 . S
C1061 H1045 0.962 . S
C1061 H1046 0.978 . S
C1061 H1047 0.940 1_655 S
C1061 C1060 1.502 . S
C1062 H1048 0.959 1_655 S
C1062 H1049 0.962 . S
C1062 H1050 0.959 . S
C1062 C1060 1.561 . S
C1063 C1060 1.524 . S
C1063 C1064 1.396 . S
C1063 C1068 1.390 . S
C1064 C1058 1.465 1_655 S
C1064 C1063 1.396 . S
C1064 C1065 1.399 . S
C1065 H1051 0.929 . S
C1065 C1064 1.399 . S
C1065 C1066 1.385 . S
C1066 H1052 0.931 . S
C1066 C1065 1.385 . S
C1066 C1067 1.389 . S
C1067 C1066 1.389 . S
C1067 C1068 1.387 . S
C1068 H1053 0.930 . S
C1068 C1063 1.390 . S
C1068 C1067 1.387 . S
H1069 C1081 0.930 . S
H1070 C1083 0.930 . S
H1071 C1084 0.930 . S
H1072 C1088 0.962 . S
H1073 C1088 0.978 . S
H1074 C1088 0.940 1_545 S
H1075 C1089 0.959 1_545 S
H1076 C1089 0.962 . S
H1077 C1089 0.959 . S
H1078 C1092 0.929 . S
H1079 C1093 0.931 . S
H1080 C1095 0.930 . S
C1081 H1069 0.930 . S
C1081 C1082 1.399 . S
C1081 C1086 1.399 . S
C1082 C1081 1.399 . S
C1082 C1083 1.376 . S
C1083 H1070 0.930 . S
C1083 C1082 1.376 . S
C1083 C1084 1.388 . S
C1084 H1071 0.930 . S
C1084 C1083 1.388 . S
C1084 C1085 1.390 . S
C1085 C1084 1.390 . S
C1085 C1086 1.394 . S
C1085 C1091 1.465 1_545 S
C1086 C1081 1.399 . S
C1086 C1085 1.394 . S
C1086 C1087 1.518 1_545 S
C1087 C1086 1.518 1_565 S
C1087 C1088 1.502 . S
C1087 C1089 1.561 . S
C1087 C1090 1.524 . S
C1088 H1072 0.962 . S
C1088 H1073 0.978 . S
C1088 H1074 0.940 1_565 S
C1088 C1087 1.502 . S
C1089 H1075 0.959 1_565 S
C1089 H1076 0.962 . S
C1089 H1077 0.959 . S
C1089 C1087 1.561 . S
C1090 C1087 1.524 . S
C1090 C1091 1.396 . S
C1090 C1095 1.390 . S
C1091 C1085 1.465 1_565 S
C1091 C1090 1.396 . S
C1091 C1092 1.399 . S
C1092 H1078 0.929 . S
C1092 C1091 1.399 . S
C1092 C1093 1.385 . S
C1093 H1079 0.931 . S
C1093 C1092 1.385 . S
C1093 C1094 1.389 . S
C1094 C1093 1.389 . S
C1094 C1095 1.387 . S
C1095 H1080 0.930 . S
C1095 C1090 1.390 . S
C1095 C1094 1.387 . S
H1096 C1108 0.930 . S
H1097 C1110 0.930 . S
H1098 C1111 0.930 . S
H1099 C1115 0.959 . S
H1100 C1115 0.959 . S
H1101 C1115 0.961 . S
H1102 C1116 0.960 . S
H1103 C1116 0.961 . S
H1104 C1116 0.959 . S
H1105 C1119 0.929 . S
H1106 C1120 0.931 . S
H1107 C1122 0.930 . S
C1108 H1096 0.930 . S
C1108 C1109 1.399 . S
C1108 C1113 1.399 . S
C1109 C1108 1.399 . S
C1109 C1110 1.376 . S
C1110 H1097 0.930 . S
C1110 C1109 1.376 . S
C1110 C1111 1.388 . S
C1111 H1098 0.930 . S
C1111 C1110 1.388 . S
C1111 C1112 1.390 . S
C1112 C1111 1.390 . S
C1112 C1113 1.394 . S
C1112 C1118 1.465 . S
C1113 C1108 1.399 . S
C1113 C1112 1.394 . S
C1113 C1114 1.516 . S
C1114 C1113 1.516 . S
C1114 C1115 1.502 . S
C1114 C1116 1.561 . S
C1114 C1117 1.526 . S
C1115 H1099 0.959 . S
C1115 H1100 0.959 . S
C1115 H1101 0.961 . S
C1115 C1114 1.502 . S
C1116 H1102 0.960 . S
C1116 H1103 0.961 . S
C1116 H1104 0.959 . S
C1116 C1114 1.561 . S
C1117 C1114 1.526 . S
C1117 C1118 1.396 . S
C1117 C1122 1.390 . S
C1118 C1112 1.465 . S
C1118 C1117 1.396 . S
C1118 C1119 1.399 . S
C1119 H1105 0.929 . S
C1119 C1118 1.399 . S
C1119 C1120 1.385 . S
C1120 H1106 0.931 . S
C1120 C1119 1.385 . S
C1120 C1121 1.389 . S
C1121 C1120 1.389 . S
C1121 C1122 1.387 . S
C1122 H1107 0.930 . S
C1122 C1117 1.390 . S
C1122 C1121 1.387 . S
H1123 C1135 0.930 . S
H1124 C1137 0.930 . S
H1125 C1138 0.930 . S
H1126 C1142 0.959 . S
H1127 C1142 0.959 . S
H1128 C1142 0.961 . S
H1129 C1143 0.960 . S
H1130 C1143 0.961 . S
H1131 C1143 0.959 . S
H1132 C1146 0.929 . S
H1133 C1147 0.931 . S
H1134 C1149 0.930 . S
C1135 H1123 0.930 . S
C1135 C1136 1.399 . S
C1135 C1140 1.399 . S
C1136 C1135 1.399 . S
C1136 C1137 1.376 . S
C1137 H1124 0.930 . S
C1137 C1136 1.376 . S
C1137 C1138 1.388 . S
C1138 H1125 0.930 . S
C1138 C1137 1.388 . S
C1138 C1139 1.390 . S
C1139 C1138 1.390 . S
C1139 C1140 1.394 . S
C1139 C1145 1.465 . S
C1140 C1135 1.399 . S
C1140 C1139 1.394 . S
C1140 C1141 1.516 . S
C1141 C1140 1.516 . S
C1141 C1142 1.502 . S
C1141 C1143 1.561 . S
C1141 C1144 1.526 . S
C1142 H1126 0.959 . S
C1142 H1127 0.959 . S
C1142 H1128 0.961 . S
C1142 C1141 1.502 . S
C1143 H1129 0.960 . S
C1143 H1130 0.961 . S
C1143 H1131 0.959 . S
C1143 C1141 1.561 . S
C1144 C1141 1.526 . S
C1144 C1145 1.396 . S
C1144 C1149 1.390 . S
C1145 C1139 1.465 . S
C1145 C1144 1.396 . S
C1145 C1146 1.399 . S
C1146 H1132 0.929 . S
C1146 C1145 1.399 . S
C1146 C1147 1.385 . S
C1147 H1133 0.931 . S
C1147 C1146 1.385 . S
C1147 C1148 1.389 . S
C1148 C1147 1.389 . S
C1148 C1149 1.387 . S
C1149 H1134 0.930 . S
C1149 C1144 1.390 . S
C1149 C1148 1.387 . S
H1150 C1162 0.930 . S
H1151 C1164 0.930 . S
H1152 C1165 0.930 . S
H1153 C1169 0.959 . S
H1154 C1169 0.959 . S
H1155 C1169 0.961 . S
H1156 C1170 0.960 . S
H1157 C1170 0.961 . S
H1158 C1170 0.959 . S
H1159 C1173 0.929 . S
H1160 C1174 0.931 . S
H1161 C1176 0.930 . S
C1162 H1150 0.930 . S
C1162 C1163 1.399 . S
C1162 C1167 1.399 . S
C1163 C1162 1.399 . S
C1163 C1164 1.376 . S
C1164 H1151 0.930 . S
C1164 C1163 1.376 . S
C1164 C1165 1.388 . S
C1165 H1152 0.930 . S
C1165 C1164 1.388 . S
C1165 C1166 1.390 . S
C1166 C1165 1.390 . S
C1166 C1167 1.394 . S
C1166 C1172 1.465 . S
C1167 C1162 1.399 . S
C1167 C1166 1.394 . S
C1167 C1168 1.516 . S
C1168 C1167 1.516 . S
C1168 C1169 1.502 . S
C1168 C1170 1.561 . S
C1168 C1171 1.526 . S
C1169 H1153 0.959 . S
C1169 H1154 0.959 . S
C1169 H1155 0.961 . S
C1169 C1168 1.502 . S
C1170 H1156 0.960 . S
C1170 H1157 0.961 . S
C1170 H1158 0.959 . S
C1170 C1168 1.561 . S
C1171 C1168 1.526 . S
C1171 C1172 1.396 . S
C1171 C1176 1.390 . S
C1172 C1166 1.465 . S
C1172 C1171 1.396 . S
C1172 C1173 1.399 . S
C1173 H1159 0.929 . S
C1173 C1172 1.399 . S
C1173 C1174 1.385 . S
C1174 H1160 0.931 . S
C1174 C1173 1.385 . S
C1174 C1175 1.389 . S
C1175 C1174 1.389 . S
C1175 C1176 1.387 . S
C1176 H1161 0.930 . S
C1176 C1171 1.390 . S
C1176 C1175 1.387 . S
H1177 C1189 0.930 . S
H1178 C1191 0.930 . S
H1179 C1192 0.930 . S
H1180 C1196 0.959 . S
H1181 C1196 0.959 . S
H1182 C1196 0.961 . S
H1183 C1197 0.960 . S
H1184 C1197 0.961 . S
H1185 C1197 0.959 . S
H1186 C1200 0.929 . S
H1187 C1201 0.931 . S
H1188 C1203 0.930 . S
C1189 H1177 0.930 . S
C1189 C1190 1.399 . S
C1189 C1194 1.399 . S
C1190 C1189 1.399 . S
C1190 C1191 1.376 . S
C1191 H1178 0.930 . S
C1191 C1190 1.376 . S
C1191 C1192 1.388 . S
C1192 H1179 0.930 . S
C1192 C1191 1.388 . S
C1192 C1193 1.390 . S
C1193 C1192 1.390 . S
C1193 C1194 1.394 . S
C1193 C1199 1.465 . S
C1194 C1189 1.399 . S
C1194 C1193 1.394 . S
C1194 C1195 1.516 . S
C1195 C1194 1.516 . S
C1195 C1196 1.502 . S
C1195 C1197 1.561 . S
C1195 C1198 1.526 . S
C1196 H1180 0.959 . S
C1196 H1181 0.959 . S
C1196 H1182 0.961 . S
C1196 C1195 1.502 . S
C1197 H1183 0.960 . S
C1197 H1184 0.961 . S
C1197 H1185 0.959 . S
C1197 C1195 1.561 . S
C1198 C1195 1.526 . S
C1198 C1199 1.396 . S
C1198 C1203 1.390 . S
C1199 C1193 1.465 . S
C1199 C1198 1.396 . S
C1199 C1200 1.399 . S
C1200 H1186 0.929 . S
C1200 C1199 1.399 . S
C1200 C1201 1.385 . S
C1201 H1187 0.931 . S
C1201 C1200 1.385 . S
C1201 C1202 1.389 . S
C1202 C1201 1.389 . S
C1202 C1203 1.387 . S
C1203 H1188 0.930 . S
C1203 C1198 1.390 . S
C1203 C1202 1.387 . S
H1204 C1216 0.930 . S
H1205 C1218 0.930 . S
H1206 C1219 0.930 . S
H1207 C1223 0.959 . S
H1208 C1223 0.959 . S
H1209 C1223 0.961 . S
H1210 C1224 0.960 . S
H1211 C1224 0.961 . S
H1212 C1224 0.959 . S
H1213 C1227 0.929 . S
H1214 C1228 0.931 . S
H1215 C1230 0.930 . S
C1216 H1204 0.930 . S
C1216 C1217 1.399 . S
C1216 C1221 1.399 . S
C1217 C1216 1.399 . S
C1217 C1218 1.376 . S
C1218 H1205 0.930 . S
C1218 C1217 1.376 . S
C1218 C1219 1.388 . S
C1219 H1206 0.930 . S
C1219 C1218 1.388 . S
C1219 C1220 1.390 . S
C1220 C1219 1.390 . S
C1220 C1221 1.394 . S
C1220 C1226 1.465 . S
C1221 C1216 1.399 . S
C1221 C1220 1.394 . S
C1221 C1222 1.516 . S
C1222 C1221 1.516 . S
C1222 C1223 1.502 . S
C1222 C1224 1.561 . S
C1222 C1225 1.526 . S
C1223 H1207 0.959 . S
C1223 H1208 0.959 . S
C1223 H1209 0.961 . S
C1223 C1222 1.502 . S
C1224 H1210 0.960 . S
C1224 H1211 0.961 . S
C1224 H1212 0.959 . S
C1224 C1222 1.561 . S
C1225 C1222 1.526 . S
C1225 C1226 1.396 . S
C1225 C1230 1.390 . S
C1226 C1220 1.465 . S
C1226 C1225 1.396 . S
C1226 C1227 1.399 . S
C1227 H1213 0.929 . S
C1227 C1226 1.399 . S
C1227 C1228 1.385 . S
C1228 H1214 0.931 . S
C1228 C1227 1.385 . S
C1228 C1229 1.389 . S
C1229 C1228 1.389 . S
C1229 C1230 1.387 . S
C1230 H1215 0.930 . S
C1230 C1225 1.390 . S
C1230 C1229 1.387 . S
H1231 C1243 0.930 . S
H1232 C1245 0.930 . S
H1233 C1246 0.930 . S
H1234 C1250 0.959 . S
H1235 C1250 0.959 . S
H1236 C1250 0.961 . S
H1237 C1251 0.960 . S
H1238 C1251 0.961 . S
H1239 C1251 0.959 . S
H1240 C1254 0.929 . S
H1241 C1255 0.931 . S
H1242 C1257 0.930 . S
C1243 H1231 0.930 . S
C1243 C1244 1.399 . S
C1243 C1248 1.399 . S
C1244 C1243 1.399 . S
C1244 C1245 1.376 . S
C1245 H1232 0.930 . S
C1245 C1244 1.376 . S
C1245 C1246 1.388 . S
C1246 H1233 0.930 . S
C1246 C1245 1.388 . S
C1246 C1247 1.390 . S
C1247 C1246 1.390 . S
C1247 C1248 1.394 . S
C1247 C1253 1.465 . S
C1248 C1243 1.399 . S
C1248 C1247 1.394 . S
C1248 C1249 1.516 . S
C1249 C1248 1.516 . S
C1249 C1250 1.502 . S
C1249 C1251 1.561 . S
C1249 C1252 1.526 . S
C1250 H1234 0.959 . S
C1250 H1235 0.959 . S
C1250 H1236 0.961 . S
C1250 C1249 1.502 . S
C1251 H1237 0.960 . S
C1251 H1238 0.961 . S
C1251 H1239 0.959 . S
C1251 C1249 1.561 . S
C1252 C1249 1.526 . S
C1252 C1253 1.396 . S
C1252 C1257 1.390 . S
C1253 C1247 1.465 . S
C1253 C1252 1.396 . S
C1253 C1254 1.399 . S
C1254 H1240 0.929 . S
C1254 C1253 1.399 . S
C1254 C1255 1.385 . S
C1255 H1241 0.931 . S
C1255 C1254 1.385 . S
C1255 C1256 1.389 . S
C1256 C1255 1.389 . S
C1256 C1257 1.387 . S
C1257 H1242 0.930 . S
C1257 C1252 1.390 . S
C1257 C1256 1.387 . S
H1258 C1270 0.930 . S
H1259 C1272 0.930 . S
H1260 C1273 0.930 . S
H1261 C1277 0.959 . S
H1262 C1277 0.959 . S
H1263 C1277 0.961 . S
H1264 C1278 0.960 . S
H1265 C1278 0.961 . S
H1266 C1278 0.959 . S
H1267 C1281 0.929 . S
H1268 C1282 0.931 . S
H1269 C1284 0.930 . S
C1270 H1258 0.930 . S
C1270 C1271 1.399 . S
C1270 C1275 1.399 . S
C1271 C1270 1.399 . S
C1271 C1272 1.376 . S
C1272 H1259 0.930 . S
C1272 C1271 1.376 . S
C1272 C1273 1.388 . S
C1273 H1260 0.930 . S
C1273 C1272 1.388 . S
C1273 C1274 1.390 . S
C1274 C1273 1.390 . S
C1274 C1275 1.394 . S
C1274 C1280 1.465 . S
C1275 C1270 1.399 . S
C1275 C1274 1.394 . S
C1275 C1276 1.516 . S
C1276 C1275 1.516 . S
C1276 C1277 1.502 . S
C1276 C1278 1.561 . S
C1276 C1279 1.526 . S
C1277 H1261 0.959 . S
C1277 H1262 0.959 . S
C1277 H1263 0.961 . S
C1277 C1276 1.502 . S
C1278 H1264 0.960 . S
C1278 H1265 0.961 . S
C1278 H1266 0.959 . S
C1278 C1276 1.561 . S
C1279 C1276 1.526 . S
C1279 C1280 1.396 . S
C1279 C1284 1.390 . S
C1280 C1274 1.465 . S
C1280 C1279 1.396 . S
C1280 C1281 1.399 . S
C1281 H1267 0.929 . S
C1281 C1280 1.399 . S
C1281 C1282 1.385 . S
C1282 H1268 0.931 . S
C1282 C1281 1.385 . S
C1282 C1283 1.389 . S
C1283 C1282 1.389 . S
C1283 C1284 1.387 . S
C1284 H1269 0.930 . S
C1284 C1279 1.390 . S
C1284 C1283 1.387 . S
H1285 C1297 0.930 . S
H1286 C1299 0.930 . S
H1287 C1300 0.930 . S
H1288 C1304 0.959 . S
H1289 C1304 0.959 . S
H1290 C1304 0.961 . S
H1291 C1305 0.960 . S
H1292 C1305 0.961 . S
H1293 C1305 0.959 . S
H1294 C1308 0.929 . S
H1295 C1309 0.931 . S
H1296 C1311 0.930 . S
C1297 H1285 0.930 . S
C1297 C1298 1.399 . S
C1297 C1302 1.399 . S
C1298 C1297 1.399 . S
C1298 C1299 1.376 . S
C1299 H1286 0.930 . S
C1299 C1298 1.376 . S
C1299 C1300 1.388 . S
C1300 H1287 0.930 . S
C1300 C1299 1.388 . S
C1300 C1301 1.390 . S
C1301 C1300 1.390 . S
C1301 C1302 1.394 . S
C1301 C1307 1.465 . S
C1302 C1297 1.399 . S
C1302 C1301 1.394 . S
C1302 C1303 1.516 . S
C1303 C1302 1.516 . S
C1303 C1304 1.502 . S
C1303 C1305 1.561 . S
C1303 C1306 1.526 . S
C1304 H1288 0.959 . S
C1304 H1289 0.959 . S
C1304 H1290 0.961 . S
C1304 C1303 1.502 . S
C1305 H1291 0.960 . S
C1305 H1292 0.961 . S
C1305 H1293 0.959 . S
C1305 C1303 1.561 . S
C1306 C1303 1.526 . S
C1306 C1307 1.396 . S
C1306 C1311 1.390 . S
C1307 C1301 1.465 . S
C1307 C1306 1.396 . S
C1307 C1308 1.399 . S
C1308 H1294 0.929 . S
C1308 C1307 1.399 . S
C1308 C1309 1.385 . S
C1309 H1295 0.931 . S
C1309 C1308 1.385 . S
C1309 C1310 1.389 . S
C1310 C1309 1.389 . S
C1310 C1311 1.387 . S
C1311 H1296 0.930 . S
C1311 C1306 1.390 . S
C1311 C1310 1.387 . S
H1312 C1324 0.930 . S
H1313 C1326 0.930 . S
H1314 C1327 0.930 . S
H1315 C1331 0.959 . S
H1316 C1331 0.959 . S
H1317 C1331 0.961 . S
H1318 C1332 0.960 . S
H1319 C1332 0.961 . S
H1320 C1332 0.959 . S
H1321 C1335 0.929 . S
H1322 C1336 0.931 . S
H1323 C1338 0.930 . S
C1324 H1312 0.930 . S
C1324 C1325 1.399 . S
C1324 C1329 1.399 . S
C1325 C1324 1.399 . S
C1325 C1326 1.376 . S
C1326 H1313 0.930 . S
C1326 C1325 1.376 . S
C1326 C1327 1.388 . S
C1327 H1314 0.930 . S
C1327 C1326 1.388 . S
C1327 C1328 1.390 . S
C1328 C1327 1.390 . S
C1328 C1329 1.394 . S
C1328 C1334 1.465 . S
C1329 C1324 1.399 . S
C1329 C1328 1.394 . S
C1329 C1330 1.516 . S
C1330 C1329 1.516 . S
C1330 C1331 1.502 . S
C1330 C1332 1.561 . S
C1330 C1333 1.526 . S
C1331 H1315 0.959 . S
C1331 H1316 0.959 . S
C1331 H1317 0.961 . S
C1331 C1330 1.502 . S
C1332 H1318 0.960 . S
C1332 H1319 0.961 . S
C1332 H1320 0.959 . S
C1332 C1330 1.561 . S
C1333 C1330 1.526 . S
C1333 C1334 1.396 . S
C1333 C1338 1.390 . S
C1334 C1328 1.465 . S
C1334 C1333 1.396 . S
C1334 C1335 1.399 . S
C1335 H1321 0.929 . S
C1335 C1334 1.399 . S
C1335 C1336 1.385 . S
C1336 H1322 0.931 . S
C1336 C1335 1.385 . S
C1336 C1337 1.389 . S
C1337 C1336 1.389 . S
C1337 C1338 1.387 . S
C1338 H1323 0.930 . S
C1338 C1333 1.390 . S
C1338 C1337 1.387 . S
H1339 C1351 0.930 . S
H1340 C1353 0.930 . S
H1341 C1354 0.930 . S
H1342 C1358 0.959 . S
H1343 C1358 0.959 . S
H1344 C1358 0.961 . S
H1345 C1359 0.960 . S
H1346 C1359 0.961 . S
H1347 C1359 0.959 . S
H1348 C1362 0.929 . S
H1349 C1363 0.931 . S
H1350 C1365 0.930 . S
C1351 H1339 0.930 . S
C1351 C1352 1.399 . S
C1351 C1356 1.399 . S
C1352 C1351 1.399 . S
C1352 C1353 1.376 . S
C1353 H1340 0.930 . S
C1353 C1352 1.376 . S
C1353 C1354 1.388 . S
C1354 H1341 0.930 . S
C1354 C1353 1.388 . S
C1354 C1355 1.390 . S
C1355 C1354 1.390 . S
C1355 C1356 1.394 . S
C1355 C1361 1.465 . S
C1356 C1351 1.399 . S
C1356 C1355 1.394 . S
C1356 C1357 1.516 . S
C1357 C1356 1.516 . S
C1357 C1358 1.502 . S
C1357 C1359 1.561 . S
C1357 C1360 1.526 . S
C1358 H1342 0.959 . S
C1358 H1343 0.959 . S
C1358 H1344 0.961 . S
C1358 C1357 1.502 . S
C1359 H1345 0.960 . S
C1359 H1346 0.961 . S
C1359 H1347 0.959 . S
C1359 C1357 1.561 . S
C1360 C1357 1.526 . S
C1360 C1361 1.396 . S
C1360 C1365 1.390 . S
C1361 C1355 1.465 . S
C1361 C1360 1.396 . S
C1361 C1362 1.399 . S
C1362 H1348 0.929 . S
C1362 C1361 1.399 . S
C1362 C1363 1.385 . S
C1363 H1349 0.931 . S
C1363 C1362 1.385 . S
C1363 C1364 1.389 . S
C1364 C1363 1.389 . S
C1364 C1365 1.387 . S
C1365 H1350 0.930 . S
C1365 C1360 1.390 . S
C1365 C1364 1.387 . S
H1366 C1378 0.930 . S
H1367 C1380 0.930 . S
H1368 C1381 0.930 . S
H1369 C1385 0.959 . S
H1370 C1385 0.959 . S
H1371 C1385 0.961 . S
H1372 C1386 0.960 . S
H1373 C1386 0.961 . S
H1374 C1386 0.959 . S
H1375 C1389 0.929 . S
H1376 C1390 0.931 . S
H1377 C1392 0.930 . S
C1378 H1366 0.930 . S
C1378 C1379 1.399 . S
C1378 C1383 1.399 . S
C1379 C1378 1.399 . S
C1379 C1380 1.376 . S
C1380 H1367 0.930 . S
C1380 C1379 1.376 . S
C1380 C1381 1.388 . S
C1381 H1368 0.930 . S
C1381 C1380 1.388 . S
C1381 C1382 1.390 . S
C1382 C1381 1.390 . S
C1382 C1383 1.394 . S
C1382 C1388 1.465 . S
C1383 C1378 1.399 . S
C1383 C1382 1.394 . S
C1383 C1384 1.516 . S
C1384 C1383 1.516 . S
C1384 C1385 1.502 . S
C1384 C1386 1.561 . S
C1384 C1387 1.526 . S
C1385 H1369 0.959 . S
C1385 H1370 0.959 . S
C1385 H1371 0.961 . S
C1385 C1384 1.502 . S
C1386 H1372 0.960 . S
C1386 H1373 0.961 . S
C1386 H1374 0.959 . S
C1386 C1384 1.561 . S
C1387 C1384 1.526 . S
C1387 C1388 1.396 . S
C1387 C1392 1.390 . S
C1388 C1382 1.465 . S
C1388 C1387 1.396 . S
C1388 C1389 1.399 . S
C1389 H1375 0.929 . S
C1389 C1388 1.399 . S
C1389 C1390 1.385 . S
C1390 H1376 0.931 . S
C1390 C1389 1.385 . S
C1390 C1391 1.389 . S
C1391 C1390 1.389 . S
C1391 C1392 1.387 . S
C1392 H1377 0.930 . S
C1392 C1387 1.390 . S
C1392 C1391 1.387 . S
H1393 C1405 0.930 . S
H1394 C1407 0.930 . S
H1395 C1408 0.930 . S
H1396 C1412 0.959 . S
H1397 C1412 0.959 . S
H1398 C1412 0.961 . S
H1399 C1413 0.960 . S
H1400 C1413 0.961 . S
H1401 C1413 0.959 . S
H1402 C1416 0.929 . S
H1403 C1417 0.931 . S
H1404 C1419 0.930 . S
C1405 H1393 0.930 . S
C1405 C1406 1.399 . S
C1405 C1410 1.399 . S
C1406 C1405 1.399 . S
C1406 C1407 1.376 . S
C1407 H1394 0.930 . S
C1407 C1406 1.376 . S
C1407 C1408 1.388 . S
C1408 H1395 0.930 . S
C1408 C1407 1.388 . S
C1408 C1409 1.390 . S
C1409 C1408 1.390 . S
C1409 C1410 1.394 . S
C1409 C1415 1.465 . S
C1410 C1405 1.399 . S
C1410 C1409 1.394 . S
C1410 C1411 1.516 . S
C1411 C1410 1.516 . S
C1411 C1412 1.502 . S
C1411 C1413 1.561 . S
C1411 C1414 1.526 . S
C1412 H1396 0.959 . S
C1412 H1397 0.959 . S
C1412 H1398 0.961 . S
C1412 C1411 1.502 . S
C1413 H1399 0.960 . S
C1413 H1400 0.961 . S
C1413 H1401 0.959 . S
C1413 C1411 1.561 . S
C1414 C1411 1.526 . S
C1414 C1415 1.396 . S
C1414 C1419 1.390 . S
C1415 C1409 1.465 . S
C1415 C1414 1.396 . S
C1415 C1416 1.399 . S
C1416 H1402 0.929 . S
C1416 C1415 1.399 . S
C1416 C1417 1.385 . S
C1417 H1403 0.931 . S
C1417 C1416 1.385 . S
C1417 C1418 1.389 . S
C1418 C1417 1.389 . S
C1418 C1419 1.387 . S
C1419 H1404 0.930 . S
C1419 C1414 1.390 . S
C1419 C1418 1.387 . S
H1420 C1432 0.930 . S
H1421 C1434 0.930 . S
H1422 C1435 0.930 . S
H1423 C1439 0.959 . S
H1424 C1439 0.959 . S
H1425 C1439 0.961 . S
H1426 C1440 0.960 . S
H1427 C1440 0.961 . S
H1428 C1440 0.959 . S
H1429 C1443 0.929 . S
H1430 C1444 0.931 . S
H1431 C1446 0.930 . S
C1432 H1420 0.930 . S
C1432 C1433 1.399 . S
C1432 C1437 1.399 . S
C1433 C1432 1.399 . S
C1433 C1434 1.376 . S
C1434 H1421 0.930 . S
C1434 C1433 1.376 . S
C1434 C1435 1.388 . S
C1435 H1422 0.930 . S
C1435 C1434 1.388 . S
C1435 C1436 1.390 . S
C1436 C1435 1.390 . S
C1436 C1437 1.394 . S
C1436 C1442 1.465 . S
C1437 C1432 1.399 . S
C1437 C1436 1.394 . S
C1437 C1438 1.516 . S
C1438 C1437 1.516 . S
C1438 C1439 1.502 . S
C1438 C1440 1.561 . S
C1438 C1441 1.526 . S
C1439 H1423 0.959 . S
C1439 H1424 0.959 . S
C1439 H1425 0.961 . S
C1439 C1438 1.502 . S
C1440 H1426 0.960 . S
C1440 H1427 0.961 . S
C1440 H1428 0.959 . S
C1440 C1438 1.561 . S
C1441 C1438 1.526 . S
C1441 C1442 1.396 . S
C1441 C1446 1.390 . S
C1442 C1436 1.465 . S
C1442 C1441 1.396 . S
C1442 C1443 1.399 . S
C1443 H1429 0.929 . S
C1443 C1442 1.399 . S
C1443 C1444 1.385 . S
C1444 H1430 0.931 . S
C1444 C1443 1.385 . S
C1444 C1445 1.389 . S
C1445 C1444 1.389 . S
C1445 C1446 1.387 . S
C1446 H1431 0.930 . S
C1446 C1441 1.390 . S
C1446 C1445 1.387 . S
H1447 C1459 0.930 . S
H1448 C1461 0.930 . S
H1449 C1462 0.930 . S
H1450 C1466 0.959 . S
H1451 C1466 0.959 . S
H1452 C1466 0.961 . S
H1453 C1467 0.960 . S
H1454 C1467 0.961 . S
H1455 C1467 0.959 . S
H1456 C1470 0.929 . S
H1457 C1471 0.931 . S
H1458 C1473 0.930 . S
C1459 H1447 0.930 . S
C1459 C1460 1.399 . S
C1459 C1464 1.399 . S
C1460 C1459 1.399 . S
C1460 C1461 1.376 . S
C1461 H1448 0.930 . S
C1461 C1460 1.376 . S
C1461 C1462 1.388 . S
C1462 H1449 0.930 . S
C1462 C1461 1.388 . S
C1462 C1463 1.390 . S
C1463 C1462 1.390 . S
C1463 C1464 1.394 . S
C1463 C1469 1.465 . S
C1464 C1459 1.399 . S
C1464 C1463 1.394 . S
C1464 C1465 1.516 . S
C1465 C1464 1.516 . S
C1465 C1466 1.502 . S
C1465 C1467 1.561 . S
C1465 C1468 1.526 . S
C1466 H1450 0.959 . S
C1466 H1451 0.959 . S
C1466 H1452 0.961 . S
C1466 C1465 1.502 . S
C1467 H1453 0.960 . S
C1467 H1454 0.961 . S
C1467 H1455 0.959 . S
C1467 C1465 1.561 . S
C1468 C1465 1.526 . S
C1468 C1469 1.396 . S
C1468 C1473 1.390 . S
C1469 C1463 1.465 . S
C1469 C1468 1.396 . S
C1469 C1470 1.399 . S
C1470 H1456 0.929 . S
C1470 C1469 1.399 . S
C1470 C1471 1.385 . S
C1471 H1457 0.931 . S
C1471 C1470 1.385 . S
C1471 C1472 1.389 . S
C1472 C1471 1.389 . S
C1472 C1473 1.387 . S
C1473 H1458 0.930 . S
C1473 C1468 1.390 . S
C1473 C1472 1.387 . S
H1474 C1486 0.930 . S
H1475 C1488 0.930 . S
H1476 C1489 0.930 . S
H1477 C1493 0.959 . S
H1478 C1493 0.959 . S
H1479 C1493 0.961 . S
H1480 C1494 0.960 . S
H1481 C1494 0.961 . S
H1482 C1494 0.959 . S
H1483 C1497 0.929 . S
H1484 C1498 0.931 . S
H1485 C1500 0.930 . S
C1486 H1474 0.930 . S
C1486 C1487 1.399 . S
C1486 C1491 1.399 . S
C1487 C1486 1.399 . S
C1487 C1488 1.376 . S
C1488 H1475 0.930 . S
C1488 C1487 1.376 . S
C1488 C1489 1.388 . S
C1489 H1476 0.930 . S
C1489 C1488 1.388 . S
C1489 C1490 1.390 . S
C1490 C1489 1.390 . S
C1490 C1491 1.394 . S
C1490 C1496 1.465 . S
C1491 C1486 1.399 . S
C1491 C1490 1.394 . S
C1491 C1492 1.516 . S
C1492 C1491 1.516 . S
C1492 C1493 1.502 . S
C1492 C1494 1.561 . S
C1492 C1495 1.526 . S
C1493 H1477 0.959 . S
C1493 H1478 0.959 . S
C1493 H1479 0.961 . S
C1493 C1492 1.502 . S
C1494 H1480 0.960 . S
C1494 H1481 0.961 . S
C1494 H1482 0.959 . S
C1494 C1492 1.561 . S
C1495 C1492 1.526 . S
C1495 C1496 1.396 . S
C1495 C1500 1.390 . S
C1496 C1490 1.465 . S
C1496 C1495 1.396 . S
C1496 C1497 1.399 . S
C1497 H1483 0.929 . S
C1497 C1496 1.399 . S
C1497 C1498 1.385 . S
C1498 H1484 0.931 . S
C1498 C1497 1.385 . S
C1498 C1499 1.389 . S
C1499 C1498 1.389 . S
C1499 C1500 1.387 . S
C1500 H1485 0.930 . S
C1500 C1495 1.390 . S
C1500 C1499 1.387 . S
H1501 C1513 0.930 . S
H1502 C1515 0.930 . S
H1503 C1516 0.930 . S
H1504 C1520 0.959 . S
H1505 C1520 0.959 . S
H1506 C1520 0.961 . S
H1507 C1521 0.960 . S
H1508 C1521 0.961 . S
H1509 C1521 0.959 . S
H1510 C1524 0.929 . S
H1511 C1525 0.931 . S
H1512 C1527 0.930 . S
C1513 H1501 0.930 . S
C1513 C1514 1.399 . S
C1513 C1518 1.399 . S
C1514 C1513 1.399 . S
C1514 C1515 1.376 . S
C1515 H1502 0.930 . S
C1515 C1514 1.376 . S
C1515 C1516 1.388 . S
C1516 H1503 0.930 . S
C1516 C1515 1.388 . S
C1516 C1517 1.390 . S
C1517 C1516 1.390 . S
C1517 C1518 1.394 . S
C1517 C1523 1.465 . S
C1518 C1513 1.399 . S
C1518 C1517 1.394 . S
C1518 C1519 1.516 . S
C1519 C1518 1.516 . S
C1519 C1520 1.502 . S
C1519 C1521 1.561 . S
C1519 C1522 1.526 . S
C1520 H1504 0.959 . S
C1520 H1505 0.959 . S
C1520 H1506 0.961 . S
C1520 C1519 1.502 . S
C1521 H1507 0.960 . S
C1521 H1508 0.961 . S
C1521 H1509 0.959 . S
C1521 C1519 1.561 . S
C1522 C1519 1.526 . S
C1522 C1523 1.396 . S
C1522 C1527 1.390 . S
C1523 C1517 1.465 . S
C1523 C1522 1.396 . S
C1523 C1524 1.399 . S
C1524 H1510 0.929 . S
C1524 C1523 1.399 . S
C1524 C1525 1.385 . S
C1525 H1511 0.931 . S
C1525 C1524 1.385 . S
C1525 C1526 1.389 . S
C1526 C1525 1.389 . S
C1526 C1527 1.387 . S
C1527 H1512 0.930 . S
C1527 C1522 1.390 . S
C1527 C1526 1.387 . S
H1528 C1540 0.930 . S
H1529 C1542 0.930 . S
H1530 C1543 0.930 . S
H1531 C1547 0.962 . S
H1532 C1547 0.979 . S
H1533 C1547 0.939 1_554 S
H1534 C1548 0.957 1_554 S
H1535 C1548 0.963 . S
H1536 C1548 0.959 . S
H1537 C1551 0.929 . S
H1538 C1552 0.931 . S
H1539 C1554 0.930 . S
C1540 H1528 0.930 . S
C1540 C1541 1.399 . S
C1540 C1545 1.399 . S
C1541 C1540 1.399 . S
C1541 C1542 1.376 . S
C1542 H1529 0.930 . S
C1542 C1541 1.376 . S
C1542 C1543 1.388 . S
C1543 H1530 0.930 . S
C1543 C1542 1.388 . S
C1543 C1544 1.390 . S
C1544 C1543 1.390 . S
C1544 C1545 1.394 . S
C1544 C1550 1.465 1_554 S
C1545 C1540 1.399 . S
C1545 C1544 1.394 . S
C1545 C1546 1.517 1_554 S
C1546 C1545 1.517 1_556 S
C1546 C1547 1.502 . S
C1546 C1548 1.561 . S
C1546 C1549 1.525 . S
C1547 H1531 0.962 . S
C1547 H1532 0.979 . S
C1547 H1533 0.939 1_556 S
C1547 C1546 1.502 . S
C1548 H1534 0.957 1_556 S
C1548 H1535 0.963 . S
C1548 H1536 0.959 . S
C1548 C1546 1.561 . S
C1549 C1546 1.525 . S
C1549 C1550 1.396 . S
C1549 C1554 1.390 . S
C1550 C1544 1.465 1_556 S
C1550 C1549 1.396 . S
C1550 C1551 1.399 . S
C1551 H1537 0.929 . S
C1551 C1550 1.399 . S
C1551 C1552 1.385 . S
C1552 H1538 0.931 . S
C1552 C1551 1.385 . S
C1552 C1553 1.389 . S
C1553 C1552 1.389 . S
C1553 C1554 1.387 . S
C1554 H1539 0.930 . S
C1554 C1549 1.390 . S
C1554 C1553 1.387 . S
H1555 C1567 0.930 . S
H1556 C1569 0.930 . S
H1557 C1570 0.930 . S
H1558 C1574 0.962 . S
H1559 C1574 0.979 . S
H1560 C1574 0.939 1_556 S
H1561 C1575 0.957 1_556 S
H1562 C1575 0.963 . S
H1563 C1575 0.959 . S
H1564 C1578 0.929 . S
H1565 C1579 0.931 . S
H1566 C1581 0.930 . S
C1567 H1555 0.930 . S
C1567 C1568 1.399 . S
C1567 C1572 1.399 . S
C1568 C1567 1.399 . S
C1568 C1569 1.376 . S
C1569 H1556 0.930 . S
C1569 C1568 1.376 . S
C1569 C1570 1.388 . S
C1570 H1557 0.930 . S
C1570 C1569 1.388 . S
C1570 C1571 1.390 . S
C1571 C1570 1.390 . S
C1571 C1572 1.394 . S
C1571 C1577 1.465 1_556 S
C1572 C1567 1.399 . S
C1572 C1571 1.394 . S
C1572 C1573 1.517 1_556 S
C1573 C1572 1.517 1_554 S
C1573 C1574 1.502 . S
C1573 C1575 1.561 . S
C1573 C1576 1.525 . S
C1574 H1558 0.962 . S
C1574 H1559 0.979 . S
C1574 H1560 0.939 1_554 S
C1574 C1573 1.502 . S
C1575 H1561 0.957 1_554 S
C1575 H1562 0.963 . S
C1575 H1563 0.959 . S
C1575 C1573 1.561 . S
C1576 C1573 1.525 . S
C1576 C1577 1.396 . S
C1576 C1581 1.390 . S
C1577 C1571 1.465 1_554 S
C1577 C1576 1.396 . S
C1577 C1578 1.399 . S
C1578 H1564 0.929 . S
C1578 C1577 1.399 . S
C1578 C1579 1.385 . S
C1579 H1565 0.931 . S
C1579 C1578 1.385 . S
C1579 C1580 1.389 . S
C1580 C1579 1.389 . S
C1580 C1581 1.387 . S
C1581 H1566 0.930 . S
C1581 C1576 1.390 . S
C1581 C1580 1.387 . S
H1582 C1594 0.930 . S
H1583 C1596 0.930 . S
H1584 C1597 0.930 . S
H1585 C1601 0.962 . S
H1586 C1601 0.979 . S
H1587 C1601 0.939 1_554 S
H1588 C1602 0.957 1_554 S
H1589 C1602 0.963 . S
H1590 C1602 0.959 . S
H1591 C1605 0.929 . S
H1592 C1606 0.931 . S
H1593 C1608 0.930 . S
C1594 H1582 0.930 . S
C1594 C1595 1.399 . S
C1594 C1599 1.399 . S
C1595 C1594 1.399 . S
C1595 C1596 1.376 . S
C1596 H1583 0.930 . S
C1596 C1595 1.376 . S
C1596 C1597 1.388 . S
C1597 H1584 0.930 . S
C1597 C1596 1.388 . S
C1597 C1598 1.390 . S
C1598 C1597 1.390 . S
C1598 C1599 1.394 . S
C1598 C1604 1.465 1_554 S
C1599 C1594 1.399 . S
C1599 C1598 1.394 . S
C1599 C1600 1.517 1_554 S
C1600 C1599 1.517 1_556 S
C1600 C1601 1.502 . S
C1600 C1602 1.561 . S
C1600 C1603 1.525 . S
C1601 H1585 0.962 . S
C1601 H1586 0.979 . S
C1601 H1587 0.939 1_556 S
C1601 C1600 1.502 . S
C1602 H1588 0.957 1_556 S
C1602 H1589 0.963 . S
C1602 H1590 0.959 . S
C1602 C1600 1.561 . S
C1603 C1600 1.525 . S
C1603 C1604 1.396 . S
C1603 C1608 1.390 . S
C1604 C1598 1.465 1_556 S
C1604 C1603 1.396 . S
C1604 C1605 1.399 . S
C1605 H1591 0.929 . S
C1605 C1604 1.399 . S
C1605 C1606 1.385 . S
C1606 H1592 0.931 . S
C1606 C1605 1.385 . S
C1606 C1607 1.389 . S
C1607 C1606 1.389 . S
C1607 C1608 1.387 . S
C1608 H1593 0.930 . S
C1608 C1603 1.390 . S
C1608 C1607 1.387 . S
H1609 C1621 0.930 . S
H1610 C1623 0.930 . S
H1611 C1624 0.930 . S
H1612 C1628 0.962 . S
H1613 C1628 0.979 . S
H1614 C1628 0.939 1_554 S
H1615 C1629 0.957 1_554 S
H1616 C1629 0.963 . S
H1617 C1629 0.959 . S
H1618 C1632 0.929 . S
H1619 C1633 0.931 . S
H1620 C1635 0.930 . S
C1621 H1609 0.930 . S
C1621 C1622 1.399 . S
C1621 C1626 1.399 . S
C1622 C1621 1.399 . S
C1622 C1623 1.376 . S
C1623 H1610 0.930 . S
C1623 C1622 1.376 . S
C1623 C1624 1.388 . S
C1624 H1611 0.930 . S
C1624 C1623 1.388 . S
C1624 C1625 1.390 . S
C1625 C1624 1.390 . S
C1625 C1626 1.394 . S
C1625 C1631 1.465 1_554 S
C1626 C1621 1.399 . S
C1626 C1625 1.394 . S
C1626 C1627 1.517 1_554 S
C1627 C1626 1.517 1_556 S
C1627 C1628 1.502 . S
C1627 C1629 1.561 . S
C1627 C1630 1.525 . S
C1628 H1612 0.962 . S
C1628 H1613 0.979 . S
C1628 H1614 0.939 1_556 S
C1628 C1627 1.502 . S
C1629 H1615 0.957 1_556 S
C1629 H1616 0.963 . S
C1629 H1617 0.959 . S
C1629 C1627 1.561 . S
C1630 C1627 1.525 . S
C1630 C1631 1.396 . S
C1630 C1635 1.390 . S
C1631 C1625 1.465 1_556 S
C1631 C1630 1.396 . S
C1631 C1632 1.399 . S
C1632 H1618 0.929 . S
C1632 C1631 1.399 . S
C1632 C1633 1.385 . S
C1633 H1619 0.931 . S
C1633 C1632 1.385 . S
C1633 C1634 1.389 . S
C1634 C1633 1.389 . S
C1634 C1635 1.387 . S
C1635 H1620 0.930 . S
C1635 C1630 1.390 . S
C1635 C1634 1.387 . S
H1636 C1648 0.930 . S
H1637 C1650 0.930 . S
H1638 C1651 0.930 . S
H1639 C1655 0.962 . S
H1640 C1655 0.979 . S
H1641 C1655 0.939 1_554 S
H1642 C1656 0.957 1_554 S
H1643 C1656 0.963 . S
H1644 C1656 0.959 . S
H1645 C1659 0.929 . S
H1646 C1660 0.931 . S
H1647 C1662 0.930 . S
C1648 H1636 0.930 . S
C1648 C1649 1.399 . S
C1648 C1653 1.399 . S
C1649 C1648 1.399 . S
C1649 C1650 1.376 . S
C1650 H1637 0.930 . S
C1650 C1649 1.376 . S
C1650 C1651 1.388 . S
C1651 H1638 0.930 . S
C1651 C1650 1.388 . S
C1651 C1652 1.390 . S
C1652 C1651 1.390 . S
C1652 C1653 1.394 . S
C1652 C1658 1.465 1_554 S
C1653 C1648 1.399 . S
C1653 C1652 1.394 . S
C1653 C1654 1.517 1_554 S
C1654 C1653 1.517 1_556 S
C1654 C1655 1.502 . S
C1654 C1656 1.561 . S
C1654 C1657 1.525 . S
C1655 H1639 0.962 . S
C1655 H1640 0.979 . S
C1655 H1641 0.939 1_556 S
C1655 C1654 1.502 . S
C1656 H1642 0.957 1_556 S
C1656 H1643 0.963 . S
C1656 H1644 0.959 . S
C1656 C1654 1.561 . S
C1657 C1654 1.525 . S
C1657 C1658 1.396 . S
C1657 C1662 1.390 . S
C1658 C1652 1.465 1_556 S
C1658 C1657 1.396 . S
C1658 C1659 1.399 . S
C1659 H1645 0.929 . S
C1659 C1658 1.399 . S
C1659 C1660 1.385 . S
C1660 H1646 0.931 . S
C1660 C1659 1.385 . S
C1660 C1661 1.389 . S
C1661 C1660 1.389 . S
C1661 C1662 1.387 . S
C1662 H1647 0.930 . S
C1662 C1657 1.390 . S
C1662 C1661 1.387 . S
H1663 C1675 0.930 . S
H1664 C1677 0.930 . S
H1665 C1678 0.930 . S
H1666 C1682 0.962 . S
H1667 C1682 0.979 . S
H1668 C1682 0.939 1_554 S
H1669 C1683 0.957 1_554 S
H1670 C1683 0.963 . S
H1671 C1683 0.959 . S
H1672 C1686 0.929 . S
H1673 C1687 0.931 . S
H1674 C1689 0.930 . S
C1675 H1663 0.930 . S
C1675 C1676 1.399 . S
C1675 C1680 1.399 . S
C1676 C1675 1.399 . S
C1676 C1677 1.376 . S
C1677 H1664 0.930 . S
C1677 C1676 1.376 . S
C1677 C1678 1.388 . S
C1678 H1665 0.930 . S
C1678 C1677 1.388 . S
C1678 C1679 1.390 . S
C1679 C1678 1.390 . S
C1679 C1680 1.394 . S
C1679 C1685 1.465 1_554 S
C1680 C1675 1.399 . S
C1680 C1679 1.394 . S
C1680 C1681 1.517 1_554 S
C1681 C1680 1.517 1_556 S
C1681 C1682 1.502 . S
C1681 C1683 1.561 . S
C1681 C1684 1.525 . S
C1682 H1666 0.962 . S
C1682 H1667 0.979 . S
C1682 H1668 0.939 1_556 S
C1682 C1681 1.502 . S
C1683 H1669 0.957 1_556 S
C1683 H1670 0.963 . S
C1683 H1671 0.959 . S
C1683 C1681 1.561 . S
C1684 C1681 1.525 . S
C1684 C1685 1.396 . S
C1684 C1689 1.390 . S
C1685 C1679 1.465 1_556 S
C1685 C1684 1.396 . S
C1685 C1686 1.399 . S
C1686 H1672 0.929 . S
C1686 C1685 1.399 . S
C1686 C1687 1.385 . S
C1687 H1673 0.931 . S
C1687 C1686 1.385 . S
C1687 C1688 1.389 . S
C1688 C1687 1.389 . S
C1688 C1689 1.387 . S
C1689 H1674 0.930 . S
C1689 C1684 1.390 . S
C1689 C1688 1.387 . S
H1690 C1702 0.930 . S
H1691 C1704 0.930 . S
H1692 C1705 0.930 . S
H1693 C1709 0.962 . S
H1694 C1709 0.979 . S
H1695 C1709 0.939 1_556 S
H1696 C1710 0.957 1_556 S
H1697 C1710 0.963 . S
H1698 C1710 0.959 . S
H1699 C1713 0.929 . S
H1700 C1714 0.931 . S
H1701 C1716 0.930 . S
C1702 H1690 0.930 . S
C1702 C1703 1.399 . S
C1702 C1707 1.399 . S
C1703 C1702 1.399 . S
C1703 C1704 1.376 . S
C1704 H1691 0.930 . S
C1704 C1703 1.376 . S
C1704 C1705 1.388 . S
C1705 H1692 0.930 . S
C1705 C1704 1.388 . S
C1705 C1706 1.390 . S
C1706 C1705 1.390 . S
C1706 C1707 1.394 . S
C1706 C1712 1.465 1_556 S
C1707 C1702 1.399 . S
C1707 C1706 1.394 . S
C1707 C1708 1.517 1_556 S
C1708 C1707 1.517 1_554 S
C1708 C1709 1.502 . S
C1708 C1710 1.561 . S
C1708 C1711 1.525 . S
C1709 H1693 0.962 . S
C1709 H1694 0.979 . S
C1709 H1695 0.939 1_554 S
C1709 C1708 1.502 . S
C1710 H1696 0.957 1_554 S
C1710 H1697 0.963 . S
C1710 H1698 0.959 . S
C1710 C1708 1.561 . S
C1711 C1708 1.525 . S
C1711 C1712 1.396 . S
C1711 C1716 1.390 . S
C1712 C1706 1.465 1_554 S
C1712 C1711 1.396 . S
C1712 C1713 1.399 . S
C1713 H1699 0.929 . S
C1713 C1712 1.399 . S
C1713 C1714 1.385 . S
C1714 H1700 0.931 . S
C1714 C1713 1.385 . S
C1714 C1715 1.389 . S
C1715 C1714 1.389 . S
C1715 C1716 1.387 . S
C1716 H1701 0.930 . S
C1716 C1711 1.390 . S
C1716 C1715 1.387 . S
H1717 C1729 0.930 . S
H1718 C1731 0.930 . S
H1719 C1732 0.930 . S
H1720 C1736 0.962 . S
H1721 C1736 0.979 . S
H1722 C1736 0.939 1_556 S
H1723 C1737 0.957 1_556 S
H1724 C1737 0.963 . S
H1725 C1737 0.959 . S
H1726 C1740 0.929 . S
H1727 C1741 0.931 . S
H1728 C1743 0.930 . S
C1729 H1717 0.930 . S
C1729 C1730 1.399 . S
C1729 C1734 1.399 . S
C1730 C1729 1.399 . S
C1730 C1731 1.376 . S
C1731 H1718 0.930 . S
C1731 C1730 1.376 . S
C1731 C1732 1.388 . S
C1732 H1719 0.930 . S
C1732 C1731 1.388 . S
C1732 C1733 1.390 . S
C1733 C1732 1.390 . S
C1733 C1734 1.394 . S
C1733 C1739 1.465 1_556 S
C1734 C1729 1.399 . S
C1734 C1733 1.394 . S
C1734 C1735 1.517 1_556 S
C1735 C1734 1.517 1_554 S
C1735 C1736 1.502 . S
C1735 C1737 1.561 . S
C1735 C1738 1.525 . S
C1736 H1720 0.962 . S
C1736 H1721 0.979 . S
C1736 H1722 0.939 1_554 S
C1736 C1735 1.502 . S
C1737 H1723 0.957 1_554 S
C1737 H1724 0.963 . S
C1737 H1725 0.959 . S
C1737 C1735 1.561 . S
C1738 C1735 1.525 . S
C1738 C1739 1.396 . S
C1738 C1743 1.390 . S
C1739 C1733 1.465 1_554 S
C1739 C1738 1.396 . S
C1739 C1740 1.399 . S
C1740 H1726 0.929 . S
C1740 C1739 1.399 . S
C1740 C1741 1.385 . S
C1741 H1727 0.931 . S
C1741 C1740 1.385 . S
C1741 C1742 1.389 . S
C1742 C1741 1.389 . S
C1742 C1743 1.387 . S
C1743 H1728 0.930 . S
C1743 C1738 1.390 . S
C1743 C1742 1.387 . S
H1744 C1756 0.930 . S
H1745 C1758 0.930 . S
H1746 C1759 0.930 . S
H1747 C1763 0.959 . S
H1748 C1763 0.959 . S
H1749 C1763 0.961 . S
H1750 C1764 0.960 . S
H1751 C1764 0.961 . S
H1752 C1764 0.959 . S
H1753 C1767 0.929 . S
H1754 C1768 0.931 . S
H1755 C1770 0.930 . S
C1756 H1744 0.930 . S
C1756 C1757 1.399 . S
C1756 C1761 1.399 . S
C1757 C1756 1.399 . S
C1757 C1758 1.376 . S
C1758 H1745 0.930 . S
C1758 C1757 1.376 . S
C1758 C1759 1.388 . S
C1759 H1746 0.930 . S
C1759 C1758 1.388 . S
C1759 C1760 1.390 . S
C1760 C1759 1.390 . S
C1760 C1761 1.394 . S
C1760 C1766 1.465 . S
C1761 C1756 1.399 . S
C1761 C1760 1.394 . S
C1761 C1762 1.516 . S
C1762 C1761 1.516 . S
C1762 C1763 1.502 . S
C1762 C1764 1.561 . S
C1762 C1765 1.526 . S
C1763 H1747 0.959 . S
C1763 H1748 0.959 . S
C1763 H1749 0.961 . S
C1763 C1762 1.502 . S
C1764 H1750 0.960 . S
C1764 H1751 0.961 . S
C1764 H1752 0.959 . S
C1764 C1762 1.561 . S
C1765 C1762 1.526 . S
C1765 C1766 1.396 . S
C1765 C1770 1.390 . S
C1766 C1760 1.465 . S
C1766 C1765 1.396 . S
C1766 C1767 1.399 . S
C1767 H1753 0.929 . S
C1767 C1766 1.399 . S
C1767 C1768 1.385 . S
C1768 H1754 0.931 . S
C1768 C1767 1.385 . S
C1768 C1769 1.389 . S
C1769 C1768 1.389 . S
C1769 C1770 1.387 . S
C1770 H1755 0.930 . S
C1770 C1765 1.390 . S
C1770 C1769 1.387 . S
H1771 C1783 0.930 . S
H1772 C1785 0.930 . S
H1773 C1786 0.930 . S
H1774 C1790 0.959 . S
H1775 C1790 0.959 . S
H1776 C1790 0.961 . S
H1777 C1791 0.960 . S
H1778 C1791 0.961 . S
H1779 C1791 0.959 . S
H1780 C1794 0.929 . S
H1781 C1795 0.931 . S
H1782 C1797 0.930 . S
C1783 H1771 0.930 . S
C1783 C1784 1.399 . S
C1783 C1788 1.399 . S
C1784 C1783 1.399 . S
C1784 C1785 1.376 . S
C1785 H1772 0.930 . S
C1785 C1784 1.376 . S
C1785 C1786 1.388 . S
C1786 H1773 0.930 . S
C1786 C1785 1.388 . S
C1786 C1787 1.390 . S
C1787 C1786 1.390 . S
C1787 C1788 1.394 . S
C1787 C1793 1.465 . S
C1788 C1783 1.399 . S
C1788 C1787 1.394 . S
C1788 C1789 1.516 . S
C1789 C1788 1.516 . S
C1789 C1790 1.502 . S
C1789 C1791 1.561 . S
C1789 C1792 1.526 . S
C1790 H1774 0.959 . S
C1790 H1775 0.959 . S
C1790 H1776 0.961 . S
C1790 C1789 1.502 . S
C1791 H1777 0.960 . S
C1791 H1778 0.961 . S
C1791 H1779 0.959 . S
C1791 C1789 1.561 . S
C1792 C1789 1.526 . S
C1792 C1793 1.396 . S
C1792 C1797 1.390 . S
C1793 C1787 1.465 . S
C1793 C1792 1.396 . S
C1793 C1794 1.399 . S
C1794 H1780 0.929 . S
C1794 C1793 1.399 . S
C1794 C1795 1.385 . S
C1795 H1781 0.931 . S
C1795 C1794 1.385 . S
C1795 C1796 1.389 . S
C1796 C1795 1.389 . S
C1796 C1797 1.387 . S
C1797 H1782 0.930 . S
C1797 C1792 1.390 . S
C1797 C1796 1.387 . S
H1798 C1810 0.930 . S
H1799 C1812 0.930 . S
H1800 C1813 0.930 . S
H1801 C1817 0.959 . S
H1802 C1817 0.959 . S
H1803 C1817 0.961 . S
H1804 C1818 0.960 . S
H1805 C1818 0.961 . S
H1806 C1818 0.959 . S
H1807 C1821 0.929 . S
H1808 C1822 0.931 . S
H1809 C1824 0.930 . S
C1810 H1798 0.930 . S
C1810 C1811 1.399 . S
C1810 C1815 1.399 . S
C1811 C1810 1.399 . S
C1811 C1812 1.376 . S
C1812 H1799 0.930 . S
C1812 C1811 1.376 . S
C1812 C1813 1.388 . S
C1813 H1800 0.930 . S
C1813 C1812 1.388 . S
C1813 C1814 1.390 . S
C1814 C1813 1.390 . S
C1814 C1815 1.394 . S
C1814 C1820 1.465 . S
C1815 C1810 1.399 . S
C1815 C1814 1.394 . S
C1815 C1816 1.516 . S
C1816 C1815 1.516 . S
C1816 C1817 1.502 . S
C1816 C1818 1.561 . S
C1816 C1819 1.526 . S
C1817 H1801 0.959 . S
C1817 H1802 0.959 . S
C1817 H1803 0.961 . S
C1817 C1816 1.502 . S
C1818 H1804 0.960 . S
C1818 H1805 0.961 . S
C1818 H1806 0.959 . S
C1818 C1816 1.561 . S
C1819 C1816 1.526 . S
C1819 C1820 1.396 . S
C1819 C1824 1.390 . S
C1820 C1814 1.465 . S
C1820 C1819 1.396 . S
C1820 C1821 1.399 . S
C1821 H1807 0.929 . S
C1821 C1820 1.399 . S
C1821 C1822 1.385 . S
C1822 H1808 0.931 . S
C1822 C1821 1.385 . S
C1822 C1823 1.389 . S
C1823 C1822 1.389 . S
C1823 C1824 1.387 . S
C1824 H1809 0.930 . S
C1824 C1819 1.390 . S
C1824 C1823 1.387 . S
H1825 C1837 0.930 . S
H1826 C1839 0.930 . S
H1827 C1840 0.930 . S
H1828 C1844 0.959 . S
H1829 C1844 0.959 . S
H1830 C1844 0.961 . S
H1831 C1845 0.960 . S
H1832 C1845 0.961 . S
H1833 C1845 0.959 . S
H1834 C1848 0.929 . S
H1835 C1849 0.931 . S
H1836 C1851 0.930 . S
C1837 H1825 0.930 . S
C1837 C1838 1.399 . S
C1837 C1842 1.399 . S
C1838 C1837 1.399 . S
C1838 C1839 1.376 . S
C1839 H1826 0.930 . S
C1839 C1838 1.376 . S
C1839 C1840 1.388 . S
C1840 H1827 0.930 . S
C1840 C1839 1.388 . S
C1840 C1841 1.390 . S
C1841 C1840 1.390 . S
C1841 C1842 1.394 . S
C1841 C1847 1.465 . S
C1842 C1837 1.399 . S
C1842 C1841 1.394 . S
C1842 C1843 1.516 . S
C1843 C1842 1.516 . S
C1843 C1844 1.502 . S
C1843 C1845 1.561 . S
C1843 C1846 1.526 . S
C1844 H1828 0.959 . S
C1844 H1829 0.959 . S
C1844 H1830 0.961 . S
C1844 C1843 1.502 . S
C1845 H1831 0.960 . S
C1845 H1832 0.961 . S
C1845 H1833 0.959 . S
C1845 C1843 1.561 . S
C1846 C1843 1.526 . S
C1846 C1847 1.396 . S
C1846 C1851 1.390 . S
C1847 C1841 1.465 . S
C1847 C1846 1.396 . S
C1847 C1848 1.399 . S
C1848 H1834 0.929 . S
C1848 C1847 1.399 . S
C1848 C1849 1.385 . S
C1849 H1835 0.931 . S
C1849 C1848 1.385 . S
C1849 C1850 1.389 . S
C1850 C1849 1.389 . S
C1850 C1851 1.387 . S
C1851 H1836 0.930 . S
C1851 C1846 1.390 . S
C1851 C1850 1.387 . S
H1852 C1864 0.930 . S
H1853 C1866 0.930 . S
H1854 C1867 0.930 . S
H1855 C1871 0.959 . S
H1856 C1871 0.959 . S
H1857 C1871 0.961 . S
H1858 C1872 0.960 . S
H1859 C1872 0.961 . S
H1860 C1872 0.959 . S
H1861 C1875 0.929 . S
H1862 C1876 0.931 . S
H1863 C1878 0.930 . S
C1864 H1852 0.930 . S
C1864 C1865 1.399 . S
C1864 C1869 1.399 . S
C1865 C1864 1.399 . S
C1865 C1866 1.376 . S
C1866 H1853 0.930 . S
C1866 C1865 1.376 . S
C1866 C1867 1.388 . S
C1867 H1854 0.930 . S
C1867 C1866 1.388 . S
C1867 C1868 1.390 . S
C1868 C1867 1.390 . S
C1868 C1869 1.394 . S
C1868 C1874 1.465 . S
C1869 C1864 1.399 . S
C1869 C1868 1.394 . S
C1869 C1870 1.516 . S
C1870 C1869 1.516 . S
C1870 C1871 1.502 . S
C1870 C1872 1.561 . S
C1870 C1873 1.526 . S
C1871 H1855 0.959 . S
C1871 H1856 0.959 . S
C1871 H1857 0.961 . S
C1871 C1870 1.502 . S
C1872 H1858 0.960 . S
C1872 H1859 0.961 . S
C1872 H1860 0.959 . S
C1872 C1870 1.561 . S
C1873 C1870 1.526 . S
C1873 C1874 1.396 . S
C1873 C1878 1.390 . S
C1874 C1868 1.465 . S
C1874 C1873 1.396 . S
C1874 C1875 1.399 . S
C1875 H1861 0.929 . S
C1875 C1874 1.399 . S
C1875 C1876 1.385 . S
C1876 H1862 0.931 . S
C1876 C1875 1.385 . S
C1876 C1877 1.389 . S
C1877 C1876 1.389 . S
C1877 C1878 1.387 . S
C1878 H1863 0.930 . S
C1878 C1873 1.390 . S
C1878 C1877 1.387 . S
H1879 C1891 0.930 . S
H1880 C1893 0.930 . S
H1881 C1894 0.930 . S
H1882 C1898 0.959 . S
H1883 C1898 0.959 . S
H1884 C1898 0.961 . S
H1885 C1899 0.960 . S
H1886 C1899 0.961 . S
H1887 C1899 0.959 . S
H1888 C1902 0.929 . S
H1889 C1903 0.931 . S
H1890 C1905 0.930 . S
C1891 H1879 0.930 . S
C1891 C1892 1.399 . S
C1891 C1896 1.399 . S
C1892 C1891 1.399 . S
C1892 C1893 1.376 . S
C1893 H1880 0.930 . S
C1893 C1892 1.376 . S
C1893 C1894 1.388 . S
C1894 H1881 0.930 . S
C1894 C1893 1.388 . S
C1894 C1895 1.390 . S
C1895 C1894 1.390 . S
C1895 C1896 1.394 . S
C1895 C1901 1.465 . S
C1896 C1891 1.399 . S
C1896 C1895 1.394 . S
C1896 C1897 1.516 . S
C1897 C1896 1.516 . S
C1897 C1898 1.502 . S
C1897 C1899 1.561 . S
C1897 C1900 1.526 . S
C1898 H1882 0.959 . S
C1898 H1883 0.959 . S
C1898 H1884 0.961 . S
C1898 C1897 1.502 . S
C1899 H1885 0.960 . S
C1899 H1886 0.961 . S
C1899 H1887 0.959 . S
C1899 C1897 1.561 . S
C1900 C1897 1.526 . S
C1900 C1901 1.396 . S
C1900 C1905 1.390 . S
C1901 C1895 1.465 . S
C1901 C1900 1.396 . S
C1901 C1902 1.399 . S
C1902 H1888 0.929 . S
C1902 C1901 1.399 . S
C1902 C1903 1.385 . S
C1903 H1889 0.931 . S
C1903 C1902 1.385 . S
C1903 C1904 1.389 . S
C1904 C1903 1.389 . S
C1904 C1905 1.387 . S
C1905 H1890 0.930 . S
C1905 C1900 1.390 . S
C1905 C1904 1.387 . S
H1906 C1918 0.930 . S
H1907 C1920 0.930 . S
H1908 C1921 0.930 . S
H1909 C1925 0.959 . S
H1910 C1925 0.959 . S
H1911 C1925 0.961 . S
H1912 C1926 0.960 . S
H1913 C1926 0.961 . S
H1914 C1926 0.959 . S
H1915 C1929 0.929 . S
H1916 C1930 0.931 . S
H1917 C1932 0.930 . S
C1918 H1906 0.930 . S
C1918 C1919 1.399 . S
C1918 C1923 1.399 . S
C1919 C1918 1.399 . S
C1919 C1920 1.376 . S
C1920 H1907 0.930 . S
C1920 C1919 1.376 . S
C1920 C1921 1.388 . S
C1921 H1908 0.930 . S
C1921 C1920 1.388 . S
C1921 C1922 1.390 . S
C1922 C1921 1.390 . S
C1922 C1923 1.394 . S
C1922 C1928 1.465 . S
C1923 C1918 1.399 . S
C1923 C1922 1.394 . S
C1923 C1924 1.516 . S
C1924 C1923 1.516 . S
C1924 C1925 1.502 . S
C1924 C1926 1.561 . S
C1924 C1927 1.526 . S
C1925 H1909 0.959 . S
C1925 H1910 0.959 . S
C1925 H1911 0.961 . S
C1925 C1924 1.502 . S
C1926 H1912 0.960 . S
C1926 H1913 0.961 . S
C1926 H1914 0.959 . S
C1926 C1924 1.561 . S
C1927 C1924 1.526 . S
C1927 C1928 1.396 . S
C1927 C1932 1.390 . S
C1928 C1922 1.465 . S
C1928 C1927 1.396 . S
C1928 C1929 1.399 . S
C1929 H1915 0.929 . S
C1929 C1928 1.399 . S
C1929 C1930 1.385 . S
C1930 H1916 0.931 . S
C1930 C1929 1.385 . S
C1930 C1931 1.389 . S
C1931 C1930 1.389 . S
C1931 C1932 1.387 . S
C1932 H1917 0.930 . S
C1932 C1927 1.390 . S
C1932 C1931 1.387 . S
H1933 C1945 0.930 . S
H1934 C1947 0.930 . S
H1935 C1948 0.930 . S
H1936 C1952 0.959 . S
H1937 C1952 0.959 . S
H1938 C1952 0.961 . S
H1939 C1953 0.960 . S
H1940 C1953 0.961 . S
H1941 C1953 0.959 . S
H1942 C1956 0.929 . S
H1943 C1957 0.931 . S
H1944 C1959 0.930 . S
C1945 H1933 0.930 . S
C1945 C1946 1.399 . S
C1945 C1950 1.399 . S
C1946 C1945 1.399 . S
C1946 C1947 1.376 . S
C1947 H1934 0.930 . S
C1947 C1946 1.376 . S
C1947 C1948 1.388 . S
C1948 H1935 0.930 . S
C1948 C1947 1.388 . S
C1948 C1949 1.390 . S
C1949 C1948 1.390 . S
C1949 C1950 1.394 . S
C1949 C1955 1.465 . S
C1950 C1945 1.399 . S
C1950 C1949 1.394 . S
C1950 C1951 1.516 . S
C1951 C1950 1.516 . S
C1951 C1952 1.502 . S
C1951 C1953 1.561 . S
C1951 C1954 1.526 . S
C1952 H1936 0.959 . S
C1952 H1937 0.959 . S
C1952 H1938 0.961 . S
C1952 C1951 1.502 . S
C1953 H1939 0.960 . S
C1953 H1940 0.961 . S
C1953 H1941 0.959 . S
C1953 C1951 1.561 . S
C1954 C1951 1.526 . S
C1954 C1955 1.396 . S
C1954 C1959 1.390 . S
C1955 C1949 1.465 . S
C1955 C1954 1.396 . S
C1955 C1956 1.399 . S
C1956 H1942 0.929 . S
C1956 C1955 1.399 . S
C1956 C1957 1.385 . S
C1957 H1943 0.931 . S
C1957 C1956 1.385 . S
C1957 C1958 1.389 . S
C1958 C1957 1.389 . S
C1958 C1959 1.387 . S
C1959 H1944 0.930 . S
C1959 C1954 1.390 . S
C1959 C1958 1.387 . S
H1960 C1972 0.930 . S
H1961 C1974 0.930 . S
H1962 C1975 0.930 . S
H1963 C1979 0.959 . S
H1964 C1979 0.959 . S
H1965 C1979 0.961 . S
H1966 C1980 0.960 . S
H1967 C1980 0.961 . S
H1968 C1980 0.959 . S
H1969 C1983 0.929 . S
H1970 C1984 0.931 . S
H1971 C1986 0.930 . S
C1972 H1960 0.930 . S
C1972 C1973 1.399 . S
C1972 C1977 1.399 . S
C1973 C1972 1.399 . S
C1973 C1974 1.376 . S
C1974 H1961 0.930 . S
C1974 C1973 1.376 . S
C1974 C1975 1.388 . S
C1975 H1962 0.930 . S
C1975 C1974 1.388 . S
C1975 C1976 1.390 . S
C1976 C1975 1.390 . S
C1976 C1977 1.394 . S
C1976 C1982 1.465 . S
C1977 C1972 1.399 . S
C1977 C1976 1.394 . S
C1977 C1978 1.516 . S
C1978 C1977 1.516 . S
C1978 C1979 1.502 . S
C1978 C1980 1.561 . S
C1978 C1981 1.526 . S
C1979 H1963 0.959 . S
C1979 H1964 0.959 . S
C1979 H1965 0.961 . S
C1979 C1978 1.502 . S
C1980 H1966 0.960 . S
C1980 H1967 0.961 . S
C1980 H1968 0.959 . S
C1980 C1978 1.561 . S
C1981 C1978 1.526 . S
C1981 C1982 1.396 . S
C1981 C1986 1.390 . S
C1982 C1976 1.465 . S
C1982 C1981 1.396 . S
C1982 C1983 1.399 . S
C1983 H1969 0.929 . S
C1983 C1982 1.399 . S
C1983 C1984 1.385 . S
C1984 H1970 0.931 . S
C1984 C1983 1.385 . S
C1984 C1985 1.389 . S
C1985 C1984 1.389 . S
C1985 C1986 1.387 . S
C1986 H1971 0.930 . S
C1986 C1981 1.390 . S
C1986 C1985 1.387 . S
H1987 C1999 0.930 . S
H1988 C2001 0.930 . S
H1989 C2002 0.930 . S
H1990 C2006 0.959 . S
H1991 C2006 0.959 . S
H1992 C2006 0.961 . S
H1993 C2007 0.960 . S
H1994 C2007 0.961 . S
H1995 C2007 0.959 . S
H1996 C2010 0.929 . S
H1997 C2011 0.931 . S
H1998 C2013 0.930 . S
C1999 H1987 0.930 . S
C1999 C2000 1.399 . S
C1999 C2004 1.399 . S
C2000 C1999 1.399 . S
C2000 C2001 1.376 . S
C2001 H1988 0.930 . S
C2001 C2000 1.376 . S
C2001 C2002 1.388 . S
C2002 H1989 0.930 . S
C2002 C2001 1.388 . S
C2002 C2003 1.390 . S
C2003 C2002 1.390 . S
C2003 C2004 1.394 . S
C2003 C2009 1.465 . S
C2004 C1999 1.399 . S
C2004 C2003 1.394 . S
C2004 C2005 1.516 . S
C2005 C2004 1.516 . S
C2005 C2006 1.502 . S
C2005 C2007 1.561 . S
C2005 C2008 1.526 . S
C2006 H1990 0.959 . S
C2006 H1991 0.959 . S
C2006 H1992 0.961 . S
C2006 C2005 1.502 . S
C2007 H1993 0.960 . S
C2007 H1994 0.961 . S
C2007 H1995 0.959 . S
C2007 C2005 1.561 . S
C2008 C2005 1.526 . S
C2008 C2009 1.396 . S
C2008 C2013 1.390 . S
C2009 C2003 1.465 . S
C2009 C2008 1.396 . S
C2009 C2010 1.399 . S
C2010 H1996 0.929 . S
C2010 C2009 1.399 . S
C2010 C2011 1.385 . S
C2011 H1997 0.931 . S
C2011 C2010 1.385 . S
C2011 C2012 1.389 . S
C2012 C2011 1.389 . S
C2012 C2013 1.387 . S
C2013 H1998 0.930 . S
C2013 C2008 1.390 . S
C2013 C2012 1.387 . S
H2014 C2026 0.930 . S
H2015 C2028 0.930 . S
H2016 C2029 0.930 . S
H2017 C2033 0.959 . S
H2018 C2033 0.959 . S
H2019 C2033 0.961 . S
H2020 C2034 0.960 . S
H2021 C2034 0.961 . S
H2022 C2034 0.959 . S
H2023 C2037 0.929 . S
H2024 C2038 0.931 . S
H2025 C2040 0.930 . S
C2026 H2014 0.930 . S
C2026 C2027 1.399 . S
C2026 C2031 1.399 . S
C2027 C2026 1.399 . S
C2027 C2028 1.376 . S
C2028 H2015 0.930 . S
C2028 C2027 1.376 . S
C2028 C2029 1.388 . S
C2029 H2016 0.930 . S
C2029 C2028 1.388 . S
C2029 C2030 1.390 . S
C2030 C2029 1.390 . S
C2030 C2031 1.394 . S
C2030 C2036 1.465 . S
C2031 C2026 1.399 . S
C2031 C2030 1.394 . S
C2031 C2032 1.516 . S
C2032 C2031 1.516 . S
C2032 C2033 1.502 . S
C2032 C2034 1.561 . S
C2032 C2035 1.526 . S
C2033 H2017 0.959 . S
C2033 H2018 0.959 . S
C2033 H2019 0.961 . S
C2033 C2032 1.502 . S
C2034 H2020 0.960 . S
C2034 H2021 0.961 . S
C2034 H2022 0.959 . S
C2034 C2032 1.561 . S
C2035 C2032 1.526 . S
C2035 C2036 1.396 . S
C2035 C2040 1.390 . S
C2036 C2030 1.465 . S
C2036 C2035 1.396 . S
C2036 C2037 1.399 . S
C2037 H2023 0.929 . S
C2037 C2036 1.399 . S
C2037 C2038 1.385 . S
C2038 H2024 0.931 . S
C2038 C2037 1.385 . S
C2038 C2039 1.389 . S
C2039 C2038 1.389 . S
C2039 C2040 1.387 . S
C2040 H2025 0.930 . S
C2040 C2035 1.390 . S
C2040 C2039 1.387 . S
H2041 C2053 0.930 . S
H2042 C2055 0.930 . S
H2043 C2056 0.930 . S
H2044 C2060 0.959 . S
H2045 C2060 0.959 . S
H2046 C2060 0.961 . S
H2047 C2061 0.960 . S
H2048 C2061 0.961 . S
H2049 C2061 0.959 . S
H2050 C2064 0.929 . S
H2051 C2065 0.931 . S
H2052 C2067 0.930 . S
C2053 H2041 0.930 . S
C2053 C2054 1.399 . S
C2053 C2058 1.399 . S
C2054 C2053 1.399 . S
C2054 C2055 1.376 . S
C2055 H2042 0.930 . S
C2055 C2054 1.376 . S
C2055 C2056 1.388 . S
C2056 H2043 0.930 . S
C2056 C2055 1.388 . S
C2056 C2057 1.390 . S
C2057 C2056 1.390 . S
C2057 C2058 1.394 . S
C2057 C2063 1.465 . S
C2058 C2053 1.399 . S
C2058 C2057 1.394 . S
C2058 C2059 1.516 . S
C2059 C2058 1.516 . S
C2059 C2060 1.502 . S
C2059 C2061 1.561 . S
C2059 C2062 1.526 . S
C2060 H2044 0.959 . S
C2060 H2045 0.959 . S
C2060 H2046 0.961 . S
C2060 C2059 1.502 . S
C2061 H2047 0.960 . S
C2061 H2048 0.961 . S
C2061 H2049 0.959 . S
C2061 C2059 1.561 . S
C2062 C2059 1.526 . S
C2062 C2063 1.396 . S
C2062 C2067 1.390 . S
C2063 C2057 1.465 . S
C2063 C2062 1.396 . S
C2063 C2064 1.399 . S
C2064 H2050 0.929 . S
C2064 C2063 1.399 . S
C2064 C2065 1.385 . S
C2065 H2051 0.931 . S
C2065 C2064 1.385 . S
C2065 C2066 1.389 . S
C2066 C2065 1.389 . S
C2066 C2067 1.387 . S
C2067 H2052 0.930 . S
C2067 C2062 1.390 . S
C2067 C2066 1.387 . S
H2068 C2080 0.930 . S
H2069 C2082 0.930 . S
H2070 C2083 0.930 . S
H2071 C2087 0.959 . S
H2072 C2087 0.959 . S
H2073 C2087 0.961 . S
H2074 C2088 0.960 . S
H2075 C2088 0.961 . S
H2076 C2088 0.959 . S
H2077 C2091 0.929 . S
H2078 C2092 0.931 . S
H2079 C2094 0.930 . S
C2080 H2068 0.930 . S
C2080 C2081 1.399 . S
C2080 C2085 1.399 . S
C2081 C2080 1.399 . S
C2081 C2082 1.376 . S
C2082 H2069 0.930 . S
C2082 C2081 1.376 . S
C2082 C2083 1.388 . S
C2083 H2070 0.930 . S
C2083 C2082 1.388 . S
C2083 C2084 1.390 . S
C2084 C2083 1.390 . S
C2084 C2085 1.394 . S
C2084 C2090 1.465 . S
C2085 C2080 1.399 . S
C2085 C2084 1.394 . S
C2085 C2086 1.516 . S
C2086 C2085 1.516 . S
C2086 C2087 1.502 . S
C2086 C2088 1.561 . S
C2086 C2089 1.526 . S
C2087 H2071 0.959 . S
C2087 H2072 0.959 . S
C2087 H2073 0.961 . S
C2087 C2086 1.502 . S
C2088 H2074 0.960 . S
C2088 H2075 0.961 . S
C2088 H2076 0.959 . S
C2088 C2086 1.561 . S
C2089 C2086 1.526 . S
C2089 C2090 1.396 . S
C2089 C2094 1.390 . S
C2090 C2084 1.465 . S
C2090 C2089 1.396 . S
C2090 C2091 1.399 . S
C2091 H2077 0.929 . S
C2091 C2090 1.399 . S
C2091 C2092 1.385 . S
C2092 H2078 0.931 . S
C2092 C2091 1.385 . S
C2092 C2093 1.389 . S
C2093 C2092 1.389 . S
C2093 C2094 1.387 . S
C2094 H2079 0.930 . S
C2094 C2089 1.390 . S
C2094 C2093 1.387 . S
H2095 C2107 0.930 . S
H2096 C2109 0.930 . S
H2097 C2110 0.930 . S
H2098 C2114 0.959 . S
H2099 C2114 0.959 . S
H2100 C2114 0.961 . S
H2101 C2115 0.960 . S
H2102 C2115 0.961 . S
H2103 C2115 0.959 . S
H2104 C2118 0.929 . S
H2105 C2119 0.931 . S
H2106 C2121 0.930 . S
C2107 H2095 0.930 . S
C2107 C2108 1.399 . S
C2107 C2112 1.399 . S
C2108 C2107 1.399 . S
C2108 C2109 1.376 . S
C2109 H2096 0.930 . S
C2109 C2108 1.376 . S
C2109 C2110 1.388 . S
C2110 H2097 0.930 . S
C2110 C2109 1.388 . S
C2110 C2111 1.390 . S
C2111 C2110 1.390 . S
C2111 C2112 1.394 . S
C2111 C2117 1.465 . S
C2112 C2107 1.399 . S
C2112 C2111 1.394 . S
C2112 C2113 1.516 . S
C2113 C2112 1.516 . S
C2113 C2114 1.502 . S
C2113 C2115 1.561 . S
C2113 C2116 1.526 . S
C2114 H2098 0.959 . S
C2114 H2099 0.959 . S
C2114 H2100 0.961 . S
C2114 C2113 1.502 . S
C2115 H2101 0.960 . S
C2115 H2102 0.961 . S
C2115 H2103 0.959 . S
C2115 C2113 1.561 . S
C2116 C2113 1.526 . S
C2116 C2117 1.396 . S
C2116 C2121 1.390 . S
C2117 C2111 1.465 . S
C2117 C2116 1.396 . S
C2117 C2118 1.399 . S
C2118 H2104 0.929 . S
C2118 C2117 1.399 . S
C2118 C2119 1.385 . S
C2119 H2105 0.931 . S
C2119 C2118 1.385 . S
C2119 C2120 1.389 . S
C2120 C2119 1.389 . S
C2120 C2121 1.387 . S
C2121 H2106 0.930 . S
C2121 C2116 1.390 . S
C2121 C2120 1.387 . S
H2122 C2134 0.930 . S
H2123 C2136 0.930 . S
H2124 C2137 0.930 . S
H2125 C2141 0.959 . S
H2126 C2141 0.959 . S
H2127 C2141 0.961 . S
H2128 C2142 0.960 . S
H2129 C2142 0.961 . S
H2130 C2142 0.959 . S
H2131 C2145 0.929 . S
H2132 C2146 0.931 . S
H2133 C2148 0.930 . S
C2134 H2122 0.930 . S
C2134 C2135 1.399 . S
C2134 C2139 1.399 . S
C2135 C2134 1.399 . S
C2135 C2136 1.376 . S
C2136 H2123 0.930 . S
C2136 C2135 1.376 . S
C2136 C2137 1.388 . S
C2137 H2124 0.930 . S
C2137 C2136 1.388 . S
C2137 C2138 1.390 . S
C2138 C2137 1.390 . S
C2138 C2139 1.394 . S
C2138 C2144 1.465 . S
C2139 C2134 1.399 . S
C2139 C2138 1.394 . S
C2139 C2140 1.516 . S
C2140 C2139 1.516 . S
C2140 C2141 1.502 . S
C2140 C2142 1.561 . S
C2140 C2143 1.526 . S
C2141 H2125 0.959 . S
C2141 H2126 0.959 . S
C2141 H2127 0.961 . S
C2141 C2140 1.502 . S
C2142 H2128 0.960 . S
C2142 H2129 0.961 . S
C2142 H2130 0.959 . S
C2142 C2140 1.561 . S
C2143 C2140 1.526 . S
C2143 C2144 1.396 . S
C2143 C2148 1.390 . S
C2144 C2138 1.465 . S
C2144 C2143 1.396 . S
C2144 C2145 1.399 . S
C2145 H2131 0.929 . S
C2145 C2144 1.399 . S
C2145 C2146 1.385 . S
C2146 H2132 0.931 . S
C2146 C2145 1.385 . S
C2146 C2147 1.389 . S
C2147 C2146 1.389 . S
C2147 C2148 1.387 . S
C2148 H2133 0.930 . S
C2148 C2143 1.390 . S
C2148 C2147 1.387 . S
H2149 C2161 0.930 . S
H2150 C2163 0.930 . S
H2151 C2164 0.930 . S
H2152 C2168 0.959 . S
H2153 C2168 0.959 . S
H2154 C2168 0.961 . S
H2155 C2169 0.960 . S
H2156 C2169 0.961 . S
H2157 C2169 0.959 . S
H2158 C2172 0.929 . S
H2159 C2173 0.931 . S
H2160 C2175 0.930 . S
C2161 H2149 0.930 . S
C2161 C2162 1.399 . S
C2161 C2166 1.399 . S
C2162 C2161 1.399 . S
C2162 C2163 1.376 . S
C2163 H2150 0.930 . S
C2163 C2162 1.376 . S
C2163 C2164 1.388 . S
C2164 H2151 0.930 . S
C2164 C2163 1.388 . S
C2164 C2165 1.390 . S
C2165 C2164 1.390 . S
C2165 C2166 1.394 . S
C2165 C2171 1.465 . S
C2166 C2161 1.399 . S
C2166 C2165 1.394 . S
C2166 C2167 1.516 . S
C2167 C2166 1.516 . S
C2167 C2168 1.502 . S
C2167 C2169 1.561 . S
C2167 C2170 1.526 . S
C2168 H2152 0.959 . S
C2168 H2153 0.959 . S
C2168 H2154 0.961 . S
C2168 C2167 1.502 . S
C2169 H2155 0.960 . S
C2169 H2156 0.961 . S
C2169 H2157 0.959 . S
C2169 C2167 1.561 . S
C2170 C2167 1.526 . S
C2170 C2171 1.396 . S
C2170 C2175 1.390 . S
C2171 C2165 1.465 . S
C2171 C2170 1.396 . S
C2171 C2172 1.399 . S
C2172 H2158 0.929 . S
C2172 C2171 1.399 . S
C2172 C2173 1.385 . S
C2173 H2159 0.931 . S
C2173 C2172 1.385 . S
C2173 C2174 1.389 . S
C2174 C2173 1.389 . S
C2174 C2175 1.387 . S
C2175 H2160 0.930 . S
C2175 C2170 1.390 . S
C2175 C2174 1.387 . S
C461 C218 1.528 . S
C473 C8 1.523 . S
C488 C22 1.501 . S
C500 C176 1.509 . S
C515 C36 1.523 . S
C527 C190 1.516 . S
C542 C204 1.526 . S
C554 C50 1.520 . S
C569 C64 1.494 . S
C581 C134 1.502 . S
C596 C78 1.507 . S
C608 C148 1.500 . S
C623 C162 1.528 . S
C635 C92 1.523 . S
C650 C120 1.481 . S
C662 C106 1.485 . S
C677 C232 1.530 . S
C689 C442 1.532 . S
C704 C246 1.506 . S
C716 C400 1.514 . S
C731 C260 1.519 . S
C743 C414 1.512 . S
C758 C428 1.503 . S
C770 C274 1.511 . S
C785 C288 1.516 . S
C797 C358 1.509 . S
C812 C302 1.494 . S
C824 C372 1.503 . S
C839 C386 1.526 . S
C851 C316 1.520 . S
C866 C330 1.521 . S
C878 C344 1.514 . S
C893 C175 1.424 . S
C905 C7 1.428 . S
C920 C21 1.425 . S
C932 C189 1.431 . S
C947 C203 1.478 . S
C959 C35 1.472 . S
C974 C49 1.424 . S
C986 C217 1.429 . S
C1001 C63 1.438 . S
C1013 C119 1.431 . S
C1028 C133 1.433 . S
C1040 C77 1.442 . S
C1055 C147 1.468 . S
C1067 C91 1.460 . S
C1082 C161 1.443 . S
C1094 C105 1.453 . S
C1109 C231 1.479 . S
C1121 C399 1.473 . S
C1136 C413 1.469 . S
C1148 C245 1.460 . S
C1163 C259 1.428 . S
C1175 C427 1.435 . S
C1190 C273 1.423 . S
C1202 C441 1.425 . S
C1217 C343 1.484 . S
C1229 C287 1.483 . S
C1244 C301 1.482 . S
C1256 C357 1.478 . S
C1271 C315 1.423 . S
C1283 C371 1.426 . S
C1298 C329 1.482 . S
C1310 C385 1.477 . S
C1325 C9 1.410 . S
C1337 C149 1.408 . S
C1352 C163 1.410 . S
C1364 C23 1.408 . S
C1379 C37 1.343 . S
C1391 C121 1.345 . S
C1406 C135 1.354 . S
C1418 C51 1.363 . S
C1433 C205 1.383 . S
C1445 C65 1.373 . S
C1460 C219 1.409 . S
C1472 C79 1.409 . S
C1487 C177 1.367 . S
C1499 C93 1.377 . S
C1514 C107 1.383 . S
C1526 C191 1.393 . S
C1541 C373 1.373 . S
C1553 C233 1.383 . S
C1568 C247 1.368 . S
C1580 C387 1.360 . S
C1595 C345 1.380 . S
C1607 C261 1.370 . S
C1622 C359 1.409 . S
C1634 C275 1.409 . S
C1649 C289 1.343 . S
C1661 C429 1.345 . S
C1676 C303 1.369 . S
C1688 C443 1.360 . S
C1703 C401 1.378 . S
C1715 C317 1.389 . S
C1730 C415 1.345 . S
C1742 C331 1.350 . S
C1757 C328 1.400 . S
C1769 C6 1.363 . S
C1784 C286 1.362 . S
C1796 C20 1.399 . S
C1811 C300 1.412 . S
C1823 C34 1.390 . S
C1838 C314 1.381 . S
C1850 C48 1.367 . S
C1865 C244 1.375 . S
C1877 C62 1.412 . S
C1892 C76 1.410 . S
C1904 C258 1.370 . S
C1919 C90 1.376 . S
C1931 C272 1.370 . S
C1946 C104 1.411 . S
C1958 C230 1.371 . S
C1973 C118 1.364 . S
C1985 C440 1.412 . S
C2000 C398 1.410 . S
C2012 C132 1.363 . S
C2027 C146 1.404 . S
C2039 C412 1.364 . S
C2054 C160 1.380 . S
C2066 C426 1.409 . S
C2081 C356 1.378 . S
C2093 C174 1.382 . S
C2108 C370 1.412 . S
C2120 C188 1.374 . S
C2135 C202 1.366 . S
C2147 C384 1.397 . S
C2162 C216 1.381 . S
C2174 C342 1.379 . S
