# Generated by pormake.
# Topology whp, (6)-cn, num edge types: 1
# Building blocks:
#     Node 0, Type 0, BuildingBlock: IZENUY_clean_sbu_0, # of connection points: 6
#     Node 1, Type 0, BuildingBlock: IZENUY_clean_sbu_0, # of connection points: 6
#     Node 2, Type 0, BuildingBlock: IZENUY_clean_sbu_0, # of connection points: 6
#     Node 3, Type 0, BuildingBlock: IZENUY_clean_sbu_0, # of connection points: 6
#     Node 4, Type 0, BuildingBlock: IZENUY_clean_sbu_0, # of connection points: 6
#     Node 5, Type 0, BuildingBlock: IZENUY_clean_sbu_0, # of connection points: 6
#     Node 6, Type 0, BuildingBlock: IZENUY_clean_sbu_0, # of connection points: 6
#     Node 7, Type 0, BuildingBlock: IZENUY_clean_sbu_0, # of connection points: 6
#     Node 8, Type 0, BuildingBlock: IZENUY_clean_sbu_0, # of connection points: 6
#     Node 9, Type 0, BuildingBlock: IZENUY_clean_sbu_0, # of connection points: 6
#     Node 10, Type 0, BuildingBlock: IZENUY_clean_sbu_0, # of connection points: 6
#     Node 11, Type 0, BuildingBlock: IZENUY_clean_sbu_0, # of connection points: 6
#     Node 12, Type 0, BuildingBlock: IZENUY_clean_sbu_0, # of connection points: 6
#     Node 13, Type 0, BuildingBlock: IZENUY_clean_sbu_0, # of connection points: 6
#     Node 14, Type 0, BuildingBlock: IZENUY_clean_sbu_0, # of connection points: 6
#     Node 15, Type 0, BuildingBlock: IZENUY_clean_sbu_0, # of connection points: 6
#     Edge 16, Type (0, 0), BuildingBlock: OJICUG_clean_linker_0, # of connection points: 2
#     Edge 17, Type (0, 0), BuildingBlock: OJICUG_clean_linker_0, # of connection points: 2
#     Edge 18, Type (0, 0), BuildingBlock: OJICUG_clean_linker_0, # of connection points: 2
#     Edge 19, Type (0, 0), BuildingBlock: OJICUG_clean_linker_0, # of connection points: 2
#     Edge 20, Type (0, 0), BuildingBlock: OJICUG_clean_linker_0, # of connection points: 2
#     Edge 21, Type (0, 0), BuildingBlock: OJICUG_clean_linker_0, # of connection points: 2
#     Edge 22, Type (0, 0), BuildingBlock: OJICUG_clean_linker_0, # of connection points: 2
#     Edge 23, Type (0, 0), BuildingBlock: OJICUG_clean_linker_0, # of connection points: 2
#     Edge 24, Type (0, 0), BuildingBlock: OJICUG_clean_linker_0, # of connection points: 2
#     Edge 25, Type (0, 0), BuildingBlock: OJICUG_clean_linker_0, # of connection points: 2
#     Edge 26, Type (0, 0), BuildingBlock: OJICUG_clean_linker_0, # of connection points: 2
#     Edge 27, Type (0, 0), BuildingBlock: OJICUG_clean_linker_0, # of connection points: 2
#     Edge 28, Type (0, 0), BuildingBlock: OJICUG_clean_linker_0, # of connection points: 2
#     Edge 29, Type (0, 0), BuildingBlock: OJICUG_clean_linker_0, # of connection points: 2
#     Edge 30, Type (0, 0), BuildingBlock: OJICUG_clean_linker_0, # of connection points: 2
#     Edge 31, Type (0, 0), BuildingBlock: OJICUG_clean_linker_0, # of connection points: 2
#     Edge 32, Type (0, 0), BuildingBlock: OJICUG_clean_linker_0, # of connection points: 2
#     Edge 33, Type (0, 0), BuildingBlock: OJICUG_clean_linker_0, # of connection points: 2
#     Edge 34, Type (0, 0), BuildingBlock: OJICUG_clean_linker_0, # of connection points: 2
#     Edge 35, Type (0, 0), BuildingBlock: OJICUG_clean_linker_0, # of connection points: 2
#     Edge 36, Type (0, 0), BuildingBlock: OJICUG_clean_linker_0, # of connection points: 2
#     Edge 37, Type (0, 0), BuildingBlock: OJICUG_clean_linker_0, # of connection points: 2
#     Edge 38, Type (0, 0), BuildingBlock: OJICUG_clean_linker_0, # of connection points: 2
#     Edge 39, Type (0, 0), BuildingBlock: OJICUG_clean_linker_0, # of connection points: 2
#     Edge 40, Type (0, 0), BuildingBlock: OJICUG_clean_linker_0, # of connection points: 2
#     Edge 41, Type (0, 0), BuildingBlock: OJICUG_clean_linker_0, # of connection points: 2
#     Edge 42, Type (0, 0), BuildingBlock: OJICUG_clean_linker_0, # of connection points: 2
#     Edge 43, Type (0, 0), BuildingBlock: OJICUG_clean_linker_0, # of connection points: 2
#     Edge 44, Type (0, 0), BuildingBlock: OJICUG_clean_linker_0, # of connection points: 2
#     Edge 45, Type (0, 0), BuildingBlock: OJICUG_clean_linker_0, # of connection points: 2
#     Edge 46, Type (0, 0), BuildingBlock: OJICUG_clean_linker_0, # of connection points: 2
#     Edge 47, Type (0, 0), BuildingBlock: OJICUG_clean_linker_0, # of connection points: 2
#     Edge 48, Type (0, 0), BuildingBlock: OJICUG_clean_linker_0, # of connection points: 2
#     Edge 49, Type (0, 0), BuildingBlock: OJICUG_clean_linker_0, # of connection points: 2
#     Edge 50, Type (0, 0), BuildingBlock: OJICUG_clean_linker_0, # of connection points: 2
#     Edge 51, Type (0, 0), BuildingBlock: OJICUG_clean_linker_0, # of connection points: 2
#     Edge 52, Type (0, 0), BuildingBlock: OJICUG_clean_linker_0, # of connection points: 2
#     Edge 53, Type (0, 0), BuildingBlock: OJICUG_clean_linker_0, # of connection points: 2
#     Edge 54, Type (0, 0), BuildingBlock: OJICUG_clean_linker_0, # of connection points: 2
#     Edge 55, Type (0, 0), BuildingBlock: OJICUG_clean_linker_0, # of connection points: 2
#     Edge 56, Type (0, 0), BuildingBlock: OJICUG_clean_linker_0, # of connection points: 2
#     Edge 57, Type (0, 0), BuildingBlock: OJICUG_clean_linker_0, # of connection points: 2
#     Edge 58, Type (0, 0), BuildingBlock: OJICUG_clean_linker_0, # of connection points: 2
#     Edge 59, Type (0, 0), BuildingBlock: OJICUG_clean_linker_0, # of connection points: 2
#     Edge 60, Type (0, 0), BuildingBlock: OJICUG_clean_linker_0, # of connection points: 2
#     Edge 61, Type (0, 0), BuildingBlock: OJICUG_clean_linker_0, # of connection points: 2
#     Edge 62, Type (0, 0), BuildingBlock: OJICUG_clean_linker_0, # of connection points: 2
#     Edge 63, Type (0, 0), BuildingBlock: OJICUG_clean_linker_0, # of connection points: 2
# Relax obj value: 0.322
# Max RMSD: 0.246
# Mean RMSD: 0.246
data_MOF--net-whp--node1-IZENUY_clean_sbu_0--edge1-OJICUG_clean_linker_0
_symmetry_space_group_name_H-M    P1
_symmetry_Int_Tables_number       1
_symmetry_cell_setting            triclinic
loop_
_symmetry_equiv_pos_as_xyz
'x, y, z'
_cell_length_a     35.086528
_cell_length_b     35.085808
_cell_length_c     21.091125
_cell_angle_alpha  89.998962
_cell_angle_beta   89.999202
_cell_angle_gamma 89.998695
loop_
_atom_site_label
_atom_site_type_symbol
_atom_site_fract_x
_atom_site_fract_y
_atom_site_fract_z
_atom_type_partial_charge
Fe0 Fe 0.36596 0.53823 0.3008 0.0
Fe1 Fe 0.31327 0.58483 0.38609 0.0
O2 O 0.32119 0.54415 0.33838 0.0
Fe3 Fe 0.28424 0.50978 0.33032 0.0
O4 O 0.28363 0.51467 0.24553 0.0
O5 O 0.34575 0.51676 0.22813 0.0
O6 O 0.36312 0.58372 0.26022 0.0
C7 C 0.36113 0.61492 0.28936 0.0
C8 C 0.35162 0.46447 0.33902 0.0
O9 O 0.34696 0.61617 0.34438 0.0
C10 C 0.27344 0.5282 0.45395 0.0
O11 O 0.39319 0.55905 0.36742 0.0
O12 O 0.34974 0.56956 0.44102 0.0
O13 O 0.31645 0.46773 0.32587 0.0
O14 O 0.37342 0.49285 0.33844 0.0
C15 C 0.24709 0.58226 0.32045 0.0
O16 O 0.2778 0.56265 0.43845 0.0
O17 O 0.28196 0.50203 0.41569 0.0
C18 C 0.38407 0.5644 0.42511 0.0
O19 O 0.27675 0.60121 0.33269 0.0
O20 O 0.2456 0.54647 0.33159 0.0
C21 C 0.31165 0.51372 0.20834 0.0
Fe22 Fe 0.02083 0.28425 0.83048 0.0
Fe23 Fe 0.99238 0.36597 0.80097 0.0
O24 O 0.98646 0.3212 0.83856 0.0
Fe25 Fe 0.94578 0.31328 0.88627 0.0
O26 O 0.9294 0.27676 0.83287 0.0
O27 O 0.98414 0.24561 0.83176 0.0
O28 O 0.01593 0.28364 0.7457 0.0
C29 C 0.01688 0.31166 0.70851 0.0
C30 C 1.00241 0.27344 0.95412 0.0
O31 O 1.01385 0.34576 0.72831 0.0
C32 C 0.96621 0.38407 0.9253 0.0
O33 O 0.06288 0.31646 0.82602 0.0
O34 O 0.03776 0.37343 0.83861 0.0
O35 O 0.96796 0.27781 0.93863 0.0
O36 O 0.02858 0.28197 0.91585 0.0
C37 C 0.91569 0.36114 0.78955 0.0
O38 O 0.97156 0.3932 0.8676 0.0
O39 O 0.96105 0.34975 0.94119 0.0
C40 C 0.06613 0.35163 0.83916 0.0
O41 O 0.94689 0.36313 0.7604 0.0
O42 O 0.91444 0.34697 0.84457 0.0
C43 C 0.94835 0.24709 0.82063 0.0
Fe44 Fe 0.24638 0.02087 0.33029 0.0
Fe45 Fe 0.16466 0.99241 0.30077 0.0
O46 O 0.20944 0.9865 0.33835 0.0
Fe47 Fe 0.21735 0.94582 0.38606 0.0
O48 O 0.25387 0.92943 0.33266 0.0
O49 O 0.28502 0.98418 0.33155 0.0
O50 O 0.24698 0.01598 0.2455 0.0
C51 C 0.21897 0.01692 0.20831 0.0
C52 C 0.25719 1.00244 0.45392 0.0
O53 O 0.18487 1.01388 0.2281 0.0
C54 C 0.14656 0.96624 0.42509 0.0
O55 O 0.21416 0.06292 0.32585 0.0
O56 O 0.15719 0.03779 0.33841 0.0
O57 O 0.25282 0.96799 0.43842 0.0
O58 O 0.24866 0.02861 0.41566 0.0
C59 C 0.1695 0.91572 0.28934 0.0
O60 O 0.13744 0.97159 0.36739 0.0
O61 O 0.18089 0.96108 0.44099 0.0
C62 C 0.17899 0.06616 0.33899 0.0
O63 O 0.16751 0.94692 0.26019 0.0
O64 O 0.18367 0.91447 0.34436 0.0
C65 C 0.28354 0.94838 0.32042 0.0
Fe66 Fe 0.50979 0.2464 0.8305 0.0
Fe67 Fe 0.53824 0.16468 0.80099 0.0
O68 O 0.54416 0.20946 0.83857 0.0
Fe69 Fe 0.58483 0.21737 0.88629 0.0
O70 O 0.60122 0.25389 0.83289 0.0
O71 O 0.54647 0.28504 0.83178 0.0
O72 O 0.51469 0.24701 0.74571 0.0
C73 C 0.51374 0.21899 0.70853 0.0
C74 C 0.5282 0.25721 0.95413 0.0
O75 O 0.51678 0.18489 0.72832 0.0
C76 C 0.56441 0.14658 0.92532 0.0
O77 O 0.46774 0.21419 0.82603 0.0
O78 O 0.49286 0.15722 0.83863 0.0
O79 O 0.56266 0.25284 0.93864 0.0
O80 O 0.50203 0.24868 0.91587 0.0
C81 C 0.61494 0.16951 0.78957 0.0
O82 O 0.55906 0.13745 0.86762 0.0
O83 O 0.56957 0.1809 0.94121 0.0
C84 C 0.46449 0.17902 0.83918 0.0
O85 O 0.58373 0.16752 0.76042 0.0
O86 O 0.61618 0.18368 0.84459 0.0
C87 C 0.58227 0.28356 0.82064 0.0
Fe88 Fe 0.81326 0.44582 0.14719 0.0
Fe89 Fe 0.78423 0.52087 0.20296 0.0
O90 O 0.82118 0.48651 0.1949 0.0
Fe91 Fe 0.86595 0.49242 0.23248 0.0
O92 O 0.86311 0.44693 0.27306 0.0
O93 O 0.84695 0.41448 0.1889 0.0
O94 O 0.77674 0.42944 0.20059 0.0
C95 C 0.74708 0.44839 0.21284 0.0
C96 C 0.88405 0.46625 0.10816 0.0
O97 O 0.74559 0.48419 0.2017 0.0
C98 C 0.85162 0.56617 0.19426 0.0
O99 O 0.77779 0.468 0.09483 0.0
O100 O 0.78195 0.52862 0.11759 0.0
O101 O 0.89318 0.4716 0.16586 0.0
O102 O 0.84973 0.46109 0.09226 0.0
C103 C 0.81164 0.51693 0.32494 0.0
O104 O 0.81645 0.56293 0.2074 0.0
O105 O 0.87341 0.5378 0.19484 0.0
C106 C 0.77342 0.50245 0.07933 0.0
O107 O 0.78363 0.51599 0.28775 0.0
O108 O 0.84574 0.51389 0.30515 0.0
C109 C 0.86112 0.41573 0.24392 0.0
Fe110 Fe 0.08484 0.81327 0.647 0.0
Fe111 Fe 1.0098 0.78424 0.70279 0.0
O112 O 0.04416 0.82119 0.69471 0.0
Fe113 Fe 0.03824 0.86596 0.73229 0.0
O114 O 0.08374 0.86312 0.77286 0.0
O115 O 0.11618 0.84696 0.68869 0.0
O116 O 0.10123 0.77675 0.7004 0.0
C117 C 0.08228 0.74708 0.71264 0.0
C118 C 0.06441 0.88406 0.60797 0.0
O119 O 0.04648 0.7456 0.70151 0.0
C120 C 0.96449 0.85163 0.69411 0.0
O121 O 0.06266 0.7778 0.59464 0.0
O122 O 1.00204 0.78196 0.61742 0.0
O123 O 0.05906 0.89319 0.66566 0.0
O124 O 0.06957 0.84974 0.59207 0.0
C125 C 1.01374 0.81165 0.82476 0.0
O126 O 0.96774 0.81645 0.70726 0.0
O127 O 0.99286 0.87342 0.69466 0.0
C128 C 0.02821 0.77344 0.57916 0.0
O129 O 1.01469 0.78363 0.78758 0.0
O130 O 0.01678 0.84575 0.80496 0.0
C131 C 0.11494 0.86113 0.74371 0.0
Fe132 Fe 0.71736 0.08483 0.14721 0.0
Fe133 Fe 0.74639 1.00978 0.20298 0.0
O134 O 0.70944 0.04415 0.19492 0.0
Fe135 Fe 0.66467 0.03823 0.23251 0.0
O136 O 0.66751 0.08372 0.27309 0.0
O137 O 0.68367 0.11617 0.18892 0.0
O138 O 0.75388 0.10121 0.20061 0.0
C139 C 0.78354 0.08226 0.21286 0.0
C140 C 0.64656 0.06441 0.10819 0.0
O141 O 0.78503 0.04646 0.20172 0.0
C142 C 0.679 0.96448 0.19428 0.0
O143 O 0.75283 0.06265 0.09485 0.0
O144 O 0.74867 1.00203 0.11761 0.0
O145 O 0.63744 0.05906 0.16589 0.0
O146 O 0.68089 0.06957 0.09229 0.0
C147 C 0.71898 1.01372 0.32496 0.0
O148 O 0.71417 0.96773 0.20742 0.0
O149 O 0.6572 0.99286 0.19487 0.0
C150 C 0.75719 0.0282 0.07935 0.0
O151 O 0.74699 1.01466 0.28777 0.0
O152 O 0.68488 0.01676 0.30517 0.0
C153 C 0.66951 0.11493 0.24394 0.0
Fe154 Fe 0.52082 0.74641 0.70278 0.0
Fe155 Fe 0.49239 0.66468 0.73229 0.0
O156 O 0.48646 0.70945 0.69471 0.0
Fe157 Fe 0.44578 0.71736 0.64699 0.0
O158 O 0.42939 0.75388 0.70038 0.0
O159 O 0.48413 0.78504 0.70149 0.0
O160 O 0.51592 0.74701 0.78756 0.0
C161 C 0.51688 0.71899 0.82475 0.0
C162 C 0.50241 0.7572 0.57914 0.0
O163 O 0.51385 0.6849 0.80496 0.0
C164 C 0.46622 0.64657 0.60797 0.0
O165 O 0.56288 0.7142 0.70724 0.0
O166 O 0.53777 0.65723 0.69466 0.0
O167 O 0.46796 0.75283 0.59463 0.0
O168 O 0.52858 0.74868 0.61741 0.0
C169 C 0.41569 0.6695 0.74372 0.0
O170 O 0.47157 0.63745 0.66567 0.0
O171 O 0.46105 0.6809 0.59207 0.0
C172 C 0.56614 0.67903 0.6941 0.0
O173 O 0.44689 0.66751 0.77287 0.0
O174 O 0.41444 0.68367 0.6887 0.0
C175 C 0.44834 0.78356 0.71262 0.0
Fe176 Fe 0.74638 0.52087 0.70296 0.0
Fe177 Fe 0.66466 0.49242 0.73249 0.0
O178 O 0.70943 0.4865 0.6949 0.0
Fe179 Fe 0.71735 0.44582 0.64719 0.0
O180 O 0.75387 0.42944 0.70059 0.0
O181 O 0.78502 0.48418 0.7017 0.0
O182 O 0.74698 0.51598 0.78775 0.0
C183 C 0.71897 0.51693 0.82494 0.0
C184 C 0.75718 0.50244 0.57933 0.0
O185 O 0.68487 0.51389 0.80515 0.0
C186 C 0.64655 0.46625 0.60817 0.0
O187 O 0.71416 0.56292 0.70741 0.0
O188 O 0.6572 0.5378 0.69484 0.0
O189 O 0.75282 0.46799 0.59483 0.0
O190 O 0.74866 0.52862 0.61759 0.0
C191 C 0.66949 0.41572 0.74392 0.0
O192 O 0.63743 0.4716 0.66587 0.0
O193 O 0.68088 0.46108 0.59227 0.0
C194 C 0.67899 0.56617 0.69426 0.0
O195 O 0.6675 0.44693 0.77307 0.0
O196 O 0.68366 0.41448 0.6889 0.0
C197 C 0.78353 0.44839 0.71284 0.0
Fe198 Fe 1.00979 0.7464 0.20279 0.0
Fe199 Fe 0.03824 0.66467 0.2323 0.0
O200 O 0.04416 0.70945 0.19472 0.0
Fe201 Fe 0.08484 0.71736 0.14701 0.0
O202 O 0.10122 0.75388 0.2004 0.0
O203 O 0.04648 0.78503 0.20151 0.0
O204 O 1.01469 0.747 0.28758 0.0
C205 C 1.01374 0.71899 0.32476 0.0
C206 C 0.02821 0.7572 0.07916 0.0
O207 O 0.01677 0.68489 0.30497 0.0
C208 C 0.06441 0.64657 0.10798 0.0
O209 O 0.96774 0.71418 0.20725 0.0
O210 O 0.99286 0.65722 0.19467 0.0
O211 O 0.06266 0.75283 0.09465 0.0
O212 O 1.00204 0.74868 0.11742 0.0
C213 C 0.11493 0.6695 0.24373 0.0
O214 O 0.05906 0.63744 0.16568 0.0
O215 O 0.06957 0.6809 0.09208 0.0
C216 C 0.96449 0.67901 0.19411 0.0
O217 O 0.08373 0.66751 0.27288 0.0
O218 O 0.11618 0.68367 0.18871 0.0
C219 C 0.08227 0.78355 0.21264 0.0
Fe220 Fe 0.78424 1.00978 0.70298 0.0
Fe221 Fe 0.86596 0.03823 0.7325 0.0
O222 O 0.82119 0.04415 0.69492 0.0
Fe223 Fe 0.81327 0.08483 0.64721 0.0
O224 O 0.77675 0.10121 0.70061 0.0
O225 O 0.7456 0.04647 0.70172 0.0
O226 O 0.78364 1.01467 0.78777 0.0
C227 C 0.81165 1.01372 0.82496 0.0
C228 C 0.77343 0.02821 0.57935 0.0
O229 O 0.84575 0.01676 0.80516 0.0
C230 C 0.88406 0.0644 0.60818 0.0
O231 O 0.81646 0.96773 0.70743 0.0
O232 O 0.87342 0.99285 0.69486 0.0
O233 O 0.7778 0.06266 0.59485 0.0
O234 O 0.78196 1.00203 0.61761 0.0
C235 C 0.86113 0.11492 0.74393 0.0
O236 O 0.89319 0.05905 0.66587 0.0
O237 O 0.84974 0.06957 0.59228 0.0
C238 C 0.85163 0.96448 0.69428 0.0
O239 O 0.86312 0.08372 0.77308 0.0
O240 O 0.84695 0.11617 0.68891 0.0
C241 C 0.74708 0.08226 0.71286 0.0
Fe242 Fe 0.49239 0.86597 0.23228 0.0
Fe243 Fe 0.44579 0.81328 0.14699 0.0
O244 O 0.48647 0.82119 0.1947 0.0
Fe245 Fe 0.52083 0.78424 0.20278 0.0
O246 O 0.51593 0.78364 0.28757 0.0
O247 O 0.51385 0.84576 0.30495 0.0
O248 O 0.44689 0.86313 0.27285 0.0
C249 C 0.41569 0.86114 0.2437 0.0
C250 C 0.56614 0.85163 0.1941 0.0
O251 O 0.41444 0.84696 0.18869 0.0
C252 C 0.50242 0.77344 0.07915 0.0
O253 O 0.47157 0.89319 0.16565 0.0
O254 O 0.46105 0.84974 0.09206 0.0
O255 O 0.56288 0.81646 0.20725 0.0
O256 O 0.53777 0.87342 0.19464 0.0
C257 C 0.44835 0.74709 0.21264 0.0
O258 O 0.46797 0.7778 0.09464 0.0
O259 O 0.52859 0.78196 0.11741 0.0
C260 C 0.46622 0.88407 0.10795 0.0
O261 O 0.4294 0.77676 0.20039 0.0
O262 O 0.48415 0.7456 0.2015 0.0
C263 C 0.51688 0.81166 0.32475 0.0
Fe264 Fe 0.16467 0.53822 0.8008 0.0
Fe265 Fe 0.21736 0.58482 0.88609 0.0
O266 O 0.20944 0.54414 0.83838 0.0
Fe267 Fe 0.24639 0.50977 0.83032 0.0
O268 O 0.247 0.51466 0.74553 0.0
O269 O 0.18488 0.51675 0.72814 0.0
O270 O 0.16751 0.58371 0.76022 0.0
C271 C 0.1695 0.61492 0.78936 0.0
C272 C 0.17901 0.46447 0.83903 0.0
O273 O 0.18367 0.61616 0.84438 0.0
C274 C 0.2572 0.5282 0.95395 0.0
O275 O 0.13744 0.55904 0.86742 0.0
O276 O 0.18089 0.56956 0.94102 0.0
O277 O 0.21418 0.46772 0.82588 0.0
O278 O 0.15721 0.49284 0.83844 0.0
C279 C 0.28355 0.58225 0.82044 0.0
O280 O 0.25283 0.56265 0.93845 0.0
O281 O 0.24867 0.50202 0.91569 0.0
C282 C 0.14657 0.5644 0.92512 0.0
O283 O 0.25388 0.6012 0.83268 0.0
O284 O 0.28503 0.54646 0.83158 0.0
C285 C 0.21898 0.51371 0.70834 0.0
Fe286 Fe 0.94578 0.21737 0.38628 0.0
Fe287 Fe 0.02082 0.24641 0.33048 0.0
O288 O 0.98646 0.20946 0.33856 0.0
Fe289 Fe 0.99238 0.16468 0.30098 0.0
O290 O 0.94689 0.16752 0.26041 0.0
O291 O 0.91444 0.18368 0.34458 0.0
O292 O 0.92939 0.25389 0.33288 0.0
C293 C 0.94834 0.28356 0.32063 0.0
C294 C 0.96622 0.14658 0.42531 0.0
O295 O 0.98414 0.28504 0.33176 0.0
C296 C 0.06614 0.17902 0.33917 0.0
O297 O 0.96796 0.25284 0.43863 0.0
O298 O 0.02858 0.24868 0.41585 0.0
O299 O 0.97157 0.13745 0.36761 0.0
O300 O 0.96105 0.18091 0.4412 0.0
C301 C 0.01688 0.21899 0.20851 0.0
O302 O 0.06288 0.21419 0.32602 0.0
O303 O 0.03776 0.15723 0.33862 0.0
C304 C 1.00241 0.25721 0.45412 0.0
O305 O 0.01593 0.24701 0.2457 0.0
O306 O 1.01385 0.1849 0.22831 0.0
C307 C 0.91569 0.16951 0.28956 0.0
Fe308 Fe 0.36595 0.99242 0.80077 0.0
Fe309 Fe 0.31327 0.94582 0.88606 0.0
O310 O 0.32118 0.9865 0.83835 0.0
Fe311 Fe 0.28423 0.02087 0.83029 0.0
O312 O 0.28363 0.01599 0.7455 0.0
O313 O 0.34574 1.01389 0.7281 0.0
O314 O 0.36311 0.94693 0.76018 0.0
C315 C 0.36112 0.91572 0.78933 0.0
C316 C 0.35162 0.06617 0.83899 0.0
O317 O 0.34695 0.91448 0.84435 0.0
C318 C 0.27343 1.00244 0.95392 0.0
O319 O 0.39318 0.97159 0.86738 0.0
O320 O 0.34973 0.96108 0.94098 0.0
O321 O 0.31645 0.06292 0.82585 0.0
O322 O 0.37342 0.0378 0.83841 0.0
C323 C 0.24708 0.94839 0.82041 0.0
O324 O 0.27779 0.96799 0.93842 0.0
O325 O 0.28195 0.02862 0.91566 0.0
C326 C 0.38406 0.96624 0.92508 0.0
O327 O 0.27675 0.92944 0.83266 0.0
O328 O 0.2456 0.98419 0.83155 0.0
C329 C 0.31164 0.01693 0.70831 0.0
Fe330 Fe 0.5098 0.28424 0.3305 0.0
Fe331 Fe 0.53824 0.36597 0.30099 0.0
O332 O 0.54416 0.32119 0.33857 0.0
Fe333 Fe 0.58484 0.31328 0.38628 0.0
O334 O 0.60123 0.27676 0.33288 0.0
O335 O 0.54648 0.24561 0.33178 0.0
O336 O 0.51469 0.28364 0.24571 0.0
C337 C 0.51374 0.31166 0.20853 0.0
C338 C 0.52821 0.27344 0.45413 0.0
O339 O 0.51677 0.34575 0.22832 0.0
C340 C 0.5644 0.38408 0.4253 0.0
O341 O 0.46774 0.31646 0.32603 0.0
O342 O 0.49286 0.37343 0.33862 0.0
O343 O 0.56266 0.27781 0.43864 0.0
O344 O 0.50204 0.28197 0.41587 0.0
C345 C 0.61493 0.36114 0.28956 0.0
O346 O 0.55905 0.3932 0.36761 0.0
O347 O 0.56957 0.34975 0.4412 0.0
C348 C 0.46448 0.35163 0.33918 0.0
O349 O 0.58373 0.36313 0.26041 0.0
O350 O 0.61618 0.34697 0.34457 0.0
C351 C 0.58228 0.24709 0.32065 0.0
C352 C 0.44202 0.60159 0.45198 0.0
C353 C 0.41334 0.57611 0.47097 0.0
H354 H 0.48159 0.64454 0.48177 0.0
C355 C 0.40818 0.5685 0.53574 0.0
H356 H 0.44625 0.60818 0.40228 0.0
C357 C 0.42905 0.58861 0.58111 0.0
C358 C 0.45451 0.6173 0.56212 0.0
H359 H 0.38611 0.54902 0.5513 0.0
H360 H 0.42245 0.58437 0.63081 0.0
C361 C 0.46212 0.62246 0.49734 0.0
C362 C 0.90816 0.46214 0.99754 0.0
C363 C 0.91333 0.45453 0.06231 0.0
H364 H 0.92243 0.44628 0.90247 0.0
C365 C 0.94201 0.42905 0.08129 0.0
H366 H 0.88609 0.48162 0.98198 0.0
C367 C 0.96211 0.40818 0.03592 0.0
C368 C 0.9545 0.41335 0.97115 0.0
H369 H 0.94625 0.42245 0.13099 0.0
H370 H 0.98158 0.3861 0.05148 0.0
C371 C 0.92904 0.44204 0.95217 0.0
C372 C 0.06851 0.90816 0.49734 0.0
C373 C 0.07612 0.91333 0.56211 0.0
H374 H 0.08437 0.92243 0.40227 0.0
C375 C 0.10158 0.94203 0.58109 0.0
H376 H 0.04904 0.88609 0.48178 0.0
C377 C 0.12245 0.96213 0.53571 0.0
C378 C 0.11729 0.95452 0.47094 0.0
H379 H 0.10818 0.94627 0.63079 0.0
H380 H 0.14452 0.98162 0.55127 0.0
C381 C 0.08861 0.92904 0.45197 0.0
C382 C 0.56851 0.12248 0.03594 0.0
C383 C 0.57612 0.11731 0.97117 0.0
H384 H 0.58437 0.10821 0.13101 0.0
C385 C 0.60158 0.08862 0.95219 0.0
H386 H 0.54904 0.14455 0.0515 0.0
C387 C 0.62246 0.06851 0.99757 0.0
C388 C 0.61729 0.07612 0.06234 0.0
H389 H 0.60818 0.08437 0.90249 0.0
H390 H 0.64453 0.04903 0.982 0.0
C391 C 0.58861 0.1016 0.08132 0.0
C392 C 0.56851 0.40818 0.53593 0.0
C393 C 0.57611 0.41335 0.47116 0.0
H394 H 0.58436 0.42245 0.631 0.0
C395 C 0.60158 0.44204 0.45218 0.0
H396 H 0.54903 0.3861 0.55149 0.0
C397 C 0.62245 0.46214 0.49755 0.0
C398 C 0.61728 0.45453 0.56232 0.0
H399 H 0.60818 0.44628 0.40248 0.0
H400 H 0.64452 0.48162 0.48198 0.0
C401 C 0.5886 0.42906 0.5813 0.0
C402 C 0.08862 0.60159 0.95199 0.0
C403 C 0.1173 0.57611 0.97097 0.0
H404 H 0.04904 0.64454 0.98179 0.0
C405 C 0.12246 0.5685 0.03575 0.0
H406 H 0.08438 0.60818 0.90229 0.0
C407 C 0.10158 0.58861 0.08111 0.0
C408 C 0.07612 0.6173 0.06213 0.0
H409 H 0.14453 0.54902 0.05131 0.0
H410 H 0.10819 0.58437 0.13081 0.0
C411 C 0.06851 0.62246 0.99736 0.0
C412 C 0.96211 0.12247 0.53593 0.0
C413 C 0.9545 0.11731 0.47116 0.0
H414 H 0.94625 0.10821 0.631 0.0
C415 C 0.92904 0.08862 0.45218 0.0
H416 H 0.98158 0.14455 0.55149 0.0
C417 C 0.90817 0.06851 0.49755 0.0
C418 C 0.91333 0.07612 0.56233 0.0
H419 H 0.92244 0.08437 0.40248 0.0
H420 H 0.8861 0.04903 0.48199 0.0
C421 C 0.94201 0.1016 0.5813 0.0
C422 C 0.40817 0.96213 0.0357 0.0
C423 C 0.41333 0.95452 0.97093 0.0
H424 H 0.42244 0.94628 0.13077 0.0
C425 C 0.44201 0.92904 0.95195 0.0
H426 H 0.3861 0.98162 0.05126 0.0
C427 C 0.46211 0.90817 0.99732 0.0
C428 C 0.4545 0.91334 0.0621 0.0
H429 H 0.44624 0.92244 0.90225 0.0
H430 H 0.48158 0.88609 0.98176 0.0
C431 C 0.42904 0.94203 0.08107 0.0
C432 C 0.39585 0.42402 0.40063 0.0
C433 C 0.37003 0.42705 0.35001 0.0
H434 H 0.44556 0.39653 0.43745 0.0
C435 C 0.37036 0.39876 0.30269 0.0
H436 H 0.39646 0.44562 0.43737 0.0
C437 C 0.39879 0.37034 0.30274 0.0
C438 C 0.42706 0.37004 0.3501 0.0
H439 H 0.35129 0.4009 0.26247 0.0
H440 H 0.40096 0.35124 0.26255 0.0
C441 C 0.42399 0.39588 0.40068 0.0
C442 C 0.13183 0.37034 0.80273 0.0
C443 C 0.10356 0.37005 0.85009 0.0
H444 H 0.17934 0.40089 0.76247 0.0
C445 C 0.10663 0.39589 0.90066 0.0
H446 H 0.12966 0.35124 0.76254 0.0
C447 C 0.13477 0.42402 0.90063 0.0
C448 C 0.16059 0.42705 0.85002 0.0
H449 H 0.08505 0.39653 0.93743 0.0
H450 H 0.13415 0.44561 0.93737 0.0
C451 C 0.16026 0.39876 0.80269 0.0
C452 C 0.16025 0.13188 0.30267 0.0
C453 C 0.16057 0.10359 0.34999 0.0
H454 H 0.12967 0.1794 0.26252 0.0
C455 C 0.13476 0.10662 0.40061 0.0
H456 H 0.17933 0.12973 0.26246 0.0
C457 C 0.10663 0.13476 0.40065 0.0
C458 C 0.10357 0.16061 0.35008 0.0
H459 H 0.13414 0.08502 0.43735 0.0
H460 H 0.08505 0.13412 0.43742 0.0
C461 C 0.13183 0.16031 0.30272 0.0
C462 C 0.39585 0.10662 0.90061 0.0
C463 C 0.37003 0.10359 0.84999 0.0
H464 H 0.44557 0.13409 0.93743 0.0
C465 C 0.37036 0.13189 0.80268 0.0
H466 H 0.39647 0.08501 0.93734 0.0
C467 C 0.39879 0.16031 0.80273 0.0
C468 C 0.42706 0.1606 0.85009 0.0
H469 H 0.35128 0.12975 0.76246 0.0
H470 H 0.40096 0.17941 0.76255 0.0
C471 C 0.42399 0.13475 0.90066 0.0
C472 C 0.89879 0.66031 0.23055 0.0
C473 C 0.92706 0.6606 0.18319 0.0
H474 H 0.85128 0.62975 0.27081 0.0
C475 C 0.92399 0.63476 0.13261 0.0
H476 H 0.90096 0.67941 0.27073 0.0
C477 C 0.89585 0.60663 0.13265 0.0
C478 C 0.87003 0.6036 0.18327 0.0
H479 H 0.94557 0.63411 0.09584 0.0
H480 H 0.89647 0.58503 0.09591 0.0
C481 C 0.87036 0.63189 0.23058 0.0
C482 C 0.8988 0.87034 0.73055 0.0
C483 C 0.92706 0.87005 0.68319 0.0
H484 H 0.85129 0.9009 0.77083 0.0
C485 C 0.92399 0.89589 0.63262 0.0
H486 H 0.90097 0.85124 0.77074 0.0
C487 C 0.89586 0.92402 0.63267 0.0
C488 C 0.87004 0.92705 0.68328 0.0
H489 H 0.94557 0.89653 0.59585 0.0
H490 H 0.89648 0.94562 0.59593 0.0
C491 C 0.87037 0.89876 0.7306 0.0
C492 C 0.60663 0.89589 0.13262 0.0
C493 C 0.60357 0.87004 0.18318 0.0
H494 H 0.63414 0.94563 0.09593 0.0
C495 C 0.63184 0.87034 0.23055 0.0
H496 H 0.58505 0.89653 0.09585 0.0
C497 C 0.66026 0.89876 0.23059 0.0
C498 C 0.66058 0.92706 0.18328 0.0
H499 H 0.62967 0.85123 0.27073 0.0
H500 H 0.67934 0.9009 0.27081 0.0
C501 C 0.63477 0.92402 0.13266 0.0
C502 C 0.60663 0.63477 0.63261 0.0
C503 C 0.60357 0.66061 0.68318 0.0
H504 H 0.63414 0.58504 0.5959 0.0
C505 C 0.63183 0.66031 0.73054 0.0
H506 H 0.58505 0.63414 0.59584 0.0
C507 C 0.66026 0.63188 0.73058 0.0
C508 C 0.66058 0.60359 0.68326 0.0
H509 H 0.62967 0.67941 0.77073 0.0
H510 H 0.67933 0.62974 0.77081 0.0
C511 C 0.63476 0.60664 0.63264 0.0
C512 C 0.26038 0.49152 0.0554 0.0
C513 C 0.27557 0.51945 1.01515 0.0
H514 H 0.25999 0.46802 0.14933 0.0
C515 C 0.30629 0.54182 0.03643 0.0
H516 H 0.23657 0.47413 0.04011 0.0
C517 C 0.3205 0.5375 0.098 0.0
C518 C 0.30342 0.51156 0.13984 0.0
H519 H 0.31851 0.5635 1.00602 0.0
H520 H 0.34297 0.55631 0.11423 0.0
C521 C 0.27378 0.48805 0.11767 0.0
C522 C 0.04255 0.27379 0.61784 0.0
C523 C 0.01904 0.30343 0.64001 0.0
H524 H 0.05647 0.23657 0.54029 0.0
C525 C 0.99311 0.32052 0.59816 0.0
H526 H 0.06257 0.25999 0.64951 0.0
C527 C 0.9888 0.30631 0.53659 0.0
C528 C 1.01116 0.27558 0.51531 0.0
H529 H 0.97431 0.343 0.61439 0.0
H530 H 0.96712 0.31854 0.50618 0.0
C531 C 0.03908 0.26038 0.55557 0.0
C532 C 0.27024 0.03912 0.05536 0.0
C533 C 0.25505 1.01119 1.01512 0.0
H534 H 0.27062 0.06263 0.14929 0.0
C535 C 0.22434 0.98882 0.03641 0.0
H536 H 0.29404 0.05651 0.04007 0.0
C537 C 0.21013 0.99313 0.09798 0.0
C538 C 0.2272 0.01908 0.13981 0.0
H539 H 0.21211 0.96713 1.006 0.0
H540 H 0.18765 0.97433 0.11421 0.0
C541 C 0.25684 0.0426 0.11763 0.0
C542 C 0.49154 0.27026 0.55558 0.0
C543 C 0.51947 0.25507 0.51533 0.0
H544 H 0.46804 0.27065 0.64951 0.0
C545 C 0.54184 0.22435 0.53662 0.0
H546 H 0.47415 0.29407 0.54029 0.0
C547 C 0.53752 0.21014 0.59819 0.0
C548 C 0.51158 0.22722 0.64003 0.0
H549 H 0.56352 0.21212 0.5062 0.0
H550 H 0.55633 0.18767 0.61442 0.0
C551 C 0.48807 0.25686 0.61785 0.0
C552 C 0.77377 0.54259 0.41562 0.0
C553 C 0.80341 0.51908 0.39344 0.0
H554 H 0.73656 0.55651 0.49317 0.0
C555 C 0.82049 0.49314 0.43528 0.0
H556 H 0.75998 0.56263 0.38395 0.0
C557 C 0.80627 0.48882 0.49685 0.0
C558 C 0.77556 0.51119 0.51813 0.0
H559 H 0.84296 0.47434 0.41904 0.0
H560 H 0.8185 0.46714 0.52726 0.0
C561 C 0.76036 0.53912 0.47788 0.0
C562 C 0.03752 0.8205 0.9351 0.0
C563 C 1.01158 0.80342 0.89326 0.0
H564 H 0.06352 0.81852 0.02709 0.0
C565 C 0.98807 0.77378 0.91544 0.0
H566 H 0.05632 0.84298 0.91887 0.0
C567 C 0.99154 0.76038 0.97771 0.0
C568 C 0.01947 0.77558 0.01796 0.0
H569 H 0.96804 0.75999 0.88377 0.0
H570 H 0.97415 0.73658 0.993 0.0
C571 C 0.04183 0.80629 0.99667 0.0
C572 C 0.71013 0.03751 0.43529 0.0
C573 C 0.72721 1.01156 0.39346 0.0
H574 H 0.71212 0.06352 0.52727 0.0
C575 C 0.75685 0.98805 0.41564 0.0
H576 H 0.68766 0.05631 0.41906 0.0
C577 C 0.77025 0.99153 0.47791 0.0
C578 C 0.75506 0.01946 0.51815 0.0
H579 H 0.77064 0.96802 0.38398 0.0
H580 H 0.79406 0.97413 0.4932 0.0
C581 C 0.72435 0.04183 0.49687 0.0
C582 C 0.48882 0.72434 0.99668 0.0
C583 C 0.51117 0.75507 0.01795 0.0
H584 H 0.47433 0.68764 0.91889 0.0
C585 C 0.53907 0.77028 0.97768 0.0
H586 H 0.46715 0.71209 0.02711 0.0
C587 C 0.54254 0.75688 0.91541 0.0
C588 C 0.51904 0.72723 0.89325 0.0
H589 H 0.55645 0.7941 0.99296 0.0
H590 H 0.56255 0.77068 0.88373 0.0
C591 C 0.49312 0.71013 0.93511 0.0
C592 C 0.71012 0.49314 0.93528 0.0
C593 C 0.7272 0.51909 0.89344 0.0
H594 H 0.71211 0.46714 0.02726 0.0
C595 C 0.75684 0.5426 0.91562 0.0
H596 H 0.68765 0.47434 0.91904 0.0
C597 C 0.77024 0.53913 0.97788 0.0
C598 C 0.75505 0.51119 0.01813 0.0
H599 H 0.77063 0.56263 0.88395 0.0
H600 H 0.79405 0.55652 0.99317 0.0
C601 C 0.72433 0.48883 0.99685 0.0
C602 C 0.03751 0.71013 0.43511 0.0
C603 C 1.01158 0.72722 0.39326 0.0
H604 H 0.0635 0.7121 0.52709 0.0
C605 C 0.98807 0.75686 0.41544 0.0
H606 H 0.05631 0.68765 0.41887 0.0
C607 C 0.99154 0.77026 0.47771 0.0
C608 C 0.01946 0.75506 0.51796 0.0
H609 H 0.96804 0.77066 0.38377 0.0
H610 H 0.97415 0.79407 0.49299 0.0
C611 C 0.04182 0.72434 0.49668 0.0
C612 C 0.76038 0.99152 0.97791 0.0
C613 C 0.77557 0.01946 0.01815 0.0
H614 H 0.76 0.96801 0.88398 0.0
C615 C 0.80628 0.04183 0.99686 0.0
H616 H 0.73658 0.97413 0.99321 0.0
C617 C 0.82049 0.03751 0.93529 0.0
C618 C 0.80342 1.01156 0.89346 0.0
H619 H 0.81851 0.06352 0.02727 0.0
H620 H 0.84297 0.05632 0.91906 0.0
C621 C 0.77379 0.98805 0.91564 0.0
C622 C 0.49309 0.8205 0.43508 0.0
C623 C 0.51904 0.80343 0.39325 0.0
H624 H 0.46709 0.81852 0.52706 0.0
C625 C 0.54256 0.7738 0.41543 0.0
H626 H 0.47429 0.84297 0.41884 0.0
C627 C 0.53909 0.76039 0.4777 0.0
C628 C 0.51115 0.77558 0.51794 0.0
H629 H 0.5626 0.76001 0.38377 0.0
H630 H 0.55648 0.73659 0.49299 0.0
C631 C 0.48878 0.80629 0.49665 0.0
C632 C 0.25685 0.48805 0.61766 0.0
C633 C 0.22721 0.51156 0.63984 0.0
H634 H 0.29406 0.47413 0.54011 0.0
C635 C 0.21013 0.53751 0.59801 0.0
H636 H 0.27064 0.46802 0.64933 0.0
C637 C 0.22435 0.54182 0.53644 0.0
C638 C 0.25506 0.51946 0.51515 0.0
H639 H 0.18766 0.55631 0.61424 0.0
H640 H 0.21212 0.56351 0.50603 0.0
C641 C 0.27025 0.49152 0.5554 0.0
C642 C 0.9931 0.21014 0.09817 0.0
C643 C 0.01904 0.22722 0.14002 0.0
H644 H 0.96711 0.21212 1.00619 0.0
C645 C 0.04255 0.25686 0.11784 0.0
H646 H 0.9743 0.18767 0.11441 0.0
C647 C 0.03908 0.27027 0.05557 0.0
C648 C 1.01116 0.25507 1.01532 0.0
H649 H 0.06258 0.27066 0.1495 0.0
H650 H 0.05647 0.29407 0.04028 0.0
C651 C 0.98879 0.22435 0.0366 0.0
C652 C 0.30628 0.98882 0.5364 0.0
C653 C 0.27556 1.01119 0.51512 0.0
H654 H 0.34297 0.97434 0.6142 0.0
C655 C 0.26037 0.03912 0.55537 0.0
H656 H 0.3185 0.96714 0.50599 0.0
C657 C 0.27377 0.04259 0.61763 0.0
C658 C 0.30341 0.01908 0.63981 0.0
H659 H 0.23656 0.05651 0.54007 0.0
H660 H 0.25998 0.06263 0.64929 0.0
C661 C 0.32049 0.99314 0.59797 0.0
C662 C 0.54181 0.30631 0.0366 0.0
C663 C 0.51946 0.27558 1.01533 0.0
H664 H 0.5563 0.343 0.11439 0.0
C665 C 0.49154 0.26037 0.05559 0.0
H666 H 0.56349 0.31854 1.00618 0.0
C667 C 0.48807 0.27378 0.11786 0.0
C668 C 0.51158 0.30343 0.14003 0.0
H669 H 0.47416 0.23656 0.04031 0.0
H670 H 0.46805 0.25998 0.14953 0.0
C671 C 0.5375 0.32052 0.09817 0.0
C672 C 0.21702 0.63747 0.26526 0.0
C673 C 0.21277 0.60376 0.30065 0.0
H674 H 0.18946 0.68456 0.21969 0.0
C675 C 0.17604 0.59256 0.31957 0.0
H676 H 0.245 0.64687 0.25013 0.0
C677 C 0.14424 0.61486 0.30363 0.0
C678 C 0.14856 0.64825 0.26727 0.0
H679 H 0.17199 0.56697 0.3475 0.0
H680 H 0.11619 0.60541 0.31823 0.0
C681 C 0.18528 0.65918 0.24812 0.0
C682 C 0.91576 0.14424 0.80382 0.0
C683 C 0.88237 0.14856 0.76747 0.0
H684 H 0.96365 0.17199 0.84767 0.0
C685 C 0.87143 0.18527 0.74833 0.0
H686 H 0.92522 0.11619 0.81841 0.0
C687 C 0.89314 0.21702 0.76546 0.0
C688 C 0.92685 0.21277 0.80084 0.0
H689 H 0.84605 0.18946 0.71991 0.0
H690 H 0.88373 0.245 0.75034 0.0
C691 C 0.93805 0.17605 0.81976 0.0
C692 C 0.3136 0.89319 0.26521 0.0
C693 C 0.31786 0.92689 0.30061 0.0
H694 H 0.34116 0.84609 0.21965 0.0
C695 C 0.35458 0.93808 0.31954 0.0
H696 H 0.28562 0.88379 0.25007 0.0
C697 C 0.38638 0.91578 0.3036 0.0
C698 C 0.38206 0.88239 0.26724 0.0
H699 H 0.35864 0.96367 0.34747 0.0
H700 H 0.41443 0.92523 0.31821 0.0
C701 C 0.34534 0.87147 0.24808 0.0
C702 C 0.63748 0.31363 0.76546 0.0
C703 C 0.60377 0.31788 0.80085 0.0
H704 H 0.68457 0.34119 0.71991 0.0
C705 C 0.59256 0.35461 0.81976 0.0
H706 H 0.64688 0.28565 0.75034 0.0
C707 C 0.61486 0.38641 0.80382 0.0
C708 C 0.64825 0.38209 0.76747 0.0
H709 H 0.56697 0.35866 0.84768 0.0
H710 H 0.6054 0.41446 0.81841 0.0
C711 C 0.65919 0.34537 0.74833 0.0
C712 C 0.67603 0.43809 0.21371 0.0
C713 C 0.71276 0.42689 0.23264 0.0
H714 H 0.61618 0.42524 0.21505 0.0
C715 C 0.71701 0.39319 0.26804 0.0
H716 H 0.67197 0.46367 0.18578 0.0
C717 C 0.68527 0.37148 0.28517 0.0
C718 C 0.64856 0.3824 0.26601 0.0
H719 H 0.745 0.38379 0.28318 0.0
H720 H 0.68946 0.3461 0.31361 0.0
C721 C 0.64423 0.41578 0.22966 0.0
C722 C 0.09257 0.67604 0.71352 0.0
C723 C 0.10378 0.71276 0.73243 0.0
H724 H 0.10541 0.61618 0.71488 0.0
C725 C 0.13748 0.71701 0.76782 0.0
H726 H 0.06698 0.67198 0.68561 0.0
C727 C 0.15919 0.68527 0.78495 0.0
C728 C 0.14826 0.64855 0.76581 0.0
H729 H 0.14689 0.74499 0.78294 0.0
H730 H 0.18457 0.68945 0.81338 0.0
C731 C 0.11487 0.64423 0.72947 0.0
C732 C 0.8136 0.13745 0.26806 0.0
C733 C 0.81786 0.10376 0.23266 0.0
H734 H 0.84116 0.18455 0.31363 0.0
C735 C 0.85459 0.09256 0.21372 0.0
H736 H 0.78562 0.14685 0.2832 0.0
C737 C 0.88639 0.11487 0.22967 0.0
C738 C 0.88206 0.14825 0.26603 0.0
H739 H 0.85865 0.06698 0.18579 0.0
H740 H 0.91443 0.10542 0.21505 0.0
C741 C 0.84534 0.15917 0.28519 0.0
C742 C 0.37142 0.84537 0.78491 0.0
C743 C 0.38235 0.88209 0.76578 0.0
H744 H 0.38371 0.78565 0.7829 0.0
C745 C 0.41575 0.88641 0.72944 0.0
H746 H 0.34603 0.84119 0.81333 0.0
C747 C 0.43804 0.8546 0.7135 0.0
C748 C 0.42683 0.81788 0.7324 0.0
H749 H 0.42522 0.91446 0.71485 0.0
H750 H 0.46364 0.85865 0.68559 0.0
C751 C 0.39312 0.81363 0.76778 0.0
C752 C 0.88638 0.41578 0.72965 0.0
C753 C 0.88206 0.38239 0.76601 0.0
H754 H 0.85863 0.46367 0.68577 0.0
C755 C 0.84534 0.37147 0.78517 0.0
H756 H 0.91443 0.42523 0.71504 0.0
C757 C 0.8136 0.39319 0.76804 0.0
C758 C 0.81785 0.42689 0.73264 0.0
H759 H 0.84116 0.34609 0.81361 0.0
H760 H 0.78562 0.38379 0.78318 0.0
C761 C 0.85458 0.43808 0.71371 0.0
C762 C 0.15919 0.84537 0.28495 0.0
C763 C 0.14826 0.88209 0.2658 0.0
H764 H 0.14689 0.78564 0.28295 0.0
C765 C 0.11487 0.8864 0.22945 0.0
H766 H 0.18457 0.84119 0.31337 0.0
C767 C 0.09257 0.8546 0.21351 0.0
C768 C 0.10378 0.81787 0.23243 0.0
H769 H 0.1054 0.91445 0.21485 0.0
H770 H 0.06698 0.85865 0.18559 0.0
C771 C 0.13748 0.81362 0.26782 0.0
C772 C 0.71702 0.13745 0.76808 0.0
C773 C 0.71277 0.10376 0.73266 0.0
H774 H 0.68947 0.18454 0.81366 0.0
C775 C 0.67604 0.09257 0.71372 0.0
H776 H 0.745 0.14685 0.78323 0.0
C777 C 0.64424 0.11488 0.72966 0.0
C778 C 0.64856 0.14826 0.76604 0.0
H779 H 0.67199 0.06699 0.68577 0.0
H780 H 0.61619 0.10543 0.71504 0.0
C781 C 0.68528 0.15917 0.78521 0.0
C782 C 0.43806 0.67604 0.21352 0.0
C783 C 0.42685 0.71277 0.23243 0.0
H784 H 0.42522 0.61619 0.21487 0.0
C785 C 0.39315 0.71702 0.26782 0.0
H786 H 0.46365 0.67199 0.1856 0.0
C787 C 0.37144 0.68527 0.28496 0.0
C788 C 0.38237 0.64855 0.26581 0.0
H789 H 0.38374 0.745 0.28295 0.0
H790 H 0.34606 0.68945 0.31339 0.0
C791 C 0.41576 0.64424 0.22946 0.0
C792 C 0.34535 0.65916 0.74809 0.0
C793 C 0.38206 0.64825 0.76726 0.0
H794 H 0.28563 0.64684 0.75008 0.0
C795 C 0.38639 0.61486 0.80362 0.0
H796 H 0.34116 0.68454 0.71965 0.0
C797 C 0.35459 0.59256 0.81957 0.0
C798 C 0.31786 0.60375 0.80063 0.0
H799 H 0.41444 0.60541 0.81824 0.0
H800 H 0.35865 0.56698 0.84751 0.0
C801 C 0.31361 0.63745 0.76522 0.0
C802 C 0.91575 0.38641 0.30381 0.0
C803 C 0.88236 0.38209 0.26746 0.0
H804 H 0.96364 0.35866 0.34768 0.0
C805 C 0.87143 0.34538 0.24832 0.0
H806 H 0.92521 0.41446 0.31841 0.0
C807 C 0.89314 0.31363 0.26545 0.0
C808 C 0.92684 0.31788 0.30084 0.0
H809 H 0.84605 0.3412 0.21989 0.0
H810 H 0.88373 0.28565 0.25033 0.0
C811 C 0.93804 0.35461 0.31976 0.0
C812 C 0.14424 0.91577 0.80362 0.0
C813 C 0.14856 0.88239 0.76724 0.0
H814 H 0.17198 0.96365 0.84751 0.0
C815 C 0.18528 0.87148 0.74806 0.0
H816 H 0.11619 0.92521 0.81825 0.0
C817 C 0.21702 0.8932 0.76518 0.0
C818 C 0.21276 0.92689 0.80061 0.0
H819 H 0.18947 0.84611 0.71961 0.0
H820 H 0.245 0.88381 0.75003 0.0
C821 C 0.17604 0.93807 0.81956 0.0
C822 C 0.61487 0.14424 0.30383 0.0
C823 C 0.64827 0.14856 0.26748 0.0
H824 H 0.56699 0.17199 0.3477 0.0
C825 C 0.6592 0.18528 0.24834 0.0
H826 H 0.60541 0.11619 0.31843 0.0
C827 C 0.63749 0.21702 0.26547 0.0
C828 C 0.60378 0.21277 0.30086 0.0
H829 H 0.68458 0.18946 0.21991 0.0
H830 H 0.64689 0.245 0.25034 0.0
C831 C 0.59258 0.17605 0.31978 0.0
loop_
_geom_bond_atom_site_label_1
_geom_bond_atom_site_label_2
_geom_bond_distance
_geom_bond_site_symmetry_2
_ccdc_geom_bond_type
Fe0 O2 1.918 . S
Fe0 O5 1.997 . S
Fe0 O6 2.002 . S
Fe0 O11 1.976 . S
Fe0 O14 1.996 . S
Fe1 O2 1.918 . S
Fe1 O9 1.997 . S
Fe1 O12 1.996 . S
Fe1 O16 1.976 . S
Fe1 O19 2.002 . S
O2 Fe0 1.918 . S
O2 Fe1 1.918 . S
O2 Fe3 1.918 . S
Fe3 O2 1.918 . S
Fe3 O4 2.002 . S
Fe3 O13 1.976 . S
Fe3 O17 1.996 . S
Fe3 O20 1.997 . S
O4 Fe3 2.002 . S
O4 C21 1.295 . S
O5 Fe0 1.997 . S
O5 C21 1.235 . S
O6 Fe0 2.002 . S
O6 C7 1.295 . S
C7 O6 1.295 . S
C7 O9 1.235 . S
C8 O13 1.287 . S
C8 O14 1.255 . S
O9 Fe1 1.997 . S
O9 C7 1.235 . S
C10 O16 1.287 . S
C10 O17 1.255 . S
O11 Fe0 1.976 . S
O11 C18 1.287 . S
O12 Fe1 1.996 . S
O12 C18 1.255 . S
O13 Fe3 1.976 . S
O13 C8 1.287 . S
O14 Fe0 1.996 . S
O14 C8 1.255 . S
C15 O19 1.295 . S
C15 O20 1.235 . S
O16 Fe1 1.976 . S
O16 C10 1.287 . S
O17 Fe3 1.996 . S
O17 C10 1.255 . S
C18 O11 1.287 . S
C18 O12 1.255 . S
O19 Fe1 2.002 . S
O19 C15 1.295 . S
O20 Fe3 1.997 . S
O20 C15 1.235 . S
C21 O4 1.295 . S
C21 O5 1.235 . S
Fe22 O24 1.918 1_455 S
Fe22 O27 1.997 1_455 S
Fe22 O28 2.002 . S
Fe22 O33 1.976 . S
Fe22 O36 1.996 . S
Fe23 O24 1.918 . S
Fe23 O31 1.997 . S
Fe23 O34 1.996 1_655 S
Fe23 O38 1.976 . S
Fe23 O41 2.002 . S
O24 Fe22 1.918 1_655 S
O24 Fe23 1.918 . S
O24 Fe25 1.918 . S
Fe25 O24 1.918 . S
Fe25 O26 2.002 . S
Fe25 O35 1.976 . S
Fe25 O39 1.996 . S
Fe25 O42 1.997 . S
O26 Fe25 2.002 . S
O26 C43 1.295 . S
O27 Fe22 1.997 1_655 S
O27 C43 1.235 . S
O28 Fe22 2.002 . S
O28 C29 1.294 1_455 S
C29 O28 1.294 1_655 S
C29 O31 1.237 . S
C30 O35 1.287 . S
C30 O36 1.255 1_655 S
O31 Fe23 1.997 . S
O31 C29 1.237 . S
C32 O38 1.287 . S
C32 O39 1.255 . S
O33 Fe22 1.976 . S
O33 C40 1.287 . S
O34 Fe23 1.996 1_455 S
O34 C40 1.255 . S
O35 Fe25 1.976 . S
O35 C30 1.287 . S
O36 Fe22 1.996 . S
O36 C30 1.255 1_455 S
C37 O41 1.295 . S
C37 O42 1.235 . S
O38 Fe23 1.976 . S
O38 C32 1.287 . S
O39 Fe25 1.996 . S
O39 C32 1.255 . S
C40 O33 1.287 . S
C40 O34 1.255 . S
O41 Fe23 2.002 . S
O41 C37 1.295 . S
O42 Fe25 1.997 . S
O42 C37 1.235 . S
C43 O26 1.295 . S
C43 O27 1.235 . S
Fe44 O46 1.918 1_545 S
Fe44 O49 1.997 1_545 S
Fe44 O50 2.002 . S
Fe44 O55 1.976 . S
Fe44 O58 1.996 . S
Fe45 O46 1.918 . S
Fe45 O53 1.997 . S
Fe45 O56 1.996 1_565 S
Fe45 O60 1.976 . S
Fe45 O63 2.002 . S
O46 Fe44 1.918 1_565 S
O46 Fe45 1.918 . S
O46 Fe47 1.918 . S
Fe47 O46 1.918 . S
Fe47 O48 2.002 . S
Fe47 O57 1.976 . S
Fe47 O61 1.996 . S
Fe47 O64 1.997 . S
O48 Fe47 2.002 . S
O48 C65 1.295 . S
O49 Fe44 1.997 1_565 S
O49 C65 1.235 . S
O50 Fe44 2.002 . S
O50 C51 1.294 1_545 S
C51 O50 1.294 1_565 S
C51 O53 1.237 . S
C52 O57 1.287 . S
C52 O58 1.255 1_565 S
O53 Fe45 1.997 . S
O53 C51 1.237 . S
C54 O60 1.287 . S
C54 O61 1.255 . S
O55 Fe44 1.976 . S
O55 C62 1.287 . S
O56 Fe45 1.996 1_545 S
O56 C62 1.255 . S
O57 Fe47 1.976 . S
O57 C52 1.287 . S
O58 Fe44 1.996 . S
O58 C52 1.255 1_545 S
C59 O63 1.295 . S
C59 O64 1.235 . S
O60 Fe45 1.976 . S
O60 C54 1.287 . S
O61 Fe47 1.996 . S
O61 C54 1.255 . S
C62 O55 1.287 . S
C62 O56 1.255 . S
O63 Fe45 2.002 . S
O63 C59 1.295 . S
O64 Fe47 1.997 . S
O64 C59 1.235 . S
C65 O48 1.295 . S
C65 O49 1.235 . S
Fe66 O68 1.918 . S
Fe66 O71 1.997 . S
Fe66 O72 2.002 . S
Fe66 O77 1.976 . S
Fe66 O80 1.996 . S
Fe67 O68 1.918 . S
Fe67 O75 1.997 . S
Fe67 O78 1.996 . S
Fe67 O82 1.976 . S
Fe67 O85 2.002 . S
O68 Fe66 1.918 . S
O68 Fe67 1.918 . S
O68 Fe69 1.918 . S
Fe69 O68 1.918 . S
Fe69 O70 2.002 . S
Fe69 O79 1.976 . S
Fe69 O83 1.996 . S
Fe69 O86 1.997 . S
O70 Fe69 2.002 . S
O70 C87 1.295 . S
O71 Fe66 1.997 . S
O71 C87 1.235 . S
O72 Fe66 2.002 . S
O72 C73 1.295 . S
C73 O72 1.295 . S
C73 O75 1.235 . S
C74 O79 1.287 . S
C74 O80 1.255 . S
O75 Fe67 1.997 . S
O75 C73 1.235 . S
C76 O82 1.287 . S
C76 O83 1.255 . S
O77 Fe66 1.976 . S
O77 C84 1.287 . S
O78 Fe67 1.996 . S
O78 C84 1.255 . S
O79 Fe69 1.976 . S
O79 C74 1.287 . S
O80 Fe66 1.996 . S
O80 C74 1.255 . S
C81 O85 1.295 . S
C81 O86 1.235 . S
O82 Fe67 1.976 . S
O82 C76 1.287 . S
O83 Fe69 1.996 . S
O83 C76 1.255 . S
C84 O77 1.287 . S
C84 O78 1.255 . S
O85 Fe67 2.002 . S
O85 C81 1.295 . S
O86 Fe69 1.997 . S
O86 C81 1.235 . S
C87 O70 1.295 . S
C87 O71 1.235 . S
Fe88 O90 1.918 . S
Fe88 O93 1.997 . S
Fe88 O94 2.002 . S
Fe88 O99 1.976 . S
Fe88 O102 1.996 . S
Fe89 O90 1.918 . S
Fe89 O97 1.997 . S
Fe89 O100 1.996 . S
Fe89 O104 1.976 . S
Fe89 O107 2.002 . S
O90 Fe88 1.918 . S
O90 Fe89 1.918 . S
O90 Fe91 1.918 . S
Fe91 O90 1.918 . S
Fe91 O92 2.002 . S
Fe91 O101 1.976 . S
Fe91 O105 1.996 . S
Fe91 O108 1.997 . S
O92 Fe91 2.002 . S
O92 C109 1.295 . S
O93 Fe88 1.997 . S
O93 C109 1.235 . S
O94 Fe88 2.002 . S
O94 C95 1.295 . S
C95 O94 1.295 . S
C95 O97 1.235 . S
C96 O101 1.287 . S
C96 O102 1.255 . S
O97 Fe89 1.997 . S
O97 C95 1.235 . S
C98 O104 1.287 . S
C98 O105 1.255 . S
O99 Fe88 1.976 . S
O99 C106 1.287 . S
O100 Fe89 1.996 . S
O100 C106 1.255 . S
O101 Fe91 1.976 . S
O101 C96 1.287 . S
O102 Fe88 1.996 . S
O102 C96 1.255 . S
C103 O107 1.295 . S
C103 O108 1.235 . S
O104 Fe89 1.976 . S
O104 C98 1.287 . S
O105 Fe91 1.996 . S
O105 C98 1.255 . S
C106 O99 1.287 . S
C106 O100 1.255 . S
O107 Fe89 2.002 . S
O107 C103 1.295 . S
O108 Fe91 1.997 . S
O108 C103 1.235 . S
C109 O92 1.295 . S
C109 O93 1.235 . S
Fe110 O112 1.918 . S
Fe110 O115 1.997 . S
Fe110 O116 2.002 . S
Fe110 O121 1.976 . S
Fe110 O124 1.996 . S
Fe111 O112 1.918 1_655 S
Fe111 O119 1.997 1_655 S
Fe111 O122 1.996 . S
Fe111 O126 1.976 . S
Fe111 O129 2.002 . S
O112 Fe110 1.918 . S
O112 Fe111 1.918 1_455 S
O112 Fe113 1.918 . S
Fe113 O112 1.918 . S
Fe113 O114 2.002 . S
Fe113 O123 1.976 . S
Fe113 O127 1.996 1_455 S
Fe113 O130 1.997 . S
O114 Fe113 2.002 . S
O114 C131 1.295 . S
O115 Fe110 1.997 . S
O115 C131 1.235 . S
O116 Fe110 2.002 . S
O116 C117 1.295 . S
C117 O116 1.295 . S
C117 O119 1.235 . S
C118 O123 1.287 . S
C118 O124 1.255 . S
O119 Fe111 1.997 1_455 S
O119 C117 1.235 . S
C120 O126 1.287 . S
C120 O127 1.255 . S
O121 Fe110 1.976 . S
O121 C128 1.287 . S
O122 Fe111 1.996 . S
O122 C128 1.255 1_655 S
O123 Fe113 1.976 . S
O123 C118 1.287 . S
O124 Fe110 1.996 . S
O124 C118 1.255 . S
C125 O129 1.294 1_455 S
C125 O130 1.237 . S
O126 Fe111 1.976 . S
O126 C120 1.287 . S
O127 Fe113 1.996 1_655 S
O127 C120 1.255 . S
C128 O121 1.287 . S
C128 O122 1.255 1_455 S
O129 Fe111 2.002 . S
O129 C125 1.294 1_655 S
O130 Fe113 1.997 . S
O130 C125 1.237 . S
C131 O114 1.295 . S
C131 O115 1.235 . S
Fe132 O134 1.918 . S
Fe132 O137 1.997 . S
Fe132 O138 2.002 . S
Fe132 O143 1.976 . S
Fe132 O146 1.996 . S
Fe133 O134 1.918 1_565 S
Fe133 O141 1.997 1_565 S
Fe133 O144 1.996 . S
Fe133 O148 1.976 . S
Fe133 O151 2.002 . S
O134 Fe132 1.918 . S
O134 Fe133 1.918 1_545 S
O134 Fe135 1.918 . S
Fe135 O134 1.918 . S
Fe135 O136 2.002 . S
Fe135 O145 1.976 . S
Fe135 O149 1.996 1_545 S
Fe135 O152 1.997 . S
O136 Fe135 2.002 . S
O136 C153 1.295 . S
O137 Fe132 1.997 . S
O137 C153 1.235 . S
O138 Fe132 2.002 . S
O138 C139 1.295 . S
C139 O138 1.295 . S
C139 O141 1.235 . S
C140 O145 1.287 . S
C140 O146 1.255 . S
O141 Fe133 1.997 1_545 S
O141 C139 1.235 . S
C142 O148 1.287 . S
C142 O149 1.255 . S
O143 Fe132 1.976 . S
O143 C150 1.287 . S
O144 Fe133 1.996 . S
O144 C150 1.255 1_565 S
O145 Fe135 1.976 . S
O145 C140 1.287 . S
O146 Fe132 1.996 . S
O146 C140 1.255 . S
C147 O151 1.294 1_545 S
C147 O152 1.237 . S
O148 Fe133 1.976 . S
O148 C142 1.287 . S
O149 Fe135 1.996 1_565 S
O149 C142 1.255 . S
C150 O143 1.287 . S
C150 O144 1.255 1_545 S
O151 Fe133 2.002 . S
O151 C147 1.294 1_565 S
O152 Fe135 1.997 . S
O152 C147 1.237 . S
C153 O136 1.295 . S
C153 O137 1.235 . S
Fe154 O156 1.918 . S
Fe154 O159 1.997 . S
Fe154 O160 2.002 . S
Fe154 O165 1.976 . S
Fe154 O168 1.996 . S
Fe155 O156 1.918 . S
Fe155 O163 1.997 . S
Fe155 O166 1.996 . S
Fe155 O170 1.976 . S
Fe155 O173 2.002 . S
O156 Fe154 1.918 . S
O156 Fe155 1.918 . S
O156 Fe157 1.918 . S
Fe157 O156 1.918 . S
Fe157 O158 2.002 . S
Fe157 O167 1.976 . S
Fe157 O171 1.996 . S
Fe157 O174 1.997 . S
O158 Fe157 2.002 . S
O158 C175 1.295 . S
O159 Fe154 1.997 . S
O159 C175 1.235 . S
O160 Fe154 2.002 . S
O160 C161 1.295 . S
C161 O160 1.295 . S
C161 O163 1.235 . S
C162 O167 1.287 . S
C162 O168 1.255 . S
O163 Fe155 1.997 . S
O163 C161 1.235 . S
C164 O170 1.287 . S
C164 O171 1.255 . S
O165 Fe154 1.976 . S
O165 C172 1.287 . S
O166 Fe155 1.996 . S
O166 C172 1.255 . S
O167 Fe157 1.976 . S
O167 C162 1.287 . S
O168 Fe154 1.996 . S
O168 C162 1.255 . S
C169 O173 1.295 . S
C169 O174 1.235 . S
O170 Fe155 1.976 . S
O170 C164 1.287 . S
O171 Fe157 1.996 . S
O171 C164 1.255 . S
C172 O165 1.287 . S
C172 O166 1.255 . S
O173 Fe155 2.002 . S
O173 C169 1.295 . S
O174 Fe157 1.997 . S
O174 C169 1.235 . S
C175 O158 1.295 . S
C175 O159 1.235 . S
Fe176 O178 1.918 . S
Fe176 O181 1.997 . S
Fe176 O182 2.002 . S
Fe176 O187 1.976 . S
Fe176 O190 1.996 . S
Fe177 O178 1.918 . S
Fe177 O185 1.997 . S
Fe177 O188 1.996 . S
Fe177 O192 1.976 . S
Fe177 O195 2.002 . S
O178 Fe176 1.918 . S
O178 Fe177 1.918 . S
O178 Fe179 1.918 . S
Fe179 O178 1.918 . S
Fe179 O180 2.002 . S
Fe179 O189 1.976 . S
Fe179 O193 1.996 . S
Fe179 O196 1.997 . S
O180 Fe179 2.002 . S
O180 C197 1.295 . S
O181 Fe176 1.997 . S
O181 C197 1.235 . S
O182 Fe176 2.002 . S
O182 C183 1.295 . S
C183 O182 1.295 . S
C183 O185 1.235 . S
C184 O189 1.287 . S
C184 O190 1.255 . S
O185 Fe177 1.997 . S
O185 C183 1.235 . S
C186 O192 1.287 . S
C186 O193 1.255 . S
O187 Fe176 1.976 . S
O187 C194 1.287 . S
O188 Fe177 1.996 . S
O188 C194 1.255 . S
O189 Fe179 1.976 . S
O189 C184 1.287 . S
O190 Fe176 1.996 . S
O190 C184 1.255 . S
C191 O195 1.295 . S
C191 O196 1.235 . S
O192 Fe177 1.976 . S
O192 C186 1.287 . S
O193 Fe179 1.996 . S
O193 C186 1.255 . S
C194 O187 1.287 . S
C194 O188 1.255 . S
O195 Fe177 2.002 . S
O195 C191 1.295 . S
O196 Fe179 1.997 . S
O196 C191 1.235 . S
C197 O180 1.295 . S
C197 O181 1.235 . S
Fe198 O200 1.918 1_655 S
Fe198 O203 1.997 1_655 S
Fe198 O204 2.002 . S
Fe198 O209 1.976 . S
Fe198 O212 1.996 . S
Fe199 O200 1.918 . S
Fe199 O207 1.997 . S
Fe199 O210 1.996 1_455 S
Fe199 O214 1.976 . S
Fe199 O217 2.002 . S
O200 Fe198 1.918 1_455 S
O200 Fe199 1.918 . S
O200 Fe201 1.918 . S
Fe201 O200 1.918 . S
Fe201 O202 2.002 . S
Fe201 O211 1.976 . S
Fe201 O215 1.996 . S
Fe201 O218 1.997 . S
O202 Fe201 2.002 . S
O202 C219 1.295 . S
O203 Fe198 1.997 1_455 S
O203 C219 1.235 . S
O204 Fe198 2.002 . S
O204 C205 1.294 1_655 S
C205 O204 1.294 1_455 S
C205 O207 1.237 . S
C206 O211 1.287 . S
C206 O212 1.255 1_455 S
O207 Fe199 1.997 . S
O207 C205 1.237 . S
C208 O214 1.287 . S
C208 O215 1.255 . S
O209 Fe198 1.976 . S
O209 C216 1.287 . S
O210 Fe199 1.996 1_655 S
O210 C216 1.255 . S
O211 Fe201 1.976 . S
O211 C206 1.287 . S
O212 Fe198 1.996 . S
O212 C206 1.255 1_655 S
C213 O217 1.295 . S
C213 O218 1.235 . S
O214 Fe199 1.976 . S
O214 C208 1.287 . S
O215 Fe201 1.996 . S
O215 C208 1.255 . S
C216 O209 1.287 . S
C216 O210 1.255 . S
O217 Fe199 2.002 . S
O217 C213 1.295 . S
O218 Fe201 1.997 . S
O218 C213 1.235 . S
C219 O202 1.295 . S
C219 O203 1.235 . S
Fe220 O222 1.918 1_565 S
Fe220 O225 1.997 1_565 S
Fe220 O226 2.002 . S
Fe220 O231 1.976 . S
Fe220 O234 1.996 . S
Fe221 O222 1.918 . S
Fe221 O229 1.997 . S
Fe221 O232 1.996 1_545 S
Fe221 O236 1.976 . S
Fe221 O239 2.002 . S
O222 Fe220 1.918 1_545 S
O222 Fe221 1.918 . S
O222 Fe223 1.918 . S
Fe223 O222 1.918 . S
Fe223 O224 2.002 . S
Fe223 O233 1.976 . S
Fe223 O237 1.996 . S
Fe223 O240 1.997 . S
O224 Fe223 2.002 . S
O224 C241 1.295 . S
O225 Fe220 1.997 1_545 S
O225 C241 1.235 . S
O226 Fe220 2.002 . S
O226 C227 1.294 1_565 S
C227 O226 1.294 1_545 S
C227 O229 1.237 . S
C228 O233 1.287 . S
C228 O234 1.255 1_545 S
O229 Fe221 1.997 . S
O229 C227 1.237 . S
C230 O236 1.287 . S
C230 O237 1.255 . S
O231 Fe220 1.976 . S
O231 C238 1.287 . S
O232 Fe221 1.996 1_565 S
O232 C238 1.255 . S
O233 Fe223 1.976 . S
O233 C228 1.287 . S
O234 Fe220 1.996 . S
O234 C228 1.255 1_565 S
C235 O239 1.295 . S
C235 O240 1.235 . S
O236 Fe221 1.976 . S
O236 C230 1.287 . S
O237 Fe223 1.996 . S
O237 C230 1.255 . S
C238 O231 1.287 . S
C238 O232 1.255 . S
O239 Fe221 2.002 . S
O239 C235 1.295 . S
O240 Fe223 1.997 . S
O240 C235 1.235 . S
C241 O224 1.295 . S
C241 O225 1.235 . S
Fe242 O244 1.918 . S
Fe242 O247 1.997 . S
Fe242 O248 2.002 . S
Fe242 O253 1.976 . S
Fe242 O256 1.996 . S
Fe243 O244 1.918 . S
Fe243 O251 1.997 . S
Fe243 O254 1.996 . S
Fe243 O258 1.976 . S
Fe243 O261 2.002 . S
O244 Fe242 1.918 . S
O244 Fe243 1.918 . S
O244 Fe245 1.918 . S
Fe245 O244 1.918 . S
Fe245 O246 2.002 . S
Fe245 O255 1.976 . S
Fe245 O259 1.996 . S
Fe245 O262 1.997 . S
O246 Fe245 2.002 . S
O246 C263 1.295 . S
O247 Fe242 1.997 . S
O247 C263 1.235 . S
O248 Fe242 2.002 . S
O248 C249 1.295 . S
C249 O248 1.295 . S
C249 O251 1.235 . S
C250 O255 1.287 . S
C250 O256 1.255 . S
O251 Fe243 1.997 . S
O251 C249 1.235 . S
C252 O258 1.287 . S
C252 O259 1.255 . S
O253 Fe242 1.976 . S
O253 C260 1.287 . S
O254 Fe243 1.996 . S
O254 C260 1.255 . S
O255 Fe245 1.976 . S
O255 C250 1.287 . S
O256 Fe242 1.996 . S
O256 C250 1.255 . S
C257 O261 1.295 . S
C257 O262 1.235 . S
O258 Fe243 1.976 . S
O258 C252 1.287 . S
O259 Fe245 1.996 . S
O259 C252 1.255 . S
C260 O253 1.287 . S
C260 O254 1.255 . S
O261 Fe243 2.002 . S
O261 C257 1.295 . S
O262 Fe245 1.997 . S
O262 C257 1.235 . S
C263 O246 1.295 . S
C263 O247 1.235 . S
Fe264 O266 1.918 . S
Fe264 O269 1.997 . S
Fe264 O270 2.002 . S
Fe264 O275 1.976 . S
Fe264 O278 1.996 . S
Fe265 O266 1.918 . S
Fe265 O273 1.997 . S
Fe265 O276 1.996 . S
Fe265 O280 1.976 . S
Fe265 O283 2.002 . S
O266 Fe264 1.918 . S
O266 Fe265 1.918 . S
O266 Fe267 1.918 . S
Fe267 O266 1.918 . S
Fe267 O268 2.002 . S
Fe267 O277 1.976 . S
Fe267 O281 1.996 . S
Fe267 O284 1.997 . S
O268 Fe267 2.002 . S
O268 C285 1.295 . S
O269 Fe264 1.997 . S
O269 C285 1.235 . S
O270 Fe264 2.002 . S
O270 C271 1.295 . S
C271 O270 1.295 . S
C271 O273 1.235 . S
C272 O277 1.287 . S
C272 O278 1.255 . S
O273 Fe265 1.997 . S
O273 C271 1.235 . S
C274 O280 1.287 . S
C274 O281 1.255 . S
O275 Fe264 1.976 . S
O275 C282 1.287 . S
O276 Fe265 1.996 . S
O276 C282 1.255 . S
O277 Fe267 1.976 . S
O277 C272 1.287 . S
O278 Fe264 1.996 . S
O278 C272 1.255 . S
C279 O283 1.295 . S
C279 O284 1.235 . S
O280 Fe265 1.976 . S
O280 C274 1.287 . S
O281 Fe267 1.996 . S
O281 C274 1.255 . S
C282 O275 1.287 . S
C282 O276 1.255 . S
O283 Fe265 2.002 . S
O283 C279 1.295 . S
O284 Fe267 1.997 . S
O284 C279 1.235 . S
C285 O268 1.295 . S
C285 O269 1.235 . S
Fe286 O288 1.918 . S
Fe286 O291 1.997 . S
Fe286 O292 2.002 . S
Fe286 O297 1.976 . S
Fe286 O300 1.996 . S
Fe287 O288 1.918 1_455 S
Fe287 O295 1.997 1_455 S
Fe287 O298 1.996 . S
Fe287 O302 1.976 . S
Fe287 O305 2.002 . S
O288 Fe286 1.918 . S
O288 Fe287 1.918 1_655 S
O288 Fe289 1.918 . S
Fe289 O288 1.918 . S
Fe289 O290 2.002 . S
Fe289 O299 1.976 . S
Fe289 O303 1.996 1_655 S
Fe289 O306 1.997 . S
O290 Fe289 2.002 . S
O290 C307 1.295 . S
O291 Fe286 1.997 . S
O291 C307 1.235 . S
O292 Fe286 2.002 . S
O292 C293 1.295 . S
C293 O292 1.295 . S
C293 O295 1.235 . S
C294 O299 1.287 . S
C294 O300 1.255 . S
O295 Fe287 1.997 1_655 S
O295 C293 1.235 . S
C296 O302 1.287 . S
C296 O303 1.255 . S
O297 Fe286 1.976 . S
O297 C304 1.287 . S
O298 Fe287 1.996 . S
O298 C304 1.255 1_455 S
O299 Fe289 1.976 . S
O299 C294 1.287 . S
O300 Fe286 1.996 . S
O300 C294 1.255 . S
C301 O305 1.294 1_655 S
C301 O306 1.237 . S
O302 Fe287 1.976 . S
O302 C296 1.287 . S
O303 Fe289 1.996 1_455 S
O303 C296 1.255 . S
C304 O297 1.287 . S
C304 O298 1.255 1_655 S
O305 Fe287 2.002 . S
O305 C301 1.294 1_455 S
O306 Fe289 1.997 . S
O306 C301 1.237 . S
C307 O290 1.295 . S
C307 O291 1.235 . S
Fe308 O310 1.918 . S
Fe308 O313 1.997 . S
Fe308 O314 2.002 . S
Fe308 O319 1.976 . S
Fe308 O322 1.996 1_565 S
Fe309 O310 1.918 . S
Fe309 O317 1.997 . S
Fe309 O320 1.996 . S
Fe309 O324 1.976 . S
Fe309 O327 2.002 . S
O310 Fe308 1.918 . S
O310 Fe309 1.918 . S
O310 Fe311 1.918 1_565 S
Fe311 O310 1.918 1_545 S
Fe311 O312 2.002 . S
Fe311 O321 1.976 . S
Fe311 O325 1.996 . S
Fe311 O328 1.997 1_545 S
O312 Fe311 2.002 . S
O312 C329 1.294 1_545 S
O313 Fe308 1.997 . S
O313 C329 1.237 . S
O314 Fe308 2.002 . S
O314 C315 1.295 . S
C315 O314 1.295 . S
C315 O317 1.235 . S
C316 O321 1.287 . S
C316 O322 1.255 . S
O317 Fe309 1.997 . S
O317 C315 1.235 . S
C318 O324 1.287 . S
C318 O325 1.255 1_565 S
O319 Fe308 1.976 . S
O319 C326 1.287 . S
O320 Fe309 1.996 . S
O320 C326 1.255 . S
O321 Fe311 1.976 . S
O321 C316 1.287 . S
O322 Fe308 1.996 1_545 S
O322 C316 1.255 . S
C323 O327 1.295 . S
C323 O328 1.235 . S
O324 Fe309 1.976 . S
O324 C318 1.287 . S
O325 Fe311 1.996 . S
O325 C318 1.255 1_545 S
C326 O319 1.287 . S
C326 O320 1.255 . S
O327 Fe309 2.002 . S
O327 C323 1.295 . S
O328 Fe311 1.997 1_565 S
O328 C323 1.235 . S
C329 O312 1.294 1_565 S
C329 O313 1.237 . S
Fe330 O332 1.918 . S
Fe330 O335 1.997 . S
Fe330 O336 2.002 . S
Fe330 O341 1.976 . S
Fe330 O344 1.996 . S
Fe331 O332 1.918 . S
Fe331 O339 1.997 . S
Fe331 O342 1.996 . S
Fe331 O346 1.976 . S
Fe331 O349 2.002 . S
O332 Fe330 1.918 . S
O332 Fe331 1.918 . S
O332 Fe333 1.918 . S
Fe333 O332 1.918 . S
Fe333 O334 2.002 . S
Fe333 O343 1.976 . S
Fe333 O347 1.996 . S
Fe333 O350 1.997 . S
O334 Fe333 2.002 . S
O334 C351 1.295 . S
O335 Fe330 1.997 . S
O335 C351 1.235 . S
O336 Fe330 2.002 . S
O336 C337 1.295 . S
C337 O336 1.295 . S
C337 O339 1.235 . S
C338 O343 1.287 . S
C338 O344 1.255 . S
O339 Fe331 1.997 . S
O339 C337 1.235 . S
C340 O346 1.287 . S
C340 O347 1.255 . S
O341 Fe330 1.976 . S
O341 C348 1.287 . S
O342 Fe331 1.996 . S
O342 C348 1.255 . S
O343 Fe333 1.976 . S
O343 C338 1.287 . S
O344 Fe330 1.996 . S
O344 C338 1.255 . S
C345 O349 1.295 . S
C345 O350 1.235 . S
O346 Fe331 1.976 . S
O346 C340 1.287 . S
O347 Fe333 1.996 . S
O347 C340 1.255 . S
C348 O341 1.287 . S
C348 O342 1.255 . S
O349 Fe331 2.002 . S
O349 C345 1.295 . S
O350 Fe333 1.997 . S
O350 C345 1.235 . S
C351 O334 1.295 . S
C351 O335 1.235 . S
C352 C353 1.387 . S
C352 H356 0.950 . S
C352 C361 1.390 . S
C353 C352 1.387 . S
C353 C355 1.387 . S
H354 C361 0.950 . S
C355 C353 1.387 . S
C355 C357 1.390 . S
C355 H359 0.950 . S
H356 C352 0.950 . S
C357 C355 1.390 . S
C357 C358 1.387 . S
C357 H360 0.950 . S
C358 C357 1.387 . S
C358 C361 1.387 . S
H359 C355 0.950 . S
H360 C357 0.950 . S
C361 C352 1.390 . S
C361 H354 0.950 . S
C361 C358 1.387 . S
C362 C363 1.387 . S
C362 H366 0.950 . S
C362 C371 1.390 1_554 S
C363 C362 1.387 . S
C363 C365 1.387 . S
H364 C371 0.950 . S
C365 C363 1.387 . S
C365 C367 1.390 1_554 S
C365 H369 0.950 . S
H366 C362 0.950 . S
C367 C365 1.390 1_556 S
C367 C368 1.387 . S
C367 H370 0.950 . S
C368 C367 1.387 . S
C368 C371 1.387 . S
H369 C365 0.950 . S
H370 C367 0.950 . S
C371 C362 1.390 1_556 S
C371 H364 0.950 . S
C371 C368 1.387 . S
C372 C373 1.387 . S
C372 H376 0.950 . S
C372 C381 1.390 . S
C373 C372 1.387 . S
C373 C375 1.387 . S
H374 C381 0.950 . S
C375 C373 1.387 . S
C375 C377 1.390 . S
C375 H379 0.950 . S
H376 C372 0.950 . S
C377 C375 1.390 . S
C377 C378 1.387 . S
C377 H380 0.950 . S
C378 C377 1.387 . S
C378 C381 1.387 . S
H379 C375 0.950 . S
H380 C377 0.950 . S
C381 C372 1.390 . S
C381 H374 0.950 . S
C381 C378 1.387 . S
C382 C383 1.387 1_554 S
C382 H386 0.950 . S
C382 C391 1.390 . S
C383 C382 1.387 1_556 S
C383 C385 1.387 . S
H384 C391 0.950 . S
C385 C383 1.387 . S
C385 C387 1.390 . S
C385 H389 0.950 . S
H386 C382 0.950 . S
C387 C385 1.390 . S
C387 C388 1.387 1_556 S
C387 H390 0.950 . S
C388 C387 1.387 1_554 S
C388 C391 1.387 . S
H389 C385 0.950 . S
H390 C387 0.950 . S
C391 C382 1.390 . S
C391 H384 0.950 . S
C391 C388 1.387 . S
C392 C393 1.387 . S
C392 H396 0.950 . S
C392 C401 1.390 . S
C393 C392 1.387 . S
C393 C395 1.387 . S
H394 C401 0.950 . S
C395 C393 1.387 . S
C395 C397 1.390 . S
C395 H399 0.950 . S
H396 C392 0.950 . S
C397 C395 1.390 . S
C397 C398 1.387 . S
C397 H400 0.950 . S
C398 C397 1.387 . S
C398 C401 1.387 . S
H399 C395 0.950 . S
H400 C397 0.950 . S
C401 C392 1.390 . S
C401 H394 0.950 . S
C401 C398 1.387 . S
C402 C403 1.387 . S
C402 H406 0.950 . S
C402 C411 1.390 1_556 S
C403 C402 1.387 . S
C403 C405 1.387 . S
H404 C411 0.950 . S
C405 C403 1.387 . S
C405 C407 1.390 1_556 S
C405 H409 0.950 . S
H406 C402 0.950 . S
C407 C405 1.390 1_554 S
C407 C408 1.387 . S
C407 H410 0.950 . S
C408 C407 1.387 . S
C408 C411 1.387 . S
H409 C405 0.950 . S
H410 C407 0.950 . S
C411 C402 1.390 1_554 S
C411 H404 0.950 . S
C411 C408 1.387 . S
C412 C413 1.387 . S
C412 H416 0.950 . S
C412 C421 1.390 . S
C413 C412 1.387 . S
C413 C415 1.387 . S
H414 C421 0.950 . S
C415 C413 1.387 . S
C415 C417 1.390 . S
C415 H419 0.950 . S
H416 C412 0.950 . S
C417 C415 1.390 . S
C417 C418 1.387 . S
C417 H420 0.950 . S
C418 C417 1.387 . S
C418 C421 1.387 . S
H419 C415 0.950 . S
H420 C417 0.950 . S
C421 C412 1.390 . S
C421 H414 0.950 . S
C421 C418 1.387 . S
C422 C423 1.387 . S
C422 H426 0.950 . S
C422 C431 1.390 1_556 S
C423 C422 1.387 . S
C423 C425 1.387 . S
H424 C431 0.950 . S
C425 C423 1.387 . S
C425 C427 1.390 1_556 S
C425 H429 0.950 . S
H426 C422 0.950 . S
C427 C425 1.390 1_554 S
C427 C428 1.387 . S
C427 H430 0.950 . S
C428 C427 1.387 . S
C428 C431 1.387 . S
H429 C425 0.950 . S
H430 C427 0.950 . S
C431 C422 1.390 1_554 S
C431 H424 0.950 . S
C431 C428 1.387 . S
C432 C433 1.387 . S
C432 H436 0.950 . S
C432 C441 1.390 . S
C433 C432 1.387 . S
C433 C435 1.387 . S
H434 C441 0.950 . S
C435 C433 1.387 . S
C435 C437 1.390 . S
C435 H439 0.950 . S
H436 C432 0.950 . S
C437 C435 1.390 . S
C437 C438 1.387 . S
C437 H440 0.950 . S
C438 C437 1.387 . S
C438 C441 1.387 . S
H439 C435 0.950 . S
H440 C437 0.950 . S
C441 C432 1.390 . S
C441 H434 0.950 . S
C441 C438 1.387 . S
C442 C443 1.387 . S
C442 H446 0.950 . S
C442 C451 1.390 . S
C443 C442 1.387 . S
C443 C445 1.387 . S
H444 C451 0.950 . S
C445 C443 1.387 . S
C445 C447 1.390 . S
C445 H449 0.950 . S
H446 C442 0.950 . S
C447 C445 1.390 . S
C447 C448 1.387 . S
C447 H450 0.950 . S
C448 C447 1.387 . S
C448 C451 1.387 . S
H449 C445 0.950 . S
H450 C447 0.950 . S
C451 C442 1.390 . S
C451 H444 0.950 . S
C451 C448 1.387 . S
C452 C453 1.387 . S
C452 H456 0.950 . S
C452 C461 1.390 . S
C453 C452 1.387 . S
C453 C455 1.387 . S
H454 C461 0.950 . S
C455 C453 1.387 . S
C455 C457 1.390 . S
C455 H459 0.950 . S
H456 C452 0.950 . S
C457 C455 1.390 . S
C457 C458 1.387 . S
C457 H460 0.950 . S
C458 C457 1.387 . S
C458 C461 1.387 . S
H459 C455 0.950 . S
H460 C457 0.950 . S
C461 C452 1.390 . S
C461 H454 0.950 . S
C461 C458 1.387 . S
C462 C463 1.387 . S
C462 H466 0.950 . S
C462 C471 1.390 . S
C463 C462 1.387 . S
C463 C465 1.387 . S
H464 C471 0.950 . S
C465 C463 1.387 . S
C465 C467 1.390 . S
C465 H469 0.950 . S
H466 C462 0.950 . S
C467 C465 1.390 . S
C467 C468 1.387 . S
C467 H470 0.950 . S
C468 C467 1.387 . S
C468 C471 1.387 . S
H469 C465 0.950 . S
H470 C467 0.950 . S
C471 C462 1.390 . S
C471 H464 0.950 . S
C471 C468 1.387 . S
C472 C473 1.387 . S
C472 H476 0.950 . S
C472 C481 1.390 . S
C473 C472 1.387 . S
C473 C475 1.387 . S
H474 C481 0.950 . S
C475 C473 1.387 . S
C475 C477 1.390 . S
C475 H479 0.950 . S
H476 C472 0.950 . S
C477 C475 1.390 . S
C477 C478 1.387 . S
C477 H480 0.950 . S
C478 C477 1.387 . S
C478 C481 1.387 . S
H479 C475 0.950 . S
H480 C477 0.950 . S
C481 C472 1.390 . S
C481 H474 0.950 . S
C481 C478 1.387 . S
C482 C483 1.387 . S
C482 H486 0.950 . S
C482 C491 1.390 . S
C483 C482 1.387 . S
C483 C485 1.387 . S
H484 C491 0.950 . S
C485 C483 1.387 . S
C485 C487 1.390 . S
C485 H489 0.950 . S
H486 C482 0.950 . S
C487 C485 1.390 . S
C487 C488 1.387 . S
C487 H490 0.950 . S
C488 C487 1.387 . S
C488 C491 1.387 . S
H489 C485 0.950 . S
H490 C487 0.950 . S
C491 C482 1.390 . S
C491 H484 0.950 . S
C491 C488 1.387 . S
C492 C493 1.387 . S
C492 H496 0.950 . S
C492 C501 1.390 . S
C493 C492 1.387 . S
C493 C495 1.387 . S
H494 C501 0.950 . S
C495 C493 1.387 . S
C495 C497 1.390 . S
C495 H499 0.950 . S
H496 C492 0.950 . S
C497 C495 1.390 . S
C497 C498 1.387 . S
C497 H500 0.950 . S
C498 C497 1.387 . S
C498 C501 1.387 . S
H499 C495 0.950 . S
H500 C497 0.950 . S
C501 C492 1.390 . S
C501 H494 0.950 . S
C501 C498 1.387 . S
C502 C503 1.387 . S
C502 H506 0.950 . S
C502 C511 1.390 . S
C503 C502 1.387 . S
C503 C505 1.387 . S
H504 C511 0.950 . S
C505 C503 1.387 . S
C505 C507 1.390 . S
C505 H509 0.950 . S
H506 C502 0.950 . S
C507 C505 1.390 . S
C507 C508 1.387 . S
C507 H510 0.950 . S
C508 C507 1.387 . S
C508 C511 1.387 . S
H509 C505 0.950 . S
H510 C507 0.950 . S
C511 C502 1.390 . S
C511 H504 0.950 . S
C511 C508 1.387 . S
C512 C513 1.387 . S
C512 H516 0.950 . S
C512 C521 1.390 . S
C513 C512 1.387 . S
C513 C515 1.387 . S
H514 C521 0.950 . S
C515 C513 1.387 . S
C515 C517 1.390 . S
C515 H519 0.950 . S
H516 C512 0.950 . S
C517 C515 1.390 . S
C517 C518 1.387 . S
C517 H520 0.950 . S
C518 C517 1.387 . S
C518 C521 1.387 . S
H519 C515 0.950 . S
H520 C517 0.950 . S
C521 C512 1.390 . S
C521 H514 0.950 . S
C521 C518 1.387 . S
C522 C523 1.403 . S
C522 H526 0.950 . S
C522 C531 1.390 . S
C523 C522 1.403 . S
C523 C525 1.371 1_455 S
H524 C531 0.950 . S
C525 C523 1.371 1_655 S
C525 C527 1.390 . S
C525 H529 0.950 . S
H526 C522 0.950 . S
C527 C525 1.390 . S
C527 C528 1.387 . S
C527 H530 0.950 . S
C528 C527 1.387 . S
C528 C531 1.387 1_655 S
H529 C525 0.950 . S
H530 C527 0.950 . S
C531 C522 1.390 . S
C531 H524 0.950 . S
C531 C528 1.387 1_455 S
C532 C533 1.387 1_545 S
C532 H536 0.950 . S
C532 C541 1.390 . S
C533 C532 1.387 1_565 S
C533 C535 1.387 . S
H534 C541 0.950 . S
C535 C533 1.387 . S
C535 C537 1.390 . S
C535 H539 0.950 . S
H536 C532 0.950 . S
C537 C535 1.390 . S
C537 C538 1.371 1_565 S
C537 H540 0.950 . S
C538 C537 1.371 1_545 S
C538 C541 1.403 . S
H539 C535 0.950 . S
H540 C537 0.950 . S
C541 C532 1.390 . S
C541 H534 0.950 . S
C541 C538 1.403 . S
C542 C543 1.387 . S
C542 H546 0.950 . S
C542 C551 1.390 . S
C543 C542 1.387 . S
C543 C545 1.387 . S
H544 C551 0.950 . S
C545 C543 1.387 . S
C545 C547 1.390 . S
C545 H549 0.950 . S
H546 C542 0.950 . S
C547 C545 1.390 . S
C547 C548 1.387 . S
C547 H550 0.950 . S
C548 C547 1.387 . S
C548 C551 1.387 . S
H549 C545 0.950 . S
H550 C547 0.950 . S
C551 C542 1.390 . S
C551 H544 0.950 . S
C551 C548 1.387 . S
C552 C553 1.387 . S
C552 H556 0.950 . S
C552 C561 1.390 . S
C553 C552 1.387 . S
C553 C555 1.387 . S
H554 C561 0.950 . S
C555 C553 1.387 . S
C555 C557 1.390 . S
C555 H559 0.950 . S
H556 C552 0.950 . S
C557 C555 1.390 . S
C557 C558 1.387 . S
C557 H560 0.950 . S
C558 C557 1.387 . S
C558 C561 1.387 . S
H559 C555 0.950 . S
H560 C557 0.950 . S
C561 C552 1.390 . S
C561 H554 0.950 . S
C561 C558 1.387 . S
C562 C563 1.384 1_455 S
C562 H566 0.950 . S
C562 C571 1.390 . S
C563 C562 1.384 1_655 S
C563 C565 1.391 . S
H564 C571 0.950 1_554 S
C565 C563 1.391 . S
C565 C567 1.390 . S
C565 H569 0.950 . S
H566 C562 0.950 . S
C567 C565 1.390 . S
C567 C568 1.387 1_655 S
C567 H570 0.950 . S
C568 C567 1.387 1_455 S
C568 C571 1.387 . S
H569 C565 0.950 . S
H570 C567 0.950 . S
C571 C562 1.390 . S
C571 H564 0.950 1_556 S
C571 C568 1.387 . S
C572 C573 1.371 1_545 S
C572 H576 0.950 . S
C572 C581 1.390 . S
C573 C572 1.371 1_565 S
C573 C575 1.403 . S
H574 C581 0.950 . S
C575 C573 1.403 . S
C575 C577 1.390 . S
C575 H579 0.950 . S
H576 C572 0.950 . S
C577 C575 1.390 . S
C577 C578 1.387 1_565 S
C577 H580 0.950 . S
C578 C577 1.387 1_545 S
C578 C581 1.387 . S
H579 C575 0.950 . S
H580 C577 0.950 . S
C581 C572 1.390 . S
C581 H574 0.950 . S
C581 C578 1.387 . S
C582 C583 1.387 . S
C582 H586 0.950 1_556 S
C582 C591 1.390 . S
C583 C582 1.387 . S
C583 C585 1.387 . S
H584 C591 0.950 . S
C585 C583 1.387 . S
C585 C587 1.390 . S
C585 H589 0.950 . S
H586 C582 0.950 1_554 S
C587 C585 1.390 . S
C587 C588 1.387 . S
C587 H590 0.950 . S
C588 C587 1.387 . S
C588 C591 1.387 . S
H589 C585 0.950 . S
H590 C587 0.950 . S
C591 C582 1.390 . S
C591 H584 0.950 . S
C591 C588 1.387 . S
C592 C593 1.387 . S
C592 H596 0.950 . S
C592 C601 1.390 . S
C593 C592 1.387 . S
C593 C595 1.387 . S
H594 C601 0.950 . S
C595 C593 1.387 . S
C595 C597 1.390 . S
C595 H599 0.950 . S
H596 C592 0.950 . S
C597 C595 1.390 . S
C597 C598 1.387 . S
C597 H600 0.950 . S
C598 C597 1.387 . S
C598 C601 1.387 . S
H599 C595 0.950 . S
H600 C597 0.950 . S
C601 C592 1.390 . S
C601 H594 0.950 . S
C601 C598 1.387 . S
C602 C603 1.371 1_455 S
C602 H606 0.950 . S
C602 C611 1.390 . S
C603 C602 1.371 1_655 S
C603 C605 1.403 . S
H604 C611 0.950 . S
C605 C603 1.403 . S
C605 C607 1.390 . S
C605 H609 0.950 . S
H606 C602 0.950 . S
C607 C605 1.390 . S
C607 C608 1.387 1_655 S
C607 H610 0.950 . S
C608 C607 1.387 1_455 S
C608 C611 1.387 . S
H609 C605 0.950 . S
H610 C607 0.950 . S
C611 C602 1.390 . S
C611 H604 0.950 . S
C611 C608 1.387 . S
C612 C613 1.387 1_565 S
C612 H616 0.950 . S
C612 C621 1.390 . S
C613 C612 1.387 1_545 S
C613 C615 1.387 . S
H614 C621 0.950 . S
C615 C613 1.387 . S
C615 C617 1.390 . S
C615 H619 0.950 . S
H616 C612 0.950 . S
C617 C615 1.390 . S
C617 C618 1.371 1_545 S
C617 H620 0.950 . S
C618 C617 1.371 1_565 S
C618 C621 1.403 . S
H619 C615 0.950 . S
H620 C617 0.950 . S
C621 C612 1.390 . S
C621 H614 0.950 . S
C621 C618 1.403 . S
C622 C623 1.387 . S
C622 H626 0.950 . S
C622 C631 1.390 . S
C623 C622 1.387 . S
C623 C625 1.387 . S
H624 C631 0.950 . S
C625 C623 1.387 . S
C625 C627 1.390 . S
C625 H629 0.950 . S
H626 C622 0.950 . S
C627 C625 1.390 . S
C627 C628 1.387 . S
C627 H630 0.950 . S
C628 C627 1.387 . S
C628 C631 1.387 . S
H629 C625 0.950 . S
H630 C627 0.950 . S
C631 C622 1.390 . S
C631 H624 0.950 . S
C631 C628 1.387 . S
C632 C633 1.387 . S
C632 H636 0.950 . S
C632 C641 1.390 . S
C633 C632 1.387 . S
C633 C635 1.387 . S
H634 C641 0.950 . S
C635 C633 1.387 . S
C635 C637 1.390 . S
C635 H639 0.950 . S
H636 C632 0.950 . S
C637 C635 1.390 . S
C637 C638 1.387 . S
C637 H640 0.950 . S
C638 C637 1.387 . S
C638 C641 1.387 . S
H639 C635 0.950 . S
H640 C637 0.950 . S
C641 C632 1.390 . S
C641 H634 0.950 . S
C641 C638 1.387 . S
C642 C643 1.371 1_655 S
C642 H646 0.950 . S
C642 C651 1.390 . S
C643 C642 1.371 1_455 S
C643 C645 1.404 . S
H644 C651 0.950 . S
C645 C643 1.404 . S
C645 C647 1.390 . S
C645 H649 0.950 . S
H646 C642 0.950 . S
C647 C645 1.390 . S
C647 C648 1.387 1_455 S
C647 H650 0.950 . S
C648 C647 1.387 1_655 S
C648 C651 1.387 . S
H649 C645 0.950 . S
H650 C647 0.950 . S
C651 C642 1.390 . S
C651 H644 0.950 . S
C651 C648 1.387 . S
C652 C653 1.387 . S
C652 H656 0.950 . S
C652 C661 1.390 . S
C653 C652 1.387 . S
C653 C655 1.387 1_565 S
H654 C661 0.950 . S
C655 C653 1.387 1_545 S
C655 C657 1.390 . S
C655 H659 0.950 . S
H656 C652 0.950 . S
C657 C655 1.390 . S
C657 C658 1.402 . S
C657 H660 0.950 . S
C658 C657 1.402 . S
C658 C661 1.372 1_545 S
H659 C655 0.950 . S
H660 C657 0.950 . S
C661 C652 1.390 . S
C661 H654 0.950 . S
C661 C658 1.372 1_565 S
C662 C663 1.387 . S
C662 H666 0.950 . S
C662 C671 1.390 . S
C663 C662 1.387 . S
C663 C665 1.387 . S
H664 C671 0.950 . S
C665 C663 1.387 . S
C665 C667 1.390 . S
C665 H669 0.950 1_554 S
H666 C662 0.950 . S
C667 C665 1.390 . S
C667 C668 1.387 . S
C667 H670 0.950 . S
C668 C667 1.387 . S
C668 C671 1.387 . S
H669 C665 0.950 1_556 S
H670 C667 0.950 . S
C671 C662 1.390 . S
C671 H664 0.950 . S
C671 C668 1.387 . S
C672 C673 1.387 . S
C672 H676 0.950 . S
C672 C681 1.390 . S
C673 C672 1.387 . S
C673 C675 1.387 . S
H674 C681 0.950 . S
C675 C673 1.387 . S
C675 C677 1.390 . S
C675 H679 0.950 . S
H676 C672 0.950 . S
C677 C675 1.390 . S
C677 C678 1.387 . S
C677 H680 0.950 . S
C678 C677 1.387 . S
C678 C681 1.387 . S
H679 C675 0.950 . S
H680 C677 0.950 . S
C681 C672 1.390 . S
C681 H674 0.950 . S
C681 C678 1.387 . S
C682 C683 1.387 . S
C682 H686 0.950 . S
C682 C691 1.390 . S
C683 C682 1.387 . S
C683 C685 1.387 . S
H684 C691 0.950 . S
C685 C683 1.387 . S
C685 C687 1.390 . S
C685 H689 0.950 . S
H686 C682 0.950 . S
C687 C685 1.390 . S
C687 C688 1.387 . S
C687 H690 0.950 . S
C688 C687 1.387 . S
C688 C691 1.387 . S
H689 C685 0.950 . S
H690 C687 0.950 . S
C691 C682 1.390 . S
C691 H684 0.950 . S
C691 C688 1.387 . S
C692 C693 1.387 . S
C692 H696 0.950 . S
C692 C701 1.390 . S
C693 C692 1.387 . S
C693 C695 1.387 . S
H694 C701 0.950 . S
C695 C693 1.387 . S
C695 C697 1.390 . S
C695 H699 0.950 . S
H696 C692 0.950 . S
C697 C695 1.390 . S
C697 C698 1.387 . S
C697 H700 0.950 . S
C698 C697 1.387 . S
C698 C701 1.387 . S
H699 C695 0.950 . S
H700 C697 0.950 . S
C701 C692 1.390 . S
C701 H694 0.950 . S
C701 C698 1.387 . S
C702 C703 1.387 . S
C702 H706 0.950 . S
C702 C711 1.390 . S
C703 C702 1.387 . S
C703 C705 1.387 . S
H704 C711 0.950 . S
C705 C703 1.387 . S
C705 C707 1.390 . S
C705 H709 0.950 . S
H706 C702 0.950 . S
C707 C705 1.390 . S
C707 C708 1.387 . S
C707 H710 0.950 . S
C708 C707 1.387 . S
C708 C711 1.387 . S
H709 C705 0.950 . S
H710 C707 0.950 . S
C711 C702 1.390 . S
C711 H704 0.950 . S
C711 C708 1.387 . S
C712 C713 1.387 . S
C712 H716 0.950 . S
C712 C721 1.390 . S
C713 C712 1.387 . S
C713 C715 1.387 . S
H714 C721 0.950 . S
C715 C713 1.387 . S
C715 C717 1.390 . S
C715 H719 0.950 . S
H716 C712 0.950 . S
C717 C715 1.390 . S
C717 C718 1.387 . S
C717 H720 0.950 . S
C718 C717 1.387 . S
C718 C721 1.387 . S
H719 C715 0.950 . S
H720 C717 0.950 . S
C721 C712 1.390 . S
C721 H714 0.950 . S
C721 C718 1.387 . S
C722 C723 1.387 . S
C722 H726 0.950 . S
C722 C731 1.390 . S
C723 C722 1.387 . S
C723 C725 1.387 . S
H724 C731 0.950 . S
C725 C723 1.387 . S
C725 C727 1.390 . S
C725 H729 0.950 . S
H726 C722 0.950 . S
C727 C725 1.390 . S
C727 C728 1.387 . S
C727 H730 0.950 . S
C728 C727 1.387 . S
C728 C731 1.387 . S
H729 C725 0.950 . S
H730 C727 0.950 . S
C731 C722 1.390 . S
C731 H724 0.950 . S
C731 C728 1.387 . S
C732 C733 1.387 . S
C732 H736 0.950 . S
C732 C741 1.390 . S
C733 C732 1.387 . S
C733 C735 1.387 . S
H734 C741 0.950 . S
C735 C733 1.387 . S
C735 C737 1.390 . S
C735 H739 0.950 . S
H736 C732 0.950 . S
C737 C735 1.390 . S
C737 C738 1.387 . S
C737 H740 0.950 . S
C738 C737 1.387 . S
C738 C741 1.387 . S
H739 C735 0.950 . S
H740 C737 0.950 . S
C741 C732 1.390 . S
C741 H734 0.950 . S
C741 C738 1.387 . S
C742 C743 1.387 . S
C742 H746 0.950 . S
C742 C751 1.390 . S
C743 C742 1.387 . S
C743 C745 1.387 . S
H744 C751 0.950 . S
C745 C743 1.387 . S
C745 C747 1.390 . S
C745 H749 0.950 . S
H746 C742 0.950 . S
C747 C745 1.390 . S
C747 C748 1.387 . S
C747 H750 0.950 . S
C748 C747 1.387 . S
C748 C751 1.387 . S
H749 C745 0.950 . S
H750 C747 0.950 . S
C751 C742 1.390 . S
C751 H744 0.950 . S
C751 C748 1.387 . S
C752 C753 1.387 . S
C752 H756 0.950 . S
C752 C761 1.390 . S
C753 C752 1.387 . S
C753 C755 1.387 . S
H754 C761 0.950 . S
C755 C753 1.387 . S
C755 C757 1.390 . S
C755 H759 0.950 . S
H756 C752 0.950 . S
C757 C755 1.390 . S
C757 C758 1.387 . S
C757 H760 0.950 . S
C758 C757 1.387 . S
C758 C761 1.387 . S
H759 C755 0.950 . S
H760 C757 0.950 . S
C761 C752 1.390 . S
C761 H754 0.950 . S
C761 C758 1.387 . S
C762 C763 1.387 . S
C762 H766 0.950 . S
C762 C771 1.390 . S
C763 C762 1.387 . S
C763 C765 1.387 . S
H764 C771 0.950 . S
C765 C763 1.387 . S
C765 C767 1.390 . S
C765 H769 0.950 . S
H766 C762 0.950 . S
C767 C765 1.390 . S
C767 C768 1.387 . S
C767 H770 0.950 . S
C768 C767 1.387 . S
C768 C771 1.387 . S
H769 C765 0.950 . S
H770 C767 0.950 . S
C771 C762 1.390 . S
C771 H764 0.950 . S
C771 C768 1.387 . S
C772 C773 1.387 . S
C772 H776 0.950 . S
C772 C781 1.390 . S
C773 C772 1.387 . S
C773 C775 1.387 . S
H774 C781 0.950 . S
C775 C773 1.387 . S
C775 C777 1.390 . S
C775 H779 0.950 . S
H776 C772 0.950 . S
C777 C775 1.390 . S
C777 C778 1.387 . S
C777 H780 0.950 . S
C778 C777 1.387 . S
C778 C781 1.387 . S
H779 C775 0.950 . S
H780 C777 0.950 . S
C781 C772 1.390 . S
C781 H774 0.950 . S
C781 C778 1.387 . S
C782 C783 1.387 . S
C782 H786 0.950 . S
C782 C791 1.390 . S
C783 C782 1.387 . S
C783 C785 1.387 . S
H784 C791 0.950 . S
C785 C783 1.387 . S
C785 C787 1.390 . S
C785 H789 0.950 . S
H786 C782 0.950 . S
C787 C785 1.390 . S
C787 C788 1.387 . S
C787 H790 0.950 . S
C788 C787 1.387 . S
C788 C791 1.387 . S
H789 C785 0.950 . S
H790 C787 0.950 . S
C791 C782 1.390 . S
C791 H784 0.950 . S
C791 C788 1.387 . S
C792 C793 1.387 . S
C792 H796 0.950 . S
C792 C801 1.390 . S
C793 C792 1.387 . S
C793 C795 1.387 . S
H794 C801 0.950 . S
C795 C793 1.387 . S
C795 C797 1.390 . S
C795 H799 0.950 . S
H796 C792 0.950 . S
C797 C795 1.390 . S
C797 C798 1.387 . S
C797 H800 0.950 . S
C798 C797 1.387 . S
C798 C801 1.387 . S
H799 C795 0.950 . S
H800 C797 0.950 . S
C801 C792 1.390 . S
C801 H794 0.950 . S
C801 C798 1.387 . S
C802 C803 1.387 . S
C802 H806 0.950 . S
C802 C811 1.390 . S
C803 C802 1.387 . S
C803 C805 1.387 . S
H804 C811 0.950 . S
C805 C803 1.387 . S
C805 C807 1.390 . S
C805 H809 0.950 . S
H806 C802 0.950 . S
C807 C805 1.390 . S
C807 C808 1.387 . S
C807 H810 0.950 . S
C808 C807 1.387 . S
C808 C811 1.387 . S
H809 C805 0.950 . S
H810 C807 0.950 . S
C811 C802 1.390 . S
C811 H804 0.950 . S
C811 C808 1.387 . S
C812 C813 1.387 . S
C812 H816 0.950 . S
C812 C821 1.390 . S
C813 C812 1.387 . S
C813 C815 1.387 . S
H814 C821 0.950 . S
C815 C813 1.387 . S
C815 C817 1.390 . S
C815 H819 0.950 . S
H816 C812 0.950 . S
C817 C815 1.390 . S
C817 C818 1.387 . S
C817 H820 0.950 . S
C818 C817 1.387 . S
C818 C821 1.387 . S
H819 C815 0.950 . S
H820 C817 0.950 . S
C821 C812 1.390 . S
C821 H814 0.950 . S
C821 C818 1.387 . S
C822 C823 1.387 . S
C822 H826 0.950 . S
C822 C831 1.390 . S
C823 C822 1.387 . S
C823 C825 1.387 . S
H824 C831 0.950 . S
C825 C823 1.387 . S
C825 C827 1.390 . S
C825 H829 0.950 . S
H826 C822 0.950 . S
C827 C825 1.390 . S
C827 C828 1.387 . S
C827 H830 0.950 . S
C828 C827 1.387 . S
C828 C831 1.387 . S
H829 C825 0.950 . S
H830 C827 0.950 . S
C831 C822 1.390 . S
C831 H824 0.950 . S
C831 C828 1.387 . S
C353 C18 1.171 . S
C358 C164 1.169 . S
C363 C96 1.169 . S
C368 C32 1.170 . S
C373 C118 1.169 . S
C378 C54 1.172 . S
C383 C76 1.169 . S
C388 C140 1.172 . S
C393 C340 1.172 . S
C398 C186 1.169 . S
C403 C282 1.169 . S
C408 C208 1.170 . S
C413 C294 1.172 . S
C418 C230 1.169 . S
C423 C326 1.170 . S
C428 C260 1.169 . S
C433 C8 1.367 . S
C438 C348 1.370 . S
C443 C40 1.370 . S
C448 C272 1.367 . S
C453 C62 1.370 . S
C458 C296 1.367 . S
C463 C316 1.370 . S
C468 C84 1.367 . S
C473 C216 1.367 . S
C478 C98 1.370 . S
C483 C120 1.370 . S
C488 C238 1.367 . S
C493 C250 1.370 . S
C498 C142 1.367 . S
C503 C172 1.367 . S
C508 C194 1.370 . S
C513 C274 1.512 1_554 S
C518 C21 1.498 . S
C523 C29 1.498 1_455 S
C528 C304 1.513 . S
C533 C318 1.513 1_554 S
C538 C51 1.498 1_545 S
C543 C338 1.513 . S
C548 C73 1.498 . S
C553 C103 1.498 . S
C558 C184 1.513 . S
C563 C125 1.496 1_655 S
C568 C206 1.513 1_556 S
C573 C147 1.496 1_565 S
C578 C228 1.513 . S
C583 C252 1.513 1_556 S
C588 C161 1.497 . S
C593 C183 1.498 . S
C598 C106 1.513 1_556 S
C603 C205 1.498 1_655 S
C608 C128 1.512 . S
C613 C150 1.513 1_556 S
C618 C227 1.496 1_565 S
C623 C263 1.498 . S
C628 C162 1.513 . S
C633 C285 1.496 . S
C638 C10 1.513 . S
C643 C301 1.498 1_455 S
C648 C30 1.513 1_554 S
C653 C52 1.513 . S
C658 C329 1.498 1_545 S
C663 C74 1.513 1_554 S
C668 C337 1.498 . S
C673 C15 1.604 . S
C678 C213 1.535 . S
C683 C235 1.538 . S
C688 C43 1.606 . S
C693 C65 1.604 . S
C698 C249 1.535 . S
C703 C87 1.603 . S
C708 C191 1.534 . S
C713 C95 1.605 . S
C718 C345 1.538 . S
C723 C117 1.606 . S
C728 C271 1.538 . S
C733 C139 1.603 . S
C738 C307 1.534 . S
C743 C315 1.534 . S
C748 C175 1.604 . S
C753 C37 1.534 . S
C758 C197 1.604 . S
C763 C59 1.538 . S
C768 C219 1.606 . S
C773 C241 1.605 . S
C778 C81 1.537 . S
C783 C257 1.603 . S
C788 C7 1.534 . S
C793 C169 1.537 . S
C798 C279 1.605 . S
C803 C109 1.536 . S
C808 C293 1.605 . S
C813 C131 1.535 . S
C818 C323 1.604 . S
C823 C153 1.535 . S
C828 C351 1.604 . S
