# Generated by pormake.
# Topology whr, (6)-cn, num edge types: 1
# Building blocks:
#     Node 0, Type 0, BuildingBlock: IZENUY_clean_sbu_0, # of connection points: 6
#     Node 1, Type 0, BuildingBlock: IZENUY_clean_sbu_0, # of connection points: 6
#     Node 2, Type 0, BuildingBlock: IZENUY_clean_sbu_0, # of connection points: 6
#     Node 3, Type 0, BuildingBlock: IZENUY_clean_sbu_0, # of connection points: 6
#     Node 4, Type 0, BuildingBlock: IZENUY_clean_sbu_0, # of connection points: 6
#     Node 5, Type 0, BuildingBlock: IZENUY_clean_sbu_0, # of connection points: 6
#     Node 6, Type 0, BuildingBlock: IZENUY_clean_sbu_0, # of connection points: 6
#     Node 7, Type 0, BuildingBlock: IZENUY_clean_sbu_0, # of connection points: 6
#     Node 8, Type 0, BuildingBlock: IZENUY_clean_sbu_0, # of connection points: 6
#     Node 9, Type 0, BuildingBlock: IZENUY_clean_sbu_0, # of connection points: 6
#     Node 10, Type 0, BuildingBlock: IZENUY_clean_sbu_0, # of connection points: 6
#     Node 11, Type 0, BuildingBlock: IZENUY_clean_sbu_0, # of connection points: 6
#     Node 12, Type 0, BuildingBlock: IZENUY_clean_sbu_0, # of connection points: 6
#     Node 13, Type 0, BuildingBlock: IZENUY_clean_sbu_0, # of connection points: 6
#     Node 14, Type 0, BuildingBlock: IZENUY_clean_sbu_0, # of connection points: 6
#     Node 15, Type 0, BuildingBlock: IZENUY_clean_sbu_0, # of connection points: 6
#     Edge 16, Type (0, 0), BuildingBlock: KIFKEQ_clean_linker_1, # of connection points: 2
#     Edge 17, Type (0, 0), BuildingBlock: KIFKEQ_clean_linker_1, # of connection points: 2
#     Edge 18, Type (0, 0), BuildingBlock: KIFKEQ_clean_linker_1, # of connection points: 2
#     Edge 19, Type (0, 0), BuildingBlock: KIFKEQ_clean_linker_1, # of connection points: 2
#     Edge 20, Type (0, 0), BuildingBlock: KIFKEQ_clean_linker_1, # of connection points: 2
#     Edge 21, Type (0, 0), BuildingBlock: KIFKEQ_clean_linker_1, # of connection points: 2
#     Edge 22, Type (0, 0), BuildingBlock: KIFKEQ_clean_linker_1, # of connection points: 2
#     Edge 23, Type (0, 0), BuildingBlock: KIFKEQ_clean_linker_1, # of connection points: 2
#     Edge 24, Type (0, 0), BuildingBlock: KIFKEQ_clean_linker_1, # of connection points: 2
#     Edge 25, Type (0, 0), BuildingBlock: KIFKEQ_clean_linker_1, # of connection points: 2
#     Edge 26, Type (0, 0), BuildingBlock: KIFKEQ_clean_linker_1, # of connection points: 2
#     Edge 27, Type (0, 0), BuildingBlock: KIFKEQ_clean_linker_1, # of connection points: 2
#     Edge 28, Type (0, 0), BuildingBlock: KIFKEQ_clean_linker_1, # of connection points: 2
#     Edge 29, Type (0, 0), BuildingBlock: KIFKEQ_clean_linker_1, # of connection points: 2
#     Edge 30, Type (0, 0), BuildingBlock: KIFKEQ_clean_linker_1, # of connection points: 2
#     Edge 31, Type (0, 0), BuildingBlock: KIFKEQ_clean_linker_1, # of connection points: 2
#     Edge 32, Type (0, 0), BuildingBlock: KIFKEQ_clean_linker_1, # of connection points: 2
#     Edge 33, Type (0, 0), BuildingBlock: KIFKEQ_clean_linker_1, # of connection points: 2
#     Edge 34, Type (0, 0), BuildingBlock: KIFKEQ_clean_linker_1, # of connection points: 2
#     Edge 35, Type (0, 0), BuildingBlock: KIFKEQ_clean_linker_1, # of connection points: 2
#     Edge 36, Type (0, 0), BuildingBlock: KIFKEQ_clean_linker_1, # of connection points: 2
#     Edge 37, Type (0, 0), BuildingBlock: KIFKEQ_clean_linker_1, # of connection points: 2
#     Edge 38, Type (0, 0), BuildingBlock: KIFKEQ_clean_linker_1, # of connection points: 2
#     Edge 39, Type (0, 0), BuildingBlock: KIFKEQ_clean_linker_1, # of connection points: 2
#     Edge 40, Type (0, 0), BuildingBlock: KIFKEQ_clean_linker_1, # of connection points: 2
#     Edge 41, Type (0, 0), BuildingBlock: KIFKEQ_clean_linker_1, # of connection points: 2
#     Edge 42, Type (0, 0), BuildingBlock: KIFKEQ_clean_linker_1, # of connection points: 2
#     Edge 43, Type (0, 0), BuildingBlock: KIFKEQ_clean_linker_1, # of connection points: 2
#     Edge 44, Type (0, 0), BuildingBlock: KIFKEQ_clean_linker_1, # of connection points: 2
#     Edge 45, Type (0, 0), BuildingBlock: KIFKEQ_clean_linker_1, # of connection points: 2
#     Edge 46, Type (0, 0), BuildingBlock: KIFKEQ_clean_linker_1, # of connection points: 2
#     Edge 47, Type (0, 0), BuildingBlock: KIFKEQ_clean_linker_1, # of connection points: 2
#     Edge 48, Type (0, 0), BuildingBlock: KIFKEQ_clean_linker_1, # of connection points: 2
#     Edge 49, Type (0, 0), BuildingBlock: KIFKEQ_clean_linker_1, # of connection points: 2
#     Edge 50, Type (0, 0), BuildingBlock: KIFKEQ_clean_linker_1, # of connection points: 2
#     Edge 51, Type (0, 0), BuildingBlock: KIFKEQ_clean_linker_1, # of connection points: 2
#     Edge 52, Type (0, 0), BuildingBlock: KIFKEQ_clean_linker_1, # of connection points: 2
#     Edge 53, Type (0, 0), BuildingBlock: KIFKEQ_clean_linker_1, # of connection points: 2
#     Edge 54, Type (0, 0), BuildingBlock: KIFKEQ_clean_linker_1, # of connection points: 2
#     Edge 55, Type (0, 0), BuildingBlock: KIFKEQ_clean_linker_1, # of connection points: 2
#     Edge 56, Type (0, 0), BuildingBlock: KIFKEQ_clean_linker_1, # of connection points: 2
#     Edge 57, Type (0, 0), BuildingBlock: KIFKEQ_clean_linker_1, # of connection points: 2
#     Edge 58, Type (0, 0), BuildingBlock: KIFKEQ_clean_linker_1, # of connection points: 2
#     Edge 59, Type (0, 0), BuildingBlock: KIFKEQ_clean_linker_1, # of connection points: 2
#     Edge 60, Type (0, 0), BuildingBlock: KIFKEQ_clean_linker_1, # of connection points: 2
#     Edge 61, Type (0, 0), BuildingBlock: KIFKEQ_clean_linker_1, # of connection points: 2
#     Edge 62, Type (0, 0), BuildingBlock: KIFKEQ_clean_linker_1, # of connection points: 2
#     Edge 63, Type (0, 0), BuildingBlock: KIFKEQ_clean_linker_1, # of connection points: 2
# Relax obj value: 0.339
# Max RMSD: 0.260
# Mean RMSD: 0.260
data_MOF--net-whr--node1-IZENUY_clean_sbu_0--edge1-KIFKEQ_clean_linker_1
_symmetry_space_group_name_H-M    P1
_symmetry_Int_Tables_number       1
_symmetry_cell_setting            triclinic
loop_
_symmetry_equiv_pos_as_xyz
'x, y, z'
_cell_length_a     48.432389
_cell_length_b     48.443316
_cell_length_c     28.620475
_cell_angle_alpha  89.993143
_cell_angle_beta   89.996961
_cell_angle_gamma 90.009254
loop_
_atom_site_label
_atom_site_type_symbol
_atom_site_fract_x
_atom_site_fract_y
_atom_site_fract_z
_atom_type_partial_charge
Fe0 Fe 0.20294 0.064 0.111 0.0
Fe1 Fe 0.25477 0.04333 0.06065 0.0
O2 O 0.23009 0.06979 0.07077 0.0
Fe3 Fe 0.23247 0.10194 0.04125 0.0
O4 O 0.1981 0.09864 0.01648 0.0
O5 O 0.17782 0.08661 0.08176 0.0
O6 O 0.18961 0.03565 0.07663 0.0
C7 C 0.20353 0.01445 0.06645 0.0
C8 C 0.21731 0.11651 0.13468 0.0
O9 O 0.22977 0.01477 0.06867 0.0
C10 C 0.28733 0.0928 0.05638 0.0
O11 O 0.22257 0.04053 0.14849 0.0
O12 O 0.26508 0.04238 0.12183 0.0
O13 O 0.21944 0.12246 0.09149 0.0
O14 O 0.21492 0.09178 0.14772 0.0
C15 C 0.24726 0.06192 0.97162 0.0
O16 O 0.284 0.06718 0.0488 0.0
O17 O 0.26686 0.10819 0.06368 0.0
C18 C 0.24822 0.03761 0.15448 0.0
O19 O 0.24618 0.04202 0.99978 0.0
O20 O 0.2459 0.08678 0.98594 0.0
C21 C 0.17652 0.09631 0.04077 0.0
Fe22 Fe 0.04407 0.76521 0.95285 0.0
Fe23 Fe 0.10334 0.7855 0.97384 0.0
O24 O 0.07121 0.78933 0.94493 0.0
Fe25 Fe 0.06602 0.81772 0.90725 0.0
O26 O 0.03906 0.83108 0.94468 0.0
O27 O 0.01638 0.79164 0.94805 0.0
O28 O 0.04322 0.77145 0.01455 0.0
C29 C 0.06314 0.76949 0.04254 0.0
C30 C 0.03641 0.77548 0.8608 0.0
O31 O 0.08804 0.77128 0.02845 0.0
C32 C 0.11736 0.80162 0.88052 0.0
O33 O 0.06703 0.73491 0.96137 0.0
O34 O 0.10867 0.75147 0.94941 0.0
O35 O 0.04071 0.80061 0.86984 0.0
O36 O 0.04254 0.75717 0.89045 0.0
C37 C 0.09989 0.84144 0.9774 0.0
O38 O 0.12377 0.79886 0.92353 0.0
O39 O 0.09256 0.8053 0.86843 0.0
C40 C 0.09267 0.73124 0.95435 0.0
O41 O 0.10102 0.8195 1.00093 0.0
O42 O 0.09044 0.84098 0.93633 0.0
C43 C 0.01723 0.81776 0.95356 0.0
Fe44 Fe 0.78613 0.9145 0.0372 0.0
Fe45 Fe 0.81684 0.95187 0.10547 0.0
O46 O 0.78867 0.94634 0.06742 0.0
Fe47 Fe 0.76353 0.97271 0.06045 0.0
O48 O 0.76936 0.97435 0.9986 0.0
O49 O 0.77121 0.92977 0.98336 0.0
O50 O 0.8199 0.91848 0.01014 0.0
C51 C 0.84187 0.92049 0.03346 0.0
C52 C 0.73147 0.92269 0.05767 0.0
O53 O 0.84101 0.92893 0.07516 0.0
C54 C 0.77384 0.98012 0.15264 0.0
O55 O 0.80051 0.89396 0.08627 0.0
O56 O 0.80527 0.92427 0.14323 0.0
O57 O 0.73393 0.94864 0.05205 0.0
O58 O 0.75249 0.90759 0.0616 0.0
C59 C 0.81538 1.00113 0.06037 0.0
O60 O 0.79902 0.97611 0.14377 0.0
O61 O 0.75566 0.97367 0.12298 0.0
C62 C 0.80258 0.89964 0.12958 0.0
O63 O 0.82928 0.97969 0.06925 0.0
O64 O 0.78918 1.00124 0.06542 0.0
C65 C 0.76844 0.95466 0.97001 0.0
Fe66 Fe 0.95405 0.19884 0.90844 0.0
Fe67 Fe 0.97425 0.25253 0.95265 0.0
O68 O 0.9477 0.22768 0.94464 0.0
Fe69 Fe 0.91504 0.2313 0.97195 0.0
O70 O 0.91721 0.19777 1.00034 0.0
O71 O 0.92993 0.17542 0.93772 0.0
O72 O 0.98068 0.18671 0.94757 0.0
C73 C 1.00209 0.20053 0.95698 0.0
C74 C 0.90273 0.2135 0.87881 0.0
O75 O 1.0026 0.22657 0.95013 0.0
C76 C 0.92491 0.28558 0.95154 0.0
O77 O 0.97947 0.216 0.87123 0.0
O78 O 0.97648 0.25968 0.88998 0.0
O79 O 0.89564 0.21702 0.92133 0.0
O80 O 0.92774 0.20991 0.86793 0.0
C81 C 0.95393 0.24875 0.04173 0.0
O82 O 0.9506 0.28259 0.95909 0.0
O83 O 0.90963 0.26484 0.94609 0.0
C84 C 0.98328 0.24109 0.86125 0.0
O85 O 0.97433 0.24721 0.01462 0.0
O86 O 0.92929 0.24628 0.02672 0.0
C87 C 0.91967 0.17544 0.97824 0.0
Fe88 Fe 0.81661 0.06385 0.6057 0.0
Fe89 Fe 0.76395 0.04282 0.55885 0.0
O90 O 0.78844 0.06959 0.56761 0.0
Fe91 Fe 0.78499 0.10197 0.53918 0.0
O92 O 0.81894 0.09951 0.51234 0.0
O93 O 0.8405 0.08754 0.57632 0.0
O94 O 0.82972 0.03652 0.56898 0.0
C95 C 0.81605 0.01506 0.55933 0.0
C96 C 0.80151 0.11556 0.63243 0.0
O97 O 0.78985 0.0147 0.56359 0.0
C98 C 0.73055 0.09184 0.55737 0.0
O99 O 0.79875 0.03901 0.64294 0.0
O100 O 0.75548 0.04106 0.62108 0.0
O101 O 0.79861 0.12207 0.58955 0.0
O102 O 0.80467 0.0907 0.64439 0.0
C103 C 0.76898 0.06234 0.46964 0.0
O104 O 0.73403 0.06622 0.55003 0.0
O105 O 0.75093 0.10751 0.56353 0.0
C106 C 0.7735 0.03479 0.65116 0.0
O107 O 0.77063 0.04223 0.49729 0.0
O108 O 0.77077 0.08712 0.48422 0.0
C109 C 0.84099 0.09719 0.53533 0.0
Fe110 Fe 0.06404 0.20074 0.40399 0.0
Fe111 Fe 0.04266 0.25291 0.45166 0.0
O112 O 0.06962 0.22871 0.44246 0.0
Fe113 Fe 0.10193 0.23197 0.47101 0.0
O114 O 0.09946 0.1977 0.49704 0.0
O115 O 0.08841 0.177 0.43196 0.0
O116 O 0.0372 0.18717 0.44148 0.0
C117 C 0.01556 0.20052 0.45144 0.0
C118 C 0.11542 0.21658 0.37703 0.0
O119 O 0.0148 0.22669 0.44668 0.0
C120 C 0.09154 0.28655 0.45357 0.0
O121 O 0.03863 0.2184 0.36757 0.0
O122 O 0.04068 0.26161 0.3895 0.0
O123 O 0.12198 0.21904 0.42002 0.0
O124 O 0.09052 0.21333 0.36509 0.0
C125 C 0.06232 0.24732 0.54092 0.0
O126 O 0.06589 0.28297 0.46063 0.0
O127 O 0.10739 0.26627 0.4477 0.0
C128 C 0.03424 0.24362 0.35947 0.0
O129 O 0.04218 0.24607 0.51324 0.0
O130 O 0.08709 0.24558 0.5263 0.0
C131 C 0.09794 0.17601 0.47293 0.0
Fe132 Fe 0.19928 0.95306 0.60741 0.0
Fe133 Fe 0.25183 0.97403 0.5602 0.0
O134 O 0.2273 0.94734 0.56893 0.0
Fe135 Fe 0.2304 0.91506 0.54013 0.0
O136 O 0.19624 0.9179 0.51399 0.0
O137 O 0.17539 0.92894 0.57897 0.0
O138 O 0.18591 0.98032 0.57055 0.0
C139 C 0.19969 1.0017 0.56049 0.0
C140 C 0.21491 0.9015 0.63395 0.0
O141 O 0.22589 1.00206 0.56486 0.0
C142 C 0.28504 0.92489 0.55812 0.0
O143 O 0.21708 0.97817 0.64418 0.0
O144 O 0.26032 0.97579 0.62246 0.0
O145 O 0.21722 0.89498 0.59092 0.0
O146 O 0.21166 0.92637 0.64599 0.0
C147 C 0.24653 0.95472 0.47079 0.0
O148 O 0.28172 0.95059 0.55142 0.0
O149 O 0.2646 0.9092 0.56361 0.0
C150 C 0.24232 0.98232 0.65242 0.0
O151 O 0.24525 0.97474 0.49864 0.0
O152 O 0.24433 0.92991 0.48497 0.0
C153 C 0.17452 0.91932 0.53802 0.0
Fe154 Fe 0.95285 0.81588 0.4043 0.0
Fe155 Fe 0.97311 0.76294 0.45172 0.0
O156 O 0.94712 0.78838 0.44385 0.0
Fe157 Fe 0.91536 0.78687 0.47455 0.0
O158 O 0.92017 0.82108 0.49976 0.0
O159 O 0.92987 0.84068 0.43317 0.0
O160 O 0.98095 0.82879 0.43957 0.0
C161 C 1.00203 0.8146 0.4498 0.0
C162 C 0.90046 0.80172 0.38132 0.0
O163 O 1.00179 0.7883 0.44653 0.0
C164 C 0.92256 0.73171 0.45582 0.0
O165 O 0.97705 0.79741 0.36698 0.0
O166 O 0.97419 0.75441 0.3894 0.0
O167 O 0.8949 0.8006 0.4248 0.0
O168 O 0.92511 0.80372 0.36733 0.0
C169 C 0.95524 0.76926 0.54219 0.0
O170 O 0.94862 0.73375 0.46059 0.0
O171 O 0.90771 0.75293 0.45216 0.0
C172 C 0.98097 0.77213 0.35919 0.0
O173 O 0.97482 0.76921 0.5134 0.0
O174 O 0.93042 0.77267 0.52901 0.0
C175 C 0.92143 0.84243 0.47479 0.0
Fe176 Fe 0.75137 0.54339 0.55974 0.0
Fe177 Fe 0.72859 0.60149 0.53618 0.0
O178 O 0.72625 0.56975 0.56668 0.0
Fe179 Fe 0.69818 0.56428 0.605 0.0
O180 O 0.68548 0.53658 0.5686 0.0
O181 O 0.7256 0.51498 0.56464 0.0
O182 O 0.74561 0.54168 0.49791 0.0
C183 C 0.74636 0.56128 0.46914 0.0
C184 C 0.74108 0.53591 0.65191 0.0
O185 O 0.74327 0.58617 0.48222 0.0
C186 C 0.71284 0.61637 0.62899 0.0
O187 O 0.781 0.56745 0.55139 0.0
O188 O 0.76235 0.60856 0.55987 0.0
O189 O 0.71591 0.53978 0.64292 0.0
O190 O 0.75924 0.54247 0.62228 0.0
C191 C 0.67292 0.59622 0.53391 0.0
O192 O 0.71457 0.62206 0.5856 0.0
O193 O 0.71016 0.59173 0.64271 0.0
C194 C 0.78339 0.59344 0.55648 0.0
O195 O 0.6946 0.59729 0.50968 0.0
O196 O 0.67408 0.58766 0.57548 0.0
C197 C 0.6994 0.51516 0.55941 0.0
Fe198 Fe 0.54304 0.26256 0.45056 0.0
Fe199 Fe 0.60216 0.28389 0.46995 0.0
O200 O 0.56965 0.28726 0.44185 0.0
Fe201 Fe 0.56361 0.31556 0.40414 0.0
O202 O 0.53626 0.32834 0.44131 0.0
O203 O 0.51477 0.28828 0.44631 0.0
O204 O 0.54257 0.26895 0.51223 0.0
C205 C 0.56278 0.26762 0.53976 0.0
C206 C 0.53457 0.2725 0.35845 0.0
O207 O 0.58752 0.26964 0.52502 0.0
C208 C 0.61531 0.30066 0.37664 0.0
O209 O 0.56658 0.23273 0.45893 0.0
O210 O 0.60778 0.24988 0.44549 0.0
O211 O 0.53874 0.29772 0.36695 0.0
O212 O 0.5411 0.25435 0.38818 0.0
C213 C 0.59731 0.33988 0.47417 0.0
O214 O 0.62202 0.29757 0.41939 0.0
O215 O 0.5904 0.30397 0.36502 0.0
C216 C 0.59222 0.22941 0.45159 0.0
O217 O 0.59976 0.31778 0.49697 0.0
O218 O 0.58729 0.33949 0.43344 0.0
C219 C 0.51493 0.31444 0.4509 0.0
Fe220 Fe 0.2642 0.47295 0.55772 0.0
Fe221 Fe 0.285 0.41379 0.53726 0.0
O222 O 0.28838 0.44596 0.56625 0.0
Fe223 Fe 0.31642 0.45136 0.60462 0.0
O224 O 0.33 0.47828 0.5673 0.0
O225 O 0.29048 0.50076 0.56298 0.0
O226 O 0.27096 0.47377 0.49622 0.0
C227 C 0.26938 0.45384 0.4682 0.0
C228 C 0.27369 0.48081 0.64988 0.0
O229 O 0.27128 0.42895 0.48217 0.0
C230 C 0.30033 0.40001 0.63116 0.0
O231 O 0.23408 0.44986 0.54851 0.0
O232 O 0.25071 0.40826 0.5606 0.0
O233 O 0.29891 0.47671 0.64139 0.0
O234 O 0.25563 0.47449 0.61992 0.0
C235 C 0.34095 0.41752 0.53539 0.0
O236 O 0.29794 0.39352 0.5881 0.0
O237 O 0.30375 0.42484 0.64326 0.0
C238 C 0.23045 0.42419 0.55514 0.0
O239 O 0.31928 0.41628 0.5112 0.0
O240 O 0.34002 0.427 0.5764 0.0
C241 C 0.31664 0.50001 0.55786 0.0
Fe242 Fe 0.47208 0.75317 0.45193 0.0
Fe243 Fe 0.41354 0.73127 0.47419 0.0
O244 O 0.44541 0.72849 0.44389 0.0
Fe245 Fe 0.45061 0.70073 0.40471 0.0
O246 O 0.47875 0.68747 0.4396 0.0
O247 O 0.50029 0.7275 0.44573 0.0
O248 O 0.47368 0.74624 0.51341 0.0
C249 C 0.45402 0.74745 0.54201 0.0
C250 C 0.47911 0.74424 0.35921 0.0
O251 O 0.42906 0.74547 0.5285 0.0
C252 C 0.3983 0.71557 0.38155 0.0
O253 O 0.44845 0.78279 0.46187 0.0
O254 O 0.40705 0.76536 0.4507 0.0
O255 O 0.4747 0.71898 0.36677 0.0
O256 O 0.47306 0.76203 0.38979 0.0
C257 C 0.41906 0.67539 0.47644 0.0
O258 O 0.39273 0.71753 0.42489 0.0
O259 O 0.42289 0.71292 0.36773 0.0
C260 C 0.42265 0.78593 0.45572 0.0
O261 O 0.41712 0.6972 0.50023 0.0
O262 O 0.42766 0.67641 0.43479 0.0
C263 C 0.50019 0.70126 0.44903 0.0
Fe264 Fe 0.31457 0.56465 0.11064 0.0
Fe265 Fe 0.26357 0.54284 0.05907 0.0
O266 O 0.28803 0.56949 0.06894 0.0
Fe267 Fe 0.28623 0.60103 0.03757 0.0
O268 O 0.32087 0.59667 0.01405 0.0
O269 O 0.33985 0.5872 0.08157 0.0
O270 O 0.32871 0.53591 0.07801 0.0
C271 C 0.31508 0.51459 0.06719 0.0
C272 C 0.2998 0.61736 0.13064 0.0
O273 O 0.28879 0.51462 0.0684 0.0
C274 C 0.23118 0.59238 0.05262 0.0
O275 O 0.29481 0.54142 0.14822 0.0
O276 O 0.25267 0.54236 0.11997 0.0
O277 O 0.29905 0.62232 0.08699 0.0
O278 O 0.30156 0.59293 0.14551 0.0
C279 C 0.27165 0.56024 0.96943 0.0
O280 O 0.23439 0.5666 0.0462 0.0
O281 O 0.25169 0.60795 0.05872 0.0
C282 C 0.26916 0.53809 0.15331 0.0
O283 O 0.27259 0.54078 0.9984 0.0
O284 O 0.27302 0.58524 0.98279 0.0
C285 C 0.34195 0.59555 0.03982 0.0
Fe286 Fe 0.56382 0.69897 0.907 0.0
Fe287 Fe 0.54319 0.75227 0.95249 0.0
O288 O 0.56947 0.72708 0.94526 0.0
Fe289 Fe 0.60143 0.72964 0.97523 0.0
O290 O 0.59755 0.69584 1.00215 0.0
O291 O 0.58686 0.67476 0.93717 0.0
O292 O 0.5359 0.68637 0.94292 0.0
C293 C 0.51465 0.70043 0.95243 0.0
C294 C 0.61604 0.71334 0.8827 0.0
O295 O 0.51467 0.72666 0.94804 0.0
C296 C 0.59323 0.78431 0.95489 0.0
O297 O 0.53953 0.71686 0.86891 0.0
O298 O 0.54205 0.76016 0.88997 0.0
O299 O 0.62185 0.71533 0.92596 0.0
O300 O 0.59138 0.71064 0.86924 0.0
C301 C 0.56146 0.74749 0.04273 0.0
O302 O 0.56729 0.78186 0.96062 0.0
O303 O 0.6083 0.76329 0.95088 0.0
C304 C 0.53558 0.74206 0.86021 0.0
O305 O 0.54173 0.74646 0.01427 0.0
O306 O 0.58632 0.74454 0.02929 0.0
C307 C 0.59571 0.67393 0.97866 0.0
Fe308 Fe 0.70109 0.45167 0.10568 0.0
Fe309 Fe 0.75379 0.4725 0.05886 0.0
O310 O 0.72904 0.44593 0.06724 0.0
Fe311 Fe 0.73165 0.4138 0.03805 0.0
O312 O 0.69744 0.41712 0.01201 0.0
O313 O 0.67706 0.42769 0.0775 0.0
O314 O 0.68798 0.47869 0.06836 0.0
C315 C 0.70157 0.50021 0.0586 0.0
C316 C 0.71619 0.40004 0.13192 0.0
O317 O 0.72779 0.50074 0.06355 0.0
C318 C 0.78647 0.42289 0.05632 0.0
O319 O 0.71887 0.4768 0.14239 0.0
O320 O 0.76212 0.47406 0.12117 0.0
O321 O 0.71834 0.39368 0.08877 0.0
O322 O 0.71338 0.42492 0.14427 0.0
C323 C 0.74827 0.4535 0.9691 0.0
O324 O 0.78362 0.44876 0.05037 0.0
O325 O 0.76571 0.40755 0.06125 0.0
C326 C 0.74409 0.48072 0.15094 0.0
O327 O 0.74749 0.47344 0.99718 0.0
O328 O 0.74562 0.4287 0.9831 0.0
C329 C 0.67583 0.41862 0.03628 0.0
Fe330 Fe 0.47355 0.26523 0.94993 0.0
Fe331 Fe 0.4146 0.28647 0.97061 0.0
O332 O 0.44679 0.28974 0.94159 0.0
Fe333 Fe 0.45234 0.3179 0.90334 0.0
O334 O 0.47975 0.33115 0.93997 0.0
O335 O 0.50154 0.29119 0.94521 0.0
O336 O 0.47442 0.27165 0.01159 0.0
C337 C 0.45446 0.27021 0.03958 0.0
C338 C 0.48157 0.27502 0.85765 0.0
O339 O 0.42963 0.27231 0.02541 0.0
C340 C 0.40067 0.30237 0.8772 0.0
O341 O 0.45017 0.2353 0.95861 0.0
O342 O 0.40872 0.25238 0.94671 0.0
O343 O 0.47729 0.30022 0.86606 0.0
O344 O 0.47519 0.25693 0.88758 0.0
C345 C 0.41899 0.3424 0.97358 0.0
O346 O 0.39431 0.29989 0.92025 0.0
O347 O 0.42549 0.30567 0.86494 0.0
C348 C 0.42446 0.23195 0.95195 0.0
O349 O 0.41749 0.32053 0.99722 0.0
O350 O 0.42836 0.3417 0.93243 0.0
C351 C 0.50118 0.31737 0.94969 0.0
H352 H 0.22075 0.11187 0.22926 0.0
H353 H 0.20076 0.17017 0.12019 0.0
H354 H 0.20199 0.14308 0.28736 0.0
H355 H 0.18249 0.20199 0.17889 0.0
H356 H 0.1092 0.21806 0.28249 0.0
H357 H 0.1406 0.20017 0.22386 0.0
H358 H 0.202 0.18558 0.33059 0.0
H359 H 0.17004 0.20294 0.38983 0.0
C360 C 0.21298 0.13172 0.21778 0.0
C361 C 0.21181 0.1383 0.16994 0.0
C362 C 0.2024 0.1498 0.25128 0.0
C363 C 0.19035 0.17499 0.23789 0.0
C364 C 0.19119 0.18255 0.19035 0.0
C365 C 0.20187 0.16441 0.15671 0.0
C366 C 0.12959 0.21155 0.29345 0.0
C367 C 0.13689 0.21148 0.34103 0.0
C368 C 0.14777 0.20149 0.25963 0.0
C369 C 0.17379 0.19108 0.27243 0.0
C370 C 0.18194 0.19301 0.31959 0.0
C371 C 0.16369 0.20316 0.35354 0.0
H372 H 0.11162 0.79758 0.78632 0.0
H373 H 0.17143 0.81739 0.89309 0.0
H374 H 0.1424 0.81556 0.72686 0.0
H375 H 0.20285 0.83486 0.83302 0.0
H376 H 0.21801 0.90775 0.72827 0.0
H377 H 0.2009 0.87654 0.78779 0.0
H378 H 0.18423 0.81511 0.68199 0.0
H379 H 0.20079 0.84694 0.62183 0.0
C380 C 0.13172 0.80512 0.79698 0.0
C381 C 0.13886 0.8065 0.84456 0.0
C382 C 0.14955 0.81524 0.76271 0.0
C383 C 0.17505 0.82703 0.77505 0.0
C384 C 0.18317 0.82634 0.82235 0.0
C385 C 0.16527 0.81612 0.85678 0.0
C386 C 0.2112 0.88739 0.71767 0.0
C387 C 0.21028 0.88006 0.67014 0.0
C388 C 0.2016 0.86931 0.75201 0.0
C389 C 0.19082 0.84335 0.73978 0.0
C390 C 0.19196 0.83514 0.69257 0.0
C391 C 0.20164 0.85329 0.65808 0.0
H392 H 0.8604 0.84032 0.39024 0.0
H393 H 0.8924 0.77909 0.29548 0.0
H394 H 0.83178 0.85911 0.32849 0.0
H395 H 0.86185 0.79596 0.23412 0.0
H396 H 0.84101 0.85943 0.12054 0.0
H397 H 0.85978 0.83078 0.18232 0.0
H398 H 0.79688 0.86121 0.27688 0.0
H399 H 0.78004 0.89176 0.21549 0.0
C400 C 0.86035 0.83017 0.3565 0.0
C401 C 0.87857 0.80836 0.34744 0.0
C402 C 0.84379 0.84085 0.3208 0.0
C403 C 0.84451 0.82947 0.27539 0.0
C404 C 0.86124 0.80605 0.26781 0.0
C405 C 0.87849 0.79601 0.30315 0.0
C406 C 0.8309 0.85944 0.15434 0.0
C407 C 0.80918 0.87774 0.16345 0.0
C408 C 0.84158 0.84287 0.19005 0.0
C409 C 0.83027 0.84369 0.23551 0.0
C410 C 0.80692 0.86051 0.24314 0.0
C411 C 0.79689 0.87776 0.20779 0.0
H412 H 0.81857 0.16917 0.6195 0.0
H413 H 0.79771 0.11003 0.72678 0.0
H414 H 0.83701 0.20026 0.67923 0.0
H415 H 0.81649 0.14061 0.78597 0.0
H416 H 0.84786 0.20035 0.89001 0.0
H417 H 0.81626 0.18336 0.82981 0.0
H418 H 0.87898 0.19691 0.72493 0.0
H419 H 0.91011 0.21428 0.78451 0.0
C420 C 0.81727 0.1631 0.65586 0.0
C421 C 0.80705 0.13696 0.66832 0.0
C422 C 0.82803 0.18081 0.69008 0.0
C423 C 0.8286 0.17281 0.73742 0.0
C424 C 0.81628 0.14762 0.75004 0.0
C425 C 0.80568 0.12993 0.71595 0.0
C426 C 0.8546 0.20036 0.85392 0.0
C427 C 0.88166 0.20826 0.84219 0.0
C428 C 0.83656 0.19046 0.81944 0.0
C429 C 0.84515 0.18844 0.77253 0.0
C430 C 0.8715 0.19834 0.76051 0.0
C431 C 0.8895 0.20808 0.79486 0.0
H432 H 0.62356 0.73624 0.79699 0.0
H433 H 0.65637 0.67495 0.89086 0.0
H434 H 0.65385 0.71968 0.73503 0.0
H435 H 0.68479 0.65647 0.82852 0.0
H436 H 0.73597 0.62428 0.71442 0.0
H437 H 0.7194 0.65466 0.77625 0.0
H438 H 0.65576 0.68496 0.683 0.0
H439 H 0.67426 0.65651 0.62075 0.0
C440 C 0.63762 0.71938 0.80434 0.0
C441 C 0.63784 0.70693 0.84854 0.0
C442 C 0.65472 0.70952 0.76866 0.0
C443 C 0.67161 0.68616 0.77581 0.0
C444 C 0.67264 0.67468 0.82114 0.0
C445 C 0.65622 0.68519 0.85718 0.0
C446 C 0.71902 0.63822 0.70709 0.0
C447 C 0.70644 0.63825 0.66299 0.0
C448 C 0.70914 0.65537 0.7427 0.0
C449 C 0.68566 0.67209 0.73559 0.0
C450 C 0.67406 0.67294 0.69034 0.0
C451 C 0.68458 0.65649 0.65435 0.0
H452 H 0.6699 0.31469 0.38889 0.0
H453 H 0.60878 0.29901 0.28223 0.0
H454 H 0.7016 0.33205 0.32917 0.0
H455 H 0.63994 0.31682 0.22315 0.0
H456 H 0.69989 0.34623 0.11862 0.0
H457 H 0.68187 0.31471 0.17803 0.0
H458 H 0.70111 0.37449 0.28523 0.0
H459 H 0.71959 0.40545 0.22639 0.0
C460 C 0.66345 0.31435 0.35266 0.0
C461 C 0.63664 0.30587 0.34045 0.0
C462 C 0.68154 0.32449 0.31844 0.0
C463 C 0.67324 0.3262 0.27133 0.0
C464 C 0.64722 0.31567 0.25887 0.0
C465 C 0.62918 0.30565 0.29295 0.0
C466 C 0.701 0.35226 0.15502 0.0
C467 C 0.71079 0.37852 0.16768 0.0
C468 C 0.69047 0.33429 0.18906 0.0
C469 C 0.68965 0.34218 0.23644 0.0
C470 C 0.70153 0.36754 0.24928 0.0
C471 C 0.71194 0.38546 0.21536 0.0
H472 H 0.40653 0.29916 0.78285 0.0
H473 H 0.34623 0.31684 0.88992 0.0
H474 H 0.37518 0.31636 0.72362 0.0
H475 H 0.31425 0.3335 0.83005 0.0
H476 H 0.29655 0.40592 0.72542 0.0
H477 H 0.31462 0.3752 0.78488 0.0
H478 H 0.33337 0.3145 0.67888 0.0
H479 H 0.31584 0.34586 0.6188 0.0
C480 C 0.38624 0.3061 0.79365 0.0
C481 C 0.3791 0.3071 0.84125 0.0
C482 C 0.36808 0.31575 0.75948 0.0
C483 C 0.34223 0.32667 0.77196 0.0
C484 C 0.3342 0.32565 0.81927 0.0
C485 C 0.35243 0.31591 0.85359 0.0
C486 C 0.30399 0.38578 0.71479 0.0
C487 C 0.30522 0.37856 0.66724 0.0
C488 C 0.31416 0.36799 0.74908 0.0
C489 C 0.32584 0.34244 0.73676 0.0
C490 C 0.32496 0.33424 0.68953 0.0
C491 C 0.31471 0.3521 0.65509 0.0
H492 H 0.33851 0.65734 0.12107 0.0
H493 H 0.27703 0.62615 0.2162 0.0
H494 H 0.35751 0.68605 0.18252 0.0
H495 H 0.29413 0.65678 0.27722 0.0
H496 H 0.35757 0.67763 0.39084 0.0
H497 H 0.32884 0.65888 0.32915 0.0
H498 H 0.36015 0.72099 0.23392 0.0
H499 H 0.39074 0.73781 0.29526 0.0
C500 C 0.32832 0.65762 0.15479 0.0
C501 C 0.30636 0.63959 0.16402 0.0
C502 C 0.33915 0.67422 0.19034 0.0
C503 C 0.3278 0.67374 0.2358 0.0
C504 C 0.30422 0.65723 0.24351 0.0
C505 C 0.29402 0.63994 0.20833 0.0
C506 C 0.35775 0.68759 0.35692 0.0
C507 C 0.37631 0.70909 0.34767 0.0
C508 C 0.34114 0.67691 0.32123 0.0
C509 C 0.34216 0.68798 0.2756 0.0
C510 C 0.35927 0.71112 0.26779 0.0
C511 C 0.37654 0.72115 0.30313 0.0
H512 H 0.15171 0.9992 0.09434 0.0
H513 H 0.22223 0.97043 0.01584 0.0
H514 H 0.12718 0.95627 0.07635 0.0
H515 H 0.1973 0.92782 0.99693 0.0
H516 H 0.12419 0.88035 0.923 0.0
H517 H 0.15013 0.92098 0.94739 0.0
H518 H 0.13526 0.9005 0.09189 0.0
H519 H 0.10967 0.85898 0.06749 0.0
C520 C 0.16197 0.98372 0.07326 0.0
C521 C 0.18889 0.98823 0.05634 0.0
C522 C 0.14798 0.95911 0.0633 0.0
C523 C 0.16039 0.93879 0.03536 0.0
C524 C 0.18731 0.94321 0.01857 0.0
C525 C 0.20155 0.96754 0.02943 0.0
C526 C 0.1263 0.88447 0.96004 0.0
C527 C 0.11472 0.86651 0.99338 0.0
C528 C 0.14135 0.90764 0.97391 0.0
C529 C 0.14474 0.91378 0.02143 0.0
C530 C 0.13288 0.89615 0.05498 0.0
C531 C 0.11831 0.87246 0.04107 0.0
H532 H 0.84933 0.88487 0.95956 0.0
H533 H 0.89348 0.9276 0.06899 0.0
H534 H 0.8918 0.86051 0.93814 0.0
H535 H 0.93554 0.90319 0.048 0.0
H536 H 0.01208 0.87295 0.97158 0.0
H537 H 0.97 0.89907 0.98605 0.0
H538 H 0.92191 0.82437 0.97352 0.0
H539 H 0.96408 0.79813 0.95841 0.0
C540 C 0.86812 0.88935 0.97861 0.0
C541 C 0.86797 0.90816 0.01605 0.0
C542 C 0.89238 0.87519 0.96666 0.0
C543 C 0.91703 0.87977 0.99156 0.0
C544 C 0.91701 0.89931 0.02784 0.0
C545 C 0.89282 0.91325 0.03998 0.0
C546 C 0.99256 0.86202 0.97189 0.0
C547 C 0.99153 0.83337 0.96392 0.0
C548 C 0.96842 0.87703 0.98032 0.0
C549 C 0.94257 0.86384 0.98086 0.0
C550 C 0.94146 0.83522 0.97273 0.0
C551 C 0.96567 0.82014 0.96453 0.0
H552 H 0.92634 0.12336 0.94459 0.0
H553 H 0.88206 0.16952 0.04982 0.0
H554 H 0.90088 0.082 0.9656 0.0
H555 H 0.85666 0.12766 0.07141 0.0
H556 H 0.79495 0.05408 0.05315 0.0
H557 H 0.82095 0.0964 0.037 0.0
H558 H 0.89628 0.04897 0.02879 0.0
H559 H 0.87054 1.00694 0.04401 0.0
C560 C 0.91139 0.12463 0.97267 0.0
C561 C 0.90627 0.14982 0.99548 0.0
C562 C 0.89682 0.10083 0.98483 0.0
C563 C 0.87665 0.1015 0.02011 0.0
C564 C 0.87185 0.12654 0.0437 0.0
C565 C 0.88661 0.15044 0.03168 0.0
C566 C 0.81704 0.05271 0.04773 0.0
C567 C 0.83058 0.02704 0.0497 0.0
C568 C 0.83197 0.07699 0.03891 0.0
C569 C 0.8607 0.07607 0.03158 0.0
C570 C 0.87415 0.05041 0.03371 0.0
C571 C 0.85933 0.02627 0.04263 0.0
H572 H 0.05547 0.21997 0.96016 0.0
H573 H 1.00671 0.14642 0.98237 0.0
H574 H 0.09741 0.19388 0.97824 0.0
H575 H 0.04846 0.12048 0.99985 0.0
H576 H 0.12551 0.0923 0.08094 0.0
H577 H 0.08378 0.11765 0.06079 0.0
H578 H 0.12637 0.15603 0.94526 0.0
H579 H 0.1684 0.13079 0.96566 0.0
C580 C 0.05366 0.19831 0.96902 0.0
C581 C 0.02767 0.18534 0.9698 0.0
C582 C 0.07772 0.18329 0.97896 0.0
C583 C 0.07631 0.15505 0.99036 0.0
C584 C 0.0503 0.14223 0.99161 0.0
C585 C 0.02634 0.15713 0.98138 0.0
C586 C 0.12598 0.10593 0.05093 0.0
C587 C 0.15039 0.10946 0.02496 0.0
C588 C 0.10198 0.12044 0.03932 0.0
C589 C 0.10175 0.13901 1.00156 0.0
C590 C 0.12597 0.14217 0.97495 0.0
C591 C 0.14998 0.12747 0.98636 0.0
H592 H 0.86817 1.00105 0.58674 0.0
H593 H 0.79809 0.97059 0.50892 0.0
H594 H 0.89347 0.95855 0.56933 0.0
H595 H 0.82384 0.92834 0.49051 0.0
H596 H 0.89777 0.88095 0.41864 0.0
H597 H 0.87148 0.92167 0.44137 0.0
H598 H 0.88587 0.90297 0.58668 0.0
H599 H 0.91177 0.86135 0.56402 0.0
C600 C 0.8582 0.98531 0.56582 0.0
C601 C 0.83117 0.98919 0.54897 0.0
C602 C 0.87262 0.96094 0.55622 0.0
C603 C 0.86056 0.94024 0.5287 0.0
C604 C 0.83356 0.94405 0.51183 0.0
C605 C 0.81886 0.96816 0.52237 0.0
C606 C 0.89553 0.88551 0.45551 0.0
C607 C 0.90701 0.86798 0.4896 0.0
C608 C 0.88026 0.90871 0.46842 0.0
C609 C 0.87657 0.91533 0.51569 0.0
C610 C 0.88846 0.89823 0.54996 0.0
C611 C 0.90325 0.87451 0.53703 0.0
H612 H 0.89284 0.09059 0.57052 0.0
H613 H 0.84786 0.13333 0.46204 0.0
H614 H 0.93468 0.11525 0.54888 0.0
H615 H 0.89007 0.15793 0.44005 0.0
H616 H 0.96252 0.22025 0.45813 0.0
H617 H 0.9205 0.19408 0.47482 0.0
H618 H 0.96857 0.1193 0.4857 0.0
H619 H 0.01051 0.14534 0.46958 0.0
C620 C 0.89193 0.10503 0.54164 0.0
C621 C 0.86693 0.11 0.5181 0.0
C622 C 0.916 0.11911 0.52913 0.0
C623 C 0.91571 0.13868 0.49289 0.0
C624 C 0.89088 0.14323 0.46852 0.0
C625 C 0.86677 0.12893 0.48082 0.0
C626 C 0.96414 0.19824 0.46421 0.0
C627 C 0.98995 0.18495 0.46262 0.0
C628 C 0.94001 0.18321 0.47334 0.0
C629 C 0.94116 0.15459 0.48147 0.0
C630 C 0.96697 0.14135 0.47999 0.0
C631 C 0.99103 0.15631 0.47059 0.0
H632 H 0.10744 0.15758 0.56253 0.0
H633 H 0.12133 0.13706 0.41752 0.0
H634 H 0.13218 0.11536 0.5859 0.0
H635 H 0.14646 0.09572 0.44092 0.0
H636 H 0.21852 0.04559 0.50988 0.0
H637 H 0.19377 0.08829 0.49092 0.0
H638 H 0.12303 0.05954 0.56848 0.0
H639 H 0.14739 0.0165 0.58648 0.0
C640 C 0.11576 0.14412 0.53578 0.0
C641 C 0.11227 0.15054 0.48824 0.0
C642 C 0.12983 0.12003 0.54911 0.0
C643 C 0.14127 0.10245 0.51511 0.0
C644 C 0.13796 0.10902 0.46775 0.0
C645 C 0.1234 0.1326 0.45445 0.0
C646 C 0.19771 0.0484 0.52291 0.0
C647 C 0.18485 0.02763 0.54939 0.0
C648 C 0.18359 0.07278 0.51207 0.0
C649 C 0.15659 0.07716 0.52847 0.0
C650 C 0.14391 0.0567 0.55575 0.0
C651 C 0.15778 0.03203 0.56567 0.0
H652 H 0.1571 0.90833 0.44843 0.0
H653 H 0.13521 0.89619 0.59332 0.0
H654 H 0.1158 0.88226 0.42479 0.0
H655 H 0.09472 0.86972 0.56968 0.0
H656 H 0.04533 0.79653 0.50303 0.0
H657 H 0.08776 0.82178 0.52246 0.0
H658 H 0.06045 0.89051 0.43854 0.0
H659 H 0.0178 0.86574 0.42008 0.0
C660 C 0.14352 0.90014 0.47511 0.0
C661 C 0.14929 0.90452 0.52268 0.0
C662 C 0.11996 0.88526 0.46163 0.0
C663 C 0.10226 0.87388 0.4955 0.0
C664 C 0.10816 0.8781 0.54293 0.0
C665 C 0.13122 0.89347 0.55636 0.0
C666 C 0.04847 0.81697 0.48862 0.0
C667 C 0.02818 0.82921 0.46031 0.0
C668 C 0.07266 0.8314 0.49978 0.0
C669 C 0.07733 0.85803 0.48184 0.0
C670 C 0.05741 0.86995 0.45253 0.0
C671 C 0.03295 0.85583 0.4423 0.0
H672 H 0.64448 0.50929 0.5403 0.0
H673 H 0.71993 0.46229 0.55324 0.0
H674 H 0.61909 0.46712 0.52369 0.0
H675 H 0.69436 0.41992 0.53594 0.0
H676 H 0.6336 0.34668 0.54736 0.0
H677 H 0.65823 0.38886 0.56945 0.0
H678 H 0.61569 0.4335 0.46048 0.0
H679 H 0.591 0.39172 0.4388 0.0
C680 C 0.65572 0.48996 0.53951 0.0
C681 C 0.68433 0.48926 0.54806 0.0
C682 C 0.64112 0.46576 0.52979 0.0
C683 C 0.65466 0.44011 0.52846 0.0
C684 C 0.68325 0.4393 0.53722 0.0
C685 C 0.69795 0.46362 0.54673 0.0
C686 C 0.62926 0.36559 0.52854 0.0
C687 C 0.6103 0.36578 0.49128 0.0
C688 C 0.64358 0.38969 0.5409 0.0
C689 C 0.63904 0.41454 0.5166 0.0
C690 C 0.61954 0.41482 0.48023 0.0
C691 C 0.60542 0.39078 0.46769 0.0
H692 H 0.379 0.39308 0.59124 0.0
H693 H 0.35975 0.40799 0.446 0.0
H694 H 0.42004 0.36733 0.56838 0.0
H695 H 0.4017 0.38259 0.42318 0.0
H696 H 0.50034 0.36666 0.42462 0.0
H697 H 0.45722 0.39105 0.44167 0.0
H698 H 0.42769 0.32029 0.51831 0.0
H699 H 0.47053 0.29548 0.50029 0.0
C700 C 0.38367 0.39109 0.55437 0.0
C701 C 0.36621 0.40273 0.52035 0.0
C702 C 0.40707 0.37614 0.54138 0.0
C703 C 0.41393 0.37295 0.49412 0.0
C704 C 0.39678 0.38483 0.45991 0.0
C705 C 0.37286 0.3993 0.47291 0.0
C706 C 0.48462 0.35626 0.44501 0.0
C707 C 0.48886 0.32919 0.46136 0.0
C708 C 0.4599 0.37016 0.45437 0.0
C709 C 0.4392 0.35749 0.48113 0.0
C710 C 0.44338 0.33046 0.49754 0.0
C711 C 0.46784 0.31631 0.48725 0.0
H712 H 0.37169 0.50514 0.53858 0.0
H713 H 0.29698 0.55312 0.55335 0.0
H714 H 0.3977 0.54721 0.52322 0.0
H715 H 0.3231 0.59527 0.53746 0.0
H716 H 0.38398 0.66766 0.55095 0.0
H717 H 0.35969 0.62519 0.57247 0.0
H718 H 0.40114 0.58183 0.46088 0.0
H719 H 0.42548 0.62394 0.43968 0.0
C720 C 0.36077 0.52465 0.53847 0.0
C721 C 0.33219 0.52569 0.54713 0.0
C722 C 0.3757 0.54877 0.52951 0.0
C723 C 0.3625 0.57462 0.52921 0.0
C724 C 0.33395 0.57572 0.53804 0.0
C725 C 0.31894 0.55153 0.5467 0.0
C726 C 0.3882 0.64896 0.53148 0.0
C727 C 0.40666 0.64924 0.49353 0.0
C728 C 0.37407 0.62471 0.54351 0.0
C729 C 0.37835 0.60016 0.51821 0.0
C730 C 0.39751 0.60028 0.48134 0.0
C731 C 0.4114 0.6245 0.46909 0.0
H732 H 0.54479 0.71943 0.49876 0.0
H733 H 0.51456 0.64936 0.4207 0.0
H734 H 0.58729 0.69399 0.51655 0.0
H735 H 0.55735 0.62433 0.43754 0.0
H736 H 0.65478 0.60617 0.44417 0.0
H737 H 0.61327 0.6321 0.42073 0.0
H738 H 0.59362 0.64636 0.56572 0.0
H739 H 0.63416 0.62009 0.58917 0.0
C740 C 0.54734 0.69874 0.48507 0.0
C741 C 0.52628 0.68633 0.45865 0.0
C742 C 0.5716 0.68422 0.49524 0.0
C743 C 0.57554 0.65728 0.47822 0.0
C744 C 0.55486 0.64514 0.45075 0.0
C745 C 0.53033 0.6594 0.44149 0.0
C746 C 0.64145 0.6147 0.4709 0.0
C747 C 0.64764 0.61089 0.51845 0.0
C748 C 0.61779 0.62949 0.45754 0.0
C749 C 0.60045 0.64132 0.49152 0.0
C750 C 0.60676 0.63763 0.53889 0.0
C751 C 0.62989 0.62237 0.55221 0.0
H752 H 0.40877 0.35919 0.06386 0.0
H753 H 0.39645 0.38279 0.91979 0.0
H754 H 0.38353 0.40071 0.08904 0.0
H755 H 0.3708 0.42347 0.94496 0.0
H756 H 0.29733 0.47136 0.01382 0.0
H757 H 0.32283 0.42938 0.99329 0.0
H758 H 0.39185 0.45685 0.07638 0.0
H759 H 0.36674 0.49923 0.096 0.0
C760 C 0.40074 0.3732 0.03768 0.0
C761 C 0.40477 0.36779 0.98988 0.0
C762 C 0.38636 0.3969 0.05205 0.0
C763 C 0.37513 0.41514 0.01886 0.0
C764 C 0.3791 0.40965 0.97121 0.0
C765 C 0.39398 0.38645 0.9569 0.0
C766 C 0.31789 0.46838 0.02789 0.0
C767 C 0.33005 0.48865 0.05638 0.0
C768 C 0.33247 0.44442 0.01606 0.0
C769 C 0.35925 0.43991 0.03337 0.0
C770 C 0.37117 0.45978 0.06283 0.0
C771 C 0.35685 0.48406 0.07378 0.0
H772 H 0.38037 0.6196 0.09601 0.0
H773 H 0.36126 0.60449 0.95079 0.0
H774 H 0.42108 0.64596 0.07298 0.0
H775 H 0.40273 0.63044 0.92786 0.0
H776 H 0.49984 0.64865 0.92482 0.0
H777 H 0.45752 0.62348 0.94364 0.0
H778 H 0.42858 0.69299 0.0241 0.0
H779 H 0.47074 0.71863 1.00428 0.0
C780 C 0.38504 0.62159 0.05914 0.0
C781 C 0.36765 0.60978 0.02516 0.0
C782 C 0.40822 0.63692 0.04604 0.0
C783 C 0.41493 0.64033 0.99871 0.0
C784 C 0.39796 0.62808 0.96463 0.0
C785 C 0.37431 0.61324 0.97771 0.0
C786 C 0.48441 0.65864 0.94637 0.0
C787 C 0.48865 0.68561 0.96324 0.0
C788 C 0.46014 0.64427 0.95685 0.0
C789 C 0.43985 0.6563 0.98528 0.0
C790 C 0.44399 0.68326 1.00215 0.0
C791 C 0.46802 0.69792 0.99074 0.0
H792 H 0.63163 0.66699 0.05235 0.0
H793 H 0.59044 0.62243 0.9417 0.0
H794 H 0.65728 0.62515 0.07293 0.0
H795 H 0.61615 0.58102 0.96184 0.0
H796 H 0.6467 0.50494 0.03873 0.0
H797 H 0.62031 0.54664 0.02361 0.0
H798 H 0.69434 0.59557 0.03814 0.0
H799 H 0.72095 0.55361 0.05401 0.0
C800 C 0.62777 0.64824 0.03282 0.0
C801 C 0.60893 0.64809 0.99539 0.0
C802 C 0.6427 0.62436 0.04427 0.0
C803 C 0.63888 0.59977 0.01886 0.0
C804 C 0.61945 0.5995 0.98241 0.0
C805 C 0.60473 0.62331 0.97079 0.0
C806 C 0.65747 0.52454 0.03872 0.0
C807 C 0.68603 0.52585 0.04754 0.0
C808 C 0.64229 0.54848 0.02987 0.0
C809 C 0.65517 0.57447 0.02968 0.0
C810 C 0.68373 0.57589 0.03857 0.0
C811 C 0.69902 0.55182 0.04721 0.0
H812 H 0.51582 0.36972 0.92386 0.0
H813 H 0.54527 0.29842 0.99957 0.0
H814 H 0.55895 0.39405 0.94148 0.0
H815 H 0.58806 0.32312 0.01811 0.0
H816 H 0.63688 0.39528 0.09175 0.0
H817 H 0.59544 0.37034 0.06843 0.0
H818 H 0.61482 0.38491 0.92342 0.0
H819 H 0.65716 0.4095 0.9467 0.0
C820 C 0.53145 0.35929 0.94439 0.0
C821 C 0.52714 0.33219 0.96055 0.0
C822 C 0.55617 0.37314 0.95407 0.0
C823 C 0.57675 0.36039 0.98099 0.0
C824 C 0.57246 0.33335 0.99724 0.0
C825 C 0.54803 0.31926 0.98665 0.0
C826 C 0.63234 0.39334 0.05482 0.0
C827 C 0.65025 0.40449 0.02099 0.0
C828 C 0.6087 0.37887 0.04158 0.0
C829 C 0.60205 0.37568 0.99424 0.0
C830 C 0.61958 0.38717 0.9602 0.0
C831 C 0.64373 0.40116 0.97347 0.0
H832 H 0.28969 0.98191 0.70619 0.0
H833 H 0.2102 0.02139 0.69198 0.0
H834 H 0.2968 1.0064 0.78053 0.0
H835 H 0.21707 0.04535 0.76533 0.0
H836 H 0.23779 0.09382 0.89325 0.0
H837 H 0.24285 0.07945 0.81138 0.0
H838 H 0.27412 1.00039 0.85682 0.0
H839 H 0.2694 0.01462 0.93748 0.0
C840 C 0.27404 0.99613 0.71849 0.0
C841 C 0.24923 0.99934 0.69377 0.0
C842 C 0.27801 0.01008 0.76101 0.0
C843 C 0.25741 0.02776 0.77899 0.0
C844 C 0.23348 0.03219 0.75247 0.0
C845 C 0.22941 0.01811 0.71061 0.0
C846 C 0.24614 0.07358 0.88556 0.0
C847 C 0.25269 0.05523 0.92187 0.0
C848 C 0.24902 0.06531 0.83878 0.0
C849 C 0.25883 0.0387 0.82756 0.0
C850 C 0.26683 0.02109 0.864 0.0
C851 C 0.26372 0.02919 0.91043 0.0
H852 H 0.02143 0.80339 0.32198 0.0
H853 H 0.98018 0.72505 0.30448 0.0
H854 H 0.04608 0.7966 0.24937 0.0
H855 H 1.00548 0.71793 0.23088 0.0
H856 H 0.01589 0.74635 0.07493 0.0
H857 H 1.00108 0.74064 0.15507 0.0
H858 H 0.07983 0.77139 0.20317 0.0
H859 H 0.09471 0.77759 0.12181 0.0
C860 C 0.01792 0.78442 0.30279 0.0
C861 C 0.99841 0.76497 0.31845 0.0
C862 C 0.03241 0.78038 0.26133 0.0
C863 C 0.02773 0.7568 0.23403 0.0
C864 C 0.00936 0.73647 0.25096 0.0
C865 C 0.99494 0.74044 0.29307 0.0
C866 C 0.03028 0.75169 0.10247 0.0
C867 C 0.05634 0.76301 0.09191 0.0
C868 C 0.02184 0.74801 0.14861 0.0
C869 C 0.03915 0.75564 0.1857 0.0
C870 C 0.06588 0.76555 0.17531 0.0
C871 C 0.07446 0.76906 0.1288 0.0
H872 H 0.77792 0.92321 0.89132 0.0
H873 H 0.74563 1.00193 0.9366 0.0
H874 H 0.77284 0.9379 0.80972 0.0
H875 H 0.74093 0.01653 0.856 0.0
H876 H 0.72599 0.03515 0.70459 0.0
H877 H 0.71872 0.01074 0.77899 0.0
H878 H 0.7988 0.97234 0.76493 0.0
H879 H 0.80582 0.99622 0.69159 0.0
C880 C 0.76939 0.94341 0.88391 0.0
C881 C 0.76267 0.96154 0.92045 0.0
C882 C 0.76651 0.95186 0.83726 0.0
C883 C 0.75659 0.97847 0.82636 0.0
C884 C 0.74834 0.99584 0.86298 0.0
C885 C 0.75142 0.98753 0.90934 0.0
C886 C 0.7417 0.02109 0.71718 0.0
C887 C 0.76662 0.01798 0.69275 0.0
C888 C 0.73763 1.00718 0.75972 0.0
C889 C 0.75825 0.98963 0.77797 0.0
C890 C 0.78236 0.98537 0.75183 0.0
C891 C 0.78652 0.99941 0.70996 0.0
H892 H 0.9991 0.2748 0.07606 0.0
H893 H 0.92246 0.2372 0.11971 0.0
H894 H 0.01329 0.27946 0.15683 0.0
H895 H 0.93666 0.24227 0.20162 0.0
H896 H 0.99681 0.2104 0.31783 0.0
H897 H 0.97221 0.21767 0.24533 0.0
H898 H 1.00709 0.29953 0.23473 0.0
H899 H 0.03233 0.29199 0.30823 0.0
C900 C 0.98502 0.2679 0.10307 0.0
C901 C 0.95984 0.25509 0.09142 0.0
C902 C 0.99307 0.27093 0.14955 0.0
C903 C 0.97625 0.2611 0.1858 0.0
C904 C 0.95024 0.24981 0.17439 0.0
C905 C 0.94203 0.24697 0.12758 0.0
C906 C 0.99911 0.23013 0.3004 0.0
C907 C 0.01698 0.25046 0.31831 0.0
C908 C 0.98462 0.23443 0.25902 0.0
C909 C 0.98767 0.25914 0.23402 0.0
C910 C 1.00447 0.28014 0.25305 0.0
C911 C 0.01886 0.27591 0.29509 0.0
H912 H 0.80724 0.01749 0.19402 0.0
H913 H 0.72575 0.98182 0.20478 0.0
H914 H 0.80016 0.04233 0.2663 0.0
H915 H 0.71843 1.00729 0.27813 0.0
H916 H 0.74352 0.01658 0.43646 0.0
H917 H 0.7389 1.00165 0.35607 0.0
H918 H 0.77534 0.07822 0.30927 0.0
H919 H 0.78034 0.09319 0.39083 0.0
C920 C 0.78759 0.01516 0.21169 0.0
C921 C 0.76722 0.99721 0.19412 0.0
C922 C 0.7834 0.02981 0.25294 0.0
C923 C 0.75877 0.02684 0.27816 0.0
C924 C 0.73775 0.00987 0.2596 0.0
C925 C 0.74186 0.99532 0.21766 0.0
C926 C 0.75028 0.03048 0.40909 0.0
C927 C 0.76284 0.05589 0.42008 0.0
C928 C 0.74727 0.022 0.36283 0.0
C929 C 0.75688 0.03861 0.32615 0.0
C930 C 0.76797 0.06481 0.33687 0.0
C931 C 0.77078 0.07345 0.38347 0.0
H932 H 0.01651 0.27201 0.57578 0.0
H933 H 0.09353 0.23492 0.61878 0.0
H934 H 1.00218 0.2758 0.65667 0.0
H935 H 0.07911 0.23899 0.70077 0.0
H936 H 0.01935 0.20703 0.81779 0.0
H937 H 0.04319 0.21396 0.74437 0.0
H938 H 0.00926 0.29622 0.73477 0.0
H939 H 0.98489 0.28912 0.8092 0.0
C940 C 0.03061 0.26497 0.60266 0.0
C941 C 0.056 0.25267 0.5908 0.0
C942 C 0.02247 0.2675 0.64919 0.0
C943 C 0.03939 0.25761 0.68525 0.0
C944 C 0.06549 0.24661 0.67367 0.0
C945 C 0.07381 0.24433 0.62682 0.0
C946 C 0.01708 0.22677 0.80038 0.0
C947 C 0.99981 0.2474 0.81896 0.0
C948 C 0.03112 0.23084 0.75845 0.0
C949 C 0.02816 0.2556 0.73358 0.0
C950 C 0.01182 0.27681 0.75304 0.0
C951 C 0.99792 0.27282 0.7956 0.0
H952 H 0.22778 0.93062 0.38915 0.0
H953 H 0.2815 0.99443 0.44224 0.0
H954 H 0.2341 0.9489 0.30954 0.0
H955 H 0.2881 0.0122 0.36371 0.0
H956 H 0.25051 0.06099 0.23962 0.0
H957 H 0.2548 0.03732 0.31452 0.0
H958 H 0.26719 0.95987 0.24262 0.0
H959 H 0.263 0.98401 0.16728 0.0
C960 C 0.24145 0.94803 0.38364 0.0
C961 C 0.25373 0.96142 0.42185 0.0
C962 C 0.24511 0.95849 0.33819 0.0
C963 C 0.26122 0.98234 0.33053 0.0
C964 C 0.27508 0.99424 0.36853 0.0
C965 C 0.27132 0.98399 0.41352 0.0
C966 C 0.25513 0.0391 0.23996 0.0
C967 C 0.25722 0.02439 0.19804 0.0
C968 C 0.25746 0.02546 0.28275 0.0
C969 C 0.26141 0.99667 0.28453 0.0
C970 C 0.26412 0.98202 0.24235 0.0
C971 C 0.26215 0.99583 0.19938 0.0
H972 H 0.99968 0.8092 0.8185 0.0
H973 H 0.03491 0.7275 0.80869 0.0
H974 H 0.97549 0.80227 0.74545 0.0
H975 H 0.01018 0.72037 0.73458 0.0
H976 H 1.00176 0.74516 0.57593 0.0
H977 H 0.01664 0.74122 0.65651 0.0
H978 H 0.93961 0.77701 0.70243 0.0
H979 H 0.92464 0.7813 0.62085 0.0
C980 C 1.00204 0.78954 0.80088 0.0
C981 C 0.01963 0.76903 0.81895 0.0
C982 C 0.9878 0.78545 0.75919 0.0
C983 C 0.99088 0.7608 0.73407 0.0
C984 C 1.00753 0.73969 0.75307 0.0
C985 C 0.02163 0.74369 0.79544 0.0
C986 C 0.98776 0.75196 0.60313 0.0
C987 C 0.96216 0.76404 0.59189 0.0
C988 C 0.99622 0.74934 0.64948 0.0
C989 C 0.97941 0.75887 0.68594 0.0
C990 C 0.95315 0.76967 0.67499 0.0
C991 C 0.94452 0.77209 0.62836 0.0
H992 H 0.73833 0.59293 0.39011 0.0
H993 H 0.76851 0.51355 0.43635 0.0
H994 H 0.74442 0.5783 0.3087 0.0
H995 H 0.77414 0.499 0.356 0.0
H996 H 0.79085 0.47957 0.20614 0.0
H997 H 0.79758 0.50418 0.28047 0.0
H998 H 0.71889 0.54476 0.26202 0.0
H999 H 0.71246 0.52073 0.18867 0.0
C1000 C 0.74657 0.57258 0.38298 0.0
C1001 C 0.75243 0.55428 0.41972 0.0
C1002 C 0.75004 0.56416 0.33643 0.0
C1003 C 0.75968 0.5374 0.32583 0.0
C1004 C 0.767 0.51982 0.36272 0.0
C1005 C 0.76337 0.5281 0.40895 0.0
C1006 C 0.77538 0.49419 0.21772 0.0
C1007 C 0.75095 0.49785 0.19213 0.0
C1008 C 0.77912 0.5082 0.26024 0.0
C1009 C 0.75867 0.52635 0.27732 0.0
C1010 C 0.73519 0.53123 0.24989 0.0
C1011 C 0.73135 0.51712 0.20801 0.0
H1012 H 0.51741 0.24194 0.57412 0.0
H1013 H 0.59366 0.28025 0.61791 0.0
H1014 H 0.5027 0.23815 0.65481 0.0
H1015 H 0.57891 0.27613 0.69973 0.0
H1016 H 0.51807 0.30861 0.81441 0.0
H1017 H 0.54267 0.30108 0.74197 0.0
H1018 H 0.50898 0.21865 0.73355 0.0
H1019 H 0.4838 0.22641 0.80706 0.0
C1020 C 0.53128 0.2492 0.60116 0.0
C1021 C 0.55652 0.26191 0.58955 0.0
C1022 C 0.52294 0.24668 0.64759 0.0
C1023 C 0.5395 0.25697 0.6838 0.0
C1024 C 0.56554 0.26823 0.6725 0.0
C1025 C 0.57406 0.27053 0.62575 0.0
C1026 C 0.516 0.28872 0.79748 0.0
C1027 C 0.49853 0.26824 0.81608 0.0
C1028 C 0.5305 0.28428 0.75613 0.0
C1029 C 0.52784 0.25929 0.73182 0.0
C1030 C 0.51132 0.23823 0.75137 0.0
C1031 C 0.49695 0.2426 0.79341 0.0
H1032 H 0.2694 0.56071 0.23905 0.0
H1033 H 0.25103 0.48536 0.16528 0.0
H1034 H 0.26446 0.53666 0.3135 0.0
H1035 H 0.24637 0.46082 0.24024 0.0
H1036 H 0.28705 0.42941 0.38608 0.0
H1037 H 0.28082 0.44809 0.30665 0.0
H1038 H 0.22893 0.5127 0.36211 0.0
H1039 H 0.23528 0.49447 0.44038 0.0
C1040 C 0.2634 0.53914 0.23901 0.0
C1041 C 0.25984 0.525 0.19681 0.0
C1042 C 0.26071 0.5253 0.28152 0.0
C1043 C 0.25497 0.49681 0.28272 0.0
C1044 C 0.25081 0.48273 0.24034 0.0
C1045 C 0.25306 0.4968 0.19763 0.0
C1046 C 0.27383 0.44718 0.38089 0.0
C1047 C 0.26212 0.46081 0.41939 0.0
C1048 C 0.27022 0.45786 0.33557 0.0
C1049 C 0.25476 0.48217 0.32838 0.0
C1050 C 0.24139 0.49433 0.36662 0.0
C1051 C 0.24506 0.48383 0.41146 0.0
H1052 H 0.50141 0.77017 0.57492 0.0
H1053 H 0.42292 0.73773 0.62114 0.0
H1054 H 0.51644 0.77467 0.65528 0.0
H1055 H 0.43807 0.74257 0.70259 0.0
H1056 H 0.49707 0.7096 0.81986 0.0
H1057 H 0.47286 0.71662 0.74683 0.0
H1058 H 0.51104 0.79677 0.73244 0.0
H1059 H 0.53578 0.78953 0.80655 0.0
C1060 C 0.48715 0.7643 0.60236 0.0
C1061 C 0.46109 0.75307 0.59155 0.0
C1062 C 0.49572 0.76726 0.64859 0.0
C1063 C 0.47856 0.75891 0.68544 0.0
C1064 C 0.45188 0.74899 0.67487 0.0
C1065 C 0.44316 0.74624 0.62832 0.0
C1066 C 0.50017 0.72891 0.80147 0.0
C1067 C 0.51876 0.74884 0.81854 0.0
C1068 C 0.48593 0.73306 0.75978 0.0
C1069 C 0.49 0.7572 0.73365 0.0
C1070 C 0.50762 0.77783 0.75171 0.0
C1071 C 0.52172 0.77378 0.79408 0.0
H1072 H 0.27832 0.59242 0.89059 0.0
H1073 H 0.2525 0.51136 0.93615 0.0
H1074 H 0.27239 0.57788 0.80901 0.0
H1075 H 0.24686 0.49703 0.85572 0.0
H1076 H 0.22767 0.47846 0.70652 0.0
H1077 H 0.2214 0.5025 0.7815 0.0
H1078 H 0.29876 0.54517 0.76055 0.0
H1079 H 0.30479 0.52158 0.68654 0.0
C1080 C 0.27112 0.57169 0.88329 0.0
C1081 C 0.26634 0.55297 0.91988 0.0
C1082 C 0.26771 0.56335 0.83667 0.0
C1083 C 0.25912 0.53627 0.82588 0.0
C1084 C 0.25311 0.51811 0.86264 0.0
C1085 C 0.25675 0.52629 0.9089 0.0
C1086 C 0.24292 0.49343 0.71768 0.0
C1087 C 0.2669 0.4978 0.69122 0.0
C1088 C 0.23945 0.5071 0.76056 0.0
C1089 C 0.25971 0.52563 0.77712 0.0
C1090 C 0.28265 0.53129 0.74882 0.0
C1091 C 0.28625 0.51747 0.70658 0.0
H1092 H 0.51439 0.77107 0.07513 0.0
H1093 H 0.59269 0.73852 0.12199 0.0
H1094 H 0.4995 0.77653 0.15532 0.0
H1095 H 0.57774 0.74445 0.20332 0.0
H1096 H 0.51857 0.71226 0.32081 0.0
H1097 H 0.54328 0.71913 0.24828 0.0
H1098 H 0.50443 0.79883 0.23182 0.0
H1099 H 0.4791 0.79166 0.3054 0.0
C1100 C 0.52865 0.7654 0.10266 0.0
C1101 C 0.55458 0.75379 0.0921 0.0
C1102 C 0.52018 0.76893 0.14881 0.0
C1103 C 0.53732 0.76084 0.18584 0.0
C1104 C 0.56393 0.75065 0.17547 0.0
C1105 C 0.57254 0.74728 0.12898 0.0
C1106 C 0.51545 0.73145 0.30207 0.0
C1107 C 0.49645 0.75122 0.3183 0.0
C1108 C 0.52998 0.73554 0.26069 0.0
C1109 C 0.52582 0.75946 0.23404 0.0
C1110 C 0.50791 0.78004 0.25145 0.0
C1111 C 0.49347 0.77603 0.29352 0.0
H1112 H 0.73536 0.42317 0.89048 0.0
H1113 H 0.77403 0.49902 0.93539 0.0
H1114 H 0.73957 0.4383 0.80892 0.0
H1115 H 0.77786 0.51411 0.85493 0.0
H1116 H 0.78963 0.53362 0.70277 0.0
H1117 H 0.79729 0.50823 0.77611 0.0
H1118 H 0.71479 0.47471 0.76722 0.0
H1119 H 0.70736 0.49946 0.69497 0.0
C1120 C 0.74515 0.44278 0.88294 0.0
C1121 C 0.75385 0.46009 0.9194 0.0
C1122 C 0.74751 0.45151 0.83634 0.0
C1123 C 0.75889 0.47755 0.82542 0.0
C1124 C 0.76924 0.49389 0.86186 0.0
C1125 C 0.76668 0.48532 0.90817 0.0
C1126 C 0.7734 0.52048 0.71631 0.0
C1127 C 0.74777 0.51897 0.69355 0.0
C1128 C 0.77771 0.50598 0.75824 0.0
C1129 C 0.7566 0.48943 0.77758 0.0
C1130 C 0.73162 0.4869 0.75322 0.0
C1131 C 0.72725 0.50149 0.71198 0.0
H1132 H 0.53488 0.22546 0.30376 0.0
H1133 H 0.4954 0.30482 0.31967 0.0
H1134 H 0.51022 0.21883 0.22943 0.0
H1135 H 0.47132 0.29846 0.24635 0.0
H1136 H 0.42272 0.27922 0.11833 0.0
H1137 H 0.43719 0.27338 0.19998 0.0
H1138 H 0.51584 0.24159 0.15343 0.0
H1139 H 0.50146 0.24702 0.07295 0.0
C1140 C 0.52063 0.24119 0.29183 0.0
C1141 C 0.51747 0.26583 0.31705 0.0
C1142 C 0.50658 0.2375 0.24931 0.0
C1143 C 0.48886 0.25821 0.23179 0.0
C1144 C 0.4845 0.28196 0.2588 0.0
C1145 C 0.49865 0.28575 0.30068 0.0
C1146 C 0.44287 0.27056 0.12571 0.0
C1147 C 0.46108 0.26409 0.08915 0.0
C1148 C 0.45121 0.26725 0.17239 0.0
C1149 C 0.47776 0.25711 0.18327 0.0
C1150 C 0.49518 0.24914 0.14654 0.0
C1151 C 0.487 0.25265 0.10022 0.0
H1152 H 0.4364 0.19569 0.02205 0.0
H1153 H 0.38105 0.20843 0.90597 0.0
H1154 H 0.40735 0.1574 0.04953 0.0
H1155 H 0.35273 0.16945 0.9324 0.0
H1156 H 0.32208 0.08216 0.98344 0.0
H1157 H 0.35987 0.11163 0.95517 0.0
H1158 H 0.35 0.16448 0.07517 0.0
H1159 H 0.31152 0.13575 0.10245 0.0
C1160 C 0.41869 0.18959 1.00135 0.0
C1161 C 0.41117 0.20488 0.96151 0.0
C1162 C 0.40197 0.16784 0.01733 0.0
C1163 C 0.37786 0.16043 0.993 0.0
C1164 C 0.37133 0.17456 0.95155 0.0
C1165 C 0.38757 0.1968 0.93636 0.0
C1166 C 0.32854 0.09959 1.0045 0.0
C1167 C 0.31402 0.10649 0.04547 0.0
C1168 C 0.35 0.11655 0.9881 0.0
C1169 C 0.35789 0.14026 0.01308 0.0
C1170 C 0.34451 0.14618 0.05548 0.0
C1171 C 0.32255 0.12973 0.07114 0.0
H1172 H 0.19567 0.58162 0.98077 0.0
H1173 H 0.20724 0.635 0.09976 0.0
H1174 H 0.15724 0.61081 0.95412 0.0
H1175 H 0.16817 0.66343 0.07417 0.0
H1176 H 0.08184 0.69537 0.02549 0.0
H1177 H 0.11116 0.65693 0.05155 0.0
H1178 H 0.16303 0.66785 0.93055 0.0
H1179 H 0.13447 0.70696 0.90552 0.0
C1180 C 0.18931 0.59894 1.00217 0.0
C1181 C 0.20427 0.60587 0.04265 0.0
C1182 C 0.16748 0.61574 0.98671 0.0
C1183 C 0.15968 0.6393 0.01218 0.0
C1184 C 0.17356 0.64524 0.05412 0.0
C1185 C 0.19587 0.62895 0.06881 0.0
C1186 C 0.09895 0.68895 1.00366 0.0
C1187 C 0.10567 0.70396 0.96313 0.0
C1188 C 0.11585 0.66713 0.01881 0.0
C1189 C 0.13931 0.65939 0.993 0.0
C1190 C 0.14493 0.6732 0.95087 0.0
C1191 C 0.12855 0.69551 0.93647 0.0
H1192 H 0.71721 0.8713 0.08726 0.0
H1193 H 0.68538 0.94065 0.0092 0.0
H1194 H 0.67929 0.84275 0.05911 0.0
H1195 H 0.64688 0.91169 0.98143 0.0
H1196 H 0.57519 0.83046 1.00307 0.0
H1197 H 0.60411 0.869 0.03081 0.0
H1198 H 0.6732 0.83648 0.95365 0.0
H1199 H 0.6447 0.79851 0.92553 0.0
C1200 C 0.70169 0.88074 0.06516 0.0
C1201 C 0.70454 0.90831 0.05034 0.0
C1202 C 0.67997 0.8643 0.04902 0.0
C1203 C 0.66029 0.87497 0.01794 0.0
C1204 C 0.66175 0.90304 1.00561 0.0
C1205 C 0.68371 0.91962 0.02173 0.0
C1206 C 0.59625 0.83211 0.99065 0.0
C1207 C 0.60761 0.81123 0.9622 0.0
C1208 C 0.6128 0.8541 0.00674 0.0
C1209 C 0.6409 0.85553 0.99456 0.0
C1210 C 0.65163 0.8358 0.96363 0.0
C1211 C 0.63522 0.81406 0.94751 0.0
H1212 H 0.83153 0.44115 1.0056 0.0
H1213 H 0.80197 0.37195 0.08655 0.0
H1214 H 0.8702 0.41267 0.97717 0.0
H1215 H 0.84016 0.34387 0.05788 0.0
H1216 H 0.87445 0.30132 0.91929 0.0
H1217 H 0.84596 0.3393 0.94764 0.0
H1218 H 0.91364 0.36877 0.03156 0.0
H1219 H 0.94253 0.33035 1.00346 0.0
C1220 C 0.83375 0.42028 0.01862 0.0
C1221 C 0.81352 0.40886 0.04831 0.0
C1222 C 0.85581 0.40397 1.00212 0.0
C1223 C 0.85802 0.37608 0.01526 0.0
C1224 C 0.83892 0.36531 0.04727 0.0
C1225 C 0.81705 0.38147 0.0637 0.0
C1226 C 0.88366 0.31627 0.94274 0.0
C1227 C 0.91084 0.31263 0.95913 0.0
C1228 C 0.86727 0.33801 0.95898 0.0
C1229 C 0.87759 0.35687 0.99181 0.0
C1230 C 0.9053 0.35459 0.00594 0.0
C1231 C 0.92184 0.33267 0.98963 0.0
H1232 H 0.6951 0.08023 0.48591 0.0
H1233 H 0.7065 0.13508 0.60303 0.0
H1234 H 0.65707 0.10933 0.45759 0.0
H1235 H 0.66777 0.16346 0.57573 0.0
H1236 H 0.5807 0.19371 0.52274 0.0
H1237 H 0.61002 0.15584 0.55097 0.0
H1238 H 0.66431 0.16717 0.43319 0.0
H1239 H 0.63571 0.20576 0.40597 0.0
C1240 C 0.68876 0.09784 0.50662 0.0
C1241 C 0.70359 0.10519 0.54705 0.0
C1242 C 0.66717 0.1146 0.49016 0.0
C1243 C 0.65945 0.13858 0.51455 0.0
C1244 C 0.67312 0.14495 0.5565 0.0
C1245 C 0.69522 0.12868 0.5722 0.0
C1246 C 0.5984 0.18754 0.50207 0.0
C1247 C 0.60572 0.20252 0.46178 0.0
C1248 C 0.61528 0.16604 0.51849 0.0
C1249 C 0.63937 0.15855 0.49419 0.0
C1250 C 0.64573 0.17235 0.45235 0.0
C1251 C 0.62932 0.19436 0.4367 0.0
H1252 H 0.08062 0.32189 0.52547 0.0
H1253 H 0.13382 0.31099 0.40604 0.0
H1254 H 0.10993 0.36004 0.55273 0.0
H1255 H 0.16238 0.34983 0.43229 0.0
H1256 H 0.19484 0.43568 0.48386 0.0
H1257 H 0.15639 0.40674 0.45664 0.0
H1258 H 0.16693 0.35351 0.57602 0.0
H1259 H 0.20606 0.3817 0.60219 0.0
C1260 C 0.09788 0.32839 0.50404 0.0
C1261 C 0.10473 0.31365 0.46328 0.0
C1262 C 0.11477 0.35005 0.51988 0.0
C1263 C 0.13837 0.35793 0.49455 0.0
C1264 C 0.14417 0.34437 0.45225 0.0
C1265 C 0.12779 0.32221 0.43716 0.0
C1266 C 0.18836 0.41832 0.50507 0.0
C1267 C 0.20327 0.41114 0.5455 0.0
C1268 C 0.16653 0.40165 0.48925 0.0
C1269 C 0.15864 0.37794 0.5143 0.0
C1270 C 0.17239 0.37181 0.55629 0.0
C1271 C 0.19472 0.38797 0.57133 0.0
H1272 H 0.4347 0.82242 0.5255 0.0
H1273 H 0.37886 0.80907 0.41029 0.0
H1274 H 0.40568 0.86076 0.5529 0.0
H1275 H 0.35057 0.8481 0.43662 0.0
H1276 H 0.32072 0.93602 0.48678 0.0
H1277 H 0.35867 0.90654 0.45919 0.0
H1278 H 0.34754 0.85327 0.57835 0.0
H1279 H 0.30889 0.882 0.60491 0.0
C1280 C 0.41687 0.82838 0.50499 0.0
C1281 C 0.40922 0.81292 0.46541 0.0
C1282 C 0.40017 0.85016 0.52091 0.0
C1283 C 0.37596 0.85743 0.49677 0.0
C1284 C 0.36926 0.84309 0.45561 0.0
C1285 C 0.38548 0.82083 0.44049 0.0
C1286 C 0.32697 0.91853 0.50788 0.0
C1287 C 0.31204 0.91151 0.54837 0.0
C1288 C 0.34851 0.90156 0.49185 0.0
C1289 C 0.35607 0.8777 0.51673 0.0
C1290 C 0.34231 0.87168 0.55876 0.0
C1291 C 0.32028 0.88816 0.57403 0.0
H1292 H 0.94036 0.68488 0.50255 0.0
H1293 H 0.87065 0.71847 0.42754 0.0
H1294 H 0.91116 0.64641 0.52983 0.0
H1295 H 0.84189 0.68062 0.45523 0.0
H1296 H 0.79744 0.6448 0.58635 0.0
H1297 H 0.83548 0.6734 0.55886 0.0
H1298 H 0.86846 0.60453 0.48171 0.0
H1299 H 0.82981 0.5755 0.50881 0.0
C1300 C 0.91918 0.68363 0.49061 0.0
C1301 C 0.90786 0.70493 0.46301 0.0
C1302 C 0.90246 0.66168 0.50644 0.0
C1303 C 0.87425 0.66073 0.49488 0.0
C1304 C 0.86355 0.68092 0.46478 0.0
C1305 C 0.8801 0.7026 0.4489 0.0
C1306 C 0.8131 0.63538 0.5645 0.0
C1307 C 0.81037 0.60781 0.54962 0.0
C1308 C 0.83489 0.65185 0.54874 0.0
C1309 C 0.85477 0.64123 0.51797 0.0
C1310 C 0.85344 0.61315 0.50565 0.0
C1311 C 0.83139 0.59653 0.52137 0.0
loop_
_geom_bond_atom_site_label_1
_geom_bond_atom_site_label_2
_geom_bond_distance
_geom_bond_site_symmetry_2
_ccdc_geom_bond_type
Fe0 O2 1.918 . S
Fe0 O5 1.997 . S
Fe0 O6 2.002 . S
Fe0 O11 1.976 . S
Fe0 O14 1.996 . S
Fe1 O2 1.918 . S
Fe1 O9 1.997 . S
Fe1 O12 1.996 . S
Fe1 O16 1.976 . S
Fe1 O19 2.002 1_554 S
O2 Fe0 1.918 . S
O2 Fe1 1.918 . S
O2 Fe3 1.918 . S
Fe3 O2 1.918 . S
Fe3 O4 2.002 . S
Fe3 O13 1.976 . S
Fe3 O17 1.996 . S
Fe3 O20 1.997 1_554 S
O4 Fe3 2.002 . S
O4 C21 1.295 . S
O5 Fe0 1.997 . S
O5 C21 1.235 . S
O6 Fe0 2.002 . S
O6 C7 1.271 1_545 S
C7 O6 1.271 1_565 S
C7 O9 1.229 1_565 S
C8 O13 1.287 . S
C8 O14 1.255 . S
O9 Fe1 1.997 . S
O9 C7 1.229 1_545 S
C10 O16 1.287 . S
C10 O17 1.255 . S
O11 Fe0 1.976 . S
O11 C18 1.287 . S
O12 Fe1 1.996 . S
O12 C18 1.255 . S
O13 Fe3 1.976 . S
O13 C8 1.287 . S
O14 Fe0 1.996 . S
O14 C8 1.255 . S
C15 O19 1.295 . S
C15 O20 1.235 . S
O16 Fe1 1.976 . S
O16 C10 1.287 . S
O17 Fe3 1.996 . S
O17 C10 1.255 . S
C18 O11 1.287 . S
C18 O12 1.255 . S
O19 Fe1 2.002 1_556 S
O19 C15 1.295 . S
O20 Fe3 1.997 1_556 S
O20 C15 1.235 . S
C21 O4 1.295 . S
C21 O5 1.235 . S
Fe22 O24 1.918 . S
Fe22 O27 1.997 . S
Fe22 O28 2.002 1_556 S
Fe22 O33 1.976 . S
Fe22 O36 1.996 . S
Fe23 O24 1.918 . S
Fe23 O31 1.997 1_556 S
Fe23 O34 1.996 . S
Fe23 O38 1.976 . S
Fe23 O41 2.002 . S
O24 Fe22 1.918 . S
O24 Fe23 1.918 . S
O24 Fe25 1.918 . S
Fe25 O24 1.918 . S
Fe25 O26 2.002 . S
Fe25 O35 1.976 . S
Fe25 O39 1.996 . S
Fe25 O42 1.997 . S
O26 Fe25 2.002 . S
O26 C43 1.271 1_455 S
O27 Fe22 1.997 . S
O27 C43 1.229 1_455 S
O28 Fe22 2.002 1_554 S
O28 C29 1.295 . S
C29 O28 1.295 . S
C29 O31 1.235 . S
C30 O35 1.287 . S
C30 O36 1.255 . S
O31 Fe23 1.997 1_554 S
O31 C29 1.235 . S
C32 O38 1.287 . S
C32 O39 1.255 . S
O33 Fe22 1.976 . S
O33 C40 1.287 . S
O34 Fe23 1.996 . S
O34 C40 1.255 . S
O35 Fe25 1.976 . S
O35 C30 1.287 . S
O36 Fe22 1.996 . S
O36 C30 1.255 . S
C37 O41 1.295 . S
C37 O42 1.235 . S
O38 Fe23 1.976 . S
O38 C32 1.287 . S
O39 Fe25 1.996 . S
O39 C32 1.255 . S
C40 O33 1.287 . S
C40 O34 1.255 . S
O41 Fe23 2.002 . S
O41 C37 1.295 . S
O42 Fe25 1.997 . S
O42 C37 1.235 . S
C43 O26 1.271 1_655 S
C43 O27 1.229 1_655 S
Fe44 O46 1.918 . S
Fe44 O49 1.997 1_554 S
Fe44 O50 2.002 . S
Fe44 O55 1.976 . S
Fe44 O58 1.996 . S
Fe45 O46 1.918 . S
Fe45 O53 1.997 . S
Fe45 O56 1.996 . S
Fe45 O60 1.976 . S
Fe45 O63 2.002 . S
O46 Fe44 1.918 . S
O46 Fe45 1.918 . S
O46 Fe47 1.918 . S
Fe47 O46 1.918 . S
Fe47 O48 2.002 1_554 S
Fe47 O57 1.976 . S
Fe47 O61 1.996 . S
Fe47 O64 1.997 . S
O48 Fe47 2.002 1_556 S
O48 C65 1.295 . S
O49 Fe44 1.997 1_556 S
O49 C65 1.235 . S
O50 Fe44 2.002 . S
O50 C51 1.295 . S
C51 O50 1.295 . S
C51 O53 1.235 . S
C52 O57 1.287 . S
C52 O58 1.255 . S
O53 Fe45 1.997 . S
O53 C51 1.235 . S
C54 O60 1.287 . S
C54 O61 1.255 . S
O55 Fe44 1.976 . S
O55 C62 1.287 . S
O56 Fe45 1.996 . S
O56 C62 1.255 . S
O57 Fe47 1.976 . S
O57 C52 1.287 . S
O58 Fe44 1.996 . S
O58 C52 1.255 . S
C59 O63 1.271 1_545 S
C59 O64 1.229 1_545 S
O60 Fe45 1.976 . S
O60 C54 1.287 . S
O61 Fe47 1.996 . S
O61 C54 1.255 . S
C62 O55 1.287 . S
C62 O56 1.255 . S
O63 Fe45 2.002 . S
O63 C59 1.271 1_565 S
O64 Fe47 1.997 . S
O64 C59 1.229 1_565 S
C65 O48 1.295 . S
C65 O49 1.235 . S
Fe66 O68 1.918 . S
Fe66 O71 1.997 . S
Fe66 O72 2.002 . S
Fe66 O77 1.976 . S
Fe66 O80 1.996 . S
Fe67 O68 1.918 . S
Fe67 O75 1.997 . S
Fe67 O78 1.996 . S
Fe67 O82 1.976 . S
Fe67 O85 2.002 1_556 S
O68 Fe66 1.918 . S
O68 Fe67 1.918 . S
O68 Fe69 1.918 . S
Fe69 O68 1.918 . S
Fe69 O70 2.002 . S
Fe69 O79 1.976 . S
Fe69 O83 1.996 . S
Fe69 O86 1.997 1_556 S
O70 Fe69 2.002 . S
O70 C87 1.295 . S
O71 Fe66 1.997 . S
O71 C87 1.235 . S
O72 Fe66 2.002 . S
O72 C73 1.271 1_655 S
C73 O72 1.271 1_455 S
C73 O75 1.229 1_455 S
C74 O79 1.287 . S
C74 O80 1.255 . S
O75 Fe67 1.997 . S
O75 C73 1.229 1_655 S
C76 O82 1.287 . S
C76 O83 1.255 . S
O77 Fe66 1.976 . S
O77 C84 1.287 . S
O78 Fe67 1.996 . S
O78 C84 1.255 . S
O79 Fe69 1.976 . S
O79 C74 1.287 . S
O80 Fe66 1.996 . S
O80 C74 1.255 . S
C81 O85 1.295 . S
C81 O86 1.235 . S
O82 Fe67 1.976 . S
O82 C76 1.287 . S
O83 Fe69 1.996 . S
O83 C76 1.255 . S
C84 O77 1.287 . S
C84 O78 1.255 . S
O85 Fe67 2.002 1_554 S
O85 C81 1.295 . S
O86 Fe69 1.997 1_554 S
O86 C81 1.235 . S
C87 O70 1.295 . S
C87 O71 1.235 . S
Fe88 O90 1.918 . S
Fe88 O93 1.997 . S
Fe88 O94 2.002 . S
Fe88 O99 1.976 . S
Fe88 O102 1.996 . S
Fe89 O90 1.918 . S
Fe89 O97 1.997 . S
Fe89 O100 1.996 . S
Fe89 O104 1.976 . S
Fe89 O107 2.002 . S
O90 Fe88 1.918 . S
O90 Fe89 1.918 . S
O90 Fe91 1.918 . S
Fe91 O90 1.918 . S
Fe91 O92 2.002 . S
Fe91 O101 1.976 . S
Fe91 O105 1.996 . S
Fe91 O108 1.997 . S
O92 Fe91 2.002 . S
O92 C109 1.295 . S
O93 Fe88 1.997 . S
O93 C109 1.235 . S
O94 Fe88 2.002 . S
O94 C95 1.271 1_545 S
C95 O94 1.271 1_565 S
C95 O97 1.229 1_565 S
C96 O101 1.287 . S
C96 O102 1.255 . S
O97 Fe89 1.997 . S
O97 C95 1.229 1_545 S
C98 O104 1.287 . S
C98 O105 1.255 . S
O99 Fe88 1.976 . S
O99 C106 1.287 . S
O100 Fe89 1.996 . S
O100 C106 1.255 . S
O101 Fe91 1.976 . S
O101 C96 1.287 . S
O102 Fe88 1.996 . S
O102 C96 1.255 . S
C103 O107 1.295 . S
C103 O108 1.235 . S
O104 Fe89 1.976 . S
O104 C98 1.287 . S
O105 Fe91 1.996 . S
O105 C98 1.255 . S
C106 O99 1.287 . S
C106 O100 1.255 . S
O107 Fe89 2.002 . S
O107 C103 1.295 . S
O108 Fe91 1.997 . S
O108 C103 1.235 . S
C109 O92 1.295 . S
C109 O93 1.235 . S
Fe110 O112 1.918 . S
Fe110 O115 1.997 . S
Fe110 O116 2.002 . S
Fe110 O121 1.976 . S
Fe110 O124 1.996 . S
Fe111 O112 1.918 . S
Fe111 O119 1.997 . S
Fe111 O122 1.996 . S
Fe111 O126 1.976 . S
Fe111 O129 2.002 . S
O112 Fe110 1.918 . S
O112 Fe111 1.918 . S
O112 Fe113 1.918 . S
Fe113 O112 1.918 . S
Fe113 O114 2.002 . S
Fe113 O123 1.976 . S
Fe113 O127 1.996 . S
Fe113 O130 1.997 . S
O114 Fe113 2.002 . S
O114 C131 1.295 . S
O115 Fe110 1.997 . S
O115 C131 1.235 . S
O116 Fe110 2.002 . S
O116 C117 1.271 1_455 S
C117 O116 1.271 1_655 S
C117 O119 1.229 1_655 S
C118 O123 1.287 . S
C118 O124 1.255 . S
O119 Fe111 1.997 . S
O119 C117 1.229 1_455 S
C120 O126 1.287 . S
C120 O127 1.255 . S
O121 Fe110 1.976 . S
O121 C128 1.287 . S
O122 Fe111 1.996 . S
O122 C128 1.255 . S
O123 Fe113 1.976 . S
O123 C118 1.287 . S
O124 Fe110 1.996 . S
O124 C118 1.255 . S
C125 O129 1.295 . S
C125 O130 1.235 . S
O126 Fe111 1.976 . S
O126 C120 1.287 . S
O127 Fe113 1.996 . S
O127 C120 1.255 . S
C128 O121 1.287 . S
C128 O122 1.255 . S
O129 Fe111 2.002 . S
O129 C125 1.295 . S
O130 Fe113 1.997 . S
O130 C125 1.235 . S
C131 O114 1.295 . S
C131 O115 1.235 . S
Fe132 O134 1.918 . S
Fe132 O137 1.997 . S
Fe132 O138 2.002 . S
Fe132 O143 1.976 . S
Fe132 O146 1.996 . S
Fe133 O134 1.918 . S
Fe133 O141 1.997 . S
Fe133 O144 1.996 . S
Fe133 O148 1.976 . S
Fe133 O151 2.002 . S
O134 Fe132 1.918 . S
O134 Fe133 1.918 . S
O134 Fe135 1.918 . S
Fe135 O134 1.918 . S
Fe135 O136 2.002 . S
Fe135 O145 1.976 . S
Fe135 O149 1.996 . S
Fe135 O152 1.997 . S
O136 Fe135 2.002 . S
O136 C153 1.295 . S
O137 Fe132 1.997 . S
O137 C153 1.235 . S
O138 Fe132 2.002 . S
O138 C139 1.271 1_565 S
C139 O138 1.271 1_545 S
C139 O141 1.229 1_545 S
C140 O145 1.287 . S
C140 O146 1.255 . S
O141 Fe133 1.997 . S
O141 C139 1.229 1_565 S
C142 O148 1.287 . S
C142 O149 1.255 . S
O143 Fe132 1.976 . S
O143 C150 1.287 . S
O144 Fe133 1.996 . S
O144 C150 1.255 . S
O145 Fe135 1.976 . S
O145 C140 1.287 . S
O146 Fe132 1.996 . S
O146 C140 1.255 . S
C147 O151 1.295 . S
C147 O152 1.235 . S
O148 Fe133 1.976 . S
O148 C142 1.287 . S
O149 Fe135 1.996 . S
O149 C142 1.255 . S
C150 O143 1.287 . S
C150 O144 1.255 . S
O151 Fe133 2.002 . S
O151 C147 1.295 . S
O152 Fe135 1.997 . S
O152 C147 1.235 . S
C153 O136 1.295 . S
C153 O137 1.235 . S
Fe154 O156 1.918 . S
Fe154 O159 1.997 . S
Fe154 O160 2.002 . S
Fe154 O165 1.976 . S
Fe154 O168 1.996 . S
Fe155 O156 1.918 . S
Fe155 O163 1.997 . S
Fe155 O166 1.996 . S
Fe155 O170 1.976 . S
Fe155 O173 2.002 . S
O156 Fe154 1.918 . S
O156 Fe155 1.918 . S
O156 Fe157 1.918 . S
Fe157 O156 1.918 . S
Fe157 O158 2.002 . S
Fe157 O167 1.976 . S
Fe157 O171 1.996 . S
Fe157 O174 1.997 . S
O158 Fe157 2.002 . S
O158 C175 1.295 . S
O159 Fe154 1.997 . S
O159 C175 1.235 . S
O160 Fe154 2.002 . S
O160 C161 1.271 1_655 S
C161 O160 1.271 1_455 S
C161 O163 1.229 1_455 S
C162 O167 1.287 . S
C162 O168 1.255 . S
O163 Fe155 1.997 . S
O163 C161 1.229 1_655 S
C164 O170 1.287 . S
C164 O171 1.255 . S
O165 Fe154 1.976 . S
O165 C172 1.287 . S
O166 Fe155 1.996 . S
O166 C172 1.255 . S
O167 Fe157 1.976 . S
O167 C162 1.287 . S
O168 Fe154 1.996 . S
O168 C162 1.255 . S
C169 O173 1.295 . S
C169 O174 1.235 . S
O170 Fe155 1.976 . S
O170 C164 1.287 . S
O171 Fe157 1.996 . S
O171 C164 1.255 . S
C172 O165 1.287 . S
C172 O166 1.255 . S
O173 Fe155 2.002 . S
O173 C169 1.295 . S
O174 Fe157 1.997 . S
O174 C169 1.235 . S
C175 O158 1.295 . S
C175 O159 1.235 . S
Fe176 O178 1.918 . S
Fe176 O181 1.997 . S
Fe176 O182 2.002 . S
Fe176 O187 1.976 . S
Fe176 O190 1.996 . S
Fe177 O178 1.918 . S
Fe177 O185 1.997 . S
Fe177 O188 1.996 . S
Fe177 O192 1.976 . S
Fe177 O195 2.002 . S
O178 Fe176 1.918 . S
O178 Fe177 1.918 . S
O178 Fe179 1.918 . S
Fe179 O178 1.918 . S
Fe179 O180 2.002 . S
Fe179 O189 1.976 . S
Fe179 O193 1.996 . S
Fe179 O196 1.997 . S
O180 Fe179 2.002 . S
O180 C197 1.295 . S
O181 Fe176 1.997 . S
O181 C197 1.235 . S
O182 Fe176 2.002 . S
O182 C183 1.295 . S
C183 O182 1.295 . S
C183 O185 1.235 . S
C184 O189 1.287 . S
C184 O190 1.255 . S
O185 Fe177 1.997 . S
O185 C183 1.235 . S
C186 O192 1.287 . S
C186 O193 1.255 . S
O187 Fe176 1.976 . S
O187 C194 1.287 . S
O188 Fe177 1.996 . S
O188 C194 1.255 . S
O189 Fe179 1.976 . S
O189 C184 1.287 . S
O190 Fe176 1.996 . S
O190 C184 1.255 . S
C191 O195 1.295 . S
C191 O196 1.235 . S
O192 Fe177 1.976 . S
O192 C186 1.287 . S
O193 Fe179 1.996 . S
O193 C186 1.255 . S
C194 O187 1.287 . S
C194 O188 1.255 . S
O195 Fe177 2.002 . S
O195 C191 1.295 . S
O196 Fe179 1.997 . S
O196 C191 1.235 . S
C197 O180 1.295 . S
C197 O181 1.235 . S
Fe198 O200 1.918 . S
Fe198 O203 1.997 . S
Fe198 O204 2.002 . S
Fe198 O209 1.976 . S
Fe198 O212 1.996 . S
Fe199 O200 1.918 . S
Fe199 O207 1.997 . S
Fe199 O210 1.996 . S
Fe199 O214 1.976 . S
Fe199 O217 2.002 . S
O200 Fe198 1.918 . S
O200 Fe199 1.918 . S
O200 Fe201 1.918 . S
Fe201 O200 1.918 . S
Fe201 O202 2.002 . S
Fe201 O211 1.976 . S
Fe201 O215 1.996 . S
Fe201 O218 1.997 . S
O202 Fe201 2.002 . S
O202 C219 1.295 . S
O203 Fe198 1.997 . S
O203 C219 1.235 . S
O204 Fe198 2.002 . S
O204 C205 1.295 . S
C205 O204 1.295 . S
C205 O207 1.235 . S
C206 O211 1.287 . S
C206 O212 1.255 . S
O207 Fe199 1.997 . S
O207 C205 1.235 . S
C208 O214 1.287 . S
C208 O215 1.255 . S
O209 Fe198 1.976 . S
O209 C216 1.287 . S
O210 Fe199 1.996 . S
O210 C216 1.255 . S
O211 Fe201 1.976 . S
O211 C206 1.287 . S
O212 Fe198 1.996 . S
O212 C206 1.255 . S
C213 O217 1.295 . S
C213 O218 1.235 . S
O214 Fe199 1.976 . S
O214 C208 1.287 . S
O215 Fe201 1.996 . S
O215 C208 1.255 . S
C216 O209 1.287 . S
C216 O210 1.255 . S
O217 Fe199 2.002 . S
O217 C213 1.295 . S
O218 Fe201 1.997 . S
O218 C213 1.235 . S
C219 O202 1.295 . S
C219 O203 1.235 . S
Fe220 O222 1.918 . S
Fe220 O225 1.997 . S
Fe220 O226 2.002 . S
Fe220 O231 1.976 . S
Fe220 O234 1.996 . S
Fe221 O222 1.918 . S
Fe221 O229 1.997 . S
Fe221 O232 1.996 . S
Fe221 O236 1.976 . S
Fe221 O239 2.002 . S
O222 Fe220 1.918 . S
O222 Fe221 1.918 . S
O222 Fe223 1.918 . S
Fe223 O222 1.918 . S
Fe223 O224 2.002 . S
Fe223 O233 1.976 . S
Fe223 O237 1.996 . S
Fe223 O240 1.997 . S
O224 Fe223 2.002 . S
O224 C241 1.295 . S
O225 Fe220 1.997 . S
O225 C241 1.235 . S
O226 Fe220 2.002 . S
O226 C227 1.295 . S
C227 O226 1.295 . S
C227 O229 1.235 . S
C228 O233 1.287 . S
C228 O234 1.255 . S
O229 Fe221 1.997 . S
O229 C227 1.235 . S
C230 O236 1.287 . S
C230 O237 1.255 . S
O231 Fe220 1.976 . S
O231 C238 1.287 . S
O232 Fe221 1.996 . S
O232 C238 1.255 . S
O233 Fe223 1.976 . S
O233 C228 1.287 . S
O234 Fe220 1.996 . S
O234 C228 1.255 . S
C235 O239 1.295 . S
C235 O240 1.235 . S
O236 Fe221 1.976 . S
O236 C230 1.287 . S
O237 Fe223 1.996 . S
O237 C230 1.255 . S
C238 O231 1.287 . S
C238 O232 1.255 . S
O239 Fe221 2.002 . S
O239 C235 1.295 . S
O240 Fe223 1.997 . S
O240 C235 1.235 . S
C241 O224 1.295 . S
C241 O225 1.235 . S
Fe242 O244 1.918 . S
Fe242 O247 1.997 . S
Fe242 O248 2.002 . S
Fe242 O253 1.976 . S
Fe242 O256 1.996 . S
Fe243 O244 1.918 . S
Fe243 O251 1.997 . S
Fe243 O254 1.996 . S
Fe243 O258 1.976 . S
Fe243 O261 2.002 . S
O244 Fe242 1.918 . S
O244 Fe243 1.918 . S
O244 Fe245 1.918 . S
Fe245 O244 1.918 . S
Fe245 O246 2.002 . S
Fe245 O255 1.976 . S
Fe245 O259 1.996 . S
Fe245 O262 1.997 . S
O246 Fe245 2.002 . S
O246 C263 1.295 . S
O247 Fe242 1.997 . S
O247 C263 1.235 . S
O248 Fe242 2.002 . S
O248 C249 1.295 . S
C249 O248 1.295 . S
C249 O251 1.235 . S
C250 O255 1.287 . S
C250 O256 1.255 . S
O251 Fe243 1.997 . S
O251 C249 1.235 . S
C252 O258 1.287 . S
C252 O259 1.255 . S
O253 Fe242 1.976 . S
O253 C260 1.287 . S
O254 Fe243 1.996 . S
O254 C260 1.255 . S
O255 Fe245 1.976 . S
O255 C250 1.287 . S
O256 Fe242 1.996 . S
O256 C250 1.255 . S
C257 O261 1.295 . S
C257 O262 1.235 . S
O258 Fe243 1.976 . S
O258 C252 1.287 . S
O259 Fe245 1.996 . S
O259 C252 1.255 . S
C260 O253 1.287 . S
C260 O254 1.255 . S
O261 Fe243 2.002 . S
O261 C257 1.295 . S
O262 Fe245 1.997 . S
O262 C257 1.235 . S
C263 O246 1.295 . S
C263 O247 1.235 . S
Fe264 O266 1.918 . S
Fe264 O269 1.997 . S
Fe264 O270 2.002 . S
Fe264 O275 1.976 . S
Fe264 O278 1.996 . S
Fe265 O266 1.918 . S
Fe265 O273 1.997 . S
Fe265 O276 1.996 . S
Fe265 O280 1.976 . S
Fe265 O283 2.002 1_554 S
O266 Fe264 1.918 . S
O266 Fe265 1.918 . S
O266 Fe267 1.918 . S
Fe267 O266 1.918 . S
Fe267 O268 2.002 . S
Fe267 O277 1.976 . S
Fe267 O281 1.996 . S
Fe267 O284 1.997 1_554 S
O268 Fe267 2.002 . S
O268 C285 1.295 . S
O269 Fe264 1.997 . S
O269 C285 1.235 . S
O270 Fe264 2.002 . S
O270 C271 1.295 . S
C271 O270 1.295 . S
C271 O273 1.235 . S
C272 O277 1.287 . S
C272 O278 1.255 . S
O273 Fe265 1.997 . S
O273 C271 1.235 . S
C274 O280 1.287 . S
C274 O281 1.255 . S
O275 Fe264 1.976 . S
O275 C282 1.287 . S
O276 Fe265 1.996 . S
O276 C282 1.255 . S
O277 Fe267 1.976 . S
O277 C272 1.287 . S
O278 Fe264 1.996 . S
O278 C272 1.255 . S
C279 O283 1.295 . S
C279 O284 1.235 . S
O280 Fe265 1.976 . S
O280 C274 1.287 . S
O281 Fe267 1.996 . S
O281 C274 1.255 . S
C282 O275 1.287 . S
C282 O276 1.255 . S
O283 Fe265 2.002 1_556 S
O283 C279 1.295 . S
O284 Fe267 1.997 1_556 S
O284 C279 1.235 . S
C285 O268 1.295 . S
C285 O269 1.235 . S
Fe286 O288 1.918 . S
Fe286 O291 1.997 . S
Fe286 O292 2.002 . S
Fe286 O297 1.976 . S
Fe286 O300 1.996 . S
Fe287 O288 1.918 . S
Fe287 O295 1.997 . S
Fe287 O298 1.996 . S
Fe287 O302 1.976 . S
Fe287 O305 2.002 1_556 S
O288 Fe286 1.918 . S
O288 Fe287 1.918 . S
O288 Fe289 1.918 . S
Fe289 O288 1.918 . S
Fe289 O290 2.002 . S
Fe289 O299 1.976 . S
Fe289 O303 1.996 . S
Fe289 O306 1.997 1_556 S
O290 Fe289 2.002 . S
O290 C307 1.295 . S
O291 Fe286 1.997 . S
O291 C307 1.235 . S
O292 Fe286 2.002 . S
O292 C293 1.295 . S
C293 O292 1.295 . S
C293 O295 1.235 . S
C294 O299 1.287 . S
C294 O300 1.255 . S
O295 Fe287 1.997 . S
O295 C293 1.235 . S
C296 O302 1.287 . S
C296 O303 1.255 . S
O297 Fe286 1.976 . S
O297 C304 1.287 . S
O298 Fe287 1.996 . S
O298 C304 1.255 . S
O299 Fe289 1.976 . S
O299 C294 1.287 . S
O300 Fe286 1.996 . S
O300 C294 1.255 . S
C301 O305 1.295 . S
C301 O306 1.235 . S
O302 Fe287 1.976 . S
O302 C296 1.287 . S
O303 Fe289 1.996 . S
O303 C296 1.255 . S
C304 O297 1.287 . S
C304 O298 1.255 . S
O305 Fe287 2.002 1_554 S
O305 C301 1.295 . S
O306 Fe289 1.997 1_554 S
O306 C301 1.235 . S
C307 O290 1.295 . S
C307 O291 1.235 . S
Fe308 O310 1.918 . S
Fe308 O313 1.997 . S
Fe308 O314 2.002 . S
Fe308 O319 1.976 . S
Fe308 O322 1.996 . S
Fe309 O310 1.918 . S
Fe309 O317 1.997 . S
Fe309 O320 1.996 . S
Fe309 O324 1.976 . S
Fe309 O327 2.002 1_554 S
O310 Fe308 1.918 . S
O310 Fe309 1.918 . S
O310 Fe311 1.918 . S
Fe311 O310 1.918 . S
Fe311 O312 2.002 . S
Fe311 O321 1.976 . S
Fe311 O325 1.996 . S
Fe311 O328 1.997 1_554 S
O312 Fe311 2.002 . S
O312 C329 1.295 . S
O313 Fe308 1.997 . S
O313 C329 1.235 . S
O314 Fe308 2.002 . S
O314 C315 1.295 . S
C315 O314 1.295 . S
C315 O317 1.235 . S
C316 O321 1.287 . S
C316 O322 1.255 . S
O317 Fe309 1.997 . S
O317 C315 1.235 . S
C318 O324 1.287 . S
C318 O325 1.255 . S
O319 Fe308 1.976 . S
O319 C326 1.287 . S
O320 Fe309 1.996 . S
O320 C326 1.255 . S
O321 Fe311 1.976 . S
O321 C316 1.287 . S
O322 Fe308 1.996 . S
O322 C316 1.255 . S
C323 O327 1.295 . S
C323 O328 1.235 . S
O324 Fe309 1.976 . S
O324 C318 1.287 . S
O325 Fe311 1.996 . S
O325 C318 1.255 . S
C326 O319 1.287 . S
C326 O320 1.255 . S
O327 Fe309 2.002 1_556 S
O327 C323 1.295 . S
O328 Fe311 1.997 1_556 S
O328 C323 1.235 . S
C329 O312 1.295 . S
C329 O313 1.235 . S
Fe330 O332 1.918 . S
Fe330 O335 1.997 . S
Fe330 O336 2.002 1_556 S
Fe330 O341 1.976 . S
Fe330 O344 1.996 . S
Fe331 O332 1.918 . S
Fe331 O339 1.997 1_556 S
Fe331 O342 1.996 . S
Fe331 O346 1.976 . S
Fe331 O349 2.002 . S
O332 Fe330 1.918 . S
O332 Fe331 1.918 . S
O332 Fe333 1.918 . S
Fe333 O332 1.918 . S
Fe333 O334 2.002 . S
Fe333 O343 1.976 . S
Fe333 O347 1.996 . S
Fe333 O350 1.997 . S
O334 Fe333 2.002 . S
O334 C351 1.295 . S
O335 Fe330 1.997 . S
O335 C351 1.235 . S
O336 Fe330 2.002 1_554 S
O336 C337 1.295 . S
C337 O336 1.295 . S
C337 O339 1.235 . S
C338 O343 1.287 . S
C338 O344 1.255 . S
O339 Fe331 1.997 1_554 S
O339 C337 1.235 . S
C340 O346 1.287 . S
C340 O347 1.255 . S
O341 Fe330 1.976 . S
O341 C348 1.287 . S
O342 Fe331 1.996 . S
O342 C348 1.255 . S
O343 Fe333 1.976 . S
O343 C338 1.287 . S
O344 Fe330 1.996 . S
O344 C338 1.255 . S
C345 O349 1.295 . S
C345 O350 1.235 . S
O346 Fe331 1.976 . S
O346 C340 1.287 . S
O347 Fe333 1.996 . S
O347 C340 1.255 . S
C348 O341 1.287 . S
C348 O342 1.255 . S
O349 Fe331 2.002 . S
O349 C345 1.295 . S
O350 Fe333 1.997 . S
O350 C345 1.235 . S
C351 O334 1.295 . S
C351 O335 1.235 . S
H352 C360 0.950 . S
H353 C365 0.950 . S
H354 C362 0.950 . S
H355 C364 0.950 . S
H356 C366 0.950 . S
H357 C368 0.950 . S
H358 C370 0.950 . S
H359 C371 0.950 . S
C360 H352 0.950 . S
C360 C361 1.386 . S
C360 C362 1.391 . S
C361 C360 1.386 . S
C361 C365 1.393 . S
C362 H354 0.950 . S
C362 C360 1.391 . S
C362 C363 1.400 . S
C363 C362 1.400 . S
C363 C364 1.398 . S
C363 C369 1.491 . S
C364 H355 0.950 . S
C364 C363 1.398 . S
C364 C365 1.391 . S
C365 H353 0.950 . S
C365 C361 1.393 . S
C365 C364 1.391 . S
C366 H356 0.950 . S
C366 C367 1.386 . S
C366 C368 1.391 . S
C367 C366 1.386 . S
C367 C371 1.393 . S
C368 H357 0.950 . S
C368 C366 1.391 . S
C368 C369 1.400 . S
C369 C363 1.491 . S
C369 C368 1.400 . S
C369 C370 1.398 . S
C370 H358 0.950 . S
C370 C369 1.398 . S
C370 C371 1.391 . S
C371 H359 0.950 . S
C371 C367 1.393 . S
C371 C370 1.391 . S
H372 C380 0.950 . S
H373 C385 0.950 . S
H374 C382 0.950 . S
H375 C384 0.950 . S
H376 C386 0.950 . S
H377 C388 0.950 . S
H378 C390 0.950 . S
H379 C391 0.950 . S
C380 H372 0.950 . S
C380 C381 1.386 . S
C380 C382 1.391 . S
C381 C380 1.386 . S
C381 C385 1.393 . S
C382 H374 0.950 . S
C382 C380 1.391 . S
C382 C383 1.400 . S
C383 C382 1.400 . S
C383 C384 1.398 . S
C383 C389 1.491 . S
C384 H375 0.950 . S
C384 C383 1.398 . S
C384 C385 1.391 . S
C385 H373 0.950 . S
C385 C381 1.393 . S
C385 C384 1.391 . S
C386 H376 0.950 . S
C386 C387 1.386 . S
C386 C388 1.391 . S
C387 C386 1.386 . S
C387 C391 1.393 . S
C388 H377 0.950 . S
C388 C386 1.391 . S
C388 C389 1.400 . S
C389 C383 1.491 . S
C389 C388 1.400 . S
C389 C390 1.398 . S
C390 H378 0.950 . S
C390 C389 1.398 . S
C390 C391 1.391 . S
C391 H379 0.950 . S
C391 C387 1.393 . S
C391 C390 1.391 . S
H392 C400 0.950 . S
H393 C405 0.950 . S
H394 C402 0.950 . S
H395 C404 0.950 . S
H396 C406 0.950 . S
H397 C408 0.950 . S
H398 C410 0.950 . S
H399 C411 0.950 . S
C400 H392 0.950 . S
C400 C401 1.386 . S
C400 C402 1.391 . S
C401 C400 1.386 . S
C401 C405 1.393 . S
C402 H394 0.950 . S
C402 C400 1.391 . S
C402 C403 1.400 . S
C403 C402 1.400 . S
C403 C404 1.398 . S
C403 C409 1.491 . S
C404 H395 0.950 . S
C404 C403 1.398 . S
C404 C405 1.391 . S
C405 H393 0.950 . S
C405 C401 1.393 . S
C405 C404 1.391 . S
C406 H396 0.950 . S
C406 C407 1.386 . S
C406 C408 1.391 . S
C407 C406 1.386 . S
C407 C411 1.393 . S
C408 H397 0.950 . S
C408 C406 1.391 . S
C408 C409 1.400 . S
C409 C403 1.491 . S
C409 C408 1.400 . S
C409 C410 1.398 . S
C410 H398 0.950 . S
C410 C409 1.398 . S
C410 C411 1.391 . S
C411 H399 0.950 . S
C411 C407 1.393 . S
C411 C410 1.391 . S
H412 C420 0.950 . S
H413 C425 0.950 . S
H414 C422 0.950 . S
H415 C424 0.950 . S
H416 C426 0.950 . S
H417 C428 0.950 . S
H418 C430 0.950 . S
H419 C431 0.950 . S
C420 H412 0.950 . S
C420 C421 1.386 . S
C420 C422 1.391 . S
C421 C420 1.386 . S
C421 C425 1.393 . S
C422 H414 0.950 . S
C422 C420 1.391 . S
C422 C423 1.400 . S
C423 C422 1.400 . S
C423 C424 1.398 . S
C423 C429 1.491 . S
C424 H415 0.950 . S
C424 C423 1.398 . S
C424 C425 1.391 . S
C425 H413 0.950 . S
C425 C421 1.393 . S
C425 C424 1.391 . S
C426 H416 0.950 . S
C426 C427 1.386 . S
C426 C428 1.391 . S
C427 C426 1.386 . S
C427 C431 1.393 . S
C428 H417 0.950 . S
C428 C426 1.391 . S
C428 C429 1.400 . S
C429 C423 1.491 . S
C429 C428 1.400 . S
C429 C430 1.398 . S
C430 H418 0.950 . S
C430 C429 1.398 . S
C430 C431 1.391 . S
C431 H419 0.950 . S
C431 C427 1.393 . S
C431 C430 1.391 . S
H432 C440 0.950 . S
H433 C445 0.950 . S
H434 C442 0.950 . S
H435 C444 0.950 . S
H436 C446 0.950 . S
H437 C448 0.950 . S
H438 C450 0.950 . S
H439 C451 0.950 . S
C440 H432 0.950 . S
C440 C441 1.386 . S
C440 C442 1.391 . S
C441 C440 1.386 . S
C441 C445 1.393 . S
C442 H434 0.950 . S
C442 C440 1.391 . S
C442 C443 1.400 . S
C443 C442 1.400 . S
C443 C444 1.398 . S
C443 C449 1.491 . S
C444 H435 0.950 . S
C444 C443 1.398 . S
C444 C445 1.391 . S
C445 H433 0.950 . S
C445 C441 1.393 . S
C445 C444 1.391 . S
C446 H436 0.950 . S
C446 C447 1.386 . S
C446 C448 1.391 . S
C447 C446 1.386 . S
C447 C451 1.393 . S
C448 H437 0.950 . S
C448 C446 1.391 . S
C448 C449 1.400 . S
C449 C443 1.491 . S
C449 C448 1.400 . S
C449 C450 1.398 . S
C450 H438 0.950 . S
C450 C449 1.398 . S
C450 C451 1.391 . S
C451 H439 0.950 . S
C451 C447 1.393 . S
C451 C450 1.391 . S
H452 C460 0.950 . S
H453 C465 0.950 . S
H454 C462 0.950 . S
H455 C464 0.950 . S
H456 C466 0.950 . S
H457 C468 0.950 . S
H458 C470 0.950 . S
H459 C471 0.950 . S
C460 H452 0.950 . S
C460 C461 1.386 . S
C460 C462 1.391 . S
C461 C460 1.386 . S
C461 C465 1.393 . S
C462 H454 0.950 . S
C462 C460 1.391 . S
C462 C463 1.400 . S
C463 C462 1.400 . S
C463 C464 1.398 . S
C463 C469 1.491 . S
C464 H455 0.950 . S
C464 C463 1.398 . S
C464 C465 1.391 . S
C465 H453 0.950 . S
C465 C461 1.393 . S
C465 C464 1.391 . S
C466 H456 0.950 . S
C466 C467 1.386 . S
C466 C468 1.391 . S
C467 C466 1.386 . S
C467 C471 1.393 . S
C468 H457 0.950 . S
C468 C466 1.391 . S
C468 C469 1.400 . S
C469 C463 1.491 . S
C469 C468 1.400 . S
C469 C470 1.398 . S
C470 H458 0.950 . S
C470 C469 1.398 . S
C470 C471 1.391 . S
C471 H459 0.950 . S
C471 C467 1.393 . S
C471 C470 1.391 . S
H472 C480 0.950 . S
H473 C485 0.950 . S
H474 C482 0.950 . S
H475 C484 0.950 . S
H476 C486 0.950 . S
H477 C488 0.950 . S
H478 C490 0.950 . S
H479 C491 0.950 . S
C480 H472 0.950 . S
C480 C481 1.386 . S
C480 C482 1.391 . S
C481 C480 1.386 . S
C481 C485 1.393 . S
C482 H474 0.950 . S
C482 C480 1.391 . S
C482 C483 1.400 . S
C483 C482 1.400 . S
C483 C484 1.398 . S
C483 C489 1.491 . S
C484 H475 0.950 . S
C484 C483 1.398 . S
C484 C485 1.391 . S
C485 H473 0.950 . S
C485 C481 1.393 . S
C485 C484 1.391 . S
C486 H476 0.950 . S
C486 C487 1.386 . S
C486 C488 1.391 . S
C487 C486 1.386 . S
C487 C491 1.393 . S
C488 H477 0.950 . S
C488 C486 1.391 . S
C488 C489 1.400 . S
C489 C483 1.491 . S
C489 C488 1.400 . S
C489 C490 1.398 . S
C490 H478 0.950 . S
C490 C489 1.398 . S
C490 C491 1.391 . S
C491 H479 0.950 . S
C491 C487 1.393 . S
C491 C490 1.391 . S
H492 C500 0.950 . S
H493 C505 0.950 . S
H494 C502 0.950 . S
H495 C504 0.950 . S
H496 C506 0.950 . S
H497 C508 0.950 . S
H498 C510 0.950 . S
H499 C511 0.950 . S
C500 H492 0.950 . S
C500 C501 1.386 . S
C500 C502 1.391 . S
C501 C500 1.386 . S
C501 C505 1.393 . S
C502 H494 0.950 . S
C502 C500 1.391 . S
C502 C503 1.400 . S
C503 C502 1.400 . S
C503 C504 1.398 . S
C503 C509 1.491 . S
C504 H495 0.950 . S
C504 C503 1.398 . S
C504 C505 1.391 . S
C505 H493 0.950 . S
C505 C501 1.393 . S
C505 C504 1.391 . S
C506 H496 0.950 . S
C506 C507 1.386 . S
C506 C508 1.391 . S
C507 C506 1.386 . S
C507 C511 1.393 . S
C508 H497 0.950 . S
C508 C506 1.391 . S
C508 C509 1.400 . S
C509 C503 1.491 . S
C509 C508 1.400 . S
C509 C510 1.398 . S
C510 H498 0.950 . S
C510 C509 1.398 . S
C510 C511 1.391 . S
C511 H499 0.950 . S
C511 C507 1.393 . S
C511 C510 1.391 . S
H512 C520 0.950 . S
H513 C525 0.950 . S
H514 C522 0.950 . S
H515 C524 0.950 . S
H516 C526 0.950 . S
H517 C528 0.950 . S
H518 C530 0.950 . S
H519 C531 0.950 . S
C520 H512 0.950 . S
C520 C521 1.386 . S
C520 C522 1.391 . S
C521 C520 1.386 . S
C521 C525 1.393 1_554 S
C522 H514 0.950 . S
C522 C520 1.391 . S
C522 C523 1.400 . S
C523 C522 1.400 . S
C523 C524 1.398 1_554 S
C523 C529 1.491 . S
C524 H515 0.950 . S
C524 C523 1.398 1_556 S
C524 C525 1.391 . S
C525 H513 0.950 . S
C525 C521 1.393 1_556 S
C525 C524 1.391 . S
C526 H516 0.950 . S
C526 C527 1.386 . S
C526 C528 1.391 . S
C527 C526 1.386 . S
C527 C531 1.393 1_556 S
C528 H517 0.950 . S
C528 C526 1.391 . S
C528 C529 1.400 1_556 S
C529 C523 1.491 . S
C529 C528 1.400 1_554 S
C529 C530 1.398 . S
C530 H518 0.950 . S
C530 C529 1.398 . S
C530 C531 1.391 . S
C531 H519 0.950 . S
C531 C527 1.393 1_554 S
C531 C530 1.391 . S
H532 C540 0.950 . S
H533 C545 0.950 . S
H534 C542 0.950 . S
H535 C544 0.950 . S
H536 C546 0.950 1_554 S
H537 C548 0.950 . S
H538 C550 0.950 . S
H539 C551 0.950 . S
C540 H532 0.950 . S
C540 C541 1.386 1_556 S
C540 C542 1.391 . S
C541 C540 1.386 1_554 S
C541 C545 1.393 . S
C542 H534 0.950 . S
C542 C540 1.391 . S
C542 C543 1.400 . S
C543 C542 1.400 . S
C543 C544 1.398 1_556 S
C543 C549 1.491 . S
C544 H535 0.950 . S
C544 C543 1.398 1_554 S
C544 C545 1.391 . S
C545 H533 0.950 . S
C545 C541 1.393 . S
C545 C544 1.391 . S
C546 H536 0.950 1_556 S
C546 C547 1.386 . S
C546 C548 1.391 1_556 S
C547 C546 1.386 . S
C547 C551 1.393 . S
C548 H537 0.950 . S
C548 C546 1.391 1_554 S
C548 C549 1.400 1_554 S
C549 C543 1.491 . S
C549 C548 1.400 1_556 S
C549 C550 1.398 . S
C550 H538 0.950 . S
C550 C549 1.398 . S
C550 C551 1.391 . S
C551 H539 0.950 . S
C551 C547 1.393 . S
C551 C550 1.391 . S
H552 C560 0.950 . S
H553 C565 0.950 . S
H554 C562 0.950 . S
H555 C564 0.950 . S
H556 C566 0.950 . S
H557 C568 0.950 . S
H558 C570 0.950 . S
H559 C571 0.950 . S
C560 H552 0.950 . S
C560 C561 1.386 1_554 S
C560 C562 1.391 . S
C561 C560 1.386 1_556 S
C561 C565 1.393 . S
C562 H554 0.950 . S
C562 C560 1.391 . S
C562 C563 1.400 . S
C563 C562 1.400 . S
C563 C564 1.398 1_554 S
C563 C569 1.491 . S
C564 H555 0.950 . S
C564 C563 1.398 1_556 S
C564 C565 1.391 . S
C565 H553 0.950 . S
C565 C561 1.393 . S
C565 C564 1.391 . S
C566 H556 0.950 . S
C566 C567 1.386 . S
C566 C568 1.391 . S
C567 C566 1.386 . S
C567 C571 1.393 . S
C568 H557 0.950 . S
C568 C566 1.391 . S
C568 C569 1.400 . S
C569 C563 1.491 . S
C569 C568 1.400 . S
C569 C570 1.398 . S
C570 H558 0.950 . S
C570 C569 1.398 . S
C570 C571 1.391 . S
C571 H559 0.950 . S
C571 C567 1.393 . S
C571 C570 1.391 . S
H572 C580 0.950 . S
H573 C585 0.950 . S
H574 C582 0.950 . S
H575 C584 0.950 . S
H576 C586 0.950 . S
H577 C588 0.950 . S
H578 C590 0.950 . S
H579 C591 0.950 . S
C580 H572 0.950 . S
C580 C581 1.386 . S
C580 C582 1.391 . S
C581 C580 1.386 . S
C581 C585 1.393 . S
C582 H574 0.950 . S
C582 C580 1.391 . S
C582 C583 1.400 . S
C583 C582 1.400 . S
C583 C584 1.398 . S
C583 C589 1.491 . S
C584 H575 0.950 . S
C584 C583 1.398 . S
C584 C585 1.391 . S
C585 H573 0.950 . S
C585 C581 1.393 . S
C585 C584 1.391 . S
C586 H576 0.950 . S
C586 C587 1.386 1_556 S
C586 C588 1.391 . S
C587 C586 1.386 1_554 S
C587 C591 1.393 . S
C588 H577 0.950 . S
C588 C586 1.391 . S
C588 C589 1.400 . S
C589 C583 1.491 . S
C589 C588 1.400 . S
C589 C590 1.398 1_556 S
C590 H578 0.950 . S
C590 C589 1.398 1_554 S
C590 C591 1.391 . S
C591 H579 0.950 . S
C591 C587 1.393 . S
C591 C590 1.391 . S
H592 C600 0.950 . S
H593 C605 0.950 . S
H594 C602 0.950 . S
H595 C604 0.950 . S
H596 C606 0.950 . S
H597 C608 0.950 . S
H598 C610 0.950 . S
H599 C611 0.950 . S
C600 H592 0.950 . S
C600 C601 1.386 . S
C600 C602 1.391 . S
C601 C600 1.386 . S
C601 C605 1.393 . S
C602 H594 0.950 . S
C602 C600 1.391 . S
C602 C603 1.400 . S
C603 C602 1.400 . S
C603 C604 1.398 . S
C603 C609 1.491 . S
C604 H595 0.950 . S
C604 C603 1.398 . S
C604 C605 1.391 . S
C605 H593 0.950 . S
C605 C601 1.393 . S
C605 C604 1.391 . S
C606 H596 0.950 . S
C606 C607 1.386 . S
C606 C608 1.391 . S
C607 C606 1.386 . S
C607 C611 1.393 . S
C608 H597 0.950 . S
C608 C606 1.391 . S
C608 C609 1.400 . S
C609 C603 1.491 . S
C609 C608 1.400 . S
C609 C610 1.398 . S
C610 H598 0.950 . S
C610 C609 1.398 . S
C610 C611 1.391 . S
C611 H599 0.950 . S
C611 C607 1.393 . S
C611 C610 1.391 . S
H612 C620 0.950 . S
H613 C625 0.950 . S
H614 C622 0.950 . S
H615 C624 0.950 . S
H616 C626 0.950 . S
H617 C628 0.950 . S
H618 C630 0.950 . S
H619 C631 0.950 . S
C620 H612 0.950 . S
C620 C621 1.386 . S
C620 C622 1.391 . S
C621 C620 1.386 . S
C621 C625 1.393 . S
C622 H614 0.950 . S
C622 C620 1.391 . S
C622 C623 1.400 . S
C623 C622 1.400 . S
C623 C624 1.398 . S
C623 C629 1.491 . S
C624 H615 0.950 . S
C624 C623 1.398 . S
C624 C625 1.391 . S
C625 H613 0.950 . S
C625 C621 1.393 . S
C625 C624 1.391 . S
C626 H616 0.950 . S
C626 C627 1.386 . S
C626 C628 1.391 . S
C627 C626 1.386 . S
C627 C631 1.393 . S
C628 H617 0.950 . S
C628 C626 1.391 . S
C628 C629 1.400 . S
C629 C623 1.491 . S
C629 C628 1.400 . S
C629 C630 1.398 . S
C630 H618 0.950 . S
C630 C629 1.398 . S
C630 C631 1.391 . S
C631 H619 0.950 . S
C631 C627 1.393 . S
C631 C630 1.391 . S
H632 C640 0.950 . S
H633 C645 0.950 . S
H634 C642 0.950 . S
H635 C644 0.950 . S
H636 C646 0.950 . S
H637 C648 0.950 . S
H638 C650 0.950 . S
H639 C651 0.950 . S
C640 H632 0.950 . S
C640 C641 1.386 . S
C640 C642 1.391 . S
C641 C640 1.386 . S
C641 C645 1.393 . S
C642 H634 0.950 . S
C642 C640 1.391 . S
C642 C643 1.400 . S
C643 C642 1.400 . S
C643 C644 1.398 . S
C643 C649 1.491 . S
C644 H635 0.950 . S
C644 C643 1.398 . S
C644 C645 1.391 . S
C645 H633 0.950 . S
C645 C641 1.393 . S
C645 C644 1.391 . S
C646 H636 0.950 . S
C646 C647 1.386 . S
C646 C648 1.391 . S
C647 C646 1.386 . S
C647 C651 1.393 . S
C648 H637 0.950 . S
C648 C646 1.391 . S
C648 C649 1.400 . S
C649 C643 1.491 . S
C649 C648 1.400 . S
C649 C650 1.398 . S
C650 H638 0.950 . S
C650 C649 1.398 . S
C650 C651 1.391 . S
C651 H639 0.950 . S
C651 C647 1.393 . S
C651 C650 1.391 . S
H652 C660 0.950 . S
H653 C665 0.950 . S
H654 C662 0.950 . S
H655 C664 0.950 . S
H656 C666 0.950 . S
H657 C668 0.950 . S
H658 C670 0.950 . S
H659 C671 0.950 . S
C660 H652 0.950 . S
C660 C661 1.386 . S
C660 C662 1.391 . S
C661 C660 1.386 . S
C661 C665 1.393 . S
C662 H654 0.950 . S
C662 C660 1.391 . S
C662 C663 1.400 . S
C663 C662 1.400 . S
C663 C664 1.398 . S
C663 C669 1.491 . S
C664 H655 0.950 . S
C664 C663 1.398 . S
C664 C665 1.391 . S
C665 H653 0.950 . S
C665 C661 1.393 . S
C665 C664 1.391 . S
C666 H656 0.950 . S
C666 C667 1.386 . S
C666 C668 1.391 . S
C667 C666 1.386 . S
C667 C671 1.393 . S
C668 H657 0.950 . S
C668 C666 1.391 . S
C668 C669 1.400 . S
C669 C663 1.491 . S
C669 C668 1.400 . S
C669 C670 1.398 . S
C670 H658 0.950 . S
C670 C669 1.398 . S
C670 C671 1.391 . S
C671 H659 0.950 . S
C671 C667 1.393 . S
C671 C670 1.391 . S
H672 C680 0.950 . S
H673 C685 0.950 . S
H674 C682 0.950 . S
H675 C684 0.950 . S
H676 C686 0.950 . S
H677 C688 0.950 . S
H678 C690 0.950 . S
H679 C691 0.950 . S
C680 H672 0.950 . S
C680 C681 1.386 . S
C680 C682 1.391 . S
C681 C680 1.386 . S
C681 C685 1.393 . S
C682 H674 0.950 . S
C682 C680 1.391 . S
C682 C683 1.400 . S
C683 C682 1.400 . S
C683 C684 1.398 . S
C683 C689 1.491 . S
C684 H675 0.950 . S
C684 C683 1.398 . S
C684 C685 1.391 . S
C685 H673 0.950 . S
C685 C681 1.393 . S
C685 C684 1.391 . S
C686 H676 0.950 . S
C686 C687 1.386 . S
C686 C688 1.391 . S
C687 C686 1.386 . S
C687 C691 1.393 . S
C688 H677 0.950 . S
C688 C686 1.391 . S
C688 C689 1.400 . S
C689 C683 1.491 . S
C689 C688 1.400 . S
C689 C690 1.398 . S
C690 H678 0.950 . S
C690 C689 1.398 . S
C690 C691 1.391 . S
C691 H679 0.950 . S
C691 C687 1.393 . S
C691 C690 1.391 . S
H692 C700 0.950 . S
H693 C705 0.950 . S
H694 C702 0.950 . S
H695 C704 0.950 . S
H696 C706 0.950 . S
H697 C708 0.950 . S
H698 C710 0.950 . S
H699 C711 0.950 . S
C700 H692 0.950 . S
C700 C701 1.386 . S
C700 C702 1.391 . S
C701 C700 1.386 . S
C701 C705 1.393 . S
C702 H694 0.950 . S
C702 C700 1.391 . S
C702 C703 1.400 . S
C703 C702 1.400 . S
C703 C704 1.398 . S
C703 C709 1.491 . S
C704 H695 0.950 . S
C704 C703 1.398 . S
C704 C705 1.391 . S
C705 H693 0.950 . S
C705 C701 1.393 . S
C705 C704 1.391 . S
C706 H696 0.950 . S
C706 C707 1.386 . S
C706 C708 1.391 . S
C707 C706 1.386 . S
C707 C711 1.393 . S
C708 H697 0.950 . S
C708 C706 1.391 . S
C708 C709 1.400 . S
C709 C703 1.491 . S
C709 C708 1.400 . S
C709 C710 1.398 . S
C710 H698 0.950 . S
C710 C709 1.398 . S
C710 C711 1.391 . S
C711 H699 0.950 . S
C711 C707 1.393 . S
C711 C710 1.391 . S
H712 C720 0.950 . S
H713 C725 0.950 . S
H714 C722 0.950 . S
H715 C724 0.950 . S
H716 C726 0.950 . S
H717 C728 0.950 . S
H718 C730 0.950 . S
H719 C731 0.950 . S
C720 H712 0.950 . S
C720 C721 1.386 . S
C720 C722 1.391 . S
C721 C720 1.386 . S
C721 C725 1.393 . S
C722 H714 0.950 . S
C722 C720 1.391 . S
C722 C723 1.400 . S
C723 C722 1.400 . S
C723 C724 1.398 . S
C723 C729 1.491 . S
C724 H715 0.950 . S
C724 C723 1.398 . S
C724 C725 1.391 . S
C725 H713 0.950 . S
C725 C721 1.393 . S
C725 C724 1.391 . S
C726 H716 0.950 . S
C726 C727 1.386 . S
C726 C728 1.391 . S
C727 C726 1.386 . S
C727 C731 1.393 . S
C728 H717 0.950 . S
C728 C726 1.391 . S
C728 C729 1.400 . S
C729 C723 1.491 . S
C729 C728 1.400 . S
C729 C730 1.398 . S
C730 H718 0.950 . S
C730 C729 1.398 . S
C730 C731 1.391 . S
C731 H719 0.950 . S
C731 C727 1.393 . S
C731 C730 1.391 . S
H732 C740 0.950 . S
H733 C745 0.950 . S
H734 C742 0.950 . S
H735 C744 0.950 . S
H736 C746 0.950 . S
H737 C748 0.950 . S
H738 C750 0.950 . S
H739 C751 0.950 . S
C740 H732 0.950 . S
C740 C741 1.386 . S
C740 C742 1.391 . S
C741 C740 1.386 . S
C741 C745 1.393 . S
C742 H734 0.950 . S
C742 C740 1.391 . S
C742 C743 1.400 . S
C743 C742 1.400 . S
C743 C744 1.398 . S
C743 C749 1.491 . S
C744 H735 0.950 . S
C744 C743 1.398 . S
C744 C745 1.391 . S
C745 H733 0.950 . S
C745 C741 1.393 . S
C745 C744 1.391 . S
C746 H736 0.950 . S
C746 C747 1.386 . S
C746 C748 1.391 . S
C747 C746 1.386 . S
C747 C751 1.393 . S
C748 H737 0.950 . S
C748 C746 1.391 . S
C748 C749 1.400 . S
C749 C743 1.491 . S
C749 C748 1.400 . S
C749 C750 1.398 . S
C750 H738 0.950 . S
C750 C749 1.398 . S
C750 C751 1.391 . S
C751 H739 0.950 . S
C751 C747 1.393 . S
C751 C750 1.391 . S
H752 C760 0.950 . S
H753 C765 0.950 . S
H754 C762 0.950 . S
H755 C764 0.950 . S
H756 C766 0.950 . S
H757 C768 0.950 . S
H758 C770 0.950 . S
H759 C771 0.950 . S
C760 H752 0.950 . S
C760 C761 1.386 1_554 S
C760 C762 1.391 . S
C761 C760 1.386 1_556 S
C761 C765 1.393 . S
C762 H754 0.950 . S
C762 C760 1.391 . S
C762 C763 1.400 . S
C763 C762 1.400 . S
C763 C764 1.398 1_554 S
C763 C769 1.491 . S
C764 H755 0.950 . S
C764 C763 1.398 1_556 S
C764 C765 1.391 . S
C765 H753 0.950 . S
C765 C761 1.393 . S
C765 C764 1.391 . S
C766 H756 0.950 . S
C766 C767 1.386 1_556 S
C766 C768 1.391 . S
C767 C766 1.386 1_554 S
C767 C771 1.393 . S
C768 H757 0.950 . S
C768 C766 1.391 . S
C768 C769 1.400 1_556 S
C769 C763 1.491 . S
C769 C768 1.400 1_554 S
C769 C770 1.398 . S
C770 H758 0.950 . S
C770 C769 1.398 . S
C770 C771 1.391 . S
C771 H759 0.950 . S
C771 C767 1.393 . S
C771 C770 1.391 . S
H772 C780 0.950 . S
H773 C785 0.950 . S
H774 C782 0.950 . S
H775 C784 0.950 . S
H776 C786 0.950 . S
H777 C788 0.950 . S
H778 C790 0.950 . S
H779 C791 0.950 . S
C780 H772 0.950 . S
C780 C781 1.386 . S
C780 C782 1.391 . S
C781 C780 1.386 . S
C781 C785 1.393 1_554 S
C782 H774 0.950 . S
C782 C780 1.391 . S
C782 C783 1.400 1_554 S
C783 C782 1.400 1_556 S
C783 C784 1.398 . S
C783 C789 1.491 . S
C784 H775 0.950 . S
C784 C783 1.398 . S
C784 C785 1.391 . S
C785 H773 0.950 . S
C785 C781 1.393 1_556 S
C785 C784 1.391 . S
C786 H776 0.950 . S
C786 C787 1.386 . S
C786 C788 1.391 . S
C787 C786 1.386 . S
C787 C791 1.393 1_556 S
C788 H777 0.950 . S
C788 C786 1.391 . S
C788 C789 1.400 . S
C789 C783 1.491 . S
C789 C788 1.400 . S
C789 C790 1.398 1_556 S
C790 H778 0.950 . S
C790 C789 1.398 1_554 S
C790 C791 1.391 . S
C791 H779 0.950 . S
C791 C787 1.393 1_554 S
C791 C790 1.391 . S
H792 C800 0.950 . S
H793 C805 0.950 . S
H794 C802 0.950 . S
H795 C804 0.950 . S
H796 C806 0.950 . S
H797 C808 0.950 . S
H798 C810 0.950 . S
H799 C811 0.950 . S
C800 H792 0.950 . S
C800 C801 1.386 . S
C800 C802 1.391 1_556 S
C801 C800 1.386 . S
C801 C805 1.393 . S
C802 H794 0.950 . S
C802 C800 1.391 1_554 S
C802 C803 1.400 . S
C803 C802 1.400 . S
C803 C804 1.398 . S
C803 C809 1.491 . S
C804 H795 0.950 . S
C804 C803 1.398 . S
C804 C805 1.391 1_554 S
C805 H793 0.950 . S
C805 C801 1.393 . S
C805 C804 1.391 1_556 S
C806 H796 0.950 . S
C806 C807 1.386 . S
C806 C808 1.391 . S
C807 C806 1.386 . S
C807 C811 1.393 . S
C808 H797 0.950 . S
C808 C806 1.391 . S
C808 C809 1.400 . S
C809 C803 1.491 . S
C809 C808 1.400 . S
C809 C810 1.398 . S
C810 H798 0.950 . S
C810 C809 1.398 . S
C810 C811 1.391 . S
C811 H799 0.950 . S
C811 C807 1.393 . S
C811 C810 1.391 . S
H812 C820 0.950 . S
H813 C825 0.950 . S
H814 C822 0.950 . S
H815 C824 0.950 1_554 S
H816 C826 0.950 . S
H817 C828 0.950 . S
H818 C830 0.950 . S
H819 C831 0.950 . S
C820 H812 0.950 . S
C820 C821 1.386 . S
C820 C822 1.391 . S
C821 C820 1.386 . S
C821 C825 1.393 . S
C822 H814 0.950 . S
C822 C820 1.391 . S
C822 C823 1.400 . S
C823 C822 1.400 . S
C823 C824 1.398 . S
C823 C829 1.491 . S
C824 H815 0.950 1_556 S
C824 C823 1.398 . S
C824 C825 1.391 . S
C825 H813 0.950 . S
C825 C821 1.393 . S
C825 C824 1.391 . S
C826 H816 0.950 . S
C826 C827 1.386 . S
C826 C828 1.391 . S
C827 C826 1.386 . S
C827 C831 1.393 1_554 S
C828 H817 0.950 . S
C828 C826 1.391 . S
C828 C829 1.400 1_554 S
C829 C823 1.491 . S
C829 C828 1.400 1_556 S
C829 C830 1.398 . S
C830 H818 0.950 . S
C830 C829 1.398 . S
C830 C831 1.391 . S
C831 H819 0.950 . S
C831 C827 1.393 1_556 S
C831 C830 1.391 . S
H832 C840 0.950 . S
H833 C845 0.950 . S
H834 C842 0.950 . S
H835 C844 0.950 . S
H836 C846 0.950 . S
H837 C848 0.950 . S
H838 C850 0.950 1_565 S
H839 C851 0.950 . S
C840 H832 0.950 . S
C840 C841 1.386 . S
C840 C842 1.391 . S
C841 C840 1.386 . S
C841 C845 1.393 1_565 S
C842 H834 0.950 . S
C842 C840 1.391 . S
C842 C843 1.400 1_565 S
C843 C842 1.400 1_545 S
C843 C844 1.398 . S
C843 C849 1.491 . S
C844 H835 0.950 . S
C844 C843 1.398 . S
C844 C845 1.391 . S
C845 H833 0.950 . S
C845 C841 1.393 1_545 S
C845 C844 1.391 . S
C846 H836 0.950 . S
C846 C847 1.386 . S
C846 C848 1.391 . S
C847 C846 1.386 . S
C847 C851 1.393 . S
C848 H837 0.950 . S
C848 C846 1.391 . S
C848 C849 1.400 . S
C849 C843 1.491 . S
C849 C848 1.400 . S
C849 C850 1.398 . S
C850 H838 0.950 1_545 S
C850 C849 1.398 . S
C850 C851 1.391 . S
C851 H839 0.950 . S
C851 C847 1.393 . S
C851 C850 1.391 . S
H852 C860 0.950 . S
H853 C865 0.950 . S
H854 C862 0.950 . S
H855 C864 0.950 . S
H856 C866 0.950 . S
H857 C868 0.950 1_655 S
H858 C870 0.950 . S
H859 C871 0.950 . S
C860 H852 0.950 . S
C860 C861 1.386 1_455 S
C860 C862 1.391 . S
C861 C860 1.386 1_655 S
C861 C865 1.393 . S
C862 H854 0.950 . S
C862 C860 1.391 . S
C862 C863 1.400 . S
C863 C862 1.400 . S
C863 C864 1.398 1_455 S
C863 C869 1.491 . S
C864 H855 0.950 . S
C864 C863 1.398 1_655 S
C864 C865 1.391 . S
C865 H853 0.950 . S
C865 C861 1.393 . S
C865 C864 1.391 . S
C866 H856 0.950 . S
C866 C867 1.386 . S
C866 C868 1.391 . S
C867 C866 1.386 . S
C867 C871 1.393 . S
C868 H857 0.950 1_455 S
C868 C866 1.391 . S
C868 C869 1.400 . S
C869 C863 1.491 . S
C869 C868 1.400 . S
C869 C870 1.398 . S
C870 H858 0.950 . S
C870 C869 1.398 . S
C870 C871 1.391 . S
C871 H859 0.950 . S
C871 C867 1.393 . S
C871 C870 1.391 . S
H872 C880 0.950 . S
H873 C885 0.950 . S
H874 C882 0.950 . S
H875 C884 0.950 . S
H876 C886 0.950 . S
H877 C888 0.950 . S
H878 C890 0.950 . S
H879 C891 0.950 . S
C880 H872 0.950 . S
C880 C881 1.386 . S
C880 C882 1.391 . S
C881 C880 1.386 . S
C881 C885 1.393 . S
C882 H874 0.950 . S
C882 C880 1.391 . S
C882 C883 1.400 . S
C883 C882 1.400 . S
C883 C884 1.398 . S
C883 C889 1.491 . S
C884 H875 0.950 . S
C884 C883 1.398 . S
C884 C885 1.391 . S
C885 H873 0.950 . S
C885 C881 1.393 . S
C885 C884 1.391 . S
C886 H876 0.950 . S
C886 C887 1.386 . S
C886 C888 1.391 1_545 S
C887 C886 1.386 . S
C887 C891 1.393 . S
C888 H877 0.950 . S
C888 C886 1.391 1_565 S
C888 C889 1.400 . S
C889 C883 1.491 . S
C889 C888 1.400 . S
C889 C890 1.398 1_565 S
C890 H878 0.950 . S
C890 C889 1.398 1_545 S
C890 C891 1.391 . S
C891 H879 0.950 . S
C891 C887 1.393 . S
C891 C890 1.391 . S
H892 C900 0.950 . S
H893 C905 0.950 . S
H894 C902 0.950 1_455 S
H895 C904 0.950 . S
H896 C906 0.950 . S
H897 C908 0.950 . S
H898 C910 0.950 . S
H899 C911 0.950 . S
C900 H892 0.950 . S
C900 C901 1.386 . S
C900 C902 1.391 . S
C901 C900 1.386 . S
C901 C905 1.393 . S
C902 H894 0.950 1_655 S
C902 C900 1.391 . S
C902 C903 1.400 . S
C903 C902 1.400 . S
C903 C904 1.398 . S
C903 C909 1.491 . S
C904 H895 0.950 . S
C904 C903 1.398 . S
C904 C905 1.391 . S
C905 H893 0.950 . S
C905 C901 1.393 . S
C905 C904 1.391 . S
C906 H896 0.950 . S
C906 C907 1.386 1_655 S
C906 C908 1.391 . S
C907 C906 1.386 1_455 S
C907 C911 1.393 . S
C908 H897 0.950 . S
C908 C906 1.391 . S
C908 C909 1.400 . S
C909 C903 1.491 . S
C909 C908 1.400 . S
C909 C910 1.398 1_655 S
C910 H898 0.950 . S
C910 C909 1.398 1_455 S
C910 C911 1.391 . S
C911 H899 0.950 . S
C911 C907 1.393 . S
C911 C910 1.391 . S
H912 C920 0.950 . S
H913 C925 0.950 . S
H914 C922 0.950 . S
H915 C924 0.950 . S
H916 C926 0.950 . S
H917 C928 0.950 1_565 S
H918 C930 0.950 . S
H919 C931 0.950 . S
C920 H912 0.950 . S
C920 C921 1.386 1_545 S
C920 C922 1.391 . S
C921 C920 1.386 1_565 S
C921 C925 1.393 . S
C922 H914 0.950 . S
C922 C920 1.391 . S
C922 C923 1.400 . S
C923 C922 1.400 . S
C923 C924 1.398 1_545 S
C923 C929 1.491 . S
C924 H915 0.950 . S
C924 C923 1.398 1_565 S
C924 C925 1.391 . S
C925 H913 0.950 . S
C925 C921 1.393 . S
C925 C924 1.391 . S
C926 H916 0.950 . S
C926 C927 1.386 . S
C926 C928 1.391 . S
C927 C926 1.386 . S
C927 C931 1.393 . S
C928 H917 0.950 1_545 S
C928 C926 1.391 . S
C928 C929 1.400 . S
C929 C923 1.491 . S
C929 C928 1.400 . S
C929 C930 1.398 . S
C930 H918 0.950 . S
C930 C929 1.398 . S
C930 C931 1.391 . S
C931 H919 0.950 . S
C931 C927 1.393 . S
C931 C930 1.391 . S
H932 C940 0.950 . S
H933 C945 0.950 . S
H934 C942 0.950 . S
H935 C944 0.950 . S
H936 C946 0.950 . S
H937 C948 0.950 . S
H938 C950 0.950 . S
H939 C951 0.949 1_455 S
C940 H932 0.950 . S
C940 C941 1.386 . S
C940 C942 1.391 . S
C941 C940 1.386 . S
C941 C945 1.393 . S
C942 H934 0.950 . S
C942 C940 1.391 . S
C942 C943 1.400 . S
C943 C942 1.400 . S
C943 C944 1.398 . S
C943 C949 1.491 . S
C944 H935 0.950 . S
C944 C943 1.398 . S
C944 C945 1.391 . S
C945 H933 0.950 . S
C945 C941 1.393 . S
C945 C944 1.391 . S
C946 H936 0.950 . S
C946 C947 1.386 . S
C946 C948 1.391 . S
C947 C946 1.386 . S
C947 C951 1.397 . S
C948 H937 0.950 . S
C948 C946 1.391 . S
C948 C949 1.400 1_655 S
C949 C943 1.491 . S
C949 C948 1.400 1_455 S
C949 C950 1.398 . S
C950 H938 0.950 . S
C950 C949 1.398 . S
C950 C951 1.387 1_455 S
C951 H939 0.949 1_655 S
C951 C947 1.397 . S
C951 C950 1.387 1_655 S
H952 C960 0.950 . S
H953 C965 0.950 . S
H954 C962 0.950 . S
H955 C964 0.950 . S
H956 C966 0.950 . S
H957 C968 0.950 . S
H958 C970 0.950 . S
H959 C971 0.950 . S
C960 H952 0.950 . S
C960 C961 1.386 . S
C960 C962 1.391 . S
C961 C960 1.386 . S
C961 C965 1.393 . S
C962 H954 0.950 . S
C962 C960 1.391 . S
C962 C963 1.400 . S
C963 C962 1.400 . S
C963 C964 1.398 . S
C963 C969 1.491 . S
C964 H955 0.950 . S
C964 C963 1.398 . S
C964 C965 1.391 . S
C965 H953 0.950 . S
C965 C961 1.393 . S
C965 C964 1.391 . S
C966 H956 0.950 . S
C966 C967 1.386 . S
C966 C968 1.391 1_545 S
C967 C966 1.386 . S
C967 C971 1.393 . S
C968 H957 0.950 . S
C968 C966 1.391 1_565 S
C968 C969 1.400 . S
C969 C963 1.491 . S
C969 C968 1.400 . S
C969 C970 1.398 . S
C970 H958 0.950 . S
C970 C969 1.398 . S
C970 C971 1.391 1_565 S
C971 H959 0.950 . S
C971 C967 1.393 . S
C971 C970 1.391 1_545 S
H972 C980 0.950 . S
H973 C985 0.950 . S
H974 C982 0.950 . S
H975 C984 0.950 . S
H976 C986 0.950 . S
H977 C988 0.950 . S
H978 C990 0.950 . S
H979 C991 0.950 . S
C980 H972 0.950 . S
C980 C981 1.386 . S
C980 C982 1.391 . S
C981 C980 1.386 . S
C981 C985 1.393 1_455 S
C982 H974 0.950 . S
C982 C980 1.391 . S
C982 C983 1.400 1_455 S
C983 C982 1.400 1_655 S
C983 C984 1.398 . S
C983 C989 1.491 . S
C984 H975 0.950 . S
C984 C983 1.398 . S
C984 C985 1.391 . S
C985 H973 0.950 . S
C985 C981 1.393 1_655 S
C985 C984 1.391 . S
C986 H976 0.950 . S
C986 C987 1.386 . S
C986 C988 1.391 . S
C987 C986 1.386 . S
C987 C991 1.393 . S
C988 H977 0.950 . S
C988 C986 1.391 . S
C988 C989 1.400 . S
C989 C983 1.491 . S
C989 C988 1.400 . S
C989 C990 1.398 . S
C990 H978 0.950 . S
C990 C989 1.398 . S
C990 C991 1.391 . S
C991 H979 0.950 . S
C991 C987 1.393 . S
C991 C990 1.391 . S
H992 C1000 0.950 . S
H993 C1005 0.950 . S
H994 C1002 0.950 . S
H995 C1004 0.950 . S
H996 C1006 0.950 . S
H997 C1008 0.950 . S
H998 C1010 0.950 . S
H999 C1011 0.950 . S
C1000 H992 0.950 . S
C1000 C1001 1.386 . S
C1000 C1002 1.391 . S
C1001 C1000 1.386 . S
C1001 C1005 1.393 . S
C1002 H994 0.950 . S
C1002 C1000 1.391 . S
C1002 C1003 1.400 . S
C1003 C1002 1.400 . S
C1003 C1004 1.398 . S
C1003 C1009 1.491 . S
C1004 H995 0.950 . S
C1004 C1003 1.398 . S
C1004 C1005 1.391 . S
C1005 H993 0.950 . S
C1005 C1001 1.393 . S
C1005 C1004 1.391 . S
C1006 H996 0.950 . S
C1006 C1007 1.386 . S
C1006 C1008 1.391 . S
C1007 C1006 1.386 . S
C1007 C1011 1.393 . S
C1008 H997 0.950 . S
C1008 C1006 1.391 . S
C1008 C1009 1.400 . S
C1009 C1003 1.491 . S
C1009 C1008 1.400 . S
C1009 C1010 1.398 . S
C1010 H998 0.950 . S
C1010 C1009 1.398 . S
C1010 C1011 1.391 . S
C1011 H999 0.950 . S
C1011 C1007 1.393 . S
C1011 C1010 1.391 . S
H1012 C1020 0.950 . S
H1013 C1025 0.950 . S
H1014 C1022 0.950 . S
H1015 C1024 0.950 . S
H1016 C1026 0.950 . S
H1017 C1028 0.950 . S
H1018 C1030 0.950 . S
H1019 C1031 0.950 . S
C1020 H1012 0.950 . S
C1020 C1021 1.386 . S
C1020 C1022 1.391 . S
C1021 C1020 1.386 . S
C1021 C1025 1.393 . S
C1022 H1014 0.950 . S
C1022 C1020 1.391 . S
C1022 C1023 1.400 . S
C1023 C1022 1.400 . S
C1023 C1024 1.398 . S
C1023 C1029 1.491 . S
C1024 H1015 0.950 . S
C1024 C1023 1.398 . S
C1024 C1025 1.391 . S
C1025 H1013 0.950 . S
C1025 C1021 1.393 . S
C1025 C1024 1.391 . S
C1026 H1016 0.950 . S
C1026 C1027 1.386 . S
C1026 C1028 1.391 . S
C1027 C1026 1.386 . S
C1027 C1031 1.393 . S
C1028 H1017 0.950 . S
C1028 C1026 1.391 . S
C1028 C1029 1.400 . S
C1029 C1023 1.491 . S
C1029 C1028 1.400 . S
C1029 C1030 1.398 . S
C1030 H1018 0.950 . S
C1030 C1029 1.398 . S
C1030 C1031 1.391 . S
C1031 H1019 0.950 . S
C1031 C1027 1.393 . S
C1031 C1030 1.391 . S
H1032 C1040 0.950 . S
H1033 C1045 0.950 . S
H1034 C1042 0.950 . S
H1035 C1044 0.950 . S
H1036 C1046 0.950 . S
H1037 C1048 0.950 . S
H1038 C1050 0.950 . S
H1039 C1051 0.950 . S
C1040 H1032 0.950 . S
C1040 C1041 1.386 . S
C1040 C1042 1.391 . S
C1041 C1040 1.386 . S
C1041 C1045 1.393 . S
C1042 H1034 0.950 . S
C1042 C1040 1.391 . S
C1042 C1043 1.400 . S
C1043 C1042 1.400 . S
C1043 C1044 1.398 . S
C1043 C1049 1.491 . S
C1044 H1035 0.950 . S
C1044 C1043 1.398 . S
C1044 C1045 1.391 . S
C1045 H1033 0.950 . S
C1045 C1041 1.393 . S
C1045 C1044 1.391 . S
C1046 H1036 0.950 . S
C1046 C1047 1.386 . S
C1046 C1048 1.391 . S
C1047 C1046 1.386 . S
C1047 C1051 1.393 . S
C1048 H1037 0.950 . S
C1048 C1046 1.391 . S
C1048 C1049 1.400 . S
C1049 C1043 1.491 . S
C1049 C1048 1.400 . S
C1049 C1050 1.398 . S
C1050 H1038 0.950 . S
C1050 C1049 1.398 . S
C1050 C1051 1.391 . S
C1051 H1039 0.950 . S
C1051 C1047 1.393 . S
C1051 C1050 1.391 . S
H1052 C1060 0.950 . S
H1053 C1065 0.950 . S
H1054 C1062 0.950 . S
H1055 C1064 0.950 . S
H1056 C1066 0.950 . S
H1057 C1068 0.950 . S
H1058 C1070 0.950 . S
H1059 C1071 0.950 . S
C1060 H1052 0.950 . S
C1060 C1061 1.386 . S
C1060 C1062 1.391 . S
C1061 C1060 1.386 . S
C1061 C1065 1.393 . S
C1062 H1054 0.950 . S
C1062 C1060 1.391 . S
C1062 C1063 1.400 . S
C1063 C1062 1.400 . S
C1063 C1064 1.398 . S
C1063 C1069 1.491 . S
C1064 H1055 0.950 . S
C1064 C1063 1.398 . S
C1064 C1065 1.391 . S
C1065 H1053 0.950 . S
C1065 C1061 1.393 . S
C1065 C1064 1.391 . S
C1066 H1056 0.950 . S
C1066 C1067 1.386 . S
C1066 C1068 1.391 . S
C1067 C1066 1.386 . S
C1067 C1071 1.393 . S
C1068 H1057 0.950 . S
C1068 C1066 1.391 . S
C1068 C1069 1.400 . S
C1069 C1063 1.491 . S
C1069 C1068 1.400 . S
C1069 C1070 1.398 . S
C1070 H1058 0.950 . S
C1070 C1069 1.398 . S
C1070 C1071 1.391 . S
C1071 H1059 0.950 . S
C1071 C1067 1.393 . S
C1071 C1070 1.391 . S
H1072 C1080 0.950 . S
H1073 C1085 0.950 . S
H1074 C1082 0.950 . S
H1075 C1084 0.950 . S
H1076 C1086 0.950 . S
H1077 C1088 0.950 . S
H1078 C1090 0.950 . S
H1079 C1091 0.950 . S
C1080 H1072 0.950 . S
C1080 C1081 1.386 . S
C1080 C1082 1.391 . S
C1081 C1080 1.386 . S
C1081 C1085 1.393 . S
C1082 H1074 0.950 . S
C1082 C1080 1.391 . S
C1082 C1083 1.400 . S
C1083 C1082 1.400 . S
C1083 C1084 1.398 . S
C1083 C1089 1.491 . S
C1084 H1075 0.950 . S
C1084 C1083 1.398 . S
C1084 C1085 1.391 . S
C1085 H1073 0.950 . S
C1085 C1081 1.393 . S
C1085 C1084 1.391 . S
C1086 H1076 0.950 . S
C1086 C1087 1.386 . S
C1086 C1088 1.391 . S
C1087 C1086 1.386 . S
C1087 C1091 1.393 . S
C1088 H1077 0.950 . S
C1088 C1086 1.391 . S
C1088 C1089 1.400 . S
C1089 C1083 1.491 . S
C1089 C1088 1.400 . S
C1089 C1090 1.398 . S
C1090 H1078 0.950 . S
C1090 C1089 1.398 . S
C1090 C1091 1.391 . S
C1091 H1079 0.950 . S
C1091 C1087 1.393 . S
C1091 C1090 1.391 . S
H1092 C1100 0.950 . S
H1093 C1105 0.950 . S
H1094 C1102 0.950 . S
H1095 C1104 0.950 . S
H1096 C1106 0.950 . S
H1097 C1108 0.950 . S
H1098 C1110 0.950 . S
H1099 C1111 0.950 . S
C1100 H1092 0.950 . S
C1100 C1101 1.386 . S
C1100 C1102 1.391 . S
C1101 C1100 1.386 . S
C1101 C1105 1.393 . S
C1102 H1094 0.950 . S
C1102 C1100 1.391 . S
C1102 C1103 1.400 . S
C1103 C1102 1.400 . S
C1103 C1104 1.398 . S
C1103 C1109 1.491 . S
C1104 H1095 0.950 . S
C1104 C1103 1.398 . S
C1104 C1105 1.391 . S
C1105 H1093 0.950 . S
C1105 C1101 1.393 . S
C1105 C1104 1.391 . S
C1106 H1096 0.950 . S
C1106 C1107 1.386 . S
C1106 C1108 1.391 . S
C1107 C1106 1.386 . S
C1107 C1111 1.393 . S
C1108 H1097 0.950 . S
C1108 C1106 1.391 . S
C1108 C1109 1.400 . S
C1109 C1103 1.491 . S
C1109 C1108 1.400 . S
C1109 C1110 1.398 . S
C1110 H1098 0.950 . S
C1110 C1109 1.398 . S
C1110 C1111 1.391 . S
C1111 H1099 0.950 . S
C1111 C1107 1.393 . S
C1111 C1110 1.391 . S
H1112 C1120 0.950 . S
H1113 C1125 0.950 . S
H1114 C1122 0.950 . S
H1115 C1124 0.950 . S
H1116 C1126 0.950 . S
H1117 C1128 0.950 . S
H1118 C1130 0.950 . S
H1119 C1131 0.950 . S
C1120 H1112 0.950 . S
C1120 C1121 1.386 . S
C1120 C1122 1.391 . S
C1121 C1120 1.386 . S
C1121 C1125 1.393 . S
C1122 H1114 0.950 . S
C1122 C1120 1.391 . S
C1122 C1123 1.400 . S
C1123 C1122 1.400 . S
C1123 C1124 1.398 . S
C1123 C1129 1.491 . S
C1124 H1115 0.950 . S
C1124 C1123 1.398 . S
C1124 C1125 1.391 . S
C1125 H1113 0.950 . S
C1125 C1121 1.393 . S
C1125 C1124 1.391 . S
C1126 H1116 0.950 . S
C1126 C1127 1.386 . S
C1126 C1128 1.391 . S
C1127 C1126 1.386 . S
C1127 C1131 1.393 . S
C1128 H1117 0.950 . S
C1128 C1126 1.391 . S
C1128 C1129 1.400 . S
C1129 C1123 1.491 . S
C1129 C1128 1.400 . S
C1129 C1130 1.398 . S
C1130 H1118 0.950 . S
C1130 C1129 1.398 . S
C1130 C1131 1.391 . S
C1131 H1119 0.950 . S
C1131 C1127 1.393 . S
C1131 C1130 1.391 . S
H1132 C1140 0.950 . S
H1133 C1145 0.950 . S
H1134 C1142 0.950 . S
H1135 C1144 0.950 . S
H1136 C1146 0.950 . S
H1137 C1148 0.950 . S
H1138 C1150 0.950 . S
H1139 C1151 0.950 . S
C1140 H1132 0.950 . S
C1140 C1141 1.386 . S
C1140 C1142 1.391 . S
C1141 C1140 1.386 . S
C1141 C1145 1.393 . S
C1142 H1134 0.950 . S
C1142 C1140 1.391 . S
C1142 C1143 1.400 . S
C1143 C1142 1.400 . S
C1143 C1144 1.398 . S
C1143 C1149 1.491 . S
C1144 H1135 0.950 . S
C1144 C1143 1.398 . S
C1144 C1145 1.391 . S
C1145 H1133 0.950 . S
C1145 C1141 1.393 . S
C1145 C1144 1.391 . S
C1146 H1136 0.950 . S
C1146 C1147 1.386 . S
C1146 C1148 1.391 . S
C1147 C1146 1.386 . S
C1147 C1151 1.393 . S
C1148 H1137 0.950 . S
C1148 C1146 1.391 . S
C1148 C1149 1.400 . S
C1149 C1143 1.491 . S
C1149 C1148 1.400 . S
C1149 C1150 1.398 . S
C1150 H1138 0.950 . S
C1150 C1149 1.398 . S
C1150 C1151 1.391 . S
C1151 H1139 0.950 . S
C1151 C1147 1.393 . S
C1151 C1150 1.391 . S
H1152 C1160 0.954 . S
H1153 C1165 0.950 . S
H1154 C1162 0.950 . S
H1155 C1164 0.950 . S
H1156 C1166 0.954 . S
H1157 C1168 0.950 . S
H1158 C1170 0.950 . S
H1159 C1171 0.950 . S
C1160 H1152 0.954 . S
C1160 C1161 1.378 1_554 S
C1160 C1162 1.394 . S
C1161 C1160 1.378 1_556 S
C1161 C1165 1.393 . S
C1162 H1154 0.950 . S
C1162 C1160 1.394 . S
C1162 C1163 1.400 1_554 S
C1163 C1162 1.400 1_556 S
C1163 C1164 1.398 . S
C1163 C1169 1.491 1_556 S
C1164 H1155 0.950 . S
C1164 C1163 1.398 . S
C1164 C1165 1.391 . S
C1165 H1153 0.950 . S
C1165 C1161 1.393 . S
C1165 C1164 1.391 . S
C1166 H1156 0.954 . S
C1166 C1167 1.378 1_556 S
C1166 C1168 1.394 . S
C1167 C1166 1.378 1_554 S
C1167 C1171 1.393 . S
C1168 H1157 0.950 . S
C1168 C1166 1.394 . S
C1168 C1169 1.400 1_556 S
C1169 C1163 1.491 1_554 S
C1169 C1168 1.400 1_554 S
C1169 C1170 1.398 . S
C1170 H1158 0.950 . S
C1170 C1169 1.398 . S
C1170 C1171 1.391 . S
C1171 H1159 0.950 . S
C1171 C1167 1.393 . S
C1171 C1170 1.391 . S
H1172 C1180 0.950 1_556 S
H1173 C1185 0.950 . S
H1174 C1182 0.950 . S
H1175 C1184 0.950 . S
H1176 C1186 0.950 1_554 S
H1177 C1188 0.950 . S
H1178 C1190 0.950 . S
H1179 C1191 0.950 . S
C1180 H1172 0.950 1_554 S
C1180 C1181 1.386 . S
C1180 C1182 1.391 1_554 S
C1181 C1180 1.386 . S
C1181 C1185 1.393 . S
C1182 H1174 0.950 . S
C1182 C1180 1.391 1_556 S
C1182 C1183 1.400 1_556 S
C1183 C1182 1.400 1_554 S
C1183 C1184 1.398 . S
C1183 C1189 1.491 1_554 S
C1184 H1175 0.950 . S
C1184 C1183 1.398 . S
C1184 C1185 1.391 . S
C1185 H1173 0.950 . S
C1185 C1181 1.393 . S
C1185 C1184 1.391 . S
C1186 H1176 0.950 1_556 S
C1186 C1187 1.386 . S
C1186 C1188 1.391 1_556 S
C1187 C1186 1.386 . S
C1187 C1191 1.393 . S
C1188 H1177 0.950 . S
C1188 C1186 1.391 1_554 S
C1188 C1189 1.400 1_554 S
C1189 C1183 1.491 1_556 S
C1189 C1188 1.400 1_556 S
C1189 C1190 1.398 . S
C1190 H1178 0.950 . S
C1190 C1189 1.398 . S
C1190 C1191 1.391 . S
C1191 H1179 0.950 . S
C1191 C1187 1.393 . S
C1191 C1190 1.391 . S
H1192 C1200 0.950 . S
H1193 C1205 0.950 . S
H1194 C1202 0.950 . S
H1195 C1204 0.950 . S
H1196 C1206 0.950 . S
H1197 C1208 0.950 . S
H1198 C1210 0.950 . S
H1199 C1211 0.950 . S
C1200 H1192 0.950 . S
C1200 C1201 1.386 . S
C1200 C1202 1.391 . S
C1201 C1200 1.386 . S
C1201 C1205 1.393 . S
C1202 H1194 0.950 . S
C1202 C1200 1.391 . S
C1202 C1203 1.400 . S
C1203 C1202 1.400 . S
C1203 C1204 1.398 . S
C1203 C1209 1.491 1_554 S
C1204 H1195 0.950 . S
C1204 C1203 1.398 . S
C1204 C1205 1.391 . S
C1205 H1193 0.950 . S
C1205 C1201 1.393 . S
C1205 C1204 1.391 . S
C1206 H1196 0.950 . S
C1206 C1207 1.386 . S
C1206 C1208 1.391 . S
C1207 C1206 1.386 . S
C1207 C1211 1.393 . S
C1208 H1197 0.950 . S
C1208 C1206 1.391 . S
C1208 C1209 1.400 . S
C1209 C1203 1.491 1_556 S
C1209 C1208 1.400 . S
C1209 C1210 1.398 . S
C1210 H1198 0.950 . S
C1210 C1209 1.398 . S
C1210 C1211 1.391 . S
C1211 H1199 0.950 . S
C1211 C1207 1.393 . S
C1211 C1210 1.391 . S
H1212 C1220 0.950 . S
H1213 C1225 0.950 . S
H1214 C1222 0.950 . S
H1215 C1224 0.950 . S
H1216 C1226 0.950 . S
H1217 C1228 0.950 . S
H1218 C1230 0.950 . S
H1219 C1231 0.950 . S
C1220 H1212 0.950 . S
C1220 C1221 1.386 . S
C1220 C1222 1.391 . S
C1221 C1220 1.386 . S
C1221 C1225 1.393 . S
C1222 H1214 0.950 . S
C1222 C1220 1.391 . S
C1222 C1223 1.400 . S
C1223 C1222 1.400 . S
C1223 C1224 1.398 1_554 S
C1223 C1229 1.491 1_554 S
C1224 H1215 0.950 . S
C1224 C1223 1.398 1_556 S
C1224 C1225 1.391 1_556 S
C1225 H1213 0.950 . S
C1225 C1221 1.393 . S
C1225 C1224 1.391 1_554 S
C1226 H1216 0.950 . S
C1226 C1227 1.386 . S
C1226 C1228 1.391 . S
C1227 C1226 1.386 . S
C1227 C1231 1.393 . S
C1228 H1217 0.950 . S
C1228 C1226 1.391 . S
C1228 C1229 1.400 . S
C1229 C1223 1.491 1_556 S
C1229 C1228 1.400 . S
C1229 C1230 1.398 1_556 S
C1230 H1218 0.950 . S
C1230 C1229 1.398 1_554 S
C1230 C1231 1.391 1_554 S
C1231 H1219 0.950 . S
C1231 C1227 1.393 . S
C1231 C1230 1.391 1_556 S
H1232 C1240 0.950 . S
H1233 C1245 0.950 . S
H1234 C1242 0.950 . S
H1235 C1244 0.950 . S
H1236 C1246 0.950 . S
H1237 C1248 0.950 . S
H1238 C1250 0.950 . S
H1239 C1251 0.950 . S
C1240 H1232 0.950 . S
C1240 C1241 1.386 . S
C1240 C1242 1.391 . S
C1241 C1240 1.386 . S
C1241 C1245 1.393 . S
C1242 H1234 0.950 . S
C1242 C1240 1.391 . S
C1242 C1243 1.400 . S
C1243 C1242 1.400 . S
C1243 C1244 1.398 . S
C1243 C1249 1.491 . S
C1244 H1235 0.950 . S
C1244 C1243 1.398 . S
C1244 C1245 1.391 . S
C1245 H1233 0.950 . S
C1245 C1241 1.393 . S
C1245 C1244 1.391 . S
C1246 H1236 0.950 . S
C1246 C1247 1.386 . S
C1246 C1248 1.391 . S
C1247 C1246 1.386 . S
C1247 C1251 1.393 . S
C1248 H1237 0.950 . S
C1248 C1246 1.391 . S
C1248 C1249 1.400 . S
C1249 C1243 1.491 . S
C1249 C1248 1.400 . S
C1249 C1250 1.398 . S
C1250 H1238 0.950 . S
C1250 C1249 1.398 . S
C1250 C1251 1.391 . S
C1251 H1239 0.950 . S
C1251 C1247 1.393 . S
C1251 C1250 1.391 . S
H1252 C1260 0.950 . S
H1253 C1265 0.950 . S
H1254 C1262 0.950 . S
H1255 C1264 0.950 . S
H1256 C1266 0.950 . S
H1257 C1268 0.950 . S
H1258 C1270 0.950 . S
H1259 C1271 0.950 . S
C1260 H1252 0.950 . S
C1260 C1261 1.386 . S
C1260 C1262 1.391 . S
C1261 C1260 1.386 . S
C1261 C1265 1.393 . S
C1262 H1254 0.950 . S
C1262 C1260 1.391 . S
C1262 C1263 1.400 . S
C1263 C1262 1.400 . S
C1263 C1264 1.398 . S
C1263 C1269 1.491 . S
C1264 H1255 0.950 . S
C1264 C1263 1.398 . S
C1264 C1265 1.391 . S
C1265 H1253 0.950 . S
C1265 C1261 1.393 . S
C1265 C1264 1.391 . S
C1266 H1256 0.950 . S
C1266 C1267 1.386 . S
C1266 C1268 1.391 . S
C1267 C1266 1.386 . S
C1267 C1271 1.393 . S
C1268 H1257 0.950 . S
C1268 C1266 1.391 . S
C1268 C1269 1.400 . S
C1269 C1263 1.491 . S
C1269 C1268 1.400 . S
C1269 C1270 1.398 . S
C1270 H1258 0.950 . S
C1270 C1269 1.398 . S
C1270 C1271 1.391 . S
C1271 H1259 0.950 . S
C1271 C1267 1.393 . S
C1271 C1270 1.391 . S
H1272 C1280 0.950 . S
H1273 C1285 0.950 . S
H1274 C1282 0.950 . S
H1275 C1284 0.950 . S
H1276 C1286 0.950 . S
H1277 C1288 0.950 . S
H1278 C1290 0.950 . S
H1279 C1291 0.950 . S
C1280 H1272 0.950 . S
C1280 C1281 1.386 . S
C1280 C1282 1.391 . S
C1281 C1280 1.386 . S
C1281 C1285 1.393 . S
C1282 H1274 0.950 . S
C1282 C1280 1.391 . S
C1282 C1283 1.400 . S
C1283 C1282 1.400 . S
C1283 C1284 1.398 . S
C1283 C1289 1.491 . S
C1284 H1275 0.950 . S
C1284 C1283 1.398 . S
C1284 C1285 1.391 . S
C1285 H1273 0.950 . S
C1285 C1281 1.393 . S
C1285 C1284 1.391 . S
C1286 H1276 0.950 . S
C1286 C1287 1.386 . S
C1286 C1288 1.391 . S
C1287 C1286 1.386 . S
C1287 C1291 1.393 . S
C1288 H1277 0.950 . S
C1288 C1286 1.391 . S
C1288 C1289 1.400 . S
C1289 C1283 1.491 . S
C1289 C1288 1.400 . S
C1289 C1290 1.398 . S
C1290 H1278 0.950 . S
C1290 C1289 1.398 . S
C1290 C1291 1.391 . S
C1291 H1279 0.950 . S
C1291 C1287 1.393 . S
C1291 C1290 1.391 . S
H1292 C1300 0.950 . S
H1293 C1305 0.950 . S
H1294 C1302 0.950 . S
H1295 C1304 0.950 . S
H1296 C1306 0.950 . S
H1297 C1308 0.950 . S
H1298 C1310 0.950 . S
H1299 C1311 0.950 . S
C1300 H1292 0.950 . S
C1300 C1301 1.386 . S
C1300 C1302 1.391 . S
C1301 C1300 1.386 . S
C1301 C1305 1.393 . S
C1302 H1294 0.950 . S
C1302 C1300 1.391 . S
C1302 C1303 1.400 . S
C1303 C1302 1.400 . S
C1303 C1304 1.398 . S
C1303 C1309 1.491 . S
C1304 H1295 0.950 . S
C1304 C1303 1.398 . S
C1304 C1305 1.391 . S
C1305 H1293 0.950 . S
C1305 C1301 1.393 . S
C1305 C1304 1.391 . S
C1306 H1296 0.950 . S
C1306 C1307 1.386 . S
C1306 C1308 1.391 . S
C1307 C1306 1.386 . S
C1307 C1311 1.393 . S
C1308 H1297 0.950 . S
C1308 C1306 1.391 . S
C1308 C1309 1.400 . S
C1309 C1303 1.491 . S
C1309 C1308 1.400 . S
C1309 C1310 1.398 . S
C1310 H1298 0.950 . S
C1310 C1309 1.398 . S
C1310 C1311 1.391 . S
C1311 H1299 0.950 . S
C1311 C1307 1.393 . S
C1311 C1310 1.391 . S
C361 C8 1.206 . S
C367 C118 1.199 . S
C381 C32 1.189 . S
C387 C140 1.214 . S
C401 C162 1.190 . S
C407 C62 1.207 . S
C421 C96 1.214 . S
C427 C74 1.187 . S
C441 C294 1.211 . S
C447 C186 1.194 . S
C461 C208 1.206 . S
C467 C316 1.199 . S
C481 C340 1.195 . S
C487 C230 1.210 . S
C501 C272 1.207 . S
C507 C252 1.191 . S
C521 C7 1.525 . S
C527 C37 1.432 . S
C541 C51 1.458 . S
C547 C43 1.537 . S
C561 C87 1.446 . S
C567 C59 1.531 . S
C581 C73 1.532 . S
C587 C21 1.447 . S
C601 C95 1.536 . S
C607 C175 1.453 . S
C621 C109 1.441 . S
C627 C117 1.529 . S
C641 C131 1.450 . S
C647 C139 1.534 . S
C661 C153 1.430 . S
C667 C161 1.525 . S
C681 C197 1.499 . S
C687 C213 1.447 . S
C701 C235 1.439 . S
C707 C219 1.495 . S
C721 C241 1.504 . S
C727 C257 1.458 . S
C741 C263 1.493 . S
C747 C191 1.432 . S
C761 C345 1.457 . S
C767 C271 1.504 . S
C781 C285 1.458 . S
C787 C293 1.504 . S
C801 C307 1.453 . S
C807 C315 1.502 . S
C821 C351 1.499 . S
C827 C329 1.446 . S
C841 C150 1.324 . S
C847 C15 1.324 . S
C861 C172 1.324 . S
C867 C29 1.323 . S
C881 C65 1.329 . S
C887 C106 1.316 . S
C901 C81 1.317 . S
C907 C128 1.304 . S
C921 C54 1.323 . S
C927 C103 1.326 . S
C941 C125 1.311 . S
C947 C84 1.311 . S
C961 C147 1.311 . S
C967 C18 1.313 . S
C981 C30 1.322 . S
C987 C169 1.326 . S
C1001 C183 1.328 . S
C1007 C326 1.319 . S
C1021 C205 1.320 . S
C1027 C338 1.304 . S
C1041 C282 1.315 . S
C1047 C227 1.311 . S
C1061 C249 1.327 . S
C1067 C304 1.310 . S
C1081 C279 1.319 . S
C1087 C228 1.324 . S
C1101 C301 1.325 . S
C1107 C250 1.323 . S
C1121 C323 1.313 . S
C1127 C184 1.306 . S
C1141 C206 1.324 . S
C1147 C337 1.323 . S
C1161 C348 1.382 . S
C1167 C10 1.402 . S
C1181 C274 1.408 . S
C1187 C40 1.391 . S
C1201 C52 1.407 . S
C1207 C296 1.402 . S
C1221 C318 1.394 . S
C1227 C76 1.409 . S
C1241 C98 1.398 . S
C1247 C216 1.381 . S
C1261 C120 1.384 . S
C1267 C238 1.404 . S
C1281 C260 1.404 . S
C1287 C142 1.384 . S
C1301 C164 1.384 . S
C1307 C194 1.385 . S
