# Generated by pormake.
# Topology wjl, (5)-cn, num edge types: 1
# Building blocks:
#     Node 0, Type 0, BuildingBlock: XOMCOT_clean_sbu_1, # of connection points: 5
#     Node 1, Type 0, BuildingBlock: XOMCOT_clean_sbu_1, # of connection points: 5
#     Node 2, Type 0, BuildingBlock: XOMCOT_clean_sbu_1, # of connection points: 5
#     Node 3, Type 0, BuildingBlock: XOMCOT_clean_sbu_1, # of connection points: 5
#     Node 4, Type 0, BuildingBlock: XOMCOT_clean_sbu_1, # of connection points: 5
#     Node 5, Type 0, BuildingBlock: XOMCOT_clean_sbu_1, # of connection points: 5
#     Node 6, Type 0, BuildingBlock: XOMCOT_clean_sbu_1, # of connection points: 5
#     Node 7, Type 0, BuildingBlock: XOMCOT_clean_sbu_1, # of connection points: 5
#     Node 8, Type 0, BuildingBlock: XOMCOT_clean_sbu_1, # of connection points: 5
#     Node 9, Type 0, BuildingBlock: XOMCOT_clean_sbu_1, # of connection points: 5
#     Node 10, Type 0, BuildingBlock: XOMCOT_clean_sbu_1, # of connection points: 5
#     Node 11, Type 0, BuildingBlock: XOMCOT_clean_sbu_1, # of connection points: 5
#     Edge 12, Type (0, 0), BuildingBlock: OJICUG_clean_linker_0, # of connection points: 2
#     Edge 13, Type (0, 0), BuildingBlock: OJICUG_clean_linker_0, # of connection points: 2
#     Edge 14, Type (0, 0), BuildingBlock: OJICUG_clean_linker_0, # of connection points: 2
#     Edge 15, Type (0, 0), BuildingBlock: OJICUG_clean_linker_0, # of connection points: 2
#     Edge 16, Type (0, 0), BuildingBlock: OJICUG_clean_linker_0, # of connection points: 2
#     Edge 17, Type (0, 0), BuildingBlock: OJICUG_clean_linker_0, # of connection points: 2
#     Edge 18, Type (0, 0), BuildingBlock: OJICUG_clean_linker_0, # of connection points: 2
#     Edge 19, Type (0, 0), BuildingBlock: OJICUG_clean_linker_0, # of connection points: 2
#     Edge 20, Type (0, 0), BuildingBlock: OJICUG_clean_linker_0, # of connection points: 2
#     Edge 21, Type (0, 0), BuildingBlock: OJICUG_clean_linker_0, # of connection points: 2
#     Edge 22, Type (0, 0), BuildingBlock: OJICUG_clean_linker_0, # of connection points: 2
#     Edge 23, Type (0, 0), BuildingBlock: OJICUG_clean_linker_0, # of connection points: 2
#     Edge 24, Type (0, 0), BuildingBlock: OJICUG_clean_linker_0, # of connection points: 2
#     Edge 25, Type (0, 0), BuildingBlock: OJICUG_clean_linker_0, # of connection points: 2
#     Edge 26, Type (0, 0), BuildingBlock: OJICUG_clean_linker_0, # of connection points: 2
#     Edge 27, Type (0, 0), BuildingBlock: OJICUG_clean_linker_0, # of connection points: 2
#     Edge 28, Type (0, 0), BuildingBlock: OJICUG_clean_linker_0, # of connection points: 2
#     Edge 29, Type (0, 0), BuildingBlock: OJICUG_clean_linker_0, # of connection points: 2
#     Edge 30, Type (0, 0), BuildingBlock: OJICUG_clean_linker_0, # of connection points: 2
#     Edge 31, Type (0, 0), BuildingBlock: OJICUG_clean_linker_0, # of connection points: 2
#     Edge 32, Type (0, 0), BuildingBlock: OJICUG_clean_linker_0, # of connection points: 2
#     Edge 33, Type (0, 0), BuildingBlock: OJICUG_clean_linker_0, # of connection points: 2
#     Edge 34, Type (0, 0), BuildingBlock: OJICUG_clean_linker_0, # of connection points: 2
#     Edge 35, Type (0, 0), BuildingBlock: OJICUG_clean_linker_0, # of connection points: 2
#     Edge 36, Type (0, 0), BuildingBlock: OJICUG_clean_linker_0, # of connection points: 2
#     Edge 37, Type (0, 0), BuildingBlock: OJICUG_clean_linker_0, # of connection points: 2
#     Edge 38, Type (0, 0), BuildingBlock: OJICUG_clean_linker_0, # of connection points: 2
#     Edge 39, Type (0, 0), BuildingBlock: OJICUG_clean_linker_0, # of connection points: 2
#     Edge 40, Type (0, 0), BuildingBlock: OJICUG_clean_linker_0, # of connection points: 2
#     Edge 41, Type (0, 0), BuildingBlock: OJICUG_clean_linker_0, # of connection points: 2
# Relax obj value: 0.466
# Max RMSD: 0.227
# Mean RMSD: 0.227
data_MOF--net-wjl--node1-XOMCOT_clean_sbu_1--edge1-OJICUG_clean_linker_0
_symmetry_space_group_name_H-M    P1
_symmetry_Int_Tables_number       1
_symmetry_cell_setting            triclinic
loop_
_symmetry_equiv_pos_as_xyz
'x, y, z'
_cell_length_a     19.278256
_cell_length_b     19.275497
_cell_length_c     68.972064
_cell_angle_alpha  90.055952
_cell_angle_beta   89.711357
_cell_angle_gamma 119.98119
loop_
_atom_site_label
_atom_site_type_symbol
_atom_site_fract_x
_atom_site_fract_y
_atom_site_fract_z
_atom_type_partial_charge
C0 C 0.33905 0.28484 0.35377 0.0
C1 C 0.38127 0.29801 0.37066 0.0
N2 N 0.44911 0.3695 0.36919 0.0
N3 N 0.37986 0.34808 0.3419 0.0
C4 C 0.44677 0.39845 0.35157 0.0
H5 H 0.28273 0.23222 0.35021 0.0
Co6 Co 0.34983 0.35402 0.31712 0.0
C7 C 0.41217 0.52752 0.30947 0.0
O8 O 0.34286 0.50683 0.30148 0.0
N9 N 0.31744 0.35592 0.29115 0.0
C10 C 0.24604 0.33877 0.26432 0.0
C11 C 0.24991 0.35146 0.28402 0.0
C12 C 0.35447 0.3488 0.27522 0.0
N13 N 0.31148 0.33574 0.25888 0.0
O14 O 0.43319 0.33218 0.30854 0.0
H15 H 0.20419 0.35451 0.29242 0.0
H16 H 0.41096 0.35 0.27558 0.0
O17 O 0.42511 0.47266 0.31609 0.0
C18 C 0.41188 0.25774 0.30779 0.0
O19 O 0.33525 0.20478 0.30931 0.0
N20 N 0.26653 0.36682 0.32762 0.0
C21 C 0.14873 0.34711 0.35447 0.0
C22 C 0.2236 0.41757 0.35409 0.0
C23 C 0.28176 0.42585 0.34077 0.0
C24 C 0.1928 0.29957 0.32713 0.0
C25 C 0.1323 0.28955 0.34002 0.0
H26 H 0.34163 0.47518 0.34286 0.0
H27 H 0.18271 0.25066 0.31766 0.0
H28 H 0.49257 0.4554 0.34585 0.0
H29 H 0.36384 0.25763 0.38292 0.0
H30 H 0.19619 0.3271 0.25506 0.0
H31 H 0.24086 0.46257 0.36528 0.0
H32 H 0.07533 0.23433 0.33956 0.0
C33 C 0.14437 0.36861 0.52212 0.0
C34 C 0.16624 0.41582 0.53848 0.0
N35 N 0.13588 0.46522 0.53711 0.0
N36 N 0.1001 0.38805 0.5107 0.0
C37 C 0.09597 0.44686 0.52022 0.0
H38 H 0.15984 0.32323 0.51869 0.0
Co39 Co 0.05904 0.34445 0.48683 0.0
C40 C 0.9429 0.40087 0.4772 0.0
O41 O 0.89569 0.33192 0.46881 0.0
N42 N 1.01836 0.29912 0.46215 0.0
C43 C 0.95163 0.21566 0.43795 0.0
C44 C 0.95837 0.22461 0.45769 0.0
C45 C 0.04608 0.33428 0.44465 0.0
N46 N 1.00694 0.28463 0.42975 0.0
O47 O 0.15891 0.42572 0.4757 0.0
H48 H 0.92102 0.17846 0.4679 0.0
H49 H 0.09625 0.39423 0.44279 0.0
O50 O 1.00976 0.41386 0.48433 0.0
C51 C 0.21049 0.40252 0.47442 0.0
O52 O 0.18504 0.32556 0.47609 0.0
N53 N 0.96942 0.26278 0.49953 0.0
C54 C 0.86812 0.14183 0.52497 0.0
C55 C 0.85877 0.20849 0.52183 0.0
C56 C 0.91158 0.2696 0.50944 0.0
C57 C 0.97875 0.19789 0.50237 0.0
C58 C 0.92832 0.1363 0.5149 0.0
H59 H 0.90923 0.3242 0.50921 0.0
H60 H 0.02795 0.1957 0.49536 0.0
H61 H 0.06289 0.47481 0.51515 0.0
H62 H 0.20192 0.41419 0.55034 0.0
H63 H 0.91027 0.16195 0.43022 0.0
H64 H 0.81524 0.21637 0.53009 0.0
H65 H 0.93846 0.08656 0.51736 0.0
C66 C 0.74201 0.05979 0.68902 0.0
C67 C 0.72307 0.08648 0.70564 0.0
N68 N 0.66419 0.10263 0.70147 0.0
N69 N 0.69445 0.0582 0.6746 0.0
C70 C 0.6495 0.0864 0.68243 0.0
H71 H 0.78475 0.03922 0.68773 0.0
Co72 Co 0.68569 0.01981 0.64978 0.0
C73 C 0.51579 0.971 0.63824 0.0
O74 O 0.53635 0.99813 0.62045 0.0
N75 N 0.67845 0.98135 0.62466 0.0
C76 C 0.64065 0.90779 0.59776 0.0
C77 C 0.62355 0.91008 0.6171 0.0
C78 C 0.72972 0.01978 0.60997 0.0
N79 N 0.70784 0.97667 0.59351 0.0
O80 O 0.7103 0.1247 0.64044 0.0
H81 H 0.57341 0.86344 0.62505 0.0
H82 H 0.78124 0.07922 0.61109 0.0
O83 O 0.56937 0.97971 0.65036 0.0
C84 C 0.78505 0.17657 0.64153 0.0
O85 O 0.83519 0.15119 0.64558 0.0
N86 N 0.66816 0.92222 0.65986 0.0
C87 C 0.67826 0.81177 0.68395 0.0
C88 C 0.61243 0.82404 0.68513 0.0
C89 C 0.60846 0.87949 0.67297 0.0
C90 C 0.72844 0.9057 0.65712 0.0
C91 C 0.73417 0.84981 0.6689 0.0
H92 H 0.56197 0.89393 0.67574 0.0
H93 H 0.77592 0.94081 0.64688 0.0
H94 H 0.60528 0.09274 0.67428 0.0
H95 H 0.74766 0.0891 0.71986 0.0
H96 H 0.60657 0.85985 0.58761 0.0
H97 H 0.56831 0.79756 0.69662 0.0
H98 H 0.78515 0.8411 0.66714 0.0
C99 C 0.66117 0.78346 0.84957 0.0
C100 C 0.61231 0.7614 0.8657 0.0
N101 N 0.55967 0.6822 0.86456 0.0
N102 N 0.63955 0.71836 0.83847 0.0
C103 C 0.57766 0.65787 0.84792 0.0
H104 H 0.70898 0.8431 0.84604 0.0
Co105 Co 0.68292 0.71749 0.81469 0.0
C106 C 0.62706 0.54548 0.80667 0.0
O107 O 0.69889 0.56727 0.79992 0.0
N108 N 0.72735 0.71864 0.78985 0.0
C109 C 0.807 0.72926 0.76505 0.0
C110 C 0.7995 0.72754 0.78484 0.0
C111 C 0.69192 0.71333 0.77257 0.0
N112 N 0.73925 0.72028 0.75733 0.0
O113 O 0.60397 0.73851 0.80353 0.0
H114 H 0.84481 0.73193 0.79464 0.0
H115 H 0.63348 0.70755 0.77106 0.0
O116 O 0.61113 0.59934 0.81248 0.0
C117 C 0.62827 0.81344 0.80219 0.0
O118 O 0.70558 0.86403 0.80333 0.0
N119 N 0.76211 0.70622 0.82761 0.0
C120 C 0.87837 0.7208 0.85397 0.0
C121 C 0.80364 0.65023 0.85303 0.0
C122 C 0.74609 0.64452 0.83996 0.0
C123 C 0.83387 0.77558 0.82851 0.0
C124 C 0.89384 0.78308 0.84101 0.0
H125 H 0.68672 0.59325 0.84112 0.0
H126 H 0.84377 0.82632 0.81976 0.0
H127 H 0.54735 0.59659 0.84296 0.0
H128 H 0.61536 0.80069 0.87729 0.0
H129 H 0.85896 0.73803 0.75697 0.0
H130 H 0.78697 0.60194 0.8633 0.0
H131 H 0.95038 0.8388 0.84109 0.0
C132 C 0.93504 0.67561 0.01658 0.0
C133 C 0.9122 0.63073 0.03329 0.0
N134 N 0.93638 0.57628 0.032 0.0
N135 N 0.97362 0.64971 0.00494 0.0
C136 C 0.97349 0.58909 0.01466 0.0
H137 H 0.92389 0.7238 0.01302 0.0
Co138 Co 1.01225 0.69249 0.98089 0.0
C139 C 0.11316 0.62369 0.96706 0.0
O140 O 0.15619 0.68883 0.95678 0.0
N141 N 0.04979 0.73865 0.95614 0.0
C142 C 0.10958 0.82634 0.93215 0.0
C143 C 0.10934 0.81347 0.95169 0.0
C144 C 1.01606 0.70707 0.93881 0.0
N145 N 0.05061 0.75952 0.92407 0.0
O146 O 0.90728 0.61808 0.97083 0.0
H147 H 0.14921 0.85789 0.96184 0.0
H148 H 0.96372 0.64847 0.93713 0.0
O149 O 0.05191 0.61557 0.97655 0.0
C150 C 0.86134 0.64739 0.96825 0.0
O151 O 0.89296 0.72557 0.96837 0.0
N152 N 0.10828 0.76727 -0.00726 0.0
C153 C 0.21631 0.87206 0.01997 0.0
C154 C 0.22068 0.80528 0.01362 0.0
C155 C 0.1644 0.75211 0.00056 0.0
C156 C 0.10643 0.83466 -0.00216 0.0
C157 C 0.16025 0.88829 0.01131 0.0
H158 H 0.1624 0.69597 -0.00146 0.0
H159 H 0.05909 0.84382 -0.00763 0.0
H160 H 1.00104 0.55575 0.00933 0.0
H161 H 0.87951 0.63703 0.04532 0.0
H162 H 0.14761 0.88197 0.92463 0.0
H163 H 0.26273 0.79021 0.01998 0.0
H164 H 0.15315 0.93793 0.01607 0.0
C165 C 0.25688 0.91601 0.18922 0.0
C166 C 0.27863 0.89613 0.20638 0.0
N167 N 0.35326 0.90814 0.20415 0.0
N168 N 0.31822 0.94156 0.17653 0.0
C169 C 0.37572 0.93527 0.18593 0.0
H170 H 0.2009 0.91412 0.18629 0.0
Co171 Co 0.31806 0.97831 0.15213 0.0
C172 C 0.48951 0.08241 0.1403 0.0
O173 O 0.46804 0.12815 0.13103 0.0
N174 N 0.31412 1.01356 0.12699 0.0
C175 C 0.29217 0.06719 0.10081 0.0
C176 C 0.29253 0.06654 0.12072 0.0
C177 C 0.32739 0.9838 0.11056 0.0
N178 N 0.31346 1.01446 0.09444 0.0
O179 O 0.29146 0.8733 0.14259 0.0
H180 H 0.27541 0.10122 0.12973 0.0
H181 H 0.34506 0.93868 0.11045 0.0
O182 O 0.43562 0.01874 0.14887 0.0
C183 C 0.21679 0.82137 0.14192 0.0
O184 O 0.16484 0.84599 0.14422 0.0
N185 N 0.33702 0.07556 0.16333 0.0
C186 C 0.33934 0.18783 0.18933 0.0
C187 C 0.4092 0.18537 0.18516 0.0
C188 C 0.40608 0.12698 0.1728 0.0
C189 C 0.26913 0.07943 0.16658 0.0
C190 C 0.26909 0.13583 0.17935 0.0
H191 H 0.45743 0.1191 0.17271 0.0
H192 H 0.21323 0.03469 0.16024 0.0
H193 H 0.4344 0.95374 0.17996 0.0
H194 H 0.24337 0.87642 0.21958 0.0
H195 H 0.27251 0.10002 0.09181 0.0
H196 H 0.46449 0.22368 0.19276 0.0
H197 H 0.2132 0.13413 0.18255 0.0
C198 C 0.78213 0.64167 0.44261 0.0
C199 C 0.75644 0.59566 0.4261 0.0
N200 N 0.67596 0.5513 0.4269 0.0
N201 N 0.718 0.6263 0.4536 0.0
C202 C 0.65435 0.57123 0.44366 0.0
H203 H 0.84347 0.68414 0.44633 0.0
Co204 Co 0.72167 0.67361 0.47697 0.0
C205 C 0.55045 0.61239 0.48899 0.0
O206 O 0.57233 0.68086 0.49768 0.0
N207 N 0.72858 0.72365 0.50108 0.0
C208 C 0.74716 0.81144 0.52442 0.0
C209 C 0.74337 0.79891 0.50478 0.0
C210 C 0.7229 0.69176 0.51888 0.0
N211 N 0.73441 0.744 0.53326 0.0
O212 O 0.74595 0.59705 0.48876 0.0
H213 H 0.7514 0.84323 0.49415 0.0
H214 H 0.71363 0.63228 0.52131 0.0
O215 O 0.604 0.60057 0.48097 0.0
C216 C 0.82056 0.61944 0.48961 0.0
O217 O 0.87272 0.69571 0.48699 0.0
N218 N 0.70564 0.7493 0.46356 0.0
C219 C 0.70653 0.85828 0.43684 0.0
C220 C 0.63508 0.78866 0.44172 0.0
C221 C 0.63623 0.73392 0.45465 0.0
C222 C 0.77568 0.81727 0.45912 0.0
C223 C 0.77735 0.87339 0.44605 0.0
H224 H 0.58227 0.67698 0.45597 0.0
H225 H 0.83111 0.82638 0.46529 0.0
H226 H 0.59298 0.54817 0.44821 0.0
H227 H 0.7939 0.5952 0.41442 0.0
H228 H 0.76004 0.86653 0.53162 0.0
H229 H 0.57935 0.77397 0.43464 0.0
H230 H 0.83426 0.92525 0.44224 0.0
C231 C 0.08553 0.75603 0.60719 0.0
C232 C 0.11381 0.73892 0.59057 0.0
N233 N 0.10666 0.66608 0.5927 0.0
N234 N 0.06007 0.69388 0.61954 0.0
C235 C 0.07409 0.64035 0.61042 0.0
H236 H 0.08437 0.81051 0.61023 0.0
Co237 Co 1.02341 0.69052 0.64429 0.0
C238 C 0.91131 0.51804 0.65256 0.0
O239 O 0.8634 0.53989 0.66062 0.0
N240 N 0.98826 0.68993 0.67021 0.0
C241 C 0.93349 0.70632 0.69721 0.0
C242 C 0.92716 0.6982 0.67739 0.0
C243 C 0.02852 0.69015 0.68622 0.0
N244 N 0.99829 0.70254 0.70269 0.0
O245 O 0.12859 0.71423 0.65292 0.0
H246 H 0.88117 0.70026 0.66903 0.0
H247 H 0.08129 0.68421 0.68586 0.0
O248 O 0.97962 0.57205 0.64588 0.0
C249 C 0.17731 0.78863 0.65599 0.0
O250 O 0.14863 0.83762 0.65708 0.0
N251 N 0.92787 0.67709 0.63371 0.0
C252 C 0.82635 0.69362 0.60769 0.0
C253 C 0.83145 0.62351 0.60808 0.0
C254 C 0.88321 0.6169 0.62096 0.0
C255 C 0.92197 0.7447 0.63394 0.0
C256 C 0.86967 0.7531 0.62153 0.0
H257 H 0.89378 0.5675 0.61891 0.0
H258 H 0.96196 0.79467 0.64296 0.0
H259 H 0.06011 0.58326 0.61659 0.0
H260 H 0.13846 0.7775 0.57803 0.0
H261 H 0.89642 0.71942 0.70663 0.0
H262 H 0.80233 0.57732 0.59723 0.0
H263 H 0.86783 0.80831 0.62187 0.0
C264 C 0.3501 0.10544 0.77249 0.0
C265 C 0.39277 0.12826 0.7554 0.0
N266 N 0.45765 0.11987 0.75749 0.0
N267 N 0.38757 0.08189 0.78506 0.0
C268 C 0.45318 0.092 0.77561 0.0
H269 H 0.295 0.10537 0.77558 0.0
Co270 Co 0.35365 0.04768 0.80988 0.0
C271 C 0.42543 0.94761 0.82143 0.0
O272 O 0.36117 0.90336 0.83195 0.0
N273 N 0.31805 1.01549 0.83547 0.0
C274 C 0.2461 0.96617 0.86248 0.0
C275 C 0.24451 0.96334 0.84256 0.0
C276 C 0.3631 0.0483 0.85142 0.0
N277 N 0.32076 0.02031 0.86804 0.0
O278 O 0.43186 0.15381 0.81847 0.0
H279 H 0.19171 0.92719 0.83407 0.0
H280 H 0.42571 0.09373 0.85084 0.0
O281 O 0.43213 1.00927 0.81253 0.0
C282 C 0.40819 0.20507 0.81871 0.0
O283 O 0.3314 0.17925 0.81657 0.0
N284 N 0.27496 0.94856 0.79958 0.0
C285 C 0.16572 0.83623 0.77362 0.0
C286 C 0.2377 0.83841 0.7778 0.0
C287 C 0.29267 0.89687 0.79012 0.0
C288 C 0.20271 0.94378 0.79665 0.0
C289 C 0.14674 0.88753 0.78384 0.0
H290 H 0.35191 0.90493 0.78998 0.0
H291 H 0.19123 0.98839 0.80304 0.0
H292 H 0.49581 0.07714 0.78162 0.0
H293 H 0.37699 0.14866 0.74242 0.0
H294 H 0.19487 0.93466 0.87202 0.0
H295 H 0.25508 0.80039 0.7701 0.0
H296 H 0.09262 0.88924 0.78071 0.0
C297 C 0.28066 0.34949 0.93767 0.0
C298 C 0.29298 0.39117 0.9206 0.0
N299 N 0.36251 0.46103 0.92205 0.0
N300 N 0.34275 0.39253 0.94962 0.0
C301 C 0.39101 0.46022 0.93978 0.0
H302 H 0.22929 0.29206 0.94123 0.0
Co303 Co 0.35453 0.36829 0.97485 0.0
C304 C 0.52293 0.49575 -0.01476 0.0
O305 O 0.50291 0.50449 0.00293 0.0
N306 N 0.36455 0.3424 0.00032 0.0
C307 C 0.40605 0.31362 0.02765 0.0
C308 C 0.42192 0.33048 0.00819 0.0
C309 C 0.31323 0.32956 0.01502 0.0
N310 N 0.33733 0.31256 0.03175 0.0
O311 O 0.32776 0.44814 0.98314 0.0
H312 H 0.47299 0.33536 0.0004 0.0
H313 H 0.2599 0.33426 0.01371 0.0
O314 O 0.46957 0.44714 0.97358 0.0
C315 C 0.25235 0.4226 0.98258 0.0
O316 O 0.20342 0.34554 0.98006 0.0
N317 N 0.37334 0.28768 0.96579 0.0
C318 C 0.37529 0.17381 0.94144 0.0
C319 C 0.44716 0.24115 0.94719 0.0
C320 C 0.44497 0.29805 0.95926 0.0
C321 C 0.30434 0.21744 0.96265 0.0
C322 C 0.3037 0.15964 0.95034 0.0
H323 H 0.50064 0.35218 0.9621 0.0
H324 H 0.24829 0.20997 0.96811 0.0
H325 H 0.44655 0.50804 0.94544 0.0
H326 H 0.25355 0.37174 0.9082 0.0
H327 H 0.44189 0.30301 0.03797 0.0
H328 H 0.50405 0.25309 0.94113 0.0
H329 H 0.24668 0.10854 0.94641 0.0
C330 C 0.90177 0.24892 0.10496 0.0
C331 C 0.88454 0.27468 0.08799 0.0
N332 N 0.91543 0.35451 0.08922 0.0
N333 N 0.94362 0.3124 0.11664 0.0
C334 C 0.95084 0.37576 0.10669 0.0
H335 H 0.88579 0.18805 0.1085 0.0
Co336 Co 0.98314 0.30839 0.14059 0.0
C337 C 0.09488 0.47953 0.1518 0.0
O338 O 0.14169 0.45733 0.1602 0.0
N339 N 1.02233 0.30177 0.16526 0.0
C340 C 0.08729 0.28239 0.18941 0.0
C341 C 0.08074 0.2849 0.16967 0.0
C342 C 0.99511 0.30998 0.18276 0.0
N343 N 0.03325 0.29796 0.19764 0.0
O344 O 0.88176 0.28642 0.15155 0.0
H345 H 0.11698 0.2745 0.15944 0.0
H346 H 0.94608 0.32157 0.18461 0.0
O347 O 0.02946 0.42632 0.14393 0.0
C348 C 0.83053 0.2116 0.15283 0.0
O349 O 0.85607 0.16025 0.15089 0.0
N350 N 0.07493 0.3204 0.12804 0.0
C351 C 0.17742 0.30738 0.10159 0.0
C352 C 0.18591 0.38225 0.10588 0.0
C353 C 0.13252 0.38728 0.11875 0.0
C354 C 0.067 0.24733 0.12421 0.0
C355 C 0.11797 0.23945 0.11113 0.0
H356 H 0.13398 0.44367 0.11972 0.0
H357 H 1.018 0.19427 0.13071 0.0
H358 H 0.98365 0.43686 0.11178 0.0
H359 H 0.85199 0.23771 0.07575 0.0
H360 H 0.12767 0.26857 0.19711 0.0
H361 H 0.22891 0.43539 0.09807 0.0
H362 H 0.10855 0.18042 0.10779 0.0
C363 C 0.70743 0.98759 0.27118 0.0
C364 C 0.66103 0.96102 0.2548 0.0
N365 N 0.58805 0.95068 0.25911 0.0
N366 N 0.66414 0.99508 0.28555 0.0
C367 C 0.59165 0.97096 0.27793 0.0
H368 H 0.76903 1.00175 0.27246 0.0
Co369 Co 0.69575 0.02789 0.31051 0.0
C370 C 0.6327 0.13796 0.31945 0.0
O371 O 0.70119 0.18576 0.3279 0.0
N372 N 0.72881 0.05912 0.3366 0.0
C373 C 0.80027 0.11022 0.36356 0.0
C374 C 0.79619 0.12146 0.344 0.0
C375 C 0.69192 1.01308 0.35227 0.0
N376 N 0.73498 0.04099 0.36868 0.0
O377 O 0.61292 0.92177 0.31865 0.0
H378 H 0.84161 0.17145 0.33587 0.0
H379 H 0.63525 0.95813 0.35168 0.0
O380 O 0.62067 0.07113 0.31238 0.0
C381 C 0.6347 0.86893 0.31869 0.0
O382 O 0.71107 0.89295 0.31625 0.0
N383 N 0.77886 0.12531 0.3005 0.0
C384 C 0.89561 0.22347 0.27351 0.0
C385 C 0.82126 0.22017 0.27434 0.0
C386 C 0.76363 0.17039 0.28778 0.0
C387 C 0.85252 0.13158 0.30073 0.0
C388 C 0.91255 0.18215 0.28778 0.0
H389 H 0.70383 0.16044 0.28596 0.0
H390 H 0.86269 0.09206 0.3099 0.0
H391 H 0.54248 0.96798 0.2862 0.0
H392 H 0.68065 0.95244 0.24074 0.0
H393 H 0.85007 0.14754 0.37293 0.0
H394 H 0.80373 0.24841 0.26336 0.0
H395 H 0.96931 0.1834 0.28797 0.0
C396 C 0.44762 0.14904 0.30464 0.0
C397 C 0.47116 0.22956 0.30874 0.0
H398 H 0.47949 0.05682 0.30464 0.0
C399 C 0.54867 0.27963 0.31586 0.0
H400 H 0.38817 0.10863 0.29919 0.0
C401 C 0.6003 0.24943 0.31935 0.0
C402 C 0.57638 0.16851 0.31562 0.0
H403 H 0.56854 0.34152 0.31941 0.0
H404 H 0.65914 0.28986 0.32512 0.0
C405 C 0.49976 0.11905 0.30788 0.0
C406 C 0.35369 0.4344 0.47181 0.0
C407 C 0.29812 0.45975 0.476 0.0
H408 H 0.47628 0.4618 0.4726 0.0
C409 C 0.32659 0.53582 0.48423 0.0
H410 H 0.33371 0.37582 0.46559 0.0
C411 C 0.40802 0.58427 0.48864 0.0
C412 C 0.46357 0.55854 0.48475 0.0
H413 H 0.28553 0.55678 0.48796 0.0
H414 H 0.42728 0.64217 0.49517 0.0
C415 C 0.43542 0.48337 0.47598 0.0
C416 C 0.79654 0.37634 0.65075 0.0
C417 C 0.87924 0.43111 0.64857 0.0
H418 H 0.70157 0.25382 0.64976 0.0
C419 C 0.92913 0.40165 0.64236 0.0
H420 H 0.75583 0.39672 0.65527 0.0
C421 C 0.89763 0.31923 0.63926 0.0
C422 C 0.81527 0.26439 0.64192 0.0
H423 H 0.99275 0.44194 0.64035 0.0
H424 H 0.93823 0.29818 0.63513 0.0
C425 C 0.76492 0.29424 0.64735 0.0
C426 C 0.54988 0.95918 0.80581 0.0
C427 C 0.4776 0.91376 0.81601 0.0
H428 H 0.65371 0.96272 0.79323 0.0
C429 C 0.45258 0.83293 0.82018 0.0
H430 H 0.57067 0.02121 0.80219 0.0
C431 C 0.49896 0.79883 0.8146 0.0
C432 C 0.57234 0.84486 0.80494 0.0
H433 H 0.39677 0.7955 0.82779 0.0
H434 H 0.47877 0.73723 0.81857 0.0
C435 C 0.59703 0.92534 0.80051 0.0
C436 C 0.72164 0.60864 0.95831 0.0
C437 C 0.7733 0.59772 0.97065 0.0
H438 H 0.60113 0.58299 0.95298 0.0
C439 C 0.74129 0.55079 -0.01257 0.0
H440 H 0.74511 0.64582 0.94548 0.0
C441 C 0.66004 0.5184 -0.00781 0.0
C442 C 0.60864 0.53022 0.97999 0.0
H443 H 0.77996 0.54284 -0.00258 0.0
H444 H 0.63735 0.48424 0.00548 0.0
C445 C 0.63964 0.57356 0.96269 0.0
C446 C 0.23778 0.70498 0.14886 0.0
C447 C 0.18773 0.7337 0.14244 0.0
H448 H 0.24761 0.60334 0.15718 0.0
C449 C 0.10676 0.6777 0.13865 0.0
H450 H 0.30006 0.74622 0.15215 0.0
C451 C 0.0764 0.59525 0.14148 0.0
C452 C 0.12591 0.5668 0.14851 0.0
H453 H 0.06637 0.69775 0.13376 0.0
H454 H 1.01383 0.55401 0.13849 0.0
C455 C 0.20719 0.62282 0.15197 0.0
C456 C 0.96109 0.53388 0.4886 0.0
C457 C 0.9115 0.45643 0.48125 0.0
H458 H 0.97109 0.64555 0.49721 0.0
C459 C 0.8299 0.4311 0.47823 0.0
H460 H 1.02392 0.55535 0.49125 0.0
C461 C 0.79917 0.4822 0.48202 0.0
C462 C 0.84932 0.56053 0.48874 0.0
H463 H 0.78942 0.3716 0.47279 0.0
H464 H 0.73673 0.46126 0.47896 0.0
C465 C 0.93054 0.58541 0.49215 0.0
C466 C 0.29364 0.8185 0.63458 0.0
C467 C 0.26471 0.82424 0.65289 0.0
H468 H 0.39517 0.86226 0.61543 0.0
C469 C 0.31937 0.87693 0.66663 0.0
H470 H 0.2526 0.77989 0.62356 0.0
C471 C 0.40139 0.92295 0.66212 0.0
C472 C 0.42969 0.92006 0.64347 0.0
H473 H 0.2983 0.88378 0.6807 0.0
H474 H 0.44219 0.96307 0.67297 0.0
C475 C 0.37501 0.86666 0.62983 0.0
C476 C 0.59733 0.4029 0.80836 0.0
C477 C 0.57072 0.45869 0.81041 0.0
H478 H 0.5681 0.28006 0.8098 0.0
C479 C 0.49144 0.43057 0.81655 0.0
H480 H 0.65823 0.42218 0.80387 0.0
C481 C 0.43957 0.34851 0.81993 0.0
C482 C 0.46598 0.2927 0.81755 0.0
H483 H 0.46906 0.4717 0.81845 0.0
H484 H 0.37824 0.32861 0.82416 0.0
C485 C 0.54587 0.3212 0.81198 0.0
C486 C 0.26518 0.55334 0.97213 0.0
C487 C 0.21954 0.47763 0.9807 0.0
H488 H 0.26705 0.65729 0.96067 0.0
C489 C 0.13831 0.45027 -0.01499 0.0
H490 H 0.32737 0.5756 0.9683 0.0
C491 C 0.10335 0.49722 0.98069 0.0
C492 C 0.14834 0.57191 0.97153 0.0
H493 H 0.1013 0.3918 -0.0085 0.0
H494 H 0.04082 0.47441 0.98422 0.0
C495 C 0.22992 0.59953 0.96747 0.0
C496 C 0.68741 0.10036 0.15621 0.0
C497 C 0.74275 0.18116 0.15186 0.0
H498 H 0.56443 1.00557 0.15609 0.0
C499 C 0.71362 0.22898 0.14415 0.0
H500 H 0.70791 0.06164 0.16207 0.0
C501 C 0.63183 0.19631 0.14029 0.0
C502 C 0.57648 0.11512 0.14428 0.0
H503 H 0.7544 0.29096 0.14036 0.0
H504 H 0.61213 0.2351 0.13409 0.0
C505 C 0.60519 0.06791 0.15265 0.0
C506 C 0.44357 0.67088 0.31017 0.0
C507 C 0.469 0.61447 0.31296 0.0
H508 H 0.47468 0.7945 0.31018 0.0
C509 C 0.54795 0.6425 0.31912 0.0
H510 H 0.38294 0.65175 0.30563 0.0
C511 C 0.60078 0.72496 0.32167 0.0
C512 C 0.57566 0.78135 0.31844 0.0
H513 H 0.56946 0.60099 0.32156 0.0
H514 H 0.66192 0.7447 0.32587 0.0
C515 C 0.49594 0.75301 0.31298 0.0
C516 C 0.64361 0.51247 0.39265 0.0
C517 C 0.62239 0.49899 0.41235 0.0
H518 H 0.60515 0.48058 0.36339 0.0
C519 C 0.54561 0.43728 0.4176 0.0
H520 H 0.70228 0.55962 0.38817 0.0
C521 C 0.48959 0.39296 0.40345 0.0
C522 C 0.50934 0.40921 0.38373 0.0
H523 H 0.52809 0.42441 0.43269 0.0
H524 H 0.42992 0.34829 0.408 0.0
C525 C 0.58758 0.46791 0.37847 0.0
C526 C 0.13063 0.58709 0.54515 0.0
C527 C 0.13933 0.52213 0.55111 0.0
H528 H 0.11259 0.68332 0.55368 0.0
C529 C 0.14546 0.51049 0.57096 0.0
H530 H 0.12767 0.59884 0.52993 0.0
C531 C 0.1382 0.55996 0.58461 0.0
C532 C 0.12439 0.62182 0.57867 0.0
H533 H 0.15233 0.46112 0.57599 0.0
H534 H 0.14159 0.54846 0.59982 0.0
C535 C 0.12301 0.63626 0.55878 0.0
C536 C 0.6432 0.14308 0.73406 0.0
C537 C 0.61672 0.11879 0.71498 0.0
H538 H 0.61307 0.16345 0.7626 0.0
C539 C 0.53995 0.10414 0.70979 0.0
H540 H 0.70244 0.15688 0.73851 0.0
C541 C 0.4894 0.10878 0.72353 0.0
C542 C 0.51404 0.12769 0.74281 0.0
H543 H 0.51647 0.08498 0.69538 0.0
H544 H 0.42929 0.09292 0.71928 0.0
C545 C 0.59217 0.14709 0.74786 0.0
C546 C 0.43799 0.5557 0.87351 0.0
C547 C 0.50159 0.63141 0.87879 0.0
H548 H 0.34428 0.4417 0.88312 0.0
C549 C 0.51121 0.65362 0.8984 0.0
H550 H 0.42712 0.53744 0.85848 0.0
C551 C 0.46222 0.5992 0.91252 0.0
C552 C 0.4031 0.52112 0.90735 0.0
H553 H 0.55903 0.71148 0.90302 0.0
H554 H 0.47263 0.61762 0.92754 0.0
C555 C 0.38953 0.50099 0.88764 0.0
C556 C 0.91674 0.39109 0.0549 0.0
C557 C 0.91545 0.40777 0.07467 0.0
H558 H 0.92413 0.43189 0.02573 0.0
C559 C 0.91788 0.47917 0.08013 0.0
H560 H 0.91549 0.33678 0.0503 0.0
C561 C 0.92339 0.53374 0.06612 0.0
C562 C 0.92685 0.51818 0.04636 0.0
H563 H 0.91598 0.4931 0.09526 0.0
H564 H 0.92705 0.58907 0.0708 0.0
C565 C 0.92266 0.44595 0.04087 0.0
C566 C 0.46169 0.94723 0.25089 0.0
C567 C 0.52267 0.9302 0.24602 0.0
H568 H 0.35933 0.95271 0.2413 0.0
C569 C 0.52106 0.89731 0.2277 0.0
H570 H 0.46076 0.97333 0.26469 0.0
C571 C 0.46294 0.8865 0.21421 0.0
C572 C 0.40474 0.90721 0.21888 0.0
H573 H 0.56564 0.88161 0.22356 0.0
H574 H 0.4645 0.86381 0.19994 0.0
C575 C 0.40308 0.93534 0.23749 0.0
C576 C 0.29344 0.27367 0.20654 0.0
C577 C 0.337 0.23305 0.20647 0.0
H578 H 0.25251 0.34023 0.22332 0.0
C579 C 0.37457 0.23026 0.2236 0.0
H580 H 0.26391 0.2767 0.19352 0.0
C581 C 0.36822 0.26612 0.24045 0.0
C582 C 0.32384 0.30586 0.24078 0.0
H583 H 0.40638 0.19725 0.22429 0.0
H584 H 0.39535 0.25908 0.25342 0.0
C585 C 0.28701 0.30996 0.22356 0.0
C586 C 0.05679 0.24993 0.37957 0.0
C587 C 0.09608 0.32815 0.3719 0.0
H588 H 0.99767 0.17498 0.40396 0.0
C589 C 0.09496 0.38961 0.38273 0.0
H590 H 0.05691 0.20089 0.37195 0.0
C591 C 0.06257 0.37476 0.40146 0.0
C592 C 0.02892 0.29784 0.40957 0.0
H593 H 0.12254 0.45014 0.37713 0.0
H594 H 0.06602 0.42388 0.40986 0.0
C595 C 1.02314 0.23494 0.39811 0.0
C596 C 0.70108 1.00795 0.5593 0.0
C597 C 0.74518 1.0041 0.57496 0.0
H598 H 0.70623 0.05609 0.53092 0.0
C599 C 0.82816 0.03703 0.5731 0.0
H600 H 0.63701 0.98338 0.56064 0.0
C601 C 0.86735 0.07691 0.55614 0.0
C602 C 0.82418 0.08596 0.54097 0.0
H603 H 0.86282 0.03456 0.58512 0.0
H604 H 0.932 0.10512 0.55539 0.0
C605 C 0.74051 0.0496 0.54246 0.0
C606 C 0.7892 0.78457 0.72552 0.0
C607 C 0.72553 0.73025 0.73731 0.0
H608 H 0.82445 0.85331 0.6995 0.0
C609 C 0.64759 0.69193 0.7298 0.0
H610 H 0.84997 0.81513 0.73089 0.0
C611 C 0.6328 0.71239 0.71147 0.0
C612 C 0.69553 0.77293 0.70045 0.0
H613 H 0.59773 0.64834 0.73843 0.0
H614 H 0.57158 0.68387 0.7064 0.0
C615 C 0.7744 0.80603 0.70735 0.0
C616 C 1.01974 0.81821 0.89607 0.0
C617 C 1.01872 0.75215 0.90491 0.0
H618 H 0.97516 0.86011 0.87354 0.0
C619 C 0.97949 0.67755 0.8956 0.0
H620 H 0.04875 0.87632 0.903 0.0
C621 C 0.93837 0.66828 0.87828 0.0
C622 C 0.93432 0.73317 0.87015 0.0
H623 H 0.97895 0.62601 0.902 0.0
H624 H 0.90755 0.6096 0.87164 0.0
C625 C 0.97759 0.80878 0.87901 0.0
C626 C 0.28343 0.90377 0.07198 0.0
C627 C 0.30448 0.98396 0.07501 0.0
H628 H 0.2384 0.80573 0.05245 0.0
C629 C 0.30748 0.03061 0.05901 0.0
H630 H 0.27927 0.86555 0.08393 0.0
C631 C 0.28422 0.99601 0.04064 0.0
C632 C 0.25755 0.91416 0.03799 0.0
H633 H 0.32485 0.093 0.06083 0.0
H634 H 0.28399 0.03243 0.02872 0.0
C635 C 0.26006 0.86929 0.05375 0.0
C636 C 0.70363 0.659 0.56234 0.0
C637 C 0.74571 0.73448 0.55345 0.0
H638 H 0.69272 0.58749 0.58709 0.0
C639 C 0.80483 0.79918 0.564 0.0
H640 H 0.65653 0.60863 0.55463 0.0
C641 C 0.82682 0.78707 0.58236 0.0
C642 C 0.78928 0.71008 0.59072 0.0
H643 H 0.83842 0.85806 0.55751 0.0
H644 H 0.87748 0.83715 0.58922 0.0
C645 C 0.72455 0.64708 0.58089 0.0
C646 C 0.03597 0.75302 0.75565 0.0
C647 C 0.12008 0.79306 0.75613 0.0
H648 H 0.93068 0.68979 0.73812 0.0
C649 C 0.16238 0.79784 0.73906 0.0
H650 H 1.00182 0.74836 0.76859 0.0
C651 C 0.12215 0.76521 0.72184 0.0
C652 C 0.03826 0.72692 0.72111 0.0
H653 H 0.22724 0.83034 0.7387 0.0
H654 H 0.15757 0.77395 0.70891 0.0
C655 C 0.99539 0.71983 0.73826 0.0
C656 C 0.40469 0.13422 0.88942 0.0
C657 C 0.34494 0.05375 0.88716 0.0
H658 H 0.46076 0.23482 0.90821 0.0
C659 C 0.3036 1.00947 0.9037 0.0
H660 H 0.43728 0.17067 0.87706 0.0
C661 C 0.31721 0.04664 0.92183 0.0
C662 C 0.37284 0.12875 0.92374 0.0
H663 H 0.2587 0.94686 0.90245 0.0
H664 H 0.28198 1.01202 0.93417 0.0
C665 C 0.41841 0.1712 0.90744 0.0
C666 C 0.21631 0.25278 0.05199 0.0
C667 C 0.2995 0.302 0.05028 0.0
H668 H 0.11269 0.21463 0.06996 0.0
C669 C 0.34385 0.3468 0.06631 0.0
H670 H 0.18137 0.21785 0.03973 0.0
C671 C 0.30466 0.34627 0.08348 0.0
C672 C 0.22097 0.29919 0.08492 0.0
H673 H 0.40807 0.3856 0.06514 0.0
H674 H 0.33922 0.38436 0.09539 0.0
C675 C 0.17739 0.25068 0.06925 0.0
C676 C 0.97909 0.33418 0.22601 0.0
C677 C 1.01162 0.28987 0.21786 0.0
H678 H 0.92118 0.35168 0.25052 0.0
C679 C 1.01705 0.23269 0.22934 0.0
H680 H 0.97588 0.37987 0.2176 0.0
C681 C 0.98454 0.21532 0.24799 0.0
C682 C 0.9467 0.25555 0.25578 0.0
H683 H 0.04148 0.19728 0.22346 0.0
H684 H 0.98423 0.16616 0.25563 0.0
C685 C 0.94777 0.31785 0.24486 0.0
C686 C 0.76139 0.0359 0.40371 0.0
C687 C 0.72224 0.99697 0.3865 0.0
H688 H 0.78655 0.02251 0.43336 0.0
C689 C 0.67497 0.91294 0.38654 0.0
H690 H 0.79779 0.10049 0.40424 0.0
C691 C 0.66833 0.86896 0.40308 0.0
C692 C 0.70883 0.90743 0.4201 0.0
H693 H 0.64558 0.88003 0.37357 0.0
H694 H 0.63401 0.80421 0.40222 0.0
C695 C 0.75498 0.99144 0.42036 0.0
loop_
_geom_bond_atom_site_label_1
_geom_bond_atom_site_label_2
_geom_bond_distance
_geom_bond_site_symmetry_2
_ccdc_geom_bond_type
C0 C1 1.351 . S
C0 N3 1.368 . S
C0 H5 0.931 . S
C1 C0 1.351 . S
C1 N2 1.373 . S
C1 H29 0.930 . S
N2 C1 1.373 . S
N2 C4 1.340 . S
N3 C0 1.368 . S
N3 C4 1.321 . S
N3 Co6 2.135 . S
C4 N2 1.340 . S
C4 N3 1.321 . S
C4 H28 0.930 . S
H5 C0 0.931 . S
Co6 N3 2.135 . S
Co6 N9 2.121 . S
Co6 O14 2.055 . S
Co6 O17 2.039 . S
Co6 N20 2.140 . S
C7 O8 1.227 . S
C7 O17 1.265 . S
O8 C7 1.227 . S
N9 Co6 2.121 . S
N9 C11 1.375 . S
N9 C12 1.313 . S
C10 C11 1.338 . S
C10 N13 1.377 . S
C10 H30 0.930 . S
C11 N9 1.375 . S
C11 C10 1.338 . S
C11 H15 0.931 . S
C12 N9 1.313 . S
C12 N13 1.344 . S
C12 H16 0.930 . S
N13 C10 1.377 . S
N13 C12 1.344 . S
O14 Co6 2.055 . S
O14 C18 1.253 . S
H15 C11 0.931 . S
H16 C12 0.930 . S
O17 Co6 2.039 . S
O17 C7 1.265 . S
C18 O14 1.253 . S
C18 O19 1.227 . S
O19 C18 1.227 . S
N20 Co6 2.140 . S
N20 C23 1.346 . S
N20 C24 1.345 . S
C21 C22 1.387 . S
C21 C25 1.391 . S
C22 C21 1.387 . S
C22 C23 1.369 . S
C22 H31 0.929 . S
C23 N20 1.346 . S
C23 C22 1.369 . S
C23 H26 0.928 . S
C24 N20 1.345 . S
C24 C25 1.371 . S
C24 H27 0.931 . S
C25 C21 1.391 . S
C25 C24 1.371 . S
C25 H32 0.930 . S
H26 C23 0.928 . S
H27 C24 0.931 . S
H28 C4 0.930 . S
H29 C1 0.930 . S
H30 C10 0.930 . S
H31 C22 0.929 . S
H32 C25 0.930 . S
C33 C34 1.351 . S
C33 N36 1.368 . S
C33 H38 0.931 . S
C34 C33 1.351 . S
C34 N35 1.373 . S
C34 H62 0.930 . S
N35 C34 1.373 . S
N35 C37 1.340 . S
N36 C33 1.368 . S
N36 C37 1.321 . S
N36 Co39 2.135 . S
C37 N35 1.340 . S
C37 N36 1.321 . S
C37 H61 0.930 1_455 S
H38 C33 0.931 . S
Co39 N36 2.135 . S
Co39 N42 2.121 . S
Co39 O47 2.055 . S
Co39 O50 2.039 1_455 S
Co39 N53 2.140 1_455 S
C40 O41 1.227 . S
C40 O50 1.265 . S
O41 C40 1.227 . S
N42 Co39 2.121 . S
N42 C44 1.375 1_455 S
N42 C45 1.313 . S
C43 C44 1.338 . S
C43 N46 1.377 1_655 S
C43 H63 0.930 . S
C44 N42 1.375 1_655 S
C44 C43 1.338 . S
C44 H48 0.931 . S
C45 N42 1.313 . S
C45 N46 1.344 . S
C45 H49 0.930 . S
N46 C43 1.377 1_455 S
N46 C45 1.344 . S
O47 Co39 2.055 . S
O47 C51 1.253 . S
H48 C44 0.931 . S
H49 C45 0.930 . S
O50 Co39 2.039 1_655 S
O50 C40 1.265 . S
C51 O47 1.253 . S
C51 O52 1.227 . S
O52 C51 1.227 . S
N53 Co39 2.140 1_655 S
N53 C56 1.346 . S
N53 C57 1.345 . S
C54 C55 1.387 . S
C54 C58 1.391 . S
C55 C54 1.387 . S
C55 C56 1.369 . S
C55 H64 0.929 . S
C56 N53 1.346 . S
C56 C55 1.369 . S
C56 H59 0.928 . S
C57 N53 1.345 . S
C57 C58 1.371 . S
C57 H60 0.931 1_655 S
C58 C54 1.391 . S
C58 C57 1.371 . S
C58 H65 0.930 . S
H59 C56 0.928 . S
H60 C57 0.931 1_455 S
H61 C37 0.930 1_655 S
H62 C34 0.930 . S
H63 C43 0.930 . S
H64 C55 0.929 . S
H65 C58 0.930 . S
C66 C67 1.351 . S
C66 N69 1.368 . S
C66 H71 0.931 . S
C67 C66 1.351 . S
C67 N68 1.373 . S
C67 H95 0.930 . S
N68 C67 1.373 . S
N68 C70 1.340 . S
N69 C66 1.368 . S
N69 C70 1.321 . S
N69 Co72 2.135 . S
C70 N68 1.340 . S
C70 N69 1.321 . S
C70 H94 0.930 1_545 S
H71 C66 0.931 . S
Co72 N69 2.135 . S
Co72 N75 2.121 . S
Co72 O80 2.055 . S
Co72 O83 2.039 1_545 S
Co72 N86 2.140 1_545 S
C73 O74 1.227 . S
C73 O83 1.265 . S
O74 C73 1.227 . S
N75 Co72 2.121 . S
N75 C77 1.375 1_545 S
N75 C78 1.313 . S
C76 C77 1.338 . S
C76 N79 1.377 1_565 S
C76 H96 0.930 . S
C77 N75 1.375 1_565 S
C77 C76 1.338 . S
C77 H81 0.931 . S
C78 N75 1.313 . S
C78 N79 1.344 . S
C78 H82 0.930 . S
N79 C76 1.377 1_545 S
N79 C78 1.344 . S
O80 Co72 2.055 . S
O80 C84 1.253 . S
H81 C77 0.931 . S
H82 C78 0.930 . S
O83 Co72 2.039 1_565 S
O83 C73 1.265 . S
C84 O80 1.253 . S
C84 O85 1.227 . S
O85 C84 1.227 . S
N86 Co72 2.140 1_565 S
N86 C89 1.346 . S
N86 C90 1.345 . S
C87 C88 1.387 . S
C87 C91 1.391 . S
C88 C87 1.387 . S
C88 C89 1.369 . S
C88 H97 0.929 . S
C89 N86 1.346 . S
C89 C88 1.369 . S
C89 H92 0.928 . S
C90 N86 1.345 . S
C90 C91 1.371 . S
C90 H93 0.931 1_565 S
C91 C87 1.391 . S
C91 C90 1.371 . S
C91 H98 0.930 . S
H92 C89 0.928 . S
H93 C90 0.931 1_545 S
H94 C70 0.930 1_565 S
H95 C67 0.930 . S
H96 C76 0.930 . S
H97 C88 0.929 . S
H98 C91 0.930 . S
C99 C100 1.351 . S
C99 N102 1.368 . S
C99 H104 0.931 . S
C100 C99 1.351 . S
C100 N101 1.373 . S
C100 H128 0.930 . S
N101 C100 1.373 . S
N101 C103 1.340 . S
N102 C99 1.368 . S
N102 C103 1.321 . S
N102 Co105 2.135 . S
C103 N101 1.340 . S
C103 N102 1.321 . S
C103 H127 0.930 . S
H104 C99 0.931 . S
Co105 N102 2.135 . S
Co105 N108 2.121 . S
Co105 O113 2.055 . S
Co105 O116 2.039 . S
Co105 N119 2.140 . S
C106 O107 1.227 . S
C106 O116 1.265 . S
O107 C106 1.227 . S
N108 Co105 2.121 . S
N108 C110 1.375 . S
N108 C111 1.313 . S
C109 C110 1.338 . S
C109 N112 1.377 . S
C109 H129 0.930 . S
C110 N108 1.375 . S
C110 C109 1.338 . S
C110 H114 0.931 . S
C111 N108 1.313 . S
C111 N112 1.344 . S
C111 H115 0.930 . S
N112 C109 1.377 . S
N112 C111 1.344 . S
O113 Co105 2.055 . S
O113 C117 1.253 . S
H114 C110 0.931 . S
H115 C111 0.930 . S
O116 Co105 2.039 . S
O116 C106 1.265 . S
C117 O113 1.253 . S
C117 O118 1.227 . S
O118 C117 1.227 . S
N119 Co105 2.140 . S
N119 C122 1.346 . S
N119 C123 1.345 . S
C120 C121 1.387 . S
C120 C124 1.391 . S
C121 C120 1.387 . S
C121 C122 1.369 . S
C121 H130 0.929 . S
C122 N119 1.346 . S
C122 C121 1.369 . S
C122 H125 0.928 . S
C123 N119 1.345 . S
C123 C124 1.371 . S
C123 H126 0.931 . S
C124 C120 1.391 . S
C124 C123 1.371 . S
C124 H131 0.930 . S
H125 C122 0.928 . S
H126 C123 0.931 . S
H127 C103 0.930 . S
H128 C100 0.930 . S
H129 C109 0.930 . S
H130 C121 0.929 . S
H131 C124 0.930 . S
C132 C133 1.351 . S
C132 N135 1.368 . S
C132 H137 0.931 . S
C133 C132 1.351 . S
C133 N134 1.373 . S
C133 H161 0.930 . S
N134 C133 1.373 . S
N134 C136 1.340 . S
N135 C132 1.368 . S
N135 C136 1.321 . S
N135 Co138 2.135 . S
C136 N134 1.340 . S
C136 N135 1.321 . S
C136 H160 0.930 1_655 S
H137 C132 0.931 . S
Co138 N135 2.135 . S
Co138 N141 2.121 1_554 S
Co138 O146 2.055 1_554 S
Co138 O149 2.039 1_654 S
Co138 N152 2.140 1_655 S
C139 O140 1.227 1_556 S
C139 O149 1.265 . S
O140 C139 1.227 1_554 S
N141 Co138 2.121 1_556 S
N141 C143 1.375 1_655 S
N141 C144 1.313 . S
C142 C143 1.338 . S
C142 N145 1.377 1_455 S
C142 H162 0.930 . S
C143 N141 1.375 1_455 S
C143 C142 1.338 . S
C143 H147 0.931 . S
C144 N141 1.313 . S
C144 N145 1.344 . S
C144 H148 0.930 . S
N145 C142 1.377 1_655 S
N145 C144 1.344 . S
O146 Co138 2.055 1_556 S
O146 C150 1.253 1_556 S
H147 C143 0.931 . S
H148 C144 0.930 . S
O149 Co138 2.039 1_456 S
O149 C139 1.265 . S
C150 O146 1.253 1_554 S
C150 O151 1.227 . S
O151 C150 1.227 . S
N152 Co138 2.140 1_455 S
N152 C155 1.346 . S
N152 C156 1.345 . S
C153 C154 1.387 . S
C153 C157 1.391 . S
C154 C153 1.387 . S
C154 C155 1.369 . S
C154 H163 0.929 . S
C155 N152 1.346 . S
C155 C154 1.369 . S
C155 H158 0.928 . S
C156 N152 1.345 . S
C156 C157 1.371 . S
C156 H159 0.931 1_455 S
C157 C153 1.391 . S
C157 C156 1.371 . S
C157 H164 0.930 . S
H158 C155 0.928 . S
H159 C156 0.931 1_655 S
H160 C136 0.930 1_455 S
H161 C133 0.930 . S
H162 C142 0.930 . S
H163 C154 0.929 . S
H164 C157 0.930 . S
C165 C166 1.351 . S
C165 N168 1.368 . S
C165 H170 0.931 . S
C166 C165 1.351 . S
C166 N167 1.373 . S
C166 H194 0.930 . S
N167 C166 1.373 . S
N167 C169 1.340 . S
N168 C165 1.368 . S
N168 C169 1.321 . S
N168 Co171 2.135 . S
C169 N167 1.340 . S
C169 N168 1.321 . S
C169 H193 0.930 1_565 S
H170 C165 0.931 . S
Co171 N168 2.135 . S
Co171 N174 2.121 . S
Co171 O179 2.055 . S
Co171 O182 2.039 1_565 S
Co171 N185 2.140 1_565 S
C172 O173 1.227 . S
C172 O182 1.265 . S
O173 C172 1.227 . S
N174 Co171 2.121 . S
N174 C176 1.375 1_565 S
N174 C177 1.313 . S
C175 C176 1.338 . S
C175 N178 1.377 1_545 S
C175 H195 0.930 . S
C176 N174 1.375 1_545 S
C176 C175 1.338 . S
C176 H180 0.931 . S
C177 N174 1.313 . S
C177 N178 1.344 . S
C177 H181 0.930 . S
N178 C175 1.377 1_565 S
N178 C177 1.344 . S
O179 Co171 2.055 . S
O179 C183 1.253 . S
H180 C176 0.931 . S
H181 C177 0.930 . S
O182 Co171 2.039 1_545 S
O182 C172 1.265 . S
C183 O179 1.253 . S
C183 O184 1.227 . S
O184 C183 1.227 . S
N185 Co171 2.140 1_545 S
N185 C188 1.346 . S
N185 C189 1.345 . S
C186 C187 1.387 . S
C186 C190 1.391 . S
C187 C186 1.387 . S
C187 C188 1.369 . S
C187 H196 0.929 . S
C188 N185 1.346 . S
C188 C187 1.369 . S
C188 H191 0.928 . S
C189 N185 1.345 . S
C189 C190 1.371 . S
C189 H192 0.931 1_545 S
C190 C186 1.391 . S
C190 C189 1.371 . S
C190 H197 0.930 . S
H191 C188 0.928 . S
H192 C189 0.931 1_565 S
H193 C169 0.930 1_545 S
H194 C166 0.930 . S
H195 C175 0.930 . S
H196 C187 0.929 . S
H197 C190 0.930 . S
C198 C199 1.351 . S
C198 N201 1.368 . S
C198 H203 0.931 . S
C199 C198 1.351 . S
C199 N200 1.373 . S
C199 H227 0.930 . S
N200 C199 1.373 . S
N200 C202 1.340 . S
N201 C198 1.368 . S
N201 C202 1.321 . S
N201 Co204 2.135 . S
C202 N200 1.340 . S
C202 N201 1.321 . S
C202 H226 0.930 . S
H203 C198 0.931 . S
Co204 N201 2.135 . S
Co204 N207 2.121 . S
Co204 O212 2.055 . S
Co204 O215 2.039 . S
Co204 N218 2.140 . S
C205 O206 1.227 . S
C205 O215 1.265 . S
O206 C205 1.227 . S
N207 Co204 2.121 . S
N207 C209 1.375 . S
N207 C210 1.313 . S
C208 C209 1.338 . S
C208 N211 1.377 . S
C208 H228 0.930 . S
C209 N207 1.375 . S
C209 C208 1.338 . S
C209 H213 0.931 . S
C210 N207 1.313 . S
C210 N211 1.344 . S
C210 H214 0.930 . S
N211 C208 1.377 . S
N211 C210 1.344 . S
O212 Co204 2.055 . S
O212 C216 1.253 . S
H213 C209 0.931 . S
H214 C210 0.930 . S
O215 Co204 2.039 . S
O215 C205 1.265 . S
C216 O212 1.253 . S
C216 O217 1.227 . S
O217 C216 1.227 . S
N218 Co204 2.140 . S
N218 C221 1.346 . S
N218 C222 1.345 . S
C219 C220 1.387 . S
C219 C223 1.391 . S
C220 C219 1.387 . S
C220 C221 1.369 . S
C220 H229 0.929 . S
C221 N218 1.346 . S
C221 C220 1.369 . S
C221 H224 0.928 . S
C222 N218 1.345 . S
C222 C223 1.371 . S
C222 H225 0.931 . S
C223 C219 1.391 . S
C223 C222 1.371 . S
C223 H230 0.930 . S
H224 C221 0.928 . S
H225 C222 0.931 . S
H226 C202 0.930 . S
H227 C199 0.930 . S
H228 C208 0.930 . S
H229 C220 0.929 . S
H230 C223 0.930 . S
C231 C232 1.351 . S
C231 N234 1.368 . S
C231 H236 0.931 . S
C232 C231 1.351 . S
C232 N233 1.373 . S
C232 H260 0.930 . S
N233 C232 1.373 . S
N233 C235 1.340 . S
N234 C231 1.368 . S
N234 C235 1.321 . S
N234 Co237 2.135 . S
C235 N233 1.340 . S
C235 N234 1.321 . S
C235 H259 0.930 1_455 S
H236 C231 0.931 . S
Co237 N234 2.135 . S
Co237 N240 2.121 . S
Co237 O245 2.055 . S
Co237 O248 2.039 1_455 S
Co237 N251 2.140 1_455 S
C238 O239 1.227 . S
C238 O248 1.265 . S
O239 C238 1.227 . S
N240 Co237 2.121 . S
N240 C242 1.375 1_455 S
N240 C243 1.313 . S
C241 C242 1.338 . S
C241 N244 1.377 1_655 S
C241 H261 0.930 . S
C242 N240 1.375 1_655 S
C242 C241 1.338 . S
C242 H246 0.931 . S
C243 N240 1.313 . S
C243 N244 1.344 . S
C243 H247 0.930 . S
N244 C241 1.377 1_455 S
N244 C243 1.344 . S
O245 Co237 2.055 . S
O245 C249 1.253 . S
H246 C242 0.931 . S
H247 C243 0.930 . S
O248 Co237 2.039 1_655 S
O248 C238 1.265 . S
C249 O245 1.253 . S
C249 O250 1.227 . S
O250 C249 1.227 . S
N251 Co237 2.140 1_655 S
N251 C254 1.346 . S
N251 C255 1.345 . S
C252 C253 1.387 . S
C252 C256 1.391 . S
C253 C252 1.387 . S
C253 C254 1.369 . S
C253 H262 0.929 . S
C254 N251 1.346 . S
C254 C253 1.369 . S
C254 H257 0.928 . S
C255 N251 1.345 . S
C255 C256 1.371 . S
C255 H258 0.931 1_655 S
C256 C252 1.391 . S
C256 C255 1.371 . S
C256 H263 0.930 . S
H257 C254 0.928 . S
H258 C255 0.931 1_455 S
H259 C235 0.930 1_655 S
H260 C232 0.930 . S
H261 C241 0.930 . S
H262 C253 0.929 . S
H263 C256 0.930 . S
C264 C265 1.351 . S
C264 N267 1.368 . S
C264 H269 0.931 . S
C265 C264 1.351 . S
C265 N266 1.373 . S
C265 H293 0.930 . S
N266 C265 1.373 . S
N266 C268 1.340 . S
N267 C264 1.368 . S
N267 C268 1.321 . S
N267 Co270 2.135 . S
C268 N266 1.340 . S
C268 N267 1.321 . S
C268 H292 0.930 1_545 S
H269 C264 0.931 . S
Co270 N267 2.135 . S
Co270 N273 2.121 . S
Co270 O278 2.055 . S
Co270 O281 2.039 1_545 S
Co270 N284 2.140 1_545 S
C271 O272 1.227 . S
C271 O281 1.265 . S
O272 C271 1.227 . S
N273 Co270 2.121 . S
N273 C275 1.375 1_545 S
N273 C276 1.313 . S
C274 C275 1.338 . S
C274 N277 1.377 1_565 S
C274 H294 0.930 . S
C275 N273 1.375 1_565 S
C275 C274 1.338 . S
C275 H279 0.931 . S
C276 N273 1.313 . S
C276 N277 1.344 . S
C276 H280 0.930 . S
N277 C274 1.377 1_545 S
N277 C276 1.344 . S
O278 Co270 2.055 . S
O278 C282 1.253 . S
H279 C275 0.931 . S
H280 C276 0.930 . S
O281 Co270 2.039 1_565 S
O281 C271 1.265 . S
C282 O278 1.253 . S
C282 O283 1.227 . S
O283 C282 1.227 . S
N284 Co270 2.140 1_565 S
N284 C287 1.346 . S
N284 C288 1.345 . S
C285 C286 1.387 . S
C285 C289 1.391 . S
C286 C285 1.387 . S
C286 C287 1.369 . S
C286 H295 0.929 . S
C287 N284 1.346 . S
C287 C286 1.369 . S
C287 H290 0.928 . S
C288 N284 1.345 . S
C288 C289 1.371 . S
C288 H291 0.931 1_565 S
C289 C285 1.391 . S
C289 C288 1.371 . S
C289 H296 0.930 . S
H290 C287 0.928 . S
H291 C288 0.931 1_545 S
H292 C268 0.930 1_565 S
H293 C265 0.930 . S
H294 C274 0.930 . S
H295 C286 0.929 . S
H296 C289 0.930 . S
C297 C298 1.351 . S
C297 N300 1.368 . S
C297 H302 0.931 . S
C298 C297 1.351 . S
C298 N299 1.373 . S
C298 H326 0.930 . S
N299 C298 1.373 . S
N299 C301 1.340 . S
N300 C297 1.368 . S
N300 C301 1.321 . S
N300 Co303 2.135 . S
C301 N299 1.340 . S
C301 N300 1.321 . S
C301 H325 0.930 . S
H302 C297 0.931 . S
Co303 N300 2.135 . S
Co303 N306 2.121 1_556 S
Co303 O311 2.055 . S
Co303 O314 2.037 . S
Co303 N317 2.140 . S
C304 O305 1.227 . S
C304 O314 1.264 . S
O305 C304 1.227 . S
N306 Co303 2.121 1_554 S
N306 C308 1.375 . S
N306 C309 1.313 . S
C307 C308 1.338 . S
C307 N310 1.377 . S
C307 H327 0.930 . S
C308 N306 1.375 . S
C308 C307 1.338 . S
C308 H312 0.931 . S
C309 N306 1.313 . S
C309 N310 1.344 . S
C309 H313 0.930 . S
N310 C307 1.377 . S
N310 C309 1.344 . S
O311 Co303 2.055 . S
O311 C315 1.253 . S
H312 C308 0.931 . S
H313 C309 0.930 . S
O314 Co303 2.037 . S
O314 C304 1.264 . S
C315 O311 1.253 . S
C315 O316 1.227 . S
O316 C315 1.227 . S
N317 Co303 2.140 . S
N317 C320 1.346 . S
N317 C321 1.345 . S
C318 C319 1.387 . S
C318 C322 1.391 . S
C319 C318 1.387 . S
C319 C320 1.369 . S
C319 H328 0.929 . S
C320 N317 1.346 . S
C320 C319 1.369 . S
C320 H323 0.928 . S
C321 N317 1.345 . S
C321 C322 1.371 . S
C321 H324 0.931 . S
C322 C318 1.391 . S
C322 C321 1.371 . S
C322 H329 0.930 . S
H323 C320 0.928 . S
H324 C321 0.931 . S
H325 C301 0.930 . S
H326 C298 0.930 . S
H327 C307 0.930 . S
H328 C319 0.929 . S
H329 C322 0.930 . S
C330 C331 1.351 . S
C330 N333 1.368 . S
C330 H335 0.931 . S
C331 C330 1.351 . S
C331 N332 1.373 . S
C331 H359 0.930 . S
N332 C331 1.373 . S
N332 C334 1.340 . S
N333 C330 1.368 . S
N333 C334 1.321 . S
N333 Co336 2.135 . S
C334 N332 1.340 . S
C334 N333 1.321 . S
C334 H358 0.930 1_655 S
H335 C330 0.931 . S
Co336 N333 2.135 . S
Co336 N339 2.121 . S
Co336 O344 2.055 . S
Co336 O347 2.039 1_655 S
Co336 N350 2.140 1_655 S
C337 O338 1.227 . S
C337 O347 1.265 . S
O338 C337 1.227 . S
N339 Co336 2.121 . S
N339 C341 1.375 1_655 S
N339 C342 1.313 . S
C340 C341 1.338 . S
C340 N343 1.377 1_455 S
C340 H360 0.930 . S
C341 N339 1.375 1_455 S
C341 C340 1.338 . S
C341 H345 0.931 . S
C342 N339 1.313 . S
C342 N343 1.344 . S
C342 H346 0.930 . S
N343 C340 1.377 1_655 S
N343 C342 1.344 . S
O344 Co336 2.055 . S
O344 C348 1.253 . S
H345 C341 0.931 . S
H346 C342 0.930 . S
O347 Co336 2.039 1_455 S
O347 C337 1.265 . S
C348 O344 1.253 . S
C348 O349 1.227 . S
O349 C348 1.227 . S
N350 Co336 2.140 1_455 S
N350 C353 1.346 . S
N350 C354 1.345 . S
C351 C352 1.387 . S
C351 C355 1.391 . S
C352 C351 1.387 . S
C352 C353 1.369 . S
C352 H361 0.929 . S
C353 N350 1.346 . S
C353 C352 1.369 . S
C353 H356 0.928 . S
C354 N350 1.345 . S
C354 C355 1.371 . S
C354 H357 0.931 1_455 S
C355 C351 1.391 . S
C355 C354 1.371 . S
C355 H362 0.930 . S
H356 C353 0.928 . S
H357 C354 0.931 1_655 S
H358 C334 0.930 1_455 S
H359 C331 0.930 . S
H360 C340 0.930 . S
H361 C352 0.929 . S
H362 C355 0.930 . S
C363 C364 1.351 . S
C363 N366 1.368 . S
C363 H368 0.931 . S
C364 C363 1.351 . S
C364 N365 1.373 . S
C364 H392 0.930 . S
N365 C364 1.373 . S
N365 C367 1.340 . S
N366 C363 1.368 . S
N366 C367 1.321 . S
N366 Co369 2.135 . S
C367 N365 1.340 . S
C367 N366 1.321 . S
C367 H391 0.930 1_565 S
H368 C363 0.931 . S
Co369 N366 2.135 . S
Co369 N372 2.121 . S
Co369 O377 2.055 . S
Co369 O380 2.039 1_565 S
Co369 N383 2.140 1_565 S
C370 O371 1.227 . S
C370 O380 1.265 . S
O371 C370 1.227 . S
N372 Co369 2.121 . S
N372 C374 1.375 1_565 S
N372 C375 1.313 . S
C373 C374 1.338 . S
C373 N376 1.377 1_545 S
C373 H393 0.930 . S
C374 N372 1.375 1_545 S
C374 C373 1.338 . S
C374 H378 0.931 . S
C375 N372 1.313 . S
C375 N376 1.344 . S
C375 H379 0.930 . S
N376 C373 1.377 1_565 S
N376 C375 1.344 . S
O377 Co369 2.055 . S
O377 C381 1.253 . S
H378 C374 0.931 . S
H379 C375 0.930 . S
O380 Co369 2.039 1_545 S
O380 C370 1.265 . S
C381 O377 1.253 . S
C381 O382 1.227 . S
O382 C381 1.227 . S
N383 Co369 2.140 1_545 S
N383 C386 1.346 . S
N383 C387 1.345 . S
C384 C385 1.387 . S
C384 C388 1.391 . S
C385 C384 1.387 . S
C385 C386 1.369 . S
C385 H394 0.929 . S
C386 N383 1.346 . S
C386 C385 1.369 . S
C386 H389 0.928 . S
C387 N383 1.345 . S
C387 C388 1.371 . S
C387 H390 0.931 1_545 S
C388 C384 1.391 . S
C388 C387 1.371 . S
C388 H395 0.930 . S
H389 C386 0.928 . S
H390 C387 0.931 1_565 S
H391 C367 0.930 1_545 S
H392 C364 0.930 . S
H393 C373 0.930 . S
H394 C385 0.929 . S
H395 C388 0.930 . S
C396 C397 1.387 . S
C396 H400 0.950 . S
C396 C405 1.390 . S
C397 C396 1.387 . S
C397 C399 1.387 . S
H398 C405 0.950 . S
C399 C397 1.387 . S
C399 C401 1.390 . S
C399 H403 0.950 . S
H400 C396 0.950 . S
C401 C399 1.390 . S
C401 C402 1.387 . S
C401 H404 0.950 . S
C402 C401 1.387 . S
C402 C405 1.387 . S
H403 C399 0.950 . S
H404 C401 0.950 . S
C405 C396 1.390 . S
C405 H398 0.950 . S
C405 C402 1.387 . S
C406 C407 1.387 . S
C406 H410 0.950 . S
C406 C415 1.390 . S
C407 C406 1.387 . S
C407 C409 1.387 . S
H408 C415 0.950 . S
C409 C407 1.387 . S
C409 C411 1.390 . S
C409 H413 0.950 . S
H410 C406 0.950 . S
C411 C409 1.390 . S
C411 C412 1.387 . S
C411 H414 0.950 . S
C412 C411 1.387 . S
C412 C415 1.387 . S
H413 C409 0.950 . S
H414 C411 0.950 . S
C415 C406 1.390 . S
C415 H408 0.950 . S
C415 C412 1.387 . S
C416 C417 1.387 . S
C416 H420 0.950 . S
C416 C425 1.390 . S
C417 C416 1.387 . S
C417 C419 1.387 . S
H418 C425 0.950 . S
C419 C417 1.387 . S
C419 C421 1.390 . S
C419 H423 0.950 . S
H420 C416 0.950 . S
C421 C419 1.390 . S
C421 C422 1.387 . S
C421 H424 0.950 . S
C422 C421 1.387 . S
C422 C425 1.387 . S
H423 C419 0.950 . S
H424 C421 0.950 . S
C425 C416 1.390 . S
C425 H418 0.950 . S
C425 C422 1.387 . S
C426 C427 1.387 . S
C426 H430 0.950 . S
C426 C435 1.390 . S
C427 C426 1.387 . S
C427 C429 1.387 . S
H428 C435 0.950 . S
C429 C427 1.387 . S
C429 C431 1.390 . S
C429 H433 0.950 . S
H430 C426 0.950 . S
C431 C429 1.390 . S
C431 C432 1.387 . S
C431 H434 0.950 . S
C432 C431 1.387 . S
C432 C435 1.387 . S
H433 C429 0.950 . S
H434 C431 0.950 . S
C435 C426 1.390 . S
C435 H428 0.950 . S
C435 C432 1.387 . S
C436 C437 1.387 1_556 S
C436 H440 0.950 . S
C436 C445 1.390 . S
C437 C436 1.387 1_554 S
C437 C439 1.387 . S
H438 C445 0.950 . S
C439 C437 1.387 . S
C439 C441 1.390 . S
C439 H443 0.950 . S
H440 C436 0.950 . S
C441 C439 1.390 . S
C441 C442 1.387 . S
C441 H444 0.950 . S
C442 C441 1.387 . S
C442 C445 1.387 1_554 S
H443 C439 0.950 . S
H444 C441 0.950 . S
C445 C436 1.390 . S
C445 H438 0.950 . S
C445 C442 1.387 1_556 S
C446 C447 1.387 . S
C446 H450 0.950 . S
C446 C455 1.390 . S
C447 C446 1.387 . S
C447 C449 1.387 . S
H448 C455 0.950 . S
C449 C447 1.387 . S
C449 C451 1.390 . S
C449 H453 0.950 . S
H450 C446 0.950 . S
C451 C449 1.390 . S
C451 C452 1.387 . S
C451 H454 0.950 . S
C452 C451 1.387 . S
C452 C455 1.387 . S
H453 C449 0.950 . S
H454 C451 0.950 . S
C455 C446 1.390 . S
C455 H448 0.950 . S
C455 C452 1.387 . S
C456 C457 1.387 . S
C456 H460 0.950 . S
C456 C465 1.390 . S
C457 C456 1.387 . S
C457 C459 1.387 . S
H458 C465 0.950 . S
C459 C457 1.387 . S
C459 C461 1.390 . S
C459 H463 0.950 . S
H460 C456 0.950 . S
C461 C459 1.390 . S
C461 C462 1.387 . S
C461 H464 0.950 . S
C462 C461 1.387 . S
C462 C465 1.387 . S
H463 C459 0.950 . S
H464 C461 0.950 . S
C465 C456 1.390 . S
C465 H458 0.950 . S
C465 C462 1.387 . S
C466 C467 1.387 . S
C466 H470 0.950 . S
C466 C475 1.390 . S
C467 C466 1.387 . S
C467 C469 1.387 . S
H468 C475 0.950 . S
C469 C467 1.387 . S
C469 C471 1.390 . S
C469 H473 0.950 . S
H470 C466 0.950 . S
C471 C469 1.390 . S
C471 C472 1.387 . S
C471 H474 0.950 . S
C472 C471 1.387 . S
C472 C475 1.387 . S
H473 C469 0.950 . S
H474 C471 0.950 . S
C475 C466 1.390 . S
C475 H468 0.950 . S
C475 C472 1.387 . S
C476 C477 1.387 . S
C476 H480 0.950 . S
C476 C485 1.390 . S
C477 C476 1.387 . S
C477 C479 1.387 . S
H478 C485 0.950 . S
C479 C477 1.387 . S
C479 C481 1.390 . S
C479 H483 0.950 . S
H480 C476 0.950 . S
C481 C479 1.390 . S
C481 C482 1.387 . S
C481 H484 0.950 . S
C482 C481 1.387 . S
C482 C485 1.387 . S
H483 C479 0.950 . S
H484 C481 0.950 . S
C485 C476 1.390 . S
C485 H478 0.950 . S
C485 C482 1.387 . S
C486 C487 1.387 . S
C486 H490 0.950 . S
C486 C495 1.390 . S
C487 C486 1.387 . S
C487 C489 1.387 1_556 S
H488 C495 0.950 . S
C489 C487 1.387 1_554 S
C489 C491 1.390 . S
C489 H493 0.950 . S
H490 C486 0.950 . S
C491 C489 1.390 . S
C491 C492 1.387 1_554 S
C491 H494 0.950 . S
C492 C491 1.387 1_556 S
C492 C495 1.387 . S
H493 C489 0.950 . S
H494 C491 0.950 . S
C495 C486 1.390 . S
C495 H488 0.950 . S
C495 C492 1.387 . S
C496 C497 1.387 . S
C496 H500 0.950 . S
C496 C505 1.390 . S
C497 C496 1.387 . S
C497 C499 1.387 . S
H498 C505 0.950 . S
C499 C497 1.387 . S
C499 C501 1.390 . S
C499 H503 0.950 . S
H500 C496 0.950 . S
C501 C499 1.390 . S
C501 C502 1.387 . S
C501 H504 0.950 . S
C502 C501 1.387 . S
C502 C505 1.387 . S
H503 C499 0.950 . S
H504 C501 0.950 . S
C505 C496 1.390 . S
C505 H498 0.950 . S
C505 C502 1.387 . S
C506 C507 1.387 . S
C506 H510 0.950 . S
C506 C515 1.390 . S
C507 C506 1.387 . S
C507 C509 1.387 . S
H508 C515 0.950 . S
C509 C507 1.387 . S
C509 C511 1.390 . S
C509 H513 0.950 . S
H510 C506 0.950 . S
C511 C509 1.390 . S
C511 C512 1.387 . S
C511 H514 0.950 . S
C512 C511 1.387 . S
C512 C515 1.387 . S
H513 C509 0.950 . S
H514 C511 0.950 . S
C515 C506 1.390 . S
C515 H508 0.950 . S
C515 C512 1.387 . S
C516 C517 1.387 . S
C516 H520 0.950 . S
C516 C525 1.390 . S
C517 C516 1.387 . S
C517 C519 1.387 . S
H518 C525 0.950 . S
C519 C517 1.387 . S
C519 C521 1.390 . S
C519 H523 0.950 . S
H520 C516 0.950 . S
C521 C519 1.390 . S
C521 C522 1.387 . S
C521 H524 0.950 . S
C522 C521 1.387 . S
C522 C525 1.387 . S
H523 C519 0.950 . S
H524 C521 0.950 . S
C525 C516 1.390 . S
C525 H518 0.950 . S
C525 C522 1.387 . S
C526 C527 1.387 . S
C526 H530 0.950 . S
C526 C535 1.390 . S
C527 C526 1.387 . S
C527 C529 1.387 1_455 S
H528 C535 0.950 . S
C529 C527 1.387 1_655 S
C529 C531 1.390 . S
C529 H533 0.950 . S
H530 C526 0.950 . S
C531 C529 1.390 . S
C531 C532 1.387 1_655 S
C531 H534 0.950 . S
C532 C531 1.387 1_455 S
C532 C535 1.387 . S
H533 C529 0.950 . S
H534 C531 0.950 . S
C535 C526 1.390 . S
C535 H528 0.950 . S
C535 C532 1.387 . S
C536 C537 1.387 . S
C536 H540 0.950 . S
C536 C545 1.390 . S
C537 C536 1.387 . S
C537 C539 1.387 1_545 S
H538 C545 0.950 . S
C539 C537 1.387 1_565 S
C539 C541 1.390 . S
C539 H543 0.950 . S
H540 C536 0.950 . S
C541 C539 1.390 . S
C541 C542 1.387 1_565 S
C541 H544 0.950 . S
C542 C541 1.387 1_545 S
C542 C545 1.387 . S
H543 C539 0.950 . S
H544 C541 0.950 . S
C545 C536 1.390 . S
C545 H538 0.950 . S
C545 C542 1.387 . S
C546 C547 1.387 . S
C546 H550 0.950 . S
C546 C555 1.390 . S
C547 C546 1.387 . S
C547 C549 1.387 . S
H548 C555 0.950 . S
C549 C547 1.387 . S
C549 C551 1.390 . S
C549 H553 0.950 . S
H550 C546 0.950 . S
C551 C549 1.390 . S
C551 C552 1.387 . S
C551 H554 0.950 . S
C552 C551 1.387 . S
C552 C555 1.387 . S
H553 C549 0.950 . S
H554 C551 0.950 . S
C555 C546 1.390 . S
C555 H548 0.950 . S
C555 C552 1.387 . S
C556 C557 1.387 . S
C556 H560 0.950 . S
C556 C565 1.390 . S
C557 C556 1.387 . S
C557 C559 1.387 1_655 S
H558 C565 0.950 . S
C559 C557 1.387 1_455 S
C559 C561 1.390 . S
C559 H563 0.950 . S
H560 C556 0.950 . S
C561 C559 1.390 . S
C561 C562 1.387 1_455 S
C561 H564 0.950 . S
C562 C561 1.387 1_655 S
C562 C565 1.387 . S
H563 C559 0.950 . S
H564 C561 0.950 . S
C565 C556 1.390 . S
C565 H558 0.950 . S
C565 C562 1.387 . S
C566 C567 1.387 1_545 S
C566 H570 0.950 . S
C566 C575 1.390 . S
C567 C566 1.387 1_565 S
C567 C569 1.387 . S
H568 C575 0.950 . S
C569 C567 1.387 . S
C569 C571 1.390 . S
C569 H573 0.950 . S
H570 C566 0.950 . S
C571 C569 1.390 . S
C571 C572 1.387 . S
C571 H574 0.950 . S
C572 C571 1.387 . S
C572 C575 1.387 1_565 S
H573 C569 0.950 . S
H574 C571 0.950 . S
C575 C566 1.390 . S
C575 H568 0.950 . S
C575 C572 1.387 1_545 S
C576 C577 1.387 . S
C576 H580 0.950 . S
C576 C585 1.390 . S
C577 C576 1.387 . S
C577 C579 1.387 . S
H578 C585 0.950 . S
C579 C577 1.387 . S
C579 C581 1.390 . S
C579 H583 0.950 . S
H580 C576 0.950 . S
C581 C579 1.390 . S
C581 C582 1.387 . S
C581 H584 0.950 . S
C582 C581 1.387 . S
C582 C585 1.387 . S
H583 C579 0.950 . S
H584 C581 0.950 . S
C585 C576 1.390 . S
C585 H578 0.950 . S
C585 C582 1.387 . S
C586 C587 1.387 . S
C586 H590 0.950 1_455 S
C586 C595 1.390 . S
C587 C586 1.387 . S
C587 C589 1.387 . S
H588 C595 0.950 1_655 S
C589 C587 1.387 . S
C589 C591 1.390 . S
C589 H593 0.950 . S
H590 C586 0.950 1_655 S
C591 C589 1.390 . S
C591 C592 1.387 . S
C591 H594 0.950 . S
C592 C591 1.387 . S
C592 C595 1.387 . S
H593 C589 0.950 . S
H594 C591 0.950 . S
C595 C586 1.390 . S
C595 H588 0.950 1_455 S
C595 C592 1.387 . S
C596 C597 1.387 1_565 S
C596 H600 0.950 . S
C596 C605 1.390 . S
C597 C596 1.387 1_545 S
C597 C599 1.387 . S
H598 C605 0.950 . S
C599 C597 1.387 . S
C599 C601 1.390 . S
C599 H603 0.950 . S
H600 C596 0.950 . S
C601 C599 1.390 . S
C601 C602 1.387 . S
C601 H604 0.950 . S
C602 C601 1.387 . S
C602 C605 1.387 1_545 S
H603 C599 0.950 . S
H604 C601 0.950 . S
C605 C596 1.390 . S
C605 H598 0.950 . S
C605 C602 1.387 1_565 S
C606 C607 1.387 . S
C606 H610 0.950 . S
C606 C615 1.390 . S
C607 C606 1.387 . S
C607 C609 1.387 . S
H608 C615 0.950 . S
C609 C607 1.387 . S
C609 C611 1.390 . S
C609 H613 0.950 . S
H610 C606 0.950 . S
C611 C609 1.390 . S
C611 C612 1.387 . S
C611 H614 0.950 . S
C612 C611 1.387 . S
C612 C615 1.387 . S
H613 C609 0.950 . S
H614 C611 0.950 . S
C615 C606 1.390 . S
C615 H608 0.950 . S
C615 C612 1.387 . S
C616 C617 1.387 . S
C616 H620 0.950 1_655 S
C616 C625 1.390 . S
C617 C616 1.387 . S
C617 C619 1.387 . S
H618 C625 0.949 . S
C619 C617 1.387 . S
C619 C621 1.390 . S
C619 H623 0.950 . S
H620 C616 0.950 1_455 S
C621 C619 1.390 . S
C621 C622 1.387 . S
C621 H624 0.950 . S
C622 C621 1.387 . S
C622 C625 1.387 . S
H623 C619 0.950 . S
H624 C621 0.950 . S
C625 C616 1.390 . S
C625 H618 0.949 . S
C625 C622 1.387 . S
C626 C627 1.387 . S
C626 H630 0.950 . S
C626 C635 1.390 . S
C627 C626 1.387 . S
C627 C629 1.387 1_565 S
H628 C635 0.950 . S
C629 C627 1.387 1_545 S
C629 C631 1.390 . S
C629 H633 0.950 . S
H630 C626 0.950 . S
C631 C629 1.390 . S
C631 C632 1.387 1_545 S
C631 H634 0.950 . S
C632 C631 1.387 1_565 S
C632 C635 1.387 . S
H633 C629 0.950 . S
H634 C631 0.950 . S
C635 C626 1.390 . S
C635 H628 0.950 . S
C635 C632 1.387 . S
C636 C637 1.387 . S
C636 H640 0.950 . S
C636 C645 1.390 . S
C637 C636 1.387 . S
C637 C639 1.387 . S
H638 C645 0.950 . S
C639 C637 1.387 . S
C639 C641 1.390 . S
C639 H643 0.950 . S
H640 C636 0.950 . S
C641 C639 1.390 . S
C641 C642 1.387 . S
C641 H644 0.950 . S
C642 C641 1.387 . S
C642 C645 1.387 . S
H643 C639 0.950 . S
H644 C641 0.950 . S
C645 C636 1.390 . S
C645 H638 0.950 . S
C645 C642 1.387 . S
C646 C647 1.387 1_655 S
C646 H650 0.950 . S
C646 C655 1.390 . S
C647 C646 1.387 1_455 S
C647 C649 1.387 . S
H648 C655 0.950 . S
C649 C647 1.387 . S
C649 C651 1.390 . S
C649 H653 0.950 . S
H650 C646 0.950 . S
C651 C649 1.390 . S
C651 C652 1.387 . S
C651 H654 0.950 . S
C652 C651 1.387 . S
C652 C655 1.387 1_455 S
H653 C649 0.950 . S
H654 C651 0.950 . S
C655 C646 1.390 . S
C655 H648 0.950 . S
C655 C652 1.387 1_655 S
C656 C657 1.387 . S
C656 H660 0.950 . S
C656 C665 1.390 . S
C657 C656 1.387 . S
C657 C659 1.387 1_545 S
H658 C665 0.950 . S
C659 C657 1.387 1_565 S
C659 C661 1.390 1_565 S
C659 H663 0.950 . S
H660 C656 0.950 . S
C661 C659 1.390 1_545 S
C661 C662 1.387 . S
C661 H664 0.950 1_545 S
C662 C661 1.387 . S
C662 C665 1.387 . S
H663 C659 0.950 . S
H664 C661 0.950 1_565 S
C665 C656 1.390 . S
C665 H658 0.950 . S
C665 C662 1.387 . S
C666 C667 1.387 . S
C666 H670 0.950 . S
C666 C675 1.390 . S
C667 C666 1.387 . S
C667 C669 1.387 . S
H668 C675 0.950 . S
C669 C667 1.387 . S
C669 C671 1.390 . S
C669 H673 0.950 . S
H670 C666 0.950 . S
C671 C669 1.390 . S
C671 C672 1.387 . S
C671 H674 0.950 . S
C672 C671 1.387 . S
C672 C675 1.387 . S
H673 C669 0.950 . S
H674 C671 0.950 . S
C675 C666 1.390 . S
C675 H668 0.950 . S
C675 C672 1.387 . S
C676 C677 1.387 . S
C676 H680 0.950 1_655 S
C676 C685 1.390 . S
C677 C676 1.387 . S
C677 C679 1.387 . S
H678 C685 0.950 1_455 S
C679 C677 1.387 . S
C679 C681 1.390 . S
C679 H683 0.950 . S
H680 C676 0.950 1_455 S
C681 C679 1.390 . S
C681 C682 1.387 . S
C681 H684 0.950 . S
C682 C681 1.387 . S
C682 C685 1.387 . S
H683 C679 0.950 . S
H684 C681 0.950 . S
C685 C676 1.390 . S
C685 H678 0.950 1_655 S
C685 C682 1.387 . S
C686 C687 1.387 1_545 S
C686 H690 0.950 . S
C686 C695 1.390 . S
C687 C686 1.387 1_565 S
C687 C689 1.387 . S
H688 C695 0.950 . S
C689 C687 1.387 . S
C689 C691 1.390 . S
C689 H693 0.950 . S
H690 C686 0.950 . S
C691 C689 1.390 . S
C691 C692 1.387 . S
C691 H694 0.950 . S
C692 C691 1.387 . S
C692 C695 1.387 1_565 S
H693 C689 0.950 . S
H694 C691 0.950 . S
C695 C686 1.390 . S
C695 H688 0.950 . S
C695 C692 1.387 1_545 S
C397 C18 1.901 . S
C402 C370 1.817 . S
C407 C51 1.900 . S
C412 C205 1.817 . S
C417 C238 1.817 . S
C422 C84 1.900 . S
C427 C271 1.815 . S
C432 C117 1.899 . S
C437 C150 1.901 . S
C442 C304 1.817 1_554 S
C447 C183 1.900 . S
C452 C337 1.817 . S
C457 C40 1.815 . S
C462 C216 1.899 . S
C467 C249 1.899 . S
C472 C73 1.816 . S
C477 C106 1.817 . S
C482 C282 1.901 . S
C487 C315 1.899 . S
C492 C139 1.816 . S
C497 C348 1.900 . S
C502 C172 1.817 . S
C507 C7 1.817 . S
C512 C381 1.901 . S
C517 N200 0.569 . S
C522 N2 0.566 . S
C527 N35 0.563 . S
C532 N233 0.569 . S
C537 N68 0.566 . S
C542 N266 0.566 . S
C547 N101 0.565 . S
C552 N299 0.569 . S
C557 N332 0.567 . S
C562 N134 0.564 . S
C567 N365 0.568 . S
C572 N167 0.568 . S
C577 C186 1.304 . S
C582 N13 1.350 . S
C587 C21 1.309 . S
C592 N46 1.352 . S
C597 N79 1.352 . S
C602 C54 1.306 . S
C607 N112 1.352 . S
C612 C87 1.309 . S
C617 N145 1.352 . S
C622 C120 1.309 . S
C627 N178 1.348 . S
C632 C153 1.306 . S
C637 N211 1.348 . S
C642 C252 1.304 . S
C647 C285 1.307 . S
C652 N244 1.352 . S
C657 N277 1.348 . S
C662 C318 1.304 . S
C667 N310 1.352 . S
C672 C351 1.308 . S
C677 N343 1.351 . S
C682 C384 1.305 . S
C687 N376 1.352 . S
C692 C219 1.306 . S
