# Generated by pormake.
# Topology thp-x, (12)-cn, num edge types: 1
# Building blocks:
#     Node 0, Type 0, BuildingBlock: ENOWUB_clean_sbu_0, # of connection points: 12
#     Node 1, Type 0, BuildingBlock: ENOWUB_clean_sbu_0, # of connection points: 12
#     Node 2, Type 0, BuildingBlock: ENOWUB_clean_sbu_0, # of connection points: 12
#     Node 3, Type 0, BuildingBlock: ENOWUB_clean_sbu_0, # of connection points: 12
#     Node 4, Type 0, BuildingBlock: ENOWUB_clean_sbu_0, # of connection points: 12
#     Node 5, Type 0, BuildingBlock: ENOWUB_clean_sbu_0, # of connection points: 12
#     Node 6, Type 0, BuildingBlock: ENOWUB_clean_sbu_0, # of connection points: 12
#     Node 7, Type 0, BuildingBlock: ENOWUB_clean_sbu_0, # of connection points: 12
#     Node 8, Type 0, BuildingBlock: ENOWUB_clean_sbu_0, # of connection points: 12
#     Node 9, Type 0, BuildingBlock: ENOWUB_clean_sbu_0, # of connection points: 12
#     Node 10, Type 0, BuildingBlock: ENOWUB_clean_sbu_0, # of connection points: 12
#     Node 11, Type 0, BuildingBlock: ENOWUB_clean_sbu_0, # of connection points: 12
#     Edge 12, Type (0, 0), BuildingBlock: OJICUG_clean_linker_0, # of connection points: 2
#     Edge 13, Type (0, 0), BuildingBlock: OJICUG_clean_linker_0, # of connection points: 2
#     Edge 14, Type (0, 0), BuildingBlock: OJICUG_clean_linker_0, # of connection points: 2
#     Edge 15, Type (0, 0), BuildingBlock: OJICUG_clean_linker_0, # of connection points: 2
#     Edge 16, Type (0, 0), BuildingBlock: OJICUG_clean_linker_0, # of connection points: 2
#     Edge 17, Type (0, 0), BuildingBlock: OJICUG_clean_linker_0, # of connection points: 2
#     Edge 18, Type (0, 0), BuildingBlock: OJICUG_clean_linker_0, # of connection points: 2
#     Edge 19, Type (0, 0), BuildingBlock: OJICUG_clean_linker_0, # of connection points: 2
#     Edge 20, Type (0, 0), BuildingBlock: OJICUG_clean_linker_0, # of connection points: 2
#     Edge 21, Type (0, 0), BuildingBlock: OJICUG_clean_linker_0, # of connection points: 2
#     Edge 22, Type (0, 0), BuildingBlock: OJICUG_clean_linker_0, # of connection points: 2
#     Edge 23, Type (0, 0), BuildingBlock: OJICUG_clean_linker_0, # of connection points: 2
#     Edge 24, Type (0, 0), BuildingBlock: OJICUG_clean_linker_0, # of connection points: 2
#     Edge 25, Type (0, 0), BuildingBlock: OJICUG_clean_linker_0, # of connection points: 2
#     Edge 26, Type (0, 0), BuildingBlock: OJICUG_clean_linker_0, # of connection points: 2
#     Edge 27, Type (0, 0), BuildingBlock: OJICUG_clean_linker_0, # of connection points: 2
#     Edge 28, Type (0, 0), BuildingBlock: OJICUG_clean_linker_0, # of connection points: 2
#     Edge 29, Type (0, 0), BuildingBlock: OJICUG_clean_linker_0, # of connection points: 2
#     Edge 30, Type (0, 0), BuildingBlock: OJICUG_clean_linker_0, # of connection points: 2
#     Edge 31, Type (0, 0), BuildingBlock: OJICUG_clean_linker_0, # of connection points: 2
#     Edge 32, Type (0, 0), BuildingBlock: OJICUG_clean_linker_0, # of connection points: 2
#     Edge 33, Type (0, 0), BuildingBlock: OJICUG_clean_linker_0, # of connection points: 2
#     Edge 34, Type (0, 0), BuildingBlock: OJICUG_clean_linker_0, # of connection points: 2
#     Edge 35, Type (0, 0), BuildingBlock: OJICUG_clean_linker_0, # of connection points: 2
#     Edge 36, Type (0, 0), BuildingBlock: OJICUG_clean_linker_0, # of connection points: 2
#     Edge 37, Type (0, 0), BuildingBlock: OJICUG_clean_linker_0, # of connection points: 2
#     Edge 38, Type (0, 0), BuildingBlock: OJICUG_clean_linker_0, # of connection points: 2
#     Edge 39, Type (0, 0), BuildingBlock: OJICUG_clean_linker_0, # of connection points: 2
#     Edge 40, Type (0, 0), BuildingBlock: OJICUG_clean_linker_0, # of connection points: 2
#     Edge 41, Type (0, 0), BuildingBlock: OJICUG_clean_linker_0, # of connection points: 2
#     Edge 42, Type (0, 0), BuildingBlock: OJICUG_clean_linker_0, # of connection points: 2
#     Edge 43, Type (0, 0), BuildingBlock: OJICUG_clean_linker_0, # of connection points: 2
#     Edge 44, Type (0, 0), BuildingBlock: OJICUG_clean_linker_0, # of connection points: 2
#     Edge 45, Type (0, 0), BuildingBlock: OJICUG_clean_linker_0, # of connection points: 2
#     Edge 46, Type (0, 0), BuildingBlock: OJICUG_clean_linker_0, # of connection points: 2
#     Edge 47, Type (0, 0), BuildingBlock: OJICUG_clean_linker_0, # of connection points: 2
#     Edge 48, Type (0, 0), BuildingBlock: OJICUG_clean_linker_0, # of connection points: 2
#     Edge 49, Type (0, 0), BuildingBlock: OJICUG_clean_linker_0, # of connection points: 2
#     Edge 50, Type (0, 0), BuildingBlock: OJICUG_clean_linker_0, # of connection points: 2
#     Edge 51, Type (0, 0), BuildingBlock: OJICUG_clean_linker_0, # of connection points: 2
#     Edge 52, Type (0, 0), BuildingBlock: OJICUG_clean_linker_0, # of connection points: 2
#     Edge 53, Type (0, 0), BuildingBlock: OJICUG_clean_linker_0, # of connection points: 2
#     Edge 54, Type (0, 0), BuildingBlock: OJICUG_clean_linker_0, # of connection points: 2
#     Edge 55, Type (0, 0), BuildingBlock: OJICUG_clean_linker_0, # of connection points: 2
#     Edge 56, Type (0, 0), BuildingBlock: OJICUG_clean_linker_0, # of connection points: 2
#     Edge 57, Type (0, 0), BuildingBlock: OJICUG_clean_linker_0, # of connection points: 2
#     Edge 58, Type (0, 0), BuildingBlock: OJICUG_clean_linker_0, # of connection points: 2
#     Edge 59, Type (0, 0), BuildingBlock: OJICUG_clean_linker_0, # of connection points: 2
#     Edge 60, Type (0, 0), BuildingBlock: OJICUG_clean_linker_0, # of connection points: 2
#     Edge 61, Type (0, 0), BuildingBlock: OJICUG_clean_linker_0, # of connection points: 2
#     Edge 62, Type (0, 0), BuildingBlock: OJICUG_clean_linker_0, # of connection points: 2
#     Edge 63, Type (0, 0), BuildingBlock: OJICUG_clean_linker_0, # of connection points: 2
#     Edge 64, Type (0, 0), BuildingBlock: OJICUG_clean_linker_0, # of connection points: 2
#     Edge 65, Type (0, 0), BuildingBlock: OJICUG_clean_linker_0, # of connection points: 2
#     Edge 66, Type (0, 0), BuildingBlock: OJICUG_clean_linker_0, # of connection points: 2
#     Edge 67, Type (0, 0), BuildingBlock: OJICUG_clean_linker_0, # of connection points: 2
#     Edge 68, Type (0, 0), BuildingBlock: OJICUG_clean_linker_0, # of connection points: 2
#     Edge 69, Type (0, 0), BuildingBlock: OJICUG_clean_linker_0, # of connection points: 2
#     Edge 70, Type (0, 0), BuildingBlock: OJICUG_clean_linker_0, # of connection points: 2
#     Edge 71, Type (0, 0), BuildingBlock: OJICUG_clean_linker_0, # of connection points: 2
#     Edge 72, Type (0, 0), BuildingBlock: OJICUG_clean_linker_0, # of connection points: 2
#     Edge 73, Type (0, 0), BuildingBlock: OJICUG_clean_linker_0, # of connection points: 2
#     Edge 74, Type (0, 0), BuildingBlock: OJICUG_clean_linker_0, # of connection points: 2
#     Edge 75, Type (0, 0), BuildingBlock: OJICUG_clean_linker_0, # of connection points: 2
#     Edge 76, Type (0, 0), BuildingBlock: OJICUG_clean_linker_0, # of connection points: 2
#     Edge 77, Type (0, 0), BuildingBlock: OJICUG_clean_linker_0, # of connection points: 2
#     Edge 78, Type (0, 0), BuildingBlock: OJICUG_clean_linker_0, # of connection points: 2
#     Edge 79, Type (0, 0), BuildingBlock: OJICUG_clean_linker_0, # of connection points: 2
#     Edge 80, Type (0, 0), BuildingBlock: OJICUG_clean_linker_0, # of connection points: 2
#     Edge 81, Type (0, 0), BuildingBlock: OJICUG_clean_linker_0, # of connection points: 2
#     Edge 82, Type (0, 0), BuildingBlock: OJICUG_clean_linker_0, # of connection points: 2
#     Edge 83, Type (0, 0), BuildingBlock: OJICUG_clean_linker_0, # of connection points: 2
# Relax obj value: 0.246
# Max RMSD: 0.289
# Mean RMSD: 0.289
data_MOF--net-thp-x--node1-ENOWUB_clean_sbu_0--edge1-OJICUG_clean_linker_0
_symmetry_space_group_name_H-M    P1
_symmetry_Int_Tables_number       1
_symmetry_cell_setting            triclinic
loop_
_symmetry_equiv_pos_as_xyz
'x, y, z'
_cell_length_a     27.175866
_cell_length_b     27.10745
_cell_length_c     27.20706
_cell_angle_alpha  89.826971
_cell_angle_beta   90.140943
_cell_angle_gamma 89.625164
loop_
_atom_site_label
_atom_site_type_symbol
_atom_site_fract_x
_atom_site_fract_y
_atom_site_fract_z
_atom_type_partial_charge
O0 O 0.8769 0.31851 0.29687 0.0
O1 O 0.96554 0.3374 0.33275 0.0
O2 O 0.94692 0.23771 0.43041 0.0
O3 O 0.95245 0.23899 0.33053 0.0
O4 O 0.95821 0.33376 0.43609 0.0
Zr5 Zr 0.90693 0.29497 0.37815 0.0
Zr6 Zr 0.01798 0.37516 0.39103 0.0
Zr7 Zr 1.00928 0.28216 0.28135 0.0
O8 O 0.05729 0.31796 0.43953 0.0
O9 O 0.04694 0.22361 0.33319 0.0
O10 O 0.06093 0.32408 0.33614 0.0
Zr11 Zr 0.99806 0.2777 0.48795 0.0
Zr12 Zr 0.99073 0.18132 0.38318 0.0
Zr13 Zr 0.09856 0.26507 0.38516 0.0
O14 O 0.04304 0.22401 0.43583 0.0
O15 O 0.15078 0.27003 0.45047 0.0
O16 O 0.14155 0.24651 0.31033 0.0
O17 O 0.84794 0.30369 0.4378 0.0
O18 O 0.9745 0.19862 0.52322 0.0
O19 O 0.02534 0.38027 0.261 0.0
O20 O 1.01494 0.18258 0.25666 0.0
O21 O 1.00656 0.35487 0.5282 0.0
O22 O 0.10309 0.39549 0.39027 0.0
O23 O 0.9096 0.18103 0.3479 0.0
O24 O 0.06588 0.13249 0.37344 0.0
O25 O 0.95113 0.43362 0.38344 0.0
O26 O 0.09685 0.28209 0.51457 0.0
O27 O 0.93452 0.30989 0.24033 0.0
O28 O 0.08804 0.26853 0.24897 0.0
O29 O 0.89782 0.28676 0.50506 0.0
O30 O 0.91612 0.37316 0.42035 0.0
O31 O 0.11352 0.1831 0.41489 0.0
O32 O 0.15639 0.33133 0.38222 0.0
O33 O 0.85407 0.22389 0.38648 0.0
C34 C 0.89313 0.29662 0.25828 0.0
O35 O 0.02252 0.41439 0.4704 0.0
O36 O 0.03602 0.42959 0.32912 0.0
C37 C 0.14299 0.27774 0.49553 0.0
C38 C 0.12995 0.25326 0.26507 0.0
C39 C 0.85324 0.2962 0.48359 0.0
C40 C 0.98728 0.1587 0.50121 0.0
C41 C 0.0343 0.42426 0.28307 0.0
C42 C 1.00481 0.13634 0.27375 0.0
C43 C 0.01729 0.39912 0.51481 0.0
C44 C 0.14653 0.37738 0.38535 0.0
C45 C 0.87252 0.18185 0.37596 0.0
C46 C 0.10904 0.14648 0.38646 0.0
C47 C 0.91142 0.41397 0.3979 0.0
O48 O 0.98797 0.12891 0.31668 0.0
O49 O 0.9657 0.14673 0.46134 0.0
O50 O 0.38224 0.74735 0.83155 0.0
O51 O 0.48895 0.7965 0.84361 0.0
O52 O 0.48628 0.70383 0.94914 0.0
O53 O 0.47886 0.70179 0.84551 0.0
O54 O 0.49619 0.80102 0.94588 0.0
Zr55 Zr 0.43756 0.75733 0.89981 0.0
Zr56 Zr 0.54529 0.84265 0.88853 0.0
Zr57 Zr 0.52865 0.74305 0.78702 0.0
O58 O 0.59169 0.79143 0.9394 0.0
O59 O 0.57688 0.69112 0.83978 0.0
O60 O 0.58574 0.78767 0.83575 0.0
Zr61 Zr 0.54327 0.74851 0.99839 0.0
Zr62 Zr 0.52513 0.64733 0.89467 0.0
Zr63 Zr 0.63382 0.73571 0.88744 0.0
O64 O 0.58259 0.69387 0.94278 0.0
O65 O 0.69084 0.73108 0.95058 0.0
O66 O 0.6771 0.7357 0.80916 0.0
O67 O 0.40973 0.79388 0.97308 0.0
O68 O 0.51635 0.66673 0.98113 0.0
O69 O 0.53532 0.83906 0.75455 0.0
O70 O 0.52028 0.64528 0.76268 0.0
O71 O 0.57497 0.8315 1.00858 0.0
O72 O 0.62664 0.84415 0.85376 0.0
O73 O 0.43784 0.64865 0.87869 0.0
O74 O 0.59382 0.59294 0.88419 0.0
O75 O 0.47397 0.89392 0.88633 0.0
O76 O 0.64145 0.73877 0.01977 0.0
O77 O 0.44585 0.77631 0.79508 0.0
O78 O 0.60945 0.70592 0.78128 0.0
O79 O 0.44784 0.74748 0.02955 0.0
O80 O 0.4099 0.84032 0.89144 0.0
O81 O 0.62398 0.65427 0.92353 0.0
O82 O 0.68042 0.80966 0.90182 0.0
O83 O 0.38848 0.68871 0.9264 0.0
C84 C 0.40765 0.75005 0.79251 0.0
O85 O 0.55474 0.89326 0.96101 0.0
O86 O 0.54169 0.89381 0.81942 0.0
C87 C 0.68577 0.73493 0.99685 0.0
C88 C 0.64775 0.73061 0.77286 0.0
C89 C 0.40608 0.76655 1.01036 0.0
C90 C 0.53002 0.62498 0.99653 0.0
C91 C 0.53803 0.88546 0.77355 0.0
C92 C 0.51336 0.60056 0.78417 0.0
C93 C 0.54995 0.87081 1.00211 0.0
C94 C 0.66317 0.84871 0.88213 0.0
C95 C 0.40735 0.64763 0.9137 0.0
C96 C 0.63174 0.61508 0.8995 0.0
C97 C 0.42823 0.88371 0.88863 0.0
O98 O 0.50916 0.59475 0.83011 0.0
O99 O 0.53151 0.59215 0.96403 0.0
O100 O 0.06719 0.65079 0.04892 0.0
O101 O 0.08392 0.6919 0.10286 0.0
O102 O 1.00122 0.80103 0.08259 0.0
O103 O 0.98643 0.70884 0.09868 0.0
O104 O 0.09754 0.78574 0.08693 0.0
Zr105 Zr 0.0444 0.73702 0.04008 0.0
Zr106 Zr 0.14009 0.74049 0.14644 0.0
Zr107 Zr 0.02593 0.66185 0.15846 0.0
O108 O 0.10244 0.80853 0.18249 0.0
O109 O 0.99098 0.72684 0.20342 0.0
O110 O 0.08437 0.70954 0.20292 0.0
Zr111 Zr 0.05741 0.85196 0.12222 0.0
Zr112 Zr 0.94847 0.77062 0.14544 0.0
Zr113 Zr 0.04916 0.77843 0.24333 0.0
O114 O 1.00604 0.82081 0.18294 0.0
O115 O 0.04122 0.87916 0.24755 0.0
O116 O 0.05551 0.68379 0.27539 0.0
O117 O 0.05738 0.80503 0.98495 0.0
O118 O 0.97861 0.87209 0.15803 0.0
O119 O 0.0945 0.61212 0.18147 0.0
O120 O 0.94391 0.62838 0.15645 0.0
O121 O 0.13822 0.87064 0.09123 0.0
O122 O 0.19006 0.76387 0.21631 0.0
O123 O 0.89699 0.76371 0.07718 0.0
O124 O 0.91296 0.78483 0.22651 0.0
O125 O 0.18087 0.69974 0.08176 0.0
O126 O 0.0658 0.91948 0.17682 0.0
O127 O 0.01805 0.60383 0.09134 0.0
O128 O 0.99069 0.65614 0.23691 0.0
O129 O 0.02601 0.85735 0.03922 0.0
O130 O 0.14298 0.73981 0.01968 0.0
O131 O 0.97345 0.78504 0.28581 0.0
O132 O 0.1333 0.80404 0.25778 0.0
O133 O 0.9471 0.73168 0.0164 0.0
C134 C 0.03451 0.61761 0.04953 0.0
O135 O 0.18727 0.8035 0.10583 0.0
O136 O 0.16336 0.65958 0.17587 0.0
C137 C 0.05064 0.92085 0.22149 0.0
C138 C 0.02498 0.64656 0.26628 0.0
C139 C 0.05313 0.84891 1.00202 0.0
C140 C 0.9392 0.87924 0.13397 0.0
C141 C 0.14131 0.61794 0.18088 0.0
C142 C 0.90293 0.65205 0.15306 0.0
C143 C 0.1796 0.84704 0.08817 0.0
C144 C 0.16878 0.77311 0.25724 0.0
C145 C 0.90264 0.74441 0.03509 0.0
C146 C 0.92838 0.7871 0.27136 0.0
C147 C 0.18431 0.72178 0.04089 0.0
O148 O 0.89898 0.69903 0.151 0.0
O149 O 0.90628 0.84681 0.13823 0.0
O150 O 0.24556 0.03632 0.13048 0.0
O151 O 0.32248 0.06986 0.1842 0.0
O152 O 0.31087 0.97458 0.28137 0.0
O153 O 0.31658 0.97373 0.18433 0.0
O154 O 0.31445 0.06785 0.28589 0.0
Zr155 Zr 0.26272 0.02639 0.22969 0.0
Zr156 Zr 0.36894 0.11481 0.24028 0.0
Zr157 Zr 0.377 1.01613 0.13978 0.0
O158 O 0.41752 0.06571 0.29335 0.0
O159 O 0.41794 0.96591 0.19459 0.0
O160 O 0.4234 0.06381 0.19529 0.0
Zr161 Zr 0.36417 1.01669 0.33608 0.0
Zr162 Zr 0.35889 0.9197 0.23668 0.0
Zr163 Zr 0.46887 1.01213 0.24757 0.0
O164 O 0.41176 0.96394 0.2895 0.0
O165 O 0.50533 0.01757 0.32509 0.0
O166 O 0.50498 0.97768 0.17399 0.0
O167 O 0.23245 0.03485 0.32609 0.0
O168 O 0.34558 0.94387 0.38163 0.0
O169 O 0.38868 0.08856 0.091 0.0
O170 O 0.35328 0.93801 0.1065 0.0
O171 O 0.362 0.09453 0.3757 0.0
O172 O 0.43218 0.169 0.24402 0.0
O173 O 0.27424 0.893 0.24979 0.0
O174 O 0.42129 0.86172 0.24648 0.0
O175 O 0.29415 0.16528 0.23757 0.0
O176 O 0.44303 0.99896 0.37799 0.0
O177 O 0.31455 0.02563 0.08231 0.0
O178 O 0.45813 0.99115 0.10954 0.0
O179 O 0.2945 0.02371 0.38357 0.0
O180 O 0.24829 0.10949 0.20226 0.0
O181 O 0.48754 0.9137 0.26001 0.0
O182 O 0.49473 0.111 0.25154 0.0
O183 O 0.21724 0.95026 0.23823 0.0
C184 C 0.26878 0.03387 0.08641 0.0
O185 O 0.37128 0.15569 0.31936 0.0
O186 O 0.41334 0.10985 0.16279 0.0
C187 C 0.48897 1.00489 0.36716 0.0
C188 C 0.49739 1.00069 0.13394 0.0
C189 C 0.24979 0.03164 0.37305 0.0
C190 C 0.35437 0.90648 0.35519 0.0
C191 C 0.39725 0.12319 0.12092 0.0
C192 C 0.37673 0.89818 0.11546 0.0
C193 C 0.36514 0.14005 0.36354 0.0
C194 C 0.47722 0.15827 0.24933 0.0
C195 C 0.23902 0.91087 0.2237 0.0
C196 C 0.46658 0.86852 0.25659 0.0
C197 C 0.25204 0.14483 0.23224 0.0
O198 O 0.38147 0.88136 0.15938 0.0
O199 O 0.38505 0.91208 0.32079 0.0
O200 O 0.16248 0.25829 0.03073 0.0
O201 O 0.21417 0.33632 0.0767 0.0
O202 O 0.31596 0.32896 0.98385 0.0
O203 O 0.21847 0.33474 0.97883 0.0
O204 O 0.31274 0.33027 0.07924 0.0
Zr205 Zr 0.26142 0.2792 0.03078 0.0
Zr206 Zr 0.26506 0.38477 0.12656 0.0
Zr207 Zr 0.16904 0.38985 0.02422 0.0
O208 O 0.31761 0.43527 0.07963 0.0
O209 O 0.22398 0.43472 0.97619 0.0
O210 O 0.22132 0.43783 0.07358 0.0
Zr211 Zr 0.3646 0.3816 0.03383 0.0
Zr212 Zr 0.27313 0.37955 0.92976 0.0
Zr213 Zr 0.27353 0.48688 0.02452 0.0
O214 O 0.32073 0.43137 0.97946 0.0
O215 O 0.35315 0.52092 0.03072 0.0
O216 O 0.19452 0.5147 0.99427 0.0
O217 O 0.35784 0.24943 0.03838 0.0
O218 O 0.41809 0.376 0.96426 0.0
O219 O 0.12213 0.38003 0.0989 0.0
O220 O 0.16577 0.35612 0.94251 0.0
O221 O 0.38218 0.35125 0.11524 0.0
O222 O 0.25995 0.45015 0.17859 0.0
O223 O 0.29387 0.29419 0.91204 0.0
O224 O 0.2826 0.44186 0.8728 0.0
O225 O 0.27067 0.31174 0.17604 0.0
O226 O 0.40919 0.45822 0.04231 0.0
O227 O 0.11206 0.32655 0.01884 0.0
O228 O 0.13071 0.47089 0.01655 0.0
O229 O 0.4137 0.31331 0.03215 0.0
O230 O 0.23235 0.28156 0.11384 0.0
O231 O 0.28434 0.50864 0.92591 0.0
O232 O 0.27642 0.51224 0.12257 0.0
O233 O 0.25925 0.23426 0.95461 0.0
C234 C 0.11766 0.28024 0.02459 0.0
O235 O 0.34219 0.39771 0.16786 0.0
O236 O 0.18241 0.41571 0.13623 0.0
C237 C 0.39685 0.504 0.03828 0.0
C238 C 0.15713 0.50959 0.02162 0.0
C239 C 0.40416 0.26802 0.03696 0.0
C240 C 0.39338 0.38334 0.92528 0.0
C241 C 0.14642 0.38649 0.13843 0.0
C242 C 0.16165 0.38383 0.9053 0.0
C243 C 0.38271 0.37999 0.15182 0.0
C244 C 0.26953 0.49469 0.16894 0.0
C245 C 0.26264 0.25938 0.91471 0.0
C246 C 0.28633 0.48793 0.88031 0.0
C247 C 0.25994 0.27428 0.15052 0.0
O248 O 0.20031 0.38916 0.87958 0.0
O249 O 0.35607 0.41135 0.92929 0.0
O250 O 0.57024 0.36382 0.27271 0.0
O251 O 0.58604 0.46848 0.3223 0.0
O252 O 0.68804 0.46566 0.22568 0.0
O253 O 0.58555 0.46619 0.22361 0.0
O254 O 0.68894 0.46673 0.32272 0.0
Zr255 Zr 0.6363 0.41665 0.27473 0.0
Zr256 Zr 0.63748 0.51608 0.37187 0.0
Zr257 Zr 0.5313 0.51474 0.2715 0.0
O258 O 0.68796 0.56446 0.32081 0.0
O259 O 0.58531 0.56453 0.22373 0.0
O260 O 0.58402 0.56399 0.3216 0.0
Zr261 Zr 0.74267 0.51479 0.27322 0.0
Zr262 Zr 0.63789 0.51649 0.17475 0.0
Zr263 Zr 0.63536 0.61488 0.27391 0.0
O264 O 0.68812 0.56412 0.22572 0.0
O265 O 0.70878 0.66341 0.2659 0.0
O266 O 0.56511 0.6642 0.27315 0.0
O267 O 0.70998 0.367 0.28487 0.0
O268 O 0.77089 0.52145 0.17664 0.0
O269 O 0.52897 0.48461 0.35589 0.0
O270 O 0.53886 0.54865 0.18925 0.0
O271 O 0.77135 0.50866 0.36951 0.0
O272 O 0.65591 0.5927 0.41315 0.0
O273 O 0.65 0.4408 0.1307 0.0
O274 O 0.67202 0.59893 0.17652 0.0
O275 O 0.66409 0.43199 0.38443 0.0
O276 O 0.7386 0.59852 0.29968 0.0
O277 O 0.50494 0.41792 0.26022 0.0
O278 O 0.49987 0.60979 0.27428 0.0
O279 O 0.73491 0.43117 0.24728 0.0
O280 O 0.61762 0.37653 0.35075 0.0
O281 O 0.63281 0.66368 0.20115 0.0
O282 O 0.61285 0.6309 0.35755 0.0
O283 O 0.60714 0.41336 0.19095 0.0
C284 C 0.52497 0.37197 0.26447 0.0
O285 O 0.70496 0.51333 0.42293 0.0
O286 O 0.56431 0.51279 0.42114 0.0
C287 C 0.74558 0.63508 0.27198 0.0
C288 C 0.51928 0.6556 0.274 0.0
C289 C 0.74577 0.3946 0.27385 0.0
C290 C 0.75031 0.51953 0.13105 0.0
C291 C 0.52644 0.51203 0.39353 0.0
C292 C 0.53068 0.52611 0.14939 0.0
C293 C 0.75081 0.51027 0.41504 0.0
C294 C 0.64608 0.63248 0.38998 0.0
C295 C 0.63718 0.40428 0.15679 0.0
C296 C 0.64797 0.6377 0.16555 0.0
C297 C 0.63303 0.39773 0.38935 0.0
O298 O 0.56752 0.52236 0.12112 0.0
O299 O 0.70452 0.51646 0.12329 0.0
O300 O 0.79111 0.07702 0.8758 0.0
O301 O 0.81053 0.08765 0.98476 0.0
O302 O 0.71938 0.19617 0.96296 0.0
O303 O 0.71781 0.09176 0.95818 0.0
O304 O 0.81282 0.18605 0.99267 0.0
Zr305 Zr 0.7772 0.14478 0.92687 0.0
Zr306 Zr 0.84506 0.13061 0.04921 0.0
Zr307 Zr 0.74954 0.03633 0.0175 0.0
O308 O 0.78913 0.18404 0.08583 0.0
O309 O 0.68969 0.08952 0.0517 0.0
O310 O 0.78305 0.08336 0.08127 0.0
Zr311 Zr 0.75759 0.23971 0.02808 0.0
Zr312 Zr 0.6568 0.14253 0.99181 0.0
Zr313 Zr 0.72389 0.13789 0.11384 0.0
O314 O 0.6925 0.19017 0.0549 0.0
O315 O 0.73492 0.21222 0.16099 0.0
O316 O 0.69479 0.06401 0.14838 0.0
O317 O 0.7808 0.22717 0.89201 0.0
O318 O 0.6603 0.25967 0.03787 0.0
O319 O 0.82875 0.99545 1.01491 0.0
O320 O 0.66251 0.02636 0.0298 0.0
O321 O 0.85762 0.25585 0.03153 0.0
O322 O 0.85558 0.13017 0.13775 0.0
O323 O 0.63163 0.15655 0.9084 0.0
O324 O 0.59956 0.14891 0.05717 0.0
O325 O 0.86389 0.17075 0.97182 0.0
O326 O 0.76181 0.27241 0.10866 0.0
O327 O 0.74704 0.01898 0.91863 0.0
O328 O 0.75317 1.01573 0.11536 0.0
O329 O 0.7641 0.28388 0.95263 0.0
O330 O 0.85902 0.14739 0.89667 0.0
O331 O 0.63969 0.16042 0.12986 0.0
O332 O 0.78253 0.1253 0.17827 0.0
O333 O 0.69912 0.11658 0.89672 0.0
C334 C 0.76614 0.03747 0.87653 0.0
O335 O 0.90292 0.19125 0.06394 0.0
O336 O 0.88619 0.05397 0.03452 0.0
C337 C 0.75098 0.25584 0.15167 0.0
C338 C 0.72714 0.03084 0.15455 0.0
C339 C 0.77522 0.27156 0.90829 0.0
C340 C 0.62137 0.24839 1.01004 0.0
C341 C 0.87347 1.01046 0.02093 0.0
C342 C 0.63456 0.02372 0.99259 0.0
C343 C 0.90073 0.23493 0.04665 0.0
C344 C 0.82952 0.12883 0.17735 0.0
C345 C 0.66724 0.14613 0.88009 0.0
C346 C 0.60044 0.15728 0.10357 0.0
C347 C 0.88491 0.15083 0.93526 0.0
O348 O 0.6201 0.06357 0.97125 0.0
O349 O 0.62944 0.22276 0.97245 0.0
O350 O 0.30869 0.57303 0.38267 0.0
O351 O 0.325 0.59038 0.48065 0.0
O352 O 0.21652 0.68136 0.47116 0.0
O353 O 0.23013 0.57852 0.47268 0.0
O354 O 0.31694 0.69133 0.4783 0.0
Zr355 Zr 0.2754 0.63738 0.4284 0.0
Zr356 Zr 0.36653 0.64308 0.53195 0.0
Zr357 Zr 0.28178 0.52979 0.5241 0.0
O358 O 0.30813 0.69045 0.57261 0.0
O359 O 0.22388 0.57856 0.56825 0.0
O360 O 0.32041 0.58673 0.57653 0.0
Zr361 Zr 0.25782 0.73896 0.52023 0.0
Zr362 Zr 0.17119 0.62334 0.51738 0.0
Zr363 Zr 0.26323 0.63586 0.61873 0.0
O364 O 0.21219 0.68137 0.56606 0.0
O365 O 0.27699 0.71239 0.66195 0.0
O366 O 0.23915 0.56131 0.65606 0.0
O367 O 0.25388 0.71094 0.38302 0.0
O368 O 0.15795 0.75636 0.52183 0.0
O369 O 0.36695 0.53062 0.49676 0.0
O370 O 0.20079 0.50651 0.55073 0.0
O371 O 0.35274 0.76435 0.50626 0.0
O372 O 0.40204 0.6284 0.61144 0.0
O373 O 0.13468 0.62642 0.43687 0.0
O374 O 0.1321 0.6403 0.5949 0.0
O375 O 0.40862 0.66375 0.45786 0.0
O376 O 0.28754 0.76476 0.6006 0.0
O377 O 0.27708 0.50835 0.4264 0.0
O378 O 0.29377 0.50954 0.62132 0.0
O379 O 0.24913 0.77364 0.43931 0.0
O380 O 0.3554 0.65271 0.39378 0.0
O381 O 0.18685 0.65529 0.65643 0.0
O382 O 0.3373 0.61985 0.66369 0.0
O383 O 0.20143 0.59601 0.40244 0.0
C384 C 0.29201 0.52963 0.38397 0.0
O385 O 0.38654 0.71996 0.5656 0.0
O386 O 0.42391 0.57506 0.5313 0.0
C387 C 0.26552 0.75286 0.64028 0.0
C388 C 0.27048 0.52694 0.66134 0.0
C389 C 0.24701 0.75632 0.39519 0.0
C390 C 0.11421 0.73289 0.51729 0.0
C391 C 0.4039 0.53303 0.52537 0.0
C392 C 0.16645 0.5038 0.51946 0.0
C393 C 0.39265 0.75113 0.53202 0.0
C394 C 0.38354 0.62015 0.65407 0.0
C395 C 0.16036 0.61842 0.39844 0.0
C396 C 0.14327 0.65457 0.63863 0.0
C397 C 0.39862 0.65976 0.41185 0.0
O398 O 0.13701 0.54069 0.51488 0.0
O399 O 0.11131 0.68629 0.51205 0.0
O400 O 0.7695 0.52096 0.67558 0.0
O401 O 0.8484 0.58069 0.72754 0.0
O402 O 0.85005 0.48148 0.82203 0.0
O403 O 0.84875 0.4821 0.72452 0.0
O404 O 0.84789 0.57819 0.8232 0.0
Zr405 Zr 0.79484 0.52936 0.77347 0.0
Zr406 Zr 0.89828 0.63158 0.77651 0.0
Zr407 Zr 0.90008 0.53325 0.67658 0.0
O408 O 0.95226 0.58106 0.82384 0.0
O409 O 0.95056 0.48215 0.7242 0.0
O410 O 0.95006 0.58258 0.72716 0.0
Zr411 Zr 0.90254 0.53087 0.87125 0.0
Zr412 Zr 0.8998 0.43167 0.77387 0.0
Zr413 Zr 1.0028 0.53061 0.77352 0.0
O414 O 0.95146 0.4814 0.82161 0.0
O415 O 0.04182 0.53073 0.85065 0.0
O416 O 1.01584 0.50117 0.69109 0.0
O417 O 0.76905 0.5338 0.87071 0.0
O418 O 0.89734 0.45721 0.91968 0.0
O419 O 0.88234 0.609 0.63344 0.0
O420 O 0.87132 0.44964 0.67008 0.0
O421 O 0.87041 0.61248 0.88493 0.0
O422 O 0.96356 0.68447 0.77293 0.0
O423 O 0.82637 0.38269 0.77737 0.0
O424 O 0.96432 0.37815 0.77893 0.0
O425 O 0.82506 0.68061 0.78601 0.0
O426 O 0.98315 0.53196 0.91132 0.0
O427 O 0.83589 0.52689 0.62254 0.0
O428 O 0.97583 0.5345 0.63024 0.0
O429 O 0.83618 0.52733 0.92346 0.0
O430 O 0.80418 0.61422 0.74996 0.0
O431 O 0.02971 0.43246 0.77618 0.0
O432 O 0.02837 0.62881 0.77455 0.0
O433 O 0.7845 0.44598 0.80304 0.0
C434 C 0.79029 0.52149 0.63003 0.0
O435 O 0.91423 0.67109 0.85394 0.0
O436 O 0.91854 0.64964 0.69196 0.0
C437 C 0.02808 0.52986 0.89571 0.0
C438 C 1.01494 0.53195 0.65618 0.0
C439 C 0.79017 0.53051 0.91604 0.0
C440 C 0.90679 0.42009 0.89292 0.0
C441 C 0.88647 0.64868 0.65803 0.0
C442 C 0.90119 0.41474 0.66192 0.0
C443 C 0.89977 0.64766 0.89172 0.0
C444 C 1.00922 0.67527 0.77393 0.0
C445 C 0.78689 0.40824 0.77572 0.0
C446 C 1.01001 0.38642 0.7783 0.0
C447 C 0.79099 0.65114 0.77483 0.0
O448 O 0.91259 0.3879 0.69852 0.0
O449 O 0.9337 0.42787 0.85589 0.0
O450 O 0.65594 0.76319 0.51172 0.0
O451 O 0.69546 0.83826 0.5635 0.0
O452 O 0.80689 0.84574 0.47809 0.0
O453 O 0.7071 0.841 0.46668 0.0
O454 O 0.79541 0.84576 0.5714 0.0
Zr455 Zr 0.75352 0.79146 0.51922 0.0
Zr456 Zr 0.73767 0.89059 0.61477 0.0
Zr457 Zr 0.65043 0.8901 0.51014 0.0
O458 O 0.78802 0.94837 0.57492 0.0
O459 O 0.70158 0.94082 0.46443 0.0
O460 O 0.69058 0.94265 0.56393 0.0
Zr461 Zr 0.84551 0.90334 0.5317 0.0
Zr462 Zr 0.76029 0.8914 0.42253 0.0
Zr463 Zr 0.74109 0.99536 0.51811 0.0
O464 O 0.79821 0.94782 0.47529 0.0
O465 O 0.81237 0.04302 0.52945 0.0
O466 O 0.66015 0.02768 0.50564 0.0
O467 O 0.8521 0.76915 0.52337 0.0
O468 O 0.90168 0.89774 0.46436 0.0
O469 O 0.60689 0.86845 0.58563 0.0
O470 O 0.65518 0.85535 0.42885 0.0
O471 O 0.87015 0.89776 0.61672 0.0
O472 O 0.7371 0.95496 0.66937 0.0
O473 O 0.77856 0.81392 0.38239 0.0
O474 O 0.76504 0.95501 0.36679 0.0
O475 O 0.73015 0.81145 0.65484 0.0
O476 O 0.87466 0.98779 0.5156 0.0
O477 O 0.59905 0.82566 0.49718 0.0
O478 O 0.60406 0.96531 0.49685 0.0
O479 O 0.90123 0.83686 0.53739 0.0
O480 O 0.74654 0.75233 0.59703 0.0
O481 O 0.74544 0.01921 0.4192 0.0
O482 O 0.74102 0.02073 0.61536 0.0
O483 O 0.76666 0.75458 0.44141 0.0
C484 C 0.60938 0.78039 0.50294 0.0
O485 O 0.80644 0.88263 0.66907 0.0
O486 O 0.65433 0.9156 0.62979 0.0
C487 C 0.85651 0.03203 0.51742 0.0
C488 C 0.6167 1.01103 0.49656 0.0
C489 C 0.89655 0.79063 0.53055 0.0
C490 C 0.87895 0.90652 0.42441 0.0
C491 C 0.62139 0.88298 0.628 0.0
C492 C 0.6495 0.88273 0.39155 0.0
C493 C 0.85221 0.88635 0.65915 0.0
C494 C 0.73959 1.00085 0.66114 0.0
C495 C 0.7758 0.76884 0.39723 0.0
C496 C 0.75495 1.00018 0.37381 0.0
C497 C 0.7376 0.76666 0.64121 0.0
O498 O 0.68859 0.89702 0.37034 0.0
O499 O 0.83928 0.93093 0.42762 0.0
O500 O 0.08637 0.89823 0.81147 0.0
O501 O 0.09344 1.00919 0.81507 0.0
O502 O 0.18269 0.97821 0.70888 0.0
O503 O 0.08248 0.97219 0.73045 0.0
O504 O 0.19085 0.02045 0.80126 0.0
Zr505 Zr 0.1478 0.95165 0.78165 0.0
Zr506 Zr 0.13683 0.07942 0.83382 0.0
Zr507 Zr 0.02994 0.03265 0.76248 0.0
O508 O 0.17694 0.1089 0.76395 0.0
O509 O 0.06517 0.06197 0.68797 0.0
O510 O 0.07875 0.10117 0.77692 0.0
Zr511 Zr 0.22902 0.0487 0.73056 0.0
Zr512 Zr 0.1155 0.9983 0.6572 0.0
Zr513 Zr 0.11743 0.12905 0.70457 0.0
O514 O 0.16559 0.065 0.67527 0.0
O515 O 0.18568 0.17791 0.67704 0.0
O516 O 0.03697 0.16189 0.69776 0.0
O517 O 0.23524 0.93353 0.7883 0.0
O518 O 0.23571 0.04249 0.63037 0.0
O519 O 1.00585 0.033 0.84711 0.0
O520 O 0.99319 0.03039 0.68278 0.0
O521 O 0.25344 0.04777 0.82809 0.0
O522 O 0.11711 0.16641 0.8355 0.0
O523 O 0.11362 0.90983 0.65464 0.0
O524 O 0.11323 0.04856 0.58591 0.0
O525 O 0.15197 0.02416 0.90207 0.0
O526 O 0.22438 0.13795 0.73467 0.0
O527 O 0.0214 0.93279 0.7701 0.0
O528 O 1.01324 0.13098 0.7699 0.0
O529 O 0.28543 0.98422 0.74372 0.0
O530 O 0.16219 0.94771 0.86834 0.0
O531 O 0.13008 0.12444 0.61673 0.0
O532 O 0.12772 0.19808 0.75841 0.0
O533 O 0.14027 0.88184 0.72917 0.0
C534 C 0.04491 0.89354 0.79013 0.0
O535 O 0.21228 0.11022 0.86209 0.0
O536 O 0.06914 0.06875 0.8895 0.0
C537 C 0.22625 0.1619 0.69469 0.0
C538 C 0.01842 0.1698 0.73975 0.0
C539 C 0.27782 0.94899 0.7742 0.0
C540 C 0.21577 1.01718 0.59268 0.0
C541 C 0.02707 0.04741 0.88712 0.0
C542 C 0.99336 0.98939 0.66034 0.0
C543 C 0.24315 0.07568 0.86758 0.0
C544 C 0.1227 0.20256 0.80503 0.0
C545 C 0.12457 0.87523 0.68519 0.0
C546 C 0.12691 0.09338 0.58102 0.0
C547 C 0.16077 0.97755 0.90494 0.0
O548 O 0.03171 0.9748 0.63683 0.0
O549 O 0.1813 0.98622 0.60047 0.0
O550 O 0.52441 0.21245 0.50162 0.0
O551 O 0.54918 0.22804 0.57126 0.0
O552 O 0.46694 0.32901 0.60398 0.0
O553 O 0.45827 0.23504 0.58619 0.0
O554 O 0.564 0.32306 0.58475 0.0
Zr555 Zr 0.50033 0.29124 0.53435 0.0
Zr556 Zr 0.61276 0.25944 0.62058 0.0
Zr557 Zr 0.50707 0.17143 0.61949 0.0
O558 O 0.57569 0.30015 0.68491 0.0
O559 O 0.46812 0.2101 0.68596 0.0
O560 O 0.56775 0.20477 0.67017 0.0
Zr561 Zr 0.52911 0.36475 0.65113 0.0
Zr562 Zr 0.4212 0.27375 0.65267 0.0
Zr563 Zr 0.52982 0.24636 0.73514 0.0
O564 O 0.48223 0.30997 0.69993 0.0
O565 O 0.52226 0.34003 0.76972 0.0
O566 O 0.5318 0.14592 0.74612 0.0
O567 O 0.47452 0.37506 0.55429 0.0
O568 O 0.45616 0.38657 0.69824 0.0
O569 O 0.59225 0.15741 0.63993 0.0
O570 O 0.42969 0.13411 0.612 0.0
O571 O 0.61148 0.39645 0.64248 0.0
O572 O 0.66639 0.25385 0.69121 0.0
O573 O 0.36042 0.29305 0.59268 0.0
O574 O 0.39304 0.25784 0.73569 0.0
O575 O 0.63106 0.24622 0.53768 0.0
O576 O 0.57604 0.37686 0.72229 0.0
O577 O 0.49722 0.14397 0.53527 0.0
O578 O 0.50504 0.10564 0.67683 0.0
O579 O 0.51802 0.42984 0.59201 0.0
O580 O 0.59245 0.31036 0.50376 0.0
O581 O 0.45882 0.24022 0.78594 0.0
O582 O 0.61524 0.25061 0.75843 0.0
O583 O 0.40182 0.28904 0.51867 0.0
C584 C 0.49536 0.17611 0.50064 0.0
O585 O 0.66003 0.33335 0.61523 0.0
O586 O 0.65203 0.1834 0.59613 0.0
C587 C 0.54674 0.38087 0.75743 0.0
C588 C 0.52008 0.10429 0.72133 0.0
C589 C 0.50216 0.41259 0.55151 0.0
C590 C 0.41301 0.39105 0.68011 0.0
C591 C 0.62258 0.14866 0.60606 0.0
C592 C 0.38791 0.15555 0.61137 0.0
C593 C 0.65327 0.37794 0.62952 0.0
C594 C 0.65796 0.25418 0.73772 0.0
C595 C 0.3602 0.29268 0.54568 0.0
C596 C 0.41282 0.24883 0.77799 0.0
C597 C 0.63367 0.28429 0.51152 0.0
O598 O 0.37924 0.20025 0.62519 0.0
O599 O 0.38611 0.35275 0.67468 0.0
C600 C 0.14085 0.29636 0.15455 0.0
C601 C 0.15356 0.34377 0.17059 0.0
H602 H 0.1406 0.21933 0.17093 0.0
C603 C 0.18044 0.34905 0.21441 0.0
H604 H 0.12229 0.29116 0.12015 0.0
C605 C 0.19113 0.30766 0.24309 0.0
C606 C 0.16912 0.26264 0.23096 0.0
H607 H 0.19277 0.38494 0.22662 0.0
H608 H 0.20727 0.31317 0.27913 0.0
C609 C 0.15412 0.25508 0.18228 0.0
C610 C 0.57123 0.65658 0.12116 0.0
C611 C 0.61882 0.63665 0.12114 0.0
H612 H 0.50441 0.66586 0.08102 0.0
C613 C 0.63621 0.61018 0.08046 0.0
H614 H 0.55721 0.6769 0.15228 0.0
C615 C 0.60556 0.60244 0.04052 0.0
C616 C 0.558 0.62224 0.04103 0.0
H617 H 0.67332 0.5955 0.07965 0.0
H618 H 0.61963 0.58312 1.00865 0.0
C619 C 0.54088 0.64934 0.08118 0.0
C620 C 0.91455 0.21315 0.22755 0.0
C621 C 0.88142 0.24414 0.25241 0.0
H622 H 0.92682 0.14437 0.19274 0.0
C623 C 0.83624 0.22508 0.26807 0.0
H624 H 0.94931 0.22681 0.21413 0.0
C625 C 0.82216 0.17797 0.25314 0.0
C626 C 0.85264 0.1509 0.22094 0.0
H627 H 0.8103 0.24789 0.28809 0.0
H628 H 0.78463 0.1667 0.2601 0.0
C629 C 0.90164 0.16541 0.21551 0.0
C630 C 0.42143 0.91147 0.0367 0.0
C631 C 0.41315 0.88236 0.07875 0.0
H632 H 0.47232 0.93247 0.98083 0.0
C633 C 0.44735 0.84562 0.09133 0.0
H634 H 0.39544 0.93999 0.02558 0.0
C635 C 0.4918 0.84206 0.0664 0.0
C636 C 0.50196 0.87387 0.02692 0.0
H637 H 0.44066 0.82133 0.12195 0.0
H638 H 0.51845 0.81477 0.07871 0.0
C639 C 0.46577 0.9077 1.01136 0.0
C640 C 0.18626 0.64915 0.31698 0.0
C641 C 0.15574 0.6539 0.35825 0.0
H642 H 0.21651 0.68412 0.2539 0.0
C643 C 0.12824 0.69727 0.36497 0.0
H644 H 0.20849 0.61644 0.3114 0.0
C645 C 0.13313 0.73621 0.33235 0.0
C646 C 0.16469 0.73199 0.29177 0.0
H647 H 0.105 0.70236 0.39678 0.0
H648 H 0.11249 0.7698 0.33932 0.0
C649 C 0.19118 0.68811 0.28429 0.0
C650 C 0.01708 0.63965 0.96338 0.0
C651 C 1.00065 0.61882 1.00776 0.0
H652 H 0.99762 0.66701 0.89254 0.0
C653 C 0.95078 0.60732 1.01348 0.0
H654 H 0.05555 0.64827 0.95777 0.0
C655 C 0.91767 0.61842 0.97597 0.0
C656 C 0.93388 0.64151 0.9327 0.0
H657 H 0.93705 0.59142 0.04731 0.0
H658 H 0.87937 0.60892 0.98068 0.0
C659 C 0.98389 0.65148 0.92644 0.0
C660 C 0.90344 0.78891 0.35696 0.0
C661 C 0.89469 0.80459 0.30858 0.0
H662 H 0.90857 0.81092 0.43177 0.0
C663 C 0.87144 0.84999 0.29962 0.0
H664 H 0.92101 0.75363 0.36432 0.0
C665 C 0.86534 0.88303 0.33805 0.0
C666 C 0.88161 0.87021 0.38536 0.0
H667 H 0.86453 0.8627 0.2624 0.0
H668 H 0.85126 0.91967 0.33021 0.0
C669 C 0.89795 0.82211 0.39516 0.0
C670 C 0.17031 0.90396 0.95569 0.0
C671 C 0.15535 0.95357 0.95268 0.0
H672 H 0.14605 0.83037 0.96883 0.0
C673 C 0.11551 0.96969 0.98119 0.0
H674 H 0.20271 0.89122 0.93621 0.0
C675 C 0.08283 0.93501 0.99947 0.0
C676 C 0.09139 0.88467 0.99094 0.0
H677 H 0.1045 1.00819 0.98157 0.0
H678 H 0.04891 0.94769 0.016 0.0
C679 C 0.13713 0.86915 0.97267 0.0
C680 C 0.14181 0.11145 0.3089 0.0
C681 C 0.15026 0.13733 0.35238 0.0
H682 H 0.16594 0.09573 0.23633 0.0
C683 C 0.19516 0.16258 0.35821 0.0
H684 H 0.10854 0.09045 0.3041 0.0
C685 C 0.22861 0.16564 0.31935 0.0
C686 C 0.21789 0.14301 0.27431 0.0
H687 H 0.20313 0.18254 0.39168 0.0
H688 H 0.26212 0.18648 0.32429 0.0
C689 C 0.17467 0.11496 0.27003 0.0
C690 C 0.4346 0.56393 0.93738 0.0
C691 C 0.41675 0.61045 0.95154 0.0
H692 H 0.45501 0.4917 0.96083 0.0
C693 C 0.41465 0.62246 1.00164 0.0
H694 H 0.43882 0.55449 0.89892 0.0
C695 C 0.42582 0.5869 0.03703 0.0
C696 C 0.43392 0.53807 0.02206 0.0
H697 H 0.40437 0.65897 1.01338 0.0
H698 H 0.4184 0.59513 0.07527 0.0
C699 C 0.4463 0.52882 0.97294 0.0
C700 C 0.7837 0.38984 0.35678 0.0
C701 C 0.78757 0.4004 0.30662 0.0
H702 H 0.81958 0.3919 0.42659 0.0
C703 C 0.82981 0.4237 0.28833 0.0
H704 H 0.75055 0.37398 0.37198 0.0
C705 C 0.86935 0.43314 0.31925 0.0
C706 C 0.86665 0.41985 0.36887 0.0
H707 H 0.83265 0.43345 0.24977 0.0
H708 H 0.90288 0.44771 0.30374 0.0
C709 C 0.82272 0.40069 0.3879 0.0
C710 C 0.66966 0.89405 0.96066 0.0
C711 C 0.66448 0.89472 0.90954 0.0
H712 H 0.66139 0.93413 0.02726 0.0
C713 C 0.6489 0.93805 0.88572 0.0
H714 H 0.67957 0.86061 0.98015 0.0
C715 C 0.63615 0.97965 0.91262 0.0
C716 C 0.64032 0.9787 0.96385 0.0
H717 H 0.6448 0.93881 0.84628 0.0
H718 H 0.62399 1.01256 0.89334 0.0
C719 C 0.65765 0.93574 0.98761 0.0
C720 C 0.21524 0.92616 0.08847 0.0
C721 C 0.22406 0.87664 0.07723 0.0
H722 H 0.19483 0.96728 0.15231 0.0
C723 C 0.26621 0.85663 0.09991 0.0
H724 H 0.19079 0.94787 0.06537 0.0
C725 C 0.27166 0.86695 0.14998 0.0
C726 C 0.24346 0.90549 0.17044 0.0
H727 H 0.28294 0.82324 0.08593 0.0
H728 H 0.29429 0.84296 0.17267 0.0
C729 C 0.21717 0.93722 0.1385 0.0
C730 C 0.13558 0.51055 0.11035 0.0
C731 C 0.16325 0.5289 0.07116 0.0
H732 H 0.11448 0.52024 0.18431 0.0
C733 C 0.19848 0.56557 0.07981 0.0
H734 H 0.10865 0.48181 0.105 0.0
C735 C 0.20294 0.58616 0.12609 0.0
C736 C 0.16782 0.57495 0.16195 0.0
H737 H 0.22185 0.57941 0.05071 0.0
H738 H 0.22793 0.61676 0.13064 0.0
C739 C 0.14035 0.53145 0.15652 0.0
C740 C 0.82032 0.59544 0.23813 0.0
C741 C 0.78119 0.62925 0.23261 0.0
H742 H 0.8889 0.56994 0.20953 0.0
C743 C 0.7762 0.65614 0.18904 0.0
H744 H 0.82372 0.5725 0.27065 0.0
C745 C 0.81336 0.6543 0.15453 0.0
C746 C 0.85679 0.62749 0.1645 0.0
H747 H 0.74554 0.68121 0.18306 0.0
H748 H 0.81176 0.68073 0.12486 0.0
C749 C 0.85721 0.59328 0.20294 0.0
C750 C 0.95443 0.9834 0.04934 0.0
C751 C 0.91266 0.97349 0.02049 0.0
H752 H 0.99324 0.96004 0.11373 0.0
C753 C 0.89898 0.92454 1.01275 0.0
H754 H 0.96907 0.02038 0.05224 0.0
C755 C 0.91243 0.89019 0.04796 0.0
C756 C 0.94188 0.90509 0.08762 0.0
H757 H 0.86979 0.9153 0.98723 0.0
H758 H 0.89473 0.85466 0.04762 0.0
C759 C 0.96791 0.94926 0.08494 0.0
C760 C 0.28243 0.19489 0.1161 0.0
C761 C 0.29571 0.23549 0.14489 0.0
H762 H 0.30627 0.12874 0.08217 0.0
C763 C 0.34434 0.24168 0.16057 0.0
H764 H 0.24499 0.19002 0.10319 0.0
C765 C 0.37931 0.20679 0.14783 0.0
C766 C 0.36548 0.16553 0.12043 0.0
H767 H 0.35544 0.27349 0.18177 0.0
H768 H 0.41677 0.21108 0.16051 0.0
C769 C 0.31741 0.16047 0.10321 0.0
C770 C 0.23459 0.84072 0.36786 0.0
C771 C 0.25109 0.79305 0.35634 0.0
H772 H 0.25774 0.91466 0.38082 0.0
C773 C 0.29278 0.78743 0.32661 0.0
H774 H 0.20071 0.84608 0.38817 0.0
C775 C 0.32647 0.82565 0.32469 0.0
C776 C 0.3157 0.87028 0.34839 0.0
H777 H 0.30469 0.75122 0.31448 0.0
H778 H 0.36234 0.81868 0.30887 0.0
C779 C 0.26792 0.87926 0.36567 0.0
C780 C 0.05137 0.45853 0.94223 0.0
C781 C 0.06493 0.5058 0.92629 0.0
H782 H 0.07022 0.38183 0.94271 0.0
C783 C 0.11405 0.51415 0.91244 0.0
H784 H 1.01399 0.45106 0.95379 0.0
C785 C 0.14489 0.47421 0.90263 0.0
C786 C 0.1287 0.42607 0.91169 0.0
H787 H 0.12555 0.55059 0.90081 0.0
H788 H 0.18114 0.48104 0.88796 0.0
C789 C 0.08267 0.41865 0.93374 0.0
C790 C 0.73577 0.65192 0.38852 0.0
C791 C 0.68674 0.6661 0.37958 0.0
H792 H 0.81102 0.674 0.38802 0.0
C793 C 0.67712 0.71036 0.35421 0.0
H794 H 0.74447 0.61635 0.40412 0.0
C795 C 0.71568 0.74165 0.34208 0.0
C796 C 0.76267 0.73185 0.36136 0.0
H797 H 0.63986 0.7211 0.34444 0.0
H798 H 0.70658 0.77781 0.32737 0.0
C799 C 0.77408 0.68342 0.37596 0.0
C800 C 0.42941 0.60139 0.35237 0.0
C801 C 0.44004 0.64174 0.38272 0.0
H802 H 0.44633 0.52604 0.33678 0.0
C803 C 0.48673 0.64414 0.40495 0.0
H804 H 0.39523 0.59959 0.33194 0.0
C805 C 0.51504 0.60167 0.40925 0.0
C806 C 0.49906 0.55795 0.38721 0.0
H807 H 0.49681 0.67554 0.42709 0.0
H808 H 0.54794 0.6026 0.43174 0.0
C809 C 0.45773 0.55879 0.35634 0.0
C810 C 0.15158 0.82563 0.61703 0.0
C811 C 0.13313 0.8263 0.66492 0.0
H812 H 0.2138 0.80735 0.57422 0.0
C813 C 0.14669 0.78848 0.69781 0.0
H814 H 0.13983 0.8526 0.58986 0.0
C815 C 0.18857 0.7607 0.68816 0.0
C816 C 0.21483 0.7695 0.64481 0.0
H817 H 0.13166 0.78716 0.73462 0.0
H818 H 0.20316 0.73674 0.7167 0.0
C819 C 0.1945 0.79985 0.60817 0.0
C820 C 0.07976 0.57662 0.70091 0.0
C821 C 0.04059 0.57765 0.66685 0.0
H822 H 0.14106 0.61509 0.72992 0.0
C823 C 0.0265 0.62265 0.64516 0.0
H824 H 0.08987 0.54333 0.72076 0.0
C825 C 0.05656 0.66352 0.65126 0.0
C826 C 0.10283 0.65622 0.67324 0.0
H827 H 0.99484 0.6254 0.62103 0.0
H828 H 0.04998 0.69542 0.62809 0.0
C829 C 0.10804 0.61837 0.70768 0.0
C830 C 0.96821 0.90148 0.6694 0.0
C831 C 0.96067 0.95159 0.68019 0.0
H832 H 0.9364 0.82969 0.67112 0.0
C833 C 0.92226 0.96482 0.71253 0.0
H834 H 0.99907 0.88929 0.64734 0.0
C835 C 0.88698 0.92992 0.72502 0.0
C836 C 0.8875 0.88539 0.69951 0.0
H837 H 0.91746 1.00237 0.72524 0.0
H838 H 0.85398 0.94194 0.74379 0.0
C839 C 0.93335 0.86712 0.68459 0.0
C840 C 0.60076 0.80035 0.66249 0.0
C841 C 0.62165 0.84692 0.66885 0.0
H842 H 0.59462 0.7266 0.68939 0.0
C843 C 0.65031 0.85576 0.71125 0.0
H844 H 0.57763 0.79301 0.63115 0.0
C845 C 0.66122 0.81754 0.74413 0.0
C846 C 0.64202 0.77035 0.73629 0.0
H847 H 0.6666 0.89154 0.71771 0.0
H848 H 0.68448 0.82499 0.77555 0.0
C849 C 0.61102 0.7624 0.69562 0.0
C850 C 0.0723 0.17815 0.52595 0.0
C851 C 0.03912 0.1461 0.50315 0.0
H852 H 0.1449 0.18816 0.5518 0.0
C853 C 0.05641 0.10122 0.4837 0.0
H854 H 0.05967 0.21151 0.54334 0.0
C855 C 0.10399 0.0858 0.49559 0.0
C856 C 0.12929 0.11355 0.53092 0.0
H857 H 0.03228 0.07662 0.46379 0.0
H858 H 0.11439 0.04789 0.48829 0.0
C859 C 0.12115 0.16428 0.53061 0.0
C860 C 0.44327 0.70852 0.72059 0.0
C861 C 0.4118 0.70662 0.76142 0.0
H862 H 0.46838 0.67221 0.6563 0.0
C863 C 0.38939 0.66192 0.77418 0.0
H864 H 0.46345 0.74164 0.71144 0.0
C865 C 0.39342 0.62182 0.74272 0.0
C866 C 0.41516 0.62868 0.6964 0.0
H867 H 0.3671 0.65856 0.80694 0.0
H868 H 0.37083 0.5899 0.74986 0.0
C869 C 0.44741 0.66815 0.68984 0.0
C870 C 0.96207 0.45795 0.54664 0.0
C871 C 1.00829 0.43548 0.55237 0.0
H872 H 0.88889 0.46124 0.57492 0.0
C873 C 0.02384 0.42106 0.59941 0.0
H874 H 0.95023 0.47167 0.51101 0.0
C875 C 0.98848 0.41276 0.6352 0.0
C876 C 0.93906 0.42456 0.62558 0.0
H877 H 0.06049 0.40602 0.605 0.0
H878 H 0.99954 0.39634 0.66972 0.0
C879 C 0.9265 0.45001 0.58232 0.0
C880 C 0.71234 0.16833 0.80483 0.0
C881 C 0.68485 0.18322 0.8459 0.0
H882 H 0.73512 0.18879 0.73271 0.0
C883 C 0.67698 0.23372 0.85435 0.0
H884 H 0.72224 0.12997 0.79939 0.0
C885 C 0.68979 0.26755 0.81809 0.0
C886 C 0.69966 0.24898 0.77107 0.0
H887 H 0.65958 0.24684 0.88753 0.0
H888 H 0.67796 0.30554 0.82253 0.0
C889 C 0.72187 0.2024 0.76771 0.0
C890 C 0.40812 0.15463 0.48458 0.0
C891 C 0.44979 0.18215 0.47264 0.0
H892 H 0.33982 0.12687 0.45947 0.0
C893 C 0.44833 0.21391 0.43167 0.0
H894 H 0.40745 0.13088 0.51647 0.0
C895 C 0.41007 0.20995 0.39779 0.0
C896 C 0.37476 0.17325 0.40477 0.0
H897 H 0.479 0.23775 0.42309 0.0
H898 H 0.41311 0.22896 0.36288 0.0
C899 C 0.36899 0.1529 0.45197 0.0
C900 C 0.40953 0.29616 0.90146 0.0
C901 C 0.38952 0.34269 0.89047 0.0
H902 H 0.427 0.22445 0.87444 0.0
C903 C 0.36259 0.34944 0.84699 0.0
H904 H 0.42929 0.28981 0.93529 0.0
C905 C 0.35945 0.31157 0.81307 0.0
C906 C 0.38646 0.26782 0.8207 0.0
H907 H 0.34616 0.38471 0.83791 0.0
H908 H 0.34239 0.31981 0.77792 0.0
C909 C 0.40674 0.2583 0.86731 0.0
C910 C 0.61583 0.42349 0.4747 0.0
C911 C 0.59983 0.4009 0.43118 0.0
H912 H 0.59681 0.44661 0.54711 0.0
C913 C 0.55063 0.38642 0.42629 0.0
H914 H 0.65353 0.43559 0.47886 0.0
C915 C 0.51808 0.39371 0.4647 0.0
C916 C 0.53439 0.4147 0.50885 0.0
H917 H 0.53702 0.37008 0.39267 0.0
H918 H 0.48043 0.38142 0.46047 0.0
C919 C 0.58324 0.43054 0.51334 0.0
C920 C 0.70913 0.61856 0.78828 0.0
C921 C 0.74988 0.64385 0.80697 0.0
H922 H 0.63929 0.58746 0.80416 0.0
C923 C 0.75446 0.65284 0.85729 0.0
H924 H 0.7061 0.61024 0.74943 0.0
C925 C 0.71766 0.63739 0.88865 0.0
C926 C 0.67542 0.61493 0.86958 0.0
H927 H 0.78673 0.67051 0.87243 0.0
H928 H 0.72111 0.64477 0.9276 0.0
C929 C 0.67187 0.60418 0.81951 0.0
C930 C 0.88383 0.09453 0.40104 0.0
C931 C 0.87111 0.14315 0.41362 0.0
H932 H 0.89367 0.02044 0.42629 0.0
C933 C 0.86526 0.15548 0.46333 0.0
H934 H 0.8901 0.08446 0.36303 0.0
C935 C 0.86865 0.1194 0.49953 0.0
C936 C 0.87801 0.07018 0.48669 0.0
H937 H 0.86155 0.19329 0.47471 0.0
H938 H 0.86102 0.12936 0.53732 0.0
C939 C 0.88773 0.05835 0.4374 0.0
C940 C 0.36633 0.9529 0.79574 0.0
C941 C 0.31846 0.93746 0.80705 0.0
H942 H 0.44141 0.9523 0.81834 0.0
C943 C 0.30784 0.91982 0.85447 0.0
H944 H 0.37505 0.96909 0.76037 0.0
C945 C 0.34505 0.91403 0.88852 0.0
C946 C 0.39364 0.92122 0.87381 0.0
H947 H 0.27086 0.91031 0.86563 0.0
H948 H 0.33674 0.89644 0.92337 0.0
C949 C 0.40387 0.94546 0.82955 0.0
C950 C 0.20794 0.43265 0.47929 0.0
C951 C 0.17859 0.47549 0.47542 0.0
H952 H 0.22777 0.36465 0.44472 0.0
C953 C 0.16242 0.49099 0.42902 0.0
H954 H 0.22376 0.42161 0.51419 0.0
C955 C 0.1709 0.4613 0.38847 0.0
C956 C 0.18554 0.41226 0.3964 0.0
H957 H 0.14043 0.52399 0.42443 0.0
H958 H 0.15158 0.47088 0.35498 0.0
C959 C 0.21243 0.40121 0.43901 0.0
C960 C 0.69079 0.44105 0.68179 0.0
C961 C 0.6975 0.40256 0.64819 0.0
H962 H 0.71083 0.46936 0.75198 0.0
C963 C 0.74179 0.37531 0.64967 0.0
H964 H 0.65891 0.46507 0.67945 0.0
C965 C 0.7725 0.37858 0.69036 0.0
C966 C 0.75989 0.41009 0.72916 0.0
H967 H 0.74932 0.34654 0.62317 0.0
H968 H 0.80395 0.35393 0.69287 0.0
C969 C 0.72024 0.44308 0.72351 0.0
C970 C 0.61112 0.12785 0.5169 0.0
C971 C 0.60373 0.11725 0.56694 0.0
H972 H 0.60541 0.09973 0.44401 0.0
C973 C 0.57285 0.07778 0.58005 0.0
H974 H 0.63192 0.15953 0.5051 0.0
C975 C 0.55532 0.04612 0.54405 0.0
C976 C 0.57792 0.04832 0.49817 0.0
H977 H 0.56471 0.06967 0.61806 0.0
H978 H 0.53674 1.01283 0.55578 0.0
C979 C 0.59365 0.09484 0.4817 0.0
C980 C 0.29964 0.11087 0.67743 0.0
C981 C 0.26385 0.14509 0.66071 0.0
H982 H 0.36717 0.07455 0.66259 0.0
C983 C 0.26475 0.16126 0.61182 0.0
H984 H 0.30005 0.0967 0.71464 0.0
C985 C 0.30536 0.14935 0.58314 0.0
C986 C 0.3453 0.12504 0.60514 0.0
H987 H 0.23649 0.18556 0.59714 0.0
H988 H 0.30997 0.16735 0.54811 0.0
C989 C 0.33759 0.09666 0.64693 0.0
C990 C 0.43374 0.50753 0.60858 0.0
C991 C 0.40528 0.49829 0.56653 0.0
H992 H 0.45759 0.48068 0.67853 0.0
C993 C 0.37578 0.45608 0.56457 0.0
H994 H 0.45674 0.5399 0.61114 0.0
C995 C 0.3753 0.42326 0.60354 0.0
C996 C 0.40554 0.43096 0.64452 0.0
H997 H 0.35313 0.44808 0.53278 0.0
H998 H 0.35307 0.39062 0.60028 0.0
C999 C 0.43378 0.47402 0.64741 0.0
C1000 C 0.7522 0.68297 0.66519 0.0
C1001 C 0.75612 0.73269 0.67814 0.0
H1002 H 0.79187 0.62015 0.64043 0.0
C1003 C 0.80038 0.74922 0.69894 0.0
H1004 H 0.71753 0.66859 0.65185 0.0
C1005 C 0.84351 0.72261 0.69046 0.0
C1006 C 0.84127 0.67697 0.66647 0.0
H1007 H 0.80356 0.78663 0.71248 0.0
H1008 H 0.87848 0.73818 0.70146 0.0
C1009 C 0.79505 0.65654 0.65566 0.0
C1010 C 0.84449 0.30182 0.86156 0.0
C1011 C 0.79714 0.31114 0.88001 0.0
H1012 H 0.91784 0.32899 0.85528 0.0
C1013 C 0.78344 0.35941 0.89252 0.0
H1014 H 0.8558 0.26495 0.85097 0.0
C1015 C 0.81945 0.39499 0.89744 0.0
C1016 C 0.86851 0.38349 0.88659 0.0
H1017 H 0.74668 0.36753 0.90574 0.0
H1018 H 0.80913 0.43096 0.91073 0.0
C1019 C 0.88038 0.3378 0.86569 0.0
C1020 C 0.57516 0.99958 0.38985 0.0
C1021 C 0.52727 0.98142 0.39664 0.0
H1022 H 0.65089 0.98186 0.37967 0.0
C1023 C 0.52088 0.93153 0.40861 0.0
H1024 H 0.58099 0.03799 0.38047 0.0
C1025 C 0.56096 0.89924 0.40654 0.0
C1026 C 0.6076 0.91666 0.39319 0.0
H1027 H 0.48436 0.91635 0.41314 0.0
H1028 H 0.55509 0.86035 0.41279 0.0
C1029 C 0.61477 0.96727 0.38685 0.0
C1030 C 0.1301 0.2523 0.87781 0.0
C1031 C 0.13667 0.24968 0.82698 0.0
H1032 H 0.16888 0.24424 0.9448 0.0
C1033 C 0.17838 0.27219 0.80646 0.0
H1034 H 0.09655 0.23872 0.89437 0.0
C1035 C 0.21973 0.27899 0.83612 0.0
C1036 C 0.21763 0.26506 0.88573 0.0
H1037 H 0.18286 0.27455 0.76695 0.0
H1038 H 0.25418 0.2896 0.81938 0.0
C1039 C 0.17188 0.25444 0.90683 0.0
C1040 C 0.91064 0.06423 0.92737 0.0
C1041 C 0.91988 0.11186 0.94487 0.0
H1042 H 0.94258 0.99618 0.90571 0.0
C1043 C 0.96468 0.12247 0.96777 0.0
H1044 H 0.8751 0.05406 0.91283 0.0
C1045 C 1.00353 0.08934 0.96228 0.0
C1046 C 0.99657 0.04865 0.9312 0.0
H1047 H 0.97133 0.15824 0.98399 0.0
H1048 H 0.04015 0.10146 0.97216 0.0
C1049 C 0.94892 0.0306 0.92486 0.0
C1050 C 0.65993 0.32544 0.19563 0.0
C1051 C 0.6741 0.36708 0.16843 0.0
H1052 H 0.68211 0.25585 0.22454 0.0
C1053 C 0.72423 0.37564 0.15966 0.0
H1054 H 0.62179 0.31921 0.20506 0.0
C1055 C 0.75886 0.34065 0.17446 0.0
C1056 C 0.74189 0.29381 0.18821 0.0
H1057 H 0.7367 0.40927 0.14235 0.0
H1058 H 0.79678 0.34562 0.16332 0.0
C1059 C 0.69485 0.29022 0.20873 0.0
C1060 C 0.51547 0.13264 0.09803 0.0
C1061 C 0.55511 0.14443 0.12896 0.0
H1062 H 0.47641 0.0723 0.06693 0.0
C1063 C 0.5626 0.11605 0.17131 0.0
H1064 H 0.50712 0.15524 0.06637 0.0
C1065 C 0.54413 0.06858 0.17269 0.0
C1066 C 0.51334 0.05186 0.13468 0.0
H1067 H 0.59021 0.12604 0.19829 0.0
H1068 H 0.55566 0.04468 0.20261 0.0
C1069 C 0.49894 0.08442 0.09741 0.0
C1070 C 0.45794 0.4878 0.18704 0.0
C1071 C 0.49492 0.48624 0.15115 0.0
H1072 H 0.39726 0.4506 0.21976 0.0
C1073 C 0.49958 0.44472 0.1209 0.0
H1074 H 0.4544 0.51879 0.2119 0.0
C1075 C 0.46571 0.40667 0.12464 0.0
C1076 C 0.42663 0.41013 0.15833 0.0
H1077 H 0.52867 0.44199 0.09388 0.0
H1078 H 0.46838 0.3763 0.09899 0.0
C1079 C 0.4251 0.44922 0.19154 0.0
C1080 C 0.07706 0.56158 0.27756 0.0
C1081 C 0.03257 0.58859 0.27096 0.0
H1082 H 0.11372 0.49013 0.28202 0.0
C1083 C 0.99141 0.55771 0.25994 0.0
H1084 H 0.11059 0.58133 0.28535 0.0
C1085 C 0.99378 0.50516 0.25484 0.0
C1086 C 0.03761 0.47764 0.26162 0.0
H1087 H 0.95565 0.57469 0.25593 0.0
H1088 H 0.95971 0.48557 0.24907 0.0
C1089 C 0.07907 0.50817 0.27386 0.0
C1090 C 0.76817 0.78023 1.00322 0.0
C1091 C 0.73896 0.73926 0.01806 0.0
H1092 H 0.8396 0.81333 0.99232 0.0
C1093 C 0.76759 0.69678 0.02937 0.0
H1094 H 0.74983 0.81339 0.99055 0.0
C1095 C 0.82088 0.69594 0.0282 0.0
C1096 C 0.84995 0.73706 1.01353 0.0
H1097 H 0.74803 0.66353 0.03848 0.0
H1098 H 0.83969 0.66312 0.04119 0.0
C1099 C 0.82102 0.77939 1.00162 0.0
C1100 C 0.98438 0.04282 0.26789 0.0
C1101 C 1.01362 0.08347 0.25029 0.0
H1102 H 0.97213 0.96395 0.27627 0.0
C1103 C 0.0557 0.06788 0.22377 0.0
H1104 H 0.95112 0.05073 0.28834 0.0
C1105 C 0.06814 1.01622 0.21742 0.0
C1106 C 0.04004 0.97598 0.23746 0.0
H1107 H 0.08041 0.09552 0.20946 0.0
H1108 H 0.10083 1.00769 0.19632 0.0
C1109 C 0.99706 0.99154 0.26213 0.0
C1110 C 0.33101 0.71787 0.05303 0.0
C1111 C 0.34961 0.75485 0.02152 0.0
H1112 H 0.269 0.67796 0.08144 0.0
C1113 C 0.31123 0.7799 0.99386 0.0
H1114 H 0.35647 0.69677 0.07551 0.0
C1115 C 0.25924 0.7692 0.99724 0.0
C1116 C 0.24075 0.73193 0.02846 0.0
H1117 H 0.32124 0.80905 0.96861 0.0
H1118 H 0.23356 0.79127 0.97594 0.0
C1119 C 0.2791 0.70684 0.05599 0.0
C1120 C 0.23579 0.07405 0.45724 0.0
C1121 C 0.22314 0.03508 0.42396 0.0
H1122 H 0.24247 0.10158 0.53179 0.0
C1123 C 0.21008 0.99102 0.44903 0.0
H1124 H 0.2486 0.10854 0.4419 0.0
C1125 C 0.21065 0.98596 0.50176 0.0
C1126 C 0.22444 0.02438 0.5351 0.0
H1127 H 0.20189 0.9586 0.42755 0.0
H1128 H 0.2002 0.95045 0.51661 0.0
C1129 C 0.23546 0.06925 0.51036 0.0
C1130 C 0.24699 0.53024 0.80473 0.0
C1131 C 0.28995 0.5126 0.82842 0.0
H1132 H 0.20689 0.54554 0.73839 0.0
C1133 C 0.32739 0.49654 0.79451 0.0
H1134 H 0.21541 0.5401 0.82689 0.0
C1135 C 0.32246 0.49873 0.74144 0.0
C1136 C 0.27882 0.51589 0.71809 0.0
H1137 H 0.36042 0.47956 0.80937 0.0
H1138 H 0.35309 0.48697 0.71902 0.0
C1139 C 0.24176 0.53183 0.75229 0.0
C1140 C 0.76476 0.47306 0.55197 0.0
C1141 C 0.76728 0.51867 0.57761 0.0
H1142 H 0.75916 0.43398 0.48255 0.0
C1143 C 0.77445 0.55973 0.54537 0.0
H1144 H 0.76284 0.43938 0.57305 0.0
C1145 C 0.7781 0.55579 0.49287 0.0
C1146 C 0.77451 0.51043 0.46708 0.0
H1147 H 0.78017 0.59581 0.56106 0.0
H1148 H 0.78207 0.58958 0.47223 0.0
C1149 C 0.76642 0.46941 0.49905 0.0
C1150 C 0.7969 0.02502 0.78798 0.0
C1151 C 0.75695 0.02166 0.82194 0.0
H1152 H 0.82354 0.02628 0.71296 0.0
C1153 C 0.71004 0.0219 0.79879 0.0
H1154 H 0.83404 0.0273 0.80231 0.0
C1155 C 0.70421 0.02237 0.746 0.0
C1156 C 0.74423 0.02567 0.71222 0.0
H1157 H 0.6774 0.02293 0.82134 0.0
H1158 H 0.66777 0.01789 0.73091 0.0
C1159 C 0.79084 0.02683 0.7356 0.0
C1160 C 0.2631 1.0056 0.99577 0.0
C1161 C 0.24823 0.04043 0.03277 0.0
H1162 H 0.27483 0.98721 0.91888 0.0
C1163 C 0.23448 0.0869 1.01306 0.0
H1164 H 0.27669 0.96979 1.00751 0.0
C1165 C 0.23522 0.09733 0.9611 0.0
C1166 C 0.25048 0.06263 0.9241 0.0
H1167 H 0.22541 0.11659 0.03803 0.0
H1168 H 0.22376 0.13399 0.94989 0.0
C1169 C 0.26404 1.0161 0.94373 0.0
C1170 C 0.3259 0.51478 0.29679 0.0
C1171 C 0.285 0.51282 0.32966 0.0
H1172 H 0.35403 0.51998 0.22225 0.0
C1173 C 0.23916 0.51829 0.30525 0.0
H1174 H 0.36259 0.51503 0.31215 0.0
C1175 C 0.23425 0.51911 0.25276 0.0
C1176 C 0.27502 0.52002 0.21971 0.0
H1177 H 0.20654 0.5249 0.32658 0.0
H1178 H 0.19744 0.51709 0.23809 0.0
C1179 C 0.32108 0.51901 0.24423 0.0
C1180 C 0.78056 0.5655 0.05347 0.0
C1181 C 0.77356 0.52033 0.07877 0.0
H1182 H 0.78793 0.60503 0.98426 0.0
C1183 C 0.76284 0.48029 0.04633 0.0
H1184 H 0.78643 0.59817 0.07508 0.0
C1185 C 0.76013 0.48492 0.99366 0.0
C1186 C 0.76705 0.53028 0.9683 0.0
H1187 H 0.75389 0.4448 0.06215 0.0
H1188 H 0.75388 0.45181 0.97254 0.0
C1189 C 0.77833 0.57004 1.00063 0.0
C1190 C 0.78386 1.01465 0.23379 0.0
C1191 C 0.73726 0.02214 0.2113 0.0
H1192 H 0.8266 1.00595 0.30078 0.0
C1193 C 0.69875 0.03241 0.24593 0.0
H1194 H 0.81568 1.0085 0.2107 0.0
C1195 C 0.70541 0.03319 0.29839 0.0
C1196 C 0.75143 0.02416 0.32133 0.0
H1197 H 0.66197 0.03984 0.23226 0.0
H1198 H 0.67325 0.03863 0.32108 0.0
C1199 C 0.79043 1.01525 0.28662 0.0
C1200 C 0.54264 0.26438 0.068 0.0
C1201 C 0.56465 0.24906 0.02339 0.0
H1202 H 0.47543 0.27858 0.10861 0.0
C1203 C 0.53017 0.22848 0.98901 0.0
H1204 H 0.5656 0.27976 0.09661 0.0
C1205 C 0.47825 0.22528 0.99718 0.0
C1206 C 0.45554 0.24286 0.04033 0.0
H1207 H 0.54308 0.21514 0.95385 0.0
H1208 H 0.45528 0.21218 0.96746 0.0
C1209 C 0.49008 0.26163 0.07578 0.0
C1210 C 0.52305 0.76638 0.46602 0.0
C1211 C 0.55856 0.75401 0.50363 0.0
H1212 H 0.44658 0.77711 0.44297 0.0
C1213 C 0.53677 0.74056 0.54864 0.0
H1214 H 0.53652 0.77806 0.4305 0.0
C1215 C 0.48465 0.74239 0.55646 0.0
C1216 C 0.44916 0.75675 0.51979 0.0
H1217 H 0.56038 0.73126 0.57935 0.0
H1218 H 0.47204 0.73286 0.59291 0.0
C1219 C 0.47039 0.76757 0.47356 0.0
C1220 C 0.04392 0.31315 0.7295 0.0
C1221 C 0.0339 0.33419 0.77591 0.0
H1222 H 0.04522 0.2501 0.6821 0.0
C1223 C 0.01962 0.29824 0.8122 0.0
H1224 H 0.05332 0.33719 0.69922 0.0
C1225 C 1.01341 0.24628 0.80217 0.0
C1226 C 0.02109 0.22615 0.75473 0.0
H1227 H 1.0092 0.31125 0.84833 0.0
H1228 H 1.00193 0.22215 0.8317 0.0
C1229 C 0.03756 0.26174 0.71934 0.0
C1230 C 0.49005 0.73152 0.22619 0.0
C1231 C 0.49312 0.7066 0.272 0.0
H1232 H 0.48653 0.79977 0.18542 0.0
C1233 C 0.49599 0.73937 0.31304 0.0
H1234 H 0.49036 0.71001 0.19279 0.0
C1235 C 0.49278 0.79227 0.30873 0.0
C1236 C 0.49078 0.81685 0.26261 0.0
H1237 H 0.50272 0.72426 0.34915 0.0
H1238 H 0.49126 0.814 0.34204 0.0
C1239 C 0.48949 0.78419 0.22176 0.0
C1240 C 0.98564 0.78275 0.56548 0.0
C1241 C 0.94994 0.76701 0.52984 0.0
H1242 H 0.06138 0.78696 0.59083 0.0
C1243 C 0.9718 0.74486 0.48797 0.0
H1244 H 0.97268 0.80156 0.59797 0.0
C1245 C 0.02446 0.73854 0.48288 0.0
C1246 C 0.06016 0.75493 0.51829 0.0
H1247 H 0.94832 0.73333 0.45801 0.0
H1248 H 0.03743 0.7194 0.45054 0.0
C1249 C 0.03818 0.77638 0.56042 0.0
C1250 C 0.02859 0.81249 0.73922 0.0
C1251 C 0.03203 0.83728 0.78492 0.0
H1252 H 0.02034 0.74445 0.69912 0.0
C1253 C 0.03944 0.80445 0.82552 0.0
H1254 H 0.02814 0.83374 0.70584 0.0
C1255 C 0.04019 0.7515 0.82115 0.0
C1256 C 0.03472 0.72652 0.77557 0.0
H1257 H 0.04508 0.82 0.86171 0.0
H1258 H 0.04269 0.72994 0.85456 0.0
C1259 C 0.02818 0.75957 0.73496 0.0
C1260 C 0.56779 0.02618 0.75732 0.0
C1261 C 0.52427 0.04856 0.73895 0.0
H1262 H 0.6082 0.95966 0.77629 0.0
C1263 C 0.488 1.01317 0.72401 0.0
H1264 H 0.59778 0.0498 0.76824 0.0
C1265 C 0.49376 0.96026 0.72911 0.0
C1266 C 0.53743 0.93765 0.74745 0.0
H1267 H 0.45389 0.02671 0.70815 0.0
H1268 H 0.46265 0.93708 0.72046 0.0
C1269 C 0.57408 0.97321 0.76092 0.0
C1270 C 0.23207 0.2452 0.49992 0.0
C1271 C 0.19567 0.27848 0.5197 0.0
H1272 H 0.30828 0.22576 0.48592 0.0
C1273 C 0.21657 0.31918 0.54446 0.0
H1274 H 0.21978 0.21335 0.47943 0.0
C1275 C 0.26924 0.32526 0.54928 0.0
C1276 C 0.30525 0.29299 0.52733 0.0
H1277 H 0.19237 0.34741 0.559 0.0
H1278 H 0.28186 0.35613 0.57081 0.0
C1279 C 0.28423 0.25281 0.5024 0.0
C1280 C 0.47914 0.51158 0.77628 0.0
C1281 C 0.51568 0.54728 0.76221 0.0
H1282 H 0.45742 0.43477 0.78758 0.0
C1283 C 0.56154 0.52548 0.75064 0.0
H1284 H 0.44374 0.52506 0.78878 0.0
C1285 C 0.57029 0.47327 0.7532 0.0
C1286 C 0.53405 0.43736 0.76638 0.0
H1287 H 0.59234 0.54921 0.74252 0.0
H1288 H 0.60712 0.46069 0.74512 0.0
C1289 C 0.48758 0.45868 0.77767 0.0
C1290 C 0.71747 0.33515 0.51679 0.0
C1291 C 0.68888 0.29498 0.49881 0.0
H1292 H 0.79036 0.36665 0.52965 0.0
C1293 C 0.71794 0.25393 0.48414 0.0
H1294 H 0.69868 0.36756 0.53051 0.0
C1295 C 0.77031 0.25249 0.48671 0.0
C1296 C 0.79982 0.29178 0.5046 0.0
H1297 H 0.69955 0.22107 0.47116 0.0
H1298 H 0.78752 0.22051 0.47093 0.0
C1299 C 0.77103 0.33387 0.5184 0.0
C1300 C 0.04292 0.24167 0.07096 0.0
C1301 C 0.06476 0.25748 0.02647 0.0
H1302 H 0.97744 0.22628 0.11287 0.0
C1303 C 0.02928 0.27138 0.98952 0.0
H1304 H 0.06627 0.23177 0.1017 0.0
C1305 C 0.9766 0.26877 0.99607 0.0
C1306 C 0.95502 0.25384 0.04106 0.0
H1307 H 0.04257 0.28618 0.95505 0.0
H1308 H 0.95287 0.2775 0.96517 0.0
C1309 C 0.99053 0.24004 0.07786 0.0
C1310 C 0.50627 0.24034 0.21176 0.0
C1311 C 0.50376 0.20878 0.25379 0.0
H1312 H 0.51209 0.31417 0.18085 0.0
C1313 C 0.50026 0.23542 0.29863 0.0
H1314 H 0.50637 0.22363 0.17577 0.0
C1315 C 0.49952 0.28851 0.30129 0.0
C1316 C 0.50131 0.32008 0.2592 0.0
H1317 H 0.49621 0.21473 0.33239 0.0
H1318 H 0.49949 0.30515 0.33741 0.0
C1319 C 0.50628 0.2935 0.21441 0.0
loop_
_geom_bond_atom_site_label_1
_geom_bond_atom_site_label_2
_geom_bond_distance
_geom_bond_site_symmetry_2
_ccdc_geom_bond_type
O0 Zr5 2.207 . S
O0 C34 1.295 . S
O1 Zr5 2.133 . S
O1 Zr6 2.133 . S
O1 Zr7 2.133 1_655 S
O2 Zr5 2.133 . S
O2 Zr11 2.133 1_655 S
O2 Zr12 2.133 1_655 S
O3 Zr5 2.133 . S
O3 Zr7 2.133 1_655 S
O3 Zr12 2.133 1_655 S
O4 Zr5 2.133 . S
O4 Zr6 2.133 . S
O4 Zr11 2.133 1_655 S
Zr5 O0 2.207 . S
Zr5 O1 2.133 . S
Zr5 O2 2.133 . S
Zr5 O3 2.133 . S
Zr5 O4 2.133 . S
Zr5 O17 2.207 . S
Zr5 O30 2.207 . S
Zr5 O33 2.207 . S
Zr6 O1 2.133 . S
Zr6 O4 2.133 . S
Zr6 O8 2.133 1_655 S
Zr6 O10 2.133 1_655 S
Zr6 O22 2.207 1_655 S
Zr6 O25 2.207 . S
Zr6 O35 2.207 . S
Zr6 O36 2.207 . S
Zr7 O1 2.133 1_455 S
Zr7 O3 2.133 1_455 S
Zr7 O9 2.133 . S
Zr7 O10 2.133 . S
Zr7 O19 2.207 1_455 S
Zr7 O20 2.207 . S
Zr7 O27 2.207 1_455 S
Zr7 O28 2.207 . S
O8 Zr6 2.133 1_455 S
O8 Zr11 2.133 . S
O8 Zr13 2.133 . S
O9 Zr7 2.133 . S
O9 Zr12 2.133 . S
O9 Zr13 2.133 . S
O10 Zr6 2.133 1_455 S
O10 Zr7 2.133 . S
O10 Zr13 2.133 . S
Zr11 O2 2.133 1_455 S
Zr11 O4 2.133 1_455 S
Zr11 O8 2.133 . S
Zr11 O14 2.133 . S
Zr11 O18 2.207 . S
Zr11 O21 2.207 1_455 S
Zr11 O26 2.207 . S
Zr11 O29 2.207 1_455 S
Zr12 O2 2.133 1_455 S
Zr12 O3 2.133 1_455 S
Zr12 O9 2.133 . S
Zr12 O14 2.133 . S
Zr12 O23 2.207 1_455 S
Zr12 O24 2.207 . S
Zr12 O48 2.207 . S
Zr12 O49 2.207 . S
Zr13 O8 2.133 . S
Zr13 O9 2.133 . S
Zr13 O10 2.133 . S
Zr13 O14 2.133 . S
Zr13 O15 2.207 . S
Zr13 O16 2.207 . S
Zr13 O31 2.207 . S
Zr13 O32 2.207 . S
O14 Zr11 2.133 . S
O14 Zr12 2.133 . S
O14 Zr13 2.133 . S
O15 Zr13 2.207 . S
O15 C37 1.295 . S
O16 Zr13 2.207 . S
O16 C38 1.295 . S
O17 Zr5 2.207 . S
O17 C39 1.295 . S
O18 Zr11 2.207 . S
O18 C40 1.295 . S
O19 Zr7 2.207 1_655 S
O19 C41 1.295 . S
O20 Zr7 2.207 . S
O20 C42 1.295 . S
O21 Zr11 2.207 1_655 S
O21 C43 1.295 . S
O22 Zr6 2.207 1_455 S
O22 C44 1.295 . S
O23 Zr12 2.207 1_655 S
O23 C45 1.295 . S
O24 Zr12 2.207 . S
O24 C46 1.295 . S
O25 Zr6 2.207 . S
O25 C47 1.295 . S
O26 Zr11 2.207 . S
O26 C37 1.295 . S
O27 Zr7 2.207 1_655 S
O27 C34 1.295 . S
O28 Zr7 2.207 . S
O28 C38 1.295 . S
O29 Zr11 2.207 1_655 S
O29 C39 1.295 . S
O30 Zr5 2.207 . S
O30 C47 1.295 . S
O31 Zr13 2.207 . S
O31 C46 1.295 . S
O32 Zr13 2.207 . S
O32 C44 1.295 . S
O33 Zr5 2.207 . S
O33 C45 1.295 . S
C34 O0 1.295 . S
C34 O27 1.295 . S
O35 Zr6 2.207 . S
O35 C43 1.295 . S
O36 Zr6 2.207 . S
O36 C41 1.295 . S
C37 O15 1.295 . S
C37 O26 1.295 . S
C38 O16 1.295 . S
C38 O28 1.295 . S
C39 O17 1.295 . S
C39 O29 1.295 . S
C40 O18 1.295 . S
C40 O49 1.295 . S
C41 O19 1.295 . S
C41 O36 1.295 . S
C42 O20 1.295 . S
C42 O48 1.295 . S
C43 O21 1.295 . S
C43 O35 1.295 . S
C44 O22 1.295 . S
C44 O32 1.295 . S
C45 O23 1.295 . S
C45 O33 1.295 . S
C46 O24 1.295 . S
C46 O31 1.295 . S
C47 O25 1.295 . S
C47 O30 1.295 . S
O48 Zr12 2.207 . S
O48 C42 1.295 . S
O49 Zr12 2.207 . S
O49 C40 1.295 . S
O50 Zr55 2.207 . S
O50 C84 1.295 . S
O51 Zr55 2.133 . S
O51 Zr56 2.133 . S
O51 Zr57 2.133 . S
O52 Zr55 2.133 . S
O52 Zr61 2.133 . S
O52 Zr62 2.133 . S
O53 Zr55 2.133 . S
O53 Zr57 2.133 . S
O53 Zr62 2.133 . S
O54 Zr55 2.133 . S
O54 Zr56 2.133 . S
O54 Zr61 2.133 . S
Zr55 O50 2.207 . S
Zr55 O51 2.133 . S
Zr55 O52 2.133 . S
Zr55 O53 2.133 . S
Zr55 O54 2.133 . S
Zr55 O67 2.207 . S
Zr55 O80 2.207 . S
Zr55 O83 2.207 . S
Zr56 O51 2.133 . S
Zr56 O54 2.133 . S
Zr56 O58 2.133 . S
Zr56 O60 2.133 . S
Zr56 O72 2.207 . S
Zr56 O75 2.207 . S
Zr56 O85 2.207 . S
Zr56 O86 2.207 . S
Zr57 O51 2.133 . S
Zr57 O53 2.133 . S
Zr57 O59 2.133 . S
Zr57 O60 2.133 . S
Zr57 O69 2.207 . S
Zr57 O70 2.207 . S
Zr57 O77 2.207 . S
Zr57 O78 2.207 . S
O58 Zr56 2.133 . S
O58 Zr61 2.133 . S
O58 Zr63 2.133 . S
O59 Zr57 2.133 . S
O59 Zr62 2.133 . S
O59 Zr63 2.133 . S
O60 Zr56 2.133 . S
O60 Zr57 2.133 . S
O60 Zr63 2.133 . S
Zr61 O52 2.133 . S
Zr61 O54 2.133 . S
Zr61 O58 2.133 . S
Zr61 O64 2.133 . S
Zr61 O68 2.207 1_556 S
Zr61 O71 2.207 1_556 S
Zr61 O76 2.207 1_556 S
Zr61 O79 2.207 1_556 S
Zr62 O52 2.133 . S
Zr62 O53 2.133 . S
Zr62 O59 2.133 . S
Zr62 O64 2.133 . S
Zr62 O73 2.207 . S
Zr62 O74 2.207 . S
Zr62 O98 2.207 . S
Zr62 O99 2.207 . S
Zr63 O58 2.133 . S
Zr63 O59 2.133 . S
Zr63 O60 2.133 . S
Zr63 O64 2.133 . S
Zr63 O65 2.207 . S
Zr63 O66 2.207 . S
Zr63 O81 2.207 . S
Zr63 O82 2.207 . S
O64 Zr61 2.133 . S
O64 Zr62 2.133 . S
O64 Zr63 2.133 . S
O65 Zr63 2.207 . S
O65 C87 1.295 . S
O66 Zr63 2.207 . S
O66 C88 1.295 . S
O67 Zr55 2.207 . S
O67 C89 1.295 . S
O68 Zr61 2.207 1_554 S
O68 C90 1.295 1_554 S
O69 Zr57 2.207 . S
O69 C91 1.295 . S
O70 Zr57 2.207 . S
O70 C92 1.295 . S
O71 Zr61 2.207 1_554 S
O71 C93 1.295 1_554 S
O72 Zr56 2.207 . S
O72 C94 1.295 . S
O73 Zr62 2.207 . S
O73 C95 1.295 . S
O74 Zr62 2.207 . S
O74 C96 1.295 . S
O75 Zr56 2.207 . S
O75 C97 1.295 . S
O76 Zr61 2.207 1_554 S
O76 C87 1.295 1_554 S
O77 Zr57 2.207 . S
O77 C84 1.295 . S
O78 Zr57 2.207 . S
O78 C88 1.295 . S
O79 Zr61 2.207 1_554 S
O79 C89 1.295 1_554 S
O80 Zr55 2.207 . S
O80 C97 1.295 . S
O81 Zr63 2.207 . S
O81 C96 1.295 . S
O82 Zr63 2.207 . S
O82 C94 1.295 . S
O83 Zr55 2.207 . S
O83 C95 1.295 . S
C84 O50 1.295 . S
C84 O77 1.295 . S
O85 Zr56 2.207 . S
O85 C93 1.295 . S
O86 Zr56 2.207 . S
O86 C91 1.295 . S
C87 O65 1.295 . S
C87 O76 1.295 1_556 S
C88 O66 1.295 . S
C88 O78 1.295 . S
C89 O67 1.295 . S
C89 O79 1.295 1_556 S
C90 O68 1.295 1_556 S
C90 O99 1.295 . S
C91 O69 1.295 . S
C91 O86 1.295 . S
C92 O70 1.295 . S
C92 O98 1.295 . S
C93 O71 1.295 1_556 S
C93 O85 1.295 . S
C94 O72 1.295 . S
C94 O82 1.295 . S
C95 O73 1.295 . S
C95 O83 1.295 . S
C96 O74 1.295 . S
C96 O81 1.295 . S
C97 O75 1.295 . S
C97 O80 1.295 . S
O98 Zr62 2.207 . S
O98 C92 1.295 . S
O99 Zr62 2.207 . S
O99 C90 1.295 . S
O100 Zr105 2.207 1_656 S
O100 C134 1.295 1_556 S
O101 Zr105 2.133 . S
O101 Zr106 2.133 . S
O101 Zr107 2.133 1_455 S
O102 Zr105 2.133 1_655 S
O102 Zr111 2.133 1_655 S
O102 Zr112 2.133 . S
O103 Zr105 2.133 1_655 S
O103 Zr107 2.133 . S
O103 Zr112 2.133 . S
O104 Zr105 2.133 . S
O104 Zr106 2.133 . S
O104 Zr111 2.133 . S
Zr105 O100 2.207 1_454 S
Zr105 O101 2.133 . S
Zr105 O102 2.133 1_455 S
Zr105 O103 2.133 1_455 S
Zr105 O104 2.133 . S
Zr105 O117 2.207 1_554 S
Zr105 O130 2.207 1_554 S
Zr105 O133 2.207 1_454 S
Zr106 O101 2.133 . S
Zr106 O104 2.133 . S
Zr106 O108 2.133 . S
Zr106 O110 2.133 . S
Zr106 O122 2.207 . S
Zr106 O125 2.207 . S
Zr106 O135 2.207 . S
Zr106 O136 2.207 . S
Zr107 O101 2.133 1_655 S
Zr107 O103 2.133 . S
Zr107 O109 2.133 . S
Zr107 O110 2.133 1_655 S
Zr107 O119 2.207 1_655 S
Zr107 O120 2.207 . S
Zr107 O127 2.207 . S
Zr107 O128 2.207 . S
O108 Zr106 2.133 . S
O108 Zr111 2.133 . S
O108 Zr113 2.133 . S
O109 Zr107 2.133 . S
O109 Zr112 2.133 . S
O109 Zr113 2.133 1_655 S
O110 Zr106 2.133 . S
O110 Zr107 2.133 1_455 S
O110 Zr113 2.133 . S
Zr111 O102 2.133 1_455 S
Zr111 O104 2.133 . S
Zr111 O108 2.133 . S
Zr111 O114 2.133 1_455 S
Zr111 O118 2.207 1_455 S
Zr111 O121 2.207 . S
Zr111 O126 2.207 . S
Zr111 O129 2.207 . S
Zr112 O102 2.133 . S
Zr112 O103 2.133 . S
Zr112 O109 2.133 . S
Zr112 O114 2.133 . S
Zr112 O123 2.207 . S
Zr112 O124 2.207 . S
Zr112 O148 2.207 . S
Zr112 O149 2.207 . S
Zr113 O108 2.133 . S
Zr113 O109 2.133 1_455 S
Zr113 O110 2.133 . S
Zr113 O114 2.133 1_455 S
Zr113 O115 2.207 . S
Zr113 O116 2.207 1_455 S
Zr113 O131 2.207 1_455 S
Zr113 O132 2.207 . S
O114 Zr111 2.133 1_655 S
O114 Zr112 2.133 . S
O114 Zr113 2.133 1_655 S
O115 Zr113 2.207 . S
O115 C137 1.295 . S
O116 Zr113 2.207 1_655 S
O116 C138 1.295 . S
O117 Zr105 2.207 1_556 S
O117 C139 1.295 1_556 S
O118 Zr111 2.207 1_655 S
O118 C140 1.295 . S
O119 Zr107 2.207 1_455 S
O119 C141 1.295 . S
O120 Zr107 2.207 . S
O120 C142 1.295 . S
O121 Zr111 2.207 . S
O121 C143 1.295 . S
O122 Zr106 2.207 . S
O122 C144 1.295 . S
O123 Zr112 2.207 . S
O123 C145 1.295 . S
O124 Zr112 2.207 . S
O124 C146 1.295 . S
O125 Zr106 2.207 . S
O125 C147 1.295 . S
O126 Zr111 2.207 . S
O126 C137 1.295 . S
O127 Zr107 2.207 . S
O127 C134 1.295 . S
O128 Zr107 2.207 . S
O128 C138 1.295 . S
O129 Zr111 2.207 . S
O129 C139 1.295 . S
O130 Zr105 2.207 1_556 S
O130 C147 1.295 1_556 S
O131 Zr113 2.207 1_655 S
O131 C146 1.295 . S
O132 Zr113 2.207 . S
O132 C144 1.295 . S
O133 Zr105 2.207 1_656 S
O133 C145 1.295 1_556 S
C134 O100 1.295 1_554 S
C134 O127 1.295 . S
O135 Zr106 2.207 . S
O135 C143 1.295 . S
O136 Zr106 2.207 . S
O136 C141 1.295 . S
C137 O115 1.295 . S
C137 O126 1.295 . S
C138 O116 1.295 . S
C138 O128 1.295 . S
C139 O117 1.295 1_554 S
C139 O129 1.295 . S
C140 O118 1.295 . S
C140 O149 1.295 . S
C141 O119 1.295 . S
C141 O136 1.295 . S
C142 O120 1.295 . S
C142 O148 1.295 . S
C143 O121 1.295 . S
C143 O135 1.295 . S
C144 O122 1.295 . S
C144 O132 1.295 . S
C145 O123 1.295 . S
C145 O133 1.295 1_554 S
C146 O124 1.295 . S
C146 O131 1.295 . S
C147 O125 1.295 . S
C147 O130 1.295 1_554 S
O148 Zr112 2.207 . S
O148 C142 1.295 . S
O149 Zr112 2.207 . S
O149 C140 1.295 . S
O150 Zr155 2.207 . S
O150 C184 1.295 . S
O151 Zr155 2.133 . S
O151 Zr156 2.133 . S
O151 Zr157 2.133 . S
O152 Zr155 2.133 1_565 S
O152 Zr161 2.133 . S
O152 Zr162 2.133 . S
O153 Zr155 2.133 1_565 S
O153 Zr157 2.133 1_565 S
O153 Zr162 2.133 . S
O154 Zr155 2.133 . S
O154 Zr156 2.133 . S
O154 Zr161 2.133 1_545 S
Zr155 O150 2.207 . S
Zr155 O151 2.133 . S
Zr155 O152 2.133 1_545 S
Zr155 O153 2.133 1_545 S
Zr155 O154 2.133 . S
Zr155 O167 2.207 1_545 S
Zr155 O180 2.207 . S
Zr155 O183 2.207 1_545 S
Zr156 O151 2.133 . S
Zr156 O154 2.133 . S
Zr156 O158 2.133 . S
Zr156 O160 2.133 . S
Zr156 O172 2.207 . S
Zr156 O175 2.207 . S
Zr156 O185 2.207 . S
Zr156 O186 2.207 . S
Zr157 O151 2.133 . S
Zr157 O153 2.133 1_545 S
Zr157 O159 2.133 1_545 S
Zr157 O160 2.133 . S
Zr157 O169 2.207 . S
Zr157 O170 2.207 1_545 S
Zr157 O177 2.207 . S
Zr157 O178 2.207 . S
O158 Zr156 2.133 . S
O158 Zr161 2.133 1_545 S
O158 Zr163 2.133 . S
O159 Zr157 2.133 1_565 S
O159 Zr162 2.133 . S
O159 Zr163 2.133 1_565 S
O160 Zr156 2.133 . S
O160 Zr157 2.133 . S
O160 Zr163 2.133 . S
Zr161 O152 2.133 . S
Zr161 O154 2.133 1_565 S
Zr161 O158 2.133 1_565 S
Zr161 O164 2.133 . S
Zr161 O168 2.207 . S
Zr161 O171 2.207 1_565 S
Zr161 O176 2.207 . S
Zr161 O179 2.207 . S
Zr162 O152 2.133 . S
Zr162 O153 2.133 . S
Zr162 O159 2.133 . S
Zr162 O164 2.133 . S
Zr162 O173 2.207 . S
Zr162 O174 2.207 . S
Zr162 O198 2.207 . S
Zr162 O199 2.207 . S
Zr163 O158 2.133 . S
Zr163 O159 2.133 1_545 S
Zr163 O160 2.133 . S
Zr163 O164 2.133 1_545 S
Zr163 O165 2.207 1_545 S
Zr163 O166 2.207 . S
Zr163 O181 2.207 1_545 S
Zr163 O182 2.207 . S
O164 Zr161 2.133 . S
O164 Zr162 2.133 . S
O164 Zr163 2.133 1_565 S
O165 Zr163 2.207 1_565 S
O165 C187 1.295 . S
O166 Zr163 2.207 . S
O166 C188 1.295 . S
O167 Zr155 2.207 1_565 S
O167 C189 1.295 . S
O168 Zr161 2.207 . S
O168 C190 1.295 . S
O169 Zr157 2.207 . S
O169 C191 1.295 . S
O170 Zr157 2.207 1_565 S
O170 C192 1.295 . S
O171 Zr161 2.207 1_545 S
O171 C193 1.295 . S
O172 Zr156 2.207 . S
O172 C194 1.295 . S
O173 Zr162 2.207 . S
O173 C195 1.295 . S
O174 Zr162 2.207 . S
O174 C196 1.295 . S
O175 Zr156 2.207 . S
O175 C197 1.295 . S
O176 Zr161 2.207 . S
O176 C187 1.295 . S
O177 Zr157 2.207 . S
O177 C184 1.295 . S
O178 Zr157 2.207 . S
O178 C188 1.295 . S
O179 Zr161 2.207 . S
O179 C189 1.295 . S
O180 Zr155 2.207 . S
O180 C197 1.295 . S
O181 Zr163 2.207 1_565 S
O181 C196 1.295 . S
O182 Zr163 2.207 . S
O182 C194 1.295 . S
O183 Zr155 2.207 1_565 S
O183 C195 1.295 . S
C184 O150 1.295 . S
C184 O177 1.295 . S
O185 Zr156 2.207 . S
O185 C193 1.295 . S
O186 Zr156 2.207 . S
O186 C191 1.295 . S
C187 O165 1.295 . S
C187 O176 1.295 . S
C188 O166 1.295 . S
C188 O178 1.295 . S
C189 O167 1.295 . S
C189 O179 1.295 . S
C190 O168 1.295 . S
C190 O199 1.295 . S
C191 O169 1.295 . S
C191 O186 1.295 . S
C192 O170 1.295 . S
C192 O198 1.295 . S
C193 O171 1.295 . S
C193 O185 1.295 . S
C194 O172 1.295 . S
C194 O182 1.295 . S
C195 O173 1.295 . S
C195 O183 1.295 . S
C196 O174 1.295 . S
C196 O181 1.295 . S
C197 O175 1.295 . S
C197 O180 1.295 . S
O198 Zr162 2.207 . S
O198 C192 1.295 . S
O199 Zr162 2.207 . S
O199 C190 1.295 . S
O200 Zr205 2.207 . S
O200 C234 1.295 . S
O201 Zr205 2.133 . S
O201 Zr206 2.133 . S
O201 Zr207 2.133 . S
O202 Zr205 2.133 1_556 S
O202 Zr211 2.133 . S
O202 Zr212 2.133 . S
O203 Zr205 2.133 1_556 S
O203 Zr207 2.133 1_556 S
O203 Zr212 2.133 . S
O204 Zr205 2.133 . S
O204 Zr206 2.133 . S
O204 Zr211 2.133 1_554 S
Zr205 O200 2.207 . S
Zr205 O201 2.133 . S
Zr205 O202 2.133 1_554 S
Zr205 O203 2.133 1_554 S
Zr205 O204 2.133 . S
Zr205 O217 2.207 1_554 S
Zr205 O230 2.207 . S
Zr205 O233 2.207 1_554 S
Zr206 O201 2.133 . S
Zr206 O204 2.133 . S
Zr206 O208 2.133 . S
Zr206 O210 2.133 . S
Zr206 O222 2.207 . S
Zr206 O225 2.207 . S
Zr206 O235 2.207 . S
Zr206 O236 2.207 . S
Zr207 O201 2.133 . S
Zr207 O203 2.133 1_554 S
Zr207 O209 2.133 1_554 S
Zr207 O210 2.133 . S
Zr207 O219 2.207 . S
Zr207 O220 2.207 1_554 S
Zr207 O227 2.207 . S
Zr207 O228 2.207 . S
O208 Zr206 2.133 . S
O208 Zr211 2.133 1_554 S
O208 Zr213 2.133 . S
O209 Zr207 2.133 1_556 S
O209 Zr212 2.133 . S
O209 Zr213 2.133 1_556 S
O210 Zr206 2.133 . S
O210 Zr207 2.133 . S
O210 Zr213 2.133 . S
Zr211 O202 2.133 . S
Zr211 O204 2.133 1_556 S
Zr211 O208 2.133 1_556 S
Zr211 O214 2.133 . S
Zr211 O218 2.207 . S
Zr211 O221 2.207 1_556 S
Zr211 O226 2.207 . S
Zr211 O229 2.207 . S
Zr212 O202 2.133 . S
Zr212 O203 2.133 . S
Zr212 O209 2.133 . S
Zr212 O214 2.133 . S
Zr212 O223 2.207 . S
Zr212 O224 2.207 . S
Zr212 O248 2.207 . S
Zr212 O249 2.207 . S
Zr213 O208 2.133 . S
Zr213 O209 2.133 1_554 S
Zr213 O210 2.133 . S
Zr213 O214 2.133 1_554 S
Zr213 O215 2.207 1_554 S
Zr213 O216 2.207 . S
Zr213 O231 2.207 1_554 S
Zr213 O232 2.207 . S
O214 Zr211 2.133 . S
O214 Zr212 2.133 . S
O214 Zr213 2.133 1_556 S
O215 Zr213 2.207 1_556 S
O215 C237 1.295 . S
O216 Zr213 2.207 . S
O216 C238 1.295 . S
O217 Zr205 2.207 1_556 S
O217 C239 1.295 . S
O218 Zr211 2.207 . S
O218 C240 1.295 . S
O219 Zr207 2.207 . S
O219 C241 1.295 . S
O220 Zr207 2.207 1_556 S
O220 C242 1.295 . S
O221 Zr211 2.207 1_554 S
O221 C243 1.295 . S
O222 Zr206 2.207 . S
O222 C244 1.295 . S
O223 Zr212 2.207 . S
O223 C245 1.295 . S
O224 Zr212 2.207 . S
O224 C246 1.295 . S
O225 Zr206 2.207 . S
O225 C247 1.295 . S
O226 Zr211 2.207 . S
O226 C237 1.295 . S
O227 Zr207 2.207 . S
O227 C234 1.295 . S
O228 Zr207 2.207 . S
O228 C238 1.295 . S
O229 Zr211 2.207 . S
O229 C239 1.295 . S
O230 Zr205 2.207 . S
O230 C247 1.295 . S
O231 Zr213 2.207 1_556 S
O231 C246 1.295 . S
O232 Zr213 2.207 . S
O232 C244 1.295 . S
O233 Zr205 2.207 1_556 S
O233 C245 1.295 . S
C234 O200 1.295 . S
C234 O227 1.295 . S
O235 Zr206 2.207 . S
O235 C243 1.295 . S
O236 Zr206 2.207 . S
O236 C241 1.295 . S
C237 O215 1.295 . S
C237 O226 1.295 . S
C238 O216 1.295 . S
C238 O228 1.295 . S
C239 O217 1.295 . S
C239 O229 1.295 . S
C240 O218 1.295 . S
C240 O249 1.295 . S
C241 O219 1.295 . S
C241 O236 1.295 . S
C242 O220 1.295 . S
C242 O248 1.295 . S
C243 O221 1.295 . S
C243 O235 1.295 . S
C244 O222 1.295 . S
C244 O232 1.295 . S
C245 O223 1.295 . S
C245 O233 1.295 . S
C246 O224 1.295 . S
C246 O231 1.295 . S
C247 O225 1.295 . S
C247 O230 1.295 . S
O248 Zr212 2.207 . S
O248 C242 1.295 . S
O249 Zr212 2.207 . S
O249 C240 1.295 . S
O250 Zr255 2.207 . S
O250 C284 1.295 . S
O251 Zr255 2.133 . S
O251 Zr256 2.133 . S
O251 Zr257 2.133 . S
O252 Zr255 2.133 . S
O252 Zr261 2.133 . S
O252 Zr262 2.133 . S
O253 Zr255 2.133 . S
O253 Zr257 2.133 . S
O253 Zr262 2.133 . S
O254 Zr255 2.133 . S
O254 Zr256 2.133 . S
O254 Zr261 2.133 . S
Zr255 O250 2.207 . S
Zr255 O251 2.133 . S
Zr255 O252 2.133 . S
Zr255 O253 2.133 . S
Zr255 O254 2.133 . S
Zr255 O267 2.207 . S
Zr255 O280 2.207 . S
Zr255 O283 2.207 . S
Zr256 O251 2.133 . S
Zr256 O254 2.133 . S
Zr256 O258 2.133 . S
Zr256 O260 2.133 . S
Zr256 O272 2.207 . S
Zr256 O275 2.207 . S
Zr256 O285 2.207 . S
Zr256 O286 2.207 . S
Zr257 O251 2.133 . S
Zr257 O253 2.133 . S
Zr257 O259 2.133 . S
Zr257 O260 2.133 . S
Zr257 O269 2.207 . S
Zr257 O270 2.207 . S
Zr257 O277 2.207 . S
Zr257 O278 2.207 . S
O258 Zr256 2.133 . S
O258 Zr261 2.133 . S
O258 Zr263 2.133 . S
O259 Zr257 2.133 . S
O259 Zr262 2.133 . S
O259 Zr263 2.133 . S
O260 Zr256 2.133 . S
O260 Zr257 2.133 . S
O260 Zr263 2.133 . S
Zr261 O252 2.133 . S
Zr261 O254 2.133 . S
Zr261 O258 2.133 . S
Zr261 O264 2.133 . S
Zr261 O268 2.207 . S
Zr261 O271 2.207 . S
Zr261 O276 2.207 . S
Zr261 O279 2.207 . S
Zr262 O252 2.133 . S
Zr262 O253 2.133 . S
Zr262 O259 2.133 . S
Zr262 O264 2.133 . S
Zr262 O273 2.207 . S
Zr262 O274 2.207 . S
Zr262 O298 2.207 . S
Zr262 O299 2.207 . S
Zr263 O258 2.133 . S
Zr263 O259 2.133 . S
Zr263 O260 2.133 . S
Zr263 O264 2.133 . S
Zr263 O265 2.207 . S
Zr263 O266 2.207 . S
Zr263 O281 2.207 . S
Zr263 O282 2.207 . S
O264 Zr261 2.133 . S
O264 Zr262 2.133 . S
O264 Zr263 2.133 . S
O265 Zr263 2.207 . S
O265 C287 1.295 . S
O266 Zr263 2.207 . S
O266 C288 1.295 . S
O267 Zr255 2.207 . S
O267 C289 1.295 . S
O268 Zr261 2.207 . S
O268 C290 1.295 . S
O269 Zr257 2.207 . S
O269 C291 1.295 . S
O270 Zr257 2.207 . S
O270 C292 1.295 . S
O271 Zr261 2.207 . S
O271 C293 1.295 . S
O272 Zr256 2.207 . S
O272 C294 1.295 . S
O273 Zr262 2.207 . S
O273 C295 1.295 . S
O274 Zr262 2.207 . S
O274 C296 1.295 . S
O275 Zr256 2.207 . S
O275 C297 1.295 . S
O276 Zr261 2.207 . S
O276 C287 1.295 . S
O277 Zr257 2.207 . S
O277 C284 1.295 . S
O278 Zr257 2.207 . S
O278 C288 1.295 . S
O279 Zr261 2.207 . S
O279 C289 1.295 . S
O280 Zr255 2.207 . S
O280 C297 1.295 . S
O281 Zr263 2.207 . S
O281 C296 1.295 . S
O282 Zr263 2.207 . S
O282 C294 1.295 . S
O283 Zr255 2.207 . S
O283 C295 1.295 . S
C284 O250 1.295 . S
C284 O277 1.295 . S
O285 Zr256 2.207 . S
O285 C293 1.295 . S
O286 Zr256 2.207 . S
O286 C291 1.295 . S
C287 O265 1.295 . S
C287 O276 1.295 . S
C288 O266 1.295 . S
C288 O278 1.295 . S
C289 O267 1.295 . S
C289 O279 1.295 . S
C290 O268 1.295 . S
C290 O299 1.295 . S
C291 O269 1.295 . S
C291 O286 1.295 . S
C292 O270 1.295 . S
C292 O298 1.295 . S
C293 O271 1.295 . S
C293 O285 1.295 . S
C294 O272 1.295 . S
C294 O282 1.295 . S
C295 O273 1.295 . S
C295 O283 1.295 . S
C296 O274 1.295 . S
C296 O281 1.295 . S
C297 O275 1.295 . S
C297 O280 1.295 . S
O298 Zr262 2.207 . S
O298 C292 1.295 . S
O299 Zr262 2.207 . S
O299 C290 1.295 . S
O300 Zr305 2.207 . S
O300 C334 1.295 . S
O301 Zr305 2.133 . S
O301 Zr306 2.133 1_556 S
O301 Zr307 2.133 1_556 S
O302 Zr305 2.133 . S
O302 Zr311 2.133 1_556 S
O302 Zr312 2.133 . S
O303 Zr305 2.133 . S
O303 Zr307 2.133 1_556 S
O303 Zr312 2.133 . S
O304 Zr305 2.133 . S
O304 Zr306 2.133 1_556 S
O304 Zr311 2.133 1_556 S
Zr305 O300 2.207 . S
Zr305 O301 2.133 . S
Zr305 O302 2.133 . S
Zr305 O303 2.133 . S
Zr305 O304 2.133 . S
Zr305 O317 2.207 . S
Zr305 O330 2.207 . S
Zr305 O333 2.207 . S
Zr306 O301 2.133 1_554 S
Zr306 O304 2.133 1_554 S
Zr306 O308 2.133 . S
Zr306 O310 2.133 . S
Zr306 O322 2.207 . S
Zr306 O325 2.207 1_554 S
Zr306 O335 2.207 . S
Zr306 O336 2.207 . S
Zr307 O301 2.133 1_554 S
Zr307 O303 2.133 1_554 S
Zr307 O309 2.133 . S
Zr307 O310 2.133 . S
Zr307 O319 2.207 1_545 S
Zr307 O320 2.207 1_544 S
Zr307 O327 2.207 1_544 S
Zr307 O328 2.207 1_545 S
O308 Zr306 2.133 . S
O308 Zr311 2.133 . S
O308 Zr313 2.133 . S
O309 Zr307 2.133 . S
O309 Zr312 2.133 1_554 S
O309 Zr313 2.133 . S
O310 Zr306 2.133 . S
O310 Zr307 2.133 . S
O310 Zr313 2.133 . S
Zr311 O302 2.133 1_554 S
Zr311 O304 2.133 1_554 S
Zr311 O308 2.133 . S
Zr311 O314 2.133 . S
Zr311 O318 2.207 1_554 S
Zr311 O321 2.207 . S
Zr311 O326 2.207 . S
Zr311 O329 2.207 1_554 S
Zr312 O302 2.133 . S
Zr312 O303 2.133 . S
Zr312 O309 2.133 1_556 S
Zr312 O314 2.133 1_556 S
Zr312 O323 2.207 . S
Zr312 O324 2.207 1_556 S
Zr312 O348 2.207 . S
Zr312 O349 2.207 . S
Zr313 O308 2.133 . S
Zr313 O309 2.133 . S
Zr313 O310 2.133 . S
Zr313 O314 2.133 . S
Zr313 O315 2.207 . S
Zr313 O316 2.207 . S
Zr313 O331 2.207 . S
Zr313 O332 2.207 . S
O314 Zr311 2.133 . S
O314 Zr312 2.133 1_554 S
O314 Zr313 2.133 . S
O315 Zr313 2.207 . S
O315 C337 1.295 . S
O316 Zr313 2.207 . S
O316 C338 1.295 . S
O317 Zr305 2.207 . S
O317 C339 1.295 . S
O318 Zr311 2.207 1_556 S
O318 C340 1.295 . S
O319 Zr307 2.207 1_565 S
O319 C341 1.295 1_565 S
O320 Zr307 2.207 1_566 S
O320 C342 1.295 1_565 S
O321 Zr311 2.207 . S
O321 C343 1.295 . S
O322 Zr306 2.207 . S
O322 C344 1.295 . S
O323 Zr312 2.207 . S
O323 C345 1.295 . S
O324 Zr312 2.207 1_554 S
O324 C346 1.295 . S
O325 Zr306 2.207 1_556 S
O325 C347 1.295 . S
O326 Zr311 2.207 . S
O326 C337 1.295 . S
O327 Zr307 2.207 1_566 S
O327 C334 1.295 1_565 S
O328 Zr307 2.207 1_565 S
O328 C338 1.295 1_565 S
O329 Zr311 2.207 1_556 S
O329 C339 1.295 . S
O330 Zr305 2.207 . S
O330 C347 1.295 . S
O331 Zr313 2.207 . S
O331 C346 1.295 . S
O332 Zr313 2.207 . S
O332 C344 1.295 . S
O333 Zr305 2.207 . S
O333 C345 1.295 . S
C334 O300 1.295 . S
C334 O327 1.295 1_545 S
O335 Zr306 2.207 . S
O335 C343 1.295 . S
O336 Zr306 2.207 . S
O336 C341 1.295 . S
C337 O315 1.295 . S
C337 O326 1.295 . S
C338 O316 1.295 . S
C338 O328 1.295 1_545 S
C339 O317 1.295 . S
C339 O329 1.295 . S
C340 O318 1.295 . S
C340 O349 1.295 . S
C341 O319 1.295 1_545 S
C341 O336 1.295 . S
C342 O320 1.295 1_545 S
C342 O348 1.295 . S
C343 O321 1.295 . S
C343 O335 1.295 . S
C344 O322 1.295 . S
C344 O332 1.295 . S
C345 O323 1.295 . S
C345 O333 1.295 . S
C346 O324 1.295 . S
C346 O331 1.295 . S
C347 O325 1.295 . S
C347 O330 1.295 . S
O348 Zr312 2.207 . S
O348 C342 1.295 . S
O349 Zr312 2.207 . S
O349 C340 1.295 . S
O350 Zr355 2.207 . S
O350 C384 1.295 . S
O351 Zr355 2.133 . S
O351 Zr356 2.133 . S
O351 Zr357 2.133 . S
O352 Zr355 2.133 . S
O352 Zr361 2.133 . S
O352 Zr362 2.133 . S
O353 Zr355 2.133 . S
O353 Zr357 2.133 . S
O353 Zr362 2.133 . S
O354 Zr355 2.133 . S
O354 Zr356 2.133 . S
O354 Zr361 2.133 . S
Zr355 O350 2.207 . S
Zr355 O351 2.133 . S
Zr355 O352 2.133 . S
Zr355 O353 2.133 . S
Zr355 O354 2.133 . S
Zr355 O367 2.207 . S
Zr355 O380 2.207 . S
Zr355 O383 2.207 . S
Zr356 O351 2.133 . S
Zr356 O354 2.133 . S
Zr356 O358 2.133 . S
Zr356 O360 2.133 . S
Zr356 O372 2.207 . S
Zr356 O375 2.207 . S
Zr356 O385 2.207 . S
Zr356 O386 2.207 . S
Zr357 O351 2.133 . S
Zr357 O353 2.133 . S
Zr357 O359 2.133 . S
Zr357 O360 2.133 . S
Zr357 O369 2.207 . S
Zr357 O370 2.207 . S
Zr357 O377 2.207 . S
Zr357 O378 2.207 . S
O358 Zr356 2.133 . S
O358 Zr361 2.133 . S
O358 Zr363 2.133 . S
O359 Zr357 2.133 . S
O359 Zr362 2.133 . S
O359 Zr363 2.133 . S
O360 Zr356 2.133 . S
O360 Zr357 2.133 . S
O360 Zr363 2.133 . S
Zr361 O352 2.133 . S
Zr361 O354 2.133 . S
Zr361 O358 2.133 . S
Zr361 O364 2.133 . S
Zr361 O368 2.207 . S
Zr361 O371 2.207 . S
Zr361 O376 2.207 . S
Zr361 O379 2.207 . S
Zr362 O352 2.133 . S
Zr362 O353 2.133 . S
Zr362 O359 2.133 . S
Zr362 O364 2.133 . S
Zr362 O373 2.207 . S
Zr362 O374 2.207 . S
Zr362 O398 2.207 . S
Zr362 O399 2.207 . S
Zr363 O358 2.133 . S
Zr363 O359 2.133 . S
Zr363 O360 2.133 . S
Zr363 O364 2.133 . S
Zr363 O365 2.207 . S
Zr363 O366 2.207 . S
Zr363 O381 2.207 . S
Zr363 O382 2.207 . S
O364 Zr361 2.133 . S
O364 Zr362 2.133 . S
O364 Zr363 2.133 . S
O365 Zr363 2.207 . S
O365 C387 1.295 . S
O366 Zr363 2.207 . S
O366 C388 1.295 . S
O367 Zr355 2.207 . S
O367 C389 1.295 . S
O368 Zr361 2.207 . S
O368 C390 1.295 . S
O369 Zr357 2.207 . S
O369 C391 1.295 . S
O370 Zr357 2.207 . S
O370 C392 1.295 . S
O371 Zr361 2.207 . S
O371 C393 1.295 . S
O372 Zr356 2.207 . S
O372 C394 1.295 . S
O373 Zr362 2.207 . S
O373 C395 1.295 . S
O374 Zr362 2.207 . S
O374 C396 1.295 . S
O375 Zr356 2.207 . S
O375 C397 1.295 . S
O376 Zr361 2.207 . S
O376 C387 1.295 . S
O377 Zr357 2.207 . S
O377 C384 1.295 . S
O378 Zr357 2.207 . S
O378 C388 1.295 . S
O379 Zr361 2.207 . S
O379 C389 1.295 . S
O380 Zr355 2.207 . S
O380 C397 1.295 . S
O381 Zr363 2.207 . S
O381 C396 1.295 . S
O382 Zr363 2.207 . S
O382 C394 1.295 . S
O383 Zr355 2.207 . S
O383 C395 1.295 . S
C384 O350 1.295 . S
C384 O377 1.295 . S
O385 Zr356 2.207 . S
O385 C393 1.295 . S
O386 Zr356 2.207 . S
O386 C391 1.295 . S
C387 O365 1.295 . S
C387 O376 1.295 . S
C388 O366 1.295 . S
C388 O378 1.295 . S
C389 O367 1.295 . S
C389 O379 1.295 . S
C390 O368 1.295 . S
C390 O399 1.295 . S
C391 O369 1.295 . S
C391 O386 1.295 . S
C392 O370 1.295 . S
C392 O398 1.295 . S
C393 O371 1.295 . S
C393 O385 1.295 . S
C394 O372 1.295 . S
C394 O382 1.295 . S
C395 O373 1.295 . S
C395 O383 1.295 . S
C396 O374 1.295 . S
C396 O381 1.295 . S
C397 O375 1.295 . S
C397 O380 1.295 . S
O398 Zr362 2.207 . S
O398 C392 1.295 . S
O399 Zr362 2.207 . S
O399 C390 1.295 . S
O400 Zr405 2.207 . S
O400 C434 1.295 . S
O401 Zr405 2.133 . S
O401 Zr406 2.133 . S
O401 Zr407 2.133 . S
O402 Zr405 2.133 . S
O402 Zr411 2.133 . S
O402 Zr412 2.133 . S
O403 Zr405 2.133 . S
O403 Zr407 2.133 . S
O403 Zr412 2.133 . S
O404 Zr405 2.133 . S
O404 Zr406 2.133 . S
O404 Zr411 2.133 . S
Zr405 O400 2.207 . S
Zr405 O401 2.133 . S
Zr405 O402 2.133 . S
Zr405 O403 2.133 . S
Zr405 O404 2.133 . S
Zr405 O417 2.207 . S
Zr405 O430 2.207 . S
Zr405 O433 2.207 . S
Zr406 O401 2.133 . S
Zr406 O404 2.133 . S
Zr406 O408 2.133 . S
Zr406 O410 2.133 . S
Zr406 O422 2.207 . S
Zr406 O425 2.207 . S
Zr406 O435 2.207 . S
Zr406 O436 2.207 . S
Zr407 O401 2.133 . S
Zr407 O403 2.133 . S
Zr407 O409 2.133 . S
Zr407 O410 2.133 . S
Zr407 O419 2.207 . S
Zr407 O420 2.207 . S
Zr407 O427 2.207 . S
Zr407 O428 2.207 . S
O408 Zr406 2.133 . S
O408 Zr411 2.133 . S
O408 Zr413 2.133 . S
O409 Zr407 2.133 . S
O409 Zr412 2.133 . S
O409 Zr413 2.133 . S
O410 Zr406 2.133 . S
O410 Zr407 2.133 . S
O410 Zr413 2.133 . S
Zr411 O402 2.133 . S
Zr411 O404 2.133 . S
Zr411 O408 2.133 . S
Zr411 O414 2.133 . S
Zr411 O418 2.207 . S
Zr411 O421 2.207 . S
Zr411 O426 2.207 . S
Zr411 O429 2.207 . S
Zr412 O402 2.133 . S
Zr412 O403 2.133 . S
Zr412 O409 2.133 . S
Zr412 O414 2.133 . S
Zr412 O423 2.207 . S
Zr412 O424 2.207 . S
Zr412 O448 2.207 . S
Zr412 O449 2.207 . S
Zr413 O408 2.133 . S
Zr413 O409 2.133 . S
Zr413 O410 2.133 . S
Zr413 O414 2.133 . S
Zr413 O415 2.207 1_655 S
Zr413 O416 2.207 1_655 S
Zr413 O431 2.207 1_655 S
Zr413 O432 2.207 1_655 S
O414 Zr411 2.133 . S
O414 Zr412 2.133 . S
O414 Zr413 2.133 . S
O415 Zr413 2.207 1_455 S
O415 C437 1.295 1_455 S
O416 Zr413 2.207 1_455 S
O416 C438 1.295 1_455 S
O417 Zr405 2.207 . S
O417 C439 1.295 . S
O418 Zr411 2.207 . S
O418 C440 1.295 . S
O419 Zr407 2.207 . S
O419 C441 1.295 . S
O420 Zr407 2.207 . S
O420 C442 1.295 . S
O421 Zr411 2.207 . S
O421 C443 1.295 . S
O422 Zr406 2.207 . S
O422 C444 1.295 . S
O423 Zr412 2.207 . S
O423 C445 1.295 . S
O424 Zr412 2.207 . S
O424 C446 1.295 . S
O425 Zr406 2.207 . S
O425 C447 1.295 . S
O426 Zr411 2.207 . S
O426 C437 1.295 . S
O427 Zr407 2.207 . S
O427 C434 1.295 . S
O428 Zr407 2.207 . S
O428 C438 1.295 . S
O429 Zr411 2.207 . S
O429 C439 1.295 . S
O430 Zr405 2.207 . S
O430 C447 1.295 . S
O431 Zr413 2.207 1_455 S
O431 C446 1.295 1_455 S
O432 Zr413 2.207 1_455 S
O432 C444 1.295 1_455 S
O433 Zr405 2.207 . S
O433 C445 1.295 . S
C434 O400 1.295 . S
C434 O427 1.295 . S
O435 Zr406 2.207 . S
O435 C443 1.295 . S
O436 Zr406 2.207 . S
O436 C441 1.295 . S
C437 O415 1.295 1_655 S
C437 O426 1.295 . S
C438 O416 1.295 1_655 S
C438 O428 1.295 . S
C439 O417 1.295 . S
C439 O429 1.295 . S
C440 O418 1.295 . S
C440 O449 1.295 . S
C441 O419 1.295 . S
C441 O436 1.295 . S
C442 O420 1.295 . S
C442 O448 1.295 . S
C443 O421 1.295 . S
C443 O435 1.295 . S
C444 O422 1.295 . S
C444 O432 1.295 1_655 S
C445 O423 1.295 . S
C445 O433 1.295 . S
C446 O424 1.295 . S
C446 O431 1.295 1_655 S
C447 O425 1.295 . S
C447 O430 1.295 . S
O448 Zr412 2.207 . S
O448 C442 1.295 . S
O449 Zr412 2.207 . S
O449 C440 1.295 . S
O450 Zr455 2.207 . S
O450 C484 1.295 . S
O451 Zr455 2.133 . S
O451 Zr456 2.133 . S
O451 Zr457 2.133 . S
O452 Zr455 2.133 . S
O452 Zr461 2.133 . S
O452 Zr462 2.133 . S
O453 Zr455 2.133 . S
O453 Zr457 2.133 . S
O453 Zr462 2.133 . S
O454 Zr455 2.133 . S
O454 Zr456 2.133 . S
O454 Zr461 2.133 . S
Zr455 O450 2.207 . S
Zr455 O451 2.133 . S
Zr455 O452 2.133 . S
Zr455 O453 2.133 . S
Zr455 O454 2.133 . S
Zr455 O467 2.207 . S
Zr455 O480 2.207 . S
Zr455 O483 2.207 . S
Zr456 O451 2.133 . S
Zr456 O454 2.133 . S
Zr456 O458 2.133 . S
Zr456 O460 2.133 . S
Zr456 O472 2.207 . S
Zr456 O475 2.207 . S
Zr456 O485 2.207 . S
Zr456 O486 2.207 . S
Zr457 O451 2.133 . S
Zr457 O453 2.133 . S
Zr457 O459 2.133 . S
Zr457 O460 2.133 . S
Zr457 O469 2.207 . S
Zr457 O470 2.207 . S
Zr457 O477 2.207 . S
Zr457 O478 2.207 . S
O458 Zr456 2.133 . S
O458 Zr461 2.133 . S
O458 Zr463 2.133 . S
O459 Zr457 2.133 . S
O459 Zr462 2.133 . S
O459 Zr463 2.133 . S
O460 Zr456 2.133 . S
O460 Zr457 2.133 . S
O460 Zr463 2.133 . S
Zr461 O452 2.133 . S
Zr461 O454 2.133 . S
Zr461 O458 2.133 . S
Zr461 O464 2.133 . S
Zr461 O468 2.207 . S
Zr461 O471 2.207 . S
Zr461 O476 2.207 . S
Zr461 O479 2.207 . S
Zr462 O452 2.133 . S
Zr462 O453 2.133 . S
Zr462 O459 2.133 . S
Zr462 O464 2.133 . S
Zr462 O473 2.207 . S
Zr462 O474 2.207 . S
Zr462 O498 2.207 . S
Zr462 O499 2.207 . S
Zr463 O458 2.133 . S
Zr463 O459 2.133 . S
Zr463 O460 2.133 . S
Zr463 O464 2.133 . S
Zr463 O465 2.207 1_565 S
Zr463 O466 2.207 1_565 S
Zr463 O481 2.207 1_565 S
Zr463 O482 2.207 1_565 S
O464 Zr461 2.133 . S
O464 Zr462 2.133 . S
O464 Zr463 2.133 . S
O465 Zr463 2.207 1_545 S
O465 C487 1.295 1_545 S
O466 Zr463 2.207 1_545 S
O466 C488 1.295 1_545 S
O467 Zr455 2.207 . S
O467 C489 1.295 . S
O468 Zr461 2.207 . S
O468 C490 1.295 . S
O469 Zr457 2.207 . S
O469 C491 1.295 . S
O470 Zr457 2.207 . S
O470 C492 1.295 . S
O471 Zr461 2.207 . S
O471 C493 1.295 . S
O472 Zr456 2.207 . S
O472 C494 1.295 . S
O473 Zr462 2.207 . S
O473 C495 1.295 . S
O474 Zr462 2.207 . S
O474 C496 1.295 . S
O475 Zr456 2.207 . S
O475 C497 1.295 . S
O476 Zr461 2.207 . S
O476 C487 1.295 . S
O477 Zr457 2.207 . S
O477 C484 1.295 . S
O478 Zr457 2.207 . S
O478 C488 1.295 . S
O479 Zr461 2.207 . S
O479 C489 1.295 . S
O480 Zr455 2.207 . S
O480 C497 1.295 . S
O481 Zr463 2.207 1_545 S
O481 C496 1.295 1_545 S
O482 Zr463 2.207 1_545 S
O482 C494 1.295 1_545 S
O483 Zr455 2.207 . S
O483 C495 1.295 . S
C484 O450 1.295 . S
C484 O477 1.295 . S
O485 Zr456 2.207 . S
O485 C493 1.295 . S
O486 Zr456 2.207 . S
O486 C491 1.295 . S
C487 O465 1.295 1_565 S
C487 O476 1.295 . S
C488 O466 1.295 1_565 S
C488 O478 1.295 . S
C489 O467 1.295 . S
C489 O479 1.295 . S
C490 O468 1.295 . S
C490 O499 1.295 . S
C491 O469 1.295 . S
C491 O486 1.295 . S
C492 O470 1.295 . S
C492 O498 1.295 . S
C493 O471 1.295 . S
C493 O485 1.295 . S
C494 O472 1.295 . S
C494 O482 1.295 1_565 S
C495 O473 1.295 . S
C495 O483 1.295 . S
C496 O474 1.295 . S
C496 O481 1.295 1_565 S
C497 O475 1.295 . S
C497 O480 1.295 . S
O498 Zr462 2.207 . S
O498 C492 1.295 . S
O499 Zr462 2.207 . S
O499 C490 1.295 . S
O500 Zr505 2.207 . S
O500 C534 1.295 . S
O501 Zr505 2.133 . S
O501 Zr506 2.133 1_565 S
O501 Zr507 2.133 1_565 S
O502 Zr505 2.133 . S
O502 Zr511 2.133 1_565 S
O502 Zr512 2.133 . S
O503 Zr505 2.133 . S
O503 Zr507 2.133 1_565 S
O503 Zr512 2.133 . S
O504 Zr505 2.133 . S
O504 Zr506 2.133 1_565 S
O504 Zr511 2.133 1_565 S
Zr505 O500 2.207 . S
Zr505 O501 2.133 . S
Zr505 O502 2.133 . S
Zr505 O503 2.133 . S
Zr505 O504 2.133 . S
Zr505 O517 2.207 . S
Zr505 O530 2.207 . S
Zr505 O533 2.207 . S
Zr506 O501 2.133 1_545 S
Zr506 O504 2.133 1_545 S
Zr506 O508 2.133 . S
Zr506 O510 2.133 . S
Zr506 O522 2.207 . S
Zr506 O525 2.207 1_545 S
Zr506 O535 2.207 . S
Zr506 O536 2.207 . S
Zr507 O501 2.133 1_545 S
Zr507 O503 2.133 1_545 S
Zr507 O509 2.133 . S
Zr507 O510 2.133 . S
Zr507 O519 2.207 1_455 S
Zr507 O520 2.207 1_445 S
Zr507 O527 2.207 1_445 S
Zr507 O528 2.207 1_455 S
O508 Zr506 2.133 . S
O508 Zr511 2.133 . S
O508 Zr513 2.133 . S
O509 Zr507 2.133 . S
O509 Zr512 2.133 1_545 S
O509 Zr513 2.133 . S
O510 Zr506 2.133 . S
O510 Zr507 2.133 . S
O510 Zr513 2.133 . S
Zr511 O502 2.133 1_545 S
Zr511 O504 2.133 1_545 S
Zr511 O508 2.133 . S
Zr511 O514 2.133 . S
Zr511 O518 2.207 1_545 S
Zr511 O521 2.207 . S
Zr511 O526 2.207 . S
Zr511 O529 2.207 1_545 S
Zr512 O502 2.133 . S
Zr512 O503 2.133 . S
Zr512 O509 2.133 1_565 S
Zr512 O514 2.133 1_565 S
Zr512 O523 2.207 . S
Zr512 O524 2.207 1_565 S
Zr512 O548 2.207 . S
Zr512 O549 2.207 . S
Zr513 O508 2.133 . S
Zr513 O509 2.133 . S
Zr513 O510 2.133 . S
Zr513 O514 2.133 . S
Zr513 O515 2.207 . S
Zr513 O516 2.207 . S
Zr513 O531 2.207 . S
Zr513 O532 2.207 . S
O514 Zr511 2.133 . S
O514 Zr512 2.133 1_545 S
O514 Zr513 2.133 . S
O515 Zr513 2.207 . S
O515 C537 1.295 . S
O516 Zr513 2.207 . S
O516 C538 1.295 . S
O517 Zr505 2.207 . S
O517 C539 1.295 . S
O518 Zr511 2.207 1_565 S
O518 C540 1.295 . S
O519 Zr507 2.207 1_655 S
O519 C541 1.295 1_655 S
O520 Zr507 2.207 1_665 S
O520 C542 1.295 1_655 S
O521 Zr511 2.207 . S
O521 C543 1.295 . S
O522 Zr506 2.207 . S
O522 C544 1.295 . S
O523 Zr512 2.207 . S
O523 C545 1.295 . S
O524 Zr512 2.207 1_545 S
O524 C546 1.295 . S
O525 Zr506 2.207 1_565 S
O525 C547 1.295 . S
O526 Zr511 2.207 . S
O526 C537 1.295 . S
O527 Zr507 2.207 1_665 S
O527 C534 1.295 1_655 S
O528 Zr507 2.207 1_655 S
O528 C538 1.295 1_655 S
O529 Zr511 2.207 1_565 S
O529 C539 1.295 . S
O530 Zr505 2.207 . S
O530 C547 1.295 . S
O531 Zr513 2.207 . S
O531 C546 1.295 . S
O532 Zr513 2.207 . S
O532 C544 1.295 . S
O533 Zr505 2.207 . S
O533 C545 1.295 . S
C534 O500 1.295 . S
C534 O527 1.295 1_455 S
O535 Zr506 2.207 . S
O535 C543 1.295 . S
O536 Zr506 2.207 . S
O536 C541 1.295 . S
C537 O515 1.295 . S
C537 O526 1.295 . S
C538 O516 1.295 . S
C538 O528 1.295 1_455 S
C539 O517 1.295 . S
C539 O529 1.295 . S
C540 O518 1.295 . S
C540 O549 1.295 . S
C541 O519 1.295 1_455 S
C541 O536 1.295 . S
C542 O520 1.295 1_455 S
C542 O548 1.295 . S
C543 O521 1.295 . S
C543 O535 1.295 . S
C544 O522 1.295 . S
C544 O532 1.295 . S
C545 O523 1.295 . S
C545 O533 1.295 . S
C546 O524 1.295 . S
C546 O531 1.295 . S
C547 O525 1.295 . S
C547 O530 1.295 . S
O548 Zr512 2.207 . S
O548 C542 1.295 . S
O549 Zr512 2.207 . S
O549 C540 1.295 . S
O550 Zr555 2.207 . S
O550 C584 1.295 . S
O551 Zr555 2.133 . S
O551 Zr556 2.133 . S
O551 Zr557 2.133 . S
O552 Zr555 2.133 . S
O552 Zr561 2.133 . S
O552 Zr562 2.133 . S
O553 Zr555 2.133 . S
O553 Zr557 2.133 . S
O553 Zr562 2.133 . S
O554 Zr555 2.133 . S
O554 Zr556 2.133 . S
O554 Zr561 2.133 . S
Zr555 O550 2.207 . S
Zr555 O551 2.133 . S
Zr555 O552 2.133 . S
Zr555 O553 2.133 . S
Zr555 O554 2.133 . S
Zr555 O567 2.207 . S
Zr555 O580 2.207 . S
Zr555 O583 2.207 . S
Zr556 O551 2.133 . S
Zr556 O554 2.133 . S
Zr556 O558 2.133 . S
Zr556 O560 2.133 . S
Zr556 O572 2.207 . S
Zr556 O575 2.207 . S
Zr556 O585 2.207 . S
Zr556 O586 2.207 . S
Zr557 O551 2.133 . S
Zr557 O553 2.133 . S
Zr557 O559 2.133 . S
Zr557 O560 2.133 . S
Zr557 O569 2.207 . S
Zr557 O570 2.207 . S
Zr557 O577 2.207 . S
Zr557 O578 2.207 . S
O558 Zr556 2.133 . S
O558 Zr561 2.133 . S
O558 Zr563 2.133 . S
O559 Zr557 2.133 . S
O559 Zr562 2.133 . S
O559 Zr563 2.133 . S
O560 Zr556 2.133 . S
O560 Zr557 2.133 . S
O560 Zr563 2.133 . S
Zr561 O552 2.133 . S
Zr561 O554 2.133 . S
Zr561 O558 2.133 . S
Zr561 O564 2.133 . S
Zr561 O568 2.207 . S
Zr561 O571 2.207 . S
Zr561 O576 2.207 . S
Zr561 O579 2.207 . S
Zr562 O552 2.133 . S
Zr562 O553 2.133 . S
Zr562 O559 2.133 . S
Zr562 O564 2.133 . S
Zr562 O573 2.207 . S
Zr562 O574 2.207 . S
Zr562 O598 2.207 . S
Zr562 O599 2.207 . S
Zr563 O558 2.133 . S
Zr563 O559 2.133 . S
Zr563 O560 2.133 . S
Zr563 O564 2.133 . S
Zr563 O565 2.207 . S
Zr563 O566 2.207 . S
Zr563 O581 2.207 . S
Zr563 O582 2.207 . S
O564 Zr561 2.133 . S
O564 Zr562 2.133 . S
O564 Zr563 2.133 . S
O565 Zr563 2.207 . S
O565 C587 1.295 . S
O566 Zr563 2.207 . S
O566 C588 1.295 . S
O567 Zr555 2.207 . S
O567 C589 1.295 . S
O568 Zr561 2.207 . S
O568 C590 1.295 . S
O569 Zr557 2.207 . S
O569 C591 1.295 . S
O570 Zr557 2.207 . S
O570 C592 1.295 . S
O571 Zr561 2.207 . S
O571 C593 1.295 . S
O572 Zr556 2.207 . S
O572 C594 1.295 . S
O573 Zr562 2.207 . S
O573 C595 1.295 . S
O574 Zr562 2.207 . S
O574 C596 1.295 . S
O575 Zr556 2.207 . S
O575 C597 1.295 . S
O576 Zr561 2.207 . S
O576 C587 1.295 . S
O577 Zr557 2.207 . S
O577 C584 1.295 . S
O578 Zr557 2.207 . S
O578 C588 1.295 . S
O579 Zr561 2.207 . S
O579 C589 1.295 . S
O580 Zr555 2.207 . S
O580 C597 1.295 . S
O581 Zr563 2.207 . S
O581 C596 1.295 . S
O582 Zr563 2.207 . S
O582 C594 1.295 . S
O583 Zr555 2.207 . S
O583 C595 1.295 . S
C584 O550 1.295 . S
C584 O577 1.295 . S
O585 Zr556 2.207 . S
O585 C593 1.295 . S
O586 Zr556 2.207 . S
O586 C591 1.295 . S
C587 O565 1.295 . S
C587 O576 1.295 . S
C588 O566 1.295 . S
C588 O578 1.295 . S
C589 O567 1.295 . S
C589 O579 1.295 . S
C590 O568 1.295 . S
C590 O599 1.295 . S
C591 O569 1.295 . S
C591 O586 1.295 . S
C592 O570 1.295 . S
C592 O598 1.295 . S
C593 O571 1.295 . S
C593 O585 1.295 . S
C594 O572 1.295 . S
C594 O582 1.295 . S
C595 O573 1.295 . S
C595 O583 1.295 . S
C596 O574 1.295 . S
C596 O581 1.295 . S
C597 O575 1.295 . S
C597 O580 1.295 . S
O598 Zr562 2.207 . S
O598 C592 1.295 . S
O599 Zr562 2.207 . S
O599 C590 1.295 . S
C600 C601 1.387 . S
C600 H604 0.950 . S
C600 C609 1.390 . S
C601 C600 1.387 . S
C601 C603 1.387 . S
H602 C609 0.950 . S
C603 C601 1.387 . S
C603 C605 1.390 . S
C603 H607 0.950 . S
H604 C600 0.950 . S
C605 C603 1.390 . S
C605 C606 1.387 . S
C605 H608 0.950 . S
C606 C605 1.387 . S
C606 C609 1.387 . S
H607 C603 0.950 . S
H608 C605 0.950 . S
C609 C600 1.390 . S
C609 H602 0.950 . S
C609 C606 1.387 . S
C610 C611 1.387 . S
C610 H614 0.950 . S
C610 C619 1.390 . S
C611 C610 1.387 . S
C611 C613 1.387 . S
H612 C619 0.950 . S
C613 C611 1.387 . S
C613 C615 1.390 . S
C613 H617 0.950 . S
H614 C610 0.950 . S
C615 C613 1.390 . S
C615 C616 1.387 . S
C615 H618 0.950 . S
C616 C615 1.387 . S
C616 C619 1.387 . S
H617 C613 0.950 . S
H618 C615 0.950 . S
C619 C610 1.390 . S
C619 H612 0.950 . S
C619 C616 1.387 . S
C620 C621 1.387 . S
C620 H624 0.950 . S
C620 C629 1.390 . S
C621 C620 1.387 . S
C621 C623 1.387 . S
H622 C629 0.950 . S
C623 C621 1.387 . S
C623 C625 1.390 . S
C623 H627 0.950 . S
H624 C620 0.950 . S
C625 C623 1.390 . S
C625 C626 1.387 . S
C625 H628 0.950 . S
C626 C625 1.387 . S
C626 C629 1.387 . S
H627 C623 0.950 . S
H628 C625 0.950 . S
C629 C620 1.390 . S
C629 H622 0.950 . S
C629 C626 1.387 . S
C630 C631 1.387 . S
C630 H634 0.950 . S
C630 C639 1.390 . S
C631 C630 1.387 . S
C631 C633 1.387 . S
H632 C639 0.950 . S
C633 C631 1.387 . S
C633 C635 1.390 . S
C633 H637 0.950 . S
H634 C630 0.950 . S
C635 C633 1.390 . S
C635 C636 1.387 . S
C635 H638 0.950 . S
C636 C635 1.387 . S
C636 C639 1.387 . S
H637 C633 0.950 . S
H638 C635 0.950 . S
C639 C630 1.390 . S
C639 H632 0.950 . S
C639 C636 1.387 . S
C640 C641 1.387 . S
C640 H644 0.950 . S
C640 C649 1.390 . S
C641 C640 1.387 . S
C641 C643 1.387 . S
H642 C649 0.950 . S
C643 C641 1.387 . S
C643 C645 1.390 . S
C643 H647 0.950 . S
H644 C640 0.950 . S
C645 C643 1.390 . S
C645 C646 1.387 . S
C645 H648 0.950 . S
C646 C645 1.387 . S
C646 C649 1.387 . S
H647 C643 0.950 . S
H648 C645 0.950 . S
C649 C640 1.390 . S
C649 H642 0.950 . S
C649 C646 1.387 . S
C650 C651 1.387 . S
C650 H654 0.950 . S
C650 C659 1.390 . S
C651 C650 1.387 . S
C651 C653 1.387 . S
H652 C659 0.950 . S
C653 C651 1.387 . S
C653 C655 1.390 . S
C653 H657 0.950 . S
H654 C650 0.950 . S
C655 C653 1.390 . S
C655 C656 1.387 . S
C655 H658 0.950 . S
C656 C655 1.387 . S
C656 C659 1.387 . S
H657 C653 0.950 . S
H658 C655 0.950 . S
C659 C650 1.390 . S
C659 H652 0.950 . S
C659 C656 1.387 . S
C660 C661 1.387 . S
C660 H664 0.950 . S
C660 C669 1.390 . S
C661 C660 1.387 . S
C661 C663 1.387 . S
H662 C669 0.950 . S
C663 C661 1.387 . S
C663 C665 1.390 . S
C663 H667 0.950 . S
H664 C660 0.950 . S
C665 C663 1.390 . S
C665 C666 1.387 . S
C665 H668 0.950 . S
C666 C665 1.387 . S
C666 C669 1.387 . S
H667 C663 0.950 . S
H668 C665 0.950 . S
C669 C660 1.390 . S
C669 H662 0.950 . S
C669 C666 1.387 . S
C670 C671 1.387 . S
C670 H674 0.950 . S
C670 C679 1.390 . S
C671 C670 1.387 . S
C671 C673 1.387 . S
H672 C679 0.950 . S
C673 C671 1.387 . S
C673 C675 1.390 . S
C673 H677 0.950 . S
H674 C670 0.950 . S
C675 C673 1.390 . S
C675 C676 1.387 . S
C675 H678 0.950 . S
C676 C675 1.387 . S
C676 C679 1.387 . S
H677 C673 0.950 . S
H678 C675 0.950 . S
C679 C670 1.390 . S
C679 H672 0.950 . S
C679 C676 1.387 . S
C680 C681 1.387 . S
C680 H684 0.950 . S
C680 C689 1.390 . S
C681 C680 1.387 . S
C681 C683 1.387 . S
H682 C689 0.950 . S
C683 C681 1.387 . S
C683 C685 1.390 . S
C683 H687 0.950 . S
H684 C680 0.950 . S
C685 C683 1.390 . S
C685 C686 1.387 . S
C685 H688 0.950 . S
C686 C685 1.387 . S
C686 C689 1.387 . S
H687 C683 0.950 . S
H688 C685 0.950 . S
C689 C680 1.390 . S
C689 H682 0.950 . S
C689 C686 1.387 . S
C690 C691 1.387 . S
C690 H694 0.950 . S
C690 C699 1.390 . S
C691 C690 1.387 . S
C691 C693 1.387 . S
H692 C699 0.950 . S
C693 C691 1.387 . S
C693 C695 1.390 . S
C693 H697 0.950 . S
H694 C690 0.950 . S
C695 C693 1.390 . S
C695 C696 1.387 . S
C695 H698 0.950 1_556 S
C696 C695 1.387 . S
C696 C699 1.387 . S
H697 C693 0.950 . S
H698 C695 0.950 1_554 S
C699 C690 1.390 . S
C699 H692 0.950 . S
C699 C696 1.387 . S
C700 C701 1.387 . S
C700 H704 0.950 . S
C700 C709 1.390 . S
C701 C700 1.387 . S
C701 C703 1.387 . S
H702 C709 0.950 . S
C703 C701 1.387 . S
C703 C705 1.390 . S
C703 H707 0.950 . S
H704 C700 0.950 . S
C705 C703 1.390 . S
C705 C706 1.387 . S
C705 H708 0.950 . S
C706 C705 1.387 . S
C706 C709 1.387 . S
H707 C703 0.950 . S
H708 C705 0.950 . S
C709 C700 1.390 . S
C709 H702 0.950 . S
C709 C706 1.387 . S
C710 C711 1.387 . S
C710 H714 0.950 . S
C710 C719 1.390 . S
C711 C710 1.387 . S
C711 C713 1.387 . S
H712 C719 0.950 1_554 S
C713 C711 1.387 . S
C713 C715 1.390 . S
C713 H717 0.950 . S
H714 C710 0.950 . S
C715 C713 1.390 . S
C715 C716 1.387 . S
C715 H718 0.950 1_565 S
C716 C715 1.387 . S
C716 C719 1.387 . S
H717 C713 0.950 . S
H718 C715 0.950 1_545 S
C719 C710 1.390 . S
C719 H712 0.950 1_556 S
C719 C716 1.387 . S
C720 C721 1.387 . S
C720 H724 0.950 . S
C720 C729 1.390 . S
C721 C720 1.387 . S
C721 C723 1.387 . S
H722 C729 0.950 . S
C723 C721 1.387 . S
C723 C725 1.390 . S
C723 H727 0.950 . S
H724 C720 0.950 . S
C725 C723 1.390 . S
C725 C726 1.387 . S
C725 H728 0.950 . S
C726 C725 1.387 . S
C726 C729 1.387 . S
H727 C723 0.950 . S
H728 C725 0.950 . S
C729 C720 1.390 . S
C729 H722 0.950 . S
C729 C726 1.387 . S
C730 C731 1.387 . S
C730 H734 0.950 . S
C730 C739 1.390 . S
C731 C730 1.387 . S
C731 C733 1.387 . S
H732 C739 0.950 . S
C733 C731 1.387 . S
C733 C735 1.390 . S
C733 H737 0.950 . S
H734 C730 0.950 . S
C735 C733 1.390 . S
C735 C736 1.387 . S
C735 H738 0.950 . S
C736 C735 1.387 . S
C736 C739 1.387 . S
H737 C733 0.950 . S
H738 C735 0.950 . S
C739 C730 1.390 . S
C739 H732 0.950 . S
C739 C736 1.387 . S
C740 C741 1.387 . S
C740 H744 0.950 . S
C740 C749 1.390 . S
C741 C740 1.387 . S
C741 C743 1.387 . S
H742 C749 0.950 . S
C743 C741 1.387 . S
C743 C745 1.390 . S
C743 H747 0.950 . S
H744 C740 0.950 . S
C745 C743 1.390 . S
C745 C746 1.387 . S
C745 H748 0.950 . S
C746 C745 1.387 . S
C746 C749 1.387 . S
H747 C743 0.950 . S
H748 C745 0.950 . S
C749 C740 1.390 . S
C749 H742 0.950 . S
C749 C746 1.387 . S
C750 C751 1.387 . S
C750 H754 0.950 1_565 S
C750 C759 1.390 . S
C751 C750 1.387 . S
C751 C753 1.387 . S
H752 C759 0.950 . S
C753 C751 1.387 . S
C753 C755 1.390 . S
C753 H757 0.950 . S
H754 C750 0.950 1_545 S
C755 C753 1.390 . S
C755 C756 1.387 . S
C755 H758 0.950 . S
C756 C755 1.387 . S
C756 C759 1.387 . S
H757 C753 0.950 . S
H758 C755 0.950 . S
C759 C750 1.390 . S
C759 H752 0.950 . S
C759 C756 1.387 . S
C760 C761 1.387 . S
C760 H764 0.950 . S
C760 C769 1.390 . S
C761 C760 1.387 . S
C761 C763 1.387 . S
H762 C769 0.950 . S
C763 C761 1.387 . S
C763 C765 1.390 . S
C763 H767 0.950 . S
H764 C760 0.950 . S
C765 C763 1.390 . S
C765 C766 1.387 . S
C765 H768 0.950 . S
C766 C765 1.387 . S
C766 C769 1.387 . S
H767 C763 0.950 . S
H768 C765 0.950 . S
C769 C760 1.390 . S
C769 H762 0.950 . S
C769 C766 1.387 . S
C770 C771 1.387 . S
C770 H774 0.950 . S
C770 C779 1.390 . S
C771 C770 1.387 . S
C771 C773 1.387 . S
H772 C779 0.950 . S
C773 C771 1.387 . S
C773 C775 1.390 . S
C773 H777 0.950 . S
H774 C770 0.950 . S
C775 C773 1.390 . S
C775 C776 1.387 . S
C775 H778 0.950 . S
C776 C775 1.387 . S
C776 C779 1.387 . S
H777 C773 0.950 . S
H778 C775 0.950 . S
C779 C770 1.390 . S
C779 H772 0.950 . S
C779 C776 1.387 . S
C780 C781 1.387 . S
C780 H784 0.950 1_455 S
C780 C789 1.390 . S
C781 C780 1.387 . S
C781 C783 1.387 . S
H782 C789 0.950 . S
C783 C781 1.387 . S
C783 C785 1.390 . S
C783 H787 0.950 . S
H784 C780 0.950 1_655 S
C785 C783 1.390 . S
C785 C786 1.387 . S
C785 H788 0.950 . S
C786 C785 1.387 . S
C786 C789 1.387 . S
H787 C783 0.950 . S
H788 C785 0.950 . S
C789 C780 1.390 . S
C789 H782 0.950 . S
C789 C786 1.387 . S
C790 C791 1.387 . S
C790 H794 0.950 . S
C790 C799 1.390 . S
C791 C790 1.387 . S
C791 C793 1.387 . S
H792 C799 0.950 . S
C793 C791 1.387 . S
C793 C795 1.390 . S
C793 H797 0.950 . S
H794 C790 0.950 . S
C795 C793 1.390 . S
C795 C796 1.387 . S
C795 H798 0.950 . S
C796 C795 1.387 . S
C796 C799 1.387 . S
H797 C793 0.950 . S
H798 C795 0.950 . S
C799 C790 1.390 . S
C799 H792 0.950 . S
C799 C796 1.387 . S
C800 C801 1.387 . S
C800 H804 0.950 . S
C800 C809 1.390 . S
C801 C800 1.387 . S
C801 C803 1.387 . S
H802 C809 0.950 . S
C803 C801 1.387 . S
C803 C805 1.390 . S
C803 H807 0.950 . S
H804 C800 0.950 . S
C805 C803 1.390 . S
C805 C806 1.387 . S
C805 H808 0.950 . S
C806 C805 1.387 . S
C806 C809 1.387 . S
H807 C803 0.950 . S
H808 C805 0.950 . S
C809 C800 1.390 . S
C809 H802 0.950 . S
C809 C806 1.387 . S
C810 C811 1.387 . S
C810 H814 0.950 . S
C810 C819 1.390 . S
C811 C810 1.387 . S
C811 C813 1.387 . S
H812 C819 0.950 . S
C813 C811 1.387 . S
C813 C815 1.390 . S
C813 H817 0.950 . S
H814 C810 0.950 . S
C815 C813 1.390 . S
C815 C816 1.387 . S
C815 H818 0.950 . S
C816 C815 1.387 . S
C816 C819 1.387 . S
H817 C813 0.950 . S
H818 C815 0.950 . S
C819 C810 1.390 . S
C819 H812 0.950 . S
C819 C816 1.387 . S
C820 C821 1.387 . S
C820 H824 0.950 . S
C820 C829 1.390 . S
C821 C820 1.387 . S
C821 C823 1.387 . S
H822 C829 0.950 . S
C823 C821 1.387 . S
C823 C825 1.390 . S
C823 H827 0.950 . S
H824 C820 0.950 . S
C825 C823 1.390 . S
C825 C826 1.387 . S
C825 H828 0.950 . S
C826 C825 1.387 . S
C826 C829 1.387 . S
H827 C823 0.950 . S
H828 C825 0.950 . S
C829 C820 1.390 . S
C829 H822 0.950 . S
C829 C826 1.387 . S
C830 C831 1.387 . S
C830 H834 0.950 . S
C830 C839 1.390 . S
C831 C830 1.387 . S
C831 C833 1.387 . S
H832 C839 0.950 . S
C833 C831 1.387 . S
C833 C835 1.390 . S
C833 H837 0.950 . S
H834 C830 0.950 . S
C835 C833 1.390 . S
C835 C836 1.387 . S
C835 H838 0.950 . S
C836 C835 1.387 . S
C836 C839 1.387 . S
H837 C833 0.950 . S
H838 C835 0.950 . S
C839 C830 1.390 . S
C839 H832 0.950 . S
C839 C836 1.387 . S
C840 C841 1.387 . S
C840 H844 0.950 . S
C840 C849 1.390 . S
C841 C840 1.387 . S
C841 C843 1.387 . S
H842 C849 0.950 . S
C843 C841 1.387 . S
C843 C845 1.390 . S
C843 H847 0.950 . S
H844 C840 0.950 . S
C845 C843 1.390 . S
C845 C846 1.387 . S
C845 H848 0.950 . S
C846 C845 1.387 . S
C846 C849 1.387 . S
H847 C843 0.950 . S
H848 C845 0.950 . S
C849 C840 1.390 . S
C849 H842 0.950 . S
C849 C846 1.387 . S
C850 C851 1.387 . S
C850 H854 0.950 . S
C850 C859 1.390 . S
C851 C850 1.387 . S
C851 C853 1.387 . S
H852 C859 0.950 . S
C853 C851 1.387 . S
C853 C855 1.390 . S
C853 H857 0.950 . S
H854 C850 0.950 . S
C855 C853 1.390 . S
C855 C856 1.387 . S
C855 H858 0.950 . S
C856 C855 1.387 . S
C856 C859 1.387 . S
H857 C853 0.950 . S
H858 C855 0.950 . S
C859 C850 1.390 . S
C859 H852 0.950 . S
C859 C856 1.387 . S
C860 C861 1.387 . S
C860 H864 0.950 . S
C860 C869 1.390 . S
C861 C860 1.387 . S
C861 C863 1.387 . S
H862 C869 0.950 . S
C863 C861 1.387 . S
C863 C865 1.390 . S
C863 H867 0.950 . S
H864 C860 0.950 . S
C865 C863 1.390 . S
C865 C866 1.387 . S
C865 H868 0.950 . S
C866 C865 1.387 . S
C866 C869 1.387 . S
H867 C863 0.950 . S
H868 C865 0.950 . S
C869 C860 1.390 . S
C869 H862 0.950 . S
C869 C866 1.387 . S
C870 C871 1.387 . S
C870 H874 0.950 . S
C870 C879 1.390 . S
C871 C870 1.387 . S
C871 C873 1.387 . S
H872 C879 0.950 . S
C873 C871 1.387 . S
C873 C875 1.390 . S
C873 H877 0.950 1_655 S
H874 C870 0.950 . S
C875 C873 1.390 . S
C875 C876 1.387 . S
C875 H878 0.950 . S
C876 C875 1.387 . S
C876 C879 1.387 . S
H877 C873 0.950 1_455 S
H878 C875 0.950 . S
C879 C870 1.390 . S
C879 H872 0.950 . S
C879 C876 1.387 . S
C880 C881 1.387 . S
C880 H884 0.950 . S
C880 C889 1.390 . S
C881 C880 1.387 . S
C881 C883 1.387 . S
H882 C889 0.950 . S
C883 C881 1.387 . S
C883 C885 1.390 . S
C883 H887 0.950 . S
H884 C880 0.950 . S
C885 C883 1.390 . S
C885 C886 1.387 . S
C885 H888 0.950 . S
C886 C885 1.387 . S
C886 C889 1.387 . S
H887 C883 0.950 . S
H888 C885 0.950 . S
C889 C880 1.390 . S
C889 H882 0.950 . S
C889 C886 1.387 . S
C890 C891 1.387 . S
C890 H894 0.950 . S
C890 C899 1.390 . S
C891 C890 1.387 . S
C891 C893 1.387 . S
H892 C899 0.950 . S
C893 C891 1.387 . S
C893 C895 1.390 . S
C893 H897 0.950 . S
H894 C890 0.950 . S
C895 C893 1.390 . S
C895 C896 1.387 . S
C895 H898 0.950 . S
C896 C895 1.387 . S
C896 C899 1.387 . S
H897 C893 0.950 . S
H898 C895 0.950 . S
C899 C890 1.390 . S
C899 H892 0.950 . S
C899 C896 1.387 . S
C900 C901 1.387 . S
C900 H904 0.950 . S
C900 C909 1.390 . S
C901 C900 1.387 . S
C901 C903 1.387 . S
H902 C909 0.950 . S
C903 C901 1.387 . S
C903 C905 1.390 . S
C903 H907 0.950 . S
H904 C900 0.950 . S
C905 C903 1.390 . S
C905 C906 1.387 . S
C905 H908 0.950 . S
C906 C905 1.387 . S
C906 C909 1.387 . S
H907 C903 0.950 . S
H908 C905 0.950 . S
C909 C900 1.390 . S
C909 H902 0.950 . S
C909 C906 1.387 . S
C910 C911 1.387 . S
C910 H914 0.950 . S
C910 C919 1.390 . S
C911 C910 1.387 . S
C911 C913 1.387 . S
H912 C919 0.950 . S
C913 C911 1.387 . S
C913 C915 1.390 . S
C913 H917 0.950 . S
H914 C910 0.950 . S
C915 C913 1.390 . S
C915 C916 1.387 . S
C915 H918 0.950 . S
C916 C915 1.387 . S
C916 C919 1.387 . S
H917 C913 0.950 . S
H918 C915 0.950 . S
C919 C910 1.390 . S
C919 H912 0.950 . S
C919 C916 1.387 . S
C920 C921 1.387 . S
C920 H924 0.950 . S
C920 C929 1.390 . S
C921 C920 1.387 . S
C921 C923 1.387 . S
H922 C929 0.950 . S
C923 C921 1.387 . S
C923 C925 1.390 . S
C923 H927 0.950 . S
H924 C920 0.950 . S
C925 C923 1.390 . S
C925 C926 1.387 . S
C925 H928 0.950 . S
C926 C925 1.387 . S
C926 C929 1.387 . S
H927 C923 0.950 . S
H928 C925 0.950 . S
C929 C920 1.390 . S
C929 H922 0.950 . S
C929 C926 1.387 . S
C930 C931 1.387 . S
C930 H934 0.950 . S
C930 C939 1.390 . S
C931 C930 1.387 . S
C931 C933 1.387 . S
H932 C939 0.950 1_565 S
C933 C931 1.387 . S
C933 C935 1.390 . S
C933 H937 0.950 . S
H934 C930 0.950 . S
C935 C933 1.390 . S
C935 C936 1.387 . S
C935 H938 0.950 . S
C936 C935 1.387 . S
C936 C939 1.387 . S
H937 C933 0.950 . S
H938 C935 0.950 . S
C939 C930 1.390 . S
C939 H932 0.950 1_545 S
C939 C936 1.387 . S
C940 C941 1.387 . S
C940 H944 0.950 . S
C940 C949 1.390 . S
C941 C940 1.387 . S
C941 C943 1.387 . S
H942 C949 0.950 . S
C943 C941 1.387 . S
C943 C945 1.390 . S
C943 H947 0.950 . S
H944 C940 0.950 . S
C945 C943 1.390 . S
C945 C946 1.387 . S
C945 H948 0.950 . S
C946 C945 1.387 . S
C946 C949 1.387 . S
H947 C943 0.950 . S
H948 C945 0.950 . S
C949 C940 1.390 . S
C949 H942 0.950 . S
C949 C946 1.387 . S
C950 C951 1.387 . S
C950 H954 0.950 . S
C950 C959 1.390 . S
C951 C950 1.387 . S
C951 C953 1.387 . S
H952 C959 0.950 . S
C953 C951 1.387 . S
C953 C955 1.390 . S
C953 H957 0.950 . S
H954 C950 0.950 . S
C955 C953 1.390 . S
C955 C956 1.387 . S
C955 H958 0.950 . S
C956 C955 1.387 . S
C956 C959 1.387 . S
H957 C953 0.950 . S
H958 C955 0.950 . S
C959 C950 1.390 . S
C959 H952 0.950 . S
C959 C956 1.387 . S
C960 C961 1.387 . S
C960 H964 0.950 . S
C960 C969 1.390 . S
C961 C960 1.387 . S
C961 C963 1.387 . S
H962 C969 0.950 . S
C963 C961 1.387 . S
C963 C965 1.390 . S
C963 H967 0.950 . S
H964 C960 0.950 . S
C965 C963 1.390 . S
C965 C966 1.387 . S
C965 H968 0.950 . S
C966 C965 1.387 . S
C966 C969 1.387 . S
H967 C963 0.950 . S
H968 C965 0.950 . S
C969 C960 1.390 . S
C969 H962 0.950 . S
C969 C966 1.387 . S
C970 C971 1.387 . S
C970 H974 0.950 . S
C970 C979 1.390 . S
C971 C970 1.387 . S
C971 C973 1.387 . S
H972 C979 0.950 . S
C973 C971 1.387 . S
C973 C975 1.390 . S
C973 H977 0.950 . S
H974 C970 0.950 . S
C975 C973 1.390 . S
C975 C976 1.387 . S
C975 H978 0.950 1_545 S
C976 C975 1.387 . S
C976 C979 1.387 . S
H977 C973 0.950 . S
H978 C975 0.950 1_565 S
C979 C970 1.390 . S
C979 H972 0.950 . S
C979 C976 1.387 . S
C980 C981 1.387 . S
C980 H984 0.950 . S
C980 C989 1.390 . S
C981 C980 1.387 . S
C981 C983 1.387 . S
H982 C989 0.950 . S
C983 C981 1.387 . S
C983 C985 1.390 . S
C983 H987 0.950 . S
H984 C980 0.950 . S
C985 C983 1.390 . S
C985 C986 1.387 . S
C985 H988 0.950 . S
C986 C985 1.387 . S
C986 C989 1.387 . S
H987 C983 0.950 . S
H988 C985 0.950 . S
C989 C980 1.390 . S
C989 H982 0.950 . S
C989 C986 1.387 . S
C990 C991 1.387 . S
C990 H994 0.950 . S
C990 C999 1.390 . S
C991 C990 1.387 . S
C991 C993 1.387 . S
H992 C999 0.950 . S
C993 C991 1.387 . S
C993 C995 1.390 . S
C993 H997 0.950 . S
H994 C990 0.950 . S
C995 C993 1.390 . S
C995 C996 1.387 . S
C995 H998 0.950 . S
C996 C995 1.387 . S
C996 C999 1.387 . S
H997 C993 0.950 . S
H998 C995 0.950 . S
C999 C990 1.390 . S
C999 H992 0.950 . S
C999 C996 1.387 . S
C1000 C1001 1.387 . S
C1000 H1004 0.950 . S
C1000 C1009 1.390 . S
C1001 C1000 1.387 . S
C1001 C1003 1.387 . S
H1002 C1009 0.950 . S
C1003 C1001 1.387 . S
C1003 C1005 1.390 . S
C1003 H1007 0.950 . S
H1004 C1000 0.950 . S
C1005 C1003 1.390 . S
C1005 C1006 1.387 . S
C1005 H1008 0.950 . S
C1006 C1005 1.387 . S
C1006 C1009 1.387 . S
H1007 C1003 0.950 . S
H1008 C1005 0.950 . S
C1009 C1000 1.390 . S
C1009 H1002 0.950 . S
C1009 C1006 1.387 . S
C1010 C1011 1.387 . S
C1010 H1014 0.950 . S
C1010 C1019 1.390 . S
C1011 C1010 1.387 . S
C1011 C1013 1.387 . S
H1012 C1019 0.950 . S
C1013 C1011 1.387 . S
C1013 C1015 1.390 . S
C1013 H1017 0.950 . S
H1014 C1010 0.950 . S
C1015 C1013 1.390 . S
C1015 C1016 1.387 . S
C1015 H1018 0.950 . S
C1016 C1015 1.387 . S
C1016 C1019 1.387 . S
H1017 C1013 0.950 . S
H1018 C1015 0.950 . S
C1019 C1010 1.390 . S
C1019 H1012 0.950 . S
C1019 C1016 1.387 . S
C1020 C1021 1.387 . S
C1020 H1024 0.950 . S
C1020 C1029 1.390 . S
C1021 C1020 1.387 . S
C1021 C1023 1.387 . S
H1022 C1029 0.950 . S
C1023 C1021 1.387 . S
C1023 C1025 1.390 . S
C1023 H1027 0.950 . S
H1024 C1020 0.950 . S
C1025 C1023 1.390 . S
C1025 C1026 1.387 . S
C1025 H1028 0.950 . S
C1026 C1025 1.387 . S
C1026 C1029 1.387 . S
H1027 C1023 0.950 . S
H1028 C1025 0.950 . S
C1029 C1020 1.390 . S
C1029 H1022 0.950 . S
C1029 C1026 1.387 . S
C1030 C1031 1.387 . S
C1030 H1034 0.950 . S
C1030 C1039 1.390 . S
C1031 C1030 1.387 . S
C1031 C1033 1.387 . S
H1032 C1039 0.950 . S
C1033 C1031 1.387 . S
C1033 C1035 1.390 . S
C1033 H1037 0.950 . S
H1034 C1030 0.950 . S
C1035 C1033 1.390 . S
C1035 C1036 1.387 . S
C1035 H1038 0.950 . S
C1036 C1035 1.387 . S
C1036 C1039 1.387 . S
H1037 C1033 0.950 . S
H1038 C1035 0.950 . S
C1039 C1030 1.390 . S
C1039 H1032 0.950 . S
C1039 C1036 1.387 . S
C1040 C1041 1.387 . S
C1040 H1044 0.950 . S
C1040 C1049 1.390 . S
C1041 C1040 1.387 . S
C1041 C1043 1.387 . S
H1042 C1049 0.950 . S
C1043 C1041 1.387 . S
C1043 C1045 1.390 . S
C1043 H1047 0.950 . S
H1044 C1040 0.950 . S
C1045 C1043 1.390 . S
C1045 C1046 1.387 . S
C1045 H1048 0.950 1_655 S
C1046 C1045 1.387 . S
C1046 C1049 1.387 . S
H1047 C1043 0.950 . S
H1048 C1045 0.950 1_455 S
C1049 C1040 1.390 . S
C1049 H1042 0.950 . S
C1049 C1046 1.387 . S
C1050 C1051 1.387 . S
C1050 H1054 0.950 . S
C1050 C1059 1.390 . S
C1051 C1050 1.387 . S
C1051 C1053 1.387 . S
H1052 C1059 0.950 . S
C1053 C1051 1.387 . S
C1053 C1055 1.390 . S
C1053 H1057 0.950 . S
H1054 C1050 0.950 . S
C1055 C1053 1.390 . S
C1055 C1056 1.387 . S
C1055 H1058 0.950 . S
C1056 C1055 1.387 . S
C1056 C1059 1.387 . S
H1057 C1053 0.950 . S
H1058 C1055 0.950 . S
C1059 C1050 1.390 . S
C1059 H1052 0.950 . S
C1059 C1056 1.387 . S
C1060 C1061 1.387 . S
C1060 H1064 0.950 . S
C1060 C1069 1.390 . S
C1061 C1060 1.387 . S
C1061 C1063 1.387 . S
H1062 C1069 0.950 . S
C1063 C1061 1.387 . S
C1063 C1065 1.390 . S
C1063 H1067 0.950 . S
H1064 C1060 0.950 . S
C1065 C1063 1.390 . S
C1065 C1066 1.387 . S
C1065 H1068 0.950 . S
C1066 C1065 1.387 . S
C1066 C1069 1.387 . S
H1067 C1063 0.950 . S
H1068 C1065 0.950 . S
C1069 C1060 1.390 . S
C1069 H1062 0.950 . S
C1069 C1066 1.387 . S
C1070 C1071 1.387 . S
C1070 H1074 0.950 . S
C1070 C1079 1.390 . S
C1071 C1070 1.387 . S
C1071 C1073 1.387 . S
H1072 C1079 0.950 . S
C1073 C1071 1.387 . S
C1073 C1075 1.390 . S
C1073 H1077 0.950 . S
H1074 C1070 0.950 . S
C1075 C1073 1.390 . S
C1075 C1076 1.387 . S
C1075 H1078 0.950 . S
C1076 C1075 1.387 . S
C1076 C1079 1.387 . S
H1077 C1073 0.950 . S
H1078 C1075 0.950 . S
C1079 C1070 1.390 . S
C1079 H1072 0.950 . S
C1079 C1076 1.387 . S
C1080 C1081 1.387 1_455 S
C1080 H1084 0.950 . S
C1080 C1089 1.390 . S
C1081 C1080 1.387 1_655 S
C1081 C1083 1.387 . S
H1082 C1089 0.950 . S
C1083 C1081 1.387 . S
C1083 C1085 1.390 . S
C1083 H1087 0.950 . S
H1084 C1080 0.950 . S
C1085 C1083 1.390 . S
C1085 C1086 1.387 . S
C1085 H1088 0.950 . S
C1086 C1085 1.387 . S
C1086 C1089 1.387 1_655 S
H1087 C1083 0.950 . S
H1088 C1085 0.950 . S
C1089 C1080 1.390 . S
C1089 H1082 0.950 . S
C1089 C1086 1.387 1_455 S
C1090 C1091 1.388 . S
C1090 H1094 0.950 . S
C1090 C1099 1.389 1_554 S
C1091 C1090 1.388 . S
C1091 C1093 1.388 . S
H1092 C1099 0.950 . S
C1093 C1091 1.388 . S
C1093 C1095 1.389 1_554 S
C1093 H1097 0.950 . S
H1094 C1090 0.950 . S
C1095 C1093 1.389 1_556 S
C1095 C1096 1.388 . S
C1095 H1098 0.950 . S
C1096 C1095 1.388 . S
C1096 C1099 1.388 . S
H1097 C1093 0.950 . S
H1098 C1095 0.950 . S
C1099 C1090 1.389 1_556 S
C1099 H1092 0.950 . S
C1099 C1096 1.388 . S
C1100 C1101 1.387 1_655 S
C1100 H1104 0.950 . S
C1100 C1109 1.390 1_545 S
C1101 C1100 1.387 1_455 S
C1101 C1103 1.387 . S
H1102 C1109 0.950 . S
C1103 C1101 1.387 . S
C1103 C1105 1.390 1_545 S
C1103 H1107 0.950 . S
H1104 C1100 0.950 . S
C1105 C1103 1.390 1_565 S
C1105 C1106 1.387 . S
C1105 H1108 0.950 . S
C1106 C1105 1.387 . S
C1106 C1109 1.387 1_455 S
H1107 C1103 0.950 . S
H1108 C1105 0.950 . S
C1109 C1100 1.390 1_565 S
C1109 H1102 0.950 . S
C1109 C1106 1.387 1_655 S
C1110 C1111 1.388 . S
C1110 H1114 0.950 . S
C1110 C1119 1.389 1_554 S
C1111 C1110 1.388 . S
C1111 C1113 1.388 . S
H1112 C1119 0.950 . S
C1113 C1111 1.388 . S
C1113 C1115 1.389 1_554 S
C1113 H1117 0.950 . S
H1114 C1110 0.950 . S
C1115 C1113 1.389 1_556 S
C1115 C1116 1.388 . S
C1115 H1118 0.950 . S
C1116 C1115 1.388 . S
C1116 C1119 1.388 . S
H1117 C1113 0.950 . S
H1118 C1115 0.950 . S
C1119 C1110 1.389 1_556 S
C1119 H1112 0.950 . S
C1119 C1116 1.388 . S
C1120 C1121 1.387 1_545 S
C1120 H1124 0.950 . S
C1120 C1129 1.390 . S
C1121 C1120 1.387 1_565 S
C1121 C1123 1.387 . S
H1122 C1129 0.950 . S
C1123 C1121 1.387 . S
C1123 C1125 1.390 . S
C1123 H1127 0.950 . S
H1124 C1120 0.950 . S
C1125 C1123 1.390 . S
C1125 C1126 1.387 . S
C1125 H1128 0.950 . S
C1126 C1125 1.387 . S
C1126 C1129 1.387 1_565 S
H1127 C1123 0.950 . S
H1128 C1125 0.950 . S
C1129 C1120 1.390 . S
C1129 H1122 0.950 . S
C1129 C1126 1.387 1_545 S
C1130 C1131 1.387 . S
C1130 H1134 0.950 . S
C1130 C1139 1.390 . S
C1131 C1130 1.387 . S
C1131 C1133 1.387 . S
H1132 C1139 0.950 . S
C1133 C1131 1.387 . S
C1133 C1135 1.390 . S
C1133 H1137 0.950 . S
H1134 C1130 0.950 . S
C1135 C1133 1.390 . S
C1135 C1136 1.387 . S
C1135 H1138 0.950 . S
C1136 C1135 1.387 . S
C1136 C1139 1.387 . S
H1137 C1133 0.950 . S
H1138 C1135 0.950 . S
C1139 C1130 1.390 . S
C1139 H1132 0.950 . S
C1139 C1136 1.387 . S
C1140 C1141 1.387 . S
C1140 H1144 0.950 . S
C1140 C1149 1.390 . S
C1141 C1140 1.387 . S
C1141 C1143 1.387 . S
H1142 C1149 0.950 . S
C1143 C1141 1.387 . S
C1143 C1145 1.390 . S
C1143 H1147 0.950 . S
H1144 C1140 0.950 . S
C1145 C1143 1.390 . S
C1145 C1146 1.387 . S
C1145 H1148 0.950 . S
C1146 C1145 1.387 . S
C1146 C1149 1.387 . S
H1147 C1143 0.950 . S
H1148 C1145 0.950 . S
C1149 C1140 1.390 . S
C1149 H1142 0.950 . S
C1149 C1146 1.387 . S
C1150 C1151 1.388 . S
C1150 H1154 0.950 . S
C1150 C1159 1.389 1_565 S
C1151 C1150 1.388 . S
C1151 C1153 1.388 . S
H1152 C1159 0.950 . S
C1153 C1151 1.388 . S
C1153 C1155 1.389 1_565 S
C1153 H1157 0.950 . S
H1154 C1150 0.950 . S
C1155 C1153 1.389 1_545 S
C1155 C1156 1.388 . S
C1155 H1158 0.950 . S
C1156 C1155 1.388 . S
C1156 C1159 1.388 . S
H1157 C1153 0.950 . S
H1158 C1155 0.950 . S
C1159 C1150 1.389 1_545 S
C1159 H1152 0.950 . S
C1159 C1156 1.388 . S
C1160 C1161 1.387 1_565 S
C1160 H1164 0.950 . S
C1160 C1169 1.390 1_554 S
C1161 C1160 1.387 1_545 S
C1161 C1163 1.387 . S
H1162 C1169 0.950 . S
C1163 C1161 1.387 . S
C1163 C1165 1.390 1_554 S
C1163 H1167 0.950 . S
H1164 C1160 0.950 . S
C1165 C1163 1.390 1_556 S
C1165 C1166 1.387 . S
C1165 H1168 0.950 . S
C1166 C1165 1.387 . S
C1166 C1169 1.387 1_545 S
H1167 C1163 0.950 . S
H1168 C1165 0.950 . S
C1169 C1160 1.390 1_556 S
C1169 H1162 0.950 . S
C1169 C1166 1.387 1_565 S
C1170 C1171 1.387 . S
C1170 H1174 0.950 . S
C1170 C1179 1.390 . S
C1171 C1170 1.387 . S
C1171 C1173 1.387 . S
H1172 C1179 0.950 . S
C1173 C1171 1.387 . S
C1173 C1175 1.390 . S
C1173 H1177 0.950 . S
H1174 C1170 0.950 . S
C1175 C1173 1.390 . S
C1175 C1176 1.387 . S
C1175 H1178 0.950 . S
C1176 C1175 1.387 . S
C1176 C1179 1.387 . S
H1177 C1173 0.950 . S
H1178 C1175 0.950 . S
C1179 C1170 1.390 . S
C1179 H1172 0.950 . S
C1179 C1176 1.387 . S
C1180 C1181 1.387 . S
C1180 H1184 0.950 . S
C1180 C1189 1.390 1_554 S
C1181 C1180 1.387 . S
C1181 C1183 1.387 . S
H1182 C1189 0.950 . S
C1183 C1181 1.387 . S
C1183 C1185 1.390 1_554 S
C1183 H1187 0.950 . S
H1184 C1180 0.950 . S
C1185 C1183 1.390 1_556 S
C1185 C1186 1.387 . S
C1185 H1188 0.950 . S
C1186 C1185 1.387 . S
C1186 C1189 1.387 . S
H1187 C1183 0.950 . S
H1188 C1185 0.950 . S
C1189 C1180 1.390 1_556 S
C1189 H1182 0.950 . S
C1189 C1186 1.387 . S
C1190 C1191 1.387 . S
C1190 H1194 0.950 . S
C1190 C1199 1.390 1_565 S
C1191 C1190 1.387 . S
C1191 C1193 1.387 . S
H1192 C1199 0.950 . S
C1193 C1191 1.387 . S
C1193 C1195 1.390 1_565 S
C1193 H1197 0.950 . S
H1194 C1190 0.950 . S
C1195 C1193 1.390 1_545 S
C1195 C1196 1.387 . S
C1195 H1198 0.950 . S
C1196 C1195 1.387 . S
C1196 C1199 1.387 . S
H1197 C1193 0.950 . S
H1198 C1195 0.950 . S
C1199 C1190 1.390 1_545 S
C1199 H1192 0.950 . S
C1199 C1196 1.387 . S
C1200 C1201 1.387 1_554 S
C1200 H1204 0.950 . S
C1200 C1209 1.390 . S
C1201 C1200 1.387 1_556 S
C1201 C1203 1.387 . S
H1202 C1209 0.950 . S
C1203 C1201 1.387 . S
C1203 C1205 1.390 . S
C1203 H1207 0.950 . S
H1204 C1200 0.950 . S
C1205 C1203 1.390 . S
C1205 C1206 1.387 . S
C1205 H1208 0.950 . S
C1206 C1205 1.387 . S
C1206 C1209 1.387 1_556 S
H1207 C1203 0.950 . S
H1208 C1205 0.950 . S
C1209 C1200 1.390 . S
C1209 H1202 0.950 . S
C1209 C1206 1.387 1_554 S
C1210 C1211 1.387 . S
C1210 H1214 0.950 . S
C1210 C1219 1.390 . S
C1211 C1210 1.387 . S
C1211 C1213 1.387 . S
H1212 C1219 0.950 . S
C1213 C1211 1.387 . S
C1213 C1215 1.390 . S
C1213 H1217 0.950 . S
H1214 C1210 0.950 . S
C1215 C1213 1.390 . S
C1215 C1216 1.387 . S
C1215 H1218 0.950 . S
C1216 C1215 1.387 . S
C1216 C1219 1.387 . S
H1217 C1213 0.950 . S
H1218 C1215 0.950 . S
C1219 C1210 1.390 . S
C1219 H1212 0.950 . S
C1219 C1216 1.387 . S
C1220 C1221 1.388 . S
C1220 H1224 0.950 . S
C1220 C1229 1.389 1_455 S
C1221 C1220 1.388 . S
C1221 C1223 1.388 . S
H1222 C1229 0.950 . S
C1223 C1221 1.388 . S
C1223 C1225 1.389 1_455 S
C1223 H1227 0.950 . S
H1224 C1220 0.950 . S
C1225 C1223 1.389 1_655 S
C1225 C1226 1.388 . S
C1225 H1228 0.950 . S
C1226 C1225 1.388 . S
C1226 C1229 1.388 . S
H1227 C1223 0.950 . S
H1228 C1225 0.950 . S
C1229 C1220 1.389 1_655 S
C1229 H1222 0.950 . S
C1229 C1226 1.388 . S
C1230 C1231 1.387 . S
C1230 H1234 0.950 . S
C1230 C1239 1.390 . S
C1231 C1230 1.387 . S
C1231 C1233 1.387 . S
H1232 C1239 0.950 . S
C1233 C1231 1.387 . S
C1233 C1235 1.390 . S
C1233 H1237 0.950 . S
H1234 C1230 0.950 . S
C1235 C1233 1.390 . S
C1235 C1236 1.387 . S
C1235 H1238 0.950 . S
C1236 C1235 1.387 . S
C1236 C1239 1.387 . S
H1237 C1233 0.950 . S
H1238 C1235 0.950 . S
C1239 C1230 1.390 . S
C1239 H1232 0.950 . S
C1239 C1236 1.387 . S
C1240 C1241 1.387 . S
C1240 H1244 0.950 . S
C1240 C1249 1.390 1_655 S
C1241 C1240 1.387 . S
C1241 C1243 1.387 . S
H1242 C1249 0.950 . S
C1243 C1241 1.387 . S
C1243 C1245 1.390 1_655 S
C1243 H1247 0.950 . S
H1244 C1240 0.950 . S
C1245 C1243 1.390 1_455 S
C1245 C1246 1.387 . S
C1245 H1248 0.950 . S
C1246 C1245 1.387 . S
C1246 C1249 1.387 . S
H1247 C1243 0.950 . S
H1248 C1245 0.950 . S
C1249 C1240 1.390 1_455 S
C1249 H1242 0.950 . S
C1249 C1246 1.387 . S
C1250 C1251 1.387 . S
C1250 H1254 0.950 . S
C1250 C1259 1.390 1_655 S
C1251 C1250 1.387 . S
C1251 C1253 1.387 . S
H1252 C1259 0.950 . S
C1253 C1251 1.387 . S
C1253 C1255 1.390 1_655 S
C1253 H1257 0.950 . S
H1254 C1250 0.950 . S
C1255 C1253 1.390 1_455 S
C1255 C1256 1.387 . S
C1255 H1258 0.950 . S
C1256 C1255 1.387 . S
C1256 C1259 1.387 . S
H1257 C1253 0.950 . S
H1258 C1255 0.950 . S
C1259 C1250 1.390 1_455 S
C1259 H1252 0.950 . S
C1259 C1256 1.387 . S
C1260 C1261 1.387 . S
C1260 H1264 0.950 . S
C1260 C1269 1.390 1_545 S
C1261 C1260 1.387 . S
C1261 C1263 1.387 . S
H1262 C1269 0.950 . S
C1263 C1261 1.387 . S
C1263 C1265 1.390 1_545 S
C1263 H1267 0.950 . S
H1264 C1260 0.950 . S
C1265 C1263 1.390 1_565 S
C1265 C1266 1.387 . S
C1265 H1268 0.950 . S
C1266 C1265 1.387 . S
C1266 C1269 1.387 . S
H1267 C1263 0.950 . S
H1268 C1265 0.950 . S
C1269 C1260 1.390 1_565 S
C1269 H1262 0.950 . S
C1269 C1266 1.387 . S
C1270 C1271 1.387 . S
C1270 H1274 0.950 . S
C1270 C1279 1.390 . S
C1271 C1270 1.387 . S
C1271 C1273 1.387 . S
H1272 C1279 0.950 . S
C1273 C1271 1.387 . S
C1273 C1275 1.390 . S
C1273 H1277 0.950 . S
H1274 C1270 0.950 . S
C1275 C1273 1.390 . S
C1275 C1276 1.387 . S
C1275 H1278 0.950 . S
C1276 C1275 1.387 . S
C1276 C1279 1.387 . S
H1277 C1273 0.950 . S
H1278 C1275 0.950 . S
C1279 C1270 1.390 . S
C1279 H1272 0.950 . S
C1279 C1276 1.387 . S
C1280 C1281 1.387 . S
C1280 H1284 0.950 . S
C1280 C1289 1.390 . S
C1281 C1280 1.387 . S
C1281 C1283 1.387 . S
H1282 C1289 0.950 . S
C1283 C1281 1.387 . S
C1283 C1285 1.390 . S
C1283 H1287 0.950 . S
H1284 C1280 0.950 . S
C1285 C1283 1.390 . S
C1285 C1286 1.387 . S
C1285 H1288 0.950 . S
C1286 C1285 1.387 . S
C1286 C1289 1.387 . S
H1287 C1283 0.950 . S
H1288 C1285 0.950 . S
C1289 C1280 1.390 . S
C1289 H1282 0.950 . S
C1289 C1286 1.387 . S
C1290 C1291 1.387 . S
C1290 H1294 0.950 . S
C1290 C1299 1.390 . S
C1291 C1290 1.387 . S
C1291 C1293 1.387 . S
H1292 C1299 0.950 . S
C1293 C1291 1.387 . S
C1293 C1295 1.390 . S
C1293 H1297 0.950 . S
H1294 C1290 0.950 . S
C1295 C1293 1.390 . S
C1295 C1296 1.387 . S
C1295 H1298 0.950 . S
C1296 C1295 1.387 . S
C1296 C1299 1.387 . S
H1297 C1293 0.950 . S
H1298 C1295 0.950 . S
C1299 C1290 1.390 . S
C1299 H1292 0.950 . S
C1299 C1296 1.387 . S
C1300 C1301 1.387 . S
C1300 H1304 0.950 . S
C1300 C1309 1.390 1_455 S
C1301 C1300 1.387 . S
C1301 C1303 1.387 1_554 S
H1302 C1309 0.950 . S
C1303 C1301 1.387 1_556 S
C1303 C1305 1.390 1_455 S
C1303 H1307 0.950 . S
H1304 C1300 0.950 . S
C1305 C1303 1.390 1_655 S
C1305 C1306 1.387 1_556 S
C1305 H1308 0.950 . S
C1306 C1305 1.387 1_554 S
C1306 C1309 1.387 . S
H1307 C1303 0.950 . S
H1308 C1305 0.950 . S
C1309 C1300 1.390 1_655 S
C1309 H1302 0.950 . S
C1309 C1306 1.387 . S
C1310 C1311 1.387 . S
C1310 H1314 0.950 . S
C1310 C1319 1.390 . S
C1311 C1310 1.387 . S
C1311 C1313 1.387 . S
H1312 C1319 0.950 . S
C1313 C1311 1.387 . S
C1313 C1315 1.390 . S
C1313 H1317 0.950 . S
H1314 C1310 0.950 . S
C1315 C1313 1.390 . S
C1315 C1316 1.387 . S
C1315 H1318 0.950 . S
C1316 C1315 1.387 . S
C1316 C1319 1.387 . S
H1317 C1313 0.950 . S
H1318 C1315 0.950 . S
C1319 C1310 1.390 . S
C1319 H1312 0.950 . S
C1319 C1316 1.387 . S
C601 C241 1.161 . S
C606 C38 1.170 . S
C611 C296 1.156 . S
C616 C90 1.169 1_554 S
C621 C34 1.174 . S
C626 C344 1.161 . S
C631 C192 1.162 . S
C636 C93 1.175 1_554 S
C641 C395 1.156 . S
C646 C144 1.167 . S
C651 C134 1.170 1_556 S
C656 C443 1.158 . S
C661 C146 1.174 . S
C666 C490 1.163 . S
C671 C547 1.157 . S
C676 C139 1.170 1_556 S
C681 C46 1.161 . S
C686 C197 1.169 . S
C691 C95 1.160 . S
C696 C237 1.174 . S
C701 C289 1.170 . S
C706 C47 1.159 . S
C711 C94 1.157 . S
C716 C342 1.170 1_565 S
C721 C143 1.160 . S
C726 C195 1.171 . S
C731 C238 1.173 . S
C736 C141 1.160 . S
C741 C287 1.173 . S
C746 C142 1.164 . S
C751 C341 1.172 1_565 S
C756 C140 1.159 . S
C761 C247 1.173 . S
C766 C191 1.158 . S
C771 C389 1.173 . S
C776 C190 1.164 . S
C781 C437 1.174 1_455 S
C786 C242 1.163 . S
C791 C294 1.162 . S
C796 C495 1.174 . S
C801 C397 1.157 . S
C806 C291 1.169 . S
C811 C545 1.161 . S
C816 C387 1.175 . S
C821 C438 1.170 1_455 S
C826 C396 1.157 . S
C831 C542 1.172 1_655 S
C836 C493 1.162 . S
C841 C491 1.162 . S
C846 C88 1.174 . S
C851 C40 1.169 . S
C856 C546 1.154 . S
C861 C84 1.172 . S
C866 C394 1.161 . S
C871 C43 1.174 . S
C876 C442 1.162 . S
C881 C345 1.156 . S
C886 C594 1.170 . S
C891 C584 1.173 . S
C896 C193 1.161 . S
C901 C240 1.161 . S
C906 C596 1.174 . S
C911 C297 1.162 . S
C916 C589 1.173 . S
C921 C447 1.173 . S
C926 C96 1.161 . S
C931 C45 1.162 . S
C936 C487 1.175 1_545 S
C941 C539 1.173 . S
C946 C97 1.163 . S
C951 C392 1.170 . S
C956 C44 1.156 . S
C961 C593 1.161 . S
C966 C445 1.172 . S
C971 C591 1.160 . S
C976 C488 1.171 1_545 S
C981 C537 1.172 . S
C986 C592 1.160 . S
C991 C391 1.172 . S
C996 C590 1.161 . S
C1001 C497 1.173 . S
C1006 C441 1.161 . S
C1011 C339 1.169 . S
C1016 C440 1.157 . S
C1021 C187 1.168 . S
C1026 C492 1.157 . S
C1031 C544 1.161 . S
C1036 C245 1.172 . S
C1041 C347 1.160 . S
C1046 C541 1.171 1_655 S
C1051 C295 1.157 . S
C1056 C337 1.169 . S
C1061 C346 1.162 . S
C1066 C188 1.170 . S
C1071 C292 1.170 . S
C1076 C243 1.156 . S
C1081 C138 2.587 . S
C1086 C41 2.587 . S
C1091 C87 2.587 1_554 S
C1096 C145 2.590 1_556 S
C1101 C42 2.587 . S
C1106 C137 2.587 . S
C1111 C89 2.587 1_554 S
C1116 C147 2.584 1_556 S
C1121 C189 2.587 . S
C1126 C540 2.587 . S
C1131 C246 2.587 . S
C1136 C388 2.590 . S
C1141 C434 2.587 . S
C1146 C293 2.587 . S
C1151 C334 2.587 1_565 S
C1156 C494 2.590 1_545 S
C1161 C184 2.587 . S
C1166 C543 2.587 . S
C1171 C384 2.587 . S
C1176 C244 2.584 . S
C1181 C290 2.587 . S
C1186 C439 2.587 . S
C1191 C338 2.590 1_565 S
C1196 C496 2.587 1_545 S
C1201 C340 2.587 . S
C1206 C239 2.587 . S
C1211 C484 2.587 . S
C1216 C393 2.587 . S
C1221 C446 2.587 1_455 S
C1226 C538 2.584 1_655 S
C1231 C288 2.587 . S
C1236 C196 2.590 . S
C1241 C489 2.587 . S
C1246 C390 2.587 . S
C1251 C534 2.590 1_655 S
C1256 C444 2.592 1_455 S
C1261 C588 2.587 . S
C1266 C91 2.587 . S
C1271 C37 2.590 . S
C1276 C595 2.587 . S
C1281 C92 2.587 . S
C1286 C587 2.587 . S
C1291 C597 2.590 . S
C1296 C39 2.592 . S
C1301 C234 2.590 . S
C1306 C343 2.590 . S
C1311 C194 2.590 . S
C1316 C284 2.587 . S
