# Generated by pormake.
# Topology fnp, (5)-cn, num edge types: 1
# Building blocks:
#     Node 0, Type 0, BuildingBlock: BEQFEK_clean_sbu_0, # of connection points: 5
#     Node 1, Type 0, BuildingBlock: BEQFEK_clean_sbu_0, # of connection points: 5
#     Node 2, Type 0, BuildingBlock: BEQFEK_clean_sbu_0, # of connection points: 5
#     Node 3, Type 0, BuildingBlock: BEQFEK_clean_sbu_0, # of connection points: 5
#     Node 4, Type 0, BuildingBlock: BEQFEK_clean_sbu_0, # of connection points: 5
#     Node 5, Type 0, BuildingBlock: BEQFEK_clean_sbu_0, # of connection points: 5
#     Node 6, Type 0, BuildingBlock: BEQFEK_clean_sbu_0, # of connection points: 5
#     Node 7, Type 0, BuildingBlock: BEQFEK_clean_sbu_0, # of connection points: 5
#     Node 8, Type 0, BuildingBlock: BEQFEK_clean_sbu_0, # of connection points: 5
#     Node 9, Type 0, BuildingBlock: BEQFEK_clean_sbu_0, # of connection points: 5
#     Node 10, Type 0, BuildingBlock: BEQFEK_clean_sbu_0, # of connection points: 5
#     Node 11, Type 0, BuildingBlock: BEQFEK_clean_sbu_0, # of connection points: 5
#     Node 12, Type 0, BuildingBlock: BEQFEK_clean_sbu_0, # of connection points: 5
#     Node 13, Type 0, BuildingBlock: BEQFEK_clean_sbu_0, # of connection points: 5
#     Node 14, Type 0, BuildingBlock: BEQFEK_clean_sbu_0, # of connection points: 5
#     Node 15, Type 0, BuildingBlock: BEQFEK_clean_sbu_0, # of connection points: 5
#     Node 16, Type 0, BuildingBlock: BEQFEK_clean_sbu_0, # of connection points: 5
#     Node 17, Type 0, BuildingBlock: BEQFEK_clean_sbu_0, # of connection points: 5
#     Node 18, Type 0, BuildingBlock: BEQFEK_clean_sbu_0, # of connection points: 5
#     Node 19, Type 0, BuildingBlock: BEQFEK_clean_sbu_0, # of connection points: 5
#     Node 20, Type 0, BuildingBlock: BEQFEK_clean_sbu_0, # of connection points: 5
#     Node 21, Type 0, BuildingBlock: BEQFEK_clean_sbu_0, # of connection points: 5
#     Node 22, Type 0, BuildingBlock: BEQFEK_clean_sbu_0, # of connection points: 5
#     Node 23, Type 0, BuildingBlock: BEQFEK_clean_sbu_0, # of connection points: 5
#     Edge 24, Type (0, 0), BuildingBlock: KIFKEQ_clean_linker_1, # of connection points: 2
#     Edge 25, Type (0, 0), BuildingBlock: KIFKEQ_clean_linker_1, # of connection points: 2
#     Edge 26, Type (0, 0), BuildingBlock: KIFKEQ_clean_linker_1, # of connection points: 2
#     Edge 27, Type (0, 0), BuildingBlock: KIFKEQ_clean_linker_1, # of connection points: 2
#     Edge 28, Type (0, 0), BuildingBlock: KIFKEQ_clean_linker_1, # of connection points: 2
#     Edge 29, Type (0, 0), BuildingBlock: KIFKEQ_clean_linker_1, # of connection points: 2
#     Edge 30, Type (0, 0), BuildingBlock: KIFKEQ_clean_linker_1, # of connection points: 2
#     Edge 31, Type (0, 0), BuildingBlock: KIFKEQ_clean_linker_1, # of connection points: 2
#     Edge 32, Type (0, 0), BuildingBlock: KIFKEQ_clean_linker_1, # of connection points: 2
#     Edge 33, Type (0, 0), BuildingBlock: KIFKEQ_clean_linker_1, # of connection points: 2
#     Edge 34, Type (0, 0), BuildingBlock: KIFKEQ_clean_linker_1, # of connection points: 2
#     Edge 35, Type (0, 0), BuildingBlock: KIFKEQ_clean_linker_1, # of connection points: 2
#     Edge 36, Type (0, 0), BuildingBlock: KIFKEQ_clean_linker_1, # of connection points: 2
#     Edge 37, Type (0, 0), BuildingBlock: KIFKEQ_clean_linker_1, # of connection points: 2
#     Edge 38, Type (0, 0), BuildingBlock: KIFKEQ_clean_linker_1, # of connection points: 2
#     Edge 39, Type (0, 0), BuildingBlock: KIFKEQ_clean_linker_1, # of connection points: 2
#     Edge 40, Type (0, 0), BuildingBlock: KIFKEQ_clean_linker_1, # of connection points: 2
#     Edge 41, Type (0, 0), BuildingBlock: KIFKEQ_clean_linker_1, # of connection points: 2
#     Edge 42, Type (0, 0), BuildingBlock: KIFKEQ_clean_linker_1, # of connection points: 2
#     Edge 43, Type (0, 0), BuildingBlock: KIFKEQ_clean_linker_1, # of connection points: 2
#     Edge 44, Type (0, 0), BuildingBlock: KIFKEQ_clean_linker_1, # of connection points: 2
#     Edge 45, Type (0, 0), BuildingBlock: KIFKEQ_clean_linker_1, # of connection points: 2
#     Edge 46, Type (0, 0), BuildingBlock: KIFKEQ_clean_linker_1, # of connection points: 2
#     Edge 47, Type (0, 0), BuildingBlock: KIFKEQ_clean_linker_1, # of connection points: 2
#     Edge 48, Type (0, 0), BuildingBlock: KIFKEQ_clean_linker_1, # of connection points: 2
#     Edge 49, Type (0, 0), BuildingBlock: KIFKEQ_clean_linker_1, # of connection points: 2
#     Edge 50, Type (0, 0), BuildingBlock: KIFKEQ_clean_linker_1, # of connection points: 2
#     Edge 51, Type (0, 0), BuildingBlock: KIFKEQ_clean_linker_1, # of connection points: 2
#     Edge 52, Type (0, 0), BuildingBlock: KIFKEQ_clean_linker_1, # of connection points: 2
#     Edge 53, Type (0, 0), BuildingBlock: KIFKEQ_clean_linker_1, # of connection points: 2
#     Edge 54, Type (0, 0), BuildingBlock: KIFKEQ_clean_linker_1, # of connection points: 2
#     Edge 55, Type (0, 0), BuildingBlock: KIFKEQ_clean_linker_1, # of connection points: 2
#     Edge 56, Type (0, 0), BuildingBlock: KIFKEQ_clean_linker_1, # of connection points: 2
#     Edge 57, Type (0, 0), BuildingBlock: KIFKEQ_clean_linker_1, # of connection points: 2
#     Edge 58, Type (0, 0), BuildingBlock: KIFKEQ_clean_linker_1, # of connection points: 2
#     Edge 59, Type (0, 0), BuildingBlock: KIFKEQ_clean_linker_1, # of connection points: 2
#     Edge 60, Type (0, 0), BuildingBlock: KIFKEQ_clean_linker_1, # of connection points: 2
#     Edge 61, Type (0, 0), BuildingBlock: KIFKEQ_clean_linker_1, # of connection points: 2
#     Edge 62, Type (0, 0), BuildingBlock: KIFKEQ_clean_linker_1, # of connection points: 2
#     Edge 63, Type (0, 0), BuildingBlock: KIFKEQ_clean_linker_1, # of connection points: 2
#     Edge 64, Type (0, 0), BuildingBlock: KIFKEQ_clean_linker_1, # of connection points: 2
#     Edge 65, Type (0, 0), BuildingBlock: KIFKEQ_clean_linker_1, # of connection points: 2
#     Edge 66, Type (0, 0), BuildingBlock: KIFKEQ_clean_linker_1, # of connection points: 2
#     Edge 67, Type (0, 0), BuildingBlock: KIFKEQ_clean_linker_1, # of connection points: 2
#     Edge 68, Type (0, 0), BuildingBlock: KIFKEQ_clean_linker_1, # of connection points: 2
#     Edge 69, Type (0, 0), BuildingBlock: KIFKEQ_clean_linker_1, # of connection points: 2
#     Edge 70, Type (0, 0), BuildingBlock: KIFKEQ_clean_linker_1, # of connection points: 2
#     Edge 71, Type (0, 0), BuildingBlock: KIFKEQ_clean_linker_1, # of connection points: 2
#     Edge 72, Type (0, 0), BuildingBlock: KIFKEQ_clean_linker_1, # of connection points: 2
#     Edge 73, Type (0, 0), BuildingBlock: KIFKEQ_clean_linker_1, # of connection points: 2
#     Edge 74, Type (0, 0), BuildingBlock: KIFKEQ_clean_linker_1, # of connection points: 2
#     Edge 75, Type (0, 0), BuildingBlock: KIFKEQ_clean_linker_1, # of connection points: 2
#     Edge 76, Type (0, 0), BuildingBlock: KIFKEQ_clean_linker_1, # of connection points: 2
#     Edge 77, Type (0, 0), BuildingBlock: KIFKEQ_clean_linker_1, # of connection points: 2
#     Edge 78, Type (0, 0), BuildingBlock: KIFKEQ_clean_linker_1, # of connection points: 2
#     Edge 79, Type (0, 0), BuildingBlock: KIFKEQ_clean_linker_1, # of connection points: 2
#     Edge 80, Type (0, 0), BuildingBlock: KIFKEQ_clean_linker_1, # of connection points: 2
#     Edge 81, Type (0, 0), BuildingBlock: KIFKEQ_clean_linker_1, # of connection points: 2
#     Edge 82, Type (0, 0), BuildingBlock: KIFKEQ_clean_linker_1, # of connection points: 2
#     Edge 83, Type (0, 0), BuildingBlock: KIFKEQ_clean_linker_1, # of connection points: 2
# Relax obj value: 0.498
# Max RMSD: 0.210
# Mean RMSD: 0.210
data_MOF--net-fnp--node1-BEQFEK_clean_sbu_0--edge1-KIFKEQ_clean_linker_1
_symmetry_space_group_name_H-M    P1
_symmetry_Int_Tables_number       1
_symmetry_cell_setting            triclinic
loop_
_symmetry_equiv_pos_as_xyz
'x, y, z'
_cell_length_a     56.711143
_cell_length_b     56.75989
_cell_length_c     56.97819
_cell_angle_alpha  89.907616
_cell_angle_beta   90.169819
_cell_angle_gamma 89.84128
loop_
_atom_site_label
_atom_site_type_symbol
_atom_site_fract_x
_atom_site_fract_y
_atom_site_fract_z
_atom_type_partial_charge
Co0 Co 0.22642 0.18301 0.68144 0.0
Co1 Co 0.17495 0.19498 0.66825 0.0
C2 C 0.19709 0.21472 0.71217 0.0
O3 O 0.21679 0.20496 0.70717 0.0
O4 O 0.17865 0.21092 0.69975 0.0
C5 C 0.26815 0.15845 0.66964 0.0
O6 O 0.25629 0.1531 0.65056 0.0
C7 C 0.12364 0.19126 0.67164 0.0
C8 C 0.11249 0.19666 0.63484 0.0
C9 C 0.1041 0.19099 0.65695 0.0
N10 N 0.1427 0.19674 0.65878 0.0
N11 N 0.13586 0.20032 0.63687 0.0
C12 C 0.12474 0.18371 0.69679 0.0
H13 H 0.14287 0.17795 0.7015 0.0
H14 H 0.11208 0.16921 0.70016 0.0
H15 H 0.11984 0.19885 0.70808 0.0
C16 C 0.2079 0.13403 0.68078 0.0
N17 N 0.20529 0.15746 0.67755 0.0
N18 N 0.18414 0.16185 0.66922 0.0
C19 C 0.17307 0.14092 0.66563 0.0
C20 C 0.18789 0.12242 0.67272 0.0
C21 C 0.22773 0.12311 0.69435 0.0
H22 H 0.24056 0.11554 0.68194 0.0
H23 H 0.23661 0.13635 0.70556 0.0
H24 H 0.22111 0.10853 0.70553 0.0
O25 O 0.23026 0.20275 0.65349 0.0
O26 O 0.19417 0.21601 0.64682 0.0
H27 H 0.14623 0.15252 0.6416 0.0
H28 H 0.14706 0.12106 0.64636 0.0
C29 C 0.14912 0.13851 0.65485 0.0
H30 H 0.13558 0.14023 0.66874 0.0
H31 H 0.14732 0.20413 0.62308 0.0
O32 O 0.2584 0.1706 0.68573 0.0
C33 C 0.21631 0.21669 0.64294 0.0
Co34 Co 0.88085 0.72521 0.19332 0.0
Co35 Co 0.86469 0.67741 0.17378 0.0
C36 C 0.84643 0.69873 0.22084 0.0
O37 O 0.86012 0.71657 0.22013 0.0
O38 O 0.84719 0.68299 0.20471 0.0
C39 C 0.90897 0.76319 0.17911 0.0
O40 O 0.91295 0.74953 0.16097 0.0
C41 C 0.867 0.62627 0.17813 0.0
C42 C 0.85811 0.61444 0.14229 0.0
C43 C 0.86571 0.60635 0.16403 0.0
N44 N 0.86072 0.64515 0.16522 0.0
N45 N 0.85502 0.63792 0.14393 0.0
C46 C 0.87679 0.62793 0.20249 0.0
H47 H 0.88212 0.64629 0.2065 0.0
H48 H 0.8921 0.6159 0.20467 0.0
H49 H 0.86298 0.62261 0.21518 0.0
C50 C 0.92819 0.70184 0.19158 0.0
N51 N 0.90468 0.70227 0.18749 0.0
N52 N 0.8986 0.68328 0.17589 0.0
C53 C 0.91857 0.67095 0.17076 0.0
C54 C 0.93812 0.68227 0.1807 0.0
C55 C 0.94103 0.71905 0.20682 0.0
H56 H 0.95701 0.72546 0.19766 0.0
H57 H 0.92964 0.73386 0.21219 0.0
H58 H 0.94696 0.71003 0.22308 0.0
O59 O 0.85878 0.73127 0.16721 0.0
O60 O 0.84715 0.6982 0.15064 0.0
H61 H 0.90411 0.64741 0.14501 0.0
H62 H 0.93584 0.64583 0.14816 0.0
C63 C 0.91897 0.64815 0.15766 0.0
H64 H 0.91733 0.63339 0.17031 0.0
H65 H 0.85025 0.64914 0.13018 0.0
O66 O 0.89605 0.75598 0.19593 0.0
C67 C 0.84632 0.72062 0.15207 0.0
Co68 Co 0.33193 0.38078 0.69353 0.0
Co69 Co 0.37552 0.36343 0.66719 0.0
C70 C 0.3655 0.34315 0.71379 0.0
O71 O 0.34691 0.35581 0.71405 0.0
O72 O 0.38005 0.34505 0.69696 0.0
C73 C 0.32635 0.40936 0.72975 0.0
O74 O 0.34885 0.40377 0.73019 0.0
C75 C 0.42469 0.35553 0.65655 0.0
C76 C 0.42611 0.35864 0.61794 0.0
C77 C 0.44003 0.35556 0.63774 0.0
N78 N 0.40263 0.35812 0.64833 0.0
N79 N 0.40351 0.35966 0.6252 0.0
C80 C 0.43108 0.35622 0.68207 0.0
H81 H 0.41862 0.36773 0.69174 0.0
H82 H 0.4493 0.36276 0.68478 0.0
H83 H 0.42985 0.33815 0.68942 0.0
C84 C 0.35067 0.42754 0.68006 0.0
N85 N 0.35206 0.40377 0.68004 0.0
N86 N 0.37256 0.39722 0.67175 0.0
C87 C 0.38549 0.41698 0.66757 0.0
C88 C 0.37197 0.43692 0.67306 0.0
C89 C 0.32871 0.44154 0.68459 0.0
H90 H 0.31282 0.43025 0.68388 0.0
H91 H 0.33006 0.45039 0.70186 0.0
H92 H 0.32697 0.45569 0.67121 0.0
O93 O 0.31451 0.36397 0.66904 0.0
O94 O 0.34623 0.34863 0.65169 0.0
H95 H 0.41131 0.40746 0.64203 0.0
H96 H 0.4172 0.43504 0.65684 0.0
C97 C 0.41038 0.41686 0.65905 0.0
H98 H 0.42166 0.4072 0.67177 0.0
H99 H 0.38883 0.36258 0.61449 0.0
O100 O 0.3128 0.3991 0.71516 0.0
C101 C 0.32374 0.35026 0.6539 0.0
Co102 Co 0.6686 0.81731 0.18924 0.0
Co103 Co 0.68359 0.86488 0.16762 0.0
C104 C 0.70135 0.85118 0.2153 0.0
O105 O 0.68987 0.83189 0.21405 0.0
O106 O 0.69967 0.86634 0.19891 0.0
C107 C 0.64064 0.79527 0.22084 0.0
O108 O 0.63796 0.81767 0.22606 0.0
C109 C 0.68573 0.91593 0.16591 0.0
C110 C 0.69244 0.92385 0.1286 0.0
C111 C 0.6887 0.93443 0.15022 0.0
N112 N 0.68778 0.8955 0.15419 0.0
N113 N 0.69197 0.90031 0.13189 0.0
C114 C 0.67874 0.91743 0.19119 0.0
H115 H 0.66923 0.90127 0.1966 0.0
H116 H 0.66734 0.93304 0.19431 0.0
H117 H 0.69484 0.91906 0.20217 0.0
C118 C 0.6202 0.83454 0.17497 0.0
N119 N 0.6439 0.83716 0.17696 0.0
N120 N 0.64979 0.85826 0.16955 0.0
C121 C 0.62968 0.87019 0.16396 0.0
C122 C 0.61014 0.85558 0.1673 0.0
C123 C 0.60717 0.81215 0.17996 0.0
H124 H 0.61898 0.79672 0.17795 0.0
H125 H 0.59992 0.81276 0.198 0.0
H126 H 0.59211 0.80985 0.16781 0.0
O127 O 0.6897 0.80638 0.16451 0.0
O128 O 0.70268 0.83999 0.14933 0.0
H129 H 0.64214 0.8969 0.14053 0.0
H130 H 0.61125 0.89948 0.14788 0.0
C131 C 0.62901 0.89486 0.15474 0.0
H132 H 0.63359 0.90723 0.16907 0.0
H133 H 0.69399 0.88757 0.11886 0.0
O134 O 0.6544 0.7897 0.20427 0.0
C135 C 0.70325 0.8174 0.15056 0.0
Co136 Co 0.22368 0.38043 0.86323 0.0
Co137 Co 0.17383 0.36363 0.87403 0.0
C138 C 0.19327 0.35041 0.82916 0.0
O139 O 0.21228 0.36035 0.83595 0.0
O140 O 0.17458 0.35212 0.84131 0.0
C141 C 0.24257 0.41494 0.83713 0.0
O142 O 0.22037 0.41495 0.83043 0.0
C143 C 0.12269 0.35946 0.87411 0.0
C144 C 0.11448 0.35931 0.912 0.0
C145 C 0.10419 0.36002 0.88992 0.0
N146 N 0.14302 0.35847 0.88626 0.0
N147 N 0.138 0.35801 0.9089 0.0
C148 C 0.12126 0.36308 0.8481 0.0
H149 H 0.13572 0.37474 0.84217 0.0
H150 H 0.10411 0.37089 0.84277 0.0
H151 H 0.12338 0.3458 0.83925 0.0
C152 C 0.20449 0.4263 0.88019 0.0
N153 N 0.20221 0.40297 0.87591 0.0
N154 N 0.17989 0.39726 0.87627 0.0
C155 C 0.16705 0.41739 0.87873 0.0
C156 C 0.18226 0.43671 0.881 0.0
C157 C 0.22761 0.43855 0.8838 0.0
H158 H 0.24248 0.4259 0.88412 0.0
H159 H 0.23015 0.45216 0.87003 0.0
H160 H 0.22768 0.44756 0.90101 0.0
O161 O 0.23368 0.35755 0.88656 0.0
O162 O 0.19818 0.34151 0.89048 0.0
H163 H 0.13408 0.40589 0.89269 0.0
H164 H 0.13415 0.43623 0.88335 0.0
C165 C 0.1407 0.41828 0.87922 0.0
H166 H 0.13365 0.41275 0.86193 0.0
H167 H 0.15065 0.35822 0.92223 0.0
O168 O 0.24983 0.39899 0.85108 0.0
C169 C 0.22061 0.34093 0.89393 0.0
Co170 Co 0.68373 0.7301 0.37685 0.0
Co171 Co 0.69273 0.67672 0.37833 0.0
C172 C 0.71005 0.70108 0.33781 0.0
O173 O 0.70405 0.72028 0.34813 0.0
O174 O 0.70368 0.68123 0.34607 0.0
C175 C 0.66031 0.77387 0.36157 0.0
O176 O 0.65462 0.79607 0.36477 0.0
C177 C 0.69065 0.6252 0.37327 0.0
C178 C 0.69634 0.61365 0.40993 0.0
C179 C 0.69142 0.60539 0.38759 0.0
N180 N 0.69451 0.64428 0.38669 0.0
N181 N 0.69816 0.63723 0.40852 0.0
C182 C 0.68783 0.62619 0.34714 0.0
H183 H 0.68399 0.60868 0.33948 0.0
H184 H 0.70446 0.63282 0.33938 0.0
H185 H 0.67378 0.63895 0.34236 0.0
C186 C 0.63349 0.71423 0.38756 0.0
N187 N 0.65669 0.71038 0.38302 0.0
N188 N 0.66039 0.68753 0.38201 0.0
C189 C 0.63937 0.67631 0.3842 0.0
C190 C 0.62143 0.69285 0.38753 0.0
C191 C 0.62312 0.73747 0.39437 0.0
H192 H 0.63597 0.75183 0.39286 0.0
H193 H 0.60704 0.74111 0.38383 0.0
H194 H 0.61778 0.73675 0.41305 0.0
O195 O 0.70535 0.72959 0.40343 0.0
O196 O 0.71852 0.69365 0.39679 0.0
H197 H 0.64897 0.64229 0.3974 0.0
H198 H 0.61837 0.6449 0.3895 0.0
C199 C 0.63652 0.65011 0.38455 0.0
H200 H 0.64056 0.64292 0.36695 0.0
H201 H 0.70127 0.6486 0.42256 0.0
O202 O 0.67483 0.76405 0.37546 0.0
C203 C 0.72111 0.71396 0.40601 0.0
Co204 Co 0.33201 0.16379 0.83977 0.0
Co205 Co 0.37224 0.18239 0.8715 0.0
C206 C 0.36632 0.20189 0.82343 0.0
O207 O 0.34858 0.18853 0.82122 0.0
O208 O 0.37892 0.20064 0.84185 0.0
C209 C 0.33492 0.13731 0.80193 0.0
O210 O 0.35656 0.14146 0.8091 0.0
C211 C 0.42132 0.188 0.88177 0.0
C212 C 0.42359 0.19558 0.91964 0.0
C213 C 0.43722 0.1926 0.89965 0.0
N214 N 0.39937 0.18859 0.89051 0.0
N215 N 0.40074 0.19321 0.91321 0.0
C216 C 0.4269 0.1808 0.8571 0.0
H217 H 0.41256 0.1697 0.84983 0.0
H218 H 0.44378 0.1709 0.85639 0.0
H219 H 0.42853 0.1968 0.84602 0.0
C220 C 0.34813 0.11782 0.85865 0.0
N221 N 0.35031 0.14147 0.85689 0.0
N222 N 0.36913 0.14837 0.86835 0.0
C223 C 0.38017 0.12886 0.87701 0.0
C224 C 0.36718 0.10873 0.87107 0.0
C225 C 0.32822 0.10401 0.84821 0.0
H226 H 0.31256 0.11542 0.84547 0.0
H227 H 0.3339 0.09648 0.83117 0.0
H228 H 0.32316 0.08915 0.85973 0.0
O229 O 0.31229 0.18269 0.86149 0.0
O230 O 0.34143 0.19737 0.88369 0.0
H231 H 0.39993 0.14235 0.90606 0.0
H232 H 0.40607 0.11178 0.89921 0.0
C233 C 0.40206 0.12939 0.89167 0.0
H234 H 0.41709 0.13511 0.88067 0.0
H235 H 0.3862 0.19438 0.92433 0.0
O236 O 0.31775 0.14576 0.81373 0.0
C237 C 0.31947 0.19641 0.87787 0.0
Co238 Co 0.88466 0.83205 0.34252 0.0
Co239 Co 0.86367 0.87193 0.37283 0.0
C240 C 0.84241 0.86187 0.32617 0.0
O241 O 0.8572 0.84512 0.32438 0.0
O242 O 0.84353 0.8758 0.34363 0.0
C243 C 0.91035 0.83424 0.30413 0.0
O244 O 0.90279 0.85572 0.30837 0.0
C245 C 0.8539 0.92017 0.38469 0.0
C246 C 0.85603 0.92095 0.42336 0.0
C247 C 0.85353 0.93523 0.40374 0.0
N248 N 0.85632 0.898 0.39256 0.0
N249 N 0.85715 0.89846 0.41575 0.0
C250 C 0.85567 0.92694 0.35933 0.0
H251 H 0.86774 0.91471 0.35004 0.0
H252 H 0.86209 0.94527 0.35719 0.0
H253 H 0.83796 0.92559 0.35114 0.0
C254 C 0.92964 0.85373 0.35768 0.0
N255 N 0.90581 0.85354 0.35704 0.0
N256 N 0.8976 0.87183 0.36844 0.0
C257 C 0.91631 0.88463 0.37631 0.0
C258 C 0.9373 0.87363 0.36944 0.0
C259 C 0.94509 0.83408 0.34921 0.0
H260 H 0.93531 0.8172 0.34899 0.0
H261 H 0.95142 0.83819 0.33127 0.0
H262 H 0.96084 0.83218 0.36069 0.0
O263 O 0.86985 0.81166 0.36659 0.0
O264 O 0.85274 0.84075 0.38688 0.0
H265 H 0.90514 0.90307 0.40698 0.0
H266 H 0.93188 0.91446 0.3941 0.0
C267 C 0.9143 0.90683 0.39024 0.0
H268 H 0.90367 0.91989 0.38031 0.0
H269 H 0.86001 0.88365 0.42626 0.0
O270 O 0.90364 0.81751 0.3175 0.0
C271 C 0.85608 0.8187 0.38294 0.0
Co272 Co 0.68395 0.22805 0.17872 0.0
Co273 Co 0.66887 0.17701 0.1902 0.0
C274 C 0.71358 0.19807 0.21079 0.0
O275 O 0.71003 0.21771 0.20031 0.0
O276 O 0.69992 0.18052 0.20726 0.0
C277 C 0.67338 0.27087 0.15471 0.0
O278 O 0.65384 0.26012 0.14859 0.0
C279 C 0.67289 0.12576 0.18656 0.0
C280 C 0.63663 0.11399 0.19423 0.0
C281 C 0.65876 0.10579 0.18778 0.0
N282 N 0.65969 0.1447 0.19196 0.0
N283 N 0.63809 0.13753 0.19676 0.0
C284 C 0.69783 0.12738 0.17823 0.0
H285 H 0.7017 0.14547 0.17192 0.0
H286 H 0.70115 0.1145 0.16397 0.0
H287 H 0.7099 0.12334 0.19307 0.0
C288 C 0.68227 0.20987 0.12958 0.0
N289 N 0.67925 0.20721 0.15295 0.0
N290 N 0.6707 0.18615 0.15718 0.0
C291 C 0.66706 0.17519 0.13624 0.0
C292 C 0.67414 0.19002 0.11793 0.0
C293 C 0.69508 0.22991 0.11841 0.0
H294 H 0.70606 0.23942 0.13139 0.0
H295 H 0.70652 0.22337 0.10403 0.0
H296 H 0.68199 0.24198 0.11048 0.0
O297 O 0.65635 0.23241 0.19897 0.0
O298 O 0.64685 0.19645 0.21049 0.0
H299 H 0.64804 0.14934 0.11603 0.0
H300 H 0.67043 0.13776 0.13527 0.0
C301 C 0.65639 0.15129 0.13356 0.0
H302 H 0.64305 0.14825 0.14742 0.0
H303 H 0.62418 0.14878 0.20104 0.0
O304 O 0.68892 0.26004 0.16684 0.0
C305 C 0.64439 0.21877 0.21191 0.0
Co306 Co 0.81525 0.17287 0.67932 0.0
Co307 Co 0.86664 0.15968 0.68939 0.0
C308 C 0.84927 0.20162 0.71156 0.0
O309 O 0.82936 0.1953 0.70328 0.0
O310 O 0.86794 0.19086 0.70542 0.0
C311 C 0.79283 0.20986 0.66315 0.0
O312 O 0.8131 0.21116 0.65215 0.0
C313 C 0.91826 0.15692 0.69286 0.0
C314 C 0.92526 0.12043 0.68141 0.0
C315 C 0.93625 0.14125 0.68766 0.0
N316 N 0.89749 0.14585 0.68998 0.0
N317 N 0.90184 0.1239 0.68353 0.0
C318 C 0.92066 0.18276 0.69752 0.0
H319 H 0.90962 0.19281 0.68488 0.0
H320 H 0.93922 0.1887 0.69612 0.0
H321 H 0.91411 0.18662 0.71545 0.0
C322 C 0.83042 0.16741 0.62941 0.0
N323 N 0.83451 0.16667 0.65277 0.0
N324 N 0.85696 0.16261 0.65663 0.0
C325 C 0.86814 0.16167 0.63558 0.0
C326 C 0.85166 0.16485 0.61744 0.0
C327 C 0.80632 0.16923 0.6187 0.0
H328 H 0.79275 0.16331 0.63138 0.0
H329 H 0.80257 0.18778 0.6138 0.0
H330 H 0.8053 0.15842 0.6025 0.0
O331 O 0.8078 0.1444 0.69634 0.0
O332 O 0.84408 0.14042 0.71058 0.0
H333 H 0.89941 0.1407 0.63493 0.0
H334 H 0.9002 0.16585 0.61553 0.0
C335 C 0.89428 0.15948 0.63295 0.0
H336 H 0.90328 0.16972 0.64686 0.0
H337 H 0.88878 0.1117 0.67927 0.0
O338 O 0.78644 0.18995 0.67086 0.0
C339 C 0.82199 0.13549 0.71119 0.0
Co340 Co 0.84943 0.32874 0.16924 0.0
Co341 Co 0.87984 0.37017 0.18739 0.0
C342 C 0.83267 0.36275 0.20728 0.0
O343 O 0.83178 0.34427 0.19491 0.0
O344 O 0.84968 0.37701 0.20492 0.0
C345 C 0.81069 0.33239 0.1443 0.0
O346 O 0.81777 0.35375 0.14962 0.0
C347 C 0.88918 0.41944 0.18885 0.0
C348 C 0.92614 0.42328 0.20034 0.0
C349 C 0.90646 0.43602 0.19318 0.0
N350 N 0.8981 0.39788 0.19294 0.0
N351 N 0.92023 0.4002 0.19995 0.0
C352 C 0.86399 0.42385 0.18199 0.0
H353 H 0.85327 0.42542 0.19818 0.0
H354 H 0.85707 0.40888 0.17159 0.0
H355 H 0.86183 0.44038 0.17188 0.0
C356 C 0.86583 0.34588 0.12334 0.0
N357 N 0.86535 0.34764 0.14695 0.0
N358 N 0.87698 0.36643 0.15358 0.0
C359 C 0.885 0.37747 0.13392 0.0
C360 C 0.87781 0.36488 0.11408 0.0
C361 C 0.85587 0.32573 0.10961 0.0
H362 H 0.85493 0.30964 0.12063 0.0
H363 H 0.83794 0.33043 0.10328 0.0
H364 H 0.86692 0.32212 0.09396 0.0
O365 O 0.87226 0.30948 0.18718 0.0
O366 O 0.89246 0.33956 0.20288 0.0
H367 H 0.91289 0.39884 0.14771 0.0
H368 H 0.90766 0.40251 0.11654 0.0
C369 C 0.89917 0.39964 0.13383 0.0
H370 H 0.88738 0.4148 0.13747 0.0
H371 H 0.93133 0.38612 0.20416 0.0
O372 O 0.82281 0.31481 0.15161 0.0
C373 C 0.88786 0.31734 0.2015 0.0
Co374 Co 0.73364 0.38081 0.68321 0.0
Co375 Co 0.68014 0.37848 0.68777 0.0
C376 C 0.70619 0.34184 0.71116 0.0
O377 O 0.72487 0.35372 0.70639 0.0
O378 O 0.68643 0.34731 0.7018 0.0
C379 C 0.78376 0.37093 0.68465 0.0
O380 O 0.80606 0.37693 0.68327 0.0
C381 C 0.62856 0.37166 0.68261 0.0
C382 C 0.61678 0.40877 0.68092 0.0
C383 C 0.60879 0.38581 0.67885 0.0
N384 N 0.64732 0.38574 0.686 0.0
N385 N 0.64005 0.40786 0.68533 0.0
C386 C 0.62966 0.34533 0.68389 0.0
H387 H 0.64339 0.3397 0.69656 0.0
H388 H 0.63431 0.33815 0.66642 0.0
H389 H 0.61249 0.33792 0.68949 0.0
C390 C 0.72238 0.37851 0.63124 0.0
N391 N 0.71657 0.37963 0.65428 0.0
N392 N 0.69351 0.37994 0.65626 0.0
C393 C 0.6839 0.37892 0.63443 0.0
C394 C 0.70183 0.37776 0.61763 0.0
C395 C 0.74718 0.37748 0.62236 0.0
H396 H 0.75949 0.37138 0.63616 0.0
H397 H 0.74839 0.36564 0.60692 0.0
H398 H 0.75263 0.3954 0.61683 0.0
O399 O 0.7273 0.41051 0.69925 0.0
O400 O 0.69382 0.3986 0.71379 0.0
H401 H 0.65411 0.38381 0.61094 0.0
H402 H 0.6498 0.36301 0.6346 0.0
C403 C 0.65795 0.38002 0.62966 0.0
H404 H 0.64988 0.39414 0.64035 0.0
H405 H 0.65118 0.42237 0.68707 0.0
O406 O 0.76799 0.3853 0.67805 0.0
C407 C 0.71264 0.41055 0.71587 0.0
Co408 Co 0.699 0.32133 0.37669 0.0
Co409 Co 0.6728 0.36776 0.36823 0.0
C410 C 0.71504 0.35891 0.34133 0.0
O411 O 0.714 0.33862 0.35046 0.0
O412 O 0.70127 0.37505 0.34834 0.0
C413 C 0.74281 0.31091 0.38257 0.0
O414 O 0.74161 0.33096 0.39401 0.0
C415 C 0.66518 0.41759 0.3721 0.0
C416 C 0.628 0.42312 0.36182 0.0
C417 C 0.64828 0.43485 0.3687 0.0
N418 N 0.65543 0.39653 0.36776 0.0
N419 N 0.63315 0.39986 0.36163 0.0
C420 C 0.69089 0.42111 0.37709 0.0
H421 H 0.69979 0.42679 0.36072 0.0
H422 H 0.69913 0.40449 0.38332 0.0
H423 H 0.69362 0.43503 0.39041 0.0
C424 C 0.69692 0.33672 0.42698 0.0
N425 N 0.69245 0.33982 0.40385 0.0
N426 N 0.68059 0.35952 0.40078 0.0
C427 C 0.67686 0.3694 0.4222 0.0
C428 C 0.68743 0.35543 0.43959 0.0
C429 C 0.70912 0.31559 0.43707 0.0
H430 H 0.70739 0.3003 0.42509 0.0
H431 H 0.72811 0.31961 0.43943 0.0
H432 H 0.70171 0.31112 0.45453 0.0
O433 O 0.67061 0.30745 0.36296 0.0
O434 O 0.65516 0.34139 0.35051 0.0
H435 H 0.64845 0.39312 0.41403 0.0
H436 H 0.65762 0.39359 0.44444 0.0
C437 C 0.66379 0.39199 0.42607 0.0
H438 H 0.67573 0.40698 0.42248 0.0
H439 H 0.62164 0.38636 0.35688 0.0
O440 O 0.7243 0.29839 0.38155 0.0
C441 C 0.65569 0.31875 0.3505 0.0
Co442 Co 0.73085 0.1944 0.88127 0.0
Co443 Co 0.68149 0.17732 0.86642 0.0
C444 C 0.70459 0.22298 0.84679 0.0
O445 O 0.72299 0.22113 0.8597 0.0
O446 O 0.68786 0.20788 0.84834 0.0
C447 C 0.76839 0.1793 0.90959 0.0
O448 O 0.75426 0.16132 0.91291 0.0
C449 C 0.63019 0.18278 0.86898 0.0
C450 C 0.61771 0.14724 0.85943 0.0
C451 C 0.60993 0.1691 0.86712 0.0
N452 N 0.64889 0.1695 0.86292 0.0
N453 N 0.64128 0.14838 0.85692 0.0
C454 C 0.63232 0.20716 0.8787 0.0
H455 H 0.65068 0.21061 0.88452 0.0
H456 H 0.62 0.20969 0.89359 0.0
H457 H 0.62775 0.22008 0.86476 0.0
C458 C 0.70811 0.19525 0.92867 0.0
N459 N 0.7079 0.19062 0.90538 0.0
N460 N 0.6883 0.17967 0.89993 0.0
C461 C 0.67631 0.17523 0.92011 0.0
C462 C 0.68846 0.18508 0.93914 0.0
C463 C 0.72554 0.21102 0.94059 0.0
H464 H 0.7311 0.20331 0.95762 0.0
H465 H 0.74089 0.21481 0.92936 0.0
H466 H 0.71689 0.22813 0.94441 0.0
O467 O 0.73557 0.16661 0.86093 0.0
O468 O 0.70095 0.15298 0.84954 0.0
H469 H 0.65143 0.1502 0.90649 0.0
H470 H 0.65084 0.15357 0.93807 0.0
C471 C 0.65305 0.16293 0.92113 0.0
H472 H 0.6387 0.17616 0.91968 0.0
H473 H 0.65226 0.13445 0.85206 0.0
O474 O 0.76182 0.19633 0.89644 0.0
C475 C 0.72341 0.15209 0.84912 0.0
Co476 Co 0.85612 0.22825 0.38107 0.0
Co477 Co 0.87254 0.17736 0.36762 0.0
C478 C 0.8253 0.19783 0.35101 0.0
O479 O 0.82746 0.21676 0.36301 0.0
O480 O 0.84106 0.18171 0.35192 0.0
C481 C 0.85555 0.28116 0.38701 0.0
O482 O 0.8566 0.29858 0.40215 0.0
C483 C 0.86897 0.12549 0.36777 0.0
C484 C 0.90653 0.11516 0.36849 0.0
C485 C 0.88391 0.10611 0.37013 0.0
N486 N 0.88222 0.14503 0.36571 0.0
N487 N 0.90465 0.13865 0.36571 0.0
C488 C 0.84257 0.12562 0.367 0.0
H489 H 0.83627 0.13857 0.35389 0.0
H490 H 0.83558 0.13085 0.3844 0.0
H491 H 0.83551 0.10809 0.3621 0.0
C492 C 0.86187 0.20966 0.42927 0.0
N493 N 0.86398 0.20728 0.40578 0.0
N494 N 0.87139 0.18593 0.40081 0.0
C495 C 0.87434 0.17401 0.42137 0.0
C496 C 0.86826 0.18863 0.4402 0.0
C497 C 0.85398 0.23194 0.44093 0.0
H498 H 0.86649 0.24624 0.4365 0.0
H499 H 0.83634 0.23705 0.43411 0.0
H500 H 0.85332 0.23024 0.4603 0.0
O501 O 0.88149 0.23201 0.35796 0.0
O502 O 0.89413 0.19699 0.34683 0.0
H503 H 0.89721 0.14526 0.4129 0.0
H504 H 0.88353 0.14278 0.4414 0.0
C505 C 0.88085 0.14851 0.42298 0.0
H506 H 0.86653 0.13779 0.41522 0.0
H507 H 0.9187 0.15045 0.36489 0.0
O508 O 0.85421 0.26027 0.39513 0.0
C509 C 0.89439 0.21941 0.34489 0.0
Co510 Co 0.82221 0.34278 0.88585 0.0
Co511 Co 0.86618 0.36687 0.8645 0.0
C512 C 0.85226 0.32034 0.84671 0.0
O513 O 0.83426 0.32185 0.8599 0.0
O514 O 0.86839 0.33576 0.84796 0.0
C515 C 0.82265 0.30711 0.91503 0.0
O516 O 0.84416 0.31009 0.90706 0.0
C517 C 0.91516 0.37502 0.85195 0.0
C518 C 0.92074 0.4116 0.86364 0.0
C519 C 0.93265 0.39148 0.85653 0.0
N520 N 0.89408 0.38452 0.85724 0.0
N521 N 0.89748 0.40668 0.8635 0.0
C522 C 0.91835 0.35049 0.84283 0.0
H523 H 0.90564 0.34733 0.82837 0.0
H524 H 0.91485 0.33764 0.85709 0.0
H525 H 0.93636 0.34767 0.8358 0.0
C526 C 0.84329 0.36091 0.92975 0.0
N527 N 0.84411 0.35778 0.90627 0.0
N528 N 0.86463 0.36461 0.89832 0.0
C529 C 0.87819 0.37095 0.91701 0.0
C530 C 0.86498 0.36893 0.9376 0.0
C531 C 0.82209 0.356 0.94459 0.0
H532 H 0.80594 0.35503 0.93365 0.0
H533 H 0.82472 0.33913 0.95413 0.0
H534 H 0.81965 0.36999 0.95791 0.0
O535 O 0.80439 0.3672 0.86889 0.0
O536 O 0.8361 0.38254 0.85122 0.0
H537 H 0.90289 0.3985 0.91097 0.0
H538 H 0.91245 0.37718 0.93231 0.0
C539 C 0.90303 0.37947 0.91536 0.0
H540 H 0.91251 0.36977 0.90139 0.0
H541 H 0.88418 0.41779 0.86964 0.0
O542 O 0.80609 0.31993 0.90668 0.0
C543 C 0.8136 0.38139 0.85404 0.0
Co544 Co 0.17573 0.6802 0.22638 0.0
Co545 Co 0.19006 0.66855 0.17623 0.0
C546 C 0.20434 0.71386 0.19383 0.0
O547 O 0.19566 0.70725 0.21346 0.0
O548 O 0.20114 0.70152 0.17547 0.0
C549 C 0.14316 0.70816 0.24512 0.0
O550 O 0.14361 0.71431 0.22288 0.0
C551 C 0.2008 0.66465 0.12608 0.0
C552 C 0.18422 0.63059 0.11743 0.0
C553 C 0.19462 0.65021 0.10734 0.0
N554 N 0.19363 0.65437 0.14608 0.0
N555 N 0.18422 0.63377 0.14083 0.0
C556 C 0.21384 0.68752 0.1253 0.0
H557 H 0.22622 0.68853 0.14036 0.0
H558 H 0.20108 0.70231 0.12669 0.0
H559 H 0.22404 0.68929 0.1088 0.0
C560 C 0.12875 0.66469 0.20952 0.0
N561 N 0.15213 0.66772 0.20618 0.0
N562 N 0.1568 0.66681 0.18376 0.0
C563 C 0.13603 0.66495 0.17186 0.0
C564 C 0.11731 0.66384 0.1879 0.0
C565 C 0.11772 0.66011 0.23297 0.0
H566 H 0.13137 0.65548 0.24619 0.0
H567 H 0.10782 0.67577 0.23902 0.0
H568 H 0.10487 0.64545 0.23148 0.0
O569 O 0.19849 0.65638 0.23598 0.0
O570 O 0.21326 0.65335 0.20001 0.0
H571 H 0.13338 0.648 0.13861 0.0
H572 H 0.11743 0.67534 0.1405 0.0
C573 C 0.13395 0.66617 0.14573 0.0
H574 H 0.14937 0.67542 0.13814 0.0
H575 H 0.17645 0.62256 0.15309 0.0
O576 O 0.15812 0.69325 0.25267 0.0
C577 C 0.21472 0.64954 0.2222 0.0
Co578 Co 0.17055 0.85925 0.33618 0.0
Co579 Co 0.18824 0.88716 0.37869 0.0
C580 C 0.20685 0.83872 0.37033 0.0
O581 O 0.19371 0.83773 0.35222 0.0
O582 O 0.206 0.8567 0.38361 0.0
C583 C 0.14024 0.82423 0.33009 0.0
O584 O 0.14383 0.82478 0.35288 0.0
C585 C 0.19249 0.89565 0.42816 0.0
C586 C 0.19099 0.93438 0.43139 0.0
C587 C 0.19126 0.91369 0.44435 0.0
N588 N 0.19304 0.90508 0.40654 0.0
N589 N 0.19253 0.92829 0.40854 0.0
C590 C 0.18951 0.86986 0.43293 0.0
H591 H 0.20703 0.86115 0.43217 0.0
H592 H 0.17804 0.86184 0.41932 0.0
H593 H 0.18176 0.86662 0.45049 0.0
C594 C 0.12417 0.87766 0.35187 0.0
N595 N 0.14771 0.87498 0.35473 0.0
N596 N 0.15421 0.88416 0.3748 0.0
C597 C 0.13442 0.89156 0.38616 0.0
C598 C 0.11467 0.8876 0.37192 0.0
C599 C 0.11084 0.8716 0.32993 0.0
H600 H 0.12288 0.87 0.31475 0.0
H601 H 0.10108 0.85491 0.33265 0.0
H602 H 0.09764 0.88539 0.32572 0.0
O603 O 0.18972 0.88218 0.31911 0.0
O604 O 0.20421 0.90209 0.34966 0.0
H605 H 0.14465 0.9198 0.40868 0.0
H606 H 0.11607 0.90758 0.41531 0.0
C607 C 0.13429 0.90331 0.40962 0.0
H608 H 0.14265 0.89157 0.4228 0.0
H609 H 0.19169 0.93988 0.39432 0.0
O610 O 0.15209 0.83788 0.31689 0.0
C611 C 0.20336 0.89797 0.32745 0.0
Co612 Co 0.18914 0.67536 0.81396 0.0
Co613 Co 0.17182 0.68703 0.86473 0.0
C614 C 0.21994 0.70328 0.8452 0.0
O615 O 0.21877 0.69114 0.82631 0.0
O616 O 0.2032 0.70292 0.86014 0.0
C617 C 0.19577 0.67304 0.76104 0.0
O618 O 0.19116 0.66152 0.74158 0.0
C619 C 0.17749 0.68146 0.91558 0.0
C620 C 0.14288 0.69351 0.92868 0.0
C621 C 0.16442 0.68441 0.93602 0.0
N622 N 0.16413 0.68822 0.89721 0.0
N623 N 0.1435 0.69546 0.90516 0.0
C624 C 0.20246 0.67316 0.91329 0.0
H625 H 0.21002 0.67865 0.89627 0.0
H626 H 0.20295 0.65363 0.91395 0.0
H627 H 0.21343 0.68015 0.92784 0.0
C628 C 0.18195 0.6261 0.83101 0.0
N629 N 0.18045 0.6497 0.83378 0.0
N630 N 0.17162 0.65442 0.85452 0.0
C631 C 0.16632 0.63377 0.86529 0.0
C632 C 0.17297 0.61483 0.85095 0.0
C633 C 0.19374 0.61481 0.81042 0.0
H634 H 0.18022 0.61048 0.797 0.0
H635 H 0.20662 0.62711 0.80246 0.0
H636 H 0.20292 0.59834 0.81572 0.0
O637 O 0.16481 0.7006 0.8126 0.0
O638 O 0.14987 0.70851 0.84744 0.0
H639 H 0.14172 0.64756 0.8904 0.0
H640 H 0.14316 0.61581 0.88935 0.0
C641 C 0.15367 0.63224 0.88826 0.0
H642 H 0.16669 0.63226 0.9028 0.0
H643 H 0.12977 0.70154 0.8945 0.0
O644 O 0.18831 0.66452 0.78037 0.0
C645 C 0.15093 0.7124 0.82547 0.0
Co646 Co 0.38632 0.71098 0.33622 0.0
Co647 Co 0.36877 0.68053 0.37734 0.0
C648 C 0.34786 0.72774 0.37032 0.0
O649 O 0.36052 0.72917 0.35203 0.0
O650 O 0.35029 0.71023 0.38406 0.0
C651 C 0.41192 0.74944 0.33798 0.0
O652 O 0.4062 0.74405 0.35966 0.0
C653 C 0.36616 0.66848 0.42589 0.0
C654 C 0.35874 0.63035 0.42694 0.0
C655 C 0.36348 0.64966 0.44103 0.0
N656 N 0.3633 0.66083 0.40383 0.0
N657 N 0.3586 0.63803 0.40446 0.0
C658 C 0.37155 0.69354 0.43213 0.0
H659 H 0.35472 0.70344 0.43353 0.0
H660 H 0.38226 0.70188 0.41815 0.0
H661 H 0.38088 0.69488 0.4492 0.0
C662 C 0.43312 0.69551 0.35382 0.0
N663 N 0.40932 0.69566 0.3553 0.0
N664 N 0.40276 0.68418 0.37416 0.0
C665 C 0.4226 0.67674 0.38557 0.0
C666 C 0.44251 0.68405 0.37313 0.0
C667 C 0.44701 0.70501 0.33361 0.0
H668 H 0.43605 0.70576 0.31748 0.0
H669 H 0.45349 0.7229 0.33799 0.0
H670 H 0.4627 0.69376 0.33034 0.0
O671 O 0.36898 0.68763 0.31681 0.0
O672 O 0.35385 0.66768 0.34715 0.0
H673 H 0.44053 0.65521 0.41134 0.0
H674 H 0.41809 0.67457 0.42262 0.0
C675 C 0.42281 0.66282 0.40785 0.0
H676 H 0.40966 0.64845 0.40685 0.0
H677 H 0.35609 0.62759 0.3896 0.0
O678 O 0.40406 0.7367 0.32125 0.0
C679 C 0.35515 0.67181 0.32498 0.0
Co680 Co 0.36558 0.87219 0.82099 0.0
Co681 Co 0.3854 0.85711 0.86913 0.0
C682 C 0.33918 0.83691 0.84834 0.0
O683 O 0.33968 0.85022 0.83024 0.0
O684 O 0.35522 0.83832 0.86414 0.0
C685 C 0.37666 0.90082 0.78219 0.0
O686 O 0.39566 0.90528 0.79461 0.0
C687 C 0.38134 0.85721 0.91989 0.0
C688 C 0.41751 0.84869 0.93168 0.0
C689 C 0.39523 0.85454 0.93983 0.0
N690 N 0.39476 0.85309 0.90096 0.0
N691 N 0.41632 0.84779 0.90808 0.0
C692 C 0.35641 0.86584 0.91845 0.0
H693 H 0.35263 0.87319 0.90077 0.0
H694 H 0.35305 0.87944 0.93202 0.0
H695 H 0.34429 0.85085 0.92153 0.0
C696 C 0.36667 0.91968 0.84299 0.0
N697 N 0.37067 0.89622 0.84358 0.0
N698 N 0.38169 0.89072 0.86311 0.0
C699 C 0.38622 0.91098 0.87501 0.0
C700 C 0.37702 0.93019 0.86245 0.0
C701 C 0.35017 0.93152 0.82614 0.0
H702 H 0.34031 0.91848 0.81553 0.0
H703 H 0.33745 0.94261 0.83599 0.0
H704 H 0.36016 0.94343 0.81458 0.0
O705 O 0.39345 0.85235 0.81461 0.0
O706 O 0.40905 0.84104 0.84841 0.0
H707 H 0.41302 0.89783 0.89831 0.0
H708 H 0.40844 0.92945 0.89957 0.0
C709 C 0.39966 0.91211 0.89758 0.0
H710 H 0.38725 0.90976 0.9124 0.0
H711 H 0.43038 0.84428 0.89682 0.0
O712 O 0.36075 0.88735 0.79046 0.0
C713 C 0.40885 0.84077 0.82604 0.0
Co714 Co 0.37385 0.85796 0.22576 0.0
Co715 Co 0.35819 0.87927 0.17856 0.0
C716 C 0.33992 0.83132 0.19739 0.0
O717 O 0.35305 0.83156 0.21568 0.0
O718 O 0.34091 0.84803 0.18228 0.0
C719 C 0.40157 0.87151 0.26372 0.0
O720 O 0.40459 0.89023 0.25051 0.0
C721 C 0.35809 0.87673 0.12773 0.0
C722 C 0.34897 0.91306 0.11705 0.0
C723 C 0.35514 0.89113 0.10822 0.0
N724 N 0.35382 0.88951 0.14706 0.0
N725 N 0.34815 0.91117 0.14061 0.0
C726 C 0.36716 0.85194 0.1284 0.0
H727 H 0.37478 0.84783 0.1459 0.0
H728 H 0.38069 0.84917 0.11463 0.0
H729 H 0.35233 0.83967 0.12514 0.0
C730 C 0.42107 0.86057 0.20394 0.0
N731 N 0.39763 0.86469 0.20352 0.0
N732 N 0.39201 0.87623 0.18435 0.0
C733 C 0.41226 0.88083 0.17241 0.0
C734 C 0.43158 0.8712 0.18462 0.0
C735 C 0.43277 0.84394 0.22076 0.0
H736 H 0.44212 0.85408 0.23439 0.0
H737 H 0.41959 0.83233 0.22925 0.0
H738 H 0.44605 0.833 0.21149 0.0
O739 O 0.35218 0.88402 0.23284 0.0
O740 O 0.34063 0.90149 0.2002 0.0
H741 H 0.39865 0.90753 0.14926 0.0
H742 H 0.4304 0.90369 0.14829 0.0
C743 C 0.41324 0.8945 0.14999 0.0
H744 H 0.41133 0.88219 0.13501 0.0
H745 H 0.34447 0.92482 0.15229 0.0
O746 O 0.38938 0.85421 0.25622 0.0
C747 C 0.33985 0.89954 0.22248 0.0
Co748 Co 0.20655 0.88713 0.72344 0.0
Co749 Co 0.18114 0.87002 0.67835 0.0
C750 C 0.22723 0.84911 0.69068 0.0
O751 O 0.22648 0.8615 0.70921 0.0
O752 O 0.21149 0.85183 0.67498 0.0
C753 C 0.24379 0.91401 0.7239 0.0
O754 O 0.23922 0.90797 0.70211 0.0
C755 C 0.17369 0.86566 0.6284 0.0
C756 C 0.13568 0.87271 0.62408 0.0
C757 C 0.15659 0.87074 0.61166 0.0
N758 N 0.16366 0.86574 0.64975 0.0
N759 N 0.14076 0.86928 0.64701 0.0
C760 C 0.19946 0.86145 0.62438 0.0
H761 H 0.20458 0.84451 0.63265 0.0
H762 H 0.20983 0.87574 0.6327 0.0
H763 H 0.20381 0.86019 0.60547 0.0
C764 C 0.18968 0.93349 0.70639 0.0
N765 N 0.19185 0.90993 0.70367 0.0
N766 N 0.18415 0.9038 0.68288 0.0
C767 C 0.17785 0.92379 0.67116 0.0
C768 C 0.18112 0.94337 0.68574 0.0
C769 C 0.19658 0.94647 0.72823 0.0
H770 H 0.19771 0.93428 0.7434 0.0
H771 H 0.21387 0.95514 0.72547 0.0
H772 H 0.18361 0.96042 0.73245 0.0
O773 O 0.18185 0.86913 0.73992 0.0
O774 O 0.16558 0.85459 0.70705 0.0
H775 H 0.15023 0.91599 0.64699 0.0
H776 H 0.16604 0.94249 0.64009 0.0
C777 C 0.16789 0.92425 0.64686 0.0
H778 H 0.17949 0.91402 0.63504 0.0
H779 H 0.12895 0.87133 0.66087 0.0
O780 O 0.231 0.90549 0.74028 0.0
C781 C 0.16725 0.85536 0.72959 0.0
Co782 Co 0.36677 0.67764 0.73123 0.0
Co783 Co 0.38496 0.68643 0.6809 0.0
C784 C 0.33969 0.70876 0.69665 0.0
O785 O 0.3421 0.69894 0.71668 0.0
O786 O 0.35462 0.70481 0.68047 0.0
C787 C 0.33441 0.66591 0.76568 0.0
O788 O 0.32466 0.65399 0.74848 0.0
C789 C 0.38314 0.68103 0.63023 0.0
C790 C 0.42016 0.68642 0.61955 0.0
C791 C 0.398 0.68077 0.61093 0.0
N792 N 0.39603 0.68609 0.64938 0.0
N793 N 0.41811 0.68948 0.6429 0.0
C794 C 0.35691 0.67797 0.63071 0.0
H795 H 0.34864 0.69491 0.63586 0.0
H796 H 0.35214 0.66476 0.64426 0.0
H797 H 0.34957 0.67281 0.61346 0.0
C798 C 0.37288 0.62656 0.71716 0.0
N799 N 0.37366 0.65007 0.71307 0.0
N800 N 0.38155 0.65381 0.69167 0.0
C801 C 0.38587 0.63262 0.68148 0.0
C802 C 0.38036 0.61451 0.69713 0.0
C803 C 0.36411 0.61586 0.73951 0.0
H804 H 0.36735 0.62793 0.75443 0.0
H805 H 0.34488 0.61277 0.73789 0.0
H806 H 0.37263 0.59869 0.74318 0.0
O807 O 0.39501 0.69668 0.7364 0.0
O808 O 0.40725 0.7061 0.70072 0.0
H809 H 0.41096 0.64242 0.65517 0.0
H810 H 0.40385 0.61152 0.65543 0.0
C811 C 0.39657 0.62953 0.6577 0.0
H812 H 0.38289 0.63254 0.64408 0.0
H813 H 0.43183 0.69348 0.65446 0.0
O814 O 0.35564 0.67219 0.7634 0.0
C815 C 0.40885 0.7079 0.72301 0.0
H816 H 0.27768 0.3563 0.64048 0.0
H817 H 0.33384 0.30498 0.64136 0.0
H818 H 0.24984 0.32593 0.62864 0.0
H819 H 0.30604 0.27423 0.63137 0.0
H820 H 0.25558 0.21857 0.61529 0.0
H821 H 0.28075 0.25278 0.60956 0.0
H822 H 0.22874 0.29626 0.64438 0.0
H823 H 0.20315 0.26241 0.6482 0.0
C824 C 0.28413 0.33852 0.63781 0.0
C825 C 0.308 0.33309 0.64187 0.0
C826 C 0.26806 0.32091 0.63133 0.0
C827 C 0.27523 0.29715 0.62943 0.0
C828 C 0.2995 0.29212 0.63222 0.0
C829 C 0.31565 0.30986 0.63807 0.0
C830 C 0.24914 0.23572 0.62066 0.0
C831 C 0.22728 0.23777 0.63206 0.0
C832 C 0.26383 0.25538 0.61789 0.0
C833 C 0.25744 0.27753 0.62718 0.0
C834 C 0.2346 0.27982 0.63676 0.0
C835 C 0.21966 0.26028 0.63891 0.0
H836 H 0.84323 0.76845 0.1488 0.0
H837 H 0.80628 0.70516 0.12885 0.0
H838 H 0.80844 0.79167 0.14072 0.0
H839 H 0.77146 0.72874 0.11921 0.0
H840 H 0.70691 0.76955 0.14752 0.0
H841 H 0.74188 0.74656 0.14 0.0
H842 H 0.77899 0.80985 0.1198 0.0
H843 H 0.74392 0.8332 0.12885 0.0
C844 C 0.82786 0.7595 0.14188 0.0
C845 C 0.82756 0.73475 0.13996 0.0
C846 C 0.80772 0.77299 0.13703 0.0
C847 C 0.78657 0.76228 0.12976 0.0
C848 C 0.78703 0.73773 0.12551 0.0
C849 C 0.80721 0.72413 0.13067 0.0
C850 C 0.72235 0.77865 0.14105 0.0
C851 C 0.72256 0.80343 0.13928 0.0
C852 C 0.7426 0.76528 0.1365 0.0
C853 C 0.7638 0.77613 0.12968 0.0
C854 C 0.76335 0.80074 0.12572 0.0
C855 C 0.74305 0.81422 0.13057 0.0
H856 H 0.26703 0.33477 0.90572 0.0
H857 H 0.20204 0.29613 0.89793 0.0
H858 H 0.28902 0.29818 0.90675 0.0
H859 H 0.22407 0.25912 0.89998 0.0
H860 H 0.27334 0.204 0.86512 0.0
H861 H 0.24829 0.23719 0.87499 0.0
H862 H 0.30148 0.26265 0.92303 0.0
H863 H 0.32706 0.22977 0.91231 0.0
C864 C 0.25727 0.31841 0.905 0.0
C865 C 0.23265 0.31862 0.9015 0.0
C866 C 0.26999 0.29721 0.90568 0.0
C867 C 0.25857 0.27536 0.90305 0.0
C868 C 0.2337 0.27549 0.90147 0.0
C869 C 0.22093 0.2968 0.90068 0.0
C870 C 0.27964 0.2164 0.87812 0.0
C871 C 0.30248 0.21413 0.88769 0.0
C872 C 0.26508 0.23555 0.88393 0.0
C873 C 0.27274 0.25307 0.89969 0.0
C874 C 0.29502 0.24997 0.91041 0.0
C875 C 0.30969 0.23088 0.90443 0.0
H876 H 0.81479 0.82681 0.40617 0.0
H877 H 0.86188 0.7706 0.38595 0.0
H878 H 0.78551 0.79828 0.41782 0.0
H879 H 0.83306 0.74167 0.39907 0.0
H880 H 0.76308 0.70147 0.38664 0.0
H881 H 0.79868 0.72496 0.38659 0.0
H882 H 0.76904 0.76975 0.44041 0.0
H883 H 0.73268 0.74702 0.43898 0.0
C884 C 0.81926 0.80828 0.40495 0.0
C885 C 0.8407 0.8011 0.39487 0.0
C886 C 0.80236 0.79171 0.41181 0.0
C887 C 0.80649 0.76732 0.40926 0.0
C888 C 0.82874 0.76017 0.40078 0.0
C889 C 0.84549 0.77681 0.39346 0.0
C890 C 0.76449 0.7158 0.3991 0.0
C891 C 0.74497 0.72239 0.41276 0.0
C892 C 0.78505 0.72949 0.39904 0.0
C893 C 0.78684 0.74991 0.41304 0.0
C894 C 0.7682 0.75481 0.42867 0.0
C895 C 0.74743 0.74146 0.42825 0.0
H896 H 0.64551 0.33225 0.30564 0.0
H897 H 0.63805 0.27398 0.35359 0.0
H898 H 0.63532 0.30681 0.27306 0.0
H899 H 0.62598 0.24862 0.32131 0.0
H900 H 0.64625 0.20347 0.25713 0.0
H901 H 0.64214 0.2278 0.29176 0.0
H902 H 0.61349 0.28412 0.24894 0.0
H903 H 0.61953 0.26007 0.2141 0.0
C904 C 0.64061 0.31419 0.30936 0.0
C905 C 0.64267 0.30518 0.33225 0.0
C906 C 0.63469 0.29939 0.29054 0.0
C907 C 0.63011 0.27517 0.29408 0.0
C908 C 0.63012 0.2668 0.31743 0.0
C909 C 0.63667 0.28148 0.33615 0.0
C910 C 0.63824 0.22072 0.25523 0.0
C911 C 0.63321 0.22977 0.23281 0.0
C912 C 0.63592 0.23493 0.27525 0.0
C913 C 0.62799 0.2585 0.27351 0.0
C914 C 0.62053 0.26653 0.25122 0.0
C915 C 0.62347 0.25252 0.23115 0.0
H916 H 0.83704 0.14007 0.75643 0.0
H917 H 0.78149 0.10965 0.71461 0.0
H918 H 0.81276 0.13657 0.7912 0.0
H919 H 0.75745 0.10473 0.74965 0.0
H920 H 0.7092 0.14091 0.80465 0.0
H921 H 0.73452 0.12903 0.77242 0.0
H922 H 0.79236 0.11902 0.82111 0.0
H923 H 0.76719 0.13238 0.85303 0.0
C924 C 0.82007 0.13148 0.75485 0.0
C925 C 0.81123 0.12523 0.73267 0.0
C926 C 0.80593 0.12951 0.77492 0.0
C927 C 0.78264 0.12083 0.77346 0.0
C928 C 0.77486 0.11225 0.75157 0.0
C929 C 0.78885 0.11465 0.73144 0.0
C930 C 0.7271 0.13541 0.80857 0.0
C931 C 0.73617 0.13771 0.8314 0.0
C932 C 0.7418 0.12857 0.78998 0.0
C933 C 0.76591 0.12343 0.7938 0.0
C934 C 0.77423 0.12353 0.81713 0.0
C935 C 0.75966 0.13085 0.8356 0.0
H936 H 0.90467 0.26602 0.34037 0.0
H937 H 0.90623 0.20072 0.30172 0.0
H938 H 0.90894 0.28801 0.30426 0.0
H939 H 0.9116 0.22285 0.26522 0.0
H940 H 0.87835 0.27027 0.20703 0.0
H941 H 0.88705 0.24552 0.24068 0.0
H942 H 0.92868 0.30143 0.271 0.0
H943 H 0.91909 0.32666 0.23758 0.0
C944 C 0.90687 0.25624 0.3242 0.0
C945 C 0.90494 0.23149 0.3241 0.0
C946 C 0.90939 0.26897 0.30329 0.0
C947 C 0.91028 0.25741 0.28147 0.0
C948 C 0.91045 0.23251 0.28154 0.0
C949 C 0.9078 0.21971 0.30258 0.0
C950 C 0.88976 0.27725 0.22061 0.0
C951 C 0.89774 0.30072 0.21952 0.0
C952 C 0.8949 0.26287 0.24002 0.0
C953 C 0.90837 0.27137 0.259 0.0
C954 C 0.91778 0.2943 0.25711 0.0
C955 C 0.91248 0.30878 0.23773 0.0
H956 H 0.76605 0.38971 0.85821 0.0
H957 H 0.8248 0.40104 0.81158 0.0
H958 H 0.73901 0.4039 0.82799 0.0
H959 H 0.79787 0.4141 0.78103 0.0
H960 H 0.74836 0.44074 0.72772 0.0
H961 H 0.77127 0.44021 0.76399 0.0
H962 H 0.7225 0.38987 0.79347 0.0
H963 H 0.69916 0.39141 0.75781 0.0
C964 C 0.77326 0.39552 0.8416 0.0
C965 C 0.79766 0.39408 0.83737 0.0
C966 C 0.75768 0.40347 0.82411 0.0
C967 C 0.766 0.4099 0.80171 0.0
C968 C 0.79058 0.40967 0.798 0.0
C969 C 0.80617 0.40204 0.8156 0.0
C970 C 0.74206 0.43027 0.74231 0.0
C971 C 0.72191 0.41609 0.73973 0.0
C972 C 0.75544 0.42963 0.76305 0.0
C973 C 0.74926 0.41451 0.78168 0.0
C974 C 0.72795 0.40189 0.77977 0.0
C975 C 0.71439 0.40281 0.75918 0.0
H976 H 0.22306 0.62308 0.26166 0.0
H977 H 0.25832 0.66371 0.20843 0.0
H978 H 0.25916 0.62197 0.28487 0.0
H979 H 0.29379 0.66457 0.23222 0.0
H980 H 0.35811 0.66497 0.27722 0.0
H981 H 0.32686 0.65261 0.25054 0.0
H982 H 0.27993 0.64427 0.30974 0.0
H983 H 0.31166 0.65474 0.3361 0.0
C984 C 0.23874 0.63139 0.25471 0.0
C985 C 0.23782 0.64328 0.23308 0.0
C986 C 0.25946 0.63124 0.26828 0.0
C987 C 0.27968 0.64379 0.26108 0.0
C988 C 0.27904 0.65444 0.23864 0.0
C989 C 0.25853 0.65393 0.22478 0.0
C990 C 0.34123 0.6599 0.28449 0.0
C991 C 0.3375 0.66083 0.30886 0.0
C992 C 0.32305 0.65308 0.26912 0.0
C993 C 0.30029 0.64764 0.27757 0.0
C994 C 0.29701 0.64777 0.30213 0.0
C995 C 0.31535 0.65396 0.31748 0.0
H996 H 0.20471 0.89465 0.2796 0.0
H997 H 0.24258 0.92483 0.33807 0.0
H998 H 0.23749 0.90311 0.25394 0.0
H999 H 0.27531 0.93437 0.31196 0.0
H1000 H 0.33959 0.90597 0.26981 0.0
H1001 H 0.30559 0.91296 0.29439 0.0
H1002 H 0.26329 0.92695 0.23267 0.0
H1003 H 0.29749 0.91881 0.20788 0.0
C1004 C 0.21979 0.90374 0.28692 0.0
C1005 C 0.221 0.90867 0.31113 0.0
C1006 C 0.2387 0.90881 0.27201 0.0
C1007 C 0.25948 0.91917 0.28072 0.0
C1008 C 0.25992 0.92588 0.30459 0.0
C1009 C 0.24097 0.92065 0.3196 0.0
C1010 C 0.32321 0.91116 0.26142 0.0
C1011 C 0.3213 0.91147 0.23676 0.0
C1012 C 0.30355 0.91531 0.27564 0.0
C1013 C 0.28129 0.92008 0.26571 0.0
C1014 C 0.27992 0.9227 0.24107 0.0
C1015 C 0.29967 0.91842 0.22677 0.0
H1016 H 0.12641 0.71812 0.78453 0.0
H1017 H 0.15653 0.75657 0.84233 0.0
H1018 H 0.12218 0.75456 0.7623 0.0
H1019 H 0.15464 0.79267 0.81967 0.0
H1020 H 0.15385 0.85717 0.77593 0.0
H1021 H 0.14114 0.82449 0.80057 0.0
H1022 H 0.14422 0.77824 0.74027 0.0
H1023 H 0.15482 0.81123 0.71575 0.0
C1024 C 0.13156 0.73456 0.79269 0.0
C1025 C 0.14147 0.73454 0.81529 0.0
C1026 C 0.12971 0.75553 0.77973 0.0
C1027 C 0.13877 0.77693 0.78858 0.0
C1028 C 0.14718 0.77697 0.81195 0.0
C1029 C 0.14823 0.75613 0.82518 0.0
C1030 C 0.1511 0.8401 0.76792 0.0
C1031 C 0.15534 0.83688 0.74384 0.0
C1032 C 0.14412 0.82112 0.78214 0.0
C1033 C 0.14195 0.79815 0.77286 0.0
C1034 C 0.14514 0.79539 0.74844 0.0
C1035 C 0.15141 0.81448 0.73417 0.0
H1036 H 0.41119 0.75364 0.70934 0.0
H1037 H 0.4356 0.70561 0.76279 0.0
H1038 H 0.41996 0.78673 0.73468 0.0
H1039 H 0.44634 0.7387 0.78776 0.0
H1040 H 0.41775 0.79535 0.83851 0.0
H1041 H 0.42659 0.76331 0.81191 0.0
H1042 H 0.4397 0.81363 0.75632 0.0
H1043 H 0.42892 0.8455 0.78282 0.0
C1044 C 0.41972 0.75023 0.72605 0.0
C1045 C 0.42266 0.72703 0.73407 0.0
C1046 C 0.42476 0.76933 0.74082 0.0
C1047 C 0.43338 0.76571 0.76385 0.0
C1048 C 0.4389 0.74242 0.77064 0.0
C1049 C 0.43321 0.72334 0.75612 0.0
C1050 C 0.42335 0.79959 0.82084 0.0
C1051 C 0.42252 0.82294 0.81276 0.0
C1052 C 0.42845 0.7811 0.80536 0.0
C1053 C 0.43338 0.78551 0.78145 0.0
C1054 C 0.43515 0.80921 0.77422 0.0
C1055 C 0.4294 0.82763 0.78955 0.0
H1056 H 0.23133 0.32553 0.81383 0.0
H1057 H 0.15685 0.33464 0.80127 0.0
H1058 H 0.23204 0.29234 0.78733 0.0
H1059 H 0.15769 0.30245 0.77298 0.0
H1060 H 0.15954 0.23019 0.73873 0.0
H1061 H 0.15866 0.26316 0.76616 0.0
H1062 H 0.23226 0.27672 0.75155 0.0
H1063 H 0.23333 0.24281 0.72597 0.0
C1064 C 0.21519 0.32093 0.80474 0.0
C1065 C 0.19408 0.33298 0.80959 0.0
C1066 C 0.21555 0.30172 0.78931 0.0
C1067 C 0.19492 0.29421 0.77761 0.0
C1068 C 0.17393 0.30698 0.78186 0.0
C1069 C 0.17346 0.32583 0.79786 0.0
C1070 C 0.17559 0.24003 0.74181 0.0
C1071 C 0.19657 0.23355 0.73041 0.0
C1072 C 0.17507 0.25929 0.75734 0.0
C1073 C 0.19538 0.27313 0.76139 0.0
C1074 C 0.2163 0.26649 0.74975 0.0
C1075 C 0.21695 0.2469 0.73484 0.0
H1076 H 0.72846 0.66328 0.31419 0.0
H1077 H 0.73262 0.73913 0.31741 0.0
H1078 H 0.76129 0.6624 0.2871 0.0
H1079 H 0.76517 0.73836 0.28935 0.0
H1080 H 0.83914 0.7282 0.25863 0.0
H1081 H 0.80562 0.72914 0.28535 0.0
H1082 H 0.77538 0.66932 0.24954 0.0
H1083 H 0.80923 0.66789 0.2235 0.0
C1084 C 0.73603 0.6799 0.30877 0.0
C1085 C 0.72767 0.7013 0.31818 0.0
C1086 C 0.755 0.67939 0.29302 0.0
C1087 C 0.76631 0.70028 0.28589 0.0
C1088 C 0.75741 0.7218 0.29466 0.0
C1089 C 0.73843 0.7223 0.31058 0.0
C1090 C 0.82551 0.71502 0.25664 0.0
C1091 C 0.82718 0.69785 0.23887 0.0
C1092 C 0.806 0.71575 0.27185 0.0
C1093 C 0.7874 0.69943 0.26974 0.0
C1094 C 0.78931 0.68206 0.25215 0.0
C1095 C 0.80887 0.68123 0.23708 0.0
H1096 H 0.40245 0.23465 0.82063 0.0
H1097 H 0.33764 0.21373 0.78661 0.0
H1098 H 0.40443 0.26938 0.7948 0.0
H1099 H 0.33948 0.24834 0.76148 0.0
H1100 H 0.33292 0.32712 0.7453 0.0
H1101 H 0.33551 0.29286 0.77099 0.0
H1102 H 0.40724 0.28092 0.74903 0.0
H1103 H 0.4046 0.3152 0.72273 0.0
C1104 C 0.38882 0.23721 0.80751 0.0
C1105 C 0.36985 0.22127 0.80587 0.0
C1106 C 0.38995 0.25714 0.79274 0.0
C1107 C 0.37192 0.26182 0.7763 0.0
C1108 C 0.35347 0.24548 0.77417 0.0
C1109 C 0.35254 0.22547 0.78855 0.0
C1110 C 0.34941 0.31747 0.74605 0.0
C1111 C 0.36852 0.32404 0.73175 0.0
C1112 C 0.35082 0.29766 0.76072 0.0
C1113 C 0.3715 0.28397 0.76192 0.0
C1114 C 0.39106 0.29109 0.74853 0.0
C1115 C 0.38951 0.31074 0.73344 0.0
H1116 H 0.80697 0.89552 0.32218 0.0
H1117 H 0.83103 0.83004 0.29195 0.0
H1118 H 0.77176 0.89419 0.29696 0.0
H1119 H 0.79601 0.82866 0.26726 0.0
H1120 H 0.71919 0.81837 0.24622 0.0
H1121 H 0.75271 0.82246 0.27289 0.0
H1122 H 0.75895 0.89576 0.2539 0.0
H1123 H 0.72546 0.89168 0.22697 0.0
C1124 C 0.80494 0.88099 0.31006 0.0
C1125 C 0.82205 0.86292 0.30923 0.0
C1126 C 0.7847 0.8802 0.2956 0.0
C1127 C 0.78078 0.86113 0.28024 0.0
C1128 C 0.79813 0.8434 0.27912 0.0
C1129 C 0.81843 0.84435 0.29321 0.0
C1130 C 0.72739 0.83549 0.24794 0.0
C1131 C 0.71945 0.85466 0.23428 0.0
C1132 C 0.74684 0.83778 0.26313 0.0
C1133 C 0.75882 0.85939 0.26543 0.0
C1134 C 0.7502 0.87887 0.25266 0.0
C1135 C 0.73094 0.8765 0.23718 0.0
H1136 H 0.74178 0.23347 0.22803 0.0
H1137 H 0.72572 0.1598 0.23804 0.0
H1138 H 0.76713 0.23258 0.26267 0.0
H1139 H 0.75082 0.15903 0.27287 0.0
H1140 H 0.79111 0.23032 0.33932 0.0
H1141 H 0.76479 0.22992 0.30521 0.0
H1142 H 0.79096 0.16098 0.28647 0.0
H1143 H 0.81702 0.16139 0.32043 0.0
C1144 C 0.74383 0.21698 0.23741 0.0
C1145 C 0.73164 0.19668 0.23001 0.0
C1146 C 0.75818 0.21655 0.25755 0.0
C1147 C 0.76091 0.19581 0.2709 0.0
C1148 C 0.74932 0.17533 0.26307 0.0
C1149 C 0.73489 0.17577 0.24299 0.0
C1150 C 0.79103 0.21498 0.32808 0.0
C1151 C 0.80635 0.19598 0.33273 0.0
C1152 C 0.77608 0.21481 0.30834 0.0
C1153 C 0.77586 0.19553 0.29275 0.0
C1154 C 0.79044 0.1761 0.29802 0.0
C1155 C 0.80545 0.17634 0.31764 0.0
H1156 H 0.81469 0.30248 0.82312 0.0
H1157 H 0.89049 0.29822 0.82619 0.0
H1158 H 0.8142 0.27621 0.78986 0.0
H1159 H 0.89022 0.26984 0.79403 0.0
H1160 H 0.88625 0.2305 0.72448 0.0
H1161 H 0.88732 0.25934 0.75618 0.0
H1162 H 0.81564 0.24083 0.77444 0.0
H1163 H 0.81422 0.21398 0.7417 0.0
C1164 C 0.83131 0.29534 0.81704 0.0
C1165 C 0.8526 0.30232 0.82759 0.0
C1166 C 0.83109 0.27993 0.79783 0.0
C1167 C 0.85214 0.27013 0.78885 0.0
C1168 C 0.87352 0.27699 0.79976 0.0
C1169 C 0.87375 0.29313 0.81855 0.0
C1170 C 0.87065 0.23296 0.73514 0.0
C1171 C 0.85008 0.22004 0.73031 0.0
C1172 C 0.87129 0.24939 0.75367 0.0
C1173 C 0.85157 0.25293 0.76845 0.0
C1174 C 0.83111 0.23964 0.76348 0.0
C1175 C 0.83029 0.22385 0.7446 0.0
H1176 H 0.72556 0.32699 0.30811 0.0
H1177 H 0.74126 0.39827 0.32888 0.0
H1178 H 0.75291 0.32999 0.27593 0.0
H1179 H 0.77045 0.40099 0.2971 0.0
H1180 H 0.80942 0.40227 0.2246 0.0
H1181 H 0.78045 0.40329 0.25672 0.0
H1182 H 0.79199 0.32883 0.26846 0.0
H1183 H 0.81891 0.32771 0.23575 0.0
C1184 C 0.73513 0.34335 0.30587 0.0
C1185 C 0.73132 0.36233 0.32118 0.0
C1186 C 0.75117 0.34503 0.28745 0.0
C1187 C 0.76466 0.36554 0.28398 0.0
C1188 C 0.76046 0.38488 0.29902 0.0
C1189 C 0.74379 0.38336 0.31731 0.0
C1190 C 0.80546 0.38619 0.23404 0.0
C1191 C 0.81596 0.3648 0.22727 0.0
C1192 C 0.78898 0.38674 0.25258 0.0
C1193 C 0.78316 0.366 0.26505 0.0
C1194 C 0.79489 0.34501 0.25884 0.0
C1195 C 0.81061 0.34436 0.24008 0.0
H1196 H 0.73238 0.2625 0.84159 0.0
H1197 H 0.67564 0.2247 0.80815 0.0
H1198 H 0.73301 0.29042 0.80903 0.0
H1199 H 0.67703 0.25162 0.77505 0.0
H1200 H 0.66944 0.31482 0.72694 0.0
H1201 H 0.66861 0.28769 0.75976 0.0
H1202 H 0.74331 0.29831 0.77068 0.0
H1203 H 0.74355 0.32696 0.73874 0.0
C1204 C 0.71998 0.26013 0.82731 0.0
C1205 C 0.7038 0.24134 0.82778 0.0
C1206 C 0.72052 0.27606 0.80833 0.0
C1207 C 0.70515 0.27356 0.78894 0.0
C1208 C 0.68891 0.25475 0.7896 0.0
C1209 C 0.68812 0.2391 0.80872 0.0
C1210 C 0.68579 0.3113 0.73618 0.0
C1211 C 0.70667 0.32304 0.72977 0.0
C1212 C 0.68537 0.29546 0.75513 0.0
C1213 C 0.70589 0.29039 0.76828 0.0
C1214 C 0.72694 0.3018 0.7615 0.0
C1215 C 0.72724 0.318 0.74274 0.0
H1216 H 0.30731 0.82597 0.16191 0.0
H1217 H 0.32908 0.79536 0.22796 0.0
H1218 H 0.27361 0.7994 0.16061 0.0
H1219 H 0.29565 0.76849 0.22642 0.0
H1220 H 0.22088 0.74047 0.23065 0.0
H1221 H 0.2535 0.76835 0.2306 0.0
H1222 H 0.26101 0.75936 0.15576 0.0
H1223 H 0.22807 0.73187 0.15573 0.0
C1224 C 0.30516 0.81335 0.17601 0.0
C1225 C 0.32109 0.81296 0.19506 0.0
C1226 C 0.28575 0.79803 0.17525 0.0
C1227 C 0.28156 0.78183 0.19353 0.0
C1228 C 0.29788 0.78099 0.21223 0.0
C1229 C 0.31732 0.79627 0.21298 0.0
C1230 C 0.22917 0.74471 0.21408 0.0
C1231 C 0.22167 0.73375 0.1932 0.0
C1232 C 0.24818 0.76053 0.2141 0.0
C1233 C 0.26031 0.76598 0.19323 0.0
C1234 C 0.25217 0.75578 0.17219 0.0
C1235 C 0.23318 0.73992 0.17218 0.0
H1236 H 0.21956 0.80349 0.34012 0.0
H1237 H 0.23745 0.83248 0.4079 0.0
H1238 H 0.25358 0.77733 0.3424 0.0
H1239 H 0.27152 0.80568 0.41027 0.0
H1240 H 0.31758 0.73337 0.40817 0.0
H1241 H 0.28284 0.75937 0.41061 0.0
H1242 H 0.2983 0.78677 0.34176 0.0
H1243 H 0.33291 0.76152 0.33943 0.0
C1244 C 0.23045 0.80406 0.35576 0.0
C1245 C 0.22562 0.82032 0.37379 0.0
C1246 C 0.25013 0.78908 0.35697 0.0
C1247 C 0.26547 0.78954 0.3764 0.0
C1248 C 0.26006 0.80486 0.39506 0.0
C1249 C 0.2405 0.82023 0.39367 0.0
C1250 C 0.31377 0.74521 0.39371 0.0
C1251 C 0.32821 0.7452 0.37359 0.0
C1252 C 0.29384 0.7601 0.39512 0.0
C1253 C 0.2876 0.77496 0.37625 0.0
C1254 C 0.30237 0.77535 0.35649 0.0
C1255 C 0.3224 0.7609 0.35525 0.0
H1256 H 0.26814 0.7 0.83802 0.0
H1257 H 0.21329 0.74861 0.85806 0.0
H1258 H 0.29711 0.73232 0.83943 0.0
H1259 H 0.24189 0.7807 0.85922 0.0
H1260 H 0.29582 0.83453 0.82664 0.0
H1261 H 0.26782 0.80169 0.82685 0.0
H1262 H 0.31433 0.76215 0.87221 0.0
H1263 H 0.34208 0.79519 0.87261 0.0
C1264 C 0.26232 0.71752 0.84276 0.0
C1265 C 0.23845 0.72172 0.84791 0.0
C1266 C 0.27887 0.736 0.84369 0.0
C1267 C 0.27177 0.75915 0.84934 0.0
C1268 C 0.24793 0.76318 0.85467 0.0
C1269 C 0.23159 0.7447 0.85422 0.0
C1270 C 0.29999 0.81896 0.83688 0.0
C1271 C 0.32117 0.8177 0.84978 0.0
C1272 C 0.28395 0.80011 0.83696 0.0
C1273 C 0.2889 0.77922 0.84944 0.0
C1274 C 0.31007 0.7779 0.86228 0.0
C1275 C 0.32585 0.79697 0.86268 0.0
H1276 H 0.33197 0.73773 0.65827 0.0
H1277 H 0.30497 0.72211 0.72715 0.0
H1278 H 0.30498 0.77141 0.65531 0.0
H1279 H 0.27834 0.75586 0.72445 0.0
H1280 H 0.25818 0.8341 0.72457 0.0
H1281 H 0.28361 0.79951 0.72442 0.0
H1282 H 0.26187 0.78386 0.65355 0.0
H1283 H 0.23599 0.8186 0.6537 0.0
C1284 C 0.32011 0.74124 0.67272 0.0
C1285 C 0.32097 0.72724 0.69319 0.0
C1286 C 0.30461 0.76063 0.671 0.0
C1287 C 0.2897 0.76672 0.68979 0.0
C1288 C 0.28989 0.75212 0.70981 0.0
C1289 C 0.30515 0.73265 0.71137 0.0
C1290 C 0.25887 0.82351 0.70879 0.0
C1291 C 0.24487 0.82936 0.68913 0.0
C1292 C 0.27337 0.80344 0.70881 0.0
C1293 C 0.27467 0.78861 0.68909 0.0
C1294 C 0.26137 0.79484 0.66906 0.0
C1295 C 0.24652 0.81483 0.66914 0.0
H1296 H 0.92611 0.86693 0.27293 0.0
H1297 H 0.93 0.7927 0.28964 0.0
H1298 H 0.94256 0.85914 0.23432 0.0
H1299 H 0.94676 0.78504 0.2512 0.0
H1300 H 0.89347 0.80785 0.18309 0.0
H1301 H 0.91139 0.83563 0.20989 0.0
H1302 H 0.9738 0.792 0.21374 0.0
H1303 H 0.95631 0.76509 0.18522 0.0
C1304 C 0.93119 0.84903 0.26867 0.0
C1305 C 0.9257 0.83017 0.28376 0.0
C1306 C 0.94104 0.84473 0.24672 0.0
C1307 C 0.94556 0.82154 0.23966 0.0
C1308 C 0.94348 0.80317 0.25618 0.0
C1309 C 0.93341 0.80744 0.27806 0.0
C1310 C 0.9117 0.8052 0.18825 0.0
C1311 C 0.92328 0.78409 0.18307 0.0
C1312 C 0.92211 0.82115 0.20357 0.0
C1313 C 0.94355 0.81529 0.21465 0.0
C1314 C 0.95708 0.79663 0.2057 0.0
C1315 C 0.94695 0.78111 0.1896 0.0
H1316 H 0.3517 0.43664 0.76013 0.0
H1317 H 0.28208 0.42787 0.73053 0.0
H1318 H 0.33565 0.46286 0.78989 0.0
H1319 H 0.26606 0.45357 0.75997 0.0
H1320 H 0.29013 0.41782 0.84345 0.0
H1321 H 0.31645 0.44108 0.81984 0.0
H1322 H 0.2572 0.47989 0.79147 0.0
H1323 H 0.2306 0.45603 0.81502 0.0
C1324 C 0.33301 0.44061 0.75977 0.0
C1325 C 0.31772 0.42884 0.74431 0.0
C1326 C 0.32393 0.45604 0.7765 0.0
C1327 C 0.29941 0.45907 0.77839 0.0
C1328 C 0.28499 0.45103 0.75984 0.0
C1329 C 0.29404 0.43569 0.74315 0.0
C1330 C 0.28274 0.43173 0.83264 0.0
C1331 C 0.25837 0.43376 0.82927 0.0
C1332 C 0.2979 0.44559 0.81938 0.0
C1333 C 0.28857 0.4607 0.80199 0.0
C1334 C 0.26469 0.46715 0.80359 0.0
C1335 C 0.24941 0.4531 0.81662 0.0
H1336 H 0.61355 0.7684 0.35272 0.0
H1337 H 0.6827 0.75136 0.32682 0.0
H1338 H 0.59598 0.75357 0.31658 0.0
H1339 H 0.66596 0.73775 0.29055 0.0
H1340 H 0.65182 0.7483 0.22418 0.0
H1341 H 0.6443 0.72414 0.25875 0.0
H1342 H 0.59672 0.77781 0.28466 0.0
H1343 H 0.60361 0.80104 0.25016 0.0
C1344 C 0.62488 0.76053 0.33962 0.0
C1345 C 0.64941 0.76059 0.34249 0.0
C1346 C 0.61489 0.75207 0.31889 0.0
C1347 C 0.62948 0.74544 0.30005 0.0
C1348 C 0.65386 0.74274 0.30434 0.0
C1349 C 0.66371 0.75055 0.3253 0.0
C1350 C 0.63901 0.75435 0.23689 0.0
C1351 C 0.62959 0.77721 0.23559 0.0
C1352 C 0.6346 0.74049 0.25667 0.0
C1353 C 0.62162 0.74995 0.27549 0.0
C1354 C 0.60786 0.77024 0.27125 0.0
C1355 C 0.61208 0.78395 0.2515 0.0
H1356 H 0.29355 0.12253 0.78198 0.0
H1357 H 0.36874 0.12614 0.7701 0.0
H1358 H 0.28752 0.11426 0.74041 0.0
H1359 H 0.36245 0.11882 0.72851 0.0
H1360 H 0.27718 0.11129 0.66711 0.0
H1361 H 0.30184 0.09158 0.69657 0.0
H1362 H 0.33475 0.15807 0.71286 0.0
H1363 H 0.30827 0.17797 0.68573 0.0
C1364 C 0.30879 0.12073 0.7707 0.0
C1365 C 0.33145 0.12588 0.77903 0.0
C1366 C 0.30542 0.11558 0.747 0.0
C1367 C 0.3246 0.1161 0.7314 0.0
C1368 C 0.3475 0.11816 0.74029 0.0
C1369 C 0.35094 0.12276 0.76406 0.0
C1370 C 0.29027 0.12148 0.67647 0.0
C1371 C 0.29011 0.14619 0.6754 0.0
C1372 C 0.30459 0.11012 0.69298 0.0
C1373 C 0.31969 0.12348 0.70719 0.0
C1374 C 0.32312 0.14744 0.70212 0.0
C1375 C 0.30794 0.1589 0.68665 0.0
H1376 H 0.26351 0.92594 0.7663 0.0
H1377 H 0.27087 0.93609 0.69146 0.0
H1378 H 0.30382 0.93974 0.77186 0.0
H1379 H 0.31132 0.9489 0.6971 0.0
H1380 H 0.37687 0.94877 0.77948 0.0
H1381 H 0.34471 0.96933 0.75916 0.0
H1382 H 0.33244 0.90731 0.71718 0.0
H1383 H 0.36195 0.88602 0.7397 0.0
C1384 C 0.27335 0.93197 0.75119 0.0
C1385 C 0.26455 0.92885 0.72843 0.0
C1386 C 0.29629 0.94028 0.75436 0.0
C1387 C 0.31063 0.94501 0.73479 0.0
C1388 C 0.30055 0.94539 0.71238 0.0
C1389 C 0.27754 0.93752 0.70923 0.0
C1390 C 0.36772 0.93988 0.76539 0.0
C1391 C 0.37047 0.91554 0.76204 0.0
C1392 C 0.34968 0.9518 0.75352 0.0
C1393 C 0.33583 0.93961 0.73717 0.0
C1394 C 0.34282 0.917 0.72991 0.0
C1395 C 0.3597 0.90473 0.74278 0.0
H1396 H 0.10286 0.7311 0.23231 0.0
H1397 H 0.14154 0.70602 0.29283 0.0
H1398 H 0.07958 0.75679 0.25741 0.0
H1399 H 0.11896 0.73193 0.31771 0.0
H1400 H 0.12499 0.82211 0.28486 0.0
H1401 H 0.10396 0.7899 0.26716 0.0
H1402 H 0.09213 0.7593 0.33571 0.0
H1403 H 0.11366 0.7918 0.3535 0.0
C1404 C 0.10599 0.73069 0.25107 0.0
C1405 C 0.12507 0.71802 0.2606 0.0
C1406 C 0.09235 0.74505 0.26548 0.0
C1407 C 0.09851 0.7476 0.28923 0.0
C1408 C 0.1142 0.73112 0.29931 0.0
C1409 C 0.12761 0.71652 0.28498 0.0
C1410 C 0.11742 0.80882 0.29621 0.0
C1411 C 0.12234 0.80844 0.32028 0.0
C1412 C 0.10479 0.79049 0.28613 0.0
C1413 C 0.09748 0.77127 0.30001 0.0
C1414 C 0.09836 0.77343 0.32454 0.0
C1415 C 0.11104 0.79182 0.33466 0.0
H1416 H 0.19981 0.71108 0.79102 0.0
H1417 H 0.22969 0.68109 0.72843 0.0
H1418 H 0.23769 0.72954 0.80013 0.0
H1419 H 0.26673 0.70047 0.73684 0.0
H1420 H 0.29801 0.65335 0.79364 0.0
H1421 H 0.26232 0.67687 0.79703 0.0
H1422 H 0.29831 0.73682 0.76772 0.0
H1423 H 0.33461 0.71368 0.76567 0.0
C1424 C 0.21424 0.70885 0.77902 0.0
C1425 C 0.2128 0.69264 0.76055 0.0
C1426 C 0.23568 0.7199 0.78393 0.0
C1427 C 0.25538 0.71473 0.77017 0.0
C1428 C 0.25185 0.70408 0.74819 0.0
C1429 C 0.23068 0.69255 0.74358 0.0
C1430 C 0.2988 0.672 0.78963 0.0
C1431 C 0.31871 0.68156 0.77888 0.0
C1432 C 0.27842 0.68557 0.79166 0.0
C1433 C 0.27759 0.70837 0.78191 0.0
C1434 C 0.2986 0.71924 0.77517 0.0
C1435 C 0.31931 0.70589 0.77394 0.0
H1436 H 0.44933 0.87203 0.26901 0.0
H1437 H 0.3842 0.86393 0.30692 0.0
H1438 H 0.46909 0.84583 0.29699 0.0
H1439 H 0.40431 0.84025 0.33621 0.0
H1440 H 0.43068 0.76466 0.29648 0.0
H1441 H 0.44495 0.80422 0.28851 0.0
H1442 H 0.43997 0.82135 0.36212 0.0
H1443 H 0.42633 0.7816 0.37029 0.0
C1444 C 0.43964 0.86581 0.2841 0.0
C1445 C 0.41508 0.86853 0.28533 0.0
C1446 C 0.45108 0.85127 0.30035 0.0
C1447 C 0.43796 0.84042 0.31817 0.0
C1448 C 0.41477 0.84812 0.32239 0.0
C1449 C 0.40311 0.86154 0.30555 0.0
C1450 C 0.43351 0.77656 0.31106 0.0
C1451 C 0.42628 0.77055 0.33375 0.0
C1452 C 0.4422 0.79907 0.30662 0.0
C1453 C 0.44312 0.81589 0.32474 0.0
C1454 C 0.43938 0.80867 0.34793 0.0
C1455 C 0.43106 0.78605 0.35243 0.0
H1456 H 0.76575 0.18083 0.95702 0.0
H1457 H 0.8138 0.18901 0.89922 0.0
H1458 H 0.78573 0.2126 0.97798 0.0
H1459 H 0.83549 0.2184 0.92109 0.0
H1460 H 0.78051 0.2884 0.92932 0.0
H1461 H 0.77575 0.24988 0.94753 0.0
H1462 H 0.85101 0.2448 0.95792 0.0
H1463 H 0.85579 0.28355 0.94034 0.0
C1464 C 0.78166 0.18819 0.94961 0.0
C1465 C 0.78757 0.18383 0.92611 0.0
C1466 C 0.79325 0.20612 0.96176 0.0
C1467 C 0.81147 0.21852 0.95068 0.0
C1468 C 0.82116 0.20941 0.92986 0.0
C1469 C 0.80876 0.19253 0.91722 0.0
C1470 C 0.79589 0.27957 0.93648 0.0
C1471 C 0.81857 0.28828 0.93232 0.0
C1472 C 0.79319 0.25766 0.94732 0.0
C1473 C 0.81317 0.24422 0.95362 0.0
C1474 C 0.83542 0.25479 0.95309 0.0
C1475 C 0.8381 0.27675 0.94251 0.0
H1476 H 0.74821 0.22595 0.67273 0.0
H1477 H 0.8221 0.23964 0.6849 0.0
H1478 H 0.73838 0.26406 0.69088 0.0
H1479 H 0.81272 0.27665 0.70284 0.0
H1480 H 0.80113 0.34612 0.72172 0.0
H1481 H 0.79529 0.30405 0.72925 0.0
H1482 H 0.74656 0.30088 0.67077 0.0
H1483 H 0.75191 0.34252 0.66396 0.0
C1484 C 0.76219 0.23688 0.6797 0.0
C1485 C 0.78587 0.2306 0.67659 0.0
C1486 C 0.75664 0.25843 0.69026 0.0
C1487 C 0.77479 0.27353 0.69793 0.0
C1488 C 0.79822 0.26559 0.69726 0.0
C1489 C 0.80369 0.2445 0.68646 0.0
C1490 C 0.78873 0.33638 0.711 0.0
C1491 C 0.77728 0.3472 0.69203 0.0
C1492 C 0.78521 0.31247 0.71538 0.0
C1493 C 0.77079 0.29908 0.70033 0.0
C1494 C 0.75764 0.31061 0.68283 0.0
C1495 C 0.76106 0.33444 0.67857 0.0
H1496 H 0.78989 0.2917 0.12882 0.0
H1497 H 0.78021 0.36725 0.13183 0.0
H1498 H 0.74847 0.2873 0.11798 0.0
H1499 H 0.73877 0.36259 0.12188 0.0
H1500 H 0.67478 0.28058 0.10782 0.0
H1501 H 0.7071 0.30377 0.0914 0.0
H1502 H 0.7187 0.33541 0.15926 0.0
H1503 H 0.68859 0.31026 0.17608 0.0
C1504 C 0.77918 0.30735 0.12642 0.0
C1505 C 0.78799 0.32967 0.13205 0.0
C1506 C 0.7556 0.30491 0.11982 0.0
C1507 C 0.74059 0.32469 0.11924 0.0
C1508 C 0.75011 0.3472 0.12204 0.0
C1509 C 0.77375 0.3497 0.12815 0.0
C1510 C 0.68374 0.29309 0.11898 0.0
C1511 C 0.68038 0.29284 0.14337 0.0
C1512 C 0.70193 0.30658 0.10947 0.0
C1513 C 0.71556 0.32083 0.12426 0.0
C1514 C 0.70842 0.32441 0.14756 0.0
C1515 C 0.69119 0.31004 0.15724 0.0
H1516 H 0.76879 0.34648 0.36362 0.0
H1517 H 0.75313 0.27268 0.35504 0.0
H1518 H 0.79972 0.34359 0.33502 0.0
H1519 H 0.78447 0.26946 0.32648 0.0
H1520 H 0.84472 0.2516 0.3496 0.0
H1521 H 0.82159 0.26389 0.31619 0.0
H1522 H 0.83746 0.33588 0.33137 0.0
H1523 H 0.86114 0.32386 0.36485 0.0
C1524 C 0.77231 0.3294 0.3559 0.0
C1525 C 0.76004 0.30923 0.36324 0.0
C1526 C 0.79004 0.32774 0.33911 0.0
C1527 C 0.79708 0.30554 0.33051 0.0
C1528 C 0.78149 0.28647 0.33435 0.0
C1529 C 0.76347 0.28817 0.35095 0.0
C1530 C 0.84367 0.26999 0.34589 0.0
C1531 C 0.85231 0.28675 0.36176 0.0
C1532 C 0.83031 0.27726 0.32654 0.0
C1533 C 0.82283 0.30091 0.32568 0.0
C1534 C 0.83907 0.31724 0.335 0.0
C1535 C 0.85275 0.31038 0.35432 0.0
H1536 H 0.20197 0.96906 0.65073 0.0
H1537 H 0.15408 0.97613 0.7088 0.0
H1538 H 0.20117 1.01172 0.64488 0.0
H1539 H 0.15444 1.01884 0.70428 0.0
H1540 H 0.14849 0.09626 0.68466 0.0
H1541 H 0.14422 0.05336 0.68483 0.0
H1542 H 0.21582 0.0463 0.65994 0.0
H1543 H 0.21922 0.08884 0.65821 0.0
C1544 C 0.19116 0.97976 0.66219 0.0
C1545 C 0.17836 0.96915 0.68043 0.0
C1546 C 0.19094 1.00439 0.65912 0.0
C1547 C 0.17809 1.01926 0.67435 0.0
C1548 C 0.16453 1.00837 0.69202 0.0
C1549 C 0.16456 0.98374 0.69488 0.0
C1550 C 0.16312 0.0855 0.6788 0.0
C1551 C 0.18429 0.09617 0.67165 0.0
C1552 C 0.16084 0.06075 0.6792 0.0
C1553 C 0.17971 0.04586 0.67256 0.0
C1554 C 0.20066 0.05675 0.66494 0.0
C1555 C 0.20282 0.08137 0.66435 0.0
H1556 H 0.0881 0.6395 0.15693 0.0
H1557 H 0.08684 0.69399 0.20949 0.0
H1558 H 0.04474 0.64189 0.15379 0.0
H1559 H 0.04409 0.69575 0.20709 0.0
H1560 H 0.96768 0.67477 0.21808 0.0
H1561 H 1.01044 0.66991 0.21804 0.0
H1562 H 1.01022 0.66952 0.14235 0.0
H1563 H 0.96718 0.67523 0.14248 0.0
C1564 C 0.07866 0.65198 0.16778 0.0
C1565 C 0.09107 0.66603 0.184 0.0
C1566 C 0.05377 0.65334 0.16603 0.0
C1567 C 0.04068 0.66865 0.18059 0.0
C1568 C 0.05331 0.68323 0.19609 0.0
C1569 C 0.07798 0.68208 0.19759 0.0
C1570 C 0.97668 0.67375 0.2014 0.0
C1571 C 0.96386 0.67566 0.1803 0.0
C1572 C 1.0013 0.6709 0.20135 0.0
C1573 C 1.01405 0.66959 0.18019 0.0
C1574 C 1.00111 0.67035 0.15901 0.0
C1575 C 0.97638 0.67351 0.15907 0.0
H1576 H 0.40338 0.58049 0.72312 0.0
H1577 H 0.36082 0.58935 0.66097 0.0
H1578 H 0.40431 0.53791 0.71672 0.0
H1579 H 0.36194 0.54673 0.65424 0.0
H1580 H 0.3823 0.46975 0.63876 0.0
H1581 H 0.3862 0.51264 0.64376 0.0
H1582 H 0.37862 0.50417 0.71869 0.0
H1583 H 0.37494 0.46167 0.71352 0.0
C1584 C 0.39392 0.57332 0.70825 0.0
C1585 C 0.38154 0.58838 0.69291 0.0
C1586 C 0.39458 0.54882 0.70444 0.0
C1587 C 0.38308 0.53857 0.68499 0.0
C1588 C 0.37122 0.55379 0.66929 0.0
C1589 C 0.37046 0.57829 0.67321 0.0
C1590 C 0.38208 0.4771 0.65629 0.0
C1591 C 0.37869 0.46228 0.67577 0.0
C1592 C 0.38398 0.50173 0.65919 0.0
C1593 C 0.38268 0.51215 0.68168 0.0
C1594 C 0.38006 0.49704 0.70114 0.0
C1595 C 0.37796 0.47257 0.6982 0.0
H1596 H 0.46725 0.8814 0.21523 0.0
H1597 H 0.45528 0.86352 0.14272 0.0
H1598 H 0.50957 0.87932 0.20923 0.0
H1599 H 0.49802 0.86259 0.13616 0.0
H1600 H 0.57538 0.83507 0.14029 0.0
H1601 H 0.53273 0.84054 0.14309 0.0
H1602 H 0.54357 0.89612 0.19368 0.0
H1603 H 0.58617 0.88958 0.19162 0.0
C1604 C 0.47367 0.87708 0.19788 0.0
C1605 C 0.45765 0.87229 0.17958 0.0
C1606 C 0.49816 0.87625 0.1943 0.0
C1607 C 0.50773 0.87074 0.17215 0.0
C1608 C 0.49163 0.86657 0.15359 0.0
C1609 C 0.46699 0.86739 0.15725 0.0
C1610 C 0.56862 0.84837 0.15211 0.0
C1611 C 0.58426 0.8615 0.16614 0.0
C1612 C 0.54403 0.85177 0.15352 0.0
C1613 C 0.53421 0.86859 0.16892 0.0
C1614 C 0.55009 0.88256 0.18203 0.0
C1615 C 0.57467 0.87906 0.18066 0.0
H1616 H 0.1987 0.47304 0.90869 0.0
H1617 H 0.15393 0.45968 0.84905 0.0
H1618 H 0.19645 0.51495 0.90124 0.0
H1619 H 0.14928 0.50195 0.8429 0.0
H1620 H 0.16316 0.57788 0.8209 0.0
H1621 H 0.16425 0.53587 0.82882 0.0
H1622 H 0.17936 0.55032 0.90184 0.0
H1623 H 0.18095 0.59204 0.8931 0.0
C1624 C 0.18822 0.47905 0.89397 0.0
C1625 C 0.17701 0.46271 0.87917 0.0
C1626 C 0.18644 0.50343 0.88991 0.0
C1627 C 0.1728 0.5126 0.87118 0.0
C1628 C 0.16054 0.49612 0.85711 0.0
C1629 C 0.16278 0.47165 0.86093 0.0
C1630 C 0.16718 0.57211 0.83857 0.0
C1631 C 0.1721 0.58872 0.85624 0.0
C1632 C 0.16734 0.54773 0.84333 0.0
C1633 C 0.17191 0.53894 0.86613 0.0
C1634 C 0.17625 0.55575 0.8839 0.0
C1635 C 0.17664 0.58006 0.87898 0.0
H1636 H 0.58867 0.70975 0.41933 0.0
H1637 H 0.5943 0.6671 0.35707 0.0
H1638 H 0.54579 0.70645 0.41781 0.0
H1639 H 0.55131 0.66314 0.3559 0.0
H1640 H 0.47297 0.64627 0.37089 0.0
H1641 H 0.5161 0.64665 0.37588 0.0
H1642 H 0.51298 0.72061 0.3932 0.0
H1643 H 0.47013 0.72005 0.38803 0.0
C1644 C 0.58083 0.69978 0.40519 0.0
C1645 C 0.59514 0.68901 0.38812 0.0
C1646 C 0.55611 0.69774 0.4044 0.0
C1647 C 0.54482 0.68462 0.38665 0.0
C1648 C 0.5592 0.6732 0.36999 0.0
C1649 C 0.58394 0.67546 0.37067 0.0
C1650 C 0.48154 0.66243 0.37623 0.0
C1651 C 0.46813 0.68302 0.3795 0.0
C1652 C 0.5063 0.66277 0.37884 0.0
C1653 C 0.51825 0.68368 0.38499 0.0
C1654 C 0.50457 0.70409 0.38879 0.0
C1655 C 0.47995 0.7038 0.38587 0.0
H1656 H 0.40443 0.08306 0.85422 0.0
H1657 H 0.34169 0.07626 0.89599 0.0
H1658 H 0.40953 0.04016 0.85472 0.0
H1659 H 0.3462 0.03339 0.89607 0.0
H1660 H 0.36664 0.95538 0.90277 0.0
H1661 H 0.36708 0.99836 0.90806 0.0
H1662 H 0.39182 1.0067 0.83692 0.0
H1663 H 0.39202 0.96411 0.83212 0.0
C1664 C 0.39194 0.07239 0.86385 0.0
C1665 C 0.37258 0.0831 0.87493 0.0
C1666 C 0.39464 0.0477 0.86391 0.0
C1667 C 0.37809 0.03292 0.87514 0.0
C1668 C 0.35942 0.04389 0.88729 0.0
C1669 C 0.35673 0.06856 0.88715 0.0
C1670 C 0.37246 0.96645 0.88843 0.0
C1671 C 0.37901 0.95623 0.86693 0.0
C1672 C 0.37253 0.99117 0.89134 0.0
C1673 C 0.3794 1.00637 0.8729 0.0
C1674 C 0.38663 0.99589 0.85169 0.0
C1675 C 0.38644 0.97133 0.84879 0.0
H1676 H 0.08427 0.9178 0.34972 0.0
H1677 H 0.08671 0.86498 0.404 0.0
H1678 H 0.04116 0.91768 0.35106 0.0
H1679 H 0.0434 0.8649 0.40563 0.0
H1680 H 0.96287 0.88012 0.41028 0.0
H1681 H 1.00566 0.88676 0.41398 0.0
H1682 H 1.01133 0.88908 0.33848 0.0
H1683 H 0.96898 0.88238 0.335 0.0
C1684 C 0.07555 0.90644 0.36226 0.0
C1685 C 0.08892 0.89129 0.37662 0.0
C1686 C 0.05079 0.90626 0.36295 0.0
C1687 C 0.03857 0.89102 0.37821 0.0
C1688 C 0.05205 0.87695 0.39371 0.0
C1689 C 0.07691 0.87702 0.39285 0.0
C1690 C 0.97328 0.88254 0.39456 0.0
C1691 C 0.9625 0.881 0.37235 0.0
C1692 C 0.99784 0.8861 0.39663 0.0
C1693 C 1.01214 0.88855 0.37653 0.0
C1694 C 1.00104 0.88765 0.35439 0.0
C1695 C 0.97669 0.88376 0.35236 0.0
H1696 H 0.65394 0.21946 0.08584 0.0
H1697 H 0.69148 0.15359 0.09066 0.0
H1698 H 0.65482 0.2173 0.04321 0.0
H1699 H 0.6932 0.15156 0.04767 0.0
H1700 H 0.68112 0.14683 0.96803 0.0
H1701 H 0.67529 0.14641 1.01063 0.0
H1702 H 0.67928 0.22243 1.01138 0.0
H1703 H 0.6836 0.22264 0.96895 0.0
C1704 C 0.66248 0.20447 0.07772 0.0
C1705 C 0.67279 0.18681 0.09176 0.0
C1706 C 0.66317 0.20327 0.05311 0.0
C1707 C 0.67448 0.18445 0.04149 0.0
C1708 C 0.68415 0.1663 0.05564 0.0
C1709 C 0.68321 0.16743 0.08041 0.0
C1710 C 0.68015 0.16345 0.97729 0.0
C1711 C 0.6827 0.18478 0.96491 0.0
C1712 C 0.67721 0.16324 1.00189 0.0
C1713 C 0.6768 0.18438 1.01495 0.0
C1714 C 0.67905 0.20569 1.00232 0.0
C1715 C 0.68185 0.20586 0.97781 0.0
H1716 H 0.82938 0.19236 0.46806 0.0
H1717 H 0.90249 0.17174 0.47041 0.0
H1718 H 0.82612 0.1858 0.51027 0.0
H1719 H 0.89943 0.16518 0.51293 0.0
H1720 H 0.87824 0.13722 0.58739 0.0
H1721 H 0.88274 0.14148 0.54471 0.0
H1722 H 0.83845 0.20344 0.54628 0.0
H1723 H 0.83423 0.19922 0.58854 0.0
C1724 C 0.8448 0.18639 0.47765 0.0
C1725 C 0.86623 0.18275 0.46583 0.0
C1726 C 0.843 0.18272 0.50197 0.0
C1727 C 0.86258 0.17521 0.51537 0.0
C1728 C 0.88389 0.17083 0.50336 0.0
C1729 C 0.88569 0.17459 0.47894 0.0
C1730 C 0.86962 0.15183 0.57859 0.0
C1731 C 0.85557 0.16766 0.59147 0.0
C1732 C 0.87219 0.1543 0.55406 0.0
C1733 C 0.8607 0.17265 0.54171 0.0
C1734 C 0.84709 0.1887 0.55483 0.0
C1735 C 0.84462 0.18627 0.57922 0.0
H1736 H 0.84726 0.40195 0.9675 0.0
H1737 H 0.89741 0.34496 0.9644 0.0
H1738 H 0.85272 0.40447 1.01 0.0
H1739 H 0.90302 0.34731 1.0071 0.0
H1740 H 0.91656 0.36585 0.08495 0.0
H1741 H 0.91661 0.36981 0.04189 0.0
H1742 H 0.84114 0.38004 0.04285 0.0
H1743 H 0.84132 0.37613 0.08549 0.0
C1744 C 0.85974 0.39017 0.97592 0.0
C1745 C 0.87182 0.3732 0.96261 0.0
C1746 C 0.8628 0.39149 1.00035 0.0
C1747 C 0.8781 0.37588 1.01225 0.0
C1748 C 0.8912 0.35974 0.99867 0.0
C1749 C 0.88804 0.35838 0.97416 0.0
C1750 C 0.90014 0.36951 0.07589 0.0
C1751 C 0.87898 0.37105 0.0886 0.0
C1752 C 0.90008 0.37151 0.0512 0.0
C1753 C 0.87887 0.37531 0.03869 0.0
C1754 C 0.85788 0.37751 0.05169 0.0
C1755 C 0.85794 0.37527 0.0762 0.0
H1756 H 0.65166 0.35991 0.47188 0.0
H1757 H 0.72737 0.35965 0.4662 0.0
H1758 H 0.65498 0.36557 0.51448 0.0
H1759 H 0.73083 0.36535 0.50873 0.0
H1760 H 0.72657 0.40031 0.58247 0.0
H1761 H 0.72325 0.39513 0.53997 0.0
H1762 H 0.66817 0.34395 0.55039 0.0
H1763 H 0.67214 0.34848 0.5929 0.0
C1764 C 0.66902 0.3613 0.47972 0.0
C1765 C 0.68924 0.3596 0.46557 0.0
C1766 C 0.67096 0.36433 0.5042 0.0
C1767 C 0.6932 0.36601 0.51526 0.0
C1768 C 0.7134 0.36443 0.50097 0.0
C1769 C 0.71144 0.36104 0.47656 0.0
C1770 C 0.71395 0.38772 0.57578 0.0
C1771 C 0.69958 0.37492 0.59136 0.0
C1772 C 0.71197 0.38479 0.55129 0.0
C1773 C 0.69535 0.36916 0.54151 0.0
C1774 C 0.68092 0.35643 0.5571 0.0
C1775 C 0.68315 0.3591 0.58158 0.0
H1776 H 0.82269 0.96682 0.3851 0.0
H1777 H 0.89056 0.96114 0.41901 0.0
H1778 H 0.82941 1.00904 0.3784 0.0
H1779 H 0.89762 1.00319 0.41171 0.0
H1780 H 0.90889 0.06696 0.35831 0.0
H1781 H 0.90094 1.02602 0.36919 0.0
H1782 H 0.83857 0.04806 0.40637 0.0
H1783 H 0.84724 0.08904 0.39697 0.0
C1784 C 0.83882 0.97479 0.39147 0.0
C1785 C 0.85601 0.96102 0.40279 0.0
C1786 C 0.84268 0.9988 0.3876 0.0
C1787 C 0.86406 1.00919 0.39447 0.0
C1788 C 0.88105 0.99548 0.40622 0.0
C1789 C 0.87694 0.97159 0.41057 0.0
C1790 C 0.89346 0.0631 0.36878 0.0
C1791 C 0.87819 0.08126 0.37592 0.0
C1792 C 0.88898 0.03971 0.37504 0.0
C1793 C 0.86904 0.034 0.38839 0.0
C1794 C 0.85384 0.05206 0.39571 0.0
C1795 C 0.8586 0.07551 0.3899 0.0
H1796 H 0.07552 0.33565 0.86042 0.0
H1797 H 0.07688 0.39511 0.90747 0.0
H1798 H 0.03404 0.34407 0.85109 0.0
H1799 H 0.03555 0.4039 0.89772 0.0
H1800 H 0.9691 0.42204 0.84916 0.0
H1801 H 1.01127 0.41515 0.85688 0.0
H1802 H 0.99569 0.34456 0.88012 0.0
H1803 H 0.95392 0.35178 0.87401 0.0
C1804 C 0.06689 0.35053 0.86867 0.0
C1805 C 0.07916 0.36469 0.8847 0.0
C1806 C 0.0433 0.35537 0.86333 0.0
C1807 C 0.03181 0.37472 0.87358 0.0
C1808 C 0.04418 0.38903 0.88944 0.0
C1809 C 0.06762 0.38388 0.89517 0.0
C1810 C 0.97476 0.40503 0.85574 0.0
C1811 C 0.95824 0.38709 0.85985 0.0
C1812 C 0.99879 0.40113 0.86019 0.0
C1813 C 1.00661 0.37917 0.86864 0.0
C1814 C 0.99011 0.36141 0.87301 0.0
C1815 C 0.96618 0.36546 0.8691 0.0
H1816 H 0.64184 0.46875 0.33537 0.0
H1817 H 0.66207 0.45831 0.40764 0.0
H1818 H 0.65229 0.51056 0.33838 0.0
H1819 H 0.67215 0.49992 0.41095 0.0
H1820 H 0.71461 0.56625 0.40206 0.0
H1821 H 0.7029 0.52528 0.39673 0.0
H1822 H 0.64202 0.54805 0.35682 0.0
H1823 H 0.654 0.58906 0.36204 0.0
C1824 C 0.64819 0.47557 0.35197 0.0
C1825 C 0.65158 0.46044 0.37117 0.0
C1826 C 0.65418 0.49943 0.35372 0.0
C1827 C 0.6635 0.50849 0.37478 0.0
C1828 C 0.6657 0.4934 0.39428 0.0
C1829 C 0.65982 0.46963 0.39247 0.0
C1830 C 0.69892 0.56241 0.39188 0.0
C1831 C 0.68551 0.58072 0.38202 0.0
C1832 C 0.69207 0.539 0.38899 0.0
C1833 C 0.67141 0.53338 0.37648 0.0
C1834 C 0.65819 0.55174 0.36627 0.0
C1835 C 0.66513 0.57521 0.3691 0.0
H1836 H 0.57801 0.13945 0.88666 0.0
H1837 H 0.58597 0.21123 0.86281 0.0
H1838 H 0.53714 0.14754 0.897 0.0
H1839 H 0.54531 0.2196 0.87397 0.0
H1840 H 0.46405 0.21331 0.86585 0.0
H1841 H 0.50636 0.2092 0.85988 0.0
H1842 H 0.51187 0.16916 0.92424 0.0
H1843 H 0.46916 0.17273 0.92975 0.0
C1844 C 0.57111 0.15706 0.88387 0.0
C1845 C 0.58538 0.17476 0.87416 0.0
C1846 C 0.54774 0.16176 0.89005 0.0
C1847 C 0.53795 0.18427 0.8865 0.0
C1848 C 0.55227 0.20205 0.87691 0.0
C1849 C 0.57571 0.19734 0.87078 0.0
C1850 C 0.47431 0.20361 0.87871 0.0
C1851 C 0.46328 0.19283 0.89795 0.0
C1852 C 0.49863 0.20151 0.87545 0.0
C1853 C 0.51252 0.18864 0.89144 0.0
C1854 C 0.50161 0.17886 0.91138 0.0
C1855 C 0.47722 0.18106 0.91467 0.0
H1856 H 0.86001 0.58047 0.20443 0.0
H1857 H 0.8901 0.57742 0.13503 0.0
H1858 H 0.87306 0.5401 0.21187 0.0
H1859 H 0.90365 0.53738 0.14253 0.0
H1860 H 0.89575 0.45783 0.15227 0.0
H1861 H 0.88743 0.49942 0.14593 0.0
H1862 H 0.9061 0.51393 0.21812 0.0
H1863 H 0.91344 0.47174 0.22453 0.0
C1864 C 0.8698 0.57133 0.19094 0.0
C1865 C 0.87408 0.58212 0.16918 0.0
C1866 C 0.87734 0.54818 0.1952 0.0
C1867 C 0.88941 0.53536 0.1778 0.0
C1868 C 0.89406 0.54647 0.15621 0.0
C1869 C 0.88632 0.56946 0.1519 0.0
C1870 C 0.8981 0.46997 0.16674 0.0
C1871 C 0.90475 0.46165 0.18898 0.0
C1872 C 0.89357 0.49387 0.16309 0.0
C1873 C 0.89593 0.51014 0.18155 0.0
C1874 C 0.90369 0.50187 0.20361 0.0
C1875 C 0.90815 0.47781 0.20726 0.0
H1876 H 0.56876 0.41056 0.68734 0.0
H1877 H 0.59372 0.34734 0.6531 0.0
H1878 H 0.52877 0.40194 0.67402 0.0
H1879 H 0.55344 0.33813 0.64117 0.0
H1880 H 0.47019 0.32432 0.658 0.0
H1881 H 0.51228 0.3303 0.66621 0.0
H1882 H 0.50939 0.39728 0.63033 0.0
H1883 H 0.46748 0.391 0.62164 0.0
C1884 C 0.56573 0.39466 0.67731 0.0
C1885 C 0.58443 0.37928 0.67199 0.0
C1886 C 0.54287 0.38981 0.66964 0.0
C1887 C 0.53818 0.36937 0.65668 0.0
C1888 C 0.5567 0.35386 0.6514 0.0
C1889 C 0.5797 0.35896 0.65865 0.0
C1890 C 0.47881 0.33998 0.65138 0.0
C1891 C 0.46586 0.35718 0.63914 0.0
C1892 C 0.50275 0.3434 0.65607 0.0
C1893 C 0.51386 0.36429 0.649 0.0
C1894 C 0.50108 0.38108 0.63599 0.0
C1895 C 0.47727 0.37742 0.63088 0.0
H1896 H 0.70014 0.08144 0.1955 0.0
H1897 H 0.63004 0.07391 0.16678 0.0
H1898 H 0.70902 0.04072 0.18494 0.0
H1899 H 0.6386 0.033 0.15694 0.0
H1900 H 0.66845 0.96752 0.12195 0.0
H1901 H 0.66257 1.00939 0.1301 0.0
H1902 H 0.69792 1.00096 0.19687 0.0
H1903 H 0.70446 0.95938 0.18832 0.0
C1904 C 0.68674 0.07123 0.18665 0.0
C1905 C 0.66454 0.08107 0.18156 0.0
C1906 C 0.69171 0.04776 0.18089 0.0
C1907 C 0.67457 0.03362 0.16995 0.0
C1908 C 0.65235 0.04349 0.16498 0.0
C1909 C 0.64736 0.06688 0.17082 0.0
C1910 C 0.67511 0.97469 0.13828 0.0
C1911 C 0.6864 0.96005 0.15474 0.0
C1912 C 0.67159 0.99862 0.14304 0.0
C1913 C 0.67952 1.00849 0.16428 0.0
C1914 C 0.6916 0.99397 0.18034 0.0
C1915 C 0.69505 0.97004 0.1756 0.0
H1916 H 0.95922 0.14313 0.64628 0.0
H1917 H 0.96903 0.15275 0.72063 0.0
H1918 H 0.99972 0.15529 0.63925 0.0
H1919 H 1.01026 0.1634 0.71412 0.0
H1920 H 0.07572 0.20493 0.69302 0.0
H1921 H 0.03532 0.19248 0.70083 0.0
H1922 H 0.03871 0.14514 0.64142 0.0
H1923 H 0.07837 0.15892 0.63297 0.0
C1924 C 0.97037 0.14741 0.66115 0.0
C1925 C 0.96127 0.14693 0.68396 0.0
C1926 C 0.99366 0.15426 0.65722 0.0
C1927 C 1.00859 0.16028 0.6761 0.0
C1928 C 0.99936 0.15935 0.69905 0.0
C1929 C 0.97584 0.15299 0.70289 0.0
C1930 C 0.06769 0.19186 0.68173 0.0
C1931 C 0.08 0.18293 0.66236 0.0
C1932 C 0.04458 0.18454 0.68625 0.0
C1933 C 0.03347 0.16777 0.67174 0.0
C1934 C 0.04624 0.15852 0.65267 0.0
C1935 C 0.06907 0.16626 0.64787 0.0
H1936 H 0.3449 0.85059 0.08419 0.0
H1937 H 0.37565 0.91958 0.07589 0.0
H1938 H 0.35471 0.84124 0.04356 0.0
H1939 H 0.38491 0.9105 0.03505 0.0
H1940 H 0.4225 0.87529 0.97308 0.0
H1941 H 0.41228 0.88397 1.01376 0.0
H1942 H 0.34361 0.85296 1.00311 0.0
H1943 H 0.35409 0.84373 0.96262 0.0
C1944 C 0.35392 0.86368 0.07374 0.0
C1945 C 0.35998 0.88563 0.08334 0.0
C1946 C 0.35925 0.85844 0.05038 0.0
C1947 C 0.37075 0.87507 0.03617 0.0
C1948 C 0.37637 0.8972 0.04568 0.0
C1949 C 0.37091 0.90246 0.06897 0.0
C1950 C 0.40525 0.87027 0.97947 0.0
C1951 C 0.38893 0.85924 0.96456 0.0
C1952 C 0.39933 0.87541 1.00269 0.0
C1953 C 0.37705 0.86935 1.01156 0.0
C1954 C 0.36091 0.85783 0.99677 0.0
C1955 C 0.3668 0.85283 0.97349 0.0
H1956 H 0.12943 0.86196 0.57283 0.0
H1957 H 0.19146 0.89958 0.59564 0.0
H1958 H 0.13694 0.87482 0.53223 0.0
H1959 H 0.19944 0.91128 0.55539 0.0
H1960 H 0.21963 0.89367 0.477 0.0
H1961 H 0.2099 0.88465 0.51793 0.0
H1962 H 0.14139 0.9167 0.50859 0.0
H1963 H 0.15146 0.92625 0.46768 0.0
C1964 C 0.14469 0.87278 0.56916 0.0
C1965 C 0.16045 0.87881 0.58722 0.0
C1966 C 0.14893 0.88018 0.54605 0.0
C1967 C 0.16899 0.89367 0.54076 0.0
C1968 C 0.18414 0.90047 0.55898 0.0
C1969 C 0.1797 0.89346 0.58198 0.0
C1970 C 0.20272 0.89919 0.48392 0.0
C1971 C 0.18642 0.91097 0.46955 0.0
C1972 C 0.19711 0.89395 0.50719 0.0
C1973 C 0.17488 0.89994 0.51628 0.0
C1974 C 0.15858 0.91184 0.5019 0.0
C1975 C 0.16441 0.91753 0.47871 0.0
H1976 H 0.14751 0.70622 0.97479 0.0
H1977 H 0.19486 0.65042 0.95373 0.0
H1978 H 0.15633 0.69788 1.01562 0.0
H1979 H 0.20534 0.64349 0.99441 0.0
H1980 H 0.19702 0.61929 0.07098 0.0
H1981 H 0.19077 0.62739 0.02941 0.0
H1982 H 0.18481 0.70176 0.04471 0.0
H1983 H 0.18875 0.6934 0.08607 0.0
C1984 C 0.16018 0.69247 0.97881 0.0
C1985 C 0.17098 0.67952 0.96079 0.0
C1986 C 0.16549 0.68785 1.00229 0.0
C1987 C 0.18191 0.67025 1.00844 0.0
C1988 C 0.19261 0.65717 0.99042 0.0
C1989 C 0.187 0.66157 0.9669 0.0
C1990 C 0.1946 0.63739 0.06537 0.0
C1991 C 0.19411 0.65572 0.0819 0.0
C1992 C 0.19118 0.64208 0.0415 0.0
C1993 C 0.18728 0.66528 0.03358 0.0
C1994 C 0.18746 0.68364 0.0501 0.0
C1995 C 0.19043 0.6789 0.07395 0.0
H1996 H 0.41257 0.70356 0.5718 0.0
H1997 H 0.37228 0.64345 0.59471 0.0
H1998 H 0.40435 0.69344 0.53096 0.0
H1999 H 0.3638 0.63333 0.55383 0.0
H2000 H 0.33311 0.64275 0.47739 0.0
H2001 H 0.34147 0.64876 0.51929 0.0
H2002 H 0.41448 0.66256 0.50279 0.0
H2003 H 0.40592 0.65679 0.46119 0.0
C2004 C 0.40186 0.68824 0.56804 0.0
C2005 C 0.39249 0.67469 0.58634 0.0
C2006 C 0.39725 0.68234 0.5447 0.0
C2007 C 0.38336 0.66259 0.53917 0.0
C2008 C 0.3742 0.64887 0.55754 0.0
C2009 C 0.3789 0.65476 0.58091 0.0
C2010 C 0.35096 0.64666 0.48293 0.0
C2011 C 0.36886 0.64958 0.46629 0.0
C2012 C 0.35577 0.6501 0.50681 0.0
C2013 C 0.37857 0.65652 0.51428 0.0
C2014 C 0.39665 0.65817 0.49756 0.0
C2015 C 0.39183 0.65471 0.47381 0.0
loop_
_geom_bond_atom_site_label_1
_geom_bond_atom_site_label_2
_geom_bond_distance
_geom_bond_site_symmetry_2
_ccdc_geom_bond_type
Co0 O3 1.970 . S
Co0 N17 1.989 . S
Co0 O25 1.967 . S
Co0 O32 1.920 . S
Co1 O4 1.966 . S
Co1 N10 2.022 . S
Co1 N18 1.993 . S
Co1 O26 1.941 . S
C2 O3 1.258 . S
C2 O4 1.263 . S
O3 Co0 1.970 . S
O3 C2 1.258 . S
O4 Co1 1.966 . S
O4 C2 1.263 . S
C5 O6 1.235 . S
C5 O32 1.289 . S
O6 C5 1.235 . S
C7 C9 1.400 . S
C7 N10 1.351 . S
C7 C12 1.501 . S
C8 C9 1.387 . S
C8 N11 1.341 . S
C9 C7 1.400 . S
C9 C8 1.387 . S
N10 Co1 2.022 . S
N10 C7 1.351 . S
N10 N11 1.365 . S
N11 C8 1.341 . S
N11 N10 1.365 . S
N11 H31 0.862 . S
C12 C7 1.501 . S
C12 H13 0.961 . S
C12 H14 0.961 . S
C12 H15 0.960 . S
H13 C12 0.961 . S
H14 C12 0.961 . S
H15 C12 0.960 . S
C16 N17 1.342 . S
C16 C20 1.401 . S
C16 C21 1.499 . S
N17 Co0 1.989 . S
N17 C16 1.342 . S
N17 N18 1.388 . S
N18 Co1 1.993 . S
N18 N17 1.388 . S
N18 C19 1.346 . S
C19 N18 1.346 . S
C19 C20 1.396 . S
C19 C29 1.510 . S
C20 C16 1.401 . S
C20 C19 1.396 . S
C21 C16 1.499 . S
C21 H22 0.959 . S
C21 H23 0.960 . S
C21 H24 0.961 . S
H22 C21 0.959 . S
H23 C21 0.960 . S
H24 C21 0.961 . S
O25 Co0 1.967 . S
O25 C33 1.258 . S
O26 Co1 1.941 . S
O26 C33 1.266 . S
H27 C29 0.959 . S
H28 C29 0.961 . S
C29 C19 1.510 . S
C29 H27 0.959 . S
C29 H28 0.961 . S
C29 H30 0.960 . S
H30 C29 0.960 . S
H31 N11 0.862 . S
O32 Co0 1.920 . S
O32 C5 1.289 . S
C33 O25 1.258 . S
C33 O26 1.266 . S
Co34 O37 1.970 . S
Co34 N51 1.989 . S
Co34 O59 1.967 . S
Co34 O66 1.920 . S
Co35 O38 1.966 . S
Co35 N44 2.022 . S
Co35 N52 1.993 . S
Co35 O60 1.941 . S
C36 O37 1.258 . S
C36 O38 1.263 . S
O37 Co34 1.970 . S
O37 C36 1.258 . S
O38 Co35 1.966 . S
O38 C36 1.263 . S
C39 O40 1.235 . S
C39 O66 1.289 . S
O40 C39 1.235 . S
C41 C43 1.400 . S
C41 N44 1.351 . S
C41 C46 1.501 . S
C42 C43 1.387 . S
C42 N45 1.341 . S
C43 C41 1.400 . S
C43 C42 1.387 . S
N44 Co35 2.022 . S
N44 C41 1.351 . S
N44 N45 1.365 . S
N45 C42 1.341 . S
N45 N44 1.365 . S
N45 H65 0.862 . S
C46 C41 1.501 . S
C46 H47 0.961 . S
C46 H48 0.961 . S
C46 H49 0.960 . S
H47 C46 0.961 . S
H48 C46 0.961 . S
H49 C46 0.960 . S
C50 N51 1.342 . S
C50 C54 1.401 . S
C50 C55 1.499 . S
N51 Co34 1.989 . S
N51 C50 1.342 . S
N51 N52 1.388 . S
N52 Co35 1.993 . S
N52 N51 1.388 . S
N52 C53 1.346 . S
C53 N52 1.346 . S
C53 C54 1.396 . S
C53 C63 1.510 . S
C54 C50 1.401 . S
C54 C53 1.396 . S
C55 C50 1.499 . S
C55 H56 0.959 . S
C55 H57 0.960 . S
C55 H58 0.961 . S
H56 C55 0.959 . S
H57 C55 0.960 . S
H58 C55 0.961 . S
O59 Co34 1.967 . S
O59 C67 1.258 . S
O60 Co35 1.941 . S
O60 C67 1.266 . S
H61 C63 0.959 . S
H62 C63 0.961 . S
C63 C53 1.510 . S
C63 H61 0.959 . S
C63 H62 0.961 . S
C63 H64 0.960 . S
H64 C63 0.960 . S
H65 N45 0.862 . S
O66 Co34 1.920 . S
O66 C39 1.289 . S
C67 O59 1.258 . S
C67 O60 1.266 . S
Co68 O71 1.970 . S
Co68 N85 1.989 . S
Co68 O93 1.967 . S
Co68 O100 1.920 . S
Co69 O72 1.966 . S
Co69 N78 2.022 . S
Co69 N86 1.993 . S
Co69 O94 1.941 . S
C70 O71 1.258 . S
C70 O72 1.263 . S
O71 Co68 1.970 . S
O71 C70 1.258 . S
O72 Co69 1.966 . S
O72 C70 1.263 . S
C73 O74 1.235 . S
C73 O100 1.289 . S
O74 C73 1.235 . S
C75 C77 1.400 . S
C75 N78 1.351 . S
C75 C80 1.501 . S
C76 C77 1.387 . S
C76 N79 1.341 . S
C77 C75 1.400 . S
C77 C76 1.387 . S
N78 Co69 2.022 . S
N78 C75 1.351 . S
N78 N79 1.365 . S
N79 C76 1.341 . S
N79 N78 1.365 . S
N79 H99 0.862 . S
C80 C75 1.501 . S
C80 H81 0.961 . S
C80 H82 0.961 . S
C80 H83 0.960 . S
H81 C80 0.961 . S
H82 C80 0.961 . S
H83 C80 0.960 . S
C84 N85 1.342 . S
C84 C88 1.401 . S
C84 C89 1.499 . S
N85 Co68 1.989 . S
N85 C84 1.342 . S
N85 N86 1.388 . S
N86 Co69 1.993 . S
N86 N85 1.388 . S
N86 C87 1.346 . S
C87 N86 1.346 . S
C87 C88 1.396 . S
C87 C97 1.510 . S
C88 C84 1.401 . S
C88 C87 1.396 . S
C89 C84 1.499 . S
C89 H90 0.959 . S
C89 H91 0.960 . S
C89 H92 0.961 . S
H90 C89 0.959 . S
H91 C89 0.960 . S
H92 C89 0.961 . S
O93 Co68 1.967 . S
O93 C101 1.258 . S
O94 Co69 1.941 . S
O94 C101 1.266 . S
H95 C97 0.959 . S
H96 C97 0.961 . S
C97 C87 1.510 . S
C97 H95 0.959 . S
C97 H96 0.961 . S
C97 H98 0.960 . S
H98 C97 0.960 . S
H99 N79 0.862 . S
O100 Co68 1.920 . S
O100 C73 1.289 . S
C101 O93 1.258 . S
C101 O94 1.266 . S
Co102 O105 1.970 . S
Co102 N119 1.989 . S
Co102 O127 1.967 . S
Co102 O134 1.920 . S
Co103 O106 1.966 . S
Co103 N112 2.022 . S
Co103 N120 1.993 . S
Co103 O128 1.941 . S
C104 O105 1.258 . S
C104 O106 1.263 . S
O105 Co102 1.970 . S
O105 C104 1.258 . S
O106 Co103 1.966 . S
O106 C104 1.263 . S
C107 O108 1.235 . S
C107 O134 1.289 . S
O108 C107 1.235 . S
C109 C111 1.400 . S
C109 N112 1.351 . S
C109 C114 1.501 . S
C110 C111 1.387 . S
C110 N113 1.341 . S
C111 C109 1.400 . S
C111 C110 1.387 . S
N112 Co103 2.022 . S
N112 C109 1.351 . S
N112 N113 1.365 . S
N113 C110 1.341 . S
N113 N112 1.365 . S
N113 H133 0.862 . S
C114 C109 1.501 . S
C114 H115 0.961 . S
C114 H116 0.961 . S
C114 H117 0.960 . S
H115 C114 0.961 . S
H116 C114 0.961 . S
H117 C114 0.960 . S
C118 N119 1.342 . S
C118 C122 1.401 . S
C118 C123 1.499 . S
N119 Co102 1.989 . S
N119 C118 1.342 . S
N119 N120 1.388 . S
N120 Co103 1.993 . S
N120 N119 1.388 . S
N120 C121 1.346 . S
C121 N120 1.346 . S
C121 C122 1.396 . S
C121 C131 1.510 . S
C122 C118 1.401 . S
C122 C121 1.396 . S
C123 C118 1.499 . S
C123 H124 0.959 . S
C123 H125 0.960 . S
C123 H126 0.961 . S
H124 C123 0.959 . S
H125 C123 0.960 . S
H126 C123 0.961 . S
O127 Co102 1.967 . S
O127 C135 1.258 . S
O128 Co103 1.941 . S
O128 C135 1.266 . S
H129 C131 0.959 . S
H130 C131 0.961 . S
C131 C121 1.510 . S
C131 H129 0.959 . S
C131 H130 0.961 . S
C131 H132 0.960 . S
H132 C131 0.960 . S
H133 N113 0.862 . S
O134 Co102 1.920 . S
O134 C107 1.289 . S
C135 O127 1.258 . S
C135 O128 1.266 . S
Co136 O139 1.970 . S
Co136 N153 1.989 . S
Co136 O161 1.967 . S
Co136 O168 1.920 . S
Co137 O140 1.966 . S
Co137 N146 2.022 . S
Co137 N154 1.993 . S
Co137 O162 1.941 . S
C138 O139 1.258 . S
C138 O140 1.263 . S
O139 Co136 1.970 . S
O139 C138 1.258 . S
O140 Co137 1.966 . S
O140 C138 1.263 . S
C141 O142 1.235 . S
C141 O168 1.289 . S
O142 C141 1.235 . S
C143 C145 1.400 . S
C143 N146 1.351 . S
C143 C148 1.501 . S
C144 C145 1.387 . S
C144 N147 1.341 . S
C145 C143 1.400 . S
C145 C144 1.387 . S
N146 Co137 2.022 . S
N146 C143 1.351 . S
N146 N147 1.365 . S
N147 C144 1.341 . S
N147 N146 1.365 . S
N147 H167 0.862 . S
C148 C143 1.501 . S
C148 H149 0.961 . S
C148 H150 0.961 . S
C148 H151 0.960 . S
H149 C148 0.961 . S
H150 C148 0.961 . S
H151 C148 0.960 . S
C152 N153 1.342 . S
C152 C156 1.401 . S
C152 C157 1.499 . S
N153 Co136 1.989 . S
N153 C152 1.342 . S
N153 N154 1.388 . S
N154 Co137 1.993 . S
N154 N153 1.388 . S
N154 C155 1.346 . S
C155 N154 1.346 . S
C155 C156 1.396 . S
C155 C165 1.510 . S
C156 C152 1.401 . S
C156 C155 1.396 . S
C157 C152 1.499 . S
C157 H158 0.959 . S
C157 H159 0.960 . S
C157 H160 0.961 . S
H158 C157 0.959 . S
H159 C157 0.960 . S
H160 C157 0.961 . S
O161 Co136 1.967 . S
O161 C169 1.258 . S
O162 Co137 1.941 . S
O162 C169 1.266 . S
H163 C165 0.959 . S
H164 C165 0.961 . S
C165 C155 1.510 . S
C165 H163 0.959 . S
C165 H164 0.961 . S
C165 H166 0.960 . S
H166 C165 0.960 . S
H167 N147 0.862 . S
O168 Co136 1.920 . S
O168 C141 1.289 . S
C169 O161 1.258 . S
C169 O162 1.266 . S
Co170 O173 1.970 . S
Co170 N187 1.989 . S
Co170 O195 1.967 . S
Co170 O202 1.920 . S
Co171 O174 1.966 . S
Co171 N180 2.022 . S
Co171 N188 1.993 . S
Co171 O196 1.941 . S
C172 O173 1.258 . S
C172 O174 1.263 . S
O173 Co170 1.970 . S
O173 C172 1.258 . S
O174 Co171 1.966 . S
O174 C172 1.263 . S
C175 O176 1.235 . S
C175 O202 1.289 . S
O176 C175 1.235 . S
C177 C179 1.400 . S
C177 N180 1.351 . S
C177 C182 1.501 . S
C178 C179 1.387 . S
C178 N181 1.341 . S
C179 C177 1.400 . S
C179 C178 1.387 . S
N180 Co171 2.022 . S
N180 C177 1.351 . S
N180 N181 1.365 . S
N181 C178 1.341 . S
N181 N180 1.365 . S
N181 H201 0.862 . S
C182 C177 1.501 . S
C182 H183 0.961 . S
C182 H184 0.961 . S
C182 H185 0.960 . S
H183 C182 0.961 . S
H184 C182 0.961 . S
H185 C182 0.960 . S
C186 N187 1.342 . S
C186 C190 1.401 . S
C186 C191 1.499 . S
N187 Co170 1.989 . S
N187 C186 1.342 . S
N187 N188 1.388 . S
N188 Co171 1.993 . S
N188 N187 1.388 . S
N188 C189 1.346 . S
C189 N188 1.346 . S
C189 C190 1.396 . S
C189 C199 1.510 . S
C190 C186 1.401 . S
C190 C189 1.396 . S
C191 C186 1.499 . S
C191 H192 0.959 . S
C191 H193 0.960 . S
C191 H194 0.961 . S
H192 C191 0.959 . S
H193 C191 0.960 . S
H194 C191 0.961 . S
O195 Co170 1.967 . S
O195 C203 1.258 . S
O196 Co171 1.941 . S
O196 C203 1.266 . S
H197 C199 0.959 . S
H198 C199 0.961 . S
C199 C189 1.510 . S
C199 H197 0.959 . S
C199 H198 0.961 . S
C199 H200 0.960 . S
H200 C199 0.960 . S
H201 N181 0.862 . S
O202 Co170 1.920 . S
O202 C175 1.289 . S
C203 O195 1.258 . S
C203 O196 1.266 . S
Co204 O207 1.970 . S
Co204 N221 1.989 . S
Co204 O229 1.967 . S
Co204 O236 1.920 . S
Co205 O208 1.966 . S
Co205 N214 2.022 . S
Co205 N222 1.993 . S
Co205 O230 1.941 . S
C206 O207 1.258 . S
C206 O208 1.263 . S
O207 Co204 1.970 . S
O207 C206 1.258 . S
O208 Co205 1.966 . S
O208 C206 1.263 . S
C209 O210 1.235 . S
C209 O236 1.289 . S
O210 C209 1.235 . S
C211 C213 1.400 . S
C211 N214 1.351 . S
C211 C216 1.501 . S
C212 C213 1.387 . S
C212 N215 1.341 . S
C213 C211 1.400 . S
C213 C212 1.387 . S
N214 Co205 2.022 . S
N214 C211 1.351 . S
N214 N215 1.365 . S
N215 C212 1.341 . S
N215 N214 1.365 . S
N215 H235 0.862 . S
C216 C211 1.501 . S
C216 H217 0.961 . S
C216 H218 0.961 . S
C216 H219 0.960 . S
H217 C216 0.961 . S
H218 C216 0.961 . S
H219 C216 0.960 . S
C220 N221 1.342 . S
C220 C224 1.401 . S
C220 C225 1.499 . S
N221 Co204 1.989 . S
N221 C220 1.342 . S
N221 N222 1.388 . S
N222 Co205 1.993 . S
N222 N221 1.388 . S
N222 C223 1.346 . S
C223 N222 1.346 . S
C223 C224 1.396 . S
C223 C233 1.510 . S
C224 C220 1.401 . S
C224 C223 1.396 . S
C225 C220 1.499 . S
C225 H226 0.959 . S
C225 H227 0.960 . S
C225 H228 0.961 . S
H226 C225 0.959 . S
H227 C225 0.960 . S
H228 C225 0.961 . S
O229 Co204 1.967 . S
O229 C237 1.258 . S
O230 Co205 1.941 . S
O230 C237 1.266 . S
H231 C233 0.959 . S
H232 C233 0.961 . S
C233 C223 1.510 . S
C233 H231 0.959 . S
C233 H232 0.961 . S
C233 H234 0.960 . S
H234 C233 0.960 . S
H235 N215 0.862 . S
O236 Co204 1.920 . S
O236 C209 1.289 . S
C237 O229 1.258 . S
C237 O230 1.266 . S
Co238 O241 1.970 . S
Co238 N255 1.989 . S
Co238 O263 1.967 . S
Co238 O270 1.920 . S
Co239 O242 1.966 . S
Co239 N248 2.022 . S
Co239 N256 1.993 . S
Co239 O264 1.941 . S
C240 O241 1.258 . S
C240 O242 1.263 . S
O241 Co238 1.970 . S
O241 C240 1.258 . S
O242 Co239 1.966 . S
O242 C240 1.263 . S
C243 O244 1.235 . S
C243 O270 1.289 . S
O244 C243 1.235 . S
C245 C247 1.400 . S
C245 N248 1.351 . S
C245 C250 1.501 . S
C246 C247 1.387 . S
C246 N249 1.341 . S
C247 C245 1.400 . S
C247 C246 1.387 . S
N248 Co239 2.022 . S
N248 C245 1.351 . S
N248 N249 1.365 . S
N249 C246 1.341 . S
N249 N248 1.365 . S
N249 H269 0.862 . S
C250 C245 1.501 . S
C250 H251 0.961 . S
C250 H252 0.961 . S
C250 H253 0.960 . S
H251 C250 0.961 . S
H252 C250 0.961 . S
H253 C250 0.960 . S
C254 N255 1.342 . S
C254 C258 1.401 . S
C254 C259 1.499 . S
N255 Co238 1.989 . S
N255 C254 1.342 . S
N255 N256 1.388 . S
N256 Co239 1.993 . S
N256 N255 1.388 . S
N256 C257 1.346 . S
C257 N256 1.346 . S
C257 C258 1.396 . S
C257 C267 1.510 . S
C258 C254 1.401 . S
C258 C257 1.396 . S
C259 C254 1.499 . S
C259 H260 0.959 . S
C259 H261 0.960 . S
C259 H262 0.961 . S
H260 C259 0.959 . S
H261 C259 0.960 . S
H262 C259 0.961 . S
O263 Co238 1.967 . S
O263 C271 1.258 . S
O264 Co239 1.941 . S
O264 C271 1.266 . S
H265 C267 0.959 . S
H266 C267 0.961 . S
C267 C257 1.510 . S
C267 H265 0.959 . S
C267 H266 0.961 . S
C267 H268 0.960 . S
H268 C267 0.960 . S
H269 N249 0.862 . S
O270 Co238 1.920 . S
O270 C243 1.289 . S
C271 O263 1.258 . S
C271 O264 1.266 . S
Co272 O275 1.970 . S
Co272 N289 1.989 . S
Co272 O297 1.967 . S
Co272 O304 1.920 . S
Co273 O276 1.966 . S
Co273 N282 2.022 . S
Co273 N290 1.993 . S
Co273 O298 1.941 . S
C274 O275 1.258 . S
C274 O276 1.263 . S
O275 Co272 1.970 . S
O275 C274 1.258 . S
O276 Co273 1.966 . S
O276 C274 1.263 . S
C277 O278 1.235 . S
C277 O304 1.289 . S
O278 C277 1.235 . S
C279 C281 1.400 . S
C279 N282 1.351 . S
C279 C284 1.501 . S
C280 C281 1.387 . S
C280 N283 1.341 . S
C281 C279 1.400 . S
C281 C280 1.387 . S
N282 Co273 2.022 . S
N282 C279 1.351 . S
N282 N283 1.365 . S
N283 C280 1.341 . S
N283 N282 1.365 . S
N283 H303 0.862 . S
C284 C279 1.501 . S
C284 H285 0.961 . S
C284 H286 0.961 . S
C284 H287 0.960 . S
H285 C284 0.961 . S
H286 C284 0.961 . S
H287 C284 0.960 . S
C288 N289 1.342 . S
C288 C292 1.401 . S
C288 C293 1.499 . S
N289 Co272 1.989 . S
N289 C288 1.342 . S
N289 N290 1.388 . S
N290 Co273 1.993 . S
N290 N289 1.388 . S
N290 C291 1.346 . S
C291 N290 1.346 . S
C291 C292 1.396 . S
C291 C301 1.510 . S
C292 C288 1.401 . S
C292 C291 1.396 . S
C293 C288 1.499 . S
C293 H294 0.959 . S
C293 H295 0.960 . S
C293 H296 0.961 . S
H294 C293 0.959 . S
H295 C293 0.960 . S
H296 C293 0.961 . S
O297 Co272 1.967 . S
O297 C305 1.258 . S
O298 Co273 1.941 . S
O298 C305 1.266 . S
H299 C301 0.959 . S
H300 C301 0.961 . S
C301 C291 1.510 . S
C301 H299 0.959 . S
C301 H300 0.961 . S
C301 H302 0.960 . S
H302 C301 0.960 . S
H303 N283 0.862 . S
O304 Co272 1.920 . S
O304 C277 1.289 . S
C305 O297 1.258 . S
C305 O298 1.266 . S
Co306 O309 1.970 . S
Co306 N323 1.989 . S
Co306 O331 1.967 . S
Co306 O338 1.920 . S
Co307 O310 1.966 . S
Co307 N316 2.022 . S
Co307 N324 1.993 . S
Co307 O332 1.941 . S
C308 O309 1.258 . S
C308 O310 1.263 . S
O309 Co306 1.970 . S
O309 C308 1.258 . S
O310 Co307 1.966 . S
O310 C308 1.263 . S
C311 O312 1.235 . S
C311 O338 1.289 . S
O312 C311 1.235 . S
C313 C315 1.400 . S
C313 N316 1.351 . S
C313 C318 1.501 . S
C314 C315 1.387 . S
C314 N317 1.341 . S
C315 C313 1.400 . S
C315 C314 1.387 . S
N316 Co307 2.022 . S
N316 C313 1.351 . S
N316 N317 1.365 . S
N317 C314 1.341 . S
N317 N316 1.365 . S
N317 H337 0.862 . S
C318 C313 1.501 . S
C318 H319 0.961 . S
C318 H320 0.961 . S
C318 H321 0.960 . S
H319 C318 0.961 . S
H320 C318 0.961 . S
H321 C318 0.960 . S
C322 N323 1.342 . S
C322 C326 1.401 . S
C322 C327 1.499 . S
N323 Co306 1.989 . S
N323 C322 1.342 . S
N323 N324 1.388 . S
N324 Co307 1.993 . S
N324 N323 1.388 . S
N324 C325 1.346 . S
C325 N324 1.346 . S
C325 C326 1.396 . S
C325 C335 1.510 . S
C326 C322 1.401 . S
C326 C325 1.396 . S
C327 C322 1.499 . S
C327 H328 0.959 . S
C327 H329 0.960 . S
C327 H330 0.961 . S
H328 C327 0.959 . S
H329 C327 0.960 . S
H330 C327 0.961 . S
O331 Co306 1.967 . S
O331 C339 1.258 . S
O332 Co307 1.941 . S
O332 C339 1.266 . S
H333 C335 0.959 . S
H334 C335 0.961 . S
C335 C325 1.510 . S
C335 H333 0.959 . S
C335 H334 0.961 . S
C335 H336 0.960 . S
H336 C335 0.960 . S
H337 N317 0.862 . S
O338 Co306 1.920 . S
O338 C311 1.289 . S
C339 O331 1.258 . S
C339 O332 1.266 . S
Co340 O343 1.970 . S
Co340 N357 1.989 . S
Co340 O365 1.967 . S
Co340 O372 1.920 . S
Co341 O344 1.966 . S
Co341 N350 2.022 . S
Co341 N358 1.993 . S
Co341 O366 1.941 . S
C342 O343 1.258 . S
C342 O344 1.263 . S
O343 Co340 1.970 . S
O343 C342 1.258 . S
O344 Co341 1.966 . S
O344 C342 1.263 . S
C345 O346 1.235 . S
C345 O372 1.289 . S
O346 C345 1.235 . S
C347 C349 1.400 . S
C347 N350 1.351 . S
C347 C352 1.501 . S
C348 C349 1.387 . S
C348 N351 1.341 . S
C349 C347 1.400 . S
C349 C348 1.387 . S
N350 Co341 2.022 . S
N350 C347 1.351 . S
N350 N351 1.365 . S
N351 C348 1.341 . S
N351 N350 1.365 . S
N351 H371 0.862 . S
C352 C347 1.501 . S
C352 H353 0.961 . S
C352 H354 0.961 . S
C352 H355 0.960 . S
H353 C352 0.961 . S
H354 C352 0.961 . S
H355 C352 0.960 . S
C356 N357 1.342 . S
C356 C360 1.401 . S
C356 C361 1.499 . S
N357 Co340 1.989 . S
N357 C356 1.342 . S
N357 N358 1.388 . S
N358 Co341 1.993 . S
N358 N357 1.388 . S
N358 C359 1.346 . S
C359 N358 1.346 . S
C359 C360 1.396 . S
C359 C369 1.510 . S
C360 C356 1.401 . S
C360 C359 1.396 . S
C361 C356 1.499 . S
C361 H362 0.959 . S
C361 H363 0.960 . S
C361 H364 0.961 . S
H362 C361 0.959 . S
H363 C361 0.960 . S
H364 C361 0.961 . S
O365 Co340 1.967 . S
O365 C373 1.258 . S
O366 Co341 1.941 . S
O366 C373 1.266 . S
H367 C369 0.959 . S
H368 C369 0.961 . S
C369 C359 1.510 . S
C369 H367 0.959 . S
C369 H368 0.961 . S
C369 H370 0.960 . S
H370 C369 0.960 . S
H371 N351 0.862 . S
O372 Co340 1.920 . S
O372 C345 1.289 . S
C373 O365 1.258 . S
C373 O366 1.266 . S
Co374 O377 1.970 . S
Co374 N391 1.989 . S
Co374 O399 1.967 . S
Co374 O406 1.920 . S
Co375 O378 1.966 . S
Co375 N384 2.022 . S
Co375 N392 1.993 . S
Co375 O400 1.941 . S
C376 O377 1.258 . S
C376 O378 1.263 . S
O377 Co374 1.970 . S
O377 C376 1.258 . S
O378 Co375 1.966 . S
O378 C376 1.263 . S
C379 O380 1.235 . S
C379 O406 1.289 . S
O380 C379 1.235 . S
C381 C383 1.400 . S
C381 N384 1.351 . S
C381 C386 1.501 . S
C382 C383 1.387 . S
C382 N385 1.341 . S
C383 C381 1.400 . S
C383 C382 1.387 . S
N384 Co375 2.022 . S
N384 C381 1.351 . S
N384 N385 1.365 . S
N385 C382 1.341 . S
N385 N384 1.365 . S
N385 H405 0.862 . S
C386 C381 1.501 . S
C386 H387 0.961 . S
C386 H388 0.961 . S
C386 H389 0.960 . S
H387 C386 0.961 . S
H388 C386 0.961 . S
H389 C386 0.960 . S
C390 N391 1.342 . S
C390 C394 1.401 . S
C390 C395 1.499 . S
N391 Co374 1.989 . S
N391 C390 1.342 . S
N391 N392 1.388 . S
N392 Co375 1.993 . S
N392 N391 1.388 . S
N392 C393 1.346 . S
C393 N392 1.346 . S
C393 C394 1.396 . S
C393 C403 1.510 . S
C394 C390 1.401 . S
C394 C393 1.396 . S
C395 C390 1.499 . S
C395 H396 0.959 . S
C395 H397 0.960 . S
C395 H398 0.961 . S
H396 C395 0.959 . S
H397 C395 0.960 . S
H398 C395 0.961 . S
O399 Co374 1.967 . S
O399 C407 1.258 . S
O400 Co375 1.941 . S
O400 C407 1.266 . S
H401 C403 0.959 . S
H402 C403 0.961 . S
C403 C393 1.510 . S
C403 H401 0.959 . S
C403 H402 0.961 . S
C403 H404 0.960 . S
H404 C403 0.960 . S
H405 N385 0.862 . S
O406 Co374 1.920 . S
O406 C379 1.289 . S
C407 O399 1.258 . S
C407 O400 1.266 . S
Co408 O411 1.970 . S
Co408 N425 1.989 . S
Co408 O433 1.967 . S
Co408 O440 1.920 . S
Co409 O412 1.966 . S
Co409 N418 2.022 . S
Co409 N426 1.993 . S
Co409 O434 1.941 . S
C410 O411 1.258 . S
C410 O412 1.263 . S
O411 Co408 1.970 . S
O411 C410 1.258 . S
O412 Co409 1.966 . S
O412 C410 1.263 . S
C413 O414 1.235 . S
C413 O440 1.289 . S
O414 C413 1.235 . S
C415 C417 1.400 . S
C415 N418 1.351 . S
C415 C420 1.501 . S
C416 C417 1.387 . S
C416 N419 1.341 . S
C417 C415 1.400 . S
C417 C416 1.387 . S
N418 Co409 2.022 . S
N418 C415 1.351 . S
N418 N419 1.365 . S
N419 C416 1.341 . S
N419 N418 1.365 . S
N419 H439 0.862 . S
C420 C415 1.501 . S
C420 H421 0.961 . S
C420 H422 0.961 . S
C420 H423 0.960 . S
H421 C420 0.961 . S
H422 C420 0.961 . S
H423 C420 0.960 . S
C424 N425 1.342 . S
C424 C428 1.401 . S
C424 C429 1.499 . S
N425 Co408 1.989 . S
N425 C424 1.342 . S
N425 N426 1.388 . S
N426 Co409 1.993 . S
N426 N425 1.388 . S
N426 C427 1.346 . S
C427 N426 1.346 . S
C427 C428 1.396 . S
C427 C437 1.510 . S
C428 C424 1.401 . S
C428 C427 1.396 . S
C429 C424 1.499 . S
C429 H430 0.959 . S
C429 H431 0.960 . S
C429 H432 0.961 . S
H430 C429 0.959 . S
H431 C429 0.960 . S
H432 C429 0.961 . S
O433 Co408 1.967 . S
O433 C441 1.258 . S
O434 Co409 1.941 . S
O434 C441 1.266 . S
H435 C437 0.959 . S
H436 C437 0.961 . S
C437 C427 1.510 . S
C437 H435 0.959 . S
C437 H436 0.961 . S
C437 H438 0.960 . S
H438 C437 0.960 . S
H439 N419 0.862 . S
O440 Co408 1.920 . S
O440 C413 1.289 . S
C441 O433 1.258 . S
C441 O434 1.266 . S
Co442 O445 1.970 . S
Co442 N459 1.989 . S
Co442 O467 1.967 . S
Co442 O474 1.920 . S
Co443 O446 1.966 . S
Co443 N452 2.022 . S
Co443 N460 1.993 . S
Co443 O468 1.941 . S
C444 O445 1.258 . S
C444 O446 1.263 . S
O445 Co442 1.970 . S
O445 C444 1.258 . S
O446 Co443 1.966 . S
O446 C444 1.263 . S
C447 O448 1.235 . S
C447 O474 1.289 . S
O448 C447 1.235 . S
C449 C451 1.400 . S
C449 N452 1.351 . S
C449 C454 1.501 . S
C450 C451 1.387 . S
C450 N453 1.341 . S
C451 C449 1.400 . S
C451 C450 1.387 . S
N452 Co443 2.022 . S
N452 C449 1.351 . S
N452 N453 1.365 . S
N453 C450 1.341 . S
N453 N452 1.365 . S
N453 H473 0.862 . S
C454 C449 1.501 . S
C454 H455 0.961 . S
C454 H456 0.961 . S
C454 H457 0.960 . S
H455 C454 0.961 . S
H456 C454 0.961 . S
H457 C454 0.960 . S
C458 N459 1.342 . S
C458 C462 1.401 . S
C458 C463 1.499 . S
N459 Co442 1.989 . S
N459 C458 1.342 . S
N459 N460 1.388 . S
N460 Co443 1.993 . S
N460 N459 1.388 . S
N460 C461 1.346 . S
C461 N460 1.346 . S
C461 C462 1.396 . S
C461 C471 1.510 . S
C462 C458 1.401 . S
C462 C461 1.396 . S
C463 C458 1.499 . S
C463 H464 0.959 . S
C463 H465 0.960 . S
C463 H466 0.961 . S
H464 C463 0.959 . S
H465 C463 0.960 . S
H466 C463 0.961 . S
O467 Co442 1.967 . S
O467 C475 1.258 . S
O468 Co443 1.941 . S
O468 C475 1.266 . S
H469 C471 0.959 . S
H470 C471 0.961 . S
C471 C461 1.510 . S
C471 H469 0.959 . S
C471 H470 0.961 . S
C471 H472 0.960 . S
H472 C471 0.960 . S
H473 N453 0.862 . S
O474 Co442 1.920 . S
O474 C447 1.289 . S
C475 O467 1.258 . S
C475 O468 1.266 . S
Co476 O479 1.970 . S
Co476 N493 1.989 . S
Co476 O501 1.967 . S
Co476 O508 1.920 . S
Co477 O480 1.966 . S
Co477 N486 2.022 . S
Co477 N494 1.993 . S
Co477 O502 1.941 . S
C478 O479 1.258 . S
C478 O480 1.263 . S
O479 Co476 1.970 . S
O479 C478 1.258 . S
O480 Co477 1.966 . S
O480 C478 1.263 . S
C481 O482 1.235 . S
C481 O508 1.289 . S
O482 C481 1.235 . S
C483 C485 1.400 . S
C483 N486 1.351 . S
C483 C488 1.501 . S
C484 C485 1.387 . S
C484 N487 1.341 . S
C485 C483 1.400 . S
C485 C484 1.387 . S
N486 Co477 2.022 . S
N486 C483 1.351 . S
N486 N487 1.365 . S
N487 C484 1.341 . S
N487 N486 1.365 . S
N487 H507 0.862 . S
C488 C483 1.501 . S
C488 H489 0.961 . S
C488 H490 0.961 . S
C488 H491 0.960 . S
H489 C488 0.961 . S
H490 C488 0.961 . S
H491 C488 0.960 . S
C492 N493 1.342 . S
C492 C496 1.401 . S
C492 C497 1.499 . S
N493 Co476 1.989 . S
N493 C492 1.342 . S
N493 N494 1.388 . S
N494 Co477 1.993 . S
N494 N493 1.388 . S
N494 C495 1.346 . S
C495 N494 1.346 . S
C495 C496 1.396 . S
C495 C505 1.510 . S
C496 C492 1.401 . S
C496 C495 1.396 . S
C497 C492 1.499 . S
C497 H498 0.959 . S
C497 H499 0.960 . S
C497 H500 0.961 . S
H498 C497 0.959 . S
H499 C497 0.960 . S
H500 C497 0.961 . S
O501 Co476 1.967 . S
O501 C509 1.258 . S
O502 Co477 1.941 . S
O502 C509 1.266 . S
H503 C505 0.959 . S
H504 C505 0.961 . S
C505 C495 1.510 . S
C505 H503 0.959 . S
C505 H504 0.961 . S
C505 H506 0.960 . S
H506 C505 0.960 . S
H507 N487 0.862 . S
O508 Co476 1.920 . S
O508 C481 1.289 . S
C509 O501 1.258 . S
C509 O502 1.266 . S
Co510 O513 1.970 . S
Co510 N527 1.989 . S
Co510 O535 1.967 . S
Co510 O542 1.920 . S
Co511 O514 1.966 . S
Co511 N520 2.022 . S
Co511 N528 1.993 . S
Co511 O536 1.941 . S
C512 O513 1.258 . S
C512 O514 1.263 . S
O513 Co510 1.970 . S
O513 C512 1.258 . S
O514 Co511 1.966 . S
O514 C512 1.263 . S
C515 O516 1.235 . S
C515 O542 1.289 . S
O516 C515 1.235 . S
C517 C519 1.400 . S
C517 N520 1.351 . S
C517 C522 1.501 . S
C518 C519 1.387 . S
C518 N521 1.341 . S
C519 C517 1.400 . S
C519 C518 1.387 . S
N520 Co511 2.022 . S
N520 C517 1.351 . S
N520 N521 1.365 . S
N521 C518 1.341 . S
N521 N520 1.365 . S
N521 H541 0.862 . S
C522 C517 1.501 . S
C522 H523 0.961 . S
C522 H524 0.961 . S
C522 H525 0.960 . S
H523 C522 0.961 . S
H524 C522 0.961 . S
H525 C522 0.960 . S
C526 N527 1.342 . S
C526 C530 1.401 . S
C526 C531 1.499 . S
N527 Co510 1.989 . S
N527 C526 1.342 . S
N527 N528 1.388 . S
N528 Co511 1.993 . S
N528 N527 1.388 . S
N528 C529 1.346 . S
C529 N528 1.346 . S
C529 C530 1.396 . S
C529 C539 1.510 . S
C530 C526 1.401 . S
C530 C529 1.396 . S
C531 C526 1.499 . S
C531 H532 0.959 . S
C531 H533 0.960 . S
C531 H534 0.961 . S
H532 C531 0.959 . S
H533 C531 0.960 . S
H534 C531 0.961 . S
O535 Co510 1.967 . S
O535 C543 1.258 . S
O536 Co511 1.941 . S
O536 C543 1.266 . S
H537 C539 0.959 . S
H538 C539 0.961 . S
C539 C529 1.510 . S
C539 H537 0.959 . S
C539 H538 0.961 . S
C539 H540 0.960 . S
H540 C539 0.960 . S
H541 N521 0.862 . S
O542 Co510 1.920 . S
O542 C515 1.289 . S
C543 O535 1.258 . S
C543 O536 1.266 . S
Co544 O547 1.970 . S
Co544 N561 1.989 . S
Co544 O569 1.967 . S
Co544 O576 1.920 . S
Co545 O548 1.966 . S
Co545 N554 2.022 . S
Co545 N562 1.993 . S
Co545 O570 1.941 . S
C546 O547 1.258 . S
C546 O548 1.263 . S
O547 Co544 1.970 . S
O547 C546 1.258 . S
O548 Co545 1.966 . S
O548 C546 1.263 . S
C549 O550 1.235 . S
C549 O576 1.289 . S
O550 C549 1.235 . S
C551 C553 1.400 . S
C551 N554 1.351 . S
C551 C556 1.501 . S
C552 C553 1.387 . S
C552 N555 1.341 . S
C553 C551 1.400 . S
C553 C552 1.387 . S
N554 Co545 2.022 . S
N554 C551 1.351 . S
N554 N555 1.365 . S
N555 C552 1.341 . S
N555 N554 1.365 . S
N555 H575 0.862 . S
C556 C551 1.501 . S
C556 H557 0.961 . S
C556 H558 0.961 . S
C556 H559 0.960 . S
H557 C556 0.961 . S
H558 C556 0.961 . S
H559 C556 0.960 . S
C560 N561 1.342 . S
C560 C564 1.401 . S
C560 C565 1.499 . S
N561 Co544 1.989 . S
N561 C560 1.342 . S
N561 N562 1.388 . S
N562 Co545 1.993 . S
N562 N561 1.388 . S
N562 C563 1.346 . S
C563 N562 1.346 . S
C563 C564 1.396 . S
C563 C573 1.510 . S
C564 C560 1.401 . S
C564 C563 1.396 . S
C565 C560 1.499 . S
C565 H566 0.959 . S
C565 H567 0.960 . S
C565 H568 0.961 . S
H566 C565 0.959 . S
H567 C565 0.960 . S
H568 C565 0.961 . S
O569 Co544 1.967 . S
O569 C577 1.258 . S
O570 Co545 1.941 . S
O570 C577 1.266 . S
H571 C573 0.959 . S
H572 C573 0.961 . S
C573 C563 1.510 . S
C573 H571 0.959 . S
C573 H572 0.961 . S
C573 H574 0.960 . S
H574 C573 0.960 . S
H575 N555 0.862 . S
O576 Co544 1.920 . S
O576 C549 1.289 . S
C577 O569 1.258 . S
C577 O570 1.266 . S
Co578 O581 1.970 . S
Co578 N595 1.989 . S
Co578 O603 1.967 . S
Co578 O610 1.920 . S
Co579 O582 1.966 . S
Co579 N588 2.022 . S
Co579 N596 1.993 . S
Co579 O604 1.941 . S
C580 O581 1.258 . S
C580 O582 1.263 . S
O581 Co578 1.970 . S
O581 C580 1.258 . S
O582 Co579 1.966 . S
O582 C580 1.263 . S
C583 O584 1.235 . S
C583 O610 1.289 . S
O584 C583 1.235 . S
C585 C587 1.400 . S
C585 N588 1.351 . S
C585 C590 1.501 . S
C586 C587 1.387 . S
C586 N589 1.341 . S
C587 C585 1.400 . S
C587 C586 1.387 . S
N588 Co579 2.022 . S
N588 C585 1.351 . S
N588 N589 1.365 . S
N589 C586 1.341 . S
N589 N588 1.365 . S
N589 H609 0.862 . S
C590 C585 1.501 . S
C590 H591 0.961 . S
C590 H592 0.961 . S
C590 H593 0.960 . S
H591 C590 0.961 . S
H592 C590 0.961 . S
H593 C590 0.960 . S
C594 N595 1.342 . S
C594 C598 1.401 . S
C594 C599 1.499 . S
N595 Co578 1.989 . S
N595 C594 1.342 . S
N595 N596 1.388 . S
N596 Co579 1.993 . S
N596 N595 1.388 . S
N596 C597 1.346 . S
C597 N596 1.346 . S
C597 C598 1.396 . S
C597 C607 1.510 . S
C598 C594 1.401 . S
C598 C597 1.396 . S
C599 C594 1.499 . S
C599 H600 0.959 . S
C599 H601 0.960 . S
C599 H602 0.961 . S
H600 C599 0.959 . S
H601 C599 0.960 . S
H602 C599 0.961 . S
O603 Co578 1.967 . S
O603 C611 1.258 . S
O604 Co579 1.941 . S
O604 C611 1.266 . S
H605 C607 0.959 . S
H606 C607 0.961 . S
C607 C597 1.510 . S
C607 H605 0.959 . S
C607 H606 0.961 . S
C607 H608 0.960 . S
H608 C607 0.960 . S
H609 N589 0.862 . S
O610 Co578 1.920 . S
O610 C583 1.289 . S
C611 O603 1.258 . S
C611 O604 1.266 . S
Co612 O615 1.970 . S
Co612 N629 1.989 . S
Co612 O637 1.967 . S
Co612 O644 1.920 . S
Co613 O616 1.966 . S
Co613 N622 2.022 . S
Co613 N630 1.993 . S
Co613 O638 1.941 . S
C614 O615 1.258 . S
C614 O616 1.263 . S
O615 Co612 1.970 . S
O615 C614 1.258 . S
O616 Co613 1.966 . S
O616 C614 1.263 . S
C617 O618 1.235 . S
C617 O644 1.289 . S
O618 C617 1.235 . S
C619 C621 1.400 . S
C619 N622 1.351 . S
C619 C624 1.501 . S
C620 C621 1.387 . S
C620 N623 1.341 . S
C621 C619 1.400 . S
C621 C620 1.387 . S
N622 Co613 2.022 . S
N622 C619 1.351 . S
N622 N623 1.365 . S
N623 C620 1.341 . S
N623 N622 1.365 . S
N623 H643 0.862 . S
C624 C619 1.501 . S
C624 H625 0.961 . S
C624 H626 0.961 . S
C624 H627 0.960 . S
H625 C624 0.961 . S
H626 C624 0.961 . S
H627 C624 0.960 . S
C628 N629 1.342 . S
C628 C632 1.401 . S
C628 C633 1.499 . S
N629 Co612 1.989 . S
N629 C628 1.342 . S
N629 N630 1.388 . S
N630 Co613 1.993 . S
N630 N629 1.388 . S
N630 C631 1.346 . S
C631 N630 1.346 . S
C631 C632 1.396 . S
C631 C641 1.510 . S
C632 C628 1.401 . S
C632 C631 1.396 . S
C633 C628 1.499 . S
C633 H634 0.959 . S
C633 H635 0.960 . S
C633 H636 0.961 . S
H634 C633 0.959 . S
H635 C633 0.960 . S
H636 C633 0.961 . S
O637 Co612 1.967 . S
O637 C645 1.258 . S
O638 Co613 1.941 . S
O638 C645 1.266 . S
H639 C641 0.959 . S
H640 C641 0.961 . S
C641 C631 1.510 . S
C641 H639 0.959 . S
C641 H640 0.961 . S
C641 H642 0.960 . S
H642 C641 0.960 . S
H643 N623 0.862 . S
O644 Co612 1.920 . S
O644 C617 1.289 . S
C645 O637 1.258 . S
C645 O638 1.266 . S
Co646 O649 1.970 . S
Co646 N663 1.989 . S
Co646 O671 1.967 . S
Co646 O678 1.920 . S
Co647 O650 1.966 . S
Co647 N656 2.022 . S
Co647 N664 1.993 . S
Co647 O672 1.941 . S
C648 O649 1.258 . S
C648 O650 1.263 . S
O649 Co646 1.970 . S
O649 C648 1.258 . S
O650 Co647 1.966 . S
O650 C648 1.263 . S
C651 O652 1.235 . S
C651 O678 1.289 . S
O652 C651 1.235 . S
C653 C655 1.400 . S
C653 N656 1.351 . S
C653 C658 1.501 . S
C654 C655 1.387 . S
C654 N657 1.341 . S
C655 C653 1.400 . S
C655 C654 1.387 . S
N656 Co647 2.022 . S
N656 C653 1.351 . S
N656 N657 1.365 . S
N657 C654 1.341 . S
N657 N656 1.365 . S
N657 H677 0.862 . S
C658 C653 1.501 . S
C658 H659 0.961 . S
C658 H660 0.961 . S
C658 H661 0.960 . S
H659 C658 0.961 . S
H660 C658 0.961 . S
H661 C658 0.960 . S
C662 N663 1.342 . S
C662 C666 1.401 . S
C662 C667 1.499 . S
N663 Co646 1.989 . S
N663 C662 1.342 . S
N663 N664 1.388 . S
N664 Co647 1.993 . S
N664 N663 1.388 . S
N664 C665 1.346 . S
C665 N664 1.346 . S
C665 C666 1.396 . S
C665 C675 1.510 . S
C666 C662 1.401 . S
C666 C665 1.396 . S
C667 C662 1.499 . S
C667 H668 0.959 . S
C667 H669 0.960 . S
C667 H670 0.961 . S
H668 C667 0.959 . S
H669 C667 0.960 . S
H670 C667 0.961 . S
O671 Co646 1.967 . S
O671 C679 1.258 . S
O672 Co647 1.941 . S
O672 C679 1.266 . S
H673 C675 0.959 . S
H674 C675 0.961 . S
C675 C665 1.510 . S
C675 H673 0.959 . S
C675 H674 0.961 . S
C675 H676 0.960 . S
H676 C675 0.960 . S
H677 N657 0.862 . S
O678 Co646 1.920 . S
O678 C651 1.289 . S
C679 O671 1.258 . S
C679 O672 1.266 . S
Co680 O683 1.970 . S
Co680 N697 1.989 . S
Co680 O705 1.967 . S
Co680 O712 1.920 . S
Co681 O684 1.966 . S
Co681 N690 2.022 . S
Co681 N698 1.993 . S
Co681 O706 1.941 . S
C682 O683 1.258 . S
C682 O684 1.263 . S
O683 Co680 1.970 . S
O683 C682 1.258 . S
O684 Co681 1.966 . S
O684 C682 1.263 . S
C685 O686 1.235 . S
C685 O712 1.289 . S
O686 C685 1.235 . S
C687 C689 1.400 . S
C687 N690 1.351 . S
C687 C692 1.501 . S
C688 C689 1.387 . S
C688 N691 1.341 . S
C689 C687 1.400 . S
C689 C688 1.387 . S
N690 Co681 2.022 . S
N690 C687 1.351 . S
N690 N691 1.365 . S
N691 C688 1.341 . S
N691 N690 1.365 . S
N691 H711 0.862 . S
C692 C687 1.501 . S
C692 H693 0.961 . S
C692 H694 0.961 . S
C692 H695 0.960 . S
H693 C692 0.961 . S
H694 C692 0.961 . S
H695 C692 0.960 . S
C696 N697 1.342 . S
C696 C700 1.401 . S
C696 C701 1.499 . S
N697 Co680 1.989 . S
N697 C696 1.342 . S
N697 N698 1.388 . S
N698 Co681 1.993 . S
N698 N697 1.388 . S
N698 C699 1.346 . S
C699 N698 1.346 . S
C699 C700 1.396 . S
C699 C709 1.510 . S
C700 C696 1.401 . S
C700 C699 1.396 . S
C701 C696 1.499 . S
C701 H702 0.959 . S
C701 H703 0.960 . S
C701 H704 0.961 . S
H702 C701 0.959 . S
H703 C701 0.960 . S
H704 C701 0.961 . S
O705 Co680 1.967 . S
O705 C713 1.258 . S
O706 Co681 1.941 . S
O706 C713 1.266 . S
H707 C709 0.959 . S
H708 C709 0.961 . S
C709 C699 1.510 . S
C709 H707 0.959 . S
C709 H708 0.961 . S
C709 H710 0.960 . S
H710 C709 0.960 . S
H711 N691 0.862 . S
O712 Co680 1.920 . S
O712 C685 1.289 . S
C713 O705 1.258 . S
C713 O706 1.266 . S
Co714 O717 1.970 . S
Co714 N731 1.989 . S
Co714 O739 1.967 . S
Co714 O746 1.920 . S
Co715 O718 1.966 . S
Co715 N724 2.022 . S
Co715 N732 1.993 . S
Co715 O740 1.941 . S
C716 O717 1.258 . S
C716 O718 1.263 . S
O717 Co714 1.970 . S
O717 C716 1.258 . S
O718 Co715 1.966 . S
O718 C716 1.263 . S
C719 O720 1.235 . S
C719 O746 1.289 . S
O720 C719 1.235 . S
C721 C723 1.400 . S
C721 N724 1.351 . S
C721 C726 1.501 . S
C722 C723 1.387 . S
C722 N725 1.341 . S
C723 C721 1.400 . S
C723 C722 1.387 . S
N724 Co715 2.022 . S
N724 C721 1.351 . S
N724 N725 1.365 . S
N725 C722 1.341 . S
N725 N724 1.365 . S
N725 H745 0.862 . S
C726 C721 1.501 . S
C726 H727 0.961 . S
C726 H728 0.961 . S
C726 H729 0.960 . S
H727 C726 0.961 . S
H728 C726 0.961 . S
H729 C726 0.960 . S
C730 N731 1.342 . S
C730 C734 1.401 . S
C730 C735 1.499 . S
N731 Co714 1.989 . S
N731 C730 1.342 . S
N731 N732 1.388 . S
N732 Co715 1.993 . S
N732 N731 1.388 . S
N732 C733 1.346 . S
C733 N732 1.346 . S
C733 C734 1.396 . S
C733 C743 1.510 . S
C734 C730 1.401 . S
C734 C733 1.396 . S
C735 C730 1.499 . S
C735 H736 0.959 . S
C735 H737 0.960 . S
C735 H738 0.961 . S
H736 C735 0.959 . S
H737 C735 0.960 . S
H738 C735 0.961 . S
O739 Co714 1.967 . S
O739 C747 1.258 . S
O740 Co715 1.941 . S
O740 C747 1.266 . S
H741 C743 0.959 . S
H742 C743 0.961 . S
C743 C733 1.510 . S
C743 H741 0.959 . S
C743 H742 0.961 . S
C743 H744 0.960 . S
H744 C743 0.960 . S
H745 N725 0.862 . S
O746 Co714 1.920 . S
O746 C719 1.289 . S
C747 O739 1.258 . S
C747 O740 1.266 . S
Co748 O751 1.970 . S
Co748 N765 1.989 . S
Co748 O773 1.967 . S
Co748 O780 1.920 . S
Co749 O752 1.966 . S
Co749 N758 2.022 . S
Co749 N766 1.993 . S
Co749 O774 1.941 . S
C750 O751 1.258 . S
C750 O752 1.263 . S
O751 Co748 1.970 . S
O751 C750 1.258 . S
O752 Co749 1.966 . S
O752 C750 1.263 . S
C753 O754 1.235 . S
C753 O780 1.289 . S
O754 C753 1.235 . S
C755 C757 1.400 . S
C755 N758 1.351 . S
C755 C760 1.501 . S
C756 C757 1.387 . S
C756 N759 1.341 . S
C757 C755 1.400 . S
C757 C756 1.387 . S
N758 Co749 2.022 . S
N758 C755 1.351 . S
N758 N759 1.365 . S
N759 C756 1.341 . S
N759 N758 1.365 . S
N759 H779 0.862 . S
C760 C755 1.501 . S
C760 H761 0.961 . S
C760 H762 0.961 . S
C760 H763 0.960 . S
H761 C760 0.961 . S
H762 C760 0.961 . S
H763 C760 0.960 . S
C764 N765 1.342 . S
C764 C768 1.401 . S
C764 C769 1.499 . S
N765 Co748 1.989 . S
N765 C764 1.342 . S
N765 N766 1.388 . S
N766 Co749 1.993 . S
N766 N765 1.388 . S
N766 C767 1.346 . S
C767 N766 1.346 . S
C767 C768 1.396 . S
C767 C777 1.510 . S
C768 C764 1.401 . S
C768 C767 1.396 . S
C769 C764 1.499 . S
C769 H770 0.959 . S
C769 H771 0.960 . S
C769 H772 0.961 . S
H770 C769 0.959 . S
H771 C769 0.960 . S
H772 C769 0.961 . S
O773 Co748 1.967 . S
O773 C781 1.258 . S
O774 Co749 1.941 . S
O774 C781 1.266 . S
H775 C777 0.959 . S
H776 C777 0.961 . S
C777 C767 1.510 . S
C777 H775 0.959 . S
C777 H776 0.961 . S
C777 H778 0.960 . S
H778 C777 0.960 . S
H779 N759 0.862 . S
O780 Co748 1.920 . S
O780 C753 1.289 . S
C781 O773 1.258 . S
C781 O774 1.266 . S
Co782 O785 1.970 . S
Co782 N799 1.989 . S
Co782 O807 1.967 . S
Co782 O814 1.920 . S
Co783 O786 1.966 . S
Co783 N792 2.022 . S
Co783 N800 1.993 . S
Co783 O808 1.941 . S
C784 O785 1.258 . S
C784 O786 1.263 . S
O785 Co782 1.970 . S
O785 C784 1.258 . S
O786 Co783 1.966 . S
O786 C784 1.263 . S
C787 O788 1.235 . S
C787 O814 1.289 . S
O788 C787 1.235 . S
C789 C791 1.400 . S
C789 N792 1.351 . S
C789 C794 1.501 . S
C790 C791 1.387 . S
C790 N793 1.341 . S
C791 C789 1.400 . S
C791 C790 1.387 . S
N792 Co783 2.022 . S
N792 C789 1.351 . S
N792 N793 1.365 . S
N793 C790 1.341 . S
N793 N792 1.365 . S
N793 H813 0.862 . S
C794 C789 1.501 . S
C794 H795 0.961 . S
C794 H796 0.961 . S
C794 H797 0.960 . S
H795 C794 0.961 . S
H796 C794 0.961 . S
H797 C794 0.960 . S
C798 N799 1.342 . S
C798 C802 1.401 . S
C798 C803 1.499 . S
N799 Co782 1.989 . S
N799 C798 1.342 . S
N799 N800 1.388 . S
N800 Co783 1.993 . S
N800 N799 1.388 . S
N800 C801 1.346 . S
C801 N800 1.346 . S
C801 C802 1.396 . S
C801 C811 1.510 . S
C802 C798 1.401 . S
C802 C801 1.396 . S
C803 C798 1.499 . S
C803 H804 0.959 . S
C803 H805 0.960 . S
C803 H806 0.961 . S
H804 C803 0.959 . S
H805 C803 0.960 . S
H806 C803 0.961 . S
O807 Co782 1.967 . S
O807 C815 1.258 . S
O808 Co783 1.941 . S
O808 C815 1.266 . S
H809 C811 0.959 . S
H810 C811 0.961 . S
C811 C801 1.510 . S
C811 H809 0.959 . S
C811 H810 0.961 . S
C811 H812 0.960 . S
H812 C811 0.960 . S
H813 N793 0.862 . S
O814 Co782 1.920 . S
O814 C787 1.289 . S
C815 O807 1.258 . S
C815 O808 1.266 . S
H816 C824 0.950 . S
H817 C829 0.950 . S
H818 C826 0.950 . S
H819 C828 0.950 . S
H820 C830 0.950 . S
H821 C832 0.950 . S
H822 C834 0.950 . S
H823 C835 0.950 . S
C824 H816 0.950 . S
C824 C825 1.386 . S
C824 C826 1.391 . S
C825 C824 1.386 . S
C825 C829 1.393 . S
C826 H818 0.950 . S
C826 C824 1.391 . S
C826 C827 1.400 . S
C827 C826 1.400 . S
C827 C828 1.398 . S
C827 C833 1.491 . S
C828 H819 0.950 . S
C828 C827 1.398 . S
C828 C829 1.391 . S
C829 H817 0.950 . S
C829 C825 1.393 . S
C829 C828 1.391 . S
C830 H820 0.950 . S
C830 C831 1.386 . S
C830 C832 1.391 . S
C831 C830 1.386 . S
C831 C835 1.393 . S
C832 H821 0.950 . S
C832 C830 1.391 . S
C832 C833 1.400 . S
C833 C827 1.491 . S
C833 C832 1.400 . S
C833 C834 1.398 . S
C834 H822 0.950 . S
C834 C833 1.398 . S
C834 C835 1.391 . S
C835 H823 0.950 . S
C835 C831 1.393 . S
C835 C834 1.391 . S
H836 C844 0.950 . S
H837 C849 0.950 . S
H838 C846 0.950 . S
H839 C848 0.950 . S
H840 C850 0.950 . S
H841 C852 0.950 . S
H842 C854 0.950 . S
H843 C855 0.950 . S
C844 H836 0.950 . S
C844 C845 1.386 . S
C844 C846 1.391 . S
C845 C844 1.386 . S
C845 C849 1.393 . S
C846 H838 0.950 . S
C846 C844 1.391 . S
C846 C847 1.400 . S
C847 C846 1.400 . S
C847 C848 1.398 . S
C847 C853 1.491 . S
C848 H839 0.950 . S
C848 C847 1.398 . S
C848 C849 1.391 . S
C849 H837 0.950 . S
C849 C845 1.393 . S
C849 C848 1.391 . S
C850 H840 0.950 . S
C850 C851 1.386 . S
C850 C852 1.391 . S
C851 C850 1.386 . S
C851 C855 1.393 . S
C852 H841 0.950 . S
C852 C850 1.391 . S
C852 C853 1.400 . S
C853 C847 1.491 . S
C853 C852 1.400 . S
C853 C854 1.398 . S
C854 H842 0.950 . S
C854 C853 1.398 . S
C854 C855 1.391 . S
C855 H843 0.950 . S
C855 C851 1.393 . S
C855 C854 1.391 . S
H856 C864 0.950 . S
H857 C869 0.950 . S
H858 C866 0.950 . S
H859 C868 0.950 . S
H860 C870 0.950 . S
H861 C872 0.950 . S
H862 C874 0.950 . S
H863 C875 0.950 . S
C864 H856 0.950 . S
C864 C865 1.386 . S
C864 C866 1.391 . S
C865 C864 1.386 . S
C865 C869 1.393 . S
C866 H858 0.950 . S
C866 C864 1.391 . S
C866 C867 1.400 . S
C867 C866 1.400 . S
C867 C868 1.398 . S
C867 C873 1.491 . S
C868 H859 0.950 . S
C868 C867 1.398 . S
C868 C869 1.391 . S
C869 H857 0.950 . S
C869 C865 1.393 . S
C869 C868 1.391 . S
C870 H860 0.950 . S
C870 C871 1.386 . S
C870 C872 1.391 . S
C871 C870 1.386 . S
C871 C875 1.393 . S
C872 H861 0.950 . S
C872 C870 1.391 . S
C872 C873 1.400 . S
C873 C867 1.491 . S
C873 C872 1.400 . S
C873 C874 1.398 . S
C874 H862 0.950 . S
C874 C873 1.398 . S
C874 C875 1.391 . S
C875 H863 0.950 . S
C875 C871 1.393 . S
C875 C874 1.391 . S
H876 C884 0.950 . S
H877 C889 0.950 . S
H878 C886 0.950 . S
H879 C888 0.950 . S
H880 C890 0.950 . S
H881 C892 0.950 . S
H882 C894 0.950 . S
H883 C895 0.950 . S
C884 H876 0.950 . S
C884 C885 1.386 . S
C884 C886 1.391 . S
C885 C884 1.386 . S
C885 C889 1.393 . S
C886 H878 0.950 . S
C886 C884 1.391 . S
C886 C887 1.400 . S
C887 C886 1.400 . S
C887 C888 1.398 . S
C887 C893 1.491 . S
C888 H879 0.950 . S
C888 C887 1.398 . S
C888 C889 1.391 . S
C889 H877 0.950 . S
C889 C885 1.393 . S
C889 C888 1.391 . S
C890 H880 0.950 . S
C890 C891 1.386 . S
C890 C892 1.391 . S
C891 C890 1.386 . S
C891 C895 1.393 . S
C892 H881 0.950 . S
C892 C890 1.391 . S
C892 C893 1.400 . S
C893 C887 1.491 . S
C893 C892 1.400 . S
C893 C894 1.398 . S
C894 H882 0.950 . S
C894 C893 1.398 . S
C894 C895 1.391 . S
C895 H883 0.950 . S
C895 C891 1.393 . S
C895 C894 1.391 . S
H896 C904 0.950 . S
H897 C909 0.950 . S
H898 C906 0.950 . S
H899 C908 0.950 . S
H900 C910 0.950 . S
H901 C912 0.950 . S
H902 C914 0.950 . S
H903 C915 0.950 . S
C904 H896 0.950 . S
C904 C905 1.386 . S
C904 C906 1.391 . S
C905 C904 1.386 . S
C905 C909 1.393 . S
C906 H898 0.950 . S
C906 C904 1.391 . S
C906 C907 1.400 . S
C907 C906 1.400 . S
C907 C908 1.398 . S
C907 C913 1.491 . S
C908 H899 0.950 . S
C908 C907 1.398 . S
C908 C909 1.391 . S
C909 H897 0.950 . S
C909 C905 1.393 . S
C909 C908 1.391 . S
C910 H900 0.950 . S
C910 C911 1.386 . S
C910 C912 1.391 . S
C911 C910 1.386 . S
C911 C915 1.393 . S
C912 H901 0.950 . S
C912 C910 1.391 . S
C912 C913 1.400 . S
C913 C907 1.491 . S
C913 C912 1.400 . S
C913 C914 1.398 . S
C914 H902 0.950 . S
C914 C913 1.398 . S
C914 C915 1.391 . S
C915 H903 0.950 . S
C915 C911 1.393 . S
C915 C914 1.391 . S
H916 C924 0.950 . S
H917 C929 0.950 . S
H918 C926 0.950 . S
H919 C928 0.950 . S
H920 C930 0.950 . S
H921 C932 0.950 . S
H922 C934 0.950 . S
H923 C935 0.950 . S
C924 H916 0.950 . S
C924 C925 1.386 . S
C924 C926 1.391 . S
C925 C924 1.386 . S
C925 C929 1.393 . S
C926 H918 0.950 . S
C926 C924 1.391 . S
C926 C927 1.400 . S
C927 C926 1.400 . S
C927 C928 1.398 . S
C927 C933 1.491 . S
C928 H919 0.950 . S
C928 C927 1.398 . S
C928 C929 1.391 . S
C929 H917 0.950 . S
C929 C925 1.393 . S
C929 C928 1.391 . S
C930 H920 0.950 . S
C930 C931 1.386 . S
C930 C932 1.391 . S
C931 C930 1.386 . S
C931 C935 1.393 . S
C932 H921 0.950 . S
C932 C930 1.391 . S
C932 C933 1.400 . S
C933 C927 1.491 . S
C933 C932 1.400 . S
C933 C934 1.398 . S
C934 H922 0.950 . S
C934 C933 1.398 . S
C934 C935 1.391 . S
C935 H923 0.950 . S
C935 C931 1.393 . S
C935 C934 1.391 . S
H936 C944 0.950 . S
H937 C949 0.950 . S
H938 C946 0.950 . S
H939 C948 0.950 . S
H940 C950 0.950 . S
H941 C952 0.950 . S
H942 C954 0.950 . S
H943 C955 0.950 . S
C944 H936 0.950 . S
C944 C945 1.386 . S
C944 C946 1.391 . S
C945 C944 1.386 . S
C945 C949 1.393 . S
C946 H938 0.950 . S
C946 C944 1.391 . S
C946 C947 1.400 . S
C947 C946 1.400 . S
C947 C948 1.398 . S
C947 C953 1.491 . S
C948 H939 0.950 . S
C948 C947 1.398 . S
C948 C949 1.391 . S
C949 H937 0.950 . S
C949 C945 1.393 . S
C949 C948 1.391 . S
C950 H940 0.950 . S
C950 C951 1.386 . S
C950 C952 1.391 . S
C951 C950 1.386 . S
C951 C955 1.393 . S
C952 H941 0.950 . S
C952 C950 1.391 . S
C952 C953 1.400 . S
C953 C947 1.491 . S
C953 C952 1.400 . S
C953 C954 1.398 . S
C954 H942 0.950 . S
C954 C953 1.398 . S
C954 C955 1.391 . S
C955 H943 0.950 . S
C955 C951 1.393 . S
C955 C954 1.391 . S
H956 C964 0.950 . S
H957 C969 0.950 . S
H958 C966 0.950 . S
H959 C968 0.950 . S
H960 C970 0.950 . S
H961 C972 0.950 . S
H962 C974 0.950 . S
H963 C975 0.950 . S
C964 H956 0.950 . S
C964 C965 1.386 . S
C964 C966 1.391 . S
C965 C964 1.386 . S
C965 C969 1.393 . S
C966 H958 0.950 . S
C966 C964 1.391 . S
C966 C967 1.400 . S
C967 C966 1.400 . S
C967 C968 1.398 . S
C967 C973 1.491 . S
C968 H959 0.950 . S
C968 C967 1.398 . S
C968 C969 1.391 . S
C969 H957 0.950 . S
C969 C965 1.393 . S
C969 C968 1.391 . S
C970 H960 0.950 . S
C970 C971 1.386 . S
C970 C972 1.391 . S
C971 C970 1.386 . S
C971 C975 1.393 . S
C972 H961 0.950 . S
C972 C970 1.391 . S
C972 C973 1.400 . S
C973 C967 1.491 . S
C973 C972 1.400 . S
C973 C974 1.398 . S
C974 H962 0.950 . S
C974 C973 1.398 . S
C974 C975 1.391 . S
C975 H963 0.950 . S
C975 C971 1.393 . S
C975 C974 1.391 . S
H976 C984 0.950 . S
H977 C989 0.950 . S
H978 C986 0.950 . S
H979 C988 0.950 . S
H980 C990 0.950 . S
H981 C992 0.950 . S
H982 C994 0.950 . S
H983 C995 0.950 . S
C984 H976 0.950 . S
C984 C985 1.386 . S
C984 C986 1.391 . S
C985 C984 1.386 . S
C985 C989 1.393 . S
C986 H978 0.950 . S
C986 C984 1.391 . S
C986 C987 1.400 . S
C987 C986 1.400 . S
C987 C988 1.398 . S
C987 C993 1.491 . S
C988 H979 0.950 . S
C988 C987 1.398 . S
C988 C989 1.391 . S
C989 H977 0.950 . S
C989 C985 1.393 . S
C989 C988 1.391 . S
C990 H980 0.950 . S
C990 C991 1.386 . S
C990 C992 1.391 . S
C991 C990 1.386 . S
C991 C995 1.393 . S
C992 H981 0.950 . S
C992 C990 1.391 . S
C992 C993 1.400 . S
C993 C987 1.491 . S
C993 C992 1.400 . S
C993 C994 1.398 . S
C994 H982 0.950 . S
C994 C993 1.398 . S
C994 C995 1.391 . S
C995 H983 0.950 . S
C995 C991 1.393 . S
C995 C994 1.391 . S
H996 C1004 0.950 . S
H997 C1009 0.950 . S
H998 C1006 0.950 . S
H999 C1008 0.950 . S
H1000 C1010 0.950 . S
H1001 C1012 0.950 . S
H1002 C1014 0.950 . S
H1003 C1015 0.950 . S
C1004 H996 0.950 . S
C1004 C1005 1.386 . S
C1004 C1006 1.391 . S
C1005 C1004 1.386 . S
C1005 C1009 1.393 . S
C1006 H998 0.950 . S
C1006 C1004 1.391 . S
C1006 C1007 1.400 . S
C1007 C1006 1.400 . S
C1007 C1008 1.398 . S
C1007 C1013 1.491 . S
C1008 H999 0.950 . S
C1008 C1007 1.398 . S
C1008 C1009 1.391 . S
C1009 H997 0.950 . S
C1009 C1005 1.393 . S
C1009 C1008 1.391 . S
C1010 H1000 0.950 . S
C1010 C1011 1.386 . S
C1010 C1012 1.391 . S
C1011 C1010 1.386 . S
C1011 C1015 1.393 . S
C1012 H1001 0.950 . S
C1012 C1010 1.391 . S
C1012 C1013 1.400 . S
C1013 C1007 1.491 . S
C1013 C1012 1.400 . S
C1013 C1014 1.398 . S
C1014 H1002 0.950 . S
C1014 C1013 1.398 . S
C1014 C1015 1.391 . S
C1015 H1003 0.950 . S
C1015 C1011 1.393 . S
C1015 C1014 1.391 . S
H1016 C1024 0.950 . S
H1017 C1029 0.950 . S
H1018 C1026 0.950 . S
H1019 C1028 0.950 . S
H1020 C1030 0.950 . S
H1021 C1032 0.950 . S
H1022 C1034 0.950 . S
H1023 C1035 0.950 . S
C1024 H1016 0.950 . S
C1024 C1025 1.386 . S
C1024 C1026 1.391 . S
C1025 C1024 1.386 . S
C1025 C1029 1.393 . S
C1026 H1018 0.950 . S
C1026 C1024 1.391 . S
C1026 C1027 1.400 . S
C1027 C1026 1.400 . S
C1027 C1028 1.398 . S
C1027 C1033 1.491 . S
C1028 H1019 0.950 . S
C1028 C1027 1.398 . S
C1028 C1029 1.391 . S
C1029 H1017 0.950 . S
C1029 C1025 1.393 . S
C1029 C1028 1.391 . S
C1030 H1020 0.950 . S
C1030 C1031 1.386 . S
C1030 C1032 1.391 . S
C1031 C1030 1.386 . S
C1031 C1035 1.393 . S
C1032 H1021 0.950 . S
C1032 C1030 1.391 . S
C1032 C1033 1.400 . S
C1033 C1027 1.491 . S
C1033 C1032 1.400 . S
C1033 C1034 1.398 . S
C1034 H1022 0.950 . S
C1034 C1033 1.398 . S
C1034 C1035 1.391 . S
C1035 H1023 0.950 . S
C1035 C1031 1.393 . S
C1035 C1034 1.391 . S
H1036 C1044 0.950 . S
H1037 C1049 0.950 . S
H1038 C1046 0.950 . S
H1039 C1048 0.950 . S
H1040 C1050 0.950 . S
H1041 C1052 0.950 . S
H1042 C1054 0.950 . S
H1043 C1055 0.950 . S
C1044 H1036 0.950 . S
C1044 C1045 1.386 . S
C1044 C1046 1.391 . S
C1045 C1044 1.386 . S
C1045 C1049 1.393 . S
C1046 H1038 0.950 . S
C1046 C1044 1.391 . S
C1046 C1047 1.400 . S
C1047 C1046 1.400 . S
C1047 C1048 1.398 . S
C1047 C1053 1.491 . S
C1048 H1039 0.950 . S
C1048 C1047 1.398 . S
C1048 C1049 1.391 . S
C1049 H1037 0.950 . S
C1049 C1045 1.393 . S
C1049 C1048 1.391 . S
C1050 H1040 0.950 . S
C1050 C1051 1.386 . S
C1050 C1052 1.391 . S
C1051 C1050 1.386 . S
C1051 C1055 1.393 . S
C1052 H1041 0.950 . S
C1052 C1050 1.391 . S
C1052 C1053 1.400 . S
C1053 C1047 1.491 . S
C1053 C1052 1.400 . S
C1053 C1054 1.398 . S
C1054 H1042 0.950 . S
C1054 C1053 1.398 . S
C1054 C1055 1.391 . S
C1055 H1043 0.950 . S
C1055 C1051 1.393 . S
C1055 C1054 1.391 . S
H1056 C1064 0.950 . S
H1057 C1069 0.950 . S
H1058 C1066 0.950 . S
H1059 C1068 0.950 . S
H1060 C1070 0.950 . S
H1061 C1072 0.950 . S
H1062 C1074 0.950 . S
H1063 C1075 0.950 . S
C1064 H1056 0.950 . S
C1064 C1065 1.386 . S
C1064 C1066 1.391 . S
C1065 C1064 1.386 . S
C1065 C1069 1.393 . S
C1066 H1058 0.950 . S
C1066 C1064 1.391 . S
C1066 C1067 1.400 . S
C1067 C1066 1.400 . S
C1067 C1068 1.398 . S
C1067 C1073 1.491 . S
C1068 H1059 0.950 . S
C1068 C1067 1.398 . S
C1068 C1069 1.391 . S
C1069 H1057 0.950 . S
C1069 C1065 1.393 . S
C1069 C1068 1.391 . S
C1070 H1060 0.950 . S
C1070 C1071 1.386 . S
C1070 C1072 1.391 . S
C1071 C1070 1.386 . S
C1071 C1075 1.393 . S
C1072 H1061 0.950 . S
C1072 C1070 1.391 . S
C1072 C1073 1.400 . S
C1073 C1067 1.491 . S
C1073 C1072 1.400 . S
C1073 C1074 1.398 . S
C1074 H1062 0.950 . S
C1074 C1073 1.398 . S
C1074 C1075 1.391 . S
C1075 H1063 0.950 . S
C1075 C1071 1.393 . S
C1075 C1074 1.391 . S
H1076 C1084 0.950 . S
H1077 C1089 0.950 . S
H1078 C1086 0.950 . S
H1079 C1088 0.950 . S
H1080 C1090 0.950 . S
H1081 C1092 0.950 . S
H1082 C1094 0.950 . S
H1083 C1095 0.950 . S
C1084 H1076 0.950 . S
C1084 C1085 1.386 . S
C1084 C1086 1.391 . S
C1085 C1084 1.386 . S
C1085 C1089 1.393 . S
C1086 H1078 0.950 . S
C1086 C1084 1.391 . S
C1086 C1087 1.400 . S
C1087 C1086 1.400 . S
C1087 C1088 1.398 . S
C1087 C1093 1.491 . S
C1088 H1079 0.950 . S
C1088 C1087 1.398 . S
C1088 C1089 1.391 . S
C1089 H1077 0.950 . S
C1089 C1085 1.393 . S
C1089 C1088 1.391 . S
C1090 H1080 0.950 . S
C1090 C1091 1.386 . S
C1090 C1092 1.391 . S
C1091 C1090 1.386 . S
C1091 C1095 1.393 . S
C1092 H1081 0.950 . S
C1092 C1090 1.391 . S
C1092 C1093 1.400 . S
C1093 C1087 1.491 . S
C1093 C1092 1.400 . S
C1093 C1094 1.398 . S
C1094 H1082 0.950 . S
C1094 C1093 1.398 . S
C1094 C1095 1.391 . S
C1095 H1083 0.950 . S
C1095 C1091 1.393 . S
C1095 C1094 1.391 . S
H1096 C1104 0.950 . S
H1097 C1109 0.950 . S
H1098 C1106 0.950 . S
H1099 C1108 0.950 . S
H1100 C1110 0.950 . S
H1101 C1112 0.950 . S
H1102 C1114 0.950 . S
H1103 C1115 0.950 . S
C1104 H1096 0.950 . S
C1104 C1105 1.386 . S
C1104 C1106 1.391 . S
C1105 C1104 1.386 . S
C1105 C1109 1.393 . S
C1106 H1098 0.950 . S
C1106 C1104 1.391 . S
C1106 C1107 1.400 . S
C1107 C1106 1.400 . S
C1107 C1108 1.398 . S
C1107 C1113 1.491 . S
C1108 H1099 0.950 . S
C1108 C1107 1.398 . S
C1108 C1109 1.391 . S
C1109 H1097 0.950 . S
C1109 C1105 1.393 . S
C1109 C1108 1.391 . S
C1110 H1100 0.950 . S
C1110 C1111 1.386 . S
C1110 C1112 1.391 . S
C1111 C1110 1.386 . S
C1111 C1115 1.393 . S
C1112 H1101 0.950 . S
C1112 C1110 1.391 . S
C1112 C1113 1.400 . S
C1113 C1107 1.491 . S
C1113 C1112 1.400 . S
C1113 C1114 1.398 . S
C1114 H1102 0.950 . S
C1114 C1113 1.398 . S
C1114 C1115 1.391 . S
C1115 H1103 0.950 . S
C1115 C1111 1.393 . S
C1115 C1114 1.391 . S
H1116 C1124 0.950 . S
H1117 C1129 0.950 . S
H1118 C1126 0.950 . S
H1119 C1128 0.950 . S
H1120 C1130 0.950 . S
H1121 C1132 0.950 . S
H1122 C1134 0.950 . S
H1123 C1135 0.950 . S
C1124 H1116 0.950 . S
C1124 C1125 1.386 . S
C1124 C1126 1.391 . S
C1125 C1124 1.386 . S
C1125 C1129 1.393 . S
C1126 H1118 0.950 . S
C1126 C1124 1.391 . S
C1126 C1127 1.400 . S
C1127 C1126 1.400 . S
C1127 C1128 1.398 . S
C1127 C1133 1.491 . S
C1128 H1119 0.950 . S
C1128 C1127 1.398 . S
C1128 C1129 1.391 . S
C1129 H1117 0.950 . S
C1129 C1125 1.393 . S
C1129 C1128 1.391 . S
C1130 H1120 0.950 . S
C1130 C1131 1.386 . S
C1130 C1132 1.391 . S
C1131 C1130 1.386 . S
C1131 C1135 1.393 . S
C1132 H1121 0.950 . S
C1132 C1130 1.391 . S
C1132 C1133 1.400 . S
C1133 C1127 1.491 . S
C1133 C1132 1.400 . S
C1133 C1134 1.398 . S
C1134 H1122 0.950 . S
C1134 C1133 1.398 . S
C1134 C1135 1.391 . S
C1135 H1123 0.950 . S
C1135 C1131 1.393 . S
C1135 C1134 1.391 . S
H1136 C1144 0.950 . S
H1137 C1149 0.950 . S
H1138 C1146 0.950 . S
H1139 C1148 0.950 . S
H1140 C1150 0.950 . S
H1141 C1152 0.950 . S
H1142 C1154 0.950 . S
H1143 C1155 0.950 . S
C1144 H1136 0.950 . S
C1144 C1145 1.386 . S
C1144 C1146 1.391 . S
C1145 C1144 1.386 . S
C1145 C1149 1.393 . S
C1146 H1138 0.950 . S
C1146 C1144 1.391 . S
C1146 C1147 1.400 . S
C1147 C1146 1.400 . S
C1147 C1148 1.398 . S
C1147 C1153 1.491 . S
C1148 H1139 0.950 . S
C1148 C1147 1.398 . S
C1148 C1149 1.391 . S
C1149 H1137 0.950 . S
C1149 C1145 1.393 . S
C1149 C1148 1.391 . S
C1150 H1140 0.950 . S
C1150 C1151 1.386 . S
C1150 C1152 1.391 . S
C1151 C1150 1.386 . S
C1151 C1155 1.393 . S
C1152 H1141 0.950 . S
C1152 C1150 1.391 . S
C1152 C1153 1.400 . S
C1153 C1147 1.491 . S
C1153 C1152 1.400 . S
C1153 C1154 1.398 . S
C1154 H1142 0.950 . S
C1154 C1153 1.398 . S
C1154 C1155 1.391 . S
C1155 H1143 0.950 . S
C1155 C1151 1.393 . S
C1155 C1154 1.391 . S
H1156 C1164 0.950 . S
H1157 C1169 0.950 . S
H1158 C1166 0.950 . S
H1159 C1168 0.950 . S
H1160 C1170 0.950 . S
H1161 C1172 0.950 . S
H1162 C1174 0.950 . S
H1163 C1175 0.950 . S
C1164 H1156 0.950 . S
C1164 C1165 1.386 . S
C1164 C1166 1.391 . S
C1165 C1164 1.386 . S
C1165 C1169 1.393 . S
C1166 H1158 0.950 . S
C1166 C1164 1.391 . S
C1166 C1167 1.400 . S
C1167 C1166 1.400 . S
C1167 C1168 1.398 . S
C1167 C1173 1.491 . S
C1168 H1159 0.950 . S
C1168 C1167 1.398 . S
C1168 C1169 1.391 . S
C1169 H1157 0.950 . S
C1169 C1165 1.393 . S
C1169 C1168 1.391 . S
C1170 H1160 0.950 . S
C1170 C1171 1.386 . S
C1170 C1172 1.391 . S
C1171 C1170 1.386 . S
C1171 C1175 1.393 . S
C1172 H1161 0.950 . S
C1172 C1170 1.391 . S
C1172 C1173 1.400 . S
C1173 C1167 1.491 . S
C1173 C1172 1.400 . S
C1173 C1174 1.398 . S
C1174 H1162 0.950 . S
C1174 C1173 1.398 . S
C1174 C1175 1.391 . S
C1175 H1163 0.950 . S
C1175 C1171 1.393 . S
C1175 C1174 1.391 . S
H1176 C1184 0.950 . S
H1177 C1189 0.950 . S
H1178 C1186 0.950 . S
H1179 C1188 0.950 . S
H1180 C1190 0.950 . S
H1181 C1192 0.950 . S
H1182 C1194 0.950 . S
H1183 C1195 0.950 . S
C1184 H1176 0.950 . S
C1184 C1185 1.386 . S
C1184 C1186 1.391 . S
C1185 C1184 1.386 . S
C1185 C1189 1.393 . S
C1186 H1178 0.950 . S
C1186 C1184 1.391 . S
C1186 C1187 1.400 . S
C1187 C1186 1.400 . S
C1187 C1188 1.398 . S
C1187 C1193 1.491 . S
C1188 H1179 0.950 . S
C1188 C1187 1.398 . S
C1188 C1189 1.391 . S
C1189 H1177 0.950 . S
C1189 C1185 1.393 . S
C1189 C1188 1.391 . S
C1190 H1180 0.950 . S
C1190 C1191 1.386 . S
C1190 C1192 1.391 . S
C1191 C1190 1.386 . S
C1191 C1195 1.393 . S
C1192 H1181 0.950 . S
C1192 C1190 1.391 . S
C1192 C1193 1.400 . S
C1193 C1187 1.491 . S
C1193 C1192 1.400 . S
C1193 C1194 1.398 . S
C1194 H1182 0.950 . S
C1194 C1193 1.398 . S
C1194 C1195 1.391 . S
C1195 H1183 0.950 . S
C1195 C1191 1.393 . S
C1195 C1194 1.391 . S
H1196 C1204 0.950 . S
H1197 C1209 0.950 . S
H1198 C1206 0.950 . S
H1199 C1208 0.950 . S
H1200 C1210 0.950 . S
H1201 C1212 0.950 . S
H1202 C1214 0.950 . S
H1203 C1215 0.950 . S
C1204 H1196 0.950 . S
C1204 C1205 1.386 . S
C1204 C1206 1.391 . S
C1205 C1204 1.386 . S
C1205 C1209 1.393 . S
C1206 H1198 0.950 . S
C1206 C1204 1.391 . S
C1206 C1207 1.400 . S
C1207 C1206 1.400 . S
C1207 C1208 1.398 . S
C1207 C1213 1.491 . S
C1208 H1199 0.950 . S
C1208 C1207 1.398 . S
C1208 C1209 1.391 . S
C1209 H1197 0.950 . S
C1209 C1205 1.393 . S
C1209 C1208 1.391 . S
C1210 H1200 0.950 . S
C1210 C1211 1.386 . S
C1210 C1212 1.391 . S
C1211 C1210 1.386 . S
C1211 C1215 1.393 . S
C1212 H1201 0.950 . S
C1212 C1210 1.391 . S
C1212 C1213 1.400 . S
C1213 C1207 1.491 . S
C1213 C1212 1.400 . S
C1213 C1214 1.398 . S
C1214 H1202 0.950 . S
C1214 C1213 1.398 . S
C1214 C1215 1.391 . S
C1215 H1203 0.950 . S
C1215 C1211 1.393 . S
C1215 C1214 1.391 . S
H1216 C1224 0.950 . S
H1217 C1229 0.950 . S
H1218 C1226 0.950 . S
H1219 C1228 0.950 . S
H1220 C1230 0.950 . S
H1221 C1232 0.950 . S
H1222 C1234 0.950 . S
H1223 C1235 0.950 . S
C1224 H1216 0.950 . S
C1224 C1225 1.386 . S
C1224 C1226 1.391 . S
C1225 C1224 1.386 . S
C1225 C1229 1.393 . S
C1226 H1218 0.950 . S
C1226 C1224 1.391 . S
C1226 C1227 1.400 . S
C1227 C1226 1.400 . S
C1227 C1228 1.398 . S
C1227 C1233 1.491 . S
C1228 H1219 0.950 . S
C1228 C1227 1.398 . S
C1228 C1229 1.391 . S
C1229 H1217 0.950 . S
C1229 C1225 1.393 . S
C1229 C1228 1.391 . S
C1230 H1220 0.950 . S
C1230 C1231 1.386 . S
C1230 C1232 1.391 . S
C1231 C1230 1.386 . S
C1231 C1235 1.393 . S
C1232 H1221 0.950 . S
C1232 C1230 1.391 . S
C1232 C1233 1.400 . S
C1233 C1227 1.491 . S
C1233 C1232 1.400 . S
C1233 C1234 1.398 . S
C1234 H1222 0.950 . S
C1234 C1233 1.398 . S
C1234 C1235 1.391 . S
C1235 H1223 0.950 . S
C1235 C1231 1.393 . S
C1235 C1234 1.391 . S
H1236 C1244 0.950 . S
H1237 C1249 0.950 . S
H1238 C1246 0.950 . S
H1239 C1248 0.950 . S
H1240 C1250 0.950 . S
H1241 C1252 0.950 . S
H1242 C1254 0.950 . S
H1243 C1255 0.950 . S
C1244 H1236 0.950 . S
C1244 C1245 1.386 . S
C1244 C1246 1.391 . S
C1245 C1244 1.386 . S
C1245 C1249 1.393 . S
C1246 H1238 0.950 . S
C1246 C1244 1.391 . S
C1246 C1247 1.400 . S
C1247 C1246 1.400 . S
C1247 C1248 1.398 . S
C1247 C1253 1.491 . S
C1248 H1239 0.950 . S
C1248 C1247 1.398 . S
C1248 C1249 1.391 . S
C1249 H1237 0.950 . S
C1249 C1245 1.393 . S
C1249 C1248 1.391 . S
C1250 H1240 0.950 . S
C1250 C1251 1.386 . S
C1250 C1252 1.391 . S
C1251 C1250 1.386 . S
C1251 C1255 1.393 . S
C1252 H1241 0.950 . S
C1252 C1250 1.391 . S
C1252 C1253 1.400 . S
C1253 C1247 1.491 . S
C1253 C1252 1.400 . S
C1253 C1254 1.398 . S
C1254 H1242 0.950 . S
C1254 C1253 1.398 . S
C1254 C1255 1.391 . S
C1255 H1243 0.950 . S
C1255 C1251 1.393 . S
C1255 C1254 1.391 . S
H1256 C1264 0.950 . S
H1257 C1269 0.950 . S
H1258 C1266 0.950 . S
H1259 C1268 0.950 . S
H1260 C1270 0.950 . S
H1261 C1272 0.950 . S
H1262 C1274 0.950 . S
H1263 C1275 0.950 . S
C1264 H1256 0.950 . S
C1264 C1265 1.386 . S
C1264 C1266 1.391 . S
C1265 C1264 1.386 . S
C1265 C1269 1.393 . S
C1266 H1258 0.950 . S
C1266 C1264 1.391 . S
C1266 C1267 1.400 . S
C1267 C1266 1.400 . S
C1267 C1268 1.398 . S
C1267 C1273 1.491 . S
C1268 H1259 0.950 . S
C1268 C1267 1.398 . S
C1268 C1269 1.391 . S
C1269 H1257 0.950 . S
C1269 C1265 1.393 . S
C1269 C1268 1.391 . S
C1270 H1260 0.950 . S
C1270 C1271 1.386 . S
C1270 C1272 1.391 . S
C1271 C1270 1.386 . S
C1271 C1275 1.393 . S
C1272 H1261 0.950 . S
C1272 C1270 1.391 . S
C1272 C1273 1.400 . S
C1273 C1267 1.491 . S
C1273 C1272 1.400 . S
C1273 C1274 1.398 . S
C1274 H1262 0.950 . S
C1274 C1273 1.398 . S
C1274 C1275 1.391 . S
C1275 H1263 0.950 . S
C1275 C1271 1.393 . S
C1275 C1274 1.391 . S
H1276 C1284 0.950 . S
H1277 C1289 0.950 . S
H1278 C1286 0.950 . S
H1279 C1288 0.950 . S
H1280 C1290 0.950 . S
H1281 C1292 0.950 . S
H1282 C1294 0.950 . S
H1283 C1295 0.950 . S
C1284 H1276 0.950 . S
C1284 C1285 1.386 . S
C1284 C1286 1.391 . S
C1285 C1284 1.386 . S
C1285 C1289 1.393 . S
C1286 H1278 0.950 . S
C1286 C1284 1.391 . S
C1286 C1287 1.400 . S
C1287 C1286 1.400 . S
C1287 C1288 1.398 . S
C1287 C1293 1.491 . S
C1288 H1279 0.950 . S
C1288 C1287 1.398 . S
C1288 C1289 1.391 . S
C1289 H1277 0.950 . S
C1289 C1285 1.393 . S
C1289 C1288 1.391 . S
C1290 H1280 0.950 . S
C1290 C1291 1.386 . S
C1290 C1292 1.391 . S
C1291 C1290 1.386 . S
C1291 C1295 1.393 . S
C1292 H1281 0.950 . S
C1292 C1290 1.391 . S
C1292 C1293 1.400 . S
C1293 C1287 1.491 . S
C1293 C1292 1.400 . S
C1293 C1294 1.398 . S
C1294 H1282 0.950 . S
C1294 C1293 1.398 . S
C1294 C1295 1.391 . S
C1295 H1283 0.950 . S
C1295 C1291 1.393 . S
C1295 C1294 1.391 . S
H1296 C1304 0.950 . S
H1297 C1309 0.950 . S
H1298 C1306 0.950 . S
H1299 C1308 0.950 . S
H1300 C1310 0.950 . S
H1301 C1312 0.950 . S
H1302 C1314 0.950 . S
H1303 C1315 0.950 . S
C1304 H1296 0.950 . S
C1304 C1305 1.386 . S
C1304 C1306 1.391 . S
C1305 C1304 1.386 . S
C1305 C1309 1.393 . S
C1306 H1298 0.950 . S
C1306 C1304 1.391 . S
C1306 C1307 1.400 . S
C1307 C1306 1.400 . S
C1307 C1308 1.398 . S
C1307 C1313 1.491 . S
C1308 H1299 0.950 . S
C1308 C1307 1.398 . S
C1308 C1309 1.391 . S
C1309 H1297 0.950 . S
C1309 C1305 1.393 . S
C1309 C1308 1.391 . S
C1310 H1300 0.950 . S
C1310 C1311 1.386 . S
C1310 C1312 1.391 . S
C1311 C1310 1.386 . S
C1311 C1315 1.393 . S
C1312 H1301 0.950 . S
C1312 C1310 1.391 . S
C1312 C1313 1.400 . S
C1313 C1307 1.491 . S
C1313 C1312 1.400 . S
C1313 C1314 1.398 . S
C1314 H1302 0.950 . S
C1314 C1313 1.398 . S
C1314 C1315 1.391 . S
C1315 H1303 0.950 . S
C1315 C1311 1.393 . S
C1315 C1314 1.391 . S
H1316 C1324 0.950 . S
H1317 C1329 0.950 . S
H1318 C1326 0.950 . S
H1319 C1328 0.950 . S
H1320 C1330 0.950 . S
H1321 C1332 0.950 . S
H1322 C1334 0.950 . S
H1323 C1335 0.950 . S
C1324 H1316 0.950 . S
C1324 C1325 1.386 . S
C1324 C1326 1.391 . S
C1325 C1324 1.386 . S
C1325 C1329 1.393 . S
C1326 H1318 0.950 . S
C1326 C1324 1.391 . S
C1326 C1327 1.400 . S
C1327 C1326 1.400 . S
C1327 C1328 1.398 . S
C1327 C1333 1.491 . S
C1328 H1319 0.950 . S
C1328 C1327 1.398 . S
C1328 C1329 1.391 . S
C1329 H1317 0.950 . S
C1329 C1325 1.393 . S
C1329 C1328 1.391 . S
C1330 H1320 0.950 . S
C1330 C1331 1.386 . S
C1330 C1332 1.391 . S
C1331 C1330 1.386 . S
C1331 C1335 1.393 . S
C1332 H1321 0.950 . S
C1332 C1330 1.391 . S
C1332 C1333 1.400 . S
C1333 C1327 1.491 . S
C1333 C1332 1.400 . S
C1333 C1334 1.398 . S
C1334 H1322 0.950 . S
C1334 C1333 1.398 . S
C1334 C1335 1.391 . S
C1335 H1323 0.950 . S
C1335 C1331 1.393 . S
C1335 C1334 1.391 . S
H1336 C1344 0.950 . S
H1337 C1349 0.950 . S
H1338 C1346 0.950 . S
H1339 C1348 0.950 . S
H1340 C1350 0.950 . S
H1341 C1352 0.950 . S
H1342 C1354 0.950 . S
H1343 C1355 0.950 . S
C1344 H1336 0.950 . S
C1344 C1345 1.386 . S
C1344 C1346 1.391 . S
C1345 C1344 1.386 . S
C1345 C1349 1.393 . S
C1346 H1338 0.950 . S
C1346 C1344 1.391 . S
C1346 C1347 1.400 . S
C1347 C1346 1.400 . S
C1347 C1348 1.398 . S
C1347 C1353 1.491 . S
C1348 H1339 0.950 . S
C1348 C1347 1.398 . S
C1348 C1349 1.391 . S
C1349 H1337 0.950 . S
C1349 C1345 1.393 . S
C1349 C1348 1.391 . S
C1350 H1340 0.950 . S
C1350 C1351 1.386 . S
C1350 C1352 1.391 . S
C1351 C1350 1.386 . S
C1351 C1355 1.393 . S
C1352 H1341 0.950 . S
C1352 C1350 1.391 . S
C1352 C1353 1.400 . S
C1353 C1347 1.491 . S
C1353 C1352 1.400 . S
C1353 C1354 1.398 . S
C1354 H1342 0.950 . S
C1354 C1353 1.398 . S
C1354 C1355 1.391 . S
C1355 H1343 0.950 . S
C1355 C1351 1.393 . S
C1355 C1354 1.391 . S
H1356 C1364 0.950 . S
H1357 C1369 0.950 . S
H1358 C1366 0.950 . S
H1359 C1368 0.950 . S
H1360 C1370 0.950 . S
H1361 C1372 0.950 . S
H1362 C1374 0.950 . S
H1363 C1375 0.950 . S
C1364 H1356 0.950 . S
C1364 C1365 1.386 . S
C1364 C1366 1.391 . S
C1365 C1364 1.386 . S
C1365 C1369 1.393 . S
C1366 H1358 0.950 . S
C1366 C1364 1.391 . S
C1366 C1367 1.400 . S
C1367 C1366 1.400 . S
C1367 C1368 1.398 . S
C1367 C1373 1.491 . S
C1368 H1359 0.950 . S
C1368 C1367 1.398 . S
C1368 C1369 1.391 . S
C1369 H1357 0.950 . S
C1369 C1365 1.393 . S
C1369 C1368 1.391 . S
C1370 H1360 0.950 . S
C1370 C1371 1.386 . S
C1370 C1372 1.391 . S
C1371 C1370 1.386 . S
C1371 C1375 1.393 . S
C1372 H1361 0.950 . S
C1372 C1370 1.391 . S
C1372 C1373 1.400 . S
C1373 C1367 1.491 . S
C1373 C1372 1.400 . S
C1373 C1374 1.398 . S
C1374 H1362 0.950 . S
C1374 C1373 1.398 . S
C1374 C1375 1.391 . S
C1375 H1363 0.950 . S
C1375 C1371 1.393 . S
C1375 C1374 1.391 . S
H1376 C1384 0.950 . S
H1377 C1389 0.950 . S
H1378 C1386 0.950 . S
H1379 C1388 0.950 . S
H1380 C1390 0.950 . S
H1381 C1392 0.950 . S
H1382 C1394 0.950 . S
H1383 C1395 0.950 . S
C1384 H1376 0.950 . S
C1384 C1385 1.386 . S
C1384 C1386 1.391 . S
C1385 C1384 1.386 . S
C1385 C1389 1.393 . S
C1386 H1378 0.950 . S
C1386 C1384 1.391 . S
C1386 C1387 1.400 . S
C1387 C1386 1.400 . S
C1387 C1388 1.398 . S
C1387 C1393 1.491 . S
C1388 H1379 0.950 . S
C1388 C1387 1.398 . S
C1388 C1389 1.391 . S
C1389 H1377 0.950 . S
C1389 C1385 1.393 . S
C1389 C1388 1.391 . S
C1390 H1380 0.950 . S
C1390 C1391 1.386 . S
C1390 C1392 1.391 . S
C1391 C1390 1.386 . S
C1391 C1395 1.393 . S
C1392 H1381 0.950 . S
C1392 C1390 1.391 . S
C1392 C1393 1.400 . S
C1393 C1387 1.491 . S
C1393 C1392 1.400 . S
C1393 C1394 1.398 . S
C1394 H1382 0.950 . S
C1394 C1393 1.398 . S
C1394 C1395 1.391 . S
C1395 H1383 0.950 . S
C1395 C1391 1.393 . S
C1395 C1394 1.391 . S
H1396 C1404 0.950 . S
H1397 C1409 0.950 . S
H1398 C1406 0.950 . S
H1399 C1408 0.950 . S
H1400 C1410 0.950 . S
H1401 C1412 0.950 . S
H1402 C1414 0.950 . S
H1403 C1415 0.950 . S
C1404 H1396 0.950 . S
C1404 C1405 1.386 . S
C1404 C1406 1.391 . S
C1405 C1404 1.386 . S
C1405 C1409 1.393 . S
C1406 H1398 0.950 . S
C1406 C1404 1.391 . S
C1406 C1407 1.400 . S
C1407 C1406 1.400 . S
C1407 C1408 1.398 . S
C1407 C1413 1.491 . S
C1408 H1399 0.950 . S
C1408 C1407 1.398 . S
C1408 C1409 1.391 . S
C1409 H1397 0.950 . S
C1409 C1405 1.393 . S
C1409 C1408 1.391 . S
C1410 H1400 0.950 . S
C1410 C1411 1.386 . S
C1410 C1412 1.391 . S
C1411 C1410 1.386 . S
C1411 C1415 1.393 . S
C1412 H1401 0.950 . S
C1412 C1410 1.391 . S
C1412 C1413 1.400 . S
C1413 C1407 1.491 . S
C1413 C1412 1.400 . S
C1413 C1414 1.398 . S
C1414 H1402 0.950 . S
C1414 C1413 1.398 . S
C1414 C1415 1.391 . S
C1415 H1403 0.950 . S
C1415 C1411 1.393 . S
C1415 C1414 1.391 . S
H1416 C1424 0.950 . S
H1417 C1429 0.950 . S
H1418 C1426 0.950 . S
H1419 C1428 0.950 . S
H1420 C1430 0.950 . S
H1421 C1432 0.950 . S
H1422 C1434 0.950 . S
H1423 C1435 0.950 . S
C1424 H1416 0.950 . S
C1424 C1425 1.386 . S
C1424 C1426 1.391 . S
C1425 C1424 1.386 . S
C1425 C1429 1.393 . S
C1426 H1418 0.950 . S
C1426 C1424 1.391 . S
C1426 C1427 1.400 . S
C1427 C1426 1.400 . S
C1427 C1428 1.398 . S
C1427 C1433 1.491 . S
C1428 H1419 0.950 . S
C1428 C1427 1.398 . S
C1428 C1429 1.391 . S
C1429 H1417 0.950 . S
C1429 C1425 1.393 . S
C1429 C1428 1.391 . S
C1430 H1420 0.950 . S
C1430 C1431 1.386 . S
C1430 C1432 1.391 . S
C1431 C1430 1.386 . S
C1431 C1435 1.393 . S
C1432 H1421 0.950 . S
C1432 C1430 1.391 . S
C1432 C1433 1.400 . S
C1433 C1427 1.491 . S
C1433 C1432 1.400 . S
C1433 C1434 1.398 . S
C1434 H1422 0.950 . S
C1434 C1433 1.398 . S
C1434 C1435 1.391 . S
C1435 H1423 0.950 . S
C1435 C1431 1.393 . S
C1435 C1434 1.391 . S
H1436 C1444 0.950 . S
H1437 C1449 0.950 . S
H1438 C1446 0.950 . S
H1439 C1448 0.950 . S
H1440 C1450 0.950 . S
H1441 C1452 0.950 . S
H1442 C1454 0.950 . S
H1443 C1455 0.950 . S
C1444 H1436 0.950 . S
C1444 C1445 1.386 . S
C1444 C1446 1.391 . S
C1445 C1444 1.386 . S
C1445 C1449 1.393 . S
C1446 H1438 0.950 . S
C1446 C1444 1.391 . S
C1446 C1447 1.400 . S
C1447 C1446 1.400 . S
C1447 C1448 1.398 . S
C1447 C1453 1.491 . S
C1448 H1439 0.950 . S
C1448 C1447 1.398 . S
C1448 C1449 1.391 . S
C1449 H1437 0.950 . S
C1449 C1445 1.393 . S
C1449 C1448 1.391 . S
C1450 H1440 0.950 . S
C1450 C1451 1.386 . S
C1450 C1452 1.391 . S
C1451 C1450 1.386 . S
C1451 C1455 1.393 . S
C1452 H1441 0.950 . S
C1452 C1450 1.391 . S
C1452 C1453 1.400 . S
C1453 C1447 1.491 . S
C1453 C1452 1.400 . S
C1453 C1454 1.398 . S
C1454 H1442 0.950 . S
C1454 C1453 1.398 . S
C1454 C1455 1.391 . S
C1455 H1443 0.950 . S
C1455 C1451 1.393 . S
C1455 C1454 1.391 . S
H1456 C1464 0.950 . S
H1457 C1469 0.950 . S
H1458 C1466 0.950 . S
H1459 C1468 0.950 . S
H1460 C1470 0.950 . S
H1461 C1472 0.950 . S
H1462 C1474 0.950 . S
H1463 C1475 0.950 . S
C1464 H1456 0.950 . S
C1464 C1465 1.386 . S
C1464 C1466 1.391 . S
C1465 C1464 1.386 . S
C1465 C1469 1.393 . S
C1466 H1458 0.950 . S
C1466 C1464 1.391 . S
C1466 C1467 1.400 . S
C1467 C1466 1.400 . S
C1467 C1468 1.398 . S
C1467 C1473 1.491 . S
C1468 H1459 0.950 . S
C1468 C1467 1.398 . S
C1468 C1469 1.391 . S
C1469 H1457 0.950 . S
C1469 C1465 1.393 . S
C1469 C1468 1.391 . S
C1470 H1460 0.950 . S
C1470 C1471 1.386 . S
C1470 C1472 1.391 . S
C1471 C1470 1.386 . S
C1471 C1475 1.393 . S
C1472 H1461 0.950 . S
C1472 C1470 1.391 . S
C1472 C1473 1.400 . S
C1473 C1467 1.491 . S
C1473 C1472 1.400 . S
C1473 C1474 1.398 . S
C1474 H1462 0.950 . S
C1474 C1473 1.398 . S
C1474 C1475 1.391 . S
C1475 H1463 0.950 . S
C1475 C1471 1.393 . S
C1475 C1474 1.391 . S
H1476 C1484 0.950 . S
H1477 C1489 0.950 . S
H1478 C1486 0.950 . S
H1479 C1488 0.950 . S
H1480 C1490 0.950 . S
H1481 C1492 0.950 . S
H1482 C1494 0.950 . S
H1483 C1495 0.950 . S
C1484 H1476 0.950 . S
C1484 C1485 1.386 . S
C1484 C1486 1.391 . S
C1485 C1484 1.386 . S
C1485 C1489 1.393 . S
C1486 H1478 0.950 . S
C1486 C1484 1.391 . S
C1486 C1487 1.400 . S
C1487 C1486 1.400 . S
C1487 C1488 1.398 . S
C1487 C1493 1.491 . S
C1488 H1479 0.950 . S
C1488 C1487 1.398 . S
C1488 C1489 1.391 . S
C1489 H1477 0.950 . S
C1489 C1485 1.393 . S
C1489 C1488 1.391 . S
C1490 H1480 0.950 . S
C1490 C1491 1.386 . S
C1490 C1492 1.391 . S
C1491 C1490 1.386 . S
C1491 C1495 1.393 . S
C1492 H1481 0.950 . S
C1492 C1490 1.391 . S
C1492 C1493 1.400 . S
C1493 C1487 1.491 . S
C1493 C1492 1.400 . S
C1493 C1494 1.398 . S
C1494 H1482 0.950 . S
C1494 C1493 1.398 . S
C1494 C1495 1.391 . S
C1495 H1483 0.950 . S
C1495 C1491 1.393 . S
C1495 C1494 1.391 . S
H1496 C1504 0.950 . S
H1497 C1509 0.950 . S
H1498 C1506 0.950 . S
H1499 C1508 0.950 . S
H1500 C1510 0.950 . S
H1501 C1512 0.950 . S
H1502 C1514 0.950 . S
H1503 C1515 0.950 . S
C1504 H1496 0.950 . S
C1504 C1505 1.386 . S
C1504 C1506 1.391 . S
C1505 C1504 1.386 . S
C1505 C1509 1.393 . S
C1506 H1498 0.950 . S
C1506 C1504 1.391 . S
C1506 C1507 1.400 . S
C1507 C1506 1.400 . S
C1507 C1508 1.398 . S
C1507 C1513 1.491 . S
C1508 H1499 0.950 . S
C1508 C1507 1.398 . S
C1508 C1509 1.391 . S
C1509 H1497 0.950 . S
C1509 C1505 1.393 . S
C1509 C1508 1.391 . S
C1510 H1500 0.950 . S
C1510 C1511 1.386 . S
C1510 C1512 1.391 . S
C1511 C1510 1.386 . S
C1511 C1515 1.393 . S
C1512 H1501 0.950 . S
C1512 C1510 1.391 . S
C1512 C1513 1.400 . S
C1513 C1507 1.491 . S
C1513 C1512 1.400 . S
C1513 C1514 1.398 . S
C1514 H1502 0.950 . S
C1514 C1513 1.398 . S
C1514 C1515 1.391 . S
C1515 H1503 0.950 . S
C1515 C1511 1.393 . S
C1515 C1514 1.391 . S
H1516 C1524 0.950 . S
H1517 C1529 0.950 . S
H1518 C1526 0.950 . S
H1519 C1528 0.950 . S
H1520 C1530 0.950 . S
H1521 C1532 0.950 . S
H1522 C1534 0.950 . S
H1523 C1535 0.950 . S
C1524 H1516 0.950 . S
C1524 C1525 1.386 . S
C1524 C1526 1.391 . S
C1525 C1524 1.386 . S
C1525 C1529 1.393 . S
C1526 H1518 0.950 . S
C1526 C1524 1.391 . S
C1526 C1527 1.400 . S
C1527 C1526 1.400 . S
C1527 C1528 1.398 . S
C1527 C1533 1.491 . S
C1528 H1519 0.950 . S
C1528 C1527 1.398 . S
C1528 C1529 1.391 . S
C1529 H1517 0.950 . S
C1529 C1525 1.393 . S
C1529 C1528 1.391 . S
C1530 H1520 0.950 . S
C1530 C1531 1.386 . S
C1530 C1532 1.391 . S
C1531 C1530 1.386 . S
C1531 C1535 1.393 . S
C1532 H1521 0.950 . S
C1532 C1530 1.391 . S
C1532 C1533 1.400 . S
C1533 C1527 1.491 . S
C1533 C1532 1.400 . S
C1533 C1534 1.398 . S
C1534 H1522 0.950 . S
C1534 C1533 1.398 . S
C1534 C1535 1.391 . S
C1535 H1523 0.950 . S
C1535 C1531 1.393 . S
C1535 C1534 1.391 . S
H1536 C1544 0.950 . S
H1537 C1549 0.950 . S
H1538 C1546 0.950 . S
H1539 C1548 0.950 . S
H1540 C1550 0.950 . S
H1541 C1552 0.950 . S
H1542 C1554 0.950 . S
H1543 C1555 0.950 . S
C1544 H1536 0.950 . S
C1544 C1545 1.386 . S
C1544 C1546 1.391 . S
C1545 C1544 1.386 . S
C1545 C1549 1.393 . S
C1546 H1538 0.950 . S
C1546 C1544 1.391 . S
C1546 C1547 1.400 . S
C1547 C1546 1.400 . S
C1547 C1548 1.398 . S
C1547 C1553 1.491 1_565 S
C1548 H1539 0.950 . S
C1548 C1547 1.398 . S
C1548 C1549 1.391 . S
C1549 H1537 0.950 . S
C1549 C1545 1.393 . S
C1549 C1548 1.391 . S
C1550 H1540 0.950 . S
C1550 C1551 1.386 . S
C1550 C1552 1.391 . S
C1551 C1550 1.386 . S
C1551 C1555 1.393 . S
C1552 H1541 0.950 . S
C1552 C1550 1.391 . S
C1552 C1553 1.400 . S
C1553 C1547 1.491 1_545 S
C1553 C1552 1.400 . S
C1553 C1554 1.398 . S
C1554 H1542 0.950 . S
C1554 C1553 1.398 . S
C1554 C1555 1.391 . S
C1555 H1543 0.950 . S
C1555 C1551 1.393 . S
C1555 C1554 1.391 . S
H1556 C1564 0.950 . S
H1557 C1569 0.950 . S
H1558 C1566 0.950 . S
H1559 C1568 0.950 . S
H1560 C1570 0.950 . S
H1561 C1572 0.950 . S
H1562 C1574 0.950 . S
H1563 C1575 0.950 . S
C1564 H1556 0.950 . S
C1564 C1565 1.386 . S
C1564 C1566 1.391 . S
C1565 C1564 1.386 . S
C1565 C1569 1.393 . S
C1566 H1558 0.950 . S
C1566 C1564 1.391 . S
C1566 C1567 1.400 . S
C1567 C1566 1.400 . S
C1567 C1568 1.398 . S
C1567 C1573 1.491 1_455 S
C1568 H1559 0.950 . S
C1568 C1567 1.398 . S
C1568 C1569 1.391 . S
C1569 H1557 0.950 . S
C1569 C1565 1.393 . S
C1569 C1568 1.391 . S
C1570 H1560 0.950 . S
C1570 C1571 1.386 . S
C1570 C1572 1.391 . S
C1571 C1570 1.386 . S
C1571 C1575 1.393 . S
C1572 H1561 0.950 . S
C1572 C1570 1.391 . S
C1572 C1573 1.400 . S
C1573 C1567 1.491 1_655 S
C1573 C1572 1.400 . S
C1573 C1574 1.398 . S
C1574 H1562 0.950 . S
C1574 C1573 1.398 . S
C1574 C1575 1.391 . S
C1575 H1563 0.950 . S
C1575 C1571 1.393 . S
C1575 C1574 1.391 . S
H1576 C1584 0.950 . S
H1577 C1589 0.950 . S
H1578 C1586 0.950 . S
H1579 C1588 0.950 . S
H1580 C1590 0.950 . S
H1581 C1592 0.950 . S
H1582 C1594 0.950 . S
H1583 C1595 0.950 . S
C1584 H1576 0.950 . S
C1584 C1585 1.386 . S
C1584 C1586 1.391 . S
C1585 C1584 1.386 . S
C1585 C1589 1.393 . S
C1586 H1578 0.950 . S
C1586 C1584 1.391 . S
C1586 C1587 1.400 . S
C1587 C1586 1.400 . S
C1587 C1588 1.398 . S
C1587 C1593 1.491 . S
C1588 H1579 0.950 . S
C1588 C1587 1.398 . S
C1588 C1589 1.391 . S
C1589 H1577 0.950 . S
C1589 C1585 1.393 . S
C1589 C1588 1.391 . S
C1590 H1580 0.950 . S
C1590 C1591 1.386 . S
C1590 C1592 1.391 . S
C1591 C1590 1.386 . S
C1591 C1595 1.393 . S
C1592 H1581 0.950 . S
C1592 C1590 1.391 . S
C1592 C1593 1.400 . S
C1593 C1587 1.491 . S
C1593 C1592 1.400 . S
C1593 C1594 1.398 . S
C1594 H1582 0.950 . S
C1594 C1593 1.398 . S
C1594 C1595 1.391 . S
C1595 H1583 0.950 . S
C1595 C1591 1.393 . S
C1595 C1594 1.391 . S
H1596 C1604 0.950 . S
H1597 C1609 0.950 . S
H1598 C1606 0.950 . S
H1599 C1608 0.950 . S
H1600 C1610 0.950 . S
H1601 C1612 0.950 . S
H1602 C1614 0.950 . S
H1603 C1615 0.950 . S
C1604 H1596 0.950 . S
C1604 C1605 1.386 . S
C1604 C1606 1.391 . S
C1605 C1604 1.386 . S
C1605 C1609 1.393 . S
C1606 H1598 0.950 . S
C1606 C1604 1.391 . S
C1606 C1607 1.400 . S
C1607 C1606 1.400 . S
C1607 C1608 1.398 . S
C1607 C1613 1.491 . S
C1608 H1599 0.950 . S
C1608 C1607 1.398 . S
C1608 C1609 1.391 . S
C1609 H1597 0.950 . S
C1609 C1605 1.393 . S
C1609 C1608 1.391 . S
C1610 H1600 0.950 . S
C1610 C1611 1.386 . S
C1610 C1612 1.391 . S
C1611 C1610 1.386 . S
C1611 C1615 1.393 . S
C1612 H1601 0.950 . S
C1612 C1610 1.391 . S
C1612 C1613 1.400 . S
C1613 C1607 1.491 . S
C1613 C1612 1.400 . S
C1613 C1614 1.398 . S
C1614 H1602 0.950 . S
C1614 C1613 1.398 . S
C1614 C1615 1.391 . S
C1615 H1603 0.950 . S
C1615 C1611 1.393 . S
C1615 C1614 1.391 . S
H1616 C1624 0.950 . S
H1617 C1629 0.950 . S
H1618 C1626 0.950 . S
H1619 C1628 0.950 . S
H1620 C1630 0.950 . S
H1621 C1632 0.950 . S
H1622 C1634 0.950 . S
H1623 C1635 0.950 . S
C1624 H1616 0.950 . S
C1624 C1625 1.386 . S
C1624 C1626 1.391 . S
C1625 C1624 1.386 . S
C1625 C1629 1.393 . S
C1626 H1618 0.950 . S
C1626 C1624 1.391 . S
C1626 C1627 1.400 . S
C1627 C1626 1.400 . S
C1627 C1628 1.398 . S
C1627 C1633 1.491 . S
C1628 H1619 0.950 . S
C1628 C1627 1.398 . S
C1628 C1629 1.391 . S
C1629 H1617 0.950 . S
C1629 C1625 1.393 . S
C1629 C1628 1.391 . S
C1630 H1620 0.950 . S
C1630 C1631 1.386 . S
C1630 C1632 1.391 . S
C1631 C1630 1.386 . S
C1631 C1635 1.393 . S
C1632 H1621 0.950 . S
C1632 C1630 1.391 . S
C1632 C1633 1.400 . S
C1633 C1627 1.491 . S
C1633 C1632 1.400 . S
C1633 C1634 1.398 . S
C1634 H1622 0.950 . S
C1634 C1633 1.398 . S
C1634 C1635 1.391 . S
C1635 H1623 0.950 . S
C1635 C1631 1.393 . S
C1635 C1634 1.391 . S
H1636 C1644 0.950 . S
H1637 C1649 0.950 . S
H1638 C1646 0.950 . S
H1639 C1648 0.950 . S
H1640 C1650 0.950 . S
H1641 C1652 0.950 . S
H1642 C1654 0.950 . S
H1643 C1655 0.950 . S
C1644 H1636 0.950 . S
C1644 C1645 1.386 . S
C1644 C1646 1.391 . S
C1645 C1644 1.386 . S
C1645 C1649 1.393 . S
C1646 H1638 0.950 . S
C1646 C1644 1.391 . S
C1646 C1647 1.400 . S
C1647 C1646 1.400 . S
C1647 C1648 1.398 . S
C1647 C1653 1.491 . S
C1648 H1639 0.950 . S
C1648 C1647 1.398 . S
C1648 C1649 1.391 . S
C1649 H1637 0.950 . S
C1649 C1645 1.393 . S
C1649 C1648 1.391 . S
C1650 H1640 0.950 . S
C1650 C1651 1.386 . S
C1650 C1652 1.391 . S
C1651 C1650 1.386 . S
C1651 C1655 1.393 . S
C1652 H1641 0.950 . S
C1652 C1650 1.391 . S
C1652 C1653 1.400 . S
C1653 C1647 1.491 . S
C1653 C1652 1.400 . S
C1653 C1654 1.398 . S
C1654 H1642 0.950 . S
C1654 C1653 1.398 . S
C1654 C1655 1.391 . S
C1655 H1643 0.950 . S
C1655 C1651 1.393 . S
C1655 C1654 1.391 . S
H1656 C1664 0.950 . S
H1657 C1669 0.950 . S
H1658 C1666 0.950 . S
H1659 C1668 0.950 . S
H1660 C1670 0.950 . S
H1661 C1672 0.950 . S
H1662 C1674 0.950 . S
H1663 C1675 0.950 . S
C1664 H1656 0.950 . S
C1664 C1665 1.386 . S
C1664 C1666 1.391 . S
C1665 C1664 1.386 . S
C1665 C1669 1.393 . S
C1666 H1658 0.950 . S
C1666 C1664 1.391 . S
C1666 C1667 1.400 . S
C1667 C1666 1.400 . S
C1667 C1668 1.398 . S
C1667 C1673 1.491 1_545 S
C1668 H1659 0.950 . S
C1668 C1667 1.398 . S
C1668 C1669 1.391 . S
C1669 H1657 0.950 . S
C1669 C1665 1.393 . S
C1669 C1668 1.391 . S
C1670 H1660 0.950 . S
C1670 C1671 1.386 . S
C1670 C1672 1.391 . S
C1671 C1670 1.386 . S
C1671 C1675 1.393 . S
C1672 H1661 0.950 . S
C1672 C1670 1.391 . S
C1672 C1673 1.400 . S
C1673 C1667 1.491 1_565 S
C1673 C1672 1.400 . S
C1673 C1674 1.398 . S
C1674 H1662 0.950 . S
C1674 C1673 1.398 . S
C1674 C1675 1.391 . S
C1675 H1663 0.950 . S
C1675 C1671 1.393 . S
C1675 C1674 1.391 . S
H1676 C1684 0.950 . S
H1677 C1689 0.950 . S
H1678 C1686 0.950 . S
H1679 C1688 0.950 . S
H1680 C1690 0.950 . S
H1681 C1692 0.950 . S
H1682 C1694 0.950 . S
H1683 C1695 0.950 . S
C1684 H1676 0.950 . S
C1684 C1685 1.386 . S
C1684 C1686 1.391 . S
C1685 C1684 1.386 . S
C1685 C1689 1.393 . S
C1686 H1678 0.950 . S
C1686 C1684 1.391 . S
C1686 C1687 1.400 . S
C1687 C1686 1.400 . S
C1687 C1688 1.398 . S
C1687 C1693 1.491 1_455 S
C1688 H1679 0.950 . S
C1688 C1687 1.398 . S
C1688 C1689 1.391 . S
C1689 H1677 0.950 . S
C1689 C1685 1.393 . S
C1689 C1688 1.391 . S
C1690 H1680 0.950 . S
C1690 C1691 1.386 . S
C1690 C1692 1.391 . S
C1691 C1690 1.386 . S
C1691 C1695 1.393 . S
C1692 H1681 0.950 . S
C1692 C1690 1.391 . S
C1692 C1693 1.400 . S
C1693 C1687 1.491 1_655 S
C1693 C1692 1.400 . S
C1693 C1694 1.398 . S
C1694 H1682 0.950 . S
C1694 C1693 1.398 . S
C1694 C1695 1.391 . S
C1695 H1683 0.950 . S
C1695 C1691 1.393 . S
C1695 C1694 1.391 . S
H1696 C1704 0.950 . S
H1697 C1709 0.950 . S
H1698 C1706 0.950 . S
H1699 C1708 0.950 . S
H1700 C1710 0.950 . S
H1701 C1712 0.950 . S
H1702 C1714 0.950 . S
H1703 C1715 0.950 . S
C1704 H1696 0.950 . S
C1704 C1705 1.386 . S
C1704 C1706 1.391 . S
C1705 C1704 1.386 . S
C1705 C1709 1.393 . S
C1706 H1698 0.950 . S
C1706 C1704 1.391 . S
C1706 C1707 1.400 . S
C1707 C1706 1.400 . S
C1707 C1708 1.398 . S
C1707 C1713 1.491 1_554 S
C1708 H1699 0.950 . S
C1708 C1707 1.398 . S
C1708 C1709 1.391 . S
C1709 H1697 0.950 . S
C1709 C1705 1.393 . S
C1709 C1708 1.391 . S
C1710 H1700 0.950 . S
C1710 C1711 1.386 . S
C1710 C1712 1.391 . S
C1711 C1710 1.386 . S
C1711 C1715 1.393 . S
C1712 H1701 0.950 . S
C1712 C1710 1.391 . S
C1712 C1713 1.400 . S
C1713 C1707 1.491 1_556 S
C1713 C1712 1.400 . S
C1713 C1714 1.398 . S
C1714 H1702 0.950 . S
C1714 C1713 1.398 . S
C1714 C1715 1.391 . S
C1715 H1703 0.950 . S
C1715 C1711 1.393 . S
C1715 C1714 1.391 . S
H1716 C1724 0.950 . S
H1717 C1729 0.950 . S
H1718 C1726 0.950 . S
H1719 C1728 0.950 . S
H1720 C1730 0.950 . S
H1721 C1732 0.950 . S
H1722 C1734 0.950 . S
H1723 C1735 0.950 . S
C1724 H1716 0.950 . S
C1724 C1725 1.386 . S
C1724 C1726 1.391 . S
C1725 C1724 1.386 . S
C1725 C1729 1.393 . S
C1726 H1718 0.950 . S
C1726 C1724 1.391 . S
C1726 C1727 1.400 . S
C1727 C1726 1.400 . S
C1727 C1728 1.398 . S
C1727 C1733 1.491 . S
C1728 H1719 0.950 . S
C1728 C1727 1.398 . S
C1728 C1729 1.391 . S
C1729 H1717 0.950 . S
C1729 C1725 1.393 . S
C1729 C1728 1.391 . S
C1730 H1720 0.950 . S
C1730 C1731 1.386 . S
C1730 C1732 1.391 . S
C1731 C1730 1.386 . S
C1731 C1735 1.393 . S
C1732 H1721 0.950 . S
C1732 C1730 1.391 . S
C1732 C1733 1.400 . S
C1733 C1727 1.491 . S
C1733 C1732 1.400 . S
C1733 C1734 1.398 . S
C1734 H1722 0.950 . S
C1734 C1733 1.398 . S
C1734 C1735 1.391 . S
C1735 H1723 0.950 . S
C1735 C1731 1.393 . S
C1735 C1734 1.391 . S
H1736 C1744 0.950 . S
H1737 C1749 0.950 . S
H1738 C1746 0.950 . S
H1739 C1748 0.950 . S
H1740 C1750 0.950 . S
H1741 C1752 0.950 . S
H1742 C1754 0.950 . S
H1743 C1755 0.950 . S
C1744 H1736 0.950 . S
C1744 C1745 1.386 . S
C1744 C1746 1.391 . S
C1745 C1744 1.386 . S
C1745 C1749 1.393 . S
C1746 H1738 0.950 . S
C1746 C1744 1.391 . S
C1746 C1747 1.400 . S
C1747 C1746 1.400 . S
C1747 C1748 1.398 . S
C1747 C1753 1.491 1_556 S
C1748 H1739 0.950 . S
C1748 C1747 1.398 . S
C1748 C1749 1.391 . S
C1749 H1737 0.950 . S
C1749 C1745 1.393 . S
C1749 C1748 1.391 . S
C1750 H1740 0.950 . S
C1750 C1751 1.386 . S
C1750 C1752 1.391 . S
C1751 C1750 1.386 . S
C1751 C1755 1.393 . S
C1752 H1741 0.950 . S
C1752 C1750 1.391 . S
C1752 C1753 1.400 . S
C1753 C1747 1.491 1_554 S
C1753 C1752 1.400 . S
C1753 C1754 1.398 . S
C1754 H1742 0.950 . S
C1754 C1753 1.398 . S
C1754 C1755 1.391 . S
C1755 H1743 0.950 . S
C1755 C1751 1.393 . S
C1755 C1754 1.391 . S
H1756 C1764 0.950 . S
H1757 C1769 0.950 . S
H1758 C1766 0.950 . S
H1759 C1768 0.950 . S
H1760 C1770 0.950 . S
H1761 C1772 0.950 . S
H1762 C1774 0.950 . S
H1763 C1775 0.950 . S
C1764 H1756 0.950 . S
C1764 C1765 1.386 . S
C1764 C1766 1.391 . S
C1765 C1764 1.386 . S
C1765 C1769 1.393 . S
C1766 H1758 0.950 . S
C1766 C1764 1.391 . S
C1766 C1767 1.400 . S
C1767 C1766 1.400 . S
C1767 C1768 1.398 . S
C1767 C1773 1.491 . S
C1768 H1759 0.950 . S
C1768 C1767 1.398 . S
C1768 C1769 1.391 . S
C1769 H1757 0.950 . S
C1769 C1765 1.393 . S
C1769 C1768 1.391 . S
C1770 H1760 0.950 . S
C1770 C1771 1.386 . S
C1770 C1772 1.391 . S
C1771 C1770 1.386 . S
C1771 C1775 1.393 . S
C1772 H1761 0.950 . S
C1772 C1770 1.391 . S
C1772 C1773 1.400 . S
C1773 C1767 1.491 . S
C1773 C1772 1.400 . S
C1773 C1774 1.398 . S
C1774 H1762 0.950 . S
C1774 C1773 1.398 . S
C1774 C1775 1.391 . S
C1775 H1763 0.950 . S
C1775 C1771 1.393 . S
C1775 C1774 1.391 . S
H1776 C1784 0.950 . S
H1777 C1789 0.950 . S
H1778 C1786 0.950 . S
H1779 C1788 0.950 . S
H1780 C1790 0.950 . S
H1781 C1792 0.950 . S
H1782 C1794 0.950 . S
H1783 C1795 0.950 . S
C1784 H1776 0.950 . S
C1784 C1785 1.386 . S
C1784 C1786 1.391 . S
C1785 C1784 1.386 . S
C1785 C1789 1.393 . S
C1786 H1778 0.950 . S
C1786 C1784 1.391 . S
C1786 C1787 1.400 . S
C1787 C1786 1.400 . S
C1787 C1788 1.398 . S
C1787 C1793 1.491 1_565 S
C1788 H1779 0.950 . S
C1788 C1787 1.398 . S
C1788 C1789 1.391 . S
C1789 H1777 0.950 . S
C1789 C1785 1.393 . S
C1789 C1788 1.391 . S
C1790 H1780 0.950 . S
C1790 C1791 1.386 . S
C1790 C1792 1.391 . S
C1791 C1790 1.386 . S
C1791 C1795 1.393 . S
C1792 H1781 0.950 . S
C1792 C1790 1.391 . S
C1792 C1793 1.400 . S
C1793 C1787 1.491 1_545 S
C1793 C1792 1.400 . S
C1793 C1794 1.398 . S
C1794 H1782 0.950 . S
C1794 C1793 1.398 . S
C1794 C1795 1.391 . S
C1795 H1783 0.950 . S
C1795 C1791 1.393 . S
C1795 C1794 1.391 . S
H1796 C1804 0.950 . S
H1797 C1809 0.950 . S
H1798 C1806 0.950 . S
H1799 C1808 0.950 . S
H1800 C1810 0.950 . S
H1801 C1812 0.950 . S
H1802 C1814 0.950 . S
H1803 C1815 0.950 . S
C1804 H1796 0.950 . S
C1804 C1805 1.386 . S
C1804 C1806 1.391 . S
C1805 C1804 1.386 . S
C1805 C1809 1.393 . S
C1806 H1798 0.950 . S
C1806 C1804 1.391 . S
C1806 C1807 1.400 . S
C1807 C1806 1.400 . S
C1807 C1808 1.398 . S
C1807 C1813 1.491 1_455 S
C1808 H1799 0.950 . S
C1808 C1807 1.398 . S
C1808 C1809 1.391 . S
C1809 H1797 0.950 . S
C1809 C1805 1.393 . S
C1809 C1808 1.391 . S
C1810 H1800 0.950 . S
C1810 C1811 1.386 . S
C1810 C1812 1.391 . S
C1811 C1810 1.386 . S
C1811 C1815 1.393 . S
C1812 H1801 0.950 . S
C1812 C1810 1.391 . S
C1812 C1813 1.400 . S
C1813 C1807 1.491 1_655 S
C1813 C1812 1.400 . S
C1813 C1814 1.398 . S
C1814 H1802 0.950 . S
C1814 C1813 1.398 . S
C1814 C1815 1.391 . S
C1815 H1803 0.950 . S
C1815 C1811 1.393 . S
C1815 C1814 1.391 . S
H1816 C1824 0.950 . S
H1817 C1829 0.950 . S
H1818 C1826 0.950 . S
H1819 C1828 0.950 . S
H1820 C1830 0.950 . S
H1821 C1832 0.950 . S
H1822 C1834 0.950 . S
H1823 C1835 0.950 . S
C1824 H1816 0.950 . S
C1824 C1825 1.386 . S
C1824 C1826 1.391 . S
C1825 C1824 1.386 . S
C1825 C1829 1.393 . S
C1826 H1818 0.950 . S
C1826 C1824 1.391 . S
C1826 C1827 1.400 . S
C1827 C1826 1.400 . S
C1827 C1828 1.398 . S
C1827 C1833 1.491 . S
C1828 H1819 0.950 . S
C1828 C1827 1.398 . S
C1828 C1829 1.391 . S
C1829 H1817 0.950 . S
C1829 C1825 1.393 . S
C1829 C1828 1.391 . S
C1830 H1820 0.950 . S
C1830 C1831 1.386 . S
C1830 C1832 1.391 . S
C1831 C1830 1.386 . S
C1831 C1835 1.393 . S
C1832 H1821 0.950 . S
C1832 C1830 1.391 . S
C1832 C1833 1.400 . S
C1833 C1827 1.491 . S
C1833 C1832 1.400 . S
C1833 C1834 1.398 . S
C1834 H1822 0.950 . S
C1834 C1833 1.398 . S
C1834 C1835 1.391 . S
C1835 H1823 0.950 . S
C1835 C1831 1.393 . S
C1835 C1834 1.391 . S
H1836 C1844 0.950 . S
H1837 C1849 0.950 . S
H1838 C1846 0.950 . S
H1839 C1848 0.950 . S
H1840 C1850 0.950 . S
H1841 C1852 0.950 . S
H1842 C1854 0.950 . S
H1843 C1855 0.950 . S
C1844 H1836 0.950 . S
C1844 C1845 1.386 . S
C1844 C1846 1.391 . S
C1845 C1844 1.386 . S
C1845 C1849 1.393 . S
C1846 H1838 0.950 . S
C1846 C1844 1.391 . S
C1846 C1847 1.400 . S
C1847 C1846 1.400 . S
C1847 C1848 1.398 . S
C1847 C1853 1.491 . S
C1848 H1839 0.950 . S
C1848 C1847 1.398 . S
C1848 C1849 1.391 . S
C1849 H1837 0.950 . S
C1849 C1845 1.393 . S
C1849 C1848 1.391 . S
C1850 H1840 0.950 . S
C1850 C1851 1.386 . S
C1850 C1852 1.391 . S
C1851 C1850 1.386 . S
C1851 C1855 1.393 . S
C1852 H1841 0.950 . S
C1852 C1850 1.391 . S
C1852 C1853 1.400 . S
C1853 C1847 1.491 . S
C1853 C1852 1.400 . S
C1853 C1854 1.398 . S
C1854 H1842 0.950 . S
C1854 C1853 1.398 . S
C1854 C1855 1.391 . S
C1855 H1843 0.950 . S
C1855 C1851 1.393 . S
C1855 C1854 1.391 . S
H1856 C1864 0.950 . S
H1857 C1869 0.950 . S
H1858 C1866 0.950 . S
H1859 C1868 0.950 . S
H1860 C1870 0.950 . S
H1861 C1872 0.950 . S
H1862 C1874 0.950 . S
H1863 C1875 0.950 . S
C1864 H1856 0.950 . S
C1864 C1865 1.386 . S
C1864 C1866 1.391 . S
C1865 C1864 1.386 . S
C1865 C1869 1.393 . S
C1866 H1858 0.950 . S
C1866 C1864 1.391 . S
C1866 C1867 1.400 . S
C1867 C1866 1.400 . S
C1867 C1868 1.398 . S
C1867 C1873 1.491 . S
C1868 H1859 0.950 . S
C1868 C1867 1.398 . S
C1868 C1869 1.391 . S
C1869 H1857 0.950 . S
C1869 C1865 1.393 . S
C1869 C1868 1.391 . S
C1870 H1860 0.950 . S
C1870 C1871 1.386 . S
C1870 C1872 1.391 . S
C1871 C1870 1.386 . S
C1871 C1875 1.393 . S
C1872 H1861 0.950 . S
C1872 C1870 1.391 . S
C1872 C1873 1.400 . S
C1873 C1867 1.491 . S
C1873 C1872 1.400 . S
C1873 C1874 1.398 . S
C1874 H1862 0.950 . S
C1874 C1873 1.398 . S
C1874 C1875 1.391 . S
C1875 H1863 0.950 . S
C1875 C1871 1.393 . S
C1875 C1874 1.391 . S
H1876 C1884 0.950 . S
H1877 C1889 0.950 . S
H1878 C1886 0.950 . S
H1879 C1888 0.950 . S
H1880 C1890 0.950 . S
H1881 C1892 0.950 . S
H1882 C1894 0.950 . S
H1883 C1895 0.950 . S
C1884 H1876 0.950 . S
C1884 C1885 1.386 . S
C1884 C1886 1.391 . S
C1885 C1884 1.386 . S
C1885 C1889 1.393 . S
C1886 H1878 0.950 . S
C1886 C1884 1.391 . S
C1886 C1887 1.400 . S
C1887 C1886 1.400 . S
C1887 C1888 1.398 . S
C1887 C1893 1.491 . S
C1888 H1879 0.950 . S
C1888 C1887 1.398 . S
C1888 C1889 1.391 . S
C1889 H1877 0.950 . S
C1889 C1885 1.393 . S
C1889 C1888 1.391 . S
C1890 H1880 0.950 . S
C1890 C1891 1.386 . S
C1890 C1892 1.391 . S
C1891 C1890 1.386 . S
C1891 C1895 1.393 . S
C1892 H1881 0.950 . S
C1892 C1890 1.391 . S
C1892 C1893 1.400 . S
C1893 C1887 1.491 . S
C1893 C1892 1.400 . S
C1893 C1894 1.398 . S
C1894 H1882 0.950 . S
C1894 C1893 1.398 . S
C1894 C1895 1.391 . S
C1895 H1883 0.950 . S
C1895 C1891 1.393 . S
C1895 C1894 1.391 . S
H1896 C1904 0.950 . S
H1897 C1909 0.950 . S
H1898 C1906 0.950 . S
H1899 C1908 0.950 . S
H1900 C1910 0.950 . S
H1901 C1912 0.950 . S
H1902 C1914 0.950 . S
H1903 C1915 0.950 . S
C1904 H1896 0.950 . S
C1904 C1905 1.386 . S
C1904 C1906 1.391 . S
C1905 C1904 1.386 . S
C1905 C1909 1.393 . S
C1906 H1898 0.950 . S
C1906 C1904 1.391 . S
C1906 C1907 1.400 . S
C1907 C1906 1.400 . S
C1907 C1908 1.398 . S
C1907 C1913 1.491 1_545 S
C1908 H1899 0.950 . S
C1908 C1907 1.398 . S
C1908 C1909 1.391 . S
C1909 H1897 0.950 . S
C1909 C1905 1.393 . S
C1909 C1908 1.391 . S
C1910 H1900 0.950 . S
C1910 C1911 1.386 . S
C1910 C1912 1.391 . S
C1911 C1910 1.386 . S
C1911 C1915 1.393 . S
C1912 H1901 0.950 . S
C1912 C1910 1.391 . S
C1912 C1913 1.400 . S
C1913 C1907 1.491 1_565 S
C1913 C1912 1.400 . S
C1913 C1914 1.398 . S
C1914 H1902 0.950 . S
C1914 C1913 1.398 . S
C1914 C1915 1.391 . S
C1915 H1903 0.950 . S
C1915 C1911 1.393 . S
C1915 C1914 1.391 . S
H1916 C1924 0.950 . S
H1917 C1929 0.950 . S
H1918 C1926 0.950 . S
H1919 C1928 0.950 . S
H1920 C1930 0.950 . S
H1921 C1932 0.950 . S
H1922 C1934 0.950 . S
H1923 C1935 0.950 . S
C1924 H1916 0.950 . S
C1924 C1925 1.386 . S
C1924 C1926 1.391 . S
C1925 C1924 1.386 . S
C1925 C1929 1.393 . S
C1926 H1918 0.950 . S
C1926 C1924 1.391 . S
C1926 C1927 1.400 . S
C1927 C1926 1.400 . S
C1927 C1928 1.398 . S
C1927 C1933 1.491 1_655 S
C1928 H1919 0.950 . S
C1928 C1927 1.398 . S
C1928 C1929 1.391 . S
C1929 H1917 0.950 . S
C1929 C1925 1.393 . S
C1929 C1928 1.391 . S
C1930 H1920 0.950 . S
C1930 C1931 1.386 . S
C1930 C1932 1.391 . S
C1931 C1930 1.386 . S
C1931 C1935 1.393 . S
C1932 H1921 0.950 . S
C1932 C1930 1.391 . S
C1932 C1933 1.400 . S
C1933 C1927 1.491 1_455 S
C1933 C1932 1.400 . S
C1933 C1934 1.398 . S
C1934 H1922 0.950 . S
C1934 C1933 1.398 . S
C1934 C1935 1.391 . S
C1935 H1923 0.950 . S
C1935 C1931 1.393 . S
C1935 C1934 1.391 . S
H1936 C1944 0.950 . S
H1937 C1949 0.950 . S
H1938 C1946 0.950 . S
H1939 C1948 0.950 . S
H1940 C1950 0.950 . S
H1941 C1952 0.950 . S
H1942 C1954 0.950 . S
H1943 C1955 0.950 . S
C1944 H1936 0.950 . S
C1944 C1945 1.386 . S
C1944 C1946 1.391 . S
C1945 C1944 1.386 . S
C1945 C1949 1.393 . S
C1946 H1938 0.950 . S
C1946 C1944 1.391 . S
C1946 C1947 1.400 . S
C1947 C1946 1.400 . S
C1947 C1948 1.398 . S
C1947 C1953 1.491 1_554 S
C1948 H1939 0.950 . S
C1948 C1947 1.398 . S
C1948 C1949 1.391 . S
C1949 H1937 0.950 . S
C1949 C1945 1.393 . S
C1949 C1948 1.391 . S
C1950 H1940 0.950 . S
C1950 C1951 1.386 . S
C1950 C1952 1.391 . S
C1951 C1950 1.386 . S
C1951 C1955 1.393 . S
C1952 H1941 0.950 . S
C1952 C1950 1.391 . S
C1952 C1953 1.400 . S
C1953 C1947 1.491 1_556 S
C1953 C1952 1.400 . S
C1953 C1954 1.398 . S
C1954 H1942 0.950 . S
C1954 C1953 1.398 . S
C1954 C1955 1.391 . S
C1955 H1943 0.950 . S
C1955 C1951 1.393 . S
C1955 C1954 1.391 . S
H1956 C1964 0.950 . S
H1957 C1969 0.950 . S
H1958 C1966 0.950 . S
H1959 C1968 0.950 . S
H1960 C1970 0.950 . S
H1961 C1972 0.950 . S
H1962 C1974 0.950 . S
H1963 C1975 0.950 . S
C1964 H1956 0.950 . S
C1964 C1965 1.386 . S
C1964 C1966 1.391 . S
C1965 C1964 1.386 . S
C1965 C1969 1.393 . S
C1966 H1958 0.950 . S
C1966 C1964 1.391 . S
C1966 C1967 1.400 . S
C1967 C1966 1.400 . S
C1967 C1968 1.398 . S
C1967 C1973 1.491 . S
C1968 H1959 0.950 . S
C1968 C1967 1.398 . S
C1968 C1969 1.391 . S
C1969 H1957 0.950 . S
C1969 C1965 1.393 . S
C1969 C1968 1.391 . S
C1970 H1960 0.950 . S
C1970 C1971 1.386 . S
C1970 C1972 1.391 . S
C1971 C1970 1.386 . S
C1971 C1975 1.393 . S
C1972 H1961 0.950 . S
C1972 C1970 1.391 . S
C1972 C1973 1.400 . S
C1973 C1967 1.491 . S
C1973 C1972 1.400 . S
C1973 C1974 1.398 . S
C1974 H1962 0.950 . S
C1974 C1973 1.398 . S
C1974 C1975 1.391 . S
C1975 H1963 0.950 . S
C1975 C1971 1.393 . S
C1975 C1974 1.391 . S
H1976 C1984 0.950 . S
H1977 C1989 0.950 . S
H1978 C1986 0.950 . S
H1979 C1988 0.950 . S
H1980 C1990 0.950 . S
H1981 C1992 0.950 . S
H1982 C1994 0.950 . S
H1983 C1995 0.950 . S
C1984 H1976 0.950 . S
C1984 C1985 1.386 . S
C1984 C1986 1.391 . S
C1985 C1984 1.386 . S
C1985 C1989 1.393 . S
C1986 H1978 0.950 . S
C1986 C1984 1.391 . S
C1986 C1987 1.400 . S
C1987 C1986 1.400 . S
C1987 C1988 1.398 . S
C1987 C1993 1.491 1_556 S
C1988 H1979 0.950 . S
C1988 C1987 1.398 . S
C1988 C1989 1.391 . S
C1989 H1977 0.950 . S
C1989 C1985 1.393 . S
C1989 C1988 1.391 . S
C1990 H1980 0.950 . S
C1990 C1991 1.386 . S
C1990 C1992 1.391 . S
C1991 C1990 1.386 . S
C1991 C1995 1.393 . S
C1992 H1981 0.950 . S
C1992 C1990 1.391 . S
C1992 C1993 1.400 . S
C1993 C1987 1.491 1_554 S
C1993 C1992 1.400 . S
C1993 C1994 1.398 . S
C1994 H1982 0.950 . S
C1994 C1993 1.398 . S
C1994 C1995 1.391 . S
C1995 H1983 0.950 . S
C1995 C1991 1.393 . S
C1995 C1994 1.391 . S
H1996 C2004 0.950 . S
H1997 C2009 0.950 . S
H1998 C2006 0.950 . S
H1999 C2008 0.950 . S
H2000 C2010 0.950 . S
H2001 C2012 0.950 . S
H2002 C2014 0.950 . S
H2003 C2015 0.950 . S
C2004 H1996 0.950 . S
C2004 C2005 1.386 . S
C2004 C2006 1.391 . S
C2005 C2004 1.386 . S
C2005 C2009 1.393 . S
C2006 H1998 0.950 . S
C2006 C2004 1.391 . S
C2006 C2007 1.400 . S
C2007 C2006 1.400 . S
C2007 C2008 1.398 . S
C2007 C2013 1.491 . S
C2008 H1999 0.950 . S
C2008 C2007 1.398 . S
C2008 C2009 1.391 . S
C2009 H1997 0.950 . S
C2009 C2005 1.393 . S
C2009 C2008 1.391 . S
C2010 H2000 0.950 . S
C2010 C2011 1.386 . S
C2010 C2012 1.391 . S
C2011 C2010 1.386 . S
C2011 C2015 1.393 . S
C2012 H2001 0.950 . S
C2012 C2010 1.391 . S
C2012 C2013 1.400 . S
C2013 C2007 1.491 . S
C2013 C2012 1.400 . S
C2013 C2014 1.398 . S
C2014 H2002 0.950 . S
C2014 C2013 1.398 . S
C2014 C2015 1.391 . S
C2015 H2003 0.950 . S
C2015 C2011 1.393 . S
C2015 C2014 1.391 . S
C825 C101 1.864 . S
C831 C33 1.844 . S
C845 C67 1.857 . S
C851 C135 1.849 . S
C865 C169 1.859 . S
C871 C237 1.847 . S
C885 C271 1.844 . S
C891 C203 1.865 . S
C905 C441 1.845 . S
C911 C305 1.865 . S
C925 C339 1.846 . S
C931 C475 1.863 . S
C945 C509 1.859 . S
C951 C373 1.851 . S
C965 C543 1.866 . S
C971 C407 1.842 . S
C985 C577 1.866 . S
C991 C679 1.842 . S
C1005 C611 1.858 . S
C1011 C747 1.848 . S
C1025 C645 1.863 . S
C1031 C781 1.846 . S
C1045 C815 1.843 . S
C1051 C713 1.865 . S
C1065 C138 1.549 . S
C1071 C2 1.535 . S
C1085 C172 1.542 . S
C1091 C36 1.542 . S
C1105 C206 1.545 . S
C1111 C70 1.540 . S
C1125 C240 1.546 . S
C1131 C104 1.539 . S
C1145 C274 1.535 . S
C1151 C478 1.549 . S
C1165 C512 1.548 . S
C1171 C308 1.536 . S
C1185 C410 1.549 . S
C1191 C342 1.535 . S
C1205 C444 1.537 . S
C1211 C376 1.547 . S
C1225 C716 1.545 . S
C1231 C546 1.540 . S
C1245 C580 1.543 . S
C1251 C648 1.541 . S
C1265 C614 1.535 . S
C1271 C682 1.549 . S
C1285 C784 1.547 . S
C1291 C750 1.538 . S
C1305 C243 0.864 . S
C1311 C39 0.858 . S
C1325 C73 0.867 . S
C1331 C141 0.868 . S
C1345 C175 0.847 . S
C1351 C107 0.855 . S
C1365 C209 0.813 . S
C1371 C5 0.820 . S
C1385 C753 0.804 . S
C1391 C685 0.807 . S
C1405 C549 0.866 . S
C1411 C583 0.868 . S
C1425 C617 0.804 . S
C1431 C787 0.804 . S
C1445 C719 0.845 . S
C1451 C651 0.853 . S
C1465 C447 0.836 . S
C1471 C515 0.845 . S
C1485 C311 0.828 . S
C1491 C379 0.837 . S
C1505 C345 0.807 . S
C1511 C277 0.812 . S
C1525 C413 0.846 . S
C1531 C481 0.837 . S
C1545 C768 2.296 . S
C1551 C20 2.289 . S
C1565 C564 2.293 . S
C1571 C54 2.297 . S
C1585 C802 2.288 . S
C1591 C88 2.296 . S
C1605 C734 2.287 . S
C1611 C122 2.295 . S
C1625 C156 2.288 . S
C1631 C632 2.296 . S
C1645 C190 2.290 . S
C1651 C666 2.297 . S
C1665 C224 2.295 . S
C1671 C700 2.288 . S
C1685 C598 2.286 . S
C1691 C258 2.292 . S
C1705 C292 2.286 . S
C1711 C462 2.290 . S
C1725 C496 2.290 . S
C1731 C326 2.286 . S
C1745 C530 2.288 . S
C1751 C360 2.295 . S
C1765 C428 2.291 . S
C1771 C394 2.297 . S
C1785 C247 1.453 . S
C1791 C485 1.457 . S
C1805 C145 1.452 . S
C1811 C519 1.457 . S
C1825 C417 1.448 . S
C1831 C179 1.453 . S
C1845 C451 1.447 . S
C1851 C213 1.449 . S
C1865 C43 1.456 . S
C1871 C349 1.451 . S
C1885 C383 1.447 . S
C1891 C77 1.449 . S
C1905 C281 1.457 . S
C1911 C111 1.455 . S
C1925 C315 1.448 . S
C1931 C9 1.448 . S
C1945 C723 1.457 . S
C1951 C689 1.455 . S
C1965 C757 1.448 . S
C1971 C587 1.452 . S
C1985 C621 1.450 . S
C1991 C553 1.455 . S
C2005 C791 1.448 . S
C2011 C655 1.453 . S
