# Generated by pormake.
# Topology uol, (4)-cn, num edge types: 1
# Building blocks:
#     Node 0, Type 0, BuildingBlock: GALJAG_clean_sbu_0, # of connection points: 4
#     Node 1, Type 0, BuildingBlock: GALJAG_clean_sbu_0, # of connection points: 4
#     Node 2, Type 0, BuildingBlock: GALJAG_clean_sbu_0, # of connection points: 4
#     Node 3, Type 0, BuildingBlock: GALJAG_clean_sbu_0, # of connection points: 4
#     Node 4, Type 0, BuildingBlock: GALJAG_clean_sbu_0, # of connection points: 4
#     Node 5, Type 0, BuildingBlock: GALJAG_clean_sbu_0, # of connection points: 4
#     Node 6, Type 0, BuildingBlock: GALJAG_clean_sbu_0, # of connection points: 4
#     Node 7, Type 0, BuildingBlock: GALJAG_clean_sbu_0, # of connection points: 4
#     Node 8, Type 0, BuildingBlock: GALJAG_clean_sbu_0, # of connection points: 4
#     Node 9, Type 0, BuildingBlock: GALJAG_clean_sbu_0, # of connection points: 4
#     Node 10, Type 0, BuildingBlock: GALJAG_clean_sbu_0, # of connection points: 4
#     Node 11, Type 0, BuildingBlock: GALJAG_clean_sbu_0, # of connection points: 4
#     Edge 12, Type (0, 0), BuildingBlock: EZIPEK_clean_linker_0, # of connection points: 2
#     Edge 13, Type (0, 0), BuildingBlock: EZIPEK_clean_linker_0, # of connection points: 2
#     Edge 14, Type (0, 0), BuildingBlock: EZIPEK_clean_linker_0, # of connection points: 2
#     Edge 15, Type (0, 0), BuildingBlock: EZIPEK_clean_linker_0, # of connection points: 2
#     Edge 16, Type (0, 0), BuildingBlock: EZIPEK_clean_linker_0, # of connection points: 2
#     Edge 17, Type (0, 0), BuildingBlock: EZIPEK_clean_linker_0, # of connection points: 2
#     Edge 18, Type (0, 0), BuildingBlock: EZIPEK_clean_linker_0, # of connection points: 2
#     Edge 19, Type (0, 0), BuildingBlock: EZIPEK_clean_linker_0, # of connection points: 2
#     Edge 20, Type (0, 0), BuildingBlock: EZIPEK_clean_linker_0, # of connection points: 2
#     Edge 21, Type (0, 0), BuildingBlock: EZIPEK_clean_linker_0, # of connection points: 2
#     Edge 22, Type (0, 0), BuildingBlock: EZIPEK_clean_linker_0, # of connection points: 2
#     Edge 23, Type (0, 0), BuildingBlock: EZIPEK_clean_linker_0, # of connection points: 2
#     Edge 24, Type (0, 0), BuildingBlock: EZIPEK_clean_linker_0, # of connection points: 2
#     Edge 25, Type (0, 0), BuildingBlock: EZIPEK_clean_linker_0, # of connection points: 2
#     Edge 26, Type (0, 0), BuildingBlock: EZIPEK_clean_linker_0, # of connection points: 2
#     Edge 27, Type (0, 0), BuildingBlock: EZIPEK_clean_linker_0, # of connection points: 2
#     Edge 28, Type (0, 0), BuildingBlock: EZIPEK_clean_linker_0, # of connection points: 2
#     Edge 29, Type (0, 0), BuildingBlock: EZIPEK_clean_linker_0, # of connection points: 2
#     Edge 30, Type (0, 0), BuildingBlock: EZIPEK_clean_linker_0, # of connection points: 2
#     Edge 31, Type (0, 0), BuildingBlock: EZIPEK_clean_linker_0, # of connection points: 2
#     Edge 32, Type (0, 0), BuildingBlock: EZIPEK_clean_linker_0, # of connection points: 2
#     Edge 33, Type (0, 0), BuildingBlock: EZIPEK_clean_linker_0, # of connection points: 2
#     Edge 34, Type (0, 0), BuildingBlock: EZIPEK_clean_linker_0, # of connection points: 2
#     Edge 35, Type (0, 0), BuildingBlock: EZIPEK_clean_linker_0, # of connection points: 2
# Relax obj value: 0.121
# Max RMSD: 0.117
# Mean RMSD: 0.117
data_MOF--net-uol--node1-GALJAG_clean_sbu_0--edge1-EZIPEK_clean_linker_0
_symmetry_space_group_name_H-M    P1
_symmetry_Int_Tables_number       1
_symmetry_cell_setting            triclinic
loop_
_symmetry_equiv_pos_as_xyz
'x, y, z'
_cell_length_a     25.364687
_cell_length_b     25.381161
_cell_length_c     43.922041
_cell_angle_alpha  90.025059
_cell_angle_beta   89.992625
_cell_angle_gamma 120.04017
loop_
_atom_site_label
_atom_site_type_symbol
_atom_site_fract_x
_atom_site_fract_y
_atom_site_fract_z
_atom_type_partial_charge
In0 In 0.174 0.37025 0.09412 0.0
O1 O 0.06984 0.30962 0.09367 0.0
O2 O 0.11463 0.34432 0.13612 0.0
C3 C 0.20325 0.33655 0.04142 0.0
C4 C 0.18793 0.48203 0.08943 0.0
C5 C 0.24057 0.34112 0.13042 0.0
O6 O 0.15149 0.30616 0.05357 0.0
O7 O 0.23921 0.38541 0.0549 0.0
O8 O 0.25736 0.39579 0.12406 0.0
O9 O 0.19089 0.30193 0.11877 0.0
C10 C 0.06521 0.31231 0.12219 0.0
O11 O 0.2181 0.46976 0.108 0.0
O12 O 0.15197 0.43853 0.07255 0.0
In13 In 0.80054 0.16333 0.25724 0.0
O14 O 0.76839 0.0612 0.25847 0.0
O15 O 0.76703 0.10508 0.2996 0.0
C16 C 0.86347 0.19759 0.20476 0.0
C17 C 0.6989 0.17071 0.25094 0.0
C18 C 0.89623 0.22928 0.29365 0.0
O19 O 0.83518 0.14284 0.21345 0.0
O20 O 0.85624 0.23411 0.22128 0.0
O21 O 0.85315 0.24051 0.29124 0.0
O22 O 0.89105 0.18558 0.27777 0.0
C23 C 0.75704 0.05666 0.28665 0.0
O24 O 0.74248 0.2066 0.26776 0.0
O25 O 0.70731 0.13256 0.23653 0.0
In26 In 0.6422 0.80008 0.42545 0.0
O27 O 0.70759 0.76243 0.42595 0.0
O28 O 0.65693 0.75462 0.46611 0.0
C29 C 0.6748 0.86239 0.37282 0.0
C30 C 0.5292 0.70399 0.4196 0.0
C31 C 0.67695 0.89548 0.46284 0.0
O32 O 0.70029 0.83384 0.38246 0.0
O33 O 0.63082 0.8566 0.38868 0.0
O34 O 0.62172 0.86016 0.45621 0.0
O35 O 0.71432 0.88302 0.4506 0.0
C36 C 0.69593 0.74522 0.45333 0.0
O37 O 0.54184 0.74654 0.4382 0.0
O38 O 0.57287 0.71082 0.40308 0.0
In39 In 0.82245 0.62224 0.59465 0.0
O40 O 0.77634 0.52175 0.60797 0.0
O41 O 0.85567 0.55816 0.58015 0.0
C42 C 0.74593 0.63795 0.63133 0.0
C43 C 0.93512 0.69901 0.6155 0.0
C44 C 0.79599 0.65369 0.5408 0.0
O45 O 0.72905 0.6124 0.60575 0.0
O46 O 0.79926 0.65204 0.63877 0.0
O47 O 0.82322 0.69171 0.5618 0.0
O48 O 0.78547 0.60044 0.54614 0.0
C49 C 0.81454 0.51266 0.59401 0.0
O50 O 0.92096 0.70062 0.58807 0.0
O51 O 0.89345 0.65878 0.63169 0.0
In52 In 0.19539 0.85627 0.74886 0.0
O53 O 0.24834 0.96142 0.74908 0.0
O54 O 0.22858 0.91381 0.79114 0.0
C55 C 0.13284 0.82837 0.69642 0.0
C56 C 0.28955 0.83603 0.74371 0.0
C57 C 0.09727 0.79104 0.78385 0.0
O58 O 0.15898 0.88174 0.70719 0.0
O59 O 0.1413 0.79054 0.71109 0.0
O60 O 0.13557 0.77414 0.77864 0.0
O61 O 0.10816 0.84023 0.77133 0.0
C62 C 0.25297 0.9644 0.77775 0.0
O63 O 0.25246 0.81575 0.76558 0.0
O64 O 0.27792 0.86457 0.7238 0.0
In65 In 0.37123 0.20391 0.92273 0.0
O66 O 0.30052 0.23545 0.92668 0.0
O67 O 0.35458 0.24292 0.96529 0.0
C68 C 0.35167 0.15434 0.86706 0.0
C69 C 0.48282 0.30044 0.91749 0.0
C70 C 0.33246 0.10033 0.9549 0.0
O71 O 0.31313 0.16445 0.88018 0.0
O72 O 0.40182 0.1744 0.88086 0.0
O73 O 0.37978 0.14932 0.96225 0.0
O74 O 0.30765 0.10313 0.93068 0.0
C75 C 0.31285 0.25029 0.95439 0.0
O76 O 0.47359 0.25183 0.93023 0.0
O77 O 0.43617 0.29956 0.90672 0.0
In78 In 0.61424 0.82028 0.74011 0.0
O79 O 0.51286 0.77677 0.73042 0.0
O80 O 0.55541 0.85757 0.75752 0.0
C81 C 0.64018 0.74666 0.70664 0.0
C82 C 0.68495 0.92808 0.71213 0.0
C83 C 0.63105 0.78661 0.79542 0.0
O84 O 0.59943 0.75852 0.69874 0.0
O85 O 0.66515 0.76927 0.73166 0.0
O86 O 0.67219 0.83274 0.78171 0.0
O87 O 0.57964 0.76093 0.78245 0.0
C88 C 0.50761 0.81733 0.74455 0.0
O89 O 0.69535 0.91846 0.73908 0.0
O90 O 0.63901 0.88437 0.69994 0.0
In91 In 0.79842 0.64458 0.90353 0.0
O92 O 0.74834 0.69893 0.90705 0.0
O93 O 0.75256 0.66227 0.86411 0.0
C94 C 0.86594 0.67673 0.95466 0.0
C95 C 0.70671 0.52977 0.91025 0.0
C96 C 0.89006 0.68129 0.86352 0.0
O97 O 0.84189 0.70651 0.94482 0.0
O98 O 0.85412 0.62994 0.93952 0.0
O99 O 0.85274 0.62566 0.86811 0.0
O100 O 0.88105 0.71814 0.87877 0.0
C101 C 0.73453 0.69256 0.87913 0.0
O102 O 0.74991 0.54376 0.89187 0.0
O103 O 0.71091 0.57311 0.92616 0.0
In104 In 0.16411 0.79958 0.0747 0.0
O105 O 0.07038 0.78787 0.06388 0.0
O106 O 0.10083 0.73787 0.03766 0.0
C107 C 0.18457 0.8503 0.13013 0.0
C108 C 0.18478 0.70722 0.08344 0.0
C109 C 0.22717 0.89555 0.03762 0.0
O110 O 0.1312 0.81523 0.12044 0.0
O111 O 0.22687 0.85641 0.11277 0.0
O112 O 0.2314 0.84817 0.03566 0.0
O113 O 0.19322 0.89498 0.05866 0.0
C114 C 0.06042 0.75201 0.04191 0.0
O115 O 0.22313 0.7559 0.07039 0.0
O116 O 0.13749 0.70632 0.09322 0.0
In117 In 0.35638 0.15233 0.24192 0.0
O118 O 0.45132 0.18095 0.22402 0.0
O119 O 0.42751 0.13975 0.26776 0.0
C120 C 0.3353 0.22559 0.20624 0.0
C121 C 0.29079 0.04147 0.21627 0.0
C122 C 0.32283 0.18541 0.29325 0.0
O123 O 0.38875 0.23726 0.21235 0.0
O124 O 0.2932 0.17752 0.21791 0.0
O125 O 0.29324 0.13213 0.28263 0.0
O126 O 0.37122 0.22069 0.27918 0.0
C127 C 0.4671 0.16257 0.24702 0.0
O128 O 0.29444 0.04828 0.2448 0.0
O129 O 0.31999 0.08974 0.20113 0.0
In130 In 0.20122 0.36677 0.40866 0.0
O131 O 0.25198 0.46987 0.40218 0.0
O132 O 0.29739 0.43083 0.42572 0.0
C133 C 0.10511 0.33531 0.37224 0.0
C134 C 0.24388 0.30424 0.37794 0.0
C135 C 0.14238 0.33644 0.46238 0.0
O136 O 0.15017 0.38882 0.37263 0.0
O137 O 0.10832 0.29838 0.39027 0.0
O138 O 0.17575 0.31541 0.45387 0.0
O139 O 0.1421 0.37566 0.44491 0.0
C140 C 0.29993 0.47815 0.41508 0.0
O141 O 0.23037 0.29472 0.40583 0.0
O142 O 0.2368 0.34532 0.36593 0.0
In143 In 0.84292 0.19653 0.58088 0.0
O144 O 0.79069 0.24609 0.57254 0.0
O145 O 0.86739 0.28791 0.60221 0.0
C146 C 0.78141 0.10162 0.54337 0.0
C147 C 0.9491 0.24676 0.55025 0.0
C148 C 0.81125 0.13431 0.63351 0.0
O149 O 0.76718 0.14239 0.54657 0.0
O150 O 0.82589 0.10841 0.55915 0.0
O151 O 0.86636 0.16779 0.62599 0.0
O152 O 0.77307 0.13533 0.61557 0.0
C153 C 0.82492 0.29113 0.58899 0.0
O154 O 0.94422 0.22579 0.57683 0.0
O155 O 0.9014 0.24349 0.53966 0.0
C156 C 0.1993 0.62657 0.05826 0.0
C157 C 0.19204 0.65308 0.08529 0.0
C158 C 0.1803 0.56632 0.115 0.0
C159 C 0.19225 0.54223 0.08839 0.0
N160 N 0.22681 0.5561 0.0363 0.0
N161 N 0.18938 0.65547 0.14012 0.0
C162 C 0.20596 0.57442 0.06048 0.0
C163 C 0.18678 0.62516 0.11392 0.0
N164 N 0.19626 0.64878 0.03035 0.0
N165 N 0.15943 0.53184 0.14083 0.0
H166 H 0.19519 0.69917 0.14016 0.0
H167 H 0.19194 0.6399 0.1617 0.0
H168 H 0.15214 0.4877 0.14246 0.0
H169 H 0.14374 0.54473 0.15974 0.0
H170 H 0.19444 0.62686 0.00999 0.0
H171 H 0.1897 0.68584 0.02742 0.0
H172 H 0.24348 0.58154 0.01642 0.0
H173 H 0.23319 0.51858 0.03722 0.0
C174 C 0.63757 0.22214 0.24199 0.0
C175 C 0.64002 0.16948 0.25042 0.0
C176 C 0.52889 0.11137 0.25448 0.0
C177 C 0.52672 0.16531 0.24886 0.0
N178 N 0.57984 0.27459 0.24319 0.0
N179 N 0.5896 0.06818 0.2718 0.0
C180 C 0.58133 0.22152 0.24424 0.0
C181 C 0.58613 0.11522 0.25869 0.0
N182 N 0.68834 0.27193 0.23079 0.0
N183 N 0.47659 0.056 0.25442 0.0
H184 H 0.63076 0.06989 0.27636 0.0
H185 H 0.55206 0.03011 0.28109 0.0
H186 H 0.43369 0.05076 0.25061 0.0
H187 H 0.47635 0.01485 0.25508 0.0
H188 H 0.68764 0.30913 0.22124 0.0
H189 H 0.7302 0.27385 0.22849 0.0
H190 H 0.61889 0.31742 0.24299 0.0
H191 H 0.53976 0.27622 0.24552 0.0
C192 C 0.43627 0.62909 0.39085 0.0
C193 C 0.46873 0.64816 0.41869 0.0
C194 C 0.38497 0.56133 0.44484 0.0
C195 C 0.35623 0.53824 0.41639 0.0
N196 N 0.36006 0.54469 0.36141 0.0
N197 N 0.47944 0.62629 0.47119 0.0
C198 C 0.38312 0.57074 0.3891 0.0
C199 C 0.44452 0.61282 0.44551 0.0
N200 N 0.45524 0.66732 0.3663 0.0
N201 N 0.35473 0.53516 0.47128 0.0
H202 H 0.52404 0.66247 0.47255 0.0
H203 H 0.46634 0.598 0.49021 0.0
H204 H 0.31044 0.49812 0.47172 0.0
H205 H 0.37112 0.55395 0.49269 0.0
H206 H 0.42978 0.65829 0.3464 0.0
H207 H 0.49354 0.71079 0.36685 0.0
H208 H 0.38189 0.56369 0.34088 0.0
H209 H 0.32226 0.50132 0.3589 0.0
C210 C 0.80997 0.42647 0.56464 0.0
C211 C 0.81142 0.453 0.59323 0.0
C212 C 0.81195 0.36779 0.61916 0.0
C213 C 0.81869 0.34588 0.59056 0.0
N214 N 0.83567 0.36087 0.53628 0.0
N215 N 0.82249 0.45401 0.6479 0.0
C216 C 0.82054 0.37675 0.56329 0.0
C217 C 0.81436 0.42491 0.62063 0.0
N218 N 0.79679 0.4477 0.53881 0.0
N219 N 0.80149 0.33329 0.64475 0.0
H220 H 0.82523 0.49622 0.65 0.0
H221 H 0.83175 0.43878 0.66812 0.0
H222 H 0.79872 0.29087 0.64446 0.0
H223 H 0.78994 0.34403 0.66568 0.0
H224 H 0.78903 0.42603 0.51778 0.0
H225 H 0.78728 0.48321 0.53897 0.0
H226 H 0.84407 0.38622 0.5164 0.0
H227 H 0.84596 0.32607 0.53426 0.0
C228 C 0.39435 0.76989 0.75156 0.0
C229 C 0.45122 0.82099 0.74359 0.0
C230 C 0.40269 0.88291 0.73792 0.0
C231 C 0.34487 0.83037 0.74272 0.0
N232 N 0.28459 0.72107 0.74763 0.0
N233 N 0.50631 0.92146 0.72125 0.0
C234 C 0.34031 0.77295 0.7477 0.0
C235 C 0.45454 0.8762 0.73446 0.0
N236 N 0.39201 0.71938 0.76395 0.0
N237 N 0.40904 0.93969 0.73814 0.0
H238 H 0.54468 0.91766 0.71691 0.0
H239 H 0.50866 0.95999 0.71147 0.0
H240 H 0.37296 0.94755 0.74172 0.0
H241 H 0.45134 0.97948 0.73801 0.0
H242 H 0.35239 0.68339 0.77306 0.0
H243 H 0.4307 0.7159 0.76786 0.0
H244 H 0.27912 0.67758 0.74817 0.0
H245 H 0.24404 0.72116 0.74383 0.0
C246 C 0.56668 0.38162 0.88666 0.0
C247 C 0.54371 0.35536 0.91555 0.0
C248 C 0.6345 0.43751 0.94005 0.0
C249 C 0.65284 0.46804 0.91168 0.0
N250 N 0.63109 0.47366 0.8585 0.0
N251 N 0.5512 0.36223 0.97043 0.0
C252 C 0.61785 0.44119 0.88501 0.0
C253 C 0.57657 0.384 0.94249 0.0
N254 N 0.54043 0.34905 0.86075 0.0
N255 N 0.67304 0.45883 0.96447 0.0
H256 H 0.50844 0.32374 0.97336 0.0
H257 H 0.57021 0.38536 0.99069 0.0
H258 H 0.71629 0.4974 0.96336 0.0
H259 H 0.66465 0.43505 0.98488 0.0
H260 H 0.55908 0.36353 0.83915 0.0
H261 H 0.50346 0.30472 0.8611 0.0
H262 H 0.60273 0.45868 0.83949 0.0
H263 H 0.66722 0.51804 0.85622 0.0
C264 C 0.33377 0.27094 0.15576 0.0
C265 C 0.32186 0.26565 0.18751 0.0
C266 C 0.26348 0.31813 0.18233 0.0
C267 C 0.27518 0.32319 0.15062 0.0
N268 N 0.33113 0.31724 0.10779 0.0
N269 N 0.28914 0.29644 0.23222 0.0
C270 C 0.31379 0.30392 0.13757 0.0
C271 C 0.29099 0.2932 0.20118 0.0
N272 N 0.36091 0.24152 0.1428 0.0
N273 N 0.2242 0.33491 0.19419 0.0
H274 H 0.31008 0.27966 0.24659 0.0
H275 H 0.27193 0.32048 0.2437 0.0
H276 H 0.20517 0.35564 0.18122 0.0
H277 H 0.20776 0.32534 0.21641 0.0
H278 H 0.3644 0.23755 0.1194 0.0
H279 H 0.37677 0.21749 0.15543 0.0
H280 H 0.36356 0.3094 0.09751 0.0
H281 H 0.31672 0.341 0.09392 0.0
C282 C 0.00838 0.29437 0.30062 0.0
C283 C 0.94933 0.26404 0.31368 0.0
C284 C 0.99361 0.29293 0.36469 0.0
C285 C 0.05239 0.31603 0.35183 0.0
N286 N 0.11611 0.33232 0.30792 0.0
N287 N 0.88481 0.22761 0.35813 0.0
C288 C 0.06009 0.31566 0.31985 0.0
C289 C 0.94152 0.26197 0.34572 0.0
N290 N 0.01494 0.30369 0.26985 0.0
N291 N 0.98772 0.30156 0.39496 0.0
H292 H 0.84539 0.20409 0.34508 0.0
H293 H 0.87723 0.21844 0.38132 0.0
H294 H 0.02502 0.32442 0.40948 0.0
H295 H 0.94649 0.29116 0.40508 0.0
H296 H 0.05681 0.33068 0.25927 0.0
H297 H 0.97795 0.28914 0.2551 0.0
H298 H 0.12306 0.32592 0.28517 0.0
H299 H 0.15526 0.34811 0.32117 0.0
C300 C 0.75524 0.05909 0.49064 0.0
C301 C 0.74885 0.04941 0.52259 0.0
C302 C 0.68672 0.93908 0.51494 0.0
C303 C 0.69724 0.94845 0.48316 0.0
N304 N 0.74026 0.01511 0.43998 0.0
N305 N 0.71103 0.98212 0.56588 0.0
C306 C 0.73087 0.00794 0.47077 0.0
C307 C 0.71495 0.98989 0.53495 0.0
N308 N 0.78495 0.11722 0.47943 0.0
N309 N 0.64967 0.88153 0.52588 0.0
H310 H 0.72746 0.01831 0.58123 0.0
H311 H 0.69381 0.9402 0.57665 0.0
H312 H 0.63044 0.84292 0.51207 0.0
H313 H 0.63482 0.87177 0.54832 0.0
H314 H 0.78652 0.12816 0.45651 0.0
H315 H 0.80631 0.15573 0.49324 0.0
H316 H 0.77003 0.05606 0.42941 0.0
H317 H 0.71924 0.97904 0.42462 0.0
C318 C 0.65533 0.62698 0.66089 0.0
C319 C 0.71351 0.66411 0.64771 0.0
C320 C 0.72407 0.75321 0.67429 0.0
C321 C 0.6643 0.71752 0.68617 0.0
N322 N 0.56932 0.62232 0.68786 0.0
N323 N 0.79235 0.76482 0.63335 0.0
C324 C 0.62844 0.65496 0.67831 0.0
C325 C 0.7446 0.72791 0.65187 0.0
N326 N 0.62717 0.5652 0.65782 0.0
N327 N 0.76216 0.81096 0.68464 0.0
H328 H 0.80652 0.74811 0.61533 0.0
H329 H 0.81291 0.81212 0.63351 0.0
H330 H 0.74978 0.83292 0.70071 0.0
H331 H 0.80826 0.83548 0.67903 0.0
H332 H 0.58771 0.53505 0.66949 0.0
H333 H 0.64557 0.54379 0.6449 0.0
H334 H 0.53902 0.57835 0.68042 0.0
H335 H 0.54938 0.64064 0.70191 0.0
C336 C 0.0002 0.71949 0.85423 0.0
C337 C 0.94183 0.70235 0.8424 0.0
C338 C 0.98455 0.7325 0.79118 0.0
C339 C 0.04378 0.75665 0.80368 0.0
N340 N 0.10949 0.77967 0.8474 0.0
N341 N 0.8773 0.69539 0.80052 0.0
C342 C 0.05212 0.75139 0.83526 0.0
C343 C 0.93354 0.70927 0.81105 0.0
N344 N 0.00575 0.70448 0.88349 0.0
N345 N 0.97711 0.73033 0.76027 0.0
H346 H 0.83856 0.67638 0.81427 0.0
H347 H 0.86954 0.70604 0.7787 0.0
H348 H 0.01355 0.74621 0.74507 0.0
H349 H 0.93485 0.70814 0.74955 0.0
H350 H 0.04625 0.71042 0.89261 0.0
H351 H 0.96846 0.68107 0.89796 0.0
H352 H 0.11817 0.78354 0.8707 0.0
H353 H 0.14882 0.80361 0.83432 0.0
C354 C 0.21574 0.9626 -0.00015 0.0
C355 C 0.25424 0.94559 0.01513 0.0
C356 C 0.34197 0.02288 0.9865 0.0
C357 C 0.30496 0.04518 0.97438 0.0
N358 N 0.20689 0.04048 0.97304 0.0
N359 N 0.3554 0.9646 0.02634 0.0
C360 C 0.24186 0.01599 0.98179 0.0
C361 C 0.31776 0.97686 0.00927 0.0
N362 N 0.15377 0.92676 0.00172 0.0
N363 N 0.39939 0.04383 0.97536 0.0
H364 H 0.33957 0.93181 0.04349 0.0
H365 H 0.40272 0.99061 0.02536 0.0
H366 H 0.41787 0.07583 0.95788 0.0
H367 H 0.42622 0.02492 0.98114 0.0
H368 H 0.12378 0.93231 0.9877 0.0
H369 H 0.1319 0.8879 0.01518 0.0
H370 H 0.16353 0.02597 0.98173 0.0
H371 H 0.22201 0.07856 0.95922 0.0
C372 C 0.23136 0.26009 0.02431 0.0
C373 C 0.22465 0.31099 0.01734 0.0
C374 C 0.27353 0.32139 0.9677 0.0
C375 C 0.27754 0.2687 0.97423 0.0
N376 N 0.24785 0.18011 0.00568 0.0
N377 N 0.22942 0.38418 0.98101 0.0
C378 C 0.25252 0.23568 0.00157 0.0
C379 C 0.24264 0.33982 0.98853 0.0
N380 N 0.22108 0.23703 0.05323 0.0
N381 N 0.30204 0.35565 0.94257 0.0
H382 H 0.20727 0.39877 0.99592 0.0
H383 H 0.23576 0.40292 0.95931 0.0
H384 H 0.32522 0.34378 0.92691 0.0
H385 H 0.30661 0.39809 0.93834 0.0
H386 H 0.23346 0.20572 0.0606 0.0
H387 H 0.20514 0.25279 0.07081 0.0
H388 H 0.22315 0.15059 0.02333 0.0
H389 H 0.26393 0.16088 0.98996 0.0
C390 C 0.90804 0.25634 0.15653 0.0
C391 C 0.9099 0.21948 0.18034 0.0
C392 C 0.00465 0.23099 0.15958 0.0
C393 C 0.00777 0.27529 0.13898 0.0
N394 N 0.96492 0.33364 0.11842 0.0
N395 N 0.96617 0.1803 0.20761 0.0
C396 C 0.95978 0.28852 0.1373 0.0
C397 C 0.95945 0.20839 0.18255 0.0
N398 N 0.85649 0.25971 0.15207 0.0
N399 N 0.04466 0.20998 0.15697 0.0
H400 H 0.93574 0.1645 0.22577 0.0
H401 H 0.00537 0.17799 0.21186 0.0
H402 H 0.07771 0.22478 0.13994 0.0
H403 H 0.04078 0.17334 0.16949 0.0
H404 H 0.85011 0.28127 0.13345 0.0
H405 H 0.81773 0.2361 0.16561 0.0
H406 H 0.93483 0.35028 0.11871 0.0
H407 H 0.00172 0.35729 0.1037 0.0
C408 C 0.68001 0.94979 0.30183 0.0
C409 C 0.73944 0.00088 0.30436 0.0
C410 C 0.75887 0.95813 0.34999 0.0
C411 C 0.69957 0.90645 0.34745 0.0
N412 N 0.60871 0.8464 0.31792 0.0
N413 N 0.84077 0.04625 0.32509 0.0
C414 C 0.66167 0.90017 0.32233 0.0
C415 C 0.7806 0.00249 0.32659 0.0
N416 N 0.64036 0.94997 0.28082 0.0
N417 N 0.79296 0.96722 0.37566 0.0
H418 H 0.85827 0.07906 0.30793 0.0
H419 H 0.87423 0.04628 0.33884 0.0
H420 H 0.77913 0.93664 0.39374 0.0
H421 H 0.83293 0.00781 0.3803 0.0
H422 H 0.5942 0.91761 0.28022 0.0
H423 H 0.65304 0.98467 0.26485 0.0
H424 H 0.58165 0.83674 0.29859 0.0
H425 H 0.59451 0.8092 0.33247 0.0
C426 C 0.70872 0.63791 0.50742 0.0
C427 C 0.77229 0.66959 0.51365 0.0
C428 C 0.78802 0.74759 0.47614 0.0
C429 C 0.72466 0.71545 0.46982 0.0
N430 N 0.62847 0.62213 0.47225 0.0
N431 N 0.87395 0.74463 0.49854 0.0
C432 C 0.68635 0.65782 0.48306 0.0
C433 C 0.81248 0.72125 0.49616 0.0
N434 N 0.66894 0.59191 0.52604 0.0
N435 N 0.82417 0.8047 0.4646 0.0
H436 H 0.89304 0.72562 0.51272 0.0
H437 H 0.90547 0.77877 0.48436 0.0
H438 H 0.80822 0.82553 0.44971 0.0
H439 H 0.86907 0.83314 0.47142 0.0
H440 H 0.62185 0.57259 0.52454 0.0
H441 H 0.6823 0.57631 0.54476 0.0
H442 H 0.6002 0.57719 0.47904 0.0
H443 H 0.61111 0.6354 0.45412 0.0
C444 C 0.03592 0.81349 0.67311 0.0
C445 C 0.08923 0.80862 0.67076 0.0
C446 C 0.04616 0.74106 0.62658 0.0
C447 C 0.99282 0.74524 0.62948 0.0
N448 N 0.94418 0.79911 0.64843 0.0
N449 N 0.15194 0.78143 0.64113 0.0
C450 C 0.99044 0.7864 0.65036 0.0
C451 C 0.09659 0.77686 0.64601 0.0
N452 N 0.02612 0.83943 0.69818 0.0
N453 N 0.04736 0.70081 0.60632 0.0
H454 H 0.18972 0.80811 0.65485 0.0
H455 H 0.16194 0.76358 0.62209 0.0
H456 H 0.01179 0.67569 0.59114 0.0
H457 H 0.08203 0.69022 0.60551 0.0
H458 H 0.98463 0.83693 0.70275 0.0
H459 H 0.05726 0.85915 0.71588 0.0
H460 H 0.9426 0.83283 0.66125 0.0
H461 H 0.9108 0.78022 0.63158 0.0
C462 C 0.30311 0.11781 0.81556 0.0
C463 C 0.33494 0.11211 0.8408 0.0
C464 C 0.33073 0.02316 0.8168 0.0
C465 C 0.28863 0.0215 0.79518 0.0
N466 N 0.23127 0.06571 0.77465 0.0
N467 N 0.36727 0.04975 0.8681 0.0
C468 C 0.2744 0.06889 0.79436 0.0
C469 C 0.3465 0.06276 0.84203 0.0
N470 N 0.30106 0.17014 0.81164 0.0
N471 N 0.35524 0.98627 0.81336 0.0
H472 H 0.37451 0.0733 0.88848 0.0
H473 H 0.37023 0.01048 0.87063 0.0
H474 H 0.34516 0.95714 0.79478 0.0
H475 H 0.3904 0.98973 0.82707 0.0
H476 H 0.28317 0.17903 0.79225 0.0
H477 H 0.32281 0.20719 0.82639 0.0
H478 H 0.21406 0.09532 0.77553 0.0
H479 H 0.20959 0.03096 0.75869 0.0
C480 C 0.68457 0.79871 0.84507 0.0
C481 C 0.6457 0.7597 0.82183 0.0
C482 C 0.64788 0.6741 0.84614 0.0
C483 C 0.69717 0.71528 0.86449 0.0
N484 N 0.76499 0.81855 0.88094 0.0
N485 N 0.59807 0.65979 0.79782 0.0
C486 C 0.71567 0.77807 0.86433 0.0
C487 C 0.62827 0.6969 0.82192 0.0
N488 N 0.69145 0.85525 0.8488 0.0
N489 N 0.62029 0.61301 0.85168 0.0
H490 H 0.58608 0.67406 0.77816 0.0
H491 H 0.59072 0.61568 0.79588 0.0
H492 H 0.633 0.59526 0.86986 0.0
H493 H 0.58074 0.58115 0.84055 0.0
H494 H 0.71513 0.88374 0.86697 0.0
H495 H 0.66794 0.87086 0.83551 0.0
H496 H 0.78466 0.86555 0.87877 0.0
H497 H 0.78896 0.80546 0.89538 0.0
C498 C 0.97403 0.74314 0.96973 0.0
C499 C 0.91358 0.70047 0.97836 0.0
C500 C 0.94825 0.69663 0.03002 0.0
C501 C 0.00947 0.73405 0.02029 0.0
N502 N 0.08135 0.78519 0.97931 0.0
N503 N 0.84217 0.63228 0.01541 0.0
C504 C 0.0226 0.75505 0.9897 0.0
C505 C 0.9003 0.67609 0.00822 0.0
N506 N 0.98511 0.77326 0.94258 0.0
N507 N 0.93608 0.68037 0.05997 0.0
H508 H 0.80582 0.61821 0.00027 0.0
H509 H 0.83038 0.60753 0.0356 0.0
H510 H 0.97011 0.69151 0.07618 0.0
H511 H 0.8924 0.65876 0.06917 0.0
H512 H 0.02735 0.80993 0.93661 0.0
H513 H 0.95094 0.76552 0.92706 0.0
H514 H 0.09262 0.79408 0.95636 0.0
H515 H 0.11924 0.79779 0.99306 0.0
C516 C 0.23627 0.88646 0.18039 0.0
C517 C 0.19796 0.88877 0.15756 0.0
C518 C 0.20394 0.97819 0.18212 0.0
C519 C 0.2513 0.98274 0.20093 0.0
N520 N 0.312 0.94096 0.21952 0.0
N521 N 0.14734 0.93903 0.13539 0.0
C522 C 0.26654 0.9361 0.20099 0.0
C523 C 0.18109 0.93438 0.15841 0.0
N524 N 0.24329 0.83657 0.18227 0.0
N525 N 0.18096 0.01603 0.18705 0.0
H526 H 0.12953 0.9084 0.11736 0.0
H527 H 0.14058 0.97603 0.1329 0.0
H528 H 0.19668 0.04821 0.20455 0.0
H529 H 0.1425 0.01133 0.17601 0.0
H530 H 0.26649 0.8294 0.19985 0.0
H531 H 0.22095 0.7995 0.16756 0.0
H532 H 0.33063 0.91265 0.21804 0.0
H533 H 0.33305 0.97534 0.23572 0.0
C534 C 0.33409 0.23551 0.3439 0.0
C535 C 0.29862 0.20793 0.31749 0.0
C536 C 0.2211 0.23108 0.33555 0.0
C537 C 0.26057 0.2662 0.35946 0.0
N538 N 0.35633 0.30594 0.38584 0.0
N539 N 0.21198 0.18677 0.28585 0.0
C540 C 0.31733 0.26904 0.36376 0.0
C541 C 0.24269 0.20697 0.31281 0.0
N542 N 0.38306 0.2286 0.3502 0.0
N543 N 0.16246 0.21992 0.33489 0.0
H544 H 0.22593 0.16926 0.26816 0.0
H545 H 0.17543 0.19248 0.27981 0.0
H546 H 0.14479 0.23631 0.35143 0.0
H547 H 0.12965 0.18948 0.3198 0.0
H548 H 0.40743 0.24262 0.37051 0.0
H549 H 0.39605 0.20383 0.3362 0.0
H550 H 0.40117 0.3155 0.38787 0.0
H551 H 0.34516 0.33044 0.40103 0.0
C552 C 0.04788 0.25007 0.48457 0.0
C553 C 0.09847 0.30989 0.48779 0.0
C554 C 0.05688 0.32268 0.53597 0.0
C555 C 0.00343 0.26583 0.53091 0.0
N556 N 0.94643 0.17462 0.50106 0.0
N557 N 0.15253 0.40388 0.51567 0.0
C558 C -0.00117 0.22903 0.50556 0.0
C559 C 0.1036 0.34627 0.51342 0.0
N560 N 0.0464 0.21344 0.4613 0.0
N561 N 0.06257 0.354 0.56226 0.0
H562 H 0.18902 0.42103 0.50046 0.0
H563 H 0.15636 0.43568 0.53176 0.0
H564 H 0.02839 0.33862 0.57872 0.0
H565 H 0.10225 0.3931 0.56886 0.0
H566 H 0.01494 0.16717 0.45982 0.0
H567 H 0.07879 0.22788 0.44404 0.0
H568 H 0.93577 0.14961 0.48097 0.0
H569 H 0.91169 0.15507 0.51716 0.0
C570 C 0.73193 0.041 0.70387 0.0
C571 C 0.72546 0.98425 0.69485 0.0
C572 C 0.79189 0.03314 0.65087 0.0
C573 C 0.79128 0.08744 0.6575 0.0
N574 N 0.76061 0.14448 0.68929 0.0
N575 N 0.74373 0.92446 0.65786 0.0
C576 C 0.76177 0.09199 0.68394 0.0
C577 C 0.75428 0.9799 0.66795 0.0
N578 N 0.70843 0.04576 0.73108 0.0
N579 N 0.82803 0.03215 0.628 0.0
H580 H 0.71791 0.88418 0.66981 0.0
H581 H 0.75659 0.91735 0.63642 0.0
H582 H 0.85501 0.06952 0.61424 0.0
H583 H 0.83575 0.99602 0.62438 0.0
H584 H 0.71683 0.08693 0.74042 0.0
H585 H 0.68312 0.00873 0.74538 0.0
H586 H 0.73402 0.14893 0.706 0.0
H587 H 0.78472 0.18339 0.67592 0.0
loop_
_geom_bond_atom_site_label_1
_geom_bond_atom_site_label_2
_geom_bond_distance
_geom_bond_site_symmetry_2
_ccdc_geom_bond_type
In0 O1 2.294 . S
In0 O2 2.326 . S
In0 O6 2.266 . S
In0 O7 2.326 . S
In0 O8 2.266 . S
In0 O9 2.326 . S
In0 O11 2.294 . S
In0 O12 2.326 . S
O1 In0 2.294 . S
O1 C10 1.240 . S
O2 In0 2.326 . S
O2 C10 1.252 . S
C3 O6 1.252 . S
C3 O7 1.260 . S
C4 O11 1.240 . S
C4 O12 1.252 . S
C5 O8 1.252 . S
C5 O9 1.260 . S
O6 In0 2.266 . S
O6 C3 1.252 . S
O7 In0 2.326 . S
O7 C3 1.260 . S
O8 In0 2.266 . S
O8 C5 1.252 . S
O9 In0 2.326 . S
O9 C5 1.260 . S
C10 O1 1.240 . S
C10 O2 1.252 . S
O11 In0 2.294 . S
O11 C4 1.240 . S
O12 In0 2.326 . S
O12 C4 1.252 . S
In13 O14 2.294 . S
In13 O15 2.326 . S
In13 O19 2.266 . S
In13 O20 2.326 . S
In13 O21 2.266 . S
In13 O22 2.326 . S
In13 O24 2.294 . S
In13 O25 2.326 . S
O14 In13 2.294 . S
O14 C23 1.240 . S
O15 In13 2.326 . S
O15 C23 1.252 . S
C16 O19 1.252 . S
C16 O20 1.260 . S
C17 O24 1.240 . S
C17 O25 1.252 . S
C18 O21 1.252 . S
C18 O22 1.260 . S
O19 In13 2.266 . S
O19 C16 1.252 . S
O20 In13 2.326 . S
O20 C16 1.260 . S
O21 In13 2.266 . S
O21 C18 1.252 . S
O22 In13 2.326 . S
O22 C18 1.260 . S
C23 O14 1.240 . S
C23 O15 1.252 . S
O24 In13 2.294 . S
O24 C17 1.240 . S
O25 In13 2.326 . S
O25 C17 1.252 . S
In26 O27 2.294 . S
In26 O28 2.326 . S
In26 O32 2.266 . S
In26 O33 2.326 . S
In26 O34 2.266 . S
In26 O35 2.326 . S
In26 O37 2.294 . S
In26 O38 2.326 . S
O27 In26 2.294 . S
O27 C36 1.240 . S
O28 In26 2.326 . S
O28 C36 1.252 . S
C29 O32 1.252 . S
C29 O33 1.260 . S
C30 O37 1.240 . S
C30 O38 1.252 . S
C31 O34 1.252 . S
C31 O35 1.260 . S
O32 In26 2.266 . S
O32 C29 1.252 . S
O33 In26 2.326 . S
O33 C29 1.260 . S
O34 In26 2.266 . S
O34 C31 1.252 . S
O35 In26 2.326 . S
O35 C31 1.260 . S
C36 O27 1.240 . S
C36 O28 1.252 . S
O37 In26 2.294 . S
O37 C30 1.240 . S
O38 In26 2.326 . S
O38 C30 1.252 . S
In39 O40 2.294 . S
In39 O41 2.326 . S
In39 O45 2.266 . S
In39 O46 2.326 . S
In39 O47 2.266 . S
In39 O48 2.326 . S
In39 O50 2.294 . S
In39 O51 2.326 . S
O40 In39 2.294 . S
O40 C49 1.240 . S
O41 In39 2.326 . S
O41 C49 1.252 . S
C42 O45 1.252 . S
C42 O46 1.260 . S
C43 O50 1.240 . S
C43 O51 1.252 . S
C44 O47 1.252 . S
C44 O48 1.260 . S
O45 In39 2.266 . S
O45 C42 1.252 . S
O46 In39 2.326 . S
O46 C42 1.260 . S
O47 In39 2.266 . S
O47 C44 1.252 . S
O48 In39 2.326 . S
O48 C44 1.260 . S
C49 O40 1.240 . S
C49 O41 1.252 . S
O50 In39 2.294 . S
O50 C43 1.240 . S
O51 In39 2.326 . S
O51 C43 1.252 . S
In52 O53 2.294 . S
In52 O54 2.326 . S
In52 O58 2.266 . S
In52 O59 2.326 . S
In52 O60 2.266 . S
In52 O61 2.326 . S
In52 O63 2.294 . S
In52 O64 2.326 . S
O53 In52 2.294 . S
O53 C62 1.240 . S
O54 In52 2.326 . S
O54 C62 1.252 . S
C55 O58 1.252 . S
C55 O59 1.260 . S
C56 O63 1.240 . S
C56 O64 1.252 . S
C57 O60 1.252 . S
C57 O61 1.260 . S
O58 In52 2.266 . S
O58 C55 1.252 . S
O59 In52 2.326 . S
O59 C55 1.260 . S
O60 In52 2.266 . S
O60 C57 1.252 . S
O61 In52 2.326 . S
O61 C57 1.260 . S
C62 O53 1.240 . S
C62 O54 1.252 . S
O63 In52 2.294 . S
O63 C56 1.240 . S
O64 In52 2.326 . S
O64 C56 1.252 . S
In65 O66 2.294 . S
In65 O67 2.326 . S
In65 O71 2.266 . S
In65 O72 2.326 . S
In65 O73 2.266 . S
In65 O74 2.326 . S
In65 O76 2.294 . S
In65 O77 2.326 . S
O66 In65 2.294 . S
O66 C75 1.240 . S
O67 In65 2.326 . S
O67 C75 1.252 . S
C68 O71 1.252 . S
C68 O72 1.260 . S
C69 O76 1.240 . S
C69 O77 1.252 . S
C70 O73 1.252 . S
C70 O74 1.260 . S
O71 In65 2.266 . S
O71 C68 1.252 . S
O72 In65 2.326 . S
O72 C68 1.260 . S
O73 In65 2.266 . S
O73 C70 1.252 . S
O74 In65 2.326 . S
O74 C70 1.260 . S
C75 O66 1.240 . S
C75 O67 1.252 . S
O76 In65 2.294 . S
O76 C69 1.240 . S
O77 In65 2.326 . S
O77 C69 1.252 . S
In78 O79 2.294 . S
In78 O80 2.326 . S
In78 O84 2.266 . S
In78 O85 2.326 . S
In78 O86 2.266 . S
In78 O87 2.326 . S
In78 O89 2.294 . S
In78 O90 2.326 . S
O79 In78 2.294 . S
O79 C88 1.240 . S
O80 In78 2.326 . S
O80 C88 1.252 . S
C81 O84 1.252 . S
C81 O85 1.260 . S
C82 O89 1.240 . S
C82 O90 1.252 . S
C83 O86 1.252 . S
C83 O87 1.260 . S
O84 In78 2.266 . S
O84 C81 1.252 . S
O85 In78 2.326 . S
O85 C81 1.260 . S
O86 In78 2.266 . S
O86 C83 1.252 . S
O87 In78 2.326 . S
O87 C83 1.260 . S
C88 O79 1.240 . S
C88 O80 1.252 . S
O89 In78 2.294 . S
O89 C82 1.240 . S
O90 In78 2.326 . S
O90 C82 1.252 . S
In91 O92 2.294 . S
In91 O93 2.326 . S
In91 O97 2.266 . S
In91 O98 2.326 . S
In91 O99 2.266 . S
In91 O100 2.326 . S
In91 O102 2.294 . S
In91 O103 2.326 . S
O92 In91 2.294 . S
O92 C101 1.240 . S
O93 In91 2.326 . S
O93 C101 1.252 . S
C94 O97 1.252 . S
C94 O98 1.260 . S
C95 O102 1.240 . S
C95 O103 1.252 . S
C96 O99 1.252 . S
C96 O100 1.260 . S
O97 In91 2.266 . S
O97 C94 1.252 . S
O98 In91 2.326 . S
O98 C94 1.260 . S
O99 In91 2.266 . S
O99 C96 1.252 . S
O100 In91 2.326 . S
O100 C96 1.260 . S
C101 O92 1.240 . S
C101 O93 1.252 . S
O102 In91 2.294 . S
O102 C95 1.240 . S
O103 In91 2.326 . S
O103 C95 1.252 . S
In104 O105 2.294 . S
In104 O106 2.326 . S
In104 O110 2.266 . S
In104 O111 2.326 . S
In104 O112 2.266 . S
In104 O113 2.326 . S
In104 O115 2.294 . S
In104 O116 2.326 . S
O105 In104 2.294 . S
O105 C114 1.240 . S
O106 In104 2.326 . S
O106 C114 1.252 . S
C107 O110 1.252 . S
C107 O111 1.260 . S
C108 O115 1.240 . S
C108 O116 1.252 . S
C109 O112 1.252 . S
C109 O113 1.260 . S
O110 In104 2.266 . S
O110 C107 1.252 . S
O111 In104 2.326 . S
O111 C107 1.260 . S
O112 In104 2.266 . S
O112 C109 1.252 . S
O113 In104 2.326 . S
O113 C109 1.260 . S
C114 O105 1.240 . S
C114 O106 1.252 . S
O115 In104 2.294 . S
O115 C108 1.240 . S
O116 In104 2.326 . S
O116 C108 1.252 . S
In117 O118 2.294 . S
In117 O119 2.326 . S
In117 O123 2.266 . S
In117 O124 2.326 . S
In117 O125 2.266 . S
In117 O126 2.326 . S
In117 O128 2.294 . S
In117 O129 2.326 . S
O118 In117 2.294 . S
O118 C127 1.240 . S
O119 In117 2.326 . S
O119 C127 1.252 . S
C120 O123 1.252 . S
C120 O124 1.260 . S
C121 O128 1.240 . S
C121 O129 1.252 . S
C122 O125 1.252 . S
C122 O126 1.260 . S
O123 In117 2.266 . S
O123 C120 1.252 . S
O124 In117 2.326 . S
O124 C120 1.260 . S
O125 In117 2.266 . S
O125 C122 1.252 . S
O126 In117 2.326 . S
O126 C122 1.260 . S
C127 O118 1.240 . S
C127 O119 1.252 . S
O128 In117 2.294 . S
O128 C121 1.240 . S
O129 In117 2.326 . S
O129 C121 1.252 . S
In130 O131 2.294 . S
In130 O132 2.326 . S
In130 O136 2.266 . S
In130 O137 2.326 . S
In130 O138 2.266 . S
In130 O139 2.326 . S
In130 O141 2.294 . S
In130 O142 2.326 . S
O131 In130 2.294 . S
O131 C140 1.240 . S
O132 In130 2.326 . S
O132 C140 1.252 . S
C133 O136 1.252 . S
C133 O137 1.260 . S
C134 O141 1.240 . S
C134 O142 1.252 . S
C135 O138 1.252 . S
C135 O139 1.260 . S
O136 In130 2.266 . S
O136 C133 1.252 . S
O137 In130 2.326 . S
O137 C133 1.260 . S
O138 In130 2.266 . S
O138 C135 1.252 . S
O139 In130 2.326 . S
O139 C135 1.260 . S
C140 O131 1.240 . S
C140 O132 1.252 . S
O141 In130 2.294 . S
O141 C134 1.240 . S
O142 In130 2.326 . S
O142 C134 1.252 . S
In143 O144 2.294 . S
In143 O145 2.326 . S
In143 O149 2.266 . S
In143 O150 2.326 . S
In143 O151 2.266 . S
In143 O152 2.326 . S
In143 O154 2.294 . S
In143 O155 2.326 . S
O144 In143 2.294 . S
O144 C153 1.240 . S
O145 In143 2.326 . S
O145 C153 1.252 . S
C146 O149 1.252 . S
C146 O150 1.260 . S
C147 O154 1.240 . S
C147 O155 1.252 . S
C148 O151 1.252 . S
C148 O152 1.260 . S
O149 In143 2.266 . S
O149 C146 1.252 . S
O150 In143 2.326 . S
O150 C146 1.260 . S
O151 In143 2.266 . S
O151 C148 1.252 . S
O152 In143 2.326 . S
O152 C148 1.260 . S
C153 O144 1.240 . S
C153 O145 1.252 . S
O154 In143 2.294 . S
O154 C147 1.240 . S
O155 In143 2.326 . S
O155 C147 1.252 . S
C156 C157 1.363 . S
C156 C162 1.379 . S
C156 N164 1.356 . S
C157 C156 1.363 . S
C157 C163 1.363 . S
C158 C159 1.363 . S
C158 C163 1.379 . S
C158 N165 1.356 . S
C159 C158 1.363 . S
C159 C162 1.363 . S
N160 C162 1.356 . S
N160 H172 0.984 . S
N160 H173 0.985 . S
N161 C163 1.356 . S
N161 H166 0.984 . S
N161 H167 0.985 . S
C162 C156 1.379 . S
C162 C159 1.363 . S
C162 N160 1.356 . S
C163 C157 1.363 . S
C163 C158 1.379 . S
C163 N161 1.356 . S
N164 C156 1.356 . S
N164 H170 0.984 . S
N164 H171 0.984 . S
N165 C158 1.356 . S
N165 H168 0.984 . S
N165 H169 0.985 . S
H166 N161 0.984 . S
H167 N161 0.985 . S
H168 N165 0.984 . S
H169 N165 0.985 . S
H170 N164 0.984 . S
H171 N164 0.984 . S
H172 N160 0.984 . S
H173 N160 0.985 . S
C174 C175 1.363 . S
C174 C180 1.379 . S
C174 N182 1.356 . S
C175 C174 1.363 . S
C175 C181 1.363 . S
C176 C177 1.363 . S
C176 C181 1.379 . S
C176 N183 1.356 . S
C177 C176 1.363 . S
C177 C180 1.363 . S
N178 C180 1.356 . S
N178 H190 0.984 . S
N178 H191 0.985 . S
N179 C181 1.356 . S
N179 H184 0.984 . S
N179 H185 0.985 . S
C180 C174 1.379 . S
C180 C177 1.363 . S
C180 N178 1.356 . S
C181 C175 1.363 . S
C181 C176 1.379 . S
C181 N179 1.356 . S
N182 C174 1.356 . S
N182 H188 0.984 . S
N182 H189 0.984 . S
N183 C176 1.356 . S
N183 H186 0.984 . S
N183 H187 0.985 . S
H184 N179 0.984 . S
H185 N179 0.985 . S
H186 N183 0.984 . S
H187 N183 0.985 . S
H188 N182 0.984 . S
H189 N182 0.984 . S
H190 N178 0.984 . S
H191 N178 0.985 . S
C192 C193 1.363 . S
C192 C198 1.379 . S
C192 N200 1.356 . S
C193 C192 1.363 . S
C193 C199 1.363 . S
C194 C195 1.363 . S
C194 C199 1.379 . S
C194 N201 1.356 . S
C195 C194 1.363 . S
C195 C198 1.363 . S
N196 C198 1.356 . S
N196 H208 0.984 . S
N196 H209 0.985 . S
N197 C199 1.356 . S
N197 H202 0.984 . S
N197 H203 0.985 . S
C198 C192 1.379 . S
C198 C195 1.363 . S
C198 N196 1.356 . S
C199 C193 1.363 . S
C199 C194 1.379 . S
C199 N197 1.356 . S
N200 C192 1.356 . S
N200 H206 0.984 . S
N200 H207 0.984 . S
N201 C194 1.356 . S
N201 H204 0.984 . S
N201 H205 0.985 . S
H202 N197 0.984 . S
H203 N197 0.985 . S
H204 N201 0.984 . S
H205 N201 0.985 . S
H206 N200 0.984 . S
H207 N200 0.984 . S
H208 N196 0.984 . S
H209 N196 0.985 . S
C210 C211 1.363 . S
C210 C216 1.379 . S
C210 N218 1.356 . S
C211 C210 1.363 . S
C211 C217 1.363 . S
C212 C213 1.363 . S
C212 C217 1.379 . S
C212 N219 1.356 . S
C213 C212 1.363 . S
C213 C216 1.363 . S
N214 C216 1.356 . S
N214 H226 0.984 . S
N214 H227 0.985 . S
N215 C217 1.356 . S
N215 H220 0.984 . S
N215 H221 0.985 . S
C216 C210 1.379 . S
C216 C213 1.363 . S
C216 N214 1.356 . S
C217 C211 1.363 . S
C217 C212 1.379 . S
C217 N215 1.356 . S
N218 C210 1.356 . S
N218 H224 0.984 . S
N218 H225 0.984 . S
N219 C212 1.356 . S
N219 H222 0.984 . S
N219 H223 0.985 . S
H220 N215 0.984 . S
H221 N215 0.985 . S
H222 N219 0.984 . S
H223 N219 0.985 . S
H224 N218 0.984 . S
H225 N218 0.984 . S
H226 N214 0.984 . S
H227 N214 0.985 . S
C228 C229 1.363 . S
C228 C234 1.379 . S
C228 N236 1.356 . S
C229 C228 1.363 . S
C229 C235 1.363 . S
C230 C231 1.363 . S
C230 C235 1.379 . S
C230 N237 1.356 . S
C231 C230 1.363 . S
C231 C234 1.363 . S
N232 C234 1.356 . S
N232 H244 0.984 . S
N232 H245 0.985 . S
N233 C235 1.356 . S
N233 H238 0.984 . S
N233 H239 0.985 . S
C234 C228 1.379 . S
C234 C231 1.363 . S
C234 N232 1.356 . S
C235 C229 1.363 . S
C235 C230 1.379 . S
C235 N233 1.356 . S
N236 C228 1.356 . S
N236 H242 0.984 . S
N236 H243 0.984 . S
N237 C230 1.356 . S
N237 H240 0.984 . S
N237 H241 0.985 . S
H238 N233 0.984 . S
H239 N233 0.985 . S
H240 N237 0.984 . S
H241 N237 0.985 . S
H242 N236 0.984 . S
H243 N236 0.984 . S
H244 N232 0.984 . S
H245 N232 0.985 . S
C246 C247 1.363 . S
C246 C252 1.379 . S
C246 N254 1.356 . S
C247 C246 1.363 . S
C247 C253 1.363 . S
C248 C249 1.363 . S
C248 C253 1.379 . S
C248 N255 1.356 . S
C249 C248 1.363 . S
C249 C252 1.363 . S
N250 C252 1.356 . S
N250 H262 0.984 . S
N250 H263 0.985 . S
N251 C253 1.356 . S
N251 H256 0.984 . S
N251 H257 0.985 . S
C252 C246 1.379 . S
C252 C249 1.363 . S
C252 N250 1.356 . S
C253 C247 1.363 . S
C253 C248 1.379 . S
C253 N251 1.356 . S
N254 C246 1.356 . S
N254 H260 0.984 . S
N254 H261 0.984 . S
N255 C248 1.356 . S
N255 H258 0.984 . S
N255 H259 0.985 . S
H256 N251 0.984 . S
H257 N251 0.985 . S
H258 N255 0.984 . S
H259 N255 0.985 . S
H260 N254 0.984 . S
H261 N254 0.984 . S
H262 N250 0.984 . S
H263 N250 0.985 . S
C264 C265 1.363 . S
C264 C270 1.379 . S
C264 N272 1.356 . S
C265 C264 1.363 . S
C265 C271 1.363 . S
C266 C267 1.363 . S
C266 C271 1.379 . S
C266 N273 1.356 . S
C267 C266 1.363 . S
C267 C270 1.363 . S
N268 C270 1.356 . S
N268 H280 0.984 . S
N268 H281 0.985 . S
N269 C271 1.356 . S
N269 H274 0.984 . S
N269 H275 0.985 . S
C270 C264 1.379 . S
C270 C267 1.363 . S
C270 N268 1.356 . S
C271 C265 1.363 . S
C271 C266 1.379 . S
C271 N269 1.356 . S
N272 C264 1.356 . S
N272 H278 0.984 . S
N272 H279 0.984 . S
N273 C266 1.356 . S
N273 H276 0.984 . S
N273 H277 0.985 . S
H274 N269 0.984 . S
H275 N269 0.985 . S
H276 N273 0.984 . S
H277 N273 0.985 . S
H278 N272 0.984 . S
H279 N272 0.984 . S
H280 N268 0.984 . S
H281 N268 0.985 . S
C282 C283 1.363 . S
C282 C288 1.379 1_655 S
C282 N290 1.356 . S
C283 C282 1.363 . S
C283 C289 1.363 . S
C284 C285 1.363 . S
C284 C289 1.379 1_455 S
C284 N291 1.356 . S
C285 C284 1.363 . S
C285 C288 1.363 . S
N286 C288 1.356 . S
N286 H298 0.984 . S
N286 H299 0.985 . S
N287 C289 1.356 . S
N287 H292 0.984 . S
N287 H293 0.985 . S
C288 C282 1.379 1_455 S
C288 C285 1.363 . S
C288 N286 1.356 . S
C289 C283 1.363 . S
C289 C284 1.379 1_655 S
C289 N287 1.356 . S
N290 C282 1.356 . S
N290 H296 0.984 . S
N290 H297 0.984 . S
N291 C284 1.356 . S
N291 H294 0.984 . S
N291 H295 0.985 . S
H292 N287 0.984 . S
H293 N287 0.985 . S
H294 N291 0.984 . S
H295 N291 0.985 . S
H296 N290 0.984 . S
H297 N290 0.984 . S
H298 N286 0.984 . S
H299 N286 0.985 . S
C300 C301 1.363 . S
C300 C306 1.379 1_545 S
C300 N308 1.356 . S
C301 C300 1.363 . S
C301 C307 1.363 . S
C302 C303 1.363 . S
C302 C307 1.379 1_565 S
C302 N309 1.356 . S
C303 C302 1.363 . S
C303 C306 1.363 . S
N304 C306 1.356 . S
N304 H316 0.981 1_565 S
N304 H317 0.985 . S
N305 C307 1.356 . S
N305 H310 0.984 . S
N305 H311 0.981 1_545 S
C306 C300 1.379 1_565 S
C306 C303 1.363 . S
C306 N304 1.356 . S
C307 C301 1.363 . S
C307 C302 1.379 1_545 S
C307 N305 1.356 . S
N308 C300 1.356 . S
N308 H314 0.984 . S
N308 H315 0.984 . S
N309 C302 1.356 . S
N309 H312 0.984 . S
N309 H313 0.985 . S
H310 N305 0.984 . S
H311 N305 0.981 1_565 S
H312 N309 0.984 . S
H313 N309 0.985 . S
H314 N308 0.984 . S
H315 N308 0.984 . S
H316 N304 0.981 1_545 S
H317 N304 0.985 . S
C318 C319 1.363 . S
C318 C324 1.379 . S
C318 N326 1.356 . S
C319 C318 1.363 . S
C319 C325 1.363 . S
C320 C321 1.363 . S
C320 C325 1.379 . S
C320 N327 1.356 . S
C321 C320 1.363 . S
C321 C324 1.363 . S
N322 C324 1.356 . S
N322 H334 0.984 . S
N322 H335 0.985 . S
N323 C325 1.356 . S
N323 H328 0.984 . S
N323 H329 0.985 . S
C324 C318 1.379 . S
C324 C321 1.363 . S
C324 N322 1.356 . S
C325 C319 1.363 . S
C325 C320 1.379 . S
C325 N323 1.356 . S
N326 C318 1.356 . S
N326 H332 0.984 . S
N326 H333 0.984 . S
N327 C320 1.356 . S
N327 H330 0.984 . S
N327 H331 0.985 . S
H328 N323 0.984 . S
H329 N323 0.985 . S
H330 N327 0.984 . S
H331 N327 0.985 . S
H332 N326 0.984 . S
H333 N326 0.984 . S
H334 N322 0.984 . S
H335 N322 0.985 . S
C336 C337 1.363 . S
C336 C342 1.379 1_655 S
C336 N344 1.356 . S
C337 C336 1.363 . S
C337 C343 1.363 . S
C338 C339 1.363 . S
C338 C343 1.379 1_455 S
C338 N345 1.356 . S
C339 C338 1.363 . S
C339 C342 1.363 . S
N340 C342 1.356 . S
N340 H352 0.984 . S
N340 H353 0.985 . S
N341 C343 1.356 . S
N341 H346 0.984 . S
N341 H347 0.985 . S
C342 C336 1.379 1_455 S
C342 C339 1.363 . S
C342 N340 1.356 . S
C343 C337 1.363 . S
C343 C338 1.379 1_655 S
C343 N341 1.356 . S
N344 C336 1.356 . S
N344 H350 0.984 1_655 S
N344 H351 0.984 . S
N345 C338 1.356 . S
N345 H348 0.984 . S
N345 H349 0.985 1_455 S
H346 N341 0.984 . S
H347 N341 0.985 . S
H348 N345 0.984 . S
H349 N345 0.985 1_655 S
H350 N344 0.984 1_455 S
H351 N344 0.984 . S
H352 N340 0.984 . S
H353 N340 0.985 . S
C354 C355 1.363 . S
C354 C360 1.379 1_564 S
C354 N362 1.356 . S
C355 C354 1.363 . S
C355 C361 1.363 . S
C356 C357 1.363 . S
C356 C361 1.379 1_546 S
C356 N363 1.356 . S
C357 C356 1.363 . S
C357 C360 1.363 . S
N358 C360 1.356 . S
N358 H370 0.984 . S
N358 H371 0.985 . S
N359 C361 1.356 . S
N359 H364 0.984 . S
N359 H365 0.985 . S
C360 C354 1.379 1_546 S
C360 C357 1.363 . S
C360 N358 1.356 . S
C361 C355 1.363 . S
C361 C356 1.379 1_564 S
C361 N359 1.356 . S
N362 C354 1.356 . S
N362 H368 0.984 . S
N362 H369 0.984 . S
N363 C356 1.356 . S
N363 H366 0.984 . S
N363 H367 0.985 . S
H364 N359 0.984 . S
H365 N359 0.985 . S
H366 N363 0.984 . S
H367 N363 0.985 . S
H368 N362 0.984 . S
H369 N362 0.984 . S
H370 N358 0.984 . S
H371 N358 0.985 . S
C372 C373 1.363 . S
C372 C378 1.379 . S
C372 N380 1.356 . S
C373 C372 1.363 . S
C373 C379 1.363 1_554 S
C374 C375 1.363 . S
C374 C379 1.379 . S
C374 N381 1.356 . S
C375 C374 1.363 . S
C375 C378 1.363 1_556 S
N376 C378 1.356 . S
N376 H388 0.984 . S
N376 H389 0.974 1_554 S
N377 C379 1.356 . S
N377 H382 0.984 1_556 S
N377 H383 0.985 . S
C378 C372 1.379 . S
C378 C375 1.363 1_554 S
C378 N376 1.356 . S
C379 C373 1.363 1_556 S
C379 C374 1.379 . S
C379 N377 1.356 . S
N380 C372 1.356 . S
N380 H386 0.984 . S
N380 H387 0.984 . S
N381 C374 1.356 . S
N381 H384 0.984 . S
N381 H385 0.985 . S
H382 N377 0.984 1_554 S
H383 N377 0.985 . S
H384 N381 0.984 . S
H385 N381 0.985 . S
H386 N380 0.984 . S
H387 N380 0.984 . S
H388 N376 0.984 . S
H389 N376 0.974 1_556 S
C390 C391 1.363 . S
C390 C396 1.379 . S
C390 N398 1.356 . S
C391 C390 1.363 . S
C391 C397 1.363 . S
C392 C393 1.363 . S
C392 C397 1.379 1_455 S
C392 N399 1.356 . S
C393 C392 1.363 . S
C393 C396 1.363 1_455 S
N394 C396 1.356 . S
N394 H406 0.984 . S
N394 H407 0.985 1_655 S
N395 C397 1.356 . S
N395 H400 0.984 . S
N395 H401 0.985 . S
C396 C390 1.379 . S
C396 C393 1.363 1_655 S
C396 N394 1.356 . S
C397 C391 1.363 . S
C397 C392 1.379 1_655 S
C397 N395 1.356 . S
N398 C390 1.356 . S
N398 H404 0.984 . S
N398 H405 0.984 . S
N399 C392 1.356 . S
N399 H402 0.984 . S
N399 H403 0.985 . S
H400 N395 0.984 . S
H401 N395 0.985 . S
H402 N399 0.984 . S
H403 N399 0.985 . S
H404 N398 0.984 . S
H405 N398 0.984 . S
H406 N394 0.984 . S
H407 N394 0.985 1_455 S
C408 C409 1.363 1_565 S
C408 C414 1.379 . S
C408 N416 1.356 . S
C409 C408 1.363 1_545 S
C409 C415 1.363 . S
C410 C411 1.363 . S
C410 C415 1.379 1_565 S
C410 N417 1.356 . S
C411 C410 1.363 . S
C411 C414 1.363 . S
N412 C414 1.356 . S
N412 H424 0.984 . S
N412 H425 0.985 . S
N413 C415 1.356 . S
N413 H418 0.984 . S
N413 H419 0.985 . S
C414 C408 1.379 . S
C414 C411 1.363 . S
C414 N412 1.356 . S
C415 C409 1.363 . S
C415 C410 1.379 1_545 S
C415 N413 1.356 . S
N416 C408 1.356 . S
N416 H422 0.984 . S
N416 H423 0.984 1_565 S
N417 C410 1.356 . S
N417 H420 0.984 . S
N417 H421 0.985 . S
H418 N413 0.984 . S
H419 N413 0.985 . S
H420 N417 0.984 . S
H421 N417 0.985 . S
H422 N416 0.984 . S
H423 N416 0.984 1_545 S
H424 N412 0.984 . S
H425 N412 0.985 . S
C426 C427 1.363 . S
C426 C432 1.379 . S
C426 N434 1.356 . S
C427 C426 1.363 . S
C427 C433 1.363 . S
C428 C429 1.363 . S
C428 C433 1.379 . S
C428 N435 1.356 . S
C429 C428 1.363 . S
C429 C432 1.363 . S
N430 C432 1.356 . S
N430 H442 0.984 . S
N430 H443 0.985 . S
N431 C433 1.356 . S
N431 H436 0.984 . S
N431 H437 0.985 . S
C432 C426 1.379 . S
C432 C429 1.363 . S
C432 N430 1.356 . S
C433 C427 1.363 . S
C433 C428 1.379 . S
C433 N431 1.356 . S
N434 C426 1.356 . S
N434 H440 0.984 . S
N434 H441 0.984 . S
N435 C428 1.356 . S
N435 H438 0.984 . S
N435 H439 0.985 . S
H436 N431 0.984 . S
H437 N431 0.985 . S
H438 N435 0.984 . S
H439 N435 0.985 . S
H440 N434 0.984 . S
H441 N434 0.984 . S
H442 N430 0.984 . S
H443 N430 0.985 . S
C444 C445 1.363 . S
C444 C450 1.379 1_455 S
C444 N452 1.356 . S
C445 C444 1.363 . S
C445 C451 1.363 . S
C446 C447 1.363 1_455 S
C446 C451 1.379 . S
C446 N453 1.356 . S
C447 C446 1.363 1_655 S
C447 C450 1.363 . S
N448 C450 1.356 . S
N448 H460 0.984 . S
N448 H461 0.985 . S
N449 C451 1.356 . S
N449 H454 0.984 . S
N449 H455 0.985 . S
C450 C444 1.379 1_655 S
C450 C447 1.363 . S
C450 N448 1.356 . S
C451 C445 1.363 . S
C451 C446 1.379 . S
C451 N449 1.356 . S
N452 C444 1.356 . S
N452 H458 0.984 1_455 S
N452 H459 0.984 . S
N453 C446 1.356 . S
N453 H456 0.984 1_455 S
N453 H457 0.985 . S
H454 N449 0.984 . S
H455 N449 0.985 . S
H456 N453 0.984 1_655 S
H457 N453 0.985 . S
H458 N452 0.984 1_655 S
H459 N452 0.984 . S
H460 N448 0.984 . S
H461 N448 0.985 . S
C462 C463 1.363 . S
C462 C468 1.379 . S
C462 N470 1.356 . S
C463 C462 1.363 . S
C463 C469 1.363 . S
C464 C465 1.363 . S
C464 C469 1.379 1_565 S
C464 N471 1.356 . S
C465 C464 1.363 . S
C465 C468 1.363 1_565 S
N466 C468 1.356 . S
N466 H478 0.984 . S
N466 H479 0.985 1_545 S
N467 C469 1.356 . S
N467 H472 0.984 . S
N467 H473 0.985 . S
C468 C462 1.379 . S
C468 C465 1.363 1_545 S
C468 N466 1.356 . S
C469 C463 1.363 . S
C469 C464 1.379 1_545 S
C469 N467 1.356 . S
N470 C462 1.356 . S
N470 H476 0.984 . S
N470 H477 0.984 . S
N471 C464 1.356 . S
N471 H474 0.984 . S
N471 H475 0.985 . S
H472 N467 0.984 . S
H473 N467 0.985 . S
H474 N471 0.984 . S
H475 N471 0.985 . S
H476 N470 0.984 . S
H477 N470 0.984 . S
H478 N466 0.984 . S
H479 N466 0.985 1_565 S
C480 C481 1.363 . S
C480 C486 1.379 . S
C480 N488 1.356 . S
C481 C480 1.363 . S
C481 C487 1.363 . S
C482 C483 1.363 . S
C482 C487 1.379 . S
C482 N489 1.356 . S
C483 C482 1.363 . S
C483 C486 1.363 . S
N484 C486 1.356 . S
N484 H496 0.984 . S
N484 H497 0.985 . S
N485 C487 1.356 . S
N485 H490 0.984 . S
N485 H491 0.985 . S
C486 C480 1.379 . S
C486 C483 1.363 . S
C486 N484 1.356 . S
C487 C481 1.363 . S
C487 C482 1.379 . S
C487 N485 1.356 . S
N488 C480 1.356 . S
N488 H494 0.984 . S
N488 H495 0.984 . S
N489 C482 1.356 . S
N489 H492 0.984 . S
N489 H493 0.985 . S
H490 N485 0.984 . S
H491 N485 0.985 . S
H492 N489 0.984 . S
H493 N489 0.985 . S
H494 N488 0.984 . S
H495 N488 0.984 . S
H496 N484 0.984 . S
H497 N484 0.985 . S
C498 C499 1.363 . S
C498 C504 1.379 1_655 S
C498 N506 1.356 . S
C499 C498 1.363 . S
C499 C505 1.363 1_556 S
C500 C501 1.363 1_655 S
C500 C505 1.379 . S
C500 N507 1.356 . S
C501 C500 1.363 1_455 S
C501 C504 1.363 1_554 S
N502 C504 1.356 . S
N502 H514 0.984 . S
N502 H515 0.994 . S
N503 C505 1.356 . S
N503 H508 0.984 1_554 S
N503 H509 0.985 . S
C504 C498 1.379 1_455 S
C504 C501 1.363 1_556 S
C504 N502 1.356 . S
C505 C499 1.363 1_554 S
C505 C500 1.379 . S
C505 N503 1.356 . S
N506 C498 1.356 . S
N506 H512 0.984 1_655 S
N506 H513 0.984 . S
N507 C500 1.356 . S
N507 H510 0.984 1_655 S
N507 H511 0.985 . S
H508 N503 0.984 1_556 S
H509 N503 0.985 . S
H510 N507 0.984 1_455 S
H511 N507 0.985 . S
H512 N506 0.984 1_455 S
H513 N506 0.984 . S
H514 N502 0.984 . S
H515 N502 0.994 . S
C516 C517 1.363 . S
C516 C522 1.379 . S
C516 N524 1.356 . S
C517 C516 1.363 . S
C517 C523 1.363 . S
C518 C519 1.363 . S
C518 C523 1.379 1_545 S
C518 N525 1.356 . S
C519 C518 1.363 . S
C519 C522 1.363 1_545 S
N520 C522 1.356 . S
N520 H532 0.984 . S
N520 H533 0.985 1_565 S
N521 C523 1.356 . S
N521 H526 0.984 . S
N521 H527 0.985 . S
C522 C516 1.379 . S
C522 C519 1.363 1_565 S
C522 N520 1.356 . S
C523 C517 1.363 . S
C523 C518 1.379 1_565 S
C523 N521 1.356 . S
N524 C516 1.356 . S
N524 H530 0.984 . S
N524 H531 0.984 . S
N525 C518 1.356 . S
N525 H528 0.984 . S
N525 H529 0.985 . S
H526 N521 0.984 . S
H527 N521 0.985 . S
H528 N525 0.984 . S
H529 N525 0.985 . S
H530 N524 0.984 . S
H531 N524 0.984 . S
H532 N520 0.984 . S
H533 N520 0.985 1_545 S
C534 C535 1.363 . S
C534 C540 1.379 . S
C534 N542 1.356 . S
C535 C534 1.363 . S
C535 C541 1.363 . S
C536 C537 1.363 . S
C536 C541 1.379 . S
C536 N543 1.356 . S
C537 C536 1.363 . S
C537 C540 1.363 . S
N538 C540 1.356 . S
N538 H550 0.984 . S
N538 H551 0.985 . S
N539 C541 1.356 . S
N539 H544 0.984 . S
N539 H545 0.985 . S
C540 C534 1.379 . S
C540 C537 1.363 . S
C540 N538 1.356 . S
C541 C535 1.363 . S
C541 C536 1.379 . S
C541 N539 1.356 . S
N542 C534 1.356 . S
N542 H548 0.984 . S
N542 H549 0.984 . S
N543 C536 1.356 . S
N543 H546 0.984 . S
N543 H547 0.985 . S
H544 N539 0.984 . S
H545 N539 0.985 . S
H546 N543 0.984 . S
H547 N543 0.985 . S
H548 N542 0.984 . S
H549 N542 0.984 . S
H550 N538 0.984 . S
H551 N538 0.985 . S
C552 C553 1.363 . S
C552 C558 1.379 1_455 S
C552 N560 1.356 . S
C553 C552 1.363 . S
C553 C559 1.363 . S
C554 C555 1.363 1_455 S
C554 C559 1.379 . S
C554 N561 1.356 . S
C555 C554 1.363 1_655 S
C555 C558 1.363 . S
N556 C558 1.356 . S
N556 H568 0.984 . S
N556 H569 0.985 . S
N557 C559 1.356 . S
N557 H562 0.984 . S
N557 H563 0.985 . S
C558 C552 1.379 1_655 S
C558 C555 1.363 . S
C558 N556 1.356 . S
C559 C553 1.363 . S
C559 C554 1.379 . S
C559 N557 1.356 . S
N560 C552 1.356 . S
N560 H566 0.984 . S
N560 H567 0.984 . S
N561 C554 1.356 . S
N561 H564 0.984 1_455 S
N561 H565 0.985 . S
H562 N557 0.984 . S
H563 N557 0.985 . S
H564 N561 0.984 1_655 S
H565 N561 0.985 . S
H566 N560 0.984 . S
H567 N560 0.984 . S
H568 N556 0.984 . S
H569 N556 0.985 . S
C570 C571 1.363 1_545 S
C570 C576 1.379 . S
C570 N578 1.356 . S
C571 C570 1.363 1_565 S
C571 C577 1.363 . S
C572 C573 1.363 . S
C572 C577 1.379 1_545 S
C572 N579 1.356 . S
C573 C572 1.363 . S
C573 C576 1.363 . S
N574 C576 1.356 . S
N574 H586 0.984 . S
N574 H587 0.985 . S
N575 C577 1.356 . S
N575 H580 0.984 . S
N575 H581 0.985 . S
C576 C570 1.379 . S
C576 C573 1.363 . S
C576 N574 1.356 . S
C577 C571 1.363 . S
C577 C572 1.379 1_565 S
C577 N575 1.356 . S
N578 C570 1.356 . S
N578 H584 0.984 . S
N578 H585 0.984 1_545 S
N579 C572 1.356 . S
N579 H582 0.984 . S
N579 H583 0.985 1_545 S
H580 N575 0.984 . S
H581 N575 0.985 . S
H582 N579 0.984 . S
H583 N579 0.985 1_565 S
H584 N578 0.984 . S
H585 N578 0.984 1_565 S
H586 N574 0.984 . S
H587 N574 0.985 . S
C157 C108 1.312 . S
C159 C4 1.312 . S
C175 C17 1.312 . S
C177 C127 1.312 . S
C193 C30 1.312 . S
C195 C140 1.312 . S
C211 C49 1.312 . S
C213 C153 1.312 . S
C229 C88 1.312 . S
C231 C56 1.312 . S
C247 C69 1.312 . S
C249 C95 1.312 . S
C265 C120 1.148 . S
C267 C5 1.148 . S
C283 C18 1.148 . S
C285 C133 1.148 . S
C301 C146 1.148 . S
C303 C31 1.148 . S
C319 C42 1.148 . S
C321 C81 1.148 . S
C337 C96 1.148 . S
C339 C57 1.148 . S
C355 C109 1.148 . S
C357 C70 1.148 . S
C373 C3 1.593 . S
C375 C75 1.601 . S
C391 C16 1.593 . S
C393 C10 1.601 . S
C409 C23 1.601 . S
C411 C29 1.593 . S
C427 C44 1.593 . S
C429 C36 1.601 . S
C445 C55 1.593 . S
C447 C43 1.601 . S
C463 C68 1.593 . S
C465 C62 1.601 . S
C481 C83 1.593 . S
C483 C101 1.601 . S
C499 C94 1.593 . S
C501 C114 1.601 . S
C517 C107 1.593 . S
C519 C121 1.601 . S
C535 C122 1.593 . S
C537 C134 1.601 . S
C553 C135 1.593 . S
C555 C147 1.601 . S
C571 C82 1.601 . S
C573 C148 1.593 . S
