# Generated by pormake.
# Topology msp, (4)-cn, num edge types: 1
# Building blocks:
#     Node 0, Type 0, BuildingBlock: GALJAG_clean_sbu_0, # of connection points: 4
#     Node 1, Type 0, BuildingBlock: GALJAG_clean_sbu_0, # of connection points: 4
#     Node 2, Type 0, BuildingBlock: GALJAG_clean_sbu_0, # of connection points: 4
#     Node 3, Type 0, BuildingBlock: GALJAG_clean_sbu_0, # of connection points: 4
#     Node 4, Type 0, BuildingBlock: GALJAG_clean_sbu_0, # of connection points: 4
#     Node 5, Type 0, BuildingBlock: GALJAG_clean_sbu_0, # of connection points: 4
#     Node 6, Type 0, BuildingBlock: GALJAG_clean_sbu_0, # of connection points: 4
#     Node 7, Type 0, BuildingBlock: GALJAG_clean_sbu_0, # of connection points: 4
#     Edge 8, Type (0, 0), BuildingBlock: KIFKEQ_clean_linker_1, # of connection points: 2
#     Edge 9, Type (0, 0), BuildingBlock: KIFKEQ_clean_linker_1, # of connection points: 2
#     Edge 10, Type (0, 0), BuildingBlock: KIFKEQ_clean_linker_1, # of connection points: 2
#     Edge 11, Type (0, 0), BuildingBlock: KIFKEQ_clean_linker_1, # of connection points: 2
#     Edge 12, Type (0, 0), BuildingBlock: KIFKEQ_clean_linker_1, # of connection points: 2
#     Edge 13, Type (0, 0), BuildingBlock: KIFKEQ_clean_linker_1, # of connection points: 2
#     Edge 14, Type (0, 0), BuildingBlock: KIFKEQ_clean_linker_1, # of connection points: 2
#     Edge 15, Type (0, 0), BuildingBlock: KIFKEQ_clean_linker_1, # of connection points: 2
#     Edge 16, Type (0, 0), BuildingBlock: KIFKEQ_clean_linker_1, # of connection points: 2
#     Edge 17, Type (0, 0), BuildingBlock: KIFKEQ_clean_linker_1, # of connection points: 2
#     Edge 18, Type (0, 0), BuildingBlock: KIFKEQ_clean_linker_1, # of connection points: 2
#     Edge 19, Type (0, 0), BuildingBlock: KIFKEQ_clean_linker_1, # of connection points: 2
#     Edge 20, Type (0, 0), BuildingBlock: KIFKEQ_clean_linker_1, # of connection points: 2
#     Edge 21, Type (0, 0), BuildingBlock: KIFKEQ_clean_linker_1, # of connection points: 2
#     Edge 22, Type (0, 0), BuildingBlock: KIFKEQ_clean_linker_1, # of connection points: 2
#     Edge 23, Type (0, 0), BuildingBlock: KIFKEQ_clean_linker_1, # of connection points: 2
# Relax obj value: 0.108
# Max RMSD: 0.183
# Mean RMSD: 0.183
data_MOF--net-msp--node1-GALJAG_clean_sbu_0--edge1-KIFKEQ_clean_linker_1
_symmetry_space_group_name_H-M    P1
_symmetry_Int_Tables_number       1
_symmetry_cell_setting            triclinic
loop_
_symmetry_equiv_pos_as_xyz
'x, y, z'
_cell_length_a     22.016494
_cell_length_b     21.686554
_cell_length_c     44.209623
_cell_angle_alpha  90.00865
_cell_angle_beta   99.636748
_cell_angle_gamma 89.991945
loop_
_atom_site_label
_atom_site_type_symbol
_atom_site_fract_x
_atom_site_fract_y
_atom_site_fract_z
_atom_type_partial_charge
In0 In 0.04347 0.26593 0.37367 0.0
O1 O 0.95404 0.21929 0.35109 0.0
O2 O 0.9708 0.3123 0.33908 0.0
C3 C 0.10783 0.18084 0.41017 0.0
C4 C 0.11296 0.266 0.3293 0.0
C5 C 0.02633 0.35092 0.41623 0.0
O6 O 0.04978 0.17741 0.40309 0.0
O7 O 0.13179 0.22609 0.39878 0.0
O8 O 0.0644 0.35881 0.3981 0.0
O9 O 0.99677 0.30092 0.41254 0.0
C10 C 0.93572 0.26596 0.33486 0.0
O11 O 0.1136 0.31056 0.34792 0.0
O12 O 0.07708 0.22225 0.33308 0.0
In13 In 0.45617 0.26486 0.62817 0.0
O14 O 0.54587 0.21666 0.64949 0.0
O15 O 0.53056 0.30961 0.66215 0.0
C16 C 0.38425 0.1859 0.59164 0.0
C17 C 0.38875 0.26151 0.67328 0.0
C18 C 0.47483 0.34755 0.58504 0.0
O19 O 0.44148 0.17583 0.59949 0.0
O20 O 0.36495 0.23497 0.60207 0.0
O21 O 0.44299 0.36016 0.60558 0.0
O22 O 0.49749 0.29394 0.58666 0.0
C23 C 0.56513 0.26289 0.66589 0.0
O24 O 0.39135 0.30943 0.65708 0.0
O25 O 0.42041 0.21637 0.6667 0.0
In26 In 0.95798 0.7381 0.6272 0.0
O27 O 0.8958 0.6893 0.65641 0.0
O28 O 0.91998 0.78353 0.66586 0.0
C29 C 0.97116 0.65295 0.58415 0.0
C30 C 0.0694 0.74768 0.66291 0.0
C31 C 0.89014 0.81919 0.58987 0.0
O32 O 0.94298 0.64108 0.60619 0.0
O33 O 0.99266 0.70686 0.58424 0.0
O34 O 0.94842 0.82064 0.59424 0.0
O35 O 0.86701 0.77757 0.60427 0.0
C36 C 0.89078 0.73677 0.67256 0.0
O37 O 0.04142 0.79408 0.65005 0.0
O38 O 0.04216 0.69696 0.6568 0.0
In39 In 0.53876 0.73275 0.37292 0.0
O40 O 0.45101 0.78071 0.349 0.0
O41 O 0.46901 0.68889 0.33583 0.0
C42 C 0.59177 0.81933 0.41241 0.0
C43 C 0.61331 0.73687 0.33084 0.0
C44 C 0.52493 0.64337 0.41397 0.0
O45 O 0.53393 0.81276 0.4067 0.0
O46 O 0.62164 0.78316 0.39817 0.0
O47 O 0.56937 0.64324 0.39917 0.0
O48 O 0.48761 0.68733 0.40748 0.0
C49 C 0.43409 0.73529 0.33164 0.0
O50 O 0.60609 0.68784 0.34547 0.0
O51 O 0.58293 0.78288 0.33754 0.0
In52 In 0.53995 0.7644 0.8748 0.0
O53 O 0.61461 0.80712 0.85125 0.0
O54 O 0.57475 0.72118 0.83455 0.0
C55 C 0.52645 0.85362 0.91604 0.0
C56 C 0.43437 0.7646 0.83417 0.0
C57 C 0.59282 0.67446 0.91259 0.0
O58 O 0.5696 0.85486 0.90042 0.0
O59 O 0.4904 0.80842 0.91042 0.0
O60 O 0.53552 0.68438 0.90874 0.0
O61 O 0.62216 0.70874 0.89723 0.0
C62 C 0.61314 0.76343 0.83206 0.0
O63 O 0.45171 0.71804 0.85065 0.0
O64 O 0.46933 0.81092 0.83895 0.0
In65 In 0.95573 0.75702 0.12519 0.0
O66 O 0.03952 0.70323 0.14899 0.0
O67 O 0.03789 0.80058 0.15532 0.0
C68 C 0.89231 0.67071 0.08877 0.0
C69 C 0.88978 0.76329 0.17095 0.0
C70 C 0.9696 0.84361 0.08288 0.0
O71 O 0.95014 0.67549 0.09143 0.0
O72 O 0.86755 0.70827 0.10463 0.0
O73 O 0.93273 0.85075 0.10171 0.0
O74 O -0.00083 0.79359 0.08572 0.0
C75 C 0.06614 0.75043 0.16181 0.0
O76 O 0.88697 0.80524 0.15079 0.0
O77 O 0.92599 0.71939 0.16795 0.0
In78 In 0.46112 0.24515 0.12554 0.0
O79 O 0.3959 0.19629 0.15311 0.0
O80 O 0.41835 0.29086 0.16264 0.0
C81 C 0.47578 0.15924 0.08307 0.0
C82 C 0.56978 0.25276 0.16384 0.0
C83 C 0.39979 0.32839 0.08689 0.0
O84 O 0.44308 0.14935 0.10355 0.0
O85 O 0.50103 0.21158 0.08443 0.0
O86 O 0.45803 0.32678 0.09221 0.0
O87 O 0.37343 0.2888 0.10103 0.0
C88 C 0.38881 0.2439 0.1688 0.0
O89 O 0.54336 0.2997 0.15073 0.0
O90 O 0.54245 0.20244 0.15676 0.0
In91 In 0.03822 0.2376 0.875 0.0
O92 O 0.11506 0.19241 0.85357 0.0
O93 O 0.06625 0.26871 0.83068 0.0
C94 C 0.02507 0.15168 0.91777 0.0
C95 C 0.92767 0.24589 0.83847 0.0
C96 C 0.09923 0.32649 0.91048 0.0
O97 O 0.0496 0.13916 0.89458 0.0
O98 O 0.0074 0.20675 0.91906 0.0
O99 O 0.04153 0.32015 0.90782 0.0
O100 O 0.12517 0.2892 0.89493 0.0
C101 C 0.10836 0.22914 0.83096 0.0
O102 O 0.95649 0.29285 0.85018 0.0
O103 O 0.9534 0.19506 0.8463 0.0
H104 H 0.93602 0.35121 0.45155 0.0
H105 H 0.09727 0.45131 0.4358 0.0
H106 H 0.92176 0.42382 0.49181 0.0
H107 H 0.08479 0.52264 0.47695 0.0
H108 H 0.01141 0.67613 0.53041 0.0
H109 H 0.02331 0.60397 0.48976 0.0
H110 H 0.96146 0.4555 0.54238 0.0
H111 H 0.94711 0.52878 0.58259 0.0
C112 C 0.96865 0.38864 0.45683 0.0
C113 C 0.01764 0.39572 0.44042 0.0
C114 C 0.96079 0.43006 0.48012 0.0
C115 C 0.00213 0.47928 0.48784 0.0
C116 C 0.05133 0.48606 0.47139 0.0
C117 C 0.05877 0.44498 0.44786 0.0
C118 C 0.0003 0.62806 0.53331 0.0
C119 C 0.97837 0.60811 0.55973 0.0
C120 C 0.00756 0.58647 0.51004 0.0
C121 C 0.99375 0.52358 0.5127 0.0
C122 C 0.97177 0.50365 0.53925 0.0
C123 C 0.96386 0.54553 0.56243 0.0
H124 H 0.42715 0.62991 0.44372 0.0
H125 H 0.60674 0.55439 0.43893 0.0
H126 H 0.4159 0.55844 0.48481 0.0
H127 H 0.59651 0.48384 0.4809 0.0
H128 H 0.53041 0.32489 0.53552 0.0
H129 H 0.5425 0.39486 0.49385 0.0
H130 H 0.45343 0.53946 0.5376 0.0
H131 H 0.43957 0.46856 0.57878 0.0
C132 C 0.46435 0.59802 0.45151 0.0
C133 C 0.51783 0.59774 0.43805 0.0
C134 C 0.45814 0.55734 0.4753 0.0
C135 C 0.50546 0.51555 0.48646 0.0
C136 C 0.5588 0.51487 0.47272 0.0
C137 C 0.56483 0.55541 0.44872 0.0
C138 C 0.51351 0.37169 0.53626 0.0
C139 C 0.48389 0.39118 0.56041 0.0
C140 C 0.52078 0.41198 0.51243 0.0
C141 C 0.49891 0.47293 0.51223 0.0
C142 C 0.46993 0.49257 0.53666 0.0
C143 C 0.46232 0.4521 0.56041 0.0
H144 H 0.53007 0.17834 0.03292 0.0
H145 H 0.4391 0.03835 0.07847 0.0
H146 H 0.54184 0.10575 0.99236 0.0
H147 H 0.45288 0.96458 0.03842 0.0
H148 H 0.42919 0.86677 0.94621 0.0
H149 H 0.417 0.94042 0.98626 0.0
H150 H 0.59616 0.01695 0.9808 0.0
H151 H 0.60711 0.94442 0.93978 0.0
C152 C 0.51305 0.13176 0.0344 0.0
C153 C 0.4836 0.11405 0.05889 0.0
C154 C 0.52018 0.08992 0.0112 0.0
C155 C 0.49848 0.02905 0.012 0.0
C156 C 0.46933 0.01128 0.0367 0.0
C157 C 0.46173 0.0534 0.05981 0.0
C158 C 0.46588 0.89953 0.95347 0.0
C159 C 0.51908 0.89989 0.93979 0.0
C160 C 0.45913 0.94149 0.97667 0.0
C161 C 0.50569 0.98461 0.98703 0.0
C162 C 0.55891 0.98505 0.97319 0.0
C163 C 0.5654 0.94333 0.94974 0.0
H164 H 0.05602 0.84288 0.0455 0.0
H165 H 0.90116 0.94738 0.06618 0.0
H166 H 0.06978 0.91697 0.0059 0.0
H167 H 0.91328 0.02063 0.02567 0.0
H168 H 0.99066 0.17415 0.97302 0.0
H169 H 0.97778 0.10044 0.01292 0.0
H170 H 0.02659 0.952 0.95624 0.0
H171 H 0.04179 0.02653 0.91676 0.0
C172 C 0.02464 0.88161 0.04144 0.0
C173 C 0.97757 0.88939 0.05901 0.0
C174 C 0.03222 0.92391 0.01852 0.0
C175 C 0.99256 0.97488 0.01237 0.0
C176 C 0.94533 0.98252 0.03 0.0
C177 C 0.9381 0.94039 0.05314 0.0
C178 C 0.9987 0.12575 0.96909 0.0
C179 C 0.0173 0.10611 0.94175 0.0
C180 C 0.99086 0.08333 0.99191 0.0
C181 C 0.00086 0.02002 0.98789 0.0
C182 C 0.01934 1.00043 0.96041 0.0
C183 C 0.02776 0.04305 0.93767 0.0
H184 H 0.62037 0.35503 0.19407 0.0
H185 H 0.64382 0.1581 0.18756 0.0
H186 H 0.70644 0.35902 0.23662 0.0
H187 H 0.73153 0.16212 0.22913 0.0
H188 H 0.84574 0.17772 0.32409 0.0
H189 H 0.75688 0.17595 0.28281 0.0
H190 H 0.81413 0.35045 0.24948 0.0
H191 H 0.90086 0.35326 0.29137 0.0
C192 C 0.64468 0.31278 0.20141 0.0
C193 C 0.6255 0.2563 0.18753 0.0
C194 C 0.69412 0.31498 0.22578 0.0
C195 C 0.72593 0.26081 0.23652 0.0
C196 C 0.7074 0.20456 0.222 0.0
C197 C 0.65752 0.2023 0.19793 0.0
C198 C 0.83882 0.21586 0.30806 0.0
C199 C 0.88009 0.26564 0.31099 0.0
C200 C 0.78825 0.21468 0.28422 0.0
C201 C 0.77836 0.26293 0.26261 0.0
C202 C 0.81954 0.31295 0.26588 0.0
C203 C 0.86955 0.31443 0.28986 0.0
H204 H 0.60352 0.35172 0.70794 0.0
H205 H 0.65156 0.17115 0.67812 0.0
H206 H 0.68913 0.34775 0.75025 0.0
H207 H 0.73955 0.16808 0.71995 0.0
H208 H 0.84961 0.15283 0.81636 0.0
H209 H 0.76299 0.15746 0.77413 0.0
H210 H 0.79686 0.35202 0.76335 0.0
H211 H 0.88161 0.34763 0.80643 0.0
C212 C 0.63309 0.31148 0.71016 0.0
C213 C 0.62082 0.26168 0.68971 0.0
C214 C 0.68249 0.30932 0.7344 0.0
C215 C 0.72138 0.25756 0.73866 0.0
C216 C 0.7099 0.20823 0.71772 0.0
C217 C 0.65991 0.21016 0.69357 0.0
C218 C 0.83793 0.19669 0.80516 0.0
C219 C 0.87204 0.24995 0.81477 0.0
C220 C 0.78876 0.19924 0.7807 0.0
C221 C 0.77308 0.25499 0.76507 0.0
C222 C 0.80693 0.30843 0.77506 0.0
C223 C 0.8556 0.306 0.79976 0.0
H224 H 0.12101 0.8511 0.69172 0.0
H225 H 0.14556 0.65418 0.68598 0.0
H226 H 0.20818 0.85629 0.73372 0.0
H227 H 0.23416 0.6594 0.72701 0.0
H228 H 0.34466 0.67652 0.82273 0.0
H229 H 0.25736 0.67416 0.78072 0.0
H230 H 0.31632 0.84782 0.74725 0.0
H231 H 0.40176 0.85119 0.78993 0.0
C232 C 0.14584 0.80913 0.69906 0.0
C233 C 0.12648 0.75225 0.68567 0.0
C234 C 0.19589 0.81202 0.72312 0.0
C235 C 0.22801 0.75814 0.73403 0.0
C236 C 0.2097 0.70161 0.71977 0.0
C237 C 0.15931 0.69866 0.696 0.0
C238 C 0.33854 0.71433 0.8065 0.0
C239 C 0.37988 0.76404 0.80964 0.0
C240 C 0.28887 0.71279 0.78223 0.0
C241 C 0.2799 0.76062 0.76037 0.0
C242 C 0.32114 0.8106 0.7638 0.0
C243 C 0.37035 0.81242 0.78823 0.0
H244 H 0.40293 0.65164 0.28594 0.0
H245 H 0.34309 0.82251 0.32162 0.0
H246 H 0.31663 0.65545 0.24378 0.0
H247 H 0.25481 0.8252 0.28005 0.0
H248 H 0.13887 0.84587 0.18584 0.0
H249 H 0.22832 0.84196 0.2265 0.0
H250 H 0.20885 0.64396 0.23156 0.0
H251 H 0.12095 0.64792 0.18998 0.0
C252 C 0.37077 0.68969 0.28496 0.0
C253 C 0.37968 0.73679 0.30708 0.0
C254 C 0.32105 0.69173 0.26083 0.0
C255 C 0.27857 0.74061 0.25841 0.0
C256 C 0.28717 0.7874 0.28084 0.0
C257 C 0.33742 0.78568 0.30483 0.0
C258 C 0.1542 0.80147 0.19545 0.0
C259 C 0.12309 0.74717 0.18472 0.0
C260 C 0.20509 0.79926 0.21899 0.0
C261 C 0.22564 0.74272 0.23259 0.0
C262 C 0.19494 0.68826 0.22141 0.0
C263 C 0.14442 0.69046 0.19762 0.0
H264 H 0.3351 0.14726 0.1943 0.0
H265 H 0.35033 0.34578 0.19575 0.0
H266 H 0.26919 0.15238 0.23356 0.0
H267 H 0.28266 0.35135 0.23374 0.0
H268 H 0.10395 0.18679 0.28102 0.0
H269 H 0.16974 0.18115 0.24198 0.0
H270 H 0.27896 0.3323 0.28571 0.0
H271 H 0.21125 0.33947 0.32392 0.0
C272 C 0.32396 0.19194 0.20287 0.0
C273 C 0.34805 0.24604 0.19211 0.0
C274 C 0.2859 0.19502 0.22521 0.0
C275 C 0.27059 0.25234 0.23696 0.0
C276 C 0.29438 0.30635 0.2258 0.0
C277 C 0.33291 0.30319 0.20382 0.0
C278 C 0.1419 0.21897 0.28217 0.0
C279 C 0.1524 0.26374 0.30542 0.0
C280 C 0.17998 0.21541 0.25993 0.0
C281 C 0.22992 0.25611 0.26065 0.0
C282 C 0.24036 0.30084 0.28406 0.0
C283 C 0.20176 0.30487 0.30607 0.0
H284 H 0.36982 0.1602 0.70675 0.0
H285 H 0.3199 0.35223 0.69409 0.0
H286 H 0.30207 0.15021 0.74467 0.0
H287 H 0.25345 0.3429 0.73285 0.0
H288 H 0.08913 0.2896 0.7765 0.0
H289 H 0.15783 0.29676 0.73894 0.0
H290 H 0.28905 0.179 0.79546 0.0
H291 H 0.21887 0.17023 0.83265 0.0
C292 C 0.34477 0.20049 0.71231 0.0
C293 C 0.34991 0.25698 0.69736 0.0
C294 C 0.30618 0.19483 0.7342 0.0
C295 C 0.27206 0.24564 0.74177 0.0
C296 C 0.2782 0.30251 0.72718 0.0
C297 C 0.31658 0.30806 0.70513 0.0
C298 C 0.13249 0.26489 0.7808 0.0
C299 C 0.14873 0.22937 0.80749 0.0
C300 C 0.17216 0.26947 0.7594 0.0
C301 C 0.22935 0.2391 0.76431 0.0
C302 C 0.24512 0.20258 0.79081 0.0
C303 C 0.20504 0.19756 0.81214 0.0
H304 H 0.60444 0.68516 0.7835 0.0
H305 H 0.7146 0.83398 0.82852 0.0
H306 H 0.67219 0.67808 0.74547 0.0
H307 H 0.78425 0.82535 0.79122 0.0
H308 H 0.85689 0.83884 0.70106 0.0
H309 H 0.79014 0.84526 0.73944 0.0
H310 H 0.77144 0.64671 0.73788 0.0
H311 H 0.83646 0.64079 0.69826 0.0
C312 C 0.64346 0.71616 0.78535 0.0
C313 C 0.65416 0.7603 0.8089 0.0
C314 C 0.68269 0.71173 0.76369 0.0
C315 C 0.73398 0.75092 0.76525 0.0
C316 C 0.7447 0.79501 0.78897 0.0
C317 C 0.70497 0.79988 0.81045 0.0
C318 C 0.83864 0.7965 0.70897 0.0
C319 C 0.85182 0.73926 0.69666 0.0
C320 C 0.80063 0.80015 0.73117 0.0
C321 C 0.77539 0.74655 0.74192 0.0
C322 C 0.78924 0.68908 0.72981 0.0
C323 C 0.82679 0.68553 0.70726 0.0
H324 H 0.90212 0.68834 0.2208 0.0
H325 H 0.79109 0.83691 0.17609 0.0
H326 H 0.83671 0.68307 0.25993 0.0
H327 H 0.72386 0.83023 0.21465 0.0
H328 H 0.64977 0.84085 0.3046 0.0
H329 H 0.71834 0.84921 0.26698 0.0
H330 H 0.73694 0.65071 0.2666 0.0
H331 H 0.67008 0.64277 0.30524 0.0
C332 C 0.86355 0.71986 0.21934 0.0
C333 C 0.85164 0.76305 0.1954 0.0
C334 C 0.8257 0.71648 0.24163 0.0
C335 C 0.77458 0.75581 0.24037 0.0
C336 C 0.76322 0.79968 0.21658 0.0
C337 C 0.80156 0.80345 0.19441 0.0
C338 C 0.66859 0.79899 0.29649 0.0
C339 C 0.65465 0.74112 0.30786 0.0
C340 C 0.70762 0.80377 0.27476 0.0
C341 C 0.7332 0.75069 0.26365 0.0
C342 C 0.71894 0.69269 0.275 0.0
C343 C 0.68033 0.688 0.297 0.0
H344 H 0.41448 0.10412 0.54906 0.0
H345 H 0.26008 0.18283 0.58406 0.0
H346 H 0.3442 0.06529 0.50426 0.0
H347 H 0.19063 0.14619 0.53956 0.0
H348 H 0.07047 0.11262 0.45602 0.0
H349 H 0.13761 0.07703 0.50253 0.0
H350 H 0.2971 0.1284 0.46289 0.0
H351 H 0.2305 0.16174 0.41671 0.0
C352 C 0.36541 0.11138 0.54765 0.0
C353 C 0.34276 0.14788 0.56949 0.0
C354 C 0.32513 0.08942 0.52197 0.0
C355 C 0.26181 0.10384 0.51784 0.0
C356 C 0.23883 0.13387 0.54175 0.0
C357 C 0.27889 0.15571 0.56723 0.0
C358 C 0.11992 0.11368 0.45688 0.0
C359 C 0.14544 0.14147 0.43324 0.0
C360 C 0.15844 0.09368 0.48356 0.0
C361 C 0.22282 0.10151 0.48689 0.0
C362 C 0.24798 0.12157 0.4614 0.0
C363 C 0.20965 0.14142 0.43489 0.0
H364 H 0.91072 0.8447 0.53256 0.0
H365 H 0.78068 0.87309 0.59401 0.0
H366 H 0.83319 0.87365 0.48942 0.0
H367 H 0.70371 0.908 0.55132 0.0
H368 H 0.6912 0.89264 0.41163 0.0
H369 H 0.76317 0.9269 0.45644 0.0
H370 H 0.63998 0.85577 0.51495 0.0
H371 H 0.56666 0.82746 0.47004 0.0
C372 C 0.86622 0.8603 0.53691 0.0
C373 C 0.85109 0.85583 0.56633 0.0
C374 C 0.82133 0.87732 0.51212 0.0
C375 C 0.76077 0.8917 0.51644 0.0
C376 C 0.74868 0.89481 0.54671 0.0
C377 C 0.79298 0.87567 0.57131 0.0
C378 C 0.67871 0.88724 0.43418 0.0
C379 C 0.62393 0.85717 0.43761 0.0
C380 C 0.72032 0.90587 0.45995 0.0
C381 C 0.70918 0.89202 0.48967 0.0
C382 C 0.65099 0.86771 0.49275 0.0
C383 C 0.6085 0.85116 0.4669 0.0
H384 H 0.913 0.64832 0.03109 0.0
H385 H 0.78507 0.61197 0.0928 0.0
H386 H 0.83556 0.6197 0.98788 0.0
H387 H 0.70826 0.57775 0.04988 0.0
H388 H 0.6927 0.60236 0.9104 0.0
H389 H 0.76574 0.56647 0.95444 0.0
H390 H 0.64336 0.63224 0.01462 0.0
H391 H 0.56909 0.66252 0.97042 0.0
C392 C 0.86912 0.63101 0.03547 0.0
C393 C 0.85442 0.63332 0.06505 0.0
C394 C 0.82427 0.61422 0.01061 0.0
C395 C 0.76421 0.59798 0.01499 0.0
C396 C 0.75281 0.5924 0.04529 0.0
C397 C 0.79707 0.61116 0.07001 0.0
C398 C 0.68063 0.60631 0.9331 0.0
C399 C 0.62582 0.63562 0.93721 0.0
C400 C 0.72284 0.58667 0.95844 0.0
C401 C 0.71218 0.59851 0.98844 0.0
C402 C 0.65398 0.62187 0.99215 0.0
C403 C 0.61095 0.63956 0.96671 0.0
H404 H 0.29568 0.39364 0.08941 0.0
H405 H 0.42229 0.3433 0.02912 0.0
H406 H 0.22141 0.42865 0.04564 0.0
H407 H 0.34691 0.37205 0.98508 0.0
H408 H 0.20496 0.3886 0.90684 0.0
H409 H 0.28034 0.42408 0.95005 0.0
H410 H 0.15336 0.37667 0.01145 0.0
H411 H 0.0772 0.34723 0.96797 0.0
C412 C 0.30793 0.39148 0.06669 0.0
C413 C 0.36414 0.36551 0.06239 0.0
C414 C 0.26508 0.41059 0.04148 0.0
C415 C 0.27644 0.40112 0.01139 0.0
C416 C 0.33563 0.38065 0.00759 0.0
C417 C 0.37929 0.36376 0.03292 0.0
C418 C 0.19268 0.38853 0.92958 0.0
C419 C 0.13584 0.36465 0.93429 0.0
C420 C 0.23616 0.40793 0.95448 0.0
C421 C 0.22462 0.40108 0.98471 0.0
C422 C 0.16487 0.38313 0.98883 0.0
C423 C 0.12071 0.36586 0.96379 0.0
loop_
_geom_bond_atom_site_label_1
_geom_bond_atom_site_label_2
_geom_bond_distance
_geom_bond_site_symmetry_2
_ccdc_geom_bond_type
In0 O1 2.294 1_455 S
In0 O2 2.326 1_455 S
In0 O6 2.266 . S
In0 O7 2.326 . S
In0 O8 2.266 . S
In0 O9 2.326 1_455 S
In0 O11 2.294 . S
In0 O12 2.326 . S
O1 In0 2.294 1_655 S
O1 C10 1.240 . S
O2 In0 2.326 1_655 S
O2 C10 1.252 . S
C3 O6 1.252 . S
C3 O7 1.260 . S
C4 O11 1.240 . S
C4 O12 1.252 . S
C5 O8 1.252 . S
C5 O9 1.260 1_455 S
O6 In0 2.266 . S
O6 C3 1.252 . S
O7 In0 2.326 . S
O7 C3 1.260 . S
O8 In0 2.266 . S
O8 C5 1.252 . S
O9 In0 2.326 1_655 S
O9 C5 1.260 1_655 S
C10 O1 1.240 . S
C10 O2 1.252 . S
O11 In0 2.294 . S
O11 C4 1.240 . S
O12 In0 2.326 . S
O12 C4 1.252 . S
In13 O14 2.294 . S
In13 O15 2.326 . S
In13 O19 2.266 . S
In13 O20 2.326 . S
In13 O21 2.266 . S
In13 O22 2.326 . S
In13 O24 2.294 . S
In13 O25 2.326 . S
O14 In13 2.294 . S
O14 C23 1.240 . S
O15 In13 2.326 . S
O15 C23 1.252 . S
C16 O19 1.252 . S
C16 O20 1.260 . S
C17 O24 1.240 . S
C17 O25 1.252 . S
C18 O21 1.252 . S
C18 O22 1.260 . S
O19 In13 2.266 . S
O19 C16 1.252 . S
O20 In13 2.326 . S
O20 C16 1.260 . S
O21 In13 2.266 . S
O21 C18 1.252 . S
O22 In13 2.326 . S
O22 C18 1.260 . S
C23 O14 1.240 . S
C23 O15 1.252 . S
O24 In13 2.294 . S
O24 C17 1.240 . S
O25 In13 2.326 . S
O25 C17 1.252 . S
In26 O27 2.294 . S
In26 O28 2.326 . S
In26 O32 2.266 . S
In26 O33 2.326 1_655 S
In26 O34 2.266 . S
In26 O35 2.326 . S
In26 O37 2.294 1_655 S
In26 O38 2.326 1_655 S
O27 In26 2.294 . S
O27 C36 1.240 . S
O28 In26 2.326 . S
O28 C36 1.252 . S
C29 O32 1.252 . S
C29 O33 1.260 1_655 S
C30 O37 1.240 . S
C30 O38 1.252 . S
C31 O34 1.252 . S
C31 O35 1.260 . S
O32 In26 2.266 . S
O32 C29 1.252 . S
O33 In26 2.326 1_455 S
O33 C29 1.260 1_455 S
O34 In26 2.266 . S
O34 C31 1.252 . S
O35 In26 2.326 . S
O35 C31 1.260 . S
C36 O27 1.240 . S
C36 O28 1.252 . S
O37 In26 2.294 1_455 S
O37 C30 1.240 . S
O38 In26 2.326 1_455 S
O38 C30 1.252 . S
In39 O40 2.294 . S
In39 O41 2.326 . S
In39 O45 2.266 . S
In39 O46 2.326 . S
In39 O47 2.266 . S
In39 O48 2.326 . S
In39 O50 2.294 . S
In39 O51 2.326 . S
O40 In39 2.294 . S
O40 C49 1.240 . S
O41 In39 2.326 . S
O41 C49 1.252 . S
C42 O45 1.252 . S
C42 O46 1.260 . S
C43 O50 1.240 . S
C43 O51 1.252 . S
C44 O47 1.252 . S
C44 O48 1.260 . S
O45 In39 2.266 . S
O45 C42 1.252 . S
O46 In39 2.326 . S
O46 C42 1.260 . S
O47 In39 2.266 . S
O47 C44 1.252 . S
O48 In39 2.326 . S
O48 C44 1.260 . S
C49 O40 1.240 . S
C49 O41 1.252 . S
O50 In39 2.294 . S
O50 C43 1.240 . S
O51 In39 2.326 . S
O51 C43 1.252 . S
In52 O53 2.294 . S
In52 O54 2.326 . S
In52 O58 2.266 . S
In52 O59 2.326 . S
In52 O60 2.266 . S
In52 O61 2.326 . S
In52 O63 2.294 . S
In52 O64 2.326 . S
O53 In52 2.294 . S
O53 C62 1.240 . S
O54 In52 2.326 . S
O54 C62 1.252 . S
C55 O58 1.252 . S
C55 O59 1.260 . S
C56 O63 1.240 . S
C56 O64 1.252 . S
C57 O60 1.252 . S
C57 O61 1.260 . S
O58 In52 2.266 . S
O58 C55 1.252 . S
O59 In52 2.326 . S
O59 C55 1.260 . S
O60 In52 2.266 . S
O60 C57 1.252 . S
O61 In52 2.326 . S
O61 C57 1.260 . S
C62 O53 1.240 . S
C62 O54 1.252 . S
O63 In52 2.294 . S
O63 C56 1.240 . S
O64 In52 2.326 . S
O64 C56 1.252 . S
In65 O66 2.294 1_655 S
In65 O67 2.326 1_655 S
In65 O71 2.266 . S
In65 O72 2.326 . S
In65 O73 2.266 . S
In65 O74 2.326 1_655 S
In65 O76 2.294 . S
In65 O77 2.326 . S
O66 In65 2.294 1_455 S
O66 C75 1.240 . S
O67 In65 2.326 1_455 S
O67 C75 1.252 . S
C68 O71 1.252 . S
C68 O72 1.260 . S
C69 O76 1.240 . S
C69 O77 1.252 . S
C70 O73 1.252 . S
C70 O74 1.260 1_655 S
O71 In65 2.266 . S
O71 C68 1.252 . S
O72 In65 2.326 . S
O72 C68 1.260 . S
O73 In65 2.266 . S
O73 C70 1.252 . S
O74 In65 2.326 1_455 S
O74 C70 1.260 1_455 S
C75 O66 1.240 . S
C75 O67 1.252 . S
O76 In65 2.294 . S
O76 C69 1.240 . S
O77 In65 2.326 . S
O77 C69 1.252 . S
In78 O79 2.294 . S
In78 O80 2.326 . S
In78 O84 2.266 . S
In78 O85 2.326 . S
In78 O86 2.266 . S
In78 O87 2.326 . S
In78 O89 2.294 . S
In78 O90 2.326 . S
O79 In78 2.294 . S
O79 C88 1.240 . S
O80 In78 2.326 . S
O80 C88 1.252 . S
C81 O84 1.252 . S
C81 O85 1.260 . S
C82 O89 1.240 . S
C82 O90 1.252 . S
C83 O86 1.252 . S
C83 O87 1.260 . S
O84 In78 2.266 . S
O84 C81 1.252 . S
O85 In78 2.326 . S
O85 C81 1.260 . S
O86 In78 2.266 . S
O86 C83 1.252 . S
O87 In78 2.326 . S
O87 C83 1.260 . S
C88 O79 1.240 . S
C88 O80 1.252 . S
O89 In78 2.294 . S
O89 C82 1.240 . S
O90 In78 2.326 . S
O90 C82 1.252 . S
In91 O92 2.294 . S
In91 O93 2.326 . S
In91 O97 2.266 . S
In91 O98 2.326 1_455 S
In91 O99 2.266 . S
In91 O100 2.326 . S
In91 O102 2.294 1_455 S
In91 O103 2.326 1_455 S
O92 In91 2.294 . S
O92 C101 1.240 . S
O93 In91 2.326 . S
O93 C101 1.252 . S
C94 O97 1.252 . S
C94 O98 1.260 1_455 S
C95 O102 1.240 . S
C95 O103 1.252 . S
C96 O99 1.252 . S
C96 O100 1.260 . S
O97 In91 2.266 . S
O97 C94 1.252 . S
O98 In91 2.326 1_655 S
O98 C94 1.260 1_655 S
O99 In91 2.266 . S
O99 C96 1.252 . S
O100 In91 2.326 . S
O100 C96 1.260 . S
C101 O92 1.240 . S
C101 O93 1.252 . S
O102 In91 2.294 1_655 S
O102 C95 1.240 . S
O103 In91 2.326 1_655 S
O103 C95 1.252 . S
H104 C112 0.950 . S
H105 C117 0.950 . S
H106 C114 0.950 . S
H107 C116 0.950 . S
H108 C118 0.950 . S
H109 C120 0.950 . S
H110 C122 0.950 . S
H111 C123 0.950 . S
C112 H104 0.950 . S
C112 C113 1.386 . S
C112 C114 1.391 . S
C113 C112 1.386 . S
C113 C117 1.393 1_455 S
C114 H106 0.950 . S
C114 C112 1.391 . S
C114 C115 1.400 . S
C115 C114 1.400 . S
C115 C116 1.398 1_455 S
C115 C121 1.491 1_455 S
C116 H107 0.950 . S
C116 C115 1.398 1_655 S
C116 C117 1.391 . S
C117 H105 0.950 . S
C117 C113 1.393 1_655 S
C117 C116 1.391 . S
C118 H108 0.950 . S
C118 C119 1.386 . S
C118 C120 1.391 . S
C119 C118 1.386 . S
C119 C123 1.393 1_655 S
C120 H109 0.950 . S
C120 C118 1.391 . S
C120 C121 1.400 . S
C121 C115 1.491 1_655 S
C121 C120 1.400 . S
C121 C122 1.398 1_655 S
C122 H110 0.950 . S
C122 C121 1.398 1_455 S
C122 C123 1.391 . S
C123 H111 0.950 . S
C123 C119 1.393 1_455 S
C123 C122 1.391 . S
H124 C132 0.950 . S
H125 C137 0.950 . S
H126 C134 0.950 . S
H127 C136 0.950 . S
H128 C138 0.950 . S
H129 C140 0.950 . S
H130 C142 0.950 . S
H131 C143 0.950 . S
C132 H124 0.950 . S
C132 C133 1.386 . S
C132 C134 1.391 . S
C133 C132 1.386 . S
C133 C137 1.393 . S
C134 H126 0.950 . S
C134 C132 1.391 . S
C134 C135 1.400 . S
C135 C134 1.400 . S
C135 C136 1.398 . S
C135 C141 1.491 . S
C136 H127 0.950 . S
C136 C135 1.398 . S
C136 C137 1.391 . S
C137 H125 0.950 . S
C137 C133 1.393 . S
C137 C136 1.391 . S
C138 H128 0.950 . S
C138 C139 1.386 . S
C138 C140 1.391 . S
C139 C138 1.386 . S
C139 C143 1.393 . S
C140 H129 0.950 . S
C140 C138 1.391 . S
C140 C141 1.400 . S
C141 C135 1.491 . S
C141 C140 1.400 . S
C141 C142 1.398 . S
C142 H130 0.950 . S
C142 C141 1.398 . S
C142 C143 1.391 . S
C143 H131 0.950 . S
C143 C139 1.393 . S
C143 C142 1.391 . S
H144 C152 0.950 . S
H145 C157 0.950 . S
H146 C154 0.950 1_556 S
H147 C156 0.950 1_565 S
H148 C158 0.950 . S
H149 C160 0.950 1_554 S
H150 C162 0.950 1_545 S
H151 C163 0.950 . S
C152 H144 0.950 . S
C152 C153 1.386 . S
C152 C154 1.391 . S
C153 C152 1.386 . S
C153 C157 1.393 . S
C154 H146 0.950 1_554 S
C154 C152 1.391 . S
C154 C155 1.400 . S
C155 C154 1.400 . S
C155 C156 1.398 . S
C155 C161 1.491 1_544 S
C156 H147 0.950 1_545 S
C156 C155 1.398 . S
C156 C157 1.391 . S
C157 H145 0.950 . S
C157 C153 1.393 . S
C157 C156 1.391 . S
C158 H148 0.950 . S
C158 C159 1.386 . S
C158 C160 1.391 . S
C159 C158 1.386 . S
C159 C163 1.393 . S
C160 H149 0.950 1_556 S
C160 C158 1.391 . S
C160 C161 1.400 . S
C161 C155 1.491 1_566 S
C161 C160 1.400 . S
C161 C162 1.398 . S
C162 H150 0.950 1_565 S
C162 C161 1.398 . S
C162 C163 1.391 . S
C163 H151 0.950 . S
C163 C159 1.393 . S
C163 C162 1.391 . S
H164 C172 0.950 . S
H165 C177 0.950 . S
H166 C174 0.950 1_556 S
H167 C176 0.950 1_545 S
H168 C178 0.950 . S
H169 C180 0.950 1_554 S
H170 C182 0.950 1_565 S
H171 C183 0.950 . S
C172 H164 0.950 . S
C172 C173 1.386 . S
C172 C174 1.391 . S
C173 C172 1.386 . S
C173 C177 1.393 1_655 S
C174 H166 0.950 1_554 S
C174 C172 1.391 . S
C174 C175 1.400 . S
C175 C174 1.400 . S
C175 C176 1.398 1_655 S
C175 C181 1.491 1_664 S
C176 H167 0.950 1_565 S
C176 C175 1.398 1_455 S
C176 C177 1.391 . S
C177 H165 0.950 . S
C177 C173 1.393 1_455 S
C177 C176 1.391 . S
C178 H168 0.950 . S
C178 C179 1.386 . S
C178 C180 1.391 . S
C179 C178 1.386 . S
C179 C183 1.393 1_455 S
C180 H169 0.950 1_556 S
C180 C178 1.391 . S
C180 C181 1.400 . S
C181 C175 1.491 1_446 S
C181 C180 1.400 . S
C181 C182 1.398 1_455 S
C182 H170 0.950 1_545 S
C182 C181 1.398 1_655 S
C182 C183 1.391 . S
C183 H171 0.950 . S
C183 C179 1.393 1_655 S
C183 C182 1.391 . S
H184 C192 0.950 . S
H185 C197 0.950 . S
H186 C194 0.950 . S
H187 C196 0.950 . S
H188 C198 0.950 . S
H189 C200 0.950 . S
H190 C202 0.950 . S
H191 C203 0.950 . S
C192 H184 0.950 . S
C192 C193 1.386 . S
C192 C194 1.391 . S
C193 C192 1.386 . S
C193 C197 1.393 . S
C194 H186 0.950 . S
C194 C192 1.391 . S
C194 C195 1.400 . S
C195 C194 1.400 . S
C195 C196 1.398 . S
C195 C201 1.491 . S
C196 H187 0.950 . S
C196 C195 1.398 . S
C196 C197 1.391 . S
C197 H185 0.950 . S
C197 C193 1.393 . S
C197 C196 1.391 . S
C198 H188 0.950 . S
C198 C199 1.386 . S
C198 C200 1.391 . S
C199 C198 1.386 . S
C199 C203 1.393 . S
C200 H189 0.950 . S
C200 C198 1.391 . S
C200 C201 1.400 . S
C201 C195 1.491 . S
C201 C200 1.400 . S
C201 C202 1.398 . S
C202 H190 0.950 . S
C202 C201 1.398 . S
C202 C203 1.391 . S
C203 H191 0.950 . S
C203 C199 1.393 . S
C203 C202 1.391 . S
H204 C212 0.950 . S
H205 C217 0.950 . S
H206 C214 0.950 . S
H207 C216 0.950 . S
H208 C218 0.950 . S
H209 C220 0.950 . S
H210 C222 0.950 . S
H211 C223 0.950 . S
C212 H204 0.950 . S
C212 C213 1.386 . S
C212 C214 1.391 . S
C213 C212 1.386 . S
C213 C217 1.393 . S
C214 H206 0.950 . S
C214 C212 1.391 . S
C214 C215 1.400 . S
C215 C214 1.400 . S
C215 C216 1.398 . S
C215 C221 1.491 . S
C216 H207 0.950 . S
C216 C215 1.398 . S
C216 C217 1.391 . S
C217 H205 0.950 . S
C217 C213 1.393 . S
C217 C216 1.391 . S
C218 H208 0.950 . S
C218 C219 1.386 . S
C218 C220 1.391 . S
C219 C218 1.386 . S
C219 C223 1.393 . S
C220 H209 0.950 . S
C220 C218 1.391 . S
C220 C221 1.400 . S
C221 C215 1.491 . S
C221 C220 1.400 . S
C221 C222 1.398 . S
C222 H210 0.950 . S
C222 C221 1.398 . S
C222 C223 1.391 . S
C223 H211 0.950 . S
C223 C219 1.393 . S
C223 C222 1.391 . S
H224 C232 0.950 . S
H225 C237 0.950 . S
H226 C234 0.950 . S
H227 C236 0.950 . S
H228 C238 0.950 . S
H229 C240 0.950 . S
H230 C242 0.950 . S
H231 C243 0.950 . S
C232 H224 0.950 . S
C232 C233 1.386 . S
C232 C234 1.391 . S
C233 C232 1.386 . S
C233 C237 1.393 . S
C234 H226 0.950 . S
C234 C232 1.391 . S
C234 C235 1.400 . S
C235 C234 1.400 . S
C235 C236 1.398 . S
C235 C241 1.491 . S
C236 H227 0.950 . S
C236 C235 1.398 . S
C236 C237 1.391 . S
C237 H225 0.950 . S
C237 C233 1.393 . S
C237 C236 1.391 . S
C238 H228 0.950 . S
C238 C239 1.386 . S
C238 C240 1.391 . S
C239 C238 1.386 . S
C239 C243 1.393 . S
C240 H229 0.950 . S
C240 C238 1.391 . S
C240 C241 1.400 . S
C241 C235 1.491 . S
C241 C240 1.400 . S
C241 C242 1.398 . S
C242 H230 0.950 . S
C242 C241 1.398 . S
C242 C243 1.391 . S
C243 H231 0.950 . S
C243 C239 1.393 . S
C243 C242 1.391 . S
H244 C252 0.950 . S
H245 C257 0.950 . S
H246 C254 0.950 . S
H247 C256 0.950 . S
H248 C258 0.950 . S
H249 C260 0.950 . S
H250 C262 0.950 . S
H251 C263 0.950 . S
C252 H244 0.950 . S
C252 C253 1.386 . S
C252 C254 1.391 . S
C253 C252 1.386 . S
C253 C257 1.393 . S
C254 H246 0.950 . S
C254 C252 1.391 . S
C254 C255 1.400 . S
C255 C254 1.400 . S
C255 C256 1.398 . S
C255 C261 1.491 . S
C256 H247 0.950 . S
C256 C255 1.398 . S
C256 C257 1.391 . S
C257 H245 0.950 . S
C257 C253 1.393 . S
C257 C256 1.391 . S
C258 H248 0.950 . S
C258 C259 1.386 . S
C258 C260 1.391 . S
C259 C258 1.386 . S
C259 C263 1.393 . S
C260 H249 0.950 . S
C260 C258 1.391 . S
C260 C261 1.400 . S
C261 C255 1.491 . S
C261 C260 1.400 . S
C261 C262 1.398 . S
C262 H250 0.950 . S
C262 C261 1.398 . S
C262 C263 1.391 . S
C263 H251 0.950 . S
C263 C259 1.393 . S
C263 C262 1.391 . S
H264 C272 0.950 . S
H265 C277 0.950 . S
H266 C274 0.950 . S
H267 C276 0.950 . S
H268 C278 0.950 . S
H269 C280 0.950 . S
H270 C282 0.950 . S
H271 C283 0.950 . S
C272 H264 0.950 . S
C272 C273 1.386 . S
C272 C274 1.391 . S
C273 C272 1.386 . S
C273 C277 1.393 . S
C274 H266 0.950 . S
C274 C272 1.391 . S
C274 C275 1.400 . S
C275 C274 1.400 . S
C275 C276 1.398 . S
C275 C281 1.491 . S
C276 H267 0.950 . S
C276 C275 1.398 . S
C276 C277 1.391 . S
C277 H265 0.950 . S
C277 C273 1.393 . S
C277 C276 1.391 . S
C278 H268 0.950 . S
C278 C279 1.386 . S
C278 C280 1.391 . S
C279 C278 1.386 . S
C279 C283 1.393 . S
C280 H269 0.950 . S
C280 C278 1.391 . S
C280 C281 1.400 . S
C281 C275 1.491 . S
C281 C280 1.400 . S
C281 C282 1.398 . S
C282 H270 0.950 . S
C282 C281 1.398 . S
C282 C283 1.391 . S
C283 H271 0.950 . S
C283 C279 1.393 . S
C283 C282 1.391 . S
H284 C292 0.950 . S
H285 C297 0.950 . S
H286 C294 0.950 . S
H287 C296 0.950 . S
H288 C298 0.950 . S
H289 C300 0.950 . S
H290 C302 0.950 . S
H291 C303 0.950 . S
C292 H284 0.950 . S
C292 C293 1.386 . S
C292 C294 1.391 . S
C293 C292 1.386 . S
C293 C297 1.393 . S
C294 H286 0.950 . S
C294 C292 1.391 . S
C294 C295 1.400 . S
C295 C294 1.400 . S
C295 C296 1.398 . S
C295 C301 1.491 . S
C296 H287 0.950 . S
C296 C295 1.398 . S
C296 C297 1.391 . S
C297 H285 0.950 . S
C297 C293 1.393 . S
C297 C296 1.391 . S
C298 H288 0.950 . S
C298 C299 1.386 . S
C298 C300 1.391 . S
C299 C298 1.386 . S
C299 C303 1.393 . S
C300 H289 0.950 . S
C300 C298 1.391 . S
C300 C301 1.400 . S
C301 C295 1.491 . S
C301 C300 1.400 . S
C301 C302 1.398 . S
C302 H290 0.950 . S
C302 C301 1.398 . S
C302 C303 1.391 . S
C303 H291 0.950 . S
C303 C299 1.393 . S
C303 C302 1.391 . S
H304 C312 0.950 . S
H305 C317 0.950 . S
H306 C314 0.950 . S
H307 C316 0.950 . S
H308 C318 0.950 . S
H309 C320 0.950 . S
H310 C322 0.950 . S
H311 C323 0.950 . S
C312 H304 0.950 . S
C312 C313 1.386 . S
C312 C314 1.391 . S
C313 C312 1.386 . S
C313 C317 1.393 . S
C314 H306 0.950 . S
C314 C312 1.391 . S
C314 C315 1.400 . S
C315 C314 1.400 . S
C315 C316 1.398 . S
C315 C321 1.491 . S
C316 H307 0.950 . S
C316 C315 1.398 . S
C316 C317 1.391 . S
C317 H305 0.950 . S
C317 C313 1.393 . S
C317 C316 1.391 . S
C318 H308 0.950 . S
C318 C319 1.386 . S
C318 C320 1.391 . S
C319 C318 1.386 . S
C319 C323 1.393 . S
C320 H309 0.950 . S
C320 C318 1.391 . S
C320 C321 1.400 . S
C321 C315 1.491 . S
C321 C320 1.400 . S
C321 C322 1.398 . S
C322 H310 0.950 . S
C322 C321 1.398 . S
C322 C323 1.391 . S
C323 H311 0.950 . S
C323 C319 1.393 . S
C323 C322 1.391 . S
H324 C332 0.950 . S
H325 C337 0.950 . S
H326 C334 0.950 . S
H327 C336 0.950 . S
H328 C338 0.950 . S
H329 C340 0.950 . S
H330 C342 0.950 . S
H331 C343 0.950 . S
C332 H324 0.950 . S
C332 C333 1.386 . S
C332 C334 1.391 . S
C333 C332 1.386 . S
C333 C337 1.393 . S
C334 H326 0.950 . S
C334 C332 1.391 . S
C334 C335 1.400 . S
C335 C334 1.400 . S
C335 C336 1.398 . S
C335 C341 1.491 . S
C336 H327 0.950 . S
C336 C335 1.398 . S
C336 C337 1.391 . S
C337 H325 0.950 . S
C337 C333 1.393 . S
C337 C336 1.391 . S
C338 H328 0.950 . S
C338 C339 1.386 . S
C338 C340 1.391 . S
C339 C338 1.386 . S
C339 C343 1.393 . S
C340 H329 0.950 . S
C340 C338 1.391 . S
C340 C341 1.400 . S
C341 C335 1.491 . S
C341 C340 1.400 . S
C341 C342 1.398 . S
C342 H330 0.950 . S
C342 C341 1.398 . S
C342 C343 1.391 . S
C343 H331 0.950 . S
C343 C339 1.393 . S
C343 C342 1.391 . S
H344 C352 0.950 . S
H345 C357 0.950 . S
H346 C354 0.950 . S
H347 C356 0.950 . S
H348 C358 0.950 . S
H349 C360 0.950 . S
H350 C362 0.950 . S
H351 C363 0.950 . S
C352 H344 0.950 . S
C352 C353 1.386 . S
C352 C354 1.391 . S
C353 C352 1.386 . S
C353 C357 1.393 . S
C354 H346 0.950 . S
C354 C352 1.391 . S
C354 C355 1.400 . S
C355 C354 1.400 . S
C355 C356 1.398 . S
C355 C361 1.491 . S
C356 H347 0.950 . S
C356 C355 1.398 . S
C356 C357 1.391 . S
C357 H345 0.950 . S
C357 C353 1.393 . S
C357 C356 1.391 . S
C358 H348 0.950 . S
C358 C359 1.386 . S
C358 C360 1.391 . S
C359 C358 1.386 . S
C359 C363 1.393 . S
C360 H349 0.950 . S
C360 C358 1.391 . S
C360 C361 1.400 . S
C361 C355 1.491 . S
C361 C360 1.400 . S
C361 C362 1.398 . S
C362 H350 0.950 . S
C362 C361 1.398 . S
C362 C363 1.391 . S
C363 H351 0.950 . S
C363 C359 1.393 . S
C363 C362 1.391 . S
H364 C372 0.950 . S
H365 C377 0.950 . S
H366 C374 0.950 . S
H367 C376 0.950 . S
H368 C378 0.950 . S
H369 C380 0.950 . S
H370 C382 0.950 . S
H371 C383 0.950 . S
C372 H364 0.950 . S
C372 C373 1.386 . S
C372 C374 1.391 . S
C373 C372 1.386 . S
C373 C377 1.393 . S
C374 H366 0.950 . S
C374 C372 1.391 . S
C374 C375 1.400 . S
C375 C374 1.400 . S
C375 C376 1.398 . S
C375 C381 1.491 . S
C376 H367 0.950 . S
C376 C375 1.398 . S
C376 C377 1.391 . S
C377 H365 0.950 . S
C377 C373 1.393 . S
C377 C376 1.391 . S
C378 H368 0.950 . S
C378 C379 1.386 . S
C378 C380 1.391 . S
C379 C378 1.386 . S
C379 C383 1.393 . S
C380 H369 0.950 . S
C380 C378 1.391 . S
C380 C381 1.400 . S
C381 C375 1.491 . S
C381 C380 1.400 . S
C381 C382 1.398 . S
C382 H370 0.950 . S
C382 C381 1.398 . S
C382 C383 1.391 . S
C383 H371 0.950 . S
C383 C379 1.393 . S
C383 C382 1.391 . S
H384 C392 0.950 . S
H385 C397 0.950 . S
H386 C394 0.950 . S
H387 C396 0.950 . S
H388 C398 0.950 . S
H389 C400 0.950 . S
H390 C402 0.950 . S
H391 C403 0.950 . S
C392 H384 0.950 . S
C392 C393 1.386 . S
C392 C394 1.391 . S
C393 C392 1.386 . S
C393 C397 1.393 . S
C394 H386 0.950 . S
C394 C392 1.391 . S
C394 C395 1.400 . S
C395 C394 1.400 . S
C395 C396 1.398 . S
C395 C401 1.491 1_554 S
C396 H387 0.950 . S
C396 C395 1.398 . S
C396 C397 1.391 . S
C397 H385 0.950 . S
C397 C393 1.393 . S
C397 C396 1.391 . S
C398 H388 0.950 . S
C398 C399 1.386 . S
C398 C400 1.391 . S
C399 C398 1.386 . S
C399 C403 1.393 . S
C400 H389 0.950 . S
C400 C398 1.391 . S
C400 C401 1.400 . S
C401 C395 1.491 1_556 S
C401 C400 1.400 . S
C401 C402 1.398 . S
C402 H390 0.950 . S
C402 C401 1.398 . S
C402 C403 1.391 . S
C403 H391 0.950 . S
C403 C399 1.393 . S
C403 C402 1.391 . S
H404 C412 0.950 . S
H405 C417 0.950 . S
H406 C414 0.950 . S
H407 C416 0.950 1_556 S
H408 C418 0.950 . S
H409 C420 0.950 . S
H410 C422 0.950 1_554 S
H411 C423 0.950 . S
C412 H404 0.950 . S
C412 C413 1.386 . S
C412 C414 1.391 . S
C413 C412 1.386 . S
C413 C417 1.393 . S
C414 H406 0.950 . S
C414 C412 1.391 . S
C414 C415 1.400 . S
C415 C414 1.400 . S
C415 C416 1.398 . S
C415 C421 1.491 1_554 S
C416 H407 0.950 1_554 S
C416 C415 1.398 . S
C416 C417 1.391 . S
C417 H405 0.950 . S
C417 C413 1.393 . S
C417 C416 1.391 . S
C418 H408 0.950 . S
C418 C419 1.386 . S
C418 C420 1.391 . S
C419 C418 1.386 . S
C419 C423 1.393 . S
C420 H409 0.950 . S
C420 C418 1.391 . S
C420 C421 1.400 . S
C421 C415 1.491 1_556 S
C421 C420 1.400 . S
C421 C422 1.398 . S
C422 H410 0.950 1_556 S
C422 C421 1.398 . S
C422 C423 1.391 . S
C423 H411 0.950 . S
C423 C419 1.393 . S
C423 C422 1.391 . S
C113 C5 1.545 . S
C119 C29 1.545 . S
C133 C44 1.555 . S
C139 C18 1.555 . S
C153 C81 1.554 . S
C159 C55 1.554 . S
C173 C70 1.546 . S
C179 C94 1.546 . S
C193 C82 1.736 . S
C199 C10 1.736 . S
C213 C23 1.735 . S
C219 C95 1.735 . S
C233 C30 1.738 . S
C239 C56 1.738 . S
C253 C49 1.745 . S
C259 C75 1.745 . S
C273 C88 1.574 . S
C279 C4 1.574 . S
C293 C17 1.571 . S
C299 C101 1.571 . S
C313 C62 1.575 . S
C319 C36 1.575 . S
C333 C69 1.575 . S
C339 C43 1.575 . S
C353 C16 0.554 . S
C359 C3 0.529 . S
C373 C31 0.542 . S
C379 C42 0.539 . S
C393 C68 0.566 . S
C399 C57 0.554 . S
C413 C83 0.580 . S
C419 C96 0.530 . S
