# Generated by pormake.
# Topology fcj, (5)-cn, num edge types: 1
# Building blocks:
#     Node 0, Type 0, BuildingBlock: XOMCOT_clean_sbu_1, # of connection points: 5
#     Node 1, Type 0, BuildingBlock: XOMCOT_clean_sbu_1, # of connection points: 5
#     Node 2, Type 0, BuildingBlock: XOMCOT_clean_sbu_1, # of connection points: 5
#     Node 3, Type 0, BuildingBlock: XOMCOT_clean_sbu_1, # of connection points: 5
#     Node 4, Type 0, BuildingBlock: XOMCOT_clean_sbu_1, # of connection points: 5
#     Node 5, Type 0, BuildingBlock: XOMCOT_clean_sbu_1, # of connection points: 5
#     Node 6, Type 0, BuildingBlock: XOMCOT_clean_sbu_1, # of connection points: 5
#     Node 7, Type 0, BuildingBlock: XOMCOT_clean_sbu_1, # of connection points: 5
#     Node 8, Type 0, BuildingBlock: XOMCOT_clean_sbu_1, # of connection points: 5
#     Node 9, Type 0, BuildingBlock: XOMCOT_clean_sbu_1, # of connection points: 5
#     Node 10, Type 0, BuildingBlock: XOMCOT_clean_sbu_1, # of connection points: 5
#     Node 11, Type 0, BuildingBlock: XOMCOT_clean_sbu_1, # of connection points: 5
#     Node 12, Type 0, BuildingBlock: XOMCOT_clean_sbu_1, # of connection points: 5
#     Node 13, Type 0, BuildingBlock: XOMCOT_clean_sbu_1, # of connection points: 5
#     Node 14, Type 0, BuildingBlock: XOMCOT_clean_sbu_1, # of connection points: 5
#     Node 15, Type 0, BuildingBlock: XOMCOT_clean_sbu_1, # of connection points: 5
#     Node 16, Type 0, BuildingBlock: XOMCOT_clean_sbu_1, # of connection points: 5
#     Node 17, Type 0, BuildingBlock: XOMCOT_clean_sbu_1, # of connection points: 5
#     Node 18, Type 0, BuildingBlock: XOMCOT_clean_sbu_1, # of connection points: 5
#     Node 19, Type 0, BuildingBlock: XOMCOT_clean_sbu_1, # of connection points: 5
#     Node 20, Type 0, BuildingBlock: XOMCOT_clean_sbu_1, # of connection points: 5
#     Node 21, Type 0, BuildingBlock: XOMCOT_clean_sbu_1, # of connection points: 5
#     Node 22, Type 0, BuildingBlock: XOMCOT_clean_sbu_1, # of connection points: 5
#     Node 23, Type 0, BuildingBlock: XOMCOT_clean_sbu_1, # of connection points: 5
#     Edge 24, Type (0, 0), BuildingBlock: ZUJKAS_clean_linker_0, # of connection points: 2
#     Edge 25, Type (0, 0), BuildingBlock: ZUJKAS_clean_linker_0, # of connection points: 2
#     Edge 26, Type (0, 0), BuildingBlock: ZUJKAS_clean_linker_0, # of connection points: 2
#     Edge 27, Type (0, 0), BuildingBlock: ZUJKAS_clean_linker_0, # of connection points: 2
#     Edge 28, Type (0, 0), BuildingBlock: ZUJKAS_clean_linker_0, # of connection points: 2
#     Edge 29, Type (0, 0), BuildingBlock: ZUJKAS_clean_linker_0, # of connection points: 2
#     Edge 30, Type (0, 0), BuildingBlock: ZUJKAS_clean_linker_0, # of connection points: 2
#     Edge 31, Type (0, 0), BuildingBlock: ZUJKAS_clean_linker_0, # of connection points: 2
#     Edge 32, Type (0, 0), BuildingBlock: ZUJKAS_clean_linker_0, # of connection points: 2
#     Edge 33, Type (0, 0), BuildingBlock: ZUJKAS_clean_linker_0, # of connection points: 2
#     Edge 34, Type (0, 0), BuildingBlock: ZUJKAS_clean_linker_0, # of connection points: 2
#     Edge 35, Type (0, 0), BuildingBlock: ZUJKAS_clean_linker_0, # of connection points: 2
#     Edge 36, Type (0, 0), BuildingBlock: ZUJKAS_clean_linker_0, # of connection points: 2
#     Edge 37, Type (0, 0), BuildingBlock: ZUJKAS_clean_linker_0, # of connection points: 2
#     Edge 38, Type (0, 0), BuildingBlock: ZUJKAS_clean_linker_0, # of connection points: 2
#     Edge 39, Type (0, 0), BuildingBlock: ZUJKAS_clean_linker_0, # of connection points: 2
#     Edge 40, Type (0, 0), BuildingBlock: ZUJKAS_clean_linker_0, # of connection points: 2
#     Edge 41, Type (0, 0), BuildingBlock: ZUJKAS_clean_linker_0, # of connection points: 2
#     Edge 42, Type (0, 0), BuildingBlock: ZUJKAS_clean_linker_0, # of connection points: 2
#     Edge 43, Type (0, 0), BuildingBlock: ZUJKAS_clean_linker_0, # of connection points: 2
#     Edge 44, Type (0, 0), BuildingBlock: ZUJKAS_clean_linker_0, # of connection points: 2
#     Edge 45, Type (0, 0), BuildingBlock: ZUJKAS_clean_linker_0, # of connection points: 2
#     Edge 46, Type (0, 0), BuildingBlock: ZUJKAS_clean_linker_0, # of connection points: 2
#     Edge 47, Type (0, 0), BuildingBlock: ZUJKAS_clean_linker_0, # of connection points: 2
#     Edge 48, Type (0, 0), BuildingBlock: ZUJKAS_clean_linker_0, # of connection points: 2
#     Edge 49, Type (0, 0), BuildingBlock: ZUJKAS_clean_linker_0, # of connection points: 2
#     Edge 50, Type (0, 0), BuildingBlock: ZUJKAS_clean_linker_0, # of connection points: 2
#     Edge 51, Type (0, 0), BuildingBlock: ZUJKAS_clean_linker_0, # of connection points: 2
#     Edge 52, Type (0, 0), BuildingBlock: ZUJKAS_clean_linker_0, # of connection points: 2
#     Edge 53, Type (0, 0), BuildingBlock: ZUJKAS_clean_linker_0, # of connection points: 2
#     Edge 54, Type (0, 0), BuildingBlock: ZUJKAS_clean_linker_0, # of connection points: 2
#     Edge 55, Type (0, 0), BuildingBlock: ZUJKAS_clean_linker_0, # of connection points: 2
#     Edge 56, Type (0, 0), BuildingBlock: ZUJKAS_clean_linker_0, # of connection points: 2
#     Edge 57, Type (0, 0), BuildingBlock: ZUJKAS_clean_linker_0, # of connection points: 2
#     Edge 58, Type (0, 0), BuildingBlock: ZUJKAS_clean_linker_0, # of connection points: 2
#     Edge 59, Type (0, 0), BuildingBlock: ZUJKAS_clean_linker_0, # of connection points: 2
#     Edge 60, Type (0, 0), BuildingBlock: ZUJKAS_clean_linker_0, # of connection points: 2
#     Edge 61, Type (0, 0), BuildingBlock: ZUJKAS_clean_linker_0, # of connection points: 2
#     Edge 62, Type (0, 0), BuildingBlock: ZUJKAS_clean_linker_0, # of connection points: 2
#     Edge 63, Type (0, 0), BuildingBlock: ZUJKAS_clean_linker_0, # of connection points: 2
#     Edge 64, Type (0, 0), BuildingBlock: ZUJKAS_clean_linker_0, # of connection points: 2
#     Edge 65, Type (0, 0), BuildingBlock: ZUJKAS_clean_linker_0, # of connection points: 2
#     Edge 66, Type (0, 0), BuildingBlock: ZUJKAS_clean_linker_0, # of connection points: 2
#     Edge 67, Type (0, 0), BuildingBlock: ZUJKAS_clean_linker_0, # of connection points: 2
#     Edge 68, Type (0, 0), BuildingBlock: ZUJKAS_clean_linker_0, # of connection points: 2
#     Edge 69, Type (0, 0), BuildingBlock: ZUJKAS_clean_linker_0, # of connection points: 2
#     Edge 70, Type (0, 0), BuildingBlock: ZUJKAS_clean_linker_0, # of connection points: 2
#     Edge 71, Type (0, 0), BuildingBlock: ZUJKAS_clean_linker_0, # of connection points: 2
#     Edge 72, Type (0, 0), BuildingBlock: ZUJKAS_clean_linker_0, # of connection points: 2
#     Edge 73, Type (0, 0), BuildingBlock: ZUJKAS_clean_linker_0, # of connection points: 2
#     Edge 74, Type (0, 0), BuildingBlock: ZUJKAS_clean_linker_0, # of connection points: 2
#     Edge 75, Type (0, 0), BuildingBlock: ZUJKAS_clean_linker_0, # of connection points: 2
#     Edge 76, Type (0, 0), BuildingBlock: ZUJKAS_clean_linker_0, # of connection points: 2
#     Edge 77, Type (0, 0), BuildingBlock: ZUJKAS_clean_linker_0, # of connection points: 2
#     Edge 78, Type (0, 0), BuildingBlock: ZUJKAS_clean_linker_0, # of connection points: 2
#     Edge 79, Type (0, 0), BuildingBlock: ZUJKAS_clean_linker_0, # of connection points: 2
#     Edge 80, Type (0, 0), BuildingBlock: ZUJKAS_clean_linker_0, # of connection points: 2
#     Edge 81, Type (0, 0), BuildingBlock: ZUJKAS_clean_linker_0, # of connection points: 2
#     Edge 82, Type (0, 0), BuildingBlock: ZUJKAS_clean_linker_0, # of connection points: 2
#     Edge 83, Type (0, 0), BuildingBlock: ZUJKAS_clean_linker_0, # of connection points: 2
# Relax obj value: 0.371
# Max RMSD: 0.198
# Mean RMSD: 0.198
data_MOF--net-fcj--node1-XOMCOT_clean_sbu_1--edge1-ZUJKAS_clean_linker_0
_symmetry_space_group_name_H-M    P1
_symmetry_Int_Tables_number       1
_symmetry_cell_setting            triclinic
loop_
_symmetry_equiv_pos_as_xyz
'x, y, z'
_cell_length_a     63.781583
_cell_length_b     63.781997
_cell_length_c     63.824175
_cell_angle_alpha  89.998257
_cell_angle_beta   90.011127
_cell_angle_gamma 90.001274
loop_
_atom_site_label
_atom_site_type_symbol
_atom_site_fract_x
_atom_site_fract_y
_atom_site_fract_z
_atom_type_partial_charge
C0 C 0.09817 0.18901 0.40833 0.0
C1 C 0.08521 0.20381 0.41703 0.0
N2 N 0.08077 0.2183 0.40232 0.0
N3 N 0.10206 0.19408 0.38823 0.0
C4 C 0.0913 0.21208 0.38499 0.0
H5 H 0.10379 0.17496 0.41596 0.0
Co6 Co 0.11723 0.17655 0.37064 0.0
C7 C 0.12983 0.20098 0.33346 0.0
O8 O 0.12634 0.18422 0.322 0.0
N9 N 0.13309 0.15802 0.35367 0.0
C10 C 0.14536 0.13134 0.3348 0.0
C11 C 0.1281 0.13938 0.34493 0.0
C12 C 0.15364 0.16061 0.34896 0.0
N13 N 0.16146 0.14476 0.33732 0.0
O14 O 0.14158 0.18056 0.38786 0.0
H15 H 0.11307 0.13173 0.34583 0.0
H16 H 0.16271 0.17398 0.3541 0.0
O17 O 0.126 0.20059 0.35318 0.0
C18 C 0.14665 0.16541 0.39984 0.0
O19 O 0.1346 0.14869 0.40024 0.0
N20 N 0.09253 0.17189 0.35473 0.0
C21 C 0.05616 0.16064 0.33296 0.0
C22 C 0.06576 0.18011 0.32954 0.0
C23 C 0.08365 0.18561 0.34085 0.0
C24 C 0.08222 0.15385 0.35974 0.0
C25 C 0.06424 0.14769 0.34879 0.0
H26 H 0.09004 0.20103 0.33839 0.0
H27 H 0.08847 0.14378 0.37188 0.0
H28 H 0.09081 0.22021 0.37014 0.0
H29 H 0.07867 0.2033 0.43267 0.0
H30 H 0.14585 0.11679 0.3261 0.0
H31 H 0.05944 0.19109 0.31823 0.0
H32 H 0.05715 0.13267 0.35229 0.0
C33 C 0.54636 0.35847 0.16971 0.0
C34 C 0.53308 0.34492 0.17979 0.0
N35 N 0.52156 0.33472 0.1653 0.0
N36 N 0.54325 0.35721 0.14888 0.0
C37 C 0.52785 0.34275 0.14666 0.0
H38 H 0.55815 0.36809 0.17714 0.0
Co39 Co 0.56067 0.37129 0.13004 0.0
C40 C 0.53826 0.37555 0.09002 0.0
O41 O 0.55616 0.37157 0.08062 0.0
N42 N 0.57903 0.38624 0.11186 0.0
C43 C 0.60589 0.39778 0.09269 0.0
C44 C 0.59818 0.38126 0.10416 0.0
C45 C 0.57576 0.40609 0.10498 0.0
N46 N 0.5918 0.41341 0.09332 0.0
O47 O 0.55355 0.39739 0.14335 0.0
H48 H 0.6066 0.36691 0.10687 0.0
H49 H 0.56178 0.41506 0.10844 0.0
O50 O 0.53729 0.3754 0.11009 0.0
C51 C 0.56757 0.40534 0.15513 0.0
O52 O 0.58534 0.39517 0.15755 0.0
N53 N 0.56842 0.34505 0.11816 0.0
C54 C 0.58487 0.30837 0.1009 0.0
C55 C 0.56445 0.31478 0.09609 0.0
C56 C 0.55641 0.333 0.10509 0.0
C57 C 0.58722 0.33753 0.12504 0.0
C58 C 0.59611 0.31959 0.11608 0.0
H59 H 0.54058 0.33732 0.10116 0.0
H60 H 0.59595 0.34627 0.13666 0.0
H61 H 0.52201 0.3375 0.13169 0.0
H62 H 0.53247 0.34246 0.19654 0.0
H63 H 0.62106 0.3985 0.0851 0.0
H64 H 0.55503 0.30624 0.08484 0.0
H65 H 0.61173 0.31475 0.12068 0.0
C66 C 0.39791 0.80181 0.91999 0.0
C67 C 0.41115 0.78776 0.92939 0.0
N68 N 0.42077 0.77646 0.91438 0.0
N69 N 0.39874 0.79942 0.89903 0.0
C70 C 0.41267 0.78363 0.89608 0.0
H71 H 0.38885 0.81361 0.92803 0.0
Co72 Co 0.38487 0.81808 0.88109 0.0
C73 C 0.37873 0.79738 0.84043 0.0
O74 O 0.38374 0.81539 0.83175 0.0
N75 N 0.37014 0.83752 0.86406 0.0
C76 C 0.3576 0.86556 0.84737 0.0
C77 C 0.37448 0.8574 0.85812 0.0
C78 C 0.35037 0.83423 0.857 0.0
N79 N 0.3424 0.85094 0.84681 0.0
O80 O 0.35883 0.81185 0.89476 0.0
H81 H 0.3886 0.86593 0.86173 0.0
H82 H 0.34196 0.81967 0.85923 0.0
O83 O 0.37919 0.79555 0.86046 0.0
C84 C 0.35245 0.82588 0.90745 0.0
O85 O 0.36451 0.84221 0.91104 0.0
N86 N 0.41106 0.82513 0.86871 0.0
C87 C 0.44876 0.83989 0.85187 0.0
C88 C 0.44097 0.8201 0.84638 0.0
C89 C 0.42236 0.81287 0.85523 0.0
C90 C 0.41948 0.84346 0.8758 0.0
C91 C 0.43806 0.8514 0.86725 0.0
H92 H 0.41719 0.7974 0.85094 0.0
H93 H 0.41133 0.85231 0.88775 0.0
H94 H 0.41751 0.77812 0.88085 0.0
H95 H 0.41381 0.78648 0.94608 0.0
H96 H 0.35639 0.88126 0.84107 0.0
H97 H 0.44882 0.81045 0.83483 0.0
H98 H 0.44389 0.86646 0.87251 0.0
C99 C 0.93565 0.66507 0.65406 0.0
C100 C 0.94665 0.67731 0.66786 0.0
N101 N 0.96612 0.66934 0.66996 0.0
N102 N 0.94811 0.64958 0.64693 0.0
C103 C 0.96622 0.65196 0.65771 0.0
H104 H 0.91982 0.66793 0.64872 0.0
Co105 Co 0.93955 0.63113 0.62564 0.0
C106 C 0.98527 0.6388 0.60987 0.0
O107 O 0.99123 0.65436 0.62193 0.0
N108 N 0.93058 0.61263 0.60458 0.0
C109 C 0.9251 0.59874 0.57311 0.0
C110 C 0.9323 0.61597 0.58375 0.0
C111 C 0.92239 0.5931 0.60617 0.0
N112 N 0.91893 0.58432 0.58721 0.0
O113 O 0.94777 0.60765 0.64236 0.0
H114 H 0.93894 0.62988 0.57668 0.0
H115 H 0.9192 0.58534 0.62089 0.0
O116 O 0.96685 0.63107 0.61159 0.0
C117 C 0.93546 0.60343 0.6575 0.0
O118 O 0.91983 0.61628 0.66138 0.0
N119 N 0.93017 0.65414 0.60961 0.0
C120 C 0.91309 0.68715 0.58649 0.0
C121 C 0.93449 0.68684 0.59153 0.0
C122 C 0.94269 0.67027 0.60322 0.0
C123 C 0.90919 0.65454 0.60553 0.0
C124 C 0.90034 0.67078 0.5938 0.0
H125 H 0.95898 0.67074 0.60738 0.0
H126 H 0.89928 0.64204 0.61131 0.0
H127 H 0.97944 0.64149 0.65611 0.0
H128 H 0.94105 0.69184 0.67458 0.0
H129 H 0.9252 0.59664 0.55627 0.0
H130 H 0.94491 0.69918 0.58629 0.0
H131 H 0.88366 0.67061 0.59067 0.0
C132 C 0.6012 0.30032 0.58506 0.0
C133 C 0.58788 0.28534 0.57723 0.0
N134 N 0.58195 0.27275 0.59309 0.0
N135 N 0.60388 0.2972 0.60576 0.0
C136 C 0.59195 0.28022 0.61024 0.0
H137 H 0.60791 0.31318 0.57631 0.0
Co138 Co 0.61919 0.31553 0.62252 0.0
C139 C 0.63305 0.29224 0.66015 0.0
O140 O 0.63047 0.30939 0.67126 0.0
N141 N 0.63514 0.33479 0.63854 0.0
C142 C 0.6476 0.36257 0.65563 0.0
C143 C 0.63019 0.35387 0.64631 0.0
C144 C 0.65582 0.33262 0.64291 0.0
N145 N 0.66374 0.34915 0.65346 0.0
O146 O 0.64337 0.31125 0.60512 0.0
H147 H 0.61512 0.36141 0.6451 0.0
H148 H 0.66479 0.31882 0.6388 0.0
O149 O 0.62831 0.29206 0.64063 0.0
C150 C 0.64788 0.32648 0.593 0.0
O151 O 0.63511 0.34265 0.59238 0.0
N152 N 0.59477 0.32066 0.63863 0.0
C153 C 0.55893 0.3332 0.6605 0.0
C154 C 0.5689 0.31419 0.66521 0.0
C155 C 0.58656 0.30803 0.65388 0.0
C156 C 0.58414 0.33819 0.63257 0.0
C157 C 0.56638 0.34497 0.64349 0.0
H158 H 0.59325 0.29297 0.65742 0.0
H159 H 0.59 0.34741 0.61961 0.0
H160 H 0.59028 0.27369 0.62577 0.0
H161 H 0.58213 0.28448 0.56129 0.0
H162 H 0.64837 0.37779 0.6631 0.0
H163 H 0.56307 0.30409 0.67755 0.0
H164 H 0.559 0.3596 0.63906 0.0
C165 C 0.44563 0.84433 0.34441 0.0
C166 C 0.45439 0.83121 0.32978 0.0
N167 N 0.47509 0.83523 0.32878 0.0
N168 N 0.46071 0.85648 0.35289 0.0
C169 C 0.47839 0.85105 0.34252 0.0
H170 H 0.42942 0.84433 0.34937 0.0
Co171 Co 0.45487 0.8745 0.37529 0.0
C172 C 0.50113 0.86437 0.38968 0.0
O173 O 0.50682 0.84793 0.3787 0.0
N174 N 0.44857 0.89257 0.39756 0.0
C175 C 0.44622 0.90533 0.42986 0.0
C176 C 0.45312 0.88887 0.4179 0.0
C177 C 0.43895 0.91148 0.39756 0.0
N178 N 0.43732 0.91955 0.41708 0.0
O179 O 0.46341 0.8981 0.35873 0.0
H180 H 0.46104 0.87503 0.42368 0.0
H181 H 0.43302 0.91908 0.38362 0.0
O182 O 0.48287 0.87227 0.38737 0.0
C183 C 0.44949 0.90391 0.34564 0.0
O184 O 0.43205 0.89299 0.34442 0.0
N185 N 0.44526 0.85146 0.39113 0.0
C186 C 0.42875 0.81875 0.41514 0.0
C187 C 0.44917 0.81759 0.40703 0.0
C188 C 0.45707 0.83404 0.39496 0.0
C189 C 0.42503 0.85244 0.39795 0.0
C190 C 0.41654 0.8364 0.41021 0.0
H191 H 0.47252 0.83253 0.38841 0.0
H192 H 0.41552 0.86597 0.39417 0.0
H193 H 0.49345 0.85835 0.34505 0.0
H194 H 0.44637 0.81867 0.32162 0.0
H195 H 0.44796 0.90687 0.44667 0.0
H196 H 0.45893 0.80397 0.40976 0.0
H197 H 0.4007 0.83806 0.41608 0.0
C198 C 0.90696 0.69123 0.09317 0.0
C199 C 0.91923 0.70151 0.07882 0.0
N200 N 0.9137 0.72189 0.07873 0.0
N201 N 0.89388 0.70502 0.1024 0.0
C202 C 0.89784 0.72346 0.09273 0.0
H203 H 0.90815 0.67485 0.0974 0.0
Co204 Co 0.87624 0.69695 0.12432 0.0
C205 C 0.88445 0.74256 0.14121 0.0
O206 O 0.90063 0.74917 0.13037 0.0
N207 N 0.85849 0.68841 0.14599 0.0
C208 C 0.84525 0.68294 0.17774 0.0
C209 C 0.86197 0.69084 0.16674 0.0
C210 C 0.83945 0.67919 0.14477 0.0
N211 N 0.8311 0.67572 0.16389 0.0
O212 O 0.85223 0.70549 0.10827 0.0
H213 H 0.87571 0.69817 0.17345 0.0
H214 H 0.83178 0.67511 0.13022 0.0
O215 O 0.87698 0.72423 0.13816 0.0
C216 C 0.8473 0.6933 0.09324 0.0
O217 O 0.85933 0.67701 0.08942 0.0
N218 N 0.8998 0.68751 0.13964 0.0
C219 C 0.93335 0.67168 0.16302 0.0
C220 C 0.93358 0.69235 0.15549 0.0
C221 C 0.91672 0.69991 0.14378 0.0
C222 C 0.89981 0.667 0.14571 0.0
C223 C 0.91625 0.65885 0.15769 0.0
H224 H 0.91756 0.71559 0.13771 0.0
H225 H 0.88671 0.65702 0.14165 0.0
H226 H 0.88953 0.73783 0.09599 0.0
H227 H 0.93225 0.6948 0.07026 0.0
H228 H 0.84333 0.68307 0.1946 0.0
H229 H 0.94678 0.70262 0.15842 0.0
H230 H 0.9153 0.64279 0.16307 0.0
C231 C 0.07221 0.16494 0.85174 0.0
C232 C 0.0636 0.17883 0.83775 0.0
N233 N 0.04303 0.17437 0.83559 0.0
N234 N 0.0572 0.15181 0.85865 0.0
C235 C 0.03986 0.15728 0.84779 0.0
H236 H 0.08821 0.16503 0.85737 0.0
Co237 Co 0.06184 0.13262 0.88032 0.0
C238 C 0.0151 0.14291 0.8925 0.0
O239 O 0.01098 0.16052 0.88266 0.0
N240 N 0.06673 0.11327 0.90182 0.0
C241 C 0.06643 0.09789 0.93306 0.0
C242 C 0.06063 0.11539 0.92197 0.0
C243 C 0.07611 0.09427 0.90101 0.0
N244 N 0.0761 0.0846 0.91983 0.0
O245 O 0.05453 0.11002 0.86201 0.0
H246 H 0.05229 0.12879 0.92819 0.0
H247 H 0.08289 0.08763 0.88697 0.0
O248 O 0.03309 0.13425 0.89082 0.0
C249 C 0.06947 0.10523 0.84965 0.0
O250 O 0.08654 0.11677 0.85001 0.0
N251 N 0.07053 0.15475 0.89798 0.0
C252 C 0.08641 0.18679 0.92315 0.0
C253 C 0.0668 0.18884 0.91351 0.0
C254 C 0.05914 0.17262 0.90097 0.0
C255 C 0.09003 0.15289 0.90658 0.0
C256 C 0.09811 0.16855 0.91957 0.0
H257 H 0.04441 0.17483 0.89314 0.0
H258 H 0.09939 0.13912 0.90337 0.0
H259 H 0.02502 0.14935 0.8494 0.0
H260 H 0.07182 0.19175 0.83049 0.0
H261 H 0.06333 0.09495 0.94947 0.0
H262 H 0.05742 0.20283 0.9157 0.0
H263 H 0.11353 0.1666 0.92641 0.0
C264 C 0.40162 0.08601 0.18268 0.0
C265 C 0.41599 0.07239 0.19104 0.0
N266 N 0.4177 0.07625 0.21176 0.0
N267 N 0.39402 0.09845 0.19792 0.0
C268 C 0.40479 0.09277 0.21528 0.0
H269 H 0.39631 0.08627 0.16658 0.0
Co270 Co 0.37191 0.11698 0.19257 0.0
C271 C 0.3591 0.10859 0.23968 0.0
O272 O 0.36981 0.092 0.24548 0.0
N273 N 0.3499 0.13561 0.18671 0.0
C274 C 0.31797 0.14953 0.18523 0.0
C275 C 0.32947 0.13238 0.19127 0.0
C276 C 0.35042 0.15496 0.17802 0.0
N277 N 0.33118 0.16375 0.17696 0.0
O278 O 0.38954 0.14022 0.19972 0.0
H279 H 0.32332 0.11853 0.19888 0.0
H280 H 0.36458 0.16254 0.17259 0.0
O281 O 0.36093 0.11587 0.22111 0.0
C282 C 0.40221 0.14533 0.18514 0.0
O283 O 0.40245 0.13395 0.16797 0.0
N284 N 0.35505 0.09414 0.18431 0.0
C285 C 0.3303 0.06112 0.16956 0.0
C286 C 0.33899 0.06055 0.18975 0.0
C287 C 0.35141 0.07714 0.19677 0.0
C288 C 0.34753 0.0946 0.16431 0.0
C289 C 0.33489 0.0784 0.15671 0.0
H290 H 0.3585 0.076 0.212 0.0
H291 H 0.35115 0.10778 0.15428 0.0
H292 H 0.40287 0.1003 0.23026 0.0
H293 H 0.42392 0.06011 0.18248 0.0
H294 H 0.30127 0.15167 0.18738 0.0
H295 H 0.33654 0.04723 0.19998 0.0
H296 H 0.32856 0.0796 0.14102 0.0
C297 C 0.66623 0.64438 0.93511 0.0
C298 C 0.67939 0.65849 0.9446 0.0
N299 N 0.67243 0.66205 0.96424 0.0
N300 N 0.65115 0.63858 0.9487 0.0
C301 C 0.65481 0.65029 0.96599 0.0
H302 H 0.66816 0.6379 0.91957 0.0
Co303 Co 0.6317 0.61739 0.94265 0.0
C304 C 0.6389 0.60529 0.98978 0.0
O305 O 0.65558 0.61614 0.99502 0.0
N306 N 0.61218 0.59618 0.9364 0.0
C307 C 0.59694 0.56483 0.93631 0.0
C308 C 0.61504 0.5756 0.94052 0.0
C309 C 0.59211 0.59746 0.92954 0.0
N310 N 0.58242 0.57859 0.92958 0.0
O311 O 0.60918 0.6361 0.94928 0.0
H312 H 0.62917 0.56887 0.94704 0.0
H313 H 0.5844 0.61201 0.92553 0.0
O314 O 0.63149 0.60642 0.97121 0.0
C315 C 0.60518 0.64902 0.93458 0.0
O316 O 0.61716 0.64877 0.91782 0.0
N317 N 0.65388 0.59955 0.93467 0.0
C318 C 0.6863 0.57477 0.91877 0.0
C319 C 0.6864 0.5813 0.93976 0.0
C320 C 0.6701 0.59379 0.94738 0.0
C321 C 0.65376 0.59378 0.9141 0.0
C322 C 0.66969 0.58123 0.90587 0.0
H323 H 0.67089 0.59918 0.9633 0.0
H324 H 0.6412 0.59906 0.904 0.0
H325 H 0.64498 0.64986 0.97977 0.0
H326 H 0.69378 0.66448 0.93792 0.0
H327 H 0.59457 0.54817 0.93844 0.0
H328 H 0.69894 0.57675 0.95027 0.0
H329 H 0.66919 0.57696 0.88946 0.0
C330 C 0.08677 0.88722 0.71314 0.0
C331 C 0.07761 0.9011 0.72669 0.0
N332 N 0.0928 0.91251 0.73589 0.0
N333 N 0.10779 0.88941 0.71376 0.0
C334 C 0.11101 0.90485 0.72802 0.0
H335 H 0.07838 0.87686 0.70273 0.0
Co336 Co 0.12513 0.87524 0.69464 0.0
C337 C 0.16652 0.86883 0.7143 0.0
O338 O 0.17479 0.87256 0.69581 0.0
N339 N 0.14132 0.86031 0.67471 0.0
C340 C 0.15654 0.84813 0.64575 0.0
C341 C 0.14594 0.86473 0.65451 0.0
C342 C 0.14885 0.84064 0.67754 0.0
N343 N 0.15832 0.83295 0.66028 0.0
O344 O 0.11153 0.84914 0.70169 0.0
H345 H 0.14147 0.8787 0.64616 0.0
H346 H 0.14753 0.83217 0.69217 0.0
O347 O 0.14654 0.86983 0.71661 0.0
C348 C 0.09837 0.84241 0.68825 0.0
O349 O 0.09458 0.85391 0.67157 0.0
N350 N 0.13759 0.90137 0.68687 0.0
C351 C 0.15631 0.93747 0.67042 0.0
C352 C 0.16202 0.92987 0.69019 0.0
C353 C 0.15224 0.9121 0.69828 0.0
C354 C 0.13001 0.91006 0.66886 0.0
C355 C 0.13942 0.92789 0.66008 0.0
H356 H 0.15677 0.90716 0.71375 0.0
H357 H 0.11722 0.90249 0.66069 0.0
H358 H 0.12622 0.91118 0.73179 0.0
H359 H 0.06092 0.90303 0.72899 0.0
H360 H 0.16194 0.84709 0.62971 0.0
H361 H 0.17417 0.93748 0.6993 0.0
H362 H 0.13408 0.93355 0.645 0.0
C363 C 0.85366 0.34403 0.44345 0.0
C364 C 0.83992 0.33528 0.45749 0.0
N365 N 0.83444 0.35008 0.4715 0.0
N366 N 0.85706 0.36424 0.44859 0.0
C367 C 0.84508 0.36752 0.46579 0.0
H368 H 0.86026 0.33627 0.42994 0.0
Co369 Co 0.87374 0.38188 0.43246 0.0
C370 C 0.88637 0.41777 0.45896 0.0
O371 O 0.88476 0.42994 0.44242 0.0
N372 N 0.89114 0.39887 0.4154 0.0
C373 C 0.90529 0.41856 0.39034 0.0
C374 C 0.88734 0.4087 0.39705 0.0
C375 C 0.91172 0.40261 0.41911 0.0
N376 N 0.9207 0.41475 0.40427 0.0
O377 O 0.89729 0.36368 0.43704 0.0
H378 H 0.87264 0.40887 0.38875 0.0
H379 H 0.91987 0.39657 0.43268 0.0
O380 O 0.88163 0.39828 0.4576 0.0
C381 C 0.90184 0.35173 0.4217 0.0
O382 O 0.88984 0.35219 0.40497 0.0
N383 N 0.84991 0.39875 0.4269 0.0
C384 C 0.81569 0.42256 0.41322 0.0
C385 C 0.82399 0.42531 0.4334 0.0
C386 C 0.84087 0.41304 0.44007 0.0
C387 C 0.84062 0.39431 0.4082 0.0
C388 C 0.82382 0.40629 0.40082 0.0
H389 H 0.84639 0.41517 0.45586 0.0
H390 H 0.84701 0.38198 0.39846 0.0
H391 H 0.84391 0.38241 0.4738 0.0
H392 H 0.83367 0.31951 0.45685 0.0
H393 H 0.90661 0.42808 0.37638 0.0
H394 H 0.81753 0.43689 0.444 0.0
H395 H 0.81781 0.40328 0.38524 0.0
C396 C 0.91352 0.39039 0.79443 0.0
C397 C 0.9225 0.4036 0.78006 0.0
N398 N 0.90732 0.411 0.76739 0.0
N399 N 0.89274 0.38922 0.7909 0.0
C400 C 0.88938 0.40194 0.77425 0.0
H401 H 0.92155 0.38282 0.80728 0.0
Co402 Co 0.87516 0.37471 0.80905 0.0
C403 C 0.836 0.36446 0.78653 0.0
O404 O 0.8257 0.36768 0.80407 0.0
N405 N 0.85835 0.35951 0.82832 0.0
C406 C 0.84013 0.34847 0.85599 0.0
C407 C 0.85076 0.36507 0.84732 0.0
C408 C 0.85253 0.33916 0.8262 0.0
N409 N 0.84127 0.3322 0.84267 0.0
O410 O 0.89062 0.34943 0.80349 0.0
H411 H 0.85293 0.37995 0.85493 0.0
H412 H 0.85615 0.32974 0.81258 0.0
O413 O 0.85586 0.36755 0.78585 0.0
C414 C 0.90308 0.34302 0.81772 0.0
O415 O 0.90496 0.35417 0.83493 0.0
N416 N 0.86095 0.40017 0.8151 0.0
C417 C 0.83934 0.43531 0.82978 0.0
C418 C 0.83506 0.42699 0.8099 0.0
C419 C 0.84625 0.40965 0.8027 0.0
C420 C 0.86734 0.40983 0.83305 0.0
C421 C 0.85642 0.42713 0.841 0.0
H422 H 0.84276 0.40394 0.78723 0.0
H423 H 0.8801 0.40316 0.84201 0.0
H424 H 0.87408 0.40496 0.76763 0.0
H425 H 0.93879 0.40835 0.77981 0.0
H426 H 0.83257 0.34826 0.87118 0.0
H427 H 0.82287 0.43359 0.8001 0.0
H428 H 0.86068 0.43328 0.85622 0.0
C429 C 0.34757 0.15765 0.55702 0.0
C430 C 0.3345 0.16612 0.54216 0.0
N431 N 0.32955 0.151 0.52828 0.0
N432 N 0.35101 0.13731 0.55255 0.0
C433 C 0.33991 0.1337 0.53485 0.0
H434 H 0.35356 0.16563 0.57072 0.0
Co435 Co 0.36599 0.11969 0.57024 0.0
C436 C 0.37525 0.08104 0.54672 0.0
O437 O 0.3713 0.07055 0.564 0.0
N438 N 0.38175 0.10269 0.5888 0.0
C439 C 0.39489 0.0855 0.6162 0.0
C440 C 0.37751 0.09555 0.60829 0.0
C441 C 0.40196 0.09705 0.58551 0.0
N442 N 0.4103 0.08653 0.60184 0.0
O443 O 0.39089 0.13584 0.56513 0.0
H444 H 0.36308 0.09788 0.61674 0.0
H445 H 0.41039 0.10058 0.57123 0.0
O446 O 0.37331 0.10104 0.54659 0.0
C447 C 0.3962 0.14801 0.58006 0.0
O448 O 0.38396 0.14916 0.59659 0.0
N449 N 0.34073 0.105 0.57619 0.0
C450 C 0.30331 0.08592 0.58904 0.0
C451 C 0.31197 0.0816 0.56931 0.0
C452 C 0.33039 0.0916 0.56302 0.0
C453 C 0.33151 0.11082 0.59457 0.0
C454 C 0.31308 0.10118 0.60153 0.0
H455 H 0.33603 0.08846 0.54745 0.0
H456 H 0.33879 0.1228 0.60411 0.0
H457 H 0.33904 0.11863 0.52716 0.0
H458 H 0.32821 0.18188 0.54223 0.0
H459 H 0.39624 0.07855 0.63162 0.0
H460 H 0.30483 0.07026 0.55889 0.0
H461 H 0.30654 0.10567 0.61653 0.0
C462 C 0.59773 0.59397 0.31248 0.0
C463 C 0.58352 0.57942 0.30534 0.0
N464 N 0.58124 0.58194 0.28448 0.0
N465 N 0.60461 0.60551 0.29622 0.0
C466 C 0.59365 0.59843 0.27956 0.0
H467 H 0.60363 0.59526 0.32832 0.0
Co468 Co 0.62686 0.6244 0.29799 0.0
C469 C 0.63721 0.61036 0.25154 0.0
O470 O 0.6281 0.5922 0.24819 0.0
N471 N 0.64908 0.64342 0.29985 0.0
C472 C 0.68027 0.65816 0.2953 0.0
C473 C 0.66836 0.64065 0.29162 0.0
C474 C 0.64967 0.66271 0.30861 0.0
N475 N 0.66853 0.67208 0.30603 0.0
O476 O 0.60881 0.64665 0.289 0.0
H477 H 0.67343 0.6268 0.28325 0.0
H478 H 0.63658 0.66969 0.31681 0.0
O479 O 0.63557 0.61946 0.26928 0.0
C480 C 0.59709 0.65393 0.30343 0.0
O481 O 0.59777 0.64504 0.322 0.0
N482 N 0.64442 0.60277 0.308 0.0
C483 C 0.67022 0.57187 0.32544 0.0
C484 C 0.66008 0.56858 0.3062 0.0
C485 C 0.64716 0.58416 0.29783 0.0
C486 C 0.65355 0.60602 0.32705 0.0
C487 C 0.66668 0.5909 0.33595 0.0
H488 H 0.63893 0.58095 0.28348 0.0
H489 H 0.65072 0.62052 0.33536 0.0
H490 H 0.59546 0.60459 0.26394 0.0
H491 H 0.57626 0.56729 0.31471 0.0
H492 H 0.69622 0.66057 0.29006 0.0
H493 H 0.66173 0.5539 0.29783 0.0
H494 H 0.67416 0.59423 0.35081 0.0
C495 C 0.14614 0.83531 0.05353 0.0
C496 C 0.15996 0.82597 0.03999 0.0
N497 N 0.16466 0.83978 0.02474 0.0
N498 N 0.14204 0.85493 0.04693 0.0
C499 C 0.15334 0.85718 0.02913 0.0
H500 H 0.14008 0.82853 0.06782 0.0
Co501 Co 0.12627 0.87275 0.0635 0.0
C502 C 0.12089 0.91244 0.04085 0.0
O503 O 0.12437 0.92188 0.05884 0.0
N504 N 0.10953 0.88975 0.0812 0.0
C505 C 0.09458 0.9059 0.1083 0.0
C506 C 0.11191 0.89504 0.10158 0.0
C507 C 0.09023 0.89711 0.07621 0.0
N508 N 0.08093 0.90719 0.0923 0.0
O509 O 0.10148 0.85785 0.05558 0.0
H510 H 0.12483 0.89077 0.11153 0.0
H511 H 0.08316 0.89512 0.06092 0.0
O512 O 0.12163 0.89237 0.0399 0.0
C513 C 0.09398 0.845 0.06885 0.0
O514 O 0.10384 0.84239 0.08675 0.0
N515 N 0.15145 0.8865 0.07175 0.0
C516 C 0.18644 0.90784 0.08729 0.0
C517 C 0.1806 0.90969 0.0662 0.0
C518 C 0.16335 0.89861 0.05866 0.0
C519 C 0.15883 0.88201 0.09129 0.0
C520 C 0.1759 0.89299 0.09967 0.0
H521 H 0.15953 0.90021 0.0423 0.0
H522 H 0.15099 0.87032 0.10072 0.0
H523 H 0.15419 0.87157 0.02021 0.0
H524 H 0.16654 0.81041 0.04161 0.0
H525 H 0.09197 0.91176 0.124 0.0
H526 H 0.18911 0.91985 0.05559 0.0
H527 H 0.18026 0.89035 0.11585 0.0
C528 C 0.20171 0.41419 0.10994 0.0
C529 C 0.21655 0.42211 0.09651 0.0
N530 N 0.22898 0.40625 0.09025 0.0
N531 N 0.20477 0.39343 0.11234 0.0
C532 C 0.2216 0.38903 0.10021 0.0
H533 H 0.18892 0.42292 0.11681 0.0
Co534 Co 0.18639 0.3765 0.1274 0.0
C535 C 0.20895 0.3376 0.1386 0.0
O536 O 0.19148 0.32714 0.13542 0.0
N537 N 0.16709 0.36031 0.14317 0.0
C538 C 0.13894 0.34391 0.1557 0.0
C539 C 0.1474 0.35392 0.13861 0.0
C540 C 0.16986 0.35448 0.1634 0.0
N541 N 0.15312 0.34424 0.17131 0.0
O542 O 0.19158 0.39291 0.15204 0.0
H543 H 0.1392 0.35665 0.12412 0.0
H544 H 0.18416 0.35741 0.17203 0.0
O545 O 0.20957 0.35741 0.13522 0.0
C546 C 0.17669 0.40542 0.1566 0.0
O547 O 0.16046 0.4064 0.14393 0.0
N548 N 0.18031 0.36151 0.10252 0.0
C549 C 0.16604 0.341 0.06665 0.0
C550 C 0.1857 0.33621 0.07515 0.0
C551 C 0.19267 0.3468 0.09298 0.0
C552 C 0.16227 0.36792 0.09303 0.0
C553 C 0.15448 0.35746 0.07544 0.0
H554 H 0.20799 0.34297 0.09889 0.0
H555 H 0.1534 0.38073 0.09974 0.0
H556 H 0.22803 0.37348 0.09825 0.0
H557 H 0.21731 0.43808 0.09081 0.0
H558 H 0.12334 0.33731 0.15665 0.0
H559 H 0.19534 0.32392 0.06848 0.0
H560 H 0.13949 0.36205 0.06891 0.0
C561 C 0.67625 0.10296 0.91495 0.0
C562 C 0.68561 0.08808 0.92738 0.0
N563 N 0.70561 0.08566 0.92102 0.0
N564 N 0.6903 0.11024 0.90096 0.0
C565 C 0.70779 0.09879 0.9045 0.0
H566 H 0.6605 0.10897 0.91673 0.0
Co567 Co 0.68446 0.13266 0.88294 0.0
C568 C 0.73177 0.14423 0.89057 0.0
O569 O 0.73685 0.13337 0.90726 0.0
N570 N 0.6784 0.15507 0.8647 0.0
C571 C 0.67845 0.18715 0.85108 0.0
C572 C 0.6825 0.17547 0.86864 0.0
C573 C 0.67182 0.15483 0.84452 0.0
N574 N 0.67192 0.17415 0.83578 0.0
O575 O 0.69066 0.11517 0.85938 0.0
H576 H 0.68894 0.18145 0.88314 0.0
H577 H 0.66804 0.14068 0.83601 0.0
O578 O 0.71322 0.14323 0.88305 0.0
C579 C 0.67557 0.10298 0.8546 0.0
O580 O 0.65875 0.10314 0.8665 0.0
N581 N 0.67694 0.14927 0.90626 0.0
C582 C 0.66224 0.1723 0.94042 0.0
C583 C 0.68257 0.164 0.94042 0.0
C584 C 0.68961 0.1525 0.92319 0.0
C585 C 0.65684 0.15661 0.90632 0.0
C586 C 0.64929 0.1685 0.92308 0.0
H587 H 0.70496 0.14564 0.92386 0.0
H588 H 0.64661 0.15322 0.89323 0.0
H589 H 0.72202 0.10031 0.89547 0.0
H590 H 0.67867 0.08082 0.94105 0.0
H591 H 0.68065 0.20391 0.84962 0.0
H592 H 0.69297 0.1664 0.95363 0.0
H593 H 0.63332 0.17427 0.92269 0.0
C594 C 0.6621 0.95081 0.65023 0.0
C595 C 0.67047 0.9659 0.66304 0.0
N596 N 0.65485 0.97852 0.66954 0.0
N597 N 0.64127 0.95387 0.64841 0.0
C598 C 0.63728 0.97095 0.66035 0.0
H599 H 0.67058 0.93787 0.64333 0.0
Co600 Co 0.62418 0.9351 0.63403 0.0
C601 C 0.58508 0.9569 0.62229 0.0
O602 O 0.57493 0.9394 0.6262 0.0
N603 N 0.60786 0.91537 0.61895 0.0
C604 C 0.59039 0.88744 0.60736 0.0
C605 C 0.60024 0.89635 0.62437 0.0
C606 C 0.60271 0.91735 0.59846 0.0
N607 N 0.59195 0.90072 0.59103 0.0
O608 O 0.64034 0.93978 0.60907 0.0
H609 H 0.60181 0.88903 0.6395 0.0
H610 H 0.607 0.93082 0.58911 0.0
O611 O 0.60489 0.95796 0.62562 0.0
C612 C 0.65297 0.92516 0.60398 0.0
O613 O 0.65458 0.90877 0.61637 0.0
N614 N 0.60942 0.92974 0.65924 0.0
C615 C 0.58979 0.91749 0.69644 0.0
C616 C 0.58454 0.93646 0.68669 0.0
C617 C 0.59478 0.94248 0.66834 0.0
C618 C 0.61608 0.91225 0.66957 0.0
C619 C 0.60625 0.9056 0.68801 0.0
H620 H 0.59088 0.95754 0.66182 0.0
H621 H 0.62868 0.90298 0.663 0.0
H622 H 0.62182 0.97746 0.66268 0.0
H623 H 0.68664 0.9668 0.66814 0.0
H624 H 0.58264 0.87235 0.60715 0.0
H625 H 0.57264 0.94665 0.69322 0.0
H626 H 0.6111 0.891 0.69518 0.0
C627 C 0.80225 0.91585 0.39505 0.0
C628 C 0.78839 0.92594 0.40801 0.0
N629 N 0.77522 0.91161 0.41626 0.0
N630 N 0.79789 0.8952 0.39478 0.0
C631 C 0.78115 0.89311 0.40765 0.0
H632 H 0.81525 0.92308 0.38695 0.0
Co633 Co 0.81515 0.87582 0.38127 0.0
C634 C 0.79005 0.83805 0.3727 0.0
O635 O 0.80659 0.82694 0.37799 0.0
N636 N 0.83331 0.85706 0.36702 0.0
C637 C 0.86007 0.83757 0.35591 0.0
C638 C 0.85212 0.84891 0.37242 0.0
C639 C 0.83048 0.85064 0.34698 0.0
N640 N 0.84642 0.8387 0.33985 0.0
O641 O 0.81184 0.89102 0.35551 0.0
H642 H 0.86012 0.8513 0.38707 0.0
H643 H 0.81706 0.85513 0.33763 0.0
O644 O 0.79076 0.85812 0.37378 0.0
C645 C 0.82773 0.90184 0.35003 0.0
O646 O 0.84408 0.90235 0.36256 0.0
N647 N 0.81945 0.86192 0.40726 0.0
C648 C 0.83173 0.84088 0.44362 0.0
C649 C 0.81158 0.83809 0.43531 0.0
C650 C 0.80563 0.84898 0.41733 0.0
C651 C 0.83793 0.86694 0.41673 0.0
C652 C 0.84466 0.85625 0.43465 0.0
H653 H 0.78997 0.84656 0.41157 0.0
H654 H 0.8481 0.87849 0.40959 0.0
H655 H 0.77405 0.87824 0.4114 0.0
H656 H 0.78855 0.94253 0.41148 0.0
H657 H 0.87486 0.82927 0.35579 0.0
H658 H 0.80059 0.82727 0.4424 0.0
H659 H 0.86019 0.85933 0.44076 0.0
C660 C 0.83379 0.04815 0.14162 0.0
C661 C 0.82661 0.03295 0.15504 0.0
N662 N 0.84296 0.02086 0.16075 0.0
N663 N 0.85455 0.04569 0.1387 0.0
C664 C 0.85972 0.02883 0.15047 0.0
H665 H 0.82459 0.06079 0.13507 0.0
Co666 Co 0.87021 0.06489 0.12344 0.0
C667 C 0.91061 0.04499 0.11292 0.0
O668 O 0.9198 0.06305 0.11669 0.0
N669 N 0.88502 0.085 0.10744 0.0
C670 C 0.89877 0.11429 0.09427 0.0
C671 C 0.88915 0.10541 0.11141 0.0
C672 C 0.89182 0.08213 0.08754 0.0
N673 N 0.90052 0.09955 0.07931 0.0
O674 O 0.85434 0.05792 0.09886 0.0
H675 H 0.88511 0.11374 0.12552 0.0
H676 H 0.89019 0.06748 0.07912 0.0
O677 O 0.8908 0.04309 0.1158 0.0
C678 C 0.84065 0.07114 0.09284 0.0
O679 O 0.83811 0.08841 0.1038 0.0
N680 N 0.88482 0.07225 0.14839 0.0
C681 C 0.90395 0.08639 0.18529 0.0
C682 C 0.9097 0.06722 0.17626 0.0
C683 C 0.89971 0.06025 0.15812 0.0
C684 C 0.87773 0.08998 0.158 0.0
C685 C 0.88738 0.09764 0.17617 0.0
H686 H 0.90407 0.04508 0.15222 0.0
H687 H 0.86465 0.09845 0.15132 0.0
H688 H 0.87548 0.02279 0.15194 0.0
H689 H 0.81082 0.03169 0.16111 0.0
H690 H 0.90414 0.13034 0.09297 0.0
H691 H 0.92214 0.05775 0.18289 0.0
H692 H 0.88186 0.11214 0.18304 0.0
C693 C 0.31528 0.59399 0.59779 0.0
C694 C 0.30163 0.58549 0.58353 0.0
N695 N 0.28562 0.59898 0.58077 0.0
N696 N 0.308 0.61275 0.60413 0.0
C697 C 0.2897 0.61531 0.59368 0.0
H698 H 0.33015 0.58735 0.60244 0.0
Co699 Co 0.32434 0.63028 0.62067 0.0
C700 C 0.30021 0.66861 0.62863 0.0
O701 O 0.3177 0.679 0.62532 0.0
N702 N 0.34164 0.64713 0.63802 0.0
C703 C 0.36752 0.665 0.65315 0.0
C704 C 0.36117 0.65485 0.63525 0.0
C705 C 0.33679 0.65247 0.658 0.0
N706 N 0.35216 0.66347 0.66756 0.0
O707 O 0.31798 0.61353 0.64471 0.0
H708 H 0.37068 0.65317 0.62144 0.0
H709 H 0.32218 0.64811 0.6654 0.0
O710 O 0.30008 0.64856 0.627 0.0
C711 C 0.33185 0.60004 0.64961 0.0
O712 O 0.34845 0.59805 0.63758 0.0
N713 N 0.33139 0.64572 0.59619 0.0
C714 C 0.34533 0.66798 0.56109 0.0
C715 C 0.32443 0.66942 0.56776 0.0
C716 C 0.31768 0.65789 0.58505 0.0
C717 C 0.35086 0.64197 0.58824 0.0
C718 C 0.35842 0.65337 0.57109 0.0
H719 H 0.3014 0.65899 0.58936 0.0
H720 H 0.36088 0.63049 0.59569 0.0
H721 H 0.28022 0.62935 0.59449 0.0
H722 H 0.30373 0.57083 0.57525 0.0
H723 H 0.38234 0.67296 0.6552 0.0
H724 H 0.31332 0.67945 0.55974 0.0
H725 H 0.37451 0.65116 0.5662 0.0
C726 C 0.16209 0.56539 0.35284 0.0
C727 C 0.17113 0.5499 0.34095 0.0
N728 N 0.15664 0.53499 0.33734 0.0
N729 N 0.14199 0.5603 0.35687 0.0
C730 C 0.13913 0.54158 0.34733 0.0
H731 H 0.16948 0.5799 0.35752 0.0
Co732 Co 0.12403 0.57851 0.37082 0.0
C733 C 0.08519 0.55565 0.38031 0.0
O734 O 0.07502 0.57274 0.37488 0.0
N735 N 0.10673 0.59764 0.38562 0.0
C736 C 0.08758 0.62446 0.39727 0.0
C737 C 0.09864 0.61659 0.38052 0.0
C738 C 0.10076 0.59478 0.40579 0.0
N739 N 0.08899 0.61069 0.41315 0.0
O740 O 0.13974 0.57436 0.39608 0.0
H741 H 0.10068 0.62466 0.36586 0.0
H742 H 0.10462 0.58094 0.41482 0.0
O743 O 0.10525 0.55517 0.3789 0.0
C744 C 0.15285 0.58864 0.40088 0.0
O745 O 0.1553 0.60458 0.38807 0.0
N746 N 0.10954 0.5832 0.34519 0.0
C747 C 0.08762 0.59441 0.30891 0.0
C748 C 0.08587 0.57418 0.31734 0.0
C749 C 0.09713 0.56881 0.33527 0.0
C750 C 0.11375 0.60179 0.33554 0.0
C751 C 0.1025 0.60803 0.31776 0.0
H752 H 0.09541 0.5531 0.34119 0.0
H753 H 0.12521 0.61231 0.34229 0.0
H754 H 0.12445 0.53313 0.34724 0.0
H755 H 0.18678 0.55022 0.33439 0.0
H756 H 0.07948 0.63937 0.39785 0.0
H757 H 0.07563 0.56258 0.31033 0.0
H758 H 0.10493 0.62365 0.31159 0.0
C759 C 0.33781 0.44272 0.85161 0.0
C760 C 0.32899 0.45642 0.83758 0.0
N761 N 0.34346 0.47092 0.83247 0.0
N762 N 0.35776 0.44848 0.85543 0.0
C763 C 0.36073 0.46592 0.84372 0.0
H764 H 0.33045 0.42879 0.85783 0.0
Co765 Co 0.37573 0.43136 0.87058 0.0
C766 C 0.41461 0.45494 0.87845 0.0
O767 O 0.42478 0.4374 0.87474 0.0
N768 N 0.39304 0.41322 0.8865 0.0
C769 C 0.41035 0.38599 0.89985 0.0
C770 C 0.40007 0.39362 0.88251 0.0
C771 C 0.39898 0.41686 0.90656 0.0
N772 N 0.40958 0.40064 0.91501 0.0
O773 O 0.36002 0.43704 0.89557 0.0
H774 H 0.39748 0.38487 0.86832 0.0
H775 H 0.39555 0.43128 0.91481 0.0
O776 O 0.39456 0.45527 0.87689 0.0
C777 C 0.34792 0.42208 0.90097 0.0
O778 O 0.34681 0.40548 0.88881 0.0
N779 N 0.38992 0.42478 0.84528 0.0
C780 C 0.40864 0.41082 0.80817 0.0
C781 C 0.41291 0.43089 0.81607 0.0
C782 C 0.40305 0.43774 0.83434 0.0
C783 C 0.38398 0.40615 0.83667 0.0
C784 C 0.39348 0.39862 0.81841 0.0
H785 H 0.40611 0.45353 0.83944 0.0
H786 H 0.37211 0.3968 0.84436 0.0
H787 H 0.37557 0.47402 0.84239 0.0
H788 H 0.31338 0.45532 0.83101 0.0
H789 H 0.41721 0.37055 0.90138 0.0
H790 H 0.42414 0.44112 0.8085 0.0
H791 H 0.389 0.38338 0.81241 0.0
H792 H 0.30376 0.12027 0.51416 0.0
H793 H 0.27492 0.12414 0.48923 0.0
H794 H 0.29103 0.18923 0.48049 0.0
H795 H 0.31983 0.18547 0.50555 0.0
H796 H 0.2498 0.18419 0.48878 0.0
H797 H 0.27323 0.12895 0.42613 0.0
H798 H 0.27297 0.11689 0.45152 0.0
H799 H 0.29123 0.13772 0.44613 0.0
C800 C 0.30149 0.13527 0.50656 0.0
C801 C 0.3141 0.15257 0.51183 0.0
C802 C 0.28499 0.13747 0.49227 0.0
C803 C 0.28094 0.15692 0.48277 0.0
C804 C 0.29386 0.17407 0.48759 0.0
H805 H 0.17593 0.19695 0.40245 0.0
H806 H 0.20923 0.19634 0.42175 0.0
C807 C 0.31028 0.17191 0.50195 0.0
C808 C 0.2623 0.15978 0.46909 0.0
H809 H 0.23731 0.14003 0.42605 0.0
C810 C 0.2472 0.17474 0.4749 0.0
C811 C 0.25893 0.14747 0.45095 0.0
C812 C 0.27505 0.13201 0.44317 0.0
C813 C 0.22848 0.17714 0.46355 0.0
C814 C 0.22485 0.16436 0.44583 0.0
C815 C 0.24013 0.14975 0.43971 0.0
C816 C 0.20478 0.16507 0.43413 0.0
C817 C 0.21236 0.19274 0.47103 0.0
C818 C 0.19138 0.14766 0.43458 0.0
C819 C 0.17241 0.14798 0.42368 0.0
C820 C 0.16648 0.16568 0.41194 0.0
C821 C 0.17997 0.18313 0.41145 0.0
C822 C 0.19898 0.18282 0.42247 0.0
H823 H 0.21603 0.19886 0.48691 0.0
H824 H 0.21184 0.2062 0.46001 0.0
H825 H 0.19653 0.18549 0.47133 0.0
H826 H 0.19559 0.13381 0.44348 0.0
H827 H 0.16247 0.13423 0.42436 0.0
H828 H 0.53303 0.43122 0.15386 0.0
H829 H 0.52874 0.46528 0.17141 0.0
H830 H 0.59082 0.45956 0.19755 0.0
H831 H 0.59529 0.42593 0.18013 0.0
H832 H 0.5307 0.47453 0.21441 0.0
H833 H 0.5919 0.51795 0.17119 0.0
H834 H 0.58124 0.4934 0.16194 0.0
H835 H 0.60168 0.49364 0.1814 0.0
C836 C 0.54577 0.4373 0.16329 0.0
C837 C 0.56452 0.42588 0.16555 0.0
C838 C 0.54331 0.45674 0.17327 0.0
C839 C 0.55962 0.46513 0.18546 0.0
C840 C 0.57822 0.45365 0.18783 0.0
H841 H 0.57359 0.54056 0.29111 0.0
H842 H 0.56339 0.51468 0.26526 0.0
C843 C 0.58068 0.4343 0.17795 0.0
C844 C 0.55723 0.48541 0.1966 0.0
H845 H 0.58279 0.53157 0.20534 0.0
C846 C 0.5418 0.48722 0.21216 0.0
C847 C 0.5714 0.50216 0.19337 0.0
C848 C 0.58734 0.50181 0.1759 0.0
C849 C 0.54121 0.50465 0.22563 0.0
C850 C 0.55669 0.52045 0.22368 0.0
C851 C 0.57108 0.51937 0.20707 0.0
C852 C 0.55978 0.5369 0.23989 0.0
C853 C 0.52429 0.5057 0.2421 0.0
C854 C 0.56124 0.55816 0.23435 0.0
C855 C 0.56719 0.57318 0.24924 0.0
C856 C 0.57199 0.5672 0.26993 0.0
C857 C 0.56969 0.54597 0.27554 0.0
C858 C 0.56378 0.53103 0.26069 0.0
H859 H 0.50987 0.49748 0.2368 0.0
H860 H 0.52987 0.49776 0.25653 0.0
H861 H 0.52023 0.52217 0.24604 0.0
H862 H 0.55834 0.56306 0.21836 0.0
H863 H 0.56858 0.58937 0.24437 0.0
H864 H 0.31807 0.80408 0.8935 0.0
H865 H 0.28221 0.80592 0.90744 0.0
H866 H 0.30349 0.84754 0.95632 0.0
H867 H 0.33893 0.84632 0.94213 0.0
H868 H 0.26549 0.79525 0.94403 0.0
H869 H 0.25498 0.88039 0.93385 0.0
H870 H 0.27651 0.86634 0.92204 0.0
H871 H 0.27822 0.87532 0.94878 0.0
C872 C 0.31504 0.81354 0.90727 0.0
C873 C 0.33124 0.82516 0.91668 0.0
C874 C 0.29456 0.81467 0.91515 0.0
C875 C 0.29002 0.82737 0.93257 0.0
C876 C 0.30641 0.83826 0.94241 0.0
H877 H 0.20061 0.81788 0.02869 0.0
H878 H 0.22837 0.81406 0.00291 0.0
C879 C 0.32673 0.83737 0.93442 0.0
C880 C 0.26843 0.82878 0.94116 0.0
H881 H 0.23295 0.86402 0.96022 0.0
C882 C 0.2582 0.81028 0.94722 0.0
C883 C 0.2585 0.84832 0.94476 0.0
C884 C 0.26754 0.86867 0.93677 0.0
C885 C 0.23912 0.81088 0.95818 0.0
C886 C 0.2304 0.83052 0.9638 0.0
C887 C 0.2398 0.84895 0.95633 0.0
C888 C 0.21279 0.83234 0.97894 0.0
C889 C 0.22869 0.79041 0.96383 0.0
C890 C 0.19504 0.84464 0.97446 0.0
C891 C 0.17915 0.84714 0.98944 0.0
C892 C 0.18075 0.8373 0.00909 0.0
C893 C 0.19861 0.82518 0.01351 0.0
C894 C 0.21449 0.82289 0.99871 0.0
H895 H 0.23227 0.77811 0.95203 0.0
H896 H 0.23483 0.78489 0.97914 0.0
H897 H 0.21141 0.79212 0.96503 0.0
H898 H 0.1935 0.85232 0.9594 0.0
H899 H 0.16557 0.85659 0.98564 0.0
H900 H 0.94207 0.41966 0.74465 0.0
H901 H 0.94839 0.45086 0.72332 0.0
H902 H 0.88484 0.47118 0.73391 0.0
H903 H 0.87846 0.44017 0.7557 0.0
H904 H 0.90417 0.47532 0.68916 0.0
H905 H 0.94957 0.51044 0.75497 0.0
H906 H 0.95569 0.48388 0.74763 0.0
H907 H 0.93066 0.48974 0.75899 0.0
C908 C 0.92937 0.43067 0.74236 0.0
C909 C 0.90984 0.42754 0.75215 0.0
C910 C 0.933 0.44843 0.73008 0.0
C911 C 0.91716 0.46337 0.72726 0.0
C912 C 0.89726 0.45977 0.73594 0.0
H913 H 0.91715 0.59332 0.69455 0.0
H914 H 0.91436 0.55867 0.7106 0.0
C915 C 0.89362 0.442 0.74831 0.0
C916 C 0.92188 0.48347 0.71666 0.0
H917 H 0.9472 0.5301 0.72387 0.0
C918 C 0.91366 0.48728 0.69663 0.0
C919 C 0.93419 0.49901 0.72658 0.0
C920 C 0.943 0.49576 0.74828 0.0
C921 C 0.91741 0.50638 0.68626 0.0
C922 C 0.92971 0.52193 0.69622 0.0
C923 C 0.93796 0.51805 0.71622 0.0
C924 C 0.93279 0.54298 0.68688 0.0
C925 C 0.90773 0.51007 0.66501 0.0
C926 C 0.94462 0.54573 0.66853 0.0
C927 C 0.94643 0.56563 0.65939 0.0
C928 C 0.93631 0.58301 0.66844 0.0
C929 C 0.92508 0.58024 0.68718 0.0
C930 C 0.92345 0.56045 0.69637 0.0
H931 H 0.89603 0.49782 0.66091 0.0
H932 H 0.89996 0.52565 0.66448 0.0
H933 H 0.92022 0.50997 0.65291 0.0
H934 H 0.95216 0.53244 0.66112 0.0
H935 H 0.95506 0.56724 0.64486 0.0
H936 H 0.82575 0.31536 0.49409 0.0
H937 H 0.79604 0.3101 0.51775 0.0
H938 H 0.77711 0.37433 0.50835 0.0
H939 H 0.80704 0.37973 0.48483 0.0
H940 H 0.77294 0.36135 0.54971 0.0
H941 H 0.73668 0.30355 0.4956 0.0
H942 H 0.76274 0.29686 0.50382 0.0
H943 H 0.75853 0.31982 0.48801 0.0
C944 C 0.81531 0.32839 0.49717 0.0
C945 C 0.81857 0.34789 0.48742 0.0
C946 C 0.79831 0.32534 0.51063 0.0
C947 C 0.78405 0.34165 0.51439 0.0
C948 C 0.78785 0.36147 0.50555 0.0
H949 H 0.6629 0.35874 0.56947 0.0
H950 H 0.69678 0.36135 0.55199 0.0
C951 C 0.80499 0.36458 0.49219 0.0
C952 C 0.76478 0.33786 0.52689 0.0
H953 H 0.71963 0.30896 0.52803 0.0
C954 C 0.76131 0.34987 0.54499 0.0
C955 C 0.7496 0.32285 0.52071 0.0
C956 C 0.75191 0.31015 0.50088 0.0
C957 C 0.74306 0.34731 0.55704 0.0
C958 C 0.72783 0.33249 0.55071 0.0
C959 C 0.73144 0.3202 0.53287 0.0
C960 C 0.70738 0.3306 0.56154 0.0
C961 C 0.74014 0.36046 0.57647 0.0
C962 C 0.70192 0.3122 0.57232 0.0
C963 C 0.68246 0.31062 0.58241 0.0
C964 C 0.6681 0.32734 0.58161 0.0
C965 C 0.67356 0.34556 0.57043 0.0
C966 C 0.69299 0.34716 0.56053 0.0
H967 H 0.75517 0.36737 0.58193 0.0
H968 H 0.72915 0.37349 0.57295 0.0
H969 H 0.73327 0.35099 0.58936 0.0
H970 H 0.7128 0.29919 0.57311 0.0
H971 H 0.67874 0.29641 0.59092 0.0
H972 H 0.43126 0.03604 0.20638 0.0
H973 H 0.44302 0.01192 0.23311 0.0
H974 H 0.43829 0.06059 0.27968 0.0
H975 H 0.42644 0.08528 0.25281 0.0
H976 H 0.47584 0.01081 0.26184 0.0
H977 H 0.39812 0.01547 0.30139 0.0
H978 H 0.40261 0.02651 0.27577 0.0
H979 H 0.41235 0.03963 0.29869 0.0
C980 C 0.43305 0.04202 0.22211 0.0
C981 C 0.42752 0.0628 0.22725 0.0
C982 C 0.4398 0.02802 0.23749 0.0
C983 C 0.44121 0.0343 0.25847 0.0
C984 C 0.43691 0.05527 0.26363 0.0
H985 H 0.47871 0.93556 0.3498 0.0
H986 H 0.47938 0.96918 0.33088 0.0
C987 C 0.4301 0.06939 0.24819 0.0
C988 C 0.44557 0.01822 0.27477 0.0
H989 H 0.42162 0.99007 0.31349 0.0
C990 C 0.46418 0.00649 0.27342 0.0
C991 C 0.43023 0.0125 0.28974 0.0
C992 C 0.40962 0.02403 0.29151 0.0
C993 C 0.46743 0.98864 0.28598 0.0
C994 C 0.45175 0.98252 0.30038 0.0
C995 C 0.43363 0.99485 0.30245 0.0
C996 C 0.45244 0.96208 0.31151 0.0
C997 C 0.48702 0.97575 0.28289 0.0
C998 C 0.43714 0.94698 0.3069 0.0
C999 C 0.43669 0.92795 0.31763 0.0
C1000 C 0.45153 0.92351 0.33331 0.0
C1001 C 0.46717 0.93845 0.3377 0.0
C1002 C 0.46757 0.95765 0.3269 0.0
H1003 H 0.49628 0.98105 0.26913 0.0
H1004 H 0.49705 0.97703 0.29703 0.0
H1005 H 0.48294 0.95896 0.28076 0.0
H1006 H 0.42537 0.95002 0.29503 0.0
H1007 H 0.42447 0.91681 0.31378 0.0
H1008 H 0.81237 0.71625 0.10413 0.0
H1009 H 0.77803 0.71596 0.08653 0.0
H1010 H 0.80299 0.67529 0.03868 0.0
H1011 H 0.83696 0.67527 0.05616 0.0
H1012 H 0.76457 0.72635 0.04519 0.0
H1013 H 0.75315 0.64209 0.06209 0.0
H1014 H 0.77293 0.65767 0.07503 0.0
H1015 H 0.77772 0.64706 0.04932 0.0
C1016 C 0.81056 0.70749 0.08971 0.0
C1017 C 0.82731 0.69562 0.08163 0.0
C1018 C 0.79094 0.70729 0.07972 0.0
C1019 C 0.78784 0.69522 0.06156 0.0
C1020 C 0.80487 0.6843 0.05295 0.0
H1021 H 0.70325 0.6912 0.95989 0.0
H1022 H 0.72819 0.70199 0.98655 0.0
C1023 C 0.82433 0.68438 0.06293 0.0
C1024 C 0.76684 0.6933 0.05168 0.0
H1025 H 0.73202 0.65652 0.03454 0.0
C1026 C 0.75722 0.71115 0.04312 0.0
C1027 C 0.75695 0.67357 0.04946 0.0
C1028 C 0.7656 0.65404 0.05967 0.0
C1029 C 0.7387 0.70955 0.03122 0.0
C1030 C 0.72986 0.68951 0.02742 0.0
C1031 C 0.7388 0.67189 0.03716 0.0
C1032 C 0.7126 0.68595 0.01207 0.0
C1033 C 0.72894 0.72934 0.02274 0.0
C1034 C 0.69528 0.67339 0.01735 0.0
C1035 C 0.6812 0.66666 0.00191 0.0
C1036 C 0.68415 0.67229 0.98077 0.0
C1037 C 0.70064 0.68613 0.97585 0.0
C1038 C 0.71481 0.69266 0.99124 0.0
H1039 H 0.73212 0.74286 0.03325 0.0
H1040 H 0.73596 0.73299 0.00726 0.0
H1041 H 0.71172 0.72769 0.02081 0.0
H1042 H 0.6932 0.66797 0.0333 0.0
H1043 H 0.66877 0.65608 0.00646 0.0
H1044 H 0.05799 0.93704 0.73802 0.0
H1045 H 0.05318 0.96874 0.75846 0.0
H1046 H 0.11586 0.96284 0.78298 0.0
H1047 H 0.1207 0.93034 0.76295 0.0
H1048 H 0.08467 0.97425 0.81353 0.0
H1049 H 0.08119 0.02459 0.74269 0.0
H1050 H 0.06312 0.00301 0.74234 0.0
H1051 H 0.09086 0.998 0.74203 0.0
C1052 C 0.07074 0.9421 0.74797 0.0
C1053 C 0.08981 0.93095 0.74875 0.0
C1054 C 0.06798 0.96047 0.75951 0.0
C1055 C 0.08425 0.96832 0.77198 0.0
C1056 C 0.10314 0.95708 0.77332 0.0
H1057 H 0.09711 0.09391 0.81936 0.0
H1058 H 0.0997 0.06042 0.80122 0.0
C1059 C 0.10593 0.93859 0.76175 0.0
C1060 C 0.08152 0.98854 0.78315 0.0
H1061 H 0.07199 0.04058 0.77494 0.0
C1062 C 0.08195 0.98878 0.80514 0.0
C1063 C 0.07813 0.00749 0.77213 0.0
C1064 C 0.07848 0.00839 0.7485 0.0
C1065 C 0.07885 0.00748 0.81642 0.0
C1066 C 0.07493 0.02633 0.80537 0.0
C1067 C 0.0747 0.02607 0.78339 0.0
C1068 C 0.07251 0.04679 0.81619 0.0
C1069 C 0.08027 0.00701 0.84002 0.0
C1070 C 0.05601 0.05049 0.83032 0.0
C1071 C 0.05443 0.06978 0.84078 0.0
C1072 C 0.06933 0.08564 0.8372 0.0
C1073 C 0.0854 0.08203 0.82255 0.0
C1074 C 0.08694 0.06287 0.81215 0.0
H1075 H 0.08787 0.99243 0.84577 0.0
H1076 H 0.08923 0.0207 0.84595 0.0
H1077 H 0.06424 0.00776 0.84673 0.0
H1078 H 0.04445 0.03843 0.83337 0.0
H1079 H 0.0419 0.07206 0.852 0.0
H1080 H 0.43289 0.15739 0.1582 0.0
H1081 H 0.45211 0.19038 0.15761 0.0
H1082 H 0.41947 0.21072 0.21316 0.0
H1083 H 0.3998 0.17756 0.21375 0.0
H1084 H 0.42074 0.24109 0.18045 0.0
H1085 H 0.49968 0.20866 0.19671 0.0
H1086 H 0.48649 0.19571 0.1755 0.0
H1087 H 0.47592 0.19406 0.20157 0.0
C1088 C 0.42987 0.16875 0.17044 0.0
C1089 C 0.41487 0.16478 0.18611 0.0
C1090 C 0.44096 0.1876 0.17011 0.0
C1091 C 0.43742 0.2029 0.18547 0.0
C1092 C 0.42251 0.19904 0.20121 0.0
H1093 H 0.52013 0.30973 0.19988 0.0
H1094 H 0.4981 0.2793 0.20561 0.0
C1095 C 0.41139 0.18007 0.20161 0.0
C1096 C 0.44899 0.22307 0.18453 0.0
H1097 H 0.49842 0.24351 0.18323 0.0
C1098 C 0.43771 0.2417 0.18126 0.0
C1099 C 0.47111 0.22384 0.18575 0.0
C1100 C 0.48403 0.20453 0.19028 0.0
C1101 C 0.44804 0.26101 0.1786 0.0
C1102 C 0.47023 0.2616 0.17891 0.0
C1103 C 0.48143 0.24304 0.18275 0.0
C1104 C 0.48228 0.2813 0.17571 0.0
C1105 C 0.43512 0.28059 0.17568 0.0
C1106 C 0.48071 0.29275 0.15697 0.0
C1107 C 0.49323 0.31052 0.15367 0.0
C1108 C 0.50771 0.3171 0.16898 0.0
C1109 C 0.50902 0.30559 0.18779 0.0
C1110 C 0.49649 0.28795 0.19109 0.0
H1111 H 0.41882 0.27845 0.18145 0.0
H1112 H 0.44227 0.29411 0.18399 0.0
H1113 H 0.43433 0.28444 0.15874 0.0
H1114 H 0.47015 0.28769 0.14469 0.0
H1115 H 0.49163 0.31897 0.13906 0.0
H1116 H 0.59511 0.67987 0.90696 0.0
H1117 H 0.56304 0.70055 0.9054 0.0
H1118 H 0.54004 0.66957 0.96086 0.0
H1119 H 0.57224 0.64844 0.96244 0.0
H1120 H 0.51043 0.67188 0.92742 0.0
H1121 H 0.54632 0.74936 0.94371 0.0
H1122 H 0.55892 0.73529 0.92287 0.0
H1123 H 0.55965 0.72497 0.94908 0.0
C1124 C 0.58335 0.67751 0.91898 0.0
C1125 C 0.5863 0.66256 0.93491 0.0
C1126 C 0.56503 0.68944 0.91808 0.0
C1127 C 0.54926 0.68678 0.93313 0.0
C1128 C 0.55209 0.67192 0.94914 0.0
H1129 H 0.44627 0.77342 0.94845 0.0
H1130 H 0.47593 0.75019 0.95325 0.0
C1131 C 0.57053 0.65996 0.9501 0.0
C1132 C 0.52968 0.69928 0.93168 0.0
H1133 H 0.5115 0.74959 0.93028 0.0
C1134 C 0.51059 0.68887 0.92821 0.0
C1135 C 0.52992 0.72142 0.93284 0.0
C1136 C 0.54976 0.73344 0.93753 0.0
C1137 C 0.49178 0.70006 0.92542 0.0
C1138 C 0.49218 0.72225 0.92583 0.0
C1139 C 0.51123 0.73259 0.92973 0.0
C1140 C 0.47299 0.73517 0.92303 0.0
C1141 C 0.47165 0.68805 0.92235 0.0
C1142 C 0.46126 0.73447 0.9044 0.0
C1143 C 0.4439 0.7477 0.90162 0.0
C1144 C 0.43802 0.76199 0.91738 0.0
C1145 C 0.44985 0.76246 0.93604 0.0
C1146 C 0.46705 0.74925 0.9388 0.0
H1147 H 0.4731 0.67154 0.92771 0.0
H1148 H 0.45852 0.69559 0.93094 0.0
H1149 H 0.46763 0.68786 0.90543 0.0
H1150 H 0.46577 0.72401 0.89182 0.0
H1151 H 0.4352 0.74676 0.8871 0.0
H1152 H 0.10965 0.80905 0.71323 0.0
H1153 H 0.09294 0.77427 0.7145 0.0
H1154 H 0.04626 0.7952 0.67029 0.0
H1155 H 0.06302 0.82944 0.66855 0.0
H1156 H 0.0537 0.76072 0.72528 0.0
H1157 H 0.06785 0.74308 0.64192 0.0
H1158 H 0.08057 0.7646 0.65515 0.0
H1159 H 0.05454 0.76767 0.64458 0.0
C1160 C 0.09577 0.80619 0.70387 0.0
C1161 C 0.08776 0.8219 0.69063 0.0
C1162 C 0.08628 0.78633 0.70457 0.0
C1163 C 0.06866 0.78195 0.69206 0.0
C1164 C 0.06022 0.79796 0.67956 0.0
H1165 H 0.96536 0.70065 0.69892 0.0
H1166 H 0.99372 0.72461 0.70699 0.0
C1167 C 0.06976 0.81761 0.67869 0.0
C1168 C 0.05874 0.76084 0.69191 0.0
H1169 H 0.03937 0.72414 0.65822 0.0
C1170 C 0.05088 0.75248 0.71069 0.0
C1171 C 0.05561 0.74966 0.67301 0.0
C1172 C 0.06532 0.75661 0.65259 0.0
C1173 C 0.03864 0.73411 0.71079 0.0
C1174 C 0.03362 0.72421 0.69154 0.0
C1175 C 0.04283 0.73177 0.67302 0.0
C1176 C 0.01739 0.70747 0.68972 0.0
C1177 C 0.03111 0.72569 0.73155 0.0
C1178 C 0.021 0.68957 0.67737 0.0
C1179 C 0.00449 0.67609 0.67207 0.0
C1180 C 0.98392 0.68021 0.679 0.0
C1181 C 0.98077 0.69716 0.6928 0.0
C1182 C 0.99719 0.71078 0.69781 0.0
H1183 H 0.04273 0.72895 0.74411 0.0
H1184 H 0.01631 0.73371 0.73595 0.0
H1185 H 0.02825 0.70854 0.73091 0.0
H1186 H 0.03644 0.68658 0.67094 0.0
H1187 H 0.00772 0.66324 0.66153 0.0
H1188 H 0.07019 0.23911 0.43777 0.0
H1189 H 0.04127 0.26394 0.44217 0.0
H1190 H 0.02803 0.26051 0.37606 0.0
H1191 H 0.05671 0.23532 0.37152 0.0
H1192 H 0.02998 0.30573 0.40584 0.0
H1193 H 0.97593 0.23962 0.42474 0.0
H1194 H 0.00269 0.23923 0.43394 0.0
H1195 H 0.99736 0.2362 0.40656 0.0
C1196 C 0.06123 0.24372 0.42412 0.0
C1197 C 0.06566 0.23505 0.40432 0.0
C1198 C 0.04482 0.25801 0.42666 0.0
C1199 C 0.03256 0.26395 0.40945 0.0
C1200 C 0.03744 0.25612 0.3895 0.0
H1201 H 0.91178 0.32066 0.3943 0.0
H1202 H 0.94402 0.30013 0.39263 0.0
C1203 C 0.05388 0.2418 0.38693 0.0
C1204 C 0.01368 0.27701 0.41262 0.0
H1205 H 0.96165 0.27359 0.42465 0.0
C1206 C 0.01504 0.2988 0.41004 0.0
C1207 C 0.9943 0.2678 0.41808 0.0
C1208 C 0.99225 0.24442 0.42102 0.0
C1209 C 0.9973 0.31166 0.41257 0.0
C1210 C 0.97785 0.30242 0.41797 0.0
C1211 C 0.9766 0.28062 0.42065 0.0
C1212 C 0.95831 0.3149 0.41957 0.0
C1213 C 0.99928 0.33494 0.40889 0.0
C1214 C 0.9555 0.3298 0.43554 0.0
C1215 C 0.93694 0.34153 0.43665 0.0
C1216 C 0.92097 0.33857 0.42173 0.0
C1217 C 0.92378 0.32339 0.40599 0.0
C1218 C 0.9422 0.31163 0.405 0.0
H1219 H 0.01445 0.33911 0.40143 0.0
H1220 H 0.98629 0.34064 0.3988 0.0
H1221 H 0.99822 0.34327 0.42412 0.0
H1222 H 0.96766 0.33235 0.44712 0.0
H1223 H 0.93526 0.35314 0.44891 0.0
H1224 H 0.00264 0.16418 0.82546 0.0
H1225 H 0.97473 0.18847 0.81532 0.0
H1226 H 0.01905 0.23948 0.81541 0.0
H1227 H 0.04675 0.21572 0.82556 0.0
H1228 H 0.9612 0.22096 0.8387 0.0
H1229 H 0.98729 0.25166 0.76228 0.0
H1230 H 0.99817 0.2281 0.77362 0.0
H1231 H 0.00799 0.2535 0.78119 0.0
C1232 C 0.00656 0.18049 0.82306 0.0
C1233 C 0.02713 0.18781 0.82648 0.0
C1234 C 0.99056 0.19436 0.81715 0.0
C1235 C 0.99482 0.21578 0.81429 0.0
C1236 C 0.01543 0.22296 0.81691 0.0
H1237 H 0.93043 0.32585 0.84559 0.0
H1238 H 0.94966 0.29302 0.84258 0.0
C1239 C 0.03137 0.20919 0.82282 0.0
C1240 C 0.97763 0.23118 0.81102 0.0
H1241 H 0.96481 0.27481 0.78272 0.0
C1242 C 0.96173 0.23244 0.82618 0.0
C1243 C 0.97802 0.24601 0.79451 0.0
C1244 C 0.99367 0.2446 0.77686 0.0
C1245 C 0.94722 0.249 0.82615 0.0
C1246 C 0.9489 0.26492 0.8108 0.0
C1247 C 0.96376 0.26281 0.79472 0.0
C1248 C 0.93675 0.28472 0.81235 0.0
C1249 C 0.93056 0.24957 0.84292 0.0
C1250 C 0.92352 0.29133 0.79604 0.0
C1251 C 0.91251 0.31031 0.79765 0.0
C1252 C 0.91475 0.32304 0.81553 0.0
C1253 C 0.92822 0.31642 0.83166 0.0
C1254 C 0.93914 0.29754 0.83004 0.0
H1255 H 0.9269 0.23356 0.84874 0.0
H1256 H 0.93634 0.25892 0.85639 0.0
H1257 H 0.91589 0.25689 0.83704 0.0
H1258 H 0.92161 0.28176 0.78215 0.0
H1259 H 0.90227 0.31497 0.78494 0.0
H1260 H 0.42614 0.14915 0.549 0.0
H1261 H 0.46011 0.16734 0.55 0.0
H1262 H 0.44601 0.1904 0.6119 0.0
H1263 H 0.41229 0.17248 0.61108 0.0
H1264 H 0.46722 0.21196 0.55697 0.0
H1265 H 0.50461 0.16251 0.61796 0.0
H1266 H 0.482 0.15403 0.60314 0.0
H1267 H 0.47892 0.17192 0.62467 0.0
C1268 C 0.43029 0.15812 0.56279 0.0
C1269 C 0.41649 0.15934 0.57995 0.0
C1270 C 0.44969 0.16845 0.56336 0.0
C1271 C 0.45569 0.17991 0.58117 0.0
C1272 C 0.44186 0.18131 0.59817 0.0
H1273 H 0.55438 0.2616 0.62353 0.0
H1274 H 0.52473 0.23744 0.61992 0.0
C1275 C 0.4225 0.17114 0.59759 0.0
C1276 C 0.47604 0.19112 0.58194 0.0
H1277 H 0.52151 0.1949 0.61002 0.0
C1278 C 0.47924 0.20809 0.56836 0.0
C1279 C 0.4916 0.18608 0.59692 0.0
C1280 C 0.48927 0.16753 0.6114 0.0
C1281 C 0.49725 0.2207 0.56988 0.0
C1282 C 0.51269 0.21587 0.5851 0.0
C1283 C 0.50967 0.1986 0.5984 0.0
C1284 C 0.53175 0.22898 0.58784 0.0
C1285 C 0.49914 0.23958 0.55574 0.0
C1286 C 0.54596 0.23167 0.57128 0.0
C1287 C 0.56287 0.24546 0.57331 0.0
C1288 C 0.56606 0.25669 0.59201 0.0
C1289 C 0.55245 0.25311 0.60898 0.0
C1290 C 0.53544 0.23938 0.60689 0.0
H1291 H 0.4838 0.24403 0.54878 0.0
H1292 H 0.50548 0.25327 0.56442 0.0
H1293 H 0.51005 0.23589 0.54271 0.0
H1294 H 0.54376 0.22338 0.55664 0.0
H1295 H 0.57331 0.24759 0.56011 0.0
H1296 H 0.56846 0.6703 0.33035 0.0
H1297 H 0.54891 0.70289 0.32704 0.0
H1298 H 0.57702 0.71401 0.26662 0.0
H1299 H 0.59704 0.6812 0.26993 0.0
H1300 H 0.57773 0.74932 0.29338 0.0
H1301 H 0.49823 0.71495 0.28982 0.0
H1302 H 0.51298 0.70516 0.31167 0.0
H1303 H 0.52162 0.69963 0.28539 0.0
C1304 C 0.57041 0.67951 0.31623 0.0
C1305 C 0.58425 0.67306 0.30034 0.0
C1306 C 0.55911 0.69814 0.31433 0.0
C1307 C 0.56124 0.71074 0.29646 0.0
C1308 C 0.57502 0.70442 0.28048 0.0
H1309 H 0.47108 0.81392 0.29236 0.0
H1310 H 0.49391 0.78576 0.27975 0.0
C1311 C 0.58636 0.68564 0.28235 0.0
C1312 C 0.54953 0.73083 0.29515 0.0
H1313 H 0.50032 0.75104 0.30055 0.0
C1314 C 0.56077 0.74975 0.29455 0.0
C1315 C 0.52739 0.73141 0.29631 0.0
C1316 C 0.51434 0.71169 0.29561 0.0
C1317 C 0.55051 0.7692 0.29638 0.0
C1318 C 0.52849 0.76969 0.29925 0.0
C1319 C 0.51721 0.75078 0.29857 0.0
C1320 C 0.51686 0.78925 0.3045 0.0
C1321 C 0.56342 0.78899 0.2954 0.0
C1322 C 0.52241 0.80107 0.32224 0.0
C1323 C 0.50947 0.81731 0.32932 0.0
C1324 C 0.4905 0.82182 0.31904 0.0
C1325 C 0.48552 0.81071 0.30067 0.0
C1326 C 0.49857 0.79462 0.29346 0.0
H1327 H 0.57775 0.78665 0.28578 0.0
H1328 H 0.55431 0.80225 0.28876 0.0
H1329 H 0.56853 0.79327 0.31146 0.0
H1330 H 0.5361 0.79696 0.33139 0.0
H1331 H 0.51362 0.82532 0.34366 0.0
H1332 H 0.92114 0.76002 0.09582 0.0
H1333 H 0.94884 0.78422 0.0857 0.0
H1334 H 0.96268 0.74592 0.03173 0.0
H1335 H 0.93518 0.72129 0.04223 0.0
H1336 H 0.99626 0.75103 0.05443 0.0
H1337 H 0.96074 0.82913 0.04382 0.0
H1338 H 0.95295 0.81814 0.06845 0.0
H1339 H 0.9452 0.80547 0.04441 0.0
C1340 C 0.92953 0.75712 0.0814 0.0
C1341 C 0.92609 0.73862 0.06994 0.0
C1342 C 0.94539 0.77107 0.07554 0.0
C1343 C 0.95784 0.76702 0.05785 0.0
C1344 C 0.95331 0.74939 0.04545 0.0
H1345 H 0.06763 0.84867 0.03494 0.0
H1346 H 0.03454 0.82988 0.02895 0.0
C1347 C 0.93761 0.73533 0.05145 0.0
C1348 C 0.97745 0.77914 0.05435 0.0
H1349 H 0.99763 0.82878 0.05388 0.0
C1350 C 0.99647 0.76803 0.05384 0.0
C1351 C 0.97787 0.80132 0.05336 0.0
C1352 C 0.95805 0.81416 0.05231 0.0
C1353 C 0.01581 0.77844 0.05365 0.0
C1354 C 0.01622 0.80059 0.05444 0.0
C1355 C 0.99728 0.81177 0.05361 0.0
C1356 C 0.03608 0.81218 0.05782 0.0
C1357 C 0.03567 0.76559 0.05305 0.0
C1358 C 0.04769 0.80866 0.07615 0.0
C1359 C 0.06651 0.81926 0.07958 0.0
C1360 C 0.07409 0.83373 0.06481 0.0
C1361 C 0.06229 0.83748 0.04654 0.0
C1362 C 0.04337 0.82684 0.04313 0.0
H1363 H 0.03291 0.74994 0.04592 0.0
H1364 H 0.04818 0.77371 0.04407 0.0
H1365 H 0.04136 0.7631 0.0693 0.0
H1366 H 0.04213 0.79774 0.0879 0.0
H1367 H 0.07508 0.8161 0.09389 0.0
H1368 H 0.12666 0.51959 0.31153 0.0
H1369 H 0.13184 0.49449 0.28292 0.0
H1370 H 0.19658 0.48716 0.30081 0.0
H1371 H 0.1915 0.51223 0.32951 0.0
H1372 H 0.16757 0.50373 0.25113 0.0
H1373 H 0.17045 0.42537 0.28968 0.0
H1374 H 0.15561 0.4469 0.30063 0.0
H1375 H 0.18367 0.4472 0.30186 0.0
C1376 C 0.14183 0.5122 0.30975 0.0
C1377 C 0.1587 0.51791 0.32272 0.0
C1378 C 0.14479 0.49797 0.29334 0.0
C1379 C 0.16456 0.48898 0.28986 0.0
C1380 C 0.18118 0.49384 0.30338 0.0
H1381 H 0.20648 0.40629 0.18785 0.0
H1382 H 0.20535 0.42672 0.2205 0.0
C1383 C 0.17828 0.50821 0.31967 0.0
C1384 C 0.16835 0.47635 0.2708 0.0
H1385 H 0.17551 0.42636 0.25307 0.0
C1386 C 0.16934 0.48682 0.25152 0.0
C1387 C 0.17102 0.45439 0.27151 0.0
C1388 C 0.1701 0.44264 0.29197 0.0
C1389 C 0.17265 0.47583 0.23278 0.0
C1390 C 0.17447 0.45372 0.23331 0.0
C1391 C 0.17405 0.44329 0.2527 0.0
C1392 C 0.1754 0.44118 0.21376 0.0
C1393 C 0.17429 0.48806 0.2126 0.0
C1394 C 0.15884 0.44233 0.19937 0.0
C1395 C 0.1595 0.43087 0.18079 0.0
C1396 C 0.17666 0.41779 0.17624 0.0
C1397 C 0.19314 0.41636 0.19082 0.0
C1398 C 0.19248 0.42794 0.20949 0.0
H1399 H 0.17923 0.50451 0.21549 0.0
H1400 H 0.18564 0.48068 0.20165 0.0
H1401 H 0.1587 0.48848 0.20489 0.0
H1402 H 0.14529 0.45205 0.20256 0.0
H1403 H 0.14642 0.43221 0.17004 0.0
H1404 H 0.70576 0.10154 0.82377 0.0
H1405 H 0.70369 0.08292 0.79008 0.0
H1406 H 0.64302 0.05855 0.80717 0.0
H1407 H 0.64491 0.07687 0.84061 0.0
H1408 H 0.69677 0.03793 0.78278 0.0
H1409 H 0.63365 0.08766 0.74943 0.0
H1410 H 0.6497 0.09591 0.77126 0.0
H1411 H 0.62843 0.07789 0.77532 0.0
C1412 C 0.69206 0.0921 0.82037 0.0
C1413 C 0.67547 0.09077 0.83484 0.0
C1414 C 0.69087 0.08155 0.80113 0.0
C1415 C 0.67302 0.0697 0.79602 0.0
C1416 C 0.65674 0.06795 0.81065 0.0
H1417 H 0.6258 0.98924 0.69871 0.0
H1418 H 0.63092 0.01304 0.72843 0.0
C1419 C 0.65793 0.07836 0.82982 0.0
C1420 C 0.67128 0.05879 0.77559 0.0
H1421 H 0.64085 0.05561 0.73165 0.0
C1422 C 0.68475 0.04193 0.77144 0.0
C1423 C 0.65549 0.06402 0.76093 0.0
C1424 C 0.64108 0.08247 0.7643 0.0
C1425 C 0.68233 0.02961 0.75335 0.0
C1426 C 0.66628 0.0346 0.73882 0.0
C1427 C 0.65311 0.05178 0.74279 0.0
C1428 C 0.66255 0.02177 0.71977 0.0
C1429 C 0.69642 0.01082 0.7504 0.0
C1430 C 0.6783 0.01941 0.70463 0.0
C1431 C 0.67541 0.00584 0.68768 0.0
C1432 C 0.65662 0.99453 0.6854 0.0
C1433 C 0.64039 0.99783 0.69994 0.0
C1434 C 0.64335 0.01133 0.71699 0.0
H1435 H 0.70425 0.00618 0.76525 0.0
H1436 H 0.68745 0.99718 0.74436 0.0
H1437 H 0.70881 0.01472 0.73884 0.0
H1438 H 0.69302 0.02775 0.70614 0.0
H1439 H 0.68804 0.00391 0.67652 0.0
H1440 H 0.68155 0.8967 0.59006 0.0
H1441 H 0.70048 0.89666 0.55689 0.0
H1442 H 0.67013 0.9544 0.53918 0.0
H1443 H 0.65079 0.95449 0.57247 0.0
H1444 H 0.67095 0.92313 0.50697 0.0
H1445 H 0.7495 0.93579 0.54204 0.0
H1446 H 0.73538 0.91425 0.55341 0.0
H1447 H 0.72551 0.9405 0.55629 0.0
C1448 C 0.67891 0.90948 0.5792 0.0
C1449 C 0.66477 0.92571 0.584 0.0
C1450 C 0.68981 0.90945 0.56025 0.0
C1451 C 0.68693 0.92566 0.54571 0.0
C1452 C 0.67265 0.94179 0.55027 0.0
H1453 H 0.77283 0.94521 0.44257 0.0
H1454 H 0.74955 0.94973 0.47223 0.0
C1455 C 0.6617 0.94187 0.56931 0.0
C1456 C 0.69887 0.92557 0.52578 0.0
H1457 H 0.7487 0.92502 0.50636 0.0
C1458 C 0.68795 0.92372 0.50677 0.0
C1459 C 0.72102 0.92655 0.52557 0.0
C1460 C 0.73357 0.92958 0.54539 0.0
C1461 C 0.69866 0.92227 0.48755 0.0
C1462 C 0.72085 0.92238 0.48745 0.0
C1463 C 0.7317 0.92475 0.50645 0.0
C1464 C 0.73332 0.92029 0.4679 0.0
C1465 C 0.68612 0.92084 0.46756 0.0
C1466 C 0.73183 0.90229 0.45532 0.0
C1467 C 0.74507 0.8997 0.43798 0.0
C1468 C 0.76025 0.91496 0.43301 0.0
C1469 C 0.7613 0.93316 0.4455 0.0
C1470 C 0.74803 0.93576 0.46269 0.0
H1471 H 0.66987 0.92674 0.46973 0.0
H1472 H 0.6937 0.92989 0.45477 0.0
H1473 H 0.68515 0.90419 0.46261 0.0
H1474 H 0.72086 0.88995 0.45924 0.0
H1475 H 0.74355 0.88558 0.42873 0.0
H1476 H 0.81079 0.99526 0.17117 0.0
H1477 H 0.80848 0.97264 0.20208 0.0
H1478 H 0.87222 0.98822 0.21828 0.0
H1479 H 0.87451 0.0112 0.18763 0.0
H1480 H 0.83393 0.9377 0.21692 0.0
H1481 H 0.83623 0.00731 0.26931 0.0
H1482 H 0.83112 0.00933 0.24156 0.0
H1483 H 0.85741 0.00542 0.25084 0.0
C1484 C 0.82436 0.99375 0.18123 0.0
C1485 C 0.84275 0.00521 0.17707 0.0
C1486 C 0.82305 0.98074 0.19881 0.0
C1487 C 0.84006 0.97904 0.21261 0.0
C1488 C 0.85883 0.98954 0.20793 0.0
H1489 H 0.8598 0.92537 0.33465 0.0
H1490 H 0.86204 0.94287 0.30081 0.0
C1491 C 0.86018 0.00252 0.1903 0.0
C1492 C 0.8377 0.96736 0.23255 0.0
H1493 H 0.83646 0.97408 0.28558 0.0
C1494 C 0.83444 0.9456 0.23195 0.0
C1495 C 0.8382 0.97779 0.25209 0.0
C1496 C 0.84075 0.00127 0.25361 0.0
C1497 C 0.83225 0.93388 0.2505 0.0
C1498 C 0.83293 0.94432 0.27006 0.0
C1499 C 0.83596 0.96611 0.27058 0.0
C1500 C 0.83136 0.93297 0.29029 0.0
C1501 C 0.82983 0.91039 0.24904 0.0
C1502 C 0.81323 0.92169 0.29575 0.0
C1503 C 0.81187 0.91159 0.31521 0.0
C1504 C 0.82858 0.91273 0.32955 0.0
C1505 C 0.84661 0.92416 0.32402 0.0
C1506 C 0.84796 0.93418 0.30464 0.0
H1507 H 0.83451 0.90435 0.2334 0.0
H1508 H 0.83939 0.9024 0.2612 0.0
H1509 H 0.81316 0.90618 0.25167 0.0
H1510 H 0.80006 0.92091 0.28507 0.0
H1511 H 0.79777 0.90292 0.31901 0.0
H1512 H 0.8126 0.09795 0.07512 0.0
H1513 H 0.79131 0.09252 0.04393 0.0
H1514 H 0.81825 0.03105 0.03583 0.0
H1515 H 0.84009 0.03652 0.06709 0.0
H1516 H 0.81549 0.05344 0.99843 0.0
H1517 H 0.7397 0.05531 0.04028 0.0
H1518 H 0.75527 0.07797 0.04615 0.0
H1519 H 0.76441 0.05236 0.05376 0.0
C1520 C 0.81402 0.08322 0.06681 0.0
C1521 C 0.82792 0.06758 0.07373 0.0
C1522 C 0.80173 0.0801 0.049 0.0
C1523 C 0.80284 0.06121 0.03781 0.0
C1524 C 0.81701 0.04568 0.04436 0.0
H1525 H 0.70218 0.05119 0.94562 0.0
H1526 H 0.72748 0.03949 0.97196 0.0
C1527 C 0.82944 0.04882 0.06223 0.0
C1528 C 0.78925 0.05809 0.01917 0.0
H1529 H 0.73841 0.06248 0.00329 0.0
C1530 C 0.79859 0.05504 0.99948 0.0
C1531 C 0.76718 0.05964 0.02057 0.0
C1532 C 0.75604 0.06127 0.04137 0.0
C1533 C 0.78651 0.05488 0.98103 0.0
C1534 C 0.7646 0.05835 0.98231 0.0
C1535 C 0.7552 0.06004 0.00215 0.0
C1536 C 0.75126 0.0622 0.96354 0.0
C1537 C 0.79742 0.0512 0.96039 0.0
C1538 C 0.75642 0.07831 0.94944 0.0
C1539 C 0.74208 0.08481 0.93421 0.0
C1540 C 0.72202 0.07572 0.93306 0.0
C1541 C 0.71738 0.05869 0.94628 0.0
C1542 C 0.73186 0.05199 0.96133 0.0
H1543 H 0.81137 0.04097 0.96246 0.0
H1544 H 0.78678 0.04386 0.94873 0.0
H1545 H 0.80299 0.06642 0.95408 0.0
H1546 H 0.77101 0.08685 0.95105 0.0
H1547 H 0.7462 0.09798 0.92442 0.0
H1548 H 0.32227 0.46645 0.79618 0.0
H1549 H 0.31971 0.4916 0.76759 0.0
H1550 H 0.35777 0.53533 0.80247 0.0
H1551 H 0.36089 0.50968 0.83106 0.0
H1552 H 0.30348 0.52959 0.76523 0.0
H1553 H 0.3887 0.53406 0.74791 0.0
H1554 H 0.37789 0.51487 0.76559 0.0
H1555 H 0.38191 0.54144 0.77417 0.0
C1556 C 0.33 0.48147 0.79785 0.0
C1557 C 0.34176 0.48613 0.81588 0.0
C1558 C 0.32856 0.49584 0.78145 0.0
C1559 C 0.33872 0.51531 0.78271 0.0
C1560 C 0.35019 0.52023 0.80089 0.0
H1561 H 0.31059 0.61009 0.68556 0.0
H1562 H 0.31168 0.59137 0.71912 0.0
C1563 C 0.35191 0.50564 0.81724 0.0
C1564 C 0.33724 0.5301 0.76475 0.0
H1565 H 0.36643 0.55563 0.72788 0.0
C1566 C 0.31725 0.53536 0.7571 0.0
C1567 C 0.35521 0.53749 0.75403 0.0
C1568 C 0.37714 0.53155 0.76068 0.0
C1569 C 0.31471 0.54724 0.73873 0.0
C1570 C 0.33268 0.55468 0.72806 0.0
C1571 C 0.35265 0.54997 0.73608 0.0
C1572 C 0.33132 0.56608 0.70777 0.0
C1573 C 0.29282 0.55081 0.73046 0.0
C1574 C 0.34226 0.55837 0.69031 0.0
C1575 C 0.34198 0.56923 0.67133 0.0
C1576 C 0.33055 0.58793 0.66929 0.0
C1577 C 0.31925 0.59552 0.68661 0.0
C1578 C 0.31983 0.5848 0.70577 0.0
H1579 H 0.28142 0.53952 0.73723 0.0
H1580 H 0.28762 0.56684 0.73477 0.0
H1581 H 0.29236 0.5494 0.71313 0.0
H1582 H 0.35119 0.54396 0.6914 0.0
H1583 H 0.35084 0.56301 0.65825 0.0
H1584 H 0.18835 0.60999 0.41068 0.0
H1585 H 0.20707 0.61049 0.444 0.0
H1586 H 0.16164 0.56781 0.47028 0.0
H1587 H 0.14318 0.56668 0.43657 0.0
H1588 H 0.19474 0.62344 0.48169 0.0
H1589 H 0.2154 0.53892 0.48581 0.0
H1590 H 0.20489 0.55078 0.46242 0.0
H1591 H 0.18782 0.5441 0.48383 0.0
C1592 C 0.18242 0.60056 0.42349 0.0
C1593 C 0.16441 0.58815 0.42096 0.0
C1594 C 0.1931 0.60092 0.44257 0.0
C1595 C 0.18594 0.58902 0.45963 0.0
C1596 C 0.16779 0.57674 0.45723 0.0
H1597 H 0.2457 0.61369 0.58273 0.0
H1598 H 0.21874 0.61099 0.5553 0.0
C1599 C 0.15722 0.57614 0.43798 0.0
C1600 C 0.19756 0.58985 0.47982 0.0
H1601 H 0.22557 0.56002 0.51433 0.0
C1602 C 0.2014 0.60956 0.48891 0.0
C1603 C 0.20629 0.57173 0.4892 0.0
C1604 C 0.20359 0.5502 0.47976 0.0
C1605 C 0.21431 0.61176 0.50661 0.0
C1606 C 0.22316 0.59365 0.5159 0.0
C1607 C 0.21869 0.57387 0.50727 0.0
C1608 C 0.23883 0.59494 0.53312 0.0
C1609 C 0.2192 0.63353 0.51449 0.0
C1610 C 0.25884 0.58637 0.53003 0.0
C1611 C 0.27402 0.58763 0.5457 0.0
C1612 C 0.26962 0.59756 0.56487 0.0
C1613 C 0.24956 0.60613 0.56805 0.0
C1614 C 0.23421 0.60464 0.55237 0.0
H1615 H 0.21512 0.64576 0.50278 0.0
H1616 H 0.20994 0.63662 0.52887 0.0
H1617 H 0.23608 0.63508 0.51844 0.0
H1618 H 0.26286 0.57893 0.51531 0.0
H1619 H 0.2894 0.58118 0.54259 0.0
H1620 H 0.25393 0.43918 0.08065 0.0
H1621 H 0.27634 0.44281 0.04968 0.0
H1622 H 0.2614 0.37949 0.03142 0.0
H1623 H 0.23876 0.37583 0.06219 0.0
H1624 H 0.31174 0.41663 0.03374 0.0
H1625 H 0.24161 0.41869 0.98201 0.0
H1626 H 0.24009 0.42323 0.0099 0.0
H1627 H 0.24294 0.39703 1.00001 0.0
C1628 C 0.25557 0.42597 0.07013 0.0
C1629 C 0.24442 0.40728 0.07378 0.0
C1630 C 0.26844 0.42805 0.05252 0.0
C1631 C 0.27028 0.41152 0.03817 0.0
C1632 C 0.26001 0.39249 0.04226 0.0
H1633 H 0.32165 0.39206 0.91592 0.0
H1634 H 0.30391 0.39093 0.94964 0.0
C1635 C 0.24722 0.39036 0.05993 0.0
C1636 C 0.28184 0.41461 0.01827 0.0
H1637 H 0.27468 0.41796 0.9654 0.0
C1638 C 0.3037 0.41702 0.01877 0.0
C1639 C 0.27122 0.41528 0.99885 0.0
C1640 C 0.24765 0.4136 0.99753 0.0
C1641 C 0.31535 0.41932 1.00018 0.0
C1642 C 0.30472 0.41966 0.9807 0.0
C1643 C 0.2828 0.41769 0.98033 0.0
C1644 C 0.31599 0.42075 0.96038 0.0
C1645 C 0.33893 0.42061 0.0015 0.0
C1646 C 0.32857 0.43804 0.95505 0.0
C1647 C 0.33887 0.43874 0.93564 0.0
C1648 C 0.3366 0.4222 0.92124 0.0
C1649 C 0.32377 0.40508 0.9266 0.0
C1650 C 0.31359 0.40439 0.94591 0.0
H1651 H 0.34487 0.41538 0.017 0.0
H1652 H 0.34637 0.4109 0.98911 0.0
H1653 H 0.3439 0.43711 0.99911 0.0
H1654 H 0.33031 0.45105 0.96581 0.0
H1655 H 0.34864 0.45213 0.93198 0.0
H1656 H 0.12839 0.31152 0.18227 0.0
H1657 H 0.12609 0.29472 0.21644 0.0
H1658 H 0.17125 0.33846 0.24129 0.0
H1659 H 0.17355 0.35557 0.20701 0.0
H1660 H 0.18093 0.29781 0.25072 0.0
H1661 H 0.09807 0.31292 0.27058 0.0
H1662 H 0.10045 0.30193 0.24483 0.0
H1663 H 0.11168 0.32727 0.25031 0.0
C1664 C 0.13752 0.3179 0.19505 0.0
C1665 C 0.15111 0.33496 0.19184 0.0
C1666 C 0.13615 0.30828 0.21464 0.0
C1667 C 0.14818 0.31559 0.23154 0.0
C1668 C 0.1617 0.33268 0.22849 0.0
H1669 H 0.12445 0.24185 0.34633 0.0
H1670 H 0.13169 0.27366 0.32568 0.0
C1671 C 0.16309 0.34234 0.20885 0.0
C1672 C 0.14775 0.30413 0.25176 0.0
H1673 H 0.11388 0.28236 0.28696 0.0
C1674 C 0.16636 0.29483 0.25895 0.0
C1675 C 0.12885 0.30059 0.26282 0.0
C1676 C 0.10869 0.31141 0.25686 0.0
C1677 C 0.1662 0.28066 0.27578 0.0
C1678 C 0.14691 0.27545 0.2854 0.0
C1679 C 0.12864 0.28615 0.27941 0.0
C1680 C 0.14481 0.25691 0.29925 0.0
C1681 C 0.18659 0.2708 0.28256 0.0
C1682 C 0.14983 0.23706 0.29127 0.0
C1683 C 0.14564 0.21906 0.30286 0.0
C1684 C 0.13625 0.22046 0.32272 0.0
C1685 C 0.13182 0.24035 0.33111 0.0
C1686 C 0.1359 0.25848 0.31934 0.0
H1687 H 0.20003 0.28146 0.27952 0.0
H1688 H 0.18637 0.26671 0.29948 0.0
H1689 H 0.18923 0.25624 0.27341 0.0
H1690 H 0.15625 0.23541 0.27564 0.0
H1691 H 0.1493 0.20396 0.296 0.0
H1692 H 0.39547 0.42035 0.95009 0.0
H1693 H 0.41002 0.41758 0.98553 0.0
H1694 H 0.45689 0.37443 0.96295 0.0
H1695 H 0.44261 0.37721 0.92759 0.0
H1696 H 0.43608 0.36151 1.00044 0.0
H1697 H 0.46623 0.44343 0.00539 0.0
H1698 H 0.43905 0.43981 0.99874 0.0
H1699 H 0.45901 0.43158 0.98074 0.0
C1700 C 0.40901 0.41045 0.95263 0.0
C1701 C 0.41794 0.39906 0.93595 0.0
C1702 C 0.41726 0.40885 0.97291 0.0
C1703 C 0.43463 0.39593 0.97681 0.0
C1704 C 0.44343 0.38444 0.96026 0.0
H1705 H 0.53274 0.36042 0.05088 0.0
H1706 H 0.50306 0.36562 0.02758 0.0
C1707 C 0.43521 0.386 0.94006 0.0
C1708 C 0.44401 0.39424 0.99799 0.0
H1709 H 0.47555 0.42038 0.03247 0.0
C1710 C 0.44435 0.37449 0.00768 0.0
C1711 C 0.45462 0.41125 0.0075 0.0
C1712 C 0.4549 0.43273 0.9976 0.0
C1713 C 0.45609 0.37099 0.02593 0.0
C1714 C 0.46793 0.3876 0.03456 0.0
C1715 C 0.46637 0.40771 0.0258 0.0
C1716 C 0.48484 0.3835 0.04988 0.0
C1717 C 0.4566 0.34928 0.03527 0.0
C1718 C 0.48446 0.39192 0.07022 0.0
C1719 C 0.50152 0.38881 0.08381 0.0
C1720 C 0.51928 0.3777 0.07693 0.0
C1721 C 0.51937 0.36918 0.05663 0.0
C1722 C 0.50234 0.372 0.0433 0.0
H1723 H 0.44237 0.34018 0.03102 0.0
H1724 H 0.47047 0.34075 0.02913 0.0
H1725 H 0.45791 0.34997 0.05261 0.0
H1726 H 0.47111 0.401 0.07548 0.0
H1727 H 0.50111 0.39562 0.09935 0.0
H1728 H 0.36199 0.75872 0.85069 0.0
H1729 H 0.35265 0.7303 0.82621 0.0
H1730 H 0.37562 0.76742 0.7746 0.0
H1731 H 0.38458 0.79556 0.79848 0.0
H1732 H 0.33553 0.75106 0.76812 0.0
H1733 H 0.39232 0.68995 0.79407 0.0
H1734 H 0.37534 0.70142 0.81347 0.0
H1735 H 0.39523 0.71715 0.80135 0.0
C1736 C 0.36514 0.76067 0.83413 0.0
C1737 C 0.37393 0.77943 0.82654 0.0
C1738 C 0.35986 0.74444 0.8202 0.0
C1739 C 0.36348 0.74677 0.79859 0.0
C1740 C 0.37257 0.76533 0.79118 0.0
H1741 H 0.38576 0.6772 0.69006 0.0
H1742 H 0.38527 0.69458 0.72392 0.0
C1743 C 0.3777 0.78143 0.80493 0.0
C1744 C 0.3576 0.73045 0.78313 0.0
H1745 H 0.37338 0.68334 0.76325 0.0
C1746 C 0.34348 0.73604 0.76722 0.0
C1747 C 0.3681 0.71098 0.78201 0.0
C1748 C 0.3837 0.70441 0.79852 0.0
C1749 C 0.34058 0.72336 0.7495 0.0
C1750 C 0.35168 0.7042 0.74795 0.0
C1751 C 0.36487 0.69801 0.76449 0.0
C1752 C 0.35175 0.69174 0.7283 0.0
C1753 C 0.3268 0.73137 0.73198 0.0
C1754 C 0.33312 0.6839 0.71961 0.0
C1755 C 0.33324 0.67435 0.69987 0.0
C1756 C 0.35209 0.67212 0.68854 0.0
C1757 C 0.37085 0.67903 0.69789 0.0
C1758 C 0.37066 0.68878 0.71748 0.0
H1759 H 0.32303 0.74828 0.73381 0.0
H1760 H 0.33448 0.72909 0.71654 0.0
H1761 H 0.31182 0.72254 0.73196 0.0
H1762 H 0.3184 0.6856 0.72788 0.0
H1763 H 0.31844 0.66928 0.69337 0.0
H1764 H 0.10487 0.59621 0.44971 0.0
H1765 H 0.08902 0.59924 0.48452 0.0
H1766 H 0.03615 0.63177 0.45764 0.0
H1767 H 0.05217 0.62916 0.42292 0.0
H1768 H 0.04966 0.65105 0.49199 0.0
H1769 H 0.04107 0.56619 0.50876 0.0
H1770 H 0.06754 0.57375 0.503 0.0
H1771 H 0.04769 0.57599 0.48309 0.0
C1772 C 0.08978 0.60383 0.45125 0.0
C1773 C 0.0797 0.6124 0.43362 0.0
C1774 C 0.0807 0.60548 0.47112 0.0
C1775 C 0.0612 0.61539 0.47366 0.0
C1776 C 0.05118 0.62401 0.45606 0.0
H1777 H 0.97611 0.61077 0.57861 0.0
H1778 H 0.99572 0.60476 0.54637 0.0
C1779 C 0.06036 0.62259 0.43625 0.0
C1780 C 0.05147 0.61745 0.49469 0.0
H1781 H 0.03394 0.58955 0.53688 0.0
C1782 C 0.04621 0.6376 0.5018 0.0
C1783 C 0.04675 0.59986 0.50737 0.0
C1784 C 0.05085 0.57772 0.50011 0.0
C1785 C 0.03631 0.64067 0.52118 0.0
C1786 C 0.03216 0.62315 0.53415 0.0
C1787 C 0.03741 0.60298 0.52705 0.0
C1788 C 0.02136 0.6254 0.55462 0.0
C1789 C 0.02978 0.66262 0.52719 0.0
C1790 C 0.0296 0.63839 0.57035 0.0
C1791 C 0.01822 0.64216 0.58869 0.0
C1792 C 0.99852 0.63274 0.59178 0.0
C1793 C 0.991 0.61861 0.57661 0.0
C1794 C 0.00227 0.61505 0.55818 0.0
H1795 H 0.02892 0.67313 0.51334 0.0
H1796 H 0.01426 0.66261 0.53508 0.0
H1797 H 0.04151 0.66928 0.53818 0.0
H1798 H 0.04461 0.64603 0.56823 0.0
H1799 H 0.02465 0.65287 0.60018 0.0
H1800 H 0.688 0.20725 0.81461 0.0
H1801 H 0.68069 0.21752 0.77871 0.0
H1802 H 0.64083 0.16346 0.771 0.0
H1803 H 0.6475 0.15337 0.80753 0.0
H1804 H 0.68764 0.19599 0.74111 0.0
H1805 H 0.6027 0.21248 0.75379 0.0
H1806 H 0.62061 0.20903 0.7754 0.0
H1807 H 0.61224 0.18677 0.76037 0.0
C1808 C 0.67744 0.19762 0.80549 0.0
C1809 C 0.66805 0.17966 0.81417 0.0
C1810 C 0.67347 0.2034 0.78482 0.0
C1811 C 0.66005 0.1914 0.77222 0.0
C1812 C 0.65101 0.17313 0.78054 0.0
H1813 H 0.61938 0.25184 0.654 0.0
H1814 H 0.6263 0.22157 0.67707 0.0
C1815 C 0.65496 0.1673 0.80137 0.0
C1816 C 0.65537 0.1988 0.75068 0.0
H1817 H 0.61755 0.22392 0.7223 0.0
C1818 C 0.6722 0.20165 0.73677 0.0
C1819 C 0.63518 0.20603 0.74495 0.0
C1820 C 0.61659 0.20358 0.75937 0.0
C1821 C 0.6697 0.21288 0.71803 0.0
C1822 C 0.64993 0.22158 0.71317 0.0
C1823 C 0.6327 0.21719 0.72612 0.0
C1824 C 0.64772 0.23838 0.6973 0.0
C1825 C 0.68849 0.21634 0.70413 0.0
C1826 C 0.65758 0.25767 0.701 0.0
C1827 C 0.65346 0.27484 0.68817 0.0
C1828 C 0.63954 0.27305 0.67124 0.0
C1829 C 0.63038 0.2535 0.66684 0.0
C1830 C 0.63424 0.23629 0.68001 0.0
H1831 H 0.70029 0.20369 0.70616 0.0
H1832 H 0.68383 0.21713 0.68738 0.0
H1833 H 0.69605 0.23143 0.7084 0.0
H1834 H 0.66775 0.25973 0.71445 0.0
H1835 H 0.6607 0.28976 0.69189 0.0
H1836 H 0.58202 0.8639 0.57192 0.0
H1837 H 0.56846 0.85921 0.53642 0.0
H1838 H 0.57067 0.92599 0.52651 0.0
H1839 H 0.58363 0.93099 0.56213 0.0
H1840 H 0.53032 0.87943 0.51918 0.0
H1841 H 0.60355 0.89864 0.47579 0.0
H1842 H 0.60362 0.8905 0.50292 0.0
H1843 H 0.59573 0.91661 0.49609 0.0
C1844 C 0.5795 0.87764 0.56233 0.0
C1845 C 0.58405 0.89783 0.57 0.0
C1846 C 0.57188 0.87489 0.54197 0.0
C1847 C 0.56885 0.89223 0.52881 0.0
C1848 C 0.57327 0.91239 0.53633 0.0
H1849 H 0.49616 0.89935 0.41403 0.0
H1850 H 0.51347 0.90703 0.44736 0.0
C1851 C 0.58075 0.91518 0.55673 0.0
C1852 C 0.56037 0.88927 0.50744 0.0
H1853 H 0.57295 0.89296 0.45553 0.0
C1854 C 0.53961 0.88239 0.50525 0.0
C1855 C 0.57263 0.89306 0.48937 0.0
C1856 C 0.59518 0.89998 0.491 0.0
C1857 C 0.53067 0.87937 0.4854 0.0
C1858 C 0.54283 0.8834 0.46731 0.0
C1859 C 0.56367 0.89007 0.46947 0.0
C1860 C 0.53412 0.88017 0.44609 0.0
C1861 C 0.50836 0.87164 0.48383 0.0
C1862 C 0.54055 0.86295 0.43405 0.0
C1863 C 0.53054 0.85837 0.41509 0.0
C1864 C 0.51395 0.871 0.40788 0.0
C1865 C 0.50851 0.88902 0.41938 0.0
C1866 C 0.51843 0.8935 0.43838 0.0
H1867 H 0.50227 0.86605 0.49915 0.0
H1868 H 0.49816 0.88461 0.47829 0.0
H1869 H 0.50721 0.85867 0.47227 0.0
H1870 H 0.55272 0.85256 0.43975 0.0
H1871 H 0.53521 0.84444 0.40659 0.0
H1872 H 0.88265 0.82719 0.32059 0.0
H1873 H 0.88646 0.81207 0.28569 0.0
H1874 H 0.81957 0.8152 0.27673 0.0
H1875 H 0.81545 0.82988 0.31186 0.0
H1876 H 0.86639 0.77401 0.27047 0.0
H1877 H 0.84576 0.84505 0.22419 0.0
H1878 H 0.85388 0.84637 0.25128 0.0
H1879 H 0.82791 0.83775 0.24477 0.0
C1880 C 0.86869 0.82454 0.31136 0.0
C1881 C 0.84873 0.82983 0.31915 0.0
C1882 C 0.87093 0.81601 0.29133 0.0
C1883 C 0.85333 0.81276 0.27858 0.0
C1884 C 0.83338 0.81794 0.28622 0.0
H1885 H 0.85077 0.73449 0.16662 0.0
H1886 H 0.84167 0.75208 0.19942 0.0
C1887 C 0.83109 0.82638 0.30632 0.0
C1888 C 0.8559 0.80335 0.25755 0.0
H1889 H 0.85215 0.81384 0.20519 0.0
C1890 C 0.86321 0.78266 0.25618 0.0
C1891 C 0.85186 0.81479 0.23901 0.0
C1892 C 0.84456 0.83728 0.23972 0.0
C1893 C 0.86659 0.77305 0.2367 0.0
C1894 C 0.8624 0.78442 0.21814 0.0
C1895 C 0.85515 0.80514 0.21948 0.0
C1896 C 0.8664 0.77518 0.19724 0.0
C1897 C 0.8751 0.75097 0.2361 0.0
C1898 C 0.88282 0.78285 0.18481 0.0
C1899 C 0.88816 0.77277 0.16611 0.0
C1900 C 0.87711 0.75486 0.15949 0.0
C1901 C 0.85989 0.74797 0.17144 0.0
C1902 C 0.85463 0.75801 0.19018 0.0
H1903 H 0.88119 0.74589 0.2516 0.0
H1904 H 0.86239 0.74005 0.23142 0.0
H1905 H 0.88789 0.74964 0.22437 0.0
H1906 H 0.89202 0.79616 0.18999 0.0
H1907 H 0.90142 0.77859 0.15725 0.0
H1908 H 0.98162 0.16353 0.90956 0.0
H1909 H 0.96059 0.15276 0.93965 0.0
H1910 H 0.99392 0.09397 0.94214 0.0
H1911 H 0.01544 0.10485 0.91233 0.0
H1912 H 0.93439 0.12031 0.94793 0.0
H1913 H 0.00382 0.11649 1.00036 0.0
H1914 H 0.00506 0.12759 0.97441 0.0
H1915 H 0.00553 0.09962 0.97794 0.0
C1916 C 0.98436 0.14821 0.91635 0.0
C1917 C 1.00044 0.13518 0.90874 0.0
C1918 C 0.97232 0.14208 0.93358 0.0
C1919 C 0.97603 0.12279 0.94349 0.0
C1920 C 0.9912 0.1092 0.93514 0.0
H1921 H 0.92139 0.06976 0.05746 0.0
H1922 H 0.93873 0.07398 0.02343 0.0
C1923 C 0.0034 0.11539 0.91802 0.0
C1924 C 0.9645 0.11735 0.96295 0.0
H1925 H 0.97133 0.1063 0.01491 0.0
C1926 C 0.94247 0.1172 0.96256 0.0
C1927 C 0.97507 0.11338 0.98208 0.0
C1928 C 0.99865 0.11445 0.98386 0.0
C1929 C 0.93076 0.11323 0.98076 0.0
C1930 C 0.94134 0.10939 0.99982 0.0
C1931 C 0.96331 0.10915 1.00019 0.0
C1932 C 0.92992 0.10651 0.0198 0.0
C1933 C 0.90714 0.11315 0.97955 0.0
C1934 C 0.91935 0.12346 0.029 0.0
C1935 C 0.90955 0.12113 0.04845 0.0
C1936 C 0.91006 0.10178 0.05898 0.0
C1937 C 0.92049 0.08477 0.04959 0.0
C1938 C 0.93047 0.08717 0.03022 0.0
H1939 H 0.90147 0.11209 0.96312 0.0
H1940 H 0.90058 0.09984 0.98865 0.0
H1941 H 0.90101 0.12789 0.98648 0.0
H1942 H 0.91899 0.13858 0.02128 0.0
H1943 H 0.90152 0.13445 0.05522 0.0
H1944 H 0.33501 0.14369 0.23405 0.0
H1945 H 0.30301 0.15316 0.25287 0.0
H1946 H 0.31181 0.10064 0.29448 0.0
H1947 H 0.34368 0.09086 0.2756 0.0
H1948 H 0.26819 0.12561 0.25581 0.0
H1949 H 0.29692 0.14965 0.33435 0.0
H1950 H 0.31369 0.14885 0.31154 0.0
H1951 H 0.30709 0.12505 0.32509 0.0
C1952 C 0.33025 0.13422 0.24729 0.0
C1953 C 0.34173 0.11629 0.25307 0.0
C1954 C 0.31201 0.13973 0.2581 0.0
C1955 C 0.30509 0.12765 0.2751 0.0
C1956 C 0.31704 0.11035 0.28157 0.0
H1957 H 0.18117 0.10899 0.32509 0.0
H1958 H 0.2162 0.10589 0.30999 0.0
C1959 C 0.33524 0.10475 0.27071 0.0
C1960 C 0.28439 0.13188 0.28475 0.0
H1961 H 0.26014 0.14367 0.33101 0.0
C1962 C 0.26644 0.12972 0.27221 0.0
C1963 C 0.28217 0.13732 0.30612 0.0
C1964 C 0.30098 0.14055 0.32007 0.0
C1965 C 0.24628 0.13232 0.28061 0.0
C1966 C 0.24404 0.1371 0.3021 0.0
C1967 C 0.26197 0.13983 0.31455 0.0
C1968 C 0.2231 0.13902 0.31187 0.0
C1969 C 0.22747 0.12989 0.26647 0.0
C1970 C 0.21552 0.15866 0.31814 0.0
C1971 C 0.19536 0.16056 0.32657 0.0
C1972 C 0.18248 0.14278 0.32907 0.0
C1973 C 0.1904 0.12306 0.3231 0.0
C1974 C 0.21049 0.12122 0.31456 0.0
H1975 H 0.2319 0.13007 0.24964 0.0
H1976 H 0.21964 0.11474 0.2699 0.0
H1977 H 0.21595 0.14262 0.26938 0.0
H1978 H 0.22505 0.17257 0.31613 0.0
H1979 H 0.18979 0.17603 0.33069 0.0
H1980 H 0.60622 0.57823 0.98325 0.0
H1981 H 0.59623 0.54827 0.0046 0.0
H1982 H 0.64194 0.56607 0.05116 0.0
H1983 H 0.6529 0.59549 0.02921 0.0
H1984 H 0.64611 0.52665 0.04241 0.0
H1985 H 0.56183 0.54069 0.05582 0.0
H1986 H 0.56756 0.54105 0.02835 0.0
H1987 H 0.57891 0.56063 0.04528 0.0
C1988 C 0.61413 0.57587 0.99805 0.0
C1989 C 0.63066 0.58908 0.00428 0.0
C1990 C 0.60814 0.55885 0.01045 0.0
C1991 C 0.61812 0.55498 0.02967 0.0
C1992 C 0.63398 0.56872 0.0364 0.0
H1993 H 0.57798 0.45012 0.10964 0.0
H1994 H 0.58432 0.48539 0.09566 0.0
C1995 C 0.6402 0.58559 0.02384 0.0
C1996 C 0.6135 0.53549 0.04162 0.0
H1997 H 0.57357 0.50484 0.05995 0.0
C1998 C 0.63025 0.52207 0.04651 0.0
C1999 C 0.59287 0.52954 0.04731 0.0
C2000 C 0.57433 0.54388 0.04412 0.0
C2001 C 0.62691 0.50259 0.05613 0.0
C2002 C 0.60615 0.49596 0.06035 0.0
C2003 C 0.58945 0.50973 0.05633 0.0
C2004 C 0.60152 0.47463 0.06847 0.0
C2005 C 0.64573 0.48937 0.06174 0.0
C2006 C 0.60856 0.45685 0.05756 0.0
C2007 C 0.60512 0.43679 0.0656 0.0
C2008 C 0.59419 0.43405 0.08449 0.0
C2009 C 0.58636 0.45178 0.09498 0.0
C2010 C 0.59003 0.47192 0.08705 0.0
H2011 H 0.65993 0.4992 0.06402 0.0
H2012 H 0.64295 0.48019 0.07625 0.0
H2013 H 0.64903 0.47829 0.04874 0.0
H2014 H 0.61684 0.45849 0.04284 0.0
H2015 H 0.61098 0.42337 0.05702 0.0
H2016 H 0.15732 0.85656 0.75486 0.0
H2017 H 0.18234 0.85265 0.78413 0.0
H2018 H 0.23279 0.8721 0.74365 0.0
H2019 H 0.20843 0.8758 0.71467 0.0
H2020 H 0.22792 0.82668 0.77767 0.0
H2021 H 0.22923 0.91024 0.80247 0.0
H2022 H 0.20617 0.89795 0.79145 0.0
H2023 H 0.22766 0.90506 0.77477 0.0
C2024 C 0.17374 0.86 0.75228 0.0
C2025 C 0.18086 0.86641 0.73241 0.0
C2026 C 0.18796 0.85776 0.76896 0.0
C2027 C 0.20933 0.86219 0.76595 0.0
C2028 C 0.21634 0.86867 0.74624 0.0
H2029 H 0.33127 0.87468 0.81348 0.0
H2030 H 0.29668 0.87675 0.79708 0.0
C2031 C 0.20233 0.87071 0.72966 0.0
C2032 C 0.22492 0.85982 0.78292 0.0
H2033 H 0.25804 0.88906 0.81306 0.0
C2034 C 0.23422 0.84014 0.78592 0.0
C2035 C 0.23317 0.87753 0.7933 0.0
C2036 C 0.22353 0.89893 0.79052 0.0
C2037 C 0.25244 0.83792 0.79813 0.0
C2038 C 0.26129 0.85585 0.80781 0.0
C2039 C 0.25127 0.87534 0.80563 0.0
C2040 C 0.28189 0.8551 0.8186 0.0
C2041 C 0.26281 0.81669 0.79942 0.0
C2042 C 0.285 0.8425 0.83636 0.0
C2043 C 0.30481 0.84125 0.84571 0.0
C2044 C 0.32183 0.85273 0.8376 0.0
C2045 C 0.31849 0.86576 0.82017 0.0
C2046 C 0.29873 0.86692 0.81077 0.0
H2047 H 0.25634 0.80552 0.78772 0.0
H2048 H 0.27998 0.81805 0.79691 0.0
H2049 H 0.26021 0.80998 0.81524 0.0
H2050 H 0.27213 0.83362 0.84297 0.0
H2051 H 0.30674 0.83142 0.8594 0.0
H2052 H 0.91123 0.45144 0.4647 0.0
H2053 H 0.91648 0.47151 0.4967 0.0
H2054 H 0.87857 0.42724 0.53097 0.0
H2055 H 0.87325 0.40682 0.49858 0.0
H2056 H 0.86576 0.46931 0.53536 0.0
H2057 H 0.9507 0.46269 0.55012 0.0
H2058 H 0.94561 0.46847 0.5231 0.0
H2059 H 0.93655 0.44408 0.53409 0.0
C2060 C 0.90434 0.44571 0.47912 0.0
C2061 C 0.89181 0.42761 0.47918 0.0
C2062 C 0.9075 0.45711 0.49746 0.0
C2063 C 0.89817 0.45074 0.51631 0.0
C2064 C 0.88611 0.43228 0.51662 0.0
H2065 H 0.92703 0.54876 0.60923 0.0
H2066 H 0.91931 0.51267 0.59803 0.0
C2067 C 0.88315 0.42062 0.49819 0.0
C2068 C 0.89926 0.46498 0.53467 0.0
H2069 H 0.93431 0.49555 0.56107 0.0
C2070 C 0.8807 0.47463 0.5415 0.0
C2071 C 0.91868 0.47171 0.54298 0.0
C2072 C 0.93899 0.46101 0.53735 0.0
C2073 C 0.88127 0.49222 0.55474 0.0
C2074 C 0.90088 0.50045 0.56105 0.0
C2075 C 0.91927 0.48946 0.556 0.0
C2076 C 0.90292 0.52192 0.56981 0.0
C2077 C 0.8609 0.50244 0.561 0.0
C2078 C 0.89611 0.53904 0.5578 0.0
C2079 C 0.90057 0.5595 0.56407 0.0
C2080 C 0.91199 0.56335 0.58249 0.0
C2081 C 0.91804 0.54626 0.59505 0.0
C2082 C 0.91372 0.52566 0.58864 0.0
H2083 H 0.84802 0.49073 0.56178 0.0
H2084 H 0.86225 0.51039 0.57643 0.0
H2085 H 0.85653 0.5143 0.54905 0.0
H2086 H 0.88817 0.53659 0.543 0.0
H2087 H 0.89559 0.57236 0.55419 0.0
H2088 H 0.79828 0.34535 0.78506 0.0
H2089 H 0.7754 0.34088 0.7549 0.0
H2090 H 0.82252 0.36811 0.71479 0.0
H2091 H 0.84576 0.37275 0.74531 0.0
H2092 H 0.78264 0.38669 0.71104 0.0
H2093 H 0.77611 0.30057 0.70521 0.0
H2094 H 0.77228 0.30938 0.73162 0.0
H2095 H 0.79727 0.31332 0.71909 0.0
C2096 C 0.80397 0.3501 0.76978 0.0
C2097 C 0.82379 0.35944 0.76753 0.0
C2098 C 0.79092 0.34736 0.75251 0.0
C2099 C 0.79735 0.35388 0.73255 0.0
C2100 C 0.81737 0.36277 0.73006 0.0
H2101 H 0.6993 0.33129 0.63818 0.0
H2102 H 0.73452 0.33339 0.65331 0.0
C2103 C 0.83063 0.36535 0.74743 0.0
C2104 C 0.78207 0.35316 0.71506 0.0
H2105 H 0.74631 0.32051 0.69233 0.0
C2106 C 0.77502 0.37217 0.70652 0.0
C2107 C 0.77231 0.33421 0.70893 0.0
C2108 C 0.78004 0.3132 0.71654 0.0
C2109 C 0.75741 0.37288 0.69332 0.0
C2110 C 0.74643 0.35412 0.68886 0.0
C2111 C 0.75451 0.33494 0.69602 0.0
C2112 C 0.72557 0.35419 0.67854 0.0
C2113 C 0.75039 0.39378 0.68478 0.0
C2114 C 0.70882 0.3651 0.68774 0.0
C2115 C 0.68868 0.36383 0.67924 0.0
C2116 C 0.68479 0.35144 0.66144 0.0
C2117 C 0.70167 0.34074 0.65207 0.0
C2118 C 0.72185 0.34204 0.66059 0.0
H2119 H 0.76377 0.40485 0.68344 0.0
H2120 H 0.74293 0.39206 0.66915 0.0
H2121 H 0.73878 0.4008 0.69567 0.0
H2122 H 0.71118 0.37411 0.70194 0.0
H2123 H 0.67604 0.37198 0.68706 0.0
H2124 H 0.43771 0.95633 0.39557 0.0
H2125 H 0.42495 0.99053 0.40827 0.0
H2126 H 0.40414 0.96132 0.46553 0.0
H2127 H 0.41664 0.92741 0.45298 0.0
H2128 H 0.37454 0.9915 0.44412 0.0
H2129 H 0.45512 0.02203 0.45925 0.0
H2130 H 0.44887 0.01035 0.43429 0.0
H2131 H 0.45025 0.99422 0.45724 0.0
C2132 C 0.43013 0.95724 0.41072 0.0
C2133 C 0.42832 0.93928 0.4234 0.0
C2134 C 0.42299 0.97674 0.41799 0.0
C2135 C 0.41378 0.97841 0.4379 0.0
C2136 C 0.41127 0.96035 0.45015 0.0
H2137 H 0.37142 0.03909 0.54102 0.0
H2138 H 0.37936 0.01867 0.50995 0.0
C2139 C 0.41853 0.94102 0.44303 0.0
C2140 C 0.40736 0.99886 0.4468 0.0
H2141 H 0.42707 0.03966 0.4753 0.0
C2142 C 0.38597 0.00239 0.45043 0.0
C2143 C 0.42231 0.01309 0.45489 0.0
C2144 C 0.44547 0.00989 0.45134 0.0
C2145 C 0.37923 0.01894 0.46324 0.0
C2146 C 0.3943 0.03199 0.47295 0.0
C2147 C 0.41557 0.02959 0.46786 0.0
C2148 C 0.38868 0.04529 0.49114 0.0
C2149 C 0.35608 0.02162 0.46723 0.0
C2150 C 0.39166 0.06712 0.49103 0.0
C2151 C 0.38704 0.07902 0.50897 0.0
C2152 C 0.37979 0.06914 0.52731 0.0
C2153 C 0.37699 0.04728 0.52723 0.0
C2154 C 0.38137 0.03554 0.50939 0.0
H2155 H 0.34665 0.01559 0.4539 0.0
H2156 H 0.35165 0.01257 0.48141 0.0
H2157 H 0.35204 0.03835 0.46991 0.0
H2158 H 0.39754 0.07489 0.47713 0.0
H2159 H 0.38942 0.09583 0.50859 0.0
H2160 H 0.82169 0.64928 0.19528 0.0
H2161 H 0.78676 0.63743 0.20577 0.0
H2162 H 0.75952 0.67276 0.15488 0.0
H2163 H 0.79467 0.68381 0.14386 0.0
H2164 H 0.75653 0.66037 0.21976 0.0
H2165 H 0.72754 0.61948 0.14888 0.0
H2166 H 0.7546 0.62711 0.15194 0.0
H2167 H 0.73532 0.64599 0.14365 0.0
C2168 C 0.80822 0.6542 0.18618 0.0
C2169 C 0.81077 0.66738 0.16878 0.0
C2170 C 0.7883 0.64746 0.19215 0.0
C2171 C 0.77045 0.65402 0.18103 0.0
C2172 C 0.77302 0.66699 0.1634 0.0
H2173 H 0.65011 0.65065 0.24602 0.0
H2174 H 0.68079 0.66262 0.22638 0.0
C2175 C 0.79306 0.67339 0.15716 0.0
C2176 C 0.74926 0.64852 0.18899 0.0
H2177 H 0.70233 0.62645 0.17556 0.0
C2178 C 0.74473 0.65287 0.21008 0.0
C2179 C 0.73388 0.6386 0.17643 0.0
C2180 C 0.73812 0.63232 0.15404 0.0
C2181 C 0.72543 0.64742 0.21905 0.0
C2182 C 0.70977 0.63815 0.20632 0.0
C2183 C 0.71422 0.63385 0.1852 0.0
C2184 C 0.6892 0.63173 0.21509 0.0
C2185 C 0.72241 0.65096 0.24227 0.0
C2186 C 0.68281 0.61068 0.21392 0.0
C2187 C 0.66493 0.60393 0.22464 0.0
C2188 C 0.65333 0.61808 0.23688 0.0
C2189 C 0.65894 0.63938 0.23689 0.0
C2190 C 0.67656 0.64619 0.22584 0.0
H2191 H 0.73764 0.65242 0.2506 0.0
H2192 H 0.71362 0.66577 0.24474 0.0
H2193 H 0.71342 0.63795 0.24953 0.0
H2194 H 0.69222 0.59927 0.20559 0.0
H2195 H 0.66098 0.58741 0.22439 0.0
H2196 H 0.12152 0.95487 0.03885 0.0
H2197 H 0.11649 0.97717 0.0085 0.0
H2198 H 0.10806 0.92275 0.96934 0.0
H2199 H 0.11317 0.89986 1.00008 0.0
H2200 H 0.1411 0.9754 0.96866 0.0
H2201 H 0.05496 0.96272 0.96012 0.0
H2202 H 0.06792 0.9575 0.98472 0.0
H2203 H 0.07247 0.94067 0.96272 0.0
C2204 C 0.11862 0.94746 0.02386 0.0
C2205 C 0.11771 0.92552 0.02193 0.0
C2206 C 0.1158 0.96031 0.00648 0.0
C2207 C 0.11191 0.95162 0.98673 0.0
C2208 C 0.11098 0.92972 0.98453 0.0
H2209 H 0.07524 0.04969 0.89553 0.0
H2210 H 0.08608 0.01411 0.90601 0.0
C2211 C 0.11391 0.91671 0.00206 0.0
C2212 C 0.10864 0.9661 0.96891 0.0
H2213 H 0.06937 0.9926 0.94404 0.0
C2214 C 0.12553 0.97877 0.96271 0.0
C2215 C 0.08834 0.97041 0.96114 0.0
C2216 C 0.06977 0.9572 0.96742 0.0
C2217 C 0.12234 0.99667 0.95035 0.0
C2218 C 0.10175 0.0021 0.94428 0.0
C2219 C 0.08514 0.98839 0.9488 0.0
C2220 C 0.09672 0.02349 0.9368 0.0
C2221 C 0.14084 0.01038 0.94499 0.0
C2222 C 0.09912 0.04039 0.95064 0.0
C2223 C 0.09281 0.06048 0.94482 0.0
C2224 C 0.08405 0.06413 0.92498 0.0
C2225 C 0.08214 0.0473 0.91085 0.0
C2226 C 0.08823 0.02702 0.91682 0.0
H2227 H 0.15569 0.00127 0.94502 0.0
H2228 H 0.13878 0.01784 0.9294 0.0
H2229 H 0.14225 0.02298 0.9569 0.0
H2230 H 0.10538 0.03793 0.96624 0.0
H2231 H 0.0946 0.07318 0.95593 0.0
H2232 H 0.29574 0.17489 0.15693 0.0
H2233 H 0.28425 0.21041 0.14837 0.0
H2234 H 0.34224 0.23524 0.17268 0.0
H2235 H 0.35386 0.19947 0.18132 0.0
H2236 H 0.30456 0.25339 0.18975 0.0
H2237 H 0.30319 0.25298 0.10306 0.0
H2238 H 0.29126 0.23009 0.11427 0.0
H2239 H 0.31879 0.23479 0.1182 0.0
C2240 C 0.30615 0.18789 0.1602 0.0
C2241 C 0.32565 0.18445 0.16983 0.0
C2242 C 0.29967 0.20816 0.15513 0.0
C2243 C 0.3125 0.22543 0.15966 0.0
C2244 C 0.33222 0.22207 0.16886 0.0
H2245 H 0.24994 0.34534 0.12763 0.0
H2246 H 0.28017 0.32195 0.13361 0.0
C2247 C 0.33885 0.20168 0.17371 0.0
C2248 C 0.3041 0.24689 0.15663 0.0
H2249 H 0.2797 0.27745 0.12011 0.0
C2250 C 0.29964 0.25897 0.17446 0.0
C2251 C 0.29788 0.25427 0.13668 0.0
C2252 C 0.30321 0.24245 0.11693 0.0
C2253 C 0.28751 0.27729 0.17303 0.0
C2254 C 0.27965 0.28358 0.1533 0.0
C2255 C 0.28566 0.27254 0.13526 0.0
C2256 C 0.26252 0.29916 0.1515 0.0
C2257 C 0.28225 0.28917 0.19275 0.0
C2258 C 0.24276 0.2941 0.15964 0.0
C2259 C 0.22562 0.30714 0.15604 0.0
C2260 C 0.2279 0.32566 0.14436 0.0
C2261 C 0.24786 0.33125 0.13687 0.0
C2262 C 0.26505 0.31791 0.1402 0.0
H2263 H 0.2941 0.28636 0.20521 0.0
H2264 H 0.28122 0.30628 0.18967 0.0
H2265 H 0.26681 0.28379 0.1987 0.0
H2266 H 0.2404 0.27956 0.16812 0.0
H2267 H 0.21042 0.30248 0.16202 0.0
H2268 H 0.80531 0.32289 0.86286 0.0
H2269 H 0.79053 0.28811 0.86895 0.0
H2270 H 0.84213 0.26012 0.83539 0.0
H2271 H 0.85685 0.29509 0.82896 0.0
H2272 H 0.80497 0.2422 0.82486 0.0
H2273 H 0.81173 0.24607 0.91111 0.0
H2274 H 0.79716 0.26785 0.90094 0.0
H2275 H 0.82439 0.26478 0.89409 0.0
C2276 C 0.81358 0.30932 0.85691 0.0
C2277 C 0.83234 0.31168 0.84563 0.0
C2278 C 0.80515 0.28945 0.86043 0.0
C2279 C 0.8155 0.27147 0.85308 0.0
C2280 C 0.83398 0.27377 0.84135 0.0
H2281 H 0.7721 0.15167 0.90324 0.0
H2282 H 0.79519 0.18011 0.89206 0.0
C2283 C 0.84233 0.29373 0.83763 0.0
C2284 C 0.80676 0.25039 0.85756 0.0
H2285 H 0.78845 0.21989 0.89745 0.0
C2286 C 0.80159 0.23717 0.84074 0.0
C2287 C 0.80282 0.2436 0.87829 0.0
C2288 C 0.80954 0.25623 0.89713 0.0
C2289 C 0.79164 0.21779 0.84407 0.0
C2290 C 0.78624 0.21176 0.86473 0.0
C2291 C 0.79233 0.22456 0.88157 0.0
C2292 C 0.77343 0.19286 0.86936 0.0
C2293 C 0.78709 0.20403 0.82539 0.0
C2294 C 0.75364 0.19028 0.86007 0.0
C2295 C 0.74053 0.17384 0.86621 0.0
C2296 C 0.74669 0.15995 0.88217 0.0
C2297 C 0.76678 0.16216 0.891 0.0
C2298 C 0.78 0.17844 0.88464 0.0
H2299 H 0.7985 0.20689 0.81255 0.0
H2300 H 0.78758 0.18715 0.82961 0.0
H2301 H 0.77124 0.20776 0.81927 0.0
H2302 H 0.74794 0.20144 0.84863 0.0
H2303 H 0.7253 0.17249 0.85889 0.0
H2304 H 0.42301 0.05343 0.62517 0.0
H2305 H 0.45829 0.03881 0.62731 0.0
H2306 H 0.48074 0.08609 0.58454 0.0
H2307 H 0.4454 0.10091 0.58238 0.0
H2308 H 0.4935 0.04691 0.57339 0.0
H2309 H 0.51036 0.05971 0.65728 0.0
H2310 H 0.4857 0.0467 0.65368 0.0
H2311 H 0.48923 0.07294 0.64386 0.0
C2312 C 0.43549 0.06096 0.61649 0.0
C2313 C 0.43133 0.07834 0.6036 0.0
C2314 C 0.4557 0.05262 0.61778 0.0
C2315 C 0.47226 0.06159 0.60639 0.0
C2316 C 0.46822 0.079 0.59357 0.0
H2317 H 0.59369 0.99867 0.62925 0.0
H2318 H 0.56984 0.02841 0.62289 0.0
C2319 C 0.44797 0.08735 0.59224 0.0
C2320 C 0.49333 0.05171 0.60681 0.0
H2321 H 0.53002 0.03192 0.64037 0.0
C2322 C 0.50172 0.04402 0.58798 0.0
C2323 C 0.50437 0.04834 0.62575 0.0
C2324 C 0.49706 0.05757 0.64625 0.0
C2325 C 0.5199 0.03162 0.58784 0.0
C2326 C 0.52974 0.02652 0.60705 0.0
C2327 C 0.52235 0.03563 0.62566 0.0
C2328 C 0.54554 0.00952 0.60856 0.0
C2329 C 0.528 0.02349 0.56718 0.0
C2330 C 0.53984 0.98918 0.60251 0.0
C2331 C 0.55325 0.97236 0.6062 0.0
C2332 C 0.57269 0.97544 0.61607 0.0
C2333 C 0.57886 0.9959 0.62145 0.0
C2334 C 0.56524 0.01284 0.6179 0.0
H2335 H 0.524 0.03437 0.55418 0.0
H2336 H 0.54526 0.02125 0.56754 0.0
H2337 H 0.52051 0.00817 0.56373 0.0
H2338 H 0.52457 0.98614 0.59572 0.0
H2339 H 0.54809 0.95677 0.60183 0.0
H2340 H 0.70815 0.6849 0.31406 0.0
H2341 H 0.7196 0.71985 0.32418 0.0
H2342 H 0.65549 0.74121 0.32432 0.0
H2343 H 0.64377 0.70609 0.31368 0.0
H2344 H 0.71012 0.75946 0.30106 0.0
H2345 H 0.68165 0.75706 0.38364 0.0
H2346 H 0.68611 0.73325 0.369 0.0
H2347 H 0.66427 0.74971 0.3626 0.0
C2348 C 0.69642 0.69699 0.31601 0.0
C2349 C 0.67503 0.69264 0.3129 0.0
C2350 C 0.70301 0.71697 0.32189 0.0
C2351 C 0.6884 0.73308 0.32495 0.0
C2352 C 0.66698 0.72891 0.32212 0.0
H2353 H 0.75595 0.85243 0.35029 0.0
H2354 H 0.72571 0.83148 0.33834 0.0
C2355 C 0.66033 0.70882 0.31615 0.0
C2356 C 0.69611 0.75405 0.33122 0.0
H2357 H 0.70544 0.78369 0.37473 0.0
C2358 C 0.70864 0.76519 0.31699 0.0
C2359 C 0.69409 0.76136 0.35201 0.0
C2360 C 0.68086 0.74981 0.36783 0.0
C2361 C 0.72048 0.78259 0.32342 0.0
C2362 C 0.71965 0.789 0.34461 0.0
C2363 C 0.7059 0.7788 0.35846 0.0
C2364 C 0.73598 0.80291 0.35351 0.0
C2365 C 0.73517 0.79287 0.30799 0.0
C2366 C 0.75133 0.79392 0.36636 0.0
C2367 C 0.76846 0.80567 0.37301 0.0
C2368 C 0.7706 0.82678 0.36709 0.0
C2369 C 0.7547 0.83618 0.35504 0.0
C2370 C 0.7375 0.82424 0.34818 0.0
H2371 H 0.73483 0.78515 0.29239 0.0
H2372 H 0.73072 0.80957 0.30596 0.0
H2373 H 0.75149 0.79243 0.31406 0.0
H2374 H 0.75048 0.77749 0.37063 0.0
H2375 H 0.78028 0.798 0.38249 0.0
H2376 H 0.90011 0.00306 0.11267 0.0
H2377 H 0.92366 0.97336 0.10544 0.0
H2378 H 0.97425 0.01652 0.0932 0.0
H2379 H 0.95104 0.04596 0.09998 0.0
H2380 H 0.97196 0.98334 0.06433 0.0
H2381 H 0.96997 0.95579 0.1472 0.0
H2382 H 0.94536 0.95801 0.1336 0.0
H2383 H 0.96011 0.9812 0.13961 0.0
C2384 C 0.9162 0.00615 0.10821 0.0
C2385 C 0.92379 0.02683 0.10713 0.0
C2386 C 0.92963 0.9892 0.1042 0.0
C2387 C 0.95075 0.99277 0.09903 0.0
C2388 C 0.95803 0.01341 0.09719 0.0
H2389 H 0.0689 0.9398 0.1165 0.0
H2390 H 0.03479 0.95705 0.11682 0.0
C2391 C 0.94473 0.03024 0.1012 0.0
C2392 C 0.96594 0.97538 0.09653 0.0
H2393 H 0.99477 0.9404 0.12497 0.0
C2394 C 0.97671 0.97359 0.07743 0.0
C2395 C 0.97214 0.96287 0.11374 0.0
C2396 C 0.96145 0.96453 0.13477 0.0
C2397 C 0.99426 0.96048 0.07539 0.0
C2398 C 1.00098 0.94861 0.09287 0.0
C2399 C 0.98951 0.94952 0.11162 0.0
C2400 C 0.02124 0.93725 0.09286 0.0
C2401 C 0.00628 0.96047 0.05502 0.0
C2402 C 0.02489 0.92026 0.07937 0.0
C2403 C 0.04448 0.91034 0.07914 0.0
C2404 C 0.06065 0.91717 0.09252 0.0
C2405 C 0.05675 0.93399 0.10619 0.0
C2406 C 0.03726 0.9439 0.10636 0.0
H2407 H 1.00097 0.97308 0.04426 0.0
H2408 H 0.02332 0.96248 0.05797 0.0
H2409 H 0.00401 0.94519 0.04702 0.0
H2410 H 0.01262 0.91467 0.06906 0.0
H2411 H 0.04687 0.8972 0.06868 0.0
H2412 H 0.26294 0.65551 0.64628 0.0
H2413 H 0.23163 0.67726 0.65307 0.0
H2414 H 0.26251 0.73038 0.62496 0.0
H2415 H 0.29352 0.70921 0.61845 0.0
H2416 H 0.2353 0.72196 0.67649 0.0
H2417 H 0.2009 0.72188 0.59657 0.0
H2418 H 0.21647 0.7004 0.60661 0.0
H2419 H 0.22901 0.72402 0.59783 0.0
C2420 C 0.2629 0.67179 0.64146 0.0
C2421 C 0.28071 0.68068 0.63196 0.0
C2422 C 0.24509 0.68415 0.64536 0.0
C2423 C 0.24483 0.70534 0.63939 0.0
C2424 C 0.26241 0.71403 0.62957 0.0
H2425 H 0.19028 0.82329 0.63419 0.0
H2426 H 0.20769 0.78943 0.63044 0.0
C2427 C 0.28016 0.70188 0.62596 0.0
C2428 C 0.22685 0.7192 0.644 0.0
H2429 H 0.19138 0.75039 0.61896 0.0
C2430 C 0.22519 0.72782 0.66414 0.0
C2431 C 0.21393 0.72684 0.62774 0.0
C2432 C 0.21497 0.71774 0.60597 0.0
C2433 C 0.21199 0.74503 0.66808 0.0
C2434 C 0.19996 0.75351 0.65145 0.0
C2435 C 0.20065 0.74392 0.63166 0.0
C2436 C 0.18855 0.77366 0.65357 0.0
C2437 C 0.21218 0.75494 0.68955 0.0
C2438 C 0.17183 0.776 0.66768 0.0
C2439 C 0.16184 0.79543 0.66988 0.0
C2440 C 0.16829 0.8128 0.65787 0.0
C2441 C 0.18478 0.81022 0.6435 0.0
C2442 C 0.19479 0.79088 0.64138 0.0
H2443 H 0.22498 0.74865 0.69956 0.0
H2444 H 0.21406 0.7722 0.68831 0.0
H2445 H 0.19704 0.75175 0.69748 0.0
H2446 H 0.1665 0.76282 0.67695 0.0
H2447 H 0.14894 0.79679 0.6808 0.0
H2448 H 0.04319 0.55371 0.38623 0.0
H2449 H 0.02201 0.5235 0.39519 0.0
H2450 H 0.07745 0.48488 0.39796 0.0
H2451 H 0.09912 0.51543 0.38846 0.0
H2452 H 0.04512 0.46639 0.37561 0.0
H2453 H 0.01488 0.49489 0.45124 0.0
H2454 H 0.01132 0.51454 0.4315 0.0
H2455 H 0.03745 0.50648 0.43868 0.0
C2456 C 0.05105 0.53889 0.38885 0.0
C2457 C 0.07291 0.53702 0.38667 0.0
C2458 C 0.03886 0.52162 0.39418 0.0
C2459 C 0.04816 0.50204 0.39773 0.0
C2460 C 0.07 0.49995 0.39553 0.0
H2461 H 0.94868 0.4162 0.43669 0.0
H2462 H 0.98336 0.43205 0.43654 0.0
C2463 C 0.08233 0.51737 0.39014 0.0
C2464 C 0.03448 0.48386 0.40248 0.0
H2465 H 0.99191 0.47106 0.43209 0.0
C2466 C 0.03379 0.46708 0.38827 0.0
C2467 C 0.02006 0.4844 0.4193 0.0
C2468 C 0.02113 0.50095 0.43617 0.0
C2469 C 0.01786 0.4519 0.38937 0.0
C2470 C 0.00193 0.45395 0.4047 0.0
C2471 C 0.0038 0.46964 0.42003 0.0
C2472 C 0.9822 0.44154 0.40401 0.0
C2473 C 0.01806 0.43413 0.37379 0.0
C2474 C 0.96996 0.44134 0.38573 0.0
C2475 C 0.95019 0.43194 0.38562 0.0
C2476 C 0.9419 0.42288 0.40395 0.0
C2477 C 0.95441 0.42275 0.42217 0.0
C2478 C 0.97432 0.43194 0.42216 0.0
H2479 H 0.03438 0.4299 0.36942 0.0
H2480 H 0.0101 0.41997 0.38005 0.0
H2481 H 0.00991 0.43916 0.35927 0.0
H2482 H 0.97533 0.44915 0.37166 0.0
H2483 H 0.94131 0.43219 0.3712 0.0
H2484 H 0.55676 0.59871 0.90209 0.0
H2485 H 0.52076 0.58865 0.89263 0.0
H2486 H 0.52355 0.53763 0.93692 0.0
H2487 H 0.55885 0.54791 0.94677 0.0
H2488 H 0.50939 0.55228 0.87493 0.0
H2489 H 0.46594 0.55985 0.94896 0.0
H2490 H 0.49111 0.57223 0.94494 0.0
H2491 H 0.48953 0.54532 0.95352 0.0
C2492 C 0.54947 0.58565 0.91009 0.0
C2493 C 0.56075 0.57397 0.92501 0.0
C2494 C 0.52893 0.5799 0.90468 0.0
C2495 C 0.51926 0.5626 0.91433 0.0
C2496 C 0.53037 0.55136 0.92962 0.0
H2497 H 0.45693 0.45873 0.87769 0.0
H2498 H 0.47801 0.48967 0.88402 0.0
C2499 C 0.55078 0.55703 0.93498 0.0
C2500 C 0.49875 0.55441 0.90692 0.0
H2501 H 0.45407 0.53148 0.92548 0.0
C2502 C 0.49698 0.54833 0.88586 0.0
C2503 C 0.48224 0.54961 0.92097 0.0
C2504 C 0.48222 0.55735 0.94329 0.0
C2505 C 0.48034 0.53564 0.87908 0.0
C2506 C 0.46532 0.52859 0.8938 0.0
C2507 C 0.4658 0.53656 0.91427 0.0
C2508 C 0.45165 0.51035 0.88923 0.0
C2509 C 0.47965 0.52889 0.85644 0.0
C2510 C 0.42968 0.51151 0.89062 0.0
C2511 C 0.41737 0.49359 0.887 0.0
C2512 C 0.42693 0.47427 0.88229 0.0
C2513 C 0.44894 0.4733 0.88119 0.0
C2514 C 0.46109 0.49107 0.88464 0.0
H2515 H 0.4869 0.54089 0.84612 0.0
H2516 H 0.4887 0.51415 0.85459 0.0
H2517 H 0.4633 0.52602 0.85117 0.0
H2518 H 0.42212 0.52623 0.89444 0.0
H2519 H 0.40046 0.49483 0.88802 0.0
H2520 H 0.91644 0.12685 0.19252 0.0
H2521 H 0.93949 0.13958 0.22045 0.0
H2522 H 0.94152 0.07758 0.24724 0.0
H2523 H 0.91826 0.06475 0.21959 0.0
H2524 H 0.93696 0.13753 0.26642 0.0
H2525 H 0.00361 0.09258 0.2326 0.0
H2526 H 0.97982 0.09768 0.21814 0.0
H2527 H 0.98027 0.07774 0.23799 0.0
C2528 C 0.92141 0.11601 0.2046 0.0
C2529 C 0.91571 0.09471 0.20365 0.0
C2530 C 0.93465 0.1233 0.2205 0.0
C2531 C 0.94245 0.10944 0.23569 0.0
C2532 C 0.93593 0.08844 0.23544 0.0
H2533 H 0.02019 0.13998 0.34486 0.0
H2534 H 0.99167 0.12764 0.32218 0.0
C2535 C 0.9227 0.08114 0.21959 0.0
C2536 C 0.95844 0.11663 0.25093 0.0
H2537 H 0.01007 0.11104 0.26393 0.0
C2538 C 0.95293 0.13171 0.26598 0.0
C2539 C 0.9793 0.10914 0.25011 0.0
C2540 C 0.98626 0.09351 0.23377 0.0
C2541 C 0.96778 0.13944 0.28032 0.0
C2542 C 0.98859 0.1318 0.27959 0.0
C2543 C 0.99406 0.11675 0.26452 0.0
C2544 C 0.00526 0.13986 0.29362 0.0
C2545 C 0.9613 0.15608 0.2958 0.0
C2546 C 0.02243 0.15057 0.28505 0.0
C2547 C 0.03874 0.15751 0.29789 0.0
C2548 C 0.03831 0.15376 0.31961 0.0
C2549 C 0.02105 0.14302 0.32819 0.0
C2550 C 0.00465 0.13614 0.3153 0.0
H2551 H 0.94586 0.16309 0.29178 0.0
H2552 H 0.96011 0.14901 0.31164 0.0
H2553 H 0.97321 0.16876 0.29651 0.0
H2554 H 0.02328 0.15346 0.26834 0.0
H2555 H 0.05194 0.16542 0.29071 0.0
H2556 H 0.569 0.26929 0.09324 0.0
H2557 H 0.58327 0.24262 0.06959 0.0
H2558 H 0.63625 0.28267 0.05659 0.0
H2559 H 0.62243 0.30889 0.08083 0.0
H2560 H 0.58819 0.24577 0.02961 0.0
H2561 H 0.66608 0.22851 0.06311 0.0
H2562 H 0.64647 0.24307 0.07736 0.0
H2563 H 0.66315 0.25608 0.05861 0.0
C2564 C 0.58393 0.27213 0.08567 0.0
C2565 C 0.59471 0.29105 0.08895 0.0
C2566 C 0.59206 0.25693 0.07214 0.0
C2567 C 0.61101 0.26045 0.06146 0.0
C2568 C 0.62197 0.27922 0.06508 0.0
H2569 H 0.64224 0.21007 0.93978 0.0
H2570 H 0.62964 0.23048 0.96969 0.0
C2571 C 0.61402 0.29426 0.07889 0.0
C2572 C 0.61824 0.2455 0.04508 0.0
H2573 H 0.66131 0.21952 0.02672 0.0
C2574 C 0.60412 0.23981 0.02917 0.0
C2575 C 0.63891 0.23741 0.04457 0.0
C2576 C 0.65442 0.24141 0.06198 0.0
C2577 C 0.61023 0.22686 0.01248 0.0
C2578 C 0.6313 0.22 0.0112 0.0
C2579 C 0.64525 0.22507 0.02747 0.0
C2580 C 0.63923 0.20775 0.99303 0.0
C2581 C 0.59391 0.22051 0.99657 0.0
C2582 C 0.64959 0.18857 0.99618 0.0
C2583 C 0.65718 0.1771 0.97911 0.0
C2584 C 0.65444 0.18455 0.95856 0.0
C2585 C 0.64425 0.20382 0.95543 0.0
C2586 C 0.63694 0.21542 0.97251 0.0
H2587 H 0.57789 0.22092 0.00339 0.0
H2588 H 0.59423 0.2317 0.98326 0.0
H2589 H 0.59689 0.20449 0.99044 0.0
H2590 H 0.65164 0.18236 0.01185 0.0
H2591 H 0.66491 0.16225 0.98195 0.0
H2592 H 0.54745 0.91892 0.70189 0.0
H2593 H 0.52702 0.90609 0.73158 0.0
H2594 H 0.58377 0.88554 0.76201 0.0
H2595 H 0.60449 0.89875 0.7324 0.0
H2596 H 0.52689 0.86349 0.74628 0.0
H2597 H 0.55166 0.92059 0.80745 0.0
H2598 H 0.5548 0.92568 0.77978 0.0
H2599 H 0.57213 0.90779 0.79282 0.0
C2600 C 0.55566 0.91198 0.71502 0.0
C2601 C 0.57762 0.90998 0.71483 0.0
C2602 C 0.54394 0.90454 0.73192 0.0
C2603 C 0.5539 0.89507 0.74905 0.0
C2604 C 0.57582 0.89306 0.74903 0.0
H2605 H 0.48496 0.81971 0.84033 0.0
H2606 H 0.51251 0.83288 0.81709 0.0
C2607 C 0.5876 0.90043 0.73204 0.0
C2608 C 0.54107 0.88654 0.7664 0.0
H2609 H 0.52795 0.89407 0.81777 0.0
C2610 C 0.52722 0.87005 0.76196 0.0
C2611 C 0.54146 0.8953 0.78675 0.0
C2612 C 0.55568 0.91342 0.7921 0.0
C2613 C 0.51357 0.86218 0.77727 0.0
C2614 C 0.51394 0.87091 0.79764 0.0
C2615 C 0.52788 0.88732 0.80217 0.0
C2616 C 0.49904 0.86384 0.81398 0.0
C2617 C 0.49836 0.84503 0.77135 0.0
C2618 C 0.48286 0.87718 0.82058 0.0
C2619 C 0.46705 0.86969 0.83379 0.0
C2620 C 0.4672 0.84873 0.84065 0.0
C2621 C 0.48417 0.8358 0.83499 0.0
C2622 C 0.49995 0.8433 0.82177 0.0
H2623 H 0.49736 0.84284 0.75411 0.0
H2624 H 0.50361 0.83002 0.77842 0.0
H2625 H 0.48244 0.84855 0.77745 0.0
H2626 H 0.48192 0.89309 0.81472 0.0
H2627 H 0.45415 0.88001 0.83771 0.0
H2628 H 0.88468 0.68383 0.55459 0.0
H2629 H 0.87118 0.71184 0.53217 0.0
H2630 H 0.90828 0.75712 0.56597 0.0
H2631 H 0.9215 0.72924 0.58886 0.0
H2632 H 0.86583 0.76982 0.5576 0.0
H2633 H 0.90677 0.74097 0.48648 0.0
H2634 H 0.89117 0.7215 0.49954 0.0
H2635 H 0.91366 0.73241 0.51255 0.0
C2636 C 0.88978 0.69977 0.55744 0.0
C2637 C 0.90425 0.70429 0.57344 0.0
C2638 C 0.88222 0.71572 0.54448 0.0
C2639 C 0.88901 0.73646 0.54723 0.0
C2640 C 0.90299 0.74116 0.56352 0.0
H2641 H 0.85672 0.85084 0.47746 0.0
H2642 H 0.87119 0.82668 0.50364 0.0
C2643 C 0.91062 0.72521 0.57647 0.0
C2644 C 0.88165 0.75315 0.53289 0.0
H2645 H 0.88125 0.76762 0.48144 0.0
C2646 C 0.86931 0.76949 0.54097 0.0
C2647 C 0.88637 0.75269 0.51126 0.0
C2648 C 0.90038 0.73607 0.50192 0.0
C2649 C 0.86085 0.78497 0.52776 0.0
C2650 C 0.86514 0.78418 0.50604 0.0
C2651 C 0.87791 0.76812 0.4981 0.0
C2652 C 0.85581 0.7992 0.491 0.0
C2653 C 0.84679 0.80159 0.53701 0.0
C2654 C 0.84261 0.79172 0.47512 0.0
C2655 C 0.83454 0.80536 0.46008 0.0
C2656 C 0.83951 0.82686 0.46054 0.0
C2657 C 0.85265 0.83438 0.4766 0.0
C2658 C 0.86075 0.82064 0.49169 0.0
H2659 H 0.84157 0.79748 0.5531 0.0
H2660 H 0.85547 0.81664 0.5378 0.0
H2661 H 0.83274 0.80403 0.52702 0.0
H2662 H 0.83873 0.7752 0.47422 0.0
H2663 H 0.82486 0.79891 0.44772 0.0
H2664 H 0.42385 0.3711 0.80255 0.0
H2665 H 0.4465 0.35844 0.77436 0.0
H2666 H 0.44351 0.41899 0.74451 0.0
H2667 H 0.42054 0.43175 0.77245 0.0
H2668 H 0.44147 0.35773 0.72889 0.0
H2669 H 0.50701 0.40843 0.75627 0.0
H2670 H 0.48435 0.40293 0.77229 0.0
H2671 H 0.48253 0.42145 0.75119 0.0
C2672 C 0.42762 0.38163 0.78978 0.0
C2673 C 0.42052 0.40252 0.78989 0.0
C2674 C 0.44065 0.37437 0.77372 0.0
C2675 C 0.44689 0.38787 0.75754 0.0
C2676 C 0.43912 0.40844 0.75706 0.0
H2677 H 0.52226 0.35216 0.64796 0.0
H2678 H 0.49408 0.36574 0.67036 0.0
C2679 C 0.42606 0.41571 0.77309 0.0
C2680 C 0.46247 0.38072 0.74188 0.0
H2681 H 0.51321 0.38774 0.72635 0.0
C2682 C 0.45712 0.36435 0.72819 0.0
C2683 C 0.48291 0.38929 0.74123 0.0
C2684 C 0.48971 0.40639 0.7561 0.0
C2685 C 0.47177 0.35626 0.71385 0.0
C2686 C 0.49219 0.36486 0.71321 0.0
C2687 C 0.49747 0.3813 0.72682 0.0
C2688 C 0.50877 0.35625 0.69941 0.0
C2689 C 0.46554 0.33818 0.69995 0.0
C2690 C 0.52641 0.34667 0.70836 0.0
C2691 C 0.5425 0.33901 0.69567 0.0
C2692 C 0.54136 0.3409 0.67374 0.0
C2693 C 0.52365 0.35056 0.6648 0.0
C2694 C 0.50747 0.35815 0.67754 0.0
H2695 H 0.45045 0.33102 0.70488 0.0
H2696 H 0.4638 0.34386 0.68361 0.0
H2697 H 0.47788 0.32589 0.70003 0.0
H2698 H 0.52776 0.34518 0.72522 0.0
H2699 H 0.55606 0.33198 0.70309 0.0
H2700 H 0.33523 0.70909 0.55458 0.0
H2701 H 0.34883 0.73284 0.528 0.0
H2702 H 0.38846 0.6836 0.50402 0.0
H2703 H 0.37408 0.65928 0.52997 0.0
H2704 H 0.38851 0.74587 0.5233 0.0
H2705 H 0.36216 0.70593 0.45069 0.0
H2706 H 0.35225 0.69905 0.47627 0.0
H2707 H 0.37741 0.68957 0.46778 0.0
C2708 C 0.34646 0.70308 0.54337 0.0
C2709 C 0.3534 0.68215 0.54437 0.0
C2710 C 0.35438 0.71678 0.52828 0.0
C2711 C 0.36948 0.70996 0.51385 0.0
C2712 C 0.37651 0.68911 0.51473 0.0
H2713 H 0.44975 0.79641 0.44523 0.0
H2714 H 0.43589 0.76924 0.46831 0.0
C2715 C 0.36847 0.6753 0.52978 0.0
C2716 C 0.37851 0.72509 0.49865 0.0
H2717 H 0.38548 0.7347 0.44645 0.0
C2718 C 0.38782 0.74343 0.50649 0.0
C2719 C 0.37737 0.72202 0.47672 0.0
C2720 C 0.36659 0.70318 0.46731 0.0
C2721 C 0.39609 0.75874 0.49306 0.0
C2722 C 0.39552 0.75539 0.47115 0.0
C2723 C 0.38609 0.73713 0.46326 0.0
C2724 C 0.40425 0.77092 0.4562 0.0
C2725 C 0.40486 0.7786 0.50248 0.0
C2726 C 0.39126 0.78033 0.44115 0.0
C2727 C 0.39923 0.79564 0.42763 0.0
C2728 C 0.42038 0.80183 0.42888 0.0
C2729 C 0.43344 0.79196 0.44368 0.0
C2730 C 0.42549 0.77658 0.45709 0.0
H2731 H 0.39894 0.78123 0.51863 0.0
H2732 H 0.4222 0.77738 0.50329 0.0
H2733 H 0.40082 0.79248 0.49277 0.0
H2734 H 0.37485 0.77606 0.44008 0.0
H2735 H 0.3888 0.8026 0.41618 0.0
H2736 H 0.95085 0.63222 0.16376 0.0
H2737 H 0.97794 0.61902 0.18746 0.0
H2738 H 0.98306 0.68016 0.21583 0.0
H2739 H 0.95523 0.69318 0.19314 0.0
H2740 H 0.01868 0.63015 0.1937 0.0
H2741 H 0.97288 0.64351 0.26627 0.0
H2742 H 0.96132 0.64529 0.24054 0.0
H2743 H 0.9762 0.66688 0.25098 0.0
C2744 C 0.95752 0.64281 0.17522 0.0
C2745 C 0.95064 0.66375 0.17661 0.0
C2746 C 0.97317 0.63528 0.18862 0.0
C2747 C 0.98227 0.6485 0.20367 0.0
C2748 C 0.97594 0.66954 0.20465 0.0
H2749 H 0.09576 0.62144 0.27603 0.0
H2750 H 0.07092 0.63454 0.24992 0.0
C2751 C 0.96019 0.67704 0.19142 0.0
C2752 C 0.99817 0.64023 0.21853 0.0
H2753 H 0.00869 0.63445 0.27063 0.0
C2754 C 0.01649 0.63101 0.21053 0.0
C2755 C 0.99515 0.6411 0.24048 0.0
C2756 C 0.97523 0.64953 0.2501 0.0
C2757 C 0.03199 0.62282 0.2239 0.0
C2758 C 0.02927 0.62434 0.24586 0.0
C2759 C 0.01087 0.63345 0.25381 0.0
C2760 C 0.04481 0.61592 0.26104 0.0
C2761 C 0.05082 0.61215 0.21436 0.0
C2762 C 0.03834 0.60146 0.27626 0.0
C2763 C 0.05231 0.59435 0.2915 0.0
C2764 C 0.07323 0.60141 0.29185 0.0
C2765 C 0.07978 0.61575 0.27639 0.0
C2766 C 0.06566 0.62304 0.26123 0.0
H2767 H 0.04773 0.60712 0.19798 0.0
H2768 H 0.06417 0.62331 0.21409 0.0
H2769 H 0.05554 0.59822 0.22366 0.0
H2770 H 0.0223 0.59585 0.27654 0.0
H2771 H 0.04646 0.58373 0.30337 0.0
H2772 H 0.12772 0.32247 0.0654 0.0
H2773 H 0.1145 0.29777 0.03922 0.0
H2774 H 0.17097 0.30607 0.0029 0.0
H2775 H 0.1846 0.33012 0.02959 0.0
H2776 H 0.10515 0.29974 0.99929 0.0
H2777 H 0.17098 0.24389 0.00925 0.0
H2778 H 0.16728 0.26607 0.02634 0.0
H2779 H 0.17952 0.26941 0.00113 0.0
C2780 C 0.1372 0.31914 0.05172 0.0
C2781 C 0.15723 0.32803 0.04955 0.0
C2782 C 0.12967 0.30501 0.03679 0.0
C2783 C 0.14194 0.29964 0.01932 0.0
C2784 C 0.1615 0.3094 0.01658 0.0
H2785 H 0.0892 0.22853 0.91424 0.0
H2786 H 0.10296 0.25644 0.93672 0.0
C2787 C 0.16922 0.32326 0.03172 0.0
C2788 C 0.13433 0.28352 0.00432 0.0
H2789 H 0.14708 0.23666 0.98179 0.0
C2790 C 0.11431 0.28593 0.99547 0.0
C2791 C 0.14613 0.2653 0.99962 0.0
C2792 C 0.16706 0.26086 0.00974 0.0
C2793 C 0.10573 0.27066 0.98214 0.0
C2794 C 0.11783 0.25279 0.97688 0.0
C2795 C 0.13788 0.25043 0.98566 0.0
C2796 C 0.10978 0.23595 0.96293 0.0
C2797 C 0.08352 0.27352 0.97448 0.0
C2798 C 0.1098 0.21502 0.9698 0.0
C2799 C 0.10243 0.19902 0.95678 0.0
C2800 C 0.09468 0.20369 0.93673 0.0
C2801 C 0.0948 0.22459 0.92977 0.0
C2802 C 0.10253 0.24054 0.94266 0.0
H2803 H 0.07451 0.28427 0.9848 0.0
H2804 H 0.08382 0.28053 0.95857 0.0
H2805 H 0.0751 0.25831 0.97365 0.0
H2806 H 0.11538 0.21105 0.98534 0.0
H2807 H 0.10243 0.18304 0.96253 0.0
H2808 H 0.19279 0.94916 0.07826 0.0
H2809 H 0.21874 0.97288 0.09302 0.0
H2810 H 0.24197 0.92323 0.13259 0.0
H2811 H 0.21659 0.89892 0.11708 0.0
H2812 H 0.22254 0.98531 0.13321 0.0
H2813 H 0.29578 0.94608 0.10717 0.0
H2814 H 0.27037 0.93935 0.09671 0.0
H2815 H 0.27831 0.92967 0.12194 0.0
C2816 C 0.2037 0.94305 0.08975 0.0
C2817 C 0.20271 0.92199 0.09627 0.0
C2818 C 0.21842 0.95674 0.09833 0.0
C2819 C 0.23248 0.9498 0.11372 0.0
C2820 C 0.23154 0.92884 0.12043 0.0
H2821 H 0.30099 0.03901 0.19192 0.0
H2822 H 0.2781 0.01098 0.17947 0.0
C2823 C 0.21683 0.91503 0.11173 0.0
C2824 C 0.24747 0.9649 0.12314 0.0
H2825 H 0.29958 0.97544 0.12958 0.0
C2826 C 0.23939 0.98313 0.13246 0.0
C2827 C 0.26944 0.96213 0.12193 0.0
C2828 C 0.27906 0.94336 0.11124 0.0
C2829 C 0.25264 0.99875 0.14046 0.0
C2830 C 0.27462 0.99583 0.1396 0.0
C2831 C 0.28273 0.97756 0.13037 0.0
C2832 C 0.28942 0.01193 0.14753 0.0
C2833 C 0.24296 0.01853 0.14912 0.0
C2834 C 0.30395 0.02125 0.1339 0.0
C2835 C 0.31735 0.03705 0.14106 0.0
C2836 C 0.31651 0.04384 0.16202 0.0
C2837 C 0.30221 0.03411 0.17573 0.0
C2838 C 0.28891 0.01824 0.16858 0.0
H2839 H 0.22658 0.02068 0.14359 0.0
H2840 H 0.24263 0.01761 0.16648 0.0
H2841 H 0.25222 0.03256 0.14459 0.0
H2842 H 0.30471 0.01651 0.11762 0.0
H2843 H 0.32843 0.04387 0.13016 0.0
H2844 H 0.84976 0.46952 0.85412 0.0
H2845 H 0.82569 0.49432 0.87106 0.0
H2846 H 0.77305 0.46234 0.84324 0.0
H2847 H 0.79671 0.43723 0.82693 0.0
H2848 H 0.79513 0.52144 0.85314 0.0
H2849 H 0.75867 0.46278 0.90582 0.0
H2850 H 0.783 0.45796 0.89218 0.0
H2851 H 0.75835 0.45508 0.87877 0.0
C2852 C 0.83305 0.46771 0.85172 0.0
C2853 C 0.8252 0.45134 0.83916 0.0
C2854 C 0.81934 0.48195 0.86132 0.0
C2855 C 0.79758 0.47994 0.85868 0.0
C2856 C 0.78977 0.46395 0.84579 0.0
H2857 H 0.68286 0.54111 0.89246 0.0
H2858 H 0.71105 0.51922 0.87845 0.0
C2859 C 0.80338 0.44977 0.83623 0.0
C2860 C 0.78285 0.49446 0.86926 0.0
H2861 H 0.74067 0.49541 0.9022 0.0
C2862 C 0.78337 0.51584 0.86407 0.0
C2863 C 0.76758 0.48709 0.88356 0.0
C2864 C 0.76695 0.46451 0.8906 0.0
C2865 C 0.76843 0.5299 0.87213 0.0
C2866 C 0.75277 0.52236 0.8859 0.0
C2867 C 0.75262 0.5011 0.89152 0.0
C2868 C 0.73593 0.53608 0.89415 0.0
C2869 C 0.76901 0.55252 0.86527 0.0
C2870 C 0.74059 0.55273 0.90775 0.0
C2871 C 0.7245 0.56531 0.91575 0.0
C2872 C 0.70346 0.56145 0.91031 0.0
C2873 C 0.6989 0.54469 0.89673 0.0
C2874 C 0.71497 0.53209 0.88881 0.0
H2875 H 0.77936 0.55489 0.85147 0.0
H2876 H 0.75302 0.55816 0.86131 0.0
H2877 H 0.77506 0.56232 0.8783 0.0
H2878 H 0.75664 0.55588 0.91231 0.0
H2879 H 0.72856 0.57819 0.92604 0.0
H2880 H 0.29597 0.071 0.62859 0.0
H2881 H 0.26706 0.04874 0.64031 0.0
H2882 H 0.23971 0.05134 0.57861 0.0
H2883 H 0.26841 0.07391 0.56677 0.0
H2884 H 0.2219 0.05425 0.63942 0.0
H2885 H 0.24966 0.98791 0.59 0.0
H2886 H 0.26589 0.01037 0.59572 0.0
H2887 H 0.24523 0.01238 0.57673 0.0
C2888 C 0.28362 0.06721 0.61759 0.0
C2889 C 0.28466 0.07411 0.59666 0.0
C2890 C 0.26714 0.0544 0.6243 0.0
C2891 C 0.25142 0.04816 0.61025 0.0
C2892 C 0.25188 0.0557 0.5896 0.0
H2893 H 0.14205 0.9718 0.64832 0.0
H2894 H 0.16329 0.99976 0.63234 0.0
C2895 C 0.26835 0.06854 0.58286 0.0
C2896 C 0.23524 0.03288 0.617 0.0
H2897 H 0.21964 0.98205 0.61056 0.0
C2898 C 0.22122 0.03853 0.63298 0.0
C2899 C 0.23455 0.01234 0.60866 0.0
C2900 C 0.2497 0.00522 0.59193 0.0
C2901 C 0.2067 0.02403 0.64108 0.0
C2902 C 0.20621 0.00344 0.63289 0.0
C2903 C 0.21997 0.99792 0.61666 0.0
C2904 C 0.19301 0.98678 0.6423 0.0
C2905 C 0.19257 0.03053 0.65887 0.0
C2906 C 0.20271 0.97014 0.65286 0.0
C2907 C 0.19072 0.95426 0.66191 0.0
C2908 C 0.1687 0.95457 0.66052 0.0
C2909 C 0.15897 0.97111 0.64964 0.0
C2910 C 0.17105 0.98715 0.64064 0.0
H2911 H 0.19683 0.04616 0.66527 0.0
H2912 H 0.17613 0.03121 0.65323 0.0
H2913 H 0.19328 0.01882 0.67173 0.0
H2914 H 0.21963 0.9695 0.65419 0.0
H2915 H 0.19874 0.94156 0.66983 0.0
H2916 H 0.69791 0.54636 0.30469 0.0
H2917 H 0.72086 0.5195 0.31946 0.0
H2918 H 0.69832 0.53416 0.38145 0.0
H2919 H 0.67461 0.5604 0.36674 0.0
H2920 H 0.75265 0.52403 0.34695 0.0
H2921 H 0.69266 0.47094 0.38055 0.0
H2922 H 0.68618 0.4916 0.36234 0.0
H2923 H 0.69027 0.49746 0.38962 0.0
C2924 C 0.69752 0.54364 0.32143 0.0
C2925 C 0.68428 0.55552 0.33449 0.0
C2926 C 0.71078 0.52836 0.32987 0.0
C2927 C 0.71109 0.52456 0.35153 0.0
C2928 C 0.69804 0.53648 0.36464 0.0
H2929 H 0.81232 0.46487 0.41961 0.0
H2930 H 0.7865 0.48896 0.40498 0.0
C2931 C 0.6847 0.55171 0.35621 0.0
C2932 C 0.72573 0.50876 0.36043 0.0
H2933 H 0.72809 0.46468 0.39079 0.0
C2934 C 0.74726 0.51099 0.35645 0.0
C2935 C 0.71868 0.49157 0.37257 0.0
C2936 C 0.69567 0.48758 0.37637 0.0
C2937 C 0.76196 0.49679 0.36461 0.0
C2938 C 0.755 0.48013 0.37751 0.0
C2939 C 0.73343 0.4776 0.38112 0.0
C2940 C 0.76991 0.4652 0.38736 0.0
C2941 C 0.78479 0.49961 0.35906 0.0
C2942 C 0.76866 0.44366 0.38303 0.0
C2943 C 0.78323 0.42971 0.39169 0.0
C2944 C 0.7993 0.43703 0.40494 0.0
C2945 C 0.80009 0.45858 0.40966 0.0
C2946 C 0.78549 0.47247 0.40107 0.0
H2947 H 0.78675 0.50908 0.34458 0.0
H2948 H 0.79284 0.50797 0.37201 0.0
H2949 H 0.79265 0.48424 0.35677 0.0
H2950 H 0.75663 0.43767 0.37265 0.0
H2951 H 0.78191 0.41319 0.38798 0.0
loop_
_geom_bond_atom_site_label_1
_geom_bond_atom_site_label_2
_geom_bond_distance
_geom_bond_site_symmetry_2
_ccdc_geom_bond_type
C0 C1 1.351 . S
C0 N3 1.368 . S
C0 H5 0.931 . S
C1 C0 1.351 . S
C1 N2 1.373 . S
C1 H29 0.930 . S
N2 C1 1.373 . S
N2 C4 1.340 . S
N3 C0 1.368 . S
N3 C4 1.321 . S
N3 Co6 2.135 . S
C4 N2 1.340 . S
C4 N3 1.321 . S
C4 H28 0.930 . S
H5 C0 0.931 . S
Co6 N3 2.135 . S
Co6 N9 2.121 . S
Co6 O14 2.055 . S
Co6 O17 2.039 . S
Co6 N20 2.140 . S
C7 O8 1.227 . S
C7 O17 1.265 . S
O8 C7 1.227 . S
N9 Co6 2.121 . S
N9 C11 1.375 . S
N9 C12 1.313 . S
C10 C11 1.338 . S
C10 N13 1.377 . S
C10 H30 0.930 . S
C11 N9 1.375 . S
C11 C10 1.338 . S
C11 H15 0.931 . S
C12 N9 1.313 . S
C12 N13 1.344 . S
C12 H16 0.930 . S
N13 C10 1.377 . S
N13 C12 1.344 . S
O14 Co6 2.055 . S
O14 C18 1.253 . S
H15 C11 0.931 . S
H16 C12 0.930 . S
O17 Co6 2.039 . S
O17 C7 1.265 . S
C18 O14 1.253 . S
C18 O19 1.227 . S
O19 C18 1.227 . S
N20 Co6 2.140 . S
N20 C23 1.346 . S
N20 C24 1.345 . S
C21 C22 1.387 . S
C21 C25 1.391 . S
C22 C21 1.387 . S
C22 C23 1.369 . S
C22 H31 0.929 . S
C23 N20 1.346 . S
C23 C22 1.369 . S
C23 H26 0.928 . S
C24 N20 1.345 . S
C24 C25 1.371 . S
C24 H27 0.931 . S
C25 C21 1.391 . S
C25 C24 1.371 . S
C25 H32 0.930 . S
H26 C23 0.928 . S
H27 C24 0.931 . S
H28 C4 0.930 . S
H29 C1 0.930 . S
H30 C10 0.930 . S
H31 C22 0.929 . S
H32 C25 0.930 . S
C33 C34 1.351 . S
C33 N36 1.368 . S
C33 H38 0.931 . S
C34 C33 1.351 . S
C34 N35 1.373 . S
C34 H62 0.930 . S
N35 C34 1.373 . S
N35 C37 1.340 . S
N36 C33 1.368 . S
N36 C37 1.321 . S
N36 Co39 2.135 . S
C37 N35 1.340 . S
C37 N36 1.321 . S
C37 H61 0.930 . S
H38 C33 0.931 . S
Co39 N36 2.135 . S
Co39 N42 2.121 . S
Co39 O47 2.055 . S
Co39 O50 2.039 . S
Co39 N53 2.140 . S
C40 O41 1.227 . S
C40 O50 1.265 . S
O41 C40 1.227 . S
N42 Co39 2.121 . S
N42 C44 1.375 . S
N42 C45 1.313 . S
C43 C44 1.338 . S
C43 N46 1.377 . S
C43 H63 0.930 . S
C44 N42 1.375 . S
C44 C43 1.338 . S
C44 H48 0.931 . S
C45 N42 1.313 . S
C45 N46 1.344 . S
C45 H49 0.930 . S
N46 C43 1.377 . S
N46 C45 1.344 . S
O47 Co39 2.055 . S
O47 C51 1.253 . S
H48 C44 0.931 . S
H49 C45 0.930 . S
O50 Co39 2.039 . S
O50 C40 1.265 . S
C51 O47 1.253 . S
C51 O52 1.227 . S
O52 C51 1.227 . S
N53 Co39 2.140 . S
N53 C56 1.346 . S
N53 C57 1.345 . S
C54 C55 1.387 . S
C54 C58 1.391 . S
C55 C54 1.387 . S
C55 C56 1.369 . S
C55 H64 0.929 . S
C56 N53 1.346 . S
C56 C55 1.369 . S
C56 H59 0.928 . S
C57 N53 1.345 . S
C57 C58 1.371 . S
C57 H60 0.931 . S
C58 C54 1.391 . S
C58 C57 1.371 . S
C58 H65 0.930 . S
H59 C56 0.928 . S
H60 C57 0.931 . S
H61 C37 0.930 . S
H62 C34 0.930 . S
H63 C43 0.930 . S
H64 C55 0.929 . S
H65 C58 0.930 . S
C66 C67 1.351 . S
C66 N69 1.368 . S
C66 H71 0.931 . S
C67 C66 1.351 . S
C67 N68 1.373 . S
C67 H95 0.930 . S
N68 C67 1.373 . S
N68 C70 1.340 . S
N69 C66 1.368 . S
N69 C70 1.321 . S
N69 Co72 2.135 . S
C70 N68 1.340 . S
C70 N69 1.321 . S
C70 H94 0.930 . S
H71 C66 0.931 . S
Co72 N69 2.135 . S
Co72 N75 2.121 . S
Co72 O80 2.055 . S
Co72 O83 2.039 . S
Co72 N86 2.140 . S
C73 O74 1.227 . S
C73 O83 1.265 . S
O74 C73 1.227 . S
N75 Co72 2.121 . S
N75 C77 1.375 . S
N75 C78 1.313 . S
C76 C77 1.338 . S
C76 N79 1.377 . S
C76 H96 0.930 . S
C77 N75 1.375 . S
C77 C76 1.338 . S
C77 H81 0.931 . S
C78 N75 1.313 . S
C78 N79 1.344 . S
C78 H82 0.930 . S
N79 C76 1.377 . S
N79 C78 1.344 . S
O80 Co72 2.055 . S
O80 C84 1.253 . S
H81 C77 0.931 . S
H82 C78 0.930 . S
O83 Co72 2.039 . S
O83 C73 1.265 . S
C84 O80 1.253 . S
C84 O85 1.227 . S
O85 C84 1.227 . S
N86 Co72 2.140 . S
N86 C89 1.346 . S
N86 C90 1.345 . S
C87 C88 1.387 . S
C87 C91 1.391 . S
C88 C87 1.387 . S
C88 C89 1.369 . S
C88 H97 0.929 . S
C89 N86 1.346 . S
C89 C88 1.369 . S
C89 H92 0.928 . S
C90 N86 1.345 . S
C90 C91 1.371 . S
C90 H93 0.931 . S
C91 C87 1.391 . S
C91 C90 1.371 . S
C91 H98 0.930 . S
H92 C89 0.928 . S
H93 C90 0.931 . S
H94 C70 0.930 . S
H95 C67 0.930 . S
H96 C76 0.930 . S
H97 C88 0.929 . S
H98 C91 0.930 . S
C99 C100 1.351 . S
C99 N102 1.368 . S
C99 H104 0.931 . S
C100 C99 1.351 . S
C100 N101 1.373 . S
C100 H128 0.930 . S
N101 C100 1.373 . S
N101 C103 1.340 . S
N102 C99 1.368 . S
N102 C103 1.321 . S
N102 Co105 2.135 . S
C103 N101 1.340 . S
C103 N102 1.321 . S
C103 H127 0.930 . S
H104 C99 0.931 . S
Co105 N102 2.135 . S
Co105 N108 2.121 . S
Co105 O113 2.055 . S
Co105 O116 2.039 . S
Co105 N119 2.140 . S
C106 O107 1.227 . S
C106 O116 1.265 . S
O107 C106 1.227 . S
N108 Co105 2.121 . S
N108 C110 1.375 . S
N108 C111 1.313 . S
C109 C110 1.338 . S
C109 N112 1.377 . S
C109 H129 0.930 . S
C110 N108 1.375 . S
C110 C109 1.338 . S
C110 H114 0.931 . S
C111 N108 1.313 . S
C111 N112 1.344 . S
C111 H115 0.930 . S
N112 C109 1.377 . S
N112 C111 1.344 . S
O113 Co105 2.055 . S
O113 C117 1.253 . S
H114 C110 0.931 . S
H115 C111 0.930 . S
O116 Co105 2.039 . S
O116 C106 1.265 . S
C117 O113 1.253 . S
C117 O118 1.227 . S
O118 C117 1.227 . S
N119 Co105 2.140 . S
N119 C122 1.346 . S
N119 C123 1.345 . S
C120 C121 1.387 . S
C120 C124 1.391 . S
C121 C120 1.387 . S
C121 C122 1.369 . S
C121 H130 0.929 . S
C122 N119 1.346 . S
C122 C121 1.369 . S
C122 H125 0.928 . S
C123 N119 1.345 . S
C123 C124 1.371 . S
C123 H126 0.931 . S
C124 C120 1.391 . S
C124 C123 1.371 . S
C124 H131 0.930 . S
H125 C122 0.928 . S
H126 C123 0.931 . S
H127 C103 0.930 . S
H128 C100 0.930 . S
H129 C109 0.930 . S
H130 C121 0.929 . S
H131 C124 0.930 . S
C132 C133 1.351 . S
C132 N135 1.368 . S
C132 H137 0.931 . S
C133 C132 1.351 . S
C133 N134 1.373 . S
C133 H161 0.930 . S
N134 C133 1.373 . S
N134 C136 1.340 . S
N135 C132 1.368 . S
N135 C136 1.321 . S
N135 Co138 2.135 . S
C136 N134 1.340 . S
C136 N135 1.321 . S
C136 H160 0.930 . S
H137 C132 0.931 . S
Co138 N135 2.135 . S
Co138 N141 2.121 . S
Co138 O146 2.055 . S
Co138 O149 2.039 . S
Co138 N152 2.140 . S
C139 O140 1.227 . S
C139 O149 1.265 . S
O140 C139 1.227 . S
N141 Co138 2.121 . S
N141 C143 1.375 . S
N141 C144 1.313 . S
C142 C143 1.338 . S
C142 N145 1.377 . S
C142 H162 0.930 . S
C143 N141 1.375 . S
C143 C142 1.338 . S
C143 H147 0.931 . S
C144 N141 1.313 . S
C144 N145 1.344 . S
C144 H148 0.930 . S
N145 C142 1.377 . S
N145 C144 1.344 . S
O146 Co138 2.055 . S
O146 C150 1.253 . S
H147 C143 0.931 . S
H148 C144 0.930 . S
O149 Co138 2.039 . S
O149 C139 1.265 . S
C150 O146 1.253 . S
C150 O151 1.227 . S
O151 C150 1.227 . S
N152 Co138 2.140 . S
N152 C155 1.346 . S
N152 C156 1.345 . S
C153 C154 1.387 . S
C153 C157 1.391 . S
C154 C153 1.387 . S
C154 C155 1.369 . S
C154 H163 0.929 . S
C155 N152 1.346 . S
C155 C154 1.369 . S
C155 H158 0.928 . S
C156 N152 1.345 . S
C156 C157 1.371 . S
C156 H159 0.931 . S
C157 C153 1.391 . S
C157 C156 1.371 . S
C157 H164 0.930 . S
H158 C155 0.928 . S
H159 C156 0.931 . S
H160 C136 0.930 . S
H161 C133 0.930 . S
H162 C142 0.930 . S
H163 C154 0.929 . S
H164 C157 0.930 . S
C165 C166 1.351 . S
C165 N168 1.368 . S
C165 H170 0.931 . S
C166 C165 1.351 . S
C166 N167 1.373 . S
C166 H194 0.930 . S
N167 C166 1.373 . S
N167 C169 1.340 . S
N168 C165 1.368 . S
N168 C169 1.321 . S
N168 Co171 2.135 . S
C169 N167 1.340 . S
C169 N168 1.321 . S
C169 H193 0.930 . S
H170 C165 0.931 . S
Co171 N168 2.135 . S
Co171 N174 2.121 . S
Co171 O179 2.055 . S
Co171 O182 2.039 . S
Co171 N185 2.140 . S
C172 O173 1.227 . S
C172 O182 1.265 . S
O173 C172 1.227 . S
N174 Co171 2.121 . S
N174 C176 1.375 . S
N174 C177 1.313 . S
C175 C176 1.338 . S
C175 N178 1.377 . S
C175 H195 0.930 . S
C176 N174 1.375 . S
C176 C175 1.338 . S
C176 H180 0.931 . S
C177 N174 1.313 . S
C177 N178 1.344 . S
C177 H181 0.930 . S
N178 C175 1.377 . S
N178 C177 1.344 . S
O179 Co171 2.055 . S
O179 C183 1.253 . S
H180 C176 0.931 . S
H181 C177 0.930 . S
O182 Co171 2.039 . S
O182 C172 1.265 . S
C183 O179 1.253 . S
C183 O184 1.227 . S
O184 C183 1.227 . S
N185 Co171 2.140 . S
N185 C188 1.346 . S
N185 C189 1.345 . S
C186 C187 1.387 . S
C186 C190 1.391 . S
C187 C186 1.387 . S
C187 C188 1.369 . S
C187 H196 0.929 . S
C188 N185 1.346 . S
C188 C187 1.369 . S
C188 H191 0.928 . S
C189 N185 1.345 . S
C189 C190 1.371 . S
C189 H192 0.931 . S
C190 C186 1.391 . S
C190 C189 1.371 . S
C190 H197 0.930 . S
H191 C188 0.928 . S
H192 C189 0.931 . S
H193 C169 0.930 . S
H194 C166 0.930 . S
H195 C175 0.930 . S
H196 C187 0.929 . S
H197 C190 0.930 . S
C198 C199 1.351 . S
C198 N201 1.368 . S
C198 H203 0.931 . S
C199 C198 1.351 . S
C199 N200 1.373 . S
C199 H227 0.930 . S
N200 C199 1.373 . S
N200 C202 1.340 . S
N201 C198 1.368 . S
N201 C202 1.321 . S
N201 Co204 2.135 . S
C202 N200 1.340 . S
C202 N201 1.321 . S
C202 H226 0.930 . S
H203 C198 0.931 . S
Co204 N201 2.135 . S
Co204 N207 2.121 . S
Co204 O212 2.055 . S
Co204 O215 2.039 . S
Co204 N218 2.140 . S
C205 O206 1.227 . S
C205 O215 1.265 . S
O206 C205 1.227 . S
N207 Co204 2.121 . S
N207 C209 1.375 . S
N207 C210 1.313 . S
C208 C209 1.338 . S
C208 N211 1.377 . S
C208 H228 0.930 . S
C209 N207 1.375 . S
C209 C208 1.338 . S
C209 H213 0.931 . S
C210 N207 1.313 . S
C210 N211 1.344 . S
C210 H214 0.930 . S
N211 C208 1.377 . S
N211 C210 1.344 . S
O212 Co204 2.055 . S
O212 C216 1.253 . S
H213 C209 0.931 . S
H214 C210 0.930 . S
O215 Co204 2.039 . S
O215 C205 1.265 . S
C216 O212 1.253 . S
C216 O217 1.227 . S
O217 C216 1.227 . S
N218 Co204 2.140 . S
N218 C221 1.346 . S
N218 C222 1.345 . S
C219 C220 1.387 . S
C219 C223 1.391 . S
C220 C219 1.387 . S
C220 C221 1.369 . S
C220 H229 0.929 . S
C221 N218 1.346 . S
C221 C220 1.369 . S
C221 H224 0.928 . S
C222 N218 1.345 . S
C222 C223 1.371 . S
C222 H225 0.931 . S
C223 C219 1.391 . S
C223 C222 1.371 . S
C223 H230 0.930 . S
H224 C221 0.928 . S
H225 C222 0.931 . S
H226 C202 0.930 . S
H227 C199 0.930 . S
H228 C208 0.930 . S
H229 C220 0.929 . S
H230 C223 0.930 . S
C231 C232 1.351 . S
C231 N234 1.368 . S
C231 H236 0.931 . S
C232 C231 1.351 . S
C232 N233 1.373 . S
C232 H260 0.930 . S
N233 C232 1.373 . S
N233 C235 1.340 . S
N234 C231 1.368 . S
N234 C235 1.321 . S
N234 Co237 2.135 . S
C235 N233 1.340 . S
C235 N234 1.321 . S
C235 H259 0.930 . S
H236 C231 0.931 . S
Co237 N234 2.135 . S
Co237 N240 2.121 . S
Co237 O245 2.055 . S
Co237 O248 2.039 . S
Co237 N251 2.140 . S
C238 O239 1.227 . S
C238 O248 1.265 . S
O239 C238 1.227 . S
N240 Co237 2.121 . S
N240 C242 1.375 . S
N240 C243 1.313 . S
C241 C242 1.338 . S
C241 N244 1.377 . S
C241 H261 0.930 . S
C242 N240 1.375 . S
C242 C241 1.338 . S
C242 H246 0.931 . S
C243 N240 1.313 . S
C243 N244 1.344 . S
C243 H247 0.930 . S
N244 C241 1.377 . S
N244 C243 1.344 . S
O245 Co237 2.055 . S
O245 C249 1.253 . S
H246 C242 0.931 . S
H247 C243 0.930 . S
O248 Co237 2.039 . S
O248 C238 1.265 . S
C249 O245 1.253 . S
C249 O250 1.227 . S
O250 C249 1.227 . S
N251 Co237 2.140 . S
N251 C254 1.346 . S
N251 C255 1.345 . S
C252 C253 1.387 . S
C252 C256 1.391 . S
C253 C252 1.387 . S
C253 C254 1.369 . S
C253 H262 0.929 . S
C254 N251 1.346 . S
C254 C253 1.369 . S
C254 H257 0.928 . S
C255 N251 1.345 . S
C255 C256 1.371 . S
C255 H258 0.931 . S
C256 C252 1.391 . S
C256 C255 1.371 . S
C256 H263 0.930 . S
H257 C254 0.928 . S
H258 C255 0.931 . S
H259 C235 0.930 . S
H260 C232 0.930 . S
H261 C241 0.930 . S
H262 C253 0.929 . S
H263 C256 0.930 . S
C264 C265 1.351 . S
C264 N267 1.368 . S
C264 H269 0.931 . S
C265 C264 1.351 . S
C265 N266 1.373 . S
C265 H293 0.930 . S
N266 C265 1.373 . S
N266 C268 1.340 . S
N267 C264 1.368 . S
N267 C268 1.321 . S
N267 Co270 2.135 . S
C268 N266 1.340 . S
C268 N267 1.321 . S
C268 H292 0.930 . S
H269 C264 0.931 . S
Co270 N267 2.135 . S
Co270 N273 2.121 . S
Co270 O278 2.055 . S
Co270 O281 2.039 . S
Co270 N284 2.140 . S
C271 O272 1.227 . S
C271 O281 1.265 . S
O272 C271 1.227 . S
N273 Co270 2.121 . S
N273 C275 1.375 . S
N273 C276 1.313 . S
C274 C275 1.338 . S
C274 N277 1.377 . S
C274 H294 0.930 . S
C275 N273 1.375 . S
C275 C274 1.338 . S
C275 H279 0.931 . S
C276 N273 1.313 . S
C276 N277 1.344 . S
C276 H280 0.930 . S
N277 C274 1.377 . S
N277 C276 1.344 . S
O278 Co270 2.055 . S
O278 C282 1.253 . S
H279 C275 0.931 . S
H280 C276 0.930 . S
O281 Co270 2.039 . S
O281 C271 1.265 . S
C282 O278 1.253 . S
C282 O283 1.227 . S
O283 C282 1.227 . S
N284 Co270 2.140 . S
N284 C287 1.346 . S
N284 C288 1.345 . S
C285 C286 1.387 . S
C285 C289 1.391 . S
C286 C285 1.387 . S
C286 C287 1.369 . S
C286 H295 0.929 . S
C287 N284 1.346 . S
C287 C286 1.369 . S
C287 H290 0.928 . S
C288 N284 1.345 . S
C288 C289 1.371 . S
C288 H291 0.931 . S
C289 C285 1.391 . S
C289 C288 1.371 . S
C289 H296 0.930 . S
H290 C287 0.928 . S
H291 C288 0.931 . S
H292 C268 0.930 . S
H293 C265 0.930 . S
H294 C274 0.930 . S
H295 C286 0.929 . S
H296 C289 0.930 . S
C297 C298 1.351 . S
C297 N300 1.368 . S
C297 H302 0.931 . S
C298 C297 1.351 . S
C298 N299 1.373 . S
C298 H326 0.930 . S
N299 C298 1.373 . S
N299 C301 1.340 . S
N300 C297 1.368 . S
N300 C301 1.321 . S
N300 Co303 2.135 . S
C301 N299 1.340 . S
C301 N300 1.321 . S
C301 H325 0.930 . S
H302 C297 0.931 . S
Co303 N300 2.135 . S
Co303 N306 2.121 . S
Co303 O311 2.055 . S
Co303 O314 2.039 . S
Co303 N317 2.140 . S
C304 O305 1.227 . S
C304 O314 1.265 . S
O305 C304 1.227 . S
N306 Co303 2.121 . S
N306 C308 1.375 . S
N306 C309 1.313 . S
C307 C308 1.338 . S
C307 N310 1.377 . S
C307 H327 0.930 . S
C308 N306 1.375 . S
C308 C307 1.338 . S
C308 H312 0.931 . S
C309 N306 1.313 . S
C309 N310 1.344 . S
C309 H313 0.930 . S
N310 C307 1.377 . S
N310 C309 1.344 . S
O311 Co303 2.055 . S
O311 C315 1.253 . S
H312 C308 0.931 . S
H313 C309 0.930 . S
O314 Co303 2.039 . S
O314 C304 1.265 . S
C315 O311 1.253 . S
C315 O316 1.227 . S
O316 C315 1.227 . S
N317 Co303 2.140 . S
N317 C320 1.346 . S
N317 C321 1.345 . S
C318 C319 1.387 . S
C318 C322 1.391 . S
C319 C318 1.387 . S
C319 C320 1.369 . S
C319 H328 0.929 . S
C320 N317 1.346 . S
C320 C319 1.369 . S
C320 H323 0.928 . S
C321 N317 1.345 . S
C321 C322 1.371 . S
C321 H324 0.931 . S
C322 C318 1.391 . S
C322 C321 1.371 . S
C322 H329 0.930 . S
H323 C320 0.928 . S
H324 C321 0.931 . S
H325 C301 0.930 . S
H326 C298 0.930 . S
H327 C307 0.930 . S
H328 C319 0.929 . S
H329 C322 0.930 . S
C330 C331 1.351 . S
C330 N333 1.368 . S
C330 H335 0.931 . S
C331 C330 1.351 . S
C331 N332 1.373 . S
C331 H359 0.930 . S
N332 C331 1.373 . S
N332 C334 1.340 . S
N333 C330 1.368 . S
N333 C334 1.321 . S
N333 Co336 2.135 . S
C334 N332 1.340 . S
C334 N333 1.321 . S
C334 H358 0.930 . S
H335 C330 0.931 . S
Co336 N333 2.135 . S
Co336 N339 2.121 . S
Co336 O344 2.055 . S
Co336 O347 2.039 . S
Co336 N350 2.140 . S
C337 O338 1.227 . S
C337 O347 1.265 . S
O338 C337 1.227 . S
N339 Co336 2.121 . S
N339 C341 1.375 . S
N339 C342 1.313 . S
C340 C341 1.338 . S
C340 N343 1.377 . S
C340 H360 0.930 . S
C341 N339 1.375 . S
C341 C340 1.338 . S
C341 H345 0.931 . S
C342 N339 1.313 . S
C342 N343 1.344 . S
C342 H346 0.930 . S
N343 C340 1.377 . S
N343 C342 1.344 . S
O344 Co336 2.055 . S
O344 C348 1.253 . S
H345 C341 0.931 . S
H346 C342 0.930 . S
O347 Co336 2.039 . S
O347 C337 1.265 . S
C348 O344 1.253 . S
C348 O349 1.227 . S
O349 C348 1.227 . S
N350 Co336 2.140 . S
N350 C353 1.346 . S
N350 C354 1.345 . S
C351 C352 1.387 . S
C351 C355 1.391 . S
C352 C351 1.387 . S
C352 C353 1.369 . S
C352 H361 0.929 . S
C353 N350 1.346 . S
C353 C352 1.369 . S
C353 H356 0.928 . S
C354 N350 1.345 . S
C354 C355 1.371 . S
C354 H357 0.931 . S
C355 C351 1.391 . S
C355 C354 1.371 . S
C355 H362 0.930 . S
H356 C353 0.928 . S
H357 C354 0.931 . S
H358 C334 0.930 . S
H359 C331 0.930 . S
H360 C340 0.930 . S
H361 C352 0.929 . S
H362 C355 0.930 . S
C363 C364 1.351 . S
C363 N366 1.368 . S
C363 H368 0.931 . S
C364 C363 1.351 . S
C364 N365 1.373 . S
C364 H392 0.930 . S
N365 C364 1.373 . S
N365 C367 1.340 . S
N366 C363 1.368 . S
N366 C367 1.321 . S
N366 Co369 2.135 . S
C367 N365 1.340 . S
C367 N366 1.321 . S
C367 H391 0.930 . S
H368 C363 0.931 . S
Co369 N366 2.135 . S
Co369 N372 2.121 . S
Co369 O377 2.055 . S
Co369 O380 2.039 . S
Co369 N383 2.140 . S
C370 O371 1.227 . S
C370 O380 1.265 . S
O371 C370 1.227 . S
N372 Co369 2.121 . S
N372 C374 1.375 . S
N372 C375 1.313 . S
C373 C374 1.338 . S
C373 N376 1.377 . S
C373 H393 0.930 . S
C374 N372 1.375 . S
C374 C373 1.338 . S
C374 H378 0.931 . S
C375 N372 1.313 . S
C375 N376 1.344 . S
C375 H379 0.930 . S
N376 C373 1.377 . S
N376 C375 1.344 . S
O377 Co369 2.055 . S
O377 C381 1.253 . S
H378 C374 0.931 . S
H379 C375 0.930 . S
O380 Co369 2.039 . S
O380 C370 1.265 . S
C381 O377 1.253 . S
C381 O382 1.227 . S
O382 C381 1.227 . S
N383 Co369 2.140 . S
N383 C386 1.346 . S
N383 C387 1.345 . S
C384 C385 1.387 . S
C384 C388 1.391 . S
C385 C384 1.387 . S
C385 C386 1.369 . S
C385 H394 0.929 . S
C386 N383 1.346 . S
C386 C385 1.369 . S
C386 H389 0.928 . S
C387 N383 1.345 . S
C387 C388 1.371 . S
C387 H390 0.931 . S
C388 C384 1.391 . S
C388 C387 1.371 . S
C388 H395 0.930 . S
H389 C386 0.928 . S
H390 C387 0.931 . S
H391 C367 0.930 . S
H392 C364 0.930 . S
H393 C373 0.930 . S
H394 C385 0.929 . S
H395 C388 0.930 . S
C396 C397 1.351 . S
C396 N399 1.368 . S
C396 H401 0.931 . S
C397 C396 1.351 . S
C397 N398 1.373 . S
C397 H425 0.930 . S
N398 C397 1.373 . S
N398 C400 1.340 . S
N399 C396 1.368 . S
N399 C400 1.321 . S
N399 Co402 2.135 . S
C400 N398 1.340 . S
C400 N399 1.321 . S
C400 H424 0.930 . S
H401 C396 0.931 . S
Co402 N399 2.135 . S
Co402 N405 2.121 . S
Co402 O410 2.055 . S
Co402 O413 2.039 . S
Co402 N416 2.140 . S
C403 O404 1.227 . S
C403 O413 1.265 . S
O404 C403 1.227 . S
N405 Co402 2.121 . S
N405 C407 1.375 . S
N405 C408 1.313 . S
C406 C407 1.338 . S
C406 N409 1.377 . S
C406 H426 0.930 . S
C407 N405 1.375 . S
C407 C406 1.338 . S
C407 H411 0.931 . S
C408 N405 1.313 . S
C408 N409 1.344 . S
C408 H412 0.930 . S
N409 C406 1.377 . S
N409 C408 1.344 . S
O410 Co402 2.055 . S
O410 C414 1.253 . S
H411 C407 0.931 . S
H412 C408 0.930 . S
O413 Co402 2.039 . S
O413 C403 1.265 . S
C414 O410 1.253 . S
C414 O415 1.227 . S
O415 C414 1.227 . S
N416 Co402 2.140 . S
N416 C419 1.346 . S
N416 C420 1.345 . S
C417 C418 1.387 . S
C417 C421 1.391 . S
C418 C417 1.387 . S
C418 C419 1.369 . S
C418 H427 0.929 . S
C419 N416 1.346 . S
C419 C418 1.369 . S
C419 H422 0.928 . S
C420 N416 1.345 . S
C420 C421 1.371 . S
C420 H423 0.931 . S
C421 C417 1.391 . S
C421 C420 1.371 . S
C421 H428 0.930 . S
H422 C419 0.928 . S
H423 C420 0.931 . S
H424 C400 0.930 . S
H425 C397 0.930 . S
H426 C406 0.930 . S
H427 C418 0.929 . S
H428 C421 0.930 . S
C429 C430 1.351 . S
C429 N432 1.368 . S
C429 H434 0.931 . S
C430 C429 1.351 . S
C430 N431 1.373 . S
C430 H458 0.930 . S
N431 C430 1.373 . S
N431 C433 1.340 . S
N432 C429 1.368 . S
N432 C433 1.321 . S
N432 Co435 2.135 . S
C433 N431 1.340 . S
C433 N432 1.321 . S
C433 H457 0.930 . S
H434 C429 0.931 . S
Co435 N432 2.135 . S
Co435 N438 2.121 . S
Co435 O443 2.055 . S
Co435 O446 2.039 . S
Co435 N449 2.140 . S
C436 O437 1.227 . S
C436 O446 1.265 . S
O437 C436 1.227 . S
N438 Co435 2.121 . S
N438 C440 1.375 . S
N438 C441 1.313 . S
C439 C440 1.338 . S
C439 N442 1.377 . S
C439 H459 0.930 . S
C440 N438 1.375 . S
C440 C439 1.338 . S
C440 H444 0.931 . S
C441 N438 1.313 . S
C441 N442 1.344 . S
C441 H445 0.930 . S
N442 C439 1.377 . S
N442 C441 1.344 . S
O443 Co435 2.055 . S
O443 C447 1.253 . S
H444 C440 0.931 . S
H445 C441 0.930 . S
O446 Co435 2.039 . S
O446 C436 1.265 . S
C447 O443 1.253 . S
C447 O448 1.227 . S
O448 C447 1.227 . S
N449 Co435 2.140 . S
N449 C452 1.346 . S
N449 C453 1.345 . S
C450 C451 1.387 . S
C450 C454 1.391 . S
C451 C450 1.387 . S
C451 C452 1.369 . S
C451 H460 0.929 . S
C452 N449 1.346 . S
C452 C451 1.369 . S
C452 H455 0.928 . S
C453 N449 1.345 . S
C453 C454 1.371 . S
C453 H456 0.931 . S
C454 C450 1.391 . S
C454 C453 1.371 . S
C454 H461 0.930 . S
H455 C452 0.928 . S
H456 C453 0.931 . S
H457 C433 0.930 . S
H458 C430 0.930 . S
H459 C439 0.930 . S
H460 C451 0.929 . S
H461 C454 0.930 . S
C462 C463 1.351 . S
C462 N465 1.368 . S
C462 H467 0.931 . S
C463 C462 1.351 . S
C463 N464 1.373 . S
C463 H491 0.930 . S
N464 C463 1.373 . S
N464 C466 1.340 . S
N465 C462 1.368 . S
N465 C466 1.321 . S
N465 Co468 2.135 . S
C466 N464 1.340 . S
C466 N465 1.321 . S
C466 H490 0.930 . S
H467 C462 0.931 . S
Co468 N465 2.135 . S
Co468 N471 2.121 . S
Co468 O476 2.055 . S
Co468 O479 2.039 . S
Co468 N482 2.140 . S
C469 O470 1.227 . S
C469 O479 1.265 . S
O470 C469 1.227 . S
N471 Co468 2.121 . S
N471 C473 1.375 . S
N471 C474 1.313 . S
C472 C473 1.338 . S
C472 N475 1.377 . S
C472 H492 0.930 . S
C473 N471 1.375 . S
C473 C472 1.338 . S
C473 H477 0.931 . S
C474 N471 1.313 . S
C474 N475 1.344 . S
C474 H478 0.930 . S
N475 C472 1.377 . S
N475 C474 1.344 . S
O476 Co468 2.055 . S
O476 C480 1.253 . S
H477 C473 0.931 . S
H478 C474 0.930 . S
O479 Co468 2.039 . S
O479 C469 1.265 . S
C480 O476 1.253 . S
C480 O481 1.227 . S
O481 C480 1.227 . S
N482 Co468 2.140 . S
N482 C485 1.346 . S
N482 C486 1.345 . S
C483 C484 1.387 . S
C483 C487 1.391 . S
C484 C483 1.387 . S
C484 C485 1.369 . S
C484 H493 0.929 . S
C485 N482 1.346 . S
C485 C484 1.369 . S
C485 H488 0.928 . S
C486 N482 1.345 . S
C486 C487 1.371 . S
C486 H489 0.931 . S
C487 C483 1.391 . S
C487 C486 1.371 . S
C487 H494 0.930 . S
H488 C485 0.928 . S
H489 C486 0.931 . S
H490 C466 0.930 . S
H491 C463 0.930 . S
H492 C472 0.930 . S
H493 C484 0.929 . S
H494 C487 0.930 . S
C495 C496 1.351 . S
C495 N498 1.368 . S
C495 H500 0.931 . S
C496 C495 1.351 . S
C496 N497 1.373 . S
C496 H524 0.930 . S
N497 C496 1.373 . S
N497 C499 1.340 . S
N498 C495 1.368 . S
N498 C499 1.321 . S
N498 Co501 2.135 . S
C499 N497 1.340 . S
C499 N498 1.321 . S
C499 H523 0.930 . S
H500 C495 0.931 . S
Co501 N498 2.135 . S
Co501 N504 2.121 . S
Co501 O509 2.055 . S
Co501 O512 2.039 . S
Co501 N515 2.140 . S
C502 O503 1.227 . S
C502 O512 1.265 . S
O503 C502 1.227 . S
N504 Co501 2.121 . S
N504 C506 1.375 . S
N504 C507 1.313 . S
C505 C506 1.338 . S
C505 N508 1.377 . S
C505 H525 0.930 . S
C506 N504 1.375 . S
C506 C505 1.338 . S
C506 H510 0.931 . S
C507 N504 1.313 . S
C507 N508 1.344 . S
C507 H511 0.930 . S
N508 C505 1.377 . S
N508 C507 1.344 . S
O509 Co501 2.055 . S
O509 C513 1.253 . S
H510 C506 0.931 . S
H511 C507 0.930 . S
O512 Co501 2.039 . S
O512 C502 1.265 . S
C513 O509 1.253 . S
C513 O514 1.227 . S
O514 C513 1.227 . S
N515 Co501 2.140 . S
N515 C518 1.346 . S
N515 C519 1.345 . S
C516 C517 1.387 . S
C516 C520 1.391 . S
C517 C516 1.387 . S
C517 C518 1.369 . S
C517 H526 0.929 . S
C518 N515 1.346 . S
C518 C517 1.369 . S
C518 H521 0.928 . S
C519 N515 1.345 . S
C519 C520 1.371 . S
C519 H522 0.931 . S
C520 C516 1.391 . S
C520 C519 1.371 . S
C520 H527 0.930 . S
H521 C518 0.928 . S
H522 C519 0.931 . S
H523 C499 0.930 . S
H524 C496 0.930 . S
H525 C505 0.930 . S
H526 C517 0.929 . S
H527 C520 0.930 . S
C528 C529 1.351 . S
C528 N531 1.368 . S
C528 H533 0.931 . S
C529 C528 1.351 . S
C529 N530 1.373 . S
C529 H557 0.930 . S
N530 C529 1.373 . S
N530 C532 1.340 . S
N531 C528 1.368 . S
N531 C532 1.321 . S
N531 Co534 2.135 . S
C532 N530 1.340 . S
C532 N531 1.321 . S
C532 H556 0.930 . S
H533 C528 0.931 . S
Co534 N531 2.135 . S
Co534 N537 2.121 . S
Co534 O542 2.055 . S
Co534 O545 2.039 . S
Co534 N548 2.140 . S
C535 O536 1.227 . S
C535 O545 1.265 . S
O536 C535 1.227 . S
N537 Co534 2.121 . S
N537 C539 1.375 . S
N537 C540 1.313 . S
C538 C539 1.338 . S
C538 N541 1.377 . S
C538 H558 0.930 . S
C539 N537 1.375 . S
C539 C538 1.338 . S
C539 H543 0.931 . S
C540 N537 1.313 . S
C540 N541 1.344 . S
C540 H544 0.930 . S
N541 C538 1.377 . S
N541 C540 1.344 . S
O542 Co534 2.055 . S
O542 C546 1.253 . S
H543 C539 0.931 . S
H544 C540 0.930 . S
O545 Co534 2.039 . S
O545 C535 1.265 . S
C546 O542 1.253 . S
C546 O547 1.227 . S
O547 C546 1.227 . S
N548 Co534 2.140 . S
N548 C551 1.346 . S
N548 C552 1.345 . S
C549 C550 1.387 . S
C549 C553 1.391 . S
C550 C549 1.387 . S
C550 C551 1.369 . S
C550 H559 0.929 . S
C551 N548 1.346 . S
C551 C550 1.369 . S
C551 H554 0.928 . S
C552 N548 1.345 . S
C552 C553 1.371 . S
C552 H555 0.931 . S
C553 C549 1.391 . S
C553 C552 1.371 . S
C553 H560 0.930 . S
H554 C551 0.928 . S
H555 C552 0.931 . S
H556 C532 0.930 . S
H557 C529 0.930 . S
H558 C538 0.930 . S
H559 C550 0.929 . S
H560 C553 0.930 . S
C561 C562 1.351 . S
C561 N564 1.368 . S
C561 H566 0.931 . S
C562 C561 1.351 . S
C562 N563 1.373 . S
C562 H590 0.930 . S
N563 C562 1.373 . S
N563 C565 1.340 . S
N564 C561 1.368 . S
N564 C565 1.321 . S
N564 Co567 2.135 . S
C565 N563 1.340 . S
C565 N564 1.321 . S
C565 H589 0.930 . S
H566 C561 0.931 . S
Co567 N564 2.135 . S
Co567 N570 2.121 . S
Co567 O575 2.055 . S
Co567 O578 2.039 . S
Co567 N581 2.140 . S
C568 O569 1.227 . S
C568 O578 1.265 . S
O569 C568 1.227 . S
N570 Co567 2.121 . S
N570 C572 1.375 . S
N570 C573 1.313 . S
C571 C572 1.338 . S
C571 N574 1.377 . S
C571 H591 0.930 . S
C572 N570 1.375 . S
C572 C571 1.338 . S
C572 H576 0.931 . S
C573 N570 1.313 . S
C573 N574 1.344 . S
C573 H577 0.930 . S
N574 C571 1.377 . S
N574 C573 1.344 . S
O575 Co567 2.055 . S
O575 C579 1.253 . S
H576 C572 0.931 . S
H577 C573 0.930 . S
O578 Co567 2.039 . S
O578 C568 1.265 . S
C579 O575 1.253 . S
C579 O580 1.227 . S
O580 C579 1.227 . S
N581 Co567 2.140 . S
N581 C584 1.346 . S
N581 C585 1.345 . S
C582 C583 1.387 . S
C582 C586 1.391 . S
C583 C582 1.387 . S
C583 C584 1.369 . S
C583 H592 0.929 . S
C584 N581 1.346 . S
C584 C583 1.369 . S
C584 H587 0.928 . S
C585 N581 1.345 . S
C585 C586 1.371 . S
C585 H588 0.931 . S
C586 C582 1.391 . S
C586 C585 1.371 . S
C586 H593 0.930 . S
H587 C584 0.928 . S
H588 C585 0.931 . S
H589 C565 0.930 . S
H590 C562 0.930 . S
H591 C571 0.930 . S
H592 C583 0.929 . S
H593 C586 0.930 . S
C594 C595 1.351 . S
C594 N597 1.368 . S
C594 H599 0.931 . S
C595 C594 1.351 . S
C595 N596 1.373 . S
C595 H623 0.930 . S
N596 C595 1.373 . S
N596 C598 1.340 . S
N597 C594 1.368 . S
N597 C598 1.321 . S
N597 Co600 2.135 . S
C598 N596 1.340 . S
C598 N597 1.321 . S
C598 H622 0.930 . S
H599 C594 0.931 . S
Co600 N597 2.135 . S
Co600 N603 2.121 . S
Co600 O608 2.055 . S
Co600 O611 2.039 . S
Co600 N614 2.140 . S
C601 O602 1.227 . S
C601 O611 1.265 . S
O602 C601 1.227 . S
N603 Co600 2.121 . S
N603 C605 1.375 . S
N603 C606 1.313 . S
C604 C605 1.338 . S
C604 N607 1.377 . S
C604 H624 0.930 . S
C605 N603 1.375 . S
C605 C604 1.338 . S
C605 H609 0.931 . S
C606 N603 1.313 . S
C606 N607 1.344 . S
C606 H610 0.930 . S
N607 C604 1.377 . S
N607 C606 1.344 . S
O608 Co600 2.055 . S
O608 C612 1.253 . S
H609 C605 0.931 . S
H610 C606 0.930 . S
O611 Co600 2.039 . S
O611 C601 1.265 . S
C612 O608 1.253 . S
C612 O613 1.227 . S
O613 C612 1.227 . S
N614 Co600 2.140 . S
N614 C617 1.346 . S
N614 C618 1.345 . S
C615 C616 1.387 . S
C615 C619 1.391 . S
C616 C615 1.387 . S
C616 C617 1.369 . S
C616 H625 0.929 . S
C617 N614 1.346 . S
C617 C616 1.369 . S
C617 H620 0.928 . S
C618 N614 1.345 . S
C618 C619 1.371 . S
C618 H621 0.931 . S
C619 C615 1.391 . S
C619 C618 1.371 . S
C619 H626 0.930 . S
H620 C617 0.928 . S
H621 C618 0.931 . S
H622 C598 0.930 . S
H623 C595 0.930 . S
H624 C604 0.930 . S
H625 C616 0.929 . S
H626 C619 0.930 . S
C627 C628 1.351 . S
C627 N630 1.368 . S
C627 H632 0.931 . S
C628 C627 1.351 . S
C628 N629 1.373 . S
C628 H656 0.930 . S
N629 C628 1.373 . S
N629 C631 1.340 . S
N630 C627 1.368 . S
N630 C631 1.321 . S
N630 Co633 2.135 . S
C631 N629 1.340 . S
C631 N630 1.321 . S
C631 H655 0.930 . S
H632 C627 0.931 . S
Co633 N630 2.135 . S
Co633 N636 2.121 . S
Co633 O641 2.055 . S
Co633 O644 2.039 . S
Co633 N647 2.140 . S
C634 O635 1.227 . S
C634 O644 1.265 . S
O635 C634 1.227 . S
N636 Co633 2.121 . S
N636 C638 1.375 . S
N636 C639 1.313 . S
C637 C638 1.338 . S
C637 N640 1.377 . S
C637 H657 0.930 . S
C638 N636 1.375 . S
C638 C637 1.338 . S
C638 H642 0.931 . S
C639 N636 1.313 . S
C639 N640 1.344 . S
C639 H643 0.930 . S
N640 C637 1.377 . S
N640 C639 1.344 . S
O641 Co633 2.055 . S
O641 C645 1.253 . S
H642 C638 0.931 . S
H643 C639 0.930 . S
O644 Co633 2.039 . S
O644 C634 1.265 . S
C645 O641 1.253 . S
C645 O646 1.227 . S
O646 C645 1.227 . S
N647 Co633 2.140 . S
N647 C650 1.346 . S
N647 C651 1.345 . S
C648 C649 1.387 . S
C648 C652 1.391 . S
C649 C648 1.387 . S
C649 C650 1.369 . S
C649 H658 0.929 . S
C650 N647 1.346 . S
C650 C649 1.369 . S
C650 H653 0.928 . S
C651 N647 1.345 . S
C651 C652 1.371 . S
C651 H654 0.931 . S
C652 C648 1.391 . S
C652 C651 1.371 . S
C652 H659 0.930 . S
H653 C650 0.928 . S
H654 C651 0.931 . S
H655 C631 0.930 . S
H656 C628 0.930 . S
H657 C637 0.930 . S
H658 C649 0.929 . S
H659 C652 0.930 . S
C660 C661 1.351 . S
C660 N663 1.368 . S
C660 H665 0.931 . S
C661 C660 1.351 . S
C661 N662 1.373 . S
C661 H689 0.930 . S
N662 C661 1.373 . S
N662 C664 1.340 . S
N663 C660 1.368 . S
N663 C664 1.321 . S
N663 Co666 2.135 . S
C664 N662 1.340 . S
C664 N663 1.321 . S
C664 H688 0.930 . S
H665 C660 0.931 . S
Co666 N663 2.135 . S
Co666 N669 2.121 . S
Co666 O674 2.055 . S
Co666 O677 2.039 . S
Co666 N680 2.140 . S
C667 O668 1.227 . S
C667 O677 1.265 . S
O668 C667 1.227 . S
N669 Co666 2.121 . S
N669 C671 1.375 . S
N669 C672 1.313 . S
C670 C671 1.338 . S
C670 N673 1.377 . S
C670 H690 0.930 . S
C671 N669 1.375 . S
C671 C670 1.338 . S
C671 H675 0.931 . S
C672 N669 1.313 . S
C672 N673 1.344 . S
C672 H676 0.930 . S
N673 C670 1.377 . S
N673 C672 1.344 . S
O674 Co666 2.055 . S
O674 C678 1.253 . S
H675 C671 0.931 . S
H676 C672 0.930 . S
O677 Co666 2.039 . S
O677 C667 1.265 . S
C678 O674 1.253 . S
C678 O679 1.227 . S
O679 C678 1.227 . S
N680 Co666 2.140 . S
N680 C683 1.346 . S
N680 C684 1.345 . S
C681 C682 1.387 . S
C681 C685 1.391 . S
C682 C681 1.387 . S
C682 C683 1.369 . S
C682 H691 0.929 . S
C683 N680 1.346 . S
C683 C682 1.369 . S
C683 H686 0.928 . S
C684 N680 1.345 . S
C684 C685 1.371 . S
C684 H687 0.931 . S
C685 C681 1.391 . S
C685 C684 1.371 . S
C685 H692 0.930 . S
H686 C683 0.928 . S
H687 C684 0.931 . S
H688 C664 0.930 . S
H689 C661 0.930 . S
H690 C670 0.930 . S
H691 C682 0.929 . S
H692 C685 0.930 . S
C693 C694 1.351 . S
C693 N696 1.368 . S
C693 H698 0.931 . S
C694 C693 1.351 . S
C694 N695 1.373 . S
C694 H722 0.930 . S
N695 C694 1.373 . S
N695 C697 1.340 . S
N696 C693 1.368 . S
N696 C697 1.321 . S
N696 Co699 2.135 . S
C697 N695 1.340 . S
C697 N696 1.321 . S
C697 H721 0.930 . S
H698 C693 0.931 . S
Co699 N696 2.135 . S
Co699 N702 2.121 . S
Co699 O707 2.055 . S
Co699 O710 2.039 . S
Co699 N713 2.140 . S
C700 O701 1.227 . S
C700 O710 1.265 . S
O701 C700 1.227 . S
N702 Co699 2.121 . S
N702 C704 1.375 . S
N702 C705 1.313 . S
C703 C704 1.338 . S
C703 N706 1.377 . S
C703 H723 0.930 . S
C704 N702 1.375 . S
C704 C703 1.338 . S
C704 H708 0.931 . S
C705 N702 1.313 . S
C705 N706 1.344 . S
C705 H709 0.930 . S
N706 C703 1.377 . S
N706 C705 1.344 . S
O707 Co699 2.055 . S
O707 C711 1.253 . S
H708 C704 0.931 . S
H709 C705 0.930 . S
O710 Co699 2.039 . S
O710 C700 1.265 . S
C711 O707 1.253 . S
C711 O712 1.227 . S
O712 C711 1.227 . S
N713 Co699 2.140 . S
N713 C716 1.346 . S
N713 C717 1.345 . S
C714 C715 1.387 . S
C714 C718 1.391 . S
C715 C714 1.387 . S
C715 C716 1.369 . S
C715 H724 0.929 . S
C716 N713 1.346 . S
C716 C715 1.369 . S
C716 H719 0.928 . S
C717 N713 1.345 . S
C717 C718 1.371 . S
C717 H720 0.931 . S
C718 C714 1.391 . S
C718 C717 1.371 . S
C718 H725 0.930 . S
H719 C716 0.928 . S
H720 C717 0.931 . S
H721 C697 0.930 . S
H722 C694 0.930 . S
H723 C703 0.930 . S
H724 C715 0.929 . S
H725 C718 0.930 . S
C726 C727 1.351 . S
C726 N729 1.368 . S
C726 H731 0.931 . S
C727 C726 1.351 . S
C727 N728 1.373 . S
C727 H755 0.930 . S
N728 C727 1.373 . S
N728 C730 1.340 . S
N729 C726 1.368 . S
N729 C730 1.321 . S
N729 Co732 2.135 . S
C730 N728 1.340 . S
C730 N729 1.321 . S
C730 H754 0.930 . S
H731 C726 0.931 . S
Co732 N729 2.135 . S
Co732 N735 2.121 . S
Co732 O740 2.055 . S
Co732 O743 2.039 . S
Co732 N746 2.140 . S
C733 O734 1.227 . S
C733 O743 1.265 . S
O734 C733 1.227 . S
N735 Co732 2.121 . S
N735 C737 1.375 . S
N735 C738 1.313 . S
C736 C737 1.338 . S
C736 N739 1.377 . S
C736 H756 0.930 . S
C737 N735 1.375 . S
C737 C736 1.338 . S
C737 H741 0.931 . S
C738 N735 1.313 . S
C738 N739 1.344 . S
C738 H742 0.930 . S
N739 C736 1.377 . S
N739 C738 1.344 . S
O740 Co732 2.055 . S
O740 C744 1.253 . S
H741 C737 0.931 . S
H742 C738 0.930 . S
O743 Co732 2.039 . S
O743 C733 1.265 . S
C744 O740 1.253 . S
C744 O745 1.227 . S
O745 C744 1.227 . S
N746 Co732 2.140 . S
N746 C749 1.346 . S
N746 C750 1.345 . S
C747 C748 1.387 . S
C747 C751 1.391 . S
C748 C747 1.387 . S
C748 C749 1.369 . S
C748 H757 0.929 . S
C749 N746 1.346 . S
C749 C748 1.369 . S
C749 H752 0.928 . S
C750 N746 1.345 . S
C750 C751 1.371 . S
C750 H753 0.931 . S
C751 C747 1.391 . S
C751 C750 1.371 . S
C751 H758 0.930 . S
H752 C749 0.928 . S
H753 C750 0.931 . S
H754 C730 0.930 . S
H755 C727 0.930 . S
H756 C736 0.930 . S
H757 C748 0.929 . S
H758 C751 0.930 . S
C759 C760 1.351 . S
C759 N762 1.368 . S
C759 H764 0.931 . S
C760 C759 1.351 . S
C760 N761 1.373 . S
C760 H788 0.930 . S
N761 C760 1.373 . S
N761 C763 1.340 . S
N762 C759 1.368 . S
N762 C763 1.321 . S
N762 Co765 2.135 . S
C763 N761 1.340 . S
C763 N762 1.321 . S
C763 H787 0.930 . S
H764 C759 0.931 . S
Co765 N762 2.135 . S
Co765 N768 2.121 . S
Co765 O773 2.055 . S
Co765 O776 2.039 . S
Co765 N779 2.140 . S
C766 O767 1.227 . S
C766 O776 1.265 . S
O767 C766 1.227 . S
N768 Co765 2.121 . S
N768 C770 1.375 . S
N768 C771 1.313 . S
C769 C770 1.338 . S
C769 N772 1.377 . S
C769 H789 0.930 . S
C770 N768 1.375 . S
C770 C769 1.338 . S
C770 H774 0.931 . S
C771 N768 1.313 . S
C771 N772 1.344 . S
C771 H775 0.930 . S
N772 C769 1.377 . S
N772 C771 1.344 . S
O773 Co765 2.055 . S
O773 C777 1.253 . S
H774 C770 0.931 . S
H775 C771 0.930 . S
O776 Co765 2.039 . S
O776 C766 1.265 . S
C777 O773 1.253 . S
C777 O778 1.227 . S
O778 C777 1.227 . S
N779 Co765 2.140 . S
N779 C782 1.346 . S
N779 C783 1.345 . S
C780 C781 1.387 . S
C780 C784 1.391 . S
C781 C780 1.387 . S
C781 C782 1.369 . S
C781 H790 0.929 . S
C782 N779 1.346 . S
C782 C781 1.369 . S
C782 H785 0.928 . S
C783 N779 1.345 . S
C783 C784 1.371 . S
C783 H786 0.931 . S
C784 C780 1.391 . S
C784 C783 1.371 . S
C784 H791 0.930 . S
H785 C782 0.928 . S
H786 C783 0.931 . S
H787 C763 0.930 . S
H788 C760 0.930 . S
H789 C769 0.930 . S
H790 C781 0.929 . S
H791 C784 0.930 . S
H792 C800 0.929 . S
H793 C802 0.930 . S
H794 C804 0.930 . S
H795 C807 0.929 . S
H796 C810 0.930 . S
H797 C812 0.960 . S
H798 C812 0.960 . S
H799 C812 0.960 . S
C800 H792 0.929 . S
C800 C801 1.377 . S
C800 C802 1.384 . S
C801 C800 1.377 . S
C801 C807 1.390 . S
C802 H793 0.930 . S
C802 C800 1.384 . S
C802 C803 1.372 . S
C803 C802 1.372 . S
C803 C804 1.400 . S
C803 C808 1.490 . S
C804 H794 0.930 . S
C804 C803 1.400 . S
C804 C807 1.386 . S
H805 C821 0.930 . S
H806 C822 0.931 . S
C807 H795 0.929 . S
C807 C801 1.390 . S
C807 C804 1.386 . S
C808 C803 1.490 . S
C808 C810 1.395 . S
C808 C811 1.403 . S
H809 C815 0.930 . S
C810 H796 0.930 . S
C810 C808 1.395 . S
C810 C813 1.403 . S
C811 C808 1.403 . S
C811 C812 1.524 . S
C811 C815 1.400 . S
C812 H797 0.960 . S
C812 H798 0.960 . S
C812 H799 0.960 . S
C812 C811 1.524 . S
C813 C810 1.403 . S
C813 C814 1.392 . S
C813 C817 1.495 . S
C814 C813 1.392 . S
C814 C815 1.385 . S
C814 C816 1.478 . S
C815 H809 0.930 . S
C815 C811 1.400 . S
C815 C814 1.385 . S
C816 C814 1.478 . S
C816 C818 1.381 . S
C816 C822 1.383 . S
C817 C813 1.495 . S
C817 H823 0.959 . S
C817 H824 0.961 . S
C817 H825 0.960 . S
C818 C816 1.381 . S
C818 C819 1.394 . S
C818 H826 0.930 . S
C819 C818 1.394 . S
C819 C820 1.383 . S
C819 H827 0.929 . S
C820 C819 1.383 . S
C820 C821 1.377 . S
C821 H805 0.930 . S
C821 C820 1.377 . S
C821 C822 1.379 . S
C822 H806 0.931 . S
C822 C816 1.383 . S
C822 C821 1.379 . S
H823 C817 0.959 . S
H824 C817 0.961 . S
H825 C817 0.960 . S
H826 C818 0.930 . S
H827 C819 0.929 . S
H828 C836 0.929 . S
H829 C838 0.930 . S
H830 C840 0.930 . S
H831 C843 0.929 . S
H832 C846 0.930 . S
H833 C848 0.960 . S
H834 C848 0.960 . S
H835 C848 0.960 . S
C836 H828 0.929 . S
C836 C837 1.377 . S
C836 C838 1.384 . S
C837 C836 1.377 . S
C837 C843 1.390 . S
C838 H829 0.930 . S
C838 C836 1.384 . S
C838 C839 1.372 . S
C839 C838 1.372 . S
C839 C840 1.400 . S
C839 C844 1.490 . S
C840 H830 0.930 . S
C840 C839 1.400 . S
C840 C843 1.386 . S
H841 C857 0.930 . S
H842 C858 0.931 . S
C843 H831 0.929 . S
C843 C837 1.390 . S
C843 C840 1.386 . S
C844 C839 1.490 . S
C844 C846 1.395 . S
C844 C847 1.403 . S
H845 C851 0.930 . S
C846 H832 0.930 . S
C846 C844 1.395 . S
C846 C849 1.403 . S
C847 C844 1.403 . S
C847 C848 1.524 . S
C847 C851 1.400 . S
C848 H833 0.960 . S
C848 H834 0.960 . S
C848 H835 0.960 . S
C848 C847 1.524 . S
C849 C846 1.403 . S
C849 C850 1.392 . S
C849 C853 1.495 . S
C850 C849 1.392 . S
C850 C851 1.385 . S
C850 C852 1.478 . S
C851 H845 0.930 . S
C851 C847 1.400 . S
C851 C850 1.385 . S
C852 C850 1.478 . S
C852 C854 1.381 . S
C852 C858 1.383 . S
C853 C849 1.495 . S
C853 H859 0.959 . S
C853 H860 0.961 . S
C853 H861 0.960 . S
C854 C852 1.381 . S
C854 C855 1.394 . S
C854 H862 0.930 . S
C855 C854 1.394 . S
C855 C856 1.383 . S
C855 H863 0.929 . S
C856 C855 1.383 . S
C856 C857 1.377 . S
C857 H841 0.930 . S
C857 C856 1.377 . S
C857 C858 1.379 . S
C858 H842 0.931 . S
C858 C852 1.383 . S
C858 C857 1.379 . S
H859 C853 0.959 . S
H860 C853 0.961 . S
H861 C853 0.960 . S
H862 C854 0.930 . S
H863 C855 0.929 . S
H864 C872 0.929 . S
H865 C874 0.930 . S
H866 C876 0.930 . S
H867 C879 0.929 . S
H868 C882 0.930 . S
H869 C884 0.960 . S
H870 C884 0.960 . S
H871 C884 0.960 . S
C872 H864 0.929 . S
C872 C873 1.377 . S
C872 C874 1.384 . S
C873 C872 1.377 . S
C873 C879 1.390 . S
C874 H865 0.930 . S
C874 C872 1.384 . S
C874 C875 1.372 . S
C875 C874 1.372 . S
C875 C876 1.400 . S
C875 C880 1.490 . S
C876 H866 0.930 . S
C876 C875 1.400 . S
C876 C879 1.386 . S
H877 C893 0.930 . S
H878 C894 0.931 . S
C879 H867 0.929 . S
C879 C873 1.390 . S
C879 C876 1.386 . S
C880 C875 1.490 . S
C880 C882 1.395 . S
C880 C883 1.403 . S
H881 C887 0.930 . S
C882 H868 0.930 . S
C882 C880 1.395 . S
C882 C885 1.403 . S
C883 C880 1.403 . S
C883 C884 1.524 . S
C883 C887 1.400 . S
C884 H869 0.960 . S
C884 H870 0.960 . S
C884 H871 0.960 . S
C884 C883 1.524 . S
C885 C882 1.403 . S
C885 C886 1.392 . S
C885 C889 1.495 . S
C886 C885 1.392 . S
C886 C887 1.385 . S
C886 C888 1.478 . S
C887 H881 0.930 . S
C887 C883 1.400 . S
C887 C886 1.385 . S
C888 C886 1.478 . S
C888 C890 1.381 . S
C888 C894 1.383 . S
C889 C885 1.495 . S
C889 H895 0.959 . S
C889 H896 0.961 . S
C889 H897 0.960 . S
C890 C888 1.381 . S
C890 C891 1.394 . S
C890 H898 0.930 . S
C891 C890 1.394 . S
C891 C892 1.383 . S
C891 H899 0.929 . S
C892 C891 1.383 . S
C892 C893 1.377 1_556 S
C893 H877 0.930 . S
C893 C892 1.377 1_554 S
C893 C894 1.379 1_554 S
C894 H878 0.931 . S
C894 C888 1.383 . S
C894 C893 1.379 1_556 S
H895 C889 0.959 . S
H896 C889 0.961 . S
H897 C889 0.960 . S
H898 C890 0.930 . S
H899 C891 0.929 . S
H900 C908 0.929 . S
H901 C910 0.930 . S
H902 C912 0.930 . S
H903 C915 0.929 . S
H904 C918 0.930 . S
H905 C920 0.960 . S
H906 C920 0.960 . S
H907 C920 0.960 . S
C908 H900 0.929 . S
C908 C909 1.377 . S
C908 C910 1.384 . S
C909 C908 1.377 . S
C909 C915 1.390 . S
C910 H901 0.930 . S
C910 C908 1.384 . S
C910 C911 1.372 . S
C911 C910 1.372 . S
C911 C912 1.400 . S
C911 C916 1.490 . S
C912 H902 0.930 . S
C912 C911 1.400 . S
C912 C915 1.386 . S
H913 C929 0.930 . S
H914 C930 0.931 . S
C915 H903 0.929 . S
C915 C909 1.390 . S
C915 C912 1.386 . S
C916 C911 1.490 . S
C916 C918 1.395 . S
C916 C919 1.403 . S
H917 C923 0.930 . S
C918 H904 0.930 . S
C918 C916 1.395 . S
C918 C921 1.403 . S
C919 C916 1.403 . S
C919 C920 1.524 . S
C919 C923 1.400 . S
C920 H905 0.960 . S
C920 H906 0.960 . S
C920 H907 0.960 . S
C920 C919 1.524 . S
C921 C918 1.403 . S
C921 C922 1.392 . S
C921 C925 1.495 . S
C922 C921 1.392 . S
C922 C923 1.385 . S
C922 C924 1.478 . S
C923 H917 0.930 . S
C923 C919 1.400 . S
C923 C922 1.385 . S
C924 C922 1.478 . S
C924 C926 1.381 . S
C924 C930 1.383 . S
C925 C921 1.495 . S
C925 H931 0.959 . S
C925 H932 0.961 . S
C925 H933 0.960 . S
C926 C924 1.381 . S
C926 C927 1.394 . S
C926 H934 0.930 . S
C927 C926 1.394 . S
C927 C928 1.383 . S
C927 H935 0.929 . S
C928 C927 1.383 . S
C928 C929 1.377 . S
C929 H913 0.930 . S
C929 C928 1.377 . S
C929 C930 1.379 . S
C930 H914 0.931 . S
C930 C924 1.383 . S
C930 C929 1.379 . S
H931 C925 0.959 . S
H932 C925 0.961 . S
H933 C925 0.960 . S
H934 C926 0.930 . S
H935 C927 0.929 . S
H936 C944 0.929 . S
H937 C946 0.930 . S
H938 C948 0.930 . S
H939 C951 0.929 . S
H940 C954 0.930 . S
H941 C956 0.960 . S
H942 C956 0.960 . S
H943 C956 0.960 . S
C944 H936 0.929 . S
C944 C945 1.377 . S
C944 C946 1.384 . S
C945 C944 1.377 . S
C945 C951 1.390 . S
C946 H937 0.930 . S
C946 C944 1.384 . S
C946 C947 1.372 . S
C947 C946 1.372 . S
C947 C948 1.400 . S
C947 C952 1.490 . S
C948 H938 0.930 . S
C948 C947 1.400 . S
C948 C951 1.386 . S
H949 C965 0.930 . S
H950 C966 0.931 . S
C951 H939 0.929 . S
C951 C945 1.390 . S
C951 C948 1.386 . S
C952 C947 1.490 . S
C952 C954 1.395 . S
C952 C955 1.403 . S
H953 C959 0.930 . S
C954 H940 0.930 . S
C954 C952 1.395 . S
C954 C957 1.403 . S
C955 C952 1.403 . S
C955 C956 1.524 . S
C955 C959 1.400 . S
C956 H941 0.960 . S
C956 H942 0.960 . S
C956 H943 0.960 . S
C956 C955 1.524 . S
C957 C954 1.403 . S
C957 C958 1.392 . S
C957 C961 1.495 . S
C958 C957 1.392 . S
C958 C959 1.385 . S
C958 C960 1.478 . S
C959 H953 0.930 . S
C959 C955 1.400 . S
C959 C958 1.385 . S
C960 C958 1.478 . S
C960 C962 1.381 . S
C960 C966 1.383 . S
C961 C957 1.495 . S
C961 H967 0.959 . S
C961 H968 0.961 . S
C961 H969 0.960 . S
C962 C960 1.381 . S
C962 C963 1.394 . S
C962 H970 0.930 . S
C963 C962 1.394 . S
C963 C964 1.383 . S
C963 H971 0.929 . S
C964 C963 1.383 . S
C964 C965 1.377 . S
C965 H949 0.930 . S
C965 C964 1.377 . S
C965 C966 1.379 . S
C966 H950 0.931 . S
C966 C960 1.383 . S
C966 C965 1.379 . S
H967 C961 0.959 . S
H968 C961 0.961 . S
H969 C961 0.960 . S
H970 C962 0.930 . S
H971 C963 0.929 . S
H972 C980 0.929 . S
H973 C982 0.930 1_565 S
H974 C984 0.930 . S
H975 C987 0.929 . S
H976 C990 0.930 . S
H977 C992 0.960 . S
H978 C992 0.960 . S
H979 C992 0.960 1_545 S
C980 H972 0.929 . S
C980 C981 1.377 . S
C980 C982 1.384 . S
C981 C980 1.377 . S
C981 C987 1.390 . S
C982 H973 0.930 1_545 S
C982 C980 1.384 . S
C982 C983 1.372 . S
C983 C982 1.372 . S
C983 C984 1.400 . S
C983 C988 1.490 1_545 S
C984 H974 0.930 . S
C984 C983 1.400 . S
C984 C987 1.386 . S
H985 C1001 0.930 . S
H986 C1002 0.931 . S
C987 H975 0.929 . S
C987 C981 1.390 . S
C987 C984 1.386 . S
C988 C983 1.490 1_565 S
C988 C990 1.395 . S
C988 C991 1.403 . S
H989 C995 0.930 . S
C990 H976 0.930 . S
C990 C988 1.395 . S
C990 C993 1.403 . S
C991 C988 1.403 . S
C991 C992 1.524 . S
C991 C995 1.400 . S
C992 H977 0.960 . S
C992 H978 0.960 . S
C992 H979 0.960 1_565 S
C992 C991 1.524 . S
C993 C990 1.403 . S
C993 C994 1.392 . S
C993 C997 1.495 . S
C994 C993 1.392 . S
C994 C995 1.385 . S
C994 C996 1.478 . S
C995 H989 0.930 . S
C995 C991 1.400 . S
C995 C994 1.385 . S
C996 C994 1.478 . S
C996 C998 1.381 . S
C996 C1002 1.383 . S
C997 C993 1.495 . S
C997 H1003 0.959 . S
C997 H1004 0.961 . S
C997 H1005 0.960 . S
C998 C996 1.381 . S
C998 C999 1.394 . S
C998 H1006 0.930 . S
C999 C998 1.394 . S
C999 C1000 1.383 . S
C999 H1007 0.929 . S
C1000 C999 1.383 . S
C1000 C1001 1.377 . S
C1001 H985 0.930 . S
C1001 C1000 1.377 . S
C1001 C1002 1.379 . S
C1002 H986 0.931 . S
C1002 C996 1.383 . S
C1002 C1001 1.379 . S
H1003 C997 0.959 . S
H1004 C997 0.961 . S
H1005 C997 0.960 . S
H1006 C998 0.930 . S
H1007 C999 0.929 . S
H1008 C1016 0.929 . S
H1009 C1018 0.930 . S
H1010 C1020 0.930 . S
H1011 C1023 0.929 . S
H1012 C1026 0.930 . S
H1013 C1028 0.960 . S
H1014 C1028 0.960 . S
H1015 C1028 0.960 . S
C1016 H1008 0.929 . S
C1016 C1017 1.377 . S
C1016 C1018 1.384 . S
C1017 C1016 1.377 . S
C1017 C1023 1.390 . S
C1018 H1009 0.930 . S
C1018 C1016 1.384 . S
C1018 C1019 1.372 . S
C1019 C1018 1.372 . S
C1019 C1020 1.400 . S
C1019 C1024 1.490 . S
C1020 H1010 0.930 . S
C1020 C1019 1.400 . S
C1020 C1023 1.386 . S
H1021 C1037 0.930 . S
H1022 C1038 0.906 1_556 S
C1023 H1011 0.929 . S
C1023 C1017 1.390 . S
C1023 C1020 1.386 . S
C1024 C1019 1.490 . S
C1024 C1026 1.395 . S
C1024 C1027 1.403 . S
H1025 C1031 0.930 . S
C1026 H1012 0.930 . S
C1026 C1024 1.395 . S
C1026 C1029 1.403 . S
C1027 C1024 1.403 . S
C1027 C1028 1.524 . S
C1027 C1031 1.400 . S
C1028 H1013 0.960 . S
C1028 H1014 0.960 . S
C1028 H1015 0.960 . S
C1028 C1027 1.524 . S
C1029 C1026 1.403 . S
C1029 C1030 1.392 . S
C1029 C1033 1.495 . S
C1030 C1029 1.392 . S
C1030 C1031 1.385 . S
C1030 C1032 1.478 . S
C1031 H1025 0.930 . S
C1031 C1027 1.400 . S
C1031 C1030 1.385 . S
C1032 C1030 1.478 . S
C1032 C1034 1.381 . S
C1032 C1038 1.383 . S
C1033 C1029 1.495 . S
C1033 H1039 0.959 . S
C1033 H1040 0.961 . S
C1033 H1041 0.960 . S
C1034 C1032 1.381 . S
C1034 C1035 1.394 . S
C1034 H1042 0.930 . S
C1035 C1034 1.394 . S
C1035 C1036 1.383 . S
C1035 H1043 0.929 . S
C1036 C1035 1.383 . S
C1036 C1037 1.377 1_554 S
C1037 H1021 0.930 . S
C1037 C1036 1.377 1_556 S
C1037 C1038 1.379 1_556 S
C1038 H1022 0.906 1_554 S
C1038 C1032 1.383 . S
C1038 C1037 1.379 1_554 S
H1039 C1033 0.959 . S
H1040 C1033 0.961 . S
H1041 C1033 0.960 . S
H1042 C1034 0.930 . S
H1043 C1035 0.929 . S
H1044 C1052 0.929 . S
H1045 C1054 0.930 . S
H1046 C1056 0.930 . S
H1047 C1059 0.929 . S
H1048 C1062 0.943 . S
H1049 C1064 0.960 . S
H1050 C1064 0.960 . S
H1051 C1064 0.960 . S
C1052 H1044 0.929 . S
C1052 C1053 1.377 . S
C1052 C1054 1.384 . S
C1053 C1052 1.377 . S
C1053 C1059 1.390 . S
C1054 H1045 0.930 . S
C1054 C1052 1.384 . S
C1054 C1055 1.372 . S
C1055 C1054 1.372 . S
C1055 C1056 1.400 . S
C1055 C1060 1.490 1_565 S
C1056 H1046 0.930 . S
C1056 C1055 1.400 . S
C1056 C1059 1.386 . S
H1057 C1073 0.930 . S
H1058 C1074 0.931 . S
C1059 H1047 0.929 . S
C1059 C1053 1.390 . S
C1059 C1056 1.386 . S
C1060 C1055 1.490 1_545 S
C1060 C1062 1.395 . S
C1060 C1063 1.403 . S
H1061 C1067 0.930 . S
C1062 H1048 0.943 . S
C1062 C1060 1.395 . S
C1062 C1065 1.403 . S
C1063 C1060 1.403 . S
C1063 C1064 1.524 . S
C1063 C1067 1.400 . S
C1064 H1049 0.960 . S
C1064 H1050 0.960 . S
C1064 H1051 0.960 . S
C1064 C1063 1.524 . S
C1065 C1062 1.403 . S
C1065 C1066 1.392 . S
C1065 C1069 1.495 . S
C1066 C1065 1.392 . S
C1066 C1067 1.385 . S
C1066 C1068 1.478 . S
C1067 H1061 0.930 . S
C1067 C1063 1.400 . S
C1067 C1066 1.385 . S
C1068 C1066 1.478 . S
C1068 C1070 1.381 . S
C1068 C1074 1.383 . S
C1069 C1065 1.495 . S
C1069 H1075 0.959 . S
C1069 H1076 0.961 . S
C1069 H1077 0.960 . S
C1070 C1068 1.381 . S
C1070 C1071 1.394 . S
C1070 H1078 0.930 . S
C1071 C1070 1.394 . S
C1071 C1072 1.383 . S
C1071 H1079 0.929 . S
C1072 C1071 1.383 . S
C1072 C1073 1.377 . S
C1073 H1057 0.930 . S
C1073 C1072 1.377 . S
C1073 C1074 1.379 . S
C1074 H1058 0.931 . S
C1074 C1068 1.383 . S
C1074 C1073 1.379 . S
H1075 C1069 0.959 . S
H1076 C1069 0.961 . S
H1077 C1069 0.960 . S
H1078 C1070 0.930 . S
H1079 C1071 0.929 . S
H1080 C1088 0.929 . S
H1081 C1090 0.930 . S
H1082 C1092 0.930 . S
H1083 C1095 0.929 . S
H1084 C1098 0.930 . S
H1085 C1100 0.960 . S
H1086 C1100 0.960 . S
H1087 C1100 0.960 . S
C1088 H1080 0.929 . S
C1088 C1089 1.377 . S
C1088 C1090 1.384 . S
C1089 C1088 1.377 . S
C1089 C1095 1.390 . S
C1090 H1081 0.930 . S
C1090 C1088 1.384 . S
C1090 C1091 1.372 . S
C1091 C1090 1.372 . S
C1091 C1092 1.400 . S
C1091 C1096 1.490 . S
C1092 H1082 0.930 . S
C1092 C1091 1.400 . S
C1092 C1095 1.386 . S
H1093 C1109 0.930 . S
H1094 C1110 0.931 . S
C1095 H1083 0.929 . S
C1095 C1089 1.390 . S
C1095 C1092 1.386 . S
C1096 C1091 1.490 . S
C1096 C1098 1.395 . S
C1096 C1099 1.403 . S
H1097 C1103 0.930 . S
C1098 H1084 0.930 . S
C1098 C1096 1.395 . S
C1098 C1101 1.403 . S
C1099 C1096 1.403 . S
C1099 C1100 1.524 . S
C1099 C1103 1.400 . S
C1100 H1085 0.960 . S
C1100 H1086 0.960 . S
C1100 H1087 0.960 . S
C1100 C1099 1.524 . S
C1101 C1098 1.403 . S
C1101 C1102 1.392 . S
C1101 C1105 1.495 . S
C1102 C1101 1.392 . S
C1102 C1103 1.385 . S
C1102 C1104 1.478 . S
C1103 H1097 0.930 . S
C1103 C1099 1.400 . S
C1103 C1102 1.385 . S
C1104 C1102 1.478 . S
C1104 C1106 1.381 . S
C1104 C1110 1.383 . S
C1105 C1101 1.495 . S
C1105 H1111 0.959 . S
C1105 H1112 0.961 . S
C1105 H1113 0.960 . S
C1106 C1104 1.381 . S
C1106 C1107 1.394 . S
C1106 H1114 0.930 . S
C1107 C1106 1.394 . S
C1107 C1108 1.383 . S
C1107 H1115 0.929 . S
C1108 C1107 1.383 . S
C1108 C1109 1.377 . S
C1109 H1093 0.930 . S
C1109 C1108 1.377 . S
C1109 C1110 1.379 . S
C1110 H1094 0.931 . S
C1110 C1104 1.383 . S
C1110 C1109 1.379 . S
H1111 C1105 0.959 . S
H1112 C1105 0.961 . S
H1113 C1105 0.960 . S
H1114 C1106 0.930 . S
H1115 C1107 0.929 . S
H1116 C1124 0.929 . S
H1117 C1126 0.930 . S
H1118 C1128 0.930 . S
H1119 C1131 0.929 . S
H1120 C1134 0.930 . S
H1121 C1136 0.960 . S
H1122 C1136 0.960 . S
H1123 C1136 0.960 . S
C1124 H1116 0.929 . S
C1124 C1125 1.377 . S
C1124 C1126 1.384 . S
C1125 C1124 1.377 . S
C1125 C1131 1.390 . S
C1126 H1117 0.930 . S
C1126 C1124 1.384 . S
C1126 C1127 1.372 . S
C1127 C1126 1.372 . S
C1127 C1128 1.400 . S
C1127 C1132 1.490 . S
C1128 H1118 0.930 . S
C1128 C1127 1.400 . S
C1128 C1131 1.386 . S
H1129 C1145 0.930 . S
H1130 C1146 0.931 . S
C1131 H1119 0.929 . S
C1131 C1125 1.390 . S
C1131 C1128 1.386 . S
C1132 C1127 1.490 . S
C1132 C1134 1.395 . S
C1132 C1135 1.403 . S
H1133 C1139 0.930 . S
C1134 H1120 0.930 . S
C1134 C1132 1.395 . S
C1134 C1137 1.403 . S
C1135 C1132 1.403 . S
C1135 C1136 1.524 . S
C1135 C1139 1.400 . S
C1136 H1121 0.960 . S
C1136 H1122 0.960 . S
C1136 H1123 0.960 . S
C1136 C1135 1.524 . S
C1137 C1134 1.403 . S
C1137 C1138 1.392 . S
C1137 C1141 1.495 . S
C1138 C1137 1.392 . S
C1138 C1139 1.385 . S
C1138 C1140 1.478 . S
C1139 H1133 0.930 . S
C1139 C1135 1.400 . S
C1139 C1138 1.385 . S
C1140 C1138 1.478 . S
C1140 C1142 1.381 . S
C1140 C1146 1.383 . S
C1141 C1137 1.495 . S
C1141 H1147 0.959 . S
C1141 H1148 0.961 . S
C1141 H1149 0.960 . S
C1142 C1140 1.381 . S
C1142 C1143 1.394 . S
C1142 H1150 0.930 . S
C1143 C1142 1.394 . S
C1143 C1144 1.383 . S
C1143 H1151 0.929 . S
C1144 C1143 1.383 . S
C1144 C1145 1.377 . S
C1145 H1129 0.930 . S
C1145 C1144 1.377 . S
C1145 C1146 1.379 . S
C1146 H1130 0.931 . S
C1146 C1140 1.383 . S
C1146 C1145 1.379 . S
H1147 C1141 0.959 . S
H1148 C1141 0.961 . S
H1149 C1141 0.960 . S
H1150 C1142 0.930 . S
H1151 C1143 0.929 . S
H1152 C1160 0.929 . S
H1153 C1162 0.930 . S
H1154 C1164 0.930 . S
H1155 C1167 0.929 . S
H1156 C1170 0.930 . S
H1157 C1172 0.960 . S
H1158 C1172 0.960 . S
H1159 C1172 0.960 . S
C1160 H1152 0.929 . S
C1160 C1161 1.377 . S
C1160 C1162 1.384 . S
C1161 C1160 1.377 . S
C1161 C1167 1.390 . S
C1162 H1153 0.930 . S
C1162 C1160 1.384 . S
C1162 C1163 1.372 . S
C1163 C1162 1.372 . S
C1163 C1164 1.400 . S
C1163 C1168 1.490 . S
C1164 H1154 0.930 . S
C1164 C1163 1.400 . S
C1164 C1167 1.386 . S
H1165 C1181 0.930 . S
H1166 C1182 0.949 . S
C1167 H1155 0.929 . S
C1167 C1161 1.390 . S
C1167 C1164 1.386 . S
C1168 C1163 1.490 . S
C1168 C1170 1.395 . S
C1168 C1171 1.403 . S
H1169 C1175 0.930 . S
C1170 H1156 0.930 . S
C1170 C1168 1.395 . S
C1170 C1173 1.403 . S
C1171 C1168 1.403 . S
C1171 C1172 1.524 . S
C1171 C1175 1.400 . S
C1172 H1157 0.960 . S
C1172 H1158 0.960 . S
C1172 H1159 0.960 . S
C1172 C1171 1.524 . S
C1173 C1170 1.403 . S
C1173 C1174 1.392 . S
C1173 C1177 1.495 . S
C1174 C1173 1.392 . S
C1174 C1175 1.385 . S
C1174 C1176 1.478 . S
C1175 H1169 0.930 . S
C1175 C1171 1.400 . S
C1175 C1174 1.385 . S
C1176 C1174 1.478 . S
C1176 C1178 1.381 . S
C1176 C1182 1.383 . S
C1177 C1173 1.495 . S
C1177 H1183 0.959 . S
C1177 H1184 0.961 . S
C1177 H1185 0.960 . S
C1178 C1176 1.381 . S
C1178 C1179 1.394 . S
C1178 H1186 0.930 . S
C1179 C1178 1.394 . S
C1179 C1180 1.383 . S
C1179 H1187 0.929 . S
C1180 C1179 1.383 . S
C1180 C1181 1.377 1_455 S
C1181 H1165 0.930 . S
C1181 C1180 1.377 1_655 S
C1181 C1182 1.379 1_655 S
C1182 H1166 0.949 . S
C1182 C1176 1.383 . S
C1182 C1181 1.379 1_455 S
H1183 C1177 0.959 . S
H1184 C1177 0.961 . S
H1185 C1177 0.960 . S
H1186 C1178 0.930 . S
H1187 C1179 0.929 . S
H1188 C1196 0.929 . S
H1189 C1198 0.930 . S
H1190 C1200 0.930 1_655 S
H1191 C1203 0.929 . S
H1192 C1206 0.901 1_455 S
H1193 C1208 0.960 . S
H1194 C1208 0.960 . S
H1195 C1208 0.960 . S
C1196 H1188 0.929 . S
C1196 C1197 1.377 . S
C1196 C1198 1.384 . S
C1197 C1196 1.377 . S
C1197 C1203 1.390 . S
C1198 H1189 0.930 . S
C1198 C1196 1.384 . S
C1198 C1199 1.372 . S
C1199 C1198 1.372 . S
C1199 C1200 1.400 . S
C1199 C1204 1.490 1_455 S
C1200 H1190 0.930 1_455 S
C1200 C1199 1.400 . S
C1200 C1203 1.386 . S
H1201 C1217 0.930 . S
H1202 C1218 0.931 . S
C1203 H1191 0.929 . S
C1203 C1197 1.390 . S
C1203 C1200 1.386 . S
C1204 C1199 1.490 1_655 S
C1204 C1206 1.395 . S
C1204 C1207 1.403 . S
H1205 C1211 0.930 . S
C1206 H1192 0.901 1_655 S
C1206 C1204 1.395 . S
C1206 C1209 1.403 . S
C1207 C1204 1.403 . S
C1207 C1208 1.524 . S
C1207 C1211 1.400 . S
C1208 H1193 0.960 . S
C1208 H1194 0.960 . S
C1208 H1195 0.960 . S
C1208 C1207 1.524 . S
C1209 C1206 1.403 . S
C1209 C1210 1.392 . S
C1209 C1213 1.495 . S
C1210 C1209 1.392 . S
C1210 C1211 1.385 . S
C1210 C1212 1.478 . S
C1211 H1205 0.930 . S
C1211 C1207 1.400 . S
C1211 C1210 1.385 . S
C1212 C1210 1.478 . S
C1212 C1214 1.381 . S
C1212 C1218 1.383 . S
C1213 C1209 1.495 . S
C1213 H1219 0.959 . S
C1213 H1220 0.961 . S
C1213 H1221 0.960 . S
C1214 C1212 1.381 . S
C1214 C1215 1.394 . S
C1214 H1222 0.930 . S
C1215 C1214 1.394 . S
C1215 C1216 1.383 . S
C1215 H1223 0.929 . S
C1216 C1215 1.383 . S
C1216 C1217 1.377 . S
C1217 H1201 0.930 . S
C1217 C1216 1.377 . S
C1217 C1218 1.379 . S
C1218 H1202 0.931 . S
C1218 C1212 1.383 . S
C1218 C1217 1.379 . S
H1219 C1213 0.959 . S
H1220 C1213 0.961 . S
H1221 C1213 0.960 . S
H1222 C1214 0.930 . S
H1223 C1215 0.929 . S
H1224 C1232 0.929 . S
H1225 C1234 0.930 . S
H1226 C1236 0.930 . S
H1227 C1239 0.929 . S
H1228 C1242 0.930 . S
H1229 C1244 0.960 . S
H1230 C1244 0.960 . S
H1231 C1244 0.960 1_455 S
C1232 H1224 0.929 . S
C1232 C1233 1.377 . S
C1232 C1234 1.384 . S
C1233 C1232 1.377 . S
C1233 C1239 1.390 1_655 S
C1234 H1225 0.930 . S
C1234 C1232 1.384 . S
C1234 C1235 1.372 . S
C1235 C1234 1.372 . S
C1235 C1236 1.400 . S
C1235 C1240 1.490 . S
C1236 H1226 0.930 . S
C1236 C1235 1.400 . S
C1236 C1239 1.386 1_655 S
H1237 C1253 0.930 . S
H1238 C1254 0.931 . S
C1239 H1227 0.929 . S
C1239 C1233 1.390 1_455 S
C1239 C1236 1.386 1_455 S
C1240 C1235 1.490 . S
C1240 C1242 1.395 . S
C1240 C1243 1.403 . S
H1241 C1247 0.930 . S
C1242 H1228 0.930 . S
C1242 C1240 1.395 . S
C1242 C1245 1.403 . S
C1243 C1240 1.403 . S
C1243 C1244 1.524 . S
C1243 C1247 1.400 . S
C1244 H1229 0.960 . S
C1244 H1230 0.960 . S
C1244 H1231 0.960 1_655 S
C1244 C1243 1.524 . S
C1245 C1242 1.403 . S
C1245 C1246 1.392 . S
C1245 C1249 1.495 . S
C1246 C1245 1.392 . S
C1246 C1247 1.385 . S
C1246 C1248 1.478 . S
C1247 H1241 0.930 . S
C1247 C1243 1.400 . S
C1247 C1246 1.385 . S
C1248 C1246 1.478 . S
C1248 C1250 1.381 . S
C1248 C1254 1.383 . S
C1249 C1245 1.495 . S
C1249 H1255 0.959 . S
C1249 H1256 0.961 . S
C1249 H1257 0.960 . S
C1250 C1248 1.381 . S
C1250 C1251 1.394 . S
C1250 H1258 0.930 . S
C1251 C1250 1.394 . S
C1251 C1252 1.383 . S
C1251 H1259 0.929 . S
C1252 C1251 1.383 . S
C1252 C1253 1.377 . S
C1253 H1237 0.930 . S
C1253 C1252 1.377 . S
C1253 C1254 1.379 . S
C1254 H1238 0.931 . S
C1254 C1248 1.383 . S
C1254 C1253 1.379 . S
H1255 C1249 0.959 . S
H1256 C1249 0.961 . S
H1257 C1249 0.960 . S
H1258 C1250 0.930 . S
H1259 C1251 0.929 . S
H1260 C1268 0.929 . S
H1261 C1270 0.930 . S
H1262 C1272 0.930 . S
H1263 C1275 0.929 . S
H1264 C1278 0.930 . S
H1265 C1280 0.960 . S
H1266 C1280 0.960 . S
H1267 C1280 0.960 . S
C1268 H1260 0.929 . S
C1268 C1269 1.377 . S
C1268 C1270 1.384 . S
C1269 C1268 1.377 . S
C1269 C1275 1.390 . S
C1270 H1261 0.930 . S
C1270 C1268 1.384 . S
C1270 C1271 1.372 . S
C1271 C1270 1.372 . S
C1271 C1272 1.400 . S
C1271 C1276 1.490 . S
C1272 H1262 0.930 . S
C1272 C1271 1.400 . S
C1272 C1275 1.386 . S
H1273 C1289 0.930 . S
H1274 C1290 0.931 . S
C1275 H1263 0.929 . S
C1275 C1269 1.390 . S
C1275 C1272 1.386 . S
C1276 C1271 1.490 . S
C1276 C1278 1.395 . S
C1276 C1279 1.403 . S
H1277 C1283 0.930 . S
C1278 H1264 0.930 . S
C1278 C1276 1.395 . S
C1278 C1281 1.403 . S
C1279 C1276 1.403 . S
C1279 C1280 1.524 . S
C1279 C1283 1.400 . S
C1280 H1265 0.960 . S
C1280 H1266 0.960 . S
C1280 H1267 0.960 . S
C1280 C1279 1.524 . S
C1281 C1278 1.403 . S
C1281 C1282 1.392 . S
C1281 C1285 1.495 . S
C1282 C1281 1.392 . S
C1282 C1283 1.385 . S
C1282 C1284 1.478 . S
C1283 H1277 0.930 . S
C1283 C1279 1.400 . S
C1283 C1282 1.385 . S
C1284 C1282 1.478 . S
C1284 C1286 1.381 . S
C1284 C1290 1.383 . S
C1285 C1281 1.495 . S
C1285 H1291 0.959 . S
C1285 H1292 0.961 . S
C1285 H1293 0.960 . S
C1286 C1284 1.381 . S
C1286 C1287 1.394 . S
C1286 H1294 0.930 . S
C1287 C1286 1.394 . S
C1287 C1288 1.383 . S
C1287 H1295 0.929 . S
C1288 C1287 1.383 . S
C1288 C1289 1.377 . S
C1289 H1273 0.930 . S
C1289 C1288 1.377 . S
C1289 C1290 1.379 . S
C1290 H1274 0.931 . S
C1290 C1284 1.383 . S
C1290 C1289 1.379 . S
H1291 C1285 0.959 . S
H1292 C1285 0.961 . S
H1293 C1285 0.960 . S
H1294 C1286 0.930 . S
H1295 C1287 0.929 . S
H1296 C1304 0.929 . S
H1297 C1306 0.930 . S
H1298 C1308 0.930 . S
H1299 C1311 0.929 . S
H1300 C1314 0.930 . S
H1301 C1316 0.960 . S
H1302 C1316 0.960 . S
H1303 C1316 0.960 . S
C1304 H1296 0.929 . S
C1304 C1305 1.377 . S
C1304 C1306 1.384 . S
C1305 C1304 1.377 . S
C1305 C1311 1.390 . S
C1306 H1297 0.930 . S
C1306 C1304 1.384 . S
C1306 C1307 1.372 . S
C1307 C1306 1.372 . S
C1307 C1308 1.400 . S
C1307 C1312 1.490 . S
C1308 H1298 0.930 . S
C1308 C1307 1.400 . S
C1308 C1311 1.386 . S
H1309 C1325 0.930 . S
H1310 C1326 0.931 . S
C1311 H1299 0.929 . S
C1311 C1305 1.390 . S
C1311 C1308 1.386 . S
C1312 C1307 1.490 . S
C1312 C1314 1.395 . S
C1312 C1315 1.403 . S
H1313 C1319 0.930 . S
C1314 H1300 0.930 . S
C1314 C1312 1.395 . S
C1314 C1317 1.403 . S
C1315 C1312 1.403 . S
C1315 C1316 1.524 . S
C1315 C1319 1.400 . S
C1316 H1301 0.960 . S
C1316 H1302 0.960 . S
C1316 H1303 0.960 . S
C1316 C1315 1.524 . S
C1317 C1314 1.403 . S
C1317 C1318 1.392 . S
C1317 C1321 1.495 . S
C1318 C1317 1.392 . S
C1318 C1319 1.385 . S
C1318 C1320 1.478 . S
C1319 H1313 0.930 . S
C1319 C1315 1.400 . S
C1319 C1318 1.385 . S
C1320 C1318 1.478 . S
C1320 C1322 1.381 . S
C1320 C1326 1.383 . S
C1321 C1317 1.495 . S
C1321 H1327 0.959 . S
C1321 H1328 0.961 . S
C1321 H1329 0.960 . S
C1322 C1320 1.381 . S
C1322 C1323 1.394 . S
C1322 H1330 0.930 . S
C1323 C1322 1.394 . S
C1323 C1324 1.383 . S
C1323 H1331 0.929 . S
C1324 C1323 1.383 . S
C1324 C1325 1.377 . S
C1325 H1309 0.930 . S
C1325 C1324 1.377 . S
C1325 C1326 1.379 . S
C1326 H1310 0.931 . S
C1326 C1320 1.383 . S
C1326 C1325 1.379 . S
H1327 C1321 0.959 . S
H1328 C1321 0.961 . S
H1329 C1321 0.960 . S
H1330 C1322 0.930 . S
H1331 C1323 0.929 . S
H1332 C1340 0.929 . S
H1333 C1342 0.930 . S
H1334 C1344 0.930 . S
H1335 C1347 0.929 . S
H1336 C1350 0.930 . S
H1337 C1352 0.960 . S
H1338 C1352 0.960 . S
H1339 C1352 0.960 . S
C1340 H1332 0.929 . S
C1340 C1341 1.377 . S
C1340 C1342 1.384 . S
C1341 C1340 1.377 . S
C1341 C1347 1.390 . S
C1342 H1333 0.930 . S
C1342 C1340 1.384 . S
C1342 C1343 1.372 . S
C1343 C1342 1.372 . S
C1343 C1344 1.400 . S
C1343 C1348 1.490 1_655 S
C1344 H1334 0.930 . S
C1344 C1343 1.400 . S
C1344 C1347 1.386 . S
H1345 C1361 0.930 . S
H1346 C1362 0.931 . S
C1347 H1335 0.929 . S
C1347 C1341 1.390 . S
C1347 C1344 1.386 . S
C1348 C1343 1.490 1_455 S
C1348 C1350 1.395 . S
C1348 C1351 1.403 . S
H1349 C1355 0.930 . S
C1350 H1336 0.930 . S
C1350 C1348 1.395 . S
C1350 C1353 1.403 . S
C1351 C1348 1.403 . S
C1351 C1352 1.524 1_455 S
C1351 C1355 1.400 . S
C1352 H1337 0.960 . S
C1352 H1338 0.960 . S
C1352 H1339 0.960 . S
C1352 C1351 1.524 1_655 S
C1353 C1350 1.403 . S
C1353 C1354 1.392 . S
C1353 C1357 1.495 . S
C1354 C1353 1.392 . S
C1354 C1355 1.385 . S
C1354 C1356 1.478 . S
C1355 H1349 0.930 . S
C1355 C1351 1.400 . S
C1355 C1354 1.385 . S
C1356 C1354 1.478 . S
C1356 C1358 1.381 . S
C1356 C1362 1.383 . S
C1357 C1353 1.495 . S
C1357 H1363 0.959 . S
C1357 H1364 0.961 . S
C1357 H1365 0.960 . S
C1358 C1356 1.381 . S
C1358 C1359 1.394 . S
C1358 H1366 0.930 . S
C1359 C1358 1.394 . S
C1359 C1360 1.383 . S
C1359 H1367 0.929 . S
C1360 C1359 1.383 . S
C1360 C1361 1.377 . S
C1361 H1345 0.930 . S
C1361 C1360 1.377 . S
C1361 C1362 1.379 . S
C1362 H1346 0.931 . S
C1362 C1356 1.383 . S
C1362 C1361 1.379 . S
H1363 C1357 0.959 . S
H1364 C1357 0.961 . S
H1365 C1357 0.960 . S
H1366 C1358 0.930 . S
H1367 C1359 0.929 . S
H1368 C1376 0.929 . S
H1369 C1378 0.930 . S
H1370 C1380 0.930 . S
H1371 C1383 0.929 . S
H1372 C1386 0.930 . S
H1373 C1388 0.960 . S
H1374 C1388 0.960 . S
H1375 C1388 0.960 . S
C1376 H1368 0.929 . S
C1376 C1377 1.377 . S
C1376 C1378 1.384 . S
C1377 C1376 1.377 . S
C1377 C1383 1.390 . S
C1378 H1369 0.930 . S
C1378 C1376 1.384 . S
C1378 C1379 1.372 . S
C1379 C1378 1.372 . S
C1379 C1380 1.400 . S
C1379 C1384 1.490 . S
C1380 H1370 0.930 . S
C1380 C1379 1.400 . S
C1380 C1383 1.386 . S
H1381 C1397 0.930 . S
H1382 C1398 0.931 . S
C1383 H1371 0.929 . S
C1383 C1377 1.390 . S
C1383 C1380 1.386 . S
C1384 C1379 1.490 . S
C1384 C1386 1.395 . S
C1384 C1387 1.403 . S
H1385 C1391 0.930 . S
C1386 H1372 0.930 . S
C1386 C1384 1.395 . S
C1386 C1389 1.403 . S
C1387 C1384 1.403 . S
C1387 C1388 1.524 . S
C1387 C1391 1.400 . S
C1388 H1373 0.960 . S
C1388 H1374 0.960 . S
C1388 H1375 0.960 . S
C1388 C1387 1.524 . S
C1389 C1386 1.403 . S
C1389 C1390 1.392 . S
C1389 C1393 1.495 . S
C1390 C1389 1.392 . S
C1390 C1391 1.385 . S
C1390 C1392 1.478 . S
C1391 H1385 0.930 . S
C1391 C1387 1.400 . S
C1391 C1390 1.385 . S
C1392 C1390 1.478 . S
C1392 C1394 1.381 . S
C1392 C1398 1.383 . S
C1393 C1389 1.495 . S
C1393 H1399 0.959 . S
C1393 H1400 0.961 . S
C1393 H1401 0.960 . S
C1394 C1392 1.381 . S
C1394 C1395 1.394 . S
C1394 H1402 0.930 . S
C1395 C1394 1.394 . S
C1395 C1396 1.383 . S
C1395 H1403 0.929 . S
C1396 C1395 1.383 . S
C1396 C1397 1.377 . S
C1397 H1381 0.930 . S
C1397 C1396 1.377 . S
C1397 C1398 1.379 . S
C1398 H1382 0.931 . S
C1398 C1392 1.383 . S
C1398 C1397 1.379 . S
H1399 C1393 0.959 . S
H1400 C1393 0.961 . S
H1401 C1393 0.960 . S
H1402 C1394 0.930 . S
H1403 C1395 0.929 . S
H1404 C1412 0.929 . S
H1405 C1414 0.930 . S
H1406 C1416 0.930 . S
H1407 C1419 0.929 . S
H1408 C1422 0.930 . S
H1409 C1424 0.960 . S
H1410 C1424 0.960 . S
H1411 C1424 0.960 . S
C1412 H1404 0.929 . S
C1412 C1413 1.377 . S
C1412 C1414 1.384 . S
C1413 C1412 1.377 . S
C1413 C1419 1.390 . S
C1414 H1405 0.930 . S
C1414 C1412 1.384 . S
C1414 C1415 1.372 . S
C1415 C1414 1.372 . S
C1415 C1416 1.400 . S
C1415 C1420 1.490 . S
C1416 H1406 0.930 . S
C1416 C1415 1.400 . S
C1416 C1419 1.386 . S
H1417 C1433 0.899 1_565 S
H1418 C1434 0.931 . S
C1419 H1407 0.929 . S
C1419 C1413 1.390 . S
C1419 C1416 1.386 . S
C1420 C1415 1.490 . S
C1420 C1422 1.395 . S
C1420 C1423 1.403 . S
H1421 C1427 0.930 . S
C1422 H1408 0.930 . S
C1422 C1420 1.395 . S
C1422 C1425 1.403 . S
C1423 C1420 1.403 . S
C1423 C1424 1.524 . S
C1423 C1427 1.400 . S
C1424 H1409 0.960 . S
C1424 H1410 0.960 . S
C1424 H1411 0.960 . S
C1424 C1423 1.524 . S
C1425 C1422 1.403 . S
C1425 C1426 1.392 . S
C1425 C1429 1.495 . S
C1426 C1425 1.392 . S
C1426 C1427 1.385 . S
C1426 C1428 1.478 . S
C1427 H1421 0.930 . S
C1427 C1423 1.400 . S
C1427 C1426 1.385 . S
C1428 C1426 1.478 . S
C1428 C1430 1.381 . S
C1428 C1434 1.383 . S
C1429 C1425 1.495 . S
C1429 H1435 0.959 . S
C1429 H1436 0.961 . S
C1429 H1437 0.960 . S
C1430 C1428 1.381 . S
C1430 C1431 1.394 . S
C1430 H1438 0.930 . S
C1431 C1430 1.394 . S
C1431 C1432 1.383 . S
C1431 H1439 0.929 . S
C1432 C1431 1.383 . S
C1432 C1433 1.384 . S
C1433 H1417 0.899 1_545 S
C1433 C1432 1.384 . S
C1433 C1434 1.405 . S
C1434 H1418 0.931 . S
C1434 C1428 1.383 . S
C1434 C1433 1.405 . S
H1435 C1429 0.959 . S
H1436 C1429 0.961 . S
H1437 C1429 0.960 . S
H1438 C1430 0.930 . S
H1439 C1431 0.929 . S
H1440 C1448 0.929 . S
H1441 C1450 0.930 . S
H1442 C1452 0.930 . S
H1443 C1455 0.929 . S
H1444 C1458 0.930 . S
H1445 C1460 0.960 . S
H1446 C1460 0.960 . S
H1447 C1460 0.960 . S
C1448 H1440 0.929 . S
C1448 C1449 1.377 . S
C1448 C1450 1.384 . S
C1449 C1448 1.377 . S
C1449 C1455 1.390 . S
C1450 H1441 0.930 . S
C1450 C1448 1.384 . S
C1450 C1451 1.372 . S
C1451 C1450 1.372 . S
C1451 C1452 1.400 . S
C1451 C1456 1.490 . S
C1452 H1442 0.930 . S
C1452 C1451 1.400 . S
C1452 C1455 1.386 . S
H1453 C1469 0.930 . S
H1454 C1470 0.931 . S
C1455 H1443 0.929 . S
C1455 C1449 1.390 . S
C1455 C1452 1.386 . S
C1456 C1451 1.490 . S
C1456 C1458 1.395 . S
C1456 C1459 1.403 . S
H1457 C1463 0.930 . S
C1458 H1444 0.930 . S
C1458 C1456 1.395 . S
C1458 C1461 1.403 . S
C1459 C1456 1.403 . S
C1459 C1460 1.524 . S
C1459 C1463 1.400 . S
C1460 H1445 0.960 . S
C1460 H1446 0.960 . S
C1460 H1447 0.960 . S
C1460 C1459 1.524 . S
C1461 C1458 1.403 . S
C1461 C1462 1.392 . S
C1461 C1465 1.495 . S
C1462 C1461 1.392 . S
C1462 C1463 1.385 . S
C1462 C1464 1.478 . S
C1463 H1457 0.930 . S
C1463 C1459 1.400 . S
C1463 C1462 1.385 . S
C1464 C1462 1.478 . S
C1464 C1466 1.381 . S
C1464 C1470 1.383 . S
C1465 C1461 1.495 . S
C1465 H1471 0.959 . S
C1465 H1472 0.961 . S
C1465 H1473 0.960 . S
C1466 C1464 1.381 . S
C1466 C1467 1.394 . S
C1466 H1474 0.930 . S
C1467 C1466 1.394 . S
C1467 C1468 1.383 . S
C1467 H1475 0.929 . S
C1468 C1467 1.383 . S
C1468 C1469 1.377 . S
C1469 H1453 0.930 . S
C1469 C1468 1.377 . S
C1469 C1470 1.379 . S
C1470 H1454 0.931 . S
C1470 C1464 1.383 . S
C1470 C1469 1.379 . S
H1471 C1465 0.959 . S
H1472 C1465 0.961 . S
H1473 C1465 0.960 . S
H1474 C1466 0.930 . S
H1475 C1467 0.929 . S
H1476 C1484 0.929 1_545 S
H1477 C1486 0.930 . S
H1478 C1488 0.930 . S
H1479 C1491 0.929 . S
H1480 C1494 0.930 . S
H1481 C1496 0.960 . S
H1482 C1496 0.960 . S
H1483 C1496 0.960 . S
C1484 H1476 0.929 1_565 S
C1484 C1485 1.377 . S
C1484 C1486 1.384 . S
C1485 C1484 1.377 . S
C1485 C1491 1.390 . S
C1486 H1477 0.930 . S
C1486 C1484 1.384 . S
C1486 C1487 1.372 . S
C1487 C1486 1.372 . S
C1487 C1488 1.400 . S
C1487 C1492 1.490 . S
C1488 H1478 0.930 . S
C1488 C1487 1.400 . S
C1488 C1491 1.386 . S
H1489 C1505 0.930 . S
H1490 C1506 0.931 . S
C1491 H1479 0.929 . S
C1491 C1485 1.390 . S
C1491 C1488 1.386 . S
C1492 C1487 1.490 . S
C1492 C1494 1.395 . S
C1492 C1495 1.403 . S
H1493 C1499 0.930 . S
C1494 H1480 0.930 . S
C1494 C1492 1.395 . S
C1494 C1497 1.403 . S
C1495 C1492 1.403 . S
C1495 C1496 1.524 . S
C1495 C1499 1.400 . S
C1496 H1481 0.960 . S
C1496 H1482 0.960 . S
C1496 H1483 0.960 . S
C1496 C1495 1.524 . S
C1497 C1494 1.403 . S
C1497 C1498 1.392 . S
C1497 C1501 1.495 . S
C1498 C1497 1.392 . S
C1498 C1499 1.385 . S
C1498 C1500 1.478 . S
C1499 H1493 0.930 . S
C1499 C1495 1.400 . S
C1499 C1498 1.385 . S
C1500 C1498 1.478 . S
C1500 C1502 1.381 . S
C1500 C1506 1.383 . S
C1501 C1497 1.495 . S
C1501 H1507 0.959 . S
C1501 H1508 0.961 . S
C1501 H1509 0.960 . S
C1502 C1500 1.381 . S
C1502 C1503 1.394 . S
C1502 H1510 0.930 . S
C1503 C1502 1.394 . S
C1503 C1504 1.383 . S
C1503 H1511 0.929 . S
C1504 C1503 1.383 . S
C1504 C1505 1.377 . S
C1505 H1489 0.930 . S
C1505 C1504 1.377 . S
C1505 C1506 1.379 . S
C1506 H1490 0.931 . S
C1506 C1500 1.383 . S
C1506 C1505 1.379 . S
H1507 C1501 0.959 . S
H1508 C1501 0.961 . S
H1509 C1501 0.960 . S
H1510 C1502 0.930 . S
H1511 C1503 0.929 . S
H1512 C1520 0.929 . S
H1513 C1522 0.930 . S
H1514 C1524 0.930 . S
H1515 C1527 0.929 . S
H1516 C1530 0.930 . S
H1517 C1532 0.960 . S
H1518 C1532 0.960 . S
H1519 C1532 0.960 . S
C1520 H1512 0.929 . S
C1520 C1521 1.377 . S
C1520 C1522 1.384 . S
C1521 C1520 1.377 . S
C1521 C1527 1.390 . S
C1522 H1513 0.930 . S
C1522 C1520 1.384 . S
C1522 C1523 1.372 . S
C1523 C1522 1.372 . S
C1523 C1524 1.400 . S
C1523 C1528 1.490 . S
C1524 H1514 0.930 . S
C1524 C1523 1.400 . S
C1524 C1527 1.386 . S
H1525 C1541 0.930 . S
H1526 C1542 0.931 . S
C1527 H1515 0.929 . S
C1527 C1521 1.390 . S
C1527 C1524 1.386 . S
C1528 C1523 1.490 . S
C1528 C1530 1.395 . S
C1528 C1531 1.403 . S
H1529 C1535 0.930 . S
C1530 H1516 0.930 . S
C1530 C1528 1.395 . S
C1530 C1533 1.403 . S
C1531 C1528 1.403 . S
C1531 C1532 1.524 . S
C1531 C1535 1.400 . S
C1532 H1517 0.960 . S
C1532 H1518 0.960 . S
C1532 H1519 0.960 . S
C1532 C1531 1.524 . S
C1533 C1530 1.403 . S
C1533 C1534 1.392 . S
C1533 C1537 1.495 1_554 S
C1534 C1533 1.392 . S
C1534 C1535 1.385 . S
C1534 C1536 1.478 1_554 S
C1535 H1529 0.930 . S
C1535 C1531 1.400 . S
C1535 C1534 1.385 . S
C1536 C1534 1.478 1_556 S
C1536 C1538 1.381 . S
C1536 C1542 1.383 . S
C1537 C1533 1.495 1_556 S
C1537 H1543 0.959 . S
C1537 H1544 0.961 . S
C1537 H1545 0.960 . S
C1538 C1536 1.381 . S
C1538 C1539 1.394 . S
C1538 H1546 0.930 . S
C1539 C1538 1.394 . S
C1539 C1540 1.383 . S
C1539 H1547 0.929 . S
C1540 C1539 1.383 . S
C1540 C1541 1.377 . S
C1541 H1525 0.930 . S
C1541 C1540 1.377 . S
C1541 C1542 1.379 . S
C1542 H1526 0.931 . S
C1542 C1536 1.383 . S
C1542 C1541 1.379 . S
H1543 C1537 0.959 . S
H1544 C1537 0.961 . S
H1545 C1537 0.960 . S
H1546 C1538 0.930 . S
H1547 C1539 0.929 . S
H1548 C1556 0.929 . S
H1549 C1558 0.930 . S
H1550 C1560 0.930 . S
H1551 C1563 0.929 . S
H1552 C1566 0.930 . S
H1553 C1568 0.960 . S
H1554 C1568 0.960 . S
H1555 C1568 0.960 . S
C1556 H1548 0.929 . S
C1556 C1557 1.377 . S
C1556 C1558 1.384 . S
C1557 C1556 1.377 . S
C1557 C1563 1.390 . S
C1558 H1549 0.930 . S
C1558 C1556 1.384 . S
C1558 C1559 1.372 . S
C1559 C1558 1.372 . S
C1559 C1560 1.400 . S
C1559 C1564 1.490 . S
C1560 H1550 0.930 . S
C1560 C1559 1.400 . S
C1560 C1563 1.386 . S
H1561 C1577 0.930 . S
H1562 C1578 0.931 . S
C1563 H1551 0.929 . S
C1563 C1557 1.390 . S
C1563 C1560 1.386 . S
C1564 C1559 1.490 . S
C1564 C1566 1.395 . S
C1564 C1567 1.403 . S
H1565 C1571 0.930 . S
C1566 H1552 0.930 . S
C1566 C1564 1.395 . S
C1566 C1569 1.403 . S
C1567 C1564 1.403 . S
C1567 C1568 1.524 . S
C1567 C1571 1.400 . S
C1568 H1553 0.960 . S
C1568 H1554 0.960 . S
C1568 H1555 0.960 . S
C1568 C1567 1.524 . S
C1569 C1566 1.403 . S
C1569 C1570 1.392 . S
C1569 C1573 1.495 . S
C1570 C1569 1.392 . S
C1570 C1571 1.385 . S
C1570 C1572 1.478 . S
C1571 H1565 0.930 . S
C1571 C1567 1.400 . S
C1571 C1570 1.385 . S
C1572 C1570 1.478 . S
C1572 C1574 1.381 . S
C1572 C1578 1.383 . S
C1573 C1569 1.495 . S
C1573 H1579 0.959 . S
C1573 H1580 0.961 . S
C1573 H1581 0.960 . S
C1574 C1572 1.381 . S
C1574 C1575 1.394 . S
C1574 H1582 0.930 . S
C1575 C1574 1.394 . S
C1575 C1576 1.383 . S
C1575 H1583 0.929 . S
C1576 C1575 1.383 . S
C1576 C1577 1.377 . S
C1577 H1561 0.930 . S
C1577 C1576 1.377 . S
C1577 C1578 1.379 . S
C1578 H1562 0.931 . S
C1578 C1572 1.383 . S
C1578 C1577 1.379 . S
H1579 C1573 0.959 . S
H1580 C1573 0.961 . S
H1581 C1573 0.960 . S
H1582 C1574 0.930 . S
H1583 C1575 0.929 . S
H1584 C1592 0.929 . S
H1585 C1594 0.930 . S
H1586 C1596 0.930 . S
H1587 C1599 0.929 . S
H1588 C1602 0.930 . S
H1589 C1604 0.960 . S
H1590 C1604 0.960 . S
H1591 C1604 0.960 . S
C1592 H1584 0.929 . S
C1592 C1593 1.377 . S
C1592 C1594 1.384 . S
C1593 C1592 1.377 . S
C1593 C1599 1.390 . S
C1594 H1585 0.930 . S
C1594 C1592 1.384 . S
C1594 C1595 1.372 . S
C1595 C1594 1.372 . S
C1595 C1596 1.400 . S
C1595 C1600 1.490 . S
C1596 H1586 0.930 . S
C1596 C1595 1.400 . S
C1596 C1599 1.386 . S
H1597 C1613 0.930 . S
H1598 C1614 0.931 . S
C1599 H1587 0.929 . S
C1599 C1593 1.390 . S
C1599 C1596 1.386 . S
C1600 C1595 1.490 . S
C1600 C1602 1.395 . S
C1600 C1603 1.403 . S
H1601 C1607 0.930 . S
C1602 H1588 0.930 . S
C1602 C1600 1.395 . S
C1602 C1605 1.403 . S
C1603 C1600 1.403 . S
C1603 C1604 1.524 . S
C1603 C1607 1.400 . S
C1604 H1589 0.960 . S
C1604 H1590 0.960 . S
C1604 H1591 0.960 . S
C1604 C1603 1.524 . S
C1605 C1602 1.403 . S
C1605 C1606 1.392 . S
C1605 C1609 1.495 . S
C1606 C1605 1.392 . S
C1606 C1607 1.385 . S
C1606 C1608 1.478 . S
C1607 H1601 0.930 . S
C1607 C1603 1.400 . S
C1607 C1606 1.385 . S
C1608 C1606 1.478 . S
C1608 C1610 1.381 . S
C1608 C1614 1.383 . S
C1609 C1605 1.495 . S
C1609 H1615 0.959 . S
C1609 H1616 0.961 . S
C1609 H1617 0.960 . S
C1610 C1608 1.381 . S
C1610 C1611 1.394 . S
C1610 H1618 0.930 . S
C1611 C1610 1.394 . S
C1611 C1612 1.383 . S
C1611 H1619 0.929 . S
C1612 C1611 1.383 . S
C1612 C1613 1.377 . S
C1613 H1597 0.930 . S
C1613 C1612 1.377 . S
C1613 C1614 1.379 . S
C1614 H1598 0.931 . S
C1614 C1608 1.383 . S
C1614 C1613 1.379 . S
H1615 C1609 0.959 . S
H1616 C1609 0.961 . S
H1617 C1609 0.960 . S
H1618 C1610 0.930 . S
H1619 C1611 0.929 . S
H1620 C1628 0.929 . S
H1621 C1630 0.930 . S
H1622 C1632 0.930 1_556 S
H1623 C1635 0.929 . S
H1624 C1638 0.930 1_554 S
H1625 C1640 0.960 . S
H1626 C1640 0.960 . S
H1627 C1640 0.960 . S
C1628 H1620 0.929 . S
C1628 C1629 1.377 . S
C1628 C1630 1.384 . S
C1629 C1628 1.377 . S
C1629 C1635 1.390 . S
C1630 H1621 0.930 . S
C1630 C1628 1.384 . S
C1630 C1631 1.372 . S
C1631 C1630 1.372 . S
C1631 C1632 1.400 . S
C1631 C1636 1.490 1_554 S
C1632 H1622 0.930 1_554 S
C1632 C1631 1.400 . S
C1632 C1635 1.386 . S
H1633 C1649 0.930 . S
H1634 C1650 0.931 . S
C1635 H1623 0.929 . S
C1635 C1629 1.390 . S
C1635 C1632 1.386 . S
C1636 C1631 1.490 1_556 S
C1636 C1638 1.395 . S
C1636 C1639 1.403 . S
H1637 C1643 0.930 . S
C1638 H1624 0.930 1_556 S
C1638 C1636 1.395 . S
C1638 C1641 1.403 . S
C1639 C1636 1.403 . S
C1639 C1640 1.524 . S
C1639 C1643 1.400 . S
C1640 H1625 0.960 . S
C1640 H1626 0.960 . S
C1640 H1627 0.960 . S
C1640 C1639 1.524 . S
C1641 C1638 1.403 . S
C1641 C1642 1.392 . S
C1641 C1645 1.495 . S
C1642 C1641 1.392 . S
C1642 C1643 1.385 . S
C1642 C1644 1.478 . S
C1643 H1637 0.930 . S
C1643 C1639 1.400 . S
C1643 C1642 1.385 . S
C1644 C1642 1.478 . S
C1644 C1646 1.381 . S
C1644 C1650 1.383 . S
C1645 C1641 1.495 . S
C1645 H1651 0.959 . S
C1645 H1652 0.961 . S
C1645 H1653 0.960 . S
C1646 C1644 1.381 . S
C1646 C1647 1.394 . S
C1646 H1654 0.930 . S
C1647 C1646 1.394 . S
C1647 C1648 1.383 . S
C1647 H1655 0.929 . S
C1648 C1647 1.383 . S
C1648 C1649 1.377 . S
C1649 H1633 0.930 . S
C1649 C1648 1.377 . S
C1649 C1650 1.379 . S
C1650 H1634 0.931 . S
C1650 C1644 1.383 . S
C1650 C1649 1.379 . S
H1651 C1645 0.959 . S
H1652 C1645 0.961 . S
H1653 C1645 0.960 . S
H1654 C1646 0.930 . S
H1655 C1647 0.929 . S
H1656 C1664 0.929 . S
H1657 C1666 0.930 . S
H1658 C1668 0.930 . S
H1659 C1671 0.929 . S
H1660 C1674 0.930 . S
H1661 C1676 0.960 . S
H1662 C1676 0.960 . S
H1663 C1676 0.960 . S
C1664 H1656 0.929 . S
C1664 C1665 1.377 . S
C1664 C1666 1.384 . S
C1665 C1664 1.377 . S
C1665 C1671 1.390 . S
C1666 H1657 0.930 . S
C1666 C1664 1.384 . S
C1666 C1667 1.372 . S
C1667 C1666 1.372 . S
C1667 C1668 1.400 . S
C1667 C1672 1.490 . S
C1668 H1658 0.930 . S
C1668 C1667 1.400 . S
C1668 C1671 1.386 . S
H1669 C1685 0.930 . S
H1670 C1686 0.931 . S
C1671 H1659 0.929 . S
C1671 C1665 1.390 . S
C1671 C1668 1.386 . S
C1672 C1667 1.490 . S
C1672 C1674 1.395 . S
C1672 C1675 1.403 . S
H1673 C1679 0.930 . S
C1674 H1660 0.930 . S
C1674 C1672 1.395 . S
C1674 C1677 1.403 . S
C1675 C1672 1.403 . S
C1675 C1676 1.524 . S
C1675 C1679 1.400 . S
C1676 H1661 0.960 . S
C1676 H1662 0.960 . S
C1676 H1663 0.960 . S
C1676 C1675 1.524 . S
C1677 C1674 1.403 . S
C1677 C1678 1.392 . S
C1677 C1681 1.495 . S
C1678 C1677 1.392 . S
C1678 C1679 1.385 . S
C1678 C1680 1.478 . S
C1679 H1673 0.930 . S
C1679 C1675 1.400 . S
C1679 C1678 1.385 . S
C1680 C1678 1.478 . S
C1680 C1682 1.381 . S
C1680 C1686 1.383 . S
C1681 C1677 1.495 . S
C1681 H1687 0.959 . S
C1681 H1688 0.961 . S
C1681 H1689 0.960 . S
C1682 C1680 1.381 . S
C1682 C1683 1.394 . S
C1682 H1690 0.930 . S
C1683 C1682 1.394 . S
C1683 C1684 1.383 . S
C1683 H1691 0.929 . S
C1684 C1683 1.383 . S
C1684 C1685 1.377 . S
C1685 H1669 0.930 . S
C1685 C1684 1.377 . S
C1685 C1686 1.379 . S
C1686 H1670 0.931 . S
C1686 C1680 1.383 . S
C1686 C1685 1.379 . S
H1687 C1681 0.959 . S
H1688 C1681 0.961 . S
H1689 C1681 0.960 . S
H1690 C1682 0.930 . S
H1691 C1683 0.929 . S
H1692 C1700 0.929 . S
H1693 C1702 0.930 . S
H1694 C1704 0.930 . S
H1695 C1707 0.929 . S
H1696 C1710 0.930 . S
H1697 C1712 0.960 . S
H1698 C1712 0.960 . S
H1699 C1712 0.960 . S
C1700 H1692 0.929 . S
C1700 C1701 1.377 . S
C1700 C1702 1.384 . S
C1701 C1700 1.377 . S
C1701 C1707 1.390 . S
C1702 H1693 0.930 . S
C1702 C1700 1.384 . S
C1702 C1703 1.372 . S
C1703 C1702 1.372 . S
C1703 C1704 1.400 . S
C1703 C1708 1.490 . S
C1704 H1694 0.930 . S
C1704 C1703 1.400 . S
C1704 C1707 1.386 . S
H1705 C1721 0.930 . S
H1706 C1722 0.931 . S
C1707 H1695 0.929 . S
C1707 C1701 1.390 . S
C1707 C1704 1.386 . S
C1708 C1703 1.490 . S
C1708 C1710 1.395 . S
C1708 C1711 1.403 . S
H1709 C1715 0.930 . S
C1710 H1696 0.930 . S
C1710 C1708 1.395 . S
C1710 C1713 1.403 1_556 S
C1711 C1708 1.403 . S
C1711 C1712 1.524 . S
C1711 C1715 1.400 1_556 S
C1712 H1697 0.960 . S
C1712 H1698 0.960 . S
C1712 H1699 0.960 . S
C1712 C1711 1.524 . S
C1713 C1710 1.403 1_554 S
C1713 C1714 1.392 . S
C1713 C1717 1.495 . S
C1714 C1713 1.392 . S
C1714 C1715 1.385 . S
C1714 C1716 1.478 . S
C1715 H1709 0.930 . S
C1715 C1711 1.400 1_554 S
C1715 C1714 1.385 . S
C1716 C1714 1.478 . S
C1716 C1718 1.381 . S
C1716 C1722 1.383 . S
C1717 C1713 1.495 . S
C1717 H1723 0.959 . S
C1717 H1724 0.961 . S
C1717 H1725 0.960 . S
C1718 C1716 1.381 . S
C1718 C1719 1.394 . S
C1718 H1726 0.930 . S
C1719 C1718 1.394 . S
C1719 C1720 1.383 . S
C1719 H1727 0.929 . S
C1720 C1719 1.383 . S
C1720 C1721 1.377 . S
C1721 H1705 0.930 . S
C1721 C1720 1.377 . S
C1721 C1722 1.379 . S
C1722 H1706 0.931 . S
C1722 C1716 1.383 . S
C1722 C1721 1.379 . S
H1723 C1717 0.959 . S
H1724 C1717 0.961 . S
H1725 C1717 0.960 . S
H1726 C1718 0.930 . S
H1727 C1719 0.929 . S
H1728 C1736 0.929 . S
H1729 C1738 0.930 . S
H1730 C1740 0.930 . S
H1731 C1743 0.929 . S
H1732 C1746 0.930 . S
H1733 C1748 0.960 . S
H1734 C1748 0.960 . S
H1735 C1748 0.960 . S
C1736 H1728 0.929 . S
C1736 C1737 1.377 . S
C1736 C1738 1.384 . S
C1737 C1736 1.377 . S
C1737 C1743 1.390 . S
C1738 H1729 0.930 . S
C1738 C1736 1.384 . S
C1738 C1739 1.372 . S
C1739 C1738 1.372 . S
C1739 C1740 1.400 . S
C1739 C1744 1.490 . S
C1740 H1730 0.930 . S
C1740 C1739 1.400 . S
C1740 C1743 1.386 . S
H1741 C1757 0.930 . S
H1742 C1758 0.931 . S
C1743 H1731 0.929 . S
C1743 C1737 1.390 . S
C1743 C1740 1.386 . S
C1744 C1739 1.490 . S
C1744 C1746 1.395 . S
C1744 C1747 1.403 . S
H1745 C1751 0.930 . S
C1746 H1732 0.930 . S
C1746 C1744 1.395 . S
C1746 C1749 1.403 . S
C1747 C1744 1.403 . S
C1747 C1748 1.524 . S
C1747 C1751 1.400 . S
C1748 H1733 0.960 . S
C1748 H1734 0.960 . S
C1748 H1735 0.960 . S
C1748 C1747 1.524 . S
C1749 C1746 1.403 . S
C1749 C1750 1.392 . S
C1749 C1753 1.495 . S
C1750 C1749 1.392 . S
C1750 C1751 1.385 . S
C1750 C1752 1.478 . S
C1751 H1745 0.930 . S
C1751 C1747 1.400 . S
C1751 C1750 1.385 . S
C1752 C1750 1.478 . S
C1752 C1754 1.381 . S
C1752 C1758 1.383 . S
C1753 C1749 1.495 . S
C1753 H1759 0.959 . S
C1753 H1760 0.961 . S
C1753 H1761 0.960 . S
C1754 C1752 1.381 . S
C1754 C1755 1.394 . S
C1754 H1762 0.930 . S
C1755 C1754 1.394 . S
C1755 C1756 1.383 . S
C1755 H1763 0.929 . S
C1756 C1755 1.383 . S
C1756 C1757 1.377 . S
C1757 H1741 0.930 . S
C1757 C1756 1.377 . S
C1757 C1758 1.379 . S
C1758 H1742 0.931 . S
C1758 C1752 1.383 . S
C1758 C1757 1.379 . S
H1759 C1753 0.959 . S
H1760 C1753 0.961 . S
H1761 C1753 0.960 . S
H1762 C1754 0.930 . S
H1763 C1755 0.929 . S
H1764 C1772 0.929 . S
H1765 C1774 0.930 . S
H1766 C1776 0.930 . S
H1767 C1779 0.929 . S
H1768 C1782 0.930 . S
H1769 C1784 0.960 . S
H1770 C1784 0.960 . S
H1771 C1784 0.960 . S
C1772 H1764 0.929 . S
C1772 C1773 1.377 . S
C1772 C1774 1.384 . S
C1773 C1772 1.377 . S
C1773 C1779 1.390 . S
C1774 H1765 0.930 . S
C1774 C1772 1.384 . S
C1774 C1775 1.372 . S
C1775 C1774 1.372 . S
C1775 C1776 1.400 . S
C1775 C1780 1.490 . S
C1776 H1766 0.930 . S
C1776 C1775 1.400 . S
C1776 C1779 1.386 . S
H1777 C1793 0.930 . S
H1778 C1794 0.924 1_655 S
C1779 H1767 0.929 . S
C1779 C1773 1.390 . S
C1779 C1776 1.386 . S
C1780 C1775 1.490 . S
C1780 C1782 1.395 . S
C1780 C1783 1.403 . S
H1781 C1787 0.930 . S
C1782 H1768 0.930 . S
C1782 C1780 1.395 . S
C1782 C1785 1.403 . S
C1783 C1780 1.403 . S
C1783 C1784 1.524 . S
C1783 C1787 1.400 . S
C1784 H1769 0.960 . S
C1784 H1770 0.960 . S
C1784 H1771 0.960 . S
C1784 C1783 1.524 . S
C1785 C1782 1.403 . S
C1785 C1786 1.392 . S
C1785 C1789 1.495 . S
C1786 C1785 1.392 . S
C1786 C1787 1.385 . S
C1786 C1788 1.478 . S
C1787 H1781 0.930 . S
C1787 C1783 1.400 . S
C1787 C1786 1.385 . S
C1788 C1786 1.478 . S
C1788 C1790 1.381 . S
C1788 C1794 1.410 . S
C1789 C1785 1.495 . S
C1789 H1795 0.959 . S
C1789 H1796 0.961 1_455 S
C1789 H1797 0.960 . S
C1790 C1788 1.381 . S
C1790 C1791 1.394 . S
C1790 H1798 0.930 . S
C1791 C1790 1.394 . S
C1791 C1792 1.383 1_455 S
C1791 H1799 0.929 . S
C1792 C1791 1.383 1_655 S
C1792 C1793 1.377 . S
C1793 H1777 0.930 . S
C1793 C1792 1.377 . S
C1793 C1794 1.361 1_655 S
C1794 H1778 0.924 1_455 S
C1794 C1788 1.410 . S
C1794 C1793 1.361 1_455 S
H1795 C1789 0.959 . S
H1796 C1789 0.961 1_655 S
H1797 C1789 0.960 . S
H1798 C1790 0.930 . S
H1799 C1791 0.929 . S
H1800 C1808 0.929 . S
H1801 C1810 0.930 . S
H1802 C1812 0.930 . S
H1803 C1815 0.929 . S
H1804 C1818 0.930 . S
H1805 C1820 0.960 . S
H1806 C1820 0.960 . S
H1807 C1820 0.960 . S
C1808 H1800 0.929 . S
C1808 C1809 1.377 . S
C1808 C1810 1.384 . S
C1809 C1808 1.377 . S
C1809 C1815 1.390 . S
C1810 H1801 0.930 . S
C1810 C1808 1.384 . S
C1810 C1811 1.372 . S
C1811 C1810 1.372 . S
C1811 C1812 1.400 . S
C1811 C1816 1.490 . S
C1812 H1802 0.930 . S
C1812 C1811 1.400 . S
C1812 C1815 1.386 . S
H1813 C1829 0.930 . S
H1814 C1830 0.931 . S
C1815 H1803 0.929 . S
C1815 C1809 1.390 . S
C1815 C1812 1.386 . S
C1816 C1811 1.490 . S
C1816 C1818 1.395 . S
C1816 C1819 1.403 . S
H1817 C1823 0.930 . S
C1818 H1804 0.930 . S
C1818 C1816 1.395 . S
C1818 C1821 1.403 . S
C1819 C1816 1.403 . S
C1819 C1820 1.524 . S
C1819 C1823 1.400 . S
C1820 H1805 0.960 . S
C1820 H1806 0.960 . S
C1820 H1807 0.960 . S
C1820 C1819 1.524 . S
C1821 C1818 1.403 . S
C1821 C1822 1.392 . S
C1821 C1825 1.495 . S
C1822 C1821 1.392 . S
C1822 C1823 1.385 . S
C1822 C1824 1.478 . S
C1823 H1817 0.930 . S
C1823 C1819 1.400 . S
C1823 C1822 1.385 . S
C1824 C1822 1.478 . S
C1824 C1826 1.381 . S
C1824 C1830 1.383 . S
C1825 C1821 1.495 . S
C1825 H1831 0.959 . S
C1825 H1832 0.961 . S
C1825 H1833 0.960 . S
C1826 C1824 1.381 . S
C1826 C1827 1.394 . S
C1826 H1834 0.930 . S
C1827 C1826 1.394 . S
C1827 C1828 1.383 . S
C1827 H1835 0.929 . S
C1828 C1827 1.383 . S
C1828 C1829 1.377 . S
C1829 H1813 0.930 . S
C1829 C1828 1.377 . S
C1829 C1830 1.379 . S
C1830 H1814 0.931 . S
C1830 C1824 1.383 . S
C1830 C1829 1.379 . S
H1831 C1825 0.959 . S
H1832 C1825 0.961 . S
H1833 C1825 0.960 . S
H1834 C1826 0.930 . S
H1835 C1827 0.929 . S
H1836 C1844 0.929 . S
H1837 C1846 0.930 . S
H1838 C1848 0.930 . S
H1839 C1851 0.929 . S
H1840 C1854 0.930 . S
H1841 C1856 0.960 . S
H1842 C1856 0.960 . S
H1843 C1856 0.960 . S
C1844 H1836 0.929 . S
C1844 C1845 1.377 . S
C1844 C1846 1.384 . S
C1845 C1844 1.377 . S
C1845 C1851 1.390 . S
C1846 H1837 0.930 . S
C1846 C1844 1.384 . S
C1846 C1847 1.372 . S
C1847 C1846 1.372 . S
C1847 C1848 1.400 . S
C1847 C1852 1.490 . S
C1848 H1838 0.930 . S
C1848 C1847 1.400 . S
C1848 C1851 1.386 . S
H1849 C1865 0.930 . S
H1850 C1866 0.931 . S
C1851 H1839 0.929 . S
C1851 C1845 1.390 . S
C1851 C1848 1.386 . S
C1852 C1847 1.490 . S
C1852 C1854 1.395 . S
C1852 C1855 1.403 . S
H1853 C1859 0.930 . S
C1854 H1840 0.930 . S
C1854 C1852 1.395 . S
C1854 C1857 1.403 . S
C1855 C1852 1.403 . S
C1855 C1856 1.524 . S
C1855 C1859 1.400 . S
C1856 H1841 0.960 . S
C1856 H1842 0.960 . S
C1856 H1843 0.960 . S
C1856 C1855 1.524 . S
C1857 C1854 1.403 . S
C1857 C1858 1.392 . S
C1857 C1861 1.495 . S
C1858 C1857 1.392 . S
C1858 C1859 1.385 . S
C1858 C1860 1.478 . S
C1859 H1853 0.930 . S
C1859 C1855 1.400 . S
C1859 C1858 1.385 . S
C1860 C1858 1.478 . S
C1860 C1862 1.381 . S
C1860 C1866 1.383 . S
C1861 C1857 1.495 . S
C1861 H1867 0.959 . S
C1861 H1868 0.961 . S
C1861 H1869 0.960 . S
C1862 C1860 1.381 . S
C1862 C1863 1.394 . S
C1862 H1870 0.930 . S
C1863 C1862 1.394 . S
C1863 C1864 1.383 . S
C1863 H1871 0.929 . S
C1864 C1863 1.383 . S
C1864 C1865 1.377 . S
C1865 H1849 0.930 . S
C1865 C1864 1.377 . S
C1865 C1866 1.379 . S
C1866 H1850 0.931 . S
C1866 C1860 1.383 . S
C1866 C1865 1.379 . S
H1867 C1861 0.959 . S
H1868 C1861 0.961 . S
H1869 C1861 0.960 . S
H1870 C1862 0.930 . S
H1871 C1863 0.929 . S
H1872 C1880 0.929 . S
H1873 C1882 0.930 . S
H1874 C1884 0.930 . S
H1875 C1887 0.929 . S
H1876 C1890 0.930 . S
H1877 C1892 0.960 . S
H1878 C1892 0.960 . S
H1879 C1892 0.960 . S
C1880 H1872 0.929 . S
C1880 C1881 1.377 . S
C1880 C1882 1.384 . S
C1881 C1880 1.377 . S
C1881 C1887 1.390 . S
C1882 H1873 0.930 . S
C1882 C1880 1.384 . S
C1882 C1883 1.372 . S
C1883 C1882 1.372 . S
C1883 C1884 1.400 . S
C1883 C1888 1.490 . S
C1884 H1874 0.930 . S
C1884 C1883 1.400 . S
C1884 C1887 1.386 . S
H1885 C1901 0.930 . S
H1886 C1902 0.931 . S
C1887 H1875 0.929 . S
C1887 C1881 1.390 . S
C1887 C1884 1.386 . S
C1888 C1883 1.490 . S
C1888 C1890 1.395 . S
C1888 C1891 1.403 . S
H1889 C1895 0.930 . S
C1890 H1876 0.930 . S
C1890 C1888 1.395 . S
C1890 C1893 1.403 . S
C1891 C1888 1.403 . S
C1891 C1892 1.524 . S
C1891 C1895 1.400 . S
C1892 H1877 0.960 . S
C1892 H1878 0.960 . S
C1892 H1879 0.960 . S
C1892 C1891 1.524 . S
C1893 C1890 1.403 . S
C1893 C1894 1.392 . S
C1893 C1897 1.495 . S
C1894 C1893 1.392 . S
C1894 C1895 1.385 . S
C1894 C1896 1.478 . S
C1895 H1889 0.930 . S
C1895 C1891 1.400 . S
C1895 C1894 1.385 . S
C1896 C1894 1.478 . S
C1896 C1898 1.381 . S
C1896 C1902 1.383 . S
C1897 C1893 1.495 . S
C1897 H1903 0.959 . S
C1897 H1904 0.961 . S
C1897 H1905 0.960 . S
C1898 C1896 1.381 . S
C1898 C1899 1.394 . S
C1898 H1906 0.930 . S
C1899 C1898 1.394 . S
C1899 C1900 1.383 . S
C1899 H1907 0.929 . S
C1900 C1899 1.383 . S
C1900 C1901 1.377 . S
C1901 H1885 0.930 . S
C1901 C1900 1.377 . S
C1901 C1902 1.379 . S
C1902 H1886 0.931 . S
C1902 C1896 1.383 . S
C1902 C1901 1.379 . S
H1903 C1897 0.959 . S
H1904 C1897 0.961 . S
H1905 C1897 0.960 . S
H1906 C1898 0.930 . S
H1907 C1899 0.929 . S
H1908 C1916 0.929 . S
H1909 C1918 0.930 . S
H1910 C1920 0.923 1_455 S
H1911 C1923 0.929 . S
H1912 C1926 0.930 . S
H1913 C1928 0.960 . S
H1914 C1928 0.960 . S
H1915 C1928 0.960 1_556 S
C1916 H1908 0.929 . S
C1916 C1917 1.377 1_655 S
C1916 C1918 1.384 . S
C1917 C1916 1.377 1_455 S
C1917 C1923 1.390 . S
C1918 H1909 0.930 . S
C1918 C1916 1.384 . S
C1918 C1919 1.372 . S
C1919 C1918 1.372 . S
C1919 C1920 1.418 . S
C1919 C1924 1.490 . S
C1920 H1910 0.923 1_655 S
C1920 C1919 1.418 . S
C1920 C1923 1.374 1_655 S
H1921 C1937 0.930 . S
H1922 C1938 0.931 . S
C1923 H1911 0.929 . S
C1923 C1917 1.390 . S
C1923 C1920 1.374 1_455 S
C1924 C1919 1.490 . S
C1924 C1926 1.395 . S
C1924 C1927 1.403 1_556 S
H1925 C1931 0.930 . S
C1926 H1912 0.930 . S
C1926 C1924 1.395 . S
C1926 C1929 1.403 1_556 S
C1927 C1924 1.403 1_554 S
C1927 C1928 1.524 1_655 S
C1927 C1931 1.400 . S
C1928 H1913 0.960 . S
C1928 H1914 0.960 . S
C1928 H1915 0.960 1_554 S
C1928 C1927 1.524 1_455 S
C1929 C1926 1.403 1_554 S
C1929 C1930 1.392 . S
C1929 C1933 1.499 . S
C1930 C1929 1.392 . S
C1930 C1931 1.385 . S
C1930 C1932 1.478 . S
C1931 H1925 0.930 . S
C1931 C1927 1.400 . S
C1931 C1930 1.385 . S
C1932 C1930 1.478 . S
C1932 C1934 1.381 . S
C1932 C1938 1.383 . S
C1933 C1929 1.499 . S
C1933 H1939 0.921 1_554 S
C1933 H1940 0.972 . S
C1933 H1941 0.984 . S
C1934 C1932 1.381 . S
C1934 C1935 1.394 . S
C1934 H1942 0.930 . S
C1935 C1934 1.394 . S
C1935 C1936 1.383 . S
C1935 H1943 0.929 . S
C1936 C1935 1.383 . S
C1936 C1937 1.377 . S
C1937 H1921 0.930 . S
C1937 C1936 1.377 . S
C1937 C1938 1.379 . S
C1938 H1922 0.931 . S
C1938 C1932 1.383 . S
C1938 C1937 1.379 . S
H1939 C1933 0.921 1_556 S
H1940 C1933 0.972 . S
H1941 C1933 0.984 . S
H1942 C1934 0.930 . S
H1943 C1935 0.929 . S
H1944 C1952 0.929 . S
H1945 C1954 0.930 . S
H1946 C1956 0.930 . S
H1947 C1959 0.929 . S
H1948 C1962 0.930 . S
H1949 C1964 0.960 . S
H1950 C1964 0.960 . S
H1951 C1964 0.960 . S
C1952 H1944 0.929 . S
C1952 C1953 1.377 . S
C1952 C1954 1.384 . S
C1953 C1952 1.377 . S
C1953 C1959 1.390 . S
C1954 H1945 0.930 . S
C1954 C1952 1.384 . S
C1954 C1955 1.372 . S
C1955 C1954 1.372 . S
C1955 C1956 1.400 . S
C1955 C1960 1.490 . S
C1956 H1946 0.930 . S
C1956 C1955 1.400 . S
C1956 C1959 1.386 . S
H1957 C1973 0.930 . S
H1958 C1974 0.931 . S
C1959 H1947 0.929 . S
C1959 C1953 1.390 . S
C1959 C1956 1.386 . S
C1960 C1955 1.490 . S
C1960 C1962 1.395 . S
C1960 C1963 1.403 . S
H1961 C1967 0.930 . S
C1962 H1948 0.930 . S
C1962 C1960 1.395 . S
C1962 C1965 1.403 . S
C1963 C1960 1.403 . S
C1963 C1964 1.524 . S
C1963 C1967 1.400 . S
C1964 H1949 0.960 . S
C1964 H1950 0.960 . S
C1964 H1951 0.960 . S
C1964 C1963 1.524 . S
C1965 C1962 1.403 . S
C1965 C1966 1.392 . S
C1965 C1969 1.495 . S
C1966 C1965 1.392 . S
C1966 C1967 1.385 . S
C1966 C1968 1.478 . S
C1967 H1961 0.930 . S
C1967 C1963 1.400 . S
C1967 C1966 1.385 . S
C1968 C1966 1.478 . S
C1968 C1970 1.381 . S
C1968 C1974 1.383 . S
C1969 C1965 1.495 . S
C1969 H1975 0.959 . S
C1969 H1976 0.961 . S
C1969 H1977 0.960 . S
C1970 C1968 1.381 . S
C1970 C1971 1.394 . S
C1970 H1978 0.930 . S
C1971 C1970 1.394 . S
C1971 C1972 1.383 . S
C1971 H1979 0.929 . S
C1972 C1971 1.383 . S
C1972 C1973 1.377 . S
C1973 H1957 0.930 . S
C1973 C1972 1.377 . S
C1973 C1974 1.379 . S
C1974 H1958 0.931 . S
C1974 C1968 1.383 . S
C1974 C1973 1.379 . S
H1975 C1969 0.959 . S
H1976 C1969 0.961 . S
H1977 C1969 0.960 . S
H1978 C1970 0.930 . S
H1979 C1971 0.929 . S
H1980 C1988 0.929 . S
H1981 C1990 0.930 . S
H1982 C1992 0.930 . S
H1983 C1995 0.929 . S
H1984 C1998 0.930 . S
H1985 C2000 0.960 . S
H1986 C2000 0.960 . S
H1987 C2000 0.960 . S
C1988 H1980 0.929 . S
C1988 C1989 1.377 . S
C1988 C1990 1.384 . S
C1989 C1988 1.377 . S
C1989 C1995 1.390 1_556 S
C1990 H1981 0.930 . S
C1990 C1988 1.384 . S
C1990 C1991 1.372 1_556 S
C1991 C1990 1.372 1_554 S
C1991 C1992 1.400 . S
C1991 C1996 1.490 . S
C1992 H1982 0.930 . S
C1992 C1991 1.400 . S
C1992 C1995 1.386 . S
H1993 C2009 0.930 . S
H1994 C2010 0.931 . S
C1995 H1983 0.929 . S
C1995 C1989 1.390 1_554 S
C1995 C1992 1.386 . S
C1996 C1991 1.490 . S
C1996 C1998 1.395 . S
C1996 C1999 1.403 . S
H1997 C2003 0.930 . S
C1998 H1984 0.930 . S
C1998 C1996 1.395 . S
C1998 C2001 1.403 . S
C1999 C1996 1.403 . S
C1999 C2000 1.524 . S
C1999 C2003 1.400 . S
C2000 H1985 0.960 . S
C2000 H1986 0.960 . S
C2000 H1987 0.960 . S
C2000 C1999 1.524 . S
C2001 C1998 1.403 . S
C2001 C2002 1.392 . S
C2001 C2005 1.495 . S
C2002 C2001 1.392 . S
C2002 C2003 1.385 . S
C2002 C2004 1.478 . S
C2003 H1997 0.930 . S
C2003 C1999 1.400 . S
C2003 C2002 1.385 . S
C2004 C2002 1.478 . S
C2004 C2006 1.381 . S
C2004 C2010 1.383 . S
C2005 C2001 1.495 . S
C2005 H2011 0.959 . S
C2005 H2012 0.961 . S
C2005 H2013 0.960 . S
C2006 C2004 1.381 . S
C2006 C2007 1.394 . S
C2006 H2014 0.930 . S
C2007 C2006 1.394 . S
C2007 C2008 1.383 . S
C2007 H2015 0.929 . S
C2008 C2007 1.383 . S
C2008 C2009 1.377 . S
C2009 H1993 0.930 . S
C2009 C2008 1.377 . S
C2009 C2010 1.379 . S
C2010 H1994 0.931 . S
C2010 C2004 1.383 . S
C2010 C2009 1.379 . S
H2011 C2005 0.959 . S
H2012 C2005 0.961 . S
H2013 C2005 0.960 . S
H2014 C2006 0.930 . S
H2015 C2007 0.929 . S
H2016 C2024 0.929 . S
H2017 C2026 0.930 . S
H2018 C2028 0.930 . S
H2019 C2031 0.929 . S
H2020 C2034 0.930 . S
H2021 C2036 0.960 . S
H2022 C2036 0.960 . S
H2023 C2036 0.960 . S
C2024 H2016 0.929 . S
C2024 C2025 1.377 . S
C2024 C2026 1.384 . S
C2025 C2024 1.377 . S
C2025 C2031 1.390 . S
C2026 H2017 0.930 . S
C2026 C2024 1.384 . S
C2026 C2027 1.372 . S
C2027 C2026 1.372 . S
C2027 C2028 1.400 . S
C2027 C2032 1.490 . S
C2028 H2018 0.930 . S
C2028 C2027 1.400 . S
C2028 C2031 1.386 . S
H2029 C2045 0.930 . S
H2030 C2046 0.931 . S
C2031 H2019 0.929 . S
C2031 C2025 1.390 . S
C2031 C2028 1.386 . S
C2032 C2027 1.490 . S
C2032 C2034 1.395 . S
C2032 C2035 1.403 . S
H2033 C2039 0.930 . S
C2034 H2020 0.930 . S
C2034 C2032 1.395 . S
C2034 C2037 1.403 . S
C2035 C2032 1.403 . S
C2035 C2036 1.524 . S
C2035 C2039 1.400 . S
C2036 H2021 0.960 . S
C2036 H2022 0.960 . S
C2036 H2023 0.960 . S
C2036 C2035 1.524 . S
C2037 C2034 1.403 . S
C2037 C2038 1.392 . S
C2037 C2041 1.495 . S
C2038 C2037 1.392 . S
C2038 C2039 1.385 . S
C2038 C2040 1.478 . S
C2039 H2033 0.930 . S
C2039 C2035 1.400 . S
C2039 C2038 1.385 . S
C2040 C2038 1.478 . S
C2040 C2042 1.381 . S
C2040 C2046 1.383 . S
C2041 C2037 1.495 . S
C2041 H2047 0.959 . S
C2041 H2048 0.961 . S
C2041 H2049 0.960 . S
C2042 C2040 1.381 . S
C2042 C2043 1.394 . S
C2042 H2050 0.930 . S
C2043 C2042 1.394 . S
C2043 C2044 1.383 . S
C2043 H2051 0.929 . S
C2044 C2043 1.383 . S
C2044 C2045 1.377 . S
C2045 H2029 0.930 . S
C2045 C2044 1.377 . S
C2045 C2046 1.379 . S
C2046 H2030 0.931 . S
C2046 C2040 1.383 . S
C2046 C2045 1.379 . S
H2047 C2041 0.959 . S
H2048 C2041 0.961 . S
H2049 C2041 0.960 . S
H2050 C2042 0.930 . S
H2051 C2043 0.929 . S
H2052 C2060 0.929 . S
H2053 C2062 0.930 . S
H2054 C2064 0.930 . S
H2055 C2067 0.929 . S
H2056 C2070 0.930 . S
H2057 C2072 0.960 . S
H2058 C2072 0.960 . S
H2059 C2072 0.960 . S
C2060 H2052 0.929 . S
C2060 C2061 1.377 . S
C2060 C2062 1.384 . S
C2061 C2060 1.377 . S
C2061 C2067 1.390 . S
C2062 H2053 0.930 . S
C2062 C2060 1.384 . S
C2062 C2063 1.372 . S
C2063 C2062 1.372 . S
C2063 C2064 1.400 . S
C2063 C2068 1.490 . S
C2064 H2054 0.930 . S
C2064 C2063 1.400 . S
C2064 C2067 1.386 . S
H2065 C2081 0.930 . S
H2066 C2082 0.931 . S
C2067 H2055 0.929 . S
C2067 C2061 1.390 . S
C2067 C2064 1.386 . S
C2068 C2063 1.490 . S
C2068 C2070 1.395 . S
C2068 C2071 1.403 . S
H2069 C2075 0.930 . S
C2070 H2056 0.930 . S
C2070 C2068 1.395 . S
C2070 C2073 1.403 . S
C2071 C2068 1.403 . S
C2071 C2072 1.524 . S
C2071 C2075 1.400 . S
C2072 H2057 0.960 . S
C2072 H2058 0.960 . S
C2072 H2059 0.960 . S
C2072 C2071 1.524 . S
C2073 C2070 1.403 . S
C2073 C2074 1.392 . S
C2073 C2077 1.495 . S
C2074 C2073 1.392 . S
C2074 C2075 1.385 . S
C2074 C2076 1.478 . S
C2075 H2069 0.930 . S
C2075 C2071 1.400 . S
C2075 C2074 1.385 . S
C2076 C2074 1.478 . S
C2076 C2078 1.381 . S
C2076 C2082 1.383 . S
C2077 C2073 1.495 . S
C2077 H2083 0.959 . S
C2077 H2084 0.961 . S
C2077 H2085 0.960 . S
C2078 C2076 1.381 . S
C2078 C2079 1.394 . S
C2078 H2086 0.930 . S
C2079 C2078 1.394 . S
C2079 C2080 1.383 . S
C2079 H2087 0.929 . S
C2080 C2079 1.383 . S
C2080 C2081 1.377 . S
C2081 H2065 0.930 . S
C2081 C2080 1.377 . S
C2081 C2082 1.379 . S
C2082 H2066 0.931 . S
C2082 C2076 1.383 . S
C2082 C2081 1.379 . S
H2083 C2077 0.959 . S
H2084 C2077 0.961 . S
H2085 C2077 0.960 . S
H2086 C2078 0.930 . S
H2087 C2079 0.929 . S
H2088 C2096 0.929 . S
H2089 C2098 0.930 . S
H2090 C2100 0.930 . S
H2091 C2103 0.929 . S
H2092 C2106 0.930 . S
H2093 C2108 0.960 . S
H2094 C2108 0.960 . S
H2095 C2108 0.960 . S
C2096 H2088 0.929 . S
C2096 C2097 1.377 . S
C2096 C2098 1.384 . S
C2097 C2096 1.377 . S
C2097 C2103 1.390 . S
C2098 H2089 0.930 . S
C2098 C2096 1.384 . S
C2098 C2099 1.372 . S
C2099 C2098 1.372 . S
C2099 C2100 1.400 . S
C2099 C2104 1.490 . S
C2100 H2090 0.930 . S
C2100 C2099 1.400 . S
C2100 C2103 1.386 . S
H2101 C2117 0.930 . S
H2102 C2118 0.931 . S
C2103 H2091 0.929 . S
C2103 C2097 1.390 . S
C2103 C2100 1.386 . S
C2104 C2099 1.490 . S
C2104 C2106 1.395 . S
C2104 C2107 1.403 . S
H2105 C2111 0.930 . S
C2106 H2092 0.930 . S
C2106 C2104 1.395 . S
C2106 C2109 1.403 . S
C2107 C2104 1.403 . S
C2107 C2108 1.524 . S
C2107 C2111 1.400 . S
C2108 H2093 0.960 . S
C2108 H2094 0.960 . S
C2108 H2095 0.960 . S
C2108 C2107 1.524 . S
C2109 C2106 1.403 . S
C2109 C2110 1.392 . S
C2109 C2113 1.495 . S
C2110 C2109 1.392 . S
C2110 C2111 1.385 . S
C2110 C2112 1.478 . S
C2111 H2105 0.930 . S
C2111 C2107 1.400 . S
C2111 C2110 1.385 . S
C2112 C2110 1.478 . S
C2112 C2114 1.381 . S
C2112 C2118 1.383 . S
C2113 C2109 1.495 . S
C2113 H2119 0.959 . S
C2113 H2120 0.961 . S
C2113 H2121 0.960 . S
C2114 C2112 1.381 . S
C2114 C2115 1.394 . S
C2114 H2122 0.930 . S
C2115 C2114 1.394 . S
C2115 C2116 1.383 . S
C2115 H2123 0.929 . S
C2116 C2115 1.383 . S
C2116 C2117 1.377 . S
C2117 H2101 0.930 . S
C2117 C2116 1.377 . S
C2117 C2118 1.379 . S
C2118 H2102 0.931 . S
C2118 C2112 1.383 . S
C2118 C2117 1.379 . S
H2119 C2113 0.959 . S
H2120 C2113 0.961 . S
H2121 C2113 0.960 . S
H2122 C2114 0.930 . S
H2123 C2115 0.929 . S
H2124 C2132 0.929 . S
H2125 C2134 0.930 . S
H2126 C2136 0.930 . S
H2127 C2139 0.929 . S
H2128 C2142 0.930 . S
H2129 C2144 0.960 . S
H2130 C2144 0.960 . S
H2131 C2144 0.960 . S
C2132 H2124 0.929 . S
C2132 C2133 1.377 . S
C2132 C2134 1.384 . S
C2133 C2132 1.377 . S
C2133 C2139 1.390 . S
C2134 H2125 0.930 . S
C2134 C2132 1.384 . S
C2134 C2135 1.372 . S
C2135 C2134 1.372 . S
C2135 C2136 1.400 . S
C2135 C2140 1.490 . S
C2136 H2126 0.930 . S
C2136 C2135 1.400 . S
C2136 C2139 1.386 . S
H2137 C2153 0.930 . S
H2138 C2154 0.931 . S
C2139 H2127 0.929 . S
C2139 C2133 1.390 . S
C2139 C2136 1.386 . S
C2140 C2135 1.490 . S
C2140 C2142 1.395 . S
C2140 C2143 1.403 . S
H2141 C2147 0.930 . S
C2142 H2128 0.930 . S
C2142 C2140 1.395 . S
C2142 C2145 1.403 1_565 S
C2143 C2140 1.403 . S
C2143 C2144 1.524 . S
C2143 C2147 1.400 1_565 S
C2144 H2129 0.960 . S
C2144 H2130 0.960 . S
C2144 H2131 0.960 . S
C2144 C2143 1.524 . S
C2145 C2142 1.403 1_545 S
C2145 C2146 1.392 . S
C2145 C2149 1.495 . S
C2146 C2145 1.392 . S
C2146 C2147 1.385 . S
C2146 C2148 1.478 . S
C2147 H2141 0.930 . S
C2147 C2143 1.400 1_545 S
C2147 C2146 1.385 . S
C2148 C2146 1.478 . S
C2148 C2150 1.381 . S
C2148 C2154 1.383 . S
C2149 C2145 1.495 . S
C2149 H2155 0.959 . S
C2149 H2156 0.961 . S
C2149 H2157 0.960 . S
C2150 C2148 1.381 . S
C2150 C2151 1.394 . S
C2150 H2158 0.930 . S
C2151 C2150 1.394 . S
C2151 C2152 1.383 . S
C2151 H2159 0.929 . S
C2152 C2151 1.383 . S
C2152 C2153 1.377 . S
C2153 H2137 0.930 . S
C2153 C2152 1.377 . S
C2153 C2154 1.379 . S
C2154 H2138 0.931 . S
C2154 C2148 1.383 . S
C2154 C2153 1.379 . S
H2155 C2149 0.959 . S
H2156 C2149 0.961 . S
H2157 C2149 0.960 . S
H2158 C2150 0.930 . S
H2159 C2151 0.929 . S
H2160 C2168 0.929 . S
H2161 C2170 0.930 . S
H2162 C2172 0.930 . S
H2163 C2175 0.929 . S
H2164 C2178 0.930 . S
H2165 C2180 0.960 . S
H2166 C2180 0.960 . S
H2167 C2180 0.960 . S
C2168 H2160 0.929 . S
C2168 C2169 1.377 . S
C2168 C2170 1.384 . S
C2169 C2168 1.377 . S
C2169 C2175 1.390 . S
C2170 H2161 0.930 . S
C2170 C2168 1.384 . S
C2170 C2171 1.372 . S
C2171 C2170 1.372 . S
C2171 C2172 1.400 . S
C2171 C2176 1.490 . S
C2172 H2162 0.930 . S
C2172 C2171 1.400 . S
C2172 C2175 1.386 . S
H2173 C2189 0.930 . S
H2174 C2190 0.931 . S
C2175 H2163 0.929 . S
C2175 C2169 1.390 . S
C2175 C2172 1.386 . S
C2176 C2171 1.490 . S
C2176 C2178 1.395 . S
C2176 C2179 1.403 . S
H2177 C2183 0.930 . S
C2178 H2164 0.930 . S
C2178 C2176 1.395 . S
C2178 C2181 1.403 . S
C2179 C2176 1.403 . S
C2179 C2180 1.524 . S
C2179 C2183 1.400 . S
C2180 H2165 0.960 . S
C2180 H2166 0.960 . S
C2180 H2167 0.960 . S
C2180 C2179 1.524 . S
C2181 C2178 1.403 . S
C2181 C2182 1.392 . S
C2181 C2185 1.495 . S
C2182 C2181 1.392 . S
C2182 C2183 1.385 . S
C2182 C2184 1.478 . S
C2183 H2177 0.930 . S
C2183 C2179 1.400 . S
C2183 C2182 1.385 . S
C2184 C2182 1.478 . S
C2184 C2186 1.381 . S
C2184 C2190 1.383 . S
C2185 C2181 1.495 . S
C2185 H2191 0.959 . S
C2185 H2192 0.961 . S
C2185 H2193 0.960 . S
C2186 C2184 1.381 . S
C2186 C2187 1.394 . S
C2186 H2194 0.930 . S
C2187 C2186 1.394 . S
C2187 C2188 1.383 . S
C2187 H2195 0.929 . S
C2188 C2187 1.383 . S
C2188 C2189 1.377 . S
C2189 H2173 0.930 . S
C2189 C2188 1.377 . S
C2189 C2190 1.379 . S
C2190 H2174 0.931 . S
C2190 C2184 1.383 . S
C2190 C2189 1.379 . S
H2191 C2185 0.959 . S
H2192 C2185 0.961 . S
H2193 C2185 0.960 . S
H2194 C2186 0.930 . S
H2195 C2187 0.929 . S
H2196 C2204 0.929 . S
H2197 C2206 0.930 . S
H2198 C2208 0.930 . S
H2199 C2211 0.929 . S
H2200 C2214 0.930 . S
H2201 C2216 0.960 . S
H2202 C2216 0.960 . S
H2203 C2216 0.960 . S
C2204 H2196 0.929 . S
C2204 C2205 1.377 . S
C2204 C2206 1.384 . S
C2205 C2204 1.377 . S
C2205 C2211 1.390 1_554 S
C2206 H2197 0.930 . S
C2206 C2204 1.384 . S
C2206 C2207 1.372 1_554 S
C2207 C2206 1.372 1_556 S
C2207 C2208 1.400 . S
C2207 C2212 1.490 . S
C2208 H2198 0.930 . S
C2208 C2207 1.400 . S
C2208 C2211 1.386 . S
H2209 C2225 0.930 . S
H2210 C2226 0.931 . S
C2211 H2199 0.929 . S
C2211 C2205 1.390 1_556 S
C2211 C2208 1.386 . S
C2212 C2207 1.490 . S
C2212 C2214 1.395 1_565 S
C2212 C2215 1.403 . S
H2213 C2219 0.930 . S
C2214 H2200 0.930 . S
C2214 C2212 1.395 1_545 S
C2214 C2217 1.403 . S
C2215 C2212 1.403 . S
C2215 C2216 1.524 . S
C2215 C2219 1.400 1_565 S
C2216 H2201 0.960 . S
C2216 H2202 0.960 . S
C2216 H2203 0.960 . S
C2216 C2215 1.524 . S
C2217 C2214 1.403 . S
C2217 C2218 1.392 . S
C2217 C2221 1.495 . S
C2218 C2217 1.392 . S
C2218 C2219 1.385 . S
C2218 C2220 1.478 . S
C2219 H2213 0.930 . S
C2219 C2215 1.400 1_545 S
C2219 C2218 1.385 . S
C2220 C2218 1.478 . S
C2220 C2222 1.381 . S
C2220 C2226 1.383 . S
C2221 C2217 1.495 . S
C2221 H2227 0.959 . S
C2221 H2228 0.961 . S
C2221 H2229 0.960 . S
C2222 C2220 1.381 . S
C2222 C2223 1.394 . S
C2222 H2230 0.930 . S
C2223 C2222 1.394 . S
C2223 C2224 1.383 . S
C2223 H2231 0.929 . S
C2224 C2223 1.383 . S
C2224 C2225 1.377 . S
C2225 H2209 0.930 . S
C2225 C2224 1.377 . S
C2225 C2226 1.379 . S
C2226 H2210 0.931 . S
C2226 C2220 1.383 . S
C2226 C2225 1.379 . S
H2227 C2221 0.959 . S
H2228 C2221 0.961 . S
H2229 C2221 0.960 . S
H2230 C2222 0.930 . S
H2231 C2223 0.929 . S
H2232 C2240 0.929 . S
H2233 C2242 0.930 . S
H2234 C2244 0.930 . S
H2235 C2247 0.929 . S
H2236 C2250 0.930 . S
H2237 C2252 0.960 . S
H2238 C2252 0.960 . S
H2239 C2252 0.960 . S
C2240 H2232 0.929 . S
C2240 C2241 1.377 . S
C2240 C2242 1.384 . S
C2241 C2240 1.377 . S
C2241 C2247 1.390 . S
C2242 H2233 0.930 . S
C2242 C2240 1.384 . S
C2242 C2243 1.372 . S
C2243 C2242 1.372 . S
C2243 C2244 1.400 . S
C2243 C2248 1.490 . S
C2244 H2234 0.930 . S
C2244 C2243 1.400 . S
C2244 C2247 1.386 . S
H2245 C2261 0.930 . S
H2246 C2262 0.931 . S
C2247 H2235 0.929 . S
C2247 C2241 1.390 . S
C2247 C2244 1.386 . S
C2248 C2243 1.490 . S
C2248 C2250 1.395 . S
C2248 C2251 1.403 . S
H2249 C2255 0.930 . S
C2250 H2236 0.930 . S
C2250 C2248 1.395 . S
C2250 C2253 1.403 . S
C2251 C2248 1.403 . S
C2251 C2252 1.524 . S
C2251 C2255 1.400 . S
C2252 H2237 0.960 . S
C2252 H2238 0.960 . S
C2252 H2239 0.960 . S
C2252 C2251 1.524 . S
C2253 C2250 1.403 . S
C2253 C2254 1.392 . S
C2253 C2257 1.495 . S
C2254 C2253 1.392 . S
C2254 C2255 1.385 . S
C2254 C2256 1.478 . S
C2255 H2249 0.930 . S
C2255 C2251 1.400 . S
C2255 C2254 1.385 . S
C2256 C2254 1.478 . S
C2256 C2258 1.381 . S
C2256 C2262 1.383 . S
C2257 C2253 1.495 . S
C2257 H2263 0.959 . S
C2257 H2264 0.961 . S
C2257 H2265 0.960 . S
C2258 C2256 1.381 . S
C2258 C2259 1.394 . S
C2258 H2266 0.930 . S
C2259 C2258 1.394 . S
C2259 C2260 1.383 . S
C2259 H2267 0.929 . S
C2260 C2259 1.383 . S
C2260 C2261 1.377 . S
C2261 H2245 0.930 . S
C2261 C2260 1.377 . S
C2261 C2262 1.379 . S
C2262 H2246 0.931 . S
C2262 C2256 1.383 . S
C2262 C2261 1.379 . S
H2263 C2257 0.959 . S
H2264 C2257 0.961 . S
H2265 C2257 0.960 . S
H2266 C2258 0.930 . S
H2267 C2259 0.929 . S
H2268 C2276 0.929 . S
H2269 C2278 0.930 . S
H2270 C2280 0.930 . S
H2271 C2283 0.929 . S
H2272 C2286 0.930 . S
H2273 C2288 0.960 . S
H2274 C2288 0.960 . S
H2275 C2288 0.960 . S
C2276 H2268 0.929 . S
C2276 C2277 1.377 . S
C2276 C2278 1.384 . S
C2277 C2276 1.377 . S
C2277 C2283 1.390 . S
C2278 H2269 0.930 . S
C2278 C2276 1.384 . S
C2278 C2279 1.372 . S
C2279 C2278 1.372 . S
C2279 C2280 1.400 . S
C2279 C2284 1.490 . S
C2280 H2270 0.930 . S
C2280 C2279 1.400 . S
C2280 C2283 1.386 . S
H2281 C2297 0.930 . S
H2282 C2298 0.931 . S
C2283 H2271 0.929 . S
C2283 C2277 1.390 . S
C2283 C2280 1.386 . S
C2284 C2279 1.490 . S
C2284 C2286 1.395 . S
C2284 C2287 1.403 . S
H2285 C2291 0.930 . S
C2286 H2272 0.930 . S
C2286 C2284 1.395 . S
C2286 C2289 1.403 . S
C2287 C2284 1.403 . S
C2287 C2288 1.524 . S
C2287 C2291 1.400 . S
C2288 H2273 0.960 . S
C2288 H2274 0.960 . S
C2288 H2275 0.960 . S
C2288 C2287 1.524 . S
C2289 C2286 1.403 . S
C2289 C2290 1.392 . S
C2289 C2293 1.495 . S
C2290 C2289 1.392 . S
C2290 C2291 1.385 . S
C2290 C2292 1.478 . S
C2291 H2285 0.930 . S
C2291 C2287 1.400 . S
C2291 C2290 1.385 . S
C2292 C2290 1.478 . S
C2292 C2294 1.381 . S
C2292 C2298 1.383 . S
C2293 C2289 1.495 . S
C2293 H2299 0.959 . S
C2293 H2300 0.961 . S
C2293 H2301 0.960 . S
C2294 C2292 1.381 . S
C2294 C2295 1.394 . S
C2294 H2302 0.930 . S
C2295 C2294 1.394 . S
C2295 C2296 1.383 . S
C2295 H2303 0.929 . S
C2296 C2295 1.383 . S
C2296 C2297 1.377 . S
C2297 H2281 0.930 . S
C2297 C2296 1.377 . S
C2297 C2298 1.379 . S
C2298 H2282 0.931 . S
C2298 C2292 1.383 . S
C2298 C2297 1.379 . S
H2299 C2293 0.959 . S
H2300 C2293 0.961 . S
H2301 C2293 0.960 . S
H2302 C2294 0.930 . S
H2303 C2295 0.929 . S
H2304 C2312 0.929 . S
H2305 C2314 0.930 . S
H2306 C2316 0.930 . S
H2307 C2319 0.929 . S
H2308 C2322 0.930 . S
H2309 C2324 0.960 . S
H2310 C2324 0.960 . S
H2311 C2324 0.960 . S
C2312 H2304 0.929 . S
C2312 C2313 1.377 . S
C2312 C2314 1.384 . S
C2313 C2312 1.377 . S
C2313 C2319 1.390 . S
C2314 H2305 0.930 . S
C2314 C2312 1.384 . S
C2314 C2315 1.372 . S
C2315 C2314 1.372 . S
C2315 C2316 1.400 . S
C2315 C2320 1.490 . S
C2316 H2306 0.930 . S
C2316 C2315 1.400 . S
C2316 C2319 1.386 . S
H2317 C2333 0.930 . S
H2318 C2334 0.931 . S
C2319 H2307 0.929 . S
C2319 C2313 1.390 . S
C2319 C2316 1.386 . S
C2320 C2315 1.490 . S
C2320 C2322 1.395 . S
C2320 C2323 1.403 . S
H2321 C2327 0.930 . S
C2322 H2308 0.930 . S
C2322 C2320 1.395 . S
C2322 C2325 1.403 . S
C2323 C2320 1.403 . S
C2323 C2324 1.524 . S
C2323 C2327 1.400 . S
C2324 H2309 0.960 . S
C2324 H2310 0.960 . S
C2324 H2311 0.960 . S
C2324 C2323 1.524 . S
C2325 C2322 1.403 . S
C2325 C2326 1.392 . S
C2325 C2329 1.495 . S
C2326 C2325 1.392 . S
C2326 C2327 1.385 . S
C2326 C2328 1.478 . S
C2327 H2321 0.930 . S
C2327 C2323 1.400 . S
C2327 C2326 1.385 . S
C2328 C2326 1.478 . S
C2328 C2330 1.381 . S
C2328 C2334 1.383 . S
C2329 C2325 1.495 . S
C2329 H2335 0.959 . S
C2329 H2336 0.961 . S
C2329 H2337 0.960 . S
C2330 C2328 1.381 . S
C2330 C2331 1.394 1_545 S
C2330 H2338 0.930 1_545 S
C2331 C2330 1.394 1_565 S
C2331 C2332 1.383 . S
C2331 H2339 0.929 . S
C2332 C2331 1.383 . S
C2332 C2333 1.377 1_565 S
C2333 H2317 0.930 . S
C2333 C2332 1.377 1_545 S
C2333 C2334 1.379 . S
C2334 H2318 0.931 . S
C2334 C2328 1.383 . S
C2334 C2333 1.379 . S
H2335 C2329 0.959 . S
H2336 C2329 0.961 . S
H2337 C2329 0.960 . S
H2338 C2330 0.930 1_565 S
H2339 C2331 0.929 . S
H2340 C2348 0.929 . S
H2341 C2350 0.930 . S
H2342 C2352 0.930 . S
H2343 C2355 0.929 . S
H2344 C2358 0.930 . S
H2345 C2360 0.960 . S
H2346 C2360 0.960 . S
H2347 C2360 0.960 . S
C2348 H2340 0.929 . S
C2348 C2349 1.377 . S
C2348 C2350 1.384 . S
C2349 C2348 1.377 . S
C2349 C2355 1.390 . S
C2350 H2341 0.930 . S
C2350 C2348 1.384 . S
C2350 C2351 1.372 . S
C2351 C2350 1.372 . S
C2351 C2352 1.400 . S
C2351 C2356 1.490 . S
C2352 H2342 0.930 . S
C2352 C2351 1.400 . S
C2352 C2355 1.386 . S
H2353 C2369 0.930 . S
H2354 C2370 0.931 . S
C2355 H2343 0.929 . S
C2355 C2349 1.390 . S
C2355 C2352 1.386 . S
C2356 C2351 1.490 . S
C2356 C2358 1.395 . S
C2356 C2359 1.403 . S
H2357 C2363 0.930 . S
C2358 H2344 0.930 . S
C2358 C2356 1.395 . S
C2358 C2361 1.403 . S
C2359 C2356 1.403 . S
C2359 C2360 1.524 . S
C2359 C2363 1.400 . S
C2360 H2345 0.960 . S
C2360 H2346 0.960 . S
C2360 H2347 0.960 . S
C2360 C2359 1.524 . S
C2361 C2358 1.403 . S
C2361 C2362 1.392 . S
C2361 C2365 1.495 . S
C2362 C2361 1.392 . S
C2362 C2363 1.385 . S
C2362 C2364 1.478 . S
C2363 H2357 0.930 . S
C2363 C2359 1.400 . S
C2363 C2362 1.385 . S
C2364 C2362 1.478 . S
C2364 C2366 1.381 . S
C2364 C2370 1.383 . S
C2365 C2361 1.495 . S
C2365 H2371 0.959 . S
C2365 H2372 0.961 . S
C2365 H2373 0.960 . S
C2366 C2364 1.381 . S
C2366 C2367 1.394 . S
C2366 H2374 0.930 . S
C2367 C2366 1.394 . S
C2367 C2368 1.383 . S
C2367 H2375 0.929 . S
C2368 C2367 1.383 . S
C2368 C2369 1.377 . S
C2369 H2353 0.930 . S
C2369 C2368 1.377 . S
C2369 C2370 1.379 . S
C2370 H2354 0.931 . S
C2370 C2364 1.383 . S
C2370 C2369 1.379 . S
H2371 C2365 0.959 . S
H2372 C2365 0.961 . S
H2373 C2365 0.960 . S
H2374 C2366 0.930 . S
H2375 C2367 0.929 . S
H2376 C2384 0.929 . S
H2377 C2386 0.930 . S
H2378 C2388 0.930 . S
H2379 C2391 0.929 . S
H2380 C2394 0.930 . S
H2381 C2396 0.960 . S
H2382 C2396 0.960 . S
H2383 C2396 0.960 . S
C2384 H2376 0.929 . S
C2384 C2385 1.377 1_565 S
C2384 C2386 1.384 . S
C2385 C2384 1.377 1_545 S
C2385 C2391 1.390 . S
C2386 H2377 0.930 . S
C2386 C2384 1.384 . S
C2386 C2387 1.372 . S
C2387 C2386 1.372 . S
C2387 C2388 1.400 . S
C2387 C2392 1.490 . S
C2388 H2378 0.930 . S
C2388 C2387 1.400 . S
C2388 C2391 1.386 1_565 S
H2389 C2405 0.930 . S
H2390 C2406 0.931 . S
C2391 H2379 0.929 . S
C2391 C2385 1.390 . S
C2391 C2388 1.386 1_545 S
C2392 C2387 1.490 . S
C2392 C2394 1.395 . S
C2392 C2395 1.403 . S
H2393 C2399 0.930 . S
C2394 H2380 0.930 . S
C2394 C2392 1.395 . S
C2394 C2397 1.403 1_655 S
C2395 C2392 1.403 . S
C2395 C2396 1.524 . S
C2395 C2399 1.400 1_655 S
C2396 H2381 0.960 . S
C2396 H2382 0.960 . S
C2396 H2383 0.960 . S
C2396 C2395 1.524 . S
C2397 C2394 1.403 1_455 S
C2397 C2398 1.392 . S
C2397 C2401 1.495 . S
C2398 C2397 1.392 . S
C2398 C2399 1.385 . S
C2398 C2400 1.478 . S
C2399 H2393 0.930 . S
C2399 C2395 1.400 1_455 S
C2399 C2398 1.385 . S
C2400 C2398 1.478 . S
C2400 C2402 1.381 . S
C2400 C2406 1.383 . S
C2401 C2397 1.495 . S
C2401 H2407 0.959 . S
C2401 H2408 0.961 . S
C2401 H2409 0.960 . S
C2402 C2400 1.381 . S
C2402 C2403 1.394 . S
C2402 H2410 0.930 . S
C2403 C2402 1.394 . S
C2403 C2404 1.383 . S
C2403 H2411 0.929 . S
C2404 C2403 1.383 . S
C2404 C2405 1.377 . S
C2405 H2389 0.930 . S
C2405 C2404 1.377 . S
C2405 C2406 1.379 . S
C2406 H2390 0.931 . S
C2406 C2400 1.383 . S
C2406 C2405 1.379 . S
H2407 C2401 0.959 . S
H2408 C2401 0.961 . S
H2409 C2401 0.960 . S
H2410 C2402 0.930 . S
H2411 C2403 0.929 . S
H2412 C2420 0.929 . S
H2413 C2422 0.930 . S
H2414 C2424 0.930 . S
H2415 C2427 0.929 . S
H2416 C2430 0.930 . S
H2417 C2432 0.960 . S
H2418 C2432 0.960 . S
H2419 C2432 0.960 . S
C2420 H2412 0.929 . S
C2420 C2421 1.377 . S
C2420 C2422 1.384 . S
C2421 C2420 1.377 . S
C2421 C2427 1.390 . S
C2422 H2413 0.930 . S
C2422 C2420 1.384 . S
C2422 C2423 1.372 . S
C2423 C2422 1.372 . S
C2423 C2424 1.400 . S
C2423 C2428 1.490 . S
C2424 H2414 0.930 . S
C2424 C2423 1.400 . S
C2424 C2427 1.386 . S
H2425 C2441 0.930 . S
H2426 C2442 0.931 . S
C2427 H2415 0.929 . S
C2427 C2421 1.390 . S
C2427 C2424 1.386 . S
C2428 C2423 1.490 . S
C2428 C2430 1.395 . S
C2428 C2431 1.403 . S
H2429 C2435 0.930 . S
C2430 H2416 0.930 . S
C2430 C2428 1.395 . S
C2430 C2433 1.403 . S
C2431 C2428 1.403 . S
C2431 C2432 1.524 . S
C2431 C2435 1.400 . S
C2432 H2417 0.960 . S
C2432 H2418 0.960 . S
C2432 H2419 0.960 . S
C2432 C2431 1.524 . S
C2433 C2430 1.403 . S
C2433 C2434 1.392 . S
C2433 C2437 1.495 . S
C2434 C2433 1.392 . S
C2434 C2435 1.385 . S
C2434 C2436 1.478 . S
C2435 H2429 0.930 . S
C2435 C2431 1.400 . S
C2435 C2434 1.385 . S
C2436 C2434 1.478 . S
C2436 C2438 1.381 . S
C2436 C2442 1.383 . S
C2437 C2433 1.495 . S
C2437 H2443 0.959 . S
C2437 H2444 0.961 . S
C2437 H2445 0.960 . S
C2438 C2436 1.381 . S
C2438 C2439 1.394 . S
C2438 H2446 0.930 . S
C2439 C2438 1.394 . S
C2439 C2440 1.383 . S
C2439 H2447 0.929 . S
C2440 C2439 1.383 . S
C2440 C2441 1.377 . S
C2441 H2425 0.930 . S
C2441 C2440 1.377 . S
C2441 C2442 1.379 . S
C2442 H2426 0.931 . S
C2442 C2436 1.383 . S
C2442 C2441 1.379 . S
H2443 C2437 0.959 . S
H2444 C2437 0.961 . S
H2445 C2437 0.960 . S
H2446 C2438 0.930 . S
H2447 C2439 0.929 . S
H2448 C2456 0.929 . S
H2449 C2458 0.930 . S
H2450 C2460 0.930 . S
H2451 C2463 0.929 . S
H2452 C2466 0.930 . S
H2453 C2468 0.960 . S
H2454 C2468 0.961 . S
H2455 C2468 0.960 1_455 S
C2456 H2448 0.929 . S
C2456 C2457 1.377 . S
C2456 C2458 1.384 . S
C2457 C2456 1.377 . S
C2457 C2463 1.390 . S
C2458 H2449 0.930 . S
C2458 C2456 1.384 . S
C2458 C2459 1.372 . S
C2459 C2458 1.372 . S
C2459 C2460 1.400 . S
C2459 C2464 1.490 . S
C2460 H2450 0.930 . S
C2460 C2459 1.400 . S
C2460 C2463 1.386 . S
H2461 C2477 0.930 . S
H2462 C2478 0.931 . S
C2463 H2451 0.929 . S
C2463 C2457 1.390 . S
C2463 C2460 1.386 . S
C2464 C2459 1.490 . S
C2464 C2466 1.395 . S
C2464 C2467 1.403 1_455 S
H2465 C2471 0.930 . S
C2466 H2452 0.930 . S
C2466 C2464 1.395 . S
C2466 C2469 1.403 1_455 S
C2467 C2464 1.403 1_655 S
C2467 C2468 1.524 . S
C2467 C2471 1.400 . S
C2468 H2453 0.960 . S
C2468 H2454 0.961 . S
C2468 H2455 0.960 1_655 S
C2468 C2467 1.524 . S
C2469 C2466 1.403 1_655 S
C2469 C2470 1.392 . S
C2469 C2473 1.495 . S
C2470 C2469 1.392 . S
C2470 C2471 1.385 . S
C2470 C2472 1.478 . S
C2471 H2465 0.930 . S
C2471 C2467 1.400 . S
C2471 C2470 1.385 . S
C2472 C2470 1.478 . S
C2472 C2474 1.381 . S
C2472 C2478 1.383 . S
C2473 C2469 1.495 . S
C2473 H2479 0.959 1_655 S
C2473 H2480 0.961 . S
C2473 H2481 0.960 . S
C2474 C2472 1.381 . S
C2474 C2475 1.394 . S
C2474 H2482 0.930 . S
C2475 C2474 1.394 . S
C2475 C2476 1.383 . S
C2475 H2483 0.929 . S
C2476 C2475 1.383 . S
C2476 C2477 1.377 . S
C2477 H2461 0.930 . S
C2477 C2476 1.377 . S
C2477 C2478 1.379 . S
C2478 H2462 0.931 . S
C2478 C2472 1.383 . S
C2478 C2477 1.379 . S
H2479 C2473 0.959 1_455 S
H2480 C2473 0.961 . S
H2481 C2473 0.960 . S
H2482 C2474 0.930 . S
H2483 C2475 0.929 . S
H2484 C2492 0.929 . S
H2485 C2494 0.930 . S
H2486 C2496 0.930 . S
H2487 C2499 0.929 . S
H2488 C2502 0.930 . S
H2489 C2504 0.960 . S
H2490 C2504 0.960 . S
H2491 C2504 0.960 . S
C2492 H2484 0.929 . S
C2492 C2493 1.377 . S
C2492 C2494 1.384 . S
C2493 C2492 1.377 . S
C2493 C2499 1.390 . S
C2494 H2485 0.930 . S
C2494 C2492 1.384 . S
C2494 C2495 1.372 . S
C2495 C2494 1.372 . S
C2495 C2496 1.400 . S
C2495 C2500 1.490 . S
C2496 H2486 0.930 . S
C2496 C2495 1.400 . S
C2496 C2499 1.386 . S
H2497 C2513 0.930 . S
H2498 C2514 0.931 . S
C2499 H2487 0.929 . S
C2499 C2493 1.390 . S
C2499 C2496 1.386 . S
C2500 C2495 1.490 . S
C2500 C2502 1.395 . S
C2500 C2503 1.403 . S
H2501 C2507 0.930 . S
C2502 H2488 0.930 . S
C2502 C2500 1.395 . S
C2502 C2505 1.403 . S
C2503 C2500 1.403 . S
C2503 C2504 1.524 . S
C2503 C2507 1.400 . S
C2504 H2489 0.960 . S
C2504 H2490 0.960 . S
C2504 H2491 0.960 . S
C2504 C2503 1.524 . S
C2505 C2502 1.403 . S
C2505 C2506 1.392 . S
C2505 C2509 1.495 . S
C2506 C2505 1.392 . S
C2506 C2507 1.385 . S
C2506 C2508 1.478 . S
C2507 H2501 0.930 . S
C2507 C2503 1.400 . S
C2507 C2506 1.385 . S
C2508 C2506 1.478 . S
C2508 C2510 1.381 . S
C2508 C2514 1.383 . S
C2509 C2505 1.495 . S
C2509 H2515 0.959 . S
C2509 H2516 0.961 . S
C2509 H2517 0.960 . S
C2510 C2508 1.381 . S
C2510 C2511 1.394 . S
C2510 H2518 0.930 . S
C2511 C2510 1.394 . S
C2511 C2512 1.383 . S
C2511 H2519 0.929 . S
C2512 C2511 1.383 . S
C2512 C2513 1.377 . S
C2513 H2497 0.930 . S
C2513 C2512 1.377 . S
C2513 C2514 1.379 . S
C2514 H2498 0.931 . S
C2514 C2508 1.383 . S
C2514 C2513 1.379 . S
H2515 C2509 0.959 . S
H2516 C2509 0.961 . S
H2517 C2509 0.960 . S
H2518 C2510 0.930 . S
H2519 C2511 0.929 . S
H2520 C2528 0.929 . S
H2521 C2530 0.930 . S
H2522 C2532 0.930 . S
H2523 C2535 0.929 . S
H2524 C2538 0.930 . S
H2525 C2540 0.960 1_455 S
H2526 C2540 0.960 . S
H2527 C2540 0.960 . S
C2528 H2520 0.929 . S
C2528 C2529 1.377 . S
C2528 C2530 1.384 . S
C2529 C2528 1.377 . S
C2529 C2535 1.390 . S
C2530 H2521 0.930 . S
C2530 C2528 1.384 . S
C2530 C2531 1.372 . S
C2531 C2530 1.372 . S
C2531 C2532 1.400 . S
C2531 C2536 1.490 . S
C2532 H2522 0.930 . S
C2532 C2531 1.400 . S
C2532 C2535 1.386 . S
H2533 C2549 0.930 . S
H2534 C2550 0.931 . S
C2535 H2523 0.929 . S
C2535 C2529 1.390 . S
C2535 C2532 1.386 . S
C2536 C2531 1.490 . S
C2536 C2538 1.395 . S
C2536 C2539 1.403 . S
H2537 C2543 0.930 . S
C2538 H2524 0.930 . S
C2538 C2536 1.395 . S
C2538 C2541 1.403 . S
C2539 C2536 1.403 . S
C2539 C2540 1.524 . S
C2539 C2543 1.400 1_655 S
C2540 H2525 0.960 1_655 S
C2540 H2526 0.960 . S
C2540 H2527 0.960 . S
C2540 C2539 1.524 . S
C2541 C2538 1.403 . S
C2541 C2542 1.377 1_655 S
C2541 C2545 1.495 . S
C2542 C2541 1.377 1_455 S
C2542 C2543 1.388 . S
C2542 C2544 1.490 . S
C2543 H2537 0.930 . S
C2543 C2539 1.400 1_455 S
C2543 C2542 1.388 . S
C2544 C2542 1.490 . S
C2544 C2546 1.381 . S
C2544 C2550 1.383 . S
C2545 C2541 1.495 . S
C2545 H2551 0.959 . S
C2545 H2552 0.961 . S
C2545 H2553 0.960 . S
C2546 C2544 1.381 . S
C2546 C2547 1.394 . S
C2546 H2554 0.930 . S
C2547 C2546 1.394 . S
C2547 C2548 1.383 . S
C2547 H2555 0.929 . S
C2548 C2547 1.383 . S
C2548 C2549 1.377 . S
C2549 H2533 0.930 . S
C2549 C2548 1.377 . S
C2549 C2550 1.379 . S
C2550 H2534 0.931 . S
C2550 C2544 1.383 . S
C2550 C2549 1.379 . S
H2551 C2545 0.959 . S
H2552 C2545 0.961 . S
H2553 C2545 0.960 . S
H2554 C2546 0.930 . S
H2555 C2547 0.929 . S
H2556 C2564 0.929 . S
H2557 C2566 0.930 . S
H2558 C2568 0.930 . S
H2559 C2571 0.929 . S
H2560 C2574 0.930 . S
H2561 C2576 0.960 . S
H2562 C2576 0.960 . S
H2563 C2576 0.960 . S
C2564 H2556 0.929 . S
C2564 C2565 1.377 . S
C2564 C2566 1.384 . S
C2565 C2564 1.377 . S
C2565 C2571 1.390 . S
C2566 H2557 0.930 . S
C2566 C2564 1.384 . S
C2566 C2567 1.372 . S
C2567 C2566 1.372 . S
C2567 C2568 1.400 . S
C2567 C2572 1.490 . S
C2568 H2558 0.930 . S
C2568 C2567 1.400 . S
C2568 C2571 1.386 . S
H2569 C2585 0.930 . S
H2570 C2586 0.931 . S
C2571 H2559 0.929 . S
C2571 C2565 1.390 . S
C2571 C2568 1.386 . S
C2572 C2567 1.490 . S
C2572 C2574 1.395 . S
C2572 C2575 1.403 . S
H2573 C2579 0.930 . S
C2574 H2560 0.930 . S
C2574 C2572 1.395 . S
C2574 C2577 1.403 . S
C2575 C2572 1.403 . S
C2575 C2576 1.524 . S
C2575 C2579 1.400 . S
C2576 H2561 0.960 . S
C2576 H2562 0.960 . S
C2576 H2563 0.960 . S
C2576 C2575 1.524 . S
C2577 C2574 1.403 . S
C2577 C2578 1.392 1_554 S
C2577 C2581 1.495 1_554 S
C2578 C2577 1.392 1_556 S
C2578 C2579 1.385 1_556 S
C2578 C2580 1.478 . S
C2579 H2573 0.930 . S
C2579 C2575 1.400 . S
C2579 C2578 1.385 1_554 S
C2580 C2578 1.478 . S
C2580 C2582 1.381 . S
C2580 C2586 1.383 . S
C2581 C2577 1.495 1_556 S
C2581 H2587 0.959 . S
C2581 H2588 0.961 . S
C2581 H2589 0.960 . S
C2582 C2580 1.381 . S
C2582 C2583 1.394 . S
C2582 H2590 0.930 . S
C2583 C2582 1.394 . S
C2583 C2584 1.383 . S
C2583 H2591 0.929 . S
C2584 C2583 1.383 . S
C2584 C2585 1.377 . S
C2585 H2569 0.930 . S
C2585 C2584 1.377 . S
C2585 C2586 1.379 . S
C2586 H2570 0.931 . S
C2586 C2580 1.383 . S
C2586 C2585 1.379 . S
H2587 C2581 0.959 . S
H2588 C2581 0.961 . S
H2589 C2581 0.960 . S
H2590 C2582 0.930 . S
H2591 C2583 0.929 . S
H2592 C2600 0.929 . S
H2593 C2602 0.930 . S
H2594 C2604 0.930 . S
H2595 C2607 0.929 . S
H2596 C2610 0.930 . S
H2597 C2612 0.960 . S
H2598 C2612 0.960 . S
H2599 C2612 0.960 . S
C2600 H2592 0.929 . S
C2600 C2601 1.377 . S
C2600 C2602 1.384 . S
C2601 C2600 1.377 . S
C2601 C2607 1.390 . S
C2602 H2593 0.930 . S
C2602 C2600 1.384 . S
C2602 C2603 1.372 . S
C2603 C2602 1.372 . S
C2603 C2604 1.400 . S
C2603 C2608 1.490 . S
C2604 H2594 0.930 . S
C2604 C2603 1.400 . S
C2604 C2607 1.386 . S
H2605 C2621 0.930 . S
H2606 C2622 0.931 . S
C2607 H2595 0.929 . S
C2607 C2601 1.390 . S
C2607 C2604 1.386 . S
C2608 C2603 1.490 . S
C2608 C2610 1.395 . S
C2608 C2611 1.403 . S
H2609 C2615 0.930 . S
C2610 H2596 0.930 . S
C2610 C2608 1.395 . S
C2610 C2613 1.403 . S
C2611 C2608 1.403 . S
C2611 C2612 1.524 . S
C2611 C2615 1.400 . S
C2612 H2597 0.960 . S
C2612 H2598 0.960 . S
C2612 H2599 0.960 . S
C2612 C2611 1.524 . S
C2613 C2610 1.403 . S
C2613 C2614 1.392 . S
C2613 C2617 1.495 . S
C2614 C2613 1.392 . S
C2614 C2615 1.385 . S
C2614 C2616 1.478 . S
C2615 H2609 0.930 . S
C2615 C2611 1.400 . S
C2615 C2614 1.385 . S
C2616 C2614 1.478 . S
C2616 C2618 1.381 . S
C2616 C2622 1.383 . S
C2617 C2613 1.495 . S
C2617 H2623 0.959 . S
C2617 H2624 0.961 . S
C2617 H2625 0.960 . S
C2618 C2616 1.381 . S
C2618 C2619 1.394 . S
C2618 H2626 0.930 . S
C2619 C2618 1.394 . S
C2619 C2620 1.383 . S
C2619 H2627 0.929 . S
C2620 C2619 1.383 . S
C2620 C2621 1.377 . S
C2621 H2605 0.930 . S
C2621 C2620 1.377 . S
C2621 C2622 1.379 . S
C2622 H2606 0.931 . S
C2622 C2616 1.383 . S
C2622 C2621 1.379 . S
H2623 C2617 0.959 . S
H2624 C2617 0.961 . S
H2625 C2617 0.960 . S
H2626 C2618 0.930 . S
H2627 C2619 0.929 . S
H2628 C2636 0.929 . S
H2629 C2638 0.930 . S
H2630 C2640 0.930 . S
H2631 C2643 0.929 . S
H2632 C2646 0.930 . S
H2633 C2648 0.960 . S
H2634 C2648 0.960 . S
H2635 C2648 0.960 . S
C2636 H2628 0.929 . S
C2636 C2637 1.377 . S
C2636 C2638 1.384 . S
C2637 C2636 1.377 . S
C2637 C2643 1.390 . S
C2638 H2629 0.930 . S
C2638 C2636 1.384 . S
C2638 C2639 1.372 . S
C2639 C2638 1.372 . S
C2639 C2640 1.400 . S
C2639 C2644 1.490 . S
C2640 H2630 0.930 . S
C2640 C2639 1.400 . S
C2640 C2643 1.386 . S
H2641 C2657 0.930 . S
H2642 C2658 0.931 . S
C2643 H2631 0.929 . S
C2643 C2637 1.390 . S
C2643 C2640 1.386 . S
C2644 C2639 1.490 . S
C2644 C2646 1.395 . S
C2644 C2647 1.403 . S
H2645 C2651 0.930 . S
C2646 H2632 0.930 . S
C2646 C2644 1.395 . S
C2646 C2649 1.403 . S
C2647 C2644 1.403 . S
C2647 C2648 1.524 . S
C2647 C2651 1.400 . S
C2648 H2633 0.960 . S
C2648 H2634 0.960 . S
C2648 H2635 0.960 . S
C2648 C2647 1.524 . S
C2649 C2646 1.403 . S
C2649 C2650 1.392 . S
C2649 C2653 1.495 . S
C2650 C2649 1.392 . S
C2650 C2651 1.385 . S
C2650 C2652 1.478 . S
C2651 H2645 0.930 . S
C2651 C2647 1.400 . S
C2651 C2650 1.385 . S
C2652 C2650 1.478 . S
C2652 C2654 1.381 . S
C2652 C2658 1.383 . S
C2653 C2649 1.495 . S
C2653 H2659 0.959 . S
C2653 H2660 0.961 . S
C2653 H2661 0.960 . S
C2654 C2652 1.381 . S
C2654 C2655 1.394 . S
C2654 H2662 0.930 . S
C2655 C2654 1.394 . S
C2655 C2656 1.383 . S
C2655 H2663 0.929 . S
C2656 C2655 1.383 . S
C2656 C2657 1.377 . S
C2657 H2641 0.930 . S
C2657 C2656 1.377 . S
C2657 C2658 1.379 . S
C2658 H2642 0.931 . S
C2658 C2652 1.383 . S
C2658 C2657 1.379 . S
H2659 C2653 0.959 . S
H2660 C2653 0.961 . S
H2661 C2653 0.960 . S
H2662 C2654 0.930 . S
H2663 C2655 0.929 . S
H2664 C2672 0.929 . S
H2665 C2674 0.930 . S
H2666 C2676 0.930 . S
H2667 C2679 0.929 . S
H2668 C2682 0.930 . S
H2669 C2684 0.960 . S
H2670 C2684 0.960 . S
H2671 C2684 0.960 . S
C2672 H2664 0.929 . S
C2672 C2673 1.377 . S
C2672 C2674 1.384 . S
C2673 C2672 1.377 . S
C2673 C2679 1.390 . S
C2674 H2665 0.930 . S
C2674 C2672 1.384 . S
C2674 C2675 1.372 . S
C2675 C2674 1.372 . S
C2675 C2676 1.400 . S
C2675 C2680 1.490 . S
C2676 H2666 0.930 . S
C2676 C2675 1.400 . S
C2676 C2679 1.386 . S
H2677 C2693 0.930 . S
H2678 C2694 0.931 . S
C2679 H2667 0.929 . S
C2679 C2673 1.390 . S
C2679 C2676 1.386 . S
C2680 C2675 1.490 . S
C2680 C2682 1.395 . S
C2680 C2683 1.403 . S
H2681 C2687 0.930 . S
C2682 H2668 0.930 . S
C2682 C2680 1.395 . S
C2682 C2685 1.403 . S
C2683 C2680 1.403 . S
C2683 C2684 1.524 . S
C2683 C2687 1.400 . S
C2684 H2669 0.960 . S
C2684 H2670 0.960 . S
C2684 H2671 0.960 . S
C2684 C2683 1.524 . S
C2685 C2682 1.403 . S
C2685 C2686 1.392 . S
C2685 C2689 1.495 . S
C2686 C2685 1.392 . S
C2686 C2687 1.385 . S
C2686 C2688 1.478 . S
C2687 H2681 0.930 . S
C2687 C2683 1.400 . S
C2687 C2686 1.385 . S
C2688 C2686 1.478 . S
C2688 C2690 1.381 . S
C2688 C2694 1.383 . S
C2689 C2685 1.495 . S
C2689 H2695 0.959 . S
C2689 H2696 0.961 . S
C2689 H2697 0.960 . S
C2690 C2688 1.381 . S
C2690 C2691 1.394 . S
C2690 H2698 0.930 . S
C2691 C2690 1.394 . S
C2691 C2692 1.383 . S
C2691 H2699 0.929 . S
C2692 C2691 1.383 . S
C2692 C2693 1.377 . S
C2693 H2677 0.930 . S
C2693 C2692 1.377 . S
C2693 C2694 1.379 . S
C2694 H2678 0.931 . S
C2694 C2688 1.383 . S
C2694 C2693 1.379 . S
H2695 C2689 0.959 . S
H2696 C2689 0.961 . S
H2697 C2689 0.960 . S
H2698 C2690 0.930 . S
H2699 C2691 0.929 . S
H2700 C2708 0.929 . S
H2701 C2710 0.930 . S
H2702 C2712 0.930 . S
H2703 C2715 0.929 . S
H2704 C2718 0.930 . S
H2705 C2720 0.960 . S
H2706 C2720 0.960 . S
H2707 C2720 0.960 . S
C2708 H2700 0.929 . S
C2708 C2709 1.377 . S
C2708 C2710 1.384 . S
C2709 C2708 1.377 . S
C2709 C2715 1.390 . S
C2710 H2701 0.930 . S
C2710 C2708 1.384 . S
C2710 C2711 1.372 . S
C2711 C2710 1.372 . S
C2711 C2712 1.400 . S
C2711 C2716 1.490 . S
C2712 H2702 0.930 . S
C2712 C2711 1.400 . S
C2712 C2715 1.386 . S
H2713 C2729 0.930 . S
H2714 C2730 0.931 . S
C2715 H2703 0.929 . S
C2715 C2709 1.390 . S
C2715 C2712 1.386 . S
C2716 C2711 1.490 . S
C2716 C2718 1.395 . S
C2716 C2719 1.403 . S
H2717 C2723 0.930 . S
C2718 H2704 0.930 . S
C2718 C2716 1.395 . S
C2718 C2721 1.403 . S
C2719 C2716 1.403 . S
C2719 C2720 1.524 . S
C2719 C2723 1.400 . S
C2720 H2705 0.960 . S
C2720 H2706 0.960 . S
C2720 H2707 0.960 . S
C2720 C2719 1.524 . S
C2721 C2718 1.403 . S
C2721 C2722 1.392 . S
C2721 C2725 1.495 . S
C2722 C2721 1.392 . S
C2722 C2723 1.385 . S
C2722 C2724 1.478 . S
C2723 H2717 0.930 . S
C2723 C2719 1.400 . S
C2723 C2722 1.385 . S
C2724 C2722 1.478 . S
C2724 C2726 1.381 . S
C2724 C2730 1.383 . S
C2725 C2721 1.495 . S
C2725 H2731 0.959 . S
C2725 H2732 0.961 . S
C2725 H2733 0.960 . S
C2726 C2724 1.381 . S
C2726 C2727 1.394 . S
C2726 H2734 0.930 . S
C2727 C2726 1.394 . S
C2727 C2728 1.383 . S
C2727 H2735 0.929 . S
C2728 C2727 1.383 . S
C2728 C2729 1.377 . S
C2729 H2713 0.930 . S
C2729 C2728 1.377 . S
C2729 C2730 1.379 . S
C2730 H2714 0.931 . S
C2730 C2724 1.383 . S
C2730 C2729 1.379 . S
H2731 C2725 0.959 . S
H2732 C2725 0.961 . S
H2733 C2725 0.960 . S
H2734 C2726 0.930 . S
H2735 C2727 0.929 . S
H2736 C2744 0.929 . S
H2737 C2746 0.930 . S
H2738 C2748 0.930 . S
H2739 C2751 0.929 . S
H2740 C2754 0.930 . S
H2741 C2756 0.960 . S
H2742 C2756 0.960 . S
H2743 C2756 0.960 . S
C2744 H2736 0.929 . S
C2744 C2745 1.377 . S
C2744 C2746 1.384 . S
C2745 C2744 1.377 . S
C2745 C2751 1.390 . S
C2746 H2737 0.930 . S
C2746 C2744 1.384 . S
C2746 C2747 1.372 . S
C2747 C2746 1.372 . S
C2747 C2748 1.400 . S
C2747 C2752 1.490 . S
C2748 H2738 0.930 . S
C2748 C2747 1.400 . S
C2748 C2751 1.386 . S
H2749 C2765 0.930 . S
H2750 C2766 0.931 . S
C2751 H2739 0.929 . S
C2751 C2745 1.390 . S
C2751 C2748 1.386 . S
C2752 C2747 1.490 . S
C2752 C2754 1.395 1_655 S
C2752 C2755 1.403 . S
H2753 C2759 0.930 . S
C2754 H2740 0.930 . S
C2754 C2752 1.395 1_455 S
C2754 C2757 1.403 . S
C2755 C2752 1.403 . S
C2755 C2756 1.524 . S
C2755 C2759 1.400 1_655 S
C2756 H2741 0.960 . S
C2756 H2742 0.960 . S
C2756 H2743 0.960 . S
C2756 C2755 1.524 . S
C2757 C2754 1.403 . S
C2757 C2758 1.392 . S
C2757 C2761 1.495 . S
C2758 C2757 1.392 . S
C2758 C2759 1.385 . S
C2758 C2760 1.478 . S
C2759 H2753 0.930 . S
C2759 C2755 1.400 1_455 S
C2759 C2758 1.385 . S
C2760 C2758 1.478 . S
C2760 C2762 1.381 . S
C2760 C2766 1.383 . S
C2761 C2757 1.495 . S
C2761 H2767 0.959 . S
C2761 H2768 0.961 . S
C2761 H2769 0.960 . S
C2762 C2760 1.381 . S
C2762 C2763 1.394 . S
C2762 H2770 0.930 . S
C2763 C2762 1.394 . S
C2763 C2764 1.383 . S
C2763 H2771 0.929 . S
C2764 C2763 1.383 . S
C2764 C2765 1.377 . S
C2765 H2749 0.930 . S
C2765 C2764 1.377 . S
C2765 C2766 1.379 . S
C2766 H2750 0.931 . S
C2766 C2760 1.383 . S
C2766 C2765 1.379 . S
H2767 C2761 0.959 . S
H2768 C2761 0.961 . S
H2769 C2761 0.960 . S
H2770 C2762 0.930 . S
H2771 C2763 0.929 . S
H2772 C2780 0.929 . S
H2773 C2782 0.930 . S
H2774 C2784 0.930 1_556 S
H2775 C2787 0.929 . S
H2776 C2790 0.930 . S
H2777 C2792 0.960 . S
H2778 C2792 0.960 . S
H2779 C2792 0.960 . S
C2780 H2772 0.929 . S
C2780 C2781 1.377 . S
C2780 C2782 1.384 . S
C2781 C2780 1.377 . S
C2781 C2787 1.390 . S
C2782 H2773 0.930 . S
C2782 C2780 1.384 . S
C2782 C2783 1.372 . S
C2783 C2782 1.372 . S
C2783 C2784 1.400 . S
C2783 C2788 1.490 . S
C2784 H2774 0.930 1_554 S
C2784 C2783 1.400 . S
C2784 C2787 1.386 . S
H2785 C2801 0.930 . S
H2786 C2802 0.931 . S
C2787 H2775 0.929 . S
C2787 C2781 1.390 . S
C2787 C2784 1.386 . S
C2788 C2783 1.490 . S
C2788 C2790 1.395 . S
C2788 C2791 1.403 1_554 S
H2789 C2795 0.930 . S
C2790 H2776 0.930 . S
C2790 C2788 1.395 . S
C2790 C2793 1.403 1_554 S
C2791 C2788 1.403 1_556 S
C2791 C2792 1.524 . S
C2791 C2795 1.400 . S
C2792 H2777 0.960 . S
C2792 H2778 0.960 . S
C2792 H2779 0.960 . S
C2792 C2791 1.524 . S
C2793 C2790 1.403 1_556 S
C2793 C2794 1.392 . S
C2793 C2797 1.495 . S
C2794 C2793 1.392 . S
C2794 C2795 1.385 . S
C2794 C2796 1.478 . S
C2795 H2789 0.930 . S
C2795 C2791 1.400 . S
C2795 C2794 1.385 . S
C2796 C2794 1.478 . S
C2796 C2798 1.381 . S
C2796 C2802 1.383 . S
C2797 C2793 1.495 . S
C2797 H2803 0.959 1_556 S
C2797 H2804 0.961 . S
C2797 H2805 0.960 . S
C2798 C2796 1.381 . S
C2798 C2799 1.394 . S
C2798 H2806 0.930 . S
C2799 C2798 1.394 . S
C2799 C2800 1.383 . S
C2799 H2807 0.929 . S
C2800 C2799 1.383 . S
C2800 C2801 1.377 . S
C2801 H2785 0.930 . S
C2801 C2800 1.377 . S
C2801 C2802 1.379 . S
C2802 H2786 0.931 . S
C2802 C2796 1.383 . S
C2802 C2801 1.379 . S
H2803 C2797 0.959 1_554 S
H2804 C2797 0.961 . S
H2805 C2797 0.960 . S
H2806 C2798 0.930 . S
H2807 C2799 0.929 . S
H2808 C2816 0.929 . S
H2809 C2818 0.930 . S
H2810 C2820 0.930 . S
H2811 C2823 0.929 . S
H2812 C2826 0.930 . S
H2813 C2828 0.960 . S
H2814 C2828 0.960 . S
H2815 C2828 0.960 . S
C2816 H2808 0.929 . S
C2816 C2817 1.377 . S
C2816 C2818 1.384 . S
C2817 C2816 1.377 . S
C2817 C2823 1.390 . S
C2818 H2809 0.930 . S
C2818 C2816 1.384 . S
C2818 C2819 1.372 . S
C2819 C2818 1.372 . S
C2819 C2820 1.400 . S
C2819 C2824 1.490 . S
C2820 H2810 0.930 . S
C2820 C2819 1.400 . S
C2820 C2823 1.386 . S
H2821 C2837 0.930 . S
H2822 C2838 0.931 . S
C2823 H2811 0.929 . S
C2823 C2817 1.390 . S
C2823 C2820 1.386 . S
C2824 C2819 1.490 . S
C2824 C2826 1.395 . S
C2824 C2827 1.403 . S
H2825 C2831 0.930 . S
C2826 H2812 0.930 . S
C2826 C2824 1.395 . S
C2826 C2829 1.403 1_565 S
C2827 C2824 1.403 . S
C2827 C2828 1.524 . S
C2827 C2831 1.400 . S
C2828 H2813 0.960 . S
C2828 H2814 0.960 . S
C2828 H2815 0.960 . S
C2828 C2827 1.524 . S
C2829 C2826 1.403 1_545 S
C2829 C2830 1.392 . S
C2829 C2833 1.495 . S
C2830 C2829 1.392 . S
C2830 C2831 1.385 1_545 S
C2830 C2832 1.478 . S
C2831 H2825 0.930 . S
C2831 C2827 1.400 . S
C2831 C2830 1.385 1_565 S
C2832 C2830 1.478 . S
C2832 C2834 1.381 . S
C2832 C2838 1.383 . S
C2833 C2829 1.495 . S
C2833 H2839 0.959 . S
C2833 H2840 0.961 . S
C2833 H2841 0.960 . S
C2834 C2832 1.381 . S
C2834 C2835 1.394 . S
C2834 H2842 0.930 . S
C2835 C2834 1.394 . S
C2835 C2836 1.383 . S
C2835 H2843 0.929 . S
C2836 C2835 1.383 . S
C2836 C2837 1.377 . S
C2837 H2821 0.930 . S
C2837 C2836 1.377 . S
C2837 C2838 1.379 . S
C2838 H2822 0.931 . S
C2838 C2832 1.383 . S
C2838 C2837 1.379 . S
H2839 C2833 0.959 . S
H2840 C2833 0.961 . S
H2841 C2833 0.960 . S
H2842 C2834 0.930 . S
H2843 C2835 0.929 . S
H2844 C2852 0.929 . S
H2845 C2854 0.930 . S
H2846 C2856 0.930 . S
H2847 C2859 0.929 . S
H2848 C2862 0.930 . S
H2849 C2864 0.960 . S
H2850 C2864 0.960 . S
H2851 C2864 0.960 . S
C2852 H2844 0.929 . S
C2852 C2853 1.377 . S
C2852 C2854 1.384 . S
C2853 C2852 1.377 . S
C2853 C2859 1.390 . S
C2854 H2845 0.930 . S
C2854 C2852 1.384 . S
C2854 C2855 1.372 . S
C2855 C2854 1.372 . S
C2855 C2856 1.400 . S
C2855 C2860 1.490 . S
C2856 H2846 0.930 . S
C2856 C2855 1.400 . S
C2856 C2859 1.386 . S
H2857 C2873 0.930 . S
H2858 C2874 0.931 . S
C2859 H2847 0.929 . S
C2859 C2853 1.390 . S
C2859 C2856 1.386 . S
C2860 C2855 1.490 . S
C2860 C2862 1.395 . S
C2860 C2863 1.403 . S
H2861 C2867 0.930 . S
C2862 H2848 0.930 . S
C2862 C2860 1.395 . S
C2862 C2865 1.403 . S
C2863 C2860 1.403 . S
C2863 C2864 1.524 . S
C2863 C2867 1.400 . S
C2864 H2849 0.960 . S
C2864 H2850 0.960 . S
C2864 H2851 0.960 . S
C2864 C2863 1.524 . S
C2865 C2862 1.403 . S
C2865 C2866 1.392 . S
C2865 C2869 1.495 . S
C2866 C2865 1.392 . S
C2866 C2867 1.385 . S
C2866 C2868 1.478 . S
C2867 H2861 0.930 . S
C2867 C2863 1.400 . S
C2867 C2866 1.385 . S
C2868 C2866 1.478 . S
C2868 C2870 1.381 . S
C2868 C2874 1.383 . S
C2869 C2865 1.495 . S
C2869 H2875 0.959 . S
C2869 H2876 0.961 . S
C2869 H2877 0.960 . S
C2870 C2868 1.381 . S
C2870 C2871 1.394 . S
C2870 H2878 0.930 . S
C2871 C2870 1.394 . S
C2871 C2872 1.383 . S
C2871 H2879 0.929 . S
C2872 C2871 1.383 . S
C2872 C2873 1.377 . S
C2873 H2857 0.930 . S
C2873 C2872 1.377 . S
C2873 C2874 1.379 . S
C2874 H2858 0.931 . S
C2874 C2868 1.383 . S
C2874 C2873 1.379 . S
H2875 C2869 0.959 . S
H2876 C2869 0.961 . S
H2877 C2869 0.960 . S
H2878 C2870 0.930 . S
H2879 C2871 0.929 . S
H2880 C2888 0.929 . S
H2881 C2890 0.930 . S
H2882 C2892 0.930 . S
H2883 C2895 0.929 . S
H2884 C2898 0.930 . S
H2885 C2900 0.960 . S
H2886 C2900 0.960 . S
H2887 C2900 0.960 . S
C2888 H2880 0.929 . S
C2888 C2889 1.377 . S
C2888 C2890 1.384 . S
C2889 C2888 1.377 . S
C2889 C2895 1.390 . S
C2890 H2881 0.930 . S
C2890 C2888 1.384 . S
C2890 C2891 1.372 . S
C2891 C2890 1.372 . S
C2891 C2892 1.400 . S
C2891 C2896 1.490 . S
C2892 H2882 0.930 . S
C2892 C2891 1.400 . S
C2892 C2895 1.386 . S
H2893 C2909 0.930 . S
H2894 C2910 0.931 . S
C2895 H2883 0.929 . S
C2895 C2889 1.390 . S
C2895 C2892 1.386 . S
C2896 C2891 1.490 . S
C2896 C2898 1.395 . S
C2896 C2899 1.403 . S
H2897 C2903 0.927 1_565 S
C2898 H2884 0.930 . S
C2898 C2896 1.395 . S
C2898 C2901 1.403 . S
C2899 C2896 1.403 . S
C2899 C2900 1.524 . S
C2899 C2903 1.403 . S
C2900 H2885 0.960 . S
C2900 H2886 0.960 . S
C2900 H2887 0.960 . S
C2900 C2899 1.524 . S
C2901 C2898 1.403 . S
C2901 C2902 1.392 1_545 S
C2901 C2905 1.495 . S
C2902 C2901 1.392 1_565 S
C2902 C2903 1.385 1_565 S
C2902 C2904 1.478 . S
C2903 H2897 0.927 1_545 S
C2903 C2899 1.403 . S
C2903 C2902 1.385 1_545 S
C2904 C2902 1.478 . S
C2904 C2906 1.381 . S
C2904 C2910 1.383 . S
C2905 C2901 1.495 . S
C2905 H2911 0.959 . S
C2905 H2912 0.961 . S
C2905 H2913 0.960 1_545 S
C2906 C2904 1.381 . S
C2906 C2907 1.394 . S
C2906 H2914 0.930 . S
C2907 C2906 1.394 . S
C2907 C2908 1.383 . S
C2907 H2915 0.929 . S
C2908 C2907 1.383 . S
C2908 C2909 1.377 . S
C2909 H2893 0.930 . S
C2909 C2908 1.377 . S
C2909 C2910 1.379 . S
C2910 H2894 0.931 . S
C2910 C2904 1.383 . S
C2910 C2909 1.379 . S
H2911 C2905 0.959 . S
H2912 C2905 0.961 . S
H2913 C2905 0.960 1_565 S
H2914 C2906 0.930 . S
H2915 C2907 0.929 . S
H2916 C2924 0.929 . S
H2917 C2926 0.930 . S
H2918 C2928 0.930 . S
H2919 C2931 0.929 . S
H2920 C2934 0.930 . S
H2921 C2936 0.960 . S
H2922 C2936 0.960 . S
H2923 C2936 0.960 . S
C2924 H2916 0.929 . S
C2924 C2925 1.377 . S
C2924 C2926 1.384 . S
C2925 C2924 1.377 . S
C2925 C2931 1.390 . S
C2926 H2917 0.930 . S
C2926 C2924 1.384 . S
C2926 C2927 1.372 . S
C2927 C2926 1.372 . S
C2927 C2928 1.400 . S
C2927 C2932 1.490 . S
C2928 H2918 0.930 . S
C2928 C2927 1.400 . S
C2928 C2931 1.386 . S
H2929 C2945 0.930 . S
H2930 C2946 0.931 . S
C2931 H2919 0.929 . S
C2931 C2925 1.390 . S
C2931 C2928 1.386 . S
C2932 C2927 1.490 . S
C2932 C2934 1.395 . S
C2932 C2935 1.403 . S
H2933 C2939 0.930 . S
C2934 H2920 0.930 . S
C2934 C2932 1.395 . S
C2934 C2937 1.403 . S
C2935 C2932 1.403 . S
C2935 C2936 1.524 . S
C2935 C2939 1.400 . S
C2936 H2921 0.960 . S
C2936 H2922 0.960 . S
C2936 H2923 0.960 . S
C2936 C2935 1.524 . S
C2937 C2934 1.403 . S
C2937 C2938 1.392 . S
C2937 C2941 1.495 . S
C2938 C2937 1.392 . S
C2938 C2939 1.385 . S
C2938 C2940 1.478 . S
C2939 H2933 0.930 . S
C2939 C2935 1.400 . S
C2939 C2938 1.385 . S
C2940 C2938 1.478 . S
C2940 C2942 1.381 . S
C2940 C2946 1.383 . S
C2941 C2937 1.495 . S
C2941 H2947 0.959 . S
C2941 H2948 0.961 . S
C2941 H2949 0.960 . S
C2942 C2940 1.381 . S
C2942 C2943 1.394 . S
C2942 H2950 0.930 . S
C2943 C2942 1.394 . S
C2943 C2944 1.383 . S
C2943 H2951 0.929 . S
C2944 C2943 1.383 . S
C2944 C2945 1.377 . S
C2945 H2929 0.930 . S
C2945 C2944 1.377 . S
C2945 C2946 1.379 . S
C2946 H2930 0.931 . S
C2946 C2940 1.383 . S
C2946 C2945 1.379 . S
H2947 C2941 0.959 . S
H2948 C2941 0.961 . S
H2949 C2941 0.960 . S
H2950 C2942 0.930 . S
H2951 C2943 0.929 . S
C801 N431 1.542 . S
C820 C18 1.532 . S
C837 C51 1.505 . S
C856 N464 1.520 . S
C873 C84 1.508 . S
C892 N497 1.533 1_556 S
C909 N398 1.536 . S
C928 C117 1.485 . S
C945 N365 1.538 . S
C964 C150 1.492 . S
C981 N266 1.540 . S
C1000 C183 1.520 . S
C1017 C216 1.508 . S
C1036 N299 1.531 1_554 S
C1053 N332 1.537 . S
C1072 C249 1.497 . S
C1089 C282 1.509 . S
C1108 N35 1.535 . S
C1125 C315 1.510 . S
C1144 N68 1.539 . S
C1161 C348 1.506 . S
C1180 N101 1.522 1_455 S
C1197 N2 1.536 . S
C1216 C381 1.485 . S
C1233 N233 1.537 1_655 S
C1252 C414 1.486 . S
C1269 C447 1.506 . S
C1288 N134 1.519 . S
C1305 C480 1.516 . S
C1324 N167 1.552 . S
C1341 N200 1.542 . S
C1360 C513 1.524 . S
C1377 N728 1.542 . S
C1396 C546 1.527 . S
C1413 C579 1.505 . S
C1432 N596 1.519 1_545 S
C1449 C612 1.509 . S
C1468 N629 1.536 . S
C1485 N662 1.536 1_565 S
C1504 C645 1.490 . S
C1521 C678 1.511 . S
C1540 N563 1.543 . S
C1557 N761 1.541 . S
C1576 C711 1.525 . S
C1593 C744 1.513 . S
C1612 N695 1.539 . S
C1629 N530 1.536 . S
C1648 C777 1.483 . S
C1665 N541 0.779 . S
C1684 C7 0.782 . S
C1701 N772 0.768 . S
C1720 C40 0.810 . S
C1737 C73 0.790 . S
C1756 N706 0.721 . S
C1773 N739 0.788 . S
C1792 C106 0.745 . S
C1809 N574 0.770 . S
C1828 C139 0.809 . S
C1845 N607 0.790 . S
C1864 C172 0.740 . S
C1881 N640 0.789 . S
C1900 C205 0.744 . S
C1917 C238 0.777 . S
C1936 N673 0.804 . S
C1953 C271 0.784 . S
C1972 N13 0.772 . S
C1989 C304 0.776 . S
C2008 N46 0.822 . S
C2025 C337 0.790 . S
C2044 N79 0.718 . S
C2061 C370 0.779 . S
C2080 N112 0.806 . S
C2097 C403 0.783 . S
C2116 N145 0.773 . S
C2133 N178 0.772 . S
C2152 C436 0.796 . S
C2169 N211 0.789 . S
C2188 C469 0.747 . S
C2205 C502 0.777 . S
C2224 N244 0.818 . S
C2241 N277 0.777 . S
C2260 C535 0.788 . S
C2277 N409 0.771 . S
C2296 C568 0.808 . S
C2313 N442 0.769 . S
C2332 C601 0.813 . S
C2349 N475 0.787 . S
C2368 C634 0.753 . S
C2385 C667 0.790 . S
C2404 N508 0.718 . S
C2421 C700 0.790 . S
C2440 N343 0.723 . S
C2457 C733 0.774 . S
C2476 N376 0.828 . S
C2493 N310 0.786 . S
C2512 C766 0.750 . S
C2529 C681 0.995 . S
C2548 C21 0.984 . S
C2565 C54 1.005 . S
C2584 C582 1.024 . S
C2601 C615 0.992 . S
C2620 C87 0.964 . S
C2637 C120 0.997 . S
C2656 C648 0.991 . S
C2673 C780 0.995 . S
C2692 C153 0.980 . S
C2709 C714 0.997 . S
C2728 C186 0.988 . S
C2745 C219 1.001 . S
C2764 C747 1.011 . S
C2781 C549 0.992 . S
C2800 C252 0.964 . S
C2817 C516 0.997 . S
C2836 C285 0.984 . S
C2853 C417 1.003 . S
C2872 C318 1.018 . S
C2889 C450 0.993 . S
C2908 C351 0.972 . S
C2925 C483 0.996 . S
C2944 C384 0.980 . S
