# Generated by pormake.
# Topology ofo, (3)-cn, num edge types: 1
# Building blocks:
#     Node 0, Type 0, BuildingBlock: WUSLED_clean_sbu_0, # of connection points: 3
#     Node 1, Type 0, BuildingBlock: WUSLED_clean_sbu_0, # of connection points: 3
#     Node 2, Type 0, BuildingBlock: WUSLED_clean_sbu_0, # of connection points: 3
#     Node 3, Type 0, BuildingBlock: WUSLED_clean_sbu_0, # of connection points: 3
#     Node 4, Type 0, BuildingBlock: WUSLED_clean_sbu_0, # of connection points: 3
#     Node 5, Type 0, BuildingBlock: WUSLED_clean_sbu_0, # of connection points: 3
#     Node 6, Type 0, BuildingBlock: WUSLED_clean_sbu_0, # of connection points: 3
#     Node 7, Type 0, BuildingBlock: WUSLED_clean_sbu_0, # of connection points: 3
#     Node 8, Type 0, BuildingBlock: WUSLED_clean_sbu_0, # of connection points: 3
#     Node 9, Type 0, BuildingBlock: WUSLED_clean_sbu_0, # of connection points: 3
#     Node 10, Type 0, BuildingBlock: WUSLED_clean_sbu_0, # of connection points: 3
#     Node 11, Type 0, BuildingBlock: WUSLED_clean_sbu_0, # of connection points: 3
#     Edge 12, Type (0, 0), BuildingBlock: EZIPEK_clean_linker_0, # of connection points: 2
#     Edge 13, Type (0, 0), BuildingBlock: EZIPEK_clean_linker_0, # of connection points: 2
#     Edge 14, Type (0, 0), BuildingBlock: EZIPEK_clean_linker_0, # of connection points: 2
#     Edge 15, Type (0, 0), BuildingBlock: EZIPEK_clean_linker_0, # of connection points: 2
#     Edge 16, Type (0, 0), BuildingBlock: EZIPEK_clean_linker_0, # of connection points: 2
#     Edge 17, Type (0, 0), BuildingBlock: EZIPEK_clean_linker_0, # of connection points: 2
#     Edge 18, Type (0, 0), BuildingBlock: EZIPEK_clean_linker_0, # of connection points: 2
#     Edge 19, Type (0, 0), BuildingBlock: EZIPEK_clean_linker_0, # of connection points: 2
#     Edge 20, Type (0, 0), BuildingBlock: EZIPEK_clean_linker_0, # of connection points: 2
#     Edge 21, Type (0, 0), BuildingBlock: EZIPEK_clean_linker_0, # of connection points: 2
#     Edge 22, Type (0, 0), BuildingBlock: EZIPEK_clean_linker_0, # of connection points: 2
#     Edge 23, Type (0, 0), BuildingBlock: EZIPEK_clean_linker_0, # of connection points: 2
#     Edge 24, Type (0, 0), BuildingBlock: EZIPEK_clean_linker_0, # of connection points: 2
#     Edge 25, Type (0, 0), BuildingBlock: EZIPEK_clean_linker_0, # of connection points: 2
#     Edge 26, Type (0, 0), BuildingBlock: EZIPEK_clean_linker_0, # of connection points: 2
#     Edge 27, Type (0, 0), BuildingBlock: EZIPEK_clean_linker_0, # of connection points: 2
#     Edge 28, Type (0, 0), BuildingBlock: EZIPEK_clean_linker_0, # of connection points: 2
#     Edge 29, Type (0, 0), BuildingBlock: EZIPEK_clean_linker_0, # of connection points: 2
# Relax obj value: 0.052
# Max RMSD: 0.063
# Mean RMSD: 0.063
data_MOF--net-ofo--node1-WUSLED_clean_sbu_0--edge1-EZIPEK_clean_linker_0
_symmetry_space_group_name_H-M    P1
_symmetry_Int_Tables_number       1
_symmetry_cell_setting            triclinic
loop_
_symmetry_equiv_pos_as_xyz
'x, y, z'
_cell_length_a     29.77472
_cell_length_b     29.778853
_cell_length_c     74.827471
_cell_angle_alpha  90.01321
_cell_angle_beta   89.969609
_cell_angle_gamma 119.89361
loop_
_atom_site_label
_atom_site_type_symbol
_atom_site_fract_x
_atom_site_fract_y
_atom_site_fract_z
_atom_type_partial_charge
C0 C 0.44129 0.35799 0.12132 0.0
C1 C 0.46173 0.33582 0.13304 0.0
C2 C 0.50232 0.41491 0.15078 0.0
C3 C 0.49194 0.36406 0.1477 0.0
C4 C 0.48263 0.43721 0.13886 0.0
C5 C 0.4522 0.40895 0.1243 0.0
U6 U 0.40063 0.25309 0.08556 0.0
O7 O 0.32329 0.19729 0.07511 0.0
O8 O 0.38247 0.25399 0.0571 0.0
C9 C 0.33389 0.21738 0.05897 0.0
C10 C 0.40902 0.32889 0.10587 0.0
C11 C 0.29485 0.22789 0.05087 0.0
C12 C 0.25573 0.28214 0.04708 0.0
C13 C 0.29268 0.27268 0.05518 0.0
C14 C 0.22245 0.20205 0.03041 0.0
C15 C 0.22037 0.24688 0.03464 0.0
C16 C 0.25946 0.19267 0.03846 0.0
C17 C 0.47325 0.1749 0.08529 0.0
C18 C 0.44741 0.08776 0.07505 0.0
C19 C 0.53783 0.14968 0.07928 0.0
C20 C 0.52487 0.1866 0.08483 0.0
C21 C 0.49979 0.09996 0.0732 0.0
C22 C 0.43448 0.12493 0.08055 0.0
C23 C 0.46133 0.21436 0.09214 0.0
O24 O 0.43381 0.33663 0.09064 0.0
O25 O 0.37497 0.27988 0.10876 0.0
O26 O 0.41601 0.19759 0.09984 0.0
O27 O 0.47498 0.25492 0.08185 0.0
H28 H 0.45424 0.29669 0.13089 0.0
H29 H 0.50712 0.34628 0.15666 0.0
H30 H 0.49105 0.47658 0.14084 0.0
H31 H 0.4372 0.42694 0.11535 0.0
H32 H 0.25462 0.3169 0.05053 0.0
H33 H 0.3196 0.30029 0.06474 0.0
H34 H 0.19549 0.17442 0.02086 0.0
H35 H 0.26054 0.15791 0.03497 0.0
H36 H 0.41531 0.04929 0.07308 0.0
H37 H 0.57807 0.16047 0.08053 0.0
H38 H 0.55542 0.2242 0.08924 0.0
H39 H 0.394 0.11404 0.08154 0.0
C40 C 0.1009 0.4358 0.79277 0.0
C41 C 0.15028 0.46781 0.80005 0.0
C42 C 0.11315 0.49755 0.82295 0.0
C43 C 0.15633 0.49841 0.81503 0.0
C44 C 0.06373 0.46548 0.81574 0.0
C45 C 0.05762 0.43477 0.80071 0.0
U46 U 0.16051 0.39616 0.7554 0.0
O47 O 0.138 0.32005 0.7437 0.0
O48 O 0.14055 0.38151 0.72678 0.0
C49 C 0.12849 0.33269 0.72787 0.0
C50 C 0.09468 0.40413 0.7768 0.0
C51 C 0.08018 0.29432 0.71879 0.0
C52 C 0.99483 0.21664 0.71903 0.0
C53 C 0.03777 0.25532 0.72825 0.0
C54 C 0.03522 0.25612 0.69085 0.0
C55 C 0.99359 0.21643 0.70025 0.0
C56 C 0.07811 0.29464 0.70004 0.0
C57 C 0.31133 0.46574 0.75479 0.0
C58 C 0.37235 0.43917 0.74467 0.0
C59 C 0.40099 0.52978 0.7484 0.0
C60 C 0.35129 0.51727 0.75404 0.0
C61 C 0.41245 0.49136 0.74246 0.0
C62 C 0.32246 0.42667 0.75027 0.0
C63 C 0.26026 0.45425 0.76193 0.0
O64 O 0.11154 0.43017 0.76179 0.0
O65 O 0.10867 0.36894 0.77879 0.0
O66 O 0.23107 0.40836 0.76913 0.0
O67 O 0.23388 0.46991 0.75223 0.0
H68 H 0.18414 0.46923 0.79409 0.0
H69 H 0.19476 0.52301 0.82043 0.0
H70 H 0.03015 0.46444 0.8217 0.0
H71 H 1.01921 0.4104 0.79526 0.0
H72 H 0.96304 0.18627 0.72651 0.0
H73 H 0.03825 0.25406 0.74271 0.0
H74 H 0.03503 0.25656 0.67637 0.0
H75 H 0.11038 0.32409 0.69245 0.0
H76 H 0.37873 0.40692 0.74292 0.0
H77 H 0.43046 0.57 0.74949 0.0
H78 H 0.34446 0.54813 0.75834 0.0
H79 H 0.29302 0.38627 0.75155 0.0
C80 C 0.67367 0.08251 0.46273 0.0
C81 C 0.68454 0.13163 0.46877 0.0
C82 C 0.62236 0.09183 0.49295 0.0
C83 C 0.659 0.13625 0.4838 0.0
C84 C 0.61169 0.0429 0.48692 0.0
C85 C 0.63713 0.03819 0.47192 0.0
U86 U 0.77651 0.14411 0.42665 0.0
O87 O 0.83143 0.12165 0.41584 0.0
O88 O 0.77538 0.12633 0.39805 0.0
C89 C 0.81142 0.11335 0.3997 0.0
C90 C 0.70056 0.07726 0.447 0.0
C91 C 0.80038 0.06414 0.39117 0.0
C92 C 0.74335 0.97224 0.3854 0.0
C93 C 0.75333 0.0181 0.39404 0.0
C94 C 0.82748 0.01764 0.3711 0.0
C95 C 0.78034 0.97173 0.37384 0.0
C96 C 0.83738 0.06348 0.37969 0.0
C97 C 0.85698 0.29486 0.42876 0.0
C98 C 0.93055 0.35275 0.41025 0.0
C99 C 0.90063 0.38782 0.43366 0.0
C100 C 0.86166 0.33784 0.43807 0.0
C101 C 0.93557 0.39567 0.41983 0.0
C102 C 0.89141 0.30247 0.41472 0.0
C103 C 0.8166 0.24291 0.43444 0.0
O104 O 0.69301 0.09515 0.43192 0.0
O105 O 0.7493 0.09064 0.44958 0.0
O106 O 0.83279 0.21314 0.44153 0.0
O107 O 0.77702 0.21795 0.4236 0.0
H108 H 0.71272 0.1663 0.46186 0.0
H109 H 0.6676 0.17434 0.48824 0.0
H110 H 0.58368 1.00853 0.49389 0.0
H111 H 0.62829 0.99999 0.46751 0.0
H112 H 0.70676 0.93714 0.38769 0.0
H113 H 0.7243 0.01774 0.40287 0.0
H114 H 0.85645 0.01799 0.36224 0.0
H115 H 0.87389 0.09859 0.37729 0.0
H116 H 0.95731 0.35819 0.39955 0.0
H117 H 0.90398 0.42043 0.4412 0.0
H118 H 0.83545 0.33266 0.44895 0.0
H119 H 0.88834 0.26966 0.4074 0.0
C120 C 0.60371 0.67648 0.1227 0.0
C121 C 0.57503 0.69442 0.13221 0.0
C122 C 0.5418 0.61969 0.15197 0.0
C123 C 0.5443 0.66621 0.14678 0.0
C124 C 0.57041 0.60186 0.14242 0.0
C125 C 0.6012 0.63005 0.12791 0.0
U126 U 0.64694 0.78433 0.08813 0.0
O127 O 0.72409 0.83679 0.07688 0.0
O128 O 0.66087 0.78406 0.05922 0.0
C129 C 0.71048 0.81803 0.06063 0.0
C130 C 0.63558 0.70519 0.10718 0.0
C131 C 0.74594 0.80491 0.05114 0.0
C132 C 0.80017 0.76517 0.04993 0.0
C133 C 0.76697 0.7774 0.05941 0.0
C134 C 0.79325 0.80951 0.02411 0.0
C135 C 0.81103 0.7773 0.0315 0.0
C136 C 0.76037 0.8219 0.03358 0.0
C137 C 0.58343 0.8704 0.09075 0.0
C138 C 0.57703 0.92326 0.06719 0.0
C139 C 0.5546 0.93188 0.09764 0.0
C140 C 0.5665 0.89413 0.10316 0.0
C141 C 0.55939 0.94639 0.07961 0.0
C142 C 0.58913 0.88556 0.07272 0.0
C143 C 0.59226 0.82835 0.09685 0.0
O144 O 0.60976 0.70013 0.09237 0.0
O145 O 0.67189 0.75324 0.11029 0.0
O146 O 0.63807 0.84244 0.10367 0.0
O147 O 0.57508 0.78779 0.0863 0.0
H148 H 0.57631 0.73009 0.12832 0.0
H149 H 0.52234 0.68048 0.15396 0.0
H150 H 0.56871 0.56604 0.14619 0.0
H151 H 0.62287 0.61548 0.1207 0.0
H152 H 0.81789 0.74765 0.05762 0.0
H153 H 0.75838 0.76601 0.0733 0.0
H154 H 0.80526 0.82668 1.01103 0.0
H155 H 0.74661 0.84544 0.02719 0.0
H156 H 0.58091 0.93405 0.05321 0.0
H157 H 0.541 0.94929 0.10739 0.0
H158 H 0.56172 0.88285 0.1171 0.0
H159 H 0.60215 0.86775 0.06293 0.0
C160 C 0.94425 0.58306 0.78316 0.0
C161 C 0.89877 0.55221 0.79294 0.0
C162 C 0.94462 0.52117 0.8116 0.0
C163 C 0.89898 0.52149 0.80709 0.0
C164 C 0.9899 0.55155 0.80168 0.0
C165 C 0.98969 0.58232 0.78757 0.0
U166 U 0.87624 0.63121 0.7514 0.0
O167 O 0.90085 0.71029 0.74212 0.0
O168 O 0.88962 0.65035 0.72272 0.0
C169 C 0.90582 0.69972 0.72541 0.0
C170 C 0.94505 0.61643 0.76847 0.0
C171 C 0.95458 0.73654 0.71631 0.0
C172 C 0.04811 0.79358 0.716 0.0
C173 C 1.00252 0.75877 0.72502 0.0
C174 C 0.99826 0.78584 0.6897 0.0
C175 C 0.04785 0.80499 0.69758 0.0
C176 C 0.95278 0.75135 0.69874 0.0
C177 C 0.72681 0.56907 0.75545 0.0
C178 C 0.66481 0.56394 0.73317 0.0
C179 C 0.63811 0.54258 0.76405 0.0
C180 C 0.68812 0.55332 0.76858 0.0
C181 C 0.62597 0.54737 0.7463 0.0
C182 C 0.71496 0.57484 0.73772 0.0
C183 C 0.77797 0.57629 0.76053 0.0
O184 O 0.92258 0.59242 0.75356 0.0
O185 O 0.93362 0.65227 0.77294 0.0
O186 O 0.81051 0.62059 0.76812 0.0
O187 O 0.80032 0.56052 0.74892 0.0
H188 H 0.8633 0.5522 0.78971 0.0
H189 H 0.86372 0.49828 0.81461 0.0
H190 H 0.02542 0.55173 0.80498 0.0
H191 H 0.02512 0.6058 0.78015 0.0
H192 H 0.08261 0.8121 0.72404 0.0
H193 H 1.00471 0.74993 0.73893 0.0
H194 H 0.9935 0.79802 0.6766 0.0
H195 H 0.91588 0.7367 0.69199 0.0
H196 H 0.65608 0.56781 0.7194 0.0
H197 H 0.60866 0.52981 0.77434 0.0
H198 H 0.69638 0.54846 0.78231 0.0
H199 H 0.74416 0.58694 0.72736 0.0
C200 C 0.37543 0.92861 0.44403 0.0
C201 C 0.35613 0.88304 0.45422 0.0
C202 C 0.43335 0.92293 0.47282 0.0
C203 C 0.38492 0.88024 0.46854 0.0
C204 C 0.45319 0.96792 0.46235 0.0
C205 C 0.42437 0.97078 0.44807 0.0
U206 U 0.25914 0.86671 0.41283 0.0
O207 O 0.2043 0.8925 0.40503 0.0
O208 O 0.25097 0.88202 0.38455 0.0
C209 C 0.21825 0.89836 0.38814 0.0
C210 C 0.34432 0.93298 0.42954 0.0
C211 C 0.23005 0.94821 0.38002 0.0
C212 C 0.28526 0.04149 0.37689 0.0
C213 C 0.27533 0.99438 0.38449 0.0
C214 C 0.20489 0.99687 0.36027 0.0
C215 C 0.25 0.04305 0.36478 0.0
C216 C 0.19501 0.94978 0.36784 0.0
C217 C 0.17012 0.71655 0.41836 0.0
C218 C 0.09574 0.63902 0.43029 0.0
C219 C 0.12675 0.63762 0.40049 0.0
C220 C 0.16549 0.68962 0.40236 0.0
C221 C 0.09222 0.61182 0.41458 0.0
C222 C 0.13434 0.69082 0.43217 0.0
C223 C 0.21526 0.7685 0.42197 0.0
O224 O 0.34442 0.91089 0.41435 0.0
O225 O 0.29793 0.92372 0.43425 0.0
O226 O 0.20593 0.80209 0.43014 0.0
O227 O 0.25116 0.78961 0.40955 0.0
H228 H 0.31848 0.85001 0.45126 0.0
H229 H 0.36906 0.84523 0.47649 0.0
H230 H 0.49071 1.00091 0.46537 0.0
H231 H 0.43999 1.00614 0.44031 0.0
H232 H 0.32024 0.07679 0.38054 0.0
H233 H 0.30276 0.99396 0.3939 0.0
H234 H 0.17726 0.99736 0.35097 0.0
H235 H 0.15982 0.91457 0.36426 0.0
H236 H 0.06957 0.61962 0.44133 0.0
H237 H 0.12468 0.61704 0.3883 0.0
H238 H 0.19273 0.70806 0.39152 0.0
H239 H 0.1374 0.71025 0.44474 0.0
C240 C 0.67396 0.59812 0.24175 0.0
C241 C 0.69312 0.56997 0.23257 0.0
C242 C 0.6207 0.53735 0.21182 0.0
C243 C 0.66668 0.53982 0.21767 0.0
C244 C 0.60174 0.56554 0.221 0.0
C245 C 0.62815 0.59575 0.23585 0.0
U246 U 0.78064 0.64124 0.27642 0.0
O247 O 0.83237 0.71787 0.28815 0.0
O248 O 0.78035 0.65325 0.30549 0.0
C249 C 0.81368 0.70312 0.30436 0.0
C250 C 0.70105 0.62941 0.25757 0.0
C251 C 0.79995 0.73753 0.31431 0.0
C252 C 0.76468 0.79568 0.31583 0.0
C253 C 0.77713 0.76326 0.30596 0.0
C254 C 0.79944 0.77861 0.34233 0.0
C255 C 0.77167 0.80108 0.33465 0.0
C256 C 0.81208 0.7465 0.33247 0.0
C257 C 0.86786 0.5781 0.27078 0.0
C258 C 0.93239 0.55744 0.25988 0.0
C259 C 0.91482 0.55365 0.29163 0.0
C260 C 0.87805 0.56906 0.28838 0.0
C261 C 0.94163 0.54706 0.27734 0.0
C262 C 0.89583 0.57281 0.25664 0.0
C263 C 0.82548 0.58841 0.26639 0.0
O264 O 0.69635 0.60286 0.27217 0.0
O265 O 0.74871 0.66705 0.25479 0.0
O266 O 0.83888 0.63466 0.26013 0.0
O267 O 0.78591 0.57025 0.27744 0.0
H268 H 0.7284 0.57122 0.23697 0.0
H269 H 0.68185 0.51823 0.21077 0.0
H270 H 0.56645 0.56404 0.21667 0.0
H271 H 0.61271 0.6171 0.24276 0.0
H272 H 0.75121 0.81723 0.30818 0.0
H273 H 0.76967 0.75905 0.29171 0.0
H274 H 0.81303 0.78633 0.35596 0.0
H275 H 0.83213 0.72913 0.33905 0.0
H276 H 0.95276 0.55258 0.24871 0.0
H277 H 0.9216 0.54581 0.3052 0.0
H278 H 0.85687 0.57274 0.29952 0.0
H279 H 0.88837 0.57924 0.24297 0.0
C280 C 0.10781 0.67807 0.91172 0.0
C281 C 0.12078 0.69939 0.89451 0.0
C282 C 0.12607 0.62431 0.88348 0.0
C283 C 0.12818 0.67239 0.88057 0.0
C284 C 0.10637 0.60078 0.90032 0.0
C285 C 0.09867 0.62761 0.91426 0.0
U286 U 0.16606 0.78695 0.9463 0.0
O287 O 0.14033 0.84053 0.9558 0.0
O288 O 0.14753 0.78827 0.97472 0.0
C289 C 0.13246 0.82246 0.97221 0.0
C290 C 0.10182 0.70697 0.92688 0.0
C291 C 0.08222 0.80987 0.98022 0.0
C292 C 0.98925 0.75298 0.9836 0.0
C293 C 0.03652 0.76401 0.97583 0.0
C294 C 0.03272 0.83352 1.00018 0.0
C295 C 0.98704 0.78773 0.99581 0.0
C296 C 0.07996 0.84448 0.99244 0.0
C297 C 0.31648 0.87337 0.94451 0.0
C298 C 0.37873 0.92507 0.96752 0.0
C299 C 0.40535 0.93608 0.93647 0.0
C300 C 0.35521 0.89841 0.93153 0.0
C301 C 0.41758 0.94929 0.9545 0.0
C302 C 0.32841 0.88735 0.96256 0.0
C303 C 0.26544 0.83072 0.93882 0.0
O304 O 0.12016 0.70245 0.94234 0.0
O305 O 0.11233 0.75464 0.92359 0.0
O306 O 0.2342 0.84396 0.93102 0.0
O307 O 0.24149 0.79152 0.9499 0.0
H308 H 0.12485 0.7369 0.89167 0.0
H309 H 0.1343 0.68968 0.86751 0.0
H310 H 0.09514 0.56095 0.90296 0.0
H311 H 0.08515 0.60857 0.92707 0.0
H312 H 0.95433 0.71747 0.98007 0.0
H313 H 0.03745 0.73687 0.96639 0.0
H314 H 0.03175 0.86076 1.00955 0.0
H315 H 0.1148 0.88007 0.99598 0.0
H316 H 0.3876 0.93487 0.9815 0.0
H317 H 0.43486 0.95436 0.92627 0.0
H318 H 0.34689 0.88805 0.91755 0.0
H319 H 0.29919 0.86852 0.97281 0.0
C320 C 0.44678 0.09951 0.58347 0.0
C321 C 0.46619 0.1401 0.57095 0.0
C322 C 0.50847 0.10061 0.55467 0.0
C323 C 0.49671 0.14055 0.55662 0.0
C324 C 0.49037 0.06096 0.5675 0.0
C325 C 0.4596 0.06032 0.58174 0.0
U326 U 0.39624 0.16372 0.61583 0.0
O327 O 0.31636 0.13876 0.62435 0.0
O328 O 0.37421 0.1472 0.64418 0.0
C329 C 0.32514 0.13152 0.64102 0.0
C330 C 0.41245 0.09685 0.59815 0.0
C331 C 0.28739 0.08112 0.64886 0.0
C332 C 0.25212 0.98818 0.65207 0.0
C333 C 0.2886 0.03578 0.64461 0.0
C334 C 0.21268 0.03054 0.66803 0.0
C335 C 0.21386 0.98523 0.6638 0.0
C336 C 0.24922 0.07815 0.66061 0.0
C337 C 0.45961 0.31374 0.61259 0.0
C338 C 0.4675 0.37697 0.63482 0.0
C339 C 0.48581 0.40208 0.6037 0.0
C340 C 0.47421 0.35177 0.59929 0.0
C341 C 0.48304 0.41515 0.62151 0.0
C342 C 0.45576 0.32651 0.6304 0.0
C343 C 0.45207 0.26247 0.60755 0.0
O344 O 0.43544 0.11774 0.61336 0.0
O345 O 0.37635 0.10804 0.59383 0.0
O346 O 0.40831 0.23059 0.59952 0.0
O347 O 0.46664 0.23939 0.61928 0.0
H348 H 0.45715 0.171 0.57212 0.0
H349 H 0.51057 0.17161 0.54691 0.0
H350 H 0.49961 0.03023 0.56638 0.0
H351 H 0.44532 0.0289 0.59133 0.0
H352 H 0.25356 0.95357 0.64864 0.0
H353 H 0.31764 0.03724 0.63553 0.0
H354 H 0.18344 0.02899 0.67703 0.0
H355 H 0.24761 0.11268 0.66401 0.0
H356 H 0.4652 0.38649 0.64864 0.0
H357 H 0.49778 0.43105 0.59328 0.0
H358 H 0.47763 0.3428 0.58549 0.0
H359 H 0.44462 0.29783 0.64089 0.0
C360 C 0.36222 0.43116 0.24088 0.0
C361 C 0.33902 0.45039 0.2291 0.0
C362 C 0.41874 0.49453 0.21182 0.0
C363 C 0.36706 0.48175 0.21464 0.0
C364 C 0.44199 0.4759 0.22376 0.0
C365 C 0.41393 0.4443 0.23814 0.0
U366 U 0.25185 0.38465 0.27432 0.0
O367 O 0.19873 0.30678 0.28487 0.0
O368 O 0.24908 0.36923 0.30322 0.0
C369 C 0.21586 0.31956 0.30134 0.0
C370 C 0.33333 0.39836 0.25623 0.0
C371 C 0.22907 0.2841 0.31077 0.0
C372 C 0.27075 0.23165 0.31202 0.0
C373 C 0.25834 0.26482 0.30264 0.0
C374 C 0.22311 0.23506 0.33748 0.0
C375 C 0.25703 0.21911 0.33028 0.0
C376 C 0.21053 0.26792 0.32809 0.0
C377 C 0.16565 0.44857 0.26886 0.0
C378 C 0.10871 0.45793 0.29003 0.0
C379 C 0.10764 0.4787 0.25877 0.0
C380 C 0.14545 0.4653 0.25512 0.0
C381 C 0.08935 0.47557 0.27625 0.0
C382 C 0.14676 0.44449 0.28636 0.0
C383 C 0.20839 0.43893 0.2645 0.0
O384 O 0.33661 0.42342 0.27107 0.0
O385 O 0.28598 0.36097 0.25279 0.0
O386 O 0.19551 0.39337 0.2577 0.0
O387 O 0.24664 0.45559 0.27605 0.0
H388 H 0.29927 0.44115 0.2311 0.0
H389 H 0.34854 0.49608 0.20565 0.0
H390 H 0.48196 0.48613 0.22198 0.0
H391 H 0.43268 0.43029 0.24716 0.0
H392 H 0.28973 0.21529 0.30439 0.0
H393 H 0.27101 0.27476 0.28891 0.0
H394 H 0.20475 0.22162 0.35033 0.0
H395 H 0.18567 0.28029 0.33435 0.0
H396 H 0.0949 0.45528 0.3036 0.0
H397 H 0.09307 0.49218 0.24799 0.0
H398 H 0.15967 0.46891 0.24156 0.0
H399 H 0.16193 0.43174 0.29716 0.0
C400 C 0.94553 0.34421 0.90285 0.0
C401 C 0.91326 0.3662 0.90219 0.0
C402 C 0.94385 0.39876 0.87221 0.0
C403 C 0.91261 0.39339 0.88702 0.0
C404 C 0.9751 0.37579 0.87265 0.0
C405 C 0.97612 0.34896 0.88788 0.0
U406 U 0.88229 0.24664 0.94106 0.0
O407 O 0.90444 0.19333 0.95347 0.0
O408 O 0.90167 0.25327 0.96968 0.0
C409 C 0.91333 0.21616 0.96915 0.0
C410 C 0.94874 0.31737 0.91907 0.0
C411 C 0.96185 0.22748 0.97825 0.0
C412 C 0.05577 0.26827 0.97954 0.0
C413 C 1.01037 0.25646 0.97014 0.0
C414 C 1.00445 0.22018 1.00485 0.0
C415 C 0.05432 0.25419 0.99778 0.0
C416 C 0.95925 0.20822 0.99546 0.0
C417 C 0.732 0.17029 0.94293 0.0
C418 C 0.67076 0.08529 0.95486 0.0
C419 C 0.64396 0.14857 0.9504 0.0
C420 C 0.69319 0.1836 0.94382 0.0
C421 C 0.63194 0.09928 0.95712 0.0
C422 C 0.72019 0.12055 0.94833 0.0
C423 C 0.78266 0.2076 0.93501 0.0
O424 O 0.93369 0.32846 0.93414 0.0
O425 O 0.9328 0.26772 0.9173 0.0
O426 O 0.81027 0.18862 0.92804 0.0
O427 O 0.81067 0.25062 0.94402 0.0
H428 H 0.88894 0.36292 0.91346 0.0
H429 H 0.88815 0.41077 0.88689 0.0
H430 H 0.99903 0.3791 0.86127 0.0
H431 H 1.00117 0.33226 0.88804 0.0
H432 H 0.09111 0.28725 0.97195 0.0
H433 H 1.01317 0.26961 0.95647 0.0
H434 H 0.99943 0.20167 0.01769 0.0
H435 H 0.92199 0.1836 1.0017 0.0
H436 H 0.66368 0.04671 0.9573 0.0
H437 H 0.61518 0.16038 0.94945 0.0
H438 H 0.70054 0.22094 0.93894 0.0
H439 H 0.74871 0.10826 0.94707 0.0
C440 C 0.61133 0.93652 0.56549 0.0
C441 C 0.56394 0.89085 0.56251 0.0
C442 C 0.55211 0.92638 0.53479 0.0
C443 C 0.53441 0.88593 0.54729 0.0
C444 C 0.59988 0.97151 0.53759 0.0
C445 C 0.62921 0.97665 0.55286 0.0
U446 U 0.64665 0.87912 0.60496 0.0
O447 O 0.72203 0.90094 0.61721 0.0
O448 O 0.66146 0.90334 0.6332 0.0
C449 C 0.70992 0.91395 0.63252 0.0
C450 C 0.64211 0.94293 0.58173 0.0
C451 C 0.74931 0.96324 0.64098 0.0
C452 C 0.83748 0.03653 0.64281 0.0
C453 C 0.79896 0.99377 0.63349 0.0
C454 C 0.77743 0.02006 0.66707 0.0
C455 C 0.82718 0.04956 0.65976 0.0
C456 C 0.73896 0.97726 0.6578 0.0
C457 C 0.57267 0.72887 0.60856 0.0
C458 C 0.59698 0.6682 0.62073 0.0
C459 C 0.50689 0.64098 0.61627 0.0
C460 C 0.52073 0.69 0.60953 0.0
C461 C 0.54435 0.6293 0.62306 0.0
C462 C 0.61079 0.7174 0.61405 0.0
C463 C 0.58568 0.77896 0.60021 0.0
O464 O 0.61601 0.92965 0.59682 0.0
O465 O 0.67562 0.92653 0.58052 0.0
O466 O 0.6318 0.80565 0.59288 0.0
O467 O 0.57136 0.80801 0.60897 0.0
H468 H 0.54959 0.85928 0.57203 0.0
H469 H 0.49758 0.85085 0.54534 0.0
H470 H 0.61405 1.00288 0.52802 0.0
H471 H 0.66568 1.0121 0.55488 0.0
H472 H 0.87573 0.05876 0.63698 0.0
H473 H 0.80858 0.98393 0.62067 0.0
H474 H 0.76882 0.02935 0.68017 0.0
H475 H 0.70142 0.95416 0.66405 0.0
H476 H 0.6286 0.66129 0.62322 0.0
H477 H 0.46643 0.61208 0.61533 0.0
H478 H 0.49061 0.69706 0.60455 0.0
H479 H 0.65147 0.74594 0.61269 0.0
C480 C 0.58348 0.48914 0.16383 0.0
C481 C 0.53376 0.44506 0.16648 0.0
C482 C 0.54548 0.45707 0.19892 0.0
C483 C 0.5918 0.50481 0.19617 0.0
N484 N 0.65098 0.57062 0.17584 0.0
N485 N 0.46325 0.39258 0.18654 0.0
C486 C 0.60978 0.5221 0.17856 0.0
C487 C 0.51358 0.43044 0.18404 0.0
N488 N 0.60627 0.4987 0.14736 0.0
N489 N 0.53265 0.43638 0.2157 0.0
H490 H 0.4383 0.37263 0.176 0.0
H491 H 0.44496 0.38451 0.19895 0.0
H492 H 0.55508 0.45481 0.22693 0.0
H493 H 0.50209 0.39919 0.21822 0.0
H494 H 0.64448 0.52735 0.14504 0.0
H495 H 0.58847 0.4751 0.1363 0.0
H496 H 0.66209 0.58746 0.16323 0.0
H497 H 0.6714 0.59578 0.18629 0.0
C498 C 0.13774 0.58443 0.83609 0.0
C499 C 0.12059 0.53114 0.83869 0.0
C500 C 0.13221 0.54651 0.87099 0.0
C501 C 0.13751 0.59626 0.8685 0.0
N502 N 0.18856 0.66888 0.84921 0.0
N503 N 0.10259 0.46091 0.85887 0.0
C504 C 0.15248 0.61782 0.85113 0.0
C505 C 0.11816 0.51197 0.85623 0.0
N506 N 0.13988 0.60342 0.81932 0.0
N507 N 0.14958 0.53595 0.8864 0.0
H508 H 0.09338 0.43467 0.84838 0.0
H509 H 0.09525 0.44415 0.87154 0.0
H510 H 0.16976 0.56464 0.89596 0.0
H511 H 0.15107 0.5021 0.88843 0.0
H512 H 0.14764 0.6412 0.81707 0.0
H513 H 0.12988 0.58037 0.80788 0.0
H514 H 0.2045 0.68568 0.8369 0.0
H515 H 0.20795 0.69195 0.86023 0.0
C516 C 0.54353 0.08851 0.50649 0.0
C517 C 0.59418 0.09615 0.50873 0.0
C518 C 0.59056 0.11147 0.54083 0.0
C519 C 0.53826 0.09932 0.53884 0.0
N520 N 0.46215 0.06893 0.52039 0.0
N521 N 0.66454 0.1095 0.52803 0.0
C522 C 0.51398 0.08591 0.52181 0.0
C523 C 0.61738 0.10621 0.52591 0.0
N524 N 0.52426 0.08515 0.48966 0.0
N525 N 0.61509 0.12968 0.55685 0.0
H526 H 0.6858 0.10705 0.51736 0.0
H527 H 0.68091 0.11065 0.54043 0.0
H528 H 0.59667 0.13392 0.56805 0.0
H529 H 0.65463 0.14445 0.55872 0.0
H530 H 0.48977 0.08474 0.48697 0.0
H531 H 0.54498 0.08718 0.47815 0.0
H532 H 0.44094 0.05363 0.50872 0.0
H533 H 0.43904 0.06596 0.53131 0.0
C534 C 0.43618 0.5082 0.17871 0.0
C535 C 0.44883 0.52764 0.19641 0.0
C536 C 0.52431 0.60651 0.18509 0.0
C537 C 0.50885 0.58904 0.16731 0.0
N538 N 0.44313 0.52897 0.14718 0.0
N539 N 0.4981 0.60012 0.21607 0.0
C540 C 0.46265 0.54154 0.16411 0.0
C541 C 0.49086 0.57833 0.19949 0.0
N542 N 0.40035 0.45736 0.17581 0.0
N543 N 0.57169 0.64891 0.18829 0.0
H544 H 0.47413 0.58085 0.22691 0.0
H545 H 0.52506 0.63875 0.21867 0.0
H546 H 0.59734 0.67051 0.17811 0.0
H547 H 0.58733 0.65989 0.20106 0.0
H548 H 0.39393 0.43987 0.16329 0.0
H549 H 0.38055 0.43143 0.18614 0.0
H550 H 0.40687 0.49729 0.14433 0.0
H551 H 0.46133 0.55258 0.13615 0.0
C552 C 0.92307 0.43535 0.82519 0.0
C553 C 0.94526 0.48979 0.82701 0.0
C554 C 0.97146 0.48491 0.85775 0.0
C555 C 0.94512 0.43005 0.85646 0.0
N556 N 0.88981 0.35219 0.83994 0.0
N557 N 0.98508 0.56629 0.84548 0.0
C558 C 0.91935 0.405 0.84042 0.0
C559 C 0.96804 0.51459 0.84343 0.0
N560 N 0.90724 0.41291 0.80875 0.0
N561 N 1.00076 0.50864 0.87252 0.0
H562 H 0.98363 0.58933 0.83525 0.0
H563 H 0.997 0.58577 0.85762 0.0
H564 H 1.00497 0.48833 0.88313 0.0
H565 H 0.02404 0.54851 0.87375 0.0
H566 H 0.89627 0.37446 0.80611 0.0
H567 H 0.9092 0.43386 0.79731 0.0
H568 H 0.86541 0.33186 0.82936 0.0
H569 H 0.88643 0.32866 0.85078 0.0
C570 C 0.48283 0.93942 0.52074 0.0
C571 C 0.51967 0.92262 0.5191 0.0
C572 C 0.50048 0.90649 0.48704 0.0
C573 C 0.46233 0.92153 0.48882 0.0
N574 N 0.41167 0.94558 0.50746 0.0
N575 N 0.55887 0.8832 0.5017 0.0
C576 C 0.45185 0.93597 0.50573 0.0
C577 C 0.52698 0.90392 0.50253 0.0
N578 N 0.47842 0.95983 0.53657 0.0
N579 N 0.5125 0.89633 0.47044 0.0
H580 H 0.57976 0.8819 0.51268 0.0
H581 H 0.56199 0.86403 0.49055 0.0
H582 H 0.49281 0.89628 0.45891 0.0
H583 H 0.544 0.89122 0.46785 0.0
H584 H 0.45621 0.97757 0.53829 0.0
H585 H 0.49937 0.96161 0.54797 0.0
H586 H 0.39783 0.95035 0.51966 0.0
H587 H 0.38957 0.94565 0.49666 0.0
C588 C 0.5678 0.07362 0.06569 0.0
C589 C 0.51507 0.06002 0.06749 0.0
C590 C 0.49174 0.96913 0.0705 0.0
C591 C 0.54457 0.98494 0.07372 0.0
N592 N 0.63432 0.05266 0.07309 0.0
N593 N 0.43469 0.99258 0.0555 0.0
C594 C 0.5832 0.03722 0.07065 0.0
C595 C 0.47822 1.00679 0.06535 0.0
N596 N 0.60141 0.11834 0.0571 0.0
N597 N 0.45436 0.91843 0.07241 0.0
H598 H 0.42972 0.01999 0.0484 0.0
H599 H 0.40845 0.95425 0.05217 0.0
H600 H 0.46281 0.88921 0.0754 0.0
H601 H 0.41492 0.90629 0.07199 0.0
H602 H 0.63929 0.12819 0.05388 0.0
H603 H 0.58876 0.14196 0.05127 0.0
H604 H 0.66333 0.09147 0.07285 0.0
H605 H 0.64725 0.02706 0.07652 0.0
C606 C 0.50696 0.55845 0.73464 0.0
C607 C 0.46735 0.50596 0.73651 0.0
C608 C 0.53414 0.48096 0.73829 0.0
C609 C 0.57207 0.53351 0.74141 0.0
N610 N 0.5953 0.62367 0.7414 0.0
N611 N 0.45215 0.42516 0.72404 0.0
C612 C 0.5589 0.57282 0.739 0.0
C613 C 0.48279 0.46844 0.73381 0.0
N614 N 0.49618 0.59272 0.72632 0.0
N615 N 0.54676 0.44288 0.73966 0.0
H616 H 0.41931 0.42076 0.71742 0.0
H617 H 0.46339 0.39849 0.72027 0.0
H618 H 0.58441 0.45054 0.74217 0.0
H619 H 0.519 0.40362 0.73932 0.0
H620 H 0.52446 0.63041 0.72306 0.0
H621 H 0.4599 0.58073 0.72064 0.0
H622 H 0.58606 0.65314 0.74162 0.0
H623 H 0.63394 0.63586 0.74435 0.0
C624 C 0.06726 0.51975 0.42162 0.0
C625 C 0.05455 0.5553 0.41363 0.0
C626 C 0.96779 0.48415 0.40656 0.0
C627 C 0.97833 0.44913 0.41603 0.0
N628 N 0.03683 0.43368 0.4338 0.0
N629 N 0.99198 0.56946 0.39739 0.0
C630 C 0.02804 0.46683 0.42371 0.0
C631 C 1.00517 0.53707 0.40576 0.0
N632 N 0.11713 0.53658 0.4269 0.0
N633 N 0.92151 0.46841 0.39833 0.0
H634 H 1.01679 0.60931 0.39606 0.0
H635 H 1.01679 0.60931 0.39606 0.0
H636 H 0.89143 0.43 0.39795 0.0
H637 H 0.89143 0.43 0.39795 0.0
H638 H 0.13052 0.51203 0.43109 0.0
H639 H 0.14655 0.57509 0.42574 0.0
H640 H 0.06976 0.44531 0.44158 0.0
H641 H 1.00959 0.39453 0.43531 0.0
C642 C 0.9602 0.47349 0.27883 0.0
C643 C 0.97824 0.52745 0.28026 0.0
C644 C 0.06743 0.54507 0.28297 0.0
C645 C 0.0505 0.49198 0.27984 0.0
N646 N 0.98127 0.40501 0.27448 0.0
N647 N 0.05024 0.61447 0.2852 0.0
C648 C 0.99681 0.4558 0.27793 0.0
C649 C 0.03166 0.56279 0.2829 0.0
N650 N 0.90806 0.43938 0.27853 0.0
N651 N 0.11829 0.58065 0.28561 0.0
H652 H 0.027 0.63157 0.28544 0.0
H653 H 0.027 0.63157 0.28544 0.0
H654 H 0.14796 0.57164 0.28597 0.0
H655 H 0.14796 0.57164 0.28597 0.0
H656 H 0.89169 0.39935 0.2791 0.0
H657 H 0.88051 0.45125 0.27893 0.0
H658 H 0.94371 0.37736 0.27092 0.0
H659 H 1.00684 0.39062 0.27442 0.0
C660 C 0.56024 1.0081 0.9668 0.0
C661 C 0.57741 0.06128 0.96391 0.0
C662 C 0.48677 0.04035 0.96216 0.0
C663 C 0.47168 0.98743 0.9597 0.0
N664 N 0.4937 0.9196 0.96121 0.0
N665 N 0.55284 0.12266 0.97401 0.0
C666 C 0.50822 0.97077 0.96261 0.0
C667 C 0.53947 0.07646 0.96606 0.0
N668 N 0.59013 0.99412 0.97644 0.0
N669 N 0.45145 0.05652 0.96021 0.0
H670 H 0.59002 0.14631 0.97913 0.0
H671 H 0.52602 0.13397 0.97747 0.0
H672 H 0.41227 0.03103 0.95774 0.0
H673 H 0.46189 0.09553 0.95998 0.0
H674 H 0.57768 0.95605 0.98029 0.0
H675 H 0.62376 0.02186 0.98285 0.0
H676 H 0.5204 0.90663 0.96144 0.0
H677 H 0.45554 0.89073 0.95881 0.0
C678 C 0.56477 0.55846 0.63321 0.0
C679 C 0.52833 0.57497 0.62999 0.0
C680 C 0.45973 0.484 0.62827 0.0
C681 C 0.49811 0.4694 0.62622 0.0
N682 N 0.58813 0.49249 0.62823 0.0
N683 N 0.44193 0.54952 0.63973 0.0
C684 C 0.55097 0.50648 0.62926 0.0
C685 C 0.47542 0.53662 0.63199 0.0
N686 N 0.6082 0.58901 0.64292 0.0
N687 N 0.40856 0.44828 0.6261 0.0
H688 H 0.4548 0.58664 0.64483 0.0
H689 H 0.40389 0.52239 0.64309 0.0
H690 H 0.39547 0.40916 0.6237 0.0
H691 H 0.3797 0.45835 0.62559 0.0
H692 H 0.63408 0.5771 0.64703 0.0
H693 H 0.61348 0.62275 0.64911 0.0
H694 H 0.62762 0.51953 0.62855 0.0
H695 H 0.57949 0.4544 0.62604 0.0
C696 C 0.15341 0.2919 1.00146 0.0
C697 C 0.10295 0.26907 1.00896 0.0
C698 C 0.13567 0.24673 0.03567 0.0
C699 C 0.18096 0.25691 0.02612 0.0
N700 N 0.23449 0.29184 0.99982 0.0
N701 N 0.06593 0.26586 0.03785 0.0
C702 C 0.19034 0.2803 1.00897 0.0
C703 C 0.09937 0.2582 0.02756 0.0
N704 N 0.1694 0.33226 0.98984 0.0
N705 N 0.12629 0.22463 0.05224 0.0
H706 H 0.04434 0.28154 0.03251 0.0
H707 H 0.06487 0.26331 0.05175 0.0
H708 H 0.15208 0.21602 0.05874 0.0
H709 H 0.09113 0.21142 0.05888 0.0
H710 H 0.2072 0.35319 0.98501 0.0
H711 H 0.1474 0.35023 0.98773 0.0
H712 H 0.2403 0.30414 0.98655 0.0
H713 H 0.26359 0.28601 1.00513 0.0
C714 C 0.90596 0.08337 0.67947 0.0
C715 C 0.86934 0.09232 0.67033 0.0
C716 C 0.91077 0.1808 0.68247 0.0
C717 C 0.94996 0.17326 0.6903 0.0
N718 N 0.98953 0.12027 0.69416 0.0
N719 N 0.84 0.15094 0.66118 0.0
C720 C 0.94878 0.12527 0.68824 0.0
C721 C 0.87256 0.14146 0.67132 0.0
N722 N 0.89895 0.03439 0.68019 0.0
N723 N 0.90938 0.2251 0.6861 0.0
H724 H 0.81121 0.12288 0.65306 0.0
H725 H 0.84385 0.18746 0.65973 0.0
H726 H 0.93697 0.25481 0.69406 0.0
H727 H 0.87888 0.2308 0.68242 0.0
H728 H 0.92077 0.0241 0.68831 0.0
H729 H 0.86845 1.00281 0.67378 0.0
H730 H 0.99395 0.08851 0.69123 0.0
H731 H 1.02129 0.14974 0.70085 0.0
C732 C 0.75042 0.91364 0.34671 0.0
C733 C 0.76944 0.92304 0.36452 0.0
C734 C 0.76228 0.83738 0.36484 0.0
C735 C 0.7565 0.83448 0.34596 0.0
N736 N 0.70124 0.84624 0.32534 0.0
N737 N 0.79198 0.89231 0.39102 0.0
C738 C 0.73824 0.86604 0.33831 0.0
C739 C 0.77437 0.88419 0.37382 0.0
N740 N 0.74371 0.94982 0.33777 0.0
N741 N 0.74871 0.7934 0.37438 0.0
H742 H 0.8008 0.92584 0.39814 0.0
H743 H 0.80133 0.8673 0.39766 0.0
H744 H 0.73199 0.75716 0.36819 0.0
H745 H 0.74742 0.79202 0.38829 0.0
H746 H 0.73494 0.94667 0.32418 0.0
H747 H 0.75006 0.98427 0.34366 0.0
H748 H 0.68323 0.8659 0.32028 0.0
H749 H 0.68277 0.80701 0.32197 0.0
C750 C 0.87325 0.74042 0.02827 0.0
C751 C 0.84533 0.76264 0.02051 0.0
C752 C 0.90138 0.78548 0.99407 0.0
C753 C 0.93669 0.77622 1.00393 0.0
N754 N 0.95493 0.74173 0.03042 0.0
N755 N 0.81208 0.76432 0.99138 0.0
C756 C 0.92223 0.75265 0.02103 0.0
C757 C 0.85308 0.77322 1.00191 0.0
N758 N 0.84904 0.70029 0.03998 0.0
N759 N 0.91436 0.80738 0.97748 0.0
H760 H 0.77457 0.74784 0.99655 0.0
H761 H 0.81407 0.76665 0.97748 0.0
H762 H 0.94912 0.81645 0.97117 0.0
H763 H 0.8921 0.81987 0.97062 0.0
H764 H 0.8661 0.67964 0.04497 0.0
H765 H 0.80915 0.68248 0.04218 0.0
H766 H 0.94804 0.72934 0.04368 0.0
H767 H 0.99027 0.74812 0.02531 0.0
C768 C 0.13146 0.89918 0.6612 0.0
C769 C 0.1748 0.93441 0.67153 0.0
C770 C 0.14655 0.86949 0.69539 0.0
C771 C 0.09724 0.84115 0.68712 0.0
N772 N 0.06551 0.8095 0.65755 0.0
N773 N 0.2253 0.95199 0.69853 0.0
C774 C 0.09571 0.85006 0.66853 0.0
C775 C 0.18293 0.91924 0.68865 0.0
N776 N 0.12347 0.91289 0.64459 0.0
N777 N 0.16242 0.84523 0.70712 0.0
H778 H 0.25394 0.98799 0.69383 0.0
H779 H 0.2299 0.94442 0.71181 0.0
H780 H 0.14103 0.80518 0.70901 0.0
H781 H 0.19969 0.86268 0.71246 0.0
H782 H 0.08951 0.89055 0.63737 0.0
H783 H 0.14903 0.94827 0.63863 0.0
H784 H 0.06634 0.81248 0.64367 0.0
H785 H 0.04514 0.77155 0.66237 0.0
C786 C 0.24812 0.12655 0.36701 0.0
C787 C 0.2601 0.09334 0.35703 0.0
C788 C 0.29656 0.15916 0.33346 0.0
C789 C 0.27196 0.18489 0.34118 0.0
N790 N 0.26585 0.21457 0.3705 0.0
N791 N 0.29861 0.07928 0.33074 0.0
C792 C 0.25946 0.17506 0.35961 0.0
C793 C 0.28529 0.11003 0.34025 0.0
N794 N 0.22467 0.11142 0.38331 0.0
N795 N 0.33773 0.18557 0.3223 0.0
H796 H 0.29276 0.04384 0.33551 0.0
H797 H 0.31239 0.08783 0.31765 0.0
H798 H 0.35447 0.22552 0.32051 0.0
H799 H 0.36001 0.17016 0.31742 0.0
H800 H 0.21026 0.13201 0.39019 0.0
H801 H 0.21635 0.07651 0.38933 0.0
H802 H 0.26205 0.21115 0.38436 0.0
H803 H 0.28185 0.25247 0.36576 0.0
loop_
_geom_bond_atom_site_label_1
_geom_bond_atom_site_label_2
_geom_bond_distance
_geom_bond_site_symmetry_2
_ccdc_geom_bond_type
C0 C1 1.264 . S
C0 C5 1.479 . S
C0 C10 1.465 . S
C1 C0 1.264 . S
C1 C3 1.339 . S
C1 H28 0.931 . S
C2 C3 1.395 . S
C2 C4 1.320 . S
C3 C1 1.339 . S
C3 C2 1.395 . S
C3 H29 0.929 . S
C4 C2 1.320 . S
C4 C5 1.405 . S
C4 H30 0.930 . S
C5 C0 1.479 . S
C5 C4 1.405 . S
C5 H31 0.931 . S
U6 O7 2.454 . S
U6 O8 2.458 . S
U6 C9 2.984 . S
U6 C10 2.847 . S
U6 C23 2.882 . S
U6 O24 2.441 . S
U6 O25 2.420 . S
U6 O26 2.455 . S
U6 O27 2.449 . S
O7 U6 2.454 . S
O7 C9 1.353 . S
O8 U6 2.458 . S
O8 C9 1.286 . S
C9 U6 2.984 . S
C9 O7 1.353 . S
C9 O8 1.286 . S
C9 C11 1.363 . S
C10 C0 1.465 . S
C10 U6 2.847 . S
C10 O24 1.249 . S
C10 O25 1.202 . S
C11 C9 1.363 . S
C11 C13 1.408 . S
C11 C16 1.342 . S
C12 C13 1.310 . S
C12 C15 1.461 1_554 S
C12 H32 0.932 . S
C13 C11 1.408 . S
C13 C12 1.310 . S
C13 H33 0.930 . S
C14 C15 1.474 . S
C14 C16 1.285 1_556 S
C14 H34 0.929 . S
C15 C12 1.461 1_556 S
C15 C14 1.474 . S
C16 C11 1.342 . S
C16 C14 1.285 1_554 S
C16 H35 0.930 . S
C17 C20 1.424 . S
C17 C22 1.245 . S
C17 C23 1.428 . S
C18 C21 1.260 . S
C18 C22 1.477 . S
C18 H36 0.932 . S
C19 C20 1.384 . S
C19 C21 1.479 . S
C19 H37 0.929 . S
C20 C17 1.424 . S
C20 C19 1.384 . S
C20 H38 0.928 . S
C21 C18 1.260 . S
C21 C19 1.479 . S
C22 C17 1.245 . S
C22 C18 1.477 . S
C22 H39 0.932 . S
C23 U6 2.882 . S
C23 C17 1.428 . S
C23 O26 1.301 . S
C23 O27 1.282 . S
O24 U6 2.441 . S
O24 C10 1.249 . S
O25 U6 2.420 . S
O25 C10 1.202 . S
O26 U6 2.455 . S
O26 C23 1.301 . S
O27 U6 2.449 . S
O27 C23 1.282 . S
H28 C1 0.931 . S
H29 C3 0.929 . S
H30 C4 0.930 . S
H31 C5 0.931 . S
H32 C12 0.932 . S
H33 C13 0.930 . S
H34 C14 0.929 . S
H35 C16 0.930 . S
H36 C18 0.932 . S
H37 C19 0.929 . S
H38 C20 0.928 . S
H39 C22 0.932 . S
C40 C41 1.264 . S
C40 C45 1.479 . S
C40 C50 1.465 . S
C41 C40 1.264 . S
C41 C43 1.339 . S
C41 H68 0.931 . S
C42 C43 1.395 . S
C42 C44 1.320 . S
C43 C41 1.339 . S
C43 C42 1.395 . S
C43 H69 0.929 . S
C44 C42 1.320 . S
C44 C45 1.405 . S
C44 H70 0.930 . S
C45 C40 1.479 . S
C45 C44 1.405 . S
C45 H71 0.931 . S
U46 O47 2.454 . S
U46 O48 2.458 . S
U46 C49 2.984 . S
U46 C50 2.847 . S
U46 C63 2.882 . S
U46 O64 2.441 . S
U46 O65 2.420 . S
U46 O66 2.455 . S
U46 O67 2.449 . S
O47 U46 2.454 . S
O47 C49 1.353 . S
O48 U46 2.458 . S
O48 C49 1.286 . S
C49 U46 2.984 . S
C49 O47 1.353 . S
C49 O48 1.286 . S
C49 C51 1.363 . S
C50 C40 1.465 . S
C50 U46 2.847 . S
C50 O64 1.249 . S
C50 O65 1.202 . S
C51 C49 1.363 . S
C51 C53 1.408 1_455 S
C51 C56 1.342 . S
C52 C53 1.310 . S
C52 C55 1.461 . S
C52 H72 0.932 . S
C53 C51 1.408 1_655 S
C53 C52 1.310 . S
C53 H73 0.930 . S
C54 C55 1.474 1_455 S
C54 C56 1.285 . S
C54 H74 0.929 . S
C55 C52 1.461 . S
C55 C54 1.474 1_655 S
C56 C51 1.342 . S
C56 C54 1.285 . S
C56 H75 0.930 . S
C57 C60 1.424 . S
C57 C62 1.245 . S
C57 C63 1.428 . S
C58 C61 1.260 . S
C58 C62 1.477 . S
C58 H76 0.932 . S
C59 C60 1.384 . S
C59 C61 1.479 . S
C59 H77 0.929 . S
C60 C57 1.424 . S
C60 C59 1.384 . S
C60 H78 0.928 . S
C61 C58 1.260 . S
C61 C59 1.479 . S
C62 C57 1.245 . S
C62 C58 1.477 . S
C62 H79 0.932 . S
C63 U46 2.882 . S
C63 C57 1.428 . S
C63 O66 1.301 . S
C63 O67 1.282 . S
O64 U46 2.441 . S
O64 C50 1.249 . S
O65 U46 2.420 . S
O65 C50 1.202 . S
O66 U46 2.455 . S
O66 C63 1.301 . S
O67 U46 2.449 . S
O67 C63 1.282 . S
H68 C41 0.931 . S
H69 C43 0.929 . S
H70 C44 0.930 . S
H71 C45 0.931 . S
H72 C52 0.932 . S
H73 C53 0.930 . S
H74 C54 0.929 . S
H75 C56 0.930 . S
H76 C58 0.932 . S
H77 C59 0.929 . S
H78 C60 0.928 . S
H79 C62 0.932 . S
C80 C81 1.264 . S
C80 C85 1.479 . S
C80 C90 1.465 . S
C81 C80 1.264 . S
C81 C83 1.339 . S
C81 H108 0.931 . S
C82 C83 1.395 . S
C82 C84 1.320 . S
C83 C81 1.339 . S
C83 C82 1.395 . S
C83 H109 0.929 . S
C84 C82 1.320 . S
C84 C85 1.405 . S
C84 H110 0.930 . S
C85 C80 1.479 . S
C85 C84 1.405 . S
C85 H111 0.931 . S
U86 O87 2.454 . S
U86 O88 2.458 . S
U86 C89 2.984 . S
U86 C90 2.847 . S
U86 C103 2.882 . S
U86 O104 2.441 . S
U86 O105 2.420 . S
U86 O106 2.455 . S
U86 O107 2.449 . S
O87 U86 2.454 . S
O87 C89 1.353 . S
O88 U86 2.458 . S
O88 C89 1.286 . S
C89 U86 2.984 . S
C89 O87 1.353 . S
C89 O88 1.286 . S
C89 C91 1.363 . S
C90 C80 1.465 . S
C90 U86 2.847 . S
C90 O104 1.249 . S
C90 O105 1.202 . S
C91 C89 1.363 . S
C91 C93 1.408 1_545 S
C91 C96 1.342 . S
C92 C93 1.310 . S
C92 C95 1.461 . S
C92 H112 0.932 . S
C93 C91 1.408 1_565 S
C93 C92 1.310 . S
C93 H113 0.930 . S
C94 C95 1.474 1_545 S
C94 C96 1.285 . S
C94 H114 0.929 . S
C95 C92 1.461 . S
C95 C94 1.474 1_565 S
C96 C91 1.342 . S
C96 C94 1.285 . S
C96 H115 0.930 . S
C97 C100 1.424 . S
C97 C102 1.245 . S
C97 C103 1.428 . S
C98 C101 1.260 . S
C98 C102 1.477 . S
C98 H116 0.932 . S
C99 C100 1.384 . S
C99 C101 1.479 . S
C99 H117 0.929 . S
C100 C97 1.424 . S
C100 C99 1.384 . S
C100 H118 0.928 . S
C101 C98 1.260 . S
C101 C99 1.479 . S
C102 C97 1.245 . S
C102 C98 1.477 . S
C102 H119 0.932 . S
C103 U86 2.882 . S
C103 C97 1.428 . S
C103 O106 1.301 . S
C103 O107 1.282 . S
O104 U86 2.441 . S
O104 C90 1.249 . S
O105 U86 2.420 . S
O105 C90 1.202 . S
O106 U86 2.455 . S
O106 C103 1.301 . S
O107 U86 2.449 . S
O107 C103 1.282 . S
H108 C81 0.931 . S
H109 C83 0.929 . S
H110 C84 0.930 . S
H111 C85 0.931 . S
H112 C92 0.932 . S
H113 C93 0.930 . S
H114 C94 0.929 . S
H115 C96 0.930 . S
H116 C98 0.932 . S
H117 C99 0.929 . S
H118 C100 0.928 . S
H119 C102 0.932 . S
C120 C121 1.264 . S
C120 C125 1.479 . S
C120 C130 1.465 . S
C121 C120 1.264 . S
C121 C123 1.339 . S
C121 H148 0.931 . S
C122 C123 1.395 . S
C122 C124 1.320 . S
C123 C121 1.339 . S
C123 C122 1.395 . S
C123 H149 0.929 . S
C124 C122 1.320 . S
C124 C125 1.405 . S
C124 H150 0.930 . S
C125 C120 1.479 . S
C125 C124 1.405 . S
C125 H151 0.931 . S
U126 O127 2.454 . S
U126 O128 2.458 . S
U126 C129 2.984 . S
U126 C130 2.847 . S
U126 C143 2.882 . S
U126 O144 2.441 . S
U126 O145 2.420 . S
U126 O146 2.455 . S
U126 O147 2.449 . S
O127 U126 2.454 . S
O127 C129 1.353 . S
O128 U126 2.458 . S
O128 C129 1.286 . S
C129 U126 2.984 . S
C129 O127 1.353 . S
C129 O128 1.286 . S
C129 C131 1.363 . S
C130 C120 1.465 . S
C130 U126 2.847 . S
C130 O144 1.249 . S
C130 O145 1.202 . S
C131 C129 1.363 . S
C131 C133 1.408 . S
C131 C136 1.342 . S
C132 C133 1.310 . S
C132 C135 1.461 1_554 S
C132 H152 0.932 . S
C133 C131 1.408 . S
C133 C132 1.310 . S
C133 H153 0.930 . S
C134 C135 1.474 . S
C134 C136 1.285 1_556 S
C134 H154 0.929 . S
C135 C132 1.461 1_556 S
C135 C134 1.474 . S
C136 C131 1.342 . S
C136 C134 1.285 1_554 S
C136 H155 0.930 . S
C137 C140 1.424 . S
C137 C142 1.245 . S
C137 C143 1.428 . S
C138 C141 1.260 . S
C138 C142 1.477 . S
C138 H156 0.932 . S
C139 C140 1.384 . S
C139 C141 1.479 . S
C139 H157 0.929 . S
C140 C137 1.424 . S
C140 C139 1.384 . S
C140 H158 0.928 . S
C141 C138 1.260 . S
C141 C139 1.479 . S
C142 C137 1.245 . S
C142 C138 1.477 . S
C142 H159 0.932 . S
C143 U126 2.882 . S
C143 C137 1.428 . S
C143 O146 1.301 . S
C143 O147 1.282 . S
O144 U126 2.441 . S
O144 C130 1.249 . S
O145 U126 2.420 . S
O145 C130 1.202 . S
O146 U126 2.455 . S
O146 C143 1.301 . S
O147 U126 2.449 . S
O147 C143 1.282 . S
H148 C121 0.931 . S
H149 C123 0.929 . S
H150 C124 0.930 . S
H151 C125 0.931 . S
H152 C132 0.932 . S
H153 C133 0.930 . S
H154 C134 0.929 . S
H155 C136 0.930 . S
H156 C138 0.932 . S
H157 C139 0.929 . S
H158 C140 0.928 . S
H159 C142 0.932 . S
C160 C161 1.264 . S
C160 C165 1.479 . S
C160 C170 1.465 . S
C161 C160 1.264 . S
C161 C163 1.339 . S
C161 H188 0.931 . S
C162 C163 1.395 . S
C162 C164 1.320 . S
C163 C161 1.339 . S
C163 C162 1.395 . S
C163 H189 0.929 . S
C164 C162 1.320 . S
C164 C165 1.405 . S
C164 H190 0.930 . S
C165 C160 1.479 . S
C165 C164 1.405 . S
C165 H191 0.931 . S
U166 O167 2.454 . S
U166 O168 2.458 . S
U166 C169 2.984 . S
U166 C170 2.847 . S
U166 C183 2.882 . S
U166 O184 2.441 . S
U166 O185 2.420 . S
U166 O186 2.455 . S
U166 O187 2.449 . S
O167 U166 2.454 . S
O167 C169 1.353 . S
O168 U166 2.458 . S
O168 C169 1.286 . S
C169 U166 2.984 . S
C169 O167 1.353 . S
C169 O168 1.286 . S
C169 C171 1.363 . S
C170 C160 1.465 . S
C170 U166 2.847 . S
C170 O184 1.249 . S
C170 O185 1.202 . S
C171 C169 1.363 . S
C171 C173 1.408 1_655 S
C171 C176 1.342 . S
C172 C173 1.310 . S
C172 C175 1.461 . S
C172 H192 0.932 . S
C173 C171 1.408 1_455 S
C173 C172 1.310 . S
C173 H193 0.930 . S
C174 C175 1.474 1_655 S
C174 C176 1.285 . S
C174 H194 0.929 . S
C175 C172 1.461 . S
C175 C174 1.474 1_455 S
C176 C171 1.342 . S
C176 C174 1.285 . S
C176 H195 0.930 . S
C177 C180 1.424 . S
C177 C182 1.245 . S
C177 C183 1.428 . S
C178 C181 1.260 . S
C178 C182 1.477 . S
C178 H196 0.932 . S
C179 C180 1.384 . S
C179 C181 1.479 . S
C179 H197 0.929 . S
C180 C177 1.424 . S
C180 C179 1.384 . S
C180 H198 0.928 . S
C181 C178 1.260 . S
C181 C179 1.479 . S
C182 C177 1.245 . S
C182 C178 1.477 . S
C182 H199 0.932 . S
C183 U166 2.882 . S
C183 C177 1.428 . S
C183 O186 1.301 . S
C183 O187 1.282 . S
O184 U166 2.441 . S
O184 C170 1.249 . S
O185 U166 2.420 . S
O185 C170 1.202 . S
O186 U166 2.455 . S
O186 C183 1.301 . S
O187 U166 2.449 . S
O187 C183 1.282 . S
H188 C161 0.931 . S
H189 C163 0.929 . S
H190 C164 0.930 . S
H191 C165 0.931 . S
H192 C172 0.932 . S
H193 C173 0.930 . S
H194 C174 0.929 . S
H195 C176 0.930 . S
H196 C178 0.932 . S
H197 C179 0.929 . S
H198 C180 0.928 . S
H199 C182 0.932 . S
C200 C201 1.264 . S
C200 C205 1.479 . S
C200 C210 1.465 . S
C201 C200 1.264 . S
C201 C203 1.339 . S
C201 H228 0.931 . S
C202 C203 1.395 . S
C202 C204 1.320 . S
C203 C201 1.339 . S
C203 C202 1.395 . S
C203 H229 0.929 . S
C204 C202 1.320 . S
C204 C205 1.405 . S
C204 H230 0.930 . S
C205 C200 1.479 . S
C205 C204 1.405 . S
C205 H231 0.931 . S
U206 O207 2.454 . S
U206 O208 2.458 . S
U206 C209 2.984 . S
U206 C210 2.847 . S
U206 C223 2.882 . S
U206 O224 2.441 . S
U206 O225 2.420 . S
U206 O226 2.455 . S
U206 O227 2.449 . S
O207 U206 2.454 . S
O207 C209 1.353 . S
O208 U206 2.458 . S
O208 C209 1.286 . S
C209 U206 2.984 . S
C209 O207 1.353 . S
C209 O208 1.286 . S
C209 C211 1.363 . S
C210 C200 1.465 . S
C210 U206 2.847 . S
C210 O224 1.249 . S
C210 O225 1.202 . S
C211 C209 1.363 . S
C211 C213 1.408 1_565 S
C211 C216 1.342 . S
C212 C213 1.310 . S
C212 C215 1.461 . S
C212 H232 0.932 . S
C213 C211 1.408 1_545 S
C213 C212 1.310 . S
C213 H233 0.930 . S
C214 C215 1.474 1_565 S
C214 C216 1.285 . S
C214 H234 0.929 . S
C215 C212 1.461 . S
C215 C214 1.474 1_545 S
C216 C211 1.342 . S
C216 C214 1.285 . S
C216 H235 0.930 . S
C217 C220 1.424 . S
C217 C222 1.245 . S
C217 C223 1.428 . S
C218 C221 1.260 . S
C218 C222 1.477 . S
C218 H236 0.932 . S
C219 C220 1.384 . S
C219 C221 1.479 . S
C219 H237 0.929 . S
C220 C217 1.424 . S
C220 C219 1.384 . S
C220 H238 0.928 . S
C221 C218 1.260 . S
C221 C219 1.479 . S
C222 C217 1.245 . S
C222 C218 1.477 . S
C222 H239 0.932 . S
C223 U206 2.882 . S
C223 C217 1.428 . S
C223 O226 1.301 . S
C223 O227 1.282 . S
O224 U206 2.441 . S
O224 C210 1.249 . S
O225 U206 2.420 . S
O225 C210 1.202 . S
O226 U206 2.455 . S
O226 C223 1.301 . S
O227 U206 2.449 . S
O227 C223 1.282 . S
H228 C201 0.931 . S
H229 C203 0.929 . S
H230 C204 0.930 . S
H231 C205 0.931 . S
H232 C212 0.932 . S
H233 C213 0.930 . S
H234 C214 0.929 . S
H235 C216 0.930 . S
H236 C218 0.932 . S
H237 C219 0.929 . S
H238 C220 0.928 . S
H239 C222 0.932 . S
C240 C241 1.264 . S
C240 C245 1.479 . S
C240 C250 1.465 . S
C241 C240 1.264 . S
C241 C243 1.339 . S
C241 H268 0.931 . S
C242 C243 1.395 . S
C242 C244 1.320 . S
C243 C241 1.339 . S
C243 C242 1.395 . S
C243 H269 0.929 . S
C244 C242 1.320 . S
C244 C245 1.405 . S
C244 H270 0.930 . S
C245 C240 1.479 . S
C245 C244 1.405 . S
C245 H271 0.931 . S
U246 O247 2.454 . S
U246 O248 2.458 . S
U246 C249 2.984 . S
U246 C250 2.847 . S
U246 C263 2.882 . S
U246 O264 2.441 . S
U246 O265 2.420 . S
U246 O266 2.455 . S
U246 O267 2.449 . S
O247 U246 2.454 . S
O247 C249 1.353 . S
O248 U246 2.458 . S
O248 C249 1.286 . S
C249 U246 2.984 . S
C249 O247 1.353 . S
C249 O248 1.286 . S
C249 C251 1.363 . S
C250 C240 1.465 . S
C250 U246 2.847 . S
C250 O264 1.249 . S
C250 O265 1.202 . S
C251 C249 1.363 . S
C251 C253 1.408 . S
C251 C256 1.342 . S
C252 C253 1.310 . S
C252 C255 1.461 . S
C252 H272 0.932 . S
C253 C251 1.408 . S
C253 C252 1.310 . S
C253 H273 0.930 . S
C254 C255 1.474 . S
C254 C256 1.285 . S
C254 H274 0.929 . S
C255 C252 1.461 . S
C255 C254 1.474 . S
C256 C251 1.342 . S
C256 C254 1.285 . S
C256 H275 0.930 . S
C257 C260 1.424 . S
C257 C262 1.245 . S
C257 C263 1.428 . S
C258 C261 1.260 . S
C258 C262 1.477 . S
C258 H276 0.932 . S
C259 C260 1.384 . S
C259 C261 1.479 . S
C259 H277 0.929 . S
C260 C257 1.424 . S
C260 C259 1.384 . S
C260 H278 0.928 . S
C261 C258 1.260 . S
C261 C259 1.479 . S
C262 C257 1.245 . S
C262 C258 1.477 . S
C262 H279 0.932 . S
C263 U246 2.882 . S
C263 C257 1.428 . S
C263 O266 1.301 . S
C263 O267 1.282 . S
O264 U246 2.441 . S
O264 C250 1.249 . S
O265 U246 2.420 . S
O265 C250 1.202 . S
O266 U246 2.455 . S
O266 C263 1.301 . S
O267 U246 2.449 . S
O267 C263 1.282 . S
H268 C241 0.931 . S
H269 C243 0.929 . S
H270 C244 0.930 . S
H271 C245 0.931 . S
H272 C252 0.932 . S
H273 C253 0.930 . S
H274 C254 0.929 . S
H275 C256 0.930 . S
H276 C258 0.932 . S
H277 C259 0.929 . S
H278 C260 0.928 . S
H279 C262 0.932 . S
C280 C281 1.264 . S
C280 C285 1.479 . S
C280 C290 1.465 . S
C281 C280 1.264 . S
C281 C283 1.339 . S
C281 H308 0.931 . S
C282 C283 1.395 . S
C282 C284 1.320 . S
C283 C281 1.339 . S
C283 C282 1.395 . S
C283 H309 0.929 . S
C284 C282 1.320 . S
C284 C285 1.405 . S
C284 H310 0.930 . S
C285 C280 1.479 . S
C285 C284 1.405 . S
C285 H311 0.931 . S
U286 O287 2.454 . S
U286 O288 2.458 . S
U286 C289 2.984 . S
U286 C290 2.847 . S
U286 C303 2.882 . S
U286 O304 2.441 . S
U286 O305 2.420 . S
U286 O306 2.455 . S
U286 O307 2.449 . S
O287 U286 2.454 . S
O287 C289 1.353 . S
O288 U286 2.458 . S
O288 C289 1.286 . S
C289 U286 2.984 . S
C289 O287 1.353 . S
C289 O288 1.286 . S
C289 C291 1.363 . S
C290 C280 1.465 . S
C290 U286 2.847 . S
C290 O304 1.249 . S
C290 O305 1.202 . S
C291 C289 1.363 . S
C291 C293 1.408 1_455 S
C291 C296 1.342 . S
C292 C293 1.310 . S
C292 C295 1.461 1_556 S
C292 H312 0.932 . S
C293 C291 1.408 1_655 S
C293 C292 1.310 . S
C293 H313 0.930 . S
C294 C295 1.474 1_455 S
C294 C296 1.285 1_554 S
C294 H314 0.929 . S
C295 C292 1.461 1_554 S
C295 C294 1.474 1_655 S
C296 C291 1.342 . S
C296 C294 1.285 1_556 S
C296 H315 0.930 . S
C297 C300 1.424 . S
C297 C302 1.245 . S
C297 C303 1.428 . S
C298 C301 1.260 . S
C298 C302 1.477 . S
C298 H316 0.932 . S
C299 C300 1.384 . S
C299 C301 1.479 . S
C299 H317 0.929 . S
C300 C297 1.424 . S
C300 C299 1.384 . S
C300 H318 0.928 . S
C301 C298 1.260 . S
C301 C299 1.479 . S
C302 C297 1.245 . S
C302 C298 1.477 . S
C302 H319 0.932 . S
C303 U286 2.882 . S
C303 C297 1.428 . S
C303 O306 1.301 . S
C303 O307 1.282 . S
O304 U286 2.441 . S
O304 C290 1.249 . S
O305 U286 2.420 . S
O305 C290 1.202 . S
O306 U286 2.455 . S
O306 C303 1.301 . S
O307 U286 2.449 . S
O307 C303 1.282 . S
H308 C281 0.931 . S
H309 C283 0.929 . S
H310 C284 0.930 . S
H311 C285 0.931 . S
H312 C292 0.932 . S
H313 C293 0.930 . S
H314 C294 0.929 . S
H315 C296 0.930 . S
H316 C298 0.932 . S
H317 C299 0.929 . S
H318 C300 0.928 . S
H319 C302 0.932 . S
C320 C321 1.264 . S
C320 C325 1.479 . S
C320 C330 1.465 . S
C321 C320 1.264 . S
C321 C323 1.339 . S
C321 H348 0.931 . S
C322 C323 1.395 . S
C322 C324 1.320 . S
C323 C321 1.339 . S
C323 C322 1.395 . S
C323 H349 0.929 . S
C324 C322 1.320 . S
C324 C325 1.405 . S
C324 H350 0.930 . S
C325 C320 1.479 . S
C325 C324 1.405 . S
C325 H351 0.931 . S
U326 O327 2.454 . S
U326 O328 2.458 . S
U326 C329 2.984 . S
U326 C330 2.847 . S
U326 C343 2.882 . S
U326 O344 2.441 . S
U326 O345 2.420 . S
U326 O346 2.455 . S
U326 O347 2.449 . S
O327 U326 2.454 . S
O327 C329 1.353 . S
O328 U326 2.458 . S
O328 C329 1.286 . S
C329 U326 2.984 . S
C329 O327 1.353 . S
C329 O328 1.286 . S
C329 C331 1.363 . S
C330 C320 1.465 . S
C330 U326 2.847 . S
C330 O344 1.249 . S
C330 O345 1.202 . S
C331 C329 1.363 . S
C331 C333 1.408 1_545 S
C331 C336 1.342 . S
C332 C333 1.310 . S
C332 C335 1.461 . S
C332 H352 0.932 . S
C333 C331 1.408 1_565 S
C333 C332 1.310 . S
C333 H353 0.930 . S
C334 C335 1.474 1_545 S
C334 C336 1.285 . S
C334 H354 0.929 . S
C335 C332 1.461 . S
C335 C334 1.474 1_565 S
C336 C331 1.342 . S
C336 C334 1.285 . S
C336 H355 0.930 . S
C337 C340 1.424 . S
C337 C342 1.245 . S
C337 C343 1.428 . S
C338 C341 1.260 . S
C338 C342 1.477 . S
C338 H356 0.932 . S
C339 C340 1.384 . S
C339 C341 1.479 . S
C339 H357 0.929 . S
C340 C337 1.424 . S
C340 C339 1.384 . S
C340 H358 0.928 . S
C341 C338 1.260 . S
C341 C339 1.479 . S
C342 C337 1.245 . S
C342 C338 1.477 . S
C342 H359 0.932 . S
C343 U326 2.882 . S
C343 C337 1.428 . S
C343 O346 1.301 . S
C343 O347 1.282 . S
O344 U326 2.441 . S
O344 C330 1.249 . S
O345 U326 2.420 . S
O345 C330 1.202 . S
O346 U326 2.455 . S
O346 C343 1.301 . S
O347 U326 2.449 . S
O347 C343 1.282 . S
H348 C321 0.931 . S
H349 C323 0.929 . S
H350 C324 0.930 . S
H351 C325 0.931 . S
H352 C332 0.932 . S
H353 C333 0.930 . S
H354 C334 0.929 . S
H355 C336 0.930 . S
H356 C338 0.932 . S
H357 C339 0.929 . S
H358 C340 0.928 . S
H359 C342 0.932 . S
C360 C361 1.264 . S
C360 C365 1.479 . S
C360 C370 1.465 . S
C361 C360 1.264 . S
C361 C363 1.339 . S
C361 H388 0.931 . S
C362 C363 1.395 . S
C362 C364 1.320 . S
C363 C361 1.339 . S
C363 C362 1.395 . S
C363 H389 0.929 . S
C364 C362 1.320 . S
C364 C365 1.405 . S
C364 H390 0.930 . S
C365 C360 1.479 . S
C365 C364 1.405 . S
C365 H391 0.931 . S
U366 O367 2.454 . S
U366 O368 2.458 . S
U366 C369 2.984 . S
U366 C370 2.847 . S
U366 C383 2.882 . S
U366 O384 2.441 . S
U366 O385 2.420 . S
U366 O386 2.455 . S
U366 O387 2.449 . S
O367 U366 2.454 . S
O367 C369 1.353 . S
O368 U366 2.458 . S
O368 C369 1.286 . S
C369 U366 2.984 . S
C369 O367 1.353 . S
C369 O368 1.286 . S
C369 C371 1.363 . S
C370 C360 1.465 . S
C370 U366 2.847 . S
C370 O384 1.249 . S
C370 O385 1.202 . S
C371 C369 1.363 . S
C371 C373 1.408 . S
C371 C376 1.342 . S
C372 C373 1.310 . S
C372 C375 1.461 . S
C372 H392 0.932 . S
C373 C371 1.408 . S
C373 C372 1.310 . S
C373 H393 0.930 . S
C374 C375 1.474 . S
C374 C376 1.285 . S
C374 H394 0.929 . S
C375 C372 1.461 . S
C375 C374 1.474 . S
C376 C371 1.342 . S
C376 C374 1.285 . S
C376 H395 0.930 . S
C377 C380 1.424 . S
C377 C382 1.245 . S
C377 C383 1.428 . S
C378 C381 1.260 . S
C378 C382 1.477 . S
C378 H396 0.932 . S
C379 C380 1.384 . S
C379 C381 1.479 . S
C379 H397 0.929 . S
C380 C377 1.424 . S
C380 C379 1.384 . S
C380 H398 0.928 . S
C381 C378 1.260 . S
C381 C379 1.479 . S
C382 C377 1.245 . S
C382 C378 1.477 . S
C382 H399 0.932 . S
C383 U366 2.882 . S
C383 C377 1.428 . S
C383 O386 1.301 . S
C383 O387 1.282 . S
O384 U366 2.441 . S
O384 C370 1.249 . S
O385 U366 2.420 . S
O385 C370 1.202 . S
O386 U366 2.455 . S
O386 C383 1.301 . S
O387 U366 2.449 . S
O387 C383 1.282 . S
H388 C361 0.931 . S
H389 C363 0.929 . S
H390 C364 0.930 . S
H391 C365 0.931 . S
H392 C372 0.932 . S
H393 C373 0.930 . S
H394 C374 0.929 . S
H395 C376 0.930 . S
H396 C378 0.932 . S
H397 C379 0.929 . S
H398 C380 0.928 . S
H399 C382 0.932 . S
C400 C401 1.264 . S
C400 C405 1.479 . S
C400 C410 1.465 . S
C401 C400 1.264 . S
C401 C403 1.339 . S
C401 H428 0.931 . S
C402 C403 1.395 . S
C402 C404 1.320 . S
C403 C401 1.339 . S
C403 C402 1.395 . S
C403 H429 0.929 . S
C404 C402 1.320 . S
C404 C405 1.405 . S
C404 H430 0.930 . S
C405 C400 1.479 . S
C405 C404 1.405 . S
C405 H431 0.931 . S
U406 O407 2.454 . S
U406 O408 2.458 . S
U406 C409 2.984 . S
U406 C410 2.847 . S
U406 C423 2.882 . S
U406 O424 2.441 . S
U406 O425 2.420 . S
U406 O426 2.455 . S
U406 O427 2.449 . S
O407 U406 2.454 . S
O407 C409 1.353 . S
O408 U406 2.458 . S
O408 C409 1.286 . S
C409 U406 2.984 . S
C409 O407 1.353 . S
C409 O408 1.286 . S
C409 C411 1.363 . S
C410 C400 1.465 . S
C410 U406 2.847 . S
C410 O424 1.249 . S
C410 O425 1.202 . S
C411 C409 1.363 . S
C411 C413 1.408 1_655 S
C411 C416 1.342 . S
C412 C413 1.310 . S
C412 C415 1.461 1_556 S
C412 H432 0.932 . S
C413 C411 1.408 1_455 S
C413 C412 1.310 . S
C413 H433 0.930 . S
C414 C415 1.474 1_655 S
C414 C416 1.285 1_554 S
C414 H434 0.929 . S
C415 C412 1.461 1_554 S
C415 C414 1.474 1_455 S
C416 C411 1.342 . S
C416 C414 1.285 1_556 S
C416 H435 0.930 . S
C417 C420 1.424 . S
C417 C422 1.245 . S
C417 C423 1.428 . S
C418 C421 1.260 . S
C418 C422 1.477 . S
C418 H436 0.932 . S
C419 C420 1.384 . S
C419 C421 1.479 . S
C419 H437 0.929 . S
C420 C417 1.424 . S
C420 C419 1.384 . S
C420 H438 0.928 . S
C421 C418 1.260 . S
C421 C419 1.479 . S
C422 C417 1.245 . S
C422 C418 1.477 . S
C422 H439 0.932 . S
C423 U406 2.882 . S
C423 C417 1.428 . S
C423 O426 1.301 . S
C423 O427 1.282 . S
O424 U406 2.441 . S
O424 C410 1.249 . S
O425 U406 2.420 . S
O425 C410 1.202 . S
O426 U406 2.455 . S
O426 C423 1.301 . S
O427 U406 2.449 . S
O427 C423 1.282 . S
H428 C401 0.931 . S
H429 C403 0.929 . S
H430 C404 0.930 . S
H431 C405 0.931 . S
H432 C412 0.932 . S
H433 C413 0.930 . S
H434 C414 0.929 . S
H435 C416 0.930 . S
H436 C418 0.932 . S
H437 C419 0.929 . S
H438 C420 0.928 . S
H439 C422 0.932 . S
C440 C441 1.264 . S
C440 C445 1.479 . S
C440 C450 1.465 . S
C441 C440 1.264 . S
C441 C443 1.339 . S
C441 H468 0.931 . S
C442 C443 1.395 . S
C442 C444 1.320 . S
C443 C441 1.339 . S
C443 C442 1.395 . S
C443 H469 0.929 . S
C444 C442 1.320 . S
C444 C445 1.405 . S
C444 H470 0.930 . S
C445 C440 1.479 . S
C445 C444 1.405 . S
C445 H471 0.931 . S
U446 O447 2.454 . S
U446 O448 2.458 . S
U446 C449 2.984 . S
U446 C450 2.847 . S
U446 C463 2.882 . S
U446 O464 2.441 . S
U446 O465 2.420 . S
U446 O466 2.455 . S
U446 O467 2.449 . S
O447 U446 2.454 . S
O447 C449 1.353 . S
O448 U446 2.458 . S
O448 C449 1.286 . S
C449 U446 2.984 . S
C449 O447 1.353 . S
C449 O448 1.286 . S
C449 C451 1.363 . S
C450 C440 1.465 . S
C450 U446 2.847 . S
C450 O464 1.249 . S
C450 O465 1.202 . S
C451 C449 1.363 . S
C451 C453 1.408 1_565 S
C451 C456 1.342 . S
C452 C453 1.310 . S
C452 C455 1.461 . S
C452 H472 0.932 . S
C453 C451 1.408 1_545 S
C453 C452 1.310 . S
C453 H473 0.930 . S
C454 C455 1.474 1_565 S
C454 C456 1.285 . S
C454 H474 0.929 . S
C455 C452 1.461 . S
C455 C454 1.474 1_545 S
C456 C451 1.342 . S
C456 C454 1.285 . S
C456 H475 0.930 . S
C457 C460 1.424 . S
C457 C462 1.245 . S
C457 C463 1.428 . S
C458 C461 1.260 . S
C458 C462 1.477 . S
C458 H476 0.932 . S
C459 C460 1.384 . S
C459 C461 1.479 . S
C459 H477 0.929 . S
C460 C457 1.424 . S
C460 C459 1.384 . S
C460 H478 0.928 . S
C461 C458 1.260 . S
C461 C459 1.479 . S
C462 C457 1.245 . S
C462 C458 1.477 . S
C462 H479 0.932 . S
C463 U446 2.882 . S
C463 C457 1.428 . S
C463 O466 1.301 . S
C463 O467 1.282 . S
O464 U446 2.441 . S
O464 C450 1.249 . S
O465 U446 2.420 . S
O465 C450 1.202 . S
O466 U446 2.455 . S
O466 C463 1.301 . S
O467 U446 2.449 . S
O467 C463 1.282 . S
H468 C441 0.931 . S
H469 C443 0.929 . S
H470 C444 0.930 . S
H471 C445 0.931 . S
H472 C452 0.932 . S
H473 C453 0.930 . S
H474 C454 0.929 . S
H475 C456 0.930 . S
H476 C458 0.932 . S
H477 C459 0.929 . S
H478 C460 0.928 . S
H479 C462 0.932 . S
C480 C481 1.363 . S
C480 C486 1.379 . S
C480 N488 1.356 . S
C481 C480 1.363 . S
C481 C487 1.363 . S
C482 C483 1.363 . S
C482 C487 1.379 . S
C482 N489 1.356 . S
C483 C482 1.363 . S
C483 C486 1.363 . S
N484 C486 1.356 . S
N484 H496 0.984 . S
N484 H497 0.985 . S
N485 C487 1.356 . S
N485 H490 0.984 . S
N485 H491 0.985 . S
C486 C480 1.379 . S
C486 C483 1.363 . S
C486 N484 1.356 . S
C487 C481 1.363 . S
C487 C482 1.379 . S
C487 N485 1.356 . S
N488 C480 1.356 . S
N488 H494 0.984 . S
N488 H495 0.984 . S
N489 C482 1.356 . S
N489 H492 0.984 . S
N489 H493 0.985 . S
H490 N485 0.984 . S
H491 N485 0.985 . S
H492 N489 0.984 . S
H493 N489 0.985 . S
H494 N488 0.984 . S
H495 N488 0.984 . S
H496 N484 0.984 . S
H497 N484 0.985 . S
C498 C499 1.363 . S
C498 C504 1.379 . S
C498 N506 1.356 . S
C499 C498 1.363 . S
C499 C505 1.363 . S
C500 C501 1.363 . S
C500 C505 1.379 . S
C500 N507 1.356 . S
C501 C500 1.363 . S
C501 C504 1.363 . S
N502 C504 1.356 . S
N502 H514 0.984 . S
N502 H515 0.985 . S
N503 C505 1.356 . S
N503 H508 0.984 . S
N503 H509 0.985 . S
C504 C498 1.379 . S
C504 C501 1.363 . S
C504 N502 1.356 . S
C505 C499 1.363 . S
C505 C500 1.379 . S
C505 N503 1.356 . S
N506 C498 1.356 . S
N506 H512 0.984 . S
N506 H513 0.984 . S
N507 C500 1.356 . S
N507 H510 0.984 . S
N507 H511 0.985 . S
H508 N503 0.984 . S
H509 N503 0.985 . S
H510 N507 0.984 . S
H511 N507 0.985 . S
H512 N506 0.984 . S
H513 N506 0.984 . S
H514 N502 0.984 . S
H515 N502 0.985 . S
C516 C517 1.363 . S
C516 C522 1.379 . S
C516 N524 1.356 . S
C517 C516 1.363 . S
C517 C523 1.363 . S
C518 C519 1.363 . S
C518 C523 1.379 . S
C518 N525 1.356 . S
C519 C518 1.363 . S
C519 C522 1.363 . S
N520 C522 1.356 . S
N520 H532 0.984 . S
N520 H533 0.985 . S
N521 C523 1.356 . S
N521 H526 0.984 . S
N521 H527 0.985 . S
C522 C516 1.379 . S
C522 C519 1.363 . S
C522 N520 1.356 . S
C523 C517 1.363 . S
C523 C518 1.379 . S
C523 N521 1.356 . S
N524 C516 1.356 . S
N524 H530 0.984 . S
N524 H531 0.984 . S
N525 C518 1.356 . S
N525 H528 0.984 . S
N525 H529 0.985 . S
H526 N521 0.984 . S
H527 N521 0.985 . S
H528 N525 0.984 . S
H529 N525 0.985 . S
H530 N524 0.984 . S
H531 N524 0.984 . S
H532 N520 0.984 . S
H533 N520 0.985 . S
C534 C535 1.363 . S
C534 C540 1.379 . S
C534 N542 1.356 . S
C535 C534 1.363 . S
C535 C541 1.363 . S
C536 C537 1.363 . S
C536 C541 1.379 . S
C536 N543 1.356 . S
C537 C536 1.363 . S
C537 C540 1.363 . S
N538 C540 1.356 . S
N538 H550 0.984 . S
N538 H551 0.985 . S
N539 C541 1.356 . S
N539 H544 0.984 . S
N539 H545 0.985 . S
C540 C534 1.379 . S
C540 C537 1.363 . S
C540 N538 1.356 . S
C541 C535 1.363 . S
C541 C536 1.379 . S
C541 N539 1.356 . S
N542 C534 1.356 . S
N542 H548 0.984 . S
N542 H549 0.984 . S
N543 C536 1.356 . S
N543 H546 0.984 . S
N543 H547 0.985 . S
H544 N539 0.984 . S
H545 N539 0.985 . S
H546 N543 0.984 . S
H547 N543 0.985 . S
H548 N542 0.984 . S
H549 N542 0.984 . S
H550 N538 0.984 . S
H551 N538 0.985 . S
C552 C553 1.363 . S
C552 C558 1.379 . S
C552 N560 1.356 . S
C553 C552 1.363 . S
C553 C559 1.363 . S
C554 C555 1.363 . S
C554 C559 1.379 . S
C554 N561 1.356 . S
C555 C554 1.363 . S
C555 C558 1.363 . S
N556 C558 1.356 . S
N556 H568 0.984 . S
N556 H569 0.985 . S
N557 C559 1.356 . S
N557 H562 0.984 . S
N557 H563 0.985 . S
C558 C552 1.379 . S
C558 C555 1.363 . S
C558 N556 1.356 . S
C559 C553 1.363 . S
C559 C554 1.379 . S
C559 N557 1.356 . S
N560 C552 1.356 . S
N560 H566 0.984 . S
N560 H567 0.984 . S
N561 C554 1.356 . S
N561 H564 0.984 . S
N561 H565 0.985 . S
H562 N557 0.984 . S
H563 N557 0.985 . S
H564 N561 0.984 . S
H565 N561 0.985 . S
H566 N560 0.984 . S
H567 N560 0.984 . S
H568 N556 0.984 . S
H569 N556 0.985 . S
C570 C571 1.363 . S
C570 C576 1.379 . S
C570 N578 1.356 . S
C571 C570 1.363 . S
C571 C577 1.363 . S
C572 C573 1.363 . S
C572 C577 1.379 . S
C572 N579 1.356 . S
C573 C572 1.363 . S
C573 C576 1.363 . S
N574 C576 1.356 . S
N574 H586 0.984 . S
N574 H587 0.985 . S
N575 C577 1.356 . S
N575 H580 0.984 . S
N575 H581 0.985 . S
C576 C570 1.379 . S
C576 C573 1.363 . S
C576 N574 1.356 . S
C577 C571 1.363 . S
C577 C572 1.379 . S
C577 N575 1.356 . S
N578 C570 1.356 . S
N578 H584 0.984 . S
N578 H585 0.984 . S
N579 C572 1.356 . S
N579 H582 0.984 . S
N579 H583 0.985 . S
H580 N575 0.984 . S
H581 N575 0.985 . S
H582 N579 0.984 . S
H583 N579 0.985 . S
H584 N578 0.984 . S
H585 N578 0.984 . S
H586 N574 0.984 . S
H587 N574 0.985 . S
C588 C589 1.363 . S
C588 C594 1.379 1_545 S
C588 N596 1.356 . S
C589 C588 1.363 . S
C589 C595 1.363 . S
C590 C591 1.363 . S
C590 C595 1.379 1_565 S
C590 N597 1.350 1_554 S
C591 C590 1.363 . S
C591 C594 1.363 . S
N592 C594 1.356 . S
N592 H604 0.984 . S
N592 H605 0.985 . S
N593 C595 1.349 1_556 S
N593 H598 0.981 1_556 S
N593 H599 0.994 . S
C594 C588 1.379 1_565 S
C594 C591 1.363 . S
C594 N592 1.356 . S
C595 C589 1.363 . S
C595 C590 1.379 1_545 S
C595 N593 1.349 1_554 S
N596 C588 1.356 . S
N596 H602 0.984 . S
N596 H603 0.984 . S
N597 C590 1.350 1_556 S
N597 H600 0.982 1_556 S
N597 H601 0.994 . S
H598 N593 0.981 1_554 S
H599 N593 0.994 . S
H600 N597 0.982 1_554 S
H601 N597 0.994 . S
H602 N596 0.984 . S
H603 N596 0.984 . S
H604 N592 0.984 . S
H605 N592 0.985 . S
C606 C607 1.363 . S
C606 C612 1.379 . S
C606 N614 1.356 . S
C607 C606 1.363 . S
C607 C613 1.363 . S
C608 C609 1.363 . S
C608 C613 1.379 . S
C608 N615 1.356 . S
C609 C608 1.363 . S
C609 C612 1.363 . S
N610 C612 1.356 . S
N610 H622 0.984 . S
N610 H623 0.985 . S
N611 C613 1.356 . S
N611 H616 0.984 . S
N611 H617 0.985 . S
C612 C606 1.379 . S
C612 C609 1.363 . S
C612 N610 1.356 . S
C613 C607 1.363 . S
C613 C608 1.379 . S
C613 N611 1.356 . S
N614 C606 1.356 . S
N614 H620 0.984 . S
N614 H621 0.984 . S
N615 C608 1.356 . S
N615 H618 0.984 . S
N615 H619 0.985 . S
H616 N611 0.984 . S
H617 N611 0.985 . S
H618 N615 0.984 . S
H619 N615 0.985 . S
H620 N614 0.984 . S
H621 N614 0.984 . S
H622 N610 0.984 . S
H623 N610 0.985 . S
C624 C625 1.363 . S
C624 C630 1.379 1_455 S
C624 N632 1.356 . S
C625 C624 1.363 . S
C625 C631 1.363 . S
C626 C627 1.363 . S
C626 C631 1.379 1_655 S
C626 N633 1.356 . S
C627 C626 1.363 . S
C627 C630 1.363 . S
N628 C630 1.356 . S
N628 H640 0.984 . S
N628 H641 0.985 . S
N629 C631 1.356 . S
N629 H634 0.984 . S
N629 H635 0.985 . S
C630 C624 1.379 1_655 S
C630 C627 1.363 . S
C630 N628 1.356 . S
C631 C625 1.363 . S
C631 C626 1.379 1_455 S
C631 N629 1.356 . S
N632 C624 1.356 . S
N632 H638 0.984 . S
N632 H639 0.984 . S
N633 C626 1.356 . S
N633 H636 0.984 . S
N633 H637 0.985 . S
H634 N629 0.984 . S
H635 N629 0.985 . S
H636 N633 0.984 . S
H637 N633 0.985 . S
H638 N632 0.984 . S
H639 N632 0.984 . S
H640 N628 0.984 . S
H641 N628 0.985 . S
C642 C643 1.363 . S
C642 C648 1.379 1_655 S
C642 N650 1.356 . S
C643 C642 1.363 . S
C643 C649 1.363 . S
C644 C645 1.363 . S
C644 C649 1.379 1_455 S
C644 N651 1.356 . S
C645 C644 1.363 . S
C645 C648 1.363 . S
N646 C648 1.356 . S
N646 H658 0.984 . S
N646 H659 0.985 . S
N647 C649 1.356 . S
N647 H652 0.984 . S
N647 H653 0.985 . S
C648 C642 1.379 1_455 S
C648 C645 1.363 . S
C648 N646 1.356 . S
C649 C643 1.363 . S
C649 C644 1.379 1_655 S
C649 N647 1.356 . S
N650 C642 1.356 . S
N650 H656 0.984 . S
N650 H657 0.984 . S
N651 C644 1.356 . S
N651 H654 0.984 . S
N651 H655 0.985 . S
H652 N647 0.984 . S
H653 N647 0.985 . S
H654 N651 0.984 . S
H655 N651 0.985 . S
H656 N650 0.984 . S
H657 N650 0.984 . S
H658 N646 0.984 . S
H659 N646 0.985 . S
C660 C661 1.363 . S
C660 C666 1.379 1_545 S
C660 N668 1.350 1_556 S
C661 C660 1.363 . S
C661 C667 1.363 . S
C662 C663 1.363 . S
C662 C667 1.379 1_565 S
C662 N669 1.356 . S
C663 C662 1.363 . S
C663 C666 1.363 . S
N664 C666 1.350 1_554 S
N664 H676 0.994 . S
N664 H677 0.982 1_554 S
N665 C667 1.356 . S
N665 H670 0.984 . S
N665 H671 0.985 . S
C666 C660 1.379 1_565 S
C666 C663 1.363 . S
C666 N664 1.350 1_556 S
C667 C661 1.363 . S
C667 C662 1.379 1_545 S
C667 N665 1.356 . S
N668 C660 1.350 1_554 S
N668 H674 0.994 . S
N668 H675 0.982 1_554 S
N669 C662 1.356 . S
N669 H672 0.984 . S
N669 H673 0.985 . S
H670 N665 0.984 . S
H671 N665 0.985 . S
H672 N669 0.984 . S
H673 N669 0.985 . S
H674 N668 0.994 . S
H675 N668 0.982 1_556 S
H676 N664 0.994 . S
H677 N664 0.982 1_556 S
C678 C679 1.363 . S
C678 C684 1.379 . S
C678 N686 1.356 . S
C679 C678 1.363 . S
C679 C685 1.363 . S
C680 C681 1.363 . S
C680 C685 1.379 . S
C680 N687 1.356 . S
C681 C680 1.363 . S
C681 C684 1.363 . S
N682 C684 1.356 . S
N682 H694 0.984 . S
N682 H695 0.985 . S
N683 C685 1.356 . S
N683 H688 0.984 . S
N683 H689 0.985 . S
C684 C678 1.379 . S
C684 C681 1.363 . S
C684 N682 1.356 . S
C685 C679 1.363 . S
C685 C680 1.379 . S
C685 N683 1.356 . S
N686 C678 1.356 . S
N686 H692 0.984 . S
N686 H693 0.984 . S
N687 C680 1.356 . S
N687 H690 0.984 . S
N687 H691 0.985 . S
H688 N683 0.984 . S
H689 N683 0.985 . S
H690 N687 0.984 . S
H691 N687 0.985 . S
H692 N686 0.984 . S
H693 N686 0.984 . S
H694 N682 0.984 . S
H695 N682 0.985 . S
C696 C697 1.363 1_556 S
C696 C702 1.379 . S
C696 N704 1.356 . S
C697 C696 1.363 1_554 S
C697 C703 1.363 . S
C698 C699 1.363 1_554 S
C698 C703 1.379 . S
C698 N705 1.356 . S
C699 C698 1.363 1_556 S
C699 C702 1.363 . S
N700 C702 1.356 . S
N700 H712 0.984 . S
N700 H713 0.985 . S
N701 C703 1.356 . S
N701 H706 0.984 . S
N701 H707 0.985 . S
C702 C696 1.379 . S
C702 C699 1.363 . S
C702 N700 1.356 . S
C703 C697 1.363 . S
C703 C698 1.379 . S
C703 N701 1.356 . S
N704 C696 1.356 . S
N704 H710 0.984 . S
N704 H711 0.984 . S
N705 C698 1.356 . S
N705 H708 0.984 . S
N705 H709 0.985 . S
H706 N701 0.984 . S
H707 N701 0.985 . S
H708 N705 0.984 . S
H709 N705 0.985 . S
H710 N704 0.984 . S
H711 N704 0.984 . S
H712 N700 0.984 . S
H713 N700 0.985 . S
C714 C715 1.363 . S
C714 C720 1.379 . S
C714 N722 1.356 . S
C715 C714 1.363 . S
C715 C721 1.363 . S
C716 C717 1.363 . S
C716 C721 1.379 . S
C716 N723 1.356 . S
C717 C716 1.363 . S
C717 C720 1.363 . S
N718 C720 1.356 . S
N718 H730 0.984 . S
N718 H731 0.985 . S
N719 C721 1.356 . S
N719 H724 0.984 . S
N719 H725 0.985 . S
C720 C714 1.379 . S
C720 C717 1.363 . S
C720 N718 1.356 . S
C721 C715 1.363 . S
C721 C716 1.379 . S
C721 N719 1.356 . S
N722 C714 1.356 . S
N722 H728 0.984 . S
N722 H729 0.984 . S
N723 C716 1.356 . S
N723 H726 0.984 . S
N723 H727 0.985 . S
H724 N719 0.984 . S
H725 N719 0.985 . S
H726 N723 0.984 . S
H727 N723 0.985 . S
H728 N722 0.984 . S
H729 N722 0.984 . S
H730 N718 0.984 . S
H731 N718 0.985 . S
C732 C733 1.363 . S
C732 C738 1.379 . S
C732 N740 1.356 . S
C733 C732 1.363 . S
C733 C739 1.363 . S
C734 C735 1.363 . S
C734 C739 1.379 . S
C734 N741 1.356 . S
C735 C734 1.363 . S
C735 C738 1.363 . S
N736 C738 1.356 . S
N736 H748 0.984 . S
N736 H749 0.985 . S
N737 C739 1.356 . S
N737 H742 0.984 . S
N737 H743 0.985 . S
C738 C732 1.379 . S
C738 C735 1.363 . S
C738 N736 1.356 . S
C739 C733 1.363 . S
C739 C734 1.379 . S
C739 N737 1.356 . S
N740 C732 1.356 . S
N740 H746 0.984 . S
N740 H747 0.984 . S
N741 C734 1.356 . S
N741 H744 0.984 . S
N741 H745 0.985 . S
H742 N737 0.984 . S
H743 N737 0.985 . S
H744 N741 0.984 . S
H745 N741 0.985 . S
H746 N740 0.984 . S
H747 N740 0.984 . S
H748 N736 0.984 . S
H749 N736 0.985 . S
C750 C751 1.363 1_554 S
C750 C756 1.379 . S
C750 N758 1.356 . S
C751 C750 1.363 1_556 S
C751 C757 1.363 . S
C752 C753 1.363 1_556 S
C752 C757 1.379 . S
C752 N759 1.356 . S
C753 C752 1.363 1_554 S
C753 C756 1.363 . S
N754 C756 1.356 . S
N754 H766 0.984 . S
N754 H767 0.985 . S
N755 C757 1.356 . S
N755 H760 0.984 . S
N755 H761 0.985 . S
C756 C750 1.379 . S
C756 C753 1.363 . S
C756 N754 1.356 . S
C757 C751 1.363 . S
C757 C752 1.379 . S
C757 N755 1.356 . S
N758 C750 1.356 . S
N758 H764 0.984 . S
N758 H765 0.984 . S
N759 C752 1.356 . S
N759 H762 0.984 . S
N759 H763 0.985 . S
H760 N755 0.984 . S
H761 N755 0.985 . S
H762 N759 0.984 . S
H763 N759 0.985 . S
H764 N758 0.984 . S
H765 N758 0.984 . S
H766 N754 0.984 . S
H767 N754 0.985 . S
C768 C769 1.363 . S
C768 C774 1.379 . S
C768 N776 1.356 . S
C769 C768 1.363 . S
C769 C775 1.363 . S
C770 C771 1.363 . S
C770 C775 1.379 . S
C770 N777 1.356 . S
C771 C770 1.363 . S
C771 C774 1.363 . S
N772 C774 1.356 . S
N772 H784 0.984 . S
N772 H785 0.985 . S
N773 C775 1.356 . S
N773 H778 0.984 . S
N773 H779 0.985 . S
C774 C768 1.379 . S
C774 C771 1.363 . S
C774 N772 1.356 . S
C775 C769 1.363 . S
C775 C770 1.379 . S
C775 N773 1.356 . S
N776 C768 1.356 . S
N776 H782 0.984 . S
N776 H783 0.984 . S
N777 C770 1.356 . S
N777 H780 0.984 . S
N777 H781 0.985 . S
H778 N773 0.984 . S
H779 N773 0.985 . S
H780 N777 0.984 . S
H781 N777 0.985 . S
H782 N776 0.984 . S
H783 N776 0.984 . S
H784 N772 0.984 . S
H785 N772 0.985 . S
C786 C787 1.363 . S
C786 C792 1.379 . S
C786 N794 1.356 . S
C787 C786 1.363 . S
C787 C793 1.363 . S
C788 C789 1.363 . S
C788 C793 1.379 . S
C788 N795 1.356 . S
C789 C788 1.363 . S
C789 C792 1.363 . S
N790 C792 1.356 . S
N790 H802 0.984 . S
N790 H803 0.985 . S
N791 C793 1.356 . S
N791 H796 0.984 . S
N791 H797 0.985 . S
C792 C786 1.379 . S
C792 C789 1.363 . S
C792 N790 1.356 . S
C793 C787 1.363 . S
C793 C788 1.379 . S
C793 N791 1.356 . S
N794 C786 1.356 . S
N794 H800 0.984 . S
N794 H801 0.984 . S
N795 C788 1.356 . S
N795 H798 0.984 . S
N795 H799 0.985 . S
H796 N791 0.984 . S
H797 N791 0.985 . S
H798 N795 0.984 . S
H799 N795 0.985 . S
H800 N794 0.984 . S
H801 N794 0.984 . S
H802 N790 0.984 . S
H803 N790 0.985 . S
C481 C2 2.097 . S
C483 C242 2.097 . S
C499 C42 2.098 . S
C501 C282 2.098 . S
C517 C82 2.097 . S
C519 C322 2.097 . S
C535 C362 2.097 . S
C537 C122 2.097 . S
C553 C162 2.097 . S
C555 C402 2.097 . S
C571 C442 2.097 . S
C573 C202 2.097 . S
C589 C21 1.787 . S
C591 C141 1.787 . S
C607 C61 1.787 . S
C609 C181 1.787 . S
C625 C221 1.787 . S
C627 C101 1.787 . S
C643 C261 1.787 . S
C645 C381 1.787 . S
C661 C421 1.787 . S
C663 C301 1.787 . S
C679 C461 1.787 . S
C681 C341 1.787 . S
C697 C415 2.055 . S
C699 C15 2.055 . S
C715 C455 2.056 . S
C717 C55 2.056 . S
C733 C95 2.055 . S
C735 C255 2.055 . S
C751 C135 2.056 . S
C753 C295 2.056 . S
C769 C335 2.056 . S
C771 C175 2.056 . S
C787 C215 2.056 . S
C789 C375 2.056 . S
