# Generated by pormake.
# Topology ukh, (4)-cn, num edge types: 1
# Building blocks:
#     Node 0, Type 0, BuildingBlock: AZAVOO_clean_sbu_0, # of connection points: 4
#     Node 1, Type 0, BuildingBlock: AZAVOO_clean_sbu_0, # of connection points: 4
#     Node 2, Type 0, BuildingBlock: AZAVOO_clean_sbu_0, # of connection points: 4
#     Node 3, Type 0, BuildingBlock: AZAVOO_clean_sbu_0, # of connection points: 4
#     Node 4, Type 0, BuildingBlock: AZAVOO_clean_sbu_0, # of connection points: 4
#     Node 5, Type 0, BuildingBlock: AZAVOO_clean_sbu_0, # of connection points: 4
#     Node 6, Type 0, BuildingBlock: AZAVOO_clean_sbu_0, # of connection points: 4
#     Node 7, Type 0, BuildingBlock: AZAVOO_clean_sbu_0, # of connection points: 4
#     Node 8, Type 0, BuildingBlock: AZAVOO_clean_sbu_0, # of connection points: 4
#     Node 9, Type 0, BuildingBlock: AZAVOO_clean_sbu_0, # of connection points: 4
#     Node 10, Type 0, BuildingBlock: AZAVOO_clean_sbu_0, # of connection points: 4
#     Node 11, Type 0, BuildingBlock: AZAVOO_clean_sbu_0, # of connection points: 4
#     Edge 12, Type (0, 0), BuildingBlock: KIFKEQ_clean_linker_1, # of connection points: 2
#     Edge 13, Type (0, 0), BuildingBlock: KIFKEQ_clean_linker_1, # of connection points: 2
#     Edge 14, Type (0, 0), BuildingBlock: KIFKEQ_clean_linker_1, # of connection points: 2
#     Edge 15, Type (0, 0), BuildingBlock: KIFKEQ_clean_linker_1, # of connection points: 2
#     Edge 16, Type (0, 0), BuildingBlock: KIFKEQ_clean_linker_1, # of connection points: 2
#     Edge 17, Type (0, 0), BuildingBlock: KIFKEQ_clean_linker_1, # of connection points: 2
#     Edge 18, Type (0, 0), BuildingBlock: KIFKEQ_clean_linker_1, # of connection points: 2
#     Edge 19, Type (0, 0), BuildingBlock: KIFKEQ_clean_linker_1, # of connection points: 2
#     Edge 20, Type (0, 0), BuildingBlock: KIFKEQ_clean_linker_1, # of connection points: 2
#     Edge 21, Type (0, 0), BuildingBlock: KIFKEQ_clean_linker_1, # of connection points: 2
#     Edge 22, Type (0, 0), BuildingBlock: KIFKEQ_clean_linker_1, # of connection points: 2
#     Edge 23, Type (0, 0), BuildingBlock: KIFKEQ_clean_linker_1, # of connection points: 2
#     Edge 24, Type (0, 0), BuildingBlock: KIFKEQ_clean_linker_1, # of connection points: 2
#     Edge 25, Type (0, 0), BuildingBlock: KIFKEQ_clean_linker_1, # of connection points: 2
#     Edge 26, Type (0, 0), BuildingBlock: KIFKEQ_clean_linker_1, # of connection points: 2
#     Edge 27, Type (0, 0), BuildingBlock: KIFKEQ_clean_linker_1, # of connection points: 2
#     Edge 28, Type (0, 0), BuildingBlock: KIFKEQ_clean_linker_1, # of connection points: 2
#     Edge 29, Type (0, 0), BuildingBlock: KIFKEQ_clean_linker_1, # of connection points: 2
#     Edge 30, Type (0, 0), BuildingBlock: KIFKEQ_clean_linker_1, # of connection points: 2
#     Edge 31, Type (0, 0), BuildingBlock: KIFKEQ_clean_linker_1, # of connection points: 2
#     Edge 32, Type (0, 0), BuildingBlock: KIFKEQ_clean_linker_1, # of connection points: 2
#     Edge 33, Type (0, 0), BuildingBlock: KIFKEQ_clean_linker_1, # of connection points: 2
#     Edge 34, Type (0, 0), BuildingBlock: KIFKEQ_clean_linker_1, # of connection points: 2
#     Edge 35, Type (0, 0), BuildingBlock: KIFKEQ_clean_linker_1, # of connection points: 2
# Relax obj value: 0.220
# Max RMSD: 0.237
# Mean RMSD: 0.236
data_MOF--net-ukh--node1-AZAVOO_clean_sbu_0--edge1-KIFKEQ_clean_linker_1
_symmetry_space_group_name_H-M    P1
_symmetry_Int_Tables_number       1
_symmetry_cell_setting            triclinic
loop_
_symmetry_equiv_pos_as_xyz
'x, y, z'
_cell_length_a     31.888635
_cell_length_b     31.87787
_cell_length_c     62.956898
_cell_angle_alpha  90.181679
_cell_angle_beta   90.170542
_cell_angle_gamma 120.19802
loop_
_atom_site_label
_atom_site_type_symbol
_atom_site_fract_x
_atom_site_fract_y
_atom_site_fract_z
_atom_type_partial_charge
Mg0 Mg 0.41504 0.221 0.0383 0.0
O1 O 0.33999 0.2033 0.02552 0.0
O2 O 0.29511 0.12295 0.0215 0.0
Mg3 Mg 0.33942 0.08856 0.03282 0.0
C4 C 0.30058 0.16536 0.01992 0.0
C5 C 0.43021 0.32435 0.02987 0.0
O6 O 0.41214 0.3037 0.0114 0.0
O7 O 0.38392 0.1961 0.07182 0.0
O8 O 0.34251 0.11563 0.0664 0.0
O9 O 0.43646 0.21751 0.00424 0.0
O10 O 0.40635 0.15656 0.02682 0.0
C11 C 0.35805 0.15257 0.07859 0.0
C12 C 0.42054 0.17206 0.00802 0.0
O13 O 0.43472 0.29945 0.04448 0.0
Mg14 Mg 0.16385 0.3999 0.37511 0.0
O15 O 0.10509 0.3224 0.36543 0.0
O16 O 0.14079 0.27787 0.36223 0.0
Mg17 Mg 0.22171 0.32548 0.37046 0.0
C18 C 0.10322 0.28234 0.36107 0.0
C19 C 0.07554 0.41329 0.36657 0.0
O20 O 0.07825 0.39386 0.34856 0.0
O21 O 0.16483 0.37609 0.40966 0.0
O22 O 0.20545 0.33644 0.40427 0.0
O23 O 0.18222 0.41476 0.3401 0.0
O24 O 0.21815 0.39021 0.36278 0.0
C25 C 0.18588 0.35351 0.41654 0.0
C26 C 0.21299 0.40039 0.3437 0.0
O27 O 0.10513 0.4193 0.38144 0.0
Mg28 Mg 0.78189 0.17672 0.69923 0.0
O29 O 0.80192 0.11856 0.69096 0.0
O30 O 0.88155 0.15616 0.68486 0.0
Mg31 Mg 0.91329 0.23807 0.69021 0.0
C32 C 0.84004 0.11751 0.68573 0.0
C33 C 0.68072 0.08332 0.69611 0.0
O34 O 0.69971 0.08172 0.67785 0.0
O35 O 0.81393 0.18577 0.73296 0.0
O36 O 0.89316 0.22739 0.72501 0.0
O37 O 0.77731 0.18599 0.66377 0.0
O38 O 0.84214 0.22957 0.68376 0.0
C39 C 0.85876 0.20907 0.73845 0.0
C40 C 0.82286 0.21846 0.66526 0.0
O41 O 0.70622 0.11751 0.70909 0.0
Mg42 Mg 0.63301 0.79168 0.03258 0.0
O43 O 0.70977 0.80683 0.02323 0.0
O44 O 0.75262 0.88524 0.01451 0.0
Mg45 Mg 0.70774 0.92148 0.02089 0.0
C46 C 0.74861 0.84349 0.01636 0.0
C47 C 0.56627 0.68564 0.03959 0.0
O48 O 0.53941 0.70342 0.03276 0.0
O49 O 0.66066 0.82612 0.06568 0.0
O50 O 0.70475 0.90395 0.05592 0.0
O51 O 0.61508 0.78368 -0.00236 0.0
O52 O 0.64203 0.85153 0.01614 0.0
C53 C 0.68827 0.87121 0.07016 0.0
C54 C 0.63082 0.82984 -0.0019 0.0
O55 O 0.61129 0.71478 0.04271 0.0
Mg56 Mg 0.8138 0.61995 0.36379 0.0
O57 O 0.8755 0.69535 0.35301 0.0
O58 O 0.84182 0.74087 0.34669 0.0
Mg59 Mg 0.76107 0.6976 0.35461 0.0
C60 C 0.8787 0.73518 0.34707 0.0
C61 C 0.85272 0.55195 0.36922 0.0
O62 O 0.80756 0.5248 0.36279 0.0
O63 O 0.81339 0.64957 0.39729 0.0
O64 O 0.77952 0.69428 0.38905 0.0
O65 O 0.79601 0.59985 0.32904 0.0
O66 O 0.76172 0.63034 0.34952 0.0
C67 C 0.79715 0.67762 0.4026 0.0
C68 C 0.76655 0.61638 0.3311 0.0
O69 O 0.869 0.59703 0.37219 0.0
Mg70 Mg 0.21316 0.82118 0.70513 0.0
O71 O 0.1981 0.88235 0.69566 0.0
O72 O 0.11782 0.84841 0.69202 0.0
Mg73 Mg 0.08133 0.76735 0.69981 0.0
C74 C 0.16056 0.88535 0.69121 0.0
C75 C 0.32058 0.85954 0.71048 0.0
O76 O 0.3016 0.81301 0.70635 0.0
O77 O 0.1883 0.82149 0.73939 0.0
O78 O 0.10793 0.78399 0.73391 0.0
O79 O 0.21091 0.8039 0.67023 0.0
O80 O 0.14848 0.76869 0.692 0.0
C81 C 0.14476 0.80272 0.74626 0.0
C82 C 0.16498 0.77458 0.67308 0.0
O83 O 0.29238 0.87677 0.71195 0.0
Mg84 Mg 0.77345 0.70471 0.60342 0.0
O85 O 0.78637 0.77896 0.61683 0.0
O86 O 0.8576 0.83444 0.60323 0.0
Mg87 Mg 0.8927 0.80032 0.58387 0.0
C88 C 0.82017 0.82319 0.61444 0.0
C89 C 0.67608 0.63454 0.62751 0.0
O90 O 0.70709 0.6325 0.64064 0.0
O91 O 0.75789 0.72071 0.56978 0.0
O92 O 0.83302 0.77441 0.55903 0.0
O93 O 0.81541 0.69524 0.63048 0.0
O94 O 0.84736 0.7325 0.60052 0.0
C95 C 0.78764 0.74749 0.55546 0.0
C96 C 0.85332 0.718 0.61856 0.0
O97 O 0.69222 0.66336 0.61179 0.0
Mg98 Mg 0.10483 0.778 0.94758 0.0
O99 O 0.04468 0.7912 0.96178 0.0
O100 O 0.0691 0.86867 0.95401 0.0
Mg101 Mg 0.14077 0.90563 0.9363 0.0
C102 C 0.03881 0.82815 0.96236 0.0
C103 C 0.08353 0.67563 0.95873 0.0
O104 O 0.1288 0.70409 0.96473 0.0
O105 O 0.0775 0.77561 0.91368 0.0
O106 O 0.10735 0.85491 0.90796 0.0
O107 O 0.15386 0.80802 0.97681 0.0
O108 O 0.15442 0.8511 0.94948 0.0
C109 C 0.08599 0.81097 0.90142 0.0
C110 C 0.17159 0.84969 0.96758 0.0
O111 O 0.06009 0.69506 0.95135 0.0
Mg112 Mg 0.30147 0.09353 0.28 0.0
O113 O 0.22622 0.02847 0.28991 0.0
O114 O 0.17264 0.04965 0.27884 0.0
Mg115 Mg 0.20917 0.1265 0.26577 0.0
C116 C 0.18246 0.01924 0.28734 0.0
C117 C 0.37614 0.06625 0.29715 0.0
O118 O 0.3837 0.10223 0.30983 0.0
O119 O 0.28585 0.0742 0.24467 0.0
O120 O 0.2367 0.10353 0.23738 0.0
O121 O 0.31152 0.13516 0.3109 0.0
O122 O 0.27429 0.13967 0.28228 0.0
C123 C 0.26227 0.08511 0.23147 0.0
C124 C 0.28832 0.15325 0.30131 0.0
O125 O 0.34179 0.05102 0.28358 0.0
Mg126 Mg 0.22041 0.29851 0.61424 0.0
O127 O 0.21062 0.22451 0.62588 0.0
O128 O 0.13735 0.16888 0.61365 0.0
Mg129 Mg 0.09721 0.20267 0.59786 0.0
C130 C 0.17685 0.18021 0.6234 0.0
C131 C 0.3214 0.3752 0.63334 0.0
O132 O 0.29212 0.38235 0.64549 0.0
O133 O 0.22851 0.28271 0.5794 0.0
O134 O 0.15095 0.23106 0.57072 0.0
O135 O 0.1839 0.30877 0.64339 0.0
O136 O 0.14638 0.26958 0.61426 0.0
C137 C 0.19543 0.25787 0.56565 0.0
C138 C 0.14394 0.28456 0.63272 0.0
O139 O 0.30313 0.34082 0.61974 0.0
Mg140 Mg 0.95318 0.21916 0.93216 0.0
O141 O 0.01852 0.21202 0.94432 0.0
O142 O 0.00895 0.14459 0.92879 0.0
Mg143 Mg 0.93858 0.10524 0.90994 0.0
C144 C 0.03286 0.18164 0.94075 0.0
C145 C 0.9594 0.31526 0.94486 0.0
O146 O 0.91261 0.28483 0.94275 0.0
O147 O 0.98306 0.23925 0.8984 0.0
O148 O 0.96423 0.16603 0.88592 0.0
O149 O 0.90438 0.17344 0.95899 0.0
O150 O 0.91124 0.14449 0.92834 0.0
C151 C 0.97936 0.21104 0.88311 0.0
C152 C 0.89117 0.13635 0.94657 0.0
O153 O 0.98849 0.2993 0.94223 0.0
Mg154 Mg 0.70182 0.93857 0.26854 0.0
O155 O 0.774 0.99903 0.28414 0.0
O156 O 0.8305 0.98207 0.27309 0.0
Mg157 Mg 0.79847 0.91213 0.25384 0.0
C158 C 0.81822 0.00881 0.28335 0.0
C159 C 0.63245 0.96837 0.29067 0.0
O160 O 0.63209 0.93789 0.30476 0.0
O161 O 0.72492 0.97048 0.23524 0.0
O162 O 0.77765 0.946 0.22707 0.0
O163 O 0.68436 0.8857 0.29574 0.0
O164 O 0.72907 0.89204 0.26806 0.0
C165 C 0.7527 0.9657 0.22204 0.0
C166 C 0.71004 0.87128 0.28557 0.0
O167 O 0.66012 0.97896 0.27462 0.0
H168 H 0.61142 0.6348 0.05099 0.0
H169 H 0.47258 0.6158 0.03187 0.0
H170 H 0.57676 0.54666 0.05026 0.0
H171 H 0.43824 0.52827 0.03127 0.0
H172 H 0.41747 0.38505 0.00364 0.0
H173 H 0.44946 0.4719 0.00802 0.0
H174 H 0.51484 0.46927 0.0678 0.0
H175 H 0.48298 0.38213 0.0634 0.0
C176 C 0.57345 0.61189 0.04689 0.0
C177 C 0.5449 0.63239 0.04133 0.0
C178 C 0.55358 0.56143 0.04654 0.0
C179 C 0.50489 0.53059 0.0405 0.0
C180 C 0.47605 0.55111 0.03565 0.0
C181 C 0.49576 0.60133 0.03611 0.0
C182 C 0.43844 0.40286 0.01778 0.0
C183 C 0.44768 0.37664 0.03315 0.0
C184 C 0.45658 0.45261 0.02034 0.0
C185 C 0.48465 0.47742 0.03827 0.0
C186 C 0.49367 0.45121 0.05374 0.0
C187 C 0.47515 0.40127 0.05126 0.0
H188 H 0.06974 0.46813 0.39885 0.0
H189 H 1.00307 0.39898 0.33918 0.0
H190 H 0.01498 0.50078 0.40127 0.0
H191 H 0.94891 0.43184 0.34155 0.0
H192 H 0.82825 0.45805 0.36194 0.0
H193 H 0.88062 0.42305 0.36307 0.0
H194 H 1.00133 0.56181 0.38223 0.0
H195 H 0.94863 0.59706 0.38129 0.0
C196 C 0.04325 0.45965 0.38633 0.0
C197 C 0.04077 0.43095 0.36882 0.0
C198 C 0.01215 0.47863 0.38766 0.0
C199 C 0.97765 0.4689 0.37161 0.0
C200 C 0.97471 0.43955 0.3543 0.0
C201 C 0.00595 0.4209 0.3529 0.0
C202 C 0.86587 0.48116 0.36654 0.0
C203 C 0.88433 0.53048 0.3714 0.0
C204 C 0.89593 0.46107 0.36708 0.0
C205 C 0.94519 0.48973 0.37257 0.0
C206 C 0.96343 0.53872 0.37808 0.0
C207 C 0.93331 0.55896 0.37744 0.0
H208 H 0.37295 0.95792 0.71751 0.0
H209 H 0.38916 0.83319 0.70567 0.0
H210 H 0.46105 0.01062 0.71608 0.0
H211 H 0.47686 0.88572 0.70443 0.0
H212 H 0.61947 1.00192 0.67351 0.0
H213 H 0.53313 0.94727 0.67919 0.0
H214 H 0.53848 0.03034 0.73451 0.0
H215 H 0.62512 0.08548 0.72875 0.0
C216 C 0.39527 0.94169 0.71485 0.0
C217 C 0.37398 0.8914 0.71154 0.0
C218 C 0.44574 0.97184 0.71413 0.0
C219 C 0.47585 0.95233 0.70998 0.0
C220 C 0.45458 0.9019 0.70734 0.0
C221 C 0.40428 0.8718 0.70815 0.0
C222 C 0.60239 0.00839 0.68699 0.0
C223 C 0.62916 0.04814 0.70064 0.0
C224 C 0.55293 0.97689 0.69031 0.0
C225 C 0.52898 0.98454 0.70729 0.0
C226 C 0.55587 0.02381 0.72117 0.0
C227 C 0.60552 0.05517 0.71795 0.0
H228 H 0.62782 0.57909 0.66191 0.0
H229 H 0.60519 0.60865 0.59727 0.0
H230 H 0.54258 0.51534 0.66398 0.0
H231 H 0.52014 0.5446 0.59933 0.0
H232 H 0.38935 0.38849 0.60345 0.0
H233 H 0.47474 0.45226 0.60261 0.0
H234 H 0.45861 0.50642 0.66312 0.0
H235 H 0.37319 0.44299 0.66394 0.0
C236 C 0.6046 0.57227 0.6482 0.0
C237 C 0.62337 0.59904 0.62943 0.0
C238 C 0.55577 0.53577 0.64941 0.0
C239 C 0.52475 0.52465 0.63176 0.0
C240 C 0.5433 0.55191 0.6131 0.0
C241 C 0.59193 0.58892 0.612 0.0
C242 C 0.4041 0.41365 0.61669 0.0
C243 C 0.37437 0.41061 0.63376 0.0
C244 C 0.45291 0.45045 0.6161 0.0
C245 C 0.47331 0.4846 0.63272 0.0
C246 C 0.44401 0.48059 0.65012 0.0
C247 C 0.39504 0.44426 0.65055 0.0
H248 H 0.90569 0.35824 0.9534 0.0
H249 H 0.05354 0.39094 0.9452 0.0
H250 H 0.93393 0.44418 0.95832 0.0
H251 H 0.08181 0.47723 0.94957 0.0
H252 H 0.12221 0.6247 0.97658 0.0
H253 H 0.09166 0.53782 0.97477 0.0
H254 H 0.96756 0.51828 0.93868 0.0
H255 H 0.99763 0.60535 0.941 0.0
C256 C 0.9443 0.38377 0.95265 0.0
C257 C 0.97734 0.36759 0.94889 0.0
C258 C 0.96047 0.43321 0.95533 0.0
C259 C 0.01017 0.46791 0.95426 0.0
C260 C 0.04331 0.45161 0.95079 0.0
C261 C 0.02711 0.40208 0.94818 0.0
C262 C 0.08818 0.60188 0.96839 0.0
C263 C 0.06245 0.62211 0.95888 0.0
C264 C 0.07083 0.55197 0.96721 0.0
C265 C 0.02733 0.52085 0.95641 0.0
C266 C 1.00095 0.54095 0.94732 0.0
C267 C 0.01825 0.59097 0.94859 0.0
H268 H 0.38848 0.0119 0.26655 0.0
H269 H 0.44343 0.08075 0.32753 0.0
H270 H 0.45125 0.98925 0.26526 0.0
H271 H 0.5059 0.05803 0.32621 0.0
H272 H 0.57731 0.96234 0.32493 0.0
H273 H 0.51401 0.98389 0.32684 0.0
H274 H 0.54268 0.03325 0.26192 0.0
H275 H 0.6062 0.01178 0.25997 0.0
C276 C 0.41355 0.02172 0.27978 0.0
C277 C 0.41091 0.04815 0.29714 0.0
C278 C 0.44979 0.00915 0.27894 0.0
C279 C 0.48375 0.02214 0.29557 0.0
C280 C 0.48017 0.04729 0.3132 0.0
C281 C 0.44439 0.06038 0.31392 0.0
C282 C 0.57043 0.97814 0.3111 0.0
C283 C 0.59691 0.98537 0.29231 0.0
C284 C 0.53417 0.99055 0.31222 0.0
C285 C 0.52308 0.00996 0.29449 0.0
C286 C 0.54994 0.01777 0.27576 0.0
C287 C 0.58665 0.00591 0.27472 0.0
H288 H 0.21866 0.1065 0.19939 0.0
H289 H 0.32659 0.06498 0.21133 0.0
H290 H 0.2447 0.12394 0.16268 0.0
H291 H 0.35198 0.08193 0.17421 0.0
H292 H 0.34037 0.07184 0.09994 0.0
H293 H 0.31605 0.05157 0.13677 0.0
H294 H 0.32517 0.19029 0.14567 0.0
H295 H 0.35003 0.21106 0.10851 0.0
C296 C 0.24742 0.10028 0.19415 0.0
C297 C 0.27094 0.08483 0.20842 0.0
C298 C 0.26257 0.11081 0.17315 0.0
C299 C 0.301 0.10537 0.16586 0.0
C300 C 0.32245 0.08678 0.1796 0.0
C301 C 0.30767 0.07675 0.20077 0.0
C302 C 0.33739 0.09821 0.10974 0.0
C303 C 0.34663 0.14293 0.10133 0.0
C304 C 0.32377 0.08661 0.13084 0.0
C305 C 0.3185 0.11921 0.14392 0.0
C306 C 0.32862 0.16439 0.13573 0.0
C307 C 0.34306 0.17639 0.1146 0.0
H308 H 0.11588 0.32044 0.44727 0.0
H309 H 0.26798 0.37293 0.43674 0.0
H310 H 0.124 0.29674 0.4835 0.0
H311 H 0.27622 0.34964 0.47268 0.0
H312 H 0.27017 0.33886 0.54743 0.0
H313 H 0.27007 0.3672 0.51141 0.0
H314 H 0.14119 0.23088 0.49655 0.0
H315 H 0.14129 0.20231 0.53234 0.0
C316 C 0.15114 0.32798 0.45292 0.0
C317 C 0.19126 0.3483 0.43938 0.0
C318 C 0.15575 0.31395 0.47345 0.0
C319 C 0.20065 0.32075 0.48068 0.0
C320 C 0.24129 0.34395 0.46751 0.0
C321 C 0.23653 0.35725 0.447 0.0
C322 C 0.24285 0.31428 0.53626 0.0
C323 C 0.20538 0.26857 0.54282 0.0
C324 C 0.24245 0.33076 0.51574 0.0
C325 C 0.20461 0.30178 0.50153 0.0
C326 C 0.16983 0.2545 0.50747 0.0
C327 C 0.17037 0.23794 0.52785 0.0
H328 H 0.82522 0.1414 0.76997 0.0
H329 H 0.92685 0.29211 0.75695 0.0
H330 H 0.86319 0.15046 0.80498 0.0
H331 H 0.96405 0.30136 0.79198 0.0
H332 H 0.9694 0.28683 0.8688 0.0
H333 H 0.93904 0.29107 0.83358 0.0
H334 H 0.95525 0.17118 0.81244 0.0
H335 H 0.98662 0.16744 0.84724 0.0
C336 C 0.85463 0.17666 0.77488 0.0
C337 C 0.87328 0.21601 0.76091 0.0
C338 C 0.87666 0.18177 0.7947 0.0
C339 C 0.91689 0.22648 0.80088 0.0
C340 C 0.93324 0.26661 0.78749 0.0
C341 C 0.91191 0.26126 0.76756 0.0
C342 C 0.96846 0.26274 0.8564 0.0
C343 C 0.97955 0.22618 0.86093 0.0
C344 C 0.95048 0.26479 0.83636 0.0
C345 C 0.94324 0.23022 0.82074 0.0
C346 C 0.95921 0.19723 0.82453 0.0
C347 C 0.97772 0.19558 0.84436 0.0
H348 H 0.63859 0.8254 0.1064 0.0
H349 H 0.76431 0.95621 0.08409 0.0
H350 H 0.65508 0.85903 0.14254 0.0
H351 H 0.78019 0.98963 0.11987 0.0
H352 H 0.82164 0.99146 0.19174 0.0
H353 H 0.80611 0.9715 0.1541 0.0
H354 H 0.65551 0.92852 0.16295 0.0
H355 H 0.67112 0.94859 0.20073 0.0
C356 C 0.66987 0.86099 0.10923 0.0
C357 C 0.70013 0.88806 0.09242 0.0
C358 C 0.67889 0.88056 0.12981 0.0
C359 C 0.71857 0.92724 0.1339 0.0
C360 C 0.74935 0.95367 0.11717 0.0
C361 C 0.74018 0.93439 0.09669 0.0
C362 C 0.78566 0.97959 0.18547 0.0
C363 C 0.74758 0.97141 0.19914 0.0
C364 C 0.77667 0.96783 0.16396 0.0
C365 C 0.72934 0.94735 0.15576 0.0
C366 C 0.69212 0.94333 0.16901 0.0
C367 C 0.70127 0.9557 0.19053 0.0
H368 H 0.82214 0.81433 0.5241 0.0
H369 H 0.72314 0.66246 0.53614 0.0
H370 H 0.8215 0.79682 0.48644 0.0
H371 H 0.72219 0.64479 0.49823 0.0
H372 H 0.80047 0.62999 0.43843 0.0
H373 H 0.78781 0.64665 0.47519 0.0
H374 H 0.77359 0.76759 0.45387 0.0
H375 H 0.78718 0.75193 0.41758 0.0
C376 C 0.79869 0.77747 0.51852 0.0
C377 C 0.77279 0.73976 0.533 0.0
C378 C 0.79855 0.76735 0.49697 0.0
C379 C 0.77265 0.71925 0.48951 0.0
C380 C 0.74325 0.68205 0.50369 0.0
C381 C 0.74302 0.6923 0.52529 0.0
C382 C 0.79526 0.66044 0.44169 0.0
C383 C 0.79493 0.68962 0.42511 0.0
C384 C 0.78723 0.66951 0.46264 0.0
C385 C 0.7791 0.70808 0.46732 0.0
C386 C 0.77976 0.73768 0.45077 0.0
C387 C 0.7876 0.72861 0.42996 0.0
H388 H 0.06445 0.72847 0.87885 0.0
H389 H 0.09722 0.87681 0.87122 0.0
H390 H 0.07755 0.72421 0.84081 0.0
H391 H 0.11114 0.87246 0.83356 0.0
H392 H 0.2021 0.86574 0.77761 0.0
H393 H 0.18076 0.86401 0.81516 0.0
H394 H 0.04411 0.73262 0.80391 0.0
H395 H 0.06489 0.73448 0.76658 0.0
C396 C 0.07319 0.75967 0.86906 0.0
C397 C 0.0805 0.8032 0.87817 0.0
C398 C 0.08108 0.75733 0.84735 0.0
C399 C 0.0967 0.79853 0.83454 0.0
C400 C 0.10036 0.84068 0.84329 0.0
C401 C 0.09189 0.84287 0.86483 0.0
C402 C 0.16778 0.83638 0.78325 0.0
C403 C 0.13501 0.80056 0.76921 0.0
C404 C 0.15543 0.83553 0.80461 0.0
C405 C 0.11061 0.79834 0.81224 0.0
C406 C 0.07878 0.76159 0.79837 0.0
C407 C 0.09069 0.7629 0.77703 0.0
H408 H 0.26478 0.8719 0.9713 0.0
H409 H 0.16941 0.92956 0.97998 0.0
H410 H 0.33509 0.95373 0.97355 0.0
H411 H 0.23918 0.01114 0.98362 0.0
H412 H 0.3587 0.15607 0.97526 0.0
H413 H 0.29975 0.07405 0.96353 0.0
H414 H 0.38316 0.01956 -0.00474 0.0
H415 H 0.4427 0.10151 0.00573 0.0
C416 C 0.25916 0.90206 0.9747 0.0
C417 C 0.21208 0.89468 0.97606 0.0
C418 C 0.29932 0.94905 0.97569 0.0
C419 C 0.29302 0.98946 0.97829 0.0
C420 C 0.24561 0.98131 0.98085 0.0
C421 C 0.20559 0.93449 0.97942 0.0
C422 C 0.36603 0.12692 0.97836 0.0
C423 C 0.40497 0.13485 -0.00856 0.0
C424 C 0.33146 0.07961 0.97228 0.0
C425 C 0.33541 0.03977 0.97934 0.0
C426 C 0.37838 0.04896 -0.01035 0.0
C427 C 0.41308 0.09621 -0.00456 0.0
H428 H 0.1626 0.33434 0.31265 0.0
H429 H 0.30516 0.42188 0.33988 0.0
H430 H 0.18485 0.27537 0.30054 0.0
H431 H 0.32671 0.36229 0.32936 0.0
H432 H 0.35718 0.24682 0.30521 0.0
H433 H 0.34353 0.31519 0.30796 0.0
H434 H 0.19068 0.21536 0.31861 0.0
H435 H 0.20462 0.14732 0.31404 0.0
C436 C 0.19955 0.34223 0.31501 0.0
C437 C 0.23223 0.38246 0.32717 0.0
C438 C 0.21191 0.30767 0.30875 0.0
C439 C 0.2569 0.31276 0.31481 0.0
C440 C 0.29167 0.35654 0.32442 0.0
C441 C 0.27957 0.39128 0.33028 0.0
C442 C 0.32103 0.23989 0.30883 0.0
C443 C 0.28214 0.19221 0.31013 0.0
C444 C 0.31295 0.279 0.31017 0.0
C445 C 0.26579 0.27116 0.3132 0.0
C446 C 0.22728 0.22308 0.31558 0.0
C447 C 0.2353 0.18401 0.31366 0.0
H448 H 0.88982 0.30867 0.65404 0.0
H449 H 0.83555 0.15802 0.63907 0.0
H450 H 0.97103 0.32769 0.64506 0.0
H451 H 0.91685 0.17695 0.62878 0.0
H452 H 0.06569 0.20592 0.64949 0.0
H453 H 0.98288 0.19165 0.65008 0.0
H454 H 0.0352 0.33646 0.62573 0.0
H455 H 0.11776 0.35115 0.62689 0.0
C456 C 0.89484 0.28019 0.64728 0.0
C457 C 0.85675 0.23187 0.64755 0.0
C458 C 0.9418 0.29089 0.64241 0.0
C459 C 0.95115 0.25347 0.63711 0.0
C460 C 0.91136 0.20638 0.63374 0.0
C461 C 0.86434 0.19566 0.63891 0.0
C462 C 0.0593 0.23515 0.64523 0.0
C463 C 0.0979 0.28023 0.63905 0.0
C464 C 0.01178 0.22665 0.64486 0.0
C465 C 1.00186 0.2626 0.63756 0.0
C466 C 0.04109 0.30804 0.63173 0.0
C467 C 0.08857 0.3168 0.63263 0.0
H468 H 0.69601 0.83058 0.97046 0.0
H469 H 0.61554 0.90188 0.9861 0.0
H470 H 0.7601 0.90582 0.95508 0.0
H471 H 0.67909 0.97694 0.97052 0.0
H472 H 0.83307 0.10732 0.98174 0.0
H473 H 0.76168 0.02761 -0.01212 0.0
H474 H 0.78752 0.97484 0.92897 0.0
H475 H 0.85819 0.05391 0.92274 0.0
C476 C 0.6905 0.86138 0.96928 0.0
C477 C 0.65113 0.86075 0.97947 0.0
C478 C 0.72758 0.90473 0.96083 0.0
C479 C 0.72513 0.94748 0.96234 0.0
C480 C 0.68236 0.94475 0.96972 0.0
C481 C 0.6455 0.90157 0.97816 0.0
C482 C 0.82385 0.07857 0.97025 0.0
C483 C 0.85169 0.08701 0.95188 0.0
C484 C 0.78267 0.03318 0.97359 0.0
C485 C 0.76874 0.99538 0.95867 0.0
C486 C 0.79739 1.00333 0.94068 0.0
C487 C 0.8382 0.04871 0.93725 0.0
H488 H 0.79217 0.8699 0.29479 0.0
H489 H 0.63731 0.77869 0.28825 0.0
H490 H 0.80048 0.79844 0.29877 0.0
H491 H 0.64515 0.70664 0.29024 0.0
H492 H 0.67577 0.59845 0.32581 0.0
H493 H 0.6584 0.65871 0.31224 0.0
H494 H 0.80002 0.73329 0.28282 0.0
H495 H 0.81825 0.67398 0.29809 0.0
C496 C 0.75988 0.83426 0.29448 0.0
C497 C 0.71402 0.82941 0.29201 0.0
C498 C 0.76457 0.79315 0.29613 0.0
C499 C 0.72356 0.74621 0.29449 0.0
C500 C 0.67757 0.74182 0.29195 0.0
C501 C 0.67285 0.78304 0.29099 0.0
C502 C 0.70214 0.6263 0.31546 0.0
C503 C 0.74849 0.6321 0.31322 0.0
C504 C 0.69242 0.66145 0.30777 0.0
C505 C 0.72862 0.70246 0.29717 0.0
C506 C 0.77206 0.70347 0.2918 0.0
C507 C 0.78209 0.66861 0.29992 0.0
H508 H 0.15869 0.83051 0.64234 0.0
H509 H 0.08844 0.68514 0.66734 0.0
H510 H 0.0818 0.81447 0.62665 0.0
H511 H 0.01168 0.66871 0.65154 0.0
H512 H 0.88142 0.69465 0.65588 0.0
H513 H 0.96062 0.70339 0.66394 0.0
H514 H 0.0124 0.76539 0.60199 0.0
H515 H 0.93401 0.75657 0.5939 0.0
C516 C 0.1275 0.79423 0.64333 0.0
C517 C 0.12926 0.75891 0.65588 0.0
C518 C 0.08328 0.78522 0.63466 0.0
C519 C 0.04059 0.74077 0.63846 0.0
C520 C 0.04382 0.70366 0.64886 0.0
C521 C 0.08788 0.71268 0.65749 0.0
C522 C 0.90982 0.71039 0.64408 0.0
C523 C 0.90156 0.72562 0.62443 0.0
C524 C 0.95493 0.71493 0.64856 0.0
C525 C 0.99249 0.73478 0.63347 0.0
C526 C 0.98428 0.7503 0.61394 0.0
C527 C 0.9393 0.74552 0.60943 0.0
H528 H 0.08086 0.13349 0.93148 0.0
H529 H 0.08373 0.24016 0.97493 0.0
H530 H 0.14562 0.13269 0.95135 0.0
H531 H 0.14906 0.2389 -0.00486 0.0
H532 H 0.29817 0.24931 0.01256 0.0
H533 H 0.23563 0.25755 -0.00645 0.0
H534 H 0.15111 0.10186 0.98605 0.0
H535 H 0.21333 0.09352 0.00463 0.0
C536 C 0.09542 0.15704 0.94526 0.0
C537 C 0.07652 0.18652 0.95171 0.0
C538 C 0.13248 0.15629 0.95675 0.0
C539 C 0.15189 0.18495 0.9751 0.0
C540 C 0.1348 0.2163 0.98108 0.0
C541 C 0.0974 0.21705 0.96951 0.0
C542 C 0.26604 0.21677 0.00698 0.0
C543 C 0.26107 0.17071 0.01004 0.0
C544 C 0.23016 0.22158 -0.00384 0.0
C545 C 0.18867 0.18045 -0.01196 0.0
C546 C 0.18307 0.13441 -0.00829 0.0
C547 C 0.21871 0.12958 0.00253 0.0
H548 H 0.81002 0.06741 0.31371 0.0
H549 H 0.91562 0.04652 0.2796 0.0
H550 H 0.87594 0.13279 0.33451 0.0
H551 H 0.98042 0.11134 0.29987 0.0
H552 H 0.01899 0.28103 0.34992 0.0
H553 H 0.9477 0.2157 0.33205 0.0
H554 H 0.01176 0.12449 0.33558 0.0
H555 H 0.08312 0.18971 0.3529 0.0
C556 C 0.84711 0.07693 0.3105 0.0
C557 C 0.85728 0.05121 0.2951 0.0
C558 C 0.88489 0.1144 0.32241 0.0
C559 C 0.93349 0.12677 0.31915 0.0
C560 C 0.94345 0.102 0.30327 0.0
C561 C 0.90605 0.06486 0.2915 0.0
C562 C 0.01763 0.24683 0.34711 0.0
C563 C 0.0572 0.24094 0.35268 0.0
C564 C 0.97662 0.2093 0.33691 0.0
C565 C 0.97425 0.16506 0.33205 0.0
C566 C 0.01279 0.15847 0.33859 0.0
C567 C 0.05371 0.19588 0.34868 0.0
H568 H 0.8755 0.91964 0.60631 0.0
H569 H 0.76054 0.81889 0.6473 0.0
H570 H 0.87828 0.98717 0.62518 0.0
H571 H 0.76402 0.88758 0.66668 0.0
H572 H 0.7567 0.0293 0.67991 0.0
H573 H 0.74907 0.95609 0.66364 0.0
H574 H 0.90509 0.02657 0.65904 0.0
H575 H 0.91275 0.09988 0.67471 0.0
C576 C 0.85075 0.91176 0.61943 0.0
C577 C 0.81804 0.86358 0.62536 0.0
C578 C 0.85266 0.95075 0.63039 0.0
C579 C 0.82211 0.94302 0.64776 0.0
C580 C 0.78814 0.89486 0.65337 0.0
C581 C 0.78612 0.85549 0.64228 0.0
C582 C 0.78944 0.02902 0.67565 0.0
C583 C 0.83537 0.07084 0.67847 0.0
C584 C 0.785 0.98689 0.66638 0.0
C585 C 0.82638 0.98557 0.65971 0.0
C586 C 0.87233 0.0266 0.6635 0.0
C587 C 0.87676 0.06865 0.67267 0.0
H588 H 0.82637 0.90655 -0.00713 0.0
H589 H 0.76428 0.76701 0.02362 0.0
H590 H 0.89435 0.89876 0.98119 0.0
H591 H 0.83393 0.75979 0.01231 0.0
H592 H 0.94696 0.74884 0.96772 0.0
H593 H 0.87538 0.74948 0.98168 0.0
H594 H 0.96446 0.90248 -0.00414 0.0
H595 H 0.03455 0.90207 0.98139 0.0
C596 C 0.82745 0.87434 -0.00261 0.0
C597 C 0.79 0.83771 0.00946 0.0
C598 C 0.86674 0.86994 -0.00927 0.0
C599 C 0.87026 0.829 -0.00391 0.0
C600 C 0.8324 0.79176 0.00785 0.0
C601 C 0.79261 0.79603 0.01443 0.0
C602 C 0.95108 0.78236 0.97403 0.0
C603 C 0.9962 0.82555 0.97311 0.0
C604 C 0.91015 0.78277 0.98206 0.0
C605 C 0.91383 0.8263 -0.01052 0.0
C606 C 0.95973 0.86862 -0.01034 0.0
C607 C 1.00012 0.86833 0.98146 0.0
H608 H 0.89987 0.8265 0.33613 0.0
H609 H 0.96491 0.7362 0.34094 0.0
H610 H 0.97492 0.89185 0.32198 0.0
H611 H 0.04045 0.80206 0.32621 0.0
H612 H 0.18156 0.9561 0.31762 0.0
H613 H 0.10985 0.88574 0.33277 0.0
H614 H 0.0181 0.90757 0.28899 0.0
H615 H 0.08867 0.97752 0.27434 0.0
C616 C 0.93017 0.82046 0.33418 0.0
C617 C 0.92601 0.77575 0.33957 0.0
C618 C 0.97328 0.858 0.3259 0.0
C619 C 0.01358 0.85203 0.32261 0.0
C620 C 0.01014 0.8079 0.32857 0.0
C621 C 0.96677 0.77012 0.33695 0.0
C622 C 0.14607 0.9454 0.31112 0.0
C623 C 0.14085 0.97293 0.29499 0.0
C624 C 0.105 0.9051 0.31978 0.0
C625 C 0.05808 0.89162 0.31241 0.0
C626 C 0.05345 0.9177 0.29551 0.0
C627 C 0.0941 0.95778 0.28701 0.0
H628 H 0.08922 0.90603 0.68182 0.0
H629 H 0.24526 0.97083 0.68286 0.0
H630 H 0.09765 0.97933 0.66617 0.0
H631 H 0.25354 0.04445 0.66675 0.0
H632 H 0.2411 0.18424 0.65415 0.0
H633 H 0.24022 0.11525 0.6719 0.0
H634 H 0.12177 0.0163 0.63134 0.0
H635 H 0.12216 0.08413 0.61399 0.0
C636 C 0.12542 0.93596 0.67882 0.0
C637 C 0.16652 0.93213 0.68347 0.0
C638 C 0.13024 0.97801 0.66969 0.0
C639 C 0.17626 0.01754 0.66486 0.0
C640 C 0.21758 0.0147 0.67029 0.0
C641 C 0.21277 0.97241 0.67947 0.0
C642 C 0.21528 0.14773 0.64892 0.0
C643 C 0.1813 0.13984 0.63282 0.0
C644 C 0.21476 0.10823 0.65908 0.0
C645 C 0.18023 0.0602 0.65334 0.0
C646 C 0.14795 0.05268 0.6366 0.0
C647 C 0.14841 0.09179 0.62654 0.0
loop_
_geom_bond_atom_site_label_1
_geom_bond_atom_site_label_2
_geom_bond_distance
_geom_bond_site_symmetry_2
_ccdc_geom_bond_type
Mg0 O1 2.028 . S
Mg0 O7 1.986 . S
Mg0 O9 2.114 . S
Mg0 O10 2.251 . S
Mg0 O13 2.010 . S
O1 Mg0 2.028 . S
O1 C4 1.250 . S
O2 Mg3 2.028 . S
O2 C4 1.248 . S
Mg3 O2 2.028 . S
Mg3 O8 2.032 . S
Mg3 O10 2.079 . S
C4 O1 1.250 . S
C4 O2 1.248 . S
C5 O6 1.264 . S
C5 O13 1.249 . S
O6 C5 1.264 . S
O7 Mg0 1.986 . S
O7 C11 1.246 . S
O8 Mg3 2.032 . S
O8 C11 1.259 . S
O9 Mg0 2.114 . S
O9 C12 1.252 . S
O10 Mg0 2.251 . S
O10 Mg3 2.079 . S
O10 C12 1.273 . S
C11 O7 1.246 . S
C11 O8 1.259 . S
C12 O9 1.252 . S
C12 O10 1.273 . S
O13 Mg0 2.010 . S
O13 C5 1.249 . S
Mg14 O15 2.028 . S
Mg14 O21 1.986 . S
Mg14 O23 2.114 . S
Mg14 O24 2.251 . S
Mg14 O27 2.010 . S
O15 Mg14 2.028 . S
O15 C18 1.250 . S
O16 Mg17 2.028 . S
O16 C18 1.248 . S
Mg17 O16 2.028 . S
Mg17 O22 2.032 . S
Mg17 O24 2.079 . S
C18 O15 1.250 . S
C18 O16 1.248 . S
C19 O20 1.264 . S
C19 O27 1.249 . S
O20 C19 1.264 . S
O21 Mg14 1.986 . S
O21 C25 1.246 . S
O22 Mg17 2.032 . S
O22 C25 1.259 . S
O23 Mg14 2.114 . S
O23 C26 1.252 . S
O24 Mg14 2.251 . S
O24 Mg17 2.079 . S
O24 C26 1.273 . S
C25 O21 1.246 . S
C25 O22 1.259 . S
C26 O23 1.252 . S
C26 O24 1.273 . S
O27 Mg14 2.010 . S
O27 C19 1.249 . S
Mg28 O29 2.028 . S
Mg28 O35 1.986 . S
Mg28 O37 2.114 . S
Mg28 O38 2.251 . S
Mg28 O41 2.010 . S
O29 Mg28 2.028 . S
O29 C32 1.250 . S
O30 Mg31 2.028 . S
O30 C32 1.248 . S
Mg31 O30 2.028 . S
Mg31 O36 2.032 . S
Mg31 O38 2.079 . S
C32 O29 1.250 . S
C32 O30 1.248 . S
C33 O34 1.264 . S
C33 O41 1.249 . S
O34 C33 1.264 . S
O35 Mg28 1.986 . S
O35 C39 1.246 . S
O36 Mg31 2.032 . S
O36 C39 1.259 . S
O37 Mg28 2.114 . S
O37 C40 1.252 . S
O38 Mg28 2.251 . S
O38 Mg31 2.079 . S
O38 C40 1.273 . S
C39 O35 1.246 . S
C39 O36 1.259 . S
C40 O37 1.252 . S
C40 O38 1.273 . S
O41 Mg28 2.010 . S
O41 C33 1.249 . S
Mg42 O43 2.028 . S
Mg42 O49 1.986 . S
Mg42 O51 2.114 . S
Mg42 O52 2.251 . S
Mg42 O55 2.010 . S
O43 Mg42 2.028 . S
O43 C46 1.250 . S
O44 Mg45 2.028 . S
O44 C46 1.248 . S
Mg45 O44 2.028 . S
Mg45 O50 2.032 . S
Mg45 O52 2.079 . S
C46 O43 1.250 . S
C46 O44 1.248 . S
C47 O48 1.264 . S
C47 O55 1.249 . S
O48 C47 1.264 . S
O49 Mg42 1.986 . S
O49 C53 1.246 . S
O50 Mg45 2.032 . S
O50 C53 1.259 . S
O51 Mg42 2.114 . S
O51 C54 1.252 . S
O52 Mg42 2.251 . S
O52 Mg45 2.079 . S
O52 C54 1.273 . S
C53 O49 1.246 . S
C53 O50 1.259 . S
C54 O51 1.252 . S
C54 O52 1.273 . S
O55 Mg42 2.010 . S
O55 C47 1.249 . S
Mg56 O57 2.028 . S
Mg56 O63 1.986 . S
Mg56 O65 2.114 . S
Mg56 O66 2.251 . S
Mg56 O69 2.010 . S
O57 Mg56 2.028 . S
O57 C60 1.250 . S
O58 Mg59 2.028 . S
O58 C60 1.248 . S
Mg59 O58 2.028 . S
Mg59 O64 2.032 . S
Mg59 O66 2.079 . S
C60 O57 1.250 . S
C60 O58 1.248 . S
C61 O62 1.264 . S
C61 O69 1.249 . S
O62 C61 1.264 . S
O63 Mg56 1.986 . S
O63 C67 1.246 . S
O64 Mg59 2.032 . S
O64 C67 1.259 . S
O65 Mg56 2.114 . S
O65 C68 1.252 . S
O66 Mg56 2.251 . S
O66 Mg59 2.079 . S
O66 C68 1.273 . S
C67 O63 1.246 . S
C67 O64 1.259 . S
C68 O65 1.252 . S
C68 O66 1.273 . S
O69 Mg56 2.010 . S
O69 C61 1.249 . S
Mg70 O71 2.028 . S
Mg70 O77 1.986 . S
Mg70 O79 2.114 . S
Mg70 O80 2.251 . S
Mg70 O83 2.010 . S
O71 Mg70 2.028 . S
O71 C74 1.250 . S
O72 Mg73 2.028 . S
O72 C74 1.248 . S
Mg73 O72 2.028 . S
Mg73 O78 2.032 . S
Mg73 O80 2.079 . S
C74 O71 1.250 . S
C74 O72 1.248 . S
C75 O76 1.264 . S
C75 O83 1.249 . S
O76 C75 1.264 . S
O77 Mg70 1.986 . S
O77 C81 1.246 . S
O78 Mg73 2.032 . S
O78 C81 1.259 . S
O79 Mg70 2.114 . S
O79 C82 1.252 . S
O80 Mg70 2.251 . S
O80 Mg73 2.079 . S
O80 C82 1.273 . S
C81 O77 1.246 . S
C81 O78 1.259 . S
C82 O79 1.252 . S
C82 O80 1.273 . S
O83 Mg70 2.010 . S
O83 C75 1.249 . S
Mg84 O85 2.028 . S
Mg84 O91 1.986 . S
Mg84 O93 2.114 . S
Mg84 O94 2.251 . S
Mg84 O97 2.010 . S
O85 Mg84 2.028 . S
O85 C88 1.250 . S
O86 Mg87 2.028 . S
O86 C88 1.248 . S
Mg87 O86 2.028 . S
Mg87 O92 2.032 . S
Mg87 O94 2.079 . S
C88 O85 1.250 . S
C88 O86 1.248 . S
C89 O90 1.264 . S
C89 O97 1.249 . S
O90 C89 1.264 . S
O91 Mg84 1.986 . S
O91 C95 1.246 . S
O92 Mg87 2.032 . S
O92 C95 1.259 . S
O93 Mg84 2.114 . S
O93 C96 1.252 . S
O94 Mg84 2.251 . S
O94 Mg87 2.079 . S
O94 C96 1.273 . S
C95 O91 1.246 . S
C95 O92 1.259 . S
C96 O93 1.252 . S
C96 O94 1.273 . S
O97 Mg84 2.010 . S
O97 C89 1.249 . S
Mg98 O99 2.028 . S
Mg98 O105 1.986 . S
Mg98 O107 2.114 . S
Mg98 O108 2.251 . S
Mg98 O111 2.010 . S
O99 Mg98 2.028 . S
O99 C102 1.250 . S
O100 Mg101 2.028 . S
O100 C102 1.248 . S
Mg101 O100 2.028 . S
Mg101 O106 2.032 . S
Mg101 O108 2.079 . S
C102 O99 1.250 . S
C102 O100 1.248 . S
C103 O104 1.264 . S
C103 O111 1.249 . S
O104 C103 1.264 . S
O105 Mg98 1.986 . S
O105 C109 1.246 . S
O106 Mg101 2.032 . S
O106 C109 1.259 . S
O107 Mg98 2.114 . S
O107 C110 1.252 . S
O108 Mg98 2.251 . S
O108 Mg101 2.079 . S
O108 C110 1.273 . S
C109 O105 1.246 . S
C109 O106 1.259 . S
C110 O107 1.252 . S
C110 O108 1.273 . S
O111 Mg98 2.010 . S
O111 C103 1.249 . S
Mg112 O113 2.028 . S
Mg112 O119 1.986 . S
Mg112 O121 2.114 . S
Mg112 O122 2.251 . S
Mg112 O125 2.010 . S
O113 Mg112 2.028 . S
O113 C116 1.250 . S
O114 Mg115 2.028 . S
O114 C116 1.248 . S
Mg115 O114 2.028 . S
Mg115 O120 2.032 . S
Mg115 O122 2.079 . S
C116 O113 1.250 . S
C116 O114 1.248 . S
C117 O118 1.264 . S
C117 O125 1.249 . S
O118 C117 1.264 . S
O119 Mg112 1.986 . S
O119 C123 1.246 . S
O120 Mg115 2.032 . S
O120 C123 1.259 . S
O121 Mg112 2.114 . S
O121 C124 1.252 . S
O122 Mg112 2.251 . S
O122 Mg115 2.079 . S
O122 C124 1.273 . S
C123 O119 1.246 . S
C123 O120 1.259 . S
C124 O121 1.252 . S
C124 O122 1.273 . S
O125 Mg112 2.010 . S
O125 C117 1.249 . S
Mg126 O127 2.028 . S
Mg126 O133 1.986 . S
Mg126 O135 2.114 . S
Mg126 O136 2.251 . S
Mg126 O139 2.010 . S
O127 Mg126 2.028 . S
O127 C130 1.250 . S
O128 Mg129 2.028 . S
O128 C130 1.248 . S
Mg129 O128 2.028 . S
Mg129 O134 2.032 . S
Mg129 O136 2.079 . S
C130 O127 1.250 . S
C130 O128 1.248 . S
C131 O132 1.264 . S
C131 O139 1.249 . S
O132 C131 1.264 . S
O133 Mg126 1.986 . S
O133 C137 1.246 . S
O134 Mg129 2.032 . S
O134 C137 1.259 . S
O135 Mg126 2.114 . S
O135 C138 1.252 . S
O136 Mg126 2.251 . S
O136 Mg129 2.079 . S
O136 C138 1.273 . S
C137 O133 1.246 . S
C137 O134 1.259 . S
C138 O135 1.252 . S
C138 O136 1.273 . S
O139 Mg126 2.010 . S
O139 C131 1.249 . S
Mg140 O141 2.028 . S
Mg140 O147 1.986 . S
Mg140 O149 2.114 . S
Mg140 O150 2.251 . S
Mg140 O153 2.010 . S
O141 Mg140 2.028 . S
O141 C144 1.250 . S
O142 Mg143 2.028 . S
O142 C144 1.248 . S
Mg143 O142 2.028 . S
Mg143 O148 2.032 . S
Mg143 O150 2.079 . S
C144 O141 1.250 . S
C144 O142 1.248 . S
C145 O146 1.264 . S
C145 O153 1.249 . S
O146 C145 1.264 . S
O147 Mg140 1.986 . S
O147 C151 1.246 . S
O148 Mg143 2.032 . S
O148 C151 1.259 . S
O149 Mg140 2.114 . S
O149 C152 1.252 . S
O150 Mg140 2.251 . S
O150 Mg143 2.079 . S
O150 C152 1.273 . S
C151 O147 1.246 . S
C151 O148 1.259 . S
C152 O149 1.252 . S
C152 O150 1.273 . S
O153 Mg140 2.010 . S
O153 C145 1.249 . S
Mg154 O155 2.028 . S
Mg154 O161 1.986 . S
Mg154 O163 2.114 . S
Mg154 O164 2.251 . S
Mg154 O167 2.010 . S
O155 Mg154 2.028 . S
O155 C158 1.250 . S
O156 Mg157 2.028 . S
O156 C158 1.248 . S
Mg157 O156 2.028 . S
Mg157 O162 2.032 . S
Mg157 O164 2.079 . S
C158 O155 1.250 . S
C158 O156 1.248 . S
C159 O160 1.264 . S
C159 O167 1.249 . S
O160 C159 1.264 . S
O161 Mg154 1.986 . S
O161 C165 1.246 . S
O162 Mg157 2.032 . S
O162 C165 1.259 . S
O163 Mg154 2.114 . S
O163 C166 1.252 . S
O164 Mg154 2.251 . S
O164 Mg157 2.079 . S
O164 C166 1.273 . S
C165 O161 1.246 . S
C165 O162 1.259 . S
C166 O163 1.252 . S
C166 O164 1.273 . S
O167 Mg154 2.010 . S
O167 C159 1.249 . S
H168 C176 0.950 . S
H169 C181 0.950 . S
H170 C178 0.950 . S
H171 C180 0.950 . S
H172 C182 0.950 . S
H173 C184 0.950 . S
H174 C186 0.950 . S
H175 C187 0.950 . S
C176 H168 0.950 . S
C176 C177 1.386 . S
C176 C178 1.391 . S
C177 C176 1.386 . S
C177 C181 1.393 . S
C178 H170 0.950 . S
C178 C176 1.391 . S
C178 C179 1.400 . S
C179 C178 1.400 . S
C179 C180 1.398 . S
C179 C185 1.491 . S
C180 H171 0.950 . S
C180 C179 1.398 . S
C180 C181 1.391 . S
C181 H169 0.950 . S
C181 C177 1.393 . S
C181 C180 1.391 . S
C182 H172 0.950 . S
C182 C183 1.386 . S
C182 C184 1.391 . S
C183 C182 1.386 . S
C183 C187 1.393 . S
C184 H173 0.950 . S
C184 C182 1.391 . S
C184 C185 1.400 . S
C185 C179 1.491 . S
C185 C184 1.400 . S
C185 C186 1.398 . S
C186 H174 0.950 . S
C186 C185 1.398 . S
C186 C187 1.391 . S
C187 H175 0.950 . S
C187 C183 1.393 . S
C187 C186 1.391 . S
H188 C196 0.950 . S
H189 C201 0.950 . S
H190 C198 0.950 . S
H191 C200 0.950 1_655 S
H192 C202 0.950 . S
H193 C204 0.950 . S
H194 C206 0.950 1_455 S
H195 C207 0.950 . S
C196 H188 0.950 . S
C196 C197 1.386 . S
C196 C198 1.391 . S
C197 C196 1.386 . S
C197 C201 1.393 . S
C198 H190 0.950 . S
C198 C196 1.391 . S
C198 C199 1.400 . S
C199 C198 1.400 . S
C199 C200 1.398 . S
C199 C205 1.491 1_455 S
C200 H191 0.950 1_455 S
C200 C199 1.398 . S
C200 C201 1.391 . S
C201 H189 0.950 . S
C201 C197 1.393 . S
C201 C200 1.391 . S
C202 H192 0.950 . S
C202 C203 1.386 . S
C202 C204 1.391 . S
C203 C202 1.386 . S
C203 C207 1.393 . S
C204 H193 0.950 . S
C204 C202 1.391 . S
C204 C205 1.400 . S
C205 C199 1.491 1_655 S
C205 C204 1.400 . S
C205 C206 1.398 . S
C206 H194 0.950 1_655 S
C206 C205 1.398 . S
C206 C207 1.391 . S
C207 H195 0.950 . S
C207 C203 1.393 . S
C207 C206 1.391 . S
H208 C216 0.950 . S
H209 C221 0.950 . S
H210 C218 0.956 . S
H211 C220 0.950 . S
H212 C222 0.950 . S
H213 C224 0.956 . S
H214 C226 0.950 . S
H215 C227 0.950 . S
C216 H208 0.950 . S
C216 C217 1.386 . S
C216 C218 1.391 . S
C217 C216 1.386 . S
C217 C221 1.393 . S
C218 H210 0.956 . S
C218 C216 1.391 . S
C218 C219 1.400 . S
C219 C218 1.400 . S
C219 C220 1.398 . S
C219 C225 1.491 1_565 S
C220 H211 0.950 . S
C220 C219 1.398 . S
C220 C221 1.391 . S
C221 H209 0.950 . S
C221 C217 1.393 . S
C221 C220 1.391 . S
C222 H212 0.950 . S
C222 C223 1.386 . S
C222 C224 1.391 . S
C223 C222 1.386 . S
C223 C227 1.393 . S
C224 H213 0.956 . S
C224 C222 1.391 . S
C224 C225 1.400 . S
C225 C219 1.491 1_545 S
C225 C224 1.400 . S
C225 C226 1.398 . S
C226 H214 0.950 . S
C226 C225 1.398 . S
C226 C227 1.391 . S
C227 H215 0.950 . S
C227 C223 1.393 . S
C227 C226 1.391 . S
H228 C236 0.950 . S
H229 C241 0.950 . S
H230 C238 0.950 . S
H231 C240 0.950 . S
H232 C242 0.950 . S
H233 C244 0.950 . S
H234 C246 0.950 . S
H235 C247 0.950 . S
C236 H228 0.950 . S
C236 C237 1.386 . S
C236 C238 1.391 . S
C237 C236 1.386 . S
C237 C241 1.393 . S
C238 H230 0.950 . S
C238 C236 1.391 . S
C238 C239 1.400 . S
C239 C238 1.400 . S
C239 C240 1.398 . S
C239 C245 1.491 . S
C240 H231 0.950 . S
C240 C239 1.398 . S
C240 C241 1.391 . S
C241 H229 0.950 . S
C241 C237 1.393 . S
C241 C240 1.391 . S
C242 H232 0.950 . S
C242 C243 1.386 . S
C242 C244 1.391 . S
C243 C242 1.386 . S
C243 C247 1.393 . S
C244 H233 0.950 . S
C244 C242 1.391 . S
C244 C245 1.400 . S
C245 C239 1.491 . S
C245 C244 1.400 . S
C245 C246 1.398 . S
C246 H234 0.950 . S
C246 C245 1.398 . S
C246 C247 1.391 . S
C247 H235 0.950 . S
C247 C243 1.393 . S
C247 C246 1.391 . S
H248 C256 0.950 . S
H249 C261 0.950 . S
H250 C258 0.950 . S
H251 C260 0.950 . S
H252 C262 0.950 . S
H253 C264 0.950 . S
H254 C266 0.950 . S
H255 C267 0.950 . S
C256 H248 0.950 . S
C256 C257 1.386 . S
C256 C258 1.391 . S
C257 C256 1.386 . S
C257 C261 1.393 . S
C258 H250 0.950 . S
C258 C256 1.391 . S
C258 C259 1.400 . S
C259 C258 1.400 . S
C259 C260 1.398 1_655 S
C259 C265 1.491 1_655 S
C260 H251 0.950 . S
C260 C259 1.398 1_455 S
C260 C261 1.391 1_455 S
C261 H249 0.950 . S
C261 C257 1.393 . S
C261 C260 1.391 1_655 S
C262 H252 0.950 . S
C262 C263 1.386 . S
C262 C264 1.391 . S
C263 C262 1.386 . S
C263 C267 1.393 . S
C264 H253 0.950 . S
C264 C262 1.391 . S
C264 C265 1.400 . S
C265 C259 1.491 1_455 S
C265 C264 1.400 . S
C265 C266 1.398 1_455 S
C266 H254 0.950 . S
C266 C265 1.398 1_655 S
C266 C267 1.391 1_655 S
C267 H255 0.950 . S
C267 C263 1.393 . S
C267 C266 1.391 1_455 S
H268 C276 0.950 . S
H269 C281 0.950 . S
H270 C278 0.950 1_565 S
H271 C280 0.950 . S
H272 C282 0.950 . S
H273 C284 0.950 1_545 S
H274 C286 0.950 . S
H275 C287 0.950 . S
C276 H268 0.950 . S
C276 C277 1.386 . S
C276 C278 1.391 . S
C277 C276 1.386 . S
C277 C281 1.393 . S
C278 H270 0.950 1_545 S
C278 C276 1.391 . S
C278 C279 1.400 . S
C279 C278 1.400 . S
C279 C280 1.398 . S
C279 C285 1.491 1_545 S
C280 H271 0.950 . S
C280 C279 1.398 . S
C280 C281 1.391 . S
C281 H269 0.950 . S
C281 C277 1.393 . S
C281 C280 1.391 . S
C282 H272 0.950 . S
C282 C283 1.386 . S
C282 C284 1.391 . S
C283 C282 1.386 . S
C283 C287 1.393 . S
C284 H273 0.950 1_565 S
C284 C282 1.391 . S
C284 C285 1.400 . S
C285 C279 1.491 1_565 S
C285 C284 1.400 . S
C285 C286 1.398 . S
C286 H274 0.950 . S
C286 C285 1.398 . S
C286 C287 1.391 . S
C287 H275 0.950 . S
C287 C283 1.393 . S
C287 C286 1.391 . S
H288 C296 0.950 . S
H289 C301 0.950 . S
H290 C298 0.950 . S
H291 C300 0.950 . S
H292 C302 0.950 . S
H293 C304 0.950 . S
H294 C306 0.950 . S
H295 C307 0.950 . S
C296 H288 0.950 . S
C296 C297 1.386 . S
C296 C298 1.391 . S
C297 C296 1.386 . S
C297 C301 1.393 . S
C298 H290 0.950 . S
C298 C296 1.391 . S
C298 C299 1.400 . S
C299 C298 1.400 . S
C299 C300 1.398 . S
C299 C305 1.491 . S
C300 H291 0.950 . S
C300 C299 1.398 . S
C300 C301 1.391 . S
C301 H289 0.950 . S
C301 C297 1.393 . S
C301 C300 1.391 . S
C302 H292 0.950 . S
C302 C303 1.386 . S
C302 C304 1.391 . S
C303 C302 1.386 . S
C303 C307 1.393 . S
C304 H293 0.950 . S
C304 C302 1.391 . S
C304 C305 1.400 . S
C305 C299 1.491 . S
C305 C304 1.400 . S
C305 C306 1.398 . S
C306 H294 0.950 . S
C306 C305 1.398 . S
C306 C307 1.391 . S
C307 H295 0.950 . S
C307 C303 1.393 . S
C307 C306 1.391 . S
H308 C316 0.950 . S
H309 C321 0.950 . S
H310 C318 0.950 . S
H311 C320 0.950 . S
H312 C322 0.950 . S
H313 C324 0.950 . S
H314 C326 0.950 . S
H315 C327 0.950 . S
C316 H308 0.950 . S
C316 C317 1.386 . S
C316 C318 1.391 . S
C317 C316 1.386 . S
C317 C321 1.393 . S
C318 H310 0.950 . S
C318 C316 1.391 . S
C318 C319 1.400 . S
C319 C318 1.400 . S
C319 C320 1.398 . S
C319 C325 1.491 . S
C320 H311 0.950 . S
C320 C319 1.398 . S
C320 C321 1.391 . S
C321 H309 0.950 . S
C321 C317 1.393 . S
C321 C320 1.391 . S
C322 H312 0.950 . S
C322 C323 1.386 . S
C322 C324 1.391 . S
C323 C322 1.386 . S
C323 C327 1.393 . S
C324 H313 0.950 . S
C324 C322 1.391 . S
C324 C325 1.400 . S
C325 C319 1.491 . S
C325 C324 1.400 . S
C325 C326 1.398 . S
C326 H314 0.950 . S
C326 C325 1.398 . S
C326 C327 1.391 . S
C327 H315 0.950 . S
C327 C323 1.393 . S
C327 C326 1.391 . S
H328 C336 0.950 . S
H329 C341 0.950 . S
H330 C338 0.950 . S
H331 C340 0.950 . S
H332 C342 0.950 . S
H333 C344 0.950 . S
H334 C346 0.950 . S
H335 C347 0.950 . S
C336 H328 0.950 . S
C336 C337 1.386 . S
C336 C338 1.391 . S
C337 C336 1.386 . S
C337 C341 1.393 . S
C338 H330 0.950 . S
C338 C336 1.391 . S
C338 C339 1.400 . S
C339 C338 1.400 . S
C339 C340 1.398 . S
C339 C345 1.491 . S
C340 H331 0.950 . S
C340 C339 1.398 . S
C340 C341 1.391 . S
C341 H329 0.950 . S
C341 C337 1.393 . S
C341 C340 1.391 . S
C342 H332 0.950 . S
C342 C343 1.386 . S
C342 C344 1.391 . S
C343 C342 1.386 . S
C343 C347 1.393 . S
C344 H333 0.950 . S
C344 C342 1.391 . S
C344 C345 1.400 . S
C345 C339 1.491 . S
C345 C344 1.400 . S
C345 C346 1.398 . S
C346 H334 0.950 . S
C346 C345 1.398 . S
C346 C347 1.391 . S
C347 H335 0.950 . S
C347 C343 1.393 . S
C347 C346 1.391 . S
H348 C356 0.950 . S
H349 C361 0.950 . S
H350 C358 0.950 . S
H351 C360 0.950 . S
H352 C362 0.950 . S
H353 C364 0.950 . S
H354 C366 0.950 . S
H355 C367 0.950 . S
C356 H348 0.950 . S
C356 C357 1.386 . S
C356 C358 1.391 . S
C357 C356 1.386 . S
C357 C361 1.393 . S
C358 H350 0.950 . S
C358 C356 1.391 . S
C358 C359 1.400 . S
C359 C358 1.400 . S
C359 C360 1.398 . S
C359 C365 1.491 . S
C360 H351 0.950 . S
C360 C359 1.398 . S
C360 C361 1.391 . S
C361 H349 0.950 . S
C361 C357 1.393 . S
C361 C360 1.391 . S
C362 H352 0.950 . S
C362 C363 1.386 . S
C362 C364 1.391 . S
C363 C362 1.386 . S
C363 C367 1.393 . S
C364 H353 0.950 . S
C364 C362 1.391 . S
C364 C365 1.400 . S
C365 C359 1.491 . S
C365 C364 1.400 . S
C365 C366 1.398 . S
C366 H354 0.950 . S
C366 C365 1.398 . S
C366 C367 1.391 . S
C367 H355 0.950 . S
C367 C363 1.393 . S
C367 C366 1.391 . S
H368 C376 0.950 . S
H369 C381 0.950 . S
H370 C378 0.950 . S
H371 C380 0.950 . S
H372 C382 0.950 . S
H373 C384 0.950 . S
H374 C386 0.950 . S
H375 C387 0.950 . S
C376 H368 0.950 . S
C376 C377 1.386 . S
C376 C378 1.391 . S
C377 C376 1.386 . S
C377 C381 1.393 . S
C378 H370 0.950 . S
C378 C376 1.391 . S
C378 C379 1.400 . S
C379 C378 1.400 . S
C379 C380 1.398 . S
C379 C385 1.491 . S
C380 H371 0.950 . S
C380 C379 1.398 . S
C380 C381 1.391 . S
C381 H369 0.950 . S
C381 C377 1.393 . S
C381 C380 1.391 . S
C382 H372 0.950 . S
C382 C383 1.386 . S
C382 C384 1.391 . S
C383 C382 1.386 . S
C383 C387 1.393 . S
C384 H373 0.950 . S
C384 C382 1.391 . S
C384 C385 1.400 . S
C385 C379 1.491 . S
C385 C384 1.400 . S
C385 C386 1.398 . S
C386 H374 0.950 . S
C386 C385 1.398 . S
C386 C387 1.391 . S
C387 H375 0.950 . S
C387 C383 1.393 . S
C387 C386 1.391 . S
H388 C396 0.950 . S
H389 C401 0.950 . S
H390 C398 0.950 . S
H391 C400 0.950 . S
H392 C402 0.950 . S
H393 C404 0.950 . S
H394 C406 0.950 . S
H395 C407 0.950 . S
C396 H388 0.950 . S
C396 C397 1.386 . S
C396 C398 1.391 . S
C397 C396 1.386 . S
C397 C401 1.393 . S
C398 H390 0.950 . S
C398 C396 1.391 . S
C398 C399 1.400 . S
C399 C398 1.400 . S
C399 C400 1.398 . S
C399 C405 1.491 . S
C400 H391 0.950 . S
C400 C399 1.398 . S
C400 C401 1.391 . S
C401 H389 0.950 . S
C401 C397 1.393 . S
C401 C400 1.391 . S
C402 H392 0.950 . S
C402 C403 1.386 . S
C402 C404 1.391 . S
C403 C402 1.386 . S
C403 C407 1.393 . S
C404 H393 0.950 . S
C404 C402 1.391 . S
C404 C405 1.400 . S
C405 C399 1.491 . S
C405 C404 1.400 . S
C405 C406 1.398 . S
C406 H394 0.950 . S
C406 C405 1.398 . S
C406 C407 1.391 . S
C407 H395 0.950 . S
C407 C403 1.393 . S
C407 C406 1.391 . S
H408 C416 0.950 . S
H409 C421 0.950 . S
H410 C418 0.950 . S
H411 C420 0.950 . S
H412 C422 0.950 . S
H413 C424 0.950 . S
H414 C426 0.950 . S
H415 C427 0.950 . S
C416 H408 0.950 . S
C416 C417 1.386 . S
C416 C418 1.391 . S
C417 C416 1.386 . S
C417 C421 1.393 1_556 S
C418 H410 0.950 . S
C418 C416 1.391 . S
C418 C419 1.400 . S
C419 C418 1.400 . S
C419 C420 1.398 1_556 S
C419 C425 1.491 1_566 S
C420 H411 0.950 . S
C420 C419 1.398 1_554 S
C420 C421 1.391 . S
C421 H409 0.950 . S
C421 C417 1.393 1_554 S
C421 C420 1.391 . S
C422 H412 0.950 . S
C422 C423 1.386 . S
C422 C424 1.391 . S
C423 C422 1.386 . S
C423 C427 1.393 1_554 S
C424 H413 0.950 . S
C424 C422 1.391 . S
C424 C425 1.400 . S
C425 C419 1.491 1_544 S
C425 C424 1.400 . S
C425 C426 1.398 1_554 S
C426 H414 0.950 . S
C426 C425 1.398 1_556 S
C426 C427 1.391 . S
C427 H415 0.950 . S
C427 C423 1.393 1_556 S
C427 C426 1.391 . S
H428 C436 0.950 . S
H429 C441 0.950 . S
H430 C438 0.950 . S
H431 C440 0.950 . S
H432 C442 0.950 . S
H433 C444 0.950 . S
H434 C446 0.950 . S
H435 C447 0.950 . S
C436 H428 0.950 . S
C436 C437 1.386 . S
C436 C438 1.391 . S
C437 C436 1.386 . S
C437 C441 1.393 . S
C438 H430 0.950 . S
C438 C436 1.391 . S
C438 C439 1.400 . S
C439 C438 1.400 . S
C439 C440 1.398 . S
C439 C445 1.491 . S
C440 H431 0.950 . S
C440 C439 1.398 . S
C440 C441 1.391 . S
C441 H429 0.950 . S
C441 C437 1.393 . S
C441 C440 1.391 . S
C442 H432 0.950 . S
C442 C443 1.386 . S
C442 C444 1.391 . S
C443 C442 1.386 . S
C443 C447 1.393 . S
C444 H433 0.950 . S
C444 C442 1.391 . S
C444 C445 1.400 . S
C445 C439 1.491 . S
C445 C444 1.400 . S
C445 C446 1.398 . S
C446 H434 0.950 . S
C446 C445 1.398 . S
C446 C447 1.391 . S
C447 H435 0.950 . S
C447 C443 1.393 . S
C447 C446 1.391 . S
H448 C456 0.950 . S
H449 C461 0.950 . S
H450 C458 0.950 . S
H451 C460 0.950 . S
H452 C462 0.950 . S
H453 C464 0.950 . S
H454 C466 0.950 . S
H455 C467 0.950 . S
C456 H448 0.950 . S
C456 C457 1.386 . S
C456 C458 1.391 . S
C457 C456 1.386 . S
C457 C461 1.393 . S
C458 H450 0.950 . S
C458 C456 1.391 . S
C458 C459 1.400 . S
C459 C458 1.400 . S
C459 C460 1.398 . S
C459 C465 1.491 1_655 S
C460 H451 0.950 . S
C460 C459 1.398 . S
C460 C461 1.391 . S
C461 H449 0.950 . S
C461 C457 1.393 . S
C461 C460 1.391 . S
C462 H452 0.950 . S
C462 C463 1.386 . S
C462 C464 1.391 . S
C463 C462 1.386 . S
C463 C467 1.393 . S
C464 H453 0.950 . S
C464 C462 1.391 . S
C464 C465 1.400 . S
C465 C459 1.491 1_455 S
C465 C464 1.400 . S
C465 C466 1.398 . S
C466 H454 0.950 . S
C466 C465 1.398 . S
C466 C467 1.391 . S
C467 H455 0.950 . S
C467 C463 1.393 . S
C467 C466 1.391 . S
H468 C476 0.950 . S
H469 C481 0.950 . S
H470 C478 0.950 . S
H471 C480 0.950 . S
H472 C482 0.950 . S
H473 C484 0.950 . S
H474 C486 0.950 . S
H475 C487 0.950 . S
C476 H468 0.950 . S
C476 C477 1.386 1_556 S
C476 C478 1.391 . S
C477 C476 1.386 1_554 S
C477 C481 1.393 . S
C478 H470 0.950 . S
C478 C476 1.391 . S
C478 C479 1.400 1_556 S
C479 C478 1.400 1_554 S
C479 C480 1.398 . S
C479 C485 1.491 1_564 S
C480 H471 0.950 . S
C480 C479 1.398 . S
C480 C481 1.391 . S
C481 H469 0.950 . S
C481 C477 1.393 . S
C481 C480 1.391 . S
C482 H472 0.950 . S
C482 C483 1.386 1_554 S
C482 C484 1.391 . S
C483 C482 1.386 1_556 S
C483 C487 1.393 . S
C484 H473 0.950 . S
C484 C482 1.391 . S
C484 C485 1.400 1_554 S
C485 C479 1.491 1_546 S
C485 C484 1.400 1_556 S
C485 C486 1.398 . S
C486 H474 0.950 . S
C486 C485 1.398 . S
C486 C487 1.391 . S
C487 H475 0.950 . S
C487 C483 1.393 . S
C487 C486 1.391 . S
H488 C496 0.950 . S
H489 C501 0.950 . S
H490 C498 0.950 . S
H491 C500 0.950 . S
H492 C502 0.950 . S
H493 C504 0.950 . S
H494 C506 0.950 . S
H495 C507 0.950 . S
C496 H488 0.950 . S
C496 C497 1.386 . S
C496 C498 1.391 . S
C497 C496 1.386 . S
C497 C501 1.393 . S
C498 H490 0.950 . S
C498 C496 1.391 . S
C498 C499 1.400 . S
C499 C498 1.400 . S
C499 C500 1.398 . S
C499 C505 1.491 . S
C500 H491 0.950 . S
C500 C499 1.398 . S
C500 C501 1.391 . S
C501 H489 0.950 . S
C501 C497 1.393 . S
C501 C500 1.391 . S
C502 H492 0.950 . S
C502 C503 1.386 . S
C502 C504 1.391 . S
C503 C502 1.386 . S
C503 C507 1.393 . S
C504 H493 0.950 . S
C504 C502 1.391 . S
C504 C505 1.400 . S
C505 C499 1.491 . S
C505 C504 1.400 . S
C505 C506 1.398 . S
C506 H494 0.950 . S
C506 C505 1.398 . S
C506 C507 1.391 . S
C507 H495 0.950 . S
C507 C503 1.393 . S
C507 C506 1.391 . S
H508 C516 0.950 . S
H509 C521 0.950 . S
H510 C518 0.950 . S
H511 C520 0.950 . S
H512 C522 0.950 . S
H513 C524 0.950 . S
H514 C526 0.950 . S
H515 C527 0.950 . S
C516 H508 0.950 . S
C516 C517 1.386 . S
C516 C518 1.391 . S
C517 C516 1.386 . S
C517 C521 1.393 . S
C518 H510 0.950 . S
C518 C516 1.391 . S
C518 C519 1.400 . S
C519 C518 1.400 . S
C519 C520 1.398 . S
C519 C525 1.491 1_455 S
C520 H511 0.950 . S
C520 C519 1.398 . S
C520 C521 1.391 . S
C521 H509 0.950 . S
C521 C517 1.393 . S
C521 C520 1.391 . S
C522 H512 0.950 . S
C522 C523 1.386 . S
C522 C524 1.391 . S
C523 C522 1.386 . S
C523 C527 1.393 . S
C524 H513 0.950 . S
C524 C522 1.391 . S
C524 C525 1.400 . S
C525 C519 1.491 1_655 S
C525 C524 1.400 . S
C525 C526 1.398 . S
C526 H514 0.950 . S
C526 C525 1.398 . S
C526 C527 1.391 . S
C527 H515 0.950 . S
C527 C523 1.393 . S
C527 C526 1.391 . S
H528 C536 0.950 . S
H529 C541 0.950 1_554 S
H530 C538 0.950 . S
H531 C540 0.950 . S
H532 C542 0.950 . S
H533 C544 0.950 . S
H534 C546 0.950 . S
H535 C547 0.950 1_556 S
C536 H528 0.950 . S
C536 C537 1.386 . S
C536 C538 1.391 . S
C537 C536 1.386 . S
C537 C541 1.393 . S
C538 H530 0.950 . S
C538 C536 1.391 . S
C538 C539 1.400 . S
C539 C538 1.400 . S
C539 C540 1.398 1_556 S
C539 C545 1.491 1_556 S
C540 H531 0.950 . S
C540 C539 1.398 1_554 S
C540 C541 1.391 1_554 S
C541 H529 0.950 1_556 S
C541 C537 1.393 . S
C541 C540 1.391 1_556 S
C542 H532 0.950 . S
C542 C543 1.386 . S
C542 C544 1.391 . S
C543 C542 1.386 . S
C543 C547 1.393 . S
C544 H533 0.950 . S
C544 C542 1.391 . S
C544 C545 1.400 . S
C545 C539 1.491 1_554 S
C545 C544 1.400 . S
C545 C546 1.398 1_554 S
C546 H534 0.950 . S
C546 C545 1.398 1_556 S
C546 C547 1.391 1_556 S
C547 H535 0.950 1_554 S
C547 C543 1.393 . S
C547 C546 1.391 1_554 S
H548 C556 0.950 . S
H549 C561 0.950 . S
H550 C558 0.950 . S
H551 C560 0.950 . S
H552 C562 0.950 1_455 S
H553 C564 0.950 . S
H554 C566 0.950 . S
H555 C567 0.950 . S
C556 H548 0.950 . S
C556 C557 1.386 . S
C556 C558 1.391 . S
C557 C556 1.386 . S
C557 C561 1.393 . S
C558 H550 0.950 . S
C558 C556 1.391 . S
C558 C559 1.400 . S
C559 C558 1.400 . S
C559 C560 1.398 . S
C559 C565 1.491 . S
C560 H551 0.950 . S
C560 C559 1.398 . S
C560 C561 1.391 . S
C561 H549 0.950 . S
C561 C557 1.393 . S
C561 C560 1.391 . S
C562 H552 0.950 1_655 S
C562 C563 1.386 . S
C562 C564 1.391 . S
C563 C562 1.386 . S
C563 C567 1.393 . S
C564 H553 0.950 . S
C564 C562 1.391 . S
C564 C565 1.400 . S
C565 C559 1.491 . S
C565 C564 1.400 . S
C565 C566 1.398 . S
C566 H554 0.950 . S
C566 C565 1.398 . S
C566 C567 1.391 . S
C567 H555 0.950 . S
C567 C563 1.393 . S
C567 C566 1.391 . S
H568 C576 0.950 . S
H569 C581 0.950 . S
H570 C578 0.950 . S
H571 C580 0.950 . S
H572 C582 0.950 . S
H573 C584 0.950 . S
H574 C586 0.950 . S
H575 C587 0.950 . S
C576 H568 0.950 . S
C576 C577 1.386 . S
C576 C578 1.391 . S
C577 C576 1.386 . S
C577 C581 1.393 . S
C578 H570 0.950 . S
C578 C576 1.391 . S
C578 C579 1.400 . S
C579 C578 1.400 . S
C579 C580 1.398 . S
C579 C585 1.491 . S
C580 H571 0.950 . S
C580 C579 1.398 . S
C580 C581 1.391 . S
C581 H569 0.950 . S
C581 C577 1.393 . S
C581 C580 1.391 . S
C582 H572 0.950 . S
C582 C583 1.386 . S
C582 C584 1.391 . S
C583 C582 1.386 . S
C583 C587 1.393 . S
C584 H573 0.950 . S
C584 C582 1.391 . S
C584 C585 1.400 . S
C585 C579 1.491 . S
C585 C584 1.400 . S
C585 C586 1.398 . S
C586 H574 0.950 . S
C586 C585 1.398 . S
C586 C587 1.391 . S
C587 H575 0.950 . S
C587 C583 1.393 . S
C587 C586 1.391 . S
H588 C596 0.950 1_556 S
H589 C601 0.950 . S
H590 C598 0.950 . S
H591 C600 0.950 . S
H592 C602 0.950 1_554 S
H593 C604 0.950 . S
H594 C606 0.950 . S
H595 C607 0.950 . S
C596 H588 0.950 1_554 S
C596 C597 1.386 . S
C596 C598 1.391 1_554 S
C597 C596 1.386 . S
C597 C601 1.393 . S
C598 H590 0.950 . S
C598 C596 1.391 1_556 S
C598 C599 1.400 1_556 S
C599 C598 1.400 1_554 S
C599 C600 1.398 . S
C599 C605 1.491 1_554 S
C600 H591 0.950 . S
C600 C599 1.398 . S
C600 C601 1.391 . S
C601 H589 0.950 . S
C601 C597 1.393 . S
C601 C600 1.391 . S
C602 H592 0.950 1_556 S
C602 C603 1.386 . S
C602 C604 1.391 1_556 S
C603 C602 1.386 . S
C603 C607 1.393 . S
C604 H593 0.950 . S
C604 C602 1.391 1_554 S
C604 C605 1.400 1_554 S
C605 C599 1.491 1_556 S
C605 C604 1.400 1_556 S
C605 C606 1.398 . S
C606 H594 0.950 . S
C606 C605 1.398 . S
C606 C607 1.391 . S
C607 H595 0.950 . S
C607 C603 1.393 . S
C607 C606 1.391 . S
H608 C616 0.950 1_655 S
H609 C621 0.950 . S
H610 C618 0.950 . S
H611 C620 0.950 . S
H612 C622 0.950 . S
H613 C624 0.950 . S
H614 C626 0.950 . S
H615 C627 0.950 . S
C616 H608 0.950 1_455 S
C616 C617 1.386 . S
C616 C618 1.391 . S
C617 C616 1.386 . S
C617 C621 1.393 . S
C618 H610 0.950 . S
C618 C616 1.391 . S
C618 C619 1.400 . S
C619 C618 1.400 . S
C619 C620 1.398 . S
C619 C625 1.491 . S
C620 H611 0.950 . S
C620 C619 1.398 . S
C620 C621 1.391 . S
C621 H609 0.950 . S
C621 C617 1.393 . S
C621 C620 1.391 . S
C622 H612 0.950 . S
C622 C623 1.386 . S
C622 C624 1.391 . S
C623 C622 1.386 . S
C623 C627 1.393 . S
C624 H613 0.950 . S
C624 C622 1.391 . S
C624 C625 1.400 . S
C625 C619 1.491 . S
C625 C624 1.400 . S
C625 C626 1.398 . S
C626 H614 0.950 . S
C626 C625 1.398 . S
C626 C627 1.391 . S
C627 H615 0.950 . S
C627 C623 1.393 . S
C627 C626 1.391 . S
H628 C636 0.950 1_565 S
H629 C641 0.950 . S
H630 C638 0.950 . S
H631 C640 0.950 . S
H632 C642 0.950 . S
H633 C644 0.950 . S
H634 C646 0.950 . S
H635 C647 0.950 . S
C636 H628 0.950 1_545 S
C636 C637 1.386 . S
C636 C638 1.391 . S
C637 C636 1.386 . S
C637 C641 1.393 . S
C638 H630 0.950 . S
C638 C636 1.391 . S
C638 C639 1.400 . S
C639 C638 1.400 . S
C639 C640 1.398 . S
C639 C645 1.491 . S
C640 H631 0.950 . S
C640 C639 1.398 . S
C640 C641 1.391 . S
C641 H629 0.950 . S
C641 C637 1.393 . S
C641 C640 1.391 . S
C642 H632 0.950 . S
C642 C643 1.386 . S
C642 C644 1.391 . S
C643 C642 1.386 . S
C643 C647 1.393 . S
C644 H633 0.950 . S
C644 C642 1.391 . S
C644 C645 1.400 . S
C645 C639 1.491 . S
C645 C644 1.400 . S
C645 C646 1.398 . S
C646 H634 0.950 . S
C646 C645 1.398 . S
C646 C647 1.391 . S
C647 H635 0.950 . S
C647 C643 1.393 . S
C647 C646 1.391 . S
C177 C47 1.285 . S
C183 C5 1.296 . S
C197 C19 1.302 . S
C203 C61 1.287 . S
C217 C75 1.286 . S
C223 C33 1.289 . S
C237 C89 1.307 . S
C243 C131 1.323 . S
C257 C145 1.311 . S
C263 C103 1.292 . S
C277 C117 1.285 . S
C283 C159 1.291 . S
C297 C123 1.528 . S
C303 C11 1.522 . S
C317 C25 1.512 . S
C323 C137 1.519 . S
C337 C39 1.516 . S
C343 C151 1.514 . S
C357 C53 1.527 . S
C363 C165 1.516 . S
C377 C95 1.512 . S
C383 C67 1.520 . S
C397 C109 1.512 . S
C403 C81 1.518 . S
C417 C110 0.884 . S
C423 C12 0.903 . S
C437 C26 0.925 . S
C443 C124 0.908 . S
C457 C40 0.884 . S
C463 C138 0.905 . S
C477 C54 0.923 . S
C483 C152 0.899 . S
C497 C166 0.924 . S
C503 C68 0.904 . S
C517 C82 0.920 . S
C523 C96 0.894 . S
C537 C144 1.322 1_455 S
C543 C4 1.297 . S
C557 C158 1.296 1_545 S
C563 C18 1.321 1_655 S
C577 C88 1.307 . S
C583 C32 1.315 1_565 S
C597 C46 1.298 . S
C603 C102 1.322 1_655 S
C617 C60 1.306 1_455 S
C623 C116 1.314 1_565 S
C637 C74 1.301 1_545 S
C643 C130 1.320 . S
