# Generated by pormake.
# Topology umk, (4)-cn, num edge types: 1
# Building blocks:
#     Node 0, Type 0, BuildingBlock: NAHDIM_clean_sbu_0, # of connection points: 4
#     Node 1, Type 0, BuildingBlock: NAHDIM_clean_sbu_0, # of connection points: 4
#     Node 2, Type 0, BuildingBlock: NAHDIM_clean_sbu_0, # of connection points: 4
#     Node 3, Type 0, BuildingBlock: NAHDIM_clean_sbu_0, # of connection points: 4
#     Node 4, Type 0, BuildingBlock: NAHDIM_clean_sbu_0, # of connection points: 4
#     Node 5, Type 0, BuildingBlock: NAHDIM_clean_sbu_0, # of connection points: 4
#     Node 6, Type 0, BuildingBlock: NAHDIM_clean_sbu_0, # of connection points: 4
#     Node 7, Type 0, BuildingBlock: NAHDIM_clean_sbu_0, # of connection points: 4
#     Node 8, Type 0, BuildingBlock: NAHDIM_clean_sbu_0, # of connection points: 4
#     Node 9, Type 0, BuildingBlock: NAHDIM_clean_sbu_0, # of connection points: 4
#     Node 10, Type 0, BuildingBlock: NAHDIM_clean_sbu_0, # of connection points: 4
#     Node 11, Type 0, BuildingBlock: NAHDIM_clean_sbu_0, # of connection points: 4
#     Node 12, Type 0, BuildingBlock: NAHDIM_clean_sbu_0, # of connection points: 4
#     Node 13, Type 0, BuildingBlock: NAHDIM_clean_sbu_0, # of connection points: 4
#     Node 14, Type 0, BuildingBlock: NAHDIM_clean_sbu_0, # of connection points: 4
#     Node 15, Type 0, BuildingBlock: NAHDIM_clean_sbu_0, # of connection points: 4
#     Node 16, Type 0, BuildingBlock: NAHDIM_clean_sbu_0, # of connection points: 4
#     Node 17, Type 0, BuildingBlock: NAHDIM_clean_sbu_0, # of connection points: 4
#     Node 18, Type 0, BuildingBlock: NAHDIM_clean_sbu_0, # of connection points: 4
#     Node 19, Type 0, BuildingBlock: NAHDIM_clean_sbu_0, # of connection points: 4
#     Node 20, Type 0, BuildingBlock: NAHDIM_clean_sbu_0, # of connection points: 4
#     Node 21, Type 0, BuildingBlock: NAHDIM_clean_sbu_0, # of connection points: 4
#     Node 22, Type 0, BuildingBlock: NAHDIM_clean_sbu_0, # of connection points: 4
#     Node 23, Type 0, BuildingBlock: NAHDIM_clean_sbu_0, # of connection points: 4
#     Edge 24, Type (0, 0), BuildingBlock: CIFDUS_clean_linker_0, # of connection points: 2
#     Edge 25, Type (0, 0), BuildingBlock: CIFDUS_clean_linker_0, # of connection points: 2
#     Edge 26, Type (0, 0), BuildingBlock: CIFDUS_clean_linker_0, # of connection points: 2
#     Edge 27, Type (0, 0), BuildingBlock: CIFDUS_clean_linker_0, # of connection points: 2
#     Edge 28, Type (0, 0), BuildingBlock: CIFDUS_clean_linker_0, # of connection points: 2
#     Edge 29, Type (0, 0), BuildingBlock: CIFDUS_clean_linker_0, # of connection points: 2
#     Edge 30, Type (0, 0), BuildingBlock: CIFDUS_clean_linker_0, # of connection points: 2
#     Edge 31, Type (0, 0), BuildingBlock: CIFDUS_clean_linker_0, # of connection points: 2
#     Edge 32, Type (0, 0), BuildingBlock: CIFDUS_clean_linker_0, # of connection points: 2
#     Edge 33, Type (0, 0), BuildingBlock: CIFDUS_clean_linker_0, # of connection points: 2
#     Edge 34, Type (0, 0), BuildingBlock: CIFDUS_clean_linker_0, # of connection points: 2
#     Edge 35, Type (0, 0), BuildingBlock: CIFDUS_clean_linker_0, # of connection points: 2
#     Edge 36, Type (0, 0), BuildingBlock: CIFDUS_clean_linker_0, # of connection points: 2
#     Edge 37, Type (0, 0), BuildingBlock: CIFDUS_clean_linker_0, # of connection points: 2
#     Edge 38, Type (0, 0), BuildingBlock: CIFDUS_clean_linker_0, # of connection points: 2
#     Edge 39, Type (0, 0), BuildingBlock: CIFDUS_clean_linker_0, # of connection points: 2
#     Edge 40, Type (0, 0), BuildingBlock: CIFDUS_clean_linker_0, # of connection points: 2
#     Edge 41, Type (0, 0), BuildingBlock: CIFDUS_clean_linker_0, # of connection points: 2
#     Edge 42, Type (0, 0), BuildingBlock: CIFDUS_clean_linker_0, # of connection points: 2
#     Edge 43, Type (0, 0), BuildingBlock: CIFDUS_clean_linker_0, # of connection points: 2
#     Edge 44, Type (0, 0), BuildingBlock: CIFDUS_clean_linker_0, # of connection points: 2
#     Edge 45, Type (0, 0), BuildingBlock: CIFDUS_clean_linker_0, # of connection points: 2
#     Edge 46, Type (0, 0), BuildingBlock: CIFDUS_clean_linker_0, # of connection points: 2
#     Edge 47, Type (0, 0), BuildingBlock: CIFDUS_clean_linker_0, # of connection points: 2
#     Edge 48, Type (0, 0), BuildingBlock: CIFDUS_clean_linker_0, # of connection points: 2
#     Edge 49, Type (0, 0), BuildingBlock: CIFDUS_clean_linker_0, # of connection points: 2
#     Edge 50, Type (0, 0), BuildingBlock: CIFDUS_clean_linker_0, # of connection points: 2
#     Edge 51, Type (0, 0), BuildingBlock: CIFDUS_clean_linker_0, # of connection points: 2
#     Edge 52, Type (0, 0), BuildingBlock: CIFDUS_clean_linker_0, # of connection points: 2
#     Edge 53, Type (0, 0), BuildingBlock: CIFDUS_clean_linker_0, # of connection points: 2
#     Edge 54, Type (0, 0), BuildingBlock: CIFDUS_clean_linker_0, # of connection points: 2
#     Edge 55, Type (0, 0), BuildingBlock: CIFDUS_clean_linker_0, # of connection points: 2
#     Edge 56, Type (0, 0), BuildingBlock: CIFDUS_clean_linker_0, # of connection points: 2
#     Edge 57, Type (0, 0), BuildingBlock: CIFDUS_clean_linker_0, # of connection points: 2
#     Edge 58, Type (0, 0), BuildingBlock: CIFDUS_clean_linker_0, # of connection points: 2
#     Edge 59, Type (0, 0), BuildingBlock: CIFDUS_clean_linker_0, # of connection points: 2
#     Edge 60, Type (0, 0), BuildingBlock: CIFDUS_clean_linker_0, # of connection points: 2
#     Edge 61, Type (0, 0), BuildingBlock: CIFDUS_clean_linker_0, # of connection points: 2
#     Edge 62, Type (0, 0), BuildingBlock: CIFDUS_clean_linker_0, # of connection points: 2
#     Edge 63, Type (0, 0), BuildingBlock: CIFDUS_clean_linker_0, # of connection points: 2
#     Edge 64, Type (0, 0), BuildingBlock: CIFDUS_clean_linker_0, # of connection points: 2
#     Edge 65, Type (0, 0), BuildingBlock: CIFDUS_clean_linker_0, # of connection points: 2
#     Edge 66, Type (0, 0), BuildingBlock: CIFDUS_clean_linker_0, # of connection points: 2
#     Edge 67, Type (0, 0), BuildingBlock: CIFDUS_clean_linker_0, # of connection points: 2
#     Edge 68, Type (0, 0), BuildingBlock: CIFDUS_clean_linker_0, # of connection points: 2
#     Edge 69, Type (0, 0), BuildingBlock: CIFDUS_clean_linker_0, # of connection points: 2
#     Edge 70, Type (0, 0), BuildingBlock: CIFDUS_clean_linker_0, # of connection points: 2
#     Edge 71, Type (0, 0), BuildingBlock: CIFDUS_clean_linker_0, # of connection points: 2
# Relax obj value: 0.112
# Max RMSD: 0.132
# Mean RMSD: 0.132
data_MOF--net-umk--node1-NAHDIM_clean_sbu_0--edge1-CIFDUS_clean_linker_0
_symmetry_space_group_name_H-M    P1
_symmetry_Int_Tables_number       1
_symmetry_cell_setting            triclinic
loop_
_symmetry_equiv_pos_as_xyz
'x, y, z'
_cell_length_a     58.725031
_cell_length_b     58.72309
_cell_length_c     36.761292
_cell_angle_alpha  89.997006
_cell_angle_beta   90.048737
_cell_angle_gamma 120.04087
loop_
_atom_site_label
_atom_site_type_symbol
_atom_site_fract_x
_atom_site_fract_y
_atom_site_fract_z
_atom_type_partial_charge
C0 C 0.28237 0.45452 0.05204 0.0
O1 O 0.30002 0.47678 0.06696 0.0
O2 O 0.31383 0.44325 0.1325 0.0
Zn3 Zn 0.31862 0.44036 0.07891 0.0
O4 O 0.35107 0.47313 0.06046 0.0
C5 C 0.33748 0.4061 0.05029 0.0
O6 O 0.34796 0.42355 0.0241 0.0
O7 O 0.28594 0.4349 0.0531 0.0
C8 C 0.35272 0.4807 0.02765 0.0
O9 O 0.33299 0.46694 0.00538 0.0
C10 C 0.32234 0.46426 0.15093 0.0
O11 O 0.33545 0.48714 0.13453 0.0
O12 O 0.32362 0.40899 0.07435 0.0
C13 C 0.83046 0.27104 0.54798 0.0
O14 O 0.8416 0.26687 0.57623 0.0
O15 O 0.86072 0.32058 0.61938 0.0
Zn16 Zn 0.86577 0.32591 0.56529 0.0
O17 O 0.86442 0.35813 0.55016 0.0
C18 C 0.91253 0.32185 0.57195 0.0
O19 O 0.89838 0.30398 0.59637 0.0
O20 O 0.83796 0.29452 0.53832 0.0
C21 C 0.87953 0.38003 0.56549 0.0
O22 O 0.89512 0.38091 0.5918 0.0
C23 C 0.84697 0.32717 0.63858 0.0
O24 O 0.83411 0.33738 0.62265 0.0
O25 O 0.90208 0.33273 0.55392 0.0
C26 C 0.54862 0.81268 0.06368 0.0
O27 O 0.54174 0.81081 0.09801 0.0
O28 O 0.53532 0.85424 0.11861 0.0
Zn29 Zn 0.54273 0.85894 0.06471 0.0
O30 O 0.51105 0.85426 0.03729 0.0
C31 C 0.59172 0.90673 0.0779 0.0
O32 O 0.59347 0.89271 0.10447 0.0
O33 O 0.55139 0.83214 0.04504 0.0
C34 C 0.4999 0.86737 0.04526 0.0
O35 O 0.50895 0.88397 0.07265 0.0
C36 C 0.51293 0.8387 0.13234 0.0
O37 O 0.49299 0.82431 0.1107 0.0
O38 O 0.57216 0.89597 0.05639 0.0
C39 C 0.72738 0.5499 0.57379 0.0
O40 O 0.71692 0.53405 0.60171 0.0
O41 O 0.68309 0.55156 0.638 0.0
Zn42 Zn 0.68192 0.55464 0.58366 0.0
O43 O 0.65323 0.5211 0.56135 0.0
C44 C 0.66454 0.58806 0.54763 0.0
O45 O 0.65735 0.57136 0.52041 0.0
O46 O 0.71613 0.56198 0.56143 0.0
C47 C 0.62886 0.51365 0.56271 0.0
O48 O 0.6212 0.52819 0.58012 0.0
C49 C 0.67204 0.53044 0.65643 0.0
O50 O 0.65904 0.50773 0.63957 0.0
O51 O 0.67553 0.58472 0.57525 0.0
C52 C 0.1813 0.69842 0.05233 0.0
O53 O 0.18077 0.67682 0.06312 0.0
O54 O 0.12963 0.66721 0.12977 0.0
Zn55 Zn 0.1278 0.6693 0.07512 0.0
O56 O 0.12266 0.63552 0.05256 0.0
C57 C 0.08713 0.68339 0.08353 0.0
O58 O 0.10012 0.6954 0.11317 0.0
O59 O 0.16061 0.70004 0.05527 0.0
C60 C 0.10002 0.61767 0.04201 0.0
O61 O 0.07986 0.62137 0.04584 0.0
C62 C 0.11074 0.6475 0.14541 0.0
O63 O 0.09171 0.62947 0.12539 0.0
O64 O 0.09633 0.67265 0.06276 0.0
C65 C 0.46061 0.18838 0.56866 0.0
O66 O 0.47747 0.19397 0.59537 0.0
O67 O 0.4675 0.14467 0.62718 0.0
Zn68 Zn 0.45995 0.13963 0.57333 0.0
O69 O 0.49186 0.14523 0.54564 0.0
C70 C 0.41172 0.09165 0.58778 0.0
O71 O 0.40969 0.10624 0.61325 0.0
O72 O 0.44962 0.16549 0.55474 0.0
C73 C 0.50115 0.13001 0.55026 0.0
O74 O 0.4899 0.11075 0.57394 0.0
C75 C 0.49025 0.15592 0.64157 0.0
O76 O 0.51115 0.16584 0.62061 0.0
O77 O 0.43114 0.10213 0.56605 0.0
C78 C 0.54225 0.70084 0.9341 0.0
O79 O 0.5487 0.70212 0.89965 0.0
O80 O 0.52139 0.6499 0.86986 0.0
Zn81 Zn 0.52443 0.64572 0.9239 0.0
O82 O 0.49115 0.61446 0.94339 0.0
C83 C 0.57622 0.65333 0.91408 0.0
O84 O 0.57804 0.6715 0.8915 0.0
O85 O 0.53145 0.6787 0.95016 0.0
C86 C 0.46939 0.60503 0.92643 0.0
O87 O 0.46847 0.61601 0.89574 0.0
C88 C 0.52223 0.63359 0.84797 0.0
O89 O 0.52393 0.61371 0.86121 0.0
O90 O 0.55503 0.63987 0.93188 0.0
C91 C 0.83643 0.55669 0.43856 0.0
O92 O 0.84331 0.56739 0.40613 0.0
O93 O 0.85865 0.53049 0.36724 0.0
Zn94 Zn 0.86882 0.53404 0.42011 0.0
O95 O 0.8653 0.50004 0.43789 0.0
C96 C 0.91588 0.58445 0.40853 0.0
O97 O 0.90055 0.58834 0.38646 0.0
O98 O 0.84511 0.54203 0.44989 0.0
C99 C 0.87521 0.49954 0.46842 0.0
O100 O 0.88764 0.52135 0.48747 0.0
C101 C 0.87461 0.53061 0.34383 0.0
O102 O 0.89675 0.53251 0.35505 0.0
O103 O 0.90642 0.56294 0.42602 0.0
C104 C 0.29926 0.82688 0.96145 0.0
O105 O 0.32022 0.82452 0.95765 0.0
O106 O 0.3377 0.87876 0.87982 0.0
Zn107 Zn 0.33486 0.87856 0.93458 0.0
O108 O 0.36522 0.878 0.95917 0.0
C109 C 0.3313 0.9261 0.92997 0.0
O110 O 0.31855 0.9157 0.89953 0.0
O111 O 0.30053 0.84841 0.95259 0.0
C112 C 0.379 0.86853 0.9471 0.0
O113 O 0.37357 0.85707 0.91506 0.0
C114 C 0.32728 0.85868 0.85922 0.0
O115 O 0.31398 0.83513 0.87373 0.0
O116 O 0.33854 0.91306 0.94959 0.0
C117 C 0.46061 0.31809 0.50445 0.0
O118 O 0.46886 0.34042 0.52184 0.0
O119 O 0.46535 0.34618 0.39169 0.0
Zn120 Zn 0.45682 0.34772 0.44442 0.0
O121 O 0.48479 0.38149 0.46725 0.0
C122 C 0.40517 0.3371 0.42215 0.0
O123 O 0.40867 0.32403 0.39582 0.0
O124 O 0.45386 0.31644 0.47127 0.0
C125 C 0.50889 0.38788 0.46872 0.0
O126 O 0.51629 0.37213 0.45436 0.0
C127 C 0.47658 0.33381 0.38042 0.0
O128 O 0.48403 0.32205 0.40408 0.0
O129 O 0.42271 0.34791 0.44661 0.0
C130 C 0.1676 0.47038 0.96088 0.0
O131 O 0.16976 0.49169 0.94589 0.0
O132 O 0.12033 0.45527 0.88404 0.0
Zn133 Zn 0.11619 0.45368 0.93852 0.0
O134 O 0.12035 0.48811 0.95636 0.0
C135 C 0.06651 0.40437 0.93219 0.0
O136 O 0.07779 0.4007 0.9037 0.0
O137 O 0.14521 0.4495 0.96115 0.0
C138 C 0.10094 0.49145 0.96262 0.0
O139 O 0.07695 0.47191 0.95692 0.0
C140 C 0.1044 0.45843 0.86419 0.0
O141 O 0.0855 0.46068 0.87977 0.0
O142 O 0.07973 0.4246 0.95193 0.0
C143 C 0.70367 0.16873 0.43595 0.0
O144 O 0.68888 0.17382 0.41447 0.0
O145 O 0.65517 0.12174 0.37349 0.0
Zn146 Zn 0.66085 0.11641 0.42629 0.0
O147 O 0.63222 0.1161 0.45664 0.0
C148 C 0.66961 0.0718 0.41443 0.0
O149 O 0.6881 0.0873 0.3916 0.0
O150 O 0.69595 0.14499 0.44453 0.0
C151 C 0.62155 0.12981 0.44953 0.0
O152 O 0.62963 0.14555 0.42119 0.0
C153 C 0.67339 0.12948 0.34994 0.0
O154 O 0.69709 0.13517 0.36026 0.0
O155 O 0.65697 0.08056 0.43197 0.0
C156 C 0.7276 0.55593 0.93988 0.0
O157 O 0.72241 0.55135 0.90503 0.0
O158 O 0.67145 0.53763 0.8879 0.0
Zn159 Zn 0.6734 0.54301 0.94229 0.0
O160 O 0.6473 0.50948 0.96675 0.0
C161 C 0.66527 0.5874 0.9325 0.0
O162 O 0.67903 0.59118 0.90267 0.0
O163 O 0.70981 0.55434 0.96117 0.0
C164 C 0.62354 0.49905 0.95628 0.0
O165 O 0.61764 0.51004 0.92953 0.0
C166 C 0.66506 0.51577 0.87274 0.0
O167 O 0.65923 0.49514 0.89301 0.0
O168 O 0.66189 0.56908 0.95408 0.0
C169 C 0.16851 0.72337 0.45276 0.0
O170 O 0.17668 0.71955 0.4213 0.0
O171 O 0.13077 0.67753 0.38272 0.0
Zn172 Zn 0.12445 0.67239 0.43683 0.0
O173 O 0.13294 0.6451 0.45465 0.0
C174 C 0.07183 0.66471 0.42861 0.0
O175 O 0.08292 0.68325 0.40389 0.0
O176 O 0.14623 0.70594 0.46474 0.0
C177 C 0.14762 0.63826 0.43825 0.0
O178 O 0.15915 0.65003 0.40775 0.0
C179 C 0.11652 0.65805 0.36226 0.0
O180 O 0.09876 0.63587 0.37723 0.0
O181 O 0.08596 0.65788 0.4465 0.0
C182 C 0.47332 0.17406 0.96784 0.0
O183 O 0.49638 0.17711 0.95915 0.0
O184 O 0.45803 0.13322 0.87695 0.0
Zn185 Zn 0.45666 0.12585 0.93056 0.0
O186 O 0.48979 0.12621 0.94633 0.0
C187 C 0.40495 0.08116 0.91979 0.0
O188 O 0.40337 0.09669 0.89544 0.0
O189 O 0.45265 0.15308 0.9584 0.0
C190 C 0.48977 0.11311 0.97387 0.0
O191 O 0.46776 0.09905 0.99194 0.0
C192 C 0.47889 0.14416 0.85796 0.0
O193 O 0.50173 0.1522 0.87381 0.0
O194 O 0.42564 0.0898 0.93906 0.0
C195 C 0.2627 0.43933 0.45025 0.0
O196 O 0.25834 0.42654 0.41936 0.0
O197 O 0.31326 0.45606 0.38219 0.0
Zn198 Zn 0.31665 0.45372 0.43638 0.0
O199 O 0.34975 0.48582 0.45264 0.0
C200 C 0.31875 0.40559 0.42625 0.0
O201 O 0.30995 0.4058 0.39345 0.0
O202 O 0.28598 0.45196 0.46269 0.0
C203 C 0.37128 0.4877 0.44239 0.0
O204 O 0.37057 0.46919 0.4215 0.0
C205 C 0.32094 0.47812 0.36684 0.0
O206 O 0.33015 0.49942 0.38695 0.0
O207 O 0.32136 0.423 0.44906 0.0
C208 C 0.81526 0.29843 0.9576 0.0
O209 O 0.81503 0.32046 0.95258 0.0
O210 O 0.85873 0.32758 0.86975 0.0
Zn211 Zn 0.86499 0.32943 0.92379 0.0
O212 O 0.86583 0.36181 0.94355 0.0
C213 C 0.91104 0.32432 0.91156 0.0
O214 O 0.89729 0.31011 0.88364 0.0
O215 O 0.8353 0.29713 0.94757 0.0
C216 C 0.88388 0.38468 0.93452 0.0
O217 O 0.90232 0.38713 0.91197 0.0
C218 C 0.84405 0.33522 0.85521 0.0
O219 O 0.83238 0.34449 0.87601 0.0
O220 O 0.90066 0.33337 0.93328 0.0
C221 C 0.55383 0.83252 0.44263 0.0
O222 O 0.57103 0.84483 0.41664 0.0
O223 O 0.5373 0.86455 0.36924 0.0
Zn224 Zn 0.5348 0.86793 0.42342 0.0
O225 O 0.50078 0.86606 0.43676 0.0
C226 C 0.58511 0.91652 0.42226 0.0
O227 O 0.58993 0.90568 0.39426 0.0
O228 O 0.53695 0.8393 0.45001 0.0
C229 C 0.49246 0.87917 0.41943 0.0
O230 O 0.50573 0.89312 0.39108 0.0
C231 C 0.51807 0.8489 0.34933 0.0
O232 O 0.49512 0.83342 0.36444 0.0
O233 O 0.56351 0.90354 0.43928 0.0
C234 C 0.48989 0.30235 0.06696 0.0
O235 O 0.51186 0.3235 0.07647 0.0
O236 O 0.46782 0.33821 0.14067 0.0
Zn237 Zn 0.46935 0.33572 0.08602 0.0
O238 O 0.50208 0.36678 0.06648 0.0
C239 C 0.41862 0.33337 0.07957 0.0
O240 O 0.41409 0.32271 0.1121 0.0
O241 O 0.46833 0.30241 0.06957 0.0
C242 C 0.52369 0.38083 0.08307 0.0
O243 O 0.52631 0.37525 0.11687 0.0
C244 C 0.47716 0.32857 0.16318 0.0
O245 O 0.48858 0.31575 0.15097 0.0
O246 O 0.43992 0.33896 0.06344 0.0
C247 C 0.16533 0.46551 0.57104 0.0
O248 O 0.17068 0.48066 0.59978 0.0
O249 O 0.11498 0.46175 0.63182 0.0
Zn250 Zn 0.11563 0.46323 0.57714 0.0
O251 O 0.12332 0.49923 0.5618 0.0
C252 C 0.06736 0.41382 0.57085 0.0
O253 O 0.07881 0.40639 0.59504 0.0
O254 O 0.14262 0.45541 0.55679 0.0
C255 C 0.1349 0.51002 0.53224 0.0
O256 O 0.14297 0.49759 0.51077 0.0
C257 C 0.09755 0.46497 0.64761 0.0
O258 O 0.0813 0.46896 0.62766 0.0
O259 O 0.07978 0.43714 0.55852 0.0
C260 C 0.69798 0.16309 0.03457 0.0
O261 O 0.68202 0.16733 0.05477 0.0
O262 O 0.66944 0.11748 0.1111 0.0
Zn263 Zn 0.66154 0.11188 0.05728 0.0
O264 O 0.62958 0.11462 0.04432 0.0
C265 C 0.66102 0.06229 0.0628 0.0
O266 O 0.6766 0.07376 0.09072 0.0
O267 O 0.69315 0.13959 0.03042 0.0
C268 C 0.60708 0.09672 0.05503 0.0
O269 O 0.60543 0.07746 0.07516 0.0
C270 C 0.65766 0.12418 0.13401 0.0
O271 O 0.63861 0.12809 0.12299 0.0
O272 O 0.65331 0.07526 0.04381 0.0
C273 C 0.52546 0.70518 0.5561 0.0
O274 O 0.50598 0.6911 0.57853 0.0
O275 O 0.5324 0.65813 0.61737 0.0
Zn276 Zn 0.53347 0.66106 0.56266 0.0
O277 O 0.49839 0.63309 0.54285 0.0
C278 C 0.58367 0.6623 0.5583 0.0
O279 O 0.58966 0.67703 0.5876 0.0
O280 O 0.54036 0.69645 0.54614 0.0
C281 C 0.49631 0.61261 0.52785 0.0
O282 O 0.51717 0.60995 0.52543 0.0
C283 C 0.53084 0.63746 0.63086 0.0
O284 O 0.53039 0.61965 0.60877 0.0
O285 O 0.56157 0.65447 0.54306 0.0
C286 C 0.85025 0.56902 0.05037 0.0
O287 O 0.86045 0.58014 0.08178 0.0
O288 O 0.88925 0.54723 0.10561 0.0
Zn289 Zn 0.88871 0.55105 0.05122 0.0
O290 O 0.88583 0.51878 0.02777 0.0
C291 C 0.93436 0.60258 0.0558 0.0
O292 O 0.9217 0.60465 0.0839 0.0
O293 O 0.85921 0.55618 0.03379 0.0
C294 C 0.86609 0.49606 0.03304 0.0
O295 O 0.84685 0.4936 0.05392 0.0
C296 C 0.86975 0.53728 0.12722 0.0
O297 O 0.84587 0.52821 0.11435 0.0
O298 O 0.92346 0.58171 0.03679 0.0
C299 C 0.28442 0.84663 0.55515 0.0
O300 O 0.2786 0.84875 0.58902 0.0
O301 O 0.33415 0.87715 0.62814 0.0
Zn302 Zn 0.3398 0.88427 0.57424 0.0
O303 O 0.3689 0.87826 0.55751 0.0
C304 C 0.34344 0.93553 0.5814 0.0
O305 O 0.32612 0.92419 0.60756 0.0
O306 O 0.30809 0.86004 0.54441 0.0
C307 C 0.37587 0.88356 0.52444 0.0
O308 O 0.36401 0.89268 0.50368 0.0
C309 C 0.32663 0.85456 0.64168 0.0
O310 O 0.32157 0.83484 0.61986 0.0
O311 O 0.35125 0.92213 0.56374 0.0
H312 H 0.33725 0.50469 0.19909 0.0
H313 H 0.29864 0.41996 0.19262 0.0
H314 H 0.29393 0.41682 0.2585 0.0
H315 H 0.30215 0.43796 0.31813 0.0
H316 H 0.34071 0.52261 0.32523 0.0
H317 H 0.34387 0.52586 0.259 0.0
C318 C 0.32771 0.48554 0.21207 0.0
C319 C 0.31847 0.46264 0.19086 0.0
C320 C 0.32506 0.48381 0.25013 0.0
C321 C 0.30603 0.43796 0.20819 0.0
C322 C 0.30332 0.4361 0.24593 0.0
C323 C 0.31113 0.45713 0.30523 0.0
C324 C 0.32128 0.48 0.32667 0.0
C325 C 0.31298 0.45888 0.26718 0.0
C326 C 0.33275 0.50467 0.30943 0.0
C327 C 0.33462 0.50656 0.27152 0.0
H328 H 0.82342 0.34315 0.68826 0.0
H329 H 0.87119 0.30651 0.67913 0.0
H330 H 0.87392 0.30524 0.74517 0.0
H331 H 0.86409 0.31579 0.80544 0.0
H332 H 0.81659 0.35266 0.81504 0.0
H333 H 0.81242 0.3525 0.74892 0.0
C334 C 0.83429 0.33474 0.7007 0.0
C335 C 0.84714 0.32504 0.6787 0.0
C336 C 0.83595 0.33419 0.7388 0.0
C337 C 0.86114 0.3142 0.69534 0.0
C338 C 0.86276 0.31347 0.73315 0.0
C339 C 0.85275 0.32374 0.79313 0.0
C340 C 0.84078 0.33432 0.81521 0.0
C341 C 0.85047 0.32364 0.75513 0.0
C342 C 0.82607 0.34443 0.79873 0.0
C343 C 0.82367 0.34436 0.76089 0.0
H344 H 0.48067 0.82053 0.29835 0.0
H345 H 0.56314 0.87782 0.31043 0.0
H346 H 0.56876 0.8794 0.24464 0.0
H347 H 0.55031 0.86523 0.18369 0.0
H348 H 0.46786 0.80818 0.17101 0.0
H349 H 0.46226 0.80583 0.23702 0.0
C350 C 0.49989 0.8333 0.28662 0.0
C351 C 0.52142 0.84904 0.30938 0.0
C352 C 0.50302 0.83423 0.24863 0.0
C353 C 0.54619 0.86549 0.29364 0.0
C354 C 0.54945 0.86644 0.25597 0.0
C355 C 0.53109 0.85224 0.19529 0.0
C356 C 0.50953 0.83695 0.17236 0.0
C357 C 0.52799 0.85101 0.23321 0.0
C358 C 0.4848 0.8202 0.18797 0.0
C359 C 0.48157 0.81884 0.22575 0.0
H360 H 0.6832 0.55584 0.82422 0.0
H361 H 0.64598 0.47128 0.83109 0.0
H362 H 0.64496 0.46826 0.76471 0.0
H363 H 0.65433 0.48972 0.70464 0.0
H364 H 0.69233 0.57443 0.69866 0.0
H365 H 0.69336 0.57721 0.76475 0.0
C366 C 0.67482 0.53672 0.81125 0.0
C367 C 0.66459 0.51383 0.8326 0.0
C368 C 0.67446 0.53513 0.77319 0.0
C369 C 0.654 0.48923 0.8153 0.0
C370 C 0.65338 0.48748 0.77734 0.0
C371 C 0.66287 0.50878 0.7178 0.0
C372 C 0.67317 0.53179 0.69665 0.0
C373 C 0.66352 0.5103 0.75599 0.0
C374 C 0.68427 0.55636 0.71419 0.0
C375 C 0.68485 0.55801 0.75204 0.0
H376 H 0.08698 0.62108 0.31206 0.0
H377 H 0.15302 0.6999 0.32247 0.0
H378 H 0.15762 0.70338 0.2563 0.0
H379 H 0.14235 0.68422 0.19537 0.0
H380 H 0.07576 0.60562 0.18568 0.0
H381 H 0.07203 0.60191 0.25168 0.0
C382 C 0.10244 0.63903 0.29993 0.0
C383 C 0.1196 0.66019 0.32223 0.0
C384 C 0.10489 0.64095 0.26194 0.0
C385 C 0.13949 0.6833 0.30596 0.0
C386 C 0.14215 0.68531 0.26811 0.0
C387 C 0.12712 0.66623 0.20771 0.0
C388 C 0.10938 0.64524 0.18555 0.0
C389 C 0.1249 0.66428 0.24581 0.0
C390 C 0.08966 0.62212 0.20202 0.0
C391 C 0.08749 0.61996 0.2398 0.0
H392 H 0.51893 0.16424 0.80858 0.0
H393 H 0.43456 0.12865 0.81756 0.0
H394 H 0.43085 0.12984 0.75169 0.0
H395 H 0.45117 0.13958 0.69152 0.0
H396 H 0.53543 0.17499 0.68178 0.0
H397 H 0.53951 0.17532 0.74798 0.0
C398 C 0.49975 0.15687 0.79615 0.0
C399 C 0.47707 0.14629 0.81806 0.0
C400 C 0.49769 0.15749 0.75811 0.0
C401 C 0.45237 0.13686 0.80144 0.0
C402 C 0.45019 0.13749 0.76372 0.0
C403 C 0.47047 0.14746 0.70381 0.0
C404 C 0.49295 0.15714 0.68167 0.0
C405 C 0.47267 0.14754 0.7418 0.0
C406 C 0.51779 0.16738 0.69815 0.0
C407 C 0.52014 0.16755 0.73602 0.0
H408 H 0.52678 0.66778 0.68386 0.0
H409 H 0.53144 0.59742 0.66742 0.0
H410 H 0.52873 0.58985 0.73285 0.0
H411 H 0.5253 0.60318 0.79474 0.0
H412 H 0.5205 0.6734 0.81169 0.0
H413 H 0.52287 0.68092 0.7461 0.0
C414 C 0.52723 0.65081 0.69459 0.0
C415 C 0.52935 0.63323 0.6707 0.0
C416 C 0.52556 0.64647 0.73236 0.0
C417 C 0.52981 0.61128 0.68511 0.0
C418 C 0.52825 0.6069 0.72257 0.0
C419 C 0.52468 0.6201 0.78414 0.0
C420 C 0.52272 0.63767 0.80816 0.0
C421 C 0.52612 0.62436 0.74644 0.0
C422 C 0.52197 0.65951 0.79386 0.0
C423 C 0.52337 0.66387 0.75633 0.0
H424 H 0.90813 0.53946 0.28801 0.0
H425 H 0.82844 0.52025 0.31132 0.0
H426 H 0.8196 0.51991 0.24626 0.0
H427 H 0.83483 0.52583 0.18269 0.0
H428 H 0.91509 0.54647 0.16025 0.0
H429 H 0.92331 0.54546 0.22501 0.0
C430 C 0.88877 0.53507 0.2789 0.0
C431 C 0.86897 0.52982 0.30449 0.0
C432 C 0.88393 0.53523 0.24157 0.0
C433 C 0.84406 0.52438 0.29219 0.0
C434 C 0.83898 0.52418 0.25498 0.0
C435 C 0.85408 0.53 0.19198 0.0
C436 C 0.87428 0.53619 0.16662 0.0
C437 C 0.85881 0.52968 0.22942 0.0
C438 C 0.89917 0.54172 0.17914 0.0
C439 C 0.90392 0.54112 0.2162 0.0
H440 H 0.34285 0.89228 0.69392 0.0
H441 H 0.30555 0.80821 0.6793 0.0
H442 H 0.30248 0.80199 0.74522 0.0
H443 H 0.31051 0.82048 0.80712 0.0
H444 H 0.34865 0.9047 0.82119 0.0
H445 H 0.35132 0.91072 0.75544 0.0
C446 C 0.33397 0.87257 0.7051 0.0
C447 C 0.32439 0.85075 0.68165 0.0
C448 C 0.33249 0.86914 0.743 0.0
C449 C 0.3131 0.82537 0.69669 0.0
C450 C 0.31133 0.82179 0.73441 0.0
C451 C 0.31943 0.84015 0.79582 0.0
C452 C 0.32934 0.86208 0.81916 0.0
C453 C 0.32101 0.84354 0.75784 0.0
C454 C 0.3409 0.88744 0.80396 0.0
C455 C 0.3424 0.89093 0.76631 0.0
H456 H 0.45954 0.35213 0.325 0.0
H457 H 0.50091 0.31011 0.34695 0.0
H458 H 0.5049 0.30494 0.28174 0.0
H459 H 0.496 0.31171 0.21848 0.0
H460 H 0.45429 0.35347 0.19693 0.0
H461 H 0.45109 0.35931 0.26202 0.0
C462 C 0.46954 0.34193 0.31558 0.0
C463 C 0.4799 0.33153 0.34089 0.0
C464 C 0.47163 0.33888 0.27808 0.0
C465 C 0.49273 0.31831 0.32811 0.0
C466 C 0.49501 0.31531 0.2908 0.0
C467 C 0.48621 0.3221 0.22799 0.0
C468 C 0.47537 0.33208 0.20278 0.0
C469 C 0.4844 0.32539 0.26554 0.0
C470 C 0.4628 0.34554 0.21566 0.0
C471 C 0.46096 0.34892 0.25292 0.0
H472 H 0.12861 0.45843 0.69676 0.0
H473 H 0.06173 0.47001 0.68875 0.0
H474 H 0.05805 0.46905 0.75484 0.0
H475 H 0.07368 0.46494 0.81488 0.0
H476 H 0.14059 0.45346 0.8233 0.0
H477 H 0.14435 0.45438 0.75709 0.0
C478 C 0.11322 0.46073 0.70946 0.0
C479 C 0.09549 0.46428 0.68777 0.0
C480 C 0.1112 0.4602 0.74757 0.0
C481 C 0.07567 0.46726 0.70472 0.0
C482 C 0.07353 0.46671 0.74256 0.0
C483 C 0.08911 0.46265 0.80229 0.0
C484 C 0.10681 0.45914 0.82407 0.0
C485 C 0.09118 0.4632 0.76424 0.0
C486 C 0.12668 0.4562 0.80722 0.0
C487 C 0.12886 0.45672 0.76933 0.0
H488 H 0.703 0.13174 0.29196 0.0
H489 H 0.63035 0.12888 0.32058 0.0
H490 H 0.6196 0.12816 0.2562 0.0
H491 H 0.63012 0.12677 0.1918 0.0
H492 H 0.70182 0.1275 0.16356 0.0
H493 H 0.71364 0.13066 0.22775 0.0
C494 C 0.68491 0.13118 0.28412 0.0
C495 C 0.66753 0.13039 0.31101 0.0
C496 C 0.67862 0.13026 0.24711 0.0
C497 C 0.64405 0.12942 0.3004 0.0
C498 C 0.63788 0.12901 0.26359 0.0
C499 C 0.64841 0.12778 0.19968 0.0
C500 C 0.66505 0.1269 0.17291 0.0
C501 C 0.6549 0.12917 0.23671 0.0
C502 C 0.68859 0.12804 0.18361 0.0
C503 C 0.6954 0.12988 0.22032 0.0
H504 H 0.17425 0.42908 0.98003 0.0
H505 H 0.21338 0.51394 0.97967 0.0
H506 H 0.25207 0.51637 0.00782 0.0
H507 H 0.27487 0.4947 0.03271 0.0
H508 H 0.23709 0.41 0.0315 0.0
H509 H 0.19789 0.40722 0.00367 0.0
C510 C 0.19124 0.44807 0.9862 0.0
C511 C 0.19088 0.47128 0.97785 0.0
C512 C 0.2137 0.44939 0.00203 0.0
C513 C 0.21313 0.49576 0.9857 0.0
C514 C 0.2353 0.4972 0.00187 0.0
C515 C 0.25806 0.4756 0.02642 0.0
C516 C 0.25885 0.4526 0.03433 0.0
C517 C 0.23579 0.47418 0.01016 0.0
C518 C 0.23699 0.42803 0.02563 0.0
C519 C 0.21455 0.42642 0.0098 0.0
H520 H 0.7356 0.16554 0.48704 0.0
H521 H 0.72685 0.22092 0.41964 0.0
H522 H 0.76592 0.25726 0.4473 0.0
H523 H 0.80144 0.2735 0.49216 0.0
H524 H 0.80986 0.21843 0.56065 0.0
H525 H 0.77208 0.18179 0.53085 0.0
C526 C 0.74233 0.18554 0.47822 0.0
C527 C 0.72823 0.19048 0.4514 0.0
C528 C 0.76469 0.20642 0.4945 0.0
C529 C 0.73724 0.21653 0.44033 0.0
C530 C 0.75959 0.23736 0.45614 0.0
C531 C 0.79513 0.25349 0.50049 0.0
C532 C 0.80842 0.24875 0.52872 0.0
C533 C 0.77329 0.23255 0.4835 0.0
C534 C 0.79996 0.22267 0.53909 0.0
C535 C 0.77834 0.20169 0.52207 0.0
H536 H 0.5602 0.80948 0.99288 0.0
H537 H 0.53922 0.76629 0.094 0.0
H538 H 0.53626 0.72816 0.06301 0.0
H539 H 0.53703 0.7062 0.00662 0.0
H540 H 0.55794 0.74938 0.90551 0.0
H541 H 0.56351 0.78837 0.93717 0.0
C542 C 0.55522 0.79183 0.00825 0.0
C543 C 0.54975 0.79072 0.04567 0.0
C544 C 0.55331 0.76987 0.99022 0.0
C545 C 0.54345 0.7677 0.06515 0.0
C546 C 0.54166 0.74582 0.04743 0.0
C547 C 0.54288 0.72415 0.99151 0.0
C548 C 0.54682 0.72477 0.9537 0.0
C549 C 0.54608 0.74653 0.00987 0.0
C550 C 0.55468 0.7483 0.93461 0.0
C551 C 0.55786 0.77063 0.95268 0.0
H552 H 0.74956 0.57525 0.51034 0.0
H553 H 0.75676 0.52806 0.59475 0.0
H554 H 0.79211 0.52725 0.56113 0.0
H555 H 0.81907 0.53762 0.50633 0.0
H556 H 0.81147 0.58402 0.42114 0.0
H557 H 0.77824 0.58753 0.45669 0.0
C558 C 0.75902 0.56499 0.52156 0.0
C559 C 0.75039 0.55159 0.5549 0.0
C560 C 0.77915 0.56432 0.50188 0.0
C561 C 0.7629 0.53843 0.56905 0.0
C562 C 0.78311 0.53791 0.54983 0.0
C563 C 0.81028 0.54863 0.49556 0.0
C564 C 0.81761 0.56035 0.46099 0.0
C565 C 0.79107 0.5504 0.51596 0.0
C566 C 0.80612 0.5747 0.44761 0.0
C567 C 0.78708 0.5767 0.4679 0.0
H568 H 0.29173 0.78021 0.98683 0.0
H569 H 0.25189 0.82446 0.97109 0.0
H570 H 0.21192 0.78864 0.99794 0.0
H571 H 0.18842 0.74493 0.02621 0.0
H572 H 0.22852 0.70093 0.0421 0.0
H573 H 0.2683 0.7366 0.0149 0.0
C574 C 0.27431 0.78204 0.98915 0.0
C575 C 0.27483 0.805 0.97694 0.0
C576 C 0.25146 0.76146 0.00475 0.0
C577 C 0.25205 0.80701 0.98027 0.0
C578 C 0.22918 0.78655 0.99565 0.0
C579 C 0.20586 0.74313 0.02377 0.0
C580 C 0.20546 0.72027 0.03622 0.0
C581 C 0.22869 0.76372 0.00807 0.0
C582 C 0.22825 0.71829 0.03279 0.0
C583 C 0.25102 0.73868 0.0172 0.0
H584 H 0.47722 0.23699 0.59642 0.0
H585 H 0.43387 0.18635 0.50659 0.0
H586 H 0.42931 0.22182 0.47933 0.0
H587 H 0.43942 0.26783 0.47967 0.0
H588 H 0.48239 0.31813 0.57 0.0
H589 H 0.48524 0.2821 0.5984 0.0
C590 C 0.46665 0.23364 0.57096 0.0
C591 C 0.45607 0.20911 0.55346 0.0
C592 C 0.46412 0.25408 0.55545 0.0
C593 C 0.44224 0.20505 0.52063 0.0
C594 C 0.43969 0.22535 0.50496 0.0
C595 C 0.4493 0.27088 0.50565 0.0
C596 C 0.4608 0.2957 0.52256 0.0
C597 C 0.45083 0.25004 0.52192 0.0
C598 C 0.47335 0.29925 0.55637 0.0
C599 C 0.47506 0.27867 0.57262 0.0
H600 H 0.83368 0.56008 0.98051 0.0
H601 H 0.81644 0.58099 0.08527 0.0
H602 H 0.77736 0.57993 0.05994 0.0
H603 H 0.74691 0.57073 0.00863 0.0
H604 H 0.76519 0.55074 0.90379 0.0
H605 H 0.80518 0.55397 0.92858 0.0
C606 C 0.82143 0.56449 0.9978 0.0
C607 C 0.82776 0.57033 0.03477 0.0
C608 C 0.79917 0.56398 0.98307 0.0
C609 C 0.81194 0.5764 0.05671 0.0
C610 C 0.78956 0.57573 0.04228 0.0
C611 C 0.75974 0.56725 0.99117 0.0
C612 C 0.75293 0.56027 0.9545 0.0
C613 C 0.78281 0.56919 0.00559 0.0
C614 C 0.76989 0.55609 0.93213 0.0
C615 C 0.79275 0.55785 0.94629 0.0
H616 H 0.21648 0.76415 0.43453 0.0
H617 H 0.15961 0.73483 0.52164 0.0
H618 H 0.18981 0.77137 0.56038 0.0
H619 H 0.23347 0.81016 0.57077 0.0
H620 H 0.29029 0.83886 0.48349 0.0
H621 H 0.25892 0.80417 0.44365 0.0
C622 C 0.21058 0.76582 0.4619 0.0
C623 C 0.1859 0.74664 0.47521 0.0
C624 C 0.22809 0.78675 0.48412 0.0
C625 C 0.17854 0.74925 0.5107 0.0
C626 C 0.19582 0.77013 0.53293 0.0
C627 C 0.23891 0.80899 0.54293 0.0
C628 C 0.2643 0.827 0.53031 0.0
C629 C 0.22081 0.78878 0.52012 0.0
C630 C 0.27096 0.82519 0.49408 0.0
C631 C 0.25303 0.80532 0.47121 0.0
H632 H 0.51349 0.21849 0.9968 0.0
H633 H 0.42913 0.17676 0.98326 0.0
H634 H 0.42663 0.21237 0.01393 0.0
H635 H 0.44865 0.25606 0.04283 0.0
H636 H 0.53307 0.2974 0.05615 0.0
H637 H 0.5352 0.26113 0.02747 0.0
C638 C 0.49452 0.21712 0.00058 0.0
C639 C 0.47157 0.19508 0.98755 0.0
C640 C 0.49322 0.23761 0.01821 0.0
C641 C 0.44714 0.19355 0.99297 0.0
C642 C 0.44568 0.21392 0.01047 0.0
C643 C 0.46749 0.25707 0.03963 0.0
C644 C 0.49066 0.27949 0.05148 0.0
C645 C 0.46863 0.23614 0.02296 0.0
C646 C 0.51491 0.28043 0.04722 0.0
C647 C 0.51618 0.25971 0.03076 0.0
H648 H 0.1612 0.43773 0.50976 0.0
H649 H 0.21571 0.48415 0.59459 0.0
H650 H 0.25031 0.47928 0.56532 0.0
H651 H 0.2655 0.46328 0.51463 0.0
H652 H 0.21122 0.41725 0.42938 0.0
H653 H 0.17606 0.42048 0.46001 0.0
C654 C 0.18061 0.44669 0.52198 0.0
C655 C 0.18587 0.46139 0.55425 0.0
C656 C 0.20047 0.44395 0.5049 0.0
C657 C 0.21113 0.47281 0.56971 0.0
C658 C 0.23095 0.47005 0.55298 0.0
C659 C 0.24597 0.45385 0.50276 0.0
C660 C 0.24106 0.44015 0.46965 0.0
C661 C 0.2259 0.45589 0.52039 0.0
C662 C 0.21558 0.42796 0.45479 0.0
C663 C 0.19546 0.42983 0.47227 0.0
H664 H 0.80393 0.24729 0.95935 0.0
H665 H 0.77463 0.29833 0.99303 0.0
H666 H 0.73597 0.26104 0.01962 0.0
H667 H 0.7103 0.2141 0.03312 0.0
H668 H 0.73848 0.16235 0.99855 0.0
H669 H 0.77766 0.19973 0.97238 0.0
C670 C 0.78913 0.25024 0.97264 0.0
C671 C 0.79222 0.27558 0.97424 0.0
C672 C 0.76668 0.22859 0.98759 0.0
C673 C 0.77275 0.27904 0.99131 0.0
C674 C 0.7506 0.25773 0.00657 0.0
C675 C 0.72498 0.21094 0.01988 0.0
C676 C 0.72146 0.18547 0.01787 0.0
C677 C 0.74734 0.23243 0.00479 0.0
C678 C 0.74067 0.18176 0.00043 0.0
C679 C 0.76311 0.20313 0.98552 0.0
H680 H 0.52104 0.80375 0.49748 0.0
H681 H 0.58537 0.81118 0.43184 0.0
H682 H 0.58302 0.77313 0.46242 0.0
H683 H 0.56159 0.73679 0.50602 0.0
H684 H 0.49687 0.72912 0.57099 0.0
H685 H 0.50065 0.7684 0.54248 0.0
C686 C 0.53465 0.79714 0.48991 0.0
C687 C 0.55327 0.81024 0.46225 0.0
C688 C 0.5331 0.7752 0.50743 0.0
C689 C 0.57079 0.80144 0.45295 0.0
C690 C 0.56945 0.77966 0.47041 0.0
C691 C 0.54839 0.74378 0.51414 0.0
C692 C 0.52889 0.72994 0.5405 0.0
C693 C 0.55052 0.76625 0.49743 0.0
C694 C 0.51201 0.73932 0.5507 0.0
C695 C 0.51412 0.76177 0.53438 0.0
H696 H 0.37109 0.39781 0.00887 0.0
H697 H 0.32191 0.3694 0.10438 0.0
H698 H 0.34062 0.34177 0.11963 0.0
H699 H 0.37472 0.3299 0.11002 0.0
H700 H 0.42461 0.35911 0.01526 0.0
H701 H 0.4016 0.38182 0.99543 0.0
C702 C 0.36414 0.38526 0.0327 0.0
C703 C 0.34544 0.38605 0.05573 0.0
C704 C 0.37528 0.36968 0.04169 0.0
C705 C 0.33649 0.36943 0.08632 0.0
C706 C 0.34723 0.35364 0.09517 0.0
C707 C 0.3803 0.34087 0.08472 0.0
C708 C 0.40166 0.34312 0.06454 0.0
C709 C 0.36725 0.35426 0.0737 0.0
C710 C 0.40842 0.35723 0.03161 0.0
C711 C 0.39532 0.37032 0.02025 0.0
H712 H 0.03307 0.366 0.59978 0.0
H713 H 0.03846 0.42309 0.52107 0.0
H714 H 0.99107 0.39776 0.51136 0.0
H715 H 0.94778 0.36212 0.52983 0.0
H716 H 0.94199 0.3058 0.61014 0.0
H717 H 0.98988 0.32792 0.61414 0.0
C718 C 0.02395 0.37272 0.58013 0.0
C719 C 0.03928 0.39659 0.56155 0.0
C720 C 0.99657 0.35828 0.57508 0.0
C721 C 0.02712 0.40492 0.53603 0.0
C722 C -1e-05 0.39046 0.53046 0.0
C723 C 0.95695 0.35441 0.54783 0.0
C724 C 0.94129 0.33252 0.56998 0.0
C725 C 0.98446 0.36752 0.55056 0.0
C726 C 0.95355 0.32273 0.59296 0.0
C727 C 0.98096 0.33542 0.59537 0.0
H728 H 0.59185 0.94141 0.02868 0.0
H729 H 0.6331 0.9367 0.12309 0.0
H730 H 0.65999 0.98458 0.12466 0.0
H731 H 0.66897 0.02779 0.10267 0.0
H732 H 0.62685 0.03235 0.00919 0.0
H733 H 0.60337 0.98455 0.00368 0.0
C734 C 0.60693 0.9508 0.04937 0.0
C735 C 0.61022 0.93545 0.07596 0.0
C736 C 0.6221 0.97837 0.05043 0.0
C737 C 0.63 0.948 0.1024 0.0
C738 C 0.64537 0.97542 0.10339 0.0
C739 C 0.65491 0.01838 0.08079 0.0
C740 C 0.64951 0.03368 0.05663 0.0
C741 C 0.64116 0.99081 0.07807 0.0
C742 C 0.6313 0.02109 0.02834 0.0
C743 C 0.61779 0.99372 0.02519 0.0
H744 H 0.63042 0.59305 0.50269 0.0
H745 H 0.68014 0.62802 0.5966 0.0
H746 H 0.66155 0.65655 0.60564 0.0
H747 H 0.62762 0.6678 0.5913 0.0
H748 H 0.57669 0.63163 0.4988 0.0
H749 H 0.59954 0.60767 0.48462 0.0
C750 C 0.63753 0.60723 0.52474 0.0
C751 C 0.65637 0.60812 0.54919 0.0
C752 C 0.62636 0.62324 0.53029 0.0
C753 C 0.66541 0.62669 0.57759 0.0
C754 C 0.65477 0.64301 0.58285 0.0
C755 C 0.62178 0.65502 0.56769 0.0
C756 C 0.60025 0.65127 0.54649 0.0
C757 C 0.63466 0.64087 0.56006 0.0
C758 C 0.59305 0.63471 0.51585 0.0
C759 C 0.60606 0.62093 0.50772 0.0
H760 H 0.96687 0.64275 0.10062 0.0
H761 H 0.96535 0.60526 0.99886 0.0
H762 H 0.0132 0.63072 0.99571 0.0
H763 H 0.05521 0.65826 0.02625 0.0
H764 H 0.05703 0.69404 0.12962 0.0
H765 H 0.00935 0.67505 0.12729 0.0
C766 C 0.97696 0.64053 0.07738 0.0
C767 C 0.96258 0.62176 0.05039 0.0
C768 C 0.00456 0.65476 0.07617 0.0
C769 C 0.97596 0.6193 0.0203 0.0
C770 C 0.00335 0.63381 0.01849 0.0
C771 C 0.04527 0.66234 0.04799 0.0
C772 C 0.05961 0.67711 0.07841 0.0
C773 C 0.01784 0.65077 0.04698 0.0
C774 C 0.04646 0.68252 0.10604 0.0
C775 C 0.01915 0.67154 0.10483 0.0
H776 H 0.41325 0.05571 0.54269 0.0
H777 H 0.36986 0.06264 0.63262 0.0
H778 H 0.34353 0.0148 0.63693 0.0
H779 H 0.3352 0.97106 0.6183 0.0
H780 H 0.37942 0.96445 0.52918 0.0
H781 H 0.40287 0.01205 0.52139 0.0
C782 C 0.39784 0.0468 0.56299 0.0
C783 C 0.39372 0.06279 0.58748 0.0
C784 C 0.38301 0.01928 0.56567 0.0
C785 C 0.37357 0.05084 0.61351 0.0
C786 C 0.35853 0.02345 0.61608 0.0
C787 C 0.34978 0.97999 0.59694 0.0
C788 C 0.35568 0.96416 0.57462 0.0
C789 C 0.36345 0.00748 0.59279 0.0
C790 C 0.37457 0.97612 0.54696 0.0
C791 C 0.38804 0.00338 0.54246 0.0
H792 H 0.58197 0.62235 0.96382 0.0
H793 H 0.6182 0.66967 0.86846 0.0
H794 H 0.65063 0.65526 0.86763 0.0
H795 H 0.66629 0.62628 0.89088 0.0
H796 H 0.62993 0.57903 0.98634 0.0
H797 H 0.60026 0.59665 0.99043 0.0
C798 C 0.59709 0.62968 0.94303 0.0
C799 C 0.59745 0.64679 0.916 0.0
C800 C 0.61565 0.62129 0.94265 0.0
C801 C 0.61739 0.65639 0.88953 0.0
C802 C 0.63592 0.64811 0.88896 0.0
C803 C 0.65211 0.62009 0.91286 0.0
C804 C 0.65017 0.60111 0.93796 0.0
C805 C 0.6349 0.63013 0.91493 0.0
C806 C 0.63181 0.59349 0.96648 0.0
C807 C 0.61472 0.60348 0.9688 0.0
H808 H 0.95185 0.58349 0.45401 0.0
H809 H 0.94384 0.62908 0.36802 0.0
H810 H 0.99134 0.65911 0.36836 0.0
H811 H 0.0354 0.6707 0.39034 0.0
H812 H 0.04311 0.62462 0.47594 0.0
H813 H 0.99546 0.59668 0.4786 0.0
C814 C 0.96044 0.60009 0.43548 0.0
C815 C 0.94432 0.60387 0.41081 0.0
C816 C 0.98775 0.61718 0.43566 0.0
C817 C 0.95579 0.62563 0.38722 0.0
C818 C 0.98297 0.6428 0.38734 0.0
C819 C 0.02666 0.65472 0.40984 0.0
C820 C 0.04287 0.64967 0.43268 0.0
C821 C -0.00081 0.63852 0.41104 0.0
C822 C 0.03116 0.62891 0.45788 0.0
C823 C 0.00388 0.61285 0.4594 0.0
H824 H 0.39971 0.0454 0.97072 0.0
H825 H 0.36506 0.05346 0.87146 0.0
H826 H 0.33653 0.0058 0.8682 0.0
H827 H 0.32544 0.96175 0.88951 0.0
H828 H 0.36074 0.95399 0.98841 0.0
H829 H 0.38464 0.00157 0.99603 0.0
C830 C 0.38566 0.03676 0.94862 0.0
C831 C 0.38483 0.05292 0.92106 0.0
C832 C 0.36952 0.00935 0.9467 0.0
C833 C 0.36625 0.04146 0.89292 0.0
C834 C 0.34998 0.01418 0.89095 0.0
C835 C 0.33799 0.97042 0.91307 0.0
C836 C 0.34163 0.95431 0.93796 0.0
C837 C 0.35204 0.99789 0.91708 0.0
C838 C 0.35779 0.96589 0.96855 0.0
C839 C 0.37156 0.99315 0.97292 0.0
H840 H 0.32207 0.37044 0.38135 0.0
H841 H 0.34214 0.40355 0.48943 0.0
H842 H 0.36853 0.38267 0.49912 0.0
H843 H 0.39023 0.35971 0.47428 0.0
H844 H 0.37097 0.32721 0.36588 0.0
H845 H 0.33974 0.34288 0.3592 0.0
C846 C 0.33184 0.37273 0.40726 0.0
C847 C 0.33045 0.38891 0.43435 0.0
C848 C 0.34737 0.36099 0.41251 0.0
C849 C 0.34305 0.39143 0.46791 0.0
C850 C 0.35825 0.37956 0.47347 0.0
C851 C 0.37894 0.35573 0.44936 0.0
C852 C 0.38327 0.3427 0.42042 0.0
C853 C 0.36126 0.36506 0.44552 0.0
C854 C 0.36819 0.33737 0.38852 0.0
C855 C 0.35038 0.34641 0.38461 0.0
H856 H 0.03146 0.3633 0.89052 0.0
H857 H 0.03672 0.40844 0.98609 0.0
H858 H 0.98886 0.38571 0.99014 0.0
H859 H 0.94566 0.35631 0.9631 0.0
H860 H 0.94035 0.31197 0.86662 0.0
H861 H 0.98802 0.33091 0.86669 0.0
C862 C 0.02218 0.36792 0.91257 0.0
C863 C 0.03773 0.38777 0.93772 0.0
C864 C 0.99458 0.35505 0.91444 0.0
C865 C 0.02529 0.39337 0.9662 0.0
C866 C -0.00212 0.38043 0.96849 0.0
C867 C 0.95485 0.35049 0.94234 0.0
C868 C 0.93941 0.33295 0.91466 0.0
C869 C 0.98234 0.36174 0.94221 0.0
C870 C 0.95172 0.32555 0.88814 0.0
C871 C 0.97902 0.33643 0.88808 0.0
H872 H 0.62894 0.95199 0.38546 0.0
H873 H 0.58006 0.94468 0.4775 0.0
H874 H 0.60406 0.99223 0.48553 0.0
H875 H 0.63538 0.03595 0.46238 0.0
H876 H 0.68373 0.04374 0.36956 0.0
H877 H 0.66372 0.99594 0.36626 0.0
C878 C 0.6238 0.96075 0.40762 0.0
C879 C 0.60245 0.94479 0.43047 0.0
C880 C 0.63745 0.98823 0.41181 0.0
C881 C 0.5962 0.95648 0.45924 0.0
C882 C 0.60989 0.98372 0.46384 0.0
C883 C 0.6418 0.02724 0.44168 0.0
C884 C 0.66072 0.04338 0.41592 0.0
C885 C 0.62998 -0.00021 0.43962 0.0
C886 C 0.66908 0.03177 0.38961 0.0
C887 C 0.65757 0.00442 0.3876 0.0
H888 H 0.46261 0.58122 0.99252 0.0
H889 H 0.42217 0.57639 0.89215 0.0
H890 H 0.38273 0.53768 0.9146 0.0
H891 H 0.3597 0.50499 0.96235 0.0
H892 H 0.39953 0.51004 0.06334 0.0
H893 H 0.43914 0.54886 0.04101 0.0
C894 C 0.44518 0.5717 0.97555 0.0
C895 C 0.44543 0.58171 0.94064 0.0
C896 C 0.42241 0.54947 0.98872 0.0
C897 C 0.42258 0.56918 0.91913 0.0
C898 C 0.39998 0.54699 0.93192 0.0
C899 C 0.37703 0.51454 0.97952 0.0
C900 C 0.37663 0.50452 0.01443 0.0
C901 C 0.39968 0.53693 0.96661 0.0
C902 C 0.39925 0.51731 0.03635 0.0
C903 C 0.42195 0.53951 0.02359 0.0
H904 H 0.85541 0.38613 0.5061 0.0
H905 H 0.90582 0.42878 0.59649 0.0
H906 H 0.90856 0.46935 0.57475 0.0
H907 H 0.89735 0.4929 0.52953 0.0
H908 H 0.8477 0.45044 0.43842 0.0
H909 H 0.84401 0.40964 0.46103 0.0
C910 C 0.8669 0.40426 0.52116 0.0
C911 C 0.88038 0.40438 0.55289 0.0
C912 C 0.86862 0.4276 0.50832 0.0
C913 C 0.89528 0.42811 0.57196 0.0
C914 C 0.89687 0.45135 0.55954 0.0
C915 C 0.88567 0.47473 0.51463 0.0
C916 C 0.87285 0.47477 0.48231 0.0
C917 C 0.88375 0.45135 0.52765 0.0
C918 C 0.85784 0.45102 0.46333 0.0
C919 C 0.85569 0.42765 0.47626 0.0
H920 H 0.40891 0.84575 0.93441 0.0
H921 H 0.39838 0.89591 0.01021 0.0
H922 H 0.43458 0.89979 0.0472 0.0
H923 H 0.46948 0.88933 0.05802 0.0
H924 H 0.47982 0.83868 0.98299 0.0
H925 H 0.44346 0.8346 0.94591 0.0
C926 C 0.41455 0.85754 0.95899 0.0
C927 C 0.40095 0.87055 0.96939 0.0
C928 C 0.43536 0.85961 0.98038 0.0
C929 C 0.40845 0.88564 0.00149 0.0
C930 C 0.42919 0.88792 0.02272 0.0
C931 C 0.46379 0.87738 0.03358 0.0
C932 C 0.47742 0.86441 0.02331 0.0
C933 C 0.44281 0.87503 0.01241 0.0
C934 C 0.46967 0.84889 0.9916 0.0
C935 C 0.44889 0.84656 0.97031 0.0
H936 H 0.56159 0.40745 0.47631 0.0
H937 H 0.49947 0.4235 0.50344 0.0
H938 H 0.53094 0.46356 0.53513 0.0
H939 H 0.57611 0.4941 0.5553 0.0
H940 H 0.63823 0.47812 0.5278 0.0
H941 H 0.60674 0.43804 0.49622 0.0
C942 C 0.55491 0.4197 0.48911 0.0
C943 C 0.52818 0.41241 0.48745 0.0
C944 C 0.57312 0.44276 0.50733 0.0
C945 C 0.51992 0.42859 0.50422 0.0
C946 C 0.53791 0.45153 0.52241 0.0
C947 C 0.58277 0.48183 0.54249 0.0
C948 C 0.60951 0.48914 0.54402 0.0
C949 C 0.56455 0.4588 0.52419 0.0
C950 C 0.61777 0.47302 0.52709 0.0
C951 C 0.59977 0.45006 0.50898 0.0
H952 H 0.06414 0.50549 0.97612 0.0
H953 H 0.14772 0.53468 0.98138 0.0
H954 H 0.15487 0.57633 0.00621 0.0
H955 H 0.13734 0.60432 0.02711 0.0
H956 H 0.05373 0.57496 0.02134 0.0
H957 H 0.04674 0.53359 0.99605 0.0
C958 C 0.08394 0.52095 0.98265 0.0
C959 C 0.10532 0.5169 0.97695 0.0
C960 C 0.08794 0.54486 0.99689 0.0
C961 C 0.13086 0.53723 0.98548 0.0
C962 C 0.13499 0.56107 0.99972 0.0
C963 C 0.1176 0.58888 0.02031 0.0
C964 C 0.09611 0.59277 0.02622 0.0
C965 C 0.11367 0.56507 0.00566 0.0
C966 C 0.07066 0.57256 0.01712 0.0
C967 C 0.0666 0.54884 0.00265 0.0
H968 H 0.52782 0.10347 0.5571 0.0
H969 H 0.52615 0.16513 0.49528 0.0
H970 H 0.5634 0.17073 0.459 0.0
H971 H 0.59603 0.15767 0.44414 0.0
H972 H 0.59784 0.09624 0.50642 0.0
H973 H 0.56102 0.09111 0.54318 0.0
C974 C 0.5356 0.11816 0.53572 0.0
C975 C 0.52413 0.13378 0.52888 0.0
C976 C 0.55707 0.12133 0.51499 0.0
C977 C 0.53458 0.15281 0.50116 0.0
C978 C 0.55588 0.15603 0.48035 0.0
C979 C 0.58841 0.14318 0.46578 0.0
C980 C 0.59967 0.12733 0.47238 0.0
C981 C 0.56722 0.14033 0.48692 0.0
C982 C 0.58958 0.10873 0.50067 0.0
C983 C 0.56848 0.10573 0.52173 0.0
H984 H 0.52203 0.40018 0.01689 0.0
H985 H 0.57456 0.41176 0.10621 0.0
H986 H 0.61049 0.44881 0.07412 0.0
H987 H 0.62666 0.47835 0.02109 0.0
H988 H 0.57334 0.46716 0.93299 0.0
H989 H 0.53803 0.42934 0.96426 0.0
C990 C 0.54135 0.41072 0.02939 0.0
C991 C 0.5456 0.4032 0.06391 0.0
C992 C 0.56177 0.43205 0.01099 0.0
C993 C 0.57073 0.41718 0.0797 0.0
C994 C 0.59129 0.43834 0.06135 0.0
C995 C 0.60735 0.46752 0.00865 0.0
C996 C 0.60263 0.47554 0.97476 0.0
C997 C 0.587 0.44599 0.02702 0.0
C998 C 0.57747 0.46145 0.9591 0.0
C999 C 0.55726 0.43981 0.97695 0.0
H1000 H 0.12986 0.61305 0.50273 0.0
H1001 H 0.1705 0.61303 0.40495 0.0
H1002 H 0.17121 0.57393 0.42613 0.0
H1003 H 0.15822 0.53845 0.47105 0.0
H1004 H 0.11746 0.53883 0.56861 0.0
H1005 H 0.119 0.57916 0.54883 0.0
C1006 C 0.13901 0.60461 0.48608 0.0
C1007 C 0.14994 0.61586 0.45218 0.0
C1008 C 0.13925 0.58212 0.49832 0.0
C1009 C 0.1619 0.60476 0.43114 0.0
C1010 C 0.16225 0.58235 0.44318 0.0
C1011 C 0.14981 0.54743 0.4881 0.0
C1012 C 0.13757 0.53547 0.52114 0.0
C1013 C 0.15067 0.57065 0.47651 0.0
C1014 C 0.12691 0.5475 0.54297 0.0
C1015 C 0.12774 0.57058 0.53168 0.0
H1016 H 0.60245 0.12844 0.00507 0.0
H1017 H 0.55745 0.06595 0.08147 0.0
H1018 H 0.51738 0.06583 0.06354 0.0
H1019 H 0.49495 0.08295 0.02563 0.0
H1020 H 0.53961 0.14462 0.948 0.0
H1021 H 0.57992 0.14552 0.96696 0.0
C1022 C 0.5839 0.11486 0.01791 0.0
C1023 C 0.58299 0.09725 0.0446 0.0
C1024 C 0.56083 0.11468 0.00718 0.0
C1025 C 0.55874 0.07969 0.0608 0.0
C1026 C 0.53579 0.0796 0.05057 0.0
C1027 C 0.51349 0.09664 0.01289 0.0
C1028 C 0.51422 0.11368 0.98545 0.0
C1029 C 0.53658 0.09692 0.0237 0.0
C1030 C 0.53844 0.13122 0.96914 0.0
C1031 C 0.56154 0.13178 0.97999 0.0
H1032 H 0.48735 0.57023 0.4878 0.0
H1033 H 0.44791 0.60826 0.53572 0.0
H1034 H 0.40567 0.57307 0.51308 0.0
H1035 H 0.37994 0.53111 0.48052 0.0
H1036 H 0.41992 0.49374 0.43216 0.0
H1037 H 0.46199 0.52919 0.45414 0.0
C1038 C 0.46954 0.57088 0.49333 0.0
C1039 C 0.47077 0.59178 0.51355 0.0
C1040 C 0.44542 0.5507 0.48015 0.0
C1041 C 0.44751 0.59237 0.52021 0.0
C1042 C 0.42335 0.57225 0.50732 0.0
C1043 C 0.39786 0.53075 0.47474 0.0
C1044 C 0.39676 0.50976 0.45482 0.0
C1045 C 0.42207 0.55126 0.48738 0.0
C1046 C 0.42018 0.50965 0.4474 0.0
C1047 C 0.44427 0.5299 0.46001 0.0
H1048 H 0.84733 0.38607 0.9784 0.0
H1049 H 0.92107 0.43626 0.92417 0.0
H1050 H 0.92186 0.47508 0.94949 0.0
H1051 H 0.90194 0.49475 0.98755 0.0
H1052 H 0.82814 0.44456 0.04162 0.0
H1053 H 0.82708 0.40577 0.0157 0.0
C1054 C 0.86359 0.40549 0.97208 0.0
C1055 C 0.88415 0.40821 0.94949 0.0
C1056 C 0.86392 0.42774 0.98668 0.0
C1057 C 0.90499 0.43356 0.94149 0.0
C1058 C 0.90548 0.45579 0.95597 0.0
C1059 C 0.88559 0.47534 0.99365 0.0
C1060 C 0.86518 0.4726 0.01658 0.0
C1061 C 0.88509 0.45311 0.97868 0.0
C1062 C 0.84412 0.44728 0.02408 0.0
C1063 C 0.8435 0.42506 0.0093 0.0
H1064 H 0.46741 0.86141 0.48414 0.0
H1065 H 0.46575 0.89986 0.38489 0.0
H1066 H 0.42905 0.90396 0.40833 0.0
H1067 H 0.39842 0.89786 0.45767 0.0
H1068 H 0.40102 0.86064 0.55766 0.0
H1069 H 0.43646 0.85487 0.5332 0.0
C1070 C 0.45891 0.87052 0.46749 0.0
C1071 C 0.46931 0.88031 0.4328 0.0
C1072 C 0.4381 0.87317 0.48135 0.0
C1073 C 0.45816 0.89221 0.41171 0.0
C1074 C 0.43719 0.89459 0.42511 0.0
C1075 C 0.40666 0.88841 0.47411 0.0
C1076 C 0.3971 0.87974 0.50947 0.0
C1077 C 0.42717 0.88535 0.46001 0.0
C1078 C 0.40807 0.86759 0.5304 0.0
C1079 C 0.42832 0.86424 0.51642 0.0
loop_
_geom_bond_atom_site_label_1
_geom_bond_atom_site_label_2
_geom_bond_distance
_geom_bond_site_symmetry_2
_ccdc_geom_bond_type
C0 O1 1.160 . S
C0 O7 1.185 . S
O1 C0 1.160 . S
O2 Zn3 1.899 . S
O2 C10 1.284 . S
Zn3 O2 1.899 . S
Zn3 O4 2.032 . S
Zn3 O7 2.086 . S
Zn3 O12 1.977 . S
O4 Zn3 2.032 . S
O4 C8 1.278 . S
C5 O6 1.203 . S
C5 O12 1.267 . S
O6 C5 1.203 . S
O7 C0 1.185 . S
O7 Zn3 2.086 . S
C8 O4 1.278 . S
C8 O9 1.211 . S
O9 C8 1.211 . S
C10 O2 1.284 . S
C10 O11 1.273 . S
O11 C10 1.273 . S
O12 Zn3 1.977 . S
O12 C5 1.267 . S
C13 O14 1.160 . S
C13 O20 1.185 . S
O14 C13 1.160 . S
O15 Zn16 1.899 . S
O15 C23 1.284 . S
Zn16 O15 1.899 . S
Zn16 O17 2.032 . S
Zn16 O20 2.086 . S
Zn16 O25 1.977 . S
O17 Zn16 2.032 . S
O17 C21 1.278 . S
C18 O19 1.203 . S
C18 O25 1.267 . S
O19 C18 1.203 . S
O20 C13 1.185 . S
O20 Zn16 2.086 . S
C21 O17 1.278 . S
C21 O22 1.211 . S
O22 C21 1.211 . S
C23 O15 1.284 . S
C23 O24 1.273 . S
O24 C23 1.273 . S
O25 Zn16 1.977 . S
O25 C18 1.267 . S
C26 O27 1.160 . S
C26 O33 1.185 . S
O27 C26 1.160 . S
O28 Zn29 1.899 . S
O28 C36 1.284 . S
Zn29 O28 1.899 . S
Zn29 O30 2.032 . S
Zn29 O33 2.086 . S
Zn29 O38 1.977 . S
O30 Zn29 2.032 . S
O30 C34 1.278 . S
C31 O32 1.203 . S
C31 O38 1.267 . S
O32 C31 1.203 . S
O33 C26 1.185 . S
O33 Zn29 2.086 . S
C34 O30 1.278 . S
C34 O35 1.211 . S
O35 C34 1.211 . S
C36 O28 1.284 . S
C36 O37 1.273 . S
O37 C36 1.273 . S
O38 Zn29 1.977 . S
O38 C31 1.267 . S
C39 O40 1.160 . S
C39 O46 1.185 . S
O40 C39 1.160 . S
O41 Zn42 1.899 . S
O41 C49 1.284 . S
Zn42 O41 1.899 . S
Zn42 O43 2.032 . S
Zn42 O46 2.086 . S
Zn42 O51 1.977 . S
O43 Zn42 2.032 . S
O43 C47 1.278 . S
C44 O45 1.203 . S
C44 O51 1.267 . S
O45 C44 1.203 . S
O46 C39 1.185 . S
O46 Zn42 2.086 . S
C47 O43 1.278 . S
C47 O48 1.211 . S
O48 C47 1.211 . S
C49 O41 1.284 . S
C49 O50 1.273 . S
O50 C49 1.273 . S
O51 Zn42 1.977 . S
O51 C44 1.267 . S
C52 O53 1.160 . S
C52 O59 1.185 . S
O53 C52 1.160 . S
O54 Zn55 1.899 . S
O54 C62 1.284 . S
Zn55 O54 1.899 . S
Zn55 O56 2.032 . S
Zn55 O59 2.086 . S
Zn55 O64 1.977 . S
O56 Zn55 2.032 . S
O56 C60 1.278 . S
C57 O58 1.203 . S
C57 O64 1.267 . S
O58 C57 1.203 . S
O59 C52 1.185 . S
O59 Zn55 2.086 . S
C60 O56 1.278 . S
C60 O61 1.211 . S
O61 C60 1.211 . S
C62 O54 1.284 . S
C62 O63 1.273 . S
O63 C62 1.273 . S
O64 Zn55 1.977 . S
O64 C57 1.267 . S
C65 O66 1.160 . S
C65 O72 1.185 . S
O66 C65 1.160 . S
O67 Zn68 1.899 . S
O67 C75 1.284 . S
Zn68 O67 1.899 . S
Zn68 O69 2.032 . S
Zn68 O72 2.086 . S
Zn68 O77 1.977 . S
O69 Zn68 2.032 . S
O69 C73 1.278 . S
C70 O71 1.203 . S
C70 O77 1.267 . S
O71 C70 1.203 . S
O72 C65 1.185 . S
O72 Zn68 2.086 . S
C73 O69 1.278 . S
C73 O74 1.211 . S
O74 C73 1.211 . S
C75 O67 1.284 . S
C75 O76 1.273 . S
O76 C75 1.273 . S
O77 Zn68 1.977 . S
O77 C70 1.267 . S
C78 O79 1.160 . S
C78 O85 1.185 . S
O79 C78 1.160 . S
O80 Zn81 1.899 . S
O80 C88 1.284 . S
Zn81 O80 1.899 . S
Zn81 O82 2.032 . S
Zn81 O85 2.086 . S
Zn81 O90 1.977 . S
O82 Zn81 2.032 . S
O82 C86 1.278 . S
C83 O84 1.203 . S
C83 O90 1.267 . S
O84 C83 1.203 . S
O85 C78 1.185 . S
O85 Zn81 2.086 . S
C86 O82 1.278 . S
C86 O87 1.211 . S
O87 C86 1.211 . S
C88 O80 1.284 . S
C88 O89 1.273 . S
O89 C88 1.273 . S
O90 Zn81 1.977 . S
O90 C83 1.267 . S
C91 O92 1.160 . S
C91 O98 1.185 . S
O92 C91 1.160 . S
O93 Zn94 1.899 . S
O93 C101 1.284 . S
Zn94 O93 1.899 . S
Zn94 O95 2.032 . S
Zn94 O98 2.086 . S
Zn94 O103 1.977 . S
O95 Zn94 2.032 . S
O95 C99 1.278 . S
C96 O97 1.203 . S
C96 O103 1.267 . S
O97 C96 1.203 . S
O98 C91 1.185 . S
O98 Zn94 2.086 . S
C99 O95 1.278 . S
C99 O100 1.211 . S
O100 C99 1.211 . S
C101 O93 1.284 . S
C101 O102 1.273 . S
O102 C101 1.273 . S
O103 Zn94 1.977 . S
O103 C96 1.267 . S
C104 O105 1.160 . S
C104 O111 1.185 . S
O105 C104 1.160 . S
O106 Zn107 1.899 . S
O106 C114 1.284 . S
Zn107 O106 1.899 . S
Zn107 O108 2.032 . S
Zn107 O111 2.086 . S
Zn107 O116 1.977 . S
O108 Zn107 2.032 . S
O108 C112 1.278 . S
C109 O110 1.203 . S
C109 O116 1.267 . S
O110 C109 1.203 . S
O111 C104 1.185 . S
O111 Zn107 2.086 . S
C112 O108 1.278 . S
C112 O113 1.211 . S
O113 C112 1.211 . S
C114 O106 1.284 . S
C114 O115 1.273 . S
O115 C114 1.273 . S
O116 Zn107 1.977 . S
O116 C109 1.267 . S
C117 O118 1.160 . S
C117 O124 1.185 . S
O118 C117 1.160 . S
O119 Zn120 1.899 . S
O119 C127 1.284 . S
Zn120 O119 1.899 . S
Zn120 O121 2.032 . S
Zn120 O124 2.086 . S
Zn120 O129 1.977 . S
O121 Zn120 2.032 . S
O121 C125 1.278 . S
C122 O123 1.203 . S
C122 O129 1.267 . S
O123 C122 1.203 . S
O124 C117 1.185 . S
O124 Zn120 2.086 . S
C125 O121 1.278 . S
C125 O126 1.211 . S
O126 C125 1.211 . S
C127 O119 1.284 . S
C127 O128 1.273 . S
O128 C127 1.273 . S
O129 Zn120 1.977 . S
O129 C122 1.267 . S
C130 O131 1.160 . S
C130 O137 1.185 . S
O131 C130 1.160 . S
O132 Zn133 1.899 . S
O132 C140 1.284 . S
Zn133 O132 1.899 . S
Zn133 O134 2.032 . S
Zn133 O137 2.086 . S
Zn133 O142 1.977 . S
O134 Zn133 2.032 . S
O134 C138 1.278 . S
C135 O136 1.203 . S
C135 O142 1.267 . S
O136 C135 1.203 . S
O137 C130 1.185 . S
O137 Zn133 2.086 . S
C138 O134 1.278 . S
C138 O139 1.211 . S
O139 C138 1.211 . S
C140 O132 1.284 . S
C140 O141 1.273 . S
O141 C140 1.273 . S
O142 Zn133 1.977 . S
O142 C135 1.267 . S
C143 O144 1.160 . S
C143 O150 1.185 . S
O144 C143 1.160 . S
O145 Zn146 1.899 . S
O145 C153 1.284 . S
Zn146 O145 1.899 . S
Zn146 O147 2.032 . S
Zn146 O150 2.086 . S
Zn146 O155 1.977 . S
O147 Zn146 2.032 . S
O147 C151 1.278 . S
C148 O149 1.203 . S
C148 O155 1.267 . S
O149 C148 1.203 . S
O150 C143 1.185 . S
O150 Zn146 2.086 . S
C151 O147 1.278 . S
C151 O152 1.211 . S
O152 C151 1.211 . S
C153 O145 1.284 . S
C153 O154 1.273 . S
O154 C153 1.273 . S
O155 Zn146 1.977 . S
O155 C148 1.267 . S
C156 O157 1.160 . S
C156 O163 1.185 . S
O157 C156 1.160 . S
O158 Zn159 1.899 . S
O158 C166 1.284 . S
Zn159 O158 1.899 . S
Zn159 O160 2.032 . S
Zn159 O163 2.086 . S
Zn159 O168 1.977 . S
O160 Zn159 2.032 . S
O160 C164 1.278 . S
C161 O162 1.203 . S
C161 O168 1.267 . S
O162 C161 1.203 . S
O163 C156 1.185 . S
O163 Zn159 2.086 . S
C164 O160 1.278 . S
C164 O165 1.211 . S
O165 C164 1.211 . S
C166 O158 1.284 . S
C166 O167 1.273 . S
O167 C166 1.273 . S
O168 Zn159 1.977 . S
O168 C161 1.267 . S
C169 O170 1.160 . S
C169 O176 1.185 . S
O170 C169 1.160 . S
O171 Zn172 1.899 . S
O171 C179 1.284 . S
Zn172 O171 1.899 . S
Zn172 O173 2.032 . S
Zn172 O176 2.086 . S
Zn172 O181 1.977 . S
O173 Zn172 2.032 . S
O173 C177 1.278 . S
C174 O175 1.203 . S
C174 O181 1.267 . S
O175 C174 1.203 . S
O176 C169 1.185 . S
O176 Zn172 2.086 . S
C177 O173 1.278 . S
C177 O178 1.211 . S
O178 C177 1.211 . S
C179 O171 1.284 . S
C179 O180 1.273 . S
O180 C179 1.273 . S
O181 Zn172 1.977 . S
O181 C174 1.267 . S
C182 O183 1.160 . S
C182 O189 1.185 . S
O183 C182 1.160 . S
O184 Zn185 1.899 . S
O184 C192 1.284 . S
Zn185 O184 1.899 . S
Zn185 O186 2.032 . S
Zn185 O189 2.086 . S
Zn185 O194 1.977 . S
O186 Zn185 2.032 . S
O186 C190 1.278 . S
C187 O188 1.203 . S
C187 O194 1.267 . S
O188 C187 1.203 . S
O189 C182 1.185 . S
O189 Zn185 2.086 . S
C190 O186 1.278 . S
C190 O191 1.211 . S
O191 C190 1.211 . S
C192 O184 1.284 . S
C192 O193 1.273 . S
O193 C192 1.273 . S
O194 Zn185 1.977 . S
O194 C187 1.267 . S
C195 O196 1.160 . S
C195 O202 1.185 . S
O196 C195 1.160 . S
O197 Zn198 1.899 . S
O197 C205 1.284 . S
Zn198 O197 1.899 . S
Zn198 O199 2.032 . S
Zn198 O202 2.086 . S
Zn198 O207 1.977 . S
O199 Zn198 2.032 . S
O199 C203 1.278 . S
C200 O201 1.203 . S
C200 O207 1.267 . S
O201 C200 1.203 . S
O202 C195 1.185 . S
O202 Zn198 2.086 . S
C203 O199 1.278 . S
C203 O204 1.211 . S
O204 C203 1.211 . S
C205 O197 1.284 . S
C205 O206 1.273 . S
O206 C205 1.273 . S
O207 Zn198 1.977 . S
O207 C200 1.267 . S
C208 O209 1.160 . S
C208 O215 1.185 . S
O209 C208 1.160 . S
O210 Zn211 1.899 . S
O210 C218 1.284 . S
Zn211 O210 1.899 . S
Zn211 O212 2.032 . S
Zn211 O215 2.086 . S
Zn211 O220 1.977 . S
O212 Zn211 2.032 . S
O212 C216 1.278 . S
C213 O214 1.203 . S
C213 O220 1.267 . S
O214 C213 1.203 . S
O215 C208 1.185 . S
O215 Zn211 2.086 . S
C216 O212 1.278 . S
C216 O217 1.211 . S
O217 C216 1.211 . S
C218 O210 1.284 . S
C218 O219 1.273 . S
O219 C218 1.273 . S
O220 Zn211 1.977 . S
O220 C213 1.267 . S
C221 O222 1.160 . S
C221 O228 1.185 . S
O222 C221 1.160 . S
O223 Zn224 1.899 . S
O223 C231 1.284 . S
Zn224 O223 1.899 . S
Zn224 O225 2.032 . S
Zn224 O228 2.086 . S
Zn224 O233 1.977 . S
O225 Zn224 2.032 . S
O225 C229 1.278 . S
C226 O227 1.203 . S
C226 O233 1.267 . S
O227 C226 1.203 . S
O228 C221 1.185 . S
O228 Zn224 2.086 . S
C229 O225 1.278 . S
C229 O230 1.211 . S
O230 C229 1.211 . S
C231 O223 1.284 . S
C231 O232 1.273 . S
O232 C231 1.273 . S
O233 Zn224 1.977 . S
O233 C226 1.267 . S
C234 O235 1.160 . S
C234 O241 1.185 . S
O235 C234 1.160 . S
O236 Zn237 1.899 . S
O236 C244 1.284 . S
Zn237 O236 1.899 . S
Zn237 O238 2.032 . S
Zn237 O241 2.086 . S
Zn237 O246 1.977 . S
O238 Zn237 2.032 . S
O238 C242 1.278 . S
C239 O240 1.203 . S
C239 O246 1.267 . S
O240 C239 1.203 . S
O241 C234 1.185 . S
O241 Zn237 2.086 . S
C242 O238 1.278 . S
C242 O243 1.211 . S
O243 C242 1.211 . S
C244 O236 1.284 . S
C244 O245 1.273 . S
O245 C244 1.273 . S
O246 Zn237 1.977 . S
O246 C239 1.267 . S
C247 O248 1.160 . S
C247 O254 1.185 . S
O248 C247 1.160 . S
O249 Zn250 1.899 . S
O249 C257 1.284 . S
Zn250 O249 1.899 . S
Zn250 O251 2.032 . S
Zn250 O254 2.086 . S
Zn250 O259 1.977 . S
O251 Zn250 2.032 . S
O251 C255 1.278 . S
C252 O253 1.203 . S
C252 O259 1.267 . S
O253 C252 1.203 . S
O254 C247 1.185 . S
O254 Zn250 2.086 . S
C255 O251 1.278 . S
C255 O256 1.211 . S
O256 C255 1.211 . S
C257 O249 1.284 . S
C257 O258 1.273 . S
O258 C257 1.273 . S
O259 Zn250 1.977 . S
O259 C252 1.267 . S
C260 O261 1.160 . S
C260 O267 1.185 . S
O261 C260 1.160 . S
O262 Zn263 1.899 . S
O262 C270 1.284 . S
Zn263 O262 1.899 . S
Zn263 O264 2.032 . S
Zn263 O267 2.086 . S
Zn263 O272 1.977 . S
O264 Zn263 2.032 . S
O264 C268 1.278 . S
C265 O266 1.203 . S
C265 O272 1.267 . S
O266 C265 1.203 . S
O267 C260 1.185 . S
O267 Zn263 2.086 . S
C268 O264 1.278 . S
C268 O269 1.211 . S
O269 C268 1.211 . S
C270 O262 1.284 . S
C270 O271 1.273 . S
O271 C270 1.273 . S
O272 Zn263 1.977 . S
O272 C265 1.267 . S
C273 O274 1.160 . S
C273 O280 1.185 . S
O274 C273 1.160 . S
O275 Zn276 1.899 . S
O275 C283 1.284 . S
Zn276 O275 1.899 . S
Zn276 O277 2.032 . S
Zn276 O280 2.086 . S
Zn276 O285 1.977 . S
O277 Zn276 2.032 . S
O277 C281 1.278 . S
C278 O279 1.203 . S
C278 O285 1.267 . S
O279 C278 1.203 . S
O280 C273 1.185 . S
O280 Zn276 2.086 . S
C281 O277 1.278 . S
C281 O282 1.211 . S
O282 C281 1.211 . S
C283 O275 1.284 . S
C283 O284 1.273 . S
O284 C283 1.273 . S
O285 Zn276 1.977 . S
O285 C278 1.267 . S
C286 O287 1.160 . S
C286 O293 1.185 . S
O287 C286 1.160 . S
O288 Zn289 1.899 . S
O288 C296 1.284 . S
Zn289 O288 1.899 . S
Zn289 O290 2.032 . S
Zn289 O293 2.086 . S
Zn289 O298 1.977 . S
O290 Zn289 2.032 . S
O290 C294 1.278 . S
C291 O292 1.203 . S
C291 O298 1.267 . S
O292 C291 1.203 . S
O293 C286 1.185 . S
O293 Zn289 2.086 . S
C294 O290 1.278 . S
C294 O295 1.211 . S
O295 C294 1.211 . S
C296 O288 1.284 . S
C296 O297 1.273 . S
O297 C296 1.273 . S
O298 Zn289 1.977 . S
O298 C291 1.267 . S
C299 O300 1.160 . S
C299 O306 1.185 . S
O300 C299 1.160 . S
O301 Zn302 1.899 . S
O301 C309 1.284 . S
Zn302 O301 1.899 . S
Zn302 O303 2.032 . S
Zn302 O306 2.086 . S
Zn302 O311 1.977 . S
O303 Zn302 2.032 . S
O303 C307 1.278 . S
C304 O305 1.203 . S
C304 O311 1.267 . S
O305 C304 1.203 . S
O306 C299 1.185 . S
O306 Zn302 2.086 . S
C307 O303 1.278 . S
C307 O308 1.211 . S
O308 C307 1.211 . S
C309 O301 1.284 . S
C309 O310 1.273 . S
O310 C309 1.273 . S
O311 Zn302 1.977 . S
O311 C304 1.267 . S
H312 C318 0.930 . S
H313 C321 0.930 . S
H314 C322 0.930 . S
H315 C323 0.930 . S
H316 C326 0.930 . S
H317 C327 0.930 . S
C318 H312 0.930 . S
C318 C319 1.355 . S
C318 C320 1.415 . S
C319 C318 1.355 . S
C319 C321 1.419 . S
C320 C318 1.415 . S
C320 C325 1.425 . S
C320 C327 1.409 . S
C321 H313 0.930 . S
C321 C319 1.419 . S
C321 C322 1.362 . S
C322 H314 0.930 . S
C322 C321 1.362 . S
C322 C325 1.409 . S
C323 H315 0.930 . S
C323 C324 1.355 . S
C323 C325 1.415 . S
C324 C323 1.355 . S
C324 C326 1.419 . S
C325 C320 1.425 . S
C325 C322 1.409 . S
C325 C323 1.415 . S
C326 H316 0.930 . S
C326 C324 1.419 . S
C326 C327 1.362 . S
C327 H317 0.930 . S
C327 C320 1.409 . S
C327 C326 1.362 . S
H328 C334 0.930 . S
H329 C337 0.930 . S
H330 C338 0.930 . S
H331 C339 0.930 . S
H332 C342 0.930 . S
H333 C343 0.930 . S
C334 H328 0.930 . S
C334 C335 1.355 . S
C334 C336 1.415 . S
C335 C334 1.355 . S
C335 C337 1.419 . S
C336 C334 1.415 . S
C336 C341 1.425 . S
C336 C343 1.409 . S
C337 H329 0.930 . S
C337 C335 1.419 . S
C337 C338 1.362 . S
C338 H330 0.930 . S
C338 C337 1.362 . S
C338 C341 1.409 . S
C339 H331 0.930 . S
C339 C340 1.355 . S
C339 C341 1.415 . S
C340 C339 1.355 . S
C340 C342 1.419 . S
C341 C336 1.425 . S
C341 C338 1.409 . S
C341 C339 1.415 . S
C342 H332 0.930 . S
C342 C340 1.419 . S
C342 C343 1.362 . S
C343 H333 0.930 . S
C343 C336 1.409 . S
C343 C342 1.362 . S
H344 C350 0.930 . S
H345 C353 0.930 . S
H346 C354 0.930 . S
H347 C355 0.930 . S
H348 C358 0.930 . S
H349 C359 0.930 . S
C350 H344 0.930 . S
C350 C351 1.355 . S
C350 C352 1.415 . S
C351 C350 1.355 . S
C351 C353 1.419 . S
C352 C350 1.415 . S
C352 C357 1.425 . S
C352 C359 1.409 . S
C353 H345 0.930 . S
C353 C351 1.419 . S
C353 C354 1.362 . S
C354 H346 0.930 . S
C354 C353 1.362 . S
C354 C357 1.409 . S
C355 H347 0.930 . S
C355 C356 1.355 . S
C355 C357 1.415 . S
C356 C355 1.355 . S
C356 C358 1.419 . S
C357 C352 1.425 . S
C357 C354 1.409 . S
C357 C355 1.415 . S
C358 H348 0.930 . S
C358 C356 1.419 . S
C358 C359 1.362 . S
C359 H349 0.930 . S
C359 C352 1.409 . S
C359 C358 1.362 . S
H360 C366 0.930 . S
H361 C369 0.930 . S
H362 C370 0.930 . S
H363 C371 0.930 . S
H364 C374 0.930 . S
H365 C375 0.930 . S
C366 H360 0.930 . S
C366 C367 1.355 . S
C366 C368 1.415 . S
C367 C366 1.355 . S
C367 C369 1.419 . S
C368 C366 1.415 . S
C368 C373 1.425 . S
C368 C375 1.409 . S
C369 H361 0.930 . S
C369 C367 1.419 . S
C369 C370 1.362 . S
C370 H362 0.930 . S
C370 C369 1.362 . S
C370 C373 1.409 . S
C371 H363 0.930 . S
C371 C372 1.355 . S
C371 C373 1.415 . S
C372 C371 1.355 . S
C372 C374 1.419 . S
C373 C368 1.425 . S
C373 C370 1.409 . S
C373 C371 1.415 . S
C374 H364 0.930 . S
C374 C372 1.419 . S
C374 C375 1.362 . S
C375 H365 0.930 . S
C375 C368 1.409 . S
C375 C374 1.362 . S
H376 C382 0.930 . S
H377 C385 0.930 . S
H378 C386 0.930 . S
H379 C387 0.930 . S
H380 C390 0.930 . S
H381 C391 0.930 . S
C382 H376 0.930 . S
C382 C383 1.355 . S
C382 C384 1.415 . S
C383 C382 1.355 . S
C383 C385 1.419 . S
C384 C382 1.415 . S
C384 C389 1.425 . S
C384 C391 1.409 . S
C385 H377 0.930 . S
C385 C383 1.419 . S
C385 C386 1.362 . S
C386 H378 0.930 . S
C386 C385 1.362 . S
C386 C389 1.409 . S
C387 H379 0.930 . S
C387 C388 1.355 . S
C387 C389 1.415 . S
C388 C387 1.355 . S
C388 C390 1.419 . S
C389 C384 1.425 . S
C389 C386 1.409 . S
C389 C387 1.415 . S
C390 H380 0.930 . S
C390 C388 1.419 . S
C390 C391 1.362 . S
C391 H381 0.930 . S
C391 C384 1.409 . S
C391 C390 1.362 . S
H392 C398 0.930 . S
H393 C401 0.930 . S
H394 C402 0.930 . S
H395 C403 0.930 . S
H396 C406 0.930 . S
H397 C407 0.930 . S
C398 H392 0.930 . S
C398 C399 1.355 . S
C398 C400 1.415 . S
C399 C398 1.355 . S
C399 C401 1.419 . S
C400 C398 1.415 . S
C400 C405 1.425 . S
C400 C407 1.409 . S
C401 H393 0.930 . S
C401 C399 1.419 . S
C401 C402 1.362 . S
C402 H394 0.930 . S
C402 C401 1.362 . S
C402 C405 1.409 . S
C403 H395 0.930 . S
C403 C404 1.355 . S
C403 C405 1.415 . S
C404 C403 1.355 . S
C404 C406 1.419 . S
C405 C400 1.425 . S
C405 C402 1.409 . S
C405 C403 1.415 . S
C406 H396 0.930 . S
C406 C404 1.419 . S
C406 C407 1.362 . S
C407 H397 0.930 . S
C407 C400 1.409 . S
C407 C406 1.362 . S
H408 C414 0.930 . S
H409 C417 0.930 . S
H410 C418 0.930 . S
H411 C419 0.930 . S
H412 C422 0.930 . S
H413 C423 0.930 . S
C414 H408 0.930 . S
C414 C415 1.355 . S
C414 C416 1.415 . S
C415 C414 1.355 . S
C415 C417 1.419 . S
C416 C414 1.415 . S
C416 C421 1.425 . S
C416 C423 1.409 . S
C417 H409 0.930 . S
C417 C415 1.419 . S
C417 C418 1.362 . S
C418 H410 0.930 . S
C418 C417 1.362 . S
C418 C421 1.409 . S
C419 H411 0.930 . S
C419 C420 1.355 . S
C419 C421 1.415 . S
C420 C419 1.355 . S
C420 C422 1.419 . S
C421 C416 1.425 . S
C421 C418 1.409 . S
C421 C419 1.415 . S
C422 H412 0.930 . S
C422 C420 1.419 . S
C422 C423 1.362 . S
C423 H413 0.930 . S
C423 C416 1.409 . S
C423 C422 1.362 . S
H424 C430 0.930 . S
H425 C433 0.930 . S
H426 C434 0.930 . S
H427 C435 0.930 . S
H428 C438 0.930 . S
H429 C439 0.930 . S
C430 H424 0.930 . S
C430 C431 1.355 . S
C430 C432 1.415 . S
C431 C430 1.355 . S
C431 C433 1.419 . S
C432 C430 1.415 . S
C432 C437 1.425 . S
C432 C439 1.409 . S
C433 H425 0.930 . S
C433 C431 1.419 . S
C433 C434 1.362 . S
C434 H426 0.930 . S
C434 C433 1.362 . S
C434 C437 1.409 . S
C435 H427 0.930 . S
C435 C436 1.355 . S
C435 C437 1.415 . S
C436 C435 1.355 . S
C436 C438 1.419 . S
C437 C432 1.425 . S
C437 C434 1.409 . S
C437 C435 1.415 . S
C438 H428 0.930 . S
C438 C436 1.419 . S
C438 C439 1.362 . S
C439 H429 0.930 . S
C439 C432 1.409 . S
C439 C438 1.362 . S
H440 C446 0.930 . S
H441 C449 0.930 . S
H442 C450 0.930 . S
H443 C451 0.930 . S
H444 C454 0.930 . S
H445 C455 0.930 . S
C446 H440 0.930 . S
C446 C447 1.355 . S
C446 C448 1.415 . S
C447 C446 1.355 . S
C447 C449 1.419 . S
C448 C446 1.415 . S
C448 C453 1.425 . S
C448 C455 1.409 . S
C449 H441 0.930 . S
C449 C447 1.419 . S
C449 C450 1.362 . S
C450 H442 0.930 . S
C450 C449 1.362 . S
C450 C453 1.409 . S
C451 H443 0.930 . S
C451 C452 1.355 . S
C451 C453 1.415 . S
C452 C451 1.355 . S
C452 C454 1.419 . S
C453 C448 1.425 . S
C453 C450 1.409 . S
C453 C451 1.415 . S
C454 H444 0.930 . S
C454 C452 1.419 . S
C454 C455 1.362 . S
C455 H445 0.930 . S
C455 C448 1.409 . S
C455 C454 1.362 . S
H456 C462 0.930 . S
H457 C465 0.930 . S
H458 C466 0.930 . S
H459 C467 0.930 . S
H460 C470 0.930 . S
H461 C471 0.930 . S
C462 H456 0.930 . S
C462 C463 1.355 . S
C462 C464 1.415 . S
C463 C462 1.355 . S
C463 C465 1.419 . S
C464 C462 1.415 . S
C464 C469 1.425 . S
C464 C471 1.409 . S
C465 H457 0.930 . S
C465 C463 1.419 . S
C465 C466 1.362 . S
C466 H458 0.930 . S
C466 C465 1.362 . S
C466 C469 1.409 . S
C467 H459 0.930 . S
C467 C468 1.355 . S
C467 C469 1.415 . S
C468 C467 1.355 . S
C468 C470 1.419 . S
C469 C464 1.425 . S
C469 C466 1.409 . S
C469 C467 1.415 . S
C470 H460 0.930 . S
C470 C468 1.419 . S
C470 C471 1.362 . S
C471 H461 0.930 . S
C471 C464 1.409 . S
C471 C470 1.362 . S
H472 C478 0.930 . S
H473 C481 0.930 . S
H474 C482 0.930 . S
H475 C483 0.930 . S
H476 C486 0.930 . S
H477 C487 0.930 . S
C478 H472 0.930 . S
C478 C479 1.355 . S
C478 C480 1.415 . S
C479 C478 1.355 . S
C479 C481 1.419 . S
C480 C478 1.415 . S
C480 C485 1.425 . S
C480 C487 1.409 . S
C481 H473 0.930 . S
C481 C479 1.419 . S
C481 C482 1.362 . S
C482 H474 0.930 . S
C482 C481 1.362 . S
C482 C485 1.409 . S
C483 H475 0.930 . S
C483 C484 1.355 . S
C483 C485 1.415 . S
C484 C483 1.355 . S
C484 C486 1.419 . S
C485 C480 1.425 . S
C485 C482 1.409 . S
C485 C483 1.415 . S
C486 H476 0.930 . S
C486 C484 1.419 . S
C486 C487 1.362 . S
C487 H477 0.930 . S
C487 C480 1.409 . S
C487 C486 1.362 . S
H488 C494 0.930 . S
H489 C497 0.930 . S
H490 C498 0.930 . S
H491 C499 0.930 . S
H492 C502 0.930 . S
H493 C503 0.930 . S
C494 H488 0.930 . S
C494 C495 1.355 . S
C494 C496 1.415 . S
C495 C494 1.355 . S
C495 C497 1.419 . S
C496 C494 1.415 . S
C496 C501 1.425 . S
C496 C503 1.409 . S
C497 H489 0.930 . S
C497 C495 1.419 . S
C497 C498 1.362 . S
C498 H490 0.930 . S
C498 C497 1.362 . S
C498 C501 1.409 . S
C499 H491 0.930 . S
C499 C500 1.355 . S
C499 C501 1.415 . S
C500 C499 1.355 . S
C500 C502 1.419 . S
C501 C496 1.425 . S
C501 C498 1.409 . S
C501 C499 1.415 . S
C502 H492 0.930 . S
C502 C500 1.419 . S
C502 C503 1.362 . S
C503 H493 0.930 . S
C503 C496 1.409 . S
C503 C502 1.362 . S
H504 C510 0.930 1_554 S
H505 C513 0.930 . S
H506 C514 0.930 . S
H507 C515 0.930 1_556 S
H508 C518 0.930 . S
H509 C519 0.930 . S
C510 H504 0.930 1_556 S
C510 C511 1.355 . S
C510 C512 1.415 1_556 S
C511 C510 1.355 . S
C511 C513 1.419 . S
C512 C510 1.415 1_554 S
C512 C517 1.425 1_554 S
C512 C519 1.409 . S
C513 H505 0.930 . S
C513 C511 1.419 . S
C513 C514 1.362 . S
C514 H506 0.930 . S
C514 C513 1.362 . S
C514 C517 1.409 . S
C515 H507 0.930 1_554 S
C515 C516 1.355 . S
C515 C517 1.415 1_554 S
C516 C515 1.355 . S
C516 C518 1.419 . S
C517 C512 1.425 1_556 S
C517 C514 1.409 . S
C517 C515 1.415 1_556 S
C518 H508 0.930 . S
C518 C516 1.419 . S
C518 C519 1.362 . S
C519 H509 0.930 . S
C519 C512 1.409 . S
C519 C518 1.362 . S
H520 C526 0.930 . S
H521 C529 0.930 . S
H522 C530 0.930 . S
H523 C531 0.930 . S
H524 C534 0.930 . S
H525 C535 0.930 . S
C526 H520 0.930 . S
C526 C527 1.355 . S
C526 C528 1.415 . S
C527 C526 1.355 . S
C527 C529 1.419 . S
C528 C526 1.415 . S
C528 C533 1.425 . S
C528 C535 1.409 . S
C529 H521 0.930 . S
C529 C527 1.419 . S
C529 C530 1.362 . S
C530 H522 0.930 . S
C530 C529 1.362 . S
C530 C533 1.409 . S
C531 H523 0.930 . S
C531 C532 1.355 . S
C531 C533 1.415 . S
C532 C531 1.355 . S
C532 C534 1.419 . S
C533 C528 1.425 . S
C533 C530 1.409 . S
C533 C531 1.415 . S
C534 H524 0.930 . S
C534 C532 1.419 . S
C534 C535 1.362 . S
C535 H525 0.930 . S
C535 C528 1.409 . S
C535 C534 1.362 . S
H536 C542 0.930 . S
H537 C545 0.930 . S
H538 C546 0.930 . S
H539 C547 0.930 . S
H540 C550 0.930 . S
H541 C551 0.930 . S
C542 H536 0.930 . S
C542 C543 1.355 1_556 S
C542 C544 1.415 . S
C543 C542 1.355 1_554 S
C543 C545 1.419 . S
C544 C542 1.415 . S
C544 C549 1.425 1_556 S
C544 C551 1.409 . S
C545 H537 0.930 . S
C545 C543 1.419 . S
C545 C546 1.362 . S
C546 H538 0.930 . S
C546 C545 1.362 . S
C546 C549 1.409 . S
C547 H539 0.930 . S
C547 C548 1.355 1_554 S
C547 C549 1.415 . S
C548 C547 1.355 1_556 S
C548 C550 1.419 . S
C549 C544 1.425 1_554 S
C549 C546 1.409 . S
C549 C547 1.415 . S
C550 H540 0.930 . S
C550 C548 1.419 . S
C550 C551 1.362 . S
C551 H541 0.930 . S
C551 C544 1.409 . S
C551 C550 1.362 . S
H552 C558 0.930 . S
H553 C561 0.930 . S
H554 C562 0.930 . S
H555 C563 0.930 . S
H556 C566 0.930 . S
H557 C567 0.930 . S
C558 H552 0.930 . S
C558 C559 1.355 . S
C558 C560 1.415 . S
C559 C558 1.355 . S
C559 C561 1.419 . S
C560 C558 1.415 . S
C560 C565 1.425 . S
C560 C567 1.409 . S
C561 H553 0.930 . S
C561 C559 1.419 . S
C561 C562 1.362 . S
C562 H554 0.930 . S
C562 C561 1.362 . S
C562 C565 1.409 . S
C563 H555 0.930 . S
C563 C564 1.355 . S
C563 C565 1.415 . S
C564 C563 1.355 . S
C564 C566 1.419 . S
C565 C560 1.425 . S
C565 C562 1.409 . S
C565 C563 1.415 . S
C566 H556 0.930 . S
C566 C564 1.419 . S
C566 C567 1.362 . S
C567 H557 0.930 . S
C567 C560 1.409 . S
C567 C566 1.362 . S
H568 C574 0.930 . S
H569 C577 0.930 . S
H570 C578 0.930 . S
H571 C579 0.930 . S
H572 C582 0.930 . S
H573 C583 0.930 . S
C574 H568 0.930 . S
C574 C575 1.355 . S
C574 C576 1.415 1_556 S
C575 C574 1.355 . S
C575 C577 1.419 . S
C576 C574 1.415 1_554 S
C576 C581 1.425 1_554 S
C576 C583 1.409 . S
C577 H569 0.930 . S
C577 C575 1.419 . S
C577 C578 1.362 . S
C578 H570 0.930 . S
C578 C577 1.362 . S
C578 C581 1.409 . S
C579 H571 0.930 . S
C579 C580 1.355 . S
C579 C581 1.415 1_554 S
C580 C579 1.355 . S
C580 C582 1.419 . S
C581 C576 1.425 1_556 S
C581 C578 1.409 . S
C581 C579 1.415 1_556 S
C582 H572 0.930 . S
C582 C580 1.419 . S
C582 C583 1.362 . S
C583 H573 0.930 . S
C583 C576 1.409 . S
C583 C582 1.362 . S
H584 C590 0.930 . S
H585 C593 0.930 . S
H586 C594 0.930 . S
H587 C595 0.930 . S
H588 C598 0.930 . S
H589 C599 0.930 . S
C590 H584 0.930 . S
C590 C591 1.355 . S
C590 C592 1.415 . S
C591 C590 1.355 . S
C591 C593 1.419 . S
C592 C590 1.415 . S
C592 C597 1.425 . S
C592 C599 1.409 . S
C593 H585 0.930 . S
C593 C591 1.419 . S
C593 C594 1.362 . S
C594 H586 0.930 . S
C594 C593 1.362 . S
C594 C597 1.409 . S
C595 H587 0.930 . S
C595 C596 1.355 . S
C595 C597 1.415 . S
C596 C595 1.355 . S
C596 C598 1.419 . S
C597 C592 1.425 . S
C597 C594 1.409 . S
C597 C595 1.415 . S
C598 H588 0.930 . S
C598 C596 1.419 . S
C598 C599 1.362 . S
C599 H589 0.930 . S
C599 C592 1.409 . S
C599 C598 1.362 . S
H600 C606 0.930 . S
H601 C609 0.930 . S
H602 C610 0.930 . S
H603 C611 0.930 . S
H604 C614 0.930 . S
H605 C615 0.930 . S
C606 H600 0.930 . S
C606 C607 1.355 1_556 S
C606 C608 1.415 . S
C607 C606 1.355 1_554 S
C607 C609 1.419 . S
C608 C606 1.415 . S
C608 C613 1.425 1_556 S
C608 C615 1.409 . S
C609 H601 0.930 . S
C609 C607 1.419 . S
C609 C610 1.362 . S
C610 H602 0.930 . S
C610 C609 1.362 . S
C610 C613 1.409 . S
C611 H603 0.930 . S
C611 C612 1.355 1_554 S
C611 C613 1.415 . S
C612 C611 1.355 1_556 S
C612 C614 1.419 . S
C613 C608 1.425 1_554 S
C613 C610 1.409 . S
C613 C611 1.415 . S
C614 H604 0.930 . S
C614 C612 1.419 . S
C614 C615 1.362 . S
C615 H605 0.930 . S
C615 C608 1.409 . S
C615 C614 1.362 . S
H616 C622 0.930 . S
H617 C625 0.930 . S
H618 C626 0.930 . S
H619 C627 0.930 . S
H620 C630 0.930 . S
H621 C631 0.930 . S
C622 H616 0.930 . S
C622 C623 1.355 . S
C622 C624 1.415 . S
C623 C622 1.355 . S
C623 C625 1.419 . S
C624 C622 1.415 . S
C624 C629 1.425 . S
C624 C631 1.409 . S
C625 H617 0.930 . S
C625 C623 1.419 . S
C625 C626 1.362 . S
C626 H618 0.930 . S
C626 C625 1.362 . S
C626 C629 1.409 . S
C627 H619 0.930 . S
C627 C628 1.355 . S
C627 C629 1.415 . S
C628 C627 1.355 . S
C628 C630 1.419 . S
C629 C624 1.425 . S
C629 C626 1.409 . S
C629 C627 1.415 . S
C630 H620 0.930 . S
C630 C628 1.419 . S
C630 C631 1.362 . S
C631 H621 0.930 . S
C631 C624 1.409 . S
C631 C630 1.362 . S
H632 C638 0.930 . S
H633 C641 0.930 . S
H634 C642 0.930 . S
H635 C643 0.930 . S
H636 C646 0.930 . S
H637 C647 0.930 . S
C638 H632 0.930 . S
C638 C639 1.355 . S
C638 C640 1.415 . S
C639 C638 1.355 . S
C639 C641 1.419 . S
C640 C638 1.415 . S
C640 C645 1.425 1_556 S
C640 C647 1.409 . S
C641 H633 0.930 . S
C641 C639 1.419 . S
C641 C642 1.362 1_556 S
C642 H634 0.930 . S
C642 C641 1.362 1_554 S
C642 C645 1.409 . S
C643 H635 0.930 . S
C643 C644 1.355 . S
C643 C645 1.415 . S
C644 C643 1.355 . S
C644 C646 1.419 . S
C645 C640 1.425 1_554 S
C645 C642 1.409 . S
C645 C643 1.415 . S
C646 H636 0.930 . S
C646 C644 1.419 . S
C646 C647 1.362 1_554 S
C647 H637 0.930 . S
C647 C640 1.409 . S
C647 C646 1.362 1_556 S
H648 C654 0.930 . S
H649 C657 0.930 . S
H650 C658 0.930 . S
H651 C659 0.930 . S
H652 C662 0.930 . S
H653 C663 0.930 . S
C654 H648 0.930 . S
C654 C655 1.355 . S
C654 C656 1.415 . S
C655 C654 1.355 . S
C655 C657 1.419 . S
C656 C654 1.415 . S
C656 C661 1.425 . S
C656 C663 1.409 . S
C657 H649 0.930 . S
C657 C655 1.419 . S
C657 C658 1.362 . S
C658 H650 0.930 . S
C658 C657 1.362 . S
C658 C661 1.409 . S
C659 H651 0.930 . S
C659 C660 1.355 . S
C659 C661 1.415 . S
C660 C659 1.355 . S
C660 C662 1.419 . S
C661 C656 1.425 . S
C661 C658 1.409 . S
C661 C659 1.415 . S
C662 H652 0.930 . S
C662 C660 1.419 . S
C662 C663 1.362 . S
C663 H653 0.930 . S
C663 C656 1.409 . S
C663 C662 1.362 . S
H664 C670 0.930 . S
H665 C673 0.930 . S
H666 C674 0.930 1_554 S
H667 C675 0.930 . S
H668 C678 0.930 . S
H669 C679 0.930 1_556 S
C670 H664 0.930 . S
C670 C671 1.355 . S
C670 C672 1.415 . S
C671 C670 1.355 . S
C671 C673 1.419 . S
C672 C670 1.415 . S
C672 C677 1.425 1_556 S
C672 C679 1.409 1_556 S
C673 H665 0.930 . S
C673 C671 1.419 . S
C673 C674 1.362 . S
C674 H666 0.930 1_556 S
C674 C673 1.362 . S
C674 C677 1.409 1_556 S
C675 H667 0.930 . S
C675 C676 1.355 . S
C675 C677 1.415 . S
C676 C675 1.355 . S
C676 C678 1.419 . S
C677 C672 1.425 1_554 S
C677 C674 1.409 1_554 S
C677 C675 1.415 . S
C678 H668 0.930 . S
C678 C676 1.419 . S
C678 C679 1.362 . S
C679 H669 0.930 1_554 S
C679 C672 1.409 1_554 S
C679 C678 1.362 . S
H680 C686 0.930 . S
H681 C689 0.930 . S
H682 C690 0.930 . S
H683 C691 0.930 . S
H684 C694 0.930 . S
H685 C695 0.930 . S
C686 H680 0.930 . S
C686 C687 1.355 . S
C686 C688 1.415 . S
C687 C686 1.355 . S
C687 C689 1.419 . S
C688 C686 1.415 . S
C688 C693 1.425 . S
C688 C695 1.409 . S
C689 H681 0.930 . S
C689 C687 1.419 . S
C689 C690 1.362 . S
C690 H682 0.930 . S
C690 C689 1.362 . S
C690 C693 1.409 . S
C691 H683 0.930 . S
C691 C692 1.355 . S
C691 C693 1.415 . S
C692 C691 1.355 . S
C692 C694 1.419 . S
C693 C688 1.425 . S
C693 C690 1.409 . S
C693 C691 1.415 . S
C694 H684 0.930 . S
C694 C692 1.419 . S
C694 C695 1.362 . S
C695 H685 0.930 . S
C695 C688 1.409 . S
C695 C694 1.362 . S
H696 C702 0.930 . S
H697 C705 0.930 . S
H698 C706 0.930 . S
H699 C707 0.930 . S
H700 C710 0.930 . S
H701 C711 0.930 . S
C702 H696 0.930 . S
C702 C703 1.355 . S
C702 C704 1.415 . S
C703 C702 1.355 . S
C703 C705 1.419 . S
C704 C702 1.415 . S
C704 C709 1.425 . S
C704 C711 1.409 . S
C705 H697 0.930 . S
C705 C703 1.419 . S
C705 C706 1.362 . S
C706 H698 0.930 . S
C706 C705 1.362 . S
C706 C709 1.409 . S
C707 H699 0.930 . S
C707 C708 1.355 . S
C707 C709 1.415 . S
C708 C707 1.355 . S
C708 C710 1.419 . S
C709 C704 1.425 . S
C709 C706 1.409 . S
C709 C707 1.415 . S
C710 H700 0.930 . S
C710 C708 1.419 . S
C710 C711 1.362 . S
C711 H701 0.930 . S
C711 C704 1.409 . S
C711 C710 1.362 . S
H712 C718 0.930 . S
H713 C721 0.930 . S
H714 C722 0.930 . S
H715 C723 0.930 . S
H716 C726 0.930 . S
H717 C727 0.930 . S
C718 H712 0.930 . S
C718 C719 1.355 . S
C718 C720 1.415 . S
C719 C718 1.355 . S
C719 C721 1.419 . S
C720 C718 1.415 . S
C720 C725 1.425 1_455 S
C720 C727 1.409 1_455 S
C721 H713 0.930 . S
C721 C719 1.419 . S
C721 C722 1.362 . S
C722 H714 0.930 . S
C722 C721 1.362 . S
C722 C725 1.409 1_455 S
C723 H715 0.930 . S
C723 C724 1.355 . S
C723 C725 1.415 . S
C724 C723 1.355 . S
C724 C726 1.419 . S
C725 C720 1.425 1_655 S
C725 C722 1.409 1_655 S
C725 C723 1.415 . S
C726 H716 0.930 . S
C726 C724 1.419 . S
C726 C727 1.362 . S
C727 H717 0.930 . S
C727 C720 1.409 1_655 S
C727 C726 1.362 . S
H728 C734 0.930 . S
H729 C737 0.930 . S
H730 C738 0.930 . S
H731 C739 0.930 . S
H732 C742 0.930 . S
H733 C743 0.930 . S
C734 H728 0.930 . S
C734 C735 1.355 . S
C734 C736 1.415 . S
C735 C734 1.355 . S
C735 C737 1.419 . S
C736 C734 1.415 . S
C736 C741 1.425 1_565 S
C736 C743 1.409 1_565 S
C737 H729 0.930 . S
C737 C735 1.419 . S
C737 C738 1.362 . S
C738 H730 0.930 . S
C738 C737 1.362 . S
C738 C741 1.409 1_565 S
C739 H731 0.930 . S
C739 C740 1.355 . S
C739 C741 1.415 . S
C740 C739 1.355 . S
C740 C742 1.419 . S
C741 C736 1.425 1_545 S
C741 C738 1.409 1_545 S
C741 C739 1.415 . S
C742 H732 0.930 . S
C742 C740 1.419 . S
C742 C743 1.362 . S
C743 H733 0.930 . S
C743 C736 1.409 1_545 S
C743 C742 1.362 . S
H744 C750 0.930 . S
H745 C753 0.930 . S
H746 C754 0.930 . S
H747 C755 0.930 . S
H748 C758 0.930 . S
H749 C759 0.930 . S
C750 H744 0.930 . S
C750 C751 1.355 . S
C750 C752 1.415 . S
C751 C750 1.355 . S
C751 C753 1.419 . S
C752 C750 1.415 . S
C752 C757 1.425 . S
C752 C759 1.409 . S
C753 H745 0.930 . S
C753 C751 1.419 . S
C753 C754 1.362 . S
C754 H746 0.930 . S
C754 C753 1.362 . S
C754 C757 1.409 . S
C755 H747 0.930 . S
C755 C756 1.355 . S
C755 C757 1.415 . S
C756 C755 1.355 . S
C756 C758 1.419 . S
C757 C752 1.425 . S
C757 C754 1.409 . S
C757 C755 1.415 . S
C758 H748 0.930 . S
C758 C756 1.419 . S
C758 C759 1.362 . S
C759 H749 0.930 . S
C759 C752 1.409 . S
C759 C758 1.362 . S
H760 C766 0.930 . S
H761 C769 0.930 . S
H762 C770 0.930 . S
H763 C771 0.930 . S
H764 C774 0.930 . S
H765 C775 0.930 . S
C766 H760 0.930 . S
C766 C767 1.355 . S
C766 C768 1.415 . S
C767 C766 1.355 . S
C767 C769 1.419 . S
C768 C766 1.415 . S
C768 C773 1.425 1_655 S
C768 C775 1.409 1_655 S
C769 H761 0.930 . S
C769 C767 1.419 . S
C769 C770 1.362 . S
C770 H762 0.930 . S
C770 C769 1.362 . S
C770 C773 1.409 1_655 S
C771 H763 0.930 . S
C771 C772 1.355 . S
C771 C773 1.415 . S
C772 C771 1.355 . S
C772 C774 1.419 . S
C773 C768 1.425 1_455 S
C773 C770 1.409 1_455 S
C773 C771 1.415 . S
C774 H764 0.930 . S
C774 C772 1.419 . S
C774 C775 1.362 . S
C775 H765 0.930 . S
C775 C768 1.409 1_455 S
C775 C774 1.362 . S
H776 C782 0.930 . S
H777 C785 0.930 . S
H778 C786 0.930 . S
H779 C787 0.930 . S
H780 C790 0.930 . S
H781 C791 0.930 . S
C782 H776 0.930 . S
C782 C783 1.355 . S
C782 C784 1.415 . S
C783 C782 1.355 . S
C783 C785 1.419 . S
C784 C782 1.415 . S
C784 C789 1.425 1_545 S
C784 C791 1.409 1_545 S
C785 H777 0.930 . S
C785 C783 1.419 . S
C785 C786 1.362 . S
C786 H778 0.930 . S
C786 C785 1.362 . S
C786 C789 1.409 1_545 S
C787 H779 0.930 . S
C787 C788 1.355 . S
C787 C789 1.415 . S
C788 C787 1.355 . S
C788 C790 1.419 . S
C789 C784 1.425 1_565 S
C789 C786 1.409 1_565 S
C789 C787 1.415 . S
C790 H780 0.930 . S
C790 C788 1.419 . S
C790 C791 1.362 . S
C791 H781 0.930 . S
C791 C784 1.409 1_565 S
C791 C790 1.362 . S
H792 C798 0.930 . S
H793 C801 0.930 . S
H794 C802 0.930 . S
H795 C803 0.930 . S
H796 C806 0.930 . S
H797 C807 0.930 . S
C798 H792 0.930 . S
C798 C799 1.355 . S
C798 C800 1.415 . S
C799 C798 1.355 . S
C799 C801 1.419 . S
C800 C798 1.415 . S
C800 C805 1.425 . S
C800 C807 1.409 . S
C801 H793 0.930 . S
C801 C799 1.419 . S
C801 C802 1.362 . S
C802 H794 0.930 . S
C802 C801 1.362 . S
C802 C805 1.409 . S
C803 H795 0.930 . S
C803 C804 1.355 . S
C803 C805 1.415 . S
C804 C803 1.355 . S
C804 C806 1.419 . S
C805 C800 1.425 . S
C805 C802 1.409 . S
C805 C803 1.415 . S
C806 H796 0.930 . S
C806 C804 1.419 . S
C806 C807 1.362 . S
C807 H797 0.930 . S
C807 C800 1.409 . S
C807 C806 1.362 . S
H808 C814 0.930 . S
H809 C817 0.930 . S
H810 C818 0.930 . S
H811 C819 0.930 . S
H812 C822 0.930 . S
H813 C823 0.930 . S
C814 H808 0.930 . S
C814 C815 1.355 . S
C814 C816 1.415 . S
C815 C814 1.355 . S
C815 C817 1.419 . S
C816 C814 1.415 . S
C816 C821 1.425 1_655 S
C816 C823 1.409 1_655 S
C817 H809 0.930 . S
C817 C815 1.419 . S
C817 C818 1.362 . S
C818 H810 0.930 . S
C818 C817 1.362 . S
C818 C821 1.409 1_655 S
C819 H811 0.930 . S
C819 C820 1.355 . S
C819 C821 1.415 . S
C820 C819 1.355 . S
C820 C822 1.419 . S
C821 C816 1.425 1_455 S
C821 C818 1.409 1_455 S
C821 C819 1.415 . S
C822 H812 0.930 . S
C822 C820 1.419 . S
C822 C823 1.362 . S
C823 H813 0.930 . S
C823 C816 1.409 1_455 S
C823 C822 1.362 . S
H824 C830 0.930 . S
H825 C833 0.930 . S
H826 C834 0.930 . S
H827 C835 0.930 . S
H828 C838 0.930 . S
H829 C839 0.930 . S
C830 H824 0.930 . S
C830 C831 1.355 . S
C830 C832 1.415 . S
C831 C830 1.355 . S
C831 C833 1.419 . S
C832 C830 1.415 . S
C832 C837 1.425 1_545 S
C832 C839 1.409 1_545 S
C833 H825 0.930 . S
C833 C831 1.419 . S
C833 C834 1.362 . S
C834 H826 0.930 . S
C834 C833 1.362 . S
C834 C837 1.409 1_545 S
C835 H827 0.930 . S
C835 C836 1.355 . S
C835 C837 1.415 . S
C836 C835 1.355 . S
C836 C838 1.419 . S
C837 C832 1.425 1_565 S
C837 C834 1.409 1_565 S
C837 C835 1.415 . S
C838 H828 0.930 . S
C838 C836 1.419 . S
C838 C839 1.362 . S
C839 H829 0.930 . S
C839 C832 1.409 1_565 S
C839 C838 1.362 . S
H840 C846 0.930 . S
H841 C849 0.930 . S
H842 C850 0.930 . S
H843 C851 0.930 . S
H844 C854 0.930 . S
H845 C855 0.930 . S
C846 H840 0.930 . S
C846 C847 1.355 . S
C846 C848 1.415 . S
C847 C846 1.355 . S
C847 C849 1.419 . S
C848 C846 1.415 . S
C848 C853 1.425 . S
C848 C855 1.409 . S
C849 H841 0.930 . S
C849 C847 1.419 . S
C849 C850 1.362 . S
C850 H842 0.930 . S
C850 C849 1.362 . S
C850 C853 1.409 . S
C851 H843 0.930 . S
C851 C852 1.355 . S
C851 C853 1.415 . S
C852 C851 1.355 . S
C852 C854 1.419 . S
C853 C848 1.425 . S
C853 C850 1.409 . S
C853 C851 1.415 . S
C854 H844 0.930 . S
C854 C852 1.419 . S
C854 C855 1.362 . S
C855 H845 0.930 . S
C855 C848 1.409 . S
C855 C854 1.362 . S
H856 C862 0.930 . S
H857 C865 0.930 . S
H858 C866 0.930 1_554 S
H859 C867 0.930 . S
H860 C870 0.930 . S
H861 C871 0.930 . S
C862 H856 0.930 . S
C862 C863 1.355 . S
C862 C864 1.415 . S
C863 C862 1.355 . S
C863 C865 1.419 . S
C864 C862 1.415 . S
C864 C869 1.425 1_455 S
C864 C871 1.409 1_455 S
C865 H857 0.930 . S
C865 C863 1.419 . S
C865 C866 1.362 . S
C866 H858 0.930 1_556 S
C866 C865 1.362 . S
C866 C869 1.409 1_455 S
C867 H859 0.930 . S
C867 C868 1.355 . S
C867 C869 1.415 . S
C868 C867 1.355 . S
C868 C870 1.419 . S
C869 C864 1.425 1_655 S
C869 C866 1.409 1_655 S
C869 C867 1.415 . S
C870 H860 0.930 . S
C870 C868 1.419 . S
C870 C871 1.362 . S
C871 H861 0.930 . S
C871 C864 1.409 1_655 S
C871 C870 1.362 . S
H872 C878 0.930 . S
H873 C881 0.930 . S
H874 C882 0.930 . S
H875 C883 0.930 . S
H876 C886 0.930 . S
H877 C887 0.930 . S
C878 H872 0.930 . S
C878 C879 1.355 . S
C878 C880 1.415 . S
C879 C878 1.355 . S
C879 C881 1.419 . S
C880 C878 1.415 . S
C880 C885 1.425 1_565 S
C880 C887 1.409 1_565 S
C881 H873 0.930 . S
C881 C879 1.419 . S
C881 C882 1.362 . S
C882 H874 0.930 . S
C882 C881 1.362 . S
C882 C885 1.409 1_565 S
C883 H875 0.930 . S
C883 C884 1.355 . S
C883 C885 1.415 . S
C884 C883 1.355 . S
C884 C886 1.419 . S
C885 C880 1.425 1_545 S
C885 C882 1.409 1_545 S
C885 C883 1.415 . S
C886 H876 0.930 . S
C886 C884 1.419 . S
C886 C887 1.362 . S
C887 H877 0.930 . S
C887 C880 1.409 1_545 S
C887 C886 1.362 . S
H888 C894 0.930 1_554 S
H889 C897 0.930 . S
H890 C898 0.930 . S
H891 C899 0.930 1_556 S
H892 C902 0.930 . S
H893 C903 0.930 . S
C894 H888 0.930 1_556 S
C894 C895 1.355 . S
C894 C896 1.415 1_556 S
C895 C894 1.355 . S
C895 C897 1.419 . S
C896 C894 1.415 1_554 S
C896 C901 1.425 1_554 S
C896 C903 1.409 . S
C897 H889 0.930 . S
C897 C895 1.419 . S
C897 C898 1.362 . S
C898 H890 0.930 . S
C898 C897 1.362 . S
C898 C901 1.409 . S
C899 H891 0.930 1_554 S
C899 C900 1.355 . S
C899 C901 1.415 1_554 S
C900 C899 1.355 . S
C900 C902 1.419 . S
C901 C896 1.425 1_556 S
C901 C898 1.409 . S
C901 C899 1.415 1_556 S
C902 H892 0.930 . S
C902 C900 1.419 . S
C902 C903 1.362 . S
C903 H893 0.930 . S
C903 C896 1.409 . S
C903 C902 1.362 . S
H904 C910 0.930 . S
H905 C913 0.930 . S
H906 C914 0.930 . S
H907 C915 0.930 . S
H908 C918 0.930 . S
H909 C919 0.930 . S
C910 H904 0.930 . S
C910 C911 1.355 . S
C910 C912 1.415 . S
C911 C910 1.355 . S
C911 C913 1.419 . S
C912 C910 1.415 . S
C912 C917 1.425 . S
C912 C919 1.409 . S
C913 H905 0.930 . S
C913 C911 1.419 . S
C913 C914 1.362 . S
C914 H906 0.930 . S
C914 C913 1.362 . S
C914 C917 1.409 . S
C915 H907 0.930 . S
C915 C916 1.355 . S
C915 C917 1.415 . S
C916 C915 1.355 . S
C916 C918 1.419 . S
C917 C912 1.425 . S
C917 C914 1.409 . S
C917 C915 1.415 . S
C918 H908 0.930 . S
C918 C916 1.419 . S
C918 C919 1.362 . S
C919 H909 0.930 . S
C919 C912 1.409 . S
C919 C918 1.362 . S
H920 C926 0.930 . S
H921 C929 0.930 . S
H922 C930 0.930 . S
H923 C931 0.930 . S
H924 C934 0.930 . S
H925 C935 0.930 . S
C926 H920 0.930 . S
C926 C927 1.355 . S
C926 C928 1.415 . S
C927 C926 1.355 . S
C927 C929 1.419 1_556 S
C928 C926 1.415 . S
C928 C933 1.425 1_556 S
C928 C935 1.409 . S
C929 H921 0.930 . S
C929 C927 1.419 1_554 S
C929 C930 1.362 . S
C930 H922 0.930 . S
C930 C929 1.362 . S
C930 C933 1.409 . S
C931 H923 0.930 . S
C931 C932 1.355 . S
C931 C933 1.415 . S
C932 C931 1.355 . S
C932 C934 1.419 1_554 S
C933 C928 1.425 1_554 S
C933 C930 1.409 . S
C933 C931 1.415 . S
C934 H924 0.930 . S
C934 C932 1.419 1_556 S
C934 C935 1.362 . S
C935 H925 0.930 . S
C935 C928 1.409 . S
C935 C934 1.362 . S
H936 C942 0.930 . S
H937 C945 0.930 . S
H938 C946 0.930 . S
H939 C947 0.930 . S
H940 C950 0.930 . S
H941 C951 0.930 . S
C942 H936 0.930 . S
C942 C943 1.355 . S
C942 C944 1.415 . S
C943 C942 1.355 . S
C943 C945 1.419 . S
C944 C942 1.415 . S
C944 C949 1.425 . S
C944 C951 1.409 . S
C945 H937 0.930 . S
C945 C943 1.419 . S
C945 C946 1.362 . S
C946 H938 0.930 . S
C946 C945 1.362 . S
C946 C949 1.409 . S
C947 H939 0.930 . S
C947 C948 1.355 . S
C947 C949 1.415 . S
C948 C947 1.355 . S
C948 C950 1.419 . S
C949 C944 1.425 . S
C949 C946 1.409 . S
C949 C947 1.415 . S
C950 H940 0.930 . S
C950 C948 1.419 . S
C950 C951 1.362 . S
C951 H941 0.930 . S
C951 C944 1.409 . S
C951 C950 1.362 . S
H952 C958 0.930 . S
H953 C961 0.930 . S
H954 C962 0.930 . S
H955 C963 0.930 . S
H956 C966 0.930 . S
H957 C967 0.930 . S
C958 H952 0.930 . S
C958 C959 1.355 . S
C958 C960 1.415 . S
C959 C958 1.355 . S
C959 C961 1.419 . S
C960 C958 1.415 . S
C960 C965 1.425 1_556 S
C960 C967 1.409 1_556 S
C961 H953 0.930 . S
C961 C959 1.419 . S
C961 C962 1.362 . S
C962 H954 0.930 . S
C962 C961 1.362 . S
C962 C965 1.409 1_556 S
C963 H955 0.930 . S
C963 C964 1.355 . S
C963 C965 1.415 . S
C964 C963 1.355 . S
C964 C966 1.419 . S
C965 C960 1.425 1_554 S
C965 C962 1.409 1_554 S
C965 C963 1.415 . S
C966 H956 0.930 . S
C966 C964 1.419 . S
C966 C967 1.362 . S
C967 H957 0.930 . S
C967 C960 1.409 1_554 S
C967 C966 1.362 . S
H968 C974 0.930 . S
H969 C977 0.930 . S
H970 C978 0.930 . S
H971 C979 0.930 . S
H972 C982 0.930 . S
H973 C983 0.930 . S
C974 H968 0.930 . S
C974 C975 1.355 . S
C974 C976 1.415 . S
C975 C974 1.355 . S
C975 C977 1.419 . S
C976 C974 1.415 . S
C976 C981 1.425 . S
C976 C983 1.409 . S
C977 H969 0.930 . S
C977 C975 1.419 . S
C977 C978 1.362 . S
C978 H970 0.930 . S
C978 C977 1.362 . S
C978 C981 1.409 . S
C979 H971 0.930 . S
C979 C980 1.355 . S
C979 C981 1.415 . S
C980 C979 1.355 . S
C980 C982 1.419 . S
C981 C976 1.425 . S
C981 C978 1.409 . S
C981 C979 1.415 . S
C982 H972 0.930 . S
C982 C980 1.419 . S
C982 C983 1.362 . S
C983 H973 0.930 . S
C983 C976 1.409 . S
C983 C982 1.362 . S
H984 C990 0.930 . S
H985 C993 0.930 . S
H986 C994 0.930 . S
H987 C995 0.930 . S
H988 C998 0.930 . S
H989 C999 0.930 . S
C990 H984 0.930 . S
C990 C991 1.355 1_556 S
C990 C992 1.415 . S
C991 C990 1.355 1_554 S
C991 C993 1.419 . S
C992 C990 1.415 . S
C992 C997 1.425 1_556 S
C992 C999 1.409 . S
C993 H985 0.930 . S
C993 C991 1.419 . S
C993 C994 1.362 . S
C994 H986 0.930 . S
C994 C993 1.362 . S
C994 C997 1.409 . S
C995 H987 0.930 . S
C995 C996 1.355 1_554 S
C995 C997 1.415 . S
C996 C995 1.355 1_556 S
C996 C998 1.419 . S
C997 C992 1.425 1_554 S
C997 C994 1.409 . S
C997 C995 1.415 . S
C998 H988 0.930 . S
C998 C996 1.419 . S
C998 C999 1.362 . S
C999 H989 0.930 . S
C999 C992 1.409 . S
C999 C998 1.362 . S
H1000 C1006 0.930 . S
H1001 C1009 0.930 . S
H1002 C1010 0.930 . S
H1003 C1011 0.930 . S
H1004 C1014 0.930 . S
H1005 C1015 0.930 . S
C1006 H1000 0.930 . S
C1006 C1007 1.355 . S
C1006 C1008 1.415 . S
C1007 C1006 1.355 . S
C1007 C1009 1.419 . S
C1008 C1006 1.415 . S
C1008 C1013 1.425 . S
C1008 C1015 1.409 . S
C1009 H1001 0.930 . S
C1009 C1007 1.419 . S
C1009 C1010 1.362 . S
C1010 H1002 0.930 . S
C1010 C1009 1.362 . S
C1010 C1013 1.409 . S
C1011 H1003 0.930 . S
C1011 C1012 1.355 . S
C1011 C1013 1.415 . S
C1012 C1011 1.355 . S
C1012 C1014 1.419 . S
C1013 C1008 1.425 . S
C1013 C1010 1.409 . S
C1013 C1011 1.415 . S
C1014 H1004 0.930 . S
C1014 C1012 1.419 . S
C1014 C1015 1.362 . S
C1015 H1005 0.930 . S
C1015 C1008 1.409 . S
C1015 C1014 1.362 . S
H1016 C1022 0.930 1_556 S
H1017 C1025 0.930 . S
H1018 C1026 0.930 . S
H1019 C1027 0.930 1_554 S
H1020 C1030 0.930 . S
H1021 C1031 0.930 . S
C1022 H1016 0.930 1_554 S
C1022 C1023 1.355 . S
C1022 C1024 1.415 1_554 S
C1023 C1022 1.355 . S
C1023 C1025 1.419 . S
C1024 C1022 1.415 1_556 S
C1024 C1029 1.425 1_556 S
C1024 C1031 1.409 . S
C1025 H1017 0.930 . S
C1025 C1023 1.419 . S
C1025 C1026 1.362 . S
C1026 H1018 0.930 . S
C1026 C1025 1.362 . S
C1026 C1029 1.409 . S
C1027 H1019 0.930 1_556 S
C1027 C1028 1.355 . S
C1027 C1029 1.415 1_556 S
C1028 C1027 1.355 . S
C1028 C1030 1.419 . S
C1029 C1024 1.425 1_554 S
C1029 C1026 1.409 . S
C1029 C1027 1.415 1_554 S
C1030 H1020 0.930 . S
C1030 C1028 1.419 . S
C1030 C1031 1.362 . S
C1031 H1021 0.930 . S
C1031 C1024 1.409 . S
C1031 C1030 1.362 . S
H1032 C1038 0.930 . S
H1033 C1041 0.930 . S
H1034 C1042 0.930 . S
H1035 C1043 0.930 . S
H1036 C1046 0.930 . S
H1037 C1047 0.930 . S
C1038 H1032 0.930 . S
C1038 C1039 1.355 . S
C1038 C1040 1.415 . S
C1039 C1038 1.355 . S
C1039 C1041 1.419 . S
C1040 C1038 1.415 . S
C1040 C1045 1.425 . S
C1040 C1047 1.409 . S
C1041 H1033 0.930 . S
C1041 C1039 1.419 . S
C1041 C1042 1.362 . S
C1042 H1034 0.930 . S
C1042 C1041 1.362 . S
C1042 C1045 1.409 . S
C1043 H1035 0.930 . S
C1043 C1044 1.355 . S
C1043 C1045 1.415 . S
C1044 C1043 1.355 . S
C1044 C1046 1.419 . S
C1045 C1040 1.425 . S
C1045 C1042 1.409 . S
C1045 C1043 1.415 . S
C1046 H1036 0.930 . S
C1046 C1044 1.419 . S
C1046 C1047 1.362 . S
C1047 H1037 0.930 . S
C1047 C1040 1.409 . S
C1047 C1046 1.362 . S
H1048 C1054 0.930 . S
H1049 C1057 0.930 . S
H1050 C1058 0.930 . S
H1051 C1059 0.930 . S
H1052 C1062 0.930 . S
H1053 C1063 0.930 . S
C1054 H1048 0.930 . S
C1054 C1055 1.355 1_554 S
C1054 C1056 1.415 . S
C1055 C1054 1.355 1_556 S
C1055 C1057 1.419 . S
C1056 C1054 1.415 . S
C1056 C1061 1.425 1_554 S
C1056 C1063 1.409 . S
C1057 H1049 0.930 . S
C1057 C1055 1.419 . S
C1057 C1058 1.362 . S
C1058 H1050 0.930 . S
C1058 C1057 1.362 . S
C1058 C1061 1.409 . S
C1059 H1051 0.930 . S
C1059 C1060 1.355 1_556 S
C1059 C1061 1.415 . S
C1060 C1059 1.355 1_554 S
C1060 C1062 1.419 . S
C1061 C1056 1.425 1_556 S
C1061 C1058 1.409 . S
C1061 C1059 1.415 . S
C1062 H1052 0.930 . S
C1062 C1060 1.419 . S
C1062 C1063 1.362 . S
C1063 H1053 0.930 . S
C1063 C1056 1.409 . S
C1063 C1062 1.362 . S
H1064 C1070 0.930 . S
H1065 C1073 0.930 . S
H1066 C1074 0.930 . S
H1067 C1075 0.930 . S
H1068 C1078 0.930 . S
H1069 C1079 0.930 . S
C1070 H1064 0.930 . S
C1070 C1071 1.355 . S
C1070 C1072 1.415 . S
C1071 C1070 1.355 . S
C1071 C1073 1.419 . S
C1072 C1070 1.415 . S
C1072 C1077 1.425 . S
C1072 C1079 1.409 . S
C1073 H1065 0.930 . S
C1073 C1071 1.419 . S
C1073 C1074 1.362 . S
C1074 H1066 0.930 . S
C1074 C1073 1.362 . S
C1074 C1077 1.409 . S
C1075 H1067 0.930 . S
C1075 C1076 1.355 . S
C1075 C1077 1.415 . S
C1076 C1075 1.355 . S
C1076 C1078 1.419 . S
C1077 C1072 1.425 . S
C1077 C1074 1.409 . S
C1077 C1075 1.415 . S
C1078 H1068 0.930 . S
C1078 C1076 1.419 . S
C1078 C1079 1.362 . S
C1079 H1069 0.930 . S
C1079 C1072 1.409 . S
C1079 C1078 1.362 . S
C319 C10 1.457 . S
C324 C205 1.451 . S
C335 C23 1.471 . S
C340 C218 1.438 . S
C351 C231 1.469 . S
C356 C36 1.439 . S
C367 C166 1.436 . S
C372 C49 1.473 . S
C383 C179 1.465 . S
C388 C62 1.443 . S
C399 C192 1.469 . S
C404 C75 1.439 . S
C415 C283 1.446 . S
C420 C88 1.462 . S
C431 C101 1.465 . S
C436 C296 1.444 . S
C447 C309 1.443 . S
C452 C114 1.466 . S
C463 C127 1.465 . S
C468 C244 1.444 . S
C479 C257 1.436 . S
C484 C140 1.472 . S
C495 C153 1.438 . S
C500 C270 1.471 . S
C511 C130 1.134 . S
C516 C0 1.157 . S
C527 C143 1.132 . S
C532 C13 1.154 . S
C543 C26 1.108 . S
C548 C78 1.119 . S
C559 C39 1.109 . S
C564 C91 1.120 . S
C575 C104 1.142 . S
C580 C52 1.122 . S
C591 C65 1.138 . S
C596 C117 1.119 . S
C607 C286 1.125 . S
C612 C156 1.111 . S
C623 C169 1.177 . S
C628 C299 1.190 . S
C639 C182 1.182 . S
C644 C234 1.163 . S
C655 C247 1.146 . S
C660 C195 1.124 . S
C671 C208 1.131 . S
C676 C260 1.154 . S
C687 C221 1.145 . S
C692 C273 1.124 . S
C703 C5 1.273 . S
C708 C239 1.183 . S
C719 C252 1.208 . S
C724 C18 1.250 . S
C735 C31 1.234 . S
C740 C265 1.224 . S
C751 C44 1.273 . S
C756 C278 1.184 . S
C767 C291 1.206 . S
C772 C57 1.251 . S
C783 C70 1.259 . S
C788 C304 1.198 . S
C799 C83 1.264 . S
C804 C161 1.193 . S
C815 C96 1.271 . S
C820 C174 1.185 . S
C831 C187 1.215 . S
C836 C109 1.243 . S
C847 C200 1.273 . S
C852 C122 1.183 . S
C863 C135 1.240 . S
C868 C213 1.217 . S
C879 C226 1.270 . S
C884 C148 1.186 . S
C895 C86 1.465 . S
C900 C8 1.522 . S
C911 C21 1.457 . S
C916 C99 1.523 . S
C927 C112 1.503 . S
C932 C34 1.470 . S
C943 C125 1.477 . S
C948 C47 1.495 . S
C959 C138 1.524 . S
C964 C60 1.460 . S
C975 C73 1.498 . S
C980 C151 1.475 . S
C991 C242 1.501 . S
C996 C164 1.490 . S
C1007 C177 1.486 . S
C1012 C255 1.505 . S
C1023 C268 1.480 . S
C1028 C190 1.510 . S
C1039 C281 1.516 . S
C1044 C203 1.460 . S
C1055 C216 1.509 . S
C1060 C294 1.482 . S
C1071 C229 1.481 . S
C1076 C307 1.510 . S
