# Generated by pormake.
# Topology smm, (6)-cn, num edge types: 1
# Building blocks:
#     Node 0, Type 0, BuildingBlock: VOLQOD_clean_sbu_1, # of connection points: 6
#     Node 1, Type 0, BuildingBlock: VOLQOD_clean_sbu_1, # of connection points: 6
#     Node 2, Type 0, BuildingBlock: VOLQOD_clean_sbu_1, # of connection points: 6
#     Node 3, Type 0, BuildingBlock: VOLQOD_clean_sbu_1, # of connection points: 6
#     Node 4, Type 0, BuildingBlock: VOLQOD_clean_sbu_1, # of connection points: 6
#     Node 5, Type 0, BuildingBlock: VOLQOD_clean_sbu_1, # of connection points: 6
#     Node 6, Type 0, BuildingBlock: VOLQOD_clean_sbu_1, # of connection points: 6
#     Node 7, Type 0, BuildingBlock: VOLQOD_clean_sbu_1, # of connection points: 6
#     Node 8, Type 0, BuildingBlock: VOLQOD_clean_sbu_1, # of connection points: 6
#     Edge 9, Type (0, 0), BuildingBlock: UVAHIK_clean_linker_0, # of connection points: 2
#     Edge 10, Type (0, 0), BuildingBlock: UVAHIK_clean_linker_0, # of connection points: 2
#     Edge 11, Type (0, 0), BuildingBlock: UVAHIK_clean_linker_0, # of connection points: 2
#     Edge 12, Type (0, 0), BuildingBlock: UVAHIK_clean_linker_0, # of connection points: 2
#     Edge 13, Type (0, 0), BuildingBlock: UVAHIK_clean_linker_0, # of connection points: 2
#     Edge 14, Type (0, 0), BuildingBlock: UVAHIK_clean_linker_0, # of connection points: 2
#     Edge 15, Type (0, 0), BuildingBlock: UVAHIK_clean_linker_0, # of connection points: 2
#     Edge 16, Type (0, 0), BuildingBlock: UVAHIK_clean_linker_0, # of connection points: 2
#     Edge 17, Type (0, 0), BuildingBlock: UVAHIK_clean_linker_0, # of connection points: 2
#     Edge 18, Type (0, 0), BuildingBlock: UVAHIK_clean_linker_0, # of connection points: 2
#     Edge 19, Type (0, 0), BuildingBlock: UVAHIK_clean_linker_0, # of connection points: 2
#     Edge 20, Type (0, 0), BuildingBlock: UVAHIK_clean_linker_0, # of connection points: 2
#     Edge 21, Type (0, 0), BuildingBlock: UVAHIK_clean_linker_0, # of connection points: 2
#     Edge 22, Type (0, 0), BuildingBlock: UVAHIK_clean_linker_0, # of connection points: 2
#     Edge 23, Type (0, 0), BuildingBlock: UVAHIK_clean_linker_0, # of connection points: 2
#     Edge 24, Type (0, 0), BuildingBlock: UVAHIK_clean_linker_0, # of connection points: 2
#     Edge 25, Type (0, 0), BuildingBlock: UVAHIK_clean_linker_0, # of connection points: 2
#     Edge 26, Type (0, 0), BuildingBlock: UVAHIK_clean_linker_0, # of connection points: 2
#     Edge 27, Type (0, 0), BuildingBlock: UVAHIK_clean_linker_0, # of connection points: 2
#     Edge 28, Type (0, 0), BuildingBlock: UVAHIK_clean_linker_0, # of connection points: 2
#     Edge 29, Type (0, 0), BuildingBlock: UVAHIK_clean_linker_0, # of connection points: 2
#     Edge 30, Type (0, 0), BuildingBlock: UVAHIK_clean_linker_0, # of connection points: 2
#     Edge 31, Type (0, 0), BuildingBlock: UVAHIK_clean_linker_0, # of connection points: 2
#     Edge 32, Type (0, 0), BuildingBlock: UVAHIK_clean_linker_0, # of connection points: 2
#     Edge 33, Type (0, 0), BuildingBlock: UVAHIK_clean_linker_0, # of connection points: 2
#     Edge 34, Type (0, 0), BuildingBlock: UVAHIK_clean_linker_0, # of connection points: 2
#     Edge 35, Type (0, 0), BuildingBlock: UVAHIK_clean_linker_0, # of connection points: 2
# Relax obj value: 0.260
# Max RMSD: 0.218
# Mean RMSD: 0.216
data_MOF--net-smm--node1-VOLQOD_clean_sbu_1--edge1-UVAHIK_clean_linker_0
_symmetry_space_group_name_H-M    P1
_symmetry_Int_Tables_number       1
_symmetry_cell_setting            triclinic
loop_
_symmetry_equiv_pos_as_xyz
'x, y, z'
_cell_length_a     67.394973
_cell_length_b     67.441731
_cell_length_c     21.348005
_cell_angle_alpha  90.069535
_cell_angle_beta   90.023233
_cell_angle_gamma 120.05879
loop_
_atom_site_label
_atom_site_type_symbol
_atom_site_fract_x
_atom_site_fract_y
_atom_site_fract_z
_atom_type_partial_charge
O0 O 0.98883 0.16205 0.88812 0.0
Zn1 Zn 0.98575 0.16286 0.98163 0.0
O2 O 0.0152 0.17186 0.02107 0.0
Zn3 Zn 0.0247 0.19834 0.07377 0.0
Zn4 Zn 0.0385 0.18016 0.95842 0.0
Zn5 Zn 0.01341 0.14683 0.06894 0.0
O6 O 0.02689 0.19131 0.16335 0.0
O7 O 0.01556 0.15416 0.16028 0.0
O8 O 0.97426 0.18463 0.00342 0.0
O9 O 0.00106 0.20768 0.07068 0.0
O10 O 0.05322 0.22619 0.0424 0.0
O11 O 0.05605 0.21423 0.94776 0.0
O12 O 0.06033 0.16918 0.98066 0.0
O13 O 0.96225 0.13055 0.00614 0.0
O14 O 0.03978 0.14184 0.04958 0.0
O15 O 0.98327 0.11816 0.05421 0.0
C16 C 0.00438 0.16204 0.85421 0.0
C17 C 0.02168 0.17257 0.19072 0.0
C18 C 0.06157 0.23031 0.98728 0.0
C19 C 0.9825 0.20158 0.0411 0.0
C20 C 0.0577 0.1529 0.01621 0.0
C21 C 0.96422 0.11454 0.03169 0.0
O22 O 0.0238 0.16681 0.87644 0.0
O23 O 0.79642 0.8303 0.14107 0.0
Zn24 Zn 0.79535 0.8316 0.04617 0.0
O25 O 0.81753 0.8242 0.00824 0.0
Zn26 Zn 0.80172 0.79529 0.96314 0.0
Zn27 Zn 0.83594 0.82165 0.07346 0.0
Zn28 Zn 0.83798 0.84807 0.95144 0.0
O29 O 0.81043 0.7988 0.87198 0.0
O30 O 0.83333 0.83645 0.8636 0.0
O31 O 0.76287 0.80936 0.01674 0.0
O32 O 0.76833 0.78429 0.96303 0.0
O33 O 0.80526 0.77048 0.00529 0.0
O34 O 0.82742 0.78901 0.08644 0.0
O35 O 0.86952 0.84023 0.05679 0.0
O36 O 0.80366 0.86413 0.02352 0.0
O37 O 0.87131 0.86051 0.97324 0.0
O38 O 0.83187 0.87404 0.95466 0.0
C39 C 0.81271 0.83261 0.17633 0.0
C40 C 0.82249 0.81661 0.83906 0.0
C41 C 0.81538 0.77059 0.05582 0.0
C42 C 0.75511 0.79106 0.98429 0.0
C43 C 0.88112 0.85538 0.01602 0.0
C44 C 0.81835 0.87848 0.98526 0.0
O45 O 0.82989 0.83184 0.15479 0.0
O46 O 0.21285 0.0215 0.90816 0.0
Zn47 Zn 0.21369 0.02541 0.00244 0.0
O48 O 0.19038 -0.00272 0.0424 0.0
Zn49 Zn 0.20473 0.98192 0.08357 0.0
Zn50 Zn 0.1698 0.97771 0.97828 0.0
Zn51 Zn 0.17273 0.00372 0.10205 0.0
O52 O 0.19671 0.97702 0.1755 0.0
O53 O 0.17792 -0.00394 0.18842 0.0
O54 O 0.24535 0.03429 0.0344 0.0
O55 O 0.23874 0.00223 0.08194 0.0
O56 O 0.19791 0.95281 0.03847 0.0
O57 O 0.1745 0.95125 0.96314 0.0
O58 O 0.13698 0.9659 -0.00106 0.0
O59 O 0.2073 0.05107 0.0205 0.0
O60 O 0.13864 0.98501 0.08513 0.0
O61 O 0.18166 0.03684 0.09759 0.0
C62 C 0.1955 0.00933 0.87353 0.0
C63 C 0.18689 0.98483 0.21056 0.0
C64 C 0.18594 0.94332 -0.0103 0.0
C65 C 0.25245 0.02253 0.06347 0.0
C66 C 0.12711 0.97056 0.04248 0.0
C67 C 0.19478 0.05324 0.0615 0.0
O68 O 0.17664 -0.00618 0.89634 0.0
O69 O 0.66142 0.50512 0.46977 0.0
Zn70 Zn 0.66533 0.50843 0.3758 0.0
O71 O 0.63566 0.49343 0.3331 0.0
Zn72 Zn 0.62922 0.51654 0.29726 0.0
Zn73 Zn 0.61185 0.47414 0.39206 0.0
Zn74 Zn 0.63614 0.47379 0.26792 0.0
O75 O 0.62405 0.51205 0.20312 0.0
O76 O 0.6296 0.48268 0.1855 0.0
O77 O 0.68229 0.54181 0.3552 0.0
O78 O 0.6568 0.54817 0.30696 0.0
O79 O 0.60146 0.51525 0.33938 0.0
O80 O 0.58843 0.4838 0.39729 0.0
O81 O 0.59562 0.44066 0.37005 0.0
O82 O 0.6859 0.49659 0.34524 0.0
O83 O 0.61252 0.44103 0.28082 0.0
O84 O 0.66664 0.47555 0.26307 0.0
C85 C 0.64414 0.49174 0.50302 0.0
C86 C 0.62504 0.49774 0.16605 0.0
C87 C 0.58661 0.5005 0.37666 0.0
C88 C 0.67687 0.55533 0.32876 0.0
C89 C 0.59771 0.43024 0.32308 0.0
C90 C 0.68443 0.48452 0.29761 0.0
O91 O 0.62472 0.47832 0.47846 0.0
O92 O 0.5335 0.15355 0.42102 0.0
Zn93 Zn 0.52617 0.15535 0.33182 0.0
O94 O 0.54697 0.15113 0.2786 0.0
Zn95 Zn 0.53031 0.12206 0.23553 0.0
Zn96 Zn 0.57142 0.15134 0.32751 0.0
Zn97 Zn 0.55942 0.17543 0.21791 0.0
O98 O 0.53735 0.12566 0.14424 0.0
O99 O 0.54896 0.16269 0.13246 0.0
O100 O 0.49338 0.13257 0.31185 0.0
O101 O 0.49637 0.10968 0.24241 0.0
O102 O 0.53715 0.09895 0.27216 0.0
O103 O 0.5667 0.11941 0.33539 0.0
O104 O 0.60283 0.17378 0.29235 0.0
O105 O 0.52916 0.18608 0.31987 0.0
O106 O 0.59362 0.19072 0.21774 0.0
O107 O 0.55072 0.19941 0.23491 0.0
C108 C 0.55189 0.15695 0.4474 0.0
C109 C 0.54246 0.14291 0.10973 0.0
C110 C 0.55201 0.10034 0.31134 0.0
C111 C 0.48424 0.11561 0.27438 0.0
C112 C 0.60859 0.18847 0.24841 0.0
C113 C 0.5389 0.20143 0.27827 0.0
O114 O 0.56893 0.15899 0.41632 0.0
O115 O 0.89843 0.40077 0.25941 0.0
Zn116 Zn 0.88884 0.3888 0.17136 0.0
O117 O 0.89704 0.41354 0.11353 0.0
Zn118 Zn 0.92379 0.41831 0.06904 0.0
Zn119 Zn 0.90639 0.44201 0.15705 0.0
Zn120 Zn 0.87223 0.40688 0.05729 0.0
O121 O 0.92225 0.42735 0.98115 0.0
O122 O 0.88463 0.41313 0.96847 0.0
O123 O 0.90293 0.36991 0.14596 0.0
O124 O 0.92533 0.38938 0.0663 0.0
O125 O 0.95091 0.44172 0.11785 0.0
O126 O 0.93844 0.46583 0.1336 0.0
O127 O 0.88387 0.45285 0.14504 0.0
O128 O 0.8551 0.36721 0.16628 0.0
O129 O 0.85942 0.42764 0.07656 0.0
O130 O 0.8457 0.37454 0.07254 0.0
C131 C 0.90552 0.42068 0.28235 0.0
C132 C 0.90501 0.42258 0.94645 0.0
C133 C 0.95404 0.46059 0.14016 0.0
C134 C 0.91639 0.37183 0.10161 0.0
C135 C 0.86569 0.44497 0.11217 0.0
C136 C 0.84071 0.36218 0.12181 0.0
O137 O 0.90834 0.43734 0.2483 0.0
O138 O 0.31101 0.8298 0.45635 0.0
Zn139 Zn 0.30668 0.82731 0.54983 0.0
O140 O 0.33606 0.83844 0.59219 0.0
Zn141 Zn 0.34639 0.8685 0.63144 0.0
Zn142 Zn 0.35875 0.84076 0.53275 0.0
Zn143 Zn 0.33235 0.8164 0.65476 0.0
O144 O 0.34871 0.86673 0.72565 0.0
O145 O 0.33648 0.8298 0.73904 0.0
O146 O 0.29324 0.84652 0.57668 0.0
O147 O 0.32216 0.87737 0.62074 0.0
O148 O 0.37716 0.89313 0.59734 0.0
O149 O 0.38517 0.87257 0.53174 0.0
O150 O 0.37205 0.82073 0.55396 0.0
O151 O 0.28315 0.79479 0.57449 0.0
O152 O 0.3553 0.80626 0.64505 0.0
O153 O 0.30093 0.78918 0.65409 0.0
C154 C 0.32767 0.83247 0.42216 0.0
C155 C 0.34318 0.84962 0.76129 0.0
C156 C 0.39051 0.89154 0.55791 0.0
C157 C 0.30137 0.8661 0.60246 0.0
C158 C 0.36963 0.80885 0.60262 0.0
C159 C 0.2833 0.78259 0.61982 0.0
O160 O 0.34623 0.83529 0.44596 0.0
O161 O 0.07101 0.50818 0.91091 0.0
Zn162 Zn 0.07558 0.51439 0.81746 0.0
O163 O 0.09179 0.49997 0.78154 0.0
Zn164 Zn 0.06975 0.4711 0.74201 0.0
Zn165 Zn 0.10804 0.49441 0.84617 0.0
Zn166 Zn 0.11322 0.5199 0.71988 0.0
O167 O 0.0721 0.47386 0.64749 0.0
O168 O 0.10192 0.50872 0.63308 0.0
O169 O 0.04549 0.50074 0.77087 0.0
O170 O 0.03786 0.46492 0.76003 0.0
O171 O 0.07397 0.4446 0.77005 0.0
O172 O 0.10115 0.4622 0.84177 0.0
O173 O 0.14228 0.51361 0.83515 0.0
O174 O 0.09297 0.54881 0.802 0.0
O175 O 0.14468 0.52424 0.73553 0.0
O176 O 0.11632 0.55071 0.72572 0.0
C177 C 0.0814 0.50183 0.94878 0.0
C178 C 0.08534 0.49023 0.61144 0.0
C179 C 0.08761 0.44431 0.81099 0.0
C180 C 0.03202 0.48011 0.75361 0.0
C181 C 0.15402 0.52255 0.7857 0.0
C182 C 0.10805 0.5601 0.76047 0.0
O183 O 0.09664 0.49725 0.93037 0.0
O184 O 0.47529 0.63208 0.63456 0.0
Zn185 Zn 0.47993 0.64264 0.72346 0.0
O186 O 0.45719 0.61869 0.77603 0.0
Zn187 Zn 0.47253 0.6079 0.82973 0.0
Zn188 Zn 0.43487 0.59268 0.72814 0.0
Zn189 Zn 0.44185 0.63079 0.82523 0.0
O190 O 0.45883 0.60219 0.91498 0.0
O191 O 0.44589 0.62681 0.91574 0.0
O192 O 0.51205 0.65366 0.75448 0.0
O193 O 0.50568 0.63183 0.83823 0.0
O194 O 0.47117 0.57987 0.79313 0.0
O195 O 0.44043 0.56606 0.73227 0.0
O196 O 0.40214 0.58386 0.74876 0.0
O197 O 0.47621 0.6702 0.72504 0.0
O198 O 0.408 0.61315 0.80909 0.0
O199 O 0.45265 0.66372 0.80478 0.0
C200 C 0.45772 0.61587 0.6079 0.0
C201 C 0.45071 0.6131 0.94378 0.0
C202 C 0.45701 0.56459 0.75576 0.0
C203 C 0.51925 0.64846 0.80348 0.0
C204 C 0.3945 0.59473 0.78005 0.0
C205 C 0.46561 0.67667 0.7614 0.0
O206 O 0.44045 0.60103 0.63849 0.0
C207 C 0.08295 0.27241 0.00884 0.0
C208 C 0.07404 0.25431 0.96549 0.0
C209 C 0.0895 0.29462 -0.01056 0.0
C210 C 0.09676 0.33092 0.84875 0.0
H211 H 0.07472 0.36 0.96427 0.0
C212 C 0.07812 0.40414 0.78382 0.0
C213 C 0.08784 0.42296 0.82498 0.0
C214 C 0.07886 0.38424 0.79818 0.0
C215 C 0.08108 0.35214 0.93172 0.0
H216 H 0.06686 0.2456 0.86701 0.0
H217 H 0.07744 0.284 0.83363 0.0
H218 H 0.07398 0.32502 -0.00496 0.0
H219 H 0.10586 0.43563 0.91343 0.0
H220 H 0.10671 0.40096 0.93852 0.0
H221 H 0.10288 0.3579 0.78456 0.0
C222 C 0.0798 0.28131 0.88241 0.0
C223 C 0.08092 0.3322 0.94952 0.0
C224 C 0.07366 0.25919 0.90165 0.0
C225 C 0.09823 0.42148 0.88056 0.0
C226 C 0.09869 0.40161 0.89516 0.0
C227 C 0.09662 0.35079 0.83061 0.0
C228 C 0.08683 0.29909 0.92651 0.0
C229 C 0.08876 0.3213 0.90839 0.0
C230 C 0.08897 0.3828 0.85431 0.0
C231 C 0.0888 0.36155 0.87207 0.0
H232 H 0.08374 0.26922 0.05825 0.0
H233 H 0.0956 0.30807 0.02438 0.0
H234 H 0.10311 0.32313 0.81605 0.0
H235 H 0.0701 0.40483 0.74054 0.0
H236 H 0.07113 0.36984 0.76615 0.0
C237 C 0.71467 0.78397 0.98868 0.0
C238 C 0.73033 0.77709 0.97002 0.0
C239 C 0.69134 0.77045 0.97395 0.0
C240 C 0.64807 0.71125 0.93036 0.0
H241 H 0.61399 0.73865 0.86275 0.0
C242 C 0.55874 0.68208 0.78735 0.0
C243 C 0.54351 0.66283 0.82272 0.0
C244 C 0.58124 0.69637 0.80782 0.0
C245 C 0.62334 0.73076 0.88127 0.0
H246 H 0.73367 0.75062 0.92105 0.0
H247 H 0.69343 0.72744 0.8954 0.0
H248 H 0.65385 0.76321 0.89528 0.0
H249 H 0.54008 0.64347 0.90723 0.0
H250 H 0.57918 0.66841 0.94286 0.0
H251 H 0.61795 0.67883 0.91484 0.0
C252 C 0.699 0.74304 0.92204 0.0
C253 C 0.64604 0.74483 0.90062 0.0
C254 C 0.72216 0.75647 0.93649 0.0
C255 C 0.55136 0.65807 0.87859 0.0
C256 C 0.57382 0.67234 0.89901 0.0
C257 C 0.62544 0.69722 0.91111 0.0
C258 C 0.68331 0.74979 0.94071 0.0
C259 C 0.65872 0.73518 0.92464 0.0
C260 C 0.58899 0.69171 0.86402 0.0
C261 C 0.61287 0.70679 0.88585 0.0
H262 H 0.72041 0.79975 0.01448 0.0
H263 H 0.67958 0.77601 -0.01083 0.0
H264 H 0.65733 0.70332 0.94935 0.0
H265 H 0.55326 0.68627 0.7441 0.0
H266 H 0.59263 0.71097 0.77934 0.0
C267 C 0.18052 0.91971 0.89439 0.0
C268 C 0.18887 0.92579 0.95597 0.0
C269 C 0.18858 0.90872 0.85532 0.0
C270 C 0.20662 0.88338 0.77892 0.0
H271 H 0.27198 0.90889 0.80225 0.0
C272 C 0.26195 0.85764 0.63023 0.0
C273 C 0.28538 0.87375 0.62316 0.0
C274 C 0.24781 0.86299 0.66539 0.0
C275 C 0.2538 0.90189 0.79435 0.0
H276 H 0.20973 0.92222 0.02746 0.0
H277 H 0.22304 0.90209 0.96002 0.0
H278 H 0.25037 0.91659 0.87906 0.0
H279 H 0.31171 0.90892 0.64091 0.0
H280 H 0.28678 0.91864 0.69968 0.0
H281 H 0.21046 0.86967 0.69225 0.0
C282 C 0.2111 0.90683 0.94101 0.0
C283 C 0.24124 0.90583 0.83941 0.0
C284 C 0.20328 0.91815 0.97993 0.0
C285 C 0.29381 0.89604 0.64634 0.0
C286 C 0.27957 0.9015 0.68064 0.0
C287 C 0.21928 0.87965 0.73331 0.0
C288 C 0.20489 0.90322 0.87727 0.0
C289 C 0.2175 0.89675 0.83223 0.0
C290 C 0.25673 0.88468 0.69336 0.0
C291 C 0.24308 0.88904 0.74028 0.0
H292 H 0.1692 0.9251 0.87445 0.0
H293 H 0.18335 0.90625 0.80665 0.0
H294 H 0.18833 0.87597 0.77206 0.0
H295 H 0.2549 0.84028 0.61295 0.0
H296 H 0.23034 0.84959 0.67412 0.0
C297 C 0.44783 0.08244 0.23429 0.0
C298 C 0.45935 0.10418 0.26241 0.0
C299 C 0.42499 0.07295 0.21558 0.0
C300 C 0.37378 0.0804 0.22818 0.0
H301 H 0.35712 0.04634 0.07199 0.0
C302 C 0.29071 0.05634 0.08962 0.0
C303 C 0.27695 0.03269 0.07905 0.0
C304 C 0.31324 0.06541 0.11101 0.0
C305 C 0.3616 0.05582 0.11566 0.0
H306 H 0.45584 0.13278 0.29461 0.0
H307 H 0.41641 0.11672 0.25998 0.0
H308 H 0.39546 0.06082 0.11487 0.0
H309 H 0.27613 0.00012 0.07979 0.0
H310 H 0.31571 0.01612 0.11519 0.0
H311 H 0.33994 0.07591 0.22721 0.0
C312 C 0.42466 0.10661 0.25375 0.0
C313 C 0.38346 0.06392 0.1407 0.0
C314 C 0.44735 0.11589 0.2735 0.0
C315 C 0.28635 0.01842 0.08778 0.0
C316 C 0.30897 0.02754 0.10782 0.0
C317 C 0.35205 0.07264 0.20244 0.0
C318 C 0.4133 0.08519 0.22343 0.0
C319 C 0.38982 0.07622 0.19752 0.0
C320 C 0.32244 0.05102 0.12068 0.0
C321 C 0.34578 0.0602 0.14618 0.0
H322 H 0.4566 0.07293 0.22568 0.0
H323 H 0.41664 0.05614 0.19404 0.0
H324 H 0.37786 0.08944 0.27247 0.0
H325 H 0.28382 0.06768 0.08359 0.0
H326 H 0.32343 0.08361 0.1204 0.0
C327 C 0.90987 0.33259 0.12454 0.0
C328 C 0.92127 0.35306 0.09007 0.0
C329 C 0.91442 0.31484 0.11362 0.0
C330 C 0.91943 0.2758 0.05826 0.0
H331 H 0.98356 0.29301 0.04999 0.0
C332 C 0.95352 0.2128 0.00876 0.0
C333 C 0.97161 0.21582 0.04799 0.0
C334 C 0.94537 0.22825 0.0113 0.0
C335 C 0.96557 0.28795 0.0522 0.0
H336 H 0.94613 0.37076 0.01631 0.0
H337 H 0.95413 0.33978 -0.0024 0.0
H338 H 0.97319 0.3227 0.05745 0.0
H339 H -0.00565 0.23662 0.12313 0.0
H340 H 0.98017 0.26327 0.12724 0.0
H341 H 0.91197 0.24092 0.05428 0.0
C342 C 0.94176 0.33757 0.03327 0.0
C343 C 0.95964 0.30495 0.05585 0.0
C344 C 0.93714 0.35528 0.04396 0.0
C345 C 0.9806 0.2339 0.09161 0.0
C346 C 0.97257 0.24928 0.09387 0.0
C347 C 0.9254 0.25874 0.05413 0.0
C348 C 0.93054 0.31723 0.06824 0.0
C349 C 0.93653 0.29906 0.0598 0.0
C350 C 0.95529 0.24695 0.05281 0.0
C351 C 0.94855 0.2647 0.05223 0.0
H352 H 0.89746 0.33026 0.16023 0.0
H353 H 0.90573 0.29947 0.14181 0.0
H354 H 0.90147 0.27082 0.06068 0.0
H355 H 0.94621 0.19902 0.97475 0.0
H356 H 0.93197 0.22609 0.97923 0.0
C357 C 0.81541 0.74801 0.14843 0.0
C358 C 0.80999 0.74856 0.08501 0.0
C359 C 0.80583 0.72728 0.18069 0.0
C360 C 0.77534 0.6647 0.16686 0.0
H361 H 0.73911 0.66577 0.30685 0.0
C362 C 0.68936 0.59576 0.29829 0.0
C363 C 0.695 0.57917 0.31644 0.0
C364 C 0.70646 0.6174 0.27869 0.0
C365 C 0.74932 0.66531 0.26827 0.0
H366 H 0.79212 0.72758 0.00427 0.0
H367 H 0.77573 0.69127 0.06067 0.0
H368 H 0.76552 0.70149 0.25343 0.0
H369 H 0.72308 0.57252 0.33025 0.0
H370 H 0.75282 0.61021 0.29466 0.0
H371 H 0.75875 0.6284 0.18114 0.0
C372 C 0.78718 0.70697 0.08535 0.0
C373 C 0.7645 0.68569 0.23803 0.0
C374 C 0.79651 0.72776 0.05316 0.0
C375 C 0.71817 0.58494 0.31678 0.0
C376 C 0.73519 0.60643 0.2961 0.0
C377 C 0.76044 0.64435 0.19787 0.0
C378 C 0.79099 0.70669 0.14994 0.0
C379 C 0.7773 0.68548 0.18632 0.0
C380 C 0.72942 0.62267 0.27594 0.0
C381 C 0.74697 0.64447 0.24796 0.0
H382 H 0.82583 0.76369 0.17441 0.0
H383 H 0.80919 0.72742 0.23038 0.0
H384 H 0.78502 0.66416 0.12704 0.0
H385 H 0.67167 0.59181 0.29762 0.0
H386 H 0.70163 0.62967 0.26304 0.0
C387 C 0.01135 0.49397 0.68501 0.0
C388 C 0.01398 0.47572 0.70686 0.0
C389 C 0.00208 0.49289 0.62563 0.0
C390 C 0.00619 0.47038 0.47837 0.0
H391 H 0.96444 0.4889 0.41245 0.0
C392 C 0.98022 0.45865 0.21943 0.0
C393 C 0.96991 0.47055 0.19411 0.0
C394 C 0.98789 0.46235 0.28132 0.0
C395 C 0.97654 0.48412 0.42979 0.0
H396 H 0.00511 0.44054 0.68831 0.0
H397 H 0.98924 0.43889 0.58483 0.0
H398 H 0.96777 0.48615 0.52545 0.0
H399 H 0.96304 0.49827 0.21078 0.0
H400 H 0.9779 0.50585 0.31727 0.0
H401 H 0.01555 0.46879 0.38415 0.0
C402 C -0.00512 0.45418 0.61297 0.0
C403 C 0.97819 0.48231 0.49465 0.0
C404 C 0.00387 0.45513 0.67247 0.0
C405 C 0.97048 0.48848 0.22919 0.0
C406 C 0.97862 0.49252 0.29085 0.0
C407 C 0.00478 0.47245 0.4138 0.0
C408 C -0.00467 0.47357 0.58759 0.0
C409 C -0.00726 0.47504 0.51931 0.0
C410 C 0.98607 0.47851 0.31905 0.0
C411 C 0.98964 0.47897 0.38826 0.0
H412 H 0.0186 0.50997 0.71069 0.0
H413 H 0.00234 0.50798 0.60721 0.0
H414 H 0.01807 0.46539 0.49645 0.0
H415 H 0.98036 0.44487 0.19371 0.0
H416 H -0.00649 0.45114 0.30048 0.0
C417 C 0.48281 0.54802 0.74837 0.0
C418 C 0.46309 0.54822 0.72785 0.0
C419 C 0.49289 0.53851 0.71083 0.0
C420 C 0.48625 0.50435 0.56787 0.0
H421 H 0.55121 0.5478 0.54963 0.0
C422 C 0.54975 0.48562 0.43488 0.0
C423 C 0.568 0.50368 0.40232 0.0
C424 C 0.53426 0.48936 0.46887 0.0
C425 C 0.53304 0.53562 0.55358 0.0
H426 H 0.43697 0.5361 0.65531 0.0
H427 H 0.4546 0.51961 0.59002 0.0
H428 H 0.52891 0.55501 0.62631 0.0
H429 H 0.58332 0.53944 0.37638 0.0
H430 H 0.55609 0.54598 0.43575 0.0
H431 H 0.4905 0.48511 0.49433 0.0
C432 C 0.46236 0.52692 0.63485 0.0
C433 C 0.52033 0.53952 0.59838 0.0
C434 C 0.45224 0.53639 0.67246 0.0
C435 C 0.56951 0.52521 0.40112 0.0
C436 C 0.55403 0.52899 0.43551 0.0
C437 C 0.49904 0.50037 0.52311 0.0
C438 C 0.48344 0.529 0.65213 0.0
C439 C 0.49683 0.5239 0.60629 0.0
C440 C 0.53669 0.51127 0.47129 0.0
C441 C 0.52258 0.51599 0.51554 0.0
H442 H 0.49146 0.55669 0.79116 0.0
H443 H 0.50881 0.53978 0.72614 0.0
H444 H 0.46816 0.49205 0.57278 0.0
H445 H 0.54798 0.46875 0.43634 0.0
H446 H 0.52117 0.47538 0.49609 0.0
C447 C 0.54099 0.05937 0.30166 0.0
C448 C 0.5484 0.07887 0.33922 0.0
C449 C 0.53029 0.03762 0.32875 0.0
C450 C 0.50966 0.00636 0.4826 0.0
H451 H 0.45701 0.96635 0.38018 0.0
C452 C 0.4211 0.93288 0.57206 0.0
C453 C 0.41238 0.91199 0.53963 0.0
C454 C 0.44133 0.95221 0.55193 0.0
C455 C 0.47174 0.97724 0.40913 0.0
H456 H 0.55234 0.09133 0.43453 0.0
H457 H 0.5326 0.05355 0.48165 0.0
H458 H 0.48744 0.00141 0.33578 0.0
H459 H 0.41847 0.89491 0.46172 0.0
H460 H 0.45323 0.92862 0.42638 0.0
H461 H 0.49261 0.98235 0.55723 0.0
C462 C 0.53554 0.05471 0.43162 0.0
C463 C 0.48943 -0.0027 0.38351 0.0
C464 C 0.54693 0.07649 0.40461 0.0
C465 C 0.42459 0.91071 0.48779 0.0
C466 C 0.44453 0.92999 0.46741 0.0
C467 C 0.49163 0.98639 0.50864 0.0
C468 C 0.52591 0.03496 0.39366 0.0
C469 C 0.50862 0.01229 0.41984 0.0
C470 C 0.45292 0.95096 0.4987 0.0
C471 C 0.4725 0.97177 0.47205 0.0
H472 H 0.5421 0.06085 0.25108 0.0
H473 H 0.52402 0.02287 0.29817 0.0
H474 H 0.52422 0.01726 0.51193 0.0
H475 H 0.41217 0.93438 0.61234 0.0
H476 H 0.44744 0.96831 0.57647 0.0
C477 C 0.18891 0.08212 0.11817 0.0
C478 C 0.19262 0.07386 0.06172 0.0
C479 C 0.18131 0.09794 0.11768 0.0
C480 C 0.16432 0.1313 0.01048 0.0
H481 H 0.11617 0.11316 0.13399 0.0
C482 C 0.09878 0.1633 0.004 0.0
C483 C 0.07616 0.14725 0.02101 0.0
C484 C 0.11642 0.15835 0.01243 0.0
C485 C 0.12941 0.11832 0.09878 0.0
H486 H 0.19303 0.07669 0.9607 0.0
H487 H 0.17848 0.10313 0.9593 0.0
H488 H 0.14265 0.09914 0.14273 0.0
H489 H 0.05411 0.11314 0.05788 0.0
H490 H 0.08451 0.10412 0.07004 0.0
H491 H 0.1496 0.14896 0.96383 0.0
C492 C 0.18209 0.09822 0.00425 0.0
C493 C 0.14505 0.11067 0.10455 0.0
C494 C 0.19037 0.08294 0.00489 0.0
C495 C 0.07142 0.12597 0.04502 0.0
C496 C 0.08893 0.1209 0.05254 0.0
C497 C 0.14834 0.13864 0.00408 0.0
C498 C 0.17641 0.10508 0.06064 0.0
C499 C 0.16241 0.11656 0.05967 0.0
C500 C 0.11173 0.13714 0.03733 0.0
C501 C 0.1303 0.13166 0.04725 0.0
H502 H 0.19083 0.07551 0.16262 0.0
H503 H 0.17802 0.10349 0.16211 0.0
H504 H 0.17771 0.13661 0.97568 0.0
H505 H 0.10296 0.17993 0.9857 0.0
H506 H 0.13378 0.17133 0.00064 0.0
C507 C 0.82007 0.91298 0.03445 0.0
C508 C 0.82218 0.90196 0.9811 0.0
C509 C 0.82995 0.93685 0.03526 0.0
C510 C 0.85149 0.98924 0.01983 0.0
H511 H 0.91363 0.01366 0.95853 0.0
C512 C 0.92277 0.08623 0.00966 0.0
C513 C 0.94437 0.09093 0.03192 0.0
C514 C 0.90472 0.06361 0.00455 0.0
C515 C 0.89633 0.00711 0.97576 0.0
H516 H 0.83342 0.90661 0.88443 0.0
H517 H 0.85008 0.94805 0.88534 0.0
H518 H 0.88576 0.97349 0.94226 0.0
H519 H 0.96357 0.07557 0.06907 0.0
H520 H 0.93224 0.0363 0.05942 0.0
H521 H 0.86263 0.02319 0.05449 0.0
C522 C 0.8415 0.93847 0.92709 0.0
C523 C 0.88026 0.98417 0.96576 0.0
C524 C 0.8319 0.91476 0.9265 0.0
C525 C 0.94725 0.07262 0.05132 0.0
C526 C 0.92933 0.0501 0.04568 0.0
C527 C 0.86764 0.01243 0.02927 0.0
C528 C 0.84184 0.94987 0.98255 0.0
C529 C 0.85773 0.97487 0.98822 0.0
C530 C 0.90809 0.04537 0.021 0.0
C531 C 0.8903 0.02139 0.00829 0.0
H532 H 0.81266 0.90348 0.07719 0.0
H533 H 0.82995 0.94518 0.07867 0.0
H534 H 0.83425 0.98249 0.03768 0.0
H535 H 0.91994 0.09996 -0.00531 0.0
H536 H 0.88848 0.06033 0.9853 0.0
C537 C 0.91988 0.88654 0.98134 0.0
C538 C 0.90643 0.86743 0.01944 0.0
C539 C 0.94378 0.89812 0.98587 0.0
C540 C 0.99134 0.88997 0.03434 0.0
H541 H 0.02646 0.95638 0.03935 0.0
C542 C 0.09015 0.96606 0.08345 0.0
C543 C 0.1018 0.95894 0.04278 0.0
C544 C 0.06622 0.95518 0.08235 0.0
C545 C 0.01684 0.93783 0.03844 0.0
H546 H 0.90756 0.84548 0.09204 0.0
H547 H 0.94918 0.86562 0.09953 0.0
H548 H 0.98458 0.93683 0.03367 0.0
H549 H 0.09741 0.93471 0.96942 0.0
H550 H 0.0558 0.91578 0.96789 0.0
H551 H 0.0235 0.8909 0.03908 0.0
C552 C 0.94124 0.87157 0.06608 0.0
C553 C -0.00706 0.92667 0.03454 0.0
C554 C 0.91739 0.86011 0.0619 0.0
C555 C 0.08901 0.94065 0.0014 0.0
C556 C 0.06515 0.92969 0.0007 0.0
C557 C 0.0152 0.90111 0.03774 0.0
C558 C 0.95467 0.89069 0.02818 0.0
C559 C 0.97998 0.90263 0.0324 0.0
C560 C 0.05352 0.93685 0.04106 0.0
C561 C 0.02818 0.92514 0.03962 0.0
H562 H 0.91197 0.89265 0.94826 0.0
H563 H 0.95376 0.91269 0.95567 0.0
H564 H 0.98179 0.87142 0.0323 0.0
H565 H 0.09951 0.98013 0.11579 0.0
H566 H 0.05762 0.96091 0.11426 0.0
C567 C 0.72531 0.49399 0.31092 0.0
C568 C 0.70416 0.48179 0.27964 0.0
C569 C 0.74426 0.49245 0.2909 0.0
C570 C 0.76659 0.47672 0.15254 0.0
H571 H 0.80648 0.47118 0.27336 0.0
C572 C 0.82908 0.44476 0.08957 0.0
C573 C 0.85022 0.45442 0.12118 0.0
C574 C 0.81295 0.45119 0.10515 0.0
C575 C 0.79574 0.47311 0.239 0.0
H576 H 0.68625 0.45796 0.2037 0.0
H577 H 0.71908 0.45501 0.16972 0.0
H578 H 0.77473 0.4757 0.30996 0.0
H579 H 0.87149 0.47946 0.19132 0.0
H580 H 0.84339 0.49075 0.21799 0.0
H581 H 0.78736 0.47366 0.0816 0.0
C582 C 0.72118 0.46615 0.20883 0.0
C583 C 0.77752 0.47566 0.26001 0.0
C584 C 0.70229 0.4677 0.22872 0.0
C585 C 0.85534 0.47156 0.16627 0.0
C586 C 0.83918 0.47793 0.18192 0.0
C587 C 0.78478 0.47412 0.13154 0.0
C588 C 0.74245 0.47867 0.23924 0.0
C589 C 0.76256 0.47721 0.21703 0.0
C590 C 0.8176 0.46739 0.15268 0.0
C591 C 0.79941 0.47203 0.17455 0.0
H592 H 0.72738 0.50507 0.35013 0.0
H593 H 0.76045 0.50243 0.31507 0.0
H594 H 0.75564 0.47832 0.1182 0.0
H595 H 0.82456 0.43154 0.05455 0.0
H596 H 0.79642 0.44265 0.082 0.0
C597 C 0.58438 0.39386 0.26365 0.0
C598 C 0.58319 0.40511 0.31775 0.0
C599 C 0.5721 0.37006 0.25982 0.0
C600 C 0.53877 0.3194 0.25276 0.0
H601 H 0.54766 0.28941 0.39602 0.0
C602 C 0.52606 0.22597 0.33276 0.0
C603 C 0.5368 0.22219 0.2813 0.0
C604 C 0.52532 0.24623 0.33753 0.0
C605 C 0.54455 0.29737 0.35609 0.0
H606 H 0.56731 0.4002 0.40915 0.0
H607 H 0.5458 0.3584 0.40236 0.0
H608 H 0.55743 0.32926 0.40434 0.0
H609 H 0.55432 0.2363 0.19328 0.0
H610 H 0.55317 0.27169 0.20194 0.0
H611 H 0.52703 0.28776 0.20361 0.0
C612 C 0.55643 0.36812 0.3632 0.0
C613 C 0.5501 0.32021 0.36088 0.0
C614 C 0.56871 0.39203 0.367 0.0
C615 C 0.54602 0.23872 0.23366 0.0
C616 C 0.54517 0.25891 0.23831 0.0
C617 C 0.53329 0.29658 0.24791 0.0
C618 C 0.55834 0.35691 0.30997 0.0
C619 C 0.54806 0.33169 0.30858 0.0
C620 C 0.53515 0.26302 0.29077 0.0
C621 C 0.5369 0.28562 0.29889 0.0
H622 H 0.59525 0.4034 0.22465 0.0
H623 H 0.57424 0.36196 0.21856 0.0
H624 H 0.53661 0.32771 0.21204 0.0
H625 H 0.51866 0.21351 0.37014 0.0
H626 H 0.51737 0.24892 0.37826 0.0
C627 C 0.6506 0.20412 0.26945 0.0
C628 C 0.63308 0.20362 0.2325 0.0
C629 C 0.67364 0.21927 0.25517 0.0
C630 C 0.71891 0.26391 0.23851 0.0
H631 H 0.74024 0.27543 0.06644 0.0
C632 C 0.79956 0.33778 0.08849 0.0
C633 C 0.81761 0.34179 0.12912 0.0
C634 C 0.77747 0.31929 0.09874 0.0
C635 C 0.73449 0.27254 0.11466 0.0
H636 H 0.62613 0.21831 0.15064 0.0
H637 H 0.66608 0.24463 0.12631 0.0
H638 H 0.70094 0.24564 0.08927 0.0
H639 H 0.82679 0.32889 0.21077 0.0
H640 H 0.78855 0.29664 0.22783 0.0
H641 H 0.75223 0.29103 0.26396 0.0
C642 C 0.66209 0.23324 0.16594 0.0
C643 C 0.71201 0.25545 0.12776 0.0
C644 C 0.63913 0.21823 0.1803 0.0
C645 C 0.81325 0.32651 0.17893 0.0
C646 C 0.79127 0.30804 0.18897 0.0
C647 C 0.74135 0.28101 0.22542 0.0
C648 C 0.6796 0.23409 0.20345 0.0
C649 C 0.70392 0.25109 0.1898 0.0
C650 C 0.77303 0.3044 0.14966 0.0
C651 C 0.74937 0.28564 0.16332 0.0
H652 H 0.64653 0.19306 0.30988 0.0
H653 H 0.68679 0.2194 0.28463 0.0
H654 H 0.71309 0.26123 0.28667 0.0
H655 H 0.80233 0.34924 0.04976 0.0
H656 H 0.76375 0.31708 0.06788 0.0
C657 C 0.45502 0.70624 0.78844 0.0
C658 C 0.46656 0.69867 0.74901 0.0
C659 C 0.45267 0.7249 0.77134 0.0
C660 C 0.45381 0.76837 0.7319 0.0
H661 H 0.42788 0.75919 0.56484 0.0
C662 C 0.38424 0.78896 0.67062 0.0
C663 C 0.38504 0.79952 0.61325 0.0
C664 C 0.39987 0.78177 0.68365 0.0
C665 C 0.43556 0.76238 0.61102 0.0
H666 H 0.48634 0.70592 0.66321 0.0
H667 H 0.4821 0.73849 0.6334 0.0
H668 H 0.4473 0.73858 0.59682 0.0
H669 H 0.40268 0.81044 0.52399 0.0
H670 H 0.42988 0.79734 0.54667 0.0
H671 H 0.44089 0.7912 0.74712 0.0
C672 C 0.47469 0.72979 0.67713 0.0
C673 C 0.44674 0.75063 0.62936 0.0
C674 C 0.47713 0.71117 0.69437 0.0
C675 C 0.40159 0.80231 0.56858 0.0
C676 C 0.41719 0.79491 0.58154 0.0
C677 C 0.44261 0.78008 0.7136 0.0
C678 C 0.46178 0.73634 0.71444 0.0
C679 C 0.45509 0.75278 0.69086 0.0
C680 C 0.41661 0.78485 0.63957 0.0
C681 C 0.43253 0.7764 0.65395 0.0
H682 H 0.44684 0.69712 0.83108 0.0
H683 H 0.44244 0.7294 0.80084 0.0
H684 H 0.46045 0.77065 0.77918 0.0
H685 H 0.37174 0.7865 0.70613 0.0
H686 H 0.39868 0.77355 0.72816 0.0
C687 C 0.12209 0.59415 0.69218 0.0
C688 C 0.11733 0.58485 0.75278 0.0
C689 C 0.13545 0.61774 0.68349 0.0
C690 C 0.18437 0.66416 0.75508 0.0
H691 H 0.17738 0.702 0.63039 0.0
C692 C 0.2589 0.75388 0.69971 0.0
C693 C 0.26214 0.76132 0.6372 0.0
C694 C 0.23891 0.73419 0.7179 0.0
C695 C 0.1797 0.69159 0.66492 0.0
H696 H 0.12144 0.59271 0.85188 0.0
H697 H 0.14555 0.63426 0.83668 0.0
H698 H 0.1447 0.66453 0.65681 0.0
H699 H 0.2469 0.7541 0.54468 0.0
H700 H 0.21233 0.7188 0.57559 0.0
H701 H 0.21952 0.69006 0.76058 0.0
C702 C 0.13863 0.62324 0.79604 0.0
C703 C 0.16091 0.67028 0.68052 0.0
C704 C 0.1248 0.59957 0.80475 0.0
C705 C 0.24485 0.7487 0.59315 0.0
C706 C 0.22496 0.72861 0.61113 0.0
C707 C 0.2032 0.6852 0.73881 0.0
C708 C 0.14467 0.63239 0.73528 0.0
C709 C 0.16317 0.6563 0.72529 0.0
C710 C 0.22178 0.72104 0.6738 0.0
C711 C 0.20123 0.69914 0.69303 0.0
H712 H 0.11646 0.58305 0.65143 0.0
H713 H 0.13999 0.62431 0.63621 0.0
H714 H 0.18672 0.65348 0.78869 0.0
H715 H 0.2717 0.76352 0.73509 0.0
H716 H 0.2369 0.72937 0.76683 0.0
C717 C 0.35365 0.56506 0.75566 0.0
C718 C 0.36955 0.58637 0.78166 0.0
C719 C 0.33019 0.55769 0.75617 0.0
C720 C 0.29028 0.57976 0.76423 0.0
H721 H 0.24531 0.51791 0.81348 0.0
C722 C 0.1888 0.52499 0.83614 0.0
C723 C 0.17886 0.5304 0.78587 0.0
C724 C 0.21204 0.53158 0.83509 0.0
C725 C 0.2577 0.53526 0.79986 0.0
H726 H 0.37318 0.61657 0.82897 0.0
H727 H 0.33244 0.60373 0.82955 0.0
H728 H 0.28603 0.52961 0.8127 0.0
H729 H 0.18567 0.54724 0.69544 0.0
H730 H 0.22625 0.55886 0.69398 0.0
H731 H 0.26203 0.5855 0.75177 0.0
C732 C 0.3381 0.59279 0.80848 0.0
C733 C 0.28095 0.54187 0.79884 0.0
C734 C 0.36146 0.60005 0.80846 0.0
C735 C 0.19276 0.5428 0.73494 0.0
C736 C 0.21603 0.54954 0.73417 0.0
C737 C 0.26704 0.5731 0.76471 0.0
C738 C 0.32223 0.57159 0.78211 0.0
C739 C 0.29748 0.56424 0.78141 0.0
C740 C 0.22587 0.54388 0.78405 0.0
C741 C 0.25052 0.55082 0.78284 0.0
H742 H 0.3593 0.5541 0.73469 0.0
H743 H 0.31831 0.54132 0.7352 0.0
H744 H 0.30263 0.59706 0.75004 0.0
H745 H 0.1786 0.51543 0.87607 0.0
H746 H 0.21923 0.52721 0.87452 0.0
C747 C 0.01204 0.14867 0.75346 0.0
C748 C 0.00059 0.15793 0.78667 0.0
C749 C 0.0109 0.14747 0.68834 0.0
C750 C 0.01115 0.18022 0.56083 0.0
H751 H -0.00738 0.1267 0.45625 0.0
C752 C 0.01557 0.18655 0.29255 0.0
C753 C 0.02056 0.17161 0.25937 0.0
C754 C 0.01187 0.18406 0.35693 0.0
C755 C -0.00178 0.14186 0.48484 0.0
H756 H 0.97825 0.17233 0.77879 0.0
H757 H 0.97697 0.17097 0.66404 0.0
H758 H 0.98652 0.12213 0.56935 0.0
H759 H 0.02659 0.14303 0.26721 0.0
H760 H 0.02145 0.13946 0.3804 0.0
H761 H 0.02415 0.20023 0.47797 0.0
C762 C 0.98645 0.16434 0.68879 0.0
C763 C -0.00556 0.13915 0.54927 0.0
C764 C 0.98715 0.16506 0.75409 0.0
C765 C 0.02262 0.15467 0.29185 0.0
C766 C 0.01942 0.15249 0.35653 0.0
C767 C 0.0154 0.18301 0.49673 0.0
C768 C -0.00133 0.15594 0.6557 0.0
C769 C 0.00088 0.15832 0.58745 0.0
C770 C 0.01358 0.16689 0.38967 0.0
C771 C 0.00901 0.16387 0.45791 0.0
H772 H 0.02239 0.14295 0.77775 0.0
H773 H 0.02054 0.14107 0.66333 0.0
H774 H 0.0166 0.19524 0.59 0.0
H775 H 0.01357 0.19957 0.2684 0.0
H776 H 0.00701 0.1952 0.38058 0.0
C777 C 0.8399 0.83204 0.7348 0.0
C778 C 0.82213 0.81476 0.7703 0.0
C779 C 0.83813 0.83222 0.66979 0.0
C780 C 0.796 0.8166 0.54755 0.0
H781 H 0.84575 0.82709 0.43629 0.0
C782 C 0.79073 0.81968 0.27628 0.0
C783 C 0.81123 0.83409 0.2446 0.0
C784 C 0.79082 0.81727 0.34136 0.0
C785 C 0.83182 0.82453 0.46677 0.0
H786 H 0.78891 0.78373 0.76578 0.0
H787 H 0.78569 0.78432 0.65158 0.0
H788 H 0.84874 0.82117 0.54752 0.0
H789 H 0.84734 0.85877 0.25546 0.0
H790 H 0.84732 0.85559 0.36893 0.0
H791 H 0.77937 0.82073 0.46725 0.0
C792 C 0.80097 0.7976 0.67437 0.0
C793 C 0.83349 0.82093 0.5303 0.0
C794 C 0.80292 0.79717 0.73945 0.0
C795 C 0.83137 0.84739 0.27902 0.0
C796 C 0.83138 0.84533 0.34387 0.0
C797 C 0.79443 0.82051 0.48394 0.0
C798 C 0.81841 0.81534 0.63924 0.0
C799 C 0.8157 0.81714 0.57128 0.0
C800 C 0.81137 0.8295 0.37552 0.0
C801 C 0.81248 0.82483 0.44297 0.0
H802 H 0.8549 0.84578 0.75742 0.0
H803 H 0.85175 0.84614 0.64363 0.0
H804 H 0.78216 0.81394 0.57858 0.0
H805 H 0.77505 0.8091 0.25044 0.0
H806 H 0.77511 0.80491 0.36425 0.0
C807 C 0.21786 0.01551 0.775 0.0
C808 C 0.19748 0.01105 0.8049 0.0
C809 C 0.21811 0.01236 0.71027 0.0
C810 C 0.17749 0.97999 0.58255 0.0
H811 H 0.22847 0.01785 0.47298 0.0
C812 C 0.17028 0.98299 0.31578 0.0
C813 C 0.18732 0.98257 0.27901 0.0
C814 C 0.17211 0.984 0.38083 0.0
C815 C 0.21427 0.00696 0.50339 0.0
H816 H 0.16202 0.00172 0.79069 0.0
H817 H 0.16269 -0.00271 0.67784 0.0
H818 H 0.23122 0.02694 0.58474 0.0
H819 H 0.21934 0.98226 0.2811 0.0
H820 H 0.22277 0.98453 0.39566 0.0
H821 H 0.16024 0.96062 0.50072 0.0
C822 C 0.17822 0.00223 0.70423 0.0
C823 C 0.21581 0.01216 0.56725 0.0
C824 C 0.17788 0.00502 0.76874 0.0
C825 C 0.20588 0.9824 0.30851 0.0
C826 C 0.20795 0.98387 0.37376 0.0
C827 C 0.17587 0.97499 0.5188 0.0
C828 C 0.19805 0.00496 0.67455 0.0
C829 C 0.19723 -0.00102 0.60731 0.0
C830 C 0.19122 0.985 0.41026 0.0
C831 C 0.19409 0.98863 0.47857 0.0
H832 H 0.23315 0.02001 0.80204 0.0
H833 H 0.23367 0.0146 0.68886 0.0
H834 H 0.16313 0.96904 0.61237 0.0
H835 H 0.15579 0.98311 0.29416 0.0
H836 H 0.15907 0.985 0.40802 0.0
C837 C 0.63016 0.4742 0.60791 0.0
C838 C 0.64574 0.49301 0.57191 0.0
C839 C 0.62945 0.4761 0.67276 0.0
C840 C 0.639 0.51704 0.79494 0.0
H841 H 0.63613 0.47017 0.90562 0.0
C842 C 0.63476 0.52039 0.06712 0.0
C843 C 0.62275 0.49927 0.09807 0.0
C844 C 0.63725 0.52103 0.00189 0.0
C845 C 0.63652 0.48323 0.87534 0.0
H846 H 0.67314 0.52844 0.57547 0.0
H847 H 0.67161 0.53185 0.68956 0.0
H848 H 0.6431 0.46866 0.79445 0.0
H849 H 0.60217 0.46253 0.08585 0.0
H850 H 0.60538 0.46365 0.97228 0.0
H851 H 0.63172 0.53126 0.87563 0.0
C852 C 0.66008 0.51564 0.66721 0.0
C853 C 0.64074 0.48245 0.81179 0.0
C854 C 0.66108 0.51361 0.60221 0.0
C855 C 0.61167 0.47901 0.06285 0.0
C856 C 0.61378 0.47967 -0.00207 0.0
C857 C 0.6345 0.51771 0.85867 0.0
C858 C 0.64406 0.49696 0.70283 0.0
C859 C 0.64175 0.49917 0.77092 0.0
C860 C 0.62751 0.50056 0.96692 0.0
C861 C 0.63286 0.50058 0.89941 0.0
H862 H 0.61814 0.45812 0.58578 0.0
H863 H 0.61686 0.46148 0.69919 0.0
H864 H 0.63951 0.53003 0.76408 0.0
H865 H 0.64363 0.53621 0.09357 0.0
H866 H 0.64793 0.53742 0.9795 0.0
C867 C 0.56545 0.14773 0.54523 0.0
C868 C 0.5525 0.15609 0.51581 0.0
C869 C 0.56368 0.14394 0.60958 0.0
C870 C 0.52494 0.13567 0.74191 0.0
H871 H 0.57783 0.14805 0.8428 0.0
C872 C 0.53532 0.15401 0.0054 0.0
C873 C 0.54081 0.14011 0.04173 0.0
C874 C 0.53471 0.15225 0.94052 0.0
C875 C 0.56292 0.1442 0.81473 0.0
H876 H 0.52854 0.16823 0.53009 0.0
H877 H 0.52632 0.16278 0.64309 0.0
H878 H 0.58221 0.15431 0.72988 0.0
H879 H 0.54968 0.11333 0.03986 0.0
H880 H 0.5495 0.11092 0.92503 0.0
H881 H 0.50611 0.12699 0.82794 0.0
C882 C 0.5371 0.15822 0.61633 0.0
C883 C 0.56536 0.14776 0.7503 0.0
C884 C 0.53855 0.16159 0.55185 0.0
C885 C 0.54535 0.12415 0.01249 0.0
C886 C 0.54527 0.12277 0.94732 0.0
C887 C 0.52263 0.13254 0.80642 0.0
C888 C 0.54921 0.14883 0.64562 0.0
C889 C 0.54647 0.14388 0.71339 0.0
C890 C 0.54004 0.13691 0.91127 0.0
C891 C 0.54167 0.13707 0.84305 0.0
H892 H 0.57614 0.1431 0.51818 0.0
H893 H 0.57305 0.13648 0.63062 0.0
H894 H 0.50993 0.13194 0.71454 0.0
H895 H 0.53159 0.16631 0.02714 0.0
H896 H 0.53082 0.16338 0.91306 0.0
C897 C 0.91537 0.44581 0.37661 0.0
C898 C 0.91058 0.42479 0.34992 0.0
C899 C 0.91909 0.4495 0.44079 0.0
C900 C 0.93291 0.42839 0.58424 0.0
H901 H 0.89688 0.45123 0.66596 0.0
C902 C 0.89025 0.42222 0.83866 0.0
C903 C 0.90878 0.42746 0.87869 0.0
C904 C 0.89368 0.42571 0.7743 0.0
C905 C 0.90709 0.44489 0.64379 0.0
H906 H 0.90703 0.39159 0.36924 0.0
H907 H 0.91366 0.39814 0.48169 0.0
H908 H 0.89766 0.44984 0.55214 0.0
H909 H 0.94561 0.44108 0.88257 0.0
H910 H 0.95152 0.44723 0.77003 0.0
H911 H 0.94157 0.42259 0.6762 0.0
C912 C 0.9145 0.41172 0.45272 0.0
C913 C 0.90773 0.44431 0.57865 0.0
C914 C 0.91049 0.40788 0.38847 0.0
C915 C 0.93091 0.43676 0.85304 0.0
C916 C 0.93433 0.44021 0.78859 0.0
C917 C 0.93232 0.42903 0.64956 0.0
C918 C 0.91847 0.43243 0.47956 0.0
C919 C 0.92017 0.43552 0.54827 0.0
C920 C 0.91571 0.43453 0.74857 0.0
C921 C 0.91887 0.43669 0.67988 0.0
H922 H 0.91583 0.45932 0.34818 0.0
H923 H 0.92235 0.46572 0.46018 0.0
H924 H 0.9429 0.42185 0.56187 0.0
H925 H 0.87299 0.41503 0.85681 0.0
H926 H 0.87893 0.42086 0.74446 0.0
C927 C 0.34603 0.84045 0.31688 0.0
C928 C 0.32666 0.83492 0.35372 0.0
C929 C 0.34627 0.84529 0.25348 0.0
C930 C 0.30948 0.83429 0.119 0.0
H931 H 0.36491 0.88394 0.04592 0.0
C932 C 0.33498 0.83237 0.86759 0.0
C933 C 0.34234 0.85189 0.82986 0.0
C934 C 0.3316 0.83332 0.93139 0.0
C935 C 0.34919 0.8703 0.0658 0.0
H936 H 0.2921 0.82958 0.35237 0.0
H937 H 0.29246 0.8377 0.2406 0.0
H938 H 0.36125 0.87996 0.15986 0.0
H939 H 0.35268 0.88798 0.83012 0.0
H940 H 0.3472 0.88971 0.94329 0.0
H941 H 0.29778 0.82414 0.02498 0.0
C942 C 0.30748 0.83844 0.26144 0.0
C943 C 0.34717 0.86789 0.13076 0.0
C944 C 0.30726 0.83372 0.32524 0.0
C945 C 0.34702 0.87267 0.85798 0.0
C946 C 0.34381 0.87366 0.92246 0.0
C947 C 0.31156 0.83663 0.05413 0.0
C948 C 0.32713 0.8446 0.22533 0.0
C949 C 0.32763 0.8494 0.15774 0.0
C950 C 0.33563 0.85383 0.95925 0.0
C951 C 0.33175 0.85417 0.02707 0.0
H952 H 0.36126 0.8415 0.33715 0.0
H953 H 0.36144 0.84944 0.22633 0.0
H954 H 0.29426 0.8199 0.13861 0.0
H955 H 0.33134 0.81609 0.84777 0.0
H956 H 0.32584 0.81794 0.95909 0.0
C957 C 0.0747 0.51489 0.05231 0.0
C958 C 0.07461 0.49776 0.01497 0.0
C959 C 0.07086 0.5115 0.11692 0.0
C960 C 0.0735 0.47489 0.24359 0.0
H961 H 0.05184 0.50765 0.34604 0.0
C962 C 0.067 0.46738 0.51396 0.0
C963 C 0.0803 0.48869 0.54362 0.0
C964 C 0.0622 0.46631 0.44983 0.0
C965 C 0.05775 0.49828 0.31776 0.0
H966 H 0.06874 0.46315 0.01365 0.0
H967 H 0.06049 0.45654 0.12494 0.0
H968 H 0.04947 0.50886 0.232 0.0
H969 H 0.09812 0.52554 0.53 0.0
H970 H 0.08938 0.52355 0.41855 0.0
H971 H 0.08132 0.464 0.32968 0.0
C972 C 0.06473 0.47307 0.10596 0.0
C973 C 0.05662 0.49912 0.25246 0.0
C974 C 0.06924 0.47674 0.04202 0.0
C975 C 0.08812 0.50884 0.50835 0.0
C976 C 0.0829 0.50776 0.44476 0.0
C977 C 0.07405 0.47358 0.3087 0.0
C978 C 0.06631 0.49068 0.14486 0.0
C979 C 0.06501 0.48788 0.21437 0.0
C980 C 0.07013 0.48651 0.41481 0.0
C981 C 0.06665 0.48564 0.3463 0.0
H982 H 0.07886 0.53126 0.03214 0.0
H983 H 0.07249 0.5256 0.14506 0.0
H984 H 0.08066 0.46641 0.21646 0.0
H985 H 0.06058 0.45158 0.54007 0.0
H986 H 0.05229 0.44972 0.42754 0.0
C987 C 0.4446 0.59246 0.5112 0.0
C988 C 0.45704 0.61408 0.53971 0.0
C989 C 0.44282 0.59066 0.44634 0.0
C990 C 0.43771 0.61762 0.31254 0.0
H991 H 0.46599 0.58984 0.21499 0.0
C992 C 0.44834 0.62832 0.04748 0.0
C993 C 0.4477 0.61056 0.01169 0.0
C994 C 0.44717 0.62676 0.11239 0.0
C995 C 0.45754 0.59717 0.24159 0.0
H996 H 0.47751 0.65069 0.52391 0.0
H997 H 0.47374 0.64748 0.40953 0.0
H998 H 0.46922 0.59109 0.32898 0.0
H999 H 0.44414 0.5768 0.0146 0.0
H1000 H 0.44113 0.57362 0.12834 0.0
H1001 H 0.42544 0.62323 0.22608 0.0
C1002 C 0.46571 0.63207 0.43777 0.0
C1003 C 0.45962 0.59806 0.3065 0.0
C1004 C 0.46793 0.63386 0.50267 0.0
C1005 C 0.44496 0.59083 0.04147 0.0
C1006 C 0.44334 0.58908 0.10644 0.0
C1007 C 0.43522 0.61633 0.24776 0.0
C1008 C 0.45306 0.61048 0.40963 0.0
C1009 C 0.45006 0.60864 0.34188 0.0
C1010 C 0.44489 0.60723 0.14258 0.0
C1011 C 0.44549 0.60649 0.21154 0.0
H1012 H 0.43621 0.57698 0.53908 0.0
H1013 H 0.43302 0.5739 0.42487 0.0
H1014 H 0.43001 0.62557 0.33978 0.0
H1015 H 0.4506 0.64379 0.02552 0.0
H1016 H 0.44886 0.64124 0.13885 0.0
loop_
_geom_bond_atom_site_label_1
_geom_bond_atom_site_label_2
_geom_bond_distance
_geom_bond_site_symmetry_2
_ccdc_geom_bond_type
O0 Zn1 1.953 . S
O0 C16 1.225 . S
Zn1 O0 1.953 . S
Zn1 O2 1.949 1_656 S
Zn1 O8 1.919 1_556 S
Zn1 O13 1.924 . S
O2 Zn1 1.949 1_454 S
O2 Zn3 1.923 . S
O2 Zn4 1.950 1_554 S
O2 Zn5 1.945 . S
Zn3 O2 1.923 . S
Zn3 O6 1.933 . S
Zn3 O9 1.941 1_455 S
Zn3 O10 1.965 . S
Zn4 O2 1.950 1_556 S
Zn4 O11 1.938 . S
Zn4 O12 1.906 . S
Zn4 O22 1.953 . S
Zn5 O2 1.945 . S
Zn5 O7 1.932 . S
Zn5 O14 1.977 . S
Zn5 O15 1.910 1_455 S
O6 Zn3 1.933 . S
O6 C17 1.226 . S
O7 Zn5 1.932 . S
O7 C17 1.307 . S
O8 Zn1 1.919 1_554 S
O8 C19 1.253 . S
O9 Zn3 1.941 1_655 S
O9 C19 1.283 . S
O10 Zn3 1.965 . S
O10 C18 1.303 1_554 S
O11 Zn4 1.938 . S
O11 C18 1.247 . S
O12 Zn4 1.906 . S
O12 C20 1.304 1_556 S
O13 Zn1 1.924 . S
O13 C21 1.311 1_556 S
O14 Zn5 1.977 . S
O14 C20 1.272 . S
O15 Zn5 1.910 1_655 S
O15 C21 1.231 . S
C16 O0 1.225 . S
C16 O22 1.298 1_655 S
C17 O6 1.226 . S
C17 O7 1.307 . S
C18 O10 1.303 1_556 S
C18 O11 1.247 . S
C19 O8 1.253 . S
C19 O9 1.283 . S
C20 O12 1.304 1_554 S
C20 O14 1.272 . S
C21 O13 1.311 1_554 S
C21 O15 1.231 . S
O22 Zn4 1.953 . S
O22 C16 1.298 1_455 S
O23 Zn24 1.953 . S
O23 C39 1.225 . S
Zn24 O23 1.953 . S
Zn24 O25 1.949 . S
Zn24 O31 1.919 . S
Zn24 O36 1.924 . S
O25 Zn24 1.949 . S
O25 Zn26 1.923 1_554 S
O25 Zn27 1.950 . S
O25 Zn28 1.945 1_554 S
Zn26 O25 1.923 1_556 S
Zn26 O29 1.933 . S
Zn26 O32 1.941 . S
Zn26 O33 1.965 . S
Zn27 O25 1.950 . S
Zn27 O34 1.938 . S
Zn27 O35 1.906 . S
Zn27 O45 1.953 . S
Zn28 O25 1.945 1_556 S
Zn28 O30 1.932 . S
Zn28 O37 1.977 . S
Zn28 O38 1.910 . S
O29 Zn26 1.933 . S
O29 C40 1.226 . S
O30 Zn28 1.932 . S
O30 C40 1.307 . S
O31 Zn24 1.919 . S
O31 C42 1.253 1_554 S
O32 Zn26 1.941 . S
O32 C42 1.283 . S
O33 Zn26 1.965 . S
O33 C41 1.303 1_556 S
O34 Zn27 1.938 . S
O34 C41 1.247 . S
O35 Zn27 1.906 . S
O35 C43 1.295 1_554 S
O36 Zn24 1.924 . S
O36 C44 1.311 . S
O37 Zn28 1.977 . S
O37 C43 1.277 . S
O38 Zn28 1.910 . S
O38 C44 1.231 1_556 S
C39 O23 1.225 . S
C39 O45 1.298 . S
C40 O29 1.226 . S
C40 O30 1.307 . S
C41 O33 1.303 1_554 S
C41 O34 1.247 . S
C42 O31 1.253 1_556 S
C42 O32 1.283 . S
C43 O35 1.295 1_556 S
C43 O37 1.277 . S
C44 O36 1.311 . S
C44 O38 1.231 1_554 S
O45 Zn27 1.953 . S
O45 C39 1.298 . S
O46 Zn47 1.953 . S
O46 C62 1.225 . S
Zn47 O46 1.953 . S
Zn47 O48 1.949 1_556 S
Zn47 O54 1.922 . S
Zn47 O59 1.924 . S
O48 Zn47 1.949 1_554 S
O48 Zn49 1.928 . S
O48 Zn50 1.950 1_544 S
O48 Zn51 1.945 . S
Zn49 O48 1.928 . S
Zn49 O52 1.934 1_545 S
Zn49 O55 1.944 . S
Zn49 O56 1.958 1_545 S
Zn50 O48 1.950 1_566 S
Zn50 O57 1.938 . S
Zn50 O58 1.906 . S
Zn50 O68 1.953 . S
Zn51 O48 1.945 . S
Zn51 O53 1.932 . S
Zn51 O60 1.977 1_545 S
Zn51 O61 1.910 . S
O52 Zn49 1.934 1_565 S
O52 C63 1.216 1_565 S
O53 Zn51 1.932 . S
O53 C63 1.319 . S
O54 Zn47 1.922 . S
O54 C65 1.247 1_556 S
O55 Zn49 1.944 . S
O55 C65 1.283 . S
O56 Zn49 1.958 1_565 S
O56 C64 1.303 1_554 S
O57 Zn50 1.938 . S
O57 C64 1.247 . S
O58 Zn50 1.906 . S
O58 C66 1.304 1_556 S
O59 Zn47 1.924 . S
O59 C67 1.311 1_556 S
O60 Zn51 1.977 1_565 S
O60 C66 1.272 . S
O61 Zn51 1.910 . S
O61 C67 1.231 . S
C62 O46 1.225 . S
C62 O68 1.298 1_545 S
C63 O52 1.216 1_545 S
C63 O53 1.319 . S
C64 O56 1.303 1_556 S
C64 O57 1.247 . S
C65 O54 1.247 1_554 S
C65 O55 1.283 . S
C66 O58 1.304 1_554 S
C66 O60 1.272 . S
C67 O59 1.311 1_554 S
C67 O61 1.231 . S
O68 Zn50 1.953 . S
O68 C62 1.298 1_565 S
O69 Zn70 1.953 . S
O69 C85 1.225 . S
Zn70 O69 1.953 . S
Zn70 O71 1.949 . S
Zn70 O77 1.919 . S
Zn70 O82 1.924 . S
O71 Zn70 1.949 . S
O71 Zn72 1.923 . S
O71 Zn73 1.950 . S
O71 Zn74 1.945 . S
Zn72 O71 1.923 . S
Zn72 O75 1.933 . S
Zn72 O78 1.941 . S
Zn72 O79 1.965 . S
Zn73 O71 1.950 . S
Zn73 O80 1.938 . S
Zn73 O81 1.906 . S
Zn73 O91 1.953 . S
Zn74 O71 1.945 . S
Zn74 O76 1.932 . S
Zn74 O83 1.977 . S
Zn74 O84 1.910 . S
O75 Zn72 1.933 . S
O75 C86 1.226 . S
O76 Zn74 1.932 . S
O76 C86 1.307 . S
O77 Zn70 1.919 . S
O77 C88 1.253 . S
O78 Zn72 1.941 . S
O78 C88 1.283 . S
O79 Zn72 1.965 . S
O79 C87 1.303 . S
O80 Zn73 1.938 . S
O80 C87 1.247 . S
O81 Zn73 1.906 . S
O81 C89 1.304 . S
O82 Zn70 1.924 . S
O82 C90 1.311 . S
O83 Zn74 1.977 . S
O83 C89 1.272 . S
O84 Zn74 1.910 . S
O84 C90 1.231 . S
C85 O69 1.225 . S
C85 O91 1.298 . S
C86 O75 1.226 . S
C86 O76 1.307 . S
C87 O79 1.303 . S
C87 O80 1.247 . S
C88 O77 1.253 . S
C88 O78 1.283 . S
C89 O81 1.304 . S
C89 O83 1.272 . S
C90 O82 1.311 . S
C90 O84 1.231 . S
O91 Zn73 1.953 . S
O91 C85 1.298 . S
O92 Zn93 1.953 . S
O92 C108 1.225 . S
Zn93 O92 1.953 . S
Zn93 O94 1.949 . S
Zn93 O100 1.919 . S
Zn93 O105 1.924 . S
O94 Zn93 1.949 . S
O94 Zn95 1.923 . S
O94 Zn96 1.950 . S
O94 Zn97 1.945 . S
Zn95 O94 1.923 . S
Zn95 O98 1.933 . S
Zn95 O101 1.941 . S
Zn95 O102 1.965 . S
Zn96 O94 1.950 . S
Zn96 O103 1.938 . S
Zn96 O104 1.906 . S
Zn96 O114 1.953 . S
Zn97 O94 1.945 . S
Zn97 O99 1.932 . S
Zn97 O106 1.977 . S
Zn97 O107 1.910 . S
O98 Zn95 1.933 . S
O98 C109 1.226 . S
O99 Zn97 1.932 . S
O99 C109 1.307 . S
O100 Zn93 1.919 . S
O100 C111 1.253 . S
O101 Zn95 1.941 . S
O101 C111 1.283 . S
O102 Zn95 1.965 . S
O102 C110 1.303 . S
O103 Zn96 1.938 . S
O103 C110 1.247 . S
O104 Zn96 1.906 . S
O104 C112 1.304 . S
O105 Zn93 1.924 . S
O105 C113 1.311 . S
O106 Zn97 1.977 . S
O106 C112 1.272 . S
O107 Zn97 1.910 . S
O107 C113 1.231 . S
C108 O92 1.225 . S
C108 O114 1.298 . S
C109 O98 1.226 . S
C109 O99 1.307 . S
C110 O102 1.303 . S
C110 O103 1.247 . S
C111 O100 1.253 . S
C111 O101 1.283 . S
C112 O104 1.304 . S
C112 O106 1.272 . S
C113 O105 1.311 . S
C113 O107 1.231 . S
O114 Zn96 1.953 . S
O114 C108 1.298 . S
O115 Zn116 1.953 . S
O115 C131 1.225 . S
Zn116 O115 1.953 . S
Zn116 O117 1.949 . S
Zn116 O123 1.919 . S
Zn116 O128 1.924 . S
O117 Zn116 1.949 . S
O117 Zn118 1.923 . S
O117 Zn119 1.950 . S
O117 Zn120 1.945 . S
Zn118 O117 1.923 . S
Zn118 O121 1.933 . S
Zn118 O124 1.941 . S
Zn118 O125 1.965 . S
Zn119 O117 1.950 . S
Zn119 O126 1.938 . S
Zn119 O127 1.906 . S
Zn119 O137 1.953 . S
Zn120 O117 1.945 . S
Zn120 O122 1.932 . S
Zn120 O129 1.977 . S
Zn120 O130 1.910 . S
O121 Zn118 1.933 . S
O121 C132 1.226 . S
O122 Zn120 1.932 . S
O122 C132 1.307 . S
O123 Zn116 1.919 . S
O123 C134 1.253 . S
O124 Zn118 1.941 . S
O124 C134 1.283 . S
O125 Zn118 1.965 . S
O125 C133 1.303 . S
O126 Zn119 1.938 . S
O126 C133 1.247 . S
O127 Zn119 1.906 . S
O127 C135 1.304 . S
O128 Zn116 1.924 . S
O128 C136 1.311 . S
O129 Zn120 1.977 . S
O129 C135 1.272 . S
O130 Zn120 1.910 . S
O130 C136 1.231 . S
C131 O115 1.225 . S
C131 O137 1.298 . S
C132 O121 1.226 . S
C132 O122 1.307 . S
C133 O125 1.303 . S
C133 O126 1.247 . S
C134 O123 1.253 . S
C134 O124 1.283 . S
C135 O127 1.304 . S
C135 O129 1.272 . S
C136 O128 1.311 . S
C136 O130 1.231 . S
O137 Zn119 1.953 . S
O137 C131 1.298 . S
O138 Zn139 1.953 . S
O138 C154 1.225 . S
Zn139 O138 1.953 . S
Zn139 O140 1.949 . S
Zn139 O146 1.919 . S
Zn139 O151 1.924 . S
O140 Zn139 1.949 . S
O140 Zn141 1.923 . S
O140 Zn142 1.950 . S
O140 Zn143 1.945 . S
Zn141 O140 1.923 . S
Zn141 O144 1.933 . S
Zn141 O147 1.941 . S
Zn141 O148 1.965 . S
Zn142 O140 1.950 . S
Zn142 O149 1.938 . S
Zn142 O150 1.906 . S
Zn142 O160 1.953 . S
Zn143 O140 1.945 . S
Zn143 O145 1.932 . S
Zn143 O152 1.977 . S
Zn143 O153 1.910 . S
O144 Zn141 1.933 . S
O144 C155 1.226 . S
O145 Zn143 1.932 . S
O145 C155 1.307 . S
O146 Zn139 1.919 . S
O146 C157 1.253 . S
O147 Zn141 1.941 . S
O147 C157 1.283 . S
O148 Zn141 1.965 . S
O148 C156 1.303 . S
O149 Zn142 1.938 . S
O149 C156 1.247 . S
O150 Zn142 1.906 . S
O150 C158 1.304 . S
O151 Zn139 1.924 . S
O151 C159 1.311 . S
O152 Zn143 1.977 . S
O152 C158 1.272 . S
O153 Zn143 1.910 . S
O153 C159 1.231 . S
C154 O138 1.225 . S
C154 O160 1.298 . S
C155 O144 1.226 . S
C155 O145 1.307 . S
C156 O148 1.303 . S
C156 O149 1.247 . S
C157 O146 1.253 . S
C157 O147 1.283 . S
C158 O150 1.304 . S
C158 O152 1.272 . S
C159 O151 1.311 . S
C159 O153 1.231 . S
O160 Zn142 1.953 . S
O160 C154 1.298 . S
O161 Zn162 1.953 . S
O161 C177 1.225 . S
Zn162 O161 1.953 . S
Zn162 O163 1.949 . S
Zn162 O169 1.919 . S
Zn162 O174 1.924 . S
O163 Zn162 1.949 . S
O163 Zn164 1.923 . S
O163 Zn165 1.950 . S
O163 Zn166 1.945 . S
Zn164 O163 1.923 . S
Zn164 O167 1.933 . S
Zn164 O170 1.941 . S
Zn164 O171 1.965 . S
Zn165 O163 1.950 . S
Zn165 O172 1.938 . S
Zn165 O173 1.906 . S
Zn165 O183 1.953 . S
Zn166 O163 1.945 . S
Zn166 O168 1.932 . S
Zn166 O175 1.977 . S
Zn166 O176 1.910 . S
O167 Zn164 1.933 . S
O167 C178 1.226 . S
O168 Zn166 1.932 . S
O168 C178 1.307 . S
O169 Zn162 1.919 . S
O169 C180 1.253 . S
O170 Zn164 1.941 . S
O170 C180 1.283 . S
O171 Zn164 1.965 . S
O171 C179 1.303 . S
O172 Zn165 1.938 . S
O172 C179 1.247 . S
O173 Zn165 1.906 . S
O173 C181 1.304 . S
O174 Zn162 1.924 . S
O174 C182 1.311 . S
O175 Zn166 1.977 . S
O175 C181 1.272 . S
O176 Zn166 1.910 . S
O176 C182 1.231 . S
C177 O161 1.225 . S
C177 O183 1.298 . S
C178 O167 1.226 . S
C178 O168 1.307 . S
C179 O171 1.303 . S
C179 O172 1.247 . S
C180 O169 1.253 . S
C180 O170 1.283 . S
C181 O173 1.304 . S
C181 O175 1.272 . S
C182 O174 1.311 . S
C182 O176 1.231 . S
O183 Zn165 1.953 . S
O183 C177 1.298 . S
O184 Zn185 1.953 . S
O184 C200 1.225 . S
Zn185 O184 1.953 . S
Zn185 O186 1.949 . S
Zn185 O192 1.919 . S
Zn185 O197 1.924 . S
O186 Zn185 1.949 . S
O186 Zn187 1.923 . S
O186 Zn188 1.950 . S
O186 Zn189 1.945 . S
Zn187 O186 1.923 . S
Zn187 O190 1.933 . S
Zn187 O193 1.941 . S
Zn187 O194 1.965 . S
Zn188 O186 1.950 . S
Zn188 O195 1.938 . S
Zn188 O196 1.906 . S
Zn188 O206 1.953 . S
Zn189 O186 1.945 . S
Zn189 O191 1.932 . S
Zn189 O198 1.977 . S
Zn189 O199 1.910 . S
O190 Zn187 1.933 . S
O190 C201 1.226 . S
O191 Zn189 1.932 . S
O191 C201 1.307 . S
O192 Zn185 1.919 . S
O192 C203 1.253 . S
O193 Zn187 1.941 . S
O193 C203 1.283 . S
O194 Zn187 1.965 . S
O194 C202 1.303 . S
O195 Zn188 1.938 . S
O195 C202 1.247 . S
O196 Zn188 1.906 . S
O196 C204 1.304 . S
O197 Zn185 1.924 . S
O197 C205 1.311 . S
O198 Zn189 1.977 . S
O198 C204 1.272 . S
O199 Zn189 1.910 . S
O199 C205 1.231 . S
C200 O184 1.225 . S
C200 O206 1.298 . S
C201 O190 1.226 . S
C201 O191 1.307 . S
C202 O194 1.303 . S
C202 O195 1.247 . S
C203 O192 1.253 . S
C203 O193 1.283 . S
C204 O196 1.304 . S
C204 O198 1.272 . S
C205 O197 1.311 . S
C205 O199 1.231 . S
O206 Zn188 1.953 . S
O206 C200 1.298 . S
C207 C208 1.349 . S
C207 C209 1.327 . S
C207 H232 0.950 1_556 S
C208 C207 1.349 . S
C208 C224 1.349 . S
C209 C207 1.327 . S
C209 C228 1.429 . S
C209 H233 0.950 . S
C210 C227 1.574 . S
C210 C229 1.368 . S
C210 H234 0.949 . S
H211 C215 0.949 . S
C212 C213 1.349 . S
C212 C214 1.327 . S
C212 H235 0.950 . S
C213 C212 1.349 . S
C213 C225 1.349 . S
C214 C212 1.327 . S
C214 C230 1.429 . S
C214 H236 0.950 . S
C215 H211 0.949 . S
C215 C223 1.574 . S
C215 C231 1.368 . S
H216 C224 0.950 . S
H217 C222 0.950 . S
H218 C223 0.949 . S
H219 C225 0.950 . S
H220 C226 0.950 . S
H221 C227 0.949 . S
C222 H217 0.950 . S
C222 C224 1.327 . S
C222 C228 1.429 . S
C223 C215 1.574 . S
C223 H218 0.949 . S
C223 C229 1.368 . S
C224 C208 1.349 . S
C224 H216 0.950 . S
C224 C222 1.327 . S
C225 C213 1.349 . S
C225 H219 0.950 . S
C225 C226 1.327 . S
C226 H220 0.950 . S
C226 C225 1.327 . S
C226 C230 1.429 . S
C227 C210 1.574 . S
C227 H221 0.949 . S
C227 C231 1.368 . S
C228 C209 1.429 . S
C228 C222 1.429 . S
C228 C229 1.523 . S
C229 C210 1.368 . S
C229 C223 1.368 . S
C229 C228 1.523 . S
C230 C214 1.429 . S
C230 C226 1.429 . S
C230 C231 1.523 . S
C231 C215 1.368 . S
C231 C227 1.368 . S
C231 C230 1.523 . S
H232 C207 0.950 1_554 S
H233 C209 0.950 . S
H234 C210 0.949 . S
H235 C212 0.950 . S
H236 C214 0.950 . S
C237 C238 1.349 . S
C237 C239 1.327 . S
C237 H262 0.950 1_556 S
C238 C237 1.349 . S
C238 C254 1.349 . S
C239 C237 1.327 . S
C239 C258 1.429 . S
C239 H263 0.950 . S
C240 C257 1.574 . S
C240 C259 1.368 . S
C240 H264 0.949 . S
H241 C245 0.949 . S
C242 C243 1.349 . S
C242 C244 1.327 . S
C242 H265 0.950 . S
C243 C242 1.349 . S
C243 C255 1.349 . S
C244 C242 1.327 . S
C244 C260 1.429 . S
C244 H266 0.950 . S
C245 H241 0.949 . S
C245 C253 1.574 . S
C245 C261 1.368 . S
H246 C254 0.950 . S
H247 C252 0.950 . S
H248 C253 0.949 . S
H249 C255 0.950 . S
H250 C256 0.950 . S
H251 C257 0.949 . S
C252 H247 0.950 . S
C252 C254 1.327 . S
C252 C258 1.429 . S
C253 C245 1.574 . S
C253 H248 0.949 . S
C253 C259 1.368 . S
C254 C238 1.349 . S
C254 H246 0.950 . S
C254 C252 1.327 . S
C255 C243 1.349 . S
C255 H249 0.950 . S
C255 C256 1.327 . S
C256 H250 0.950 . S
C256 C255 1.327 . S
C256 C260 1.429 . S
C257 C240 1.574 . S
C257 H251 0.949 . S
C257 C261 1.368 . S
C258 C239 1.429 . S
C258 C252 1.429 . S
C258 C259 1.523 . S
C259 C240 1.368 . S
C259 C253 1.368 . S
C259 C258 1.523 . S
C260 C244 1.429 . S
C260 C256 1.429 . S
C260 C261 1.523 . S
C261 C245 1.368 . S
C261 C257 1.368 . S
C261 C260 1.523 . S
H262 C237 0.950 1_554 S
H263 C239 0.950 . S
H264 C240 0.949 . S
H265 C242 0.950 . S
H266 C244 0.950 . S
C267 C268 1.349 . S
C267 C269 1.327 . S
C267 H292 0.950 . S
C268 C267 1.349 . S
C268 C284 1.349 . S
C269 C267 1.327 . S
C269 C288 1.429 . S
C269 H293 0.950 . S
C270 C287 1.574 . S
C270 C289 1.368 . S
C270 H294 0.949 . S
H271 C275 0.949 . S
C272 C273 1.349 . S
C272 C274 1.327 . S
C272 H295 0.950 . S
C273 C272 1.349 . S
C273 C285 1.349 . S
C274 C272 1.327 . S
C274 C290 1.429 . S
C274 H296 0.950 . S
C275 H271 0.949 . S
C275 C283 1.574 . S
C275 C291 1.368 . S
H276 C284 0.950 . S
H277 C282 0.950 . S
H278 C283 0.949 . S
H279 C285 0.950 . S
H280 C286 0.950 . S
H281 C287 0.949 . S
C282 H277 0.950 . S
C282 C284 1.327 . S
C282 C288 1.429 . S
C283 C275 1.574 . S
C283 H278 0.949 . S
C283 C289 1.368 . S
C284 C268 1.349 . S
C284 H276 0.950 . S
C284 C282 1.327 . S
C285 C273 1.349 . S
C285 H279 0.950 . S
C285 C286 1.327 . S
C286 H280 0.950 . S
C286 C285 1.327 . S
C286 C290 1.429 . S
C287 C270 1.574 . S
C287 H281 0.949 . S
C287 C291 1.368 . S
C288 C269 1.429 . S
C288 C282 1.429 . S
C288 C289 1.523 . S
C289 C270 1.368 . S
C289 C283 1.368 . S
C289 C288 1.523 . S
C290 C274 1.429 . S
C290 C286 1.429 . S
C290 C291 1.523 . S
C291 C275 1.368 . S
C291 C287 1.368 . S
C291 C290 1.523 . S
H292 C267 0.950 . S
H293 C269 0.950 . S
H294 C270 0.949 . S
H295 C272 0.950 . S
H296 C274 0.950 . S
C297 C298 1.349 . S
C297 C299 1.327 . S
C297 H322 0.950 . S
C298 C297 1.349 . S
C298 C314 1.349 . S
C299 C297 1.327 . S
C299 C318 1.429 . S
C299 H323 0.950 . S
C300 C317 1.574 . S
C300 C319 1.368 . S
C300 H324 0.949 . S
H301 C305 0.949 . S
C302 C303 1.349 . S
C302 C304 1.327 . S
C302 H325 0.950 1_554 S
C303 C302 1.349 . S
C303 C315 1.349 . S
C304 C302 1.327 . S
C304 C320 1.429 . S
C304 H326 0.950 . S
C305 H301 0.949 . S
C305 C313 1.574 . S
C305 C321 1.368 . S
H306 C314 0.950 . S
H307 C312 0.950 . S
H308 C313 0.949 . S
H309 C315 0.950 . S
H310 C316 0.950 . S
H311 C317 0.949 . S
C312 H307 0.950 . S
C312 C314 1.327 . S
C312 C318 1.429 . S
C313 C305 1.574 . S
C313 H308 0.949 . S
C313 C319 1.368 . S
C314 C298 1.349 . S
C314 H306 0.950 . S
C314 C312 1.327 . S
C315 C303 1.349 . S
C315 H309 0.950 . S
C315 C316 1.327 . S
C316 H310 0.950 . S
C316 C315 1.327 . S
C316 C320 1.429 . S
C317 C300 1.574 . S
C317 H311 0.949 . S
C317 C321 1.368 . S
C318 C299 1.429 . S
C318 C312 1.429 . S
C318 C319 1.523 . S
C319 C300 1.368 . S
C319 C313 1.368 . S
C319 C318 1.523 . S
C320 C304 1.429 . S
C320 C316 1.429 . S
C320 C321 1.523 . S
C321 C305 1.368 . S
C321 C317 1.368 . S
C321 C320 1.523 . S
H322 C297 0.950 . S
H323 C299 0.950 . S
H324 C300 0.949 . S
H325 C302 0.950 1_556 S
H326 C304 0.950 . S
C327 C328 1.349 . S
C327 C329 1.327 . S
C327 H352 0.950 . S
C328 C327 1.349 . S
C328 C344 1.349 . S
C329 C327 1.327 . S
C329 C348 1.429 . S
C329 H353 0.950 . S
C330 C347 1.574 . S
C330 C349 1.368 . S
C330 H354 0.949 . S
H331 C335 0.949 . S
C332 C333 1.349 . S
C332 C334 1.327 . S
C332 H355 0.950 1_554 S
C333 C332 1.349 . S
C333 C345 1.349 . S
C334 C332 1.327 . S
C334 C350 1.429 . S
C334 H356 0.950 . S
C335 H331 0.949 . S
C335 C343 1.574 . S
C335 C351 1.368 . S
H336 C344 0.950 . S
H337 C342 0.950 . S
H338 C343 0.949 . S
H339 C345 0.950 . S
H340 C346 0.950 . S
H341 C347 0.949 . S
C342 H337 0.950 . S
C342 C344 1.327 . S
C342 C348 1.429 . S
C343 C335 1.574 . S
C343 H338 0.949 . S
C343 C349 1.368 . S
C344 C328 1.349 . S
C344 H336 0.950 . S
C344 C342 1.327 . S
C345 C333 1.349 . S
C345 H339 0.950 . S
C345 C346 1.327 . S
C346 H340 0.950 . S
C346 C345 1.327 . S
C346 C350 1.429 . S
C347 C330 1.574 . S
C347 H341 0.949 . S
C347 C351 1.368 . S
C348 C329 1.429 . S
C348 C342 1.429 . S
C348 C349 1.523 . S
C349 C330 1.368 . S
C349 C343 1.368 . S
C349 C348 1.523 . S
C350 C334 1.429 . S
C350 C346 1.429 . S
C350 C351 1.523 . S
C351 C335 1.368 . S
C351 C347 1.368 . S
C351 C350 1.523 . S
H352 C327 0.950 . S
H353 C329 0.950 . S
H354 C330 0.949 . S
H355 C332 0.950 1_556 S
H356 C334 0.950 . S
C357 C358 1.349 . S
C357 C359 1.327 . S
C357 H382 0.950 . S
C358 C357 1.349 . S
C358 C374 1.349 . S
C359 C357 1.327 . S
C359 C378 1.429 . S
C359 H383 0.950 . S
C360 C377 1.574 . S
C360 C379 1.368 . S
C360 H384 0.949 . S
H361 C365 0.949 . S
C362 C363 1.349 . S
C362 C364 1.327 . S
C362 H385 0.950 . S
C363 C362 1.349 . S
C363 C375 1.349 . S
C364 C362 1.327 . S
C364 C380 1.429 . S
C364 H386 0.950 . S
C365 H361 0.949 . S
C365 C373 1.574 . S
C365 C381 1.368 . S
H366 C374 0.958 . S
H367 C372 0.950 . S
H368 C373 0.949 . S
H369 C375 0.950 . S
H370 C376 0.950 . S
H371 C377 0.949 . S
C372 H367 0.950 . S
C372 C374 1.327 . S
C372 C378 1.429 . S
C373 C365 1.574 . S
C373 H368 0.949 . S
C373 C379 1.368 . S
C374 C358 1.349 . S
C374 H366 0.958 . S
C374 C372 1.327 . S
C375 C363 1.349 . S
C375 H369 0.950 . S
C375 C376 1.327 . S
C376 H370 0.950 . S
C376 C375 1.327 . S
C376 C380 1.429 . S
C377 C360 1.574 . S
C377 H371 0.949 . S
C377 C381 1.368 . S
C378 C359 1.429 . S
C378 C372 1.429 . S
C378 C379 1.523 . S
C379 C360 1.368 . S
C379 C373 1.368 . S
C379 C378 1.523 . S
C380 C364 1.429 . S
C380 C376 1.429 . S
C380 C381 1.523 . S
C381 C365 1.368 . S
C381 C377 1.368 . S
C381 C380 1.523 . S
H382 C357 0.950 . S
H383 C359 0.950 . S
H384 C360 0.949 . S
H385 C362 0.950 . S
H386 C364 0.950 . S
C387 C388 1.349 . S
C387 C389 1.327 . S
C387 H412 0.950 . S
C388 C387 1.349 . S
C388 C404 1.349 . S
C389 C387 1.327 . S
C389 C408 1.429 . S
C389 H413 0.950 . S
C390 C407 1.549 1_455 S
C390 C409 1.368 . S
C390 H414 0.949 . S
H391 C395 0.949 . S
C392 C393 1.349 . S
C392 C394 1.327 . S
C392 H415 0.950 . S
C393 C392 1.349 . S
C393 C405 1.349 . S
C394 C392 1.327 . S
C394 C410 1.429 . S
C394 H416 0.950 . S
C395 H391 0.949 . S
C395 C403 1.574 1_655 S
C395 C411 1.368 . S
H396 C404 0.950 . S
H397 C402 0.950 . S
H398 C403 0.949 . S
H399 C405 0.950 . S
H400 C406 0.950 . S
H401 C407 0.966 . S
C402 H397 0.950 . S
C402 C404 1.327 . S
C402 C408 1.429 . S
C403 C395 1.574 1_455 S
C403 H398 0.949 . S
C403 C409 1.368 . S
C404 C388 1.349 . S
C404 H396 0.950 . S
C404 C402 1.327 . S
C405 C393 1.349 . S
C405 H399 0.950 . S
C405 C406 1.327 . S
C406 H400 0.950 . S
C406 C405 1.327 . S
C406 C410 1.429 . S
C407 C390 1.549 1_655 S
C407 H401 0.966 . S
C407 C411 1.374 . S
C408 C389 1.429 . S
C408 C402 1.429 . S
C408 C409 1.523 . S
C409 C390 1.368 . S
C409 C403 1.368 . S
C409 C408 1.523 . S
C410 C394 1.429 . S
C410 C406 1.429 . S
C410 C411 1.523 . S
C411 C395 1.368 . S
C411 C407 1.374 . S
C411 C410 1.523 . S
H412 C387 0.950 . S
H413 C389 0.950 . S
H414 C390 0.949 . S
H415 C392 0.950 . S
H416 C394 0.950 . S
C417 C418 1.349 . S
C417 C419 1.327 . S
C417 H442 0.950 . S
C418 C417 1.349 . S
C418 C434 1.349 . S
C419 C417 1.327 . S
C419 C438 1.429 . S
C419 H443 0.950 . S
C420 C437 1.574 . S
C420 C439 1.368 . S
C420 H444 0.949 . S
H421 C425 0.949 . S
C422 C423 1.349 . S
C422 C424 1.327 . S
C422 H445 0.950 . S
C423 C422 1.349 . S
C423 C435 1.349 . S
C424 C422 1.327 . S
C424 C440 1.429 . S
C424 H446 0.950 . S
C425 H421 0.949 . S
C425 C433 1.574 . S
C425 C441 1.368 . S
H426 C434 0.950 . S
H427 C432 0.950 . S
H428 C433 0.949 . S
H429 C435 0.950 . S
H430 C436 0.950 . S
H431 C437 0.949 . S
C432 H427 0.950 . S
C432 C434 1.327 . S
C432 C438 1.429 . S
C433 C425 1.574 . S
C433 H428 0.949 . S
C433 C439 1.368 . S
C434 C418 1.349 . S
C434 H426 0.950 . S
C434 C432 1.327 . S
C435 C423 1.349 . S
C435 H429 0.950 . S
C435 C436 1.327 . S
C436 H430 0.950 . S
C436 C435 1.327 . S
C436 C440 1.429 . S
C437 C420 1.574 . S
C437 H431 0.949 . S
C437 C441 1.368 . S
C438 C419 1.429 . S
C438 C432 1.429 . S
C438 C439 1.523 . S
C439 C420 1.368 . S
C439 C433 1.368 . S
C439 C438 1.523 . S
C440 C424 1.429 . S
C440 C436 1.429 . S
C440 C441 1.523 . S
C441 C425 1.368 . S
C441 C437 1.368 . S
C441 C440 1.523 . S
H442 C417 0.950 . S
H443 C419 0.950 . S
H444 C420 0.949 . S
H445 C422 0.950 . S
H446 C424 0.950 . S
C447 C448 1.349 . S
C447 C449 1.327 . S
C447 H472 0.950 . S
C448 C447 1.349 . S
C448 C464 1.349 . S
C449 C447 1.327 . S
C449 C468 1.429 . S
C449 H473 0.950 . S
C450 C467 1.574 . S
C450 C469 1.368 . S
C450 H474 0.949 . S
H451 C455 0.949 . S
C452 C453 1.349 . S
C452 C454 1.327 . S
C452 H475 0.950 . S
C453 C452 1.349 . S
C453 C465 1.349 . S
C454 C452 1.327 . S
C454 C470 1.429 . S
C454 H476 0.950 . S
C455 H451 0.949 . S
C455 C463 1.574 1_565 S
C455 C471 1.368 . S
H456 C464 0.950 . S
H457 C462 0.950 . S
H458 C463 0.949 . S
H459 C465 0.950 . S
H460 C466 0.950 . S
H461 C467 0.949 1_565 S
C462 H457 0.950 . S
C462 C464 1.327 . S
C462 C468 1.429 . S
C463 C455 1.574 1_545 S
C463 H458 0.949 . S
C463 C469 1.368 . S
C464 C448 1.349 . S
C464 H456 0.950 . S
C464 C462 1.327 . S
C465 C453 1.349 . S
C465 H459 0.950 . S
C465 C466 1.327 . S
C466 H460 0.950 . S
C466 C465 1.327 . S
C466 C470 1.429 . S
C467 C450 1.574 . S
C467 H461 0.949 1_545 S
C467 C471 1.368 1_545 S
C468 C449 1.429 . S
C468 C462 1.429 . S
C468 C469 1.523 . S
C469 C450 1.368 . S
C469 C463 1.368 . S
C469 C468 1.523 . S
C470 C454 1.429 . S
C470 C466 1.429 . S
C470 C471 1.523 . S
C471 C455 1.368 . S
C471 C467 1.368 1_565 S
C471 C470 1.523 . S
H472 C447 0.950 . S
H473 C449 0.950 . S
H474 C450 0.949 . S
H475 C452 0.950 . S
H476 C454 0.950 . S
C477 C478 1.349 1_554 S
C477 C479 1.327 . S
C477 H502 0.950 . S
C478 C477 1.349 1_556 S
C478 C494 1.349 . S
C479 C477 1.327 . S
C479 C498 1.440 . S
C479 H503 0.950 . S
C480 C497 1.574 . S
C480 C499 1.368 1_556 S
C480 H504 0.949 . S
H481 C485 0.949 . S
C482 C483 1.349 1_556 S
C482 C484 1.327 . S
C482 H505 0.950 . S
C483 C482 1.349 1_554 S
C483 C495 1.349 . S
C484 C482 1.327 . S
C484 C500 1.429 1_556 S
C484 H506 0.950 . S
C485 H481 0.949 . S
C485 C493 1.574 . S
C485 C501 1.368 . S
H486 C494 0.950 . S
H487 C492 0.950 . S
H488 C493 0.949 . S
H489 C495 0.950 . S
H490 C496 0.950 . S
H491 C497 0.949 . S
C492 H487 0.950 . S
C492 C494 1.327 . S
C492 C498 1.417 1_556 S
C493 C485 1.574 . S
C493 H488 0.949 . S
C493 C499 1.368 . S
C494 C478 1.349 . S
C494 H486 0.950 . S
C494 C492 1.327 . S
C495 C483 1.349 . S
C495 H489 0.950 . S
C495 C496 1.327 . S
C496 H490 0.950 . S
C496 C495 1.327 . S
C496 C500 1.429 . S
C497 C480 1.574 . S
C497 H491 0.949 . S
C497 C501 1.368 1_556 S
C498 C479 1.440 . S
C498 C492 1.417 1_554 S
C498 C499 1.524 . S
C499 C480 1.368 1_554 S
C499 C493 1.368 . S
C499 C498 1.524 . S
C500 C484 1.429 1_554 S
C500 C496 1.429 . S
C500 C501 1.523 . S
C501 C485 1.368 . S
C501 C497 1.368 1_554 S
C501 C500 1.523 . S
H502 C477 0.950 . S
H503 C479 0.950 . S
H504 C480 0.949 . S
H505 C482 0.950 . S
H506 C484 0.950 . S
C507 C508 1.349 . S
C507 C509 1.327 . S
C507 H532 0.950 . S
C508 C507 1.349 . S
C508 C524 1.349 1_554 S
C509 C507 1.327 . S
C509 C528 1.429 . S
C509 H533 0.950 . S
C510 C527 1.574 1_565 S
C510 C529 1.368 1_556 S
C510 H534 0.949 . S
H511 C515 0.949 . S
C512 C513 1.349 . S
C512 C514 1.327 . S
C512 H535 0.950 . S
C513 C512 1.349 . S
C513 C525 1.349 1_556 S
C514 C512 1.327 . S
C514 C530 1.416 1_556 S
C514 H536 0.950 . S
C515 H511 0.949 . S
C515 C523 1.574 1_545 S
C515 C531 1.368 . S
H516 C524 0.950 . S
H517 C522 0.950 . S
H518 C523 0.949 . S
H519 C525 0.950 . S
H520 C526 0.950 . S
H521 C527 0.949 . S
C522 H517 0.950 . S
C522 C524 1.327 . S
C522 C528 1.429 1_556 S
C523 C515 1.574 1_565 S
C523 H518 0.949 . S
C523 C529 1.368 . S
C524 C508 1.349 1_556 S
C524 H516 0.950 . S
C524 C522 1.327 . S
C525 C513 1.349 1_554 S
C525 H519 0.950 . S
C525 C526 1.327 . S
C526 H520 0.950 . S
C526 C525 1.327 . S
C526 C530 1.440 . S
C527 C510 1.574 1_545 S
C527 H521 0.949 . S
C527 C531 1.368 1_556 S
C528 C509 1.429 . S
C528 C522 1.429 1_554 S
C528 C529 1.523 . S
C529 C510 1.368 1_554 S
C529 C523 1.368 . S
C529 C528 1.523 . S
C530 C514 1.416 1_554 S
C530 C526 1.440 . S
C530 C531 1.524 . S
C531 C515 1.368 . S
C531 C527 1.368 1_554 S
C531 C530 1.524 . S
H532 C507 0.950 . S
H533 C509 0.950 . S
H534 C510 0.949 . S
H535 C512 0.950 . S
H536 C514 0.950 . S
C537 C538 1.349 . S
C537 C539 1.327 . S
C537 H562 0.950 . S
C538 C537 1.349 . S
C538 C554 1.349 1_556 S
C539 C537 1.327 . S
C539 C558 1.429 . S
C539 H563 0.950 . S
C540 C557 1.574 1_655 S
C540 C559 1.368 . S
C540 H564 0.949 . S
H541 C545 0.949 . S
C542 C543 1.349 . S
C542 C544 1.327 . S
C542 H565 0.950 . S
C543 C542 1.349 . S
C543 C555 1.349 1_554 S
C544 C542 1.327 . S
C544 C560 1.429 . S
C544 H566 0.950 . S
C545 H541 0.949 . S
C545 C553 1.574 1_455 S
C545 C561 1.368 1_556 S
H546 C554 0.950 . S
H547 C552 0.950 . S
H548 C553 0.949 . S
H549 C555 0.950 . S
H550 C556 0.950 . S
H551 C557 0.949 . S
C552 H547 0.950 . S
C552 C554 1.327 . S
C552 C558 1.429 1_554 S
C553 C545 1.574 1_655 S
C553 H548 0.949 . S
C553 C559 1.368 1_556 S
C554 C538 1.349 1_554 S
C554 H546 0.950 . S
C554 C552 1.327 . S
C555 C543 1.349 1_556 S
C555 H549 0.950 . S
C555 C556 1.327 . S
C556 H550 0.950 . S
C556 C555 1.327 . S
C556 C560 1.429 1_556 S
C557 C540 1.574 1_455 S
C557 H551 0.949 . S
C557 C561 1.368 . S
C558 C539 1.429 . S
C558 C552 1.429 1_556 S
C558 C559 1.523 1_556 S
C559 C540 1.368 . S
C559 C553 1.368 1_554 S
C559 C558 1.523 1_554 S
C560 C544 1.429 . S
C560 C556 1.429 1_554 S
C560 C561 1.523 . S
C561 C545 1.368 1_554 S
C561 C557 1.368 . S
C561 C560 1.523 . S
H562 C537 0.950 . S
H563 C539 0.950 . S
H564 C540 0.949 . S
H565 C542 0.950 . S
H566 C544 0.950 . S
C567 C568 1.349 . S
C567 C569 1.327 . S
C567 H592 0.950 . S
C568 C567 1.349 . S
C568 C584 1.349 . S
C569 C567 1.327 . S
C569 C588 1.429 . S
C569 H593 0.950 . S
C570 C587 1.574 . S
C570 C589 1.368 . S
C570 H594 0.949 . S
H571 C575 0.949 . S
C572 C573 1.349 . S
C572 C574 1.327 . S
C572 H595 0.950 . S
C573 C572 1.349 . S
C573 C585 1.349 . S
C574 C572 1.327 . S
C574 C590 1.429 . S
C574 H596 0.950 . S
C575 H571 0.949 . S
C575 C583 1.574 . S
C575 C591 1.368 . S
H576 C584 0.950 . S
H577 C582 0.950 . S
H578 C583 0.949 . S
H579 C585 0.950 . S
H580 C586 0.950 . S
H581 C587 0.949 . S
C582 H577 0.950 . S
C582 C584 1.327 . S
C582 C588 1.429 . S
C583 C575 1.574 . S
C583 H578 0.949 . S
C583 C589 1.368 . S
C584 C568 1.349 . S
C584 H576 0.950 . S
C584 C582 1.327 . S
C585 C573 1.349 . S
C585 H579 0.950 . S
C585 C586 1.327 . S
C586 H580 0.950 . S
C586 C585 1.327 . S
C586 C590 1.429 . S
C587 C570 1.574 . S
C587 H581 0.949 . S
C587 C591 1.368 . S
C588 C569 1.429 . S
C588 C582 1.429 . S
C588 C589 1.523 . S
C589 C570 1.368 . S
C589 C583 1.368 . S
C589 C588 1.523 . S
C590 C574 1.429 . S
C590 C586 1.429 . S
C590 C591 1.523 . S
C591 C575 1.368 . S
C591 C587 1.368 . S
C591 C590 1.523 . S
H592 C567 0.950 . S
H593 C569 0.950 . S
H594 C570 0.949 . S
H595 C572 0.950 . S
H596 C574 0.950 . S
C597 C598 1.349 . S
C597 C599 1.327 . S
C597 H622 0.950 . S
C598 C597 1.349 . S
C598 C614 1.349 . S
C599 C597 1.327 . S
C599 C618 1.429 . S
C599 H623 0.950 . S
C600 C617 1.574 . S
C600 C619 1.368 . S
C600 H624 0.949 . S
H601 C605 0.949 . S
C602 C603 1.349 . S
C602 C604 1.327 . S
C602 H625 0.950 . S
C603 C602 1.349 . S
C603 C615 1.349 . S
C604 C602 1.327 . S
C604 C620 1.429 . S
C604 H626 0.950 . S
C605 H601 0.949 . S
C605 C613 1.574 . S
C605 C621 1.368 . S
H606 C614 0.950 . S
H607 C612 0.950 . S
H608 C613 0.949 . S
H609 C615 0.950 . S
H610 C616 0.950 . S
H611 C617 0.949 . S
C612 H607 0.950 . S
C612 C614 1.327 . S
C612 C618 1.429 . S
C613 C605 1.574 . S
C613 H608 0.949 . S
C613 C619 1.368 . S
C614 C598 1.349 . S
C614 H606 0.950 . S
C614 C612 1.327 . S
C615 C603 1.349 . S
C615 H609 0.950 . S
C615 C616 1.327 . S
C616 H610 0.950 . S
C616 C615 1.327 . S
C616 C620 1.429 . S
C617 C600 1.574 . S
C617 H611 0.949 . S
C617 C621 1.368 . S
C618 C599 1.429 . S
C618 C612 1.429 . S
C618 C619 1.523 . S
C619 C600 1.368 . S
C619 C613 1.368 . S
C619 C618 1.523 . S
C620 C604 1.429 . S
C620 C616 1.429 . S
C620 C621 1.523 . S
C621 C605 1.368 . S
C621 C617 1.368 . S
C621 C620 1.523 . S
H622 C597 0.950 . S
H623 C599 0.950 . S
H624 C600 0.949 . S
H625 C602 0.950 . S
H626 C604 0.950 . S
C627 C628 1.349 . S
C627 C629 1.327 . S
C627 H652 0.950 . S
C628 C627 1.349 . S
C628 C644 1.349 . S
C629 C627 1.327 . S
C629 C648 1.429 . S
C629 H653 0.950 . S
C630 C647 1.574 . S
C630 C649 1.368 . S
C630 H654 0.949 . S
H631 C635 0.949 . S
C632 C633 1.349 . S
C632 C634 1.327 . S
C632 H655 0.950 . S
C633 C632 1.349 . S
C633 C645 1.349 . S
C634 C632 1.327 . S
C634 C650 1.429 . S
C634 H656 0.950 . S
C635 H631 0.949 . S
C635 C643 1.574 . S
C635 C651 1.368 . S
H636 C644 0.950 . S
H637 C642 0.950 . S
H638 C643 0.949 . S
H639 C645 0.950 . S
H640 C646 0.950 . S
H641 C647 0.949 . S
C642 H637 0.950 . S
C642 C644 1.327 . S
C642 C648 1.429 . S
C643 C635 1.574 . S
C643 H638 0.949 . S
C643 C649 1.368 . S
C644 C628 1.349 . S
C644 H636 0.950 . S
C644 C642 1.327 . S
C645 C633 1.349 . S
C645 H639 0.950 . S
C645 C646 1.327 . S
C646 H640 0.950 . S
C646 C645 1.327 . S
C646 C650 1.429 . S
C647 C630 1.574 . S
C647 H641 0.949 . S
C647 C651 1.368 . S
C648 C629 1.429 . S
C648 C642 1.429 . S
C648 C649 1.523 . S
C649 C630 1.368 . S
C649 C643 1.368 . S
C649 C648 1.523 . S
C650 C634 1.429 . S
C650 C646 1.429 . S
C650 C651 1.523 . S
C651 C635 1.368 . S
C651 C647 1.368 . S
C651 C650 1.523 . S
H652 C627 0.950 . S
H653 C629 0.950 . S
H654 C630 0.949 . S
H655 C632 0.950 . S
H656 C634 0.950 . S
C657 C658 1.349 . S
C657 C659 1.327 . S
C657 H682 0.950 . S
C658 C657 1.349 . S
C658 C674 1.349 . S
C659 C657 1.327 . S
C659 C678 1.429 . S
C659 H683 0.950 . S
C660 C677 1.574 . S
C660 C679 1.368 . S
C660 H684 0.949 . S
H661 C665 0.949 . S
C662 C663 1.349 . S
C662 C664 1.327 . S
C662 H685 0.950 . S
C663 C662 1.349 . S
C663 C675 1.349 . S
C664 C662 1.327 . S
C664 C680 1.429 . S
C664 H686 0.950 . S
C665 H661 0.949 . S
C665 C673 1.574 . S
C665 C681 1.368 . S
H666 C674 0.950 . S
H667 C672 0.950 . S
H668 C673 0.949 . S
H669 C675 0.950 . S
H670 C676 0.950 . S
H671 C677 0.949 . S
C672 H667 0.950 . S
C672 C674 1.327 . S
C672 C678 1.429 . S
C673 C665 1.574 . S
C673 H668 0.949 . S
C673 C679 1.368 . S
C674 C658 1.349 . S
C674 H666 0.950 . S
C674 C672 1.327 . S
C675 C663 1.349 . S
C675 H669 0.950 . S
C675 C676 1.327 . S
C676 H670 0.950 . S
C676 C675 1.327 . S
C676 C680 1.429 . S
C677 C660 1.574 . S
C677 H671 0.949 . S
C677 C681 1.368 . S
C678 C659 1.429 . S
C678 C672 1.429 . S
C678 C679 1.523 . S
C679 C660 1.368 . S
C679 C673 1.368 . S
C679 C678 1.523 . S
C680 C664 1.429 . S
C680 C676 1.429 . S
C680 C681 1.523 . S
C681 C665 1.368 . S
C681 C677 1.368 . S
C681 C680 1.523 . S
H682 C657 0.950 . S
H683 C659 0.950 . S
H684 C660 0.949 . S
H685 C662 0.950 . S
H686 C664 0.950 . S
C687 C688 1.349 . S
C687 C689 1.327 . S
C687 H712 0.950 . S
C688 C687 1.349 . S
C688 C704 1.349 . S
C689 C687 1.327 . S
C689 C708 1.429 . S
C689 H713 0.950 . S
C690 C707 1.574 . S
C690 C709 1.368 . S
C690 H714 0.949 . S
H691 C695 0.949 . S
C692 C693 1.349 . S
C692 C694 1.327 . S
C692 H715 0.950 . S
C693 C692 1.349 . S
C693 C705 1.349 . S
C694 C692 1.327 . S
C694 C710 1.429 . S
C694 H716 0.950 . S
C695 H691 0.949 . S
C695 C703 1.574 . S
C695 C711 1.368 . S
H696 C704 0.950 . S
H697 C702 0.950 . S
H698 C703 0.949 . S
H699 C705 0.950 . S
H700 C706 0.950 . S
H701 C707 0.949 . S
C702 H697 0.950 . S
C702 C704 1.327 . S
C702 C708 1.429 . S
C703 C695 1.574 . S
C703 H698 0.949 . S
C703 C709 1.368 . S
C704 C688 1.349 . S
C704 H696 0.950 . S
C704 C702 1.327 . S
C705 C693 1.349 . S
C705 H699 0.950 . S
C705 C706 1.327 . S
C706 H700 0.950 . S
C706 C705 1.327 . S
C706 C710 1.429 . S
C707 C690 1.574 . S
C707 H701 0.949 . S
C707 C711 1.368 . S
C708 C689 1.429 . S
C708 C702 1.429 . S
C708 C709 1.523 . S
C709 C690 1.368 . S
C709 C703 1.368 . S
C709 C708 1.523 . S
C710 C694 1.429 . S
C710 C706 1.429 . S
C710 C711 1.523 . S
C711 C695 1.368 . S
C711 C707 1.368 . S
C711 C710 1.523 . S
H712 C687 0.950 . S
H713 C689 0.950 . S
H714 C690 0.949 . S
H715 C692 0.950 . S
H716 C694 0.950 . S
C717 C718 1.349 . S
C717 C719 1.327 . S
C717 H742 0.950 . S
C718 C717 1.349 . S
C718 C734 1.349 . S
C719 C717 1.327 . S
C719 C738 1.429 . S
C719 H743 0.950 . S
C720 C737 1.574 . S
C720 C739 1.368 . S
C720 H744 0.949 . S
H721 C725 0.949 . S
C722 C723 1.349 . S
C722 C724 1.327 . S
C722 H745 0.950 . S
C723 C722 1.349 . S
C723 C735 1.349 . S
C724 C722 1.327 . S
C724 C740 1.429 . S
C724 H746 0.950 . S
C725 H721 0.949 . S
C725 C733 1.574 . S
C725 C741 1.368 . S
H726 C734 0.950 . S
H727 C732 0.950 . S
H728 C733 0.949 . S
H729 C735 0.950 . S
H730 C736 0.950 . S
H731 C737 0.949 . S
C732 H727 0.950 . S
C732 C734 1.327 . S
C732 C738 1.429 . S
C733 C725 1.574 . S
C733 H728 0.949 . S
C733 C739 1.368 . S
C734 C718 1.349 . S
C734 H726 0.950 . S
C734 C732 1.327 . S
C735 C723 1.349 . S
C735 H729 0.950 . S
C735 C736 1.327 . S
C736 H730 0.950 . S
C736 C735 1.327 . S
C736 C740 1.429 . S
C737 C720 1.574 . S
C737 H731 0.949 . S
C737 C741 1.368 . S
C738 C719 1.429 . S
C738 C732 1.429 . S
C738 C739 1.523 . S
C739 C720 1.368 . S
C739 C733 1.368 . S
C739 C738 1.523 . S
C740 C724 1.429 . S
C740 C736 1.429 . S
C740 C741 1.523 . S
C741 C725 1.368 . S
C741 C737 1.368 . S
C741 C740 1.523 . S
H742 C717 0.950 . S
H743 C719 0.950 . S
H744 C720 0.949 . S
H745 C722 0.950 . S
H746 C724 0.950 . S
C747 C748 1.349 . S
C747 C749 1.327 . S
C747 H772 0.950 . S
C748 C747 1.349 . S
C748 C764 1.349 1_655 S
C749 C747 1.327 . S
C749 C768 1.429 1_655 S
C749 H773 0.950 . S
C750 C767 1.574 . S
C750 C769 1.368 . S
C750 H774 0.949 . S
H751 C755 0.949 . S
C752 C753 1.349 . S
C752 C754 1.327 . S
C752 H775 0.950 . S
C753 C752 1.349 . S
C753 C765 1.349 1_455 S
C754 C752 1.327 . S
C754 C770 1.429 . S
C754 H776 0.950 . S
C755 H751 0.949 . S
C755 C763 1.574 . S
C755 C771 1.368 1_655 S
H756 C764 0.950 . S
H757 C762 0.950 . S
H758 C763 0.949 . S
H759 C765 0.950 . S
H760 C766 0.950 . S
H761 C767 0.949 . S
C762 H757 0.950 . S
C762 C764 1.327 . S
C762 C768 1.429 . S
C763 C755 1.574 . S
C763 H758 0.949 . S
C763 C769 1.368 1_655 S
C764 C748 1.349 1_455 S
C764 H756 0.950 . S
C764 C762 1.327 . S
C765 C753 1.349 1_655 S
C765 H759 0.950 . S
C765 C766 1.327 . S
C766 H760 0.950 . S
C766 C765 1.327 . S
C766 C770 1.429 1_655 S
C767 C750 1.574 . S
C767 H761 0.949 . S
C767 C771 1.368 . S
C768 C749 1.429 1_455 S
C768 C762 1.429 . S
C768 C769 1.523 . S
C769 C750 1.368 . S
C769 C763 1.368 1_455 S
C769 C768 1.523 . S
C770 C754 1.429 . S
C770 C766 1.429 1_455 S
C770 C771 1.523 . S
C771 C755 1.368 1_455 S
C771 C767 1.368 . S
C771 C770 1.523 . S
H772 C747 0.950 . S
H773 C749 0.950 . S
H774 C750 0.949 . S
H775 C752 0.950 . S
H776 C754 0.950 . S
C777 C778 1.349 . S
C777 C779 1.327 . S
C777 H802 0.950 . S
C778 C777 1.349 . S
C778 C794 1.349 . S
C779 C777 1.327 . S
C779 C798 1.429 . S
C779 H803 0.950 . S
C780 C797 1.574 . S
C780 C799 1.368 . S
C780 H804 0.949 . S
H781 C785 0.949 . S
C782 C783 1.349 . S
C782 C784 1.327 . S
C782 H805 0.950 . S
C783 C782 1.349 . S
C783 C795 1.349 . S
C784 C782 1.327 . S
C784 C800 1.429 . S
C784 H806 0.950 . S
C785 H781 0.949 . S
C785 C793 1.574 . S
C785 C801 1.368 . S
H786 C794 0.950 . S
H787 C792 0.950 . S
H788 C793 0.949 . S
H789 C795 0.950 . S
H790 C796 0.950 . S
H791 C797 0.949 . S
C792 H787 0.950 . S
C792 C794 1.327 . S
C792 C798 1.429 . S
C793 C785 1.574 . S
C793 H788 0.949 . S
C793 C799 1.368 . S
C794 C778 1.349 . S
C794 H786 0.950 . S
C794 C792 1.327 . S
C795 C783 1.349 . S
C795 H789 0.950 . S
C795 C796 1.327 . S
C796 H790 0.950 . S
C796 C795 1.327 . S
C796 C800 1.429 . S
C797 C780 1.574 . S
C797 H791 0.949 . S
C797 C801 1.368 . S
C798 C779 1.429 . S
C798 C792 1.429 . S
C798 C799 1.523 . S
C799 C780 1.368 . S
C799 C793 1.368 . S
C799 C798 1.523 . S
C800 C784 1.429 . S
C800 C796 1.429 . S
C800 C801 1.523 . S
C801 C785 1.368 . S
C801 C797 1.368 . S
C801 C800 1.523 . S
H802 C777 0.950 . S
H803 C779 0.950 . S
H804 C780 0.949 . S
H805 C782 0.950 . S
H806 C784 0.950 . S
C807 C808 1.349 . S
C807 C809 1.327 . S
C807 H832 0.950 . S
C808 C807 1.349 . S
C808 C824 1.349 . S
C809 C807 1.327 . S
C809 C828 1.429 . S
C809 H833 0.950 . S
C810 C827 1.574 . S
C810 C829 1.368 1_565 S
C810 H834 0.949 . S
H811 C815 0.949 . S
C812 C813 1.342 1_565 S
C812 C814 1.327 . S
C812 H835 0.950 . S
C813 C812 1.342 1_545 S
C813 C825 1.358 . S
C814 C812 1.327 . S
C814 C830 1.429 1_565 S
C814 H836 0.950 . S
C815 H811 0.949 . S
C815 C823 1.574 . S
C815 C831 1.368 . S
H816 C824 0.950 1_565 S
H817 C822 0.950 . S
H818 C823 0.949 . S
H819 C825 0.950 . S
H820 C826 0.950 . S
H821 C827 0.949 . S
C822 H817 0.950 . S
C822 C824 1.327 1_565 S
C822 C828 1.429 1_565 S
C823 C815 1.574 . S
C823 H818 0.949 . S
C823 C829 1.368 . S
C824 C808 1.349 . S
C824 H816 0.950 1_545 S
C824 C822 1.327 1_545 S
C825 C813 1.358 . S
C825 H819 0.950 . S
C825 C826 1.327 . S
C826 H820 0.950 . S
C826 C825 1.327 . S
C826 C830 1.429 . S
C827 C810 1.574 . S
C827 H821 0.949 . S
C827 C831 1.368 1_565 S
C828 C809 1.429 . S
C828 C822 1.429 1_545 S
C828 C829 1.523 . S
C829 C810 1.368 1_545 S
C829 C823 1.368 . S
C829 C828 1.523 . S
C830 C814 1.429 1_545 S
C830 C826 1.429 . S
C830 C831 1.523 . S
C831 C815 1.368 . S
C831 C827 1.368 1_545 S
C831 C830 1.523 . S
H832 C807 0.950 . S
H833 C809 0.950 . S
H834 C810 0.949 . S
H835 C812 0.950 . S
H836 C814 0.950 . S
C837 C838 1.349 . S
C837 C839 1.327 . S
C837 H862 0.950 . S
C838 C837 1.349 . S
C838 C854 1.349 . S
C839 C837 1.327 . S
C839 C858 1.429 . S
C839 H863 0.950 . S
C840 C857 1.574 . S
C840 C859 1.368 . S
C840 H864 0.949 . S
H841 C845 0.949 . S
C842 C843 1.349 . S
C842 C844 1.327 . S
C842 H865 0.950 . S
C843 C842 1.349 . S
C843 C855 1.349 . S
C844 C842 1.327 . S
C844 C860 1.429 1_554 S
C844 H866 0.950 1_554 S
C845 H841 0.949 . S
C845 C853 1.574 . S
C845 C861 1.368 . S
H846 C854 0.950 . S
H847 C852 0.950 . S
H848 C853 0.949 . S
H849 C855 0.950 . S
H850 C856 0.950 1_556 S
H851 C857 0.949 . S
C852 H847 0.950 . S
C852 C854 1.327 . S
C852 C858 1.429 . S
C853 C845 1.574 . S
C853 H848 0.949 . S
C853 C859 1.368 . S
C854 C838 1.349 . S
C854 H846 0.950 . S
C854 C852 1.327 . S
C855 C843 1.349 . S
C855 H849 0.950 . S
C855 C856 1.327 . S
C856 H850 0.950 1_554 S
C856 C855 1.327 . S
C856 C860 1.429 1_554 S
C857 C840 1.574 . S
C857 H851 0.949 . S
C857 C861 1.368 . S
C858 C839 1.429 . S
C858 C852 1.429 . S
C858 C859 1.523 . S
C859 C840 1.368 . S
C859 C853 1.368 . S
C859 C858 1.523 . S
C860 C844 1.429 1_556 S
C860 C856 1.429 1_556 S
C860 C861 1.523 . S
C861 C845 1.368 . S
C861 C857 1.368 . S
C861 C860 1.523 . S
H862 C837 0.950 . S
H863 C839 0.950 . S
H864 C840 0.949 . S
H865 C842 0.950 . S
H866 C844 0.950 1_556 S
C867 C868 1.349 . S
C867 C869 1.327 . S
C867 H892 0.950 . S
C868 C867 1.349 . S
C868 C884 1.349 . S
C869 C867 1.327 . S
C869 C888 1.429 . S
C869 H893 0.950 . S
C870 C887 1.574 . S
C870 C889 1.368 . S
C870 H894 0.949 . S
H871 C875 0.949 . S
C872 C873 1.349 . S
C872 C874 1.327 . S
C872 H895 0.950 . S
C873 C872 1.349 . S
C873 C885 1.349 . S
C874 C872 1.327 . S
C874 C890 1.429 1_554 S
C874 H896 0.950 1_554 S
C875 H871 0.949 . S
C875 C883 1.574 . S
C875 C891 1.368 . S
H876 C884 0.950 . S
H877 C882 0.950 . S
H878 C883 0.949 . S
H879 C885 0.950 . S
H880 C886 0.956 . S
H881 C887 0.949 . S
C882 H877 0.950 . S
C882 C884 1.327 . S
C882 C888 1.429 . S
C883 C875 1.574 . S
C883 H878 0.949 . S
C883 C889 1.368 . S
C884 C868 1.349 . S
C884 H876 0.950 . S
C884 C882 1.327 . S
C885 C873 1.349 . S
C885 H879 0.950 . S
C885 C886 1.316 1_554 S
C886 H880 0.956 . S
C886 C885 1.316 1_556 S
C886 C890 1.434 . S
C887 C870 1.574 . S
C887 H881 0.949 . S
C887 C891 1.368 . S
C888 C869 1.429 . S
C888 C882 1.429 . S
C888 C889 1.523 . S
C889 C870 1.368 . S
C889 C883 1.368 . S
C889 C888 1.523 . S
C890 C874 1.429 1_556 S
C890 C886 1.434 . S
C890 C891 1.523 . S
C891 C875 1.368 . S
C891 C887 1.368 . S
C891 C890 1.523 . S
H892 C867 0.950 . S
H893 C869 0.950 . S
H894 C870 0.949 . S
H895 C872 0.950 . S
H896 C874 0.950 1_556 S
C897 C898 1.349 . S
C897 C899 1.327 . S
C897 H922 0.950 . S
C898 C897 1.349 . S
C898 C914 1.349 . S
C899 C897 1.327 . S
C899 C918 1.429 . S
C899 H923 0.950 . S
C900 C917 1.574 . S
C900 C919 1.368 . S
C900 H924 0.949 . S
H901 C905 0.949 . S
C902 C903 1.349 . S
C902 C904 1.327 . S
C902 H925 0.950 . S
C903 C902 1.349 . S
C903 C915 1.349 . S
C904 C902 1.327 . S
C904 C920 1.429 1_554 S
C904 H926 0.950 1_554 S
C905 H901 0.949 . S
C905 C913 1.574 . S
C905 C921 1.368 . S
H906 C914 0.950 . S
H907 C912 0.950 . S
H908 C913 0.949 . S
H909 C915 0.950 . S
H910 C916 0.950 1_556 S
H911 C917 0.949 . S
C912 H907 0.950 . S
C912 C914 1.327 . S
C912 C918 1.429 . S
C913 C905 1.574 . S
C913 H908 0.949 . S
C913 C919 1.368 . S
C914 C898 1.349 . S
C914 H906 0.950 . S
C914 C912 1.327 . S
C915 C903 1.349 . S
C915 H909 0.950 . S
C915 C916 1.327 . S
C916 H910 0.950 1_554 S
C916 C915 1.327 . S
C916 C920 1.429 1_554 S
C917 C900 1.574 . S
C917 H911 0.949 . S
C917 C921 1.368 . S
C918 C899 1.429 . S
C918 C912 1.429 . S
C918 C919 1.523 . S
C919 C900 1.368 . S
C919 C913 1.368 . S
C919 C918 1.523 . S
C920 C904 1.429 1_556 S
C920 C916 1.429 1_556 S
C920 C921 1.523 . S
C921 C905 1.368 . S
C921 C917 1.368 . S
C921 C920 1.523 . S
H922 C897 0.950 . S
H923 C899 0.950 . S
H924 C900 0.949 . S
H925 C902 0.950 . S
H926 C904 0.950 1_556 S
C927 C928 1.349 . S
C927 C929 1.327 . S
C927 H952 0.950 . S
C928 C927 1.349 . S
C928 C944 1.349 . S
C929 C927 1.327 . S
C929 C948 1.429 . S
C929 H953 0.950 . S
C930 C947 1.574 . S
C930 C949 1.368 . S
C930 H954 0.949 . S
H931 C935 0.949 . S
C932 C933 1.349 . S
C932 C934 1.327 . S
C932 H955 0.950 . S
C933 C932 1.349 . S
C933 C945 1.349 . S
C934 C932 1.327 . S
C934 C950 1.429 1_556 S
C934 H956 0.950 1_556 S
C935 H931 0.949 . S
C935 C943 1.574 . S
C935 C951 1.368 . S
H936 C944 0.950 . S
H937 C942 0.950 . S
H938 C943 0.949 . S
H939 C945 0.950 . S
H940 C946 0.950 . S
H941 C947 0.949 . S
C942 H937 0.950 . S
C942 C944 1.327 . S
C942 C948 1.429 . S
C943 C935 1.574 . S
C943 H938 0.949 . S
C943 C949 1.368 . S
C944 C928 1.349 . S
C944 H936 0.950 . S
C944 C942 1.327 . S
C945 C933 1.349 . S
C945 H939 0.950 . S
C945 C946 1.327 1_556 S
C946 H940 0.950 . S
C946 C945 1.327 1_554 S
C946 C950 1.429 . S
C947 C930 1.574 . S
C947 H941 0.949 . S
C947 C951 1.368 . S
C948 C929 1.429 . S
C948 C942 1.429 . S
C948 C949 1.523 . S
C949 C930 1.368 . S
C949 C943 1.368 . S
C949 C948 1.523 . S
C950 C934 1.429 1_554 S
C950 C946 1.429 . S
C950 C951 1.523 . S
C951 C935 1.368 . S
C951 C947 1.368 . S
C951 C950 1.523 . S
H952 C927 0.950 . S
H953 C929 0.950 . S
H954 C930 0.949 . S
H955 C932 0.950 . S
H956 C934 0.950 1_554 S
C957 C958 1.349 . S
C957 C959 1.327 1_556 S
C957 H982 0.950 . S
C958 C957 1.349 . S
C958 C974 1.349 . S
C959 C957 1.327 1_554 S
C959 C978 1.429 . S
C959 H983 0.950 . S
C960 C977 1.574 . S
C960 C979 1.368 . S
C960 H984 0.949 . S
H961 C965 0.949 . S
C962 C963 1.349 . S
C962 C964 1.327 . S
C962 H985 0.950 . S
C963 C962 1.349 . S
C963 C975 1.349 . S
C964 C962 1.327 . S
C964 C980 1.429 . S
C964 H986 0.950 . S
C965 H961 0.949 . S
C965 C973 1.574 . S
C965 C981 1.368 . S
H966 C974 0.950 . S
H967 C972 0.950 1_554 S
H968 C973 0.949 . S
H969 C975 0.950 . S
H970 C976 0.950 . S
H971 C977 0.949 . S
C972 H967 0.950 1_556 S
C972 C974 1.327 . S
C972 C978 1.429 1_556 S
C973 C965 1.574 . S
C973 H968 0.949 . S
C973 C979 1.368 . S
C974 C958 1.349 . S
C974 H966 0.950 . S
C974 C972 1.327 . S
C975 C963 1.349 . S
C975 H969 0.950 . S
C975 C976 1.327 . S
C976 H970 0.950 . S
C976 C975 1.327 . S
C976 C980 1.429 . S
C977 C960 1.574 . S
C977 H971 0.949 . S
C977 C981 1.368 . S
C978 C959 1.429 . S
C978 C972 1.429 1_554 S
C978 C979 1.523 . S
C979 C960 1.368 . S
C979 C973 1.368 . S
C979 C978 1.523 . S
C980 C964 1.429 . S
C980 C976 1.429 . S
C980 C981 1.523 . S
C981 C965 1.368 . S
C981 C977 1.368 . S
C981 C980 1.523 . S
H982 C957 0.950 . S
H983 C959 0.950 . S
H984 C960 0.949 . S
H985 C962 0.950 . S
H986 C964 0.950 . S
C987 C988 1.349 . S
C987 C989 1.327 . S
C987 H1012 0.950 . S
C988 C987 1.349 . S
C988 C1004 1.349 . S
C989 C987 1.327 . S
C989 C1008 1.429 . S
C989 H1013 0.950 . S
C990 C1007 1.574 . S
C990 C1009 1.368 . S
C990 H1014 0.949 . S
H991 C995 0.949 . S
C992 C993 1.349 . S
C992 C994 1.327 1_556 S
C992 H1015 0.950 . S
C993 C992 1.349 . S
C993 C1005 1.349 . S
C994 C992 1.327 1_554 S
C994 C1010 1.429 . S
C994 H1016 0.950 . S
C995 H991 0.949 . S
C995 C1003 1.574 . S
C995 C1011 1.368 . S
H996 C1004 0.950 . S
H997 C1002 0.950 . S
H998 C1003 0.949 . S
H999 C1005 0.950 . S
H1000 C1006 0.950 . S
H1001 C1007 0.949 . S
C1002 H997 0.950 . S
C1002 C1004 1.327 . S
C1002 C1008 1.429 . S
C1003 C995 1.574 . S
C1003 H998 0.949 . S
C1003 C1009 1.368 . S
C1004 C988 1.349 . S
C1004 H996 0.950 . S
C1004 C1002 1.327 . S
C1005 C993 1.349 . S
C1005 H999 0.950 . S
C1005 C1006 1.327 1_556 S
C1006 H1000 0.950 . S
C1006 C1005 1.327 1_554 S
C1006 C1010 1.429 . S
C1007 C990 1.574 . S
C1007 H1001 0.949 . S
C1007 C1011 1.368 . S
C1008 C989 1.429 . S
C1008 C1002 1.429 . S
C1008 C1009 1.523 . S
C1009 C990 1.368 . S
C1009 C1003 1.368 . S
C1009 C1008 1.523 . S
C1010 C994 1.429 . S
C1010 C1006 1.429 . S
C1010 C1011 1.523 . S
C1011 C995 1.368 . S
C1011 C1007 1.368 . S
C1011 C1010 1.523 . S
H1012 C987 0.950 . S
H1013 C989 0.950 . S
H1014 C990 0.949 . S
H1015 C992 0.950 . S
H1016 C994 0.950 . S
C208 C18 1.086 . S
C213 C179 1.086 . S
C238 C42 1.044 . S
C243 C203 1.044 . S
C268 C64 1.071 . S
C273 C157 1.059 . S
C298 C111 1.023 . S
C303 C65 1.023 . S
C328 C134 1.029 . S
C333 C19 1.030 . S
C358 C41 1.061 . S
C363 C88 1.049 . S
C388 C180 1.068 . S
C393 C133 1.081 . S
C418 C202 1.101 . S
C423 C87 1.100 . S
C448 C110 1.108 . S
C453 C156 1.108 . S
C478 C67 0.870 1_556 S
C483 C20 0.863 . S
C508 C44 0.876 . S
C513 C21 0.876 1_556 S
C538 C43 0.873 . S
C543 C66 0.871 . S
C568 C90 0.883 . S
C573 C135 0.875 . S
C598 C89 0.882 . S
C603 C113 0.890 . S
C628 C112 0.868 . S
C633 C136 0.876 . S
C658 C205 0.896 . S
C663 C158 0.887 . S
C688 C182 0.888 . S
C693 C159 0.888 . S
C718 C204 0.882 . S
C723 C181 0.882 . S
C748 C16 1.314 . S
C753 C17 1.316 . S
C778 C40 1.314 . S
C783 C39 1.312 . S
C808 C62 1.312 . S
C813 C63 1.314 . S
C838 C85 1.315 . S
C843 C86 1.317 . S
C868 C108 1.313 . S
C873 C109 1.315 . S
C898 C131 1.312 . S
C903 C132 1.314 . S
C928 C154 1.315 . S
C933 C155 1.317 . S
C958 C177 1.315 . S
C963 C178 1.317 . S
C988 C200 1.313 . S
C993 C201 1.315 . S
