# Generated by pormake.
# Topology wkl, (6)-cn, num edge types: 1
# Building blocks:
#     Node 0, Type 0, BuildingBlock: OJICUG_clean_sbu_0, # of connection points: 6
#     Node 1, Type 0, BuildingBlock: OJICUG_clean_sbu_0, # of connection points: 6
#     Node 2, Type 0, BuildingBlock: OJICUG_clean_sbu_0, # of connection points: 6
#     Node 3, Type 0, BuildingBlock: OJICUG_clean_sbu_0, # of connection points: 6
#     Node 4, Type 0, BuildingBlock: OJICUG_clean_sbu_0, # of connection points: 6
#     Node 5, Type 0, BuildingBlock: OJICUG_clean_sbu_0, # of connection points: 6
#     Node 6, Type 0, BuildingBlock: OJICUG_clean_sbu_0, # of connection points: 6
#     Node 7, Type 0, BuildingBlock: OJICUG_clean_sbu_0, # of connection points: 6
#     Node 8, Type 0, BuildingBlock: OJICUG_clean_sbu_0, # of connection points: 6
#     Node 9, Type 0, BuildingBlock: OJICUG_clean_sbu_0, # of connection points: 6
#     Node 10, Type 0, BuildingBlock: OJICUG_clean_sbu_0, # of connection points: 6
#     Node 11, Type 0, BuildingBlock: OJICUG_clean_sbu_0, # of connection points: 6
#     Edge 12, Type (0, 0), None
#     Edge 13, Type (0, 0), None
#     Edge 14, Type (0, 0), None
#     Edge 15, Type (0, 0), None
#     Edge 16, Type (0, 0), None
#     Edge 17, Type (0, 0), None
#     Edge 18, Type (0, 0), None
#     Edge 19, Type (0, 0), None
#     Edge 20, Type (0, 0), None
#     Edge 21, Type (0, 0), None
#     Edge 22, Type (0, 0), None
#     Edge 23, Type (0, 0), None
#     Edge 24, Type (0, 0), None
#     Edge 25, Type (0, 0), None
#     Edge 26, Type (0, 0), None
#     Edge 27, Type (0, 0), None
#     Edge 28, Type (0, 0), None
#     Edge 29, Type (0, 0), None
#     Edge 30, Type (0, 0), None
#     Edge 31, Type (0, 0), None
#     Edge 32, Type (0, 0), None
#     Edge 33, Type (0, 0), None
#     Edge 34, Type (0, 0), None
#     Edge 35, Type (0, 0), None
#     Edge 36, Type (0, 0), None
#     Edge 37, Type (0, 0), None
#     Edge 38, Type (0, 0), None
#     Edge 39, Type (0, 0), None
#     Edge 40, Type (0, 0), None
#     Edge 41, Type (0, 0), None
#     Edge 42, Type (0, 0), None
#     Edge 43, Type (0, 0), None
#     Edge 44, Type (0, 0), None
#     Edge 45, Type (0, 0), None
#     Edge 46, Type (0, 0), None
#     Edge 47, Type (0, 0), None
# Relax obj value: 0.345
# Max RMSD: 0.288
# Mean RMSD: 0.288
data_MOF--net-wkl--node1-OJICUG_clean_sbu_0--edge1-none
_symmetry_space_group_name_H-M    P1
_symmetry_Int_Tables_number       1
_symmetry_cell_setting            triclinic
loop_
_symmetry_equiv_pos_as_xyz
'x, y, z'
_cell_length_a     36.248809
_cell_length_b     36.248902
_cell_length_c     7.2292202
_cell_angle_alpha  89.994986
_cell_angle_beta   90.007891
_cell_angle_gamma 119.99514
loop_
_atom_site_label
_atom_site_type_symbol
_atom_site_fract_x
_atom_site_fract_y
_atom_site_fract_z
_atom_type_partial_charge
Sc0 Sc 0.46798 0.08128 0.24175 0.0
Sc1 Sc 0.48942 0.15707 0.91765 0.0
Sc2 Sc 0.38747 0.09744 0.08366 0.0
O3 O 0.44795 0.11178 0.08325 0.0
C4 C 0.38225 0.00773 0.08287 0.0
C5 C 0.51385 0.09037 0.84959 0.0
C6 C 0.40798 0.11147 0.67234 0.0
C7 C 0.54848 0.16408 0.2649 0.0
C8 C 0.40678 0.09742 0.50168 0.0
C9 C 0.44262 0.19866 0.09613 0.0
O10 O 0.42141 0.02301 0.12118 0.0
O11 O 0.49722 0.11016 0.77418 0.0
O12 O 0.38531 0.08481 0.79418 0.0
O13 O 0.51533 0.14071 0.35812 0.0
O14 O 0.39187 0.11016 0.37421 0.0
O15 O 0.4786 0.20127 0.06905 0.0
O16 O 0.42655 0.07712 0.46976 0.0
O17 O 0.54504 0.17022 0.09292 0.0
O18 O 0.4071 0.16514 0.05797 0.0
O19 O 0.51206 0.08403 1.02481 0.0
O20 O 0.36279 0.02861 0.10663 0.0
O21 O 0.43992 0.14722 0.71791 0.0
Sc22 Sc 0.37252 0.47509 0.40858 0.0
Sc23 Sc 0.31816 0.49655 0.08452 0.0
Sc24 Sc 0.27585 0.39459 0.25054 0.0
O25 O 0.32199 0.45508 0.25009 0.0
C26 C 0.36033 0.38936 0.24967 0.0
C27 C 0.40928 0.52097 1.01642 0.0
C28 C 0.28234 0.41511 0.83921 0.0
C29 C 0.3702 0.55559 0.43175 0.0
C30 C 0.29518 0.41391 0.66854 0.0
C31 C 0.22976 0.44973 0.263 0.0
O32 O 0.38421 0.42852 0.28797 0.0
O33 O 0.37286 0.50436 0.94103 0.0
O34 O 0.28632 0.39244 0.96106 0.0
O35 O 0.36044 0.52244 0.52497 0.0
O36 O 0.26752 0.399 0.54108 0.0
O37 O 0.26312 0.48572 0.23594 0.0
O38 O 0.33524 0.43366 0.6366 0.0
O39 O 0.36062 0.55216 0.25979 0.0
O40 O 0.22777 0.41421 0.2248 0.0
O41 O 0.41384 0.51918 0.19163 0.0
O42 O 0.31999 0.36991 0.27353 0.0
O43 O 0.27852 0.44705 0.88476 0.0
Sc44 Sc 0.8832 0.37955 0.57535 0.0
Sc45 Sc 0.80741 0.32523 0.25123 0.0
Sc46 Sc 0.86703 0.28288 0.41733 0.0
O47 O 0.85269 0.32903 0.41686 0.0
C48 C 0.95674 0.36736 0.41649 0.0
C49 C 0.87412 0.41634 0.18317 0.0
C50 C 0.853 0.28937 1.00598 0.0
C51 C 0.8004 0.37725 0.59847 0.0
C52 C 0.86705 0.30221 0.83532 0.0
C53 C 0.7658 0.23682 0.42968 0.0
O54 O 0.94146 0.39124 0.45477 0.0
O55 O 0.85432 0.37992 0.10778 0.0
O56 O 0.87966 0.29335 0.12785 0.0
O57 O 0.82377 0.36747 0.6917 0.0
O58 O 0.85429 0.27455 0.70787 0.0
O59 O 0.76319 0.2702 0.40261 0.0
O60 O 0.88737 0.34227 0.80337 0.0
O61 O 0.79426 0.36769 0.4265 0.0
O62 O 0.79932 0.23482 0.39161 0.0
O63 O 0.88045 0.42089 0.35839 0.0
O64 O 0.93586 0.32702 0.4403 0.0
O65 O 0.81725 0.28557 0.05151 0.0
Sc66 Sc 0.4894 0.89027 0.74187 0.0
Sc67 Sc 0.46796 0.81448 0.41782 0.0
Sc68 Sc 0.56991 0.87412 0.58391 0.0
O69 O 0.50943 0.85977 0.58343 0.0
C70 C 0.57512 0.96382 0.58304 0.0
C71 C 0.44353 0.88117 0.34967 0.0
C72 C 0.5494 0.86009 0.17257 0.0
C73 C 0.40891 0.80746 0.76501 0.0
C74 C 0.5506 0.87413 1.00189 0.0
C75 C 0.51478 0.77289 0.59632 0.0
O76 O 0.53596 0.94854 0.62129 0.0
O77 O 0.46015 0.86138 0.2743 0.0
O78 O 0.57207 0.88675 0.29442 0.0
O79 O 0.44205 0.83084 0.85824 0.0
O80 O 0.56551 0.86138 0.87446 0.0
O81 O 0.47879 0.77027 0.56925 0.0
O82 O 0.53083 0.89443 0.96992 0.0
O83 O 0.41234 0.80132 0.59305 0.0
O84 O 0.55029 0.80642 0.55821 0.0
O85 O 0.44531 0.88752 0.52488 0.0
O86 O 0.59458 0.94294 0.60688 0.0
O87 O 0.51747 0.82433 0.21813 0.0
Sc88 Sc 0.58492 0.49644 0.90842 0.0
Sc89 Sc 0.63926 0.47498 0.58438 0.0
Sc90 Sc 0.68158 0.57693 0.7504 0.0
O91 O 0.63544 0.51645 0.74995 0.0
C92 C 0.5971 0.58218 0.74961 0.0
C93 C 0.54815 0.45058 0.51622 0.0
C94 C 0.6751 0.55642 0.33908 0.0
C95 C 0.58721 0.41593 0.93157 0.0
C96 C 0.66226 0.55762 0.1684 0.0
C97 C 0.72765 0.52178 0.7629 0.0
O98 O 0.57323 0.54302 0.78786 0.0
O99 O 0.58456 0.46719 0.44085 0.0
O100 O 0.67111 0.57909 0.46091 0.0
O101 O 0.597 0.44908 1.02479 0.0
O102 O 0.68991 0.57253 0.04096 0.0
O103 O 0.69429 0.4858 0.73586 0.0
O104 O 0.6222 0.53787 0.13644 0.0
O105 O 0.59679 0.41936 0.75961 0.0
O106 O 0.72965 0.5573 0.72467 0.0
O107 O 0.54359 0.45237 0.69143 0.0
O108 O 0.63744 0.60163 0.7734 0.0
O109 O 0.67892 0.52448 0.38468 0.0
Sc110 Sc 0.07421 0.59196 0.07528 0.0
Sc111 Sc 0.15 0.6463 0.7512 0.0
Sc112 Sc 0.09037 0.68863 0.91719 0.0
O113 O 0.10472 0.64249 0.91678 0.0
C114 C 0.00066 0.60415 0.91638 0.0
C115 C 0.0833 0.55518 0.68313 0.0
C116 C 0.1044 0.68215 0.50588 0.0
C117 C 0.15702 0.59427 0.09847 0.0
C118 C 0.09035 0.6693 0.3352 0.0
C119 C 0.1916 0.73471 0.9296 0.0
O120 O 0.01595 0.58027 0.95467 0.0
O121 O 0.1031 0.5916 0.60772 0.0
O122 O 0.07774 0.67816 0.62771 0.0
O123 O 0.13365 0.60405 0.19167 0.0
O124 O 0.10311 0.69696 0.20775 0.0
O125 O 0.19421 0.70134 0.90259 0.0
O126 O 0.07005 0.62924 0.30326 0.0
O127 O 0.16316 0.60384 0.9265 0.0
O128 O 0.15807 0.7367 0.89147 0.0
O129 O 0.07697 0.55063 0.85834 0.0
O130 O 0.02155 0.64449 0.94018 0.0
O131 O 0.14015 0.68596 0.55146 0.0
Sc132 Sc 0.86704 0.57694 0.84341 0.0
Sc133 Sc 0.80743 0.475 1.0095 0.0
Sc134 Sc 0.88323 0.49646 0.68543 0.0
O135 O 0.85271 0.51647 0.84387 0.0
C136 C 0.86708 0.55765 0.42545 0.0
C137 C 0.76583 0.52179 0.83097 0.0
C138 C 0.8004 0.41599 0.66221 0.0
C139 C 0.85304 0.55644 0.25475 0.0
C140 C 0.95676 0.58219 0.84432 0.0
C141 C 0.87416 0.45062 0.0776 0.0
O142 O 0.85429 0.57252 0.55288 0.0
O143 O 0.76321 0.4858 0.85807 0.0
O144 O 0.82381 0.44912 0.56895 0.0
O145 O 0.87969 0.5791 0.1329 0.0
O146 O 0.94148 0.54302 0.80615 0.0
O147 O 0.85436 0.46724 0.15299 0.0
O148 O 0.93587 0.60164 0.82035 0.0
O149 O 0.81728 0.52451 0.20919 0.0
O150 O 0.88046 0.45235 0.90237 0.0
O151 O 0.79934 0.55731 0.86918 0.0
O152 O 0.88741 0.53792 0.45745 0.0
O153 O 0.79428 0.41939 0.83423 0.0
Sc154 Sc 0.27585 0.87411 1.00988 0.0
Sc155 Sc 0.31818 0.81448 0.17599 0.0
Sc156 Sc 0.37252 0.89029 0.85192 0.0
O157 O 0.32199 0.85977 1.01035 0.0
C158 C 0.29518 0.87414 0.59192 0.0
C159 C 0.22977 0.77288 0.99755 0.0
C160 C 0.37017 0.80746 0.8287 0.0
C161 C 0.28235 0.8601 0.42122 0.0
C162 C 0.36031 0.96382 1.0108 0.0
C163 C 0.40928 0.88121 0.24408 0.0
O164 O 0.26752 0.86135 0.71935 0.0
O165 O 0.26314 0.77027 1.0246 0.0
O166 O 0.36045 0.83088 0.73543 0.0
O167 O 0.28634 0.88676 0.29935 0.0
O168 O 0.3842 0.94854 0.97264 0.0
O169 O 0.37287 0.8614 0.31946 0.0
O170 O 0.31997 0.94293 0.98679 0.0
O171 O 0.27852 0.82434 0.37569 0.0
O172 O 0.41385 0.88751 0.06885 0.0
O173 O 0.22778 0.80641 1.03569 0.0
O174 O 0.33524 0.89448 0.62392 0.0
O175 O 0.36063 0.80133 1.0007 0.0
Sc176 Sc 0.38751 0.28294 0.17654 0.0
Sc177 Sc 0.48945 0.32523 0.34261 0.0
Sc178 Sc 0.468 0.3796 1.01854 0.0
O179 O 0.44799 0.32906 0.17698 0.0
C180 C 0.40681 0.30227 0.75858 0.0
C181 C 0.44262 0.23683 0.16417 0.0
C182 C 0.54846 0.37721 0.99528 0.0
C183 C 0.40802 0.28944 0.58789 0.0
C184 C 0.38229 0.36742 0.17752 0.0
C185 C 0.51386 0.41635 0.41065 0.0
O186 O 0.39193 0.27461 0.88602 0.0
O187 O 0.47862 0.27019 0.19124 0.0
O188 O 0.51533 0.36751 0.90202 0.0
O189 O 0.38535 0.29344 0.46601 0.0
O190 O 0.42145 0.3913 0.13933 0.0
O191 O 0.49725 0.37993 0.48606 0.0
O192 O 0.36283 0.32709 0.15344 0.0
O193 O 0.43994 0.2856 0.54237 0.0
O194 O 0.51212 0.42092 0.23542 0.0
O195 O 0.40712 0.23485 0.20238 0.0
O196 O 0.42652 0.34233 0.79057 0.0
O197 O 0.54506 0.36767 0.16728 0.0
Sc198 Sc 0.09037 0.39456 0.3435 0.0
Sc199 Sc 0.14998 0.49651 0.50955 0.0
Sc200 Sc 0.07417 0.47505 0.18545 0.0
O201 O 0.1047 0.45504 0.34392 0.0
C202 C 0.09033 0.41387 0.92552 0.0
C203 C 0.19159 0.44972 0.33107 0.0
C204 C 0.157 0.55552 0.16222 0.0
C205 C 0.10437 0.41508 0.75484 0.0
C206 C 0.00065 0.38932 0.34439 0.0
C207 C 0.08326 0.5209 0.57758 0.0
O208 O 0.10311 0.39898 0.05297 0.0
O209 O 0.1942 0.4857 0.35817 0.0
O210 O 0.13358 0.52239 0.06897 0.0
O211 O 0.07772 0.39241 0.63298 0.0
O212 O 0.01592 0.42848 0.30618 0.0
O213 O 0.10307 0.50429 0.653 0.0
O214 O 0.02154 0.36987 0.32044 0.0
O215 O 0.14013 0.44701 0.7093 0.0
O216 O 0.07694 0.51916 0.40235 0.0
O217 O 0.15807 0.4142 0.36928 0.0
O218 O 0.06999 0.43359 0.95748 0.0
O219 O 0.16313 0.55212 0.33423 0.0
Sc220 Sc 0.68153 0.09743 0.51006 0.0
Sc221 Sc 0.63921 0.15707 0.67602 0.0
Sc222 Sc 0.58486 0.08125 0.35196 0.0
O223 O 0.63539 0.11178 0.51044 0.0
C224 C 0.6622 0.09741 0.09207 0.0
C225 C 0.72762 0.19865 0.49766 0.0
C226 C 0.58722 0.16409 0.32864 0.0
C227 C 0.67503 0.11144 0.92137 0.0
C228 C 0.59707 0.00773 0.51095 0.0
C229 C 0.5481 0.09035 0.74405 0.0
O230 O 0.68986 0.11019 0.21952 0.0
O231 O 0.69425 0.20128 0.52466 0.0
O232 O 0.59694 0.14067 0.23543 0.0
O233 O 0.67103 0.08479 0.79953 0.0
O234 O 0.57318 0.02301 0.47274 0.0
O235 O 0.58451 0.11016 0.81947 0.0
O236 O 0.6374 0.02861 0.48697 0.0
O237 O 0.67886 0.14721 0.87582 0.0
O238 O 0.54353 0.08404 0.56883 0.0
O239 O 0.72961 0.16513 0.53589 0.0
O240 O 0.62214 0.07706 0.12404 0.0
O241 O 0.59676 0.17023 0.50065 0.0
Sc242 Sc 0.56991 0.68861 0.67673 0.0
Sc243 Sc 0.46797 0.64631 0.84276 0.0
Sc244 Sc 0.48941 0.59195 0.51871 0.0
O245 O 0.50943 0.64249 0.67715 0.0
C246 C 0.55061 0.66928 0.25875 0.0
C247 C 0.51478 0.73471 0.66431 0.0
C248 C 0.40894 0.59433 0.49546 0.0
C249 C 0.54941 0.68212 0.08805 0.0
C250 C 0.57514 0.60413 0.6776 0.0
C251 C 0.44357 0.5552 0.91086 0.0
O252 O 0.56549 0.69695 0.38619 0.0
O253 O 0.47879 0.70135 0.69136 0.0
O254 O 0.44207 0.60404 0.40221 0.0
O255 O 0.57207 0.67812 0.96621 0.0
O256 O 0.53598 0.58026 0.63942 0.0
O257 O 0.46019 0.59162 0.98625 0.0
O258 O 0.5946 0.64447 0.65367 0.0
O259 O 0.51748 0.68596 0.04248 0.0
O260 O 0.44531 0.55063 0.73563 0.0
O261 O 0.55029 0.7367 0.70249 0.0
O262 O 0.53087 0.62923 0.29073 0.0
O263 O 0.41236 0.60387 0.66746 0.0
loop_
_geom_bond_atom_site_label_1
_geom_bond_atom_site_label_2
_geom_bond_distance
_geom_bond_site_symmetry_2
_ccdc_geom_bond_type
Sc0 O3 2.025 . S
Sc0 O10 2.105 . S
Sc0 O13 2.105 . S
Sc0 O16 2.105 . S
Sc0 O19 2.105 1_554 S
Sc1 O3 2.025 1_556 S
Sc1 O11 2.105 . S
Sc1 O15 2.105 . S
Sc1 O17 2.105 1_556 S
Sc1 O21 2.105 . S
Sc2 O3 2.025 . S
Sc2 O12 2.105 1_554 S
Sc2 O14 2.105 . S
Sc2 O18 2.105 . S
Sc2 O20 2.105 1_554 S
O3 Sc0 2.025 . S
O3 Sc1 2.025 1_554 S
O3 Sc2 2.025 . S
C4 O10 1.268 1_556 S
C4 O20 1.268 . S
C5 O11 1.268 . S
C5 O19 1.268 . S
C6 O12 1.268 . S
C6 O21 1.268 . S
C7 O13 1.268 . S
C7 O17 1.268 . S
C8 O14 1.268 . S
C8 O16 1.268 . S
C9 O15 1.268 1_554 S
C9 O18 1.268 . S
O10 Sc0 2.105 . S
O10 C4 1.268 1_554 S
O11 Sc1 2.105 . S
O11 C5 1.268 . S
O12 Sc2 2.105 1_556 S
O12 C6 1.268 . S
O13 Sc0 2.105 . S
O13 C7 1.268 . S
O14 Sc2 2.105 . S
O14 C8 1.268 . S
O15 Sc1 2.105 . S
O15 C9 1.268 1_556 S
O16 Sc0 2.105 . S
O16 C8 1.268 . S
O17 Sc1 2.105 1_554 S
O17 C7 1.268 . S
O18 Sc2 2.105 . S
O18 C9 1.268 . S
O19 Sc0 2.105 1_556 S
O19 C5 1.268 . S
O20 Sc2 2.105 1_556 S
O20 C4 1.268 . S
O21 Sc1 2.105 . S
O21 C6 1.268 . S
Sc22 O25 2.025 . S
Sc22 O32 2.105 . S
Sc22 O35 2.105 . S
Sc22 O38 2.105 . S
Sc22 O41 2.105 . S
Sc23 O25 2.025 . S
Sc23 O33 2.105 1_554 S
Sc23 O37 2.105 . S
Sc23 O39 2.105 . S
Sc23 O43 2.105 1_554 S
Sc24 O25 2.025 . S
Sc24 O34 2.105 1_554 S
Sc24 O36 2.105 . S
Sc24 O40 2.105 . S
Sc24 O42 2.105 . S
O25 Sc22 2.025 . S
O25 Sc23 2.025 . S
O25 Sc24 2.025 . S
C26 O32 1.268 . S
C26 O42 1.268 . S
C27 O33 1.268 . S
C27 O41 1.268 1_556 S
C28 O34 1.268 . S
C28 O43 1.268 . S
C29 O35 1.268 . S
C29 O39 1.268 . S
C30 O36 1.268 . S
C30 O38 1.268 . S
C31 O37 1.268 . S
C31 O40 1.268 . S
O32 Sc22 2.105 . S
O32 C26 1.268 . S
O33 Sc23 2.105 1_556 S
O33 C27 1.268 . S
O34 Sc24 2.105 1_556 S
O34 C28 1.268 . S
O35 Sc22 2.105 . S
O35 C29 1.268 . S
O36 Sc24 2.105 . S
O36 C30 1.268 . S
O37 Sc23 2.105 . S
O37 C31 1.268 . S
O38 Sc22 2.105 . S
O38 C30 1.268 . S
O39 Sc23 2.105 . S
O39 C29 1.268 . S
O40 Sc24 2.105 . S
O40 C31 1.268 . S
O41 Sc22 2.105 . S
O41 C27 1.268 1_554 S
O42 Sc24 2.105 . S
O42 C26 1.268 . S
O43 Sc23 2.105 1_556 S
O43 C28 1.268 . S
Sc44 O47 2.025 . S
Sc44 O54 2.105 . S
Sc44 O57 2.105 . S
Sc44 O60 2.105 . S
Sc44 O63 2.105 . S
Sc45 O47 2.025 . S
Sc45 O55 2.105 . S
Sc45 O59 2.105 . S
Sc45 O61 2.105 . S
Sc45 O65 2.105 . S
Sc46 O47 2.025 . S
Sc46 O56 2.105 . S
Sc46 O58 2.105 . S
Sc46 O62 2.105 . S
Sc46 O64 2.105 . S
O47 Sc44 2.025 . S
O47 Sc45 2.025 . S
O47 Sc46 2.025 . S
C48 O54 1.268 . S
C48 O64 1.268 . S
C49 O55 1.268 . S
C49 O63 1.268 . S
C50 O56 1.268 1_556 S
C50 O65 1.268 1_556 S
C51 O57 1.268 . S
C51 O61 1.268 . S
C52 O58 1.268 . S
C52 O60 1.268 . S
C53 O59 1.268 . S
C53 O62 1.268 . S
O54 Sc44 2.105 . S
O54 C48 1.268 . S
O55 Sc45 2.105 . S
O55 C49 1.268 . S
O56 Sc46 2.105 . S
O56 C50 1.268 1_554 S
O57 Sc44 2.105 . S
O57 C51 1.268 . S
O58 Sc46 2.105 . S
O58 C52 1.268 . S
O59 Sc45 2.105 . S
O59 C53 1.268 . S
O60 Sc44 2.105 . S
O60 C52 1.268 . S
O61 Sc45 2.105 . S
O61 C51 1.268 . S
O62 Sc46 2.105 . S
O62 C53 1.268 . S
O63 Sc44 2.105 . S
O63 C49 1.268 . S
O64 Sc46 2.105 . S
O64 C48 1.268 . S
O65 Sc45 2.105 . S
O65 C50 1.268 1_554 S
Sc66 O69 2.025 . S
Sc66 O76 2.105 . S
Sc66 O79 2.105 . S
Sc66 O82 2.105 . S
Sc66 O85 2.105 . S
Sc67 O69 2.025 . S
Sc67 O77 2.105 . S
Sc67 O81 2.105 . S
Sc67 O83 2.105 . S
Sc67 O87 2.105 . S
Sc68 O69 2.025 . S
Sc68 O78 2.105 . S
Sc68 O80 2.105 . S
Sc68 O84 2.105 . S
Sc68 O86 2.105 . S
O69 Sc66 2.025 . S
O69 Sc67 2.025 . S
O69 Sc68 2.025 . S
C70 O76 1.268 . S
C70 O86 1.268 . S
C71 O77 1.268 . S
C71 O85 1.268 . S
C72 O78 1.268 . S
C72 O87 1.268 . S
C73 O79 1.268 . S
C73 O83 1.268 . S
C74 O80 1.268 . S
C74 O82 1.268 . S
C75 O81 1.268 . S
C75 O84 1.268 . S
O76 Sc66 2.105 . S
O76 C70 1.268 . S
O77 Sc67 2.105 . S
O77 C71 1.268 . S
O78 Sc68 2.105 . S
O78 C72 1.268 . S
O79 Sc66 2.105 . S
O79 C73 1.268 . S
O80 Sc68 2.105 . S
O80 C74 1.268 . S
O81 Sc67 2.105 . S
O81 C75 1.268 . S
O82 Sc66 2.105 . S
O82 C74 1.268 . S
O83 Sc67 2.105 . S
O83 C73 1.268 . S
O84 Sc68 2.105 . S
O84 C75 1.268 . S
O85 Sc66 2.105 . S
O85 C71 1.268 . S
O86 Sc68 2.105 . S
O86 C70 1.268 . S
O87 Sc67 2.105 . S
O87 C72 1.268 . S
Sc88 O91 2.025 . S
Sc88 O98 2.105 . S
Sc88 O101 2.105 . S
Sc88 O104 2.105 1_556 S
Sc88 O107 2.105 . S
Sc89 O91 2.025 . S
Sc89 O99 2.105 . S
Sc89 O103 2.105 . S
Sc89 O105 2.105 . S
Sc89 O109 2.105 . S
Sc90 O91 2.025 . S
Sc90 O100 2.105 . S
Sc90 O102 2.105 . S
Sc90 O106 2.105 . S
Sc90 O108 2.105 . S
O91 Sc88 2.025 . S
O91 Sc89 2.025 . S
O91 Sc90 2.025 . S
C92 O98 1.268 . S
C92 O108 1.268 . S
C93 O99 1.268 . S
C93 O107 1.268 . S
C94 O100 1.268 . S
C94 O109 1.268 . S
C95 O101 1.268 . S
C95 O105 1.268 . S
C96 O102 1.268 1_554 S
C96 O104 1.268 . S
C97 O103 1.268 . S
C97 O106 1.268 . S
O98 Sc88 2.105 . S
O98 C92 1.268 . S
O99 Sc89 2.105 . S
O99 C93 1.268 . S
O100 Sc90 2.105 . S
O100 C94 1.268 . S
O101 Sc88 2.105 . S
O101 C95 1.268 . S
O102 Sc90 2.105 . S
O102 C96 1.268 1_556 S
O103 Sc89 2.105 . S
O103 C97 1.268 . S
O104 Sc88 2.105 1_554 S
O104 C96 1.268 . S
O105 Sc89 2.105 . S
O105 C95 1.268 . S
O106 Sc90 2.105 . S
O106 C97 1.268 . S
O107 Sc88 2.105 . S
O107 C93 1.268 . S
O108 Sc90 2.105 . S
O108 C92 1.268 . S
O109 Sc89 2.105 . S
O109 C94 1.268 . S
Sc110 O113 2.025 . S
Sc110 O120 2.105 . S
Sc110 O123 2.105 1_556 S
Sc110 O126 2.105 1_556 S
Sc110 O129 2.105 . S
Sc111 O113 2.025 . S
Sc111 O121 2.105 . S
Sc111 O125 2.105 . S
Sc111 O127 2.105 . S
Sc111 O131 2.105 . S
Sc112 O113 2.025 . S
Sc112 O122 2.105 . S
Sc112 O124 2.105 1_556 S
Sc112 O128 2.105 . S
Sc112 O130 2.105 . S
O113 Sc110 2.025 . S
O113 Sc111 2.025 . S
O113 Sc112 2.025 . S
C114 O120 1.268 . S
C114 O130 1.268 . S
C115 O121 1.268 . S
C115 O129 1.268 . S
C116 O122 1.268 . S
C116 O131 1.268 . S
C117 O123 1.268 . S
C117 O127 1.268 1_554 S
C118 O124 1.268 . S
C118 O126 1.268 . S
C119 O125 1.268 . S
C119 O128 1.268 . S
O120 Sc110 2.105 . S
O120 C114 1.268 . S
O121 Sc111 2.105 . S
O121 C115 1.268 . S
O122 Sc112 2.105 . S
O122 C116 1.268 . S
O123 Sc110 2.105 1_554 S
O123 C117 1.268 . S
O124 Sc112 2.105 1_554 S
O124 C118 1.268 . S
O125 Sc111 2.105 . S
O125 C119 1.268 . S
O126 Sc110 2.105 1_554 S
O126 C118 1.268 . S
O127 Sc111 2.105 . S
O127 C117 1.268 1_556 S
O128 Sc112 2.105 . S
O128 C119 1.268 . S
O129 Sc110 2.105 . S
O129 C115 1.268 . S
O130 Sc112 2.105 . S
O130 C114 1.268 . S
O131 Sc111 2.105 . S
O131 C116 1.268 . S
Sc132 O135 2.025 . S
Sc132 O142 2.105 . S
Sc132 O145 2.105 1_556 S
Sc132 O148 2.105 . S
Sc132 O151 2.105 . S
Sc133 O135 2.025 . S
Sc133 O143 2.105 . S
Sc133 O147 2.105 1_556 S
Sc133 O149 2.105 1_556 S
Sc133 O153 2.105 . S
Sc134 O135 2.025 . S
Sc134 O144 2.105 . S
Sc134 O146 2.105 . S
Sc134 O150 2.105 . S
Sc134 O152 2.105 . S
O135 Sc132 2.025 . S
O135 Sc133 2.025 . S
O135 Sc134 2.025 . S
C136 O142 1.268 . S
C136 O152 1.268 . S
C137 O143 1.268 . S
C137 O151 1.268 . S
C138 O144 1.268 . S
C138 O153 1.268 . S
C139 O145 1.268 . S
C139 O149 1.268 . S
C140 O146 1.268 . S
C140 O148 1.268 . S
C141 O147 1.268 . S
C141 O150 1.268 1_554 S
O142 Sc132 2.105 . S
O142 C136 1.268 . S
O143 Sc133 2.105 . S
O143 C137 1.268 . S
O144 Sc134 2.105 . S
O144 C138 1.268 . S
O145 Sc132 2.105 1_554 S
O145 C139 1.268 . S
O146 Sc134 2.105 . S
O146 C140 1.268 . S
O147 Sc133 2.105 1_554 S
O147 C141 1.268 . S
O148 Sc132 2.105 . S
O148 C140 1.268 . S
O149 Sc133 2.105 1_554 S
O149 C139 1.268 . S
O150 Sc134 2.105 . S
O150 C141 1.268 1_556 S
O151 Sc132 2.105 . S
O151 C137 1.268 . S
O152 Sc134 2.105 . S
O152 C136 1.268 . S
O153 Sc133 2.105 . S
O153 C138 1.268 . S
Sc154 O157 2.025 . S
Sc154 O164 2.105 . S
Sc154 O167 2.105 1_556 S
Sc154 O170 2.105 1_556 S
Sc154 O173 2.105 . S
Sc155 O157 2.025 1_554 S
Sc155 O165 2.105 . S
Sc155 O169 2.105 . S
Sc155 O171 2.105 . S
Sc155 O175 2.105 1_554 S
Sc156 O157 2.025 . S
Sc156 O166 2.105 . S
Sc156 O168 2.105 . S
Sc156 O172 2.105 1_556 S
Sc156 O174 2.105 . S
O157 Sc154 2.025 . S
O157 Sc155 2.025 1_556 S
O157 Sc156 2.025 . S
C158 O164 1.268 . S
C158 O174 1.268 . S
C159 O165 1.268 1_556 S
C159 O173 1.268 . S
C160 O166 1.268 . S
C160 O175 1.268 . S
C161 O167 1.268 . S
C161 O171 1.268 . S
C162 O168 1.268 1_554 S
C162 O170 1.268 . S
C163 O169 1.268 . S
C163 O172 1.268 . S
O164 Sc154 2.105 . S
O164 C158 1.268 . S
O165 Sc155 2.105 . S
O165 C159 1.268 1_554 S
O166 Sc156 2.105 . S
O166 C160 1.268 . S
O167 Sc154 2.105 1_554 S
O167 C161 1.268 . S
O168 Sc156 2.105 . S
O168 C162 1.268 1_556 S
O169 Sc155 2.105 . S
O169 C163 1.268 . S
O170 Sc154 2.105 1_554 S
O170 C162 1.268 . S
O171 Sc155 2.105 . S
O171 C161 1.268 . S
O172 Sc156 2.105 1_554 S
O172 C163 1.268 . S
O173 Sc154 2.105 . S
O173 C159 1.268 . S
O174 Sc156 2.105 . S
O174 C158 1.268 . S
O175 Sc155 2.105 1_556 S
O175 C160 1.268 . S
Sc176 O179 2.025 . S
Sc176 O186 2.105 1_554 S
Sc176 O189 2.105 . S
Sc176 O192 2.105 . S
Sc176 O195 2.105 . S
Sc177 O179 2.025 . S
Sc177 O187 2.105 . S
Sc177 O191 2.105 . S
Sc177 O193 2.105 . S
Sc177 O197 2.105 . S
Sc178 O179 2.025 . S
Sc178 O188 2.105 1_554 S
Sc178 O190 2.105 . S
Sc178 O194 2.105 . S
Sc178 O196 2.105 1_554 S
O179 Sc176 2.025 . S
O179 Sc177 2.025 . S
O179 Sc178 2.025 . S
C180 O186 1.268 . S
C180 O196 1.268 . S
C181 O187 1.268 . S
C181 O195 1.268 . S
C182 O188 1.268 . S
C182 O197 1.268 1_556 S
C183 O189 1.268 . S
C183 O193 1.268 . S
C184 O190 1.268 . S
C184 O192 1.268 . S
C185 O191 1.268 . S
C185 O194 1.268 . S
O186 Sc176 2.105 1_556 S
O186 C180 1.268 . S
O187 Sc177 2.105 . S
O187 C181 1.268 . S
O188 Sc178 2.105 1_556 S
O188 C182 1.268 . S
O189 Sc176 2.105 . S
O189 C183 1.268 . S
O190 Sc178 2.105 . S
O190 C184 1.268 . S
O191 Sc177 2.105 . S
O191 C185 1.268 . S
O192 Sc176 2.105 . S
O192 C184 1.268 . S
O193 Sc177 2.105 . S
O193 C183 1.268 . S
O194 Sc178 2.105 . S
O194 C185 1.268 . S
O195 Sc176 2.105 . S
O195 C181 1.268 . S
O196 Sc178 2.105 1_556 S
O196 C180 1.268 . S
O197 Sc177 2.105 . S
O197 C182 1.268 1_554 S
Sc198 O201 2.025 . S
Sc198 O208 2.105 . S
Sc198 O211 2.105 . S
Sc198 O214 2.105 . S
Sc198 O217 2.105 . S
Sc199 O201 2.025 . S
Sc199 O209 2.105 . S
Sc199 O213 2.105 . S
Sc199 O215 2.105 . S
Sc199 O219 2.105 . S
Sc200 O201 2.025 . S
Sc200 O210 2.105 . S
Sc200 O212 2.105 . S
Sc200 O216 2.105 . S
Sc200 O218 2.105 1_554 S
O201 Sc198 2.025 . S
O201 Sc199 2.025 . S
O201 Sc200 2.025 . S
C202 O208 1.268 1_556 S
C202 O218 1.268 . S
C203 O209 1.268 . S
C203 O217 1.268 . S
C204 O210 1.268 . S
C204 O219 1.268 . S
C205 O211 1.268 . S
C205 O215 1.268 . S
C206 O212 1.268 . S
C206 O214 1.268 . S
C207 O213 1.268 . S
C207 O216 1.268 . S
O208 Sc198 2.105 . S
O208 C202 1.268 1_554 S
O209 Sc199 2.105 . S
O209 C203 1.268 . S
O210 Sc200 2.105 . S
O210 C204 1.268 . S
O211 Sc198 2.105 . S
O211 C205 1.268 . S
O212 Sc200 2.105 . S
O212 C206 1.268 . S
O213 Sc199 2.105 . S
O213 C207 1.268 . S
O214 Sc198 2.105 . S
O214 C206 1.268 . S
O215 Sc199 2.105 . S
O215 C205 1.268 . S
O216 Sc200 2.105 . S
O216 C207 1.268 . S
O217 Sc198 2.105 . S
O217 C203 1.268 . S
O218 Sc200 2.105 1_556 S
O218 C202 1.268 . S
O219 Sc199 2.105 . S
O219 C204 1.268 . S
Sc220 O223 2.025 . S
Sc220 O230 2.105 . S
Sc220 O233 2.105 . S
Sc220 O236 2.105 . S
Sc220 O239 2.105 . S
Sc221 O223 2.025 . S
Sc221 O231 2.105 . S
Sc221 O235 2.105 . S
Sc221 O237 2.105 . S
Sc221 O241 2.105 . S
Sc222 O223 2.025 . S
Sc222 O232 2.105 . S
Sc222 O234 2.105 . S
Sc222 O238 2.105 . S
Sc222 O240 2.105 . S
O223 Sc220 2.025 . S
O223 Sc221 2.025 . S
O223 Sc222 2.025 . S
C224 O230 1.268 . S
C224 O240 1.268 . S
C225 O231 1.268 . S
C225 O239 1.268 . S
C226 O232 1.268 . S
C226 O241 1.268 . S
C227 O233 1.268 . S
C227 O237 1.268 . S
C228 O234 1.268 . S
C228 O236 1.268 . S
C229 O235 1.268 . S
C229 O238 1.268 . S
O230 Sc220 2.105 . S
O230 C224 1.268 . S
O231 Sc221 2.105 . S
O231 C225 1.268 . S
O232 Sc222 2.105 . S
O232 C226 1.268 . S
O233 Sc220 2.105 . S
O233 C227 1.268 . S
O234 Sc222 2.105 . S
O234 C228 1.268 . S
O235 Sc221 2.105 . S
O235 C229 1.268 . S
O236 Sc220 2.105 . S
O236 C228 1.268 . S
O237 Sc221 2.105 . S
O237 C227 1.268 . S
O238 Sc222 2.105 . S
O238 C229 1.268 . S
O239 Sc220 2.105 . S
O239 C225 1.268 . S
O240 Sc222 2.105 . S
O240 C224 1.268 . S
O241 Sc221 2.105 . S
O241 C226 1.268 . S
Sc242 O245 2.025 . S
Sc242 O252 2.105 . S
Sc242 O255 2.105 . S
Sc242 O258 2.105 . S
Sc242 O261 2.105 . S
Sc243 O245 2.025 . S
Sc243 O253 2.105 . S
Sc243 O257 2.105 . S
Sc243 O259 2.105 1_556 S
Sc243 O263 2.105 . S
Sc244 O245 2.025 . S
Sc244 O254 2.105 . S
Sc244 O256 2.105 . S
Sc244 O260 2.105 . S
Sc244 O262 2.105 . S
O245 Sc242 2.025 . S
O245 Sc243 2.025 . S
O245 Sc244 2.025 . S
C246 O252 1.268 . S
C246 O262 1.268 . S
C247 O253 1.268 . S
C247 O261 1.268 . S
C248 O254 1.268 . S
C248 O263 1.268 . S
C249 O255 1.268 1_554 S
C249 O259 1.268 . S
C250 O256 1.268 . S
C250 O258 1.268 . S
C251 O257 1.268 . S
C251 O260 1.268 . S
O252 Sc242 2.105 . S
O252 C246 1.268 . S
O253 Sc243 2.105 . S
O253 C247 1.268 . S
O254 Sc244 2.105 . S
O254 C248 1.268 . S
O255 Sc242 2.105 . S
O255 C249 1.268 1_556 S
O256 Sc244 2.105 . S
O256 C250 1.268 . S
O257 Sc243 2.105 . S
O257 C251 1.268 . S
O258 Sc242 2.105 . S
O258 C250 1.268 . S
O259 Sc243 2.105 1_554 S
O259 C249 1.268 . S
O260 Sc244 2.105 . S
O260 C251 1.268 . S
O261 Sc242 2.105 . S
O261 C247 1.268 . S
O262 Sc244 2.105 . S
O262 C246 1.268 . S
O263 Sc243 2.105 . S
O263 C248 1.268 . S
C6 C8 2.383 . S
C28 C30 2.383 . S
C52 C50 2.383 . S
C72 C74 2.383 1_554 S
C96 C94 2.383 . S
C116 C118 2.383 . S
C139 C136 2.383 . S
C158 C161 2.383 . S
C180 C183 2.383 . S
C202 C205 2.383 . S
C227 C224 2.383 1_556 S
C246 C249 2.383 . S
C4 C162 1.562 1_546 S
C184 C26 1.561 . S
C206 C48 1.561 1_455 S
C70 C228 1.561 1_565 S
C92 C250 1.561 . S
C114 C140 1.561 1_455 S
C5 C229 1.074 . S
C27 C251 1.074 . S
C141 C49 1.074 . S
C71 C163 1.074 . S
C93 C185 1.074 . S
C207 C115 1.074 . S
C9 C181 1.098 . S
C203 C31 1.098 . S
C225 C53 1.099 . S
C75 C247 1.098 . S
C137 C97 1.098 . S
C119 C159 1.099 . S
C7 C226 1.411 . S
C29 C248 1.410 . S
C51 C138 1.411 . S
C160 C73 1.411 . S
C95 C182 1.410 . S
C204 C117 1.411 . S
