# Generated by pormake.
# Topology fnw, (5)-cn, num edge types: 1
# Building blocks:
#     Node 0, Type 0, BuildingBlock: BEQFEK_clean_sbu_0, # of connection points: 5
#     Node 1, Type 0, BuildingBlock: BEQFEK_clean_sbu_0, # of connection points: 5
#     Node 2, Type 0, BuildingBlock: BEQFEK_clean_sbu_0, # of connection points: 5
#     Node 3, Type 0, BuildingBlock: BEQFEK_clean_sbu_0, # of connection points: 5
#     Node 4, Type 0, BuildingBlock: BEQFEK_clean_sbu_0, # of connection points: 5
#     Node 5, Type 0, BuildingBlock: BEQFEK_clean_sbu_0, # of connection points: 5
#     Node 6, Type 0, BuildingBlock: BEQFEK_clean_sbu_0, # of connection points: 5
#     Node 7, Type 0, BuildingBlock: BEQFEK_clean_sbu_0, # of connection points: 5
#     Node 8, Type 0, BuildingBlock: BEQFEK_clean_sbu_0, # of connection points: 5
#     Node 9, Type 0, BuildingBlock: BEQFEK_clean_sbu_0, # of connection points: 5
#     Node 10, Type 0, BuildingBlock: BEQFEK_clean_sbu_0, # of connection points: 5
#     Node 11, Type 0, BuildingBlock: BEQFEK_clean_sbu_0, # of connection points: 5
#     Edge 12, Type (0, 0), BuildingBlock: UVAHIK_clean_linker_0, # of connection points: 2
#     Edge 13, Type (0, 0), BuildingBlock: UVAHIK_clean_linker_0, # of connection points: 2
#     Edge 14, Type (0, 0), BuildingBlock: UVAHIK_clean_linker_0, # of connection points: 2
#     Edge 15, Type (0, 0), BuildingBlock: UVAHIK_clean_linker_0, # of connection points: 2
#     Edge 16, Type (0, 0), BuildingBlock: UVAHIK_clean_linker_0, # of connection points: 2
#     Edge 17, Type (0, 0), BuildingBlock: UVAHIK_clean_linker_0, # of connection points: 2
#     Edge 18, Type (0, 0), BuildingBlock: UVAHIK_clean_linker_0, # of connection points: 2
#     Edge 19, Type (0, 0), BuildingBlock: UVAHIK_clean_linker_0, # of connection points: 2
#     Edge 20, Type (0, 0), BuildingBlock: UVAHIK_clean_linker_0, # of connection points: 2
#     Edge 21, Type (0, 0), BuildingBlock: UVAHIK_clean_linker_0, # of connection points: 2
#     Edge 22, Type (0, 0), BuildingBlock: UVAHIK_clean_linker_0, # of connection points: 2
#     Edge 23, Type (0, 0), BuildingBlock: UVAHIK_clean_linker_0, # of connection points: 2
#     Edge 24, Type (0, 0), BuildingBlock: UVAHIK_clean_linker_0, # of connection points: 2
#     Edge 25, Type (0, 0), BuildingBlock: UVAHIK_clean_linker_0, # of connection points: 2
#     Edge 26, Type (0, 0), BuildingBlock: UVAHIK_clean_linker_0, # of connection points: 2
#     Edge 27, Type (0, 0), BuildingBlock: UVAHIK_clean_linker_0, # of connection points: 2
#     Edge 28, Type (0, 0), BuildingBlock: UVAHIK_clean_linker_0, # of connection points: 2
#     Edge 29, Type (0, 0), BuildingBlock: UVAHIK_clean_linker_0, # of connection points: 2
#     Edge 30, Type (0, 0), BuildingBlock: UVAHIK_clean_linker_0, # of connection points: 2
#     Edge 31, Type (0, 0), BuildingBlock: UVAHIK_clean_linker_0, # of connection points: 2
#     Edge 32, Type (0, 0), BuildingBlock: UVAHIK_clean_linker_0, # of connection points: 2
#     Edge 33, Type (0, 0), BuildingBlock: UVAHIK_clean_linker_0, # of connection points: 2
#     Edge 34, Type (0, 0), BuildingBlock: UVAHIK_clean_linker_0, # of connection points: 2
#     Edge 35, Type (0, 0), BuildingBlock: UVAHIK_clean_linker_0, # of connection points: 2
#     Edge 36, Type (0, 0), BuildingBlock: UVAHIK_clean_linker_0, # of connection points: 2
#     Edge 37, Type (0, 0), BuildingBlock: UVAHIK_clean_linker_0, # of connection points: 2
#     Edge 38, Type (0, 0), BuildingBlock: UVAHIK_clean_linker_0, # of connection points: 2
#     Edge 39, Type (0, 0), BuildingBlock: UVAHIK_clean_linker_0, # of connection points: 2
#     Edge 40, Type (0, 0), BuildingBlock: UVAHIK_clean_linker_0, # of connection points: 2
#     Edge 41, Type (0, 0), BuildingBlock: UVAHIK_clean_linker_0, # of connection points: 2
# Relax obj value: 0.202
# Max RMSD: 0.125
# Mean RMSD: 0.125
data_MOF--net-fnw--node1-BEQFEK_clean_sbu_0--edge1-UVAHIK_clean_linker_0
_symmetry_space_group_name_H-M    P1
_symmetry_Int_Tables_number       1
_symmetry_cell_setting            triclinic
loop_
_symmetry_equiv_pos_as_xyz
'x, y, z'
_cell_length_a     68.69755
_cell_length_b     68.697098
_cell_length_c     39.379179
_cell_angle_alpha  90.00938
_cell_angle_beta   89.986594
_cell_angle_gamma 119.99952
loop_
_atom_site_label
_atom_site_type_symbol
_atom_site_fract_x
_atom_site_fract_y
_atom_site_fract_z
_atom_type_partial_charge
Co0 Co 0.25026 0.48389 0.22644 0.0
Co1 Co 0.27354 0.45467 0.23183 0.0
C2 C 0.24425 0.45045 0.17265 0.0
O3 O 0.24006 0.46511 0.18506 0.0
O4 O 0.25715 0.44482 0.18769 0.0
C5 C 0.21799 0.49978 0.2161 0.0
O6 O 0.2064 0.48229 0.19633 0.0
C7 C 0.28012 0.41529 0.23729 0.0
C8 C 0.3103 0.42954 0.27004 0.0
C9 C 0.29462 0.41 0.25407 0.0
N10 N 0.28681 0.437 0.24352 0.0
N11 N 0.30503 0.44545 0.26268 0.0
C12 C 0.25946 0.39975 0.2177 0.0
H13 H 0.24645 0.40467 0.22105 0.0
H14 H 0.25279 0.38206 0.22585 0.0
H15 H 0.26376 0.4011 0.19032 0.0
C16 C 0.23381 0.46461 0.29423 0.0
N17 N 0.24457 0.46577 0.26513 0.0
N18 N 0.25426 0.45347 0.26786 0.0
C19 C 0.24991 0.44405 0.29907 0.0
C20 C 0.2369 0.45093 0.31687 0.0
C21 C 0.22174 0.47734 0.30064 0.0
H22 H 0.20989 0.47429 0.2795 0.0
H23 H 0.21222 0.47221 0.32487 0.0
H24 H 0.23412 0.49561 0.30137 0.0
O25 O 0.28272 0.50616 0.22386 0.0
O26 O 0.29926 0.4856 0.22693 0.0
H27 H 0.27893 0.44261 0.31456 0.0
H28 H 0.25423 0.42452 0.33874 0.0
C29 C 0.26049 0.43127 0.31303 0.0
H30 H 0.25702 0.41714 0.29581 0.0
H31 H 0.31354 0.46199 0.27153 0.0
O32 O 0.23571 0.50243 0.2305 0.0
C33 C 0.30039 0.50458 0.22433 0.0
Co34 Co 0.76511 0.2429 0.72437 0.0
Co35 Co 0.81779 0.26972 0.73122 0.0
C36 C 0.79524 0.2407 0.67081 0.0
O37 O 0.77588 0.23489 0.6829 0.0
O38 O 0.81317 0.25428 0.68665 0.0
C39 C 0.72043 0.22047 0.69928 0.0
O40 O 0.73104 0.22637 0.67004 0.0
C41 C 0.86605 0.2822 0.7389 0.0
C42 C 0.87828 0.31365 0.7681 0.0
C43 C 0.8852 0.29959 0.75417 0.0
N44 N 0.84877 0.28592 0.74404 0.0
N45 N 0.85631 0.30478 0.76141 0.0
C46 C 0.8642 0.26285 0.71885 0.0
H47 H 0.84915 0.25556 0.70235 0.0
H48 H 0.86256 0.24956 0.73659 0.0
H49 H 0.87944 0.26829 0.70304 0.0
C50 C 0.769 0.22745 0.79255 0.0
N51 N 0.77826 0.23838 0.7634 0.0
N52 N 0.80029 0.24926 0.76634 0.0
C53 C 0.80574 0.24543 0.79757 0.0
C54 C 0.78607 0.23157 0.81529 0.0
C55 C 0.74424 0.21468 0.79915 0.0
H56 H 0.73773 0.22657 0.79961 0.0
H57 H 0.73566 0.20257 0.77819 0.0
H58 H 0.74026 0.20543 0.8236 0.0
O59 O 0.77232 0.2746 0.72222 0.0
O60 O 0.80944 0.29334 0.72639 0.0
H61 H 0.83509 0.27559 0.81319 0.0
H62 H 0.83 0.25128 0.83736 0.0
C63 C 0.82911 0.25735 0.81167 0.0
H64 H 0.84044 0.25486 0.79445 0.0
H65 H 0.84637 0.31158 0.76885 0.0
O66 O 0.73183 0.225 0.7265 0.0
C67 C 0.79087 0.29305 0.72329 0.0
Co68 Co 0.51662 0.76742 0.23029 0.0
Co69 Co 0.54513 0.81991 0.23484 0.0
C70 C 0.5493 0.79466 0.17565 0.0
O71 O 0.53498 0.77585 0.18855 0.0
O72 O 0.55477 0.81326 0.1904 0.0
C73 C 0.50048 0.71939 0.2191 0.0
O74 O 0.51729 0.72536 0.19788 0.0
C75 C 0.5842 0.8661 0.23867 0.0
C76 C 0.57046 0.88195 0.27265 0.0
C77 C 0.58967 0.88594 0.25545 0.0
N78 N 0.56272 0.85094 0.24605 0.0
N79 N 0.55457 0.86065 0.26597 0.0
C80 C 0.5994 0.8611 0.21794 0.0
H81 H 0.59516 0.84341 0.22198 0.0
H82 H 0.61729 0.87271 0.22444 0.0
H83 H 0.59683 0.8632 0.19066 0.0
C84 C 0.53679 0.77084 0.29744 0.0
N85 N 0.53504 0.78022 0.2685 0.0
N86 N 0.54709 0.80224 0.27094 0.0
C87 C 0.55697 0.80756 0.30183 0.0
C88 C 0.55065 0.78781 0.3197 0.0
C89 C 0.52451 0.74607 0.30406 0.0
H90 H 0.52726 0.7373 0.28255 0.0
H91 H 0.53026 0.7419 0.32789 0.0
H92 H 0.50622 0.73994 0.30575 0.0
O93 O 0.49407 0.77717 0.22819 0.0
O94 O 0.51393 0.81432 0.23077 0.0
H95 H 0.55835 0.83789 0.3179 0.0
H96 H 0.57722 0.83168 0.34073 0.0
C97 C 0.56983 0.831 0.31547 0.0
H98 H 0.5835 0.84171 0.29758 0.0
H99 H 0.53825 0.8525 0.27574 0.0
O100 O 0.49836 0.7344 0.23474 0.0
C101 C 0.49515 0.79619 0.22869 0.0
Co102 Co 0.74806 0.51444 0.72968 0.0
Co103 Co 0.72626 0.54502 0.73315 0.0
C104 C 0.75723 0.54881 0.67617 0.0
O105 O 0.7607 0.53383 0.68925 0.0
O106 O 0.74404 0.55455 0.69003 0.0
C107 C 0.77853 0.49604 0.72296 0.0
O108 O 0.79272 0.51453 0.7069 0.0
C109 C 0.72114 0.58537 0.73477 0.0
C110 C 0.69049 0.57268 0.7662 0.0
C111 C 0.7066 0.59156 0.74928 0.0
N112 N 0.71398 0.56383 0.74308 0.0
N113 N 0.69556 0.55634 0.76161 0.0
C114 C 0.7421 0.59983 0.71503 0.0
H115 H 0.75483 0.59478 0.72029 0.0
H116 H 0.74904 0.61785 0.72138 0.0
H117 H 0.73812 0.59743 0.6875 0.0
C118 C 0.76244 0.53238 0.79896 0.0
N119 N 0.75285 0.53193 0.76898 0.0
N120 N 0.74405 0.54508 0.77055 0.0
C121 C 0.74797 0.5545 0.80171 0.0
C122 C 0.75965 0.54666 0.82081 0.0
C123 C 0.77314 0.51854 0.80683 0.0
H124 H 0.76006 0.50048 0.80671 0.0
H125 H 0.78555 0.52116 0.78677 0.0
H126 H 0.78171 0.52301 0.83184 0.0
O127 O 0.71562 0.49359 0.72331 0.0
O128 O 0.69968 0.51463 0.72701 0.0
H129 H 0.71975 0.5578 0.81574 0.0
H130 H 0.74466 0.57564 0.83968 0.0
C131 C 0.73828 0.56845 0.81421 0.0
H132 H 0.74241 0.58233 0.7961 0.0
H133 H 0.68658 0.54009 0.77147 0.0
O134 O 0.76035 0.49398 0.73462 0.0
C135 C 0.69818 0.49556 0.72316 0.0
Co136 Co 0.23141 0.74816 0.22407 0.0
Co137 Co 0.17922 0.72667 0.23061 0.0
C138 C 0.20321 0.75364 0.17 0.0
O139 O 0.22195 0.7575 0.18238 0.0
O140 O 0.18481 0.74159 0.18576 0.0
C141 C 0.27988 0.78315 0.22672 0.0
O142 O 0.27454 0.79841 0.23492 0.0
C143 C 0.13295 0.71932 0.23294 0.0
C144 C 0.11748 0.69184 0.27062 0.0
C145 C 0.11297 0.70541 0.24991 0.0
N146 N 0.14849 0.71417 0.2433 0.0
N147 N 0.13909 0.69769 0.2657 0.0
C148 C 0.13774 0.73809 0.20898 0.0
H149 H 0.15528 0.75199 0.21239 0.0
H150 H 0.12594 0.74447 0.2131 0.0
H151 H 0.13591 0.73186 0.18251 0.0
C152 C 0.22931 0.76408 0.2938 0.0
N153 N 0.21999 0.75455 0.26375 0.0
N154 N 0.19819 0.74687 0.26514 0.0
C155 C 0.19315 0.75228 0.29552 0.0
C156 C 0.21261 0.76309 0.31489 0.0
C157 C 0.25274 0.77052 0.30412 0.0
H158 H 0.25909 0.76144 0.28854 0.0
H159 H 0.26385 0.78888 0.30061 0.0
H160 H 0.25334 0.76661 0.33132 0.0
O161 O 0.22081 0.71574 0.22298 0.0
O162 O 0.18382 0.70028 0.22715 0.0
H163 H 0.16035 0.72936 0.31452 0.0
H164 H 0.1709 0.75813 0.32718 0.0
C165 C 0.17011 0.74709 0.30601 0.0
H166 H 0.16133 0.74952 0.28423 0.0
H167 H 0.14751 0.6905 0.27778 0.0
O168 O 0.26463 0.7628 0.22251 0.0
C169 C 0.20132 0.69847 0.22452 0.0
Co170 Co 0.48445 0.23221 0.72604 0.0
Co171 Co 0.45508 0.17992 0.73295 0.0
C172 C 0.44969 0.20445 0.67399 0.0
O173 O 0.46438 0.22339 0.68607 0.0
O174 O 0.44457 0.18602 0.68898 0.0
C175 C 0.49878 0.28045 0.72057 0.0
O176 O 0.47812 0.27478 0.71211 0.0
C177 C 0.41593 0.13384 0.73833 0.0
C178 C 0.42962 0.11859 0.77354 0.0
C179 C 0.41043 0.11429 0.75599 0.0
N180 N 0.43739 0.14914 0.74554 0.0
N181 N 0.44552 0.13978 0.76621 0.0
C182 C 0.40077 0.13848 0.71684 0.0
H183 H 0.40467 0.15608 0.72067 0.0
H184 H 0.38284 0.12668 0.72286 0.0
H185 H 0.40379 0.13646 0.68972 0.0
C186 C 0.46759 0.23017 0.79583 0.0
N187 N 0.46775 0.22041 0.76628 0.0
N188 N 0.45467 0.19849 0.76891 0.0
C189 C 0.44535 0.19369 0.80018 0.0
C190 C 0.45335 0.21359 0.8183 0.0
C191 C 0.48166 0.25481 0.80275 0.0
H192 H 0.4996 0.26029 0.79801 0.0
H193 H 0.47675 0.26412 0.78498 0.0
H194 H 0.47955 0.25906 0.82917 0.0
O195 O 0.50623 0.22166 0.72067 0.0
O196 O 0.4859 0.18476 0.7269 0.0
H197 H 0.44168 0.16271 0.81807 0.0
H198 H 0.42302 0.17038 0.83822 0.0
C199 C 0.43105 0.17041 0.8138 0.0
H200 H 0.41776 0.16009 0.79517 0.0
H201 H 0.46183 0.1481 0.77598 0.0
O202 O 0.50354 0.26528 0.72777 0.0
C203 C 0.50473 0.20247 0.72195 0.0
Co204 Co 0.52221 0.7554 0.77233 0.0
Co205 Co 0.54902 0.72971 0.76586 0.0
C206 C 0.55475 0.7587 0.82612 0.0
O207 O 0.54087 0.76402 0.81387 0.0
O208 O 0.55958 0.74539 0.81045 0.0
C209 C 0.49733 0.77572 0.79564 0.0
O210 O 0.50002 0.76848 0.82518 0.0
C211 C 0.58668 0.72059 0.75978 0.0
C212 C 0.57128 0.69077 0.72625 0.0
C213 C 0.59108 0.7056 0.74252 0.0
N214 N 0.56525 0.71499 0.75358 0.0
N215 N 0.55609 0.69697 0.73394 0.0
C216 C 0.60289 0.74081 0.77964 0.0
H217 H 0.59879 0.75443 0.77666 0.0
H218 H 0.62044 0.7468 0.77141 0.0
H219 H 0.60135 0.73627 0.80694 0.0
C220 C 0.54157 0.77135 0.70437 0.0
N221 N 0.54003 0.76038 0.73342 0.0
N222 N 0.55159 0.74992 0.73047 0.0
C223 C 0.56102 0.75409 0.69929 0.0
C224 C 0.55486 0.76772 0.68165 0.0
C225 C 0.52924 0.78381 0.69787 0.0
H226 H 0.5109 0.77171 0.69747 0.0
H227 H 0.53264 0.79589 0.71883 0.0
H228 H 0.53438 0.79309 0.67344 0.0
O229 O 0.49836 0.72344 0.77469 0.0
O230 O 0.5173 0.70524 0.77045 0.0
H231 H 0.56105 0.72454 0.68263 0.0
H232 H 0.58035 0.74941 0.65971 0.0
C233 C 0.57305 0.7428 0.68506 0.0
H234 H 0.58671 0.74524 0.70256 0.0
H235 H 0.53958 0.68927 0.72497 0.0
O236 O 0.50627 0.77266 0.76944 0.0
C237 C 0.49883 0.70516 0.77363 0.0
Co238 Co 0.76294 0.52002 0.27552 0.0
Co239 Co 0.81506 0.5463 0.26393 0.0
C240 C 0.79452 0.55289 0.32691 0.0
O241 O 0.77479 0.53914 0.31633 0.0
O242 O 0.8119 0.55725 0.30948 0.0
C243 C 0.72059 0.48973 0.30045 0.0
O244 O 0.73361 0.48752 0.32272 0.0
C245 C 0.8618 0.58356 0.25559 0.0
C246 C 0.875 0.56812 0.21983 0.0
C247 C 0.88074 0.58779 0.23716 0.0
N248 N 0.84552 0.56236 0.2491 0.0
N249 N 0.85362 0.55318 0.22803 0.0
C250 C 0.85866 0.59966 0.27724 0.0
H251 H 0.84106 0.59611 0.27531 0.0
H252 H 0.87045 0.6173 0.26967 0.0
H253 H 0.86196 0.59738 0.30411 0.0
C254 C 0.76362 0.53859 0.20778 0.0
N255 N 0.77418 0.53731 0.23572 0.0
N256 N 0.79604 0.54863 0.23068 0.0
C257 C 0.80007 0.5576 0.1992 0.0
C258 C 0.77963 0.55141 0.18355 0.0
C259 C 0.73861 0.5265 0.2038 0.0
H260 H 0.73096 0.5299 0.22618 0.0
H261 H 0.73352 0.5318 0.18041 0.0
H262 H 0.73218 0.50812 0.20282 0.0
O263 O 0.77108 0.49614 0.27642 0.0
O264 O 0.80789 0.51462 0.26805 0.0
H265 H 0.82853 0.55675 0.1793 0.0
H266 H 0.82266 0.57625 0.15771 0.0
C267 C 0.82279 0.56909 0.18283 0.0
H268 H 0.83491 0.58277 0.19955 0.0
H269 H 0.84439 0.53679 0.21874 0.0
O270 O 0.72967 0.50409 0.2768 0.0
C271 C 0.7896 0.49633 0.27304 0.0
Co272 Co 0.25096 0.76613 0.76633 0.0
Co273 Co 0.27411 0.81857 0.76236 0.0
C274 C 0.24411 0.79265 0.82056 0.0
O275 O 0.23984 0.77396 0.80745 0.0
O276 O 0.2574 0.81136 0.8063 0.0
C277 C 0.21741 0.71782 0.77113 0.0
O278 O 0.20278 0.72332 0.78231 0.0
C279 C 0.28023 0.86434 0.76022 0.0
C280 C 0.31093 0.8818 0.72879 0.0
C281 C 0.29502 0.88496 0.74563 0.0
N282 N 0.28707 0.84969 0.75209 0.0
N283 N 0.3055 0.8603 0.73353 0.0
C284 C 0.25922 0.85815 0.77966 0.0
H285 H 0.24646 0.84031 0.77481 0.0
H286 H 0.25235 0.86918 0.77261 0.0
H287 H 0.26312 0.8601 0.80721 0.0
C288 C 0.23596 0.76985 0.69758 0.0
N289 N 0.24596 0.77893 0.72737 0.0
N290 N 0.25521 0.80093 0.72574 0.0
C291 C 0.25107 0.80651 0.6948 0.0
C292 C 0.23884 0.787 0.6759 0.0
C293 C 0.22494 0.7453 0.68961 0.0
H294 H 0.23749 0.73969 0.69189 0.0
H295 H 0.21145 0.73577 0.70842 0.0
H296 H 0.21754 0.74149 0.66376 0.0
O297 O 0.28333 0.77653 0.7706 0.0
O298 O 0.30006 0.8136 0.76712 0.0
H299 H 0.27945 0.83776 0.68017 0.0
H300 H 0.25431 0.83091 0.65688 0.0
C301 C 0.26097 0.83013 0.68217 0.0
H302 H 0.25724 0.84011 0.70044 0.0
H303 H 0.31423 0.85274 0.72374 0.0
O304 O 0.23701 0.73314 0.76267 0.0
C305 C 0.30107 0.79571 0.77023 0.0
Co306 Co 0.48276 0.25047 0.27263 0.0
Co307 Co 0.45192 0.27176 0.26554 0.0
C308 C 0.44771 0.24224 0.3247 0.0
O309 O 0.4627 0.2384 0.31264 0.0
O310 O 0.44213 0.25512 0.30945 0.0
C311 C 0.49927 0.21797 0.27504 0.0
O312 O 0.47865 0.20165 0.28077 0.0
C313 C 0.41203 0.27758 0.26273 0.0
C314 C 0.42412 0.30606 0.22687 0.0
C315 C 0.40571 0.29144 0.24622 0.0
N316 N 0.43317 0.28374 0.25335 0.0
N317 N 0.44029 0.30084 0.23208 0.0
C318 C 0.39794 0.25797 0.28528 0.0
H319 H 0.40231 0.24461 0.28139 0.0
H320 H 0.37977 0.25112 0.28023 0.0
H321 H 0.40149 0.26349 0.31217 0.0
C322 C 0.46654 0.23596 0.20209 0.0
N323 N 0.46619 0.24536 0.23197 0.0
N324 N 0.45229 0.25326 0.22975 0.0
C325 C 0.44284 0.24853 0.19864 0.0
C326 C 0.45174 0.2377 0.17987 0.0
C327 C 0.48265 0.22793 0.19402 0.0
H328 H 0.4993 0.23947 0.20537 0.0
H329 H 0.47632 0.21102 0.2053 0.0
H330 H 0.48469 0.22692 0.16625 0.0
O331 O 0.50339 0.2829 0.27917 0.0
O332 O 0.48232 0.29855 0.27129 0.0
H333 H 0.43392 0.27221 0.17985 0.0
H334 H 0.41615 0.24394 0.16467 0.0
C335 C 0.42553 0.2542 0.187 0.0
H336 H 0.41344 0.25111 0.20777 0.0
H337 H 0.4562 0.30883 0.22089 0.0
O338 O 0.5031 0.23791 0.27073 0.0
C339 C 0.50127 0.30021 0.27735 0.0
Co340 Co 0.23461 0.48414 0.77038 0.0
Co341 Co 0.18238 0.45376 0.76276 0.0
C342 C 0.20728 0.4503 0.82329 0.0
O343 O 0.22628 0.46517 0.81156 0.0
O344 O 0.18903 0.44453 0.80731 0.0
C345 C 0.28354 0.50226 0.77924 0.0
O346 O 0.27914 0.48332 0.79391 0.0
C347 C 0.1369 0.41357 0.76004 0.0
C348 C 0.11977 0.42587 0.72604 0.0
C349 C 0.11643 0.40729 0.74451 0.0
N350 N 0.15162 0.43484 0.75092 0.0
N351 N 0.14121 0.44209 0.73076 0.0
C352 C 0.14282 0.39945 0.78179 0.0
H353 H 0.16062 0.40416 0.77754 0.0
H354 H 0.13168 0.38131 0.7763 0.0
H355 H 0.14088 0.4026 0.80888 0.0
C356 C 0.23342 0.46563 0.70219 0.0
N357 N 0.22325 0.4663 0.73101 0.0
N358 N 0.20136 0.45333 0.7277 0.0
C359 C 0.19693 0.44384 0.69659 0.0
C360 C 0.21711 0.45143 0.67931 0.0
C361 C 0.2582 0.47936 0.69621 0.0
H362 H 0.26334 0.49746 0.69626 0.0
H363 H 0.2672 0.47646 0.71722 0.0
H364 H 0.26311 0.47499 0.67176 0.0
O365 O 0.22293 0.50511 0.77357 0.0
O366 O 0.18611 0.48421 0.76714 0.0
H367 H 0.16629 0.44116 0.67911 0.0
H368 H 0.17373 0.42289 0.65717 0.0
C369 C 0.17375 0.43022 0.68222 0.0
H370 H 0.16313 0.41646 0.70002 0.0
H371 H 0.14881 0.45816 0.72014 0.0
O372 O 0.26752 0.50458 0.7678 0.0
C373 C 0.20361 0.50326 0.7716 0.0
Co374 Co 0.75192 0.23445 0.26864 0.0
Co375 Co 0.72783 0.18197 0.26256 0.0
C376 C 0.75788 0.2065 0.32143 0.0
O377 O 0.7625 0.22547 0.3091 0.0
O378 O 0.74437 0.18811 0.30658 0.0
C379 C 0.77056 0.279 0.29275 0.0
O380 O 0.76472 0.2684 0.32201 0.0
C381 C 0.72109 0.13608 0.25873 0.0
C382 C 0.69017 0.1191 0.22772 0.0
C383 C 0.70602 0.11561 0.24403 0.0
N384 N 0.71444 0.15097 0.25122 0.0
N385 N 0.69589 0.14066 0.23288 0.0
C386 C 0.74213 0.14192 0.27781 0.0
H387 H 0.73839 0.13997 0.30541 0.0
H388 H 0.75505 0.1597 0.27296 0.0
H389 H 0.74872 0.1307 0.27043 0.0
C390 C 0.76771 0.23153 0.20026 0.0
N391 N 0.75688 0.22196 0.22933 0.0
N392 N 0.74704 0.19996 0.22655 0.0
C393 C 0.75135 0.19483 0.19538 0.0
C394 C 0.76454 0.2147 0.17764 0.0
C395 C 0.78009 0.25634 0.19401 0.0
H396 H 0.79146 0.26506 0.2157 0.0
H397 H 0.7901 0.26071 0.17026 0.0
H398 H 0.76782 0.26235 0.19235 0.0
O399 O 0.71961 0.2247 0.27292 0.0
O400 O 0.7024 0.18765 0.26792 0.0
H401 H 0.72223 0.16424 0.18057 0.0
H402 H 0.74669 0.17091 0.15562 0.0
C403 C 0.7407 0.17143 0.18153 0.0
H404 H 0.7444 0.16087 0.19861 0.0
H405 H 0.68723 0.14843 0.2236 0.0
O406 O 0.76746 0.26768 0.26574 0.0
C407 C 0.70168 0.20565 0.27192 0.0
C408 C 0.37644 0.298 0.22043 0.0
C409 C 0.38479 0.29243 0.2491 0.0
C410 C 0.35906 0.30283 0.2236 0.0
C411 C 0.33997 0.32846 0.28512 0.0
H412 H 0.29369 0.31634 0.2185 0.0
C413 C 0.29643 0.38034 0.28741 0.0
C414 C 0.29437 0.38849 0.25579 0.0
C415 C 0.30041 0.36236 0.28932 0.0
C416 C 0.30656 0.31994 0.23729 0.0
H417 H 0.38109 0.28686 0.30347 0.0
H418 H 0.35062 0.29527 0.30906 0.0
H419 H 0.31368 0.29523 0.2167 0.0
H420 H 0.29372 0.38383 0.20142 0.0
H421 H 0.30178 0.35305 0.20443 0.0
H422 H 0.33423 0.35409 0.30445 0.0
C423 C 0.35743 0.29572 0.28407 0.0
C424 C 0.3179 0.30776 0.23635 0.0
C425 C 0.37471 0.29069 0.28082 0.0
C426 C 0.29509 0.37763 0.22609 0.0
C427 C 0.29962 0.35993 0.22792 0.0
C428 C 0.32886 0.34077 0.28585 0.0
C429 C 0.3499 0.3025 0.25563 0.0
C430 C 0.33509 0.31229 0.2598 0.0
C431 C 0.30315 0.35261 0.25958 0.0
C432 C 0.31237 0.33707 0.26147 0.0
H433 H 0.38396 0.29949 0.19568 0.0
H434 H 0.35383 0.30826 0.20129 0.0
H435 H 0.3534 0.33265 0.30317 0.0
H436 H 0.29572 0.38841 0.31066 0.0
H437 H 0.30233 0.35676 0.31416 0.0
C438 C 0.92622 0.3264 0.7593 0.0
C439 C 0.9087 0.30408 0.75548 0.0
C440 C 0.94843 0.33137 0.76221 0.0
C441 C 0.98741 0.31318 0.73876 0.0
H442 H 0.02476 0.35678 0.80681 0.0
C443 C 0.07998 0.37843 0.71993 0.0
C444 C 0.09452 0.38642 0.74796 0.0
C445 C 0.05764 0.36155 0.72395 0.0
C446 C 0.01459 0.3442 0.78811 0.0
H447 H 0.90108 0.26936 0.75315 0.0
H448 H 0.94024 0.27831 0.7565 0.0
H449 H 0.98414 0.34049 0.80893 0.0
H450 H 0.09741 0.38234 0.80197 0.0
H451 H 0.05831 0.35266 0.80903 0.0
H452 H 0.01804 0.31781 0.71692 0.0
C453 C 0.93647 0.29185 0.75711 0.0
C454 C 0.99134 0.33505 0.78917 0.0
C455 C 0.91405 0.28679 0.75469 0.0
C456 C 0.0867 0.37626 0.77979 0.0
C457 C 0.06425 0.35942 0.78388 0.0
C458 C 0.01076 0.32249 0.73753 0.0
C459 C 0.9538 0.31419 0.76122 0.0
C460 C 0.97763 0.32012 0.76379 0.0
C461 C 0.0493 0.35247 0.75621 0.0
C462 C 0.02464 0.33872 0.76152 0.0
H463 H 0.92282 0.34018 0.75997 0.0
H464 H 0.96151 0.34879 0.76482 0.0
H465 H 0.97717 0.30169 0.71891 0.0
H466 H 0.08561 0.38601 0.69512 0.0
H467 H 0.04655 0.3568 0.70218 0.0
C468 C 0.70883 0.0859 0.27695 0.0
C469 C 0.7052 0.09376 0.24603 0.0
C470 C 0.70409 0.06367 0.27992 0.0
C471 C 0.69023 0.01176 0.23203 0.0
H472 H 0.6468 0.98207 0.304 0.0
C473 C 0.62085 0.9188 0.22568 0.0
C474 C 0.61103 0.90738 0.25596 0.0
C475 C 0.63843 0.94111 0.2266 0.0
C476 C 0.65934 0.98993 0.28428 0.0
H477 H 0.6951 0.08513 0.19357 0.0
H478 H 0.68696 0.04639 0.19864 0.0
H479 H 0.6679 0.02267 0.30186 0.0
H480 H 0.61282 0.90921 0.31079 0.0
H481 H 0.64432 0.94761 0.31262 0.0
H482 H 0.68128 0.97892 0.21402 0.0
C483 C 0.69357 0.05735 0.22052 0.0
C484 C 0.67144 0.01334 0.28306 0.0
C485 C 0.69805 0.07946 0.21768 0.0
C486 C 0.62009 0.91786 0.28712 0.0
C487 C 0.63798 0.93992 0.28808 0.0
C488 C 0.67831 0.98826 0.2335 0.0
C489 C 0.69582 0.049 0.25195 0.0
C490 C 0.68649 0.0245 0.25638 0.0
C491 C 0.6467 0.95222 0.25788 0.0
C492 C 0.66217 0.97702 0.25907 0.0
H493 H 0.71394 0.09643 0.29937 0.0
H494 H 0.70598 0.05765 0.30443 0.0
H495 H 0.70189 0.01999 0.21132 0.0
H496 H 0.61393 0.91102 0.20137 0.0
H497 H 0.64447 0.94999 0.20278 0.0
C498 C 0.70032 0.62093 0.77523 0.0
C499 C 0.70645 0.6129 0.74676 0.0
C500 C 0.69601 0.63865 0.77207 0.0
C501 C 0.67181 0.6587 0.71032 0.0
H502 H 0.68377 0.70476 0.77727 0.0
C503 C 0.61983 0.70234 0.70877 0.0
C504 C 0.61208 0.70485 0.74049 0.0
C505 C 0.63759 0.69801 0.70662 0.0
C506 C 0.68019 0.69193 0.7584 0.0
H507 H 0.71372 0.61757 0.69289 0.0
H508 H 0.70593 0.64853 0.68721 0.0
H509 H 0.70476 0.68466 0.77912 0.0
H510 H 0.6171 0.70569 0.79478 0.0
H511 H 0.64741 0.69699 0.79139 0.0
H512 H 0.64621 0.66446 0.69099 0.0
C513 C 0.70474 0.64125 0.71206 0.0
C514 C 0.69234 0.68057 0.75934 0.0
C515 C 0.70936 0.62367 0.71534 0.0
C516 C 0.623 0.70401 0.77004 0.0
C517 C 0.64045 0.69912 0.76797 0.0
C518 C 0.65948 0.66979 0.70965 0.0
C519 C 0.69737 0.64843 0.74022 0.0
C520 C 0.68786 0.66346 0.73579 0.0
C521 C 0.64749 0.69535 0.73623 0.0
C522 C 0.66308 0.68617 0.73419 0.0
H523 H 0.69795 0.61285 0.79973 0.0
H524 H 0.69012 0.64363 0.79413 0.0
H525 H 0.6677 0.64533 0.69219 0.0
H526 H 0.61173 0.70315 0.68563 0.0
H527 H 0.64295 0.69591 0.68171 0.0
C528 C 0.0822 0.70415 0.2141 0.0
C529 C 0.09066 0.70343 0.24624 0.0
C530 C 0.05974 0.69852 0.21037 0.0
C531 C 0.00803 0.68709 0.25692 0.0
H532 H 0.97825 0.63985 0.19004 0.0
C533 C 0.91451 0.61887 0.26568 0.0
C534 C 0.90299 0.6083 0.23579 0.0
C535 C 0.93709 0.6358 0.26432 0.0
C536 C 0.98617 0.6534 0.20829 0.0
H537 H 0.08273 0.69739 0.29981 0.0
H538 H 0.04355 0.68754 0.29333 0.0
H539 H 0.01889 0.66099 0.19208 0.0
H540 H 0.90518 0.60801 0.181 0.0
H541 H 0.94419 0.63823 0.17832 0.0
H542 H 0.97517 0.6791 0.27361 0.0
C543 C 0.05424 0.69266 0.27107 0.0
C544 C 0.00958 0.66553 0.20946 0.0
C545 C 0.07662 0.69811 0.27474 0.0
C546 C 0.91385 0.61584 0.20442 0.0
C547 C 0.93623 0.63303 0.20296 0.0
C548 C 0.98452 0.67508 0.25554 0.0
C549 C 0.04538 0.69211 0.23871 0.0
C550 C 0.02077 0.6821 0.23431 0.0
C551 C 0.94844 0.64262 0.23296 0.0
C552 C 0.97328 0.65767 0.23174 0.0
H553 H 0.09248 0.70772 0.19158 0.0
H554 H 0.05336 0.6983 0.18513 0.0
H555 H 0.01625 0.69993 0.27617 0.0
H556 H 0.90653 0.6131 0.29021 0.0
H557 H 0.94594 0.64256 0.288 0.0
C558 C 0.29195 0.91438 0.77894 0.0
C559 C 0.29547 0.90661 0.74785 0.0
C560 C 0.29646 0.93655 0.78203 0.0
C561 C 0.30971 0.98836 0.73423 0.0
H562 H 0.35357 0.01829 0.80558 0.0
C563 C 0.37919 0.0812 0.7267 0.0
C564 C 0.38912 0.09279 0.75682 0.0
C565 C 0.3616 0.0589 0.72792 0.0
C566 C 0.34091 0.01036 0.78604 0.0
H567 H 0.30508 0.91527 0.69523 0.0
H568 H 0.31283 0.95386 0.70053 0.0
H569 H 0.33249 0.97767 0.80371 0.0
H570 H 0.38755 0.09125 0.81167 0.0
H571 H 0.35608 0.05284 0.81403 0.0
H572 H 0.31856 0.02115 0.71607 0.0
C573 C 0.30648 0.94291 0.72245 0.0
C574 C 0.32881 0.98694 0.78498 0.0
C575 C 0.30223 0.92089 0.71948 0.0
C576 C 0.3802 0.08247 0.78812 0.0
C577 C 0.36231 0.06041 0.78939 0.0
C578 C 0.32164 0.01187 0.73552 0.0
C579 C 0.3044 0.95121 0.75403 0.0
C580 C 0.31362 0.9757 0.75849 0.0
C581 C 0.35345 0.04796 0.75935 0.0
C582 C 0.33794 0.02318 0.76084 0.0
H583 H 0.28711 0.90386 0.80135 0.0
H584 H 0.29469 0.94252 0.80666 0.0
H585 H 0.29793 0.98008 0.71367 0.0
H586 H 0.386 0.08883 0.70228 0.0
H587 H 0.35544 0.04988 0.70422 0.0
C588 C 0.22593 0.44303 0.87237 0.0
C589 C 0.20638 0.44099 0.8575 0.0
C590 C 0.22587 0.43703 0.90628 0.0
C591 C 0.20063 0.43828 0.98514 0.0
H592 H 0.2281 0.4054 0.02195 0.0
C593 C 0.21457 0.43894 0.12833 0.0
C594 C 0.23506 0.44108 0.13887 0.0
C595 C 0.20721 0.43298 0.09491 0.0
C596 C 0.22054 0.41481 0.01215 0.0
H597 H 0.17115 0.42996 0.86602 0.0
H598 H 0.1713 0.42005 0.92563 0.0
H599 H 0.22264 0.40572 0.96064 0.0
H600 H 0.26352 0.43782 0.12327 0.0
H601 H 0.25143 0.42867 0.06447 0.0
H602 H 0.1999 0.44887 0.03567 0.0
C603 C 0.18656 0.42614 0.91085 0.0
C604 C 0.21727 0.41481 0.97706 0.0
C605 C 0.18649 0.43177 0.87675 0.0
C606 C 0.24759 0.43619 0.1158 0.0
C607 C 0.24053 0.4308 0.08207 0.0
C608 C 0.20428 0.43867 0.02003 0.0
C609 C 0.20638 0.4292 0.92609 0.0
C610 C 0.20753 0.42678 0.96326 0.0
C611 C 0.22051 0.42971 0.07091 0.0
C612 C 0.21458 0.42721 0.03407 0.0
H613 H 0.24147 0.44994 0.85812 0.0
H614 H 0.24141 0.43969 0.91751 0.0
H615 H 0.19341 0.44796 0.97507 0.0
H616 H 0.20443 0.44231 0.1458 0.0
H617 H 0.19135 0.43158 0.08773 0.0
C618 C 0.78784 0.22444 0.3654 0.0
C619 C 0.76732 0.2061 0.35493 0.0
C620 C 0.7954 0.22574 0.39867 0.0
C621 C 0.78304 0.19393 0.48088 0.0
H622 H 0.80912 0.2539 0.51888 0.0
C623 C 0.7777 0.21466 0.62154 0.0
C624 C 0.7967 0.23287 0.63639 0.0
C625 C 0.77796 0.20917 0.58746 0.0
C626 C 0.80224 0.2371 0.50857 0.0
H627 H 0.73907 0.17421 0.37048 0.0
H628 H 0.7516 0.1769 0.42903 0.0
H629 H 0.80236 0.24856 0.4583 0.0
H630 H 0.83129 0.25882 0.6276 0.0
H631 H 0.83153 0.24946 0.56772 0.0
H632 H 0.78163 0.18254 0.53208 0.0
C633 C 0.7623 0.19005 0.41146 0.0
C634 C 0.79841 0.23398 0.47369 0.0
C635 C 0.75501 0.18852 0.37788 0.0
C636 C 0.81636 0.24473 0.6169 0.0
C637 C 0.8165 0.23944 0.58263 0.0
C638 C 0.78655 0.19705 0.51596 0.0
C639 C 0.78232 0.20901 0.42257 0.0
C640 C 0.78845 0.21232 0.45933 0.0
C641 C 0.79712 0.22195 0.56742 0.0
C642 C 0.79591 0.21865 0.53013 0.0
H643 H 0.79784 0.23809 0.34804 0.0
H644 H 0.81124 0.24024 0.40584 0.0
H645 H 0.77575 0.17706 0.47079 0.0
H646 H 0.76234 0.2051 0.63594 0.0
H647 H 0.76274 0.19571 0.57632 0.0
C648 C 0.56055 0.77605 0.13167 0.0
C649 C 0.55867 0.79461 0.14191 0.0
C650 C 0.56671 0.77448 0.09844 0.0
C651 C 0.58693 0.80605 0.01616 0.0
H652 H 0.55333 0.74599 0.97839 0.0
C653 C 0.56283 0.78498 0.8749 0.0
C654 C 0.56375 0.76669 0.86062 0.0
C655 C 0.5681 0.79056 0.90908 0.0
C656 C 0.56316 0.76281 0.98865 0.0
H657 H 0.56264 0.82655 0.12592 0.0
H658 H 0.5723 0.8234 0.0674 0.0
H659 H 0.55117 0.75153 0.03875 0.0
H660 H 0.57211 0.74068 0.87056 0.0
H661 H 0.58087 0.75017 0.93063 0.0
H662 H 0.5976 0.81726 0.96509 0.0
C663 C 0.5697 0.81028 0.08514 0.0
C664 C 0.56202 0.76604 0.02341 0.0
C665 C 0.56403 0.81208 0.1187 0.0
C666 C 0.57122 0.75484 0.88081 0.0
C667 C 0.57615 0.76021 0.91519 0.0
C668 C 0.58775 0.80282 0.9812 0.0
C669 C 0.57057 0.79117 0.07432 0.0
C670 C 0.57364 0.78774 0.03768 0.0
C671 C 0.5741 0.77777 0.92981 0.0
C672 C 0.57565 0.78118 0.96709 0.0
H673 H 0.55684 0.76248 0.14923 0.0
H674 H 0.5679 0.75986 0.09151 0.0
H675 H 0.59646 0.82294 0.02618 0.0
H676 H 0.55726 0.79453 0.85995 0.0
H677 H 0.56623 0.80408 0.91973 0.0
C678 C 0.81662 0.5686 0.38051 0.0
C679 C 0.79706 0.56233 0.36146 0.0
C680 C 0.8174 0.57386 0.41501 0.0
C681 C 0.7903 0.58881 0.48305 0.0
H682 H 0.8013 0.5489 0.53898 0.0
C683 C 0.75673 0.56554 0.61994 0.0
C684 C 0.76749 0.55835 0.64286 0.0
C685 C 0.76461 0.57132 0.58661 0.0
C686 C 0.79873 0.56067 0.5241 0.0
H687 H 0.76368 0.55831 0.36286 0.0
H688 H 0.76526 0.56795 0.42279 0.0
H689 H 0.80826 0.55077 0.47837 0.0
H690 H 0.79598 0.55336 0.64985 0.0
H691 H 0.81044 0.56457 0.59247 0.0
H692 H 0.78071 0.59874 0.52867 0.0
C693 C 0.77988 0.5686 0.4112 0.0
C694 C 0.80268 0.56165 0.4892 0.0
C695 C 0.77894 0.56295 0.37694 0.0
C696 C 0.78714 0.55852 0.63255 0.0
C697 C 0.79531 0.56478 0.5995 0.0
C698 C 0.78672 0.58816 0.51812 0.0
C699 C 0.79882 0.5734 0.43082 0.0
C700 C 0.79798 0.57529 0.46822 0.0
C701 C 0.78371 0.57049 0.57566 0.0
C702 C 0.79031 0.5736 0.53905 0.0
H703 H 0.83085 0.56826 0.36929 0.0
H704 H 0.83223 0.5776 0.42961 0.0
H705 H 0.78668 0.59958 0.46739 0.0
H706 H 0.74149 0.5655 0.62715 0.0
H707 H 0.75499 0.57534 0.56909 0.0
C708 C 0.21417 0.77384 0.86444 0.0
C709 C 0.23464 0.79239 0.85432 0.0
C710 C 0.20656 0.77206 0.8978 0.0
C711 C 0.21896 0.80293 0.98103 0.0
H712 H 0.19172 0.74242 0.01725 0.0
C713 C 0.2226 0.77944 0.1211 0.0
C714 C 0.20284 0.76193 0.13548 0.0
C715 C 0.22305 0.78543 0.08709 0.0
C716 C 0.19898 0.75937 0.00742 0.0
H717 H 0.26281 0.82409 0.87068 0.0
H718 H 0.25029 0.82052 0.92932 0.0
H719 H 0.19889 0.74845 0.9568 0.0
H720 H 0.16777 0.73769 0.12591 0.0
H721 H 0.1688 0.74781 0.06609 0.0
H722 H 0.22038 0.81373 0.03262 0.0
C723 C 0.23959 0.8076 0.91145 0.0
C724 C 0.20301 0.76289 0.97262 0.0
C725 C 0.2469 0.80964 0.87779 0.0
C726 C 0.18325 0.75123 0.11556 0.0
C727 C 0.18383 0.75696 0.08135 0.0
C728 C 0.2153 0.7994 0.01603 0.0
C729 C 0.21958 0.78848 0.92216 0.0
C730 C 0.21334 0.78475 0.95889 0.0
C731 C 0.20385 0.7738 0.06667 0.0
C732 C 0.20551 0.7776 0.02952 0.0
H733 H 0.20422 0.76044 0.84668 0.0
H734 H 0.19072 0.75745 0.90463 0.0
H735 H 0.22651 0.81995 0.97149 0.0
H736 H 0.23792 0.78809 0.13587 0.0
H737 H 0.23873 0.79837 0.0763 0.0
C738 C 0.43763 0.22231 0.62989 0.0
C739 C 0.43998 0.20407 0.64037 0.0
C740 C 0.43165 0.22371 0.59646 0.0
C741 C 0.41377 0.19234 0.51347 0.0
H742 H 0.44603 0.25277 0.47675 0.0
C743 C 0.44062 0.21582 0.37308 0.0
C744 C 0.43837 0.23335 0.35878 0.0
C745 C 0.43495 0.20968 0.40705 0.0
C746 C 0.43661 0.23583 0.4867 0.0
H747 H 0.43703 0.17251 0.62462 0.0
H748 H 0.42779 0.17542 0.56585 0.0
H749 H 0.44727 0.24707 0.53725 0.0
H750 H 0.42724 0.25736 0.36843 0.0
H751 H 0.41787 0.24695 0.42805 0.0
H752 H 0.40457 0.18126 0.46194 0.0
C753 C 0.4298 0.18838 0.58349 0.0
C754 C 0.43718 0.23249 0.52156 0.0
C755 C 0.43522 0.18671 0.61722 0.0
C756 C 0.4292 0.2438 0.37867 0.0
C757 C 0.4239 0.23792 0.41281 0.0
C758 C 0.41358 0.19569 0.47841 0.0
C759 C 0.42854 0.20723 0.57237 0.0
C760 C 0.426 0.21068 0.53551 0.0
C761 C 0.42724 0.22118 0.42751 0.0
C762 C 0.4252 0.21747 0.46472 0.0
H763 H 0.44092 0.23579 0.64739 0.0
H764 H 0.4301 0.23809 0.58935 0.0
H765 H 0.40458 0.17534 0.52316 0.0
H766 H 0.44752 0.20735 0.35837 0.0
H767 H 0.43781 0.19681 0.41781 0.0
C768 C 0.76343 0.53293 0.12816 0.0
C769 C 0.7758 0.55275 0.14694 0.0
C770 C 0.76112 0.53383 0.09309 0.0
C771 C 0.78888 0.56937 0.01905 0.0
H772 H 0.73256 0.52902 0.9743 0.0
C773 C 0.77568 0.56973 0.87339 0.0
C774 C 0.76316 0.54862 0.85791 0.0
C775 C 0.77747 0.57149 0.90878 0.0
C776 C 0.74846 0.54025 0.98639 0.0
H777 H 0.79497 0.58905 0.14437 0.0
H778 H 0.79104 0.59074 0.08266 0.0
H779 H 0.73439 0.53015 0.03609 0.0
H780 H 0.74309 0.5128 0.86672 0.0
H781 H 0.74656 0.51572 0.92843 0.0
H782 H 0.80301 0.57922 0.96924 0.0
C783 C 0.78328 0.57449 0.09504 0.0
C784 C 0.74949 0.54093 0.02178 0.0
C785 C 0.78547 0.57356 0.13024 0.0
C786 C 0.75291 0.52926 0.87817 0.0
C787 C 0.75469 0.53098 0.91346 0.0
C788 C 0.78786 0.56866 0.98356 0.0
C789 C 0.77123 0.5546 0.07606 0.0
C790 C 0.76977 0.55526 0.03852 0.0
C791 C 0.76673 0.55213 0.92922 0.0
C792 C 0.76771 0.55384 0.96685 0.0
H793 H 0.75608 0.51667 0.14048 0.0
H794 H 0.75202 0.5182 0.07917 0.0
H795 H 0.80481 0.58041 0.03121 0.0
H796 H 0.78377 0.58485 0.8581 0.0
H797 H 0.78678 0.58802 0.92014 0.0
C798 C 0.24555 0.77704 0.61807 0.0
C799 C 0.23494 0.78547 0.63895 0.0
C800 C 0.24292 0.77654 0.58289 0.0
C801 C 0.20571 0.77607 0.5158 0.0
H802 H 0.25779 0.79357 0.45836 0.0
C803 C 0.19905 0.75216 0.37448 0.0
C804 C 0.21437 0.76818 0.35163 0.0
C805 C 0.20118 0.75639 0.40932 0.0
C806 C 0.24314 0.78889 0.47402 0.0
H807 H 0.21318 0.79979 0.64008 0.0
H808 H 0.20839 0.79885 0.57821 0.0
H809 H 0.26234 0.79698 0.5199 0.0
H810 H 0.24382 0.80122 0.34707 0.0
H811 H 0.24774 0.80863 0.4083 0.0
H812 H 0.18649 0.7678 0.46988 0.0
C813 C 0.21869 0.79257 0.58903 0.0
C814 C 0.2457 0.79059 0.50926 0.0
C815 C 0.22144 0.79318 0.62428 0.0
C816 C 0.23185 0.78858 0.36424 0.0
C817 C 0.23408 0.79279 0.39919 0.0
C818 C 0.20313 0.77424 0.48054 0.0
C819 C 0.22956 0.78441 0.56796 0.0
C820 C 0.22698 0.78392 0.53054 0.0
C821 C 0.21881 0.77667 0.4221 0.0
C822 C 0.22177 0.78036 0.4593 0.0
H823 H 0.25614 0.77113 0.62896 0.0
H824 H 0.25124 0.76985 0.56738 0.0
H825 H 0.19097 0.77071 0.53155 0.0
H826 H 0.18578 0.73604 0.36554 0.0
H827 H 0.18943 0.74345 0.42635 0.0
C828 C 0.47057 0.22342 0.87581 0.0
C829 C 0.45148 0.2158 0.85522 0.0
C830 C 0.46877 0.22421 0.91102 0.0
C831 C 0.43359 0.227 0.97873 0.0
H832 H 0.46592 0.20655 0.03567 0.0
C833 C 0.45135 0.24977 0.12027 0.0
C834 C 0.44919 0.23306 0.14296 0.0
C835 C 0.44947 0.24585 0.08535 0.0
C836 C 0.4566 0.21209 0.02013 0.0
H837 H 0.41567 0.20326 0.85466 0.0
H838 H 0.41242 0.20475 0.91656 0.0
H839 H 0.4668 0.20323 0.97403 0.0
H840 H 0.44329 0.19912 0.14721 0.0
H841 H 0.44026 0.19224 0.08576 0.0
H842 H 0.42354 0.23603 0.02485 0.0
C843 C 0.42878 0.21017 0.9055 0.0
C844 C 0.4573 0.21042 0.98484 0.0
C845 C 0.43059 0.20926 0.87022 0.0
C846 C 0.44512 0.21229 0.13013 0.0
C847 C 0.44339 0.20839 0.09508 0.0
C848 C 0.43301 0.22881 0.01402 0.0
C849 C 0.44784 0.21746 0.92628 0.0
C850 C 0.44604 0.21811 0.96376 0.0
C851 C 0.44558 0.22517 0.07233 0.0
C852 C 0.44473 0.22162 0.03507 0.0
H853 H 0.48682 0.22842 0.86464 0.0
H854 H 0.4838 0.23021 0.92632 0.0
H855 H 0.42481 0.23314 0.96314 0.0
H856 H 0.45497 0.26611 0.12947 0.0
H857 H 0.45167 0.25925 0.06848 0.0
C858 C 0.24094 0.4687 0.37339 0.0
C859 C 0.23261 0.44911 0.35377 0.0
C860 C 0.23779 0.46733 0.40846 0.0
C861 C 0.22794 0.43057 0.48147 0.0
H862 H 0.21203 0.47099 0.52617 0.0
C863 C 0.21156 0.42882 0.62663 0.0
C864 C 0.21991 0.4498 0.64246 0.0
C865 C 0.2125 0.42742 0.59128 0.0
C866 C 0.21671 0.45975 0.51412 0.0
H867 H 0.21431 0.41275 0.35494 0.0
H868 H 0.20886 0.41025 0.41678 0.0
H869 H 0.21384 0.47065 0.46446 0.0
H870 H 0.23629 0.48573 0.63439 0.0
H871 H 0.23852 0.48343 0.57285 0.0
H872 H 0.23112 0.41992 0.5313 0.0
C873 C 0.21791 0.42666 0.40497 0.0
C874 C 0.21767 0.45951 0.47877 0.0
C875 C 0.22095 0.42806 0.36973 0.0
C876 C 0.22983 0.46937 0.62267 0.0
C877 C 0.23083 0.46801 0.58745 0.0
C878 C 0.22703 0.43085 0.51695 0.0
C879 C 0.22632 0.44632 0.42466 0.0
C880 C 0.22361 0.44517 0.46208 0.0
C881 C 0.22183 0.447 0.57128 0.0
C882 C 0.22174 0.44571 0.53365 0.0
H883 H 0.25027 0.48512 0.36164 0.0
H884 H 0.24478 0.48277 0.423 0.0
H885 H 0.23275 0.41947 0.46927 0.0
H886 H 0.2039 0.41353 0.64157 0.0
H887 H 0.20535 0.41099 0.57957 0.0
C888 C 0.77294 0.23675 0.87159 0.0
C889 C 0.78388 0.22792 0.85233 0.0
C890 C 0.77226 0.23504 0.90689 0.0
C891 C 0.77783 0.20391 0.97859 0.0
H892 H 0.78895 0.2569 0.02936 0.0
C893 C 0.78123 0.20763 0.12581 0.0
C894 C 0.76946 0.21718 0.14092 0.0
C895 C 0.78489 0.20926 0.09071 0.0
C896 C 0.78567 0.24192 0.01556 0.0
H897 H 0.80223 0.20994 0.85428 0.0
H898 H 0.80112 0.2069 0.91648 0.0
H899 H 0.79112 0.25845 0.96762 0.0
H900 H 0.75227 0.23584 0.13172 0.0
H901 H 0.75865 0.23878 0.07057 0.0
H902 H 0.77206 0.18731 0.02667 0.0
C903 C 0.79299 0.21507 0.90424 0.0
C904 C 0.78689 0.2428 0.9802 0.0
C905 C 0.7937 0.21685 0.8688 0.0
C906 C 0.76166 0.22861 0.12061 0.0
C907 C 0.76535 0.2303 0.08566 0.0
C908 C 0.77657 0.20302 0.01407 0.0
C909 C 0.78254 0.22446 0.92366 0.0
C910 C 0.78261 0.22371 0.96129 0.0
C911 C 0.77692 0.22057 0.07026 0.0
C912 C 0.7801 0.22192 0.03288 0.0
H913 H 0.76536 0.24547 0.85935 0.0
H914 H 0.76376 0.24211 0.9211 0.0
H915 H 0.77434 0.18891 0.96467 0.0
H916 H 0.78748 0.19884 0.14116 0.0
H917 H 0.79404 0.20178 0.07962 0.0
C918 C 0.53672 0.76264 0.62523 0.0
C919 C 0.55643 0.77162 0.64466 0.0
C920 C 0.53788 0.76476 0.58998 0.0
C921 C 0.57472 0.79721 0.519 0.0
H922 H 0.5332 0.74481 0.46682 0.0
C923 C 0.57453 0.7949 0.37145 0.0
C924 C 0.55319 0.78549 0.35645 0.0
C925 C 0.5766 0.7931 0.40652 0.0
C926 C 0.54482 0.75963 0.48103 0.0
H927 H 0.59276 0.79025 0.64304 0.0
H928 H 0.59492 0.79395 0.58093 0.0
H929 H 0.53375 0.74241 0.52845 0.0
H930 H 0.51735 0.76703 0.36584 0.0
H931 H 0.52085 0.76374 0.42688 0.0
H932 H 0.58557 0.81448 0.47138 0.0
C933 C 0.57857 0.78537 0.593 0.0
C934 C 0.54511 0.75826 0.51633 0.0
C935 C 0.57737 0.78319 0.62839 0.0
C936 C 0.53398 0.77415 0.37685 0.0
C937 C 0.53601 0.77225 0.41174 0.0
C938 C 0.57442 0.79858 0.48356 0.0
C939 C 0.5588 0.77588 0.5734 0.0
C940 C 0.55976 0.77714 0.53577 0.0
C941 C 0.55733 0.78172 0.42701 0.0
C942 C 0.55917 0.7799 0.46427 0.0
H943 H 0.52038 0.75354 0.63729 0.0
H944 H 0.52235 0.75761 0.57566 0.0
H945 H 0.58612 0.81206 0.53332 0.0
H946 H 0.58955 0.80363 0.35605 0.0
H947 H 0.59323 0.80041 0.41754 0.0
C948 C 0.2255 0.53683 0.23881 0.0
C949 C 0.21151 0.51721 0.22032 0.0
C950 C 0.22044 0.55405 0.24139 0.0
C951 C 0.18856 0.57726 0.19878 0.0
H952 H 0.20629 0.61488 0.27921 0.0
C953 C 0.17877 0.65657 0.21635 0.0
C954 C 0.1992 0.67595 0.22464 0.0
C955 C 0.17704 0.63536 0.21689 0.0
C956 C 0.20118 0.60445 0.25666 0.0
H957 H 0.1808 0.50005 0.19083 0.0
H958 H 0.17165 0.53007 0.19599 0.0
H959 H 0.20807 0.58033 0.27944 0.0
H960 H 0.23369 0.68823 0.24036 0.0
H961 H 0.23045 0.65127 0.24202 0.0
H962 H 0.18165 0.60163 0.17624 0.0
C963 C 0.18681 0.53226 0.20794 0.0
C964 C 0.20231 0.58473 0.25666 0.0
C965 C 0.19198 0.515 0.20515 0.0
C966 C 0.21775 0.67367 0.23368 0.0
C967 C 0.21588 0.65251 0.23486 0.0
C968 C 0.18712 0.59688 0.19899 0.0
C969 C 0.20111 0.5521 0.22588 0.0
C970 C 0.19672 0.57124 0.22736 0.0
C971 C 0.19554 0.63318 0.22648 0.0
C972 C 0.19404 0.61095 0.22761 0.0
H973 H 0.24073 0.53918 0.25075 0.0
H974 H 0.23214 0.56921 0.2548 0.0
H975 H 0.18429 0.56742 0.17568 0.0
H976 H 0.1642 0.65782 0.20923 0.0
H977 H 0.16118 0.62066 0.21033 0.0
C978 C 0.68504 0.20953 0.73185 0.0
C979 C 0.69588 0.21168 0.70064 0.0
C980 C 0.66258 0.2043 0.73273 0.0
C981 C 0.62214 0.21039 0.67943 0.0
H982 H 0.57981 0.17567 0.75049 0.0
C983 C 0.54601 0.2203 0.71065 0.0
C984 C 0.52537 0.20092 0.7179 0.0
C985 C 0.56558 0.21909 0.7071 0.0
C986 C 0.59135 0.18521 0.73025 0.0
H987 H 0.6912 0.20847 0.64603 0.0
H988 H 0.652 0.19904 0.64762 0.0
H989 H 0.61571 0.17641 0.74668 0.0
H990 H 0.5092 0.16501 0.72718 0.0
H991 H 0.54353 0.16294 0.72085 0.0
H992 H 0.59792 0.21926 0.66302 0.0
C993 C 0.66098 0.20191 0.67137 0.0
C994 C 0.61199 0.18581 0.72827 0.0
C995 C 0.68343 0.2072 0.67048 0.0
C996 C 0.52481 0.18027 0.72155 0.0
C997 C 0.54448 0.17908 0.71811 0.0
C998 C 0.60158 0.20982 0.68145 0.0
C999 C 0.65048 0.20104 0.70244 0.0
C1000 C 0.62774 0.19865 0.70307 0.0
C1001 C 0.56507 0.19849 0.71075 0.0
C1002 C 0.5861 0.19754 0.70719 0.0
H1003 H 0.69414 0.21283 0.75557 0.0
H1004 H 0.65507 0.20392 0.75709 0.0
H1005 H 0.63395 0.22068 0.65995 0.0
H1006 H 0.54712 0.23651 0.70778 0.0
H1007 H 0.58123 0.23442 0.70199 0.0
C1008 C 0.46351 0.68998 0.24214 0.0
C1009 C 0.48284 0.69553 0.22292 0.0
C1010 C 0.44591 0.66785 0.24394 0.0
C1011 C 0.42128 0.61371 0.19808 0.0
H1012 H 0.38365 0.5927 0.27844 0.0
C1013 C 0.34206 0.52452 0.21434 0.0
C1014 C 0.32264 0.52528 0.22343 0.0
C1015 C 0.36314 0.54411 0.21462 0.0
C1016 C 0.39407 0.59836 0.25588 0.0
H1017 H 0.49915 0.68198 0.19144 0.0
H1018 H 0.46851 0.64303 0.19533 0.0
H1019 H 0.41866 0.62859 0.27994 0.0
H1020 H 0.31011 0.54712 0.24001 0.0
H1021 H 0.34695 0.58113 0.24124 0.0
H1022 H 0.39651 0.58311 0.17434 0.0
C1023 C 0.46681 0.65597 0.2084 0.0
C1024 C 0.41406 0.61896 0.25661 0.0
C1025 C 0.48443 0.67826 0.20634 0.0
C1026 C 0.32472 0.54598 0.23274 0.0
C1027 C 0.34579 0.56542 0.23366 0.0
C1028 C 0.40141 0.59287 0.19756 0.0
C1029 C 0.4472 0.65053 0.22692 0.0
C1030 C 0.42761 0.62724 0.22742 0.0
C1031 C 0.36517 0.56464 0.22471 0.0
C1032 C 0.38738 0.58535 0.22619 0.0
H1033 H 0.46164 0.70284 0.25516 0.0
H1034 H 0.43096 0.6645 0.25787 0.0
H1035 H 0.43114 0.61959 0.17502 0.0
H1036 H 0.34096 0.5088 0.20699 0.0
H1037 H 0.37789 0.54315 0.20763 0.0
C1038 C 0.77066 0.31494 0.7247 0.0
C1039 C 0.79086 0.3146 0.7216 0.0
C1040 C 0.77067 0.33527 0.72398 0.0
C1041 C 0.8081 0.39689 0.73447 0.0
H1042 H 0.75786 0.39872 0.69298 0.0
C1043 C 0.80262 0.47837 0.71414 0.0
C1044 C 0.78222 0.47659 0.72465 0.0
C1045 C 0.80517 0.45936 0.71365 0.0
C1046 C 0.77196 0.39842 0.70474 0.0
H1047 H 0.82692 0.3354 0.71488 0.0
H1048 H 0.82686 0.37081 0.71264 0.0
H1049 H 0.75945 0.36413 0.69098 0.0
H1050 H 0.74871 0.45351 0.74364 0.0
H1051 H 0.75312 0.42056 0.74228 0.0
H1052 H 0.82067 0.43149 0.74766 0.0
C1053 C 0.81104 0.35541 0.71642 0.0
C1054 C 0.77284 0.37857 0.70378 0.0
C1055 C 0.81106 0.33507 0.71747 0.0
C1056 C 0.76465 0.45554 0.73531 0.0
C1057 C 0.76709 0.43659 0.73437 0.0
C1058 C 0.80734 0.41688 0.73505 0.0
C1059 C 0.79085 0.35578 0.71975 0.0
C1060 C 0.79071 0.3774 0.71912 0.0
C1061 C 0.78724 0.43824 0.72315 0.0
C1062 C 0.78907 0.41769 0.72067 0.0
H1063 H 0.75482 0.29951 0.7282 0.0
H1064 H 0.75484 0.33488 0.72733 0.0
H1065 H 0.822 0.39658 0.74688 0.0
H1066 H 0.81648 0.49436 0.70586 0.0
H1067 H 0.82088 0.46104 0.70489 0.0
C1068 C 0.32017 0.80415 0.24528 0.0
C1069 C 0.30353 0.78899 0.22305 0.0
C1070 C 0.34192 0.80719 0.24412 0.0
C1071 C 0.37125 0.77742 0.21308 0.0
H1072 H 0.42493 0.83243 0.23928 0.0
C1073 C 0.45368 0.778 0.23715 0.0
C1074 C 0.47404 0.79701 0.22778 0.0
C1075 C 0.43364 0.77848 0.23648 0.0
C1076 C 0.41016 0.81701 0.23147 0.0
H1077 H 0.29674 0.76644 0.18062 0.0
H1078 H 0.33472 0.77268 0.17711 0.0
H1079 H 0.38911 0.83166 0.23588 0.0
H1080 H 0.48938 0.83153 0.21051 0.0
H1081 H 0.45414 0.83212 0.2079 0.0
H1082 H 0.3922 0.76299 0.20711 0.0
C1083 C 0.33099 0.78141 0.19665 0.0
C1084 C 0.38951 0.81647 0.22999 0.0
C1085 C 0.30923 0.77797 0.1984 0.0
C1086 C 0.47393 0.81661 0.2179 0.0
C1087 C 0.45374 0.81698 0.21664 0.0
C1088 C 0.39183 0.77806 0.21402 0.0
C1089 C 0.34746 0.79544 0.22022 0.0
C1090 C 0.36974 0.79661 0.22092 0.0
C1091 C 0.43329 0.79785 0.22575 0.0
C1092 C 0.41156 0.79774 0.22362 0.0
H1093 H 0.31608 0.81275 0.26462 0.0
H1094 H 0.35404 0.81801 0.26286 0.0
H1095 H 0.35643 0.76163 0.20668 0.0
H1096 H 0.45324 0.76274 0.24543 0.0
H1097 H 0.41841 0.76362 0.24464 0.0
C1098 C 0.6743 0.45409 0.71458 0.0
C1099 C 0.67585 0.47512 0.71906 0.0
C1100 C 0.65342 0.43463 0.71148 0.0
C1101 C 0.59349 0.41055 0.73182 0.0
H1102 H 0.58786 0.36358 0.67102 0.0
C1103 C 0.5126 0.32196 0.71615 0.0
C1104 C 0.51708 0.30418 0.71961 0.0
C1105 C 0.53033 0.34423 0.71395 0.0
C1106 C 0.58917 0.37659 0.68803 0.0
H1107 H 0.65653 0.49213 0.72365 0.0
H1108 H 0.61989 0.45795 0.71795 0.0
H1109 H 0.62192 0.40027 0.66985 0.0
H1110 H 0.54366 0.29591 0.72388 0.0
H1111 H 0.57425 0.33445 0.7196 0.0
H1112 H 0.56064 0.38647 0.75017 0.0
C1113 C 0.63494 0.45662 0.7171 0.0
C1114 C 0.60869 0.39756 0.68748 0.0
C1115 C 0.65593 0.4762 0.7202 0.0
C1116 C 0.53955 0.30914 0.72118 0.0
C1117 C 0.55712 0.33122 0.71852 0.0
C1118 C 0.5738 0.38952 0.73217 0.0
C1119 C 0.63348 0.43562 0.71267 0.0
C1120 C 0.61141 0.41456 0.71012 0.0
C1121 C 0.55273 0.34896 0.71458 0.0
C1122 C 0.57181 0.37217 0.71099 0.0
H1123 H 0.68923 0.45256 0.71375 0.0
H1124 H 0.65292 0.4187 0.70881 0.0
H1125 H 0.59509 0.42327 0.74967 0.0
H1126 H 0.49547 0.31866 0.71498 0.0
H1127 H 0.52656 0.35768 0.71101 0.0
C1128 C 0.3432 0.81783 0.77553 0.0
C1129 C 0.32323 0.79701 0.7725 0.0
C1130 C 0.36406 0.81884 0.77692 0.0
C1131 C 0.39166 0.78677 0.75303 0.0
H1132 H 0.43563 0.82188 0.82203 0.0
C1133 C 0.47631 0.78925 0.75989 0.0
C1134 C 0.48171 0.78456 0.79216 0.0
C1135 C 0.45938 0.79473 0.75618 0.0
C1136 C 0.42353 0.81207 0.80256 0.0
H1137 H 0.30957 0.76094 0.76872 0.0
H1138 H 0.34581 0.76277 0.77104 0.0
H1139 H 0.40067 0.82308 0.8181 0.0
H1140 H 0.47453 0.78329 0.84603 0.0
H1141 H 0.44495 0.79277 0.83949 0.0
H1142 H 0.41406 0.77523 0.73801 0.0
C1143 C 0.34537 0.77831 0.77211 0.0
C1144 C 0.40362 0.81288 0.80016 0.0
C1145 C 0.32458 0.77727 0.77103 0.0
C1146 C 0.47071 0.7867 0.8208 0.0
C1147 C 0.45384 0.79227 0.81708 0.0
C1148 C 0.41158 0.78609 0.75525 0.0
C1149 C 0.36533 0.79908 0.77492 0.0
C1150 C 0.38731 0.79988 0.77578 0.0
C1151 C 0.44758 0.79574 0.78465 0.0
C1152 C 0.42758 0.79843 0.78038 0.0
H1153 H 0.34276 0.83335 0.77674 0.0
H1154 H 0.3792 0.83508 0.77896 0.0
H1155 H 0.3795 0.77678 0.73373 0.0
H1156 H 0.48458 0.78792 0.73731 0.0
H1157 H 0.45515 0.79764 0.7309 0.0
C1158 C 0.53975 0.32453 0.30087 0.0
C1159 C 0.52137 0.32257 0.28235 0.0
C1160 C 0.55912 0.3454 0.30493 0.0
C1161 C 0.59312 0.39852 0.26365 0.0
H1162 H 0.62107 0.41824 0.35204 0.0
C1163 C 0.68164 0.47665 0.27837 0.0
C1164 C 0.696 0.47423 0.30124 0.0
C1165 C 0.65862 0.46088 0.2778 0.0
C1166 C 0.6136 0.41293 0.32711 0.0
H1167 H 0.50885 0.34094 0.25358 0.0
H1168 H 0.54327 0.37756 0.25989 0.0
H1169 H 0.58375 0.38511 0.34765 0.0
H1170 H 0.6974 0.45361 0.34183 0.0
H1171 H 0.65772 0.42597 0.34019 0.0
H1172 H 0.62339 0.42541 0.24275 0.0
C1173 C 0.54238 0.36287 0.27158 0.0
C1174 C 0.59218 0.39405 0.32469 0.0
C1175 C 0.52273 0.34198 0.2681 0.0
C1176 C 0.68681 0.45606 0.32399 0.0
C1177 C 0.66393 0.44025 0.32322 0.0
C1178 C 0.61473 0.41724 0.26599 0.0
C1179 C 0.56072 0.36471 0.29006 0.0
C1180 C 0.58196 0.3864 0.2929 0.0
C1181 C 0.64953 0.44229 0.29993 0.0
C1182 C 0.62548 0.42434 0.29771 0.0
H1183 H 0.53917 0.30989 0.31226 0.0
H1184 H 0.57312 0.34635 0.31901 0.0
H1185 H 0.58562 0.39282 0.23881 0.0
H1186 H 0.68821 0.49054 0.2606 0.0
H1187 H 0.64801 0.46317 0.25984 0.0
C1188 C 0.22125 0.54493 0.77734 0.0
C1189 C 0.20174 0.52379 0.77417 0.0
C1190 C 0.21983 0.56443 0.77948 0.0
C1191 C 0.18322 0.58789 0.75974 0.0
H1192 H 0.22581 0.63613 0.81765 0.0
C1193 C 0.19021 0.67627 0.77656 0.0
C1194 C 0.21218 0.69415 0.77111 0.0
C1195 C 0.18597 0.65409 0.77839 0.0
C1196 C 0.21377 0.62276 0.80146 0.0
H1197 H 0.16535 0.50662 0.77074 0.0
H1198 H 0.16288 0.54086 0.77491 0.0
H1199 H 0.2236 0.59964 0.81952 0.0
H1200 H 0.24683 0.70269 0.76268 0.0
H1201 H 0.23945 0.66431 0.76644 0.0
H1202 H 0.17359 0.6114 0.74169 0.0
C1203 C 0.17929 0.54226 0.77541 0.0
C1204 C 0.21256 0.60191 0.80237 0.0
C1205 C 0.18071 0.52265 0.77318 0.0
C1206 C 0.2297 0.68937 0.76696 0.0
C1207 C 0.22553 0.6674 0.76929 0.0
C1208 C 0.18429 0.6088 0.75909 0.0
C1209 C 0.19886 0.56337 0.77871 0.0
C1210 C 0.1978 0.58444 0.78076 0.0
C1211 C 0.20373 0.64959 0.7754 0.0
C1212 C 0.20006 0.62657 0.77924 0.0
H1213 H 0.23774 0.54652 0.77794 0.0
H1214 H 0.23529 0.58042 0.78121 0.0
H1215 H 0.17173 0.57482 0.74268 0.0
H1216 H 0.17636 0.67942 0.77973 0.0
H1217 H 0.169 0.64056 0.78305 0.0
C1218 C 0.54052 0.23216 0.27361 0.0
C1219 C 0.51846 0.21384 0.27529 0.0
C1220 C 0.5589 0.22885 0.27535 0.0
C1221 C 0.5776 0.1884 0.26087 0.0
H1222 H 0.62679 0.22834 0.31974 0.0
C1223 C 0.65944 0.18377 0.27443 0.0
C1224 C 0.67963 0.20454 0.27489 0.0
C1225 C 0.63869 0.18291 0.2767 0.0
C1226 C 0.6133 0.21716 0.30297 0.0
H1227 H 0.49846 0.17754 0.27925 0.0
H1228 H 0.53092 0.17173 0.28189 0.0
H1229 H 0.59232 0.23019 0.31914 0.0
H1230 H 0.69375 0.24068 0.27798 0.0
H1231 H 0.65775 0.23919 0.28142 0.0
H1232 H 0.5989 0.17583 0.24394 0.0
C1233 C 0.53377 0.18866 0.27942 0.0
C1234 C 0.59353 0.21818 0.30273 0.0
C1235 C 0.51524 0.192 0.278 0.0
C1236 C 0.67857 0.22438 0.27774 0.0
C1237 C 0.65789 0.22352 0.27995 0.0
C1238 C 0.59751 0.18747 0.26094 0.0
C1239 C 0.55577 0.20713 0.27858 0.0
C1240 C 0.57566 0.20415 0.28118 0.0
C1241 C 0.63768 0.2028 0.27951 0.0
C1242 C 0.61576 0.20219 0.2815 0.0
H1243 H 0.54369 0.24922 0.27138 0.0
H1244 H 0.57566 0.24337 0.27404 0.0
H1245 H 0.56411 0.17747 0.2439 0.0
H1246 H 0.65963 0.16815 0.27228 0.0
H1247 H 0.62345 0.16667 0.27658 0.0
C1248 C 0.47749 0.66308 0.77932 0.0
C1249 C 0.47746 0.68344 0.77576 0.0
C1250 C 0.45725 0.64263 0.78126 0.0
C1251 C 0.39629 0.61924 0.79829 0.0
H1252 H 0.38983 0.56632 0.75251 0.0
C1253 C 0.31025 0.54301 0.769 0.0
C1254 C 0.30672 0.5217 0.77817 0.0
C1255 C 0.33174 0.56182 0.76988 0.0
C1256 C 0.39151 0.58092 0.7657 0.0
H1257 H 0.45608 0.69819 0.77096 0.0
H1258 H 0.42097 0.66268 0.77344 0.0
H1259 H 0.42615 0.60117 0.75184 0.0
H1260 H 0.32318 0.50335 0.79445 0.0
H1261 H 0.36107 0.53645 0.79536 0.0
H1262 H 0.36148 0.59918 0.81114 0.0
C1263 C 0.43657 0.66246 0.77565 0.0
C1264 C 0.4123 0.60087 0.76542 0.0
C1265 C 0.45675 0.68287 0.774 0.0
C1266 C 0.32534 0.51955 0.78735 0.0
C1267 C 0.347 0.53843 0.78778 0.0
C1268 C 0.37553 0.59943 0.79823 0.0
C1269 C 0.43652 0.64206 0.77947 0.0
C1270 C 0.41486 0.62039 0.78133 0.0
C1271 C 0.35029 0.55979 0.77958 0.0
C1272 C 0.37284 0.58017 0.78156 0.0
H1273 H 0.49315 0.66291 0.78086 0.0
H1274 H 0.45787 0.62731 0.78459 0.0
H1275 H 0.39774 0.63372 0.81156 0.0
H1276 H 0.29634 0.54533 0.76174 0.0
H1277 H 0.33385 0.57803 0.76298 0.0
C1278 C 0.78131 0.31564 0.32097 0.0
C1279 C 0.77793 0.30324 0.29101 0.0
C1280 C 0.78564 0.33777 0.31959 0.0
C1281 C 0.80179 0.38636 0.26204 0.0
H1282 H 0.76767 0.4004 0.32609 0.0
C1283 C 0.80992 0.47445 0.2709 0.0
C1284 C 0.7898 0.47489 0.27512 0.0
C1285 C 0.81004 0.45418 0.27317 0.0
C1286 C 0.77723 0.39672 0.30792 0.0
H1287 H 0.77753 0.30471 0.23599 0.0
H1288 H 0.78477 0.34323 0.2336 0.0
H1289 H 0.7659 0.3642 0.32922 0.0
H1290 H 0.754 0.45428 0.28474 0.0
H1291 H 0.75422 0.41905 0.28837 0.0
H1292 H 0.81252 0.41872 0.24011 0.0
C1293 C 0.78428 0.33593 0.25818 0.0
C1294 C 0.77647 0.37607 0.30999 0.0
C1295 C 0.78002 0.3138 0.25956 0.0
C1296 C 0.76982 0.4546 0.28149 0.0
C1297 C 0.76996 0.43439 0.28379 0.0
C1298 C 0.80256 0.40707 0.25997 0.0
C1299 C 0.78662 0.348 0.28822 0.0
C1300 C 0.7886 0.37055 0.28695 0.0
C1301 C 0.79007 0.43394 0.2798 0.0
C1302 C 0.79009 0.41238 0.28269 0.0
H1303 H 0.78004 0.30808 0.34561 0.0
H1304 H 0.78783 0.34675 0.34318 0.0
H1305 H 0.81147 0.38271 0.24407 0.0
H1306 H 0.82562 0.48976 0.26596 0.0
H1307 H 0.82584 0.45443 0.27027 0.0
loop_
_geom_bond_atom_site_label_1
_geom_bond_atom_site_label_2
_geom_bond_distance
_geom_bond_site_symmetry_2
_ccdc_geom_bond_type
Co0 O3 1.970 . S
Co0 N17 1.989 . S
Co0 O25 1.967 . S
Co0 O32 1.920 . S
Co1 O4 1.966 . S
Co1 N10 2.022 . S
Co1 N18 1.993 . S
Co1 O26 1.941 . S
C2 O3 1.258 . S
C2 O4 1.263 . S
O3 Co0 1.970 . S
O3 C2 1.258 . S
O4 Co1 1.966 . S
O4 C2 1.263 . S
C5 O6 1.235 . S
C5 O32 1.289 . S
O6 C5 1.235 . S
C7 C9 1.400 . S
C7 N10 1.351 . S
C7 C12 1.501 . S
C8 C9 1.387 . S
C8 N11 1.341 . S
C9 C7 1.400 . S
C9 C8 1.387 . S
N10 Co1 2.022 . S
N10 C7 1.351 . S
N10 N11 1.365 . S
N11 C8 1.341 . S
N11 N10 1.365 . S
N11 H31 0.862 . S
C12 C7 1.501 . S
C12 H13 0.961 . S
C12 H14 0.961 . S
C12 H15 0.960 . S
H13 C12 0.961 . S
H14 C12 0.961 . S
H15 C12 0.960 . S
C16 N17 1.342 . S
C16 C20 1.401 . S
C16 C21 1.499 . S
N17 Co0 1.989 . S
N17 C16 1.342 . S
N17 N18 1.388 . S
N18 Co1 1.993 . S
N18 N17 1.388 . S
N18 C19 1.346 . S
C19 N18 1.346 . S
C19 C20 1.396 . S
C19 C29 1.510 . S
C20 C16 1.401 . S
C20 C19 1.396 . S
C21 C16 1.499 . S
C21 H22 0.959 . S
C21 H23 0.960 . S
C21 H24 0.961 . S
H22 C21 0.959 . S
H23 C21 0.960 . S
H24 C21 0.961 . S
O25 Co0 1.967 . S
O25 C33 1.258 . S
O26 Co1 1.941 . S
O26 C33 1.266 . S
H27 C29 0.959 . S
H28 C29 0.961 . S
C29 C19 1.510 . S
C29 H27 0.959 . S
C29 H28 0.961 . S
C29 H30 0.960 . S
H30 C29 0.960 . S
H31 N11 0.862 . S
O32 Co0 1.920 . S
O32 C5 1.289 . S
C33 O25 1.258 . S
C33 O26 1.266 . S
Co34 O37 1.970 . S
Co34 N51 1.989 . S
Co34 O59 1.967 . S
Co34 O66 1.920 . S
Co35 O38 1.966 . S
Co35 N44 2.022 . S
Co35 N52 1.993 . S
Co35 O60 1.941 . S
C36 O37 1.258 . S
C36 O38 1.263 . S
O37 Co34 1.970 . S
O37 C36 1.258 . S
O38 Co35 1.966 . S
O38 C36 1.263 . S
C39 O40 1.235 . S
C39 O66 1.289 . S
O40 C39 1.235 . S
C41 C43 1.400 . S
C41 N44 1.351 . S
C41 C46 1.501 . S
C42 C43 1.387 . S
C42 N45 1.341 . S
C43 C41 1.400 . S
C43 C42 1.387 . S
N44 Co35 2.022 . S
N44 C41 1.351 . S
N44 N45 1.365 . S
N45 C42 1.341 . S
N45 N44 1.365 . S
N45 H65 0.862 . S
C46 C41 1.501 . S
C46 H47 0.961 . S
C46 H48 0.961 . S
C46 H49 0.960 . S
H47 C46 0.961 . S
H48 C46 0.961 . S
H49 C46 0.960 . S
C50 N51 1.342 . S
C50 C54 1.401 . S
C50 C55 1.499 . S
N51 Co34 1.989 . S
N51 C50 1.342 . S
N51 N52 1.388 . S
N52 Co35 1.993 . S
N52 N51 1.388 . S
N52 C53 1.346 . S
C53 N52 1.346 . S
C53 C54 1.396 . S
C53 C63 1.510 . S
C54 C50 1.401 . S
C54 C53 1.396 . S
C55 C50 1.499 . S
C55 H56 0.959 . S
C55 H57 0.960 . S
C55 H58 0.961 . S
H56 C55 0.959 . S
H57 C55 0.960 . S
H58 C55 0.961 . S
O59 Co34 1.967 . S
O59 C67 1.258 . S
O60 Co35 1.941 . S
O60 C67 1.266 . S
H61 C63 0.959 . S
H62 C63 0.961 . S
C63 C53 1.510 . S
C63 H61 0.959 . S
C63 H62 0.961 . S
C63 H64 0.960 . S
H64 C63 0.960 . S
H65 N45 0.862 . S
O66 Co34 1.920 . S
O66 C39 1.289 . S
C67 O59 1.258 . S
C67 O60 1.266 . S
Co68 O71 1.970 . S
Co68 N85 1.989 . S
Co68 O93 1.967 . S
Co68 O100 1.920 . S
Co69 O72 1.966 . S
Co69 N78 2.022 . S
Co69 N86 1.993 . S
Co69 O94 1.941 . S
C70 O71 1.258 . S
C70 O72 1.263 . S
O71 Co68 1.970 . S
O71 C70 1.258 . S
O72 Co69 1.966 . S
O72 C70 1.263 . S
C73 O74 1.235 . S
C73 O100 1.289 . S
O74 C73 1.235 . S
C75 C77 1.400 . S
C75 N78 1.351 . S
C75 C80 1.501 . S
C76 C77 1.387 . S
C76 N79 1.341 . S
C77 C75 1.400 . S
C77 C76 1.387 . S
N78 Co69 2.022 . S
N78 C75 1.351 . S
N78 N79 1.365 . S
N79 C76 1.341 . S
N79 N78 1.365 . S
N79 H99 0.862 . S
C80 C75 1.501 . S
C80 H81 0.961 . S
C80 H82 0.961 . S
C80 H83 0.960 . S
H81 C80 0.961 . S
H82 C80 0.961 . S
H83 C80 0.960 . S
C84 N85 1.342 . S
C84 C88 1.401 . S
C84 C89 1.499 . S
N85 Co68 1.989 . S
N85 C84 1.342 . S
N85 N86 1.388 . S
N86 Co69 1.993 . S
N86 N85 1.388 . S
N86 C87 1.346 . S
C87 N86 1.346 . S
C87 C88 1.396 . S
C87 C97 1.510 . S
C88 C84 1.401 . S
C88 C87 1.396 . S
C89 C84 1.499 . S
C89 H90 0.959 . S
C89 H91 0.960 . S
C89 H92 0.961 . S
H90 C89 0.959 . S
H91 C89 0.960 . S
H92 C89 0.961 . S
O93 Co68 1.967 . S
O93 C101 1.258 . S
O94 Co69 1.941 . S
O94 C101 1.266 . S
H95 C97 0.959 . S
H96 C97 0.961 . S
C97 C87 1.510 . S
C97 H95 0.959 . S
C97 H96 0.961 . S
C97 H98 0.960 . S
H98 C97 0.960 . S
H99 N79 0.862 . S
O100 Co68 1.920 . S
O100 C73 1.289 . S
C101 O93 1.258 . S
C101 O94 1.266 . S
Co102 O105 1.970 . S
Co102 N119 1.989 . S
Co102 O127 1.967 . S
Co102 O134 1.920 . S
Co103 O106 1.966 . S
Co103 N112 2.022 . S
Co103 N120 1.993 . S
Co103 O128 1.941 . S
C104 O105 1.258 . S
C104 O106 1.263 . S
O105 Co102 1.970 . S
O105 C104 1.258 . S
O106 Co103 1.966 . S
O106 C104 1.263 . S
C107 O108 1.235 . S
C107 O134 1.289 . S
O108 C107 1.235 . S
C109 C111 1.400 . S
C109 N112 1.351 . S
C109 C114 1.501 . S
C110 C111 1.387 . S
C110 N113 1.341 . S
C111 C109 1.400 . S
C111 C110 1.387 . S
N112 Co103 2.022 . S
N112 C109 1.351 . S
N112 N113 1.365 . S
N113 C110 1.341 . S
N113 N112 1.365 . S
N113 H133 0.862 . S
C114 C109 1.501 . S
C114 H115 0.961 . S
C114 H116 0.961 . S
C114 H117 0.960 . S
H115 C114 0.961 . S
H116 C114 0.961 . S
H117 C114 0.960 . S
C118 N119 1.342 . S
C118 C122 1.401 . S
C118 C123 1.499 . S
N119 Co102 1.989 . S
N119 C118 1.342 . S
N119 N120 1.388 . S
N120 Co103 1.993 . S
N120 N119 1.388 . S
N120 C121 1.346 . S
C121 N120 1.346 . S
C121 C122 1.396 . S
C121 C131 1.510 . S
C122 C118 1.401 . S
C122 C121 1.396 . S
C123 C118 1.499 . S
C123 H124 0.959 . S
C123 H125 0.960 . S
C123 H126 0.961 . S
H124 C123 0.959 . S
H125 C123 0.960 . S
H126 C123 0.961 . S
O127 Co102 1.967 . S
O127 C135 1.258 . S
O128 Co103 1.941 . S
O128 C135 1.266 . S
H129 C131 0.959 . S
H130 C131 0.961 . S
C131 C121 1.510 . S
C131 H129 0.959 . S
C131 H130 0.961 . S
C131 H132 0.960 . S
H132 C131 0.960 . S
H133 N113 0.862 . S
O134 Co102 1.920 . S
O134 C107 1.289 . S
C135 O127 1.258 . S
C135 O128 1.266 . S
Co136 O139 1.970 . S
Co136 N153 1.989 . S
Co136 O161 1.967 . S
Co136 O168 1.920 . S
Co137 O140 1.966 . S
Co137 N146 2.022 . S
Co137 N154 1.993 . S
Co137 O162 1.941 . S
C138 O139 1.258 . S
C138 O140 1.263 . S
O139 Co136 1.970 . S
O139 C138 1.258 . S
O140 Co137 1.966 . S
O140 C138 1.263 . S
C141 O142 1.235 . S
C141 O168 1.289 . S
O142 C141 1.235 . S
C143 C145 1.400 . S
C143 N146 1.351 . S
C143 C148 1.501 . S
C144 C145 1.387 . S
C144 N147 1.341 . S
C145 C143 1.400 . S
C145 C144 1.387 . S
N146 Co137 2.022 . S
N146 C143 1.351 . S
N146 N147 1.365 . S
N147 C144 1.341 . S
N147 N146 1.365 . S
N147 H167 0.862 . S
C148 C143 1.501 . S
C148 H149 0.961 . S
C148 H150 0.961 . S
C148 H151 0.960 . S
H149 C148 0.961 . S
H150 C148 0.961 . S
H151 C148 0.960 . S
C152 N153 1.342 . S
C152 C156 1.401 . S
C152 C157 1.499 . S
N153 Co136 1.989 . S
N153 C152 1.342 . S
N153 N154 1.388 . S
N154 Co137 1.993 . S
N154 N153 1.388 . S
N154 C155 1.346 . S
C155 N154 1.346 . S
C155 C156 1.396 . S
C155 C165 1.510 . S
C156 C152 1.401 . S
C156 C155 1.396 . S
C157 C152 1.499 . S
C157 H158 0.959 . S
C157 H159 0.960 . S
C157 H160 0.961 . S
H158 C157 0.959 . S
H159 C157 0.960 . S
H160 C157 0.961 . S
O161 Co136 1.967 . S
O161 C169 1.258 . S
O162 Co137 1.941 . S
O162 C169 1.266 . S
H163 C165 0.959 . S
H164 C165 0.961 . S
C165 C155 1.510 . S
C165 H163 0.959 . S
C165 H164 0.961 . S
C165 H166 0.960 . S
H166 C165 0.960 . S
H167 N147 0.862 . S
O168 Co136 1.920 . S
O168 C141 1.289 . S
C169 O161 1.258 . S
C169 O162 1.266 . S
Co170 O173 1.970 . S
Co170 N187 1.989 . S
Co170 O195 1.967 . S
Co170 O202 1.920 . S
Co171 O174 1.966 . S
Co171 N180 2.022 . S
Co171 N188 1.993 . S
Co171 O196 1.941 . S
C172 O173 1.258 . S
C172 O174 1.263 . S
O173 Co170 1.970 . S
O173 C172 1.258 . S
O174 Co171 1.966 . S
O174 C172 1.263 . S
C175 O176 1.235 . S
C175 O202 1.289 . S
O176 C175 1.235 . S
C177 C179 1.400 . S
C177 N180 1.351 . S
C177 C182 1.501 . S
C178 C179 1.387 . S
C178 N181 1.341 . S
C179 C177 1.400 . S
C179 C178 1.387 . S
N180 Co171 2.022 . S
N180 C177 1.351 . S
N180 N181 1.365 . S
N181 C178 1.341 . S
N181 N180 1.365 . S
N181 H201 0.862 . S
C182 C177 1.501 . S
C182 H183 0.961 . S
C182 H184 0.961 . S
C182 H185 0.960 . S
H183 C182 0.961 . S
H184 C182 0.961 . S
H185 C182 0.960 . S
C186 N187 1.342 . S
C186 C190 1.401 . S
C186 C191 1.499 . S
N187 Co170 1.989 . S
N187 C186 1.342 . S
N187 N188 1.388 . S
N188 Co171 1.993 . S
N188 N187 1.388 . S
N188 C189 1.346 . S
C189 N188 1.346 . S
C189 C190 1.396 . S
C189 C199 1.510 . S
C190 C186 1.401 . S
C190 C189 1.396 . S
C191 C186 1.499 . S
C191 H192 0.959 . S
C191 H193 0.960 . S
C191 H194 0.961 . S
H192 C191 0.959 . S
H193 C191 0.960 . S
H194 C191 0.961 . S
O195 Co170 1.967 . S
O195 C203 1.258 . S
O196 Co171 1.941 . S
O196 C203 1.266 . S
H197 C199 0.959 . S
H198 C199 0.961 . S
C199 C189 1.510 . S
C199 H197 0.959 . S
C199 H198 0.961 . S
C199 H200 0.960 . S
H200 C199 0.960 . S
H201 N181 0.862 . S
O202 Co170 1.920 . S
O202 C175 1.289 . S
C203 O195 1.258 . S
C203 O196 1.266 . S
Co204 O207 1.970 . S
Co204 N221 1.989 . S
Co204 O229 1.967 . S
Co204 O236 1.920 . S
Co205 O208 1.966 . S
Co205 N214 2.022 . S
Co205 N222 1.993 . S
Co205 O230 1.941 . S
C206 O207 1.258 . S
C206 O208 1.263 . S
O207 Co204 1.970 . S
O207 C206 1.258 . S
O208 Co205 1.966 . S
O208 C206 1.263 . S
C209 O210 1.235 . S
C209 O236 1.289 . S
O210 C209 1.235 . S
C211 C213 1.400 . S
C211 N214 1.351 . S
C211 C216 1.501 . S
C212 C213 1.387 . S
C212 N215 1.341 . S
C213 C211 1.400 . S
C213 C212 1.387 . S
N214 Co205 2.022 . S
N214 C211 1.351 . S
N214 N215 1.365 . S
N215 C212 1.341 . S
N215 N214 1.365 . S
N215 H235 0.862 . S
C216 C211 1.501 . S
C216 H217 0.961 . S
C216 H218 0.961 . S
C216 H219 0.960 . S
H217 C216 0.961 . S
H218 C216 0.961 . S
H219 C216 0.960 . S
C220 N221 1.342 . S
C220 C224 1.401 . S
C220 C225 1.499 . S
N221 Co204 1.989 . S
N221 C220 1.342 . S
N221 N222 1.388 . S
N222 Co205 1.993 . S
N222 N221 1.388 . S
N222 C223 1.346 . S
C223 N222 1.346 . S
C223 C224 1.396 . S
C223 C233 1.510 . S
C224 C220 1.401 . S
C224 C223 1.396 . S
C225 C220 1.499 . S
C225 H226 0.959 . S
C225 H227 0.960 . S
C225 H228 0.961 . S
H226 C225 0.959 . S
H227 C225 0.960 . S
H228 C225 0.961 . S
O229 Co204 1.967 . S
O229 C237 1.258 . S
O230 Co205 1.941 . S
O230 C237 1.266 . S
H231 C233 0.959 . S
H232 C233 0.961 . S
C233 C223 1.510 . S
C233 H231 0.959 . S
C233 H232 0.961 . S
C233 H234 0.960 . S
H234 C233 0.960 . S
H235 N215 0.862 . S
O236 Co204 1.920 . S
O236 C209 1.289 . S
C237 O229 1.258 . S
C237 O230 1.266 . S
Co238 O241 1.970 . S
Co238 N255 1.989 . S
Co238 O263 1.967 . S
Co238 O270 1.920 . S
Co239 O242 1.966 . S
Co239 N248 2.022 . S
Co239 N256 1.993 . S
Co239 O264 1.941 . S
C240 O241 1.258 . S
C240 O242 1.263 . S
O241 Co238 1.970 . S
O241 C240 1.258 . S
O242 Co239 1.966 . S
O242 C240 1.263 . S
C243 O244 1.235 . S
C243 O270 1.289 . S
O244 C243 1.235 . S
C245 C247 1.400 . S
C245 N248 1.351 . S
C245 C250 1.501 . S
C246 C247 1.387 . S
C246 N249 1.341 . S
C247 C245 1.400 . S
C247 C246 1.387 . S
N248 Co239 2.022 . S
N248 C245 1.351 . S
N248 N249 1.365 . S
N249 C246 1.341 . S
N249 N248 1.365 . S
N249 H269 0.862 . S
C250 C245 1.501 . S
C250 H251 0.961 . S
C250 H252 0.961 . S
C250 H253 0.960 . S
H251 C250 0.961 . S
H252 C250 0.961 . S
H253 C250 0.960 . S
C254 N255 1.342 . S
C254 C258 1.401 . S
C254 C259 1.499 . S
N255 Co238 1.989 . S
N255 C254 1.342 . S
N255 N256 1.388 . S
N256 Co239 1.993 . S
N256 N255 1.388 . S
N256 C257 1.346 . S
C257 N256 1.346 . S
C257 C258 1.396 . S
C257 C267 1.510 . S
C258 C254 1.401 . S
C258 C257 1.396 . S
C259 C254 1.499 . S
C259 H260 0.959 . S
C259 H261 0.960 . S
C259 H262 0.961 . S
H260 C259 0.959 . S
H261 C259 0.960 . S
H262 C259 0.961 . S
O263 Co238 1.967 . S
O263 C271 1.258 . S
O264 Co239 1.941 . S
O264 C271 1.266 . S
H265 C267 0.959 . S
H266 C267 0.961 . S
C267 C257 1.510 . S
C267 H265 0.959 . S
C267 H266 0.961 . S
C267 H268 0.960 . S
H268 C267 0.960 . S
H269 N249 0.862 . S
O270 Co238 1.920 . S
O270 C243 1.289 . S
C271 O263 1.258 . S
C271 O264 1.266 . S
Co272 O275 1.970 . S
Co272 N289 1.989 . S
Co272 O297 1.967 . S
Co272 O304 1.920 . S
Co273 O276 1.966 . S
Co273 N282 2.022 . S
Co273 N290 1.993 . S
Co273 O298 1.941 . S
C274 O275 1.258 . S
C274 O276 1.263 . S
O275 Co272 1.970 . S
O275 C274 1.258 . S
O276 Co273 1.966 . S
O276 C274 1.263 . S
C277 O278 1.235 . S
C277 O304 1.289 . S
O278 C277 1.235 . S
C279 C281 1.400 . S
C279 N282 1.351 . S
C279 C284 1.501 . S
C280 C281 1.387 . S
C280 N283 1.341 . S
C281 C279 1.400 . S
C281 C280 1.387 . S
N282 Co273 2.022 . S
N282 C279 1.351 . S
N282 N283 1.365 . S
N283 C280 1.341 . S
N283 N282 1.365 . S
N283 H303 0.862 . S
C284 C279 1.501 . S
C284 H285 0.961 . S
C284 H286 0.961 . S
C284 H287 0.960 . S
H285 C284 0.961 . S
H286 C284 0.961 . S
H287 C284 0.960 . S
C288 N289 1.342 . S
C288 C292 1.401 . S
C288 C293 1.499 . S
N289 Co272 1.989 . S
N289 C288 1.342 . S
N289 N290 1.388 . S
N290 Co273 1.993 . S
N290 N289 1.388 . S
N290 C291 1.346 . S
C291 N290 1.346 . S
C291 C292 1.396 . S
C291 C301 1.510 . S
C292 C288 1.401 . S
C292 C291 1.396 . S
C293 C288 1.499 . S
C293 H294 0.959 . S
C293 H295 0.960 . S
C293 H296 0.961 . S
H294 C293 0.959 . S
H295 C293 0.960 . S
H296 C293 0.961 . S
O297 Co272 1.967 . S
O297 C305 1.258 . S
O298 Co273 1.941 . S
O298 C305 1.266 . S
H299 C301 0.959 . S
H300 C301 0.961 . S
C301 C291 1.510 . S
C301 H299 0.959 . S
C301 H300 0.961 . S
C301 H302 0.960 . S
H302 C301 0.960 . S
H303 N283 0.862 . S
O304 Co272 1.920 . S
O304 C277 1.289 . S
C305 O297 1.258 . S
C305 O298 1.266 . S
Co306 O309 1.970 . S
Co306 N323 1.989 . S
Co306 O331 1.967 . S
Co306 O338 1.920 . S
Co307 O310 1.966 . S
Co307 N316 2.022 . S
Co307 N324 1.993 . S
Co307 O332 1.941 . S
C308 O309 1.258 . S
C308 O310 1.263 . S
O309 Co306 1.970 . S
O309 C308 1.258 . S
O310 Co307 1.966 . S
O310 C308 1.263 . S
C311 O312 1.235 . S
C311 O338 1.289 . S
O312 C311 1.235 . S
C313 C315 1.400 . S
C313 N316 1.351 . S
C313 C318 1.501 . S
C314 C315 1.387 . S
C314 N317 1.341 . S
C315 C313 1.400 . S
C315 C314 1.387 . S
N316 Co307 2.022 . S
N316 C313 1.351 . S
N316 N317 1.365 . S
N317 C314 1.341 . S
N317 N316 1.365 . S
N317 H337 0.862 . S
C318 C313 1.501 . S
C318 H319 0.961 . S
C318 H320 0.961 . S
C318 H321 0.960 . S
H319 C318 0.961 . S
H320 C318 0.961 . S
H321 C318 0.960 . S
C322 N323 1.342 . S
C322 C326 1.401 . S
C322 C327 1.499 . S
N323 Co306 1.989 . S
N323 C322 1.342 . S
N323 N324 1.388 . S
N324 Co307 1.993 . S
N324 N323 1.388 . S
N324 C325 1.346 . S
C325 N324 1.346 . S
C325 C326 1.396 . S
C325 C335 1.510 . S
C326 C322 1.401 . S
C326 C325 1.396 . S
C327 C322 1.499 . S
C327 H328 0.959 . S
C327 H329 0.960 . S
C327 H330 0.961 . S
H328 C327 0.959 . S
H329 C327 0.960 . S
H330 C327 0.961 . S
O331 Co306 1.967 . S
O331 C339 1.258 . S
O332 Co307 1.941 . S
O332 C339 1.266 . S
H333 C335 0.959 . S
H334 C335 0.961 . S
C335 C325 1.510 . S
C335 H333 0.959 . S
C335 H334 0.961 . S
C335 H336 0.960 . S
H336 C335 0.960 . S
H337 N317 0.862 . S
O338 Co306 1.920 . S
O338 C311 1.289 . S
C339 O331 1.258 . S
C339 O332 1.266 . S
Co340 O343 1.970 . S
Co340 N357 1.989 . S
Co340 O365 1.967 . S
Co340 O372 1.920 . S
Co341 O344 1.966 . S
Co341 N350 2.022 . S
Co341 N358 1.993 . S
Co341 O366 1.941 . S
C342 O343 1.258 . S
C342 O344 1.263 . S
O343 Co340 1.970 . S
O343 C342 1.258 . S
O344 Co341 1.966 . S
O344 C342 1.263 . S
C345 O346 1.235 . S
C345 O372 1.289 . S
O346 C345 1.235 . S
C347 C349 1.400 . S
C347 N350 1.351 . S
C347 C352 1.501 . S
C348 C349 1.387 . S
C348 N351 1.341 . S
C349 C347 1.400 . S
C349 C348 1.387 . S
N350 Co341 2.022 . S
N350 C347 1.351 . S
N350 N351 1.365 . S
N351 C348 1.341 . S
N351 N350 1.365 . S
N351 H371 0.862 . S
C352 C347 1.501 . S
C352 H353 0.961 . S
C352 H354 0.961 . S
C352 H355 0.960 . S
H353 C352 0.961 . S
H354 C352 0.961 . S
H355 C352 0.960 . S
C356 N357 1.342 . S
C356 C360 1.401 . S
C356 C361 1.499 . S
N357 Co340 1.989 . S
N357 C356 1.342 . S
N357 N358 1.388 . S
N358 Co341 1.993 . S
N358 N357 1.388 . S
N358 C359 1.346 . S
C359 N358 1.346 . S
C359 C360 1.396 . S
C359 C369 1.510 . S
C360 C356 1.401 . S
C360 C359 1.396 . S
C361 C356 1.499 . S
C361 H362 0.959 . S
C361 H363 0.960 . S
C361 H364 0.961 . S
H362 C361 0.959 . S
H363 C361 0.960 . S
H364 C361 0.961 . S
O365 Co340 1.967 . S
O365 C373 1.258 . S
O366 Co341 1.941 . S
O366 C373 1.266 . S
H367 C369 0.959 . S
H368 C369 0.961 . S
C369 C359 1.510 . S
C369 H367 0.959 . S
C369 H368 0.961 . S
C369 H370 0.960 . S
H370 C369 0.960 . S
H371 N351 0.862 . S
O372 Co340 1.920 . S
O372 C345 1.289 . S
C373 O365 1.258 . S
C373 O366 1.266 . S
Co374 O377 1.970 . S
Co374 N391 1.989 . S
Co374 O399 1.967 . S
Co374 O406 1.920 . S
Co375 O378 1.966 . S
Co375 N384 2.022 . S
Co375 N392 1.993 . S
Co375 O400 1.941 . S
C376 O377 1.258 . S
C376 O378 1.263 . S
O377 Co374 1.970 . S
O377 C376 1.258 . S
O378 Co375 1.966 . S
O378 C376 1.263 . S
C379 O380 1.235 . S
C379 O406 1.289 . S
O380 C379 1.235 . S
C381 C383 1.400 . S
C381 N384 1.351 . S
C381 C386 1.501 . S
C382 C383 1.387 . S
C382 N385 1.341 . S
C383 C381 1.400 . S
C383 C382 1.387 . S
N384 Co375 2.022 . S
N384 C381 1.351 . S
N384 N385 1.365 . S
N385 C382 1.341 . S
N385 N384 1.365 . S
N385 H405 0.862 . S
C386 C381 1.501 . S
C386 H387 0.961 . S
C386 H388 0.961 . S
C386 H389 0.960 . S
H387 C386 0.961 . S
H388 C386 0.961 . S
H389 C386 0.960 . S
C390 N391 1.342 . S
C390 C394 1.401 . S
C390 C395 1.499 . S
N391 Co374 1.989 . S
N391 C390 1.342 . S
N391 N392 1.388 . S
N392 Co375 1.993 . S
N392 N391 1.388 . S
N392 C393 1.346 . S
C393 N392 1.346 . S
C393 C394 1.396 . S
C393 C403 1.510 . S
C394 C390 1.401 . S
C394 C393 1.396 . S
C395 C390 1.499 . S
C395 H396 0.959 . S
C395 H397 0.960 . S
C395 H398 0.961 . S
H396 C395 0.959 . S
H397 C395 0.960 . S
H398 C395 0.961 . S
O399 Co374 1.967 . S
O399 C407 1.258 . S
O400 Co375 1.941 . S
O400 C407 1.266 . S
H401 C403 0.959 . S
H402 C403 0.961 . S
C403 C393 1.510 . S
C403 H401 0.959 . S
C403 H402 0.961 . S
C403 H404 0.960 . S
H404 C403 0.960 . S
H405 N385 0.862 . S
O406 Co374 1.920 . S
O406 C379 1.289 . S
C407 O399 1.258 . S
C407 O400 1.266 . S
C408 C409 1.349 . S
C408 C410 1.327 . S
C408 H433 0.950 . S
C409 C408 1.349 . S
C409 C425 1.349 . S
C410 C408 1.327 . S
C410 C429 1.429 . S
C410 H434 0.950 . S
C411 C428 1.574 . S
C411 C430 1.368 . S
C411 H435 0.949 . S
H412 C416 0.949 . S
C413 C414 1.349 . S
C413 C415 1.327 . S
C413 H436 0.950 . S
C414 C413 1.349 . S
C414 C426 1.349 . S
C415 C413 1.327 . S
C415 C431 1.429 . S
C415 H437 0.950 . S
C416 H412 0.949 . S
C416 C424 1.574 . S
C416 C432 1.368 . S
H417 C425 0.950 . S
H418 C423 0.950 . S
H419 C424 0.949 . S
H420 C426 0.950 . S
H421 C427 0.950 . S
H422 C428 0.949 . S
C423 H418 0.950 . S
C423 C425 1.327 . S
C423 C429 1.429 . S
C424 C416 1.574 . S
C424 H419 0.949 . S
C424 C430 1.368 . S
C425 C409 1.349 . S
C425 H417 0.950 . S
C425 C423 1.327 . S
C426 C414 1.349 . S
C426 H420 0.950 . S
C426 C427 1.327 . S
C427 H421 0.950 . S
C427 C426 1.327 . S
C427 C431 1.429 . S
C428 C411 1.574 . S
C428 H422 0.949 . S
C428 C432 1.368 . S
C429 C410 1.429 . S
C429 C423 1.429 . S
C429 C430 1.523 . S
C430 C411 1.368 . S
C430 C424 1.368 . S
C430 C429 1.523 . S
C431 C415 1.429 . S
C431 C427 1.429 . S
C431 C432 1.523 . S
C432 C416 1.368 . S
C432 C428 1.368 . S
C432 C431 1.523 . S
H433 C408 0.950 . S
H434 C410 0.950 . S
H435 C411 0.949 . S
H436 C413 0.950 . S
H437 C415 0.950 . S
C438 C439 1.349 . S
C438 C440 1.327 . S
C438 H463 0.950 . S
C439 C438 1.349 . S
C439 C455 1.349 . S
C440 C438 1.327 . S
C440 C459 1.429 . S
C440 H464 0.950 . S
C441 C458 1.574 1_655 S
C441 C460 1.368 . S
C441 H465 0.949 . S
H442 C446 0.949 . S
C443 C444 1.349 . S
C443 C445 1.327 . S
C443 H466 0.950 . S
C444 C443 1.349 . S
C444 C456 1.349 . S
C445 C443 1.327 . S
C445 C461 1.429 . S
C445 H467 0.950 . S
C446 H442 0.949 . S
C446 C454 1.574 1_455 S
C446 C462 1.368 . S
H447 C455 0.950 . S
H448 C453 0.950 . S
H449 C454 0.949 . S
H450 C456 0.950 . S
H451 C457 0.950 . S
H452 C458 0.949 . S
C453 H448 0.950 . S
C453 C455 1.327 . S
C453 C459 1.429 . S
C454 C446 1.574 1_655 S
C454 H449 0.949 . S
C454 C460 1.368 . S
C455 C439 1.349 . S
C455 H447 0.950 . S
C455 C453 1.327 . S
C456 C444 1.349 . S
C456 H450 0.950 . S
C456 C457 1.327 . S
C457 H451 0.950 . S
C457 C456 1.327 . S
C457 C461 1.429 . S
C458 C441 1.574 1_455 S
C458 H452 0.949 . S
C458 C462 1.368 . S
C459 C440 1.429 . S
C459 C453 1.429 . S
C459 C460 1.523 . S
C460 C441 1.368 . S
C460 C454 1.368 . S
C460 C459 1.523 . S
C461 C445 1.429 . S
C461 C457 1.429 . S
C461 C462 1.523 . S
C462 C446 1.368 . S
C462 C458 1.368 . S
C462 C461 1.523 . S
H463 C438 0.950 . S
H464 C440 0.950 . S
H465 C441 0.949 . S
H466 C443 0.950 . S
H467 C445 0.950 . S
C468 C469 1.349 . S
C468 C470 1.327 . S
C468 H493 0.950 . S
C469 C468 1.349 . S
C469 C485 1.349 . S
C470 C468 1.327 . S
C470 C489 1.429 . S
C470 H494 0.950 . S
C471 C488 1.574 1_545 S
C471 C490 1.368 . S
C471 H495 0.949 . S
H472 C476 0.949 . S
C473 C474 1.349 . S
C473 C475 1.327 . S
C473 H496 0.950 . S
C474 C473 1.349 . S
C474 C486 1.349 . S
C475 C473 1.327 . S
C475 C491 1.429 . S
C475 H497 0.950 . S
C476 H472 0.949 . S
C476 C484 1.574 1_565 S
C476 C492 1.368 . S
H477 C485 0.950 . S
H478 C483 0.950 . S
H479 C484 0.949 . S
H480 C486 0.950 . S
H481 C487 0.950 . S
H482 C488 0.949 . S
C483 H478 0.950 . S
C483 C485 1.327 . S
C483 C489 1.429 . S
C484 C476 1.574 1_545 S
C484 H479 0.949 . S
C484 C490 1.368 . S
C485 C469 1.349 . S
C485 H477 0.950 . S
C485 C483 1.327 . S
C486 C474 1.349 . S
C486 H480 0.950 . S
C486 C487 1.327 . S
C487 H481 0.950 . S
C487 C486 1.327 . S
C487 C491 1.429 . S
C488 C471 1.574 1_565 S
C488 H482 0.949 . S
C488 C492 1.368 . S
C489 C470 1.429 . S
C489 C483 1.429 . S
C489 C490 1.523 . S
C490 C471 1.368 . S
C490 C484 1.368 . S
C490 C489 1.523 . S
C491 C475 1.429 . S
C491 C487 1.429 . S
C491 C492 1.523 . S
C492 C476 1.368 . S
C492 C488 1.368 . S
C492 C491 1.523 . S
H493 C468 0.950 . S
H494 C470 0.950 . S
H495 C471 0.949 . S
H496 C473 0.950 . S
H497 C475 0.950 . S
C498 C499 1.349 . S
C498 C500 1.327 . S
C498 H523 0.950 . S
C499 C498 1.349 . S
C499 C515 1.349 . S
C500 C498 1.327 . S
C500 C519 1.429 . S
C500 H524 0.950 . S
C501 C518 1.574 . S
C501 C520 1.368 . S
C501 H525 0.949 . S
H502 C506 0.949 . S
C503 C504 1.349 . S
C503 C505 1.327 . S
C503 H526 0.950 . S
C504 C503 1.349 . S
C504 C516 1.349 . S
C505 C503 1.327 . S
C505 C521 1.429 . S
C505 H527 0.950 . S
C506 H502 0.949 . S
C506 C514 1.574 . S
C506 C522 1.368 . S
H507 C515 0.950 . S
H508 C513 0.950 . S
H509 C514 0.949 . S
H510 C516 0.950 . S
H511 C517 0.950 . S
H512 C518 0.949 . S
C513 H508 0.950 . S
C513 C515 1.327 . S
C513 C519 1.429 . S
C514 C506 1.574 . S
C514 H509 0.949 . S
C514 C520 1.368 . S
C515 C499 1.349 . S
C515 H507 0.950 . S
C515 C513 1.327 . S
C516 C504 1.349 . S
C516 H510 0.950 . S
C516 C517 1.327 . S
C517 H511 0.950 . S
C517 C516 1.327 . S
C517 C521 1.429 . S
C518 C501 1.574 . S
C518 H512 0.949 . S
C518 C522 1.368 . S
C519 C500 1.429 . S
C519 C513 1.429 . S
C519 C520 1.523 . S
C520 C501 1.368 . S
C520 C514 1.368 . S
C520 C519 1.523 . S
C521 C505 1.429 . S
C521 C517 1.429 . S
C521 C522 1.523 . S
C522 C506 1.368 . S
C522 C518 1.368 . S
C522 C521 1.523 . S
H523 C498 0.950 . S
H524 C500 0.950 . S
H525 C501 0.949 . S
H526 C503 0.950 . S
H527 C505 0.950 . S
C528 C529 1.349 . S
C528 C530 1.327 . S
C528 H553 0.950 . S
C529 C528 1.349 . S
C529 C545 1.349 . S
C530 C528 1.327 . S
C530 C549 1.429 . S
C530 H554 0.950 . S
C531 C548 1.574 1_455 S
C531 C550 1.368 . S
C531 H555 0.949 . S
H532 C536 0.949 . S
C533 C534 1.349 . S
C533 C535 1.327 . S
C533 H556 0.950 . S
C534 C533 1.349 . S
C534 C546 1.349 . S
C535 C533 1.327 . S
C535 C551 1.429 . S
C535 H557 0.950 . S
C536 H532 0.949 . S
C536 C544 1.574 1_655 S
C536 C552 1.368 . S
H537 C545 0.950 . S
H538 C543 0.950 . S
H539 C544 0.949 . S
H540 C546 0.950 . S
H541 C547 0.950 . S
H542 C548 0.949 . S
C543 H538 0.950 . S
C543 C545 1.327 . S
C543 C549 1.429 . S
C544 C536 1.574 1_455 S
C544 H539 0.949 . S
C544 C550 1.368 . S
C545 C529 1.349 . S
C545 H537 0.950 . S
C545 C543 1.327 . S
C546 C534 1.349 . S
C546 H540 0.950 . S
C546 C547 1.327 . S
C547 H541 0.950 . S
C547 C546 1.327 . S
C547 C551 1.429 . S
C548 C531 1.574 1_655 S
C548 H542 0.949 . S
C548 C552 1.368 . S
C549 C530 1.429 . S
C549 C543 1.429 . S
C549 C550 1.523 . S
C550 C531 1.368 . S
C550 C544 1.368 . S
C550 C549 1.523 . S
C551 C535 1.429 . S
C551 C547 1.429 . S
C551 C552 1.523 . S
C552 C536 1.368 . S
C552 C548 1.368 . S
C552 C551 1.523 . S
H553 C528 0.950 . S
H554 C530 0.950 . S
H555 C531 0.949 . S
H556 C533 0.950 . S
H557 C535 0.950 . S
C558 C559 1.349 . S
C558 C560 1.327 . S
C558 H583 0.950 . S
C559 C558 1.349 . S
C559 C575 1.349 . S
C560 C558 1.327 . S
C560 C579 1.429 . S
C560 H584 0.950 . S
C561 C578 1.574 1_565 S
C561 C580 1.368 . S
C561 H585 0.949 . S
H562 C566 0.949 . S
C563 C564 1.349 . S
C563 C565 1.327 . S
C563 H586 0.950 . S
C564 C563 1.349 . S
C564 C576 1.349 . S
C565 C563 1.327 . S
C565 C581 1.429 . S
C565 H587 0.950 . S
C566 H562 0.949 . S
C566 C574 1.574 1_545 S
C566 C582 1.368 . S
H567 C575 0.950 . S
H568 C573 0.950 . S
H569 C574 0.949 . S
H570 C576 0.950 . S
H571 C577 0.950 . S
H572 C578 0.949 . S
C573 H568 0.950 . S
C573 C575 1.327 . S
C573 C579 1.429 . S
C574 C566 1.574 1_565 S
C574 H569 0.949 . S
C574 C580 1.368 . S
C575 C559 1.349 . S
C575 H567 0.950 . S
C575 C573 1.327 . S
C576 C564 1.349 . S
C576 H570 0.950 . S
C576 C577 1.327 . S
C577 H571 0.950 . S
C577 C576 1.327 . S
C577 C581 1.429 . S
C578 C561 1.574 1_545 S
C578 H572 0.949 . S
C578 C582 1.368 . S
C579 C560 1.429 . S
C579 C573 1.429 . S
C579 C580 1.523 . S
C580 C561 1.368 . S
C580 C574 1.368 . S
C580 C579 1.523 . S
C581 C565 1.429 . S
C581 C577 1.429 . S
C581 C582 1.523 . S
C582 C566 1.368 . S
C582 C578 1.368 . S
C582 C581 1.523 . S
H583 C558 0.950 . S
H584 C560 0.950 . S
H585 C561 0.949 . S
H586 C563 0.950 . S
H587 C565 0.950 . S
C588 C589 1.349 . S
C588 C590 1.327 . S
C588 H613 0.950 . S
C589 C588 1.349 . S
C589 C605 1.349 . S
C590 C588 1.327 . S
C590 C609 1.429 . S
C590 H614 0.950 . S
C591 C608 1.574 1_556 S
C591 C610 1.368 . S
C591 H615 0.949 . S
H592 C596 0.949 . S
C593 C594 1.349 . S
C593 C595 1.327 . S
C593 H616 0.950 . S
C594 C593 1.349 . S
C594 C606 1.349 . S
C595 C593 1.327 . S
C595 C611 1.429 . S
C595 H617 0.950 . S
C596 H592 0.949 . S
C596 C604 1.574 1_554 S
C596 C612 1.368 . S
H597 C605 0.950 . S
H598 C603 0.950 . S
H599 C604 0.949 . S
H600 C606 0.950 . S
H601 C607 0.950 . S
H602 C608 0.949 . S
C603 H598 0.950 . S
C603 C605 1.327 . S
C603 C609 1.429 . S
C604 C596 1.574 1_556 S
C604 H599 0.949 . S
C604 C610 1.368 . S
C605 C589 1.349 . S
C605 H597 0.950 . S
C605 C603 1.327 . S
C606 C594 1.349 . S
C606 H600 0.950 . S
C606 C607 1.327 . S
C607 H601 0.950 . S
C607 C606 1.327 . S
C607 C611 1.429 . S
C608 C591 1.574 1_554 S
C608 H602 0.949 . S
C608 C612 1.368 . S
C609 C590 1.429 . S
C609 C603 1.429 . S
C609 C610 1.523 . S
C610 C591 1.368 . S
C610 C604 1.368 . S
C610 C609 1.523 . S
C611 C595 1.429 . S
C611 C607 1.429 . S
C611 C612 1.523 . S
C612 C596 1.368 . S
C612 C608 1.368 . S
C612 C611 1.523 . S
H613 C588 0.950 . S
H614 C590 0.950 . S
H615 C591 0.949 . S
H616 C593 0.950 . S
H617 C595 0.950 . S
C618 C619 1.349 . S
C618 C620 1.327 . S
C618 H643 0.950 . S
C619 C618 1.349 . S
C619 C635 1.349 . S
C620 C618 1.327 . S
C620 C639 1.429 . S
C620 H644 0.950 . S
C621 C638 1.574 . S
C621 C640 1.368 . S
C621 H645 0.949 . S
H622 C626 0.949 . S
C623 C624 1.349 . S
C623 C625 1.327 . S
C623 H646 0.950 . S
C624 C623 1.349 . S
C624 C636 1.349 . S
C625 C623 1.327 . S
C625 C641 1.429 . S
C625 H647 0.950 . S
C626 H622 0.949 . S
C626 C634 1.574 . S
C626 C642 1.368 . S
H627 C635 0.950 . S
H628 C633 0.950 . S
H629 C634 0.949 . S
H630 C636 0.950 . S
H631 C637 0.950 . S
H632 C638 0.949 . S
C633 H628 0.950 . S
C633 C635 1.327 . S
C633 C639 1.429 . S
C634 C626 1.574 . S
C634 H629 0.949 . S
C634 C640 1.368 . S
C635 C619 1.349 . S
C635 H627 0.950 . S
C635 C633 1.327 . S
C636 C624 1.349 . S
C636 H630 0.950 . S
C636 C637 1.327 . S
C637 H631 0.950 . S
C637 C636 1.327 . S
C637 C641 1.429 . S
C638 C621 1.574 . S
C638 H632 0.949 . S
C638 C642 1.368 . S
C639 C620 1.429 . S
C639 C633 1.429 . S
C639 C640 1.523 . S
C640 C621 1.368 . S
C640 C634 1.368 . S
C640 C639 1.523 . S
C641 C625 1.429 . S
C641 C637 1.429 . S
C641 C642 1.523 . S
C642 C626 1.368 . S
C642 C638 1.368 . S
C642 C641 1.523 . S
H643 C618 0.950 . S
H644 C620 0.950 . S
H645 C621 0.949 . S
H646 C623 0.950 . S
H647 C625 0.950 . S
C648 C649 1.349 . S
C648 C650 1.327 . S
C648 H673 0.950 . S
C649 C648 1.349 . S
C649 C665 1.349 . S
C650 C648 1.327 . S
C650 C669 1.429 . S
C650 H674 0.950 . S
C651 C668 1.574 1_554 S
C651 C670 1.368 . S
C651 H675 0.949 . S
H652 C656 0.949 . S
C653 C654 1.349 . S
C653 C655 1.327 . S
C653 H676 0.950 . S
C654 C653 1.349 . S
C654 C666 1.349 . S
C655 C653 1.327 . S
C655 C671 1.429 . S
C655 H677 0.950 . S
C656 H652 0.949 . S
C656 C664 1.574 1_556 S
C656 C672 1.368 . S
H657 C665 0.950 . S
H658 C663 0.950 . S
H659 C664 0.949 . S
H660 C666 0.950 . S
H661 C667 0.950 . S
H662 C668 0.949 . S
C663 H658 0.950 . S
C663 C665 1.327 . S
C663 C669 1.429 . S
C664 C656 1.574 1_554 S
C664 H659 0.949 . S
C664 C670 1.368 . S
C665 C649 1.349 . S
C665 H657 0.950 . S
C665 C663 1.327 . S
C666 C654 1.349 . S
C666 H660 0.950 . S
C666 C667 1.327 . S
C667 H661 0.950 . S
C667 C666 1.327 . S
C667 C671 1.429 . S
C668 C651 1.574 1_556 S
C668 H662 0.949 . S
C668 C672 1.368 . S
C669 C650 1.429 . S
C669 C663 1.429 . S
C669 C670 1.523 . S
C670 C651 1.368 . S
C670 C664 1.368 . S
C670 C669 1.523 . S
C671 C655 1.429 . S
C671 C667 1.429 . S
C671 C672 1.523 . S
C672 C656 1.368 . S
C672 C668 1.368 . S
C672 C671 1.523 . S
H673 C648 0.950 . S
H674 C650 0.950 . S
H675 C651 0.949 . S
H676 C653 0.950 . S
H677 C655 0.950 . S
C678 C679 1.349 . S
C678 C680 1.327 . S
C678 H703 0.950 . S
C679 C678 1.349 . S
C679 C695 1.349 . S
C680 C678 1.327 . S
C680 C699 1.429 . S
C680 H704 0.950 . S
C681 C698 1.574 . S
C681 C700 1.368 . S
C681 H705 0.949 . S
H682 C686 0.949 . S
C683 C684 1.349 . S
C683 C685 1.327 . S
C683 H706 0.950 . S
C684 C683 1.349 . S
C684 C696 1.349 . S
C685 C683 1.327 . S
C685 C701 1.429 . S
C685 H707 0.950 . S
C686 H682 0.949 . S
C686 C694 1.574 . S
C686 C702 1.368 . S
H687 C695 0.950 . S
H688 C693 0.950 . S
H689 C694 0.949 . S
H690 C696 0.950 . S
H691 C697 0.950 . S
H692 C698 0.949 . S
C693 H688 0.950 . S
C693 C695 1.327 . S
C693 C699 1.429 . S
C694 C686 1.574 . S
C694 H689 0.949 . S
C694 C700 1.368 . S
C695 C679 1.349 . S
C695 H687 0.950 . S
C695 C693 1.327 . S
C696 C684 1.349 . S
C696 H690 0.950 . S
C696 C697 1.327 . S
C697 H691 0.950 . S
C697 C696 1.327 . S
C697 C701 1.429 . S
C698 C681 1.574 . S
C698 H692 0.949 . S
C698 C702 1.368 . S
C699 C680 1.429 . S
C699 C693 1.429 . S
C699 C700 1.523 . S
C700 C681 1.368 . S
C700 C694 1.368 . S
C700 C699 1.523 . S
C701 C685 1.429 . S
C701 C697 1.429 . S
C701 C702 1.523 . S
C702 C686 1.368 . S
C702 C698 1.368 . S
C702 C701 1.523 . S
H703 C678 0.950 . S
H704 C680 0.950 . S
H705 C681 0.949 . S
H706 C683 0.950 . S
H707 C685 0.950 . S
C708 C709 1.349 . S
C708 C710 1.327 . S
C708 H733 0.950 . S
C709 C708 1.349 . S
C709 C725 1.349 . S
C710 C708 1.327 . S
C710 C729 1.429 . S
C710 H734 0.950 . S
C711 C728 1.574 1_556 S
C711 C730 1.368 . S
C711 H735 0.949 . S
H712 C716 0.949 . S
C713 C714 1.349 . S
C713 C715 1.327 . S
C713 H736 0.950 . S
C714 C713 1.349 . S
C714 C726 1.349 . S
C715 C713 1.327 . S
C715 C731 1.429 . S
C715 H737 0.950 . S
C716 H712 0.949 . S
C716 C724 1.574 1_554 S
C716 C732 1.368 . S
H717 C725 0.950 . S
H718 C723 0.950 . S
H719 C724 0.949 . S
H720 C726 0.950 . S
H721 C727 0.950 . S
H722 C728 0.949 . S
C723 H718 0.950 . S
C723 C725 1.327 . S
C723 C729 1.429 . S
C724 C716 1.574 1_556 S
C724 H719 0.949 . S
C724 C730 1.368 . S
C725 C709 1.349 . S
C725 H717 0.950 . S
C725 C723 1.327 . S
C726 C714 1.349 . S
C726 H720 0.950 . S
C726 C727 1.327 . S
C727 H721 0.950 . S
C727 C726 1.327 . S
C727 C731 1.429 . S
C728 C711 1.574 1_554 S
C728 H722 0.949 . S
C728 C732 1.368 . S
C729 C710 1.429 . S
C729 C723 1.429 . S
C729 C730 1.523 . S
C730 C711 1.368 . S
C730 C724 1.368 . S
C730 C729 1.523 . S
C731 C715 1.429 . S
C731 C727 1.429 . S
C731 C732 1.523 . S
C732 C716 1.368 . S
C732 C728 1.368 . S
C732 C731 1.523 . S
H733 C708 0.950 . S
H734 C710 0.950 . S
H735 C711 0.949 . S
H736 C713 0.950 . S
H737 C715 0.950 . S
C738 C739 1.349 . S
C738 C740 1.327 . S
C738 H763 0.950 . S
C739 C738 1.349 . S
C739 C755 1.349 . S
C740 C738 1.327 . S
C740 C759 1.429 . S
C740 H764 0.950 . S
C741 C758 1.574 . S
C741 C760 1.368 . S
C741 H765 0.949 . S
H742 C746 0.949 . S
C743 C744 1.349 . S
C743 C745 1.327 . S
C743 H766 0.950 . S
C744 C743 1.349 . S
C744 C756 1.349 . S
C745 C743 1.327 . S
C745 C761 1.429 . S
C745 H767 0.950 . S
C746 H742 0.949 . S
C746 C754 1.574 . S
C746 C762 1.368 . S
H747 C755 0.950 . S
H748 C753 0.950 . S
H749 C754 0.949 . S
H750 C756 0.950 . S
H751 C757 0.950 . S
H752 C758 0.949 . S
C753 H748 0.950 . S
C753 C755 1.327 . S
C753 C759 1.429 . S
C754 C746 1.574 . S
C754 H749 0.949 . S
C754 C760 1.368 . S
C755 C739 1.349 . S
C755 H747 0.950 . S
C755 C753 1.327 . S
C756 C744 1.349 . S
C756 H750 0.950 . S
C756 C757 1.327 . S
C757 H751 0.950 . S
C757 C756 1.327 . S
C757 C761 1.429 . S
C758 C741 1.574 . S
C758 H752 0.949 . S
C758 C762 1.368 . S
C759 C740 1.429 . S
C759 C753 1.429 . S
C759 C760 1.523 . S
C760 C741 1.368 . S
C760 C754 1.368 . S
C760 C759 1.523 . S
C761 C745 1.429 . S
C761 C757 1.429 . S
C761 C762 1.523 . S
C762 C746 1.368 . S
C762 C758 1.368 . S
C762 C761 1.523 . S
H763 C738 0.950 . S
H764 C740 0.950 . S
H765 C741 0.949 . S
H766 C743 0.950 . S
H767 C745 0.950 . S
C768 C769 1.349 . S
C768 C770 1.327 . S
C768 H793 0.950 . S
C769 C768 1.349 . S
C769 C785 1.349 . S
C770 C768 1.327 . S
C770 C789 1.429 . S
C770 H794 0.950 . S
C771 C788 1.574 1_554 S
C771 C790 1.368 . S
C771 H795 0.949 . S
H772 C776 0.949 . S
C773 C774 1.349 . S
C773 C775 1.327 . S
C773 H796 0.950 . S
C774 C773 1.349 . S
C774 C786 1.349 . S
C775 C773 1.327 . S
C775 C791 1.429 . S
C775 H797 0.950 . S
C776 H772 0.949 . S
C776 C784 1.574 1_556 S
C776 C792 1.368 . S
H777 C785 0.950 . S
H778 C783 0.950 . S
H779 C784 0.949 . S
H780 C786 0.950 . S
H781 C787 0.950 . S
H782 C788 0.949 . S
C783 H778 0.950 . S
C783 C785 1.327 . S
C783 C789 1.429 . S
C784 C776 1.574 1_554 S
C784 H779 0.949 . S
C784 C790 1.368 . S
C785 C769 1.349 . S
C785 H777 0.950 . S
C785 C783 1.327 . S
C786 C774 1.349 . S
C786 H780 0.950 . S
C786 C787 1.327 . S
C787 H781 0.950 . S
C787 C786 1.327 . S
C787 C791 1.429 . S
C788 C771 1.574 1_556 S
C788 H782 0.949 . S
C788 C792 1.368 . S
C789 C770 1.429 . S
C789 C783 1.429 . S
C789 C790 1.523 . S
C790 C771 1.368 . S
C790 C784 1.368 . S
C790 C789 1.523 . S
C791 C775 1.429 . S
C791 C787 1.429 . S
C791 C792 1.523 . S
C792 C776 1.368 . S
C792 C788 1.368 . S
C792 C791 1.523 . S
H793 C768 0.950 . S
H794 C770 0.950 . S
H795 C771 0.949 . S
H796 C773 0.950 . S
H797 C775 0.950 . S
C798 C799 1.349 . S
C798 C800 1.327 . S
C798 H823 0.950 . S
C799 C798 1.349 . S
C799 C815 1.349 . S
C800 C798 1.327 . S
C800 C819 1.429 . S
C800 H824 0.950 . S
C801 C818 1.574 . S
C801 C820 1.368 . S
C801 H825 0.949 . S
H802 C806 0.949 . S
C803 C804 1.349 . S
C803 C805 1.327 . S
C803 H826 0.950 . S
C804 C803 1.349 . S
C804 C816 1.349 . S
C805 C803 1.327 . S
C805 C821 1.429 . S
C805 H827 0.950 . S
C806 H802 0.949 . S
C806 C814 1.574 . S
C806 C822 1.368 . S
H807 C815 0.950 . S
H808 C813 0.950 . S
H809 C814 0.949 . S
H810 C816 0.950 . S
H811 C817 0.950 . S
H812 C818 0.949 . S
C813 H808 0.950 . S
C813 C815 1.327 . S
C813 C819 1.429 . S
C814 C806 1.574 . S
C814 H809 0.949 . S
C814 C820 1.368 . S
C815 C799 1.349 . S
C815 H807 0.950 . S
C815 C813 1.327 . S
C816 C804 1.349 . S
C816 H810 0.950 . S
C816 C817 1.327 . S
C817 H811 0.950 . S
C817 C816 1.327 . S
C817 C821 1.429 . S
C818 C801 1.574 . S
C818 H812 0.949 . S
C818 C822 1.368 . S
C819 C800 1.429 . S
C819 C813 1.429 . S
C819 C820 1.523 . S
C820 C801 1.368 . S
C820 C814 1.368 . S
C820 C819 1.523 . S
C821 C805 1.429 . S
C821 C817 1.429 . S
C821 C822 1.523 . S
C822 C806 1.368 . S
C822 C818 1.368 . S
C822 C821 1.523 . S
H823 C798 0.950 . S
H824 C800 0.950 . S
H825 C801 0.949 . S
H826 C803 0.950 . S
H827 C805 0.950 . S
C828 C829 1.349 . S
C828 C830 1.327 . S
C828 H853 0.950 . S
C829 C828 1.349 . S
C829 C845 1.349 . S
C830 C828 1.327 . S
C830 C849 1.429 . S
C830 H854 0.950 . S
C831 C848 1.574 1_556 S
C831 C850 1.368 . S
C831 H855 0.949 . S
H832 C836 0.949 . S
C833 C834 1.349 . S
C833 C835 1.327 . S
C833 H856 0.950 . S
C834 C833 1.349 . S
C834 C846 1.349 . S
C835 C833 1.327 . S
C835 C851 1.429 . S
C835 H857 0.950 . S
C836 H832 0.949 . S
C836 C844 1.574 1_554 S
C836 C852 1.368 . S
H837 C845 0.950 . S
H838 C843 0.950 . S
H839 C844 0.949 . S
H840 C846 0.950 . S
H841 C847 0.950 . S
H842 C848 0.949 . S
C843 H838 0.950 . S
C843 C845 1.327 . S
C843 C849 1.429 . S
C844 C836 1.574 1_556 S
C844 H839 0.949 . S
C844 C850 1.368 . S
C845 C829 1.349 . S
C845 H837 0.950 . S
C845 C843 1.327 . S
C846 C834 1.349 . S
C846 H840 0.950 . S
C846 C847 1.327 . S
C847 H841 0.950 . S
C847 C846 1.327 . S
C847 C851 1.429 . S
C848 C831 1.574 1_554 S
C848 H842 0.949 . S
C848 C852 1.368 . S
C849 C830 1.429 . S
C849 C843 1.429 . S
C849 C850 1.523 . S
C850 C831 1.368 . S
C850 C844 1.368 . S
C850 C849 1.523 . S
C851 C835 1.429 . S
C851 C847 1.429 . S
C851 C852 1.523 . S
C852 C836 1.368 . S
C852 C848 1.368 . S
C852 C851 1.523 . S
H853 C828 0.950 . S
H854 C830 0.950 . S
H855 C831 0.949 . S
H856 C833 0.950 . S
H857 C835 0.950 . S
C858 C859 1.349 . S
C858 C860 1.327 . S
C858 H883 0.950 . S
C859 C858 1.349 . S
C859 C875 1.349 . S
C860 C858 1.327 . S
C860 C879 1.429 . S
C860 H884 0.950 . S
C861 C878 1.574 . S
C861 C880 1.368 . S
C861 H885 0.949 . S
H862 C866 0.949 . S
C863 C864 1.349 . S
C863 C865 1.327 . S
C863 H886 0.950 . S
C864 C863 1.349 . S
C864 C876 1.349 . S
C865 C863 1.327 . S
C865 C881 1.429 . S
C865 H887 0.950 . S
C866 H862 0.949 . S
C866 C874 1.574 . S
C866 C882 1.368 . S
H867 C875 0.950 . S
H868 C873 0.950 . S
H869 C874 0.949 . S
H870 C876 0.950 . S
H871 C877 0.950 . S
H872 C878 0.949 . S
C873 H868 0.950 . S
C873 C875 1.327 . S
C873 C879 1.429 . S
C874 C866 1.574 . S
C874 H869 0.949 . S
C874 C880 1.368 . S
C875 C859 1.349 . S
C875 H867 0.950 . S
C875 C873 1.327 . S
C876 C864 1.349 . S
C876 H870 0.950 . S
C876 C877 1.327 . S
C877 H871 0.950 . S
C877 C876 1.327 . S
C877 C881 1.429 . S
C878 C861 1.574 . S
C878 H872 0.949 . S
C878 C882 1.368 . S
C879 C860 1.429 . S
C879 C873 1.429 . S
C879 C880 1.523 . S
C880 C861 1.368 . S
C880 C874 1.368 . S
C880 C879 1.523 . S
C881 C865 1.429 . S
C881 C877 1.429 . S
C881 C882 1.523 . S
C882 C866 1.368 . S
C882 C878 1.368 . S
C882 C881 1.523 . S
H883 C858 0.950 . S
H884 C860 0.950 . S
H885 C861 0.949 . S
H886 C863 0.950 . S
H887 C865 0.950 . S
C888 C889 1.349 . S
C888 C890 1.327 . S
C888 H913 0.950 . S
C889 C888 1.349 . S
C889 C905 1.349 . S
C890 C888 1.327 . S
C890 C909 1.429 . S
C890 H914 0.950 . S
C891 C908 1.574 1_556 S
C891 C910 1.368 . S
C891 H915 0.949 . S
H892 C896 0.949 . S
C893 C894 1.349 . S
C893 C895 1.327 . S
C893 H916 0.950 . S
C894 C893 1.349 . S
C894 C906 1.349 . S
C895 C893 1.327 . S
C895 C911 1.429 . S
C895 H917 0.950 . S
C896 H892 0.949 . S
C896 C904 1.574 1_554 S
C896 C912 1.368 . S
H897 C905 0.950 . S
H898 C903 0.950 . S
H899 C904 0.949 . S
H900 C906 0.950 . S
H901 C907 0.950 . S
H902 C908 0.949 . S
C903 H898 0.950 . S
C903 C905 1.327 . S
C903 C909 1.429 . S
C904 C896 1.574 1_556 S
C904 H899 0.949 . S
C904 C910 1.368 . S
C905 C889 1.349 . S
C905 H897 0.950 . S
C905 C903 1.327 . S
C906 C894 1.349 . S
C906 H900 0.950 . S
C906 C907 1.327 . S
C907 H901 0.950 . S
C907 C906 1.327 . S
C907 C911 1.429 . S
C908 C891 1.574 1_554 S
C908 H902 0.949 . S
C908 C912 1.368 . S
C909 C890 1.429 . S
C909 C903 1.429 . S
C909 C910 1.523 . S
C910 C891 1.368 . S
C910 C904 1.368 . S
C910 C909 1.523 . S
C911 C895 1.429 . S
C911 C907 1.429 . S
C911 C912 1.523 . S
C912 C896 1.368 . S
C912 C908 1.368 . S
C912 C911 1.523 . S
H913 C888 0.950 . S
H914 C890 0.950 . S
H915 C891 0.949 . S
H916 C893 0.950 . S
H917 C895 0.950 . S
C918 C919 1.349 . S
C918 C920 1.327 . S
C918 H943 0.950 . S
C919 C918 1.349 . S
C919 C935 1.349 . S
C920 C918 1.327 . S
C920 C939 1.429 . S
C920 H944 0.950 . S
C921 C938 1.574 . S
C921 C940 1.368 . S
C921 H945 0.949 . S
H922 C926 0.949 . S
C923 C924 1.349 . S
C923 C925 1.327 . S
C923 H946 0.950 . S
C924 C923 1.349 . S
C924 C936 1.349 . S
C925 C923 1.327 . S
C925 C941 1.429 . S
C925 H947 0.950 . S
C926 H922 0.949 . S
C926 C934 1.574 . S
C926 C942 1.368 . S
H927 C935 0.950 . S
H928 C933 0.950 . S
H929 C934 0.949 . S
H930 C936 0.950 . S
H931 C937 0.950 . S
H932 C938 0.949 . S
C933 H928 0.950 . S
C933 C935 1.327 . S
C933 C939 1.429 . S
C934 C926 1.574 . S
C934 H929 0.949 . S
C934 C940 1.368 . S
C935 C919 1.349 . S
C935 H927 0.950 . S
C935 C933 1.327 . S
C936 C924 1.349 . S
C936 H930 0.950 . S
C936 C937 1.327 . S
C937 H931 0.950 . S
C937 C936 1.327 . S
C937 C941 1.429 . S
C938 C921 1.574 . S
C938 H932 0.949 . S
C938 C942 1.368 . S
C939 C920 1.429 . S
C939 C933 1.429 . S
C939 C940 1.523 . S
C940 C921 1.368 . S
C940 C934 1.368 . S
C940 C939 1.523 . S
C941 C925 1.429 . S
C941 C937 1.429 . S
C941 C942 1.523 . S
C942 C926 1.368 . S
C942 C938 1.368 . S
C942 C941 1.523 . S
H943 C918 0.950 . S
H944 C920 0.950 . S
H945 C921 0.949 . S
H946 C923 0.950 . S
H947 C925 0.950 . S
C948 C949 1.349 . S
C948 C950 1.327 . S
C948 H973 0.950 . S
C949 C948 1.349 . S
C949 C965 1.349 . S
C950 C948 1.327 . S
C950 C969 1.429 . S
C950 H974 0.950 . S
C951 C968 1.574 . S
C951 C970 1.368 . S
C951 H975 0.949 . S
H952 C956 0.949 . S
C953 C954 1.349 . S
C953 C955 1.327 . S
C953 H976 0.950 . S
C954 C953 1.349 . S
C954 C966 1.349 . S
C955 C953 1.327 . S
C955 C971 1.429 . S
C955 H977 0.950 . S
C956 H952 0.949 . S
C956 C964 1.574 . S
C956 C972 1.368 . S
H957 C965 0.950 . S
H958 C963 0.950 . S
H959 C964 0.949 . S
H960 C966 0.950 . S
H961 C967 0.950 . S
H962 C968 0.949 . S
C963 H958 0.950 . S
C963 C965 1.327 . S
C963 C969 1.429 . S
C964 C956 1.574 . S
C964 H959 0.949 . S
C964 C970 1.368 . S
C965 C949 1.349 . S
C965 H957 0.950 . S
C965 C963 1.327 . S
C966 C954 1.349 . S
C966 H960 0.950 . S
C966 C967 1.327 . S
C967 H961 0.950 . S
C967 C966 1.327 . S
C967 C971 1.429 . S
C968 C951 1.574 . S
C968 H962 0.949 . S
C968 C972 1.368 . S
C969 C950 1.429 . S
C969 C963 1.429 . S
C969 C970 1.523 . S
C970 C951 1.368 . S
C970 C964 1.368 . S
C970 C969 1.523 . S
C971 C955 1.429 . S
C971 C967 1.429 . S
C971 C972 1.523 . S
C972 C956 1.368 . S
C972 C968 1.368 . S
C972 C971 1.523 . S
H973 C948 0.950 . S
H974 C950 0.950 . S
H975 C951 0.949 . S
H976 C953 0.950 . S
H977 C955 0.950 . S
C978 C979 1.349 . S
C978 C980 1.327 . S
C978 H1003 0.950 . S
C979 C978 1.349 . S
C979 C995 1.349 . S
C980 C978 1.327 . S
C980 C999 1.429 . S
C980 H1004 0.950 . S
C981 C998 1.574 . S
C981 C1000 1.368 . S
C981 H1005 0.949 . S
H982 C986 0.949 . S
C983 C984 1.349 . S
C983 C985 1.327 . S
C983 H1006 0.950 . S
C984 C983 1.349 . S
C984 C996 1.349 . S
C985 C983 1.327 . S
C985 C1001 1.429 . S
C985 H1007 0.950 . S
C986 H982 0.949 . S
C986 C994 1.574 . S
C986 C1002 1.368 . S
H987 C995 0.950 . S
H988 C993 0.950 . S
H989 C994 0.949 . S
H990 C996 0.950 . S
H991 C997 0.950 . S
H992 C998 0.949 . S
C993 H988 0.950 . S
C993 C995 1.327 . S
C993 C999 1.429 . S
C994 C986 1.574 . S
C994 H989 0.949 . S
C994 C1000 1.368 . S
C995 C979 1.349 . S
C995 H987 0.950 . S
C995 C993 1.327 . S
C996 C984 1.349 . S
C996 H990 0.950 . S
C996 C997 1.327 . S
C997 H991 0.950 . S
C997 C996 1.327 . S
C997 C1001 1.429 . S
C998 C981 1.574 . S
C998 H992 0.949 . S
C998 C1002 1.368 . S
C999 C980 1.429 . S
C999 C993 1.429 . S
C999 C1000 1.523 . S
C1000 C981 1.368 . S
C1000 C994 1.368 . S
C1000 C999 1.523 . S
C1001 C985 1.429 . S
C1001 C997 1.429 . S
C1001 C1002 1.523 . S
C1002 C986 1.368 . S
C1002 C998 1.368 . S
C1002 C1001 1.523 . S
H1003 C978 0.950 . S
H1004 C980 0.950 . S
H1005 C981 0.949 . S
H1006 C983 0.950 . S
H1007 C985 0.950 . S
C1008 C1009 1.349 . S
C1008 C1010 1.327 . S
C1008 H1033 0.950 . S
C1009 C1008 1.349 . S
C1009 C1025 1.349 . S
C1010 C1008 1.327 . S
C1010 C1029 1.429 . S
C1010 H1034 0.950 . S
C1011 C1028 1.574 . S
C1011 C1030 1.368 . S
C1011 H1035 0.949 . S
H1012 C1016 0.949 . S
C1013 C1014 1.349 . S
C1013 C1015 1.327 . S
C1013 H1036 0.950 . S
C1014 C1013 1.349 . S
C1014 C1026 1.349 . S
C1015 C1013 1.327 . S
C1015 C1031 1.429 . S
C1015 H1037 0.950 . S
C1016 H1012 0.949 . S
C1016 C1024 1.574 . S
C1016 C1032 1.368 . S
H1017 C1025 0.950 . S
H1018 C1023 0.950 . S
H1019 C1024 0.949 . S
H1020 C1026 0.950 . S
H1021 C1027 0.950 . S
H1022 C1028 0.949 . S
C1023 H1018 0.950 . S
C1023 C1025 1.327 . S
C1023 C1029 1.429 . S
C1024 C1016 1.574 . S
C1024 H1019 0.949 . S
C1024 C1030 1.368 . S
C1025 C1009 1.349 . S
C1025 H1017 0.950 . S
C1025 C1023 1.327 . S
C1026 C1014 1.349 . S
C1026 H1020 0.950 . S
C1026 C1027 1.327 . S
C1027 H1021 0.950 . S
C1027 C1026 1.327 . S
C1027 C1031 1.429 . S
C1028 C1011 1.574 . S
C1028 H1022 0.949 . S
C1028 C1032 1.368 . S
C1029 C1010 1.429 . S
C1029 C1023 1.429 . S
C1029 C1030 1.523 . S
C1030 C1011 1.368 . S
C1030 C1024 1.368 . S
C1030 C1029 1.523 . S
C1031 C1015 1.429 . S
C1031 C1027 1.429 . S
C1031 C1032 1.523 . S
C1032 C1016 1.368 . S
C1032 C1028 1.368 . S
C1032 C1031 1.523 . S
H1033 C1008 0.950 . S
H1034 C1010 0.950 . S
H1035 C1011 0.949 . S
H1036 C1013 0.950 . S
H1037 C1015 0.950 . S
C1038 C1039 1.349 . S
C1038 C1040 1.327 . S
C1038 H1063 0.950 . S
C1039 C1038 1.349 . S
C1039 C1055 1.349 . S
C1040 C1038 1.327 . S
C1040 C1059 1.429 . S
C1040 H1064 0.950 . S
C1041 C1058 1.574 . S
C1041 C1060 1.368 . S
C1041 H1065 0.949 . S
H1042 C1046 0.949 . S
C1043 C1044 1.349 . S
C1043 C1045 1.327 . S
C1043 H1066 0.950 . S
C1044 C1043 1.349 . S
C1044 C1056 1.349 . S
C1045 C1043 1.327 . S
C1045 C1061 1.429 . S
C1045 H1067 0.950 . S
C1046 H1042 0.949 . S
C1046 C1054 1.574 . S
C1046 C1062 1.368 . S
H1047 C1055 0.950 . S
H1048 C1053 0.950 . S
H1049 C1054 0.949 . S
H1050 C1056 0.950 . S
H1051 C1057 0.950 . S
H1052 C1058 0.949 . S
C1053 H1048 0.950 . S
C1053 C1055 1.327 . S
C1053 C1059 1.429 . S
C1054 C1046 1.574 . S
C1054 H1049 0.949 . S
C1054 C1060 1.368 . S
C1055 C1039 1.349 . S
C1055 H1047 0.950 . S
C1055 C1053 1.327 . S
C1056 C1044 1.349 . S
C1056 H1050 0.950 . S
C1056 C1057 1.327 . S
C1057 H1051 0.950 . S
C1057 C1056 1.327 . S
C1057 C1061 1.429 . S
C1058 C1041 1.574 . S
C1058 H1052 0.949 . S
C1058 C1062 1.368 . S
C1059 C1040 1.429 . S
C1059 C1053 1.429 . S
C1059 C1060 1.523 . S
C1060 C1041 1.368 . S
C1060 C1054 1.368 . S
C1060 C1059 1.523 . S
C1061 C1045 1.429 . S
C1061 C1057 1.429 . S
C1061 C1062 1.523 . S
C1062 C1046 1.368 . S
C1062 C1058 1.368 . S
C1062 C1061 1.523 . S
H1063 C1038 0.950 . S
H1064 C1040 0.950 . S
H1065 C1041 0.949 . S
H1066 C1043 0.950 . S
H1067 C1045 0.950 . S
C1068 C1069 1.349 . S
C1068 C1070 1.327 . S
C1068 H1093 0.950 . S
C1069 C1068 1.349 . S
C1069 C1085 1.349 . S
C1070 C1068 1.327 . S
C1070 C1089 1.429 . S
C1070 H1094 0.950 . S
C1071 C1088 1.574 . S
C1071 C1090 1.368 . S
C1071 H1095 0.949 . S
H1072 C1076 0.949 . S
C1073 C1074 1.349 . S
C1073 C1075 1.327 . S
C1073 H1096 0.950 . S
C1074 C1073 1.349 . S
C1074 C1086 1.349 . S
C1075 C1073 1.327 . S
C1075 C1091 1.429 . S
C1075 H1097 0.950 . S
C1076 H1072 0.949 . S
C1076 C1084 1.574 . S
C1076 C1092 1.368 . S
H1077 C1085 0.950 . S
H1078 C1083 0.950 . S
H1079 C1084 0.949 . S
H1080 C1086 0.950 . S
H1081 C1087 0.950 . S
H1082 C1088 0.949 . S
C1083 H1078 0.950 . S
C1083 C1085 1.327 . S
C1083 C1089 1.429 . S
C1084 C1076 1.574 . S
C1084 H1079 0.949 . S
C1084 C1090 1.368 . S
C1085 C1069 1.349 . S
C1085 H1077 0.950 . S
C1085 C1083 1.327 . S
C1086 C1074 1.349 . S
C1086 H1080 0.950 . S
C1086 C1087 1.327 . S
C1087 H1081 0.950 . S
C1087 C1086 1.327 . S
C1087 C1091 1.429 . S
C1088 C1071 1.574 . S
C1088 H1082 0.949 . S
C1088 C1092 1.368 . S
C1089 C1070 1.429 . S
C1089 C1083 1.429 . S
C1089 C1090 1.523 . S
C1090 C1071 1.368 . S
C1090 C1084 1.368 . S
C1090 C1089 1.523 . S
C1091 C1075 1.429 . S
C1091 C1087 1.429 . S
C1091 C1092 1.523 . S
C1092 C1076 1.368 . S
C1092 C1088 1.368 . S
C1092 C1091 1.523 . S
H1093 C1068 0.950 . S
H1094 C1070 0.950 . S
H1095 C1071 0.949 . S
H1096 C1073 0.950 . S
H1097 C1075 0.950 . S
C1098 C1099 1.349 . S
C1098 C1100 1.327 . S
C1098 H1123 0.950 . S
C1099 C1098 1.349 . S
C1099 C1115 1.349 . S
C1100 C1098 1.327 . S
C1100 C1119 1.429 . S
C1100 H1124 0.950 . S
C1101 C1118 1.574 . S
C1101 C1120 1.368 . S
C1101 H1125 0.949 . S
H1102 C1106 0.949 . S
C1103 C1104 1.349 . S
C1103 C1105 1.327 . S
C1103 H1126 0.950 . S
C1104 C1103 1.349 . S
C1104 C1116 1.349 . S
C1105 C1103 1.327 . S
C1105 C1121 1.429 . S
C1105 H1127 0.950 . S
C1106 H1102 0.949 . S
C1106 C1114 1.574 . S
C1106 C1122 1.368 . S
H1107 C1115 0.950 . S
H1108 C1113 0.950 . S
H1109 C1114 0.949 . S
H1110 C1116 0.950 . S
H1111 C1117 0.950 . S
H1112 C1118 0.949 . S
C1113 H1108 0.950 . S
C1113 C1115 1.327 . S
C1113 C1119 1.429 . S
C1114 C1106 1.574 . S
C1114 H1109 0.949 . S
C1114 C1120 1.368 . S
C1115 C1099 1.349 . S
C1115 H1107 0.950 . S
C1115 C1113 1.327 . S
C1116 C1104 1.349 . S
C1116 H1110 0.950 . S
C1116 C1117 1.327 . S
C1117 H1111 0.950 . S
C1117 C1116 1.327 . S
C1117 C1121 1.429 . S
C1118 C1101 1.574 . S
C1118 H1112 0.949 . S
C1118 C1122 1.368 . S
C1119 C1100 1.429 . S
C1119 C1113 1.429 . S
C1119 C1120 1.523 . S
C1120 C1101 1.368 . S
C1120 C1114 1.368 . S
C1120 C1119 1.523 . S
C1121 C1105 1.429 . S
C1121 C1117 1.429 . S
C1121 C1122 1.523 . S
C1122 C1106 1.368 . S
C1122 C1118 1.368 . S
C1122 C1121 1.523 . S
H1123 C1098 0.950 . S
H1124 C1100 0.950 . S
H1125 C1101 0.949 . S
H1126 C1103 0.950 . S
H1127 C1105 0.950 . S
C1128 C1129 1.349 . S
C1128 C1130 1.327 . S
C1128 H1153 0.950 . S
C1129 C1128 1.349 . S
C1129 C1145 1.349 . S
C1130 C1128 1.327 . S
C1130 C1149 1.429 . S
C1130 H1154 0.950 . S
C1131 C1148 1.574 . S
C1131 C1150 1.368 . S
C1131 H1155 0.949 . S
H1132 C1136 0.949 . S
C1133 C1134 1.349 . S
C1133 C1135 1.327 . S
C1133 H1156 0.950 . S
C1134 C1133 1.349 . S
C1134 C1146 1.349 . S
C1135 C1133 1.327 . S
C1135 C1151 1.429 . S
C1135 H1157 0.950 . S
C1136 H1132 0.949 . S
C1136 C1144 1.574 . S
C1136 C1152 1.368 . S
H1137 C1145 0.950 . S
H1138 C1143 0.950 . S
H1139 C1144 0.949 . S
H1140 C1146 0.950 . S
H1141 C1147 0.950 . S
H1142 C1148 0.949 . S
C1143 H1138 0.950 . S
C1143 C1145 1.327 . S
C1143 C1149 1.429 . S
C1144 C1136 1.574 . S
C1144 H1139 0.949 . S
C1144 C1150 1.368 . S
C1145 C1129 1.349 . S
C1145 H1137 0.950 . S
C1145 C1143 1.327 . S
C1146 C1134 1.349 . S
C1146 H1140 0.950 . S
C1146 C1147 1.327 . S
C1147 H1141 0.950 . S
C1147 C1146 1.327 . S
C1147 C1151 1.429 . S
C1148 C1131 1.574 . S
C1148 H1142 0.949 . S
C1148 C1152 1.368 . S
C1149 C1130 1.429 . S
C1149 C1143 1.429 . S
C1149 C1150 1.523 . S
C1150 C1131 1.368 . S
C1150 C1144 1.368 . S
C1150 C1149 1.523 . S
C1151 C1135 1.429 . S
C1151 C1147 1.429 . S
C1151 C1152 1.523 . S
C1152 C1136 1.368 . S
C1152 C1148 1.368 . S
C1152 C1151 1.523 . S
H1153 C1128 0.950 . S
H1154 C1130 0.950 . S
H1155 C1131 0.949 . S
H1156 C1133 0.950 . S
H1157 C1135 0.950 . S
C1158 C1159 1.349 . S
C1158 C1160 1.327 . S
C1158 H1183 0.950 . S
C1159 C1158 1.349 . S
C1159 C1175 1.349 . S
C1160 C1158 1.327 . S
C1160 C1179 1.429 . S
C1160 H1184 0.950 . S
C1161 C1178 1.574 . S
C1161 C1180 1.368 . S
C1161 H1185 0.949 . S
H1162 C1166 0.949 . S
C1163 C1164 1.349 . S
C1163 C1165 1.327 . S
C1163 H1186 0.950 . S
C1164 C1163 1.349 . S
C1164 C1176 1.349 . S
C1165 C1163 1.327 . S
C1165 C1181 1.429 . S
C1165 H1187 0.950 . S
C1166 H1162 0.949 . S
C1166 C1174 1.574 . S
C1166 C1182 1.368 . S
H1167 C1175 0.950 . S
H1168 C1173 0.950 . S
H1169 C1174 0.949 . S
H1170 C1176 0.950 . S
H1171 C1177 0.950 . S
H1172 C1178 0.949 . S
C1173 H1168 0.950 . S
C1173 C1175 1.327 . S
C1173 C1179 1.429 . S
C1174 C1166 1.574 . S
C1174 H1169 0.949 . S
C1174 C1180 1.368 . S
C1175 C1159 1.349 . S
C1175 H1167 0.950 . S
C1175 C1173 1.327 . S
C1176 C1164 1.349 . S
C1176 H1170 0.950 . S
C1176 C1177 1.327 . S
C1177 H1171 0.950 . S
C1177 C1176 1.327 . S
C1177 C1181 1.429 . S
C1178 C1161 1.574 . S
C1178 H1172 0.949 . S
C1178 C1182 1.368 . S
C1179 C1160 1.429 . S
C1179 C1173 1.429 . S
C1179 C1180 1.523 . S
C1180 C1161 1.368 . S
C1180 C1174 1.368 . S
C1180 C1179 1.523 . S
C1181 C1165 1.429 . S
C1181 C1177 1.429 . S
C1181 C1182 1.523 . S
C1182 C1166 1.368 . S
C1182 C1178 1.368 . S
C1182 C1181 1.523 . S
H1183 C1158 0.950 . S
H1184 C1160 0.950 . S
H1185 C1161 0.949 . S
H1186 C1163 0.950 . S
H1187 C1165 0.950 . S
C1188 C1189 1.349 . S
C1188 C1190 1.327 . S
C1188 H1213 0.950 . S
C1189 C1188 1.349 . S
C1189 C1205 1.349 . S
C1190 C1188 1.327 . S
C1190 C1209 1.429 . S
C1190 H1214 0.950 . S
C1191 C1208 1.574 . S
C1191 C1210 1.368 . S
C1191 H1215 0.949 . S
H1192 C1196 0.949 . S
C1193 C1194 1.349 . S
C1193 C1195 1.327 . S
C1193 H1216 0.950 . S
C1194 C1193 1.349 . S
C1194 C1206 1.349 . S
C1195 C1193 1.327 . S
C1195 C1211 1.429 . S
C1195 H1217 0.950 . S
C1196 H1192 0.949 . S
C1196 C1204 1.574 . S
C1196 C1212 1.368 . S
H1197 C1205 0.950 . S
H1198 C1203 0.950 . S
H1199 C1204 0.949 . S
H1200 C1206 0.950 . S
H1201 C1207 0.950 . S
H1202 C1208 0.949 . S
C1203 H1198 0.950 . S
C1203 C1205 1.327 . S
C1203 C1209 1.429 . S
C1204 C1196 1.574 . S
C1204 H1199 0.949 . S
C1204 C1210 1.368 . S
C1205 C1189 1.349 . S
C1205 H1197 0.950 . S
C1205 C1203 1.327 . S
C1206 C1194 1.349 . S
C1206 H1200 0.950 . S
C1206 C1207 1.327 . S
C1207 H1201 0.950 . S
C1207 C1206 1.327 . S
C1207 C1211 1.429 . S
C1208 C1191 1.574 . S
C1208 H1202 0.949 . S
C1208 C1212 1.368 . S
C1209 C1190 1.429 . S
C1209 C1203 1.429 . S
C1209 C1210 1.523 . S
C1210 C1191 1.368 . S
C1210 C1204 1.368 . S
C1210 C1209 1.523 . S
C1211 C1195 1.429 . S
C1211 C1207 1.429 . S
C1211 C1212 1.523 . S
C1212 C1196 1.368 . S
C1212 C1208 1.368 . S
C1212 C1211 1.523 . S
H1213 C1188 0.950 . S
H1214 C1190 0.950 . S
H1215 C1191 0.949 . S
H1216 C1193 0.950 . S
H1217 C1195 0.950 . S
C1218 C1219 1.349 . S
C1218 C1220 1.327 . S
C1218 H1243 0.950 . S
C1219 C1218 1.349 . S
C1219 C1235 1.349 . S
C1220 C1218 1.327 . S
C1220 C1239 1.429 . S
C1220 H1244 0.950 . S
C1221 C1238 1.574 . S
C1221 C1240 1.368 . S
C1221 H1245 0.949 . S
H1222 C1226 0.949 . S
C1223 C1224 1.349 . S
C1223 C1225 1.327 . S
C1223 H1246 0.950 . S
C1224 C1223 1.349 . S
C1224 C1236 1.349 . S
C1225 C1223 1.327 . S
C1225 C1241 1.429 . S
C1225 H1247 0.950 . S
C1226 H1222 0.949 . S
C1226 C1234 1.574 . S
C1226 C1242 1.368 . S
H1227 C1235 0.950 . S
H1228 C1233 0.950 . S
H1229 C1234 0.949 . S
H1230 C1236 0.950 . S
H1231 C1237 0.950 . S
H1232 C1238 0.949 . S
C1233 H1228 0.950 . S
C1233 C1235 1.327 . S
C1233 C1239 1.429 . S
C1234 C1226 1.574 . S
C1234 H1229 0.949 . S
C1234 C1240 1.368 . S
C1235 C1219 1.349 . S
C1235 H1227 0.950 . S
C1235 C1233 1.327 . S
C1236 C1224 1.349 . S
C1236 H1230 0.950 . S
C1236 C1237 1.327 . S
C1237 H1231 0.950 . S
C1237 C1236 1.327 . S
C1237 C1241 1.429 . S
C1238 C1221 1.574 . S
C1238 H1232 0.949 . S
C1238 C1242 1.368 . S
C1239 C1220 1.429 . S
C1239 C1233 1.429 . S
C1239 C1240 1.523 . S
C1240 C1221 1.368 . S
C1240 C1234 1.368 . S
C1240 C1239 1.523 . S
C1241 C1225 1.429 . S
C1241 C1237 1.429 . S
C1241 C1242 1.523 . S
C1242 C1226 1.368 . S
C1242 C1238 1.368 . S
C1242 C1241 1.523 . S
H1243 C1218 0.950 . S
H1244 C1220 0.950 . S
H1245 C1221 0.949 . S
H1246 C1223 0.950 . S
H1247 C1225 0.950 . S
C1248 C1249 1.349 . S
C1248 C1250 1.327 . S
C1248 H1273 0.950 . S
C1249 C1248 1.349 . S
C1249 C1265 1.349 . S
C1250 C1248 1.327 . S
C1250 C1269 1.429 . S
C1250 H1274 0.950 . S
C1251 C1268 1.574 . S
C1251 C1270 1.368 . S
C1251 H1275 0.949 . S
H1252 C1256 0.949 . S
C1253 C1254 1.349 . S
C1253 C1255 1.327 . S
C1253 H1276 0.950 . S
C1254 C1253 1.349 . S
C1254 C1266 1.349 . S
C1255 C1253 1.327 . S
C1255 C1271 1.429 . S
C1255 H1277 0.950 . S
C1256 H1252 0.949 . S
C1256 C1264 1.574 . S
C1256 C1272 1.368 . S
H1257 C1265 0.950 . S
H1258 C1263 0.950 . S
H1259 C1264 0.949 . S
H1260 C1266 0.950 . S
H1261 C1267 0.950 . S
H1262 C1268 0.949 . S
C1263 H1258 0.950 . S
C1263 C1265 1.327 . S
C1263 C1269 1.429 . S
C1264 C1256 1.574 . S
C1264 H1259 0.949 . S
C1264 C1270 1.368 . S
C1265 C1249 1.349 . S
C1265 H1257 0.950 . S
C1265 C1263 1.327 . S
C1266 C1254 1.349 . S
C1266 H1260 0.950 . S
C1266 C1267 1.327 . S
C1267 H1261 0.950 . S
C1267 C1266 1.327 . S
C1267 C1271 1.429 . S
C1268 C1251 1.574 . S
C1268 H1262 0.949 . S
C1268 C1272 1.368 . S
C1269 C1250 1.429 . S
C1269 C1263 1.429 . S
C1269 C1270 1.523 . S
C1270 C1251 1.368 . S
C1270 C1264 1.368 . S
C1270 C1269 1.523 . S
C1271 C1255 1.429 . S
C1271 C1267 1.429 . S
C1271 C1272 1.523 . S
C1272 C1256 1.368 . S
C1272 C1268 1.368 . S
C1272 C1271 1.523 . S
H1273 C1248 0.950 . S
H1274 C1250 0.950 . S
H1275 C1251 0.949 . S
H1276 C1253 0.950 . S
H1277 C1255 0.950 . S
C1278 C1279 1.349 . S
C1278 C1280 1.327 . S
C1278 H1303 0.950 . S
C1279 C1278 1.349 . S
C1279 C1295 1.349 . S
C1280 C1278 1.327 . S
C1280 C1299 1.429 . S
C1280 H1304 0.950 . S
C1281 C1298 1.574 . S
C1281 C1300 1.368 . S
C1281 H1305 0.949 . S
H1282 C1286 0.949 . S
C1283 C1284 1.349 . S
C1283 C1285 1.327 . S
C1283 H1306 0.950 . S
C1284 C1283 1.349 . S
C1284 C1296 1.349 . S
C1285 C1283 1.327 . S
C1285 C1301 1.429 . S
C1285 H1307 0.950 . S
C1286 H1282 0.949 . S
C1286 C1294 1.574 . S
C1286 C1302 1.368 . S
H1287 C1295 0.950 . S
H1288 C1293 0.950 . S
H1289 C1294 0.949 . S
H1290 C1296 0.950 . S
H1291 C1297 0.950 . S
H1292 C1298 0.949 . S
C1293 H1288 0.950 . S
C1293 C1295 1.327 . S
C1293 C1299 1.429 . S
C1294 C1286 1.574 . S
C1294 H1289 0.949 . S
C1294 C1300 1.368 . S
C1295 C1279 1.349 . S
C1295 H1287 0.950 . S
C1295 C1293 1.327 . S
C1296 C1284 1.349 . S
C1296 H1290 0.950 . S
C1296 C1297 1.327 . S
C1297 H1291 0.950 . S
C1297 C1296 1.327 . S
C1297 C1301 1.429 . S
C1298 C1281 1.574 . S
C1298 H1292 0.949 . S
C1298 C1302 1.368 . S
C1299 C1280 1.429 . S
C1299 C1293 1.429 . S
C1299 C1300 1.523 . S
C1300 C1281 1.368 . S
C1300 C1294 1.368 . S
C1300 C1299 1.523 . S
C1301 C1285 1.429 . S
C1301 C1297 1.429 . S
C1301 C1302 1.523 . S
C1302 C1286 1.368 . S
C1302 C1298 1.368 . S
C1302 C1301 1.523 . S
H1303 C1278 0.950 . S
H1304 C1280 0.950 . S
H1305 C1281 0.949 . S
H1306 C1283 0.950 . S
H1307 C1285 0.950 . S
C409 C315 1.668 . S
C414 C9 1.668 . S
C439 C43 1.668 . S
C444 C349 1.668 . S
C469 C383 1.668 . S
C474 C77 1.668 . S
C499 C111 1.668 . S
C504 C213 1.668 . S
C529 C145 1.668 . S
C534 C247 1.668 . S
C559 C281 1.668 . S
C564 C179 1.668 . S
C589 C342 1.324 . S
C594 C2 1.324 . S
C619 C376 1.324 . S
C624 C36 1.324 . S
C649 C70 1.324 . S
C654 C206 1.324 . S
C679 C240 1.324 . S
C684 C104 1.324 . S
C709 C274 1.324 . S
C714 C138 1.324 . S
C739 C172 1.324 . S
C744 C308 1.324 . S
C769 C258 1.478 . S
C774 C122 1.478 . S
C799 C292 1.478 . S
C804 C156 1.478 . S
C829 C190 1.478 . S
C834 C326 1.478 . S
C859 C20 1.478 . S
C864 C360 1.478 . S
C889 C54 1.478 . S
C894 C394 1.478 . S
C919 C224 1.478 . S
C924 C88 1.478 . S
C949 C5 1.341 . S
C954 C169 1.350 . S
C979 C39 1.341 . S
C984 C203 1.350 . S
C1009 C73 1.341 . S
C1014 C33 1.350 . S
C1039 C67 1.350 . S
C1044 C107 1.341 . S
C1069 C141 1.341 . S
C1074 C101 1.350 . S
C1099 C135 1.350 . S
C1104 C175 1.341 . S
C1129 C305 1.350 . S
C1134 C209 1.341 . S
C1159 C339 1.350 . S
C1164 C243 1.341 . S
C1189 C373 1.350 . S
C1194 C277 1.341 . S
C1219 C311 1.341 . S
C1224 C407 1.350 . S
C1249 C237 1.350 . S
C1254 C345 1.341 . S
C1279 C379 1.341 . S
C1284 C271 1.350 . S
