# Generated by pormake.
# Topology fng, (5)-cn, num edge types: 1
# Building blocks:
#     Node 0, Type 0, BuildingBlock: XOMCOT_clean_sbu_1, # of connection points: 5
#     Node 1, Type 0, BuildingBlock: XOMCOT_clean_sbu_1, # of connection points: 5
#     Node 2, Type 0, BuildingBlock: XOMCOT_clean_sbu_1, # of connection points: 5
#     Node 3, Type 0, BuildingBlock: XOMCOT_clean_sbu_1, # of connection points: 5
#     Node 4, Type 0, BuildingBlock: XOMCOT_clean_sbu_1, # of connection points: 5
#     Node 5, Type 0, BuildingBlock: XOMCOT_clean_sbu_1, # of connection points: 5
#     Node 6, Type 0, BuildingBlock: XOMCOT_clean_sbu_1, # of connection points: 5
#     Node 7, Type 0, BuildingBlock: XOMCOT_clean_sbu_1, # of connection points: 5
#     Node 8, Type 0, BuildingBlock: XOMCOT_clean_sbu_1, # of connection points: 5
#     Node 9, Type 0, BuildingBlock: XOMCOT_clean_sbu_1, # of connection points: 5
#     Node 10, Type 0, BuildingBlock: XOMCOT_clean_sbu_1, # of connection points: 5
#     Node 11, Type 0, BuildingBlock: XOMCOT_clean_sbu_1, # of connection points: 5
#     Node 12, Type 0, BuildingBlock: XOMCOT_clean_sbu_1, # of connection points: 5
#     Node 13, Type 0, BuildingBlock: XOMCOT_clean_sbu_1, # of connection points: 5
#     Node 14, Type 0, BuildingBlock: XOMCOT_clean_sbu_1, # of connection points: 5
#     Node 15, Type 0, BuildingBlock: XOMCOT_clean_sbu_1, # of connection points: 5
#     Node 16, Type 0, BuildingBlock: XOMCOT_clean_sbu_1, # of connection points: 5
#     Node 17, Type 0, BuildingBlock: XOMCOT_clean_sbu_1, # of connection points: 5
#     Edge 18, Type (0, 0), BuildingBlock: AJUNOK_clean_linker_0, # of connection points: 2
#     Edge 19, Type (0, 0), BuildingBlock: AJUNOK_clean_linker_0, # of connection points: 2
#     Edge 20, Type (0, 0), BuildingBlock: AJUNOK_clean_linker_0, # of connection points: 2
#     Edge 21, Type (0, 0), BuildingBlock: AJUNOK_clean_linker_0, # of connection points: 2
#     Edge 22, Type (0, 0), BuildingBlock: AJUNOK_clean_linker_0, # of connection points: 2
#     Edge 23, Type (0, 0), BuildingBlock: AJUNOK_clean_linker_0, # of connection points: 2
#     Edge 24, Type (0, 0), BuildingBlock: AJUNOK_clean_linker_0, # of connection points: 2
#     Edge 25, Type (0, 0), BuildingBlock: AJUNOK_clean_linker_0, # of connection points: 2
#     Edge 26, Type (0, 0), BuildingBlock: AJUNOK_clean_linker_0, # of connection points: 2
#     Edge 27, Type (0, 0), BuildingBlock: AJUNOK_clean_linker_0, # of connection points: 2
#     Edge 28, Type (0, 0), BuildingBlock: AJUNOK_clean_linker_0, # of connection points: 2
#     Edge 29, Type (0, 0), BuildingBlock: AJUNOK_clean_linker_0, # of connection points: 2
#     Edge 30, Type (0, 0), BuildingBlock: AJUNOK_clean_linker_0, # of connection points: 2
#     Edge 31, Type (0, 0), BuildingBlock: AJUNOK_clean_linker_0, # of connection points: 2
#     Edge 32, Type (0, 0), BuildingBlock: AJUNOK_clean_linker_0, # of connection points: 2
#     Edge 33, Type (0, 0), BuildingBlock: AJUNOK_clean_linker_0, # of connection points: 2
#     Edge 34, Type (0, 0), BuildingBlock: AJUNOK_clean_linker_0, # of connection points: 2
#     Edge 35, Type (0, 0), BuildingBlock: AJUNOK_clean_linker_0, # of connection points: 2
#     Edge 36, Type (0, 0), BuildingBlock: AJUNOK_clean_linker_0, # of connection points: 2
#     Edge 37, Type (0, 0), BuildingBlock: AJUNOK_clean_linker_0, # of connection points: 2
#     Edge 38, Type (0, 0), BuildingBlock: AJUNOK_clean_linker_0, # of connection points: 2
#     Edge 39, Type (0, 0), BuildingBlock: AJUNOK_clean_linker_0, # of connection points: 2
#     Edge 40, Type (0, 0), BuildingBlock: AJUNOK_clean_linker_0, # of connection points: 2
#     Edge 41, Type (0, 0), BuildingBlock: AJUNOK_clean_linker_0, # of connection points: 2
#     Edge 42, Type (0, 0), BuildingBlock: AJUNOK_clean_linker_0, # of connection points: 2
#     Edge 43, Type (0, 0), BuildingBlock: AJUNOK_clean_linker_0, # of connection points: 2
#     Edge 44, Type (0, 0), BuildingBlock: AJUNOK_clean_linker_0, # of connection points: 2
#     Edge 45, Type (0, 0), BuildingBlock: AJUNOK_clean_linker_0, # of connection points: 2
#     Edge 46, Type (0, 0), BuildingBlock: AJUNOK_clean_linker_0, # of connection points: 2
#     Edge 47, Type (0, 0), BuildingBlock: AJUNOK_clean_linker_0, # of connection points: 2
#     Edge 48, Type (0, 0), BuildingBlock: AJUNOK_clean_linker_0, # of connection points: 2
#     Edge 49, Type (0, 0), BuildingBlock: AJUNOK_clean_linker_0, # of connection points: 2
#     Edge 50, Type (0, 0), BuildingBlock: AJUNOK_clean_linker_0, # of connection points: 2
#     Edge 51, Type (0, 0), BuildingBlock: AJUNOK_clean_linker_0, # of connection points: 2
#     Edge 52, Type (0, 0), BuildingBlock: AJUNOK_clean_linker_0, # of connection points: 2
#     Edge 53, Type (0, 0), BuildingBlock: AJUNOK_clean_linker_0, # of connection points: 2
#     Edge 54, Type (0, 0), BuildingBlock: AJUNOK_clean_linker_0, # of connection points: 2
#     Edge 55, Type (0, 0), BuildingBlock: AJUNOK_clean_linker_0, # of connection points: 2
#     Edge 56, Type (0, 0), BuildingBlock: AJUNOK_clean_linker_0, # of connection points: 2
#     Edge 57, Type (0, 0), BuildingBlock: AJUNOK_clean_linker_0, # of connection points: 2
#     Edge 58, Type (0, 0), BuildingBlock: AJUNOK_clean_linker_0, # of connection points: 2
#     Edge 59, Type (0, 0), BuildingBlock: AJUNOK_clean_linker_0, # of connection points: 2
#     Edge 60, Type (0, 0), BuildingBlock: AJUNOK_clean_linker_0, # of connection points: 2
#     Edge 61, Type (0, 0), BuildingBlock: AJUNOK_clean_linker_0, # of connection points: 2
#     Edge 62, Type (0, 0), BuildingBlock: AJUNOK_clean_linker_0, # of connection points: 2
# Relax obj value: 0.134
# Max RMSD: 0.150
# Mean RMSD: 0.150
data_MOF--net-fng--node1-XOMCOT_clean_sbu_1--edge1-AJUNOK_clean_linker_0
_symmetry_space_group_name_H-M    P1
_symmetry_Int_Tables_number       1
_symmetry_cell_setting            triclinic
loop_
_symmetry_equiv_pos_as_xyz
'x, y, z'
_cell_length_a     59.630871
_cell_length_b     59.878692
_cell_length_c     13.337166
_cell_angle_alpha  89.86851
_cell_angle_beta   90.138772
_cell_angle_gamma 119.82642
loop_
_atom_site_label
_atom_site_type_symbol
_atom_site_fract_x
_atom_site_fract_y
_atom_site_fract_z
_atom_type_partial_charge
C0 C 0.17614 0.29263 0.99024 0.0
C1 C 0.17807 0.29317 0.88709 0.0
N2 N 0.17708 0.27124 0.85688 0.0
N3 N 0.17415 0.27053 0.02453 0.0
C4 C 0.17531 0.25822 0.94178 0.0
H5 H 0.17439 0.30653 0.03622 0.0
Co6 Co 0.16422 0.25614 0.15143 0.0
C7 C 0.18229 0.2174 0.16286 0.0
O8 O 0.16549 0.20401 0.23303 0.0
N9 N 0.15376 0.24159 0.28138 0.0
C10 C 0.12965 0.22375 0.41704 0.0
C11 C 0.12941 0.22611 0.31481 0.0
C12 C 0.16844 0.24789 0.36564 0.0
N13 N 0.15423 0.23756 0.4493 0.0
O14 O 0.19466 0.28522 0.20912 0.0
H15 H 0.1121 0.21809 0.2698 0.0
H16 H 0.1891 0.26085 0.36666 0.0
O17 O 0.18322 0.23775 0.12836 0.0
C18 C 0.18765 0.30028 0.24775 0.0
O19 O 0.16336 0.29429 0.23743 0.0
N20 N 0.13317 0.22982 0.09451 0.0
C21 C 0.08407 0.19878 0.01034 0.0
C22 C 0.1023 0.19039 0.01359 0.0
C23 C 0.12688 0.20627 0.05571 0.0
C24 C 0.11575 0.23823 0.09102 0.0
C25 C 0.09106 0.22291 0.05158 0.0
H26 H 0.14073 0.19973 0.05426 0.0
H27 H 0.12102 0.25695 0.12131 0.0
H28 H 0.17335 0.23927 0.94339 0.0
H29 H 0.1781 0.30758 0.8378 0.0
H30 H 0.11271 0.21432 0.46431 0.0
H31 H 0.09782 0.17199 0.98189 0.0
H32 H 0.07751 0.22996 0.05413 0.0
C33 C 0.77138 0.87651 0.01294 0.0
C34 C 0.76948 0.87322 0.91044 0.0
N35 N 0.77605 0.89605 0.86769 0.0
N36 N 0.77922 0.90131 0.03453 0.0
C37 C 0.7813 0.91257 0.94447 0.0
H38 H 0.76894 0.86217 0.06793 0.0
Co39 Co 0.7911 0.91612 0.16044 0.0
C40 C 0.8295 0.97081 0.11191 0.0
O41 O 0.84567 0.96969 0.17605 0.0
N42 N 0.80191 0.93022 0.29046 0.0
C43 C 0.80441 0.95309 0.42611 0.0
C44 C 0.80481 0.95288 0.32335 0.0
C45 C 0.79876 0.91667 0.376 0.0
N46 N 0.80032 0.93017 0.45942 0.0
O47 O 0.7589 0.91549 0.18693 0.0
H48 H 0.80426 0.96736 0.27676 0.0
H49 H 0.79209 0.89628 0.3772 0.0
O50 O 0.80697 0.95112 0.09946 0.0
C51 C 0.74472 0.8946 0.23467 0.0
O52 O 0.75288 0.87793 0.24305 0.0
N53 N 0.82135 0.91377 0.13766 0.0
C54 C 0.85462 0.89551 0.08113 0.0
C55 C 0.8539 0.91516 0.02649 0.0
C56 C 0.83684 0.92373 0.05495 0.0
C57 C 0.82242 0.89509 0.19269 0.0
C58 C 0.83902 0.88588 0.16643 0.0
H59 H 0.83466 0.93674 1.00509 0.0
H60 H 0.80869 0.88544 0.25184 0.0
H61 H 0.7884 0.93288 0.93433 0.0
H62 H 0.7647 0.85568 0.87051 0.0
H63 H 0.80503 0.96822 0.47238 0.0
H64 H 0.86493 0.92244 0.95799 0.0
H65 H 0.83857 0.87029 0.20938 0.0
C66 C 0.17118 0.90458 0.03505 0.0
C67 C 0.17434 0.90592 0.93256 0.0
N68 N 0.15166 0.8888 0.89041 0.0
N69 N 0.14663 0.88674 0.05738 0.0
C70 C 0.13546 0.87699 0.9678 0.0
H71 H 0.18537 0.91699 0.0895 0.0
Co72 Co 0.13152 0.88292 0.18332 0.0
C73 C 0.07622 0.86566 0.13114 0.0
O74 O 0.07584 0.88198 0.19579 0.0
N75 N 0.1172 0.87879 0.31274 0.0
C76 C 0.09395 0.85887 0.44838 0.0
C77 C 0.09424 0.85943 0.34551 0.0
C78 C 0.13087 0.88888 0.39814 0.0
N79 N 0.1171 0.87734 0.48161 0.0
O80 O 0.13227 0.85156 0.20608 0.0
H81 H 0.07949 0.84473 0.29889 0.0
H82 H 0.15142 0.90222 0.39922 0.0
O83 O 0.09665 0.86391 0.12094 0.0
C84 C 0.15426 0.85755 0.24355 0.0
O85 O 0.17167 0.88202 0.25203 0.0
N86 N 0.13369 0.91541 0.1635 0.0
C87 C 0.15339 0.96675 0.10466 0.0
C88 C 0.13292 0.94682 0.05203 0.0
C89 C 0.12364 0.92123 0.08156 0.0
C90 C 0.15286 0.93484 0.21781 0.0
C91 C 0.16282 0.96059 0.19031 0.0
H92 H 0.11029 0.90632 0.03229 0.0
H93 H 0.1625 0.93048 0.27653 0.0
H94 H 0.11536 0.86268 0.95858 0.0
H95 H 0.19169 0.91913 0.89232 0.0
H96 H 0.07852 0.84476 0.49486 0.0
H97 H 0.12562 0.95081 0.98385 0.0
H98 H 0.17895 0.97547 0.2319 0.0
C99 C 0.29374 0.1429 0.01118 0.0
C100 C 0.29596 0.14198 0.11385 0.0
N101 N 0.28518 0.15479 0.1562 0.0
N102 N 0.28163 0.15623 0.98897 0.0
C103 C 0.27725 0.16374 0.07891 0.0
H104 H 0.29905 0.13304 0.95651 0.0
Co105 Co 0.26815 0.15673 0.86273 0.0
C106 C 0.22658 0.16822 0.92094 0.0
O107 O 0.20967 0.14817 0.86935 0.0
N108 N 0.25555 0.15763 0.73293 0.0
C109 C 0.24642 0.17311 0.59617 0.0
C110 C 0.24673 0.17317 0.69899 0.0
C111 C 0.26121 0.14905 0.64793 0.0
N112 N 0.25581 0.15814 0.56375 0.0
O113 O 0.29862 0.18939 0.83202 0.0
H114 H 0.24335 0.18611 0.74408 0.0
H115 H 0.27178 0.13872 0.64767 0.0
O116 O 0.25044 0.17431 0.92122 0.0
C117 C 0.31511 0.1854 0.7863 0.0
O118 O 0.31007 0.16156 0.77508 0.0
N119 N 0.23967 0.12319 0.8906 0.0
C120 C 0.2079 0.07153 0.94665 0.0
C121 C 0.20907 0.09144 1.00524 0.0
C122 C 0.22541 0.11707 0.97712 0.0
C123 C 0.23821 0.10387 0.83183 0.0
C124 C 0.22231 0.07799 0.85781 0.0
H125 H 0.22747 0.13186 0.02841 0.0
H126 H 0.25076 0.10836 0.768 0.0
H127 H 0.26635 0.17359 0.08874 0.0
H128 H 0.30396 0.13181 0.154 0.0
H129 H 0.24148 0.18478 0.54903 0.0
H130 H 0.1987 0.08727 0.0756 0.0
H131 H 0.22214 0.06316 0.81092 0.0
C132 C 0.91497 0.15535 0.94854 0.0
C133 C 0.91567 0.1586 0.05094 0.0
N134 N 0.89767 0.1363 0.0926 0.0
N135 N 0.89666 0.13111 0.9257 0.0
C136 C 0.88589 0.1203 0.01472 0.0
H137 H 0.92801 0.16925 0.89465 0.0
Co138 Co 0.89216 0.11576 0.7995 0.0
C139 C 0.87662 0.06172 0.85835 0.0
O140 O 0.89362 0.06169 0.79605 0.0
N141 N 0.88697 0.10123 0.66987 0.0
C142 C 0.86779 0.07764 0.53386 0.0
C143 C 0.86906 0.07759 0.637 0.0
C144 C 0.89533 0.11543 0.58483 0.0
N145 N 0.88447 0.10151 0.50134 0.0
O146 O 0.86058 0.11684 0.78088 0.0
H147 H 0.85593 0.06179 0.68399 0.0
H148 H 0.90745 0.13615 0.58434 0.0
O149 O 0.87356 0.08139 0.86374 0.0
C150 C 0.86712 0.13896 0.74441 0.0
O151 O 0.89185 0.15539 0.73219 0.0
N152 N 0.92507 0.11751 0.81554 0.0
C153 C 0.97773 0.13755 0.86161 0.0
C154 C 0.95842 0.12161 0.92983 0.0
C155 C 0.93226 0.11158 0.90498 0.0
C156 C 0.94366 0.13137 0.74597 0.0
C157 C 0.96984 0.14075 0.76613 0.0
H158 H 0.91802 0.10117 0.96196 0.0
H159 H 0.93889 0.13729 0.67712 0.0
H160 H 0.87082 0.10051 0.0233 0.0
H161 H 0.92905 0.17576 0.09153 0.0
H162 H 0.85474 0.06171 0.48677 0.0
H163 H 0.96342 0.1184 1.00452 0.0
H164 H 0.98386 0.15193 0.709 0.0
C165 C 0.88786 0.75828 1.00291 0.0
C166 C 0.88521 0.75781 0.10568 0.0
N167 N 0.90879 0.7668 0.14664 0.0
N168 N 0.91295 0.7674 0.97988 0.0
C169 C 0.92505 0.77177 0.06911 0.0
H170 H 0.8728 0.75404 0.94844 0.0
Co171 Co 0.92708 0.77808 0.85306 0.0
C172 C 0.98265 0.81672 0.89125 0.0
O173 O 0.98106 0.83202 0.8243 0.0
N174 N 0.94036 0.7877 0.72286 0.0
C175 C 0.96301 0.79121 0.58516 0.0
C176 C 0.96256 0.78967 0.68776 0.0
C177 C 0.92701 0.78652 0.639 0.0
N178 N 0.94057 0.7891 0.55494 0.0
O179 O 0.92696 0.74618 0.83232 0.0
H180 H 0.97663 0.78775 0.73257 0.0
H181 H 0.90697 0.7816 0.63828 0.0
O182 O 0.96274 0.79479 0.91016 0.0
C183 C 0.90541 0.73007 0.79262 0.0
O184 O 0.88787 0.73694 0.7788 0.0
N185 N 0.92432 0.80809 0.87181 0.0
C186 C 0.90617 0.84157 0.92568 0.0
C187 C 0.92763 0.84279 0.97418 0.0
C188 C 0.93609 0.82557 0.94753 0.0
C189 C 0.90361 0.80698 0.82344 0.0
C190 C 0.89443 0.82366 0.84823 0.0
H191 H 0.95062 0.82505 0.99404 0.0
H192 H 0.89249 0.79152 0.7719 0.0
H193 H 0.94558 0.77961 0.07764 0.0
H194 H 0.86773 0.75298 0.14671 0.0
H195 H 0.97758 0.79143 0.53616 0.0
H196 H 0.93655 0.85558 0.03728 0.0
H197 H 0.87736 0.82159 0.81078 0.0
C198 C 0.8404 0.62613 0.34003 0.0
C199 C 0.84222 0.62787 0.23691 0.0
N200 N 0.84293 0.60715 0.20221 0.0
N201 N 0.83962 0.60421 0.36984 0.0
C202 C 0.84128 0.59316 0.28386 0.0
H203 H 0.8378 0.63902 0.38899 0.0
Co204 Co 0.83112 0.58917 0.49719 0.0
C205 C 0.85034 0.55113 0.4961 0.0
O206 O 0.83499 0.53752 0.56961 0.0
N207 N 0.82195 0.57378 0.62837 0.0
C208 C 0.79881 0.55034 0.7593 0.0
C209 C 0.79976 0.55254 0.65666 0.0
C210 C 0.83435 0.58356 0.71674 0.0
N211 N 0.82035 0.57028 0.79734 0.0
O212 O 0.86191 0.61841 0.55206 0.0
H213 H 0.78462 0.53945 0.60697 0.0
H214 H 0.85292 0.60078 0.72339 0.0
O215 O 0.8503 0.57133 0.46533 0.0
C216 C 0.85581 0.63424 0.59023 0.0
O217 O 0.83154 0.6286 0.58523 0.0
N218 N 0.79983 0.5629 0.44322 0.0
C219 C 0.75038 0.532 0.36287 0.0
C220 C 0.76969 0.52526 0.35109 0.0
C221 C 0.79445 0.54106 0.39168 0.0
C222 C 0.78121 0.56949 0.456 0.0
C223 C 0.75636 0.55418 0.41809 0.0
H224 H 0.8092 0.53599 0.37894 0.0
H225 H 0.78582 0.5869 0.49643 0.0
H226 H 0.83911 0.57414 0.27993 0.0
H227 H 0.84101 0.6421 0.19055 0.0
H228 H 0.78315 0.53542 0.80231 0.0
H229 H 0.76589 0.50832 0.30868 0.0
H230 H 0.74195 0.5598 0.4317 0.0
C231 C 0.44079 0.217 0.38807 0.0
C232 C 0.43912 0.21524 0.28487 0.0
N233 N 0.44554 0.23861 0.2479 0.0
N234 N 0.44832 0.2414 0.41544 0.0
C235 C 0.45011 0.2538 0.32856 0.0
H236 H 0.43888 0.2021 0.43917 0.0
Co237 Co 0.46077 0.25579 0.54156 0.0
C238 C 0.50326 0.30766 0.48179 0.0
O239 O 0.51891 0.30442 0.54195 0.0
N240 N 0.47208 0.26988 0.67058 0.0
C241 C 0.48035 0.29513 0.80419 0.0
C242 C 0.48032 0.29428 0.70137 0.0
C243 C 0.46606 0.25618 0.75697 0.0
N244 N 0.47136 0.27111 0.83909 0.0
O245 O 0.43012 0.25822 0.56436 0.0
H246 H 0.48368 0.31019 0.65354 0.0
H247 H 0.4562 0.23539 0.75983 0.0
O248 O 0.47926 0.29055 0.47911 0.0
C249 C 0.41344 0.23744 0.60711 0.0
O250 O 0.41894 0.21895 0.62032 0.0
N251 N 0.48964 0.2504 0.52156 0.0
C252 C 0.5206 0.22853 0.4752 0.0
C253 C 0.51882 0.24582 0.40903 0.0
C254 C 0.5032 0.25643 0.43329 0.0
C255 C 0.49219 0.23447 0.58826 0.0
C256 C 0.508 0.22395 0.56786 0.0
H257 H 0.50063 0.26802 0.37744 0.0
H258 H 0.48053 0.22809 0.65466 0.0
H259 H 0.45644 0.2741 0.3234 0.0
H260 H 0.43568 0.19873 0.2404 0.0
H261 H 0.48454 0.31178 0.84931 0.0
H262 H 0.52802 0.24981 0.33617 0.0
H263 H 0.50914 0.21111 0.62235 0.0
C264 C 0.8272 0.20825 0.32415 0.0
C265 C 0.82753 0.20771 0.22078 0.0
N266 N 0.80951 0.21308 0.18622 0.0
N267 N 0.80894 0.21383 0.3546 0.0
C268 C 0.79879 0.21688 0.26832 0.0
H269 H 0.83955 0.20467 0.37282 0.0
Co270 Co 0.7978 0.21681 0.48324 0.0
C271 C 0.74209 0.17742 0.46601 0.0
O272 O 0.74293 0.16745 0.55282 0.0
N273 N 0.7863 0.22003 0.61061 0.0
C274 C 0.76423 0.22315 0.73956 0.0
C275 C 0.76604 0.22306 0.63622 0.0
C276 C 0.79674 0.21907 0.69911 0.0
N277 N 0.78345 0.22021 0.77821 0.0
O278 O 0.79775 0.18556 0.52751 0.0
H279 H 0.75306 0.22454 0.58336 0.0
H280 H 0.81394 0.21778 0.70668 0.0
O281 O 0.76222 0.19731 0.43308 0.0
C282 C 0.82023 0.19232 0.56287 0.0
O283 O 0.83819 0.21665 0.55426 0.0
N284 N 0.80139 0.24858 0.44629 0.0
C285 C 0.81904 0.29924 0.38481 0.0
C286 C 0.79301 0.28018 0.37056 0.0
C287 C 0.78443 0.25477 0.40272 0.0
C288 C 0.82623 0.26706 0.4647 0.0
C289 C 0.83543 0.29241 0.43495 0.0
H290 H 0.76464 0.24004 0.38897 0.0
H291 H 0.83926 0.2618 0.50033 0.0
H292 H 0.78332 0.2213 0.26525 0.0
H293 H 0.84024 0.20397 0.17483 0.0
H294 H 0.74959 0.2245 0.7827 0.0
H295 H 0.77973 0.2846 0.33167 0.0
H296 H 0.85548 0.3065 0.44924 0.0
C297 C 0.9587 0.4761 0.3267 0.0
C298 C 0.96149 0.47563 0.42914 0.0
N299 N 0.95212 0.4897 0.47156 0.0
N300 N 0.94767 0.49044 0.30452 0.0
C301 C 0.94448 0.49896 0.39435 0.0
H302 H 0.96295 0.46536 0.2723 0.0
Co303 Co 0.93462 0.49174 0.17801 0.0
C304 C 0.8936 0.5036 0.2389 0.0
O305 O 0.87649 0.48367 0.18733 0.0
N306 N 0.92272 0.49361 0.04823 0.0
C307 C 0.91468 0.50987 0.91107 0.0
C308 C 0.91386 0.5091 0.01406 0.0
C309 C 0.92947 0.48589 0.96369 0.0
N310 N 0.92462 0.49531 0.87944 0.0
O311 O 0.96555 0.52409 0.14872 0.0
H312 H 0.90955 0.52134 0.05958 0.0
H313 H 0.94018 0.47569 0.96418 0.0
O314 O 0.91744 0.50963 0.23765 0.0
C315 C 0.9818 0.5191 0.1069 0.0
O316 O 0.97629 0.49498 0.10295 0.0
N317 N 0.9054 0.45831 0.20309 0.0
C318 C 0.8709 0.40627 0.24818 0.0
C319 C 0.87457 0.42585 0.31517 0.0
C320 C 0.8919 0.45164 0.2915 0.0
C321 C 0.90184 0.43942 0.13719 0.0
C322 C 0.88444 0.41351 0.15719 0.0
H323 H 0.89522 0.46607 0.34688 0.0
H324 H 0.91362 0.44398 0.07116 0.0
H325 H 0.93466 0.50988 0.40431 0.0
H326 H 0.96889 0.46491 0.46924 0.0
H327 H 0.90986 0.52155 0.86347 0.0
H328 H 0.86534 0.42129 0.38795 0.0
H329 H 0.88253 0.39913 0.10343 0.0
C330 C 0.57913 0.48492 0.29408 0.0
C331 C 0.57954 0.4865 0.39723 0.0
N332 N 0.56145 0.46354 0.43364 0.0
N333 N 0.56092 0.46103 0.26615 0.0
C334 C 0.54985 0.44884 0.35268 0.0
H335 H 0.59284 0.49937 0.24338 0.0
Co336 Co 0.55829 0.44637 0.14032 0.0
C337 C 0.54698 0.3939 0.19918 0.0
O338 O 0.5654 0.39663 0.13787 0.0
N339 N 0.55488 0.43196 0.01138 0.0
C340 C 0.53683 0.40684 0.87811 0.0
C341 C 0.53755 0.40788 0.98092 0.0
C342 C 0.56337 0.44539 0.92467 0.0
N343 N 0.55317 0.4305 0.84268 0.0
O344 O 0.52599 0.44586 0.11546 0.0
H345 H 0.5242 0.39246 0.02891 0.0
H346 H 0.57523 0.4661 0.92141 0.0
O347 O 0.54081 0.41155 0.20296 0.0
C348 C 0.53301 0.46774 0.07501 0.0
O349 O 0.55788 0.48449 0.0718 0.0
N350 N 0.59195 0.45024 0.16128 0.0
C351 C 0.64457 0.47158 0.21035 0.0
C352 C 0.62528 0.45437 0.2758 0.0
C353 C 0.59913 0.44395 0.25003 0.0
C354 C 0.61065 0.4659 0.09508 0.0
C355 C 0.63687 0.47609 0.11671 0.0
H356 H 0.5848 0.43256 0.30549 0.0
H357 H 0.60572 0.47255 0.02845 0.0
H358 H 0.53478 0.42892 0.35717 0.0
H359 H 0.59354 0.50245 0.44197 0.0
H360 H 0.52356 0.39048 0.83337 0.0
H361 H 0.63024 0.45039 0.34931 0.0
H362 H 0.65101 0.48878 0.06259 0.0
C363 C 0.5574 0.07227 0.38639 0.0
C364 C 0.55659 0.07162 0.48963 0.0
N365 N 0.57714 0.09324 0.52362 0.0
N366 N 0.57865 0.09404 0.35576 0.0
C367 C 0.59025 0.10624 0.44169 0.0
H368 H 0.54273 0.05811 0.33808 0.0
Co369 Co 0.58911 0.10792 0.22714 0.0
C370 C 0.64545 0.1261 0.238 0.0
O371 O 0.6443 0.11465 0.15271 0.0
N372 N 0.59942 0.12212 0.09966 0.0
C373 C 0.61973 0.14775 0.97032 0.0
C374 C 0.6187 0.14571 0.07338 0.0
C375 C 0.58872 0.11051 0.012 0.0
N376 N 0.60079 0.12548 0.93229 0.0
O377 O 0.59052 0.07746 0.18467 0.0
H378 H 0.63148 0.16033 0.12564 0.0
H379 H 0.57222 0.09142 1.00575 0.0
O380 O 0.62506 0.12498 0.27347 0.0
C381 C 0.56818 0.06005 0.15511 0.0
O382 O 0.54912 0.0651 0.15759 0.0
N383 N 0.58481 0.13576 0.26434 0.0
C384 C 0.56705 0.1685 0.32986 0.0
C385 C 0.59263 0.17443 0.34893 0.0
C386 C 0.60125 0.15775 0.31504 0.0
C387 C 0.5605 0.13058 0.24049 0.0
C388 C 0.55131 0.14674 0.27162 0.0
H389 H 0.62066 0.16203 0.33309 0.0
H390 H 0.54786 0.11321 0.19943 0.0
H391 H 0.60774 0.12472 0.44466 0.0
H392 H 0.54152 0.05702 0.53596 0.0
H393 H 0.63377 0.16401 0.92705 0.0
H394 H 0.60547 0.19117 0.39291 0.0
H395 H 0.53174 0.14186 0.25227 0.0
C396 C 0.52129 0.96219 0.65335 0.0
C397 C 0.52348 0.96192 0.55045 0.0
N398 N 0.51598 0.93765 0.52171 0.0
N399 N 0.51259 0.93819 0.68907 0.0
C400 C 0.50997 0.92384 0.60726 0.0
H401 H 0.5244 0.97851 0.69813 0.0
Co402 Co 0.50107 0.92539 0.8179 0.0
C403 C 0.54089 0.91119 0.78157 0.0
O404 O 0.55787 0.93581 0.77369 0.0
N405 N 0.48929 0.91268 0.94658 0.0
C406 C 0.46483 0.902 0.0828 0.0
C407 C 0.46529 0.90506 0.98081 0.0
C408 C 0.50312 0.91415 0.02938 0.0
N409 N 0.48865 0.90779 0.11368 0.0
O410 O 0.5315 0.95423 0.87768 0.0
H411 H 0.44959 0.90379 0.93592 0.0
H412 H 0.52378 0.92157 0.02873 0.0
O413 O 0.51761 0.90434 0.80568 0.0
C414 C 0.52515 0.97035 0.91043 0.0
O415 O 0.50175 0.9661 0.8906 0.0
N416 N 0.47003 0.89883 0.76305 0.0
C417 C 0.41961 0.86375 0.7035 0.0
C418 C 0.4361 0.85507 0.73917 0.0
C419 C 0.4613 0.87301 0.76991 0.0
C420 C 0.45448 0.90749 0.72524 0.0
C421 C 0.4292 0.8903 0.6954 0.0
H422 H 0.47323 0.86613 0.80353 0.0
H423 H 0.46145 0.92797 0.72238 0.0
H424 H 0.50263 0.90329 0.61026 0.0
H425 H 0.52843 0.97793 0.50014 0.0
H426 H 0.44877 0.89821 0.13125 0.0
H427 H 0.42918 0.83467 0.7476 0.0
H428 H 0.417 0.89769 0.66838 0.0
C429 C 0.10495 0.54673 0.68487 0.0
C430 C 0.10225 0.54453 0.58264 0.0
N431 N 0.10753 0.56754 0.54474 0.0
N432 N 0.11214 0.57106 0.71158 0.0
C433 C 0.11318 0.5832 0.6249 0.0
H434 H 0.10395 0.53218 0.73579 0.0
Co435 Co 0.1246 0.58405 0.83813 0.0
C436 C 0.14405 0.63969 0.81 0.0
O437 O 0.13045 0.63956 0.88759 0.0
N438 N 0.1368 0.59618 0.96546 0.0
C439 C 0.15994 0.61376 0.10246 0.0
C440 C 0.16029 0.61397 0.99909 0.0
C441 C 0.12273 0.58546 0.04835 0.0
N442 N 0.13618 0.59565 0.13354 0.0
O443 O 0.09389 0.58672 0.86609 0.0
H444 H 0.17675 0.62569 0.95173 0.0
H445 H 0.10296 0.57026 0.04474 0.0
O446 O 0.14332 0.61888 0.78363 0.0
C447 C 0.07382 0.56484 0.88183 0.0
O448 O 0.07569 0.54403 0.87108 0.0
N449 N 0.15304 0.57924 0.81457 0.0
C450 C 0.18658 0.5606 0.76968 0.0
C451 C 0.18586 0.57953 0.70928 0.0
C452 C 0.16904 0.58876 0.73344 0.0
C453 C 0.15411 0.56155 0.87578 0.0
C454 C 0.17099 0.55233 0.85574 0.0
H455 H 0.16764 0.60218 0.68309 0.0
H456 H 0.14087 0.5536 0.93815 0.0
H457 H 0.11965 0.60353 0.61972 0.0
H458 H 0.0991 0.52794 0.53944 0.0
H459 H 0.17623 0.62549 0.15064 0.0
H460 H 0.19695 0.58602 0.64065 0.0
H461 H 0.17095 0.53791 0.905 0.0
C462 C 0.49733 0.5431 0.65259 0.0
C463 C 0.49848 0.54376 0.54938 0.0
N464 N 0.47815 0.54539 0.51477 0.0
N465 N 0.47609 0.54387 0.68251 0.0
C466 C 0.46485 0.54515 0.59638 0.0
H467 H 0.51165 0.5429 0.70154 0.0
Co468 Co 0.46509 0.54653 0.81072 0.0
C469 C 0.40942 0.50798 0.79574 0.0
O470 O 0.41108 0.49732 0.87956 0.0
N471 N 0.45424 0.5497 0.938 0.0
C472 C 0.43341 0.55431 0.0673 0.0
C473 C 0.43428 0.5531 0.9643 0.0
C474 C 0.46548 0.54954 0.02555 0.0
N475 N 0.45314 0.55205 0.10528 0.0
O476 O 0.46358 0.51446 0.8506 0.0
H477 H 0.42101 0.5543 0.91211 0.0
H478 H 0.48262 0.54786 0.03164 0.0
O479 O 0.42933 0.52797 0.76213 0.0
C480 C 0.48558 0.51888 0.88293 0.0
O481 O 0.50476 0.54278 0.88353 0.0
N482 N 0.46946 0.57881 0.77574 0.0
C483 C 0.48715 0.6297 0.7164 0.0
C484 C 0.46145 0.61043 0.69767 0.0
C485 C 0.45288 0.58494 0.72846 0.0
C486 C 0.49405 0.5974 0.79763 0.0
C487 C 0.50326 0.62288 0.76891 0.0
H488 H 0.43335 0.57016 0.71111 0.0
H489 H 0.50686 0.59216 0.83527 0.0
H490 H 0.44736 0.54631 0.59324 0.0
H491 H 0.51353 0.54396 0.50351 0.0
H492 H 0.419 0.55599 0.1106 0.0
H493 H 0.44844 0.61479 0.6564 0.0
H494 H 0.52309 0.6371 0.78608 0.0
C495 C 0.61987 0.80102 0.66638 0.0
C496 C 0.62173 0.80094 0.76953 0.0
N497 N 0.61687 0.81903 0.80618 0.0
N498 N 0.61381 0.81904 0.63856 0.0
C499 C 0.61301 0.83023 0.72528 0.0
H500 H 0.62058 0.7873 0.61572 0.0
Co501 Co 0.60158 0.82164 0.5121 0.0
C502 C 0.56342 0.83775 0.58121 0.0
O503 O 0.54407 0.81805 0.53628 0.0
N504 N 0.59042 0.82481 0.38345 0.0
C505 C 0.58147 0.84104 0.24879 0.0
C506 C 0.5812 0.84018 0.35161 0.0
C507 C 0.59696 0.81737 0.29781 0.0
N508 N 0.5913 0.82657 0.21481 0.0
O509 O 0.63337 0.85311 0.48535 0.0
H510 H 0.57688 0.85219 0.39835 0.0
H511 H 0.6071 0.80659 0.29655 0.0
O512 O 0.5863 0.84115 0.5727 0.0
C513 C 0.65045 0.84806 0.45266 0.0
O514 O 0.64505 0.82396 0.45074 0.0
N515 N 0.57126 0.78897 0.53482 0.0
C516 C 0.53712 0.73693 0.58104 0.0
C517 C 0.54055 0.75656 0.64739 0.0
C518 C 0.55776 0.78239 0.62313 0.0
C519 C 0.56754 0.77005 0.46874 0.0
C520 C 0.55036 0.74414 0.48945 0.0
H521 H 0.56147 0.79688 0.6787 0.0
H522 H 0.5793 0.7746 0.4026 0.0
H523 H 0.60774 0.84503 0.7304 0.0
H524 H 0.6241 0.78714 0.81428 0.0
H525 H 0.57675 0.85311 0.2032 0.0
H526 H 0.53145 0.75201 0.72043 0.0
H527 H 0.54856 0.72971 0.43615 0.0
C528 C 0.25476 0.82714 0.67591 0.0
C529 C 0.2554 0.83028 0.77833 0.0
N530 N 0.2342 0.81014 0.81798 0.0
N531 N 0.23352 0.80482 0.6509 0.0
C532 C 0.22094 0.79542 0.73857 0.0
H533 H 0.26989 0.83922 0.62392 0.0
Co534 Co 0.22845 0.78889 0.52515 0.0
C535 C 0.20917 0.73381 0.58193 0.0
O536 O 0.22576 0.73318 0.51888 0.0
N537 N 0.22304 0.77407 0.39495 0.0
C538 C 0.20082 0.75171 0.26047 0.0
C539 C 0.20275 0.75158 0.36333 0.0
C540 C 0.23254 0.78773 0.30886 0.0
N541 N 0.21945 0.77461 0.22649 0.0
O542 O 0.19809 0.79184 0.5021 0.0
H543 H 0.18839 0.73697 0.41138 0.0
H544 H 0.2468 0.80798 0.30686 0.0
O545 O 0.20768 0.7544 0.58966 0.0
C546 C 0.20533 0.81272 0.45366 0.0
O547 O 0.23028 0.82866 0.4441 0.0
N548 N 0.25997 0.78835 0.54462 0.0
C549 C 0.31115 0.8029 0.59451 0.0
C550 C 0.29083 0.78744 0.65952 0.0
C551 C 0.26535 0.7802 0.63294 0.0
C552 C 0.27963 0.80277 0.47965 0.0
C553 C 0.30521 0.80981 0.50218 0.0
H554 H 0.25034 0.77008 0.68786 0.0
H555 H 0.27616 0.81102 0.41404 0.0
H556 H 0.20325 0.77732 0.74469 0.0
H557 H 0.27105 0.8454 0.82089 0.0
H558 H 0.1859 0.73673 0.21488 0.0
H559 H 0.29475 0.7822 0.73258 0.0
H560 H 0.32046 0.82244 0.4514 0.0
C561 C 0.22604 0.40483 0.70186 0.0
C562 C 0.22499 0.4045 0.80508 0.0
N563 N 0.24397 0.42728 0.83869 0.0
N564 N 0.2459 0.42762 0.67069 0.0
C565 C 0.25632 0.44071 0.75634 0.0
H566 H 0.21284 0.38933 0.654 0.0
Co567 Co 0.25758 0.44116 0.54193 0.0
C568 C 0.31375 0.45849 0.56211 0.0
O569 O 0.31387 0.44817 0.47544 0.0
N570 N 0.2691 0.45502 0.41464 0.0
C571 C 0.29005 0.48047 0.28554 0.0
C572 C 0.28891 0.47834 0.38861 0.0
C573 C 0.25826 0.44364 0.32678 0.0
N574 N 0.27067 0.45852 0.24728 0.0
O575 O 0.25838 0.41024 0.50319 0.0
H576 H 0.3018 0.49282 0.44107 0.0
H577 H 0.24125 0.42491 0.32022 0.0
O578 O 0.29303 0.45741 0.59345 0.0
C579 C 0.23582 0.39374 0.4722 0.0
O580 O 0.21765 0.4001 0.47369 0.0
N581 N 0.2538 0.46951 0.5746 0.0
C582 C 0.23651 0.50329 0.63087 0.0
C583 C 0.26196 0.50902 0.65247 0.0
C584 C 0.2704 0.49192 0.62248 0.0
C585 C 0.22959 0.46432 0.54915 0.0
C586 C 0.22063 0.48094 0.57585 0.0
H587 H 0.28973 0.49615 0.64174 0.0
H588 H 0.21685 0.4466 0.51029 0.0
H589 H 0.27295 0.45979 0.75867 0.0
H590 H 0.21114 0.38893 0.85167 0.0
H591 H 0.30428 0.49663 0.24238 0.0
H592 H 0.27483 0.52591 0.69565 0.0
H593 H 0.20106 0.47594 0.55574 0.0
C594 C 0.18141 0.27 0.57601 0.0
C595 C 0.16236 0.24462 0.55197 0.0
C596 C 0.1866 0.27838 0.67589 0.0
C597 C 0.17323 0.26162 0.75557 0.0
H598 H 0.19161 0.28382 0.51725 0.0
H599 H 0.20082 0.29826 0.69099 0.0
S600 S 0.12292 0.19269 0.73319 0.0
N601 N 0.13155 0.20231 0.61649 0.0
N602 N 0.14065 0.21815 0.80361 0.0
C603 C 0.15491 0.2359 0.73277 0.0
C604 C 0.14966 0.22739 0.63118 0.0
C605 C 0.77992 0.9287 0.62251 0.0
C606 C 0.79357 0.9205 0.56062 0.0
C607 C 0.77381 0.92018 0.7219 0.0
C608 C 0.78082 0.90292 0.76314 0.0
H609 H 0.77382 0.94176 0.59394 0.0
H610 H 0.76354 0.92718 0.76717 0.0
S611 S 0.81772 0.87651 0.63476 0.0
N612 N 0.81451 0.89468 0.54901 0.0
N613 N 0.80285 0.87851 0.73576 0.0
C614 C 0.79426 0.89437 0.70213 0.0
C615 C 0.80063 0.90316 0.6009 0.0
C616 C 0.12668 0.86201 0.74691 0.0
C617 C 0.14446 0.88628 0.78596 0.0
C618 C 0.11789 0.85924 0.64771 0.0
C619 C 0.12657 0.88064 0.58333 0.0
H620 H 0.11945 0.84503 0.79372 0.0
H621 H 0.10428 0.84013 0.62121 0.0
S622 S 0.17143 0.94869 0.65124 0.0
N623 N 0.1693 0.93236 0.7541 0.0
N624 N 0.15297 0.92705 0.56729 0.0
C625 C 0.14425 0.90504 0.62148 0.0
C626 C 0.15316 0.9079 0.72276 0.0
C627 C 0.27227 0.17835 0.39815 0.0
C628 C 0.26356 0.15688 0.46226 0.0
C629 C 0.27988 0.17766 0.29943 0.0
C630 C 0.2792 0.15555 0.26053 0.0
H631 H 0.27359 0.19602 0.42474 0.0
H632 H 0.2864 0.19462 0.25294 0.0
S633 S 0.25641 0.09361 0.39501 0.0
N634 N 0.25383 0.11255 0.47841 0.0
N635 N 0.26804 0.11119 0.29257 0.0
C636 C 0.27054 0.13391 0.3236 0.0
C637 C 0.26276 0.1346 0.42442 0.0
C638 C 0.86673 0.10255 0.33454 0.0
C639 C 0.88799 0.11098 0.39979 0.0
C640 C 0.86996 0.11144 0.23517 0.0
C641 C 0.89456 0.12904 0.19721 0.0
H642 H 0.84745 0.08908 0.36069 0.0
H643 H 0.85309 0.10441 0.18738 0.0
S644 S 0.95666 0.15525 0.33594 0.0
N645 N 0.9345 0.13695 0.41866 0.0
N646 N 0.94073 0.15335 0.23195 0.0
C647 C 0.91599 0.13745 0.26179 0.0
C648 C 0.91266 0.12849 0.36298 0.0
C649 C 0.9008 0.75667 0.32695 0.0
C650 C 0.91587 0.77348 0.24989 0.0
C651 C 0.90841 0.7623 0.42765 0.0
C652 C 0.93131 0.78488 0.45374 0.0
H653 H 0.88351 0.73875 0.30883 0.0
H654 H 0.89693 0.74855 0.48509 0.0
S655 S 0.97531 0.83689 0.28245 0.0
N656 N 0.95294 0.81511 0.2083 0.0
N657 N 0.96764 0.82503 0.39712 0.0
C658 C 0.9459 0.80225 0.37813 0.0
C659 C 0.93806 0.79674 0.27617 0.0
C660 C 0.85701 0.60089 0.03589 0.0
C661 C 0.83722 0.59753 0.10154 0.0
C662 C 0.85134 0.59156 0.93696 0.0
C663 C 0.82568 0.5784 0.90098 0.0
H664 H 0.8769 0.61091 0.06119 0.0
H665 H 0.86713 0.59464 0.88827 0.0
S666 S 0.76725 0.56543 0.04619 0.0
N667 N 0.79139 0.58051 0.12603 0.0
N668 N 0.78047 0.56336 0.94049 0.0
C669 C 0.80579 0.57498 0.96719 0.0
C670 C 0.81165 0.58447 0.06738 0.0
C671 C 0.43619 0.23197 0.06648 0.0
C672 C 0.45217 0.247 0.14551 0.0
C673 C 0.4426 0.23979 0.96626 0.0
C674 C 0.46532 0.26282 0.94183 0.0
H675 H 0.41847 0.21426 0.08256 0.0
H676 H 0.42946 0.22799 0.9077 0.0
S677 S 0.51518 0.30741 0.12047 0.0
N678 N 0.49271 0.28493 0.19198 0.0
N679 N 0.50469 0.29947 1.00421 0.0
C680 C 0.48174 0.27763 0.0201 0.0
C681 C 0.47521 0.26976 0.12179 0.0
C682 C 0.78934 0.23465 0.95442 0.0
C683 C 0.78849 0.21736 0.88159 0.0
C684 C 0.79626 0.23316 0.05392 0.0
C685 C 0.80253 0.21432 0.0837 0.0
H686 H 0.78529 0.24978 0.93358 0.0
H687 H 0.7972 0.24714 0.10761 0.0
S688 S 0.79919 0.16214 0.92419 0.0
N689 N 0.79179 0.17926 0.84777 0.0
N690 N 0.80481 0.17648 0.0344 0.0
C691 C 0.80081 0.19637 0.01214 0.0
C692 C 0.79375 0.19787 0.91119 0.0
C693 C 0.94214 0.5153 0.71446 0.0
C694 C 0.9324 0.49375 0.7785 0.0
C695 C 0.94917 0.51399 0.61529 0.0
C696 C 0.94686 0.49114 0.57625 0.0
H697 H 0.94441 0.53336 0.74128 0.0
H698 H 0.95638 0.53096 0.56841 0.0
S699 S 0.92115 0.42893 0.71159 0.0
N700 N 0.92017 0.44873 0.79511 0.0
N701 N 0.93325 0.44617 0.6087 0.0
C702 C 0.9373 0.46948 0.63968 0.0
C703 C 0.93013 0.47083 0.74075 0.0
C704 C 0.55924 0.46314 0.71502 0.0
C705 C 0.55593 0.43879 0.73961 0.0
C706 C 0.56084 0.47103 0.61498 0.0
C707 C 0.55922 0.45488 0.53583 0.0
H708 H 0.56026 0.47609 0.77321 0.0
H709 H 0.5631 0.48979 0.5992 0.0
S710 S 0.55432 0.39078 0.56021 0.0
N711 N 0.55353 0.39963 0.67668 0.0
N712 N 0.55671 0.41442 0.48887 0.0
C713 C 0.55676 0.43081 0.55931 0.0
C714 C 0.55509 0.42279 0.6611 0.0
C715 C 0.58105 0.08439 0.7009 0.0
C716 C 0.58304 0.10169 0.62576 0.0
C717 C 0.58713 0.09241 0.80063 0.0
C718 C 0.59522 0.11798 0.82878 0.0
H719 H 0.57514 0.06463 0.68198 0.0
H720 H 0.58575 0.07854 0.85602 0.0
S721 S 0.6009 0.16999 0.66095 0.0
N722 N 0.592 0.14501 0.58626 0.0
N723 N 0.60328 0.16009 0.77413 0.0
C724 C 0.59686 0.13536 0.75438 0.0
C725 C 0.59075 0.1272 0.65274 0.0
C726 C 0.52738 0.94221 0.34198 0.0
C727 C 0.51065 0.9279 0.42054 0.0
C728 C 0.52108 0.93448 0.24167 0.0
C729 C 0.49751 0.91248 0.2163 0.0
H730 H 0.54515 0.95986 0.3582 0.0
H731 H 0.53403 0.94669 0.18351 0.0
S732 S 0.448 0.86719 0.39413 0.0
N733 N 0.47017 0.8898 0.46612 0.0
N734 N 0.45865 0.8752 0.27818 0.0
C735 C 0.48133 0.89728 0.29449 0.0
C736 C 0.48777 0.90503 0.39642 0.0
C737 C 0.13289 0.5996 0.41441 0.0
C738 C 0.11245 0.57515 0.44089 0.0
C739 C 0.14007 0.6062 0.31416 0.0
C740 C 0.1274 0.58855 0.23593 0.0
H741 H 0.14409 0.61352 0.47162 0.0
H742 H 0.15592 0.62529 0.29828 0.0
S743 S 0.07114 0.52235 0.26645 0.0
N744 N 0.07804 0.53403 0.38125 0.0
N745 N 0.09259 0.54533 0.19374 0.0
C746 C 0.1064 0.56412 0.26164 0.0
C747 C 0.09873 0.55772 0.36376 0.0
C748 C 0.47511 0.5329 0.33764 0.0
C749 C 0.47216 0.54771 0.41225 0.0
C750 C 0.46875 0.5344 0.23777 0.0
C751 C 0.45925 0.55079 0.20884 0.0
H752 H 0.48198 0.51976 0.35704 0.0
H753 H 0.47101 0.52241 0.18291 0.0
S754 S 0.45075 0.59565 0.37453 0.0
N755 N 0.46096 0.58067 0.45001 0.0
N756 N 0.44894 0.58344 0.2619 0.0
C757 C 0.45669 0.56608 0.28253 0.0
C758 C 0.46318 0.56457 0.38433 0.0
C759 C 0.61957 0.82276 0.08799 0.0
C760 C 0.59727 0.82413 0.11202 0.0
C761 C 0.62597 0.82121 0.98788 0.0
C762 C 0.61044 0.82119 0.90844 0.0
H763 H 0.63242 0.82338 0.14673 0.0
H764 H 0.64333 0.82034 0.97222 0.0
S765 S 0.54859 0.82158 0.93145 0.0
N766 N 0.55864 0.82326 0.04806 0.0
N767 N 0.57083 0.82074 0.86079 0.0
C768 C 0.58785 0.82202 0.93157 0.0
C769 C 0.58125 0.82341 0.03311 0.0
C770 C 0.24761 0.79802 0.08323 0.0
C771 C 0.22278 0.78443 0.12534 0.0
C772 C 0.25123 0.80685 0.98365 0.0
C773 C 0.23016 0.80263 0.92248 0.0
H774 H 0.26427 0.80122 0.12697 0.0
H775 H 0.27064 0.8164 0.95345 0.0
S776 S 0.1616 0.77137 1.00192 0.0
N777 N 0.17702 0.76935 0.10155 0.0
N778 N 0.18386 0.78605 0.91469 0.0
C779 C 0.20533 0.78996 0.96507 0.0
C780 C 0.20163 0.78086 0.06637 0.0
C781 C 0.24885 0.41797 0.01468 0.0
C782 C 0.25045 0.43549 0.94106 0.0
C783 C 0.25574 0.42576 0.11418 0.0
C784 C 0.26452 0.45135 0.14373 0.0
H785 H 0.24261 0.3982 0.99485 0.0
H786 H 0.2544 0.41169 0.16839 0.0
S787 S 0.26996 0.50411 0.98117 0.0
N788 N 0.25989 0.47918 0.90529 0.0
N789 N 0.27307 0.49384 0.09258 0.0
C790 C 0.26595 0.46902 0.07109 0.0
C791 C 0.25883 0.46107 0.9697 0.0
C792 C 0.20464 0.34737 0.45957 0.0
C793 C 0.22882 0.36805 0.43196 0.0
C794 C 0.19257 0.32478 0.40294 0.0
C795 C 0.20419 0.32171 0.31646 0.0
H796 H 0.19407 0.34936 0.52167 0.0
H797 H 0.17325 0.31007 0.42427 0.0
S798 S 0.26877 0.36892 0.21785 0.0
N799 N 0.26513 0.38328 0.31728 0.0
N800 N 0.24239 0.34033 0.21075 0.0
C801 C 0.22934 0.34129 0.29239 0.0
C802 C 0.24171 0.3646 0.35032 0.0
C803 C 0.72123 0.88161 0.39601 0.0
C804 C 0.72234 0.89026 0.29689 0.0
C805 C 0.69816 0.87043 0.45081 0.0
C806 C 0.6753 0.86771 0.40921 0.0
H807 H 0.73798 0.88189 0.42925 0.0
H808 H 0.69778 0.86218 0.52363 0.0
S809 S 0.66822 0.88923 0.15618 0.0
N810 N 0.69899 0.89709 0.162 0.0
N811 N 0.65545 0.87617 0.26574 0.0
C812 C 0.67651 0.87808 0.31322 0.0
C813 C 0.70012 0.88942 0.25685 0.0
C814 C 0.19547 0.8281 0.296 0.0
C815 C 0.18742 0.8176 0.39257 0.0
C816 C 0.18252 0.83844 0.24252 0.0
C817 C 0.16086 0.83851 0.28297 0.0
H818 H 0.21285 0.82967 0.26363 0.0
H819 H 0.19063 0.84811 0.172 0.0
S820 S 0.13036 0.81108 0.5282 0.0
N821 N 0.15507 0.80584 0.52276 0.0
N822 N 0.13067 0.82552 0.42194 0.0
C823 C 0.15133 0.82629 0.37592 0.0
C824 C 0.1646 0.81569 0.43077 0.0
C825 C 0.38497 0.23579 0.74647 0.0
C826 C 0.38816 0.23294 0.64346 0.0
C827 C 0.36039 0.22263 0.79193 0.0
C828 C 0.33834 0.20598 0.73579 0.0
H829 H 0.40182 0.2464 0.79376 0.0
H830 H 0.35903 0.22359 0.87264 0.0
S831 S 0.33631 0.19334 0.46294 0.0
N832 N 0.36709 0.21373 0.48622 0.0
N833 N 0.32114 0.18885 0.57096 0.0
C834 C 0.34115 0.20448 0.63174 0.0
C835 C 0.36602 0.21799 0.58568 0.0
C836 C 0.83084 0.13669 0.63918 0.0
C837 C 0.8486 0.14776 0.71884 0.0
C838 C 0.81966 0.15017 0.59298 0.0
C839 C 0.8264 0.17522 0.62411 0.0
H840 H 0.82716 0.11853 0.60746 0.0
H841 H 0.80737 0.14182 0.52797 0.0
S842 S 0.86933 0.21076 0.83873 0.0
N843 N 0.86976 0.18346 0.83432 0.0
N844 N 0.85005 0.20912 0.74667 0.0
C845 C 0.84277 0.18546 0.70824 0.0
C846 C 0.85352 0.17162 0.75585 0.0
C847 C 0.90836 0.70117 0.66484 0.0
C848 C 0.89929 0.70421 0.75847 0.0
C849 C 0.89578 0.67741 0.61355 0.0
C850 C 0.87363 0.65622 0.65411 0.0
H851 H 0.92379 0.71775 0.6273 0.0
H852 H 0.90204 0.6763 0.53845 0.0
S853 S 0.84434 0.65367 0.90214 0.0
N854 N 0.86867 0.68348 0.89351 0.0
N855 N 0.84487 0.63924 0.79755 0.0
C856 C 0.86572 0.65865 0.75082 0.0
C857 C 0.87859 0.68258 0.8029 0.0
C858 C 1.00341 0.5312 0.94202 0.0
C859 C 1.00325 0.53783 0.04304 0.0
C860 C 1.02617 0.54278 0.88527 0.0
C861 C 0.04969 0.56163 0.92685 0.0
H862 H 0.98626 0.51537 0.90892 0.0
H863 H 1.0258 0.53529 0.81099 0.0
S864 S 0.05897 0.58823 0.18416 0.0
N865 N 1.028 0.56613 0.1797 0.0
N866 N 0.0708 0.5886 0.07181 0.0
C867 C 0.04928 0.57035 0.02452 0.0
C868 C 1.02602 0.55823 0.0831 0.0
C869 C 0.51322 0.49923 0.87669 0.0
C870 C 0.49118 0.4986 0.91665 0.0
C871 C 0.52511 0.48719 0.92544 0.0
C872 C 0.51551 0.4738 0.01621 0.0
H873 H 0.52255 0.51083 0.81097 0.0
H874 H 0.54312 0.48996 0.8952 0.0
S875 S 0.45664 0.46415 0.14738 0.0
N876 N 0.45875 0.48173 0.04819 0.0
N877 N 0.48121 0.45873 0.14011 0.0
C878 C 0.49223 0.47115 0.0532 0.0
C879 C 0.48004 0.48365 1.00323 0.0
C880 C 0.57549 0.03424 0.02326 0.0
C881 C 0.56274 0.03515 0.11081 0.0
C882 C 0.56459 1.01209 0.96152 0.0
C883 C 0.54064 0.9904 0.98572 0.0
H884 H 0.59269 0.05139 0.99792 0.0
H885 H 0.57382 1.01275 0.89089 0.0
S886 S 0.50151 0.98214 0.21297 0.0
N887 N 0.5266 1.01144 0.22354 0.0
N888 N 0.50598 0.9705 0.10753 0.0
C889 C 0.52893 0.99056 0.07676 0.0
C890 C 0.54005 1.01275 0.1394 0.0
C891 C 0.18404 0.17878 0.10277 0.0
C892 C 0.19558 0.20576 0.10763 0.0
C893 C 0.19441 0.16698 0.04262 0.0
C894 C 0.21712 0.18162 0.98686 0.0
H895 H 0.16627 0.16658 0.14288 0.0
H896 H 0.1845 0.14614 0.03958 0.0
S897 S 0.2556 0.25281 0.97658 0.0
N898 N 0.23136 0.24681 0.05242 0.0
N899 N 0.25138 0.22445 0.94242 0.0
C900 C 0.22943 0.20856 0.99347 0.0
C901 C 0.2185 0.22066 0.05289 0.0
C902 C 0.83464 0.99255 0.94536 0.0
C903 C 0.83853 0.99435 0.04985 0.0
C904 C 0.84645 1.01459 0.88393 0.0
C905 C 0.86202 0.03923 0.92508 0.0
H906 H 0.82356 0.97393 0.91007 0.0
H907 H 0.84381 1.01229 0.80345 0.0
S908 S 0.87779 0.0544 0.19435 0.0
N909 N 0.85879 0.02282 0.19169 0.0
N910 N 0.88052 0.0641 0.07675 0.0
C911 C 0.8654 0.04135 0.02959 0.0
C912 C 0.85379 0.01893 0.09182 0.0
C913 C 1.00643 0.82208 0.05326 0.0
C914 C 1.00701 0.82621 0.94917 0.0
C915 C 0.02909 0.83437 0.11145 0.0
C916 C 0.05326 0.8505 0.06709 0.0
H917 H 0.98826 0.81035 0.09095 0.0
H918 H 1.02763 0.83163 0.192 0.0
S919 S 0.06561 0.86611 0.79647 0.0
N920 N 0.03403 0.84672 0.80363 0.0
N921 N 0.07656 0.86913 0.91234 0.0
C922 C 0.0543 0.85381 0.96258 0.0
C923 C 0.03119 0.84181 0.90375 0.0
C924 C 0.86742 0.84286 0.98942 0.0
C925 C 0.89383 0.8562 0.9642 0.0
C926 C 0.85515 0.85576 0.02806 0.0
C927 C 0.86868 0.8826 0.04229 0.0
H928 H 0.85618 0.82216 0.98033 0.0
H929 H 0.83475 0.84462 0.04586 0.0
S930 S 0.93805 0.92656 0.98759 0.0
N931 N 0.93316 0.89778 0.95624 0.0
N932 N 0.90995 0.92213 0.02804 0.0
C933 C 0.89505 0.89624 0.0169 0.0
C934 C 0.90767 0.88302 0.97851 0.0
C935 C 0.16757 0.03275 0.0108 0.0
C936 C 0.19383 0.04447 0.98349 0.0
C937 C 0.15437 1.00746 0.04882 0.0
C938 C 0.16717 0.99331 0.06309 0.0
H939 H 0.15717 0.04319 1.00226 0.0
H940 H 0.13416 0.99905 0.06864 0.0
S941 S 0.23578 1.01518 1.00394 0.0
N942 N 0.23203 0.03988 0.97355 0.0
N943 N 0.20735 0.99262 0.04538 0.0
C944 C 0.19336 1.0048 0.03599 0.0
C945 C 0.20666 0.03031 0.99616 0.0
C946 C 1.01697 0.14176 0.95314 0.0
C947 C 1.00555 0.15283 0.89301 0.0
C948 C 0.04261 0.15641 0.98805 0.0
C949 C 0.05786 0.18276 0.96461 0.0
H950 H 1.00595 0.12165 0.97418 0.0
H951 H 0.05025 0.14719 0.03626 0.0
S952 S 0.03773 0.22098 0.80711 0.0
N953 N 1.01188 0.1921 0.81226 0.0
N954 N 0.06015 0.21887 0.8722 0.0
C955 C 0.04697 0.19384 0.90204 0.0
C956 C 1.02086 0.17911 0.86777 0.0
C957 C 0.86264 0.50169 0.36778 0.0
C958 C 0.88437 0.51668 0.3076 0.0
C959 C 0.85252 0.51312 0.43131 0.0
C960 C 0.86332 0.54003 0.43537 0.0
H961 H 0.85332 0.48087 0.36574 0.0
H962 H 0.83553 0.50063 0.47508 0.0
S963 S 0.92062 0.58789 0.29258 0.0
N964 N 0.91692 0.55978 0.25755 0.0
N965 N 0.8973 0.58141 0.374 0.0
C966 C 0.88523 0.55529 0.37585 0.0
C967 C 0.89594 0.54359 0.31291 0.0
C968 C 0.51058 0.36218 0.31001 0.0
C969 C 0.53562 0.37176 0.2704 0.0
C970 C 0.49992 0.34119 0.37735 0.0
C971 C 0.51421 0.32956 0.40973 0.0
H972 H 0.49905 0.37077 0.28801 0.0
H973 H 0.48054 0.3343 0.40544 0.0
S974 S 0.58062 0.34744 0.32908 0.0
N975 N 0.57428 0.36779 0.26903 0.0
N976 N 0.55454 0.32899 0.39565 0.0
C977 C 0.53926 0.33909 0.37103 0.0
C978 C 0.54988 0.36001 0.30151 0.0
C979 C 0.69361 0.1533 0.45442 0.0
C980 C 0.71777 0.16526 0.406 0.0
C981 C 0.67036 0.14122 0.39954 0.0
C982 C 0.67032 0.14003 0.29402 0.0
H983 H 0.69262 0.15339 0.5355 0.0
H984 H 0.6523 0.13221 0.4404 0.0
S985 S 0.72842 0.16812 0.13092 0.0
N986 N 0.74013 0.1751 0.24599 0.0
N987 N 0.69665 0.15215 0.14325 0.0
C988 C 0.69435 0.15188 0.24468 0.0
C989 C 0.71799 0.16457 0.30049 0.0
C990 C 0.56875 0.21093 0.36166 0.0
C991 C 0.55609 0.18399 0.37327 0.0
C992 C 0.55741 0.22532 0.39568 0.0
C993 C 0.53313 0.21335 0.44369 0.0
H994 H 0.58721 0.22087 0.32363 0.0
H995 H 0.56767 0.24595 0.38395 0.0
S996 S 0.4925 0.14332 0.49526 0.0
N997 N 0.51852 0.14611 0.44012 0.0
N998 N 0.49689 0.17275 0.50042 0.0
C999 C 0.52055 0.18645 0.45707 0.0
C1000 C 0.5321 0.17191 0.4229 0.0
C1001 C 0.85378 0.33674 0.2915 0.0
C1002 C 0.83015 0.32586 0.3436 0.0
C1003 C 0.86632 0.36241 0.25947 0.0
C1004 C 0.85578 0.37849 0.27741 0.0
H1005 H 0.86297 0.32538 0.27663 0.0
H1006 H 0.88489 0.36989 0.2229 0.0
S1007 S 0.79346 0.35906 0.40524 0.0
N1008 N 0.79617 0.33292 0.40881 0.0
N1009 N 0.81941 0.38114 0.34616 0.0
C1010 C 0.83172 0.36768 0.32672 0.0
C1011 C 0.81893 0.34139 0.35981 0.0
C1012 C 0.70985 0.48956 0.32993 0.0
C1013 C 0.72417 0.51646 0.31711 0.0
C1014 C 0.68428 0.47506 0.29429 0.0
C1015 C 0.67215 0.48688 0.24351 0.0
H1016 H 0.7182 0.47972 0.37029 0.0
H1017 H 0.67389 0.45446 0.30704 0.0
S1018 S 0.70166 0.55676 0.18795 0.0
N1019 N 0.72468 0.55414 0.24624 0.0
N1020 N 0.67667 0.52731 0.18293 0.0
C1021 C 0.6865 0.51374 0.22893 0.0
C1022 C 0.71245 0.5284 0.26471 0.0
C1023 C 0.53291 0.85034 0.65813 0.0
C1024 C 0.55851 0.85621 0.63917 0.0
C1025 C 0.52743 0.86766 0.7084 0.0
C1026 C 0.54731 0.89176 0.74172 0.0
H1027 H 0.51679 0.83231 0.63265 0.0
H1028 H 0.50738 0.8624 0.71774 0.0
S1029 S 0.61775 0.9159 0.71829 0.0
N1030 N 0.60405 0.88747 0.6632 0.0
N1031 N 0.59376 0.91992 0.75754 0.0
C1032 C 0.57303 0.89755 0.72648 0.0
C1033 C 0.57863 0.87984 0.67546 0.0
C1034 C 0.18359 0.68575 0.59957 0.0
C1035 C 0.19211 0.71026 0.64146 0.0
C1036 C 0.16814 0.66311 0.65438 0.0
C1037 C 0.16045 0.66397 0.75346 0.0
H1038 H 0.18882 0.68402 0.52341 0.0
H1039 H 0.16211 0.64479 0.61846 0.0
S1040 S 0.18053 0.72315 0.90279 0.0
N1041 N 0.19383 0.7338 0.79184 0.0
N1042 N 0.16431 0.69149 0.89371 0.0
C1043 C 0.16926 0.68833 0.79693 0.0
C1044 C 0.18517 0.71137 0.7413 0.0
C1045 C 0.36202 0.48577 0.57645 0.0
C1046 C 0.33779 0.47153 0.62331 0.0
C1047 C 0.38501 0.49809 0.63283 0.0
C1048 C 0.38473 0.49616 0.73821 0.0
H1049 H 0.36322 0.48755 0.49553 0.0
H1050 H 0.40316 0.50866 0.59321 0.0
S1051 S 0.32633 0.4609 0.8972 0.0
N1052 N 0.31501 0.45618 0.78146 0.0
N1053 N 0.35802 0.47902 0.88706 0.0
C1054 C 0.36062 0.48197 0.7859 0.0
C1055 C 0.33723 0.46978 0.72861 0.0
C1056 C 0.18855 0.52015 0.74553 0.0
C1057 C 0.20088 0.54716 0.73802 0.0
C1058 C 0.20056 0.50649 0.71303 0.0
C1059 C 0.22543 0.51907 0.67028 0.0
H1060 H 0.16909 0.50925 0.77484 0.0
H1061 H 0.19009 0.48573 0.7209 0.0
S1062 S 0.26667 0.58964 0.63616 0.0
N1063 N 0.24002 0.58617 0.68834 0.0
N1064 N 0.26228 0.56028 0.62378 0.0
C1065 C 0.23828 0.54611 0.66358 0.0
C1066 C 0.22604 0.56015 0.69759 0.0
C1067 C 0.52214 0.6681 0.62765 0.0
C1068 C 0.49814 0.65652 0.67726 0.0
C1069 C 0.53414 0.69378 0.59564 0.0
C1070 C 0.52274 0.7092 0.61153 0.0
H1071 H 0.53192 0.65725 0.61413 0.0
H1072 H 0.55292 0.7018 0.56031 0.0
S1073 S 0.45948 0.68795 0.73442 0.0
N1074 N 0.46305 0.66231 0.73895 0.0
N1075 N 0.48545 0.71058 0.6772 0.0
C1076 C 0.49847 0.69776 0.6593 0.0
C1077 C 0.48617 0.67144 0.69197 0.0
C1078 C 0.34645 0.83234 0.71043 0.0
C1079 C 0.3385 0.81535 0.6284 0.0
C1080 C 0.37269 0.84738 0.73566 0.0
C1081 C 0.39193 0.84563 0.68109 0.0
H1082 H 0.33236 0.83486 0.75265 0.0
H1083 H 0.37805 0.86088 0.79721 0.0
S1084 S 0.38111 0.80286 0.46422 0.0
N1085 N 0.35184 0.797 0.49487 0.0
N1086 N 0.40113 0.82459 0.54492 0.0
C1087 C 0.38417 0.82791 0.60182 0.0
C1088 C 0.35747 0.81298 0.57467 0.0
loop_
_geom_bond_atom_site_label_1
_geom_bond_atom_site_label_2
_geom_bond_distance
_geom_bond_site_symmetry_2
_ccdc_geom_bond_type
C0 C1 1.351 . S
C0 N3 1.368 . S
C0 H5 0.931 . S
C1 C0 1.351 . S
C1 N2 1.373 . S
C1 H29 0.930 . S
N2 C1 1.373 . S
N2 C4 1.340 . S
N3 C0 1.368 . S
N3 C4 1.321 . S
N3 Co6 2.135 1_556 S
C4 N2 1.340 . S
C4 N3 1.321 . S
C4 H28 0.930 . S
H5 C0 0.931 . S
Co6 N3 2.135 1_554 S
Co6 N9 2.121 . S
Co6 O14 2.055 . S
Co6 O17 2.039 . S
Co6 N20 2.140 . S
C7 O8 1.227 . S
C7 O17 1.265 . S
O8 C7 1.227 . S
N9 Co6 2.121 . S
N9 C11 1.375 . S
N9 C12 1.313 . S
C10 C11 1.338 . S
C10 N13 1.377 . S
C10 H30 0.930 . S
C11 N9 1.375 . S
C11 C10 1.338 . S
C11 H15 0.931 . S
C12 N9 1.313 . S
C12 N13 1.344 . S
C12 H16 0.930 . S
N13 C10 1.377 . S
N13 C12 1.344 . S
O14 Co6 2.055 . S
O14 C18 1.253 . S
H15 C11 0.931 . S
H16 C12 0.930 . S
O17 Co6 2.039 . S
O17 C7 1.265 . S
C18 O14 1.253 . S
C18 O19 1.227 . S
O19 C18 1.227 . S
N20 Co6 2.140 . S
N20 C23 1.346 . S
N20 C24 1.345 . S
C21 C22 1.395 . S
C21 C25 1.391 . S
C22 C21 1.395 . S
C22 C23 1.371 . S
C22 H31 0.920 1_554 S
C23 N20 1.346 . S
C23 C22 1.371 . S
C23 H26 0.928 1_554 S
C24 N20 1.345 . S
C24 C25 1.371 . S
C24 H27 0.931 . S
C25 C21 1.391 . S
C25 C24 1.371 . S
C25 H32 0.930 . S
H26 C23 0.928 1_556 S
H27 C24 0.931 . S
H28 C4 0.930 . S
H29 C1 0.930 . S
H30 C10 0.930 . S
H31 C22 0.920 1_556 S
H32 C25 0.930 . S
C33 C34 1.351 . S
C33 N36 1.368 . S
C33 H38 0.931 . S
C34 C33 1.351 . S
C34 N35 1.373 . S
C34 H62 0.930 . S
N35 C34 1.373 . S
N35 C37 1.340 . S
N36 C33 1.368 . S
N36 C37 1.321 . S
N36 Co39 2.135 1_556 S
C37 N35 1.340 . S
C37 N36 1.321 . S
C37 H61 0.930 . S
H38 C33 0.931 . S
Co39 N36 2.135 1_554 S
Co39 N42 2.121 . S
Co39 O47 2.055 . S
Co39 O50 2.039 . S
Co39 N53 2.140 . S
C40 O41 1.227 . S
C40 O50 1.265 . S
O41 C40 1.227 . S
N42 Co39 2.121 . S
N42 C44 1.375 . S
N42 C45 1.313 . S
C43 C44 1.338 . S
C43 N46 1.377 . S
C43 H63 0.930 . S
C44 N42 1.375 . S
C44 C43 1.338 . S
C44 H48 0.931 . S
C45 N42 1.313 . S
C45 N46 1.344 . S
C45 H49 0.930 . S
N46 C43 1.377 . S
N46 C45 1.344 . S
O47 Co39 2.055 . S
O47 C51 1.253 . S
H48 C44 0.931 . S
H49 C45 0.930 . S
O50 Co39 2.039 . S
O50 C40 1.265 . S
C51 O47 1.253 . S
C51 O52 1.227 . S
O52 C51 1.227 . S
N53 Co39 2.140 . S
N53 C56 1.346 . S
N53 C57 1.345 . S
C54 C55 1.396 . S
C54 C58 1.391 . S
C55 C54 1.396 . S
C55 C56 1.371 . S
C55 H64 0.919 1_554 S
C56 N53 1.346 . S
C56 C55 1.371 . S
C56 H59 0.928 1_554 S
C57 N53 1.345 . S
C57 C58 1.371 . S
C57 H60 0.931 . S
C58 C54 1.391 . S
C58 C57 1.371 . S
C58 H65 0.930 . S
H59 C56 0.928 1_556 S
H60 C57 0.931 . S
H61 C37 0.930 . S
H62 C34 0.930 . S
H63 C43 0.930 . S
H64 C55 0.919 1_556 S
H65 C58 0.930 . S
C66 C67 1.351 . S
C66 N69 1.368 . S
C66 H71 0.931 . S
C67 C66 1.351 . S
C67 N68 1.373 . S
C67 H95 0.930 . S
N68 C67 1.373 . S
N68 C70 1.340 . S
N69 C66 1.368 . S
N69 C70 1.321 . S
N69 Co72 2.135 1_556 S
C70 N68 1.340 . S
C70 N69 1.321 . S
C70 H94 0.930 . S
H71 C66 0.931 . S
Co72 N69 2.135 1_554 S
Co72 N75 2.121 . S
Co72 O80 2.055 . S
Co72 O83 2.039 . S
Co72 N86 2.140 . S
C73 O74 1.227 . S
C73 O83 1.265 . S
O74 C73 1.227 . S
N75 Co72 2.121 . S
N75 C77 1.375 . S
N75 C78 1.313 . S
C76 C77 1.338 . S
C76 N79 1.377 . S
C76 H96 0.930 . S
C77 N75 1.375 . S
C77 C76 1.338 . S
C77 H81 0.931 . S
C78 N75 1.313 . S
C78 N79 1.344 . S
C78 H82 0.930 . S
N79 C76 1.377 . S
N79 C78 1.344 . S
O80 Co72 2.055 . S
O80 C84 1.253 . S
H81 C77 0.931 . S
H82 C78 0.930 . S
O83 Co72 2.039 . S
O83 C73 1.265 . S
C84 O80 1.253 . S
C84 O85 1.227 . S
O85 C84 1.227 . S
N86 Co72 2.140 . S
N86 C89 1.346 . S
N86 C90 1.345 . S
C87 C88 1.387 . S
C87 C91 1.391 . S
C88 C87 1.387 . S
C88 C89 1.369 . S
C88 H97 0.929 1_554 S
C89 N86 1.346 . S
C89 C88 1.369 . S
C89 H92 0.928 1_554 S
C90 N86 1.345 . S
C90 C91 1.371 . S
C90 H93 0.931 . S
C91 C87 1.391 . S
C91 C90 1.371 . S
C91 H98 0.930 . S
H92 C89 0.928 1_556 S
H93 C90 0.931 . S
H94 C70 0.930 . S
H95 C67 0.930 . S
H96 C76 0.930 . S
H97 C88 0.929 1_556 S
H98 C91 0.930 . S
C99 C100 1.351 . S
C99 N102 1.368 . S
C99 H104 0.931 . S
C100 C99 1.351 . S
C100 N101 1.373 . S
C100 H128 0.930 . S
N101 C100 1.373 . S
N101 C103 1.340 . S
N102 C99 1.368 . S
N102 C103 1.321 . S
N102 Co105 2.135 1_554 S
C103 N101 1.340 . S
C103 N102 1.321 . S
C103 H127 0.930 . S
H104 C99 0.931 . S
Co105 N102 2.135 1_556 S
Co105 N108 2.121 . S
Co105 O113 2.055 . S
Co105 O116 2.039 . S
Co105 N119 2.140 . S
C106 O107 1.227 . S
C106 O116 1.265 . S
O107 C106 1.227 . S
N108 Co105 2.121 . S
N108 C110 1.375 . S
N108 C111 1.313 . S
C109 C110 1.338 . S
C109 N112 1.377 . S
C109 H129 0.930 . S
C110 N108 1.375 . S
C110 C109 1.338 . S
C110 H114 0.931 . S
C111 N108 1.313 . S
C111 N112 1.344 . S
C111 H115 0.930 . S
N112 C109 1.377 . S
N112 C111 1.344 . S
O113 Co105 2.055 . S
O113 C117 1.253 . S
H114 C110 0.931 . S
H115 C111 0.930 . S
O116 Co105 2.039 . S
O116 C106 1.265 . S
C117 O113 1.253 . S
C117 O118 1.227 . S
O118 C117 1.227 . S
N119 Co105 2.140 . S
N119 C122 1.346 . S
N119 C123 1.345 . S
C120 C121 1.395 . S
C120 C124 1.391 . S
C121 C120 1.395 . S
C121 C122 1.371 . S
C121 H130 0.920 1_556 S
C122 N119 1.346 . S
C122 C121 1.371 . S
C122 H125 0.928 1_556 S
C123 N119 1.345 . S
C123 C124 1.371 . S
C123 H126 0.931 . S
C124 C120 1.391 . S
C124 C123 1.371 . S
C124 H131 0.930 . S
H125 C122 0.928 1_554 S
H126 C123 0.931 . S
H127 C103 0.930 . S
H128 C100 0.930 . S
H129 C109 0.930 . S
H130 C121 0.920 1_554 S
H131 C124 0.930 . S
C132 C133 1.351 . S
C132 N135 1.368 . S
C132 H137 0.931 . S
C133 C132 1.351 . S
C133 N134 1.373 . S
C133 H161 0.930 . S
N134 C133 1.373 . S
N134 C136 1.340 . S
N135 C132 1.368 . S
N135 C136 1.321 . S
N135 Co138 2.135 1_554 S
C136 N134 1.340 . S
C136 N135 1.321 . S
C136 H160 0.930 . S
H137 C132 0.931 . S
Co138 N135 2.135 1_556 S
Co138 N141 2.121 . S
Co138 O146 2.055 . S
Co138 O149 2.039 . S
Co138 N152 2.140 . S
C139 O140 1.227 . S
C139 O149 1.265 . S
O140 C139 1.227 . S
N141 Co138 2.121 . S
N141 C143 1.375 . S
N141 C144 1.313 . S
C142 C143 1.338 . S
C142 N145 1.377 . S
C142 H162 0.930 . S
C143 N141 1.375 . S
C143 C142 1.338 . S
C143 H147 0.931 . S
C144 N141 1.313 . S
C144 N145 1.344 . S
C144 H148 0.930 . S
N145 C142 1.377 . S
N145 C144 1.344 . S
O146 Co138 2.055 . S
O146 C150 1.253 . S
H147 C143 0.931 . S
H148 C144 0.930 . S
O149 Co138 2.039 . S
O149 C139 1.265 . S
C150 O146 1.253 . S
C150 O151 1.227 . S
O151 C150 1.227 . S
N152 Co138 2.140 . S
N152 C155 1.346 . S
N152 C156 1.345 . S
C153 C154 1.387 . S
C153 C157 1.391 . S
C154 C153 1.387 . S
C154 C155 1.369 . S
C154 H163 0.929 1_556 S
C155 N152 1.346 . S
C155 C154 1.369 . S
C155 H158 0.928 1_556 S
C156 N152 1.345 . S
C156 C157 1.371 . S
C156 H159 0.931 . S
C157 C153 1.391 . S
C157 C156 1.371 . S
C157 H164 0.930 . S
H158 C155 0.928 1_554 S
H159 C156 0.931 . S
H160 C136 0.930 . S
H161 C133 0.930 . S
H162 C142 0.930 . S
H163 C154 0.929 1_554 S
H164 C157 0.930 . S
C165 C166 1.351 . S
C165 N168 1.368 . S
C165 H170 0.931 . S
C166 C165 1.351 . S
C166 N167 1.373 . S
C166 H194 0.930 . S
N167 C166 1.373 . S
N167 C169 1.340 . S
N168 C165 1.368 . S
N168 C169 1.321 . S
N168 Co171 2.135 1_554 S
C169 N167 1.340 . S
C169 N168 1.321 . S
C169 H193 0.930 . S
H170 C165 0.931 . S
Co171 N168 2.135 1_556 S
Co171 N174 2.121 . S
Co171 O179 2.055 . S
Co171 O182 2.039 . S
Co171 N185 2.140 . S
C172 O173 1.227 . S
C172 O182 1.265 . S
O173 C172 1.227 . S
N174 Co171 2.121 . S
N174 C176 1.375 . S
N174 C177 1.313 . S
C175 C176 1.338 . S
C175 N178 1.377 . S
C175 H195 0.930 . S
C176 N174 1.375 . S
C176 C175 1.338 . S
C176 H180 0.931 . S
C177 N174 1.313 . S
C177 N178 1.344 . S
C177 H181 0.930 . S
N178 C175 1.377 . S
N178 C177 1.344 . S
O179 Co171 2.055 . S
O179 C183 1.253 . S
H180 C176 0.931 . S
H181 C177 0.930 . S
O182 Co171 2.039 . S
O182 C172 1.265 . S
C183 O179 1.253 . S
C183 O184 1.227 . S
O184 C183 1.227 . S
N185 Co171 2.140 . S
N185 C188 1.346 . S
N185 C189 1.345 . S
C186 C187 1.396 . S
C186 C190 1.391 . S
C187 C186 1.396 . S
C187 C188 1.371 . S
C187 H196 0.919 1_556 S
C188 N185 1.346 . S
C188 C187 1.371 . S
C188 H191 0.928 1_556 S
C189 N185 1.345 . S
C189 C190 1.371 . S
C189 H192 0.931 . S
C190 C186 1.391 . S
C190 C189 1.371 . S
C190 H197 0.930 . S
H191 C188 0.928 1_554 S
H192 C189 0.931 . S
H193 C169 0.930 . S
H194 C166 0.930 . S
H195 C175 0.930 . S
H196 C187 0.919 1_554 S
H197 C190 0.930 . S
C198 C199 1.351 . S
C198 N201 1.368 . S
C198 H203 0.931 . S
C199 C198 1.351 . S
C199 N200 1.373 . S
C199 H227 0.930 . S
N200 C199 1.373 . S
N200 C202 1.340 . S
N201 C198 1.368 . S
N201 C202 1.321 . S
N201 Co204 2.135 . S
C202 N200 1.340 . S
C202 N201 1.321 . S
C202 H226 0.930 . S
H203 C198 0.931 . S
Co204 N201 2.135 . S
Co204 N207 2.121 . S
Co204 O212 2.055 . S
Co204 O215 2.039 . S
Co204 N218 2.140 . S
C205 O206 1.227 . S
C205 O215 1.265 . S
O206 C205 1.227 . S
N207 Co204 2.121 . S
N207 C209 1.375 . S
N207 C210 1.313 . S
C208 C209 1.338 . S
C208 N211 1.377 . S
C208 H228 0.930 . S
C209 N207 1.375 . S
C209 C208 1.338 . S
C209 H213 0.931 . S
C210 N207 1.313 . S
C210 N211 1.344 . S
C210 H214 0.930 . S
N211 C208 1.377 . S
N211 C210 1.344 . S
O212 Co204 2.055 . S
O212 C216 1.253 . S
H213 C209 0.931 . S
H214 C210 0.930 . S
O215 Co204 2.039 . S
O215 C205 1.265 . S
C216 O212 1.253 . S
C216 O217 1.227 . S
O217 C216 1.227 . S
N218 Co204 2.140 . S
N218 C221 1.346 . S
N218 C222 1.345 . S
C219 C220 1.387 . S
C219 C223 1.391 . S
C220 C219 1.387 . S
C220 C221 1.369 . S
C220 H229 0.929 . S
C221 N218 1.346 . S
C221 C220 1.369 . S
C221 H224 0.928 . S
C222 N218 1.345 . S
C222 C223 1.371 . S
C222 H225 0.931 . S
C223 C219 1.391 . S
C223 C222 1.371 . S
C223 H230 0.930 . S
H224 C221 0.928 . S
H225 C222 0.931 . S
H226 C202 0.930 . S
H227 C199 0.930 . S
H228 C208 0.930 . S
H229 C220 0.929 . S
H230 C223 0.930 . S
C231 C232 1.351 . S
C231 N234 1.368 . S
C231 H236 0.931 . S
C232 C231 1.351 . S
C232 N233 1.373 . S
C232 H260 0.930 . S
N233 C232 1.373 . S
N233 C235 1.340 . S
N234 C231 1.368 . S
N234 C235 1.321 . S
N234 Co237 2.135 . S
C235 N233 1.340 . S
C235 N234 1.321 . S
C235 H259 0.930 . S
H236 C231 0.931 . S
Co237 N234 2.135 . S
Co237 N240 2.121 . S
Co237 O245 2.055 . S
Co237 O248 2.039 . S
Co237 N251 2.140 . S
C238 O239 1.227 . S
C238 O248 1.265 . S
O239 C238 1.227 . S
N240 Co237 2.121 . S
N240 C242 1.375 . S
N240 C243 1.313 . S
C241 C242 1.338 . S
C241 N244 1.377 . S
C241 H261 0.930 . S
C242 N240 1.375 . S
C242 C241 1.338 . S
C242 H246 0.931 . S
C243 N240 1.313 . S
C243 N244 1.344 . S
C243 H247 0.930 . S
N244 C241 1.377 . S
N244 C243 1.344 . S
O245 Co237 2.055 . S
O245 C249 1.253 . S
H246 C242 0.931 . S
H247 C243 0.930 . S
O248 Co237 2.039 . S
O248 C238 1.265 . S
C249 O245 1.253 . S
C249 O250 1.227 . S
O250 C249 1.227 . S
N251 Co237 2.140 . S
N251 C254 1.346 . S
N251 C255 1.345 . S
C252 C253 1.387 . S
C252 C256 1.391 . S
C253 C252 1.387 . S
C253 C254 1.369 . S
C253 H262 0.929 . S
C254 N251 1.346 . S
C254 C253 1.369 . S
C254 H257 0.928 . S
C255 N251 1.345 . S
C255 C256 1.371 . S
C255 H258 0.931 . S
C256 C252 1.391 . S
C256 C255 1.371 . S
C256 H263 0.930 . S
H257 C254 0.928 . S
H258 C255 0.931 . S
H259 C235 0.930 . S
H260 C232 0.930 . S
H261 C241 0.930 . S
H262 C253 0.929 . S
H263 C256 0.930 . S
C264 C265 1.351 . S
C264 N267 1.368 . S
C264 H269 0.931 . S
C265 C264 1.351 . S
C265 N266 1.373 . S
C265 H293 0.930 . S
N266 C265 1.373 . S
N266 C268 1.340 . S
N267 C264 1.368 . S
N267 C268 1.321 . S
N267 Co270 2.135 . S
C268 N266 1.340 . S
C268 N267 1.321 . S
C268 H292 0.930 . S
H269 C264 0.931 . S
Co270 N267 2.135 . S
Co270 N273 2.121 . S
Co270 O278 2.055 . S
Co270 O281 2.039 . S
Co270 N284 2.140 . S
C271 O272 1.227 . S
C271 O281 1.265 . S
O272 C271 1.227 . S
N273 Co270 2.121 . S
N273 C275 1.375 . S
N273 C276 1.313 . S
C274 C275 1.338 . S
C274 N277 1.377 . S
C274 H294 0.930 . S
C275 N273 1.375 . S
C275 C274 1.338 . S
C275 H279 0.931 . S
C276 N273 1.313 . S
C276 N277 1.344 . S
C276 H280 0.930 . S
N277 C274 1.377 . S
N277 C276 1.344 . S
O278 Co270 2.055 . S
O278 C282 1.253 . S
H279 C275 0.931 . S
H280 C276 0.930 . S
O281 Co270 2.039 . S
O281 C271 1.265 . S
C282 O278 1.253 . S
C282 O283 1.227 . S
O283 C282 1.227 . S
N284 Co270 2.140 . S
N284 C287 1.346 . S
N284 C288 1.345 . S
C285 C286 1.387 . S
C285 C289 1.391 . S
C286 C285 1.387 . S
C286 C287 1.369 . S
C286 H295 0.929 . S
C287 N284 1.346 . S
C287 C286 1.369 . S
C287 H290 0.928 . S
C288 N284 1.345 . S
C288 C289 1.371 . S
C288 H291 0.931 . S
C289 C285 1.391 . S
C289 C288 1.371 . S
C289 H296 0.930 . S
H290 C287 0.928 . S
H291 C288 0.931 . S
H292 C268 0.930 . S
H293 C265 0.930 . S
H294 C274 0.930 . S
H295 C286 0.929 . S
H296 C289 0.930 . S
C297 C298 1.351 . S
C297 N300 1.368 . S
C297 H302 0.931 . S
C298 C297 1.351 . S
C298 N299 1.373 . S
C298 H326 0.930 . S
N299 C298 1.373 . S
N299 C301 1.340 . S
N300 C297 1.368 . S
N300 C301 1.321 . S
N300 Co303 2.135 . S
C301 N299 1.340 . S
C301 N300 1.321 . S
C301 H325 0.930 . S
H302 C297 0.931 . S
Co303 N300 2.135 . S
Co303 N306 2.121 . S
Co303 O311 2.055 . S
Co303 O314 2.039 . S
Co303 N317 2.140 . S
C304 O305 1.227 . S
C304 O314 1.265 . S
O305 C304 1.227 . S
N306 Co303 2.121 . S
N306 C308 1.375 . S
N306 C309 1.313 1_554 S
C307 C308 1.338 1_556 S
C307 N310 1.377 . S
C307 H327 0.930 . S
C308 N306 1.375 . S
C308 C307 1.338 1_554 S
C308 H312 0.931 . S
C309 N306 1.313 1_556 S
C309 N310 1.344 . S
C309 H313 0.930 . S
N310 C307 1.377 . S
N310 C309 1.344 . S
O311 Co303 2.055 . S
O311 C315 1.253 . S
H312 C308 0.931 . S
H313 C309 0.930 . S
O314 Co303 2.039 . S
O314 C304 1.265 . S
C315 O311 1.253 . S
C315 O316 1.227 . S
O316 C315 1.227 . S
N317 Co303 2.140 . S
N317 C320 1.346 . S
N317 C321 1.345 . S
C318 C319 1.387 . S
C318 C322 1.391 . S
C319 C318 1.387 . S
C319 C320 1.369 . S
C319 H328 0.929 . S
C320 N317 1.346 . S
C320 C319 1.369 . S
C320 H323 0.928 . S
C321 N317 1.345 . S
C321 C322 1.371 . S
C321 H324 0.931 . S
C322 C318 1.391 . S
C322 C321 1.371 . S
C322 H329 0.930 . S
H323 C320 0.928 . S
H324 C321 0.931 . S
H325 C301 0.930 . S
H326 C298 0.930 . S
H327 C307 0.930 . S
H328 C319 0.929 . S
H329 C322 0.930 . S
C330 C331 1.351 . S
C330 N333 1.368 . S
C330 H335 0.931 . S
C331 C330 1.351 . S
C331 N332 1.373 . S
C331 H359 0.930 . S
N332 C331 1.373 . S
N332 C334 1.340 . S
N333 C330 1.368 . S
N333 C334 1.321 . S
N333 Co336 2.135 . S
C334 N332 1.340 . S
C334 N333 1.321 . S
C334 H358 0.930 . S
H335 C330 0.931 . S
Co336 N333 2.135 . S
Co336 N339 2.121 . S
Co336 O344 2.055 . S
Co336 O347 2.039 . S
Co336 N350 2.140 . S
C337 O338 1.227 . S
C337 O347 1.265 . S
O338 C337 1.227 . S
N339 Co336 2.121 . S
N339 C341 1.375 . S
N339 C342 1.313 1_554 S
C340 C341 1.338 1_556 S
C340 N343 1.377 . S
C340 H360 0.930 . S
C341 N339 1.375 . S
C341 C340 1.338 1_554 S
C341 H345 0.931 . S
C342 N339 1.313 1_556 S
C342 N343 1.344 . S
C342 H346 0.930 . S
N343 C340 1.377 . S
N343 C342 1.344 . S
O344 Co336 2.055 . S
O344 C348 1.253 . S
H345 C341 0.931 . S
H346 C342 0.930 . S
O347 Co336 2.039 . S
O347 C337 1.265 . S
C348 O344 1.253 . S
C348 O349 1.227 . S
O349 C348 1.227 . S
N350 Co336 2.140 . S
N350 C353 1.346 . S
N350 C354 1.345 . S
C351 C352 1.387 . S
C351 C355 1.391 . S
C352 C351 1.387 . S
C352 C353 1.369 . S
C352 H361 0.929 . S
C353 N350 1.346 . S
C353 C352 1.369 . S
C353 H356 0.928 . S
C354 N350 1.345 . S
C354 C355 1.371 . S
C354 H357 0.931 . S
C355 C351 1.391 . S
C355 C354 1.371 . S
C355 H362 0.930 . S
H356 C353 0.928 . S
H357 C354 0.931 . S
H358 C334 0.930 . S
H359 C331 0.930 . S
H360 C340 0.930 . S
H361 C352 0.929 . S
H362 C355 0.930 . S
C363 C364 1.351 . S
C363 N366 1.368 . S
C363 H368 0.931 . S
C364 C363 1.351 . S
C364 N365 1.373 . S
C364 H392 0.930 . S
N365 C364 1.373 . S
N365 C367 1.340 . S
N366 C363 1.368 . S
N366 C367 1.321 . S
N366 Co369 2.135 . S
C367 N365 1.340 . S
C367 N366 1.321 . S
C367 H391 0.930 . S
H368 C363 0.931 . S
Co369 N366 2.135 . S
Co369 N372 2.121 . S
Co369 O377 2.055 . S
Co369 O380 2.039 . S
Co369 N383 2.140 . S
C370 O371 1.227 . S
C370 O380 1.265 . S
O371 C370 1.227 . S
N372 Co369 2.121 . S
N372 C374 1.375 . S
N372 C375 1.313 1_554 S
C373 C374 1.338 1_556 S
C373 N376 1.377 . S
C373 H393 0.930 . S
C374 N372 1.375 . S
C374 C373 1.338 1_554 S
C374 H378 0.931 . S
C375 N372 1.313 1_556 S
C375 N376 1.344 . S
C375 H379 0.930 . S
N376 C373 1.377 . S
N376 C375 1.344 . S
O377 Co369 2.055 . S
O377 C381 1.253 . S
H378 C374 0.931 . S
H379 C375 0.930 . S
O380 Co369 2.039 . S
O380 C370 1.265 . S
C381 O377 1.253 . S
C381 O382 1.227 . S
O382 C381 1.227 . S
N383 Co369 2.140 . S
N383 C386 1.346 . S
N383 C387 1.345 . S
C384 C385 1.387 . S
C384 C388 1.391 . S
C385 C384 1.387 . S
C385 C386 1.369 . S
C385 H394 0.929 . S
C386 N383 1.346 . S
C386 C385 1.369 . S
C386 H389 0.928 . S
C387 N383 1.345 . S
C387 C388 1.371 . S
C387 H390 0.931 . S
C388 C384 1.391 . S
C388 C387 1.371 . S
C388 H395 0.930 . S
H389 C386 0.928 . S
H390 C387 0.931 . S
H391 C367 0.930 . S
H392 C364 0.930 . S
H393 C373 0.930 . S
H394 C385 0.929 . S
H395 C388 0.930 . S
C396 C397 1.351 . S
C396 N399 1.368 . S
C396 H401 0.931 . S
C397 C396 1.351 . S
C397 N398 1.373 . S
C397 H425 0.930 . S
N398 C397 1.373 . S
N398 C400 1.340 . S
N399 C396 1.368 . S
N399 C400 1.321 . S
N399 Co402 2.135 . S
C400 N398 1.340 . S
C400 N399 1.321 . S
C400 H424 0.930 . S
H401 C396 0.931 . S
Co402 N399 2.135 . S
Co402 N405 2.121 . S
Co402 O410 2.055 . S
Co402 O413 2.039 . S
Co402 N416 2.140 . S
C403 O404 1.227 . S
C403 O413 1.265 . S
O404 C403 1.227 . S
N405 Co402 2.121 . S
N405 C407 1.375 . S
N405 C408 1.313 1_556 S
C406 C407 1.338 1_554 S
C406 N409 1.377 . S
C406 H426 0.930 . S
C407 N405 1.375 . S
C407 C406 1.338 1_556 S
C407 H411 0.931 . S
C408 N405 1.313 1_554 S
C408 N409 1.344 . S
C408 H412 0.930 . S
N409 C406 1.377 . S
N409 C408 1.344 . S
O410 Co402 2.055 . S
O410 C414 1.253 . S
H411 C407 0.931 . S
H412 C408 0.930 . S
O413 Co402 2.039 . S
O413 C403 1.265 . S
C414 O410 1.253 . S
C414 O415 1.227 . S
O415 C414 1.227 . S
N416 Co402 2.140 . S
N416 C419 1.346 . S
N416 C420 1.345 . S
C417 C418 1.387 . S
C417 C421 1.391 . S
C418 C417 1.387 . S
C418 C419 1.369 . S
C418 H427 0.929 . S
C419 N416 1.346 . S
C419 C418 1.369 . S
C419 H422 0.928 . S
C420 N416 1.345 . S
C420 C421 1.371 . S
C420 H423 0.931 . S
C421 C417 1.391 . S
C421 C420 1.371 . S
C421 H428 0.930 . S
H422 C419 0.928 . S
H423 C420 0.931 . S
H424 C400 0.930 . S
H425 C397 0.930 . S
H426 C406 0.930 . S
H427 C418 0.929 . S
H428 C421 0.930 . S
C429 C430 1.351 . S
C429 N432 1.368 . S
C429 H434 0.931 . S
C430 C429 1.351 . S
C430 N431 1.373 . S
C430 H458 0.930 . S
N431 C430 1.373 . S
N431 C433 1.340 . S
N432 C429 1.368 . S
N432 C433 1.321 . S
N432 Co435 2.135 . S
C433 N431 1.340 . S
C433 N432 1.321 . S
C433 H457 0.930 . S
H434 C429 0.931 . S
Co435 N432 2.135 . S
Co435 N438 2.121 . S
Co435 O443 2.055 . S
Co435 O446 2.039 . S
Co435 N449 2.140 . S
C436 O437 1.227 . S
C436 O446 1.265 . S
O437 C436 1.227 . S
N438 Co435 2.121 . S
N438 C440 1.375 . S
N438 C441 1.313 1_556 S
C439 C440 1.338 1_554 S
C439 N442 1.377 . S
C439 H459 0.930 . S
C440 N438 1.375 . S
C440 C439 1.338 1_556 S
C440 H444 0.931 . S
C441 N438 1.313 1_554 S
C441 N442 1.344 . S
C441 H445 0.930 . S
N442 C439 1.377 . S
N442 C441 1.344 . S
O443 Co435 2.055 . S
O443 C447 1.253 . S
H444 C440 0.931 . S
H445 C441 0.930 . S
O446 Co435 2.039 . S
O446 C436 1.265 . S
C447 O443 1.253 . S
C447 O448 1.227 . S
O448 C447 1.227 . S
N449 Co435 2.140 . S
N449 C452 1.346 . S
N449 C453 1.345 . S
C450 C451 1.387 . S
C450 C454 1.391 . S
C451 C450 1.387 . S
C451 C452 1.369 . S
C451 H460 0.929 . S
C452 N449 1.346 . S
C452 C451 1.369 . S
C452 H455 0.928 . S
C453 N449 1.345 . S
C453 C454 1.371 . S
C453 H456 0.931 . S
C454 C450 1.391 . S
C454 C453 1.371 . S
C454 H461 0.930 . S
H455 C452 0.928 . S
H456 C453 0.931 . S
H457 C433 0.930 . S
H458 C430 0.930 . S
H459 C439 0.930 . S
H460 C451 0.929 . S
H461 C454 0.930 . S
C462 C463 1.351 . S
C462 N465 1.368 . S
C462 H467 0.931 . S
C463 C462 1.351 . S
C463 N464 1.373 . S
C463 H491 0.930 . S
N464 C463 1.373 . S
N464 C466 1.340 . S
N465 C462 1.368 . S
N465 C466 1.321 . S
N465 Co468 2.135 . S
C466 N464 1.340 . S
C466 N465 1.321 . S
C466 H490 0.930 . S
H467 C462 0.931 . S
Co468 N465 2.135 . S
Co468 N471 2.121 . S
Co468 O476 2.055 . S
Co468 O479 2.039 . S
Co468 N482 2.140 . S
C469 O470 1.227 . S
C469 O479 1.265 . S
O470 C469 1.227 . S
N471 Co468 2.121 . S
N471 C473 1.375 . S
N471 C474 1.313 1_556 S
C472 C473 1.338 1_554 S
C472 N475 1.377 . S
C472 H492 0.930 . S
C473 N471 1.375 . S
C473 C472 1.338 1_556 S
C473 H477 0.931 . S
C474 N471 1.313 1_554 S
C474 N475 1.344 . S
C474 H478 0.930 . S
N475 C472 1.377 . S
N475 C474 1.344 . S
O476 Co468 2.055 . S
O476 C480 1.253 . S
H477 C473 0.931 . S
H478 C474 0.930 . S
O479 Co468 2.039 . S
O479 C469 1.265 . S
C480 O476 1.253 . S
C480 O481 1.227 . S
O481 C480 1.227 . S
N482 Co468 2.140 . S
N482 C485 1.346 . S
N482 C486 1.345 . S
C483 C484 1.387 . S
C483 C487 1.391 . S
C484 C483 1.387 . S
C484 C485 1.369 . S
C484 H493 0.929 . S
C485 N482 1.346 . S
C485 C484 1.369 . S
C485 H488 0.928 . S
C486 N482 1.345 . S
C486 C487 1.371 . S
C486 H489 0.931 . S
C487 C483 1.391 . S
C487 C486 1.371 . S
C487 H494 0.930 . S
H488 C485 0.928 . S
H489 C486 0.931 . S
H490 C466 0.930 . S
H491 C463 0.930 . S
H492 C472 0.930 . S
H493 C484 0.929 . S
H494 C487 0.930 . S
C495 C496 1.351 . S
C495 N498 1.368 . S
C495 H500 0.931 . S
C496 C495 1.351 . S
C496 N497 1.373 . S
C496 H524 0.930 . S
N497 C496 1.373 . S
N497 C499 1.340 . S
N498 C495 1.368 . S
N498 C499 1.321 . S
N498 Co501 2.135 . S
C499 N497 1.340 . S
C499 N498 1.321 . S
C499 H523 0.930 . S
H500 C495 0.931 . S
Co501 N498 2.135 . S
Co501 N504 2.121 . S
Co501 O509 2.055 . S
Co501 O512 2.039 . S
Co501 N515 2.140 . S
C502 O503 1.227 . S
C502 O512 1.265 . S
O503 C502 1.227 . S
N504 Co501 2.121 . S
N504 C506 1.375 . S
N504 C507 1.313 . S
C505 C506 1.338 . S
C505 N508 1.377 . S
C505 H525 0.930 . S
C506 N504 1.375 . S
C506 C505 1.338 . S
C506 H510 0.931 . S
C507 N504 1.313 . S
C507 N508 1.344 . S
C507 H511 0.930 . S
N508 C505 1.377 . S
N508 C507 1.344 . S
O509 Co501 2.055 . S
O509 C513 1.253 . S
H510 C506 0.931 . S
H511 C507 0.930 . S
O512 Co501 2.039 . S
O512 C502 1.265 . S
C513 O509 1.253 . S
C513 O514 1.227 . S
O514 C513 1.227 . S
N515 Co501 2.140 . S
N515 C518 1.346 . S
N515 C519 1.345 . S
C516 C517 1.387 . S
C516 C520 1.391 . S
C517 C516 1.387 . S
C517 C518 1.369 . S
C517 H526 0.929 . S
C518 N515 1.346 . S
C518 C517 1.369 . S
C518 H521 0.928 . S
C519 N515 1.345 . S
C519 C520 1.371 . S
C519 H522 0.931 . S
C520 C516 1.391 . S
C520 C519 1.371 . S
C520 H527 0.930 . S
H521 C518 0.928 . S
H522 C519 0.931 . S
H523 C499 0.930 . S
H524 C496 0.930 . S
H525 C505 0.930 . S
H526 C517 0.929 . S
H527 C520 0.930 . S
C528 C529 1.351 . S
C528 N531 1.368 . S
C528 H533 0.931 . S
C529 C528 1.351 . S
C529 N530 1.373 . S
C529 H557 0.930 . S
N530 C529 1.373 . S
N530 C532 1.340 . S
N531 C528 1.368 . S
N531 C532 1.321 . S
N531 Co534 2.135 . S
C532 N530 1.340 . S
C532 N531 1.321 . S
C532 H556 0.930 . S
H533 C528 0.931 . S
Co534 N531 2.135 . S
Co534 N537 2.121 . S
Co534 O542 2.055 . S
Co534 O545 2.039 . S
Co534 N548 2.140 . S
C535 O536 1.227 . S
C535 O545 1.265 . S
O536 C535 1.227 . S
N537 Co534 2.121 . S
N537 C539 1.375 . S
N537 C540 1.313 . S
C538 C539 1.338 . S
C538 N541 1.377 . S
C538 H558 0.930 . S
C539 N537 1.375 . S
C539 C538 1.338 . S
C539 H543 0.931 . S
C540 N537 1.313 . S
C540 N541 1.344 . S
C540 H544 0.930 . S
N541 C538 1.377 . S
N541 C540 1.344 . S
O542 Co534 2.055 . S
O542 C546 1.253 . S
H543 C539 0.931 . S
H544 C540 0.930 . S
O545 Co534 2.039 . S
O545 C535 1.265 . S
C546 O542 1.253 . S
C546 O547 1.227 . S
O547 C546 1.227 . S
N548 Co534 2.140 . S
N548 C551 1.346 . S
N548 C552 1.345 . S
C549 C550 1.387 . S
C549 C553 1.391 . S
C550 C549 1.387 . S
C550 C551 1.369 . S
C550 H559 0.929 . S
C551 N548 1.346 . S
C551 C550 1.369 . S
C551 H554 0.928 . S
C552 N548 1.345 . S
C552 C553 1.371 . S
C552 H555 0.931 . S
C553 C549 1.391 . S
C553 C552 1.371 . S
C553 H560 0.930 . S
H554 C551 0.928 . S
H555 C552 0.931 . S
H556 C532 0.930 . S
H557 C529 0.930 . S
H558 C538 0.930 . S
H559 C550 0.929 . S
H560 C553 0.930 . S
C561 C562 1.351 . S
C561 N564 1.368 . S
C561 H566 0.931 . S
C562 C561 1.351 . S
C562 N563 1.373 . S
C562 H590 0.930 . S
N563 C562 1.373 . S
N563 C565 1.340 . S
N564 C561 1.368 . S
N564 C565 1.321 . S
N564 Co567 2.135 . S
C565 N563 1.340 . S
C565 N564 1.321 . S
C565 H589 0.930 . S
H566 C561 0.931 . S
Co567 N564 2.135 . S
Co567 N570 2.121 . S
Co567 O575 2.055 . S
Co567 O578 2.039 . S
Co567 N581 2.140 . S
C568 O569 1.227 . S
C568 O578 1.265 . S
O569 C568 1.227 . S
N570 Co567 2.121 . S
N570 C572 1.375 . S
N570 C573 1.313 . S
C571 C572 1.338 . S
C571 N574 1.377 . S
C571 H591 0.930 . S
C572 N570 1.375 . S
C572 C571 1.338 . S
C572 H576 0.931 . S
C573 N570 1.313 . S
C573 N574 1.344 . S
C573 H577 0.930 . S
N574 C571 1.377 . S
N574 C573 1.344 . S
O575 Co567 2.055 . S
O575 C579 1.253 . S
H576 C572 0.931 . S
H577 C573 0.930 . S
O578 Co567 2.039 . S
O578 C568 1.265 . S
C579 O575 1.253 . S
C579 O580 1.227 . S
O580 C579 1.227 . S
N581 Co567 2.140 . S
N581 C584 1.346 . S
N581 C585 1.345 . S
C582 C583 1.387 . S
C582 C586 1.391 . S
C583 C582 1.387 . S
C583 C584 1.369 . S
C583 H592 0.929 . S
C584 N581 1.346 . S
C584 C583 1.369 . S
C584 H587 0.928 . S
C585 N581 1.345 . S
C585 C586 1.371 . S
C585 H588 0.931 . S
C586 C582 1.391 . S
C586 C585 1.371 . S
C586 H593 0.930 . S
H587 C584 0.928 . S
H588 C585 0.931 . S
H589 C565 0.930 . S
H590 C562 0.930 . S
H591 C571 0.930 . S
H592 C583 0.929 . S
H593 C586 0.930 . S
C594 C595 1.369 . S
C594 C596 1.419 . S
C594 H598 0.930 . S
C595 C594 1.369 . S
C595 C604 1.429 . S
C596 C594 1.419 . S
C596 C597 1.363 . S
C596 H599 0.929 . S
C597 C596 1.363 . S
C597 C603 1.428 . S
H598 C594 0.930 . S
H599 C596 0.929 . S
S600 N601 1.613 . S
S600 N602 1.610 . S
N601 S600 1.613 . S
N601 C604 1.350 . S
N602 S600 1.610 . S
N602 C603 1.351 . S
C603 C597 1.428 . S
C603 N602 1.351 . S
C603 C604 1.434 . S
C604 C595 1.429 . S
C604 N601 1.350 . S
C604 C603 1.434 . S
C605 C606 1.369 . S
C605 C607 1.419 . S
C605 H609 0.930 . S
C606 C605 1.369 . S
C606 C615 1.429 . S
C607 C605 1.419 . S
C607 C608 1.363 . S
C607 H610 0.929 . S
C608 C607 1.363 . S
C608 C614 1.428 . S
H609 C605 0.930 . S
H610 C607 0.929 . S
S611 N612 1.613 . S
S611 N613 1.610 . S
N612 S611 1.613 . S
N612 C615 1.350 . S
N613 S611 1.610 . S
N613 C614 1.351 . S
C614 C608 1.428 . S
C614 N613 1.351 . S
C614 C615 1.434 . S
C615 C606 1.429 . S
C615 N612 1.350 . S
C615 C614 1.434 . S
C616 C617 1.369 . S
C616 C618 1.419 . S
C616 H620 0.930 . S
C617 C616 1.369 . S
C617 C626 1.429 . S
C618 C616 1.419 . S
C618 C619 1.363 . S
C618 H621 0.929 . S
C619 C618 1.363 . S
C619 C625 1.428 . S
H620 C616 0.930 . S
H621 C618 0.929 . S
S622 N623 1.613 . S
S622 N624 1.610 . S
N623 S622 1.613 . S
N623 C626 1.350 . S
N624 S622 1.610 . S
N624 C625 1.351 . S
C625 C619 1.428 . S
C625 N624 1.351 . S
C625 C626 1.434 . S
C626 C617 1.429 . S
C626 N623 1.350 . S
C626 C625 1.434 . S
C627 C628 1.369 . S
C627 C629 1.419 . S
C627 H631 0.930 . S
C628 C627 1.369 . S
C628 C637 1.429 . S
C629 C627 1.419 . S
C629 C630 1.363 . S
C629 H632 0.929 . S
C630 C629 1.363 . S
C630 C636 1.428 . S
H631 C627 0.930 . S
H632 C629 0.929 . S
S633 N634 1.613 . S
S633 N635 1.610 . S
N634 S633 1.613 . S
N634 C637 1.350 . S
N635 S633 1.610 . S
N635 C636 1.351 . S
C636 C630 1.428 . S
C636 N635 1.351 . S
C636 C637 1.434 . S
C637 C628 1.429 . S
C637 N634 1.350 . S
C637 C636 1.434 . S
C638 C639 1.369 . S
C638 C640 1.419 . S
C638 H642 0.930 . S
C639 C638 1.369 . S
C639 C648 1.429 . S
C640 C638 1.419 . S
C640 C641 1.363 . S
C640 H643 0.929 . S
C641 C640 1.363 . S
C641 C647 1.428 . S
H642 C638 0.930 . S
H643 C640 0.929 . S
S644 N645 1.613 . S
S644 N646 1.610 . S
N645 S644 1.613 . S
N645 C648 1.350 . S
N646 S644 1.610 . S
N646 C647 1.351 . S
C647 C641 1.428 . S
C647 N646 1.351 . S
C647 C648 1.434 . S
C648 C639 1.429 . S
C648 N645 1.350 . S
C648 C647 1.434 . S
C649 C650 1.369 . S
C649 C651 1.419 . S
C649 H653 0.930 . S
C650 C649 1.369 . S
C650 C659 1.429 . S
C651 C649 1.419 . S
C651 C652 1.363 . S
C651 H654 0.929 . S
C652 C651 1.363 . S
C652 C658 1.428 . S
H653 C649 0.930 . S
H654 C651 0.929 . S
S655 N656 1.613 . S
S655 N657 1.610 . S
N656 S655 1.613 . S
N656 C659 1.350 . S
N657 S655 1.610 . S
N657 C658 1.351 . S
C658 C652 1.428 . S
C658 N657 1.351 . S
C658 C659 1.434 . S
C659 C650 1.429 . S
C659 N656 1.350 . S
C659 C658 1.434 . S
C660 C661 1.369 1_556 S
C660 C662 1.419 . S
C660 H664 0.930 . S
C661 C660 1.369 1_554 S
C661 C670 1.429 . S
C662 C660 1.419 . S
C662 C663 1.363 . S
C662 H665 0.929 . S
C663 C662 1.363 . S
C663 C669 1.428 . S
H664 C660 0.930 . S
H665 C662 0.929 . S
S666 N667 1.613 . S
S666 N668 1.610 1_554 S
N667 S666 1.613 . S
N667 C670 1.350 . S
N668 S666 1.610 1_556 S
N668 C669 1.351 . S
C669 C663 1.428 . S
C669 N668 1.351 . S
C669 C670 1.434 1_556 S
C670 C661 1.429 . S
C670 N667 1.350 . S
C670 C669 1.434 1_554 S
C671 C672 1.369 1_556 S
C671 C673 1.419 . S
C671 H675 0.930 . S
C672 C671 1.369 1_554 S
C672 C681 1.429 . S
C673 C671 1.419 . S
C673 C674 1.363 . S
C673 H676 0.929 . S
C674 C673 1.363 . S
C674 C680 1.428 . S
H675 C671 0.930 . S
H676 C673 0.929 . S
S677 N678 1.613 . S
S677 N679 1.610 1_554 S
N678 S677 1.613 . S
N678 C681 1.350 . S
N679 S677 1.610 1_556 S
N679 C680 1.351 . S
C680 C674 1.428 . S
C680 N679 1.351 . S
C680 C681 1.434 1_556 S
C681 C672 1.429 . S
C681 N678 1.350 . S
C681 C680 1.434 1_554 S
C682 C683 1.369 . S
C682 C684 1.419 1_556 S
C682 H686 0.930 . S
C683 C682 1.369 . S
C683 C692 1.429 . S
C684 C682 1.419 1_554 S
C684 C685 1.363 . S
C684 H687 0.929 . S
C685 C684 1.363 . S
C685 C691 1.428 1_554 S
H686 C682 0.930 . S
H687 C684 0.929 . S
S688 N689 1.613 . S
S688 N690 1.610 1_556 S
N689 S688 1.613 . S
N689 C692 1.350 . S
N690 S688 1.610 1_554 S
N690 C691 1.351 1_554 S
C691 C685 1.428 1_556 S
C691 N690 1.351 1_556 S
C691 C692 1.434 . S
C692 C683 1.429 . S
C692 N689 1.350 . S
C692 C691 1.434 . S
C693 C694 1.369 . S
C693 C695 1.419 . S
C693 H697 0.930 . S
C694 C693 1.369 . S
C694 C703 1.429 . S
C695 C693 1.419 . S
C695 C696 1.363 . S
C695 H698 0.929 . S
C696 C695 1.363 . S
C696 C702 1.428 . S
H697 C693 0.930 . S
H698 C695 0.929 . S
S699 N700 1.613 . S
S699 N701 1.610 . S
N700 S699 1.613 . S
N700 C703 1.350 . S
N701 S699 1.610 . S
N701 C702 1.351 . S
C702 C696 1.428 . S
C702 N701 1.351 . S
C702 C703 1.434 . S
C703 C694 1.429 . S
C703 N700 1.350 . S
C703 C702 1.434 . S
C704 C705 1.369 . S
C704 C706 1.419 . S
C704 H708 0.930 . S
C705 C704 1.369 . S
C705 C714 1.429 . S
C706 C704 1.419 . S
C706 C707 1.363 . S
C706 H709 0.929 . S
C707 C706 1.363 . S
C707 C713 1.428 . S
H708 C704 0.930 . S
H709 C706 0.929 . S
S710 N711 1.613 . S
S710 N712 1.610 . S
N711 S710 1.613 . S
N711 C714 1.350 . S
N712 S710 1.610 . S
N712 C713 1.351 . S
C713 C707 1.428 . S
C713 N712 1.351 . S
C713 C714 1.434 . S
C714 C705 1.429 . S
C714 N711 1.350 . S
C714 C713 1.434 . S
C715 C716 1.369 . S
C715 C717 1.419 . S
C715 H719 0.930 . S
C716 C715 1.369 . S
C716 C725 1.429 . S
C717 C715 1.419 . S
C717 C718 1.363 . S
C717 H720 0.929 . S
C718 C717 1.363 . S
C718 C724 1.428 . S
H719 C715 0.930 . S
H720 C717 0.929 . S
S721 N722 1.613 . S
S721 N723 1.610 . S
N722 S721 1.613 . S
N722 C725 1.350 . S
N723 S721 1.610 . S
N723 C724 1.351 . S
C724 C718 1.428 . S
C724 N723 1.351 . S
C724 C725 1.434 . S
C725 C716 1.429 . S
C725 N722 1.350 . S
C725 C724 1.434 . S
C726 C727 1.369 . S
C726 C728 1.419 . S
C726 H730 0.930 . S
C727 C726 1.369 . S
C727 C736 1.429 . S
C728 C726 1.419 . S
C728 C729 1.363 . S
C728 H731 0.929 . S
C729 C728 1.363 . S
C729 C735 1.428 . S
H730 C726 0.930 . S
H731 C728 0.929 . S
S732 N733 1.613 . S
S732 N734 1.610 . S
N733 S732 1.613 . S
N733 C736 1.350 . S
N734 S732 1.610 . S
N734 C735 1.351 . S
C735 C729 1.428 . S
C735 N734 1.351 . S
C735 C736 1.434 . S
C736 C727 1.429 . S
C736 N733 1.350 . S
C736 C735 1.434 . S
C737 C738 1.369 . S
C737 C739 1.419 . S
C737 H741 0.930 . S
C738 C737 1.369 . S
C738 C747 1.429 . S
C739 C737 1.419 . S
C739 C740 1.363 . S
C739 H742 0.929 . S
C740 C739 1.363 . S
C740 C746 1.428 . S
H741 C737 0.930 . S
H742 C739 0.929 . S
S743 N744 1.613 . S
S743 N745 1.610 . S
N744 S743 1.613 . S
N744 C747 1.350 . S
N745 S743 1.610 . S
N745 C746 1.351 . S
C746 C740 1.428 . S
C746 N745 1.351 . S
C746 C747 1.434 . S
C747 C738 1.429 . S
C747 N744 1.350 . S
C747 C746 1.434 . S
C748 C749 1.369 . S
C748 C750 1.419 . S
C748 H752 0.930 . S
C749 C748 1.369 . S
C749 C758 1.429 . S
C750 C748 1.419 . S
C750 C751 1.363 . S
C750 H753 0.929 . S
C751 C750 1.363 . S
C751 C757 1.428 . S
H752 C748 0.930 . S
H753 C750 0.929 . S
S754 N755 1.613 . S
S754 N756 1.610 . S
N755 S754 1.613 . S
N755 C758 1.350 . S
N756 S754 1.610 . S
N756 C757 1.351 . S
C757 C751 1.428 . S
C757 N756 1.351 . S
C757 C758 1.434 . S
C758 C749 1.429 . S
C758 N755 1.350 . S
C758 C757 1.434 . S
C759 C760 1.369 . S
C759 C761 1.419 . S
C759 H763 0.930 . S
C760 C759 1.369 . S
C760 C769 1.429 . S
C761 C759 1.419 . S
C761 C762 1.363 1_554 S
C761 H764 0.929 . S
C762 C761 1.363 1_556 S
C762 C768 1.428 . S
H763 C759 0.930 . S
H764 C761 0.929 . S
S765 N766 1.613 1_556 S
S765 N767 1.610 . S
N766 S765 1.613 1_554 S
N766 C769 1.350 . S
N767 S765 1.610 . S
N767 C768 1.351 . S
C768 C762 1.428 . S
C768 N767 1.351 . S
C768 C769 1.434 1_556 S
C769 C760 1.429 . S
C769 N766 1.350 . S
C769 C768 1.434 1_554 S
C770 C771 1.369 . S
C770 C772 1.419 1_554 S
C770 H774 0.930 . S
C771 C770 1.369 . S
C771 C780 1.429 . S
C772 C770 1.419 1_556 S
C772 C773 1.363 . S
C772 H775 0.929 . S
C773 C772 1.363 . S
C773 C779 1.428 1_556 S
H774 C770 0.930 . S
H775 C772 0.929 . S
S776 N777 1.613 . S
S776 N778 1.610 1_554 S
N777 S776 1.613 . S
N777 C780 1.350 . S
N778 S776 1.610 1_556 S
N778 C779 1.351 1_556 S
C779 C773 1.428 1_554 S
C779 N778 1.351 1_554 S
C779 C780 1.434 . S
C780 C771 1.429 . S
C780 N777 1.350 . S
C780 C779 1.434 . S
C781 C782 1.369 1_554 S
C781 C783 1.419 . S
C781 H785 0.930 1_554 S
C782 C781 1.369 1_556 S
C782 C791 1.429 . S
C783 C781 1.419 . S
C783 C784 1.363 . S
C783 H786 0.929 . S
C784 C783 1.363 . S
C784 C790 1.428 . S
H785 C781 0.930 1_556 S
H786 C783 0.929 . S
S787 N788 1.613 1_554 S
S787 N789 1.610 . S
N788 S787 1.613 1_556 S
N788 C791 1.350 . S
N789 S787 1.610 . S
N789 C790 1.351 . S
C790 C784 1.428 . S
C790 N789 1.351 . S
C790 C791 1.434 1_554 S
C791 C782 1.429 . S
C791 N788 1.350 . S
C791 C790 1.434 1_556 S
C792 C793 1.369 . S
C792 C794 1.419 . S
C792 H796 0.930 . S
C793 C792 1.369 . S
C793 C802 1.429 . S
C794 C792 1.419 . S
C794 C795 1.363 . S
C794 H797 0.929 . S
C795 C794 1.363 . S
C795 C801 1.428 . S
H796 C792 0.930 . S
H797 C794 0.929 . S
S798 N799 1.613 . S
S798 N800 1.610 . S
N799 S798 1.613 . S
N799 C802 1.350 . S
N800 S798 1.610 . S
N800 C801 1.351 . S
C801 C795 1.428 . S
C801 N800 1.351 . S
C801 C802 1.434 . S
C802 C793 1.429 . S
C802 N799 1.350 . S
C802 C801 1.434 . S
C803 C804 1.369 . S
C803 C805 1.419 . S
C803 H807 0.930 . S
C804 C803 1.369 . S
C804 C813 1.429 . S
C805 C803 1.419 . S
C805 C806 1.363 . S
C805 H808 0.929 . S
C806 C805 1.363 . S
C806 C812 1.428 . S
H807 C803 0.930 . S
H808 C805 0.929 . S
S809 N810 1.613 . S
S809 N811 1.610 . S
N810 S809 1.613 . S
N810 C813 1.350 . S
N811 S809 1.610 . S
N811 C812 1.351 . S
C812 C806 1.428 . S
C812 N811 1.351 . S
C812 C813 1.434 . S
C813 C804 1.429 . S
C813 N810 1.350 . S
C813 C812 1.434 . S
C814 C815 1.369 . S
C814 C816 1.419 . S
C814 H818 0.930 . S
C815 C814 1.369 . S
C815 C824 1.429 . S
C816 C814 1.419 . S
C816 C817 1.363 . S
C816 H819 0.929 . S
C817 C816 1.363 . S
C817 C823 1.428 . S
H818 C814 0.930 . S
H819 C816 0.929 . S
S820 N821 1.613 . S
S820 N822 1.610 . S
N821 S820 1.613 . S
N821 C824 1.350 . S
N822 S820 1.610 . S
N822 C823 1.351 . S
C823 C817 1.428 . S
C823 N822 1.351 . S
C823 C824 1.434 . S
C824 C815 1.429 . S
C824 N821 1.350 . S
C824 C823 1.434 . S
C825 C826 1.369 . S
C825 C827 1.419 . S
C825 H829 0.930 . S
C826 C825 1.369 . S
C826 C835 1.429 . S
C827 C825 1.419 . S
C827 C828 1.363 . S
C827 H830 0.929 . S
C828 C827 1.363 . S
C828 C834 1.428 . S
H829 C825 0.930 . S
H830 C827 0.929 . S
S831 N832 1.613 . S
S831 N833 1.610 . S
N832 S831 1.613 . S
N832 C835 1.350 . S
N833 S831 1.610 . S
N833 C834 1.351 . S
C834 C828 1.428 . S
C834 N833 1.351 . S
C834 C835 1.434 . S
C835 C826 1.429 . S
C835 N832 1.350 . S
C835 C834 1.434 . S
C836 C837 1.369 . S
C836 C838 1.419 . S
C836 H840 0.930 . S
C837 C836 1.369 . S
C837 C846 1.429 . S
C838 C836 1.419 . S
C838 C839 1.363 . S
C838 H841 0.929 . S
C839 C838 1.363 . S
C839 C845 1.428 . S
H840 C836 0.930 . S
H841 C838 0.929 . S
S842 N843 1.613 . S
S842 N844 1.610 . S
N843 S842 1.613 . S
N843 C846 1.350 . S
N844 S842 1.610 . S
N844 C845 1.351 . S
C845 C839 1.428 . S
C845 N844 1.351 . S
C845 C846 1.434 . S
C846 C837 1.429 . S
C846 N843 1.350 . S
C846 C845 1.434 . S
C847 C848 1.369 . S
C847 C849 1.419 . S
C847 H851 0.930 . S
C848 C847 1.369 . S
C848 C857 1.429 . S
C849 C847 1.419 . S
C849 C850 1.363 . S
C849 H852 0.929 . S
C850 C849 1.363 . S
C850 C856 1.428 . S
H851 C847 0.930 . S
H852 C849 0.929 . S
S853 N854 1.613 . S
S853 N855 1.610 . S
N854 S853 1.613 . S
N854 C857 1.350 . S
N855 S853 1.610 . S
N855 C856 1.351 . S
C856 C850 1.428 . S
C856 N855 1.351 . S
C856 C857 1.434 . S
C857 C848 1.429 . S
C857 N854 1.350 . S
C857 C856 1.434 . S
C858 C859 1.369 1_556 S
C858 C860 1.419 . S
C858 H862 0.930 . S
C859 C858 1.369 1_554 S
C859 C868 1.429 1_655 S
C860 C858 1.419 . S
C860 C861 1.363 1_655 S
C860 H863 0.929 . S
C861 C860 1.363 1_455 S
C861 C867 1.428 1_556 S
H862 C858 0.930 . S
H863 C860 0.929 . S
S864 N865 1.613 . S
S864 N866 1.610 . S
N865 S864 1.613 . S
N865 C868 1.350 . S
N866 S864 1.610 . S
N866 C867 1.351 . S
C867 C861 1.428 1_554 S
C867 N866 1.351 . S
C867 C868 1.434 . S
C868 C859 1.429 1_455 S
C868 N865 1.350 . S
C868 C867 1.434 . S
C869 C870 1.369 . S
C869 C871 1.419 1_556 S
C869 H873 0.930 . S
C870 C869 1.369 . S
C870 C879 1.429 . S
C871 C869 1.419 1_554 S
C871 C872 1.363 . S
C871 H874 0.929 . S
C872 C871 1.363 . S
C872 C878 1.428 . S
H873 C869 0.930 . S
H874 C871 0.929 . S
S875 N876 1.613 . S
S875 N877 1.610 . S
N876 S875 1.613 . S
N876 C879 1.350 1_554 S
N877 S875 1.610 . S
N877 C878 1.351 . S
C878 C872 1.428 . S
C878 N877 1.351 . S
C878 C879 1.434 1_554 S
C879 C870 1.429 . S
C879 N876 1.350 1_556 S
C879 C878 1.434 1_556 S
C880 C881 1.369 . S
C880 C882 1.419 1_554 S
C880 H884 0.931 . S
C881 C880 1.369 . S
C881 C890 1.429 1_545 S
C882 C880 1.419 1_556 S
C882 C883 1.363 1_545 S
C882 H885 0.929 . S
C883 C882 1.363 1_565 S
C883 C889 1.422 1_556 S
H884 C880 0.931 . S
H885 C882 0.929 . S
S886 N887 1.613 . S
S886 N888 1.610 . S
N887 S886 1.613 . S
N887 C890 1.350 . S
N888 S886 1.610 . S
N888 C889 1.352 . S
C889 C883 1.422 1_554 S
C889 N888 1.352 . S
C889 C890 1.440 . S
C890 C881 1.429 1_565 S
C890 N887 1.350 . S
C890 C889 1.440 . S
C891 C892 1.369 . S
C891 C893 1.419 . S
C891 H895 0.930 . S
C892 C891 1.369 . S
C892 C901 1.429 1_554 S
C893 C891 1.419 . S
C893 C894 1.363 1_554 S
C893 H896 0.929 . S
C894 C893 1.363 1_556 S
C894 C900 1.428 . S
H895 C891 0.930 . S
H896 C893 0.929 . S
S897 N898 1.613 . S
S897 N899 1.610 . S
N898 S897 1.613 . S
N898 C901 1.350 . S
N899 S897 1.610 . S
N899 C900 1.351 . S
C900 C894 1.428 . S
C900 N899 1.351 . S
C900 C901 1.434 . S
C901 C892 1.429 1_556 S
C901 N898 1.350 . S
C901 C900 1.434 . S
C902 C903 1.369 . S
C902 C904 1.419 1_564 S
C902 H906 0.930 1_554 S
C903 C902 1.369 . S
C903 C912 1.429 . S
C904 C902 1.419 1_546 S
C904 C905 1.363 . S
C904 H907 0.929 . S
C905 C904 1.363 . S
C905 C911 1.428 1_556 S
H906 C902 0.930 1_556 S
H907 C904 0.929 . S
S908 N909 1.613 1_545 S
S908 N910 1.610 . S
N909 S908 1.613 1_565 S
N909 C912 1.350 . S
N910 S908 1.610 . S
N910 C911 1.351 . S
C911 C905 1.428 1_554 S
C911 N910 1.351 . S
C911 C912 1.434 1_545 S
C912 C903 1.429 . S
C912 N909 1.350 . S
C912 C911 1.434 1_565 S
C913 C914 1.369 1_554 S
C913 C915 1.419 1_655 S
C913 H917 0.930 . S
C914 C913 1.369 1_556 S
C914 C923 1.429 . S
C915 C913 1.419 1_455 S
C915 C916 1.363 . S
C915 H918 0.929 . S
C916 C915 1.363 . S
C916 C922 1.428 1_554 S
H917 C913 0.930 . S
H918 C915 0.929 . S
S919 N920 1.613 1_455 S
S919 N921 1.610 . S
N920 S919 1.613 1_655 S
N920 C923 1.350 . S
N921 S919 1.610 . S
N921 C922 1.351 . S
C922 C916 1.428 1_556 S
C922 N921 1.351 . S
C922 C923 1.434 1_455 S
C923 C914 1.429 . S
C923 N920 1.350 . S
C923 C922 1.434 1_655 S
C924 C925 1.369 . S
C924 C926 1.419 . S
C924 H928 0.930 . S
C925 C924 1.369 . S
C925 C934 1.429 1_556 S
C926 C924 1.419 . S
C926 C927 1.363 1_556 S
C926 H929 0.929 . S
C927 C926 1.363 1_554 S
C927 C933 1.428 . S
H928 C924 0.930 . S
H929 C926 0.929 . S
S930 N931 1.613 . S
S930 N932 1.610 . S
N931 S930 1.613 . S
N931 C934 1.350 . S
N932 S930 1.610 . S
N932 C933 1.351 . S
C933 C927 1.428 . S
C933 N932 1.351 . S
C933 C934 1.434 . S
C934 C925 1.429 1_554 S
C934 N931 1.350 . S
C934 C933 1.434 . S
C935 C936 1.369 1_554 S
C935 C937 1.419 1_545 S
C935 H939 0.930 . S
C936 C935 1.369 1_556 S
C936 C945 1.429 . S
C937 C935 1.419 1_565 S
C937 C938 1.363 . S
C937 H940 0.929 . S
C938 C937 1.363 . S
C938 C944 1.428 1_554 S
H939 C935 0.930 . S
H940 C937 0.929 . S
S941 N942 1.613 1_565 S
S941 N943 1.610 . S
N942 S941 1.613 1_545 S
N942 C945 1.350 . S
N943 S941 1.610 . S
N943 C944 1.351 . S
C944 C938 1.428 1_556 S
C944 N943 1.351 . S
C944 C945 1.434 1_565 S
C945 C936 1.429 . S
C945 N942 1.350 . S
C945 C944 1.434 1_545 S
C946 C947 1.369 1_554 S
C946 C948 1.419 1_655 S
C946 H950 0.930 . S
C947 C946 1.369 1_556 S
C947 C956 1.429 . S
C948 C946 1.419 1_455 S
C948 C949 1.363 . S
C948 H951 0.929 . S
C949 C948 1.363 . S
C949 C955 1.428 1_554 S
H950 C946 0.930 . S
H951 C948 0.929 . S
S952 N953 1.613 1_455 S
S952 N954 1.610 . S
N953 S952 1.613 1_655 S
N953 C956 1.350 . S
N954 S952 1.610 . S
N954 C955 1.351 . S
C955 C949 1.428 1_556 S
C955 N954 1.351 . S
C955 C956 1.434 1_455 S
C956 C947 1.429 . S
C956 N953 1.350 . S
C956 C955 1.434 1_655 S
C957 C958 1.369 . S
C957 C959 1.419 . S
C957 H961 0.930 . S
C958 C957 1.369 . S
C958 C967 1.429 . S
C959 C957 1.419 . S
C959 C960 1.363 . S
C959 H962 0.929 . S
C960 C959 1.363 . S
C960 C966 1.428 . S
H961 C957 0.930 . S
H962 C959 0.929 . S
S963 N964 1.613 . S
S963 N965 1.610 . S
N964 S963 1.613 . S
N964 C967 1.350 . S
N965 S963 1.610 . S
N965 C966 1.351 . S
C966 C960 1.428 . S
C966 N965 1.351 . S
C966 C967 1.434 . S
C967 C958 1.429 . S
C967 N964 1.350 . S
C967 C966 1.434 . S
C968 C969 1.369 . S
C968 C970 1.419 . S
C968 H972 0.930 . S
C969 C968 1.369 . S
C969 C978 1.429 . S
C970 C968 1.419 . S
C970 C971 1.363 . S
C970 H973 0.929 . S
C971 C970 1.363 . S
C971 C977 1.428 . S
H972 C968 0.930 . S
H973 C970 0.929 . S
S974 N975 1.613 . S
S974 N976 1.610 . S
N975 S974 1.613 . S
N975 C978 1.350 . S
N976 S974 1.610 . S
N976 C977 1.351 . S
C977 C971 1.428 . S
C977 N976 1.351 . S
C977 C978 1.434 . S
C978 C969 1.429 . S
C978 N975 1.350 . S
C978 C977 1.434 . S
C979 C980 1.369 . S
C979 C981 1.419 . S
C979 H983 0.930 . S
C980 C979 1.369 . S
C980 C989 1.429 . S
C981 C979 1.419 . S
C981 C982 1.363 . S
C981 H984 0.929 . S
C982 C981 1.363 . S
C982 C988 1.428 . S
H983 C979 0.930 . S
H984 C981 0.929 . S
S985 N986 1.613 . S
S985 N987 1.610 . S
N986 S985 1.613 . S
N986 C989 1.350 . S
N987 S985 1.610 . S
N987 C988 1.351 . S
C988 C982 1.428 . S
C988 N987 1.351 . S
C988 C989 1.434 . S
C989 C980 1.429 . S
C989 N986 1.350 . S
C989 C988 1.434 . S
C990 C991 1.369 . S
C990 C992 1.419 . S
C990 H994 0.930 . S
C991 C990 1.369 . S
C991 C1000 1.429 . S
C992 C990 1.419 . S
C992 C993 1.363 . S
C992 H995 0.929 . S
C993 C992 1.363 . S
C993 C999 1.428 . S
H994 C990 0.930 . S
H995 C992 0.929 . S
S996 N997 1.613 . S
S996 N998 1.610 . S
N997 S996 1.613 . S
N997 C1000 1.350 . S
N998 S996 1.610 . S
N998 C999 1.351 . S
C999 C993 1.428 . S
C999 N998 1.351 . S
C999 C1000 1.434 . S
C1000 C991 1.429 . S
C1000 N997 1.350 . S
C1000 C999 1.434 . S
C1001 C1002 1.369 . S
C1001 C1003 1.419 . S
C1001 H1005 0.930 . S
C1002 C1001 1.369 . S
C1002 C1011 1.429 . S
C1003 C1001 1.419 . S
C1003 C1004 1.363 . S
C1003 H1006 0.929 . S
C1004 C1003 1.363 . S
C1004 C1010 1.428 . S
H1005 C1001 0.930 . S
H1006 C1003 0.929 . S
S1007 N1008 1.613 . S
S1007 N1009 1.610 . S
N1008 S1007 1.613 . S
N1008 C1011 1.350 . S
N1009 S1007 1.610 . S
N1009 C1010 1.351 . S
C1010 C1004 1.428 . S
C1010 N1009 1.351 . S
C1010 C1011 1.434 . S
C1011 C1002 1.429 . S
C1011 N1008 1.350 . S
C1011 C1010 1.434 . S
C1012 C1013 1.369 . S
C1012 C1014 1.419 . S
C1012 H1016 0.930 . S
C1013 C1012 1.369 . S
C1013 C1022 1.429 . S
C1014 C1012 1.419 . S
C1014 C1015 1.363 . S
C1014 H1017 0.929 . S
C1015 C1014 1.363 . S
C1015 C1021 1.428 . S
H1016 C1012 0.930 . S
H1017 C1014 0.929 . S
S1018 N1019 1.613 . S
S1018 N1020 1.610 . S
N1019 S1018 1.613 . S
N1019 C1022 1.350 . S
N1020 S1018 1.610 . S
N1020 C1021 1.351 . S
C1021 C1015 1.428 . S
C1021 N1020 1.351 . S
C1021 C1022 1.434 . S
C1022 C1013 1.429 . S
C1022 N1019 1.350 . S
C1022 C1021 1.434 . S
C1023 C1024 1.369 . S
C1023 C1025 1.419 . S
C1023 H1027 0.930 . S
C1024 C1023 1.369 . S
C1024 C1033 1.429 . S
C1025 C1023 1.419 . S
C1025 C1026 1.363 . S
C1025 H1028 0.929 . S
C1026 C1025 1.363 . S
C1026 C1032 1.428 . S
H1027 C1023 0.930 . S
H1028 C1025 0.929 . S
S1029 N1030 1.613 . S
S1029 N1031 1.610 . S
N1030 S1029 1.613 . S
N1030 C1033 1.350 . S
N1031 S1029 1.610 . S
N1031 C1032 1.351 . S
C1032 C1026 1.428 . S
C1032 N1031 1.351 . S
C1032 C1033 1.434 . S
C1033 C1024 1.429 . S
C1033 N1030 1.350 . S
C1033 C1032 1.434 . S
C1034 C1035 1.369 . S
C1034 C1036 1.419 . S
C1034 H1038 0.930 . S
C1035 C1034 1.369 . S
C1035 C1044 1.429 . S
C1036 C1034 1.419 . S
C1036 C1037 1.363 . S
C1036 H1039 0.929 . S
C1037 C1036 1.363 . S
C1037 C1043 1.428 . S
H1038 C1034 0.930 . S
H1039 C1036 0.929 . S
S1040 N1041 1.613 . S
S1040 N1042 1.610 . S
N1041 S1040 1.613 . S
N1041 C1044 1.350 . S
N1042 S1040 1.610 . S
N1042 C1043 1.351 . S
C1043 C1037 1.428 . S
C1043 N1042 1.351 . S
C1043 C1044 1.434 . S
C1044 C1035 1.429 . S
C1044 N1041 1.350 . S
C1044 C1043 1.434 . S
C1045 C1046 1.369 . S
C1045 C1047 1.419 . S
C1045 H1049 0.930 . S
C1046 C1045 1.369 . S
C1046 C1055 1.429 . S
C1047 C1045 1.419 . S
C1047 C1048 1.363 . S
C1047 H1050 0.929 . S
C1048 C1047 1.363 . S
C1048 C1054 1.428 . S
H1049 C1045 0.930 . S
H1050 C1047 0.929 . S
S1051 N1052 1.613 . S
S1051 N1053 1.610 . S
N1052 S1051 1.613 . S
N1052 C1055 1.350 . S
N1053 S1051 1.610 . S
N1053 C1054 1.351 . S
C1054 C1048 1.428 . S
C1054 N1053 1.351 . S
C1054 C1055 1.434 . S
C1055 C1046 1.429 . S
C1055 N1052 1.350 . S
C1055 C1054 1.434 . S
C1056 C1057 1.369 . S
C1056 C1058 1.419 . S
C1056 H1060 0.930 . S
C1057 C1056 1.369 . S
C1057 C1066 1.429 . S
C1058 C1056 1.419 . S
C1058 C1059 1.363 . S
C1058 H1061 0.929 . S
C1059 C1058 1.363 . S
C1059 C1065 1.428 . S
H1060 C1056 0.930 . S
H1061 C1058 0.929 . S
S1062 N1063 1.613 . S
S1062 N1064 1.610 . S
N1063 S1062 1.613 . S
N1063 C1066 1.350 . S
N1064 S1062 1.610 . S
N1064 C1065 1.351 . S
C1065 C1059 1.428 . S
C1065 N1064 1.351 . S
C1065 C1066 1.434 . S
C1066 C1057 1.429 . S
C1066 N1063 1.350 . S
C1066 C1065 1.434 . S
C1067 C1068 1.369 . S
C1067 C1069 1.419 . S
C1067 H1071 0.930 . S
C1068 C1067 1.369 . S
C1068 C1077 1.429 . S
C1069 C1067 1.419 . S
C1069 C1070 1.363 . S
C1069 H1072 0.929 . S
C1070 C1069 1.363 . S
C1070 C1076 1.428 . S
H1071 C1067 0.930 . S
H1072 C1069 0.929 . S
S1073 N1074 1.613 . S
S1073 N1075 1.610 . S
N1074 S1073 1.613 . S
N1074 C1077 1.350 . S
N1075 S1073 1.610 . S
N1075 C1076 1.351 . S
C1076 C1070 1.428 . S
C1076 N1075 1.351 . S
C1076 C1077 1.434 . S
C1077 C1068 1.429 . S
C1077 N1074 1.350 . S
C1077 C1076 1.434 . S
C1078 C1079 1.369 . S
C1078 C1080 1.419 . S
C1078 H1082 0.930 . S
C1079 C1078 1.369 . S
C1079 C1088 1.429 . S
C1080 C1078 1.419 . S
C1080 C1081 1.363 . S
C1080 H1083 0.929 . S
C1081 C1080 1.363 . S
C1081 C1087 1.428 . S
H1082 C1078 0.930 . S
H1083 C1080 0.929 . S
S1084 N1085 1.613 . S
S1084 N1086 1.610 . S
N1085 S1084 1.613 . S
N1085 C1088 1.350 . S
N1086 S1084 1.610 . S
N1086 C1087 1.351 . S
C1087 C1081 1.428 . S
C1087 N1086 1.351 . S
C1087 C1088 1.434 . S
C1088 C1079 1.429 . S
C1088 N1085 1.350 . S
C1088 C1087 1.434 . S
C595 N13 1.265 . S
C597 N2 1.264 . S
C606 N46 1.266 . S
C608 N35 1.263 . S
C617 N68 1.264 . S
C619 N79 1.265 . S
C628 N112 1.266 . S
C630 N101 1.263 . S
C639 N145 1.266 . S
C641 N134 1.263 . S
C650 N167 1.264 . S
C652 N178 1.265 . S
C661 N200 1.263 . S
C663 N211 1.265 . S
C672 N233 1.264 . S
C674 N244 1.265 . S
C683 N277 1.262 . S
C685 N266 1.266 . S
C694 N310 1.264 . S
C696 N299 1.265 . S
C705 N343 1.266 . S
C707 N332 1.264 . S
C716 N365 1.263 . S
C718 N376 1.266 . S
C727 N398 1.265 . S
C729 N409 1.264 . S
C738 N431 1.263 . S
C740 N442 1.265 . S
C749 N464 1.263 . S
C751 N475 1.266 . S
C760 N508 1.266 . S
C762 N497 1.263 . S
C771 N541 1.262 . S
C773 N530 1.266 . S
C782 N563 1.262 . S
C784 N574 1.266 . S
C793 C579 1.633 . S
C795 C18 1.639 . S
C804 C51 1.636 . S
C806 C513 1.637 . S
C815 C546 1.641 . S
C817 C84 1.633 . S
C826 C249 1.638 . S
C828 C117 1.635 . S
C837 C150 1.641 . S
C839 C282 1.633 . S
C848 C183 1.640 . S
C850 C216 1.634 . S
C859 C315 1.639 . S
C861 C447 1.635 . S
C870 C480 1.633 . S
C872 C348 1.639 . S
C881 C381 1.641 . S
C883 C414 1.633 . S
C892 C7 1.502 . S
C894 C106 1.506 . S
C903 C40 1.506 . S
C905 C139 1.503 . S
C914 C172 1.506 . S
C916 C73 1.503 . S
C925 C186 1.552 . S
C927 C54 1.555 . S
C936 C120 1.556 . S
C938 C87 1.552 . S
C947 C153 1.555 . S
C949 C21 1.552 . S
C958 C304 1.502 . S
C960 C205 1.506 . S
C969 C337 1.507 . S
C971 C238 1.502 . S
C980 C271 1.504 . S
C982 C370 1.504 . S
C991 C384 1.552 . S
C993 C252 1.554 . S
C1002 C285 1.555 . S
C1004 C318 1.553 . S
C1013 C219 1.553 . S
C1015 C351 1.553 . S
C1024 C502 1.501 . S
C1026 C403 1.506 . S
C1035 C535 1.502 . S
C1037 C436 1.506 . S
C1046 C568 1.503 . S
C1048 C469 1.506 . S
C1057 C450 1.553 . S
C1059 C582 1.554 . S
C1068 C483 1.551 . S
C1070 C516 1.555 . S
C1079 C549 1.555 . S
C1081 C417 1.552 . S
