# Generated by pormake.
# Topology wji, (4)-cn, num edge types: 1
# Building blocks:
#     Node 0, Type 0, BuildingBlock: TATPOV_clean_sbu_0, # of connection points: 4
#     Node 1, Type 0, BuildingBlock: TATPOV_clean_sbu_0, # of connection points: 4
#     Node 2, Type 0, BuildingBlock: TATPOV_clean_sbu_0, # of connection points: 4
#     Node 3, Type 0, BuildingBlock: TATPOV_clean_sbu_0, # of connection points: 4
#     Node 4, Type 0, BuildingBlock: TATPOV_clean_sbu_0, # of connection points: 4
#     Node 5, Type 0, BuildingBlock: TATPOV_clean_sbu_0, # of connection points: 4
#     Node 6, Type 0, BuildingBlock: TATPOV_clean_sbu_0, # of connection points: 4
#     Node 7, Type 0, BuildingBlock: TATPOV_clean_sbu_0, # of connection points: 4
#     Node 8, Type 0, BuildingBlock: TATPOV_clean_sbu_0, # of connection points: 4
#     Node 9, Type 0, BuildingBlock: TATPOV_clean_sbu_0, # of connection points: 4
#     Node 10, Type 0, BuildingBlock: TATPOV_clean_sbu_0, # of connection points: 4
#     Node 11, Type 0, BuildingBlock: TATPOV_clean_sbu_0, # of connection points: 4
#     Edge 12, Type (0, 0), BuildingBlock: CIFDUS_clean_linker_0, # of connection points: 2
#     Edge 13, Type (0, 0), BuildingBlock: CIFDUS_clean_linker_0, # of connection points: 2
#     Edge 14, Type (0, 0), BuildingBlock: CIFDUS_clean_linker_0, # of connection points: 2
#     Edge 15, Type (0, 0), BuildingBlock: CIFDUS_clean_linker_0, # of connection points: 2
#     Edge 16, Type (0, 0), BuildingBlock: CIFDUS_clean_linker_0, # of connection points: 2
#     Edge 17, Type (0, 0), BuildingBlock: CIFDUS_clean_linker_0, # of connection points: 2
#     Edge 18, Type (0, 0), BuildingBlock: CIFDUS_clean_linker_0, # of connection points: 2
#     Edge 19, Type (0, 0), BuildingBlock: CIFDUS_clean_linker_0, # of connection points: 2
#     Edge 20, Type (0, 0), BuildingBlock: CIFDUS_clean_linker_0, # of connection points: 2
#     Edge 21, Type (0, 0), BuildingBlock: CIFDUS_clean_linker_0, # of connection points: 2
#     Edge 22, Type (0, 0), BuildingBlock: CIFDUS_clean_linker_0, # of connection points: 2
#     Edge 23, Type (0, 0), BuildingBlock: CIFDUS_clean_linker_0, # of connection points: 2
#     Edge 24, Type (0, 0), BuildingBlock: CIFDUS_clean_linker_0, # of connection points: 2
#     Edge 25, Type (0, 0), BuildingBlock: CIFDUS_clean_linker_0, # of connection points: 2
#     Edge 26, Type (0, 0), BuildingBlock: CIFDUS_clean_linker_0, # of connection points: 2
#     Edge 27, Type (0, 0), BuildingBlock: CIFDUS_clean_linker_0, # of connection points: 2
#     Edge 28, Type (0, 0), BuildingBlock: CIFDUS_clean_linker_0, # of connection points: 2
#     Edge 29, Type (0, 0), BuildingBlock: CIFDUS_clean_linker_0, # of connection points: 2
#     Edge 30, Type (0, 0), BuildingBlock: CIFDUS_clean_linker_0, # of connection points: 2
#     Edge 31, Type (0, 0), BuildingBlock: CIFDUS_clean_linker_0, # of connection points: 2
#     Edge 32, Type (0, 0), BuildingBlock: CIFDUS_clean_linker_0, # of connection points: 2
#     Edge 33, Type (0, 0), BuildingBlock: CIFDUS_clean_linker_0, # of connection points: 2
#     Edge 34, Type (0, 0), BuildingBlock: CIFDUS_clean_linker_0, # of connection points: 2
#     Edge 35, Type (0, 0), BuildingBlock: CIFDUS_clean_linker_0, # of connection points: 2
# Relax obj value: 0.213
# Max RMSD: 0.097
# Mean RMSD: 0.097
data_MOF--net-wji--node1-TATPOV_clean_sbu_0--edge1-CIFDUS_clean_linker_0
_symmetry_space_group_name_H-M    P1
_symmetry_Int_Tables_number       1
_symmetry_cell_setting            triclinic
loop_
_symmetry_equiv_pos_as_xyz
'x, y, z'
_cell_length_a     50.636046
_cell_length_b     50.70421
_cell_length_c     19.213521
_cell_angle_alpha  90.026668
_cell_angle_beta   89.971811
_cell_angle_gamma 119.92864
loop_
_atom_site_label
_atom_site_type_symbol
_atom_site_fract_x
_atom_site_fract_y
_atom_site_fract_z
_atom_type_partial_charge
Zn0 Zn 0.44733 0.3753 0.38439 0.0
Zn1 Zn 0.42775 0.3213 0.41055 0.0
O2 O 0.47537 0.34328 0.40428 0.0
O3 O 0.48672 0.38342 0.34101 0.0
O4 O 0.41601 0.27853 0.43936 0.0
O5 O 0.44594 0.38512 0.48539 0.0
O6 O 0.41453 0.336 0.4959 0.0
C7 C 0.49508 0.36664 0.371 0.0
C8 C 0.39502 0.33849 0.30477 0.0
O9 O 0.40089 0.31787 0.32416 0.0
O10 O 0.4108 0.36531 0.32754 0.0
C11 C 0.43049 0.26546 0.41889 0.0
O12 O 0.45217 0.27904 0.3723 0.0
C13 C 0.42647 0.3628 0.52075 0.0
Zn14 Zn 0.07027 0.44132 0.50356 0.0
Zn15 Zn 0.10213 0.42153 0.57003 0.0
O16 O 0.12984 0.4685 0.56241 0.0
O17 O 0.10444 0.48437 0.49889 0.0
O18 O 0.1294 0.40935 0.62026 0.0
O19 O 0.04077 0.42711 0.58566 0.0
O20 O 0.0696 0.41289 0.64175 0.0
C21 C 0.12794 0.49015 0.53355 0.0
C22 C 0.06801 0.39195 0.43239 0.0
O23 O 0.08305 0.39161 0.48541 0.0
O24 O 0.06154 0.41283 0.42513 0.0
C25 C 0.15301 0.41088 0.59305 0.0
O26 O 0.15923 0.41892 0.52743 0.0
C27 C 0.04631 0.41616 0.63933 0.0
Zn28 Zn 0.62403 0.05481 0.78261 0.0
Zn29 Zn 0.6774 0.08952 0.7914 0.0
O30 O 0.65641 0.11456 0.76144 0.0
O31 O 0.61517 0.07844 0.71253 0.0
O32 O 0.72109 0.12133 0.81179 0.0
O33 O 0.61515 0.05602 0.88411 0.0
O34 O 0.66372 0.07044 0.88842 0.0
C35 C 0.6326 0.10638 0.72466 0.0
C36 C 0.65672 0.02946 0.72261 0.0
O37 O 0.6776 0.05745 0.72222 0.0
O38 O 0.6317 0.02179 0.75255 0.0
C39 C 0.7341 0.14807 0.78659 0.0
O40 O 0.71996 0.15484 0.73861 0.0
C41 C 0.63812 0.06021 0.9189 0.0
Zn42 Zn 0.55619 0.63542 0.86339 0.0
Zn43 Zn 0.57557 0.68932 0.89554 0.0
O44 O 0.52794 0.66678 0.89055 0.0
O45 O 0.51571 0.62675 0.82594 0.0
O46 O 0.58569 0.73118 0.92831 0.0
O47 O 0.55988 0.62465 0.96236 0.0
O48 O 0.58961 0.67383 0.97794 0.0
C49 C 0.50778 0.64342 0.85803 0.0
C50 C 0.60776 0.67433 0.78306 0.0
O51 O 0.60248 0.69465 0.80774 0.0
O52 O 0.59175 0.64694 0.80197 0.0
C53 C 0.573 0.74506 0.90198 0.0
O54 O 0.55527 0.73323 0.84743 0.0
C55 C 0.57885 0.64661 -0.00063 0.0
Zn56 Zn 0.94153 0.56835 0.01707 0.0
Zn57 Zn 0.90908 0.58754 0.08163 0.0
O58 O 0.88184 0.54039 0.0736 0.0
O59 O 0.90808 0.52513 0.01118 0.0
O60 O 0.88077 0.59916 0.12941 0.0
O61 O 0.97073 0.58317 0.09958 0.0
O62 O 0.94132 0.59692 0.15484 0.0
C63 C 0.88422 0.519 0.04471 0.0
C64 C 0.94415 0.61728 0.94464 0.0
O65 O 0.92882 0.61758 -0.00284 0.0
O66 O 0.9506 0.59636 0.93785 0.0
C67 C 0.85781 0.59799 0.09961 0.0
O68 O 0.85308 0.59078 0.0333 0.0
C69 C 0.96494 0.59416 0.15285 0.0
Zn70 Zn 0.37863 0.93265 0.13298 0.0
Zn71 Zn 0.32779 0.89584 0.20033 0.0
O72 O 0.34938 0.87054 0.18345 0.0
O73 O 0.38957 0.90012 0.11993 0.0
O74 O 0.2893 0.86614 0.25148 0.0
O75 O 0.39353 0.96035 0.21736 0.0
O76 O 0.35127 0.92863 0.27276 0.0
C77 C 0.3733 0.87512 0.15095 0.0
C78 C 0.32761 0.93092 0.06881 0.0
O79 O 0.31317 0.91322 0.11938 0.0
O80 O 0.35583 0.94104 0.0612 0.0
C81 C 0.29194 0.85859 0.31316 0.0
O82 O 0.31928 0.87026 0.34052 0.0
C83 C 0.37706 0.95295 0.27144 0.0
Zn84 Zn 0.62417 0.55575 0.45816 0.0
Zn85 Zn 0.67568 0.58037 0.39623 0.0
O86 O 0.65718 0.53315 0.39821 0.0
O87 O 0.62138 0.51571 0.4777 0.0
O88 O 0.71549 0.59408 0.34579 0.0
O89 O 0.60523 0.56139 0.37054 0.0
O90 O 0.65142 0.59106 0.32913 0.0
C91 C 0.63716 0.51093 0.43398 0.0
C92 C 0.6676 0.60837 0.52973 0.0
O93 O 0.68589 0.60761 0.48513 0.0
O94 O 0.63961 0.58866 0.52851 0.0
C95 C 0.73849 0.5952 0.37527 0.0
O96 O 0.7371 0.58909 0.44206 0.0
C97 C 0.62269 0.57978 0.32469 0.0
Zn98 Zn 0.07504 0.63001 0.64954 0.0
Zn99 Zn 0.11009 0.68144 0.58669 0.0
O100 O 0.13425 0.65821 0.59299 0.0
O101 O 0.10639 0.61707 0.65488 0.0
O102 O 0.14133 0.72121 0.54333 0.0
O103 O 0.04661 0.61849 0.56576 0.0
O104 O 0.07794 0.66138 0.51201 0.0
C105 C 0.13045 0.63374 0.62091 0.0
C106 C 0.07536 0.67753 0.72357 0.0
O107 O 0.09144 0.69281 0.67158 0.0
O108 O 0.06715 0.64968 0.72957 0.0
C109 C 0.16735 0.73645 0.57172 0.0
O110 O 0.17231 0.72701 0.63139 0.0
C111 C 0.05341 0.63581 0.5132 0.0
Zn112 Zn 0.43904 0.05114 0.78161 0.0
Zn113 Zn 0.42796 0.09033 0.71604 0.0
O114 O 0.47415 0.11479 0.74132 0.0
O115 O 0.48173 0.08286 0.80409 0.0
O116 O 0.42229 0.12153 0.66275 0.0
O117 O 0.4288 0.02552 0.69469 0.0
O118 O 0.41971 0.05862 0.64107 0.0
C119 C 0.49174 0.10889 0.77729 0.0
C120 C 0.3887 0.05286 0.84075 0.0
O121 O 0.39402 0.0725 0.79324 0.0
O122 O 0.40563 0.04133 0.84775 0.0
C123 C 0.40255 0.12958 0.67372 0.0
O124 O 0.38314 0.11721 0.72529 0.0
C125 C 0.42085 0.0341 0.6407 0.0
Zn126 Zn 0.38084 0.45616 0.97737 0.0
Zn127 Zn 0.32962 0.42995 0.91039 0.0
O128 O 0.34748 0.47701 0.90797 0.0
O129 O 0.38381 0.49681 0.98614 0.0
O130 O 0.29057 0.41514 0.85625 0.0
O131 O 0.40041 0.44728 0.89493 0.0
O132 O 0.35496 0.41871 0.84868 0.0
C133 C 0.36759 0.5002 0.94108 0.0
C134 C 0.33557 0.40501 0.051 0.0
O135 O 0.31843 0.40394 0.00114 0.0
O136 O 0.3633 0.42547 0.05278 0.0
C137 C 0.26657 0.41288 0.88298 0.0
O138 O 0.26632 0.41842 0.94971 0.0
C139 C 0.38358 0.4289 0.84826 0.0
Zn140 Zn 0.93872 0.38054 0.13986 0.0
Zn141 Zn 0.90366 0.32917 0.07384 0.0
O142 O 0.87812 0.35078 0.08508 0.0
O143 O 0.90602 0.39157 0.14821 0.0
O144 O 0.87426 0.29059 0.02306 0.0
O145 O 0.96715 0.3943 0.05599 0.0
O146 O 0.93616 0.35165 0.0011 0.0
C147 C 0.8817 0.37478 0.11522 0.0
C148 C 0.9384 0.33156 0.20905 0.0
O149 O 0.92199 0.31663 0.15713 0.0
O150 O 0.94692 0.35944 0.21621 0.0
C151 C 0.86795 0.26349 0.03613 0.0
O152 O 0.88108 0.25824 0.08909 0.0
C153 C 0.96033 0.37751 0.00251 0.0
Zn154 Zn 0.54434 0.91972 0.37148 0.0
Zn155 Zn 0.56688 0.89466 0.29057 0.0
O156 O 0.51934 0.86728 0.29246 0.0
O157 O 0.50233 0.88404 0.37672 0.0
O158 O 0.57967 0.87008 0.2309 0.0
O159 O 0.55504 0.95189 0.29568 0.0
O160 O 0.57846 0.93263 0.23503 0.0
C161 C 0.49717 0.865 0.32881 0.0
C162 C 0.59577 0.92134 0.43305 0.0
O163 O 0.59577 0.90826 0.37637 0.0
O164 O 0.57491 0.92749 0.44535 0.0
C165 C 0.57093 0.86486 0.16779 0.0
O166 O 0.55457 0.8763 0.14315 0.0
C167 C 0.5711 0.95299 0.2439 0.0
H168 H 0.34009 0.35508 0.03617 0.0
H169 H 0.31337 0.40239 0.18066 0.0
H170 H 0.32278 0.37725 0.27827 0.0
H171 H 0.35238 0.35432 0.32032 0.0
H172 H 0.38504 0.31207 0.17602 0.0
H173 H 0.35907 0.32189 0.08028 0.0
C174 C 0.3347 0.35843 0.08896 0.0
C175 C 0.32588 0.38029 0.10169 0.0
C176 C 0.34218 0.34544 0.14468 0.0
C177 C 0.31968 0.38527 0.16996 0.0
C178 C 0.3256 0.37129 0.22569 0.0
C179 C 0.35267 0.34615 0.26825 0.0
C180 C 0.37081 0.3329 0.25459 0.0
C181 C 0.33893 0.35316 0.21358 0.0
C182 C 0.37113 0.32225 0.18746 0.0
C183 C 0.35659 0.32823 0.13273 0.0
H184 H 0.01382 0.34422 0.46076 0.0
H185 H 0.0829 0.3825 0.30225 0.0
H186 H 0.04462 0.35495 0.2125 0.0
H187 H 0.99119 0.33481 0.17951 0.0
H188 H 0.92243 0.3065 0.33828 0.0
H189 H 0.96004 0.31402 0.42744 0.0
C190 C 0.02061 0.34498 0.40686 0.0
C191 C 0.05103 0.3651 0.38785 0.0
C192 C 0.99802 0.33133 0.35541 0.0
C193 C 0.05968 0.36677 0.31796 0.0
C194 C 0.03763 0.35143 0.26661 0.0
C195 C 0.98422 0.32859 0.23324 0.0
C196 C 0.95418 0.31994 0.2526 0.0
C197 C 0.00657 0.33569 0.28447 0.0
C198 C 0.94533 0.31272 0.3223 0.0
C199 C 0.96703 0.3176 0.37333 0.0
H200 H 0.60278 0.90988 0.56682 0.0
H201 H 0.6487 0.97032 0.39576 0.0
H202 H 0.6798 0.01144 0.47667 0.0
H203 H 0.68157 0.03293 0.59381 0.0
H204 H 0.6351 0.97163 0.76389 0.0
H205 H 0.6176 0.92806 0.68661 0.0
C206 C 0.62094 0.93149 0.54755 0.0
C207 C 0.62333 0.93729 0.47591 0.0
C208 C 0.63813 0.9552 0.59446 0.0
C209 C 0.64667 0.96539 0.45102 0.0
C210 C 0.66408 0.9891 0.49735 0.0
C211 C 0.66896 0.00999 0.61442 0.0
C212 C 0.65878 0.00544 0.68373 0.0
C213 C 0.65829 0.98485 0.56906 0.0
C214 C 0.64259 0.97561 0.71012 0.0
C215 C 0.63238 0.95065 0.66589 0.0
H216 H 0.65982 0.6563 0.51309 0.0
H217 H 0.69241 0.61428 0.6579 0.0
H218 H 0.68353 0.64026 0.75472 0.0
H219 H 0.65292 0.66208 0.79767 0.0
H220 H 0.61485 0.69905 0.65342 0.0
H221 H 0.64002 0.68885 0.55652 0.0
C222 C 0.66654 0.65428 0.56558 0.0
C223 C 0.67688 0.63365 0.57881 0.0
C224 C 0.65957 0.66784 0.621 0.0
C225 C 0.68489 0.63044 0.64675 0.0
C226 C 0.6793 0.64491 0.70208 0.0
C227 C 0.65141 0.6692 0.74525 0.0
C228 C 0.632 0.68104 0.73213 0.0
C229 C 0.66465 0.66183 0.69001 0.0
C230 C 0.62987 0.6901 0.66447 0.0
C231 C 0.64391 0.68384 0.6091 0.0
H232 H 0.02265 0.67443 0.69381 0.0
H233 H 0.09047 0.70115 0.85431 0.0
H234 H 0.05254 0.69372 0.94266 0.0
H235 H 0.99853 0.66433 0.97454 0.0
H236 H 0.93021 0.62752 0.81424 0.0
H237 H 0.96915 0.65483 0.72552 0.0
C238 C 0.02937 0.68029 0.74779 0.0
C239 C 0.05924 0.68857 0.76781 0.0
C240 C 0.00681 0.6733 0.79848 0.0
C241 C 0.06772 0.69526 0.83783 0.0
C242 C 0.04584 0.69046 0.88836 0.0
C243 C 0.99208 0.66386 0.92048 0.0
C244 C 0.96165 0.64421 0.90068 0.0
C245 C 0.01498 0.67729 0.86964 0.0
C246 C 0.95343 0.64289 0.83057 0.0
C247 C 0.97584 0.65807 0.77981 0.0
H248 H 0.33835 1.00069 0.81278 0.0
H249 H 0.3787 0.07233 0.96477 0.0
H250 H 0.35003 0.03622 0.05736 0.0
H251 H 0.32988 0.98345 0.09535 0.0
H252 H 0.29957 0.91191 0.94324 0.0
H253 H 0.30654 0.94789 0.85067 0.0
C254 C 0.33926 0.0086 0.86573 0.0
C255 C 0.36066 0.03894 0.88236 0.0
C256 C 0.32505 0.98712 0.91903 0.0
C257 C 0.3622 0.04911 0.95088 0.0
C258 C 0.34627 0.02825 0.00397 0.0
C259 C 0.32303 0.97553 0.04237 0.0
C260 C 0.31433 0.94524 0.02571 0.0
C261 C 0.32991 0.99694 0.98908 0.0
C262 C 0.30603 0.93507 0.95711 0.0
C263 C 0.31062 0.95584 0.90408 0.0
H264 H 0.61162 0.4592 0.51165 0.0
H265 H 0.63362 0.49183 0.30063 0.0
H266 H 0.593 0.44327 0.25724 0.0
H267 H 0.54258 0.39894 0.28323 0.0
H268 H 0.52091 0.36594 0.49399 0.0
H269 H 0.5704 0.40658 0.53329 0.0
C270 C 0.60851 0.45507 0.45604 0.0
C271 C 0.62494 0.4793 0.40957 0.0
C272 C 0.58465 0.42721 0.43144 0.0
C273 C 0.62108 0.47364 0.3376 0.0
C274 C 0.5975 0.44594 0.31269 0.0
C275 C 0.54938 0.39977 0.3371 0.0
C276 C 0.5279 0.38006 0.38593 0.0
C277 C 0.57774 0.42356 0.35956 0.0
C278 C 0.53698 0.381 0.45543 0.0
C279 C 0.56518 0.40455 0.47817 0.0
H280 H 0.14913 0.54199 0.45742 0.0
H281 H 0.1484 0.50898 0.66444 0.0
H282 H 0.15675 0.55685 0.71375 0.0
H283 H 0.14876 0.6007 0.69758 0.0
H284 H 0.15109 0.63451 0.49061 0.0
H285 H 0.15859 0.59433 0.44166 0.0
C286 C 0.15242 0.54595 0.51305 0.0
C287 C 0.14741 0.52181 0.55732 0.0
C288 C 0.15682 0.57345 0.54116 0.0
C289 C 0.15201 0.52718 0.62926 0.0
C290 C 0.15634 0.55445 0.65764 0.0
C291 C 0.15246 0.60014 0.6421 0.0
C292 C 0.14866 0.62 0.59762 0.0
C293 C 0.15648 0.57674 0.61421 0.0
C294 C 0.15379 0.61935 0.5259 0.0
C295 C 0.15768 0.5961 0.49773 0.0
H296 H 0.52685 0.12618 0.66345 0.0
H297 H 0.53039 0.13277 0.88691 0.0
H298 H 0.58329 0.14404 0.88591 0.0
H299 H 0.62101 0.13571 0.82504 0.0
H300 H 0.6122 0.11834 0.60461 0.0
H301 H 0.56995 0.12866 0.59949 0.0
C302 C 0.53986 0.13175 0.71142 0.0
C303 C 0.525 0.12876 0.77513 0.0
C304 C 0.56933 0.13558 0.71063 0.0
C305 C 0.5416 0.13521 0.83733 0.0
C306 C 0.5717 0.14122 0.83672 0.0
C307 C 0.61088 0.1359 0.7754 0.0
C308 C 0.61953 0.12632 0.71528 0.0
C309 C 0.58489 0.13914 0.7742 0.0
C310 C 0.60593 0.12588 0.65136 0.0
C311 C 0.58146 0.13131 0.64874 0.0
H312 H 0.45892 0.60882 0.77545 0.0
H313 H 0.48372 0.64669 0.98182 0.0
H314 H 0.43501 0.60686 0.02683 0.0
H315 H 0.39378 0.55372 0.01211 0.0
H316 H 0.36883 0.51599 0.80562 0.0
H317 H 0.40839 0.56364 0.75582 0.0
C318 C 0.45298 0.60918 0.82957 0.0
C319 C 0.47516 0.63005 0.87561 0.0
C320 C 0.42509 0.5858 0.8554 0.0
C321 C 0.46714 0.63068 0.94539 0.0
C322 C 0.43937 0.60761 0.97142 0.0
C323 C 0.39602 0.5565 0.95604 0.0
C324 C 0.3791 0.53114 0.91278 0.0
C325 C 0.41931 0.58382 0.92777 0.0
C326 C 0.38178 0.53508 0.84018 0.0
C327 C 0.40476 0.56225 0.81161 0.0
H328 H 0.86324 0.40613 0.19756 0.0
H329 H 0.85973 0.37515 0.98711 0.0
H330 H 0.85203 0.41597 0.94354 0.0
H331 H 0.8621 0.46825 0.96451 0.0
H332 H 0.86428 0.49861 0.17498 0.0
H333 H 0.85562 0.44989 0.21951 0.0
C334 C 0.85917 0.40742 0.14255 0.0
C335 C 0.86278 0.38821 0.09546 0.0
C336 C 0.85515 0.43125 0.11776 0.0
C337 C 0.85719 0.38978 0.02438 0.0
C338 C 0.85321 0.41343 -0.00072 0.0
C339 C 0.85903 0.46352 0.01991 0.0
C340 C 0.86451 0.48711 0.06648 0.0
C341 C 0.85447 0.43555 0.04519 0.0
C342 C 0.86025 0.48081 0.13811 0.0
C343 C 0.85575 0.45306 0.1637 0.0
H344 H 0.37065 0.8452 0.26955 0.0
H345 H 0.40811 0.86337 0.06221 0.0
H346 H 0.44717 0.85144 0.09838 0.0
H347 H 0.47859 0.85129 0.19514 0.0
H348 H 0.4448 0.84048 0.40519 0.0
H349 H 0.39618 0.83297 0.36212 0.0
C350 C 0.38645 0.84509 0.23155 0.0
C351 C 0.38687 0.85564 0.16365 0.0
C352 C 0.41009 0.84017 0.25396 0.0
C353 C 0.40757 0.85558 0.11498 0.0
C354 C 0.43012 0.84906 0.13589 0.0
C355 C 0.46006 0.84581 0.23123 0.0
C356 C 0.46546 0.84705 0.3033 0.0
C357 C 0.43293 0.84361 0.20632 0.0
C358 C 0.44127 0.83997 0.34948 0.0
C359 C 0.41356 0.83603 0.32486 0.0
H360 H 0.35657 0.37609 0.7762 0.0
H361 H 0.44122 0.46083 0.79687 0.0
H362 H 0.46282 0.44685 0.69943 0.0
H363 H 0.45638 0.41198 0.6041 0.0
H364 H 0.37242 0.32635 0.586 0.0
H365 H 0.3519 0.33901 0.6877 0.0
C366 C 0.37977 0.39141 0.75938 0.0
C367 C 0.39719 0.41959 0.7927 0.0
C368 C 0.39214 0.38304 0.70416 0.0
C369 C 0.4274 0.43905 0.77164 0.0
C370 C 0.43972 0.4311 0.71597 0.0
C371 C 0.4337 0.39598 0.62287 0.0
C372 C 0.41578 0.36847 0.58732 0.0
C373 C 0.42212 0.40337 0.68125 0.0
C374 C 0.38663 0.3477 0.61262 0.0
C375 C 0.37482 0.355 0.67043 0.0
H376 H 0.94358 0.36855 0.86758 0.0
H377 H 0.02218 0.40954 0.0021 0.0
H378 H 0.05598 0.42454 0.90077 0.0
H379 H 0.06292 0.42513 0.77407 0.0
H380 H 0.9845 0.38848 0.63916 0.0
H381 H 0.95062 0.37258 0.74054 0.0
C382 C 0.96813 0.38079 0.87442 0.0
C383 C 0.98055 0.38775 0.94168 0.0
C384 C 0.98728 0.39002 0.81609 0.0
C385 C 0.01228 0.40404 0.95047 0.0
C386 C 0.03153 0.4125 0.89273 0.0
C387 C 0.03839 0.41363 0.76716 0.0
C388 C 0.02602 0.40759 0.69985 0.0
C389 C 0.01926 0.40546 0.82538 0.0
C390 C 0.99434 0.39326 0.69087 0.0
C391 C 0.97505 0.38415 0.74864 0.0
H392 H 0.62547 0.98161 0.17978 0.0
H393 H 0.53976 0.97998 0.19586 0.0
H394 H 0.55483 0.01697 0.10081 0.0
H395 H 0.59 0.04477 0.00486 0.0
H396 H 0.6763 0.04715 0.99167 0.0
H397 H 0.66376 0.0155 0.09545 0.0
C398 C 0.61029 0.98966 0.16278 0.0
C399 C 0.5814 0.97784 0.19325 0.0
C400 C 0.61924 0.01104 0.10904 0.0
C401 C 0.56206 0.98876 0.17241 0.0
C402 C 0.57063 0.00979 0.11815 0.0
C403 C 0.6063 0.03886 0.02556 0.0
C404 C 0.63375 0.04777 0.98995 0.0
C405 C 0.59884 0.02042 0.08487 0.0
C406 C 0.65492 0.04043 0.0179 0.0
C407 C 0.64768 0.02211 0.07691 0.0
H408 H 0.55068 0.59542 0.07687 0.0
H409 H 0.63222 0.68348 0.06691 0.0
H410 H 0.65319 0.67042 0.16715 0.0
H411 H 0.64923 0.63295 0.25383 0.0
H412 H 0.56665 0.54588 0.26676 0.0
H413 H 0.54516 0.55953 0.16862 0.0
C414 C 0.57296 0.61182 0.09696 0.0
C415 C 0.59002 0.64022 0.06435 0.0
C416 C 0.58474 0.60424 0.15455 0.0
C417 C 0.61866 0.66146 0.09134 0.0
C418 C 0.63072 0.65395 0.1483 0.0
C419 C 0.62656 0.617 0.23495 0.0
C420 C 0.60964 0.58836 0.26658 0.0
C421 C 0.61415 0.62522 0.17956 0.0
C422 C 0.58007 0.56805 0.24286 0.0
C423 C 0.56781 0.57581 0.18685 0.0
H424 H 0.06925 0.64413 0.3776 0.0
H425 H 0.99159 0.60563 0.51509 0.0
H426 H 0.95711 0.59023 0.41504 0.0
H427 H 0.94926 0.58778 0.28843 0.0
H428 H 0.0267 0.62167 0.15087 0.0
H429 H 0.06127 0.63884 0.2509 0.0
C430 C 0.04476 0.63244 0.38536 0.0
C431 C 0.03281 0.62619 0.45307 0.0
C432 C 0.02518 0.62284 0.32775 0.0
C433 C 1.00114 0.61058 0.46307 0.0
C434 C 0.98149 0.60187 0.40605 0.0
C435 C 0.97372 0.59899 0.28063 0.0
C436 C 0.98559 0.60377 0.2129 0.0
C437 C 0.99328 0.60789 0.33821 0.0
C438 C 0.01721 0.61779 0.20288 0.0
C439 C 0.03691 0.62765 0.2599 0.0
H440 H 0.36867 0.93469 0.40522 0.0
H441 H 0.40991 0.01473 0.27554 0.0
H442 H 0.42678 0.04728 0.37903 0.0
H443 H 0.42919 0.05273 0.50657 0.0
H444 H 0.3919 0.97248 0.63554 0.0
H445 H 0.37414 0.94009 0.53215 0.0
C446 C 0.38132 0.95927 0.39987 0.0
C447 C 0.38785 0.97245 0.33341 0.0
C448 C 0.39166 0.97768 0.4593 0.0
C449 C 0.40469 0.00423 0.32656 0.0
C450 C 0.41426 0.02278 0.38554 0.0
C451 C 0.41721 0.02815 0.51175 0.0
C452 C 0.41162 0.01489 0.57813 0.0
C453 C 0.40779 0.00974 0.45216 0.0
C454 C 0.39649 0.98308 0.58466 0.0
C455 C 0.38626 0.96459 0.52573 0.0
H456 H 0.39144 0.23477 0.52528 0.0
H457 H 0.45945 0.23328 0.39223 0.0
H458 H 0.45598 0.1905 0.4579 0.0
H459 H 0.43588 0.15546 0.55689 0.0
H460 H 0.36816 0.15702 0.69074 0.0
H461 H 0.36931 0.19781 0.6208 0.0
C462 C 0.4053 0.22491 0.51013 0.0
C463 C 0.42581 0.2374 0.45404 0.0
C464 C 0.40344 0.20047 0.54861 0.0
C465 C 0.44352 0.22424 0.4352 0.0
C466 C 0.44163 0.19981 0.4729 0.0
C467 C 0.42127 0.16462 0.57075 0.0
C468 C 0.40215 0.15333 0.62943 0.0
C469 C 0.42206 0.18809 0.53039 0.0
C470 C 0.38319 0.16533 0.64608 0.0
C471 C 0.38384 0.18868 0.60609 0.0
H472 H 0.26379 0.41018 0.74133 0.0
H473 H 0.21096 0.40403 0.92333 0.0
H474 H 0.17012 0.40045 0.84931 0.0
H475 H 0.15102 0.40279 0.73348 0.0
H476 H 0.20466 0.41085 0.5516 0.0
H477 H 0.24342 0.40971 0.6251 0.0
C478 C 0.24321 0.40772 0.7649 0.0
C479 C 0.24058 0.40757 0.83791 0.0
C480 C 0.22 0.40618 0.72203 0.0
C481 C 0.21372 0.40437 0.86737 0.0
C482 C 0.19033 0.40236 0.82505 0.0
C483 C 0.17102 0.40397 0.70973 0.0
C484 C 0.17496 0.40709 0.63703 0.0
C485 C 0.19348 0.40381 0.75238 0.0
C486 C 0.20106 0.40859 0.60735 0.0
C487 C 0.22329 0.40798 0.64939 0.0
H488 H 0.84253 0.26743 0.91479 0.0
H489 H 0.84228 0.20232 0.05985 0.0
H490 H 0.80254 0.16062 0.99201 0.0
H491 H 0.76565 0.14291 0.89577 0.0
H492 H 0.76583 0.20828 0.75147 0.0
H493 H 0.8081 0.24954 0.81437 0.0
C494 C 0.8339 0.24412 0.93153 0.0
C495 C 0.84518 0.23807 0.99283 0.0
C496 C 0.81104 0.22027 0.89235 0.0
C497 C 0.83394 0.20768 0.01313 0.0
C498 C 0.81119 0.1838 0.97436 0.0
C499 C 0.77515 0.16613 0.87748 0.0
C500 C 0.76235 0.17244 0.81917 0.0
C501 C 0.79926 0.18985 0.91444 0.0
C502 C 0.77509 0.2027 0.79625 0.0
C503 C 0.79922 0.22637 0.83238 0.0
H504 H 0.55417 0.84849 0.03311 0.0
H505 H 0.60193 0.83548 0.20381 0.0
H506 H 0.60906 0.79917 0.13428 0.0
H507 H 0.59875 0.76859 0.02802 0.0
H508 H 0.54982 0.78071 0.85861 0.0
H509 H 0.54648 0.82013 0.92445 0.0
C510 C 0.56634 0.8379 0.05506 0.0
C511 C 0.57727 0.84457 0.12388 0.0
C512 C 0.57013 0.81683 0.01502 0.0
C513 C 0.59312 0.8307 0.15116 0.0
C514 C 0.59721 0.8099 0.11142 0.0
C515 C 0.58769 0.7801 0.00505 0.0
C516 C 0.5744 0.77152 0.93851 0.0
C517 C 0.58539 0.80243 0.04369 0.0
C518 C 0.56014 0.78672 0.90976 0.0
C519 C 0.55814 0.80923 0.94748 0.0
H520 H 0.74458 0.59909 0.23406 0.0
H521 H 0.79244 0.60197 0.42236 0.0
H522 H 0.83456 0.60533 0.35358 0.0
H523 H 0.85629 0.60405 0.24026 0.0
H524 H 0.80764 0.59936 0.05196 0.0
H525 H 0.76751 0.60034 0.12053 0.0
C526 C 0.76435 0.60077 0.26015 0.0
C527 C 0.76521 0.60012 0.33339 0.0
C528 C 0.78833 0.60223 0.22025 0.0
C529 C 0.79105 0.60228 0.36615 0.0
C530 C 0.81517 0.60417 0.32682 0.0
C531 C 0.83708 0.60355 0.21407 0.0
C532 C 0.83496 0.60147 0.14096 0.0
C533 C 0.81382 0.60364 0.25387 0.0
C534 C 0.80984 0.60083 0.1081 0.0
C535 C 0.78683 0.60135 0.1473 0.0
H536 H 0.16696 0.75739 0.44093 0.0
H537 H 0.22506 0.77374 0.61922 0.0
H538 H 0.26828 0.81348 0.55564 0.0
H539 H 0.29025 0.84189 0.44802 0.0
H540 H 0.23268 0.82563 0.2689 0.0
H541 H 0.18863 0.78762 0.33435 0.0
C542 C 0.189 0.76983 0.46614 0.0
C543 C 0.19272 0.76242 0.53475 0.0
C544 C 0.21394 0.79255 0.42899 0.0
C545 C 0.22149 0.77882 0.56647 0.0
C546 C 0.2463 0.80155 0.53008 0.0
C547 C 0.26807 0.83013 0.42321 0.0
C548 C 0.26487 0.83649 0.35343 0.0
C549 C 0.24289 0.80829 0.46104 0.0
C550 C 0.23586 0.82114 0.32245 0.0
C551 C 0.21064 0.79938 0.35985 0.0
loop_
_geom_bond_atom_site_label_1
_geom_bond_atom_site_label_2
_geom_bond_distance
_geom_bond_site_symmetry_2
_ccdc_geom_bond_type
Zn0 O3 2.031 . S
Zn0 O5 2.049 . S
Zn0 O10 2.067 . S
Zn1 O2 1.962 . S
Zn1 O4 1.986 . S
Zn1 O6 1.996 . S
Zn1 O9 1.943 . S
O2 Zn1 1.962 . S
O2 C7 1.254 . S
O3 Zn0 2.031 . S
O3 C7 1.269 . S
O4 Zn1 1.986 . S
O4 C11 1.262 . S
O5 Zn0 2.049 . S
O5 C13 1.260 . S
O6 Zn1 1.996 . S
O6 C13 1.257 . S
C7 O2 1.254 . S
C7 O3 1.269 . S
C8 O9 1.249 . S
C8 O10 1.270 . S
O9 Zn1 1.943 . S
O9 C8 1.249 . S
O10 Zn0 2.067 . S
O10 C8 1.270 . S
C11 O4 1.262 . S
C11 O12 1.232 . S
O12 C11 1.232 . S
C13 O5 1.260 . S
C13 O6 1.257 . S
Zn14 O17 2.031 . S
Zn14 O19 2.049 . S
Zn14 O24 2.067 . S
Zn15 O16 1.962 . S
Zn15 O18 1.986 . S
Zn15 O20 1.996 . S
Zn15 O23 1.943 . S
O16 Zn15 1.962 . S
O16 C21 1.254 . S
O17 Zn14 2.031 . S
O17 C21 1.269 . S
O18 Zn15 1.986 . S
O18 C25 1.262 . S
O19 Zn14 2.049 . S
O19 C27 1.260 . S
O20 Zn15 1.996 . S
O20 C27 1.257 . S
C21 O16 1.254 . S
C21 O17 1.269 . S
C22 O23 1.249 . S
C22 O24 1.270 . S
O23 Zn15 1.943 . S
O23 C22 1.249 . S
O24 Zn14 2.067 . S
O24 C22 1.270 . S
C25 O18 1.262 . S
C25 O26 1.232 . S
O26 C25 1.232 . S
C27 O19 1.260 . S
C27 O20 1.257 . S
Zn28 O31 2.031 . S
Zn28 O33 2.049 . S
Zn28 O38 2.067 . S
Zn29 O30 1.962 . S
Zn29 O32 1.986 . S
Zn29 O34 1.996 . S
Zn29 O37 1.943 . S
O30 Zn29 1.962 . S
O30 C35 1.254 . S
O31 Zn28 2.031 . S
O31 C35 1.269 . S
O32 Zn29 1.986 . S
O32 C39 1.262 . S
O33 Zn28 2.049 . S
O33 C41 1.260 . S
O34 Zn29 1.996 . S
O34 C41 1.257 . S
C35 O30 1.254 . S
C35 O31 1.269 . S
C36 O37 1.249 . S
C36 O38 1.270 . S
O37 Zn29 1.943 . S
O37 C36 1.249 . S
O38 Zn28 2.067 . S
O38 C36 1.270 . S
C39 O32 1.262 . S
C39 O40 1.232 . S
O40 C39 1.232 . S
C41 O33 1.260 . S
C41 O34 1.257 . S
Zn42 O45 2.031 . S
Zn42 O47 2.049 1_556 S
Zn42 O52 2.067 . S
Zn43 O44 1.962 . S
Zn43 O46 1.992 . S
Zn43 O48 1.996 1_556 S
Zn43 O51 1.943 . S
O44 Zn43 1.962 . S
O44 C49 1.254 . S
O45 Zn42 2.031 . S
O45 C49 1.269 . S
O46 Zn43 1.992 . S
O46 C53 1.270 . S
O47 Zn42 2.049 1_554 S
O47 C55 1.260 . S
O48 Zn43 1.996 1_554 S
O48 C55 1.257 . S
C49 O44 1.254 . S
C49 O45 1.269 . S
C50 O51 1.249 . S
C50 O52 1.270 . S
O51 Zn43 1.943 . S
O51 C50 1.249 . S
O52 Zn42 2.067 . S
O52 C50 1.270 . S
C53 O46 1.270 . S
C53 O54 1.232 . S
O54 C53 1.232 . S
C55 O47 1.260 . S
C55 O48 1.257 . S
Zn56 O59 2.031 . S
Zn56 O61 2.049 . S
Zn56 O66 2.067 . S
Zn57 O58 1.962 . S
Zn57 O60 1.986 . S
Zn57 O62 1.996 . S
Zn57 O65 1.943 . S
O58 Zn57 1.962 . S
O58 C63 1.254 . S
O59 Zn56 2.031 . S
O59 C63 1.269 . S
O60 Zn57 1.986 . S
O60 C67 1.262 . S
O61 Zn56 2.049 . S
O61 C69 1.260 . S
O62 Zn57 1.996 . S
O62 C69 1.257 . S
C63 O58 1.254 . S
C63 O59 1.269 . S
C64 O65 1.249 1_556 S
C64 O66 1.270 1_556 S
O65 Zn57 1.943 . S
O65 C64 1.249 1_554 S
O66 Zn56 2.067 . S
O66 C64 1.270 1_554 S
C67 O60 1.262 . S
C67 O68 1.232 . S
O68 C67 1.232 . S
C69 O61 1.260 . S
C69 O62 1.257 . S
Zn70 O73 2.031 . S
Zn70 O75 2.049 . S
Zn70 O80 2.067 . S
Zn71 O72 1.962 . S
Zn71 O74 1.986 . S
Zn71 O76 1.996 . S
Zn71 O79 1.943 . S
O72 Zn71 1.962 . S
O72 C77 1.254 . S
O73 Zn70 2.031 . S
O73 C77 1.269 . S
O74 Zn71 1.986 . S
O74 C81 1.262 . S
O75 Zn70 2.049 . S
O75 C83 1.260 . S
O76 Zn71 1.996 . S
O76 C83 1.257 . S
C77 O72 1.254 . S
C77 O73 1.269 . S
C78 O79 1.249 . S
C78 O80 1.270 . S
O79 Zn71 1.943 . S
O79 C78 1.249 . S
O80 Zn70 2.067 . S
O80 C78 1.270 . S
C81 O74 1.262 . S
C81 O82 1.232 . S
O82 C81 1.232 . S
C83 O75 1.260 . S
C83 O76 1.257 . S
Zn84 O87 2.031 . S
Zn84 O89 2.049 . S
Zn84 O94 2.067 . S
Zn85 O86 1.962 . S
Zn85 O88 1.986 . S
Zn85 O90 1.996 . S
Zn85 O93 1.943 . S
O86 Zn85 1.962 . S
O86 C91 1.254 . S
O87 Zn84 2.031 . S
O87 C91 1.269 . S
O88 Zn85 1.986 . S
O88 C95 1.262 . S
O89 Zn84 2.049 . S
O89 C97 1.260 . S
O90 Zn85 1.996 . S
O90 C97 1.257 . S
C91 O86 1.254 . S
C91 O87 1.269 . S
C92 O93 1.249 . S
C92 O94 1.270 . S
O93 Zn85 1.943 . S
O93 C92 1.249 . S
O94 Zn84 2.067 . S
O94 C92 1.270 . S
C95 O88 1.262 . S
C95 O96 1.232 . S
O96 C95 1.232 . S
C97 O89 1.260 . S
C97 O90 1.257 . S
Zn98 O101 2.031 . S
Zn98 O103 2.049 . S
Zn98 O108 2.067 . S
Zn99 O100 1.962 . S
Zn99 O102 1.986 . S
Zn99 O104 1.996 . S
Zn99 O107 1.943 . S
O100 Zn99 1.962 . S
O100 C105 1.254 . S
O101 Zn98 2.031 . S
O101 C105 1.269 . S
O102 Zn99 1.986 . S
O102 C109 1.262 . S
O103 Zn98 2.049 . S
O103 C111 1.260 . S
O104 Zn99 1.996 . S
O104 C111 1.257 . S
C105 O100 1.254 . S
C105 O101 1.269 . S
C106 O107 1.249 . S
C106 O108 1.270 . S
O107 Zn99 1.943 . S
O107 C106 1.249 . S
O108 Zn98 2.067 . S
O108 C106 1.270 . S
C109 O102 1.262 . S
C109 O110 1.232 . S
O110 C109 1.232 . S
C111 O103 1.260 . S
C111 O104 1.257 . S
Zn112 O115 2.031 . S
Zn112 O117 2.049 . S
Zn112 O122 2.067 . S
Zn113 O114 1.962 . S
Zn113 O116 1.986 . S
Zn113 O118 1.996 . S
Zn113 O121 1.943 . S
O114 Zn113 1.962 . S
O114 C119 1.254 . S
O115 Zn112 2.031 . S
O115 C119 1.269 . S
O116 Zn113 1.986 . S
O116 C123 1.262 . S
O117 Zn112 2.049 . S
O117 C125 1.260 . S
O118 Zn113 1.996 . S
O118 C125 1.257 . S
C119 O114 1.254 . S
C119 O115 1.269 . S
C120 O121 1.249 . S
C120 O122 1.270 . S
O121 Zn113 1.943 . S
O121 C120 1.249 . S
O122 Zn112 2.067 . S
O122 C120 1.270 . S
C123 O116 1.262 . S
C123 O124 1.232 . S
O124 C123 1.232 . S
C125 O117 1.260 . S
C125 O118 1.257 . S
Zn126 O129 2.031 . S
Zn126 O131 2.049 . S
Zn126 O136 2.067 . S
Zn127 O128 1.962 . S
Zn127 O130 1.986 . S
Zn127 O132 1.996 . S
Zn127 O135 1.943 . S
O128 Zn127 1.962 . S
O128 C133 1.254 . S
O129 Zn126 2.031 . S
O129 C133 1.269 . S
O130 Zn127 1.986 . S
O130 C137 1.262 . S
O131 Zn126 2.049 . S
O131 C139 1.260 . S
O132 Zn127 1.996 . S
O132 C139 1.257 . S
C133 O128 1.254 . S
C133 O129 1.269 . S
C134 O135 1.249 1_554 S
C134 O136 1.270 1_554 S
O135 Zn127 1.943 . S
O135 C134 1.249 1_556 S
O136 Zn126 2.067 . S
O136 C134 1.270 1_556 S
C137 O130 1.262 . S
C137 O138 1.232 . S
O138 C137 1.232 . S
C139 O131 1.260 . S
C139 O132 1.257 . S
Zn140 O143 2.031 . S
Zn140 O145 2.049 1_554 S
Zn140 O150 2.067 . S
Zn141 O142 1.962 . S
Zn141 O144 1.992 . S
Zn141 O146 1.996 1_554 S
Zn141 O149 1.943 . S
O142 Zn141 1.962 . S
O142 C147 1.254 . S
O143 Zn140 2.031 . S
O143 C147 1.269 . S
O144 Zn141 1.992 . S
O144 C151 1.270 . S
O145 Zn140 2.049 1_556 S
O145 C153 1.260 . S
O146 Zn141 1.996 1_556 S
O146 C153 1.257 . S
C147 O142 1.254 . S
C147 O143 1.269 . S
C148 O149 1.249 . S
C148 O150 1.270 . S
O149 Zn141 1.943 . S
O149 C148 1.249 . S
O150 Zn140 2.067 . S
O150 C148 1.270 . S
C151 O144 1.270 . S
C151 O152 1.232 . S
O152 C151 1.232 . S
C153 O145 1.260 . S
C153 O146 1.257 . S
Zn154 O157 2.031 . S
Zn154 O159 2.049 . S
Zn154 O164 2.067 . S
Zn155 O156 1.962 . S
Zn155 O158 1.986 . S
Zn155 O160 1.996 . S
Zn155 O163 1.943 . S
O156 Zn155 1.962 . S
O156 C161 1.254 . S
O157 Zn154 2.031 . S
O157 C161 1.269 . S
O158 Zn155 1.986 . S
O158 C165 1.262 . S
O159 Zn154 2.049 . S
O159 C167 1.260 . S
O160 Zn155 1.996 . S
O160 C167 1.257 . S
C161 O156 1.254 . S
C161 O157 1.269 . S
C162 O163 1.249 . S
C162 O164 1.270 . S
O163 Zn155 1.943 . S
O163 C162 1.249 . S
O164 Zn154 2.067 . S
O164 C162 1.270 . S
C165 O158 1.262 . S
C165 O166 1.232 . S
O166 C165 1.232 . S
C167 O159 1.260 . S
C167 O160 1.257 . S
H168 C174 0.930 . S
H169 C177 0.930 . S
H170 C178 0.930 . S
H171 C179 0.930 . S
H172 C182 0.930 . S
H173 C183 0.930 . S
C174 H168 0.930 . S
C174 C175 1.355 . S
C174 C176 1.415 . S
C175 C174 1.355 . S
C175 C177 1.419 . S
C176 C174 1.415 . S
C176 C181 1.425 . S
C176 C183 1.409 . S
C177 H169 0.930 . S
C177 C175 1.419 . S
C177 C178 1.362 . S
C178 H170 0.930 . S
C178 C177 1.362 . S
C178 C181 1.409 . S
C179 H171 0.930 . S
C179 C180 1.355 . S
C179 C181 1.415 . S
C180 C179 1.355 . S
C180 C182 1.419 . S
C181 C176 1.425 . S
C181 C178 1.409 . S
C181 C179 1.415 . S
C182 H172 0.930 . S
C182 C180 1.419 . S
C182 C183 1.362 . S
C183 H173 0.930 . S
C183 C176 1.409 . S
C183 C182 1.362 . S
H184 C190 0.930 . S
H185 C193 0.930 . S
H186 C194 0.930 . S
H187 C195 0.930 . S
H188 C198 0.930 . S
H189 C199 0.930 . S
C190 H184 0.930 . S
C190 C191 1.355 . S
C190 C192 1.415 . S
C191 C190 1.355 . S
C191 C193 1.419 . S
C192 C190 1.415 . S
C192 C197 1.425 1_455 S
C192 C199 1.409 1_455 S
C193 H185 0.930 . S
C193 C191 1.419 . S
C193 C194 1.362 . S
C194 H186 0.930 . S
C194 C193 1.362 . S
C194 C197 1.409 1_455 S
C195 H187 0.930 . S
C195 C196 1.355 . S
C195 C197 1.415 . S
C196 C195 1.355 . S
C196 C198 1.419 . S
C197 C192 1.425 1_655 S
C197 C194 1.409 1_655 S
C197 C195 1.415 . S
C198 H188 0.930 . S
C198 C196 1.419 . S
C198 C199 1.362 . S
C199 H189 0.930 . S
C199 C192 1.409 1_655 S
C199 C198 1.362 . S
H200 C206 0.930 . S
H201 C209 0.930 . S
H202 C210 0.930 . S
H203 C211 0.930 . S
H204 C214 0.930 . S
H205 C215 0.930 . S
C206 H200 0.930 . S
C206 C207 1.355 . S
C206 C208 1.415 . S
C207 C206 1.355 . S
C207 C209 1.419 . S
C208 C206 1.415 . S
C208 C213 1.425 1_565 S
C208 C215 1.409 . S
C209 H201 0.930 . S
C209 C207 1.419 . S
C209 C210 1.362 1_565 S
C210 H202 0.930 . S
C210 C209 1.362 1_545 S
C210 C213 1.409 . S
C211 H203 0.930 . S
C211 C212 1.355 . S
C211 C213 1.415 . S
C212 C211 1.355 . S
C212 C214 1.419 . S
C213 C208 1.425 1_545 S
C213 C210 1.409 . S
C213 C211 1.415 . S
C214 H204 0.930 . S
C214 C212 1.419 . S
C214 C215 1.362 1_545 S
C215 H205 0.930 . S
C215 C208 1.409 . S
C215 C214 1.362 1_565 S
H216 C222 0.930 . S
H217 C225 0.930 . S
H218 C226 0.930 . S
H219 C227 0.930 . S
H220 C230 0.930 . S
H221 C231 0.930 . S
C222 H216 0.930 . S
C222 C223 1.355 . S
C222 C224 1.415 . S
C223 C222 1.355 . S
C223 C225 1.419 . S
C224 C222 1.415 . S
C224 C229 1.425 . S
C224 C231 1.409 . S
C225 H217 0.930 . S
C225 C223 1.419 . S
C225 C226 1.362 . S
C226 H218 0.930 . S
C226 C225 1.362 . S
C226 C229 1.409 . S
C227 H219 0.930 . S
C227 C228 1.355 . S
C227 C229 1.415 . S
C228 C227 1.355 . S
C228 C230 1.419 . S
C229 C224 1.425 . S
C229 C226 1.409 . S
C229 C227 1.415 . S
C230 H220 0.930 . S
C230 C228 1.419 . S
C230 C231 1.362 . S
C231 H221 0.930 . S
C231 C224 1.409 . S
C231 C230 1.362 . S
H232 C238 0.930 . S
H233 C241 0.930 . S
H234 C242 0.930 . S
H235 C243 0.930 . S
H236 C246 0.930 . S
H237 C247 0.930 . S
C238 H232 0.930 . S
C238 C239 1.355 . S
C238 C240 1.415 1_455 S
C239 C238 1.355 . S
C239 C241 1.419 . S
C240 C238 1.415 1_655 S
C240 C245 1.425 1_655 S
C240 C247 1.409 . S
C241 H233 0.930 . S
C241 C239 1.419 . S
C241 C242 1.362 . S
C242 H234 0.930 . S
C242 C241 1.362 . S
C242 C245 1.409 . S
C243 H235 0.930 . S
C243 C244 1.355 . S
C243 C245 1.415 1_655 S
C244 C243 1.355 . S
C244 C246 1.419 . S
C245 C240 1.425 1_455 S
C245 C242 1.409 . S
C245 C243 1.415 1_455 S
C246 H236 0.930 . S
C246 C244 1.419 . S
C246 C247 1.362 . S
C247 H237 0.930 . S
C247 C240 1.409 . S
C247 C246 1.362 . S
H248 C254 0.930 . S
H249 C257 0.930 . S
H250 C258 0.930 . S
H251 C259 0.930 . S
H252 C262 0.930 . S
H253 C263 0.930 . S
C254 H248 0.930 . S
C254 C255 1.355 . S
C254 C256 1.415 . S
C255 C254 1.355 . S
C255 C257 1.419 . S
C256 C254 1.415 . S
C256 C261 1.425 1_546 S
C256 C263 1.409 1_546 S
C257 H249 0.930 . S
C257 C255 1.419 . S
C257 C258 1.362 . S
C258 H250 0.930 . S
C258 C257 1.362 . S
C258 C261 1.409 1_546 S
C259 H251 0.930 . S
C259 C260 1.355 . S
C259 C261 1.415 . S
C260 C259 1.355 . S
C260 C262 1.419 . S
C261 C256 1.425 1_564 S
C261 C258 1.409 1_564 S
C261 C259 1.415 . S
C262 H252 0.930 . S
C262 C260 1.419 . S
C262 C263 1.362 . S
C263 H253 0.930 . S
C263 C256 1.409 1_564 S
C263 C262 1.362 . S
H264 C270 0.930 . S
H265 C273 0.930 . S
H266 C274 0.930 . S
H267 C275 0.930 . S
H268 C278 0.930 . S
H269 C279 0.930 . S
C270 H264 0.930 . S
C270 C271 1.355 . S
C270 C272 1.415 . S
C271 C270 1.355 . S
C271 C273 1.419 . S
C272 C270 1.415 . S
C272 C277 1.425 . S
C272 C279 1.409 . S
C273 H265 0.930 . S
C273 C271 1.419 . S
C273 C274 1.362 . S
C274 H266 0.930 . S
C274 C273 1.362 . S
C274 C277 1.409 . S
C275 H267 0.930 . S
C275 C276 1.355 . S
C275 C277 1.415 . S
C276 C275 1.355 . S
C276 C278 1.419 . S
C277 C272 1.425 . S
C277 C274 1.409 . S
C277 C275 1.415 . S
C278 H268 0.930 . S
C278 C276 1.419 . S
C278 C279 1.362 . S
C279 H269 0.930 . S
C279 C272 1.409 . S
C279 C278 1.362 . S
H280 C286 0.930 . S
H281 C289 0.930 . S
H282 C290 0.930 . S
H283 C291 0.930 . S
H284 C294 0.930 . S
H285 C295 0.930 . S
C286 H280 0.930 . S
C286 C287 1.355 . S
C286 C288 1.415 . S
C287 C286 1.355 . S
C287 C289 1.419 . S
C288 C286 1.415 . S
C288 C293 1.425 . S
C288 C295 1.409 . S
C289 H281 0.930 . S
C289 C287 1.419 . S
C289 C290 1.362 . S
C290 H282 0.930 . S
C290 C289 1.362 . S
C290 C293 1.409 . S
C291 H283 0.930 . S
C291 C292 1.355 . S
C291 C293 1.415 . S
C292 C291 1.355 . S
C292 C294 1.419 . S
C293 C288 1.425 . S
C293 C290 1.409 . S
C293 C291 1.415 . S
C294 H284 0.930 . S
C294 C292 1.419 . S
C294 C295 1.362 . S
C295 H285 0.930 . S
C295 C288 1.409 . S
C295 C294 1.362 . S
H296 C302 0.930 . S
H297 C305 0.930 . S
H298 C306 0.930 . S
H299 C307 0.930 . S
H300 C310 0.930 . S
H301 C311 0.930 . S
C302 H296 0.930 . S
C302 C303 1.355 . S
C302 C304 1.415 . S
C303 C302 1.355 . S
C303 C305 1.419 . S
C304 C302 1.415 . S
C304 C309 1.425 . S
C304 C311 1.409 . S
C305 H297 0.930 . S
C305 C303 1.419 . S
C305 C306 1.362 . S
C306 H298 0.930 . S
C306 C305 1.362 . S
C306 C309 1.409 . S
C307 H299 0.930 . S
C307 C308 1.355 . S
C307 C309 1.415 . S
C308 C307 1.355 . S
C308 C310 1.419 . S
C309 C304 1.425 . S
C309 C306 1.409 . S
C309 C307 1.415 . S
C310 H300 0.930 . S
C310 C308 1.419 . S
C310 C311 1.362 . S
C311 H301 0.930 . S
C311 C304 1.409 . S
C311 C310 1.362 . S
H312 C318 0.930 . S
H313 C321 0.930 1_554 S
H314 C322 0.930 . S
H315 C323 0.930 1_554 S
H316 C326 0.930 . S
H317 C327 0.930 . S
C318 H312 0.930 . S
C318 C319 1.355 . S
C318 C320 1.415 . S
C319 C318 1.355 . S
C319 C321 1.419 . S
C320 C318 1.415 . S
C320 C325 1.425 . S
C320 C327 1.409 . S
C321 H313 0.930 1_556 S
C321 C319 1.419 . S
C321 C322 1.362 1_556 S
C322 H314 0.930 . S
C322 C321 1.362 1_554 S
C322 C325 1.409 1_554 S
C323 H315 0.930 1_556 S
C323 C324 1.355 . S
C323 C325 1.415 . S
C324 C323 1.355 . S
C324 C326 1.419 . S
C325 C320 1.425 . S
C325 C322 1.409 1_556 S
C325 C323 1.415 . S
C326 H316 0.930 . S
C326 C324 1.419 . S
C326 C327 1.362 . S
C327 H317 0.930 . S
C327 C320 1.409 . S
C327 C326 1.362 . S
H328 C334 0.930 . S
H329 C337 0.930 . S
H330 C338 0.930 . S
H331 C339 0.930 . S
H332 C342 0.930 . S
H333 C343 0.930 . S
C334 H328 0.930 . S
C334 C335 1.355 . S
C334 C336 1.415 . S
C335 C334 1.355 . S
C335 C337 1.419 . S
C336 C334 1.415 . S
C336 C341 1.425 . S
C336 C343 1.409 . S
C337 H329 0.930 . S
C337 C335 1.419 . S
C337 C338 1.362 . S
C338 H330 0.930 . S
C338 C337 1.362 . S
C338 C341 1.409 . S
C339 H331 0.930 . S
C339 C340 1.355 . S
C339 C341 1.415 . S
C340 C339 1.355 . S
C340 C342 1.419 . S
C341 C336 1.425 . S
C341 C338 1.409 . S
C341 C339 1.415 . S
C342 H332 0.930 . S
C342 C340 1.419 . S
C342 C343 1.362 . S
C343 H333 0.930 . S
C343 C336 1.409 . S
C343 C342 1.362 . S
H344 C350 0.930 . S
H345 C353 0.930 . S
H346 C354 0.930 . S
H347 C355 0.930 . S
H348 C358 0.930 . S
H349 C359 0.930 . S
C350 H344 0.930 . S
C350 C351 1.355 . S
C350 C352 1.415 . S
C351 C350 1.355 . S
C351 C353 1.419 . S
C352 C350 1.415 . S
C352 C357 1.425 . S
C352 C359 1.409 . S
C353 H345 0.930 . S
C353 C351 1.419 . S
C353 C354 1.362 . S
C354 H346 0.930 . S
C354 C353 1.362 . S
C354 C357 1.409 . S
C355 H347 0.930 . S
C355 C356 1.355 . S
C355 C357 1.415 . S
C356 C355 1.355 . S
C356 C358 1.419 . S
C357 C352 1.425 . S
C357 C354 1.409 . S
C357 C355 1.415 . S
C358 H348 0.930 . S
C358 C356 1.419 . S
C358 C359 1.362 . S
C359 H349 0.930 . S
C359 C352 1.409 . S
C359 C358 1.362 . S
H360 C366 0.930 . S
H361 C369 0.930 . S
H362 C370 0.930 . S
H363 C371 0.930 . S
H364 C374 0.930 . S
H365 C375 0.930 . S
C366 H360 0.930 . S
C366 C367 1.355 . S
C366 C368 1.415 . S
C367 C366 1.355 . S
C367 C369 1.419 . S
C368 C366 1.415 . S
C368 C373 1.425 . S
C368 C375 1.409 . S
C369 H361 0.930 . S
C369 C367 1.419 . S
C369 C370 1.362 . S
C370 H362 0.930 . S
C370 C369 1.362 . S
C370 C373 1.409 . S
C371 H363 0.930 . S
C371 C372 1.355 . S
C371 C373 1.415 . S
C372 C371 1.355 . S
C372 C374 1.419 . S
C373 C368 1.425 . S
C373 C370 1.409 . S
C373 C371 1.415 . S
C374 H364 0.930 . S
C374 C372 1.419 . S
C374 C375 1.362 . S
C375 H365 0.930 . S
C375 C368 1.409 . S
C375 C374 1.362 . S
H376 C382 0.930 . S
H377 C385 0.924 1_454 S
H378 C386 0.930 . S
H379 C387 0.930 . S
H380 C390 0.924 1_655 S
H381 C391 0.930 . S
C382 H376 0.930 . S
C382 C383 1.355 . S
C382 C384 1.415 . S
C383 C382 1.355 . S
C383 C385 1.419 . S
C384 C382 1.415 . S
C384 C389 1.425 1_655 S
C384 C391 1.409 . S
C385 H377 0.924 1_656 S
C385 C383 1.419 . S
C385 C386 1.362 1_655 S
C386 H378 0.930 . S
C386 C385 1.362 1_455 S
C386 C389 1.409 . S
C387 H379 0.930 . S
C387 C388 1.355 . S
C387 C389 1.415 . S
C388 C387 1.355 . S
C388 C390 1.419 . S
C389 C384 1.425 1_455 S
C389 C386 1.409 . S
C389 C387 1.415 . S
C390 H380 0.924 1_455 S
C390 C388 1.419 . S
C390 C391 1.362 1_455 S
C391 H381 0.930 . S
C391 C384 1.409 . S
C391 C390 1.362 1_655 S
H392 C398 0.930 . S
H393 C401 0.930 . S
H394 C402 0.930 . S
H395 C403 0.930 . S
H396 C406 0.930 . S
H397 C407 0.930 . S
C398 H392 0.930 . S
C398 C399 1.355 . S
C398 C400 1.415 1_554 S
C399 C398 1.355 . S
C399 C401 1.419 . S
C400 C398 1.415 1_556 S
C400 C405 1.425 1_566 S
C400 C407 1.409 . S
C401 H393 0.930 . S
C401 C399 1.419 . S
C401 C402 1.362 1_565 S
C402 H394 0.930 . S
C402 C401 1.362 1_545 S
C402 C405 1.409 . S
C403 H395 0.930 . S
C403 C404 1.355 . S
C403 C405 1.415 1_556 S
C404 C403 1.355 . S
C404 C406 1.419 . S
C405 C400 1.425 1_544 S
C405 C402 1.409 . S
C405 C403 1.415 1_554 S
C406 H396 0.930 . S
C406 C404 1.419 . S
C406 C407 1.362 1_545 S
C407 H397 0.930 . S
C407 C400 1.409 . S
C407 C406 1.362 1_565 S
H408 C414 0.930 . S
H409 C417 0.930 . S
H410 C418 0.930 . S
H411 C419 0.930 . S
H412 C422 0.930 . S
H413 C423 0.930 . S
C414 H408 0.930 . S
C414 C415 1.355 . S
C414 C416 1.415 . S
C415 C414 1.355 . S
C415 C417 1.419 . S
C416 C414 1.415 . S
C416 C421 1.425 . S
C416 C423 1.409 . S
C417 H409 0.930 . S
C417 C415 1.419 . S
C417 C418 1.362 . S
C418 H410 0.930 . S
C418 C417 1.362 . S
C418 C421 1.409 . S
C419 H411 0.930 . S
C419 C420 1.355 . S
C419 C421 1.415 . S
C420 C419 1.355 . S
C420 C422 1.419 . S
C421 C416 1.425 . S
C421 C418 1.409 . S
C421 C419 1.415 . S
C422 H412 0.930 . S
C422 C420 1.419 . S
C422 C423 1.362 . S
C423 H413 0.930 . S
C423 C416 1.409 . S
C423 C422 1.362 . S
H424 C430 0.930 . S
H425 C433 0.930 1_655 S
H426 C434 0.930 . S
H427 C435 0.930 . S
H428 C438 0.930 1_455 S
H429 C439 0.930 . S
C430 H424 0.930 . S
C430 C431 1.355 . S
C430 C432 1.415 . S
C431 C430 1.355 . S
C431 C433 1.419 . S
C432 C430 1.415 . S
C432 C437 1.425 1_455 S
C432 C439 1.409 . S
C433 H425 0.930 1_455 S
C433 C431 1.419 . S
C433 C434 1.362 1_455 S
C434 H426 0.930 . S
C434 C433 1.362 1_655 S
C434 C437 1.409 . S
C435 H427 0.930 . S
C435 C436 1.355 . S
C435 C437 1.415 . S
C436 C435 1.355 . S
C436 C438 1.419 . S
C437 C432 1.425 1_655 S
C437 C434 1.409 . S
C437 C435 1.415 . S
C438 H428 0.930 1_655 S
C438 C436 1.419 . S
C438 C439 1.362 1_655 S
C439 H429 0.930 . S
C439 C432 1.409 . S
C439 C438 1.362 1_455 S
H440 C446 0.930 . S
H441 C449 0.930 . S
H442 C450 0.930 . S
H443 C451 0.930 . S
H444 C454 0.930 . S
H445 C455 0.930 . S
C446 H440 0.930 . S
C446 C447 1.355 . S
C446 C448 1.415 . S
C447 C446 1.355 . S
C447 C449 1.419 . S
C448 C446 1.415 . S
C448 C453 1.425 1_565 S
C448 C455 1.409 . S
C449 H441 0.930 . S
C449 C447 1.419 . S
C449 C450 1.362 1_565 S
C450 H442 0.930 . S
C450 C449 1.362 1_545 S
C450 C453 1.409 . S
C451 H443 0.930 . S
C451 C452 1.355 . S
C451 C453 1.415 . S
C452 C451 1.355 . S
C452 C454 1.419 . S
C453 C448 1.425 1_545 S
C453 C450 1.409 . S
C453 C451 1.415 . S
C454 H444 0.930 . S
C454 C452 1.419 . S
C454 C455 1.362 1_545 S
C455 H445 0.930 . S
C455 C448 1.409 . S
C455 C454 1.362 1_565 S
H456 C462 0.930 . S
H457 C465 0.930 . S
H458 C466 0.930 . S
H459 C467 0.930 . S
H460 C470 0.930 . S
H461 C471 0.930 . S
C462 H456 0.930 . S
C462 C463 1.355 . S
C462 C464 1.415 . S
C463 C462 1.355 . S
C463 C465 1.419 . S
C464 C462 1.415 . S
C464 C469 1.425 . S
C464 C471 1.409 . S
C465 H457 0.930 . S
C465 C463 1.419 . S
C465 C466 1.362 . S
C466 H458 0.930 . S
C466 C465 1.362 . S
C466 C469 1.409 . S
C467 H459 0.930 . S
C467 C468 1.355 . S
C467 C469 1.415 . S
C468 C467 1.355 . S
C468 C470 1.419 . S
C469 C464 1.425 . S
C469 C466 1.409 . S
C469 C467 1.415 . S
C470 H460 0.930 . S
C470 C468 1.419 . S
C470 C471 1.362 . S
C471 H461 0.930 . S
C471 C464 1.409 . S
C471 C470 1.362 . S
H472 C478 0.930 . S
H473 C481 0.930 . S
H474 C482 0.930 . S
H475 C483 0.930 . S
H476 C486 0.930 . S
H477 C487 0.930 . S
C478 H472 0.930 . S
C478 C479 1.355 . S
C478 C480 1.415 . S
C479 C478 1.355 . S
C479 C481 1.419 . S
C480 C478 1.415 . S
C480 C485 1.425 . S
C480 C487 1.409 . S
C481 H473 0.930 . S
C481 C479 1.419 . S
C481 C482 1.362 . S
C482 H474 0.930 . S
C482 C481 1.362 . S
C482 C485 1.409 . S
C483 H475 0.930 . S
C483 C484 1.355 . S
C483 C485 1.415 . S
C484 C483 1.355 . S
C484 C486 1.419 . S
C485 C480 1.425 . S
C485 C482 1.409 . S
C485 C483 1.415 . S
C486 H476 0.930 . S
C486 C484 1.419 . S
C486 C487 1.362 . S
C487 H477 0.930 . S
C487 C480 1.409 . S
C487 C486 1.362 . S
H488 C494 0.930 . S
H489 C497 0.930 . S
H490 C498 0.930 1_554 S
H491 C499 0.930 . S
H492 C502 0.930 . S
H493 C503 0.930 . S
C494 H488 0.930 . S
C494 C495 1.355 1_556 S
C494 C496 1.415 . S
C495 C494 1.355 1_554 S
C495 C497 1.419 . S
C496 C494 1.415 . S
C496 C501 1.425 . S
C496 C503 1.409 . S
C497 H489 0.930 . S
C497 C495 1.419 . S
C497 C498 1.362 1_554 S
C498 H490 0.930 1_556 S
C498 C497 1.362 1_556 S
C498 C501 1.409 . S
C499 H491 0.930 . S
C499 C500 1.355 . S
C499 C501 1.415 . S
C500 C499 1.355 . S
C500 C502 1.419 . S
C501 C496 1.425 . S
C501 C498 1.409 . S
C501 C499 1.415 . S
C502 H492 0.930 . S
C502 C500 1.419 . S
C502 C503 1.362 . S
C503 H493 0.930 . S
C503 C496 1.409 . S
C503 C502 1.362 . S
H504 C510 0.930 . S
H505 C513 0.930 . S
H506 C514 0.930 . S
H507 C515 0.930 1_556 S
H508 C518 0.930 . S
H509 C519 0.930 . S
C510 H504 0.930 . S
C510 C511 1.355 . S
C510 C512 1.415 . S
C511 C510 1.355 . S
C511 C513 1.419 . S
C512 C510 1.415 . S
C512 C517 1.425 . S
C512 C519 1.409 . S
C513 H505 0.930 . S
C513 C511 1.419 . S
C513 C514 1.362 . S
C514 H506 0.930 . S
C514 C513 1.362 . S
C514 C517 1.409 . S
C515 H507 0.930 1_554 S
C515 C516 1.355 1_554 S
C515 C517 1.415 . S
C516 C515 1.355 1_556 S
C516 C518 1.419 1_556 S
C517 C512 1.425 . S
C517 C514 1.409 . S
C517 C515 1.415 . S
C518 H508 0.930 . S
C518 C516 1.419 1_554 S
C518 C519 1.362 . S
C519 H509 0.930 . S
C519 C512 1.409 . S
C519 C518 1.362 . S
H520 C526 0.930 . S
H521 C529 0.930 . S
H522 C530 0.930 . S
H523 C531 0.930 . S
H524 C534 0.930 . S
H525 C535 0.930 . S
C526 H520 0.930 . S
C526 C527 1.355 . S
C526 C528 1.415 . S
C527 C526 1.355 . S
C527 C529 1.419 . S
C528 C526 1.415 . S
C528 C533 1.425 . S
C528 C535 1.409 . S
C529 H521 0.930 . S
C529 C527 1.419 . S
C529 C530 1.362 . S
C530 H522 0.930 . S
C530 C529 1.362 . S
C530 C533 1.409 . S
C531 H523 0.930 . S
C531 C532 1.355 . S
C531 C533 1.415 . S
C532 C531 1.355 . S
C532 C534 1.419 . S
C533 C528 1.425 . S
C533 C530 1.409 . S
C533 C531 1.415 . S
C534 H524 0.930 . S
C534 C532 1.419 . S
C534 C535 1.362 . S
C535 H525 0.930 . S
C535 C528 1.409 . S
C535 C534 1.362 . S
H536 C542 0.930 . S
H537 C545 0.930 . S
H538 C546 0.930 . S
H539 C547 0.930 . S
H540 C550 0.930 . S
H541 C551 0.930 . S
C542 H536 0.930 . S
C542 C543 1.355 . S
C542 C544 1.415 . S
C543 C542 1.355 . S
C543 C545 1.419 . S
C544 C542 1.415 . S
C544 C549 1.425 . S
C544 C551 1.409 . S
C545 H537 0.930 . S
C545 C543 1.419 . S
C545 C546 1.362 . S
C546 H538 0.930 . S
C546 C545 1.362 . S
C546 C549 1.409 . S
C547 H539 0.930 . S
C547 C548 1.355 . S
C547 C549 1.415 . S
C548 C547 1.355 . S
C548 C550 1.419 . S
C549 C544 1.425 . S
C549 C546 1.409 . S
C549 C547 1.415 . S
C550 H540 0.930 . S
C550 C548 1.419 . S
C550 C551 1.362 . S
C551 H541 0.930 . S
C551 C544 1.409 . S
C551 C550 1.362 . S
C175 C134 1.594 . S
C180 C8 1.573 . S
C191 C22 1.564 . S
C196 C148 1.589 . S
C207 C162 1.513 . S
C212 C36 1.506 . S
C223 C92 1.598 . S
C228 C50 1.584 . S
C239 C106 1.595 . S
C244 C64 1.598 . S
C255 C120 1.549 . S
C260 C78 1.521 . S
C271 C91 1.472 . S
C276 C7 1.510 . S
C287 C21 1.538 . S
C292 C105 1.492 . S
C303 C119 1.519 . S
C308 C35 1.531 . S
C319 C49 1.494 . S
C324 C133 1.478 . S
C335 C147 1.473 . S
C340 C63 1.509 . S
C351 C77 1.474 . S
C356 C161 1.524 . S
C367 C139 0.653 . S
C372 C13 0.791 . S
C383 C153 0.768 . S
C388 C27 0.662 . S
C399 C167 0.669 . S
C404 C41 0.756 . S
C415 C55 0.851 . S
C420 C97 0.688 . S
C431 C111 0.728 . S
C436 C69 0.688 . S
C447 C83 0.697 . S
C452 C125 0.718 . S
C463 C11 1.459 . S
C468 C123 1.484 . S
C479 C137 1.490 . S
C484 C25 1.490 . S
C495 C151 1.493 . S
C500 C39 1.483 . S
C511 C165 1.463 . S
C516 C53 1.435 . S
C527 C95 1.481 . S
C532 C67 1.493 . S
C543 C109 1.438 . S
C548 C81 1.466 . S
