# Generated by pormake.
# Topology ukb, (4)-cn, num edge types: 1
# Building blocks:
#     Node 0, Type 0, BuildingBlock: KUFVIS_clean_sbu_0, # of connection points: 4
#     Node 1, Type 0, BuildingBlock: KUFVIS_clean_sbu_0, # of connection points: 4
#     Node 2, Type 0, BuildingBlock: KUFVIS_clean_sbu_0, # of connection points: 4
#     Node 3, Type 0, BuildingBlock: KUFVIS_clean_sbu_0, # of connection points: 4
#     Node 4, Type 0, BuildingBlock: KUFVIS_clean_sbu_0, # of connection points: 4
#     Node 5, Type 0, BuildingBlock: KUFVIS_clean_sbu_0, # of connection points: 4
#     Node 6, Type 0, BuildingBlock: KUFVIS_clean_sbu_0, # of connection points: 4
#     Node 7, Type 0, BuildingBlock: KUFVIS_clean_sbu_0, # of connection points: 4
#     Node 8, Type 0, BuildingBlock: KUFVIS_clean_sbu_0, # of connection points: 4
#     Node 9, Type 0, BuildingBlock: KUFVIS_clean_sbu_0, # of connection points: 4
#     Node 10, Type 0, BuildingBlock: KUFVIS_clean_sbu_0, # of connection points: 4
#     Node 11, Type 0, BuildingBlock: KUFVIS_clean_sbu_0, # of connection points: 4
#     Node 12, Type 0, BuildingBlock: KUFVIS_clean_sbu_0, # of connection points: 4
#     Node 13, Type 0, BuildingBlock: KUFVIS_clean_sbu_0, # of connection points: 4
#     Node 14, Type 0, BuildingBlock: KUFVIS_clean_sbu_0, # of connection points: 4
#     Node 15, Type 0, BuildingBlock: KUFVIS_clean_sbu_0, # of connection points: 4
#     Edge 16, Type (0, 0), BuildingBlock: AJUNOK_clean_linker_0, # of connection points: 2
#     Edge 17, Type (0, 0), BuildingBlock: AJUNOK_clean_linker_0, # of connection points: 2
#     Edge 18, Type (0, 0), BuildingBlock: AJUNOK_clean_linker_0, # of connection points: 2
#     Edge 19, Type (0, 0), BuildingBlock: AJUNOK_clean_linker_0, # of connection points: 2
#     Edge 20, Type (0, 0), BuildingBlock: AJUNOK_clean_linker_0, # of connection points: 2
#     Edge 21, Type (0, 0), BuildingBlock: AJUNOK_clean_linker_0, # of connection points: 2
#     Edge 22, Type (0, 0), BuildingBlock: AJUNOK_clean_linker_0, # of connection points: 2
#     Edge 23, Type (0, 0), BuildingBlock: AJUNOK_clean_linker_0, # of connection points: 2
#     Edge 24, Type (0, 0), BuildingBlock: AJUNOK_clean_linker_0, # of connection points: 2
#     Edge 25, Type (0, 0), BuildingBlock: AJUNOK_clean_linker_0, # of connection points: 2
#     Edge 26, Type (0, 0), BuildingBlock: AJUNOK_clean_linker_0, # of connection points: 2
#     Edge 27, Type (0, 0), BuildingBlock: AJUNOK_clean_linker_0, # of connection points: 2
#     Edge 28, Type (0, 0), BuildingBlock: AJUNOK_clean_linker_0, # of connection points: 2
#     Edge 29, Type (0, 0), BuildingBlock: AJUNOK_clean_linker_0, # of connection points: 2
#     Edge 30, Type (0, 0), BuildingBlock: AJUNOK_clean_linker_0, # of connection points: 2
#     Edge 31, Type (0, 0), BuildingBlock: AJUNOK_clean_linker_0, # of connection points: 2
#     Edge 32, Type (0, 0), BuildingBlock: AJUNOK_clean_linker_0, # of connection points: 2
#     Edge 33, Type (0, 0), BuildingBlock: AJUNOK_clean_linker_0, # of connection points: 2
#     Edge 34, Type (0, 0), BuildingBlock: AJUNOK_clean_linker_0, # of connection points: 2
#     Edge 35, Type (0, 0), BuildingBlock: AJUNOK_clean_linker_0, # of connection points: 2
#     Edge 36, Type (0, 0), BuildingBlock: AJUNOK_clean_linker_0, # of connection points: 2
#     Edge 37, Type (0, 0), BuildingBlock: AJUNOK_clean_linker_0, # of connection points: 2
#     Edge 38, Type (0, 0), BuildingBlock: AJUNOK_clean_linker_0, # of connection points: 2
#     Edge 39, Type (0, 0), BuildingBlock: AJUNOK_clean_linker_0, # of connection points: 2
#     Edge 40, Type (0, 0), BuildingBlock: AJUNOK_clean_linker_0, # of connection points: 2
#     Edge 41, Type (0, 0), BuildingBlock: AJUNOK_clean_linker_0, # of connection points: 2
#     Edge 42, Type (0, 0), BuildingBlock: AJUNOK_clean_linker_0, # of connection points: 2
#     Edge 43, Type (0, 0), BuildingBlock: AJUNOK_clean_linker_0, # of connection points: 2
#     Edge 44, Type (0, 0), BuildingBlock: AJUNOK_clean_linker_0, # of connection points: 2
#     Edge 45, Type (0, 0), BuildingBlock: AJUNOK_clean_linker_0, # of connection points: 2
#     Edge 46, Type (0, 0), BuildingBlock: AJUNOK_clean_linker_0, # of connection points: 2
#     Edge 47, Type (0, 0), BuildingBlock: AJUNOK_clean_linker_0, # of connection points: 2
# Relax obj value: 0.089
# Max RMSD: 0.070
# Mean RMSD: 0.070
data_MOF--net-ukb--node1-KUFVIS_clean_sbu_0--edge1-AJUNOK_clean_linker_0
_symmetry_space_group_name_H-M    P1
_symmetry_Int_Tables_number       1
_symmetry_cell_setting            triclinic
loop_
_symmetry_equiv_pos_as_xyz
'x, y, z'
_cell_length_a     32.301712
_cell_length_b     32.339019
_cell_length_c     27.530592
_cell_angle_alpha  89.95505
_cell_angle_beta   90.026573
_cell_angle_gamma 89.966403
loop_
_atom_site_label
_atom_site_type_symbol
_atom_site_fract_x
_atom_site_fract_y
_atom_site_fract_z
_atom_type_partial_charge
Mn0 Mn 0.52625 0.18512 0.20238 0.0
Mn1 Mn 0.6137 0.19143 0.13552 0.0
C2 C 0.58515 0.14996 0.22996 0.0
C3 C 0.46333 0.15367 0.2198 0.0
C4 C 0.58633 0.25869 0.20624 0.0
O5 O 0.50515 0.20993 0.13839 0.0
O6 O 0.56474 0.20812 0.09671 0.0
C7 C 0.5936 0.12409 0.06646 0.0
N8 N 0.62032 0.1419 0.09843 0.0
C9 C 0.67224 0.09039 0.08214 0.0
C10 C 0.64549 0.07179 0.04849 0.0
C11 C 0.6059 0.08863 0.04079 0.0
C12 C 0.65819 0.12567 0.10653 0.0
H13 H 0.56318 0.13686 0.06072 0.0
C14 C 0.52599 0.21521 0.09964 0.0
O15 O 0.47082 0.19137 0.23324 0.0
O16 O 0.49121 0.13518 0.19381 0.0
N17 N 0.66481 0.1769 0.16523 0.0
C18 C 0.68687 0.19908 0.19817 0.0
C19 C 0.7273 0.18696 0.20944 0.0
C20 C 0.74443 0.15185 0.18755 0.0
C21 C 0.72183 0.13032 0.15229 0.0
C22 C 0.6821 0.14475 0.14126 0.0
H23 H 0.67398 0.22631 0.21475 0.0
O24 O 0.55394 0.15782 0.25781 0.0
O25 O 0.58037 0.16113 0.18435 0.0
O26 O 0.55344 0.24064 0.22103 0.0
O27 O 0.6099 0.24336 0.17348 0.0
C28 C 0.73689 0.09509 0.12792 0.0
C29 C 0.71206 0.07507 0.09291 0.0
H30 H 0.65488 0.04443 0.02867 0.0
H31 H 0.58494 0.07433 0.01514 0.0
H32 H 0.74552 0.20509 0.23413 0.0
H33 H 0.77494 0.14208 0.19807 0.0
H34 H 0.76733 0.0829 0.13608 0.0
H35 H 0.72382 0.04784 0.07464 0.0
Mn36 Mn 0.31513 0.528 0.70449 0.0
Mn37 Mn 0.30864 0.61565 0.63804 0.0
C38 C 0.35216 0.58602 0.72931 0.0
C39 C 0.3464 0.46419 0.71857 0.0
C40 C 0.24118 0.58647 0.70782 0.0
O41 O 0.28739 0.50897 0.64107 0.0
O42 O 0.29519 0.56726 0.59715 0.0
C43 C 0.37888 0.6001 0.57141 0.0
N44 N 0.35992 0.62449 0.60504 0.0
C45 C 0.41521 0.67421 0.60178 0.0
C46 C 0.43523 0.64977 0.5669 0.0
C47 C 0.417 0.61252 0.5517 0.0
C48 C 0.37738 0.66014 0.62024 0.0
H49 H 0.36507 0.57135 0.55984 0.0
C50 C 0.28513 0.52924 0.60129 0.0
O51 O 0.30951 0.47219 0.73468 0.0
O52 O 0.36417 0.49229 0.6922 0.0
N53 N 0.32045 0.66586 0.67157 0.0
C54 C 0.29479 0.68801 0.701 0.0
C55 C 0.30771 0.72661 0.71839 0.0
C56 C 0.34656 0.74217 0.70503 0.0
C57 C 0.37108 0.72031 0.67178 0.0
C58 C 0.3562 0.68231 0.65497 0.0
H59 H 0.26477 0.6763 0.71134 0.0
O60 O 0.34566 0.55543 0.75869 0.0
O61 O 0.33807 0.58115 0.68533 0.0
O62 O 0.26081 0.5558 0.72598 0.0
O63 O 0.25547 0.60876 0.67313 0.0
C64 C 0.40947 0.73475 0.65436 0.0
C65 C 0.43145 0.71179 0.61926 0.0
H66 H 0.46464 0.65925 0.55163 0.0
H67 H 0.43231 0.59342 0.5249 0.0
H68 H 0.28792 0.74419 0.74226 0.0
H69 H 0.35695 0.77093 0.72049 0.0
H70 H 0.42243 0.76343 0.66761 0.0
H71 H 0.46084 0.72329 0.60602 0.0
Mn72 Mn 0.96953 0.31708 0.19632 0.0
Mn73 Mn 0.88319 0.30502 0.12849 0.0
C74 C 0.90899 0.35049 0.22 0.0
C75 C 0.02999 0.35331 0.21338 0.0
C76 C 0.91106 0.24204 0.2035 0.0
O77 O 0.99303 0.29164 0.1343 0.0
O78 O 0.9331 0.28518 0.09395 0.0
C79 C 0.90644 0.36606 0.05305 0.0
N80 N 0.8785 0.35139 0.08583 0.0
C81 C 0.82629 0.39844 0.05718 0.0
C82 C 0.85435 0.41387 0.02282 0.0
C83 C 0.89476 0.39785 0.02107 0.0
C84 C 0.84008 0.36745 0.08889 0.0
H85 H 0.93728 0.3534 0.05111 0.0
C86 C 0.97225 0.28108 0.09712 0.0
O87 O 0.02535 0.31543 0.22818 0.0
O88 O 0.0011 0.36852 0.18605 0.0
N89 N 0.83091 0.32213 0.15394 0.0
C90 C 0.80705 0.30267 0.18777 0.0
C91 C 0.76527 0.31393 0.19276 0.0
C92 C 0.74835 0.34436 0.16216 0.0
C93 C 0.77336 0.36403 0.12786 0.0
C94 C 0.81464 0.35145 0.12436 0.0
H95 H 0.81955 0.27797 0.20977 0.0
O96 O 0.93949 0.34463 0.24967 0.0
O97 O 0.91514 0.3381 0.1753 0.0
O98 O 0.94442 0.26046 0.21649 0.0
O99 O 0.88593 0.25658 0.17181 0.0
C100 C 0.75845 0.39465 0.09582 0.0
C101 C 0.78503 0.41217 0.06081 0.0
H102 H 0.8452 0.4379 0.99757 0.0
H103 H 0.91664 0.40958 0.9947 0.0
H104 H 0.74584 0.29825 0.2189 0.0
H105 H 0.71582 0.35165 0.1637 0.0
H106 H 0.72656 0.40493 0.09779 0.0
H107 H 0.7733 0.4358 0.03651 0.0
Mn108 Mn 0.18346 0.96651 0.69797 0.0
Mn109 Mn 0.19272 0.87881 0.63227 0.0
C110 C 0.14873 0.90746 0.72339 0.0
C111 C 0.14836 0.02856 0.71088 0.0
C112 C 0.25884 0.90974 0.70274 0.0
O113 O 0.21 0.98653 0.63458 0.0
O114 O 0.20591 0.92755 0.59146 0.0
C115 C 0.12315 0.89332 0.56426 0.0
N116 N 0.14199 0.86924 0.59835 0.0
C117 C 0.08716 0.81904 0.59464 0.0
C118 C 0.0673 0.84314 0.55924 0.0
C119 C 0.08538 0.88047 0.54402 0.0
C120 C 0.12471 0.83346 0.61351 0.0
H121 H 0.13678 0.92216 0.55272 0.0
C122 C 0.21377 0.96613 0.59519 0.0
O123 O 0.18588 0.02336 0.72686 0.0
O124 O 0.13283 -0.00111 0.6851 0.0
N125 N 0.18119 0.8284 0.66572 0.0
C126 C 0.20654 0.8067 0.69608 0.0
C127 C 0.19357 0.7682 0.71385 0.0
C128 C 0.15505 0.75223 0.6998 0.0
C129 C 0.13086 0.77365 0.66578 0.0
C130 C 0.14573 0.8116 0.64872 0.0
H131 H 0.23624 0.81881 0.70706 0.0
O132 O 0.15434 0.93829 0.7526 0.0
O133 O 0.16245 0.91257 0.67931 0.0
O134 O 0.23896 0.94084 0.7196 0.0
O135 O 0.24504 0.8866 0.66857 0.0
C136 C 0.09272 0.75891 0.64798 0.0
C137 C 0.07098 0.78148 0.61227 0.0
H138 H 0.03812 0.83336 0.54362 0.0
H139 H 0.07018 0.89932 0.51684 0.0
H140 H 0.21291 0.75104 0.73873 0.0
H141 H 0.14463 0.72351 0.71541 0.0
H142 H 0.07971 0.73032 0.66143 0.0
H143 H 0.04178 0.76973 0.59874 0.0
Mn144 Mn 0.52598 0.31536 0.81363 0.0
Mn145 Mn 0.61222 0.31089 0.88289 0.0
C146 C 0.58572 0.34928 0.78581 0.0
C147 C 0.46327 0.34699 0.79455 0.0
C148 C 0.5839 0.2404 0.8167 0.0
O149 O 0.50414 0.29262 0.87862 0.0
O150 O 0.56281 0.29757 0.92181 0.0
C151 C 0.59325 0.38184 0.94722 0.0
N152 N 0.61979 0.36188 0.9168 0.0
C153 C 0.67291 0.41262 0.93056 0.0
C154 C 0.64636 0.43349 0.96254 0.0
C155 C 0.60628 0.41811 0.97073 0.0
C156 C 0.65823 0.37654 0.90846 0.0
H157 H 0.56241 0.37015 0.95345 0.0
C158 C 0.5243 0.2898 0.91833 0.0
O159 O 0.4706 0.30894 0.78235 0.0
O160 O 0.49132 0.36593 0.81979 0.0
N161 N 0.66371 0.32274 0.85289 0.0
C162 C 0.68475 0.29926 0.82041 0.0
C163 C 0.72493 0.31067 0.80727 0.0
C164 C 0.74305 0.34604 0.82746 0.0
C165 C 0.72156 0.36875 0.86272 0.0
C166 C 0.6818 0.35535 0.87511 0.0
H167 H 0.67096 0.27183 0.80532 0.0
O168 O 0.55503 0.34071 0.75739 0.0
O169 O 0.57995 0.33939 0.83163 0.0
O170 O 0.55254 0.25881 0.79831 0.0
O171 O 0.60723 0.257 0.84888 0.0
C172 C 0.73725 0.40478 0.88488 0.0
C173 C 0.71299 0.42663 0.9189 0.0
H174 H 0.65626 0.46157 0.98056 0.0
H175 H 0.58548 0.43419 0.99508 0.0
H176 H 0.74199 0.29209 0.78199 0.0
H177 H 0.77315 0.35546 0.81496 0.0
H178 H 0.76753 0.4165 0.87541 0.0
H179 H 0.72521 0.4545 0.93532 0.0
Mn180 Mn 0.1805 0.52992 0.31767 0.0
Mn181 Mn 0.18763 0.61819 0.3824 0.0
C182 C 0.1491 0.5895 0.28637 0.0
C183 C 0.14439 0.46939 0.30094 0.0
C184 C 0.25718 0.58568 0.31773 0.0
O185 O 0.20153 0.50919 0.38352 0.0
O186 O 0.20098 0.56961 0.42341 0.0
C187 C 0.11689 0.60207 0.44813 0.0
N188 N 0.13692 0.62744 0.41643 0.0
C189 C 0.08604 0.68093 0.42734 0.0
C190 C 0.06519 0.65565 0.46074 0.0
C191 C 0.08062 0.61597 0.47103 0.0
C192 C 0.12221 0.66548 0.40605 0.0
H193 H 0.12847 0.57148 0.45568 0.0
C194 C 0.20658 0.53061 0.42182 0.0
O195 O 0.18332 0.47268 0.28967 0.0
O196 O 0.12797 0.49962 0.32495 0.0
N197 N 0.17618 0.66903 0.35032 0.0
C198 C 0.20014 0.68929 0.31753 0.0
C199 C 0.18883 0.72915 0.30259 0.0
C200 C 0.15304 0.7476 0.32142 0.0
C201 C 0.13003 0.7271 0.35723 0.0
C202 C 0.14343 0.68781 0.37151 0.0
H203 H 0.22797 0.67522 0.30381 0.0
O204 O 0.15723 0.5577 0.25964 0.0
O205 O 0.15839 0.58521 0.3326 0.0
O206 O 0.23854 0.55341 0.30197 0.0
O207 O 0.24077 0.61112 0.34774 0.0
C208 C 0.09382 0.74346 0.3784 0.0
C209 C 0.0719 0.72044 0.41352 0.0
H210 H 0.03706 0.66619 0.47822 0.0
H211 H 0.06455 0.5961 0.49643 0.0
H212 H 0.20778 0.74593 0.27713 0.0
H213 H 0.14367 0.77733 0.30779 0.0
H214 H 0.08206 0.77334 0.3674 0.0
H215 H 0.04391 0.73318 0.42918 0.0
Mn216 Mn 0.97306 0.18078 0.81421 0.0
Mn217 Mn 0.88691 0.18534 0.88317 0.0
C218 C 0.91266 0.14928 0.7849 0.0
C219 C 0.03374 0.14631 0.7936 0.0
C220 C 0.91672 0.25711 0.81964 0.0
O221 O 0.99578 0.20028 0.87989 0.0
O222 O 0.93664 0.19764 0.92239 0.0
C223 C 0.9058 0.11253 0.94471 0.0
N224 N 0.87906 0.13365 0.91563 0.0
C225 C 0.82615 0.08228 0.92709 0.0
C226 C 0.85274 0.0605 0.95823 0.0
C227 C 0.89286 0.0756 0.96686 0.0
C228 C 0.84066 0.11917 0.90666 0.0
H229 H 0.9368 0.12366 0.95053 0.0
C230 C 0.97553 0.20368 0.91935 0.0
O231 O 0.02931 0.18536 0.78381 0.0
O232 O 0.00445 0.12849 0.81788 0.0
N233 N 0.83531 0.17434 0.8529 0.0
C234 C 0.81442 0.19847 0.82093 0.0
C235 C 0.77454 0.18695 0.80659 0.0
C236 C 0.75659 0.15087 0.82517 0.0
C237 C 0.77778 0.12759 0.8602 0.0
C238 C 0.81723 0.14108 0.87379 0.0
H239 H 0.82815 0.22642 0.80716 0.0
O240 O 0.94332 0.1586 0.75679 0.0
O241 O 0.91856 0.15767 0.83107 0.0
O242 O 0.94845 0.23893 0.80169 0.0
O243 O 0.89242 0.23979 0.85033 0.0
C244 C 0.76219 0.09084 0.8808 0.0
C245 C 0.7863 0.06828 0.91437 0.0
H246 H 0.84297 0.03179 0.97497 0.0
H247 H 0.91383 0.05868 0.99025 0.0
H248 H 0.75755 0.20586 0.78153 0.0
H249 H 0.72689 0.14134 0.81157 0.0
H250 H 0.73214 0.07909 0.87036 0.0
H251 H 0.77423 0.03978 0.92944 0.0
Mn252 Mn 0.32058 0.96932 0.3132 0.0
Mn253 Mn 0.31453 0.88336 0.38218 0.0
C254 C 0.35716 0.91069 0.28923 0.0
C255 C 0.3516 0.03294 0.29809 0.0
C256 C 0.24631 0.91169 0.31274 0.0
O257 O 0.29323 0.98944 0.37641 0.0
O258 O 0.30286 0.93259 0.4223 0.0
C259 C 0.38643 0.89854 0.44658 0.0
N260 N 0.36633 0.87406 0.414 0.0
C261 C 0.42052 0.82306 0.41725 0.0
C262 C 0.44168 0.84758 0.45111 0.0
C263 C 0.42457 0.88553 0.46578 0.0
C264 C 0.38271 0.83774 0.3993 0.0
H265 H 0.3735 0.9278 0.45769 0.0
C266 C 0.29226 0.97035 0.41702 0.0
O267 O 0.31465 0.02475 0.28224 0.0
O268 O 0.36964 0.00498 0.32447 0.0
N269 N 0.32482 0.83263 0.34938 0.0
C270 C 0.29825 0.81079 0.32085 0.0
C271 C 0.30998 0.77173 0.30409 0.0
C272 C 0.34878 0.7555 0.31662 0.0
C273 C 0.37429 0.77709 0.34903 0.0
C274 C 0.36048 0.81558 0.36552 0.0
H275 H 0.26831 0.82298 0.31094 0.0
O276 O 0.35066 0.94089 0.25927 0.0
O277 O 0.34352 0.91646 0.33326 0.0
O278 O 0.26622 0.94133 0.29284 0.0
O279 O 0.26056 0.89056 0.34849 0.0
C280 C 0.41262 0.76198 0.36592 0.0
C281 C 0.43563 0.78486 0.40019 0.0
H282 H 0.47112 0.83765 0.46595 0.0
H283 H 0.44077 0.90472 0.49176 0.0
H284 H 0.28918 0.75433 0.2815 0.0
H285 H 0.35832 0.72645 0.30115 0.0
H286 H 0.42476 0.73285 0.3529 0.0
H287 H 0.46497 0.77286 0.41304 0.0
Mn288 Mn 0.46952 0.81363 0.82252 0.0
Mn289 Mn 0.38284 0.80401 0.88969 0.0
C290 C 0.4087 0.84448 0.79395 0.0
C291 C 0.52963 0.85034 0.80489 0.0
C292 C 0.41147 0.73789 0.81907 0.0
O293 O 0.49293 0.79172 0.8863 0.0
O294 O 0.4327 0.78586 0.92551 0.0
C295 C 0.40716 0.86961 0.95909 0.0
N296 N 0.37842 0.85238 0.92911 0.0
C297 C 0.32652 0.9008 0.95506 0.0
C298 C 0.35533 0.91876 0.98676 0.0
C299 C 0.39599 0.90334 0.98841 0.0
C300 C 0.33979 0.86786 0.92598 0.0
H301 H 0.4383 0.85765 0.96063 0.0
C302 C 0.47186 0.78214 0.92346 0.0
O303 O 0.52614 0.81176 0.79231 0.0
O304 O 0.49972 0.86608 0.83007 0.0
N305 N 0.33002 0.81938 0.86441 0.0
C306 C 0.30577 0.79792 0.83282 0.0
C307 C 0.26361 0.80798 0.82869 0.0
C308 C 0.24684 0.83957 0.85764 0.0
C309 C 0.27232 0.86155 0.88941 0.0
C310 C 0.31379 0.84961 0.89271 0.0
H311 H 0.31828 0.77237 0.81244 0.0
O312 O 0.44024 0.83749 0.76636 0.0
O313 O 0.41412 0.8351 0.83999 0.0
O314 O 0.44533 0.75573 0.80646 0.0
O315 O 0.38576 0.75378 0.84923 0.0
C316 C 0.25783 0.894 0.91905 0.0
C317 C 0.2851 0.91404 0.95137 0.0
H318 H 0.34662 0.94442 1.00989 0.0
H319 H 0.41852 0.91716 0.01254 0.0
H320 H 0.24383 0.79056 0.80456 0.0
H321 H 0.21412 0.84606 0.85681 0.0
H322 H 0.22582 0.90389 0.91715 0.0
H323 H 0.27382 0.9393 0.97352 0.0
Mn324 Mn 0.68397 0.46737 0.32454 0.0
Mn325 Mn 0.69643 0.37955 0.38933 0.0
C326 C 0.65043 0.40753 0.29927 0.0
C327 C 0.64751 0.52817 0.31106 0.0
C328 C 0.75982 0.41101 0.31584 0.0
O329 O 0.71018 0.48837 0.38765 0.0
O330 O 0.71204 0.42835 0.42894 0.0
C331 C 0.63062 0.39455 0.46224 0.0
N332 N 0.64726 0.37055 0.4266 0.0
C333 C 0.59173 0.32132 0.43351 0.0
C334 C 0.5741 0.34543 0.47042 0.0
C335 C 0.59367 0.38221 0.48485 0.0
C336 C 0.62862 0.3352 0.41238 0.0
H337 H 0.6454 0.42288 0.47323 0.0
C338 C 0.71741 0.46741 0.42594 0.0
O339 O 0.68521 0.52403 0.29534 0.0
O340 O 0.63263 0.49843 0.33732 0.0
N341 N 0.68273 0.32928 0.35712 0.0
C342 C 0.70624 0.30742 0.32515 0.0
C343 C 0.69163 0.26949 0.30776 0.0
C344 C 0.65345 0.25414 0.32379 0.0
C345 C 0.63124 0.27566 0.35947 0.0
C346 C 0.64764 0.31314 0.37594 0.0
H347 H 0.73565 0.31904 0.31252 0.0
O348 O 0.6554 0.43852 0.27011 0.0
O349 O 0.66411 0.41286 0.34346 0.0
O350 O 0.73984 0.44315 0.30215 0.0
O351 O 0.74704 0.38672 0.34953 0.0
C352 C 0.59365 0.26152 0.37941 0.0
C353 C 0.57403 0.2842 0.41662 0.0
H354 H 0.54557 0.33604 0.48787 0.0
H355 H 0.58027 0.40104 0.51328 0.0
H356 H 0.70955 0.25248 0.28162 0.0
H357 H 0.64177 0.22582 0.30843 0.0
H358 H 0.57951 0.23328 0.36652 0.0
H359 H 0.54529 0.27288 0.43189 0.0
Mn360 Mn 0.02755 0.68301 0.81891 0.0
Mn361 Mn 0.1137 0.69199 0.88788 0.0
C362 C 0.0878 0.64919 0.7934 0.0
C363 C 0.96498 0.65082 0.80169 0.0
C364 C 0.08787 0.75679 0.8141 0.0
O365 O 0.00422 0.70817 0.8812 0.0
O366 O 0.06375 0.71164 0.9224 0.0
C367 C 0.08811 0.62851 0.95934 0.0
N368 N 0.1172 0.64451 0.92893 0.0
C369 C 0.16868 0.59702 0.9583 0.0
C370 C 0.13948 0.58038 0.99053 0.0
C371 C 0.09885 0.59593 0.99068 0.0
C372 C 0.15581 0.62883 0.92723 0.0
H373 H 0.05707 0.64067 0.95969 0.0
C374 C 0.02482 0.71702 0.91903 0.0
O375 O 0.97249 0.68812 0.78675 0.0
O376 O 0.99307 0.63278 0.82789 0.0
N377 N 0.16654 0.6754 0.86378 0.0
C378 C 0.19124 0.69568 0.83152 0.0
C379 C 0.23338 0.68525 0.82852 0.0
C380 C 0.24968 0.65456 0.85921 0.0
C381 C 0.22375 0.63379 0.89162 0.0
C382 C 0.18229 0.64596 0.89363 0.0
H383 H 0.17912 0.72051 0.80954 0.0
O384 O 0.05672 0.65576 0.76485 0.0
O385 O 0.08197 0.6602 0.83887 0.0
O386 O 0.05437 0.73898 0.8006 0.0
O387 O 0.11227 0.74154 0.84611 0.0
C388 C 0.2378 0.6024 0.92315 0.0
C389 C 0.21014 0.58367 0.95612 0.0
H390 H 0.14788 0.55567 0.01523 0.0
H391 H 0.07603 0.58318 0.01525 0.0
H392 H 0.25349 0.70172 0.80385 0.0
H393 H 0.28236 0.64788 0.85913 0.0
H394 H 0.26982 0.59242 0.92233 0.0
H395 H 0.2212 0.55942 0.98001 0.0
Mn396 Mn 0.81464 0.03021 0.31958 0.0
Mn397 Mn 0.80273 0.11702 0.3859 0.0
C398 C 0.84561 0.09117 0.29138 0.0
C399 C 0.85286 0.97068 0.30377 0.0
C400 C 0.73681 0.08455 0.31631 0.0
O401 O 0.79178 0.00756 0.38356 0.0
O402 O 0.78889 0.06736 0.42436 0.0
C403 C 0.8702 0.10116 0.4565 0.0
N404 N 0.85116 0.12668 0.42408 0.0
C405 C 0.89563 0.18334 0.44574 0.0
C406 C 0.91561 0.1578 0.47965 0.0
C407 C 0.90302 0.11643 0.4848 0.0
C408 C 0.8635 0.16619 0.41825 0.0
H409 H 0.86022 0.06953 0.46092 0.0
C410 C 0.78458 0.0283 0.42183 0.0
O411 O 0.81441 0.97341 0.29019 0.0
O412 O 0.86758 0.00097 0.32911 0.0
N413 N 0.81413 0.16903 0.35673 0.0
C414 C 0.79196 0.1891 0.32199 0.0
C415 C 0.80032 0.23087 0.31251 0.0
C416 C 0.83053 0.25151 0.33972 0.0
C417 C 0.85312 0.23032 0.37517 0.0
C418 C 0.84328 0.18888 0.3832 0.0
H419 H 0.76749 0.17344 0.30284 0.0
O420 O 0.83937 0.0595 0.26378 0.0
O421 O 0.83494 0.08592 0.33704 0.0
O422 O 0.7565 0.05267 0.30108 0.0
O423 O 0.75168 0.10975 0.34757 0.0
C424 C 0.88473 0.24872 0.40306 0.0
C425 C 0.90622 0.22512 0.43812 0.0
H426 H 0.94069 0.16959 0.50181 0.0
H427 H 0.91829 0.09649 0.51083 0.0
H428 H 0.78306 0.24763 0.28528 0.0
H429 H 0.83542 0.28379 0.33381 0.0
H430 H 0.89298 0.28085 0.39756 0.0
H431 H 0.93074 0.23942 0.45905 0.0
Mn432 Mn 0.4717 0.67932 0.20572 0.0
Mn433 Mn 0.38507 0.68711 0.13797 0.0
C434 C 0.41103 0.6485 0.23472 0.0
C435 C 0.53166 0.64331 0.22489 0.0
C436 C 0.41553 0.75598 0.20479 0.0
O437 O 0.49448 0.69996 0.14079 0.0
O438 O 0.43473 0.70113 0.0994 0.0
C439 C 0.40392 0.61707 0.07222 0.0
N440 N 0.37736 0.63667 0.10291 0.0
C441 C 0.32474 0.58538 0.08929 0.0
C442 C 0.35124 0.56503 0.05681 0.0
C443 C 0.39111 0.58087 0.04842 0.0
C444 C 0.3392 0.62146 0.11163 0.0
H445 H 0.43464 0.62891 0.0662 0.0
C446 C 0.47381 0.70593 0.1021 0.0
O447 O 0.52811 0.68223 0.23588 0.0
O448 O 0.50203 0.62675 0.19995 0.0
N449 N 0.33344 0.67493 0.1676 0.0
C450 C 0.31202 0.69837 0.1998 0.0
C451 C 0.27186 0.68673 0.21265 0.0
C452 C 0.25419 0.65105 0.19274 0.0
C453 C 0.27601 0.62839 0.15775 0.0
C454 C 0.31564 0.64217 0.14536 0.0
H455 H 0.32535 0.72602 0.21485 0.0
O456 O 0.44215 0.65638 0.26271 0.0
O457 O 0.41669 0.65756 0.18867 0.0
O458 O 0.44799 0.7374 0.22028 0.0
O459 O 0.39061 0.73988 0.17387 0.0
C460 C 0.26059 0.59229 0.13552 0.0
C461 C 0.2849 0.57085 0.1012 0.0
H462 H 0.34151 0.53699 0.0386 0.0
H463 H 0.41195 0.56515 0.0238 0.0
H464 H 0.25442 0.70548 0.23733 0.0
H465 H 0.22407 0.64154 0.20498 0.0
H466 H 0.23041 0.58031 0.14502 0.0
H467 H 0.27286 0.54297 0.08463 0.0
Mn468 Mn 0.81639 0.47074 0.71153 0.0
Mn469 Mn 0.81291 0.38451 0.64291 0.0
C470 C 0.85071 0.41147 0.74013 0.0
C471 C 0.84762 0.5336 0.72923 0.0
C472 C 0.74148 0.41308 0.70794 0.0
O473 O 0.79361 0.49206 0.6464 0.0
O474 O 0.79985 0.43356 0.60338 0.0
C475 C 0.88457 0.40339 0.57947 0.0
N476 N 0.86442 0.37699 0.6099 0.0
C477 C 0.91625 0.3245 0.59846 0.0
C478 C 0.93734 0.35088 0.56649 0.0
C479 C 0.92148 0.39058 0.5571 0.0
C480 C 0.87948 0.3389 0.61931 0.0
H481 H 0.87256 0.43396 0.5724 0.0
C482 C 0.79152 0.47191 0.60672 0.0
O483 O 0.80961 0.52631 0.74184 0.0
O484 O 0.86677 0.50528 0.70467 0.0
N485 N 0.82473 0.33343 0.67365 0.0
C486 C 0.80088 0.31256 0.70585 0.0
C487 C 0.8126 0.27278 0.72004 0.0
C488 C 0.84872 0.2549 0.70127 0.0
C489 C 0.87181 0.2762 0.66617 0.0
C490 C 0.85802 0.31552 0.6526 0.0
H491 H 0.77294 0.32616 0.7199 0.0
O492 O 0.84184 0.44224 0.76823 0.0
O493 O 0.8408 0.41694 0.69426 0.0
O494 O 0.75987 0.44419 0.72676 0.0
O495 O 0.75844 0.38969 0.67603 0.0
C496 C 0.90861 0.26082 0.64536 0.0
C497 C 0.93074 0.28489 0.6114 0.0
H498 H 0.96595 0.34119 0.54942 0.0
H499 H 0.93772 0.41126 0.53277 0.0
H500 H 0.79364 0.25596 0.74508 0.0
H501 H 0.85839 0.22517 0.7147 0.0
H502 H 0.92075 0.23098 0.6559 0.0
H503 H 0.9592 0.27293 0.59607 0.0
Mn504 Mn 0.03062 0.81875 0.2009 0.0
Mn505 Mn 0.1159 0.80828 0.1312 0.0
C506 C 0.09285 0.84757 0.22879 0.0
C507 C 0.97146 0.85612 0.22092 0.0
C508 C 0.08492 0.74067 0.19906 0.0
O509 O 0.00578 0.79902 0.13655 0.0
O510 O 0.06502 0.79498 0.09498 0.0
C511 C 0.09531 0.87835 0.06614 0.0
N512 N 0.12313 0.85787 0.09451 0.0
C513 C 0.17816 0.90314 0.0697 0.0
C514 C 0.15031 0.92441 0.03959 0.0
C515 C 0.10857 0.91221 0.03821 0.0
C516 C 0.16286 0.87021 0.0974 0.0
H517 H 0.06333 0.86884 0.06487 0.0
C518 C 0.02589 0.79175 0.09786 0.0
O519 O 0.9745 0.81718 0.23203 0.0
O520 O 0.00142 0.87218 0.19603 0.0
N521 N 0.16961 0.81922 0.15677 0.0
C522 C 0.19246 0.79499 0.18701 0.0
C523 C 0.23524 0.80184 0.19099 0.0
C524 C 0.25402 0.83301 0.16317 0.0
C525 C 0.22999 0.8578 0.13266 0.0
C526 C 0.18777 0.849 0.12943 0.0
H527 H 0.17833 0.76954 0.20608 0.0
O528 O 0.06177 0.84051 0.25712 0.0
O529 O 0.08633 0.83903 0.18276 0.0
O530 O 0.05297 0.75993 0.21483 0.0
O531 O 0.1104 0.75624 0.16842 0.0
C532 C 0.24653 0.89008 0.10422 0.0
C533 C 0.22047 0.91316 0.07327 0.0
H534 H 0.16059 0.9502 0.01756 0.0
H535 H 0.08679 0.9286 0.01534 0.0
H536 H 0.25396 0.78224 0.21392 0.0
H537 H 0.28708 0.83686 0.16379 0.0
H538 H 0.27919 0.89755 0.10609 0.0
H539 H 0.23333 0.93832 0.05214 0.0
Mn540 Mn 0.68257 0.02748 0.7053 0.0
Mn541 Mn 0.68958 0.11432 0.63811 0.0
C542 C 0.65083 0.08765 0.73473 0.0
C543 C 0.64613 0.96714 0.72241 0.0
C544 C 0.75926 0.08329 0.70388 0.0
O545 O 0.70403 0.00555 0.64024 0.0
O546 O 0.7033 0.06516 0.59866 0.0
C547 C 0.6193 0.09669 0.57214 0.0
N548 N 0.63895 0.12264 0.60349 0.0
C549 C 0.58752 0.17542 0.59133 0.0
C550 C 0.56704 0.14953 0.55831 0.0
C551 C 0.58296 0.10991 0.54878 0.0
C552 C 0.62386 0.16068 0.61297 0.0
H553 H 0.63124 0.06614 0.56519 0.0
C554 C 0.70911 0.02627 0.6014 0.0
O555 O 0.68489 0.97052 0.73456 0.0
O556 O 0.63012 0.99726 0.69783 0.0
N557 N 0.67762 0.16542 0.66883 0.0
C558 C 0.70069 0.18576 0.70231 0.0
C559 C 0.68855 0.22528 0.71705 0.0
C560 C 0.65292 0.24347 0.69737 0.0
C561 C 0.63064 0.22274 0.6611 0.0
C562 C 0.64476 0.18364 0.64714 0.0
H563 H 0.72821 0.17184 0.7172 0.0
O564 O 0.65884 0.0564 0.76246 0.0
O565 O 0.66043 0.08237 0.68876 0.0
O566 O 0.74064 0.05135 0.72073 0.0
O567 O 0.74271 0.10811 0.67319 0.0
C568 C 0.5942 0.23837 0.63964 0.0
C569 C 0.57277 0.21482 0.6046 0.0
H570 H 0.53881 0.15952 0.54056 0.0
H571 H 0.56718 0.08957 0.52367 0.0
H572 H 0.70666 0.24167 0.74338 0.0
H573 H 0.64288 0.27295 0.71113 0.0
H574 H 0.58174 0.26797 0.65052 0.0
H575 H 0.54458 0.227 0.58875 0.0
C576 C 0.39869 0.11177 0.21304 0.0
C577 C 0.42972 0.12959 0.2419 0.0
C578 C 0.37102 0.08277 0.23277 0.0
C579 C 0.37469 0.06966 0.28139 0.0
H580 H 0.39672 0.11923 0.17474 0.0
H581 H 0.34846 0.06852 0.20895 0.0
S582 S 0.45026 0.10829 0.37193 0.0
N583 N 0.46138 0.13395 0.32171 0.0
N584 N 0.41069 0.07811 0.35824 0.0
C585 C 0.40484 0.08831 0.31083 0.0
C586 C 0.43211 0.11863 0.29115 0.0
C587 C 0.37228 0.42023 0.78625 0.0
C588 C 0.37015 0.42817 0.73603 0.0
C589 C 0.40137 0.39224 0.8052 0.0
C590 C 0.42801 0.37018 0.77435 0.0
H591 H 0.35334 0.43782 0.8113 0.0
H592 H 0.40399 0.38883 0.84424 0.0
S593 S 0.43246 0.3775 0.64013 0.0
N594 N 0.39597 0.41073 0.65585 0.0
N595 N 0.44904 0.35638 0.69124 0.0
C596 C 0.4244 0.37597 0.72396 0.0
C597 C 0.39583 0.40546 0.70482 0.0
C598 C 0.05025 0.4224 0.24266 0.0
C599 C 0.06161 0.38112 0.23408 0.0
C600 C 0.07723 0.44988 0.2653 0.0
C601 C 0.11721 0.43767 0.27938 0.0
H602 H 0.01971 0.43353 0.23285 0.0
H603 H 0.06673 0.48134 0.27105 0.0
S604 S 0.16278 0.33331 0.26405 0.0
N605 N 0.11552 0.329 0.24149 0.0
N606 N 0.16749 0.38178 0.28235 0.0
C607 C 0.12956 0.39671 0.2703 0.0
C608 C 0.10138 0.36811 0.24824 0.0
C609 C 0.07843 0.05908 0.72069 0.0
C610 C 0.12147 0.06305 0.72717 0.0
C611 C 0.05083 0.08693 0.74178 0.0
C612 C 0.06498 0.12053 0.7693 0.0
H613 H 0.06556 0.03315 0.7009 0.0
H614 H 0.01791 0.08173 0.73707 0.0
S615 S 0.17426 0.1477 0.79392 0.0
N616 N 0.17703 0.10489 0.76127 0.0
N617 N 0.12443 0.15837 0.79964 0.0
C618 C 0.10776 0.12656 0.77411 0.0
C619 C 0.1362 0.0975 0.75336 0.0
C620 C 0.55004 0.91897 0.77448 0.0
C621 C 0.56161 0.87801 0.78467 0.0
C622 C 0.57769 0.9467 0.75352 0.0
C623 C 0.61856 0.9351 0.74267 0.0
H624 H 0.5189 0.92974 0.78195 0.0
H625 H 0.56694 0.9779 0.74656 0.0
S626 S 0.66487 0.8316 0.76276 0.0
N627 N 0.61662 0.82671 0.782 0.0
N628 N 0.66975 0.87996 0.74405 0.0
C629 C 0.63104 0.89439 0.75312 0.0
C630 C 0.60223 0.86551 0.77358 0.0
C631 C 0.55011 0.5772 0.26346 0.0
C632 C 0.56297 0.61637 0.24749 0.0
C633 C 0.57761 0.55004 0.28586 0.0
C634 C 0.61947 0.56045 0.29224 0.0
H635 H 0.51825 0.5674 0.259 0.0
H636 H 0.56605 0.52 0.29681 0.0
S637 S 0.66871 0.65975 0.25774 0.0
N638 N 0.61981 0.66524 0.2411 0.0
N639 N 0.6726 0.61294 0.28154 0.0
C640 C 0.63295 0.59965 0.27672 0.0
C641 C 0.60437 0.628 0.2549 0.0
C642 C 0.92312 0.62245 0.73395 0.0
C643 C 0.92898 0.62741 0.7842 0.0
C644 C 0.89485 0.59331 0.71597 0.0
C645 C 0.87056 0.56953 0.74773 0.0
H646 H 0.94251 0.63908 0.70846 0.0
H647 H 0.89306 0.58827 0.67712 0.0
S648 S 0.872 0.57355 0.88222 0.0
N649 N 0.90725 0.60766 0.86532 0.0
N650 N 0.85238 0.55448 0.83152 0.0
C651 C 0.87424 0.5762 0.79794 0.0
C652 C 0.90399 0.60479 0.81623 0.0
C653 C 0.92267 0.9508 0.27587 0.0
C654 C 0.88141 0.93908 0.28434 0.0
C655 C 0.95086 0.9237 0.25458 0.0
C656 C 0.93938 0.88327 0.24183 0.0
H657 H 0.93326 0.9817 0.28469 0.0
H658 H 0.98223 0.93448 0.24873 0.0
S659 S 0.83543 0.83664 0.25738 0.0
N660 N 0.83018 0.88429 0.27827 0.0
N661 N 0.8842 0.83222 0.23987 0.0
C662 C 0.89847 0.87058 0.25082 0.0
C663 C 0.86918 0.89881 0.27153 0.0
C664 C 0.63933 0.31452 0.21823 0.0
C665 C 0.6002 0.29795 0.23013 0.0
C666 C 0.65522 0.34917 0.24232 0.0
C667 C 0.63331 0.36876 0.27943 0.0
H668 H 0.6585 0.30025 0.19069 0.0
H669 H 0.6856 0.36052 0.23313 0.0
S670 S 0.5276 0.34245 0.32101 0.0
N671 N 0.53831 0.30687 0.27981 0.0
N672 N 0.56876 0.37266 0.32405 0.0
C673 C 0.59354 0.35422 0.29063 0.0
C674 C 0.57699 0.3186 0.2663 0.0
C675 C 0.18931 0.58883 0.7769 0.0
C676 C 0.20025 0.59836 0.72853 0.0
C677 C 0.15228 0.60396 0.79762 0.0
C678 C 0.12608 0.63082 0.77171 0.0
H679 H 0.20971 0.57017 0.79917 0.0
H680 H 0.14401 0.59445 0.83395 0.0
S681 S 0.13372 0.65271 0.63908 0.0
N682 N 0.17663 0.62746 0.6521 0.0
N683 N 0.10833 0.65624 0.69088 0.0
C684 C 0.13457 0.63644 0.72177 0.0
C685 C 0.1716 0.62067 0.70052 0.0
C686 C 0.8915 0.15528 0.29547 0.0
C687 C 0.86541 0.12856 0.26918 0.0
C688 C 0.90754 0.19178 0.27431 0.0
C689 C 0.89978 0.20142 0.22521 0.0
H690 H 0.89977 0.14779 0.33241 0.0
H691 H 0.92528 0.21283 0.29671 0.0
S692 S 0.85035 0.13213 0.13501 0.0
N693 N 0.84425 0.10822 0.18749 0.0
N694 N 0.87461 0.17555 0.148 0.0
C695 C 0.87894 0.17191 0.19698 0.0
C696 C 0.86225 0.13549 0.21861 0.0
C697 C 0.30878 0.90673 0.77375 0.0
C698 C 0.29917 0.89772 0.72488 0.0
C699 C 0.3448 0.89064 0.79594 0.0
C700 C 0.37115 0.8633 0.77102 0.0
H701 H 0.2881 0.9257 0.79523 0.0
H702 H 0.35228 0.9 0.83253 0.0
S703 S 0.36662 0.84146 0.63819 0.0
N704 N 0.32412 0.86795 0.64946 0.0
N705 N 0.39051 0.83746 0.69093 0.0
C706 C 0.36398 0.85799 0.72074 0.0
C707 C 0.32804 0.87474 0.69802 0.0
C708 C 0.58291 0.184 0.75261 0.0
C709 C 0.59571 0.19845 0.79856 0.0
C710 C 0.59952 0.14736 0.73251 0.0
C711 C 0.63032 0.12467 0.75689 0.0
H712 H 0.56106 0.20176 0.73126 0.0
H713 H 0.58844 0.13694 0.69757 0.0
S714 S 0.65754 0.13808 0.8873 0.0
N715 N 0.63008 0.17951 0.87381 0.0
N716 N 0.65972 0.11075 0.83674 0.0
C717 C 0.63764 0.13511 0.80592 0.0
C718 C 0.62116 0.17224 0.8263 0.0
C719 C 0.35038 0.59836 0.23311 0.0
C720 C 0.37349 0.62914 0.25689 0.0
C721 C 0.31346 0.5826 0.25352 0.0
C722 C 0.29931 0.59619 0.29926 0.0
H723 H 0.36068 0.58665 0.1984 0.0
H724 H 0.29527 0.56085 0.23261 0.0
S725 S 0.35946 0.66024 0.38594 0.0
N726 N 0.38708 0.66074 0.33556 0.0
N727 N 0.31812 0.63237 0.37334 0.0
C728 C 0.32564 0.622 0.32628 0.0
C729 C 0.3629 0.63775 0.30554 0.0
C730 C 0.90265 0.35218 0.73785 0.0
C731 C 0.87128 0.37424 0.762 0.0
C732 C 0.91906 0.31516 0.75738 0.0
C733 C 0.90547 0.29963 0.80255 0.0
H734 H 0.91425 0.36334 0.70346 0.0
H735 H 0.94134 0.29792 0.73611 0.0
S736 S 0.84169 0.3579 0.89122 0.0
N737 N 0.84029 0.38627 0.84136 0.0
N738 N 0.86963 0.31689 0.87735 0.0
C739 C 0.87942 0.3252 0.83031 0.0
C740 C 0.86311 0.36272 0.81051 0.0
C741 C 0.15746 0.89229 0.22361 0.0
C742 C 0.1309 0.86658 0.25043 0.0
C743 C 0.19461 0.90754 0.24375 0.0
C744 C 0.20528 0.89952 0.29257 0.0
H745 H 0.14918 0.90115 0.18711 0.0
H746 H 0.21523 0.92525 0.22075 0.0
S747 S 0.13727 0.85017 0.38425 0.0
N748 N 0.11196 0.84526 0.33252 0.0
N749 N 0.18087 0.87376 0.37024 0.0
C750 C 0.17617 0.87876 0.32148 0.0
C751 C 0.13888 0.86297 0.30077 0.0
C752 C 0.34521 0.64555 0.78382 0.0
C753 C 0.36887 0.62483 0.7492 0.0
C754 C 0.35976 0.68121 0.80681 0.0
C755 C 0.39922 0.69773 0.79631 0.0
H756 H 0.31446 0.63439 0.79167 0.0
H757 H 0.3392 0.6964 0.83221 0.0
S758 S 0.47612 0.65039 0.71265 0.0
N759 N 0.43532 0.61974 0.70871 0.0
N760 N 0.46339 0.68742 0.75123 0.0
C761 C 0.42425 0.67585 0.76297 0.0
C762 C 0.40903 0.63919 0.73964 0.0
C763 C 0.85854 0.35269 0.28658 0.0
C764 C 0.87001 0.36704 0.24052 0.0
C765 C 0.82359 0.36773 0.3106 0.0
C766 C 0.79883 0.39904 0.29028 0.0
H767 H 0.87752 0.32976 0.30461 0.0
H768 H 0.81619 0.35471 0.3458 0.0
S769 S 0.82301 0.45634 0.17667 0.0
N770 N 0.85962 0.42072 0.18011 0.0
N771 N 0.79261 0.44889 0.22415 0.0
C772 C 0.81186 0.41631 0.24562 0.0
C773 C 0.84786 0.40059 0.2211 0.0
C774 C 0.14038 0.8126 0.80141 0.0
C775 C 0.10095 0.79629 0.79052 0.0
C776 C 0.15531 0.84808 0.77828 0.0
C777 C 0.13204 0.86865 0.74311 0.0
H778 H 0.16054 0.79744 0.8273 0.0
H779 H 0.18602 0.8592 0.78648 0.0
S780 S 0.02519 0.84322 0.70494 0.0
N781 N 0.03734 0.80644 0.74417 0.0
N782 N 0.06614 0.87368 0.70135 0.0
C783 C 0.092 0.85433 0.73294 0.0
C784 C 0.0764 0.81793 0.75642 0.0
C785 C 0.64631 0.10001 0.22797 0.0
C786 C 0.62225 0.12975 0.25239 0.0
C787 C 0.68277 0.08361 0.24905 0.0
C788 C 0.69515 0.09504 0.29629 0.0
H789 H 0.63706 0.08956 0.19233 0.0
H790 H 0.70192 0.063 0.2277 0.0
S791 S 0.63189 0.15518 0.3838 0.0
N792 N 0.6063 0.15844 0.33206 0.0
N793 N 0.67343 0.1275 0.3716 0.0
C794 C 0.66769 0.11946 0.32356 0.0
C795 C 0.63132 0.13642 0.30193 0.0
C796 C 0.36462 0.81391 0.21396 0.0
C797 C 0.40372 0.79712 0.22555 0.0
C798 C 0.35024 0.85033 0.23562 0.0
C799 C 0.37375 0.87143 0.27015 0.0
H800 H 0.34428 0.79827 0.18877 0.0
H801 H 0.31981 0.86189 0.22665 0.0
S802 S 0.4807 0.84578 0.30806 0.0
N803 N 0.4678 0.80795 0.27066 0.0
N804 N 0.44011 0.87683 0.31085 0.0
C805 C 0.41374 0.85688 0.28043 0.0
C806 C 0.42877 0.81956 0.25836 0.0
C807 C 0.68354 0.41544 0.77019 0.0
C808 C 0.69893 0.402 0.72491 0.0
C809 C 0.64601 0.39981 0.78916 0.0
C810 C 0.62331 0.36936 0.76435 0.0
H811 H 0.70119 0.43706 0.79191 0.0
H812 H 0.63496 0.41128 0.82364 0.0
S813 S 0.63925 0.3414 0.63459 0.0
N814 N 0.68099 0.36791 0.64926 0.0
N815 N 0.61071 0.3399 0.6843 0.0
C816 C 0.63479 0.36155 0.71574 0.0
C817 C 0.67281 0.37709 0.69648 0.0
C818 C 0.0987 0.64992 0.28672 0.0
C819 C 0.12877 0.62596 0.26286 0.0
C820 C 0.08263 0.68629 0.26536 0.0
C821 C 0.09504 0.69886 0.21856 0.0
H822 H 0.08778 0.6407 0.32217 0.0
H823 H 0.06163 0.70532 0.28631 0.0
S824 S 0.15404 0.63451 0.1313 0.0
N825 N 0.15669 0.60886 0.18309 0.0
N826 N 0.12753 0.67682 0.14344 0.0
C827 C 0.11934 0.67124 0.19146 0.0
C828 C 0.13551 0.63456 0.2132 0.0
C829 C 0.85332 0.09747 0.7871 0.0
C830 C 0.87564 0.12862 0.7629 0.0
C831 C 0.81645 0.081 0.76727 0.0
C832 C 0.80158 0.0942 0.72167 0.0
H833 H 0.86421 0.08602 0.82168 0.0
H834 H 0.79886 0.059 0.78854 0.0
S835 S 0.86071 0.15746 0.63318 0.0
N836 N 0.88853 0.15912 0.68343 0.0
N837 N 0.81969 0.12944 0.64668 0.0
C838 C 0.8275 0.11993 0.69395 0.0
C839 C 0.8647 0.13641 0.71413 0.0
C840 C 0.50778 0.27733 0.05163 0.0
C841 C 0.50682 0.23406 0.05617 0.0
C842 C 0.50712 0.29633 1.0057 0.0
C843 C 0.50522 0.27272 0.9628 0.0
H844 H 0.51358 0.29635 0.0833 0.0
H845 H 0.5124 0.32936 1.00363 0.0
S846 S 0.49619 0.15877 0.95558 0.0
N847 N 0.49881 0.16852 0.01441 0.0
N848 N 0.49769 0.20422 0.92816 0.0
C849 C 0.49975 0.22983 0.96719 0.0
C850 C 0.50065 0.21046 0.01393 0.0
C851 C 0.26837 0.51003 0.46896 0.0
C852 C 0.22498 0.51198 0.46579 0.0
C853 C 0.2884 0.50985 0.51428 0.0
C854 C 0.26566 0.511 0.55784 0.0
H855 H 0.28701 0.51327 0.43645 0.0
H856 H 0.32179 0.5129 0.51519 0.0
S857 S 0.15144 0.51086 0.56897 0.0
N858 N 0.15995 0.51067 0.50979 0.0
N859 N 0.19757 0.50982 0.59491 0.0
C860 C 0.22234 0.50858 0.55505 0.0
C861 C 0.20196 0.50928 0.50895 0.0
C862 C 0.99752 0.28392 0.01218 0.0
C863 C 0.9925 0.26117 0.05534 0.0
C864 C 0.99897 0.26399 0.96685 0.0
C865 C 0.99505 0.22079 0.96341 0.0
H866 H 0.99603 0.31737 0.01299 0.0
H867 H 0.9981 0.28279 0.93425 0.0
S868 S 0.98815 0.14723 0.06632 0.0
N869 N 0.98908 0.19324 0.09233 0.0
N870 N 0.9921 0.15578 1.00733 0.0
C871 C 0.99483 0.19767 1.00665 0.0
C872 C 0.99343 0.21791 0.05268 0.0
C873 C 0.22931 0.98823 0.46303 0.0
C874 C 0.27274 0.98918 0.46002 0.0
C875 C 0.20932 0.98605 0.50827 0.0
C876 C 0.23212 0.98558 0.55182 0.0
H877 H 0.21098 0.98408 0.43041 0.0
H878 H 0.17621 0.98075 0.50901 0.0
S879 S 0.34597 0.99366 0.56343 0.0
N880 N 0.3375 0.99425 0.50424 0.0
N881 N 0.29987 0.99106 0.58923 0.0
C882 C 0.27511 0.99126 0.54932 0.0
C883 C 0.29548 0.99287 0.50331 0.0
C884 C 0.49333 0.78697 1.00958 0.0
C885 C 0.49174 0.76375 0.96647 0.0
C886 C 0.49435 0.7674 0.05511 0.0
C887 C 0.49346 0.72406 0.0588 0.0
H888 H 0.48953 0.82022 1.00835 0.0
H889 H 0.49089 0.78622 0.08742 0.0
S890 S 0.49607 0.64972 0.9566 0.0
N891 N 0.49481 0.69557 0.93009 0.0
N892 N 0.49686 0.65876 0.01566 0.0
C893 C 0.4966 0.70075 0.01595 0.0
C894 C 0.4957 0.72066 0.96965 0.0
C895 C 0.79818 0.48858 0.51941 0.0
C896 C 0.77441 0.49068 0.56218 0.0
C897 C 0.77925 0.48697 0.47352 0.0
C898 C 0.73594 0.48727 0.46898 0.0
H899 H 0.83131 0.48372 0.52166 0.0
H900 H 0.79841 0.48097 0.442 0.0
S901 S 0.66021 0.49838 0.56907 0.0
N902 N 0.70568 0.49786 0.5966 0.0
N903 N 0.6701 0.49507 0.51032 0.0
C904 C 0.71212 0.49383 0.51095 0.0
C905 C 0.7314 0.49563 0.55766 0.0
C906 C 0.00862 0.79938 0.01089 0.0
C907 C 0.00525 0.77602 0.05385 0.0
C908 C 0.00846 0.78019 0.96519 0.0
C909 C 0.00491 0.73706 0.96103 0.0
H910 H 0.01593 0.83201 0.01275 0.0
H911 H 0.01589 0.79865 0.93349 0.0
S912 S 0.98831 0.66304 0.06185 0.0
N913 N 0.99283 0.70838 0.08898 0.0
N914 N 0.99187 0.67236 1.00297 0.0
C915 C 0.99655 0.71409 1.00322 0.0
C916 C 0.9968 0.73362 0.04979 0.0
C917 C 0.77092 0.00706 0.55399 0.0
C918 C 0.72753 0.00707 0.55794 0.0
C919 C 0.79028 0.008 0.50832 0.0
C920 C 0.76683 0.00848 0.46527 0.0
H921 H 0.78984 0.01122 0.58614 0.0
H922 H 0.82347 0.01262 0.50682 0.0
S923 S 0.65266 0.00269 0.45618 0.0
N924 N 0.66201 0.00259 0.51519 0.0
N925 N 0.69841 0.00412 0.4294 0.0
C926 C 0.72376 0.00388 0.4688 0.0
C927 C 0.70405 0.00325 0.51525 0.0
loop_
_geom_bond_atom_site_label_1
_geom_bond_atom_site_label_2
_geom_bond_distance
_geom_bond_site_symmetry_2
_ccdc_geom_bond_type
Mn0 O5 2.095 . S
Mn0 O15 2.162 . S
Mn0 O16 2.297 . S
Mn0 O24 2.385 . S
Mn0 O25 2.209 . S
Mn0 O26 2.094 . S
Mn1 O6 2.121 . S
Mn1 N8 2.257 . S
Mn1 N17 2.282 . S
Mn1 O25 2.215 . S
Mn1 O27 2.117 . S
C2 O24 1.234 . S
C2 O25 1.283 . S
C3 O15 1.281 . S
C3 O16 1.236 . S
C4 O26 1.240 . S
C4 O27 1.264 . S
O5 Mn0 2.095 . S
O5 C14 1.250 . S
O6 Mn1 2.121 . S
O6 C14 1.258 . S
C7 N8 1.326 . S
C7 C11 1.460 . S
C7 H13 0.929 . S
N8 Mn1 2.257 . S
N8 C7 1.326 . S
N8 C12 1.362 . S
C9 C10 1.258 . S
C9 C12 1.431 . S
C9 C29 1.449 . S
C10 C9 1.258 . S
C10 C11 1.477 . S
C10 H30 0.931 . S
C11 C7 1.460 . S
C11 C10 1.477 . S
C11 H31 0.930 . S
C12 N8 1.362 . S
C12 C9 1.431 . S
C12 C22 1.476 . S
H13 C7 0.929 . S
C14 O5 1.250 . S
C14 O6 1.258 . S
O15 Mn0 2.162 . S
O15 C3 1.281 . S
O16 Mn0 2.297 . S
O16 C3 1.236 . S
N17 Mn1 2.282 . S
N17 C18 1.328 . S
N17 C22 1.318 . S
C18 N17 1.328 . S
C18 C19 1.457 . S
C18 H23 0.929 . S
C19 C18 1.457 . S
C19 C20 1.291 . S
C19 H32 0.931 . S
C20 C19 1.291 . S
C20 C21 1.373 . S
C20 H33 0.929 . S
C21 C20 1.373 . S
C21 C22 1.396 . S
C21 C28 1.403 . S
C22 C12 1.476 . S
C22 N17 1.318 . S
C22 C21 1.396 . S
H23 C18 0.929 . S
O24 Mn0 2.385 . S
O24 C2 1.234 . S
O25 Mn0 2.209 . S
O25 Mn1 2.215 . S
O25 C2 1.283 . S
O26 Mn0 2.094 . S
O26 C4 1.240 . S
O27 Mn1 2.117 . S
O27 C4 1.264 . S
C28 C21 1.403 . S
C28 C29 1.399 . S
C28 H34 0.929 . S
C29 C9 1.449 . S
C29 C28 1.399 . S
C29 H35 0.930 . S
H30 C10 0.931 . S
H31 C11 0.930 . S
H32 C19 0.931 . S
H33 C20 0.929 . S
H34 C28 0.929 . S
H35 C29 0.930 . S
Mn36 O41 2.095 . S
Mn36 O51 2.162 . S
Mn36 O52 2.297 . S
Mn36 O60 2.385 . S
Mn36 O61 2.209 . S
Mn36 O62 2.094 . S
Mn37 O42 2.121 . S
Mn37 N44 2.257 . S
Mn37 N53 2.282 . S
Mn37 O61 2.215 . S
Mn37 O63 2.117 . S
C38 O60 1.234 . S
C38 O61 1.283 . S
C39 O51 1.281 . S
C39 O52 1.236 . S
C40 O62 1.240 . S
C40 O63 1.264 . S
O41 Mn36 2.095 . S
O41 C50 1.250 . S
O42 Mn37 2.121 . S
O42 C50 1.258 . S
C43 N44 1.326 . S
C43 C47 1.460 . S
C43 H49 0.929 . S
N44 Mn37 2.257 . S
N44 C43 1.326 . S
N44 C48 1.362 . S
C45 C46 1.258 . S
C45 C48 1.431 . S
C45 C65 1.449 . S
C46 C45 1.258 . S
C46 C47 1.477 . S
C46 H66 0.931 . S
C47 C43 1.460 . S
C47 C46 1.477 . S
C47 H67 0.930 . S
C48 N44 1.362 . S
C48 C45 1.431 . S
C48 C58 1.476 . S
H49 C43 0.929 . S
C50 O41 1.250 . S
C50 O42 1.258 . S
O51 Mn36 2.162 . S
O51 C39 1.281 . S
O52 Mn36 2.297 . S
O52 C39 1.236 . S
N53 Mn37 2.282 . S
N53 C54 1.328 . S
N53 C58 1.318 . S
C54 N53 1.328 . S
C54 C55 1.457 . S
C54 H59 0.929 . S
C55 C54 1.457 . S
C55 C56 1.291 . S
C55 H68 0.931 . S
C56 C55 1.291 . S
C56 C57 1.373 . S
C56 H69 0.929 . S
C57 C56 1.373 . S
C57 C58 1.396 . S
C57 C64 1.403 . S
C58 C48 1.476 . S
C58 N53 1.318 . S
C58 C57 1.396 . S
H59 C54 0.929 . S
O60 Mn36 2.385 . S
O60 C38 1.234 . S
O61 Mn36 2.209 . S
O61 Mn37 2.215 . S
O61 C38 1.283 . S
O62 Mn36 2.094 . S
O62 C40 1.240 . S
O63 Mn37 2.117 . S
O63 C40 1.264 . S
C64 C57 1.403 . S
C64 C65 1.399 . S
C64 H70 0.929 . S
C65 C45 1.449 . S
C65 C64 1.399 . S
C65 H71 0.930 . S
H66 C46 0.931 . S
H67 C47 0.930 . S
H68 C55 0.931 . S
H69 C56 0.929 . S
H70 C64 0.929 . S
H71 C65 0.930 . S
Mn72 O77 2.097 . S
Mn72 O87 2.162 1_655 S
Mn72 O88 2.297 1_655 S
Mn72 O96 2.385 . S
Mn72 O97 2.209 . S
Mn72 O98 2.094 . S
Mn73 O78 2.121 . S
Mn73 N80 2.257 . S
Mn73 N89 2.282 . S
Mn73 O97 2.215 . S
Mn73 O99 2.117 . S
C74 O96 1.234 . S
C74 O97 1.283 . S
C75 O87 1.281 . S
C75 O88 1.236 . S
C76 O98 1.240 . S
C76 O99 1.264 . S
O77 Mn72 2.097 . S
O77 C86 1.254 . S
O78 Mn73 2.121 . S
O78 C86 1.258 . S
C79 N80 1.326 . S
C79 C83 1.460 . S
C79 H85 0.929 . S
N80 Mn73 2.257 . S
N80 C79 1.326 . S
N80 C84 1.362 . S
C81 C82 1.258 . S
C81 C84 1.431 . S
C81 C101 1.449 . S
C82 C81 1.258 . S
C82 C83 1.477 . S
C82 H102 0.931 . S
C83 C79 1.460 . S
C83 C82 1.477 . S
C83 H103 0.930 . S
C84 N80 1.362 . S
C84 C81 1.431 . S
C84 C94 1.476 . S
H85 C79 0.929 . S
C86 O77 1.254 . S
C86 O78 1.258 . S
O87 Mn72 2.162 1_455 S
O87 C75 1.281 . S
O88 Mn72 2.297 1_455 S
O88 C75 1.236 . S
N89 Mn73 2.282 . S
N89 C90 1.328 . S
N89 C94 1.318 . S
C90 N89 1.328 . S
C90 C91 1.457 . S
C90 H95 0.929 . S
C91 C90 1.457 . S
C91 C92 1.291 . S
C91 H104 0.931 . S
C92 C91 1.291 . S
C92 C93 1.373 . S
C92 H105 0.929 . S
C93 C92 1.373 . S
C93 C94 1.396 . S
C93 C100 1.403 . S
C94 C84 1.476 . S
C94 N89 1.318 . S
C94 C93 1.396 . S
H95 C90 0.929 . S
O96 Mn72 2.385 . S
O96 C74 1.234 . S
O97 Mn72 2.209 . S
O97 Mn73 2.215 . S
O97 C74 1.283 . S
O98 Mn72 2.094 . S
O98 C76 1.240 . S
O99 Mn73 2.117 . S
O99 C76 1.264 . S
C100 C93 1.403 . S
C100 C101 1.399 . S
C100 H106 0.929 . S
C101 C81 1.449 . S
C101 C100 1.399 . S
C101 H107 0.930 . S
H102 C82 0.931 . S
H103 C83 0.930 . S
H104 C91 0.931 . S
H105 C92 0.929 . S
H106 C100 0.929 . S
H107 C101 0.930 . S
Mn108 O113 2.097 . S
Mn108 O123 2.162 1_565 S
Mn108 O124 2.297 1_565 S
Mn108 O132 2.385 . S
Mn108 O133 2.209 . S
Mn108 O134 2.094 . S
Mn109 O114 2.121 . S
Mn109 N116 2.257 . S
Mn109 N125 2.282 . S
Mn109 O133 2.215 . S
Mn109 O135 2.117 . S
C110 O132 1.234 . S
C110 O133 1.283 . S
C111 O123 1.281 . S
C111 O124 1.236 . S
C112 O134 1.240 . S
C112 O135 1.264 . S
O113 Mn108 2.097 . S
O113 C122 1.254 . S
O114 Mn109 2.121 . S
O114 C122 1.258 . S
C115 N116 1.326 . S
C115 C119 1.460 . S
C115 H121 0.929 . S
N116 Mn109 2.257 . S
N116 C115 1.326 . S
N116 C120 1.362 . S
C117 C118 1.258 . S
C117 C120 1.431 . S
C117 C137 1.449 . S
C118 C117 1.258 . S
C118 C119 1.477 . S
C118 H138 0.931 . S
C119 C115 1.460 . S
C119 C118 1.477 . S
C119 H139 0.930 . S
C120 N116 1.362 . S
C120 C117 1.431 . S
C120 C130 1.476 . S
H121 C115 0.929 . S
C122 O113 1.254 . S
C122 O114 1.258 . S
O123 Mn108 2.162 1_545 S
O123 C111 1.281 . S
O124 Mn108 2.297 1_545 S
O124 C111 1.236 . S
N125 Mn109 2.282 . S
N125 C126 1.328 . S
N125 C130 1.318 . S
C126 N125 1.328 . S
C126 C127 1.457 . S
C126 H131 0.929 . S
C127 C126 1.457 . S
C127 C128 1.291 . S
C127 H140 0.931 . S
C128 C127 1.291 . S
C128 C129 1.373 . S
C128 H141 0.929 . S
C129 C128 1.373 . S
C129 C130 1.396 . S
C129 C136 1.403 . S
C130 C120 1.476 . S
C130 N125 1.318 . S
C130 C129 1.396 . S
H131 C126 0.929 . S
O132 Mn108 2.385 . S
O132 C110 1.234 . S
O133 Mn108 2.209 . S
O133 Mn109 2.215 . S
O133 C110 1.283 . S
O134 Mn108 2.094 . S
O134 C112 1.240 . S
O135 Mn109 2.117 . S
O135 C112 1.264 . S
C136 C129 1.403 . S
C136 C137 1.399 . S
C136 H142 0.929 . S
C137 C117 1.449 . S
C137 C136 1.399 . S
C137 H143 0.930 . S
H138 C118 0.931 . S
H139 C119 0.930 . S
H140 C127 0.931 . S
H141 C128 0.929 . S
H142 C136 0.929 . S
H143 C137 0.930 . S
Mn144 O149 2.095 . S
Mn144 O159 2.162 . S
Mn144 O160 2.297 . S
Mn144 O168 2.385 . S
Mn144 O169 2.209 . S
Mn144 O170 2.094 . S
Mn145 O150 2.121 . S
Mn145 N152 2.257 . S
Mn145 N161 2.282 . S
Mn145 O169 2.215 . S
Mn145 O171 2.117 . S
C146 O168 1.234 . S
C146 O169 1.283 . S
C147 O159 1.281 . S
C147 O160 1.236 . S
C148 O170 1.240 . S
C148 O171 1.264 . S
O149 Mn144 2.095 . S
O149 C158 1.250 . S
O150 Mn145 2.121 . S
O150 C158 1.258 . S
C151 N152 1.326 . S
C151 C155 1.460 . S
C151 H157 0.929 . S
N152 Mn145 2.257 . S
N152 C151 1.326 . S
N152 C156 1.362 . S
C153 C154 1.258 . S
C153 C156 1.431 . S
C153 C173 1.449 . S
C154 C153 1.258 . S
C154 C155 1.477 . S
C154 H174 0.931 . S
C155 C151 1.460 . S
C155 C154 1.477 . S
C155 H175 0.930 . S
C156 N152 1.362 . S
C156 C153 1.431 . S
C156 C166 1.476 . S
H157 C151 0.929 . S
C158 O149 1.250 . S
C158 O150 1.258 . S
O159 Mn144 2.162 . S
O159 C147 1.281 . S
O160 Mn144 2.297 . S
O160 C147 1.236 . S
N161 Mn145 2.282 . S
N161 C162 1.328 . S
N161 C166 1.318 . S
C162 N161 1.328 . S
C162 C163 1.457 . S
C162 H167 0.929 . S
C163 C162 1.457 . S
C163 C164 1.291 . S
C163 H176 0.931 . S
C164 C163 1.291 . S
C164 C165 1.373 . S
C164 H177 0.929 . S
C165 C164 1.373 . S
C165 C166 1.396 . S
C165 C172 1.403 . S
C166 C156 1.476 . S
C166 N161 1.318 . S
C166 C165 1.396 . S
H167 C162 0.929 . S
O168 Mn144 2.385 . S
O168 C146 1.234 . S
O169 Mn144 2.209 . S
O169 Mn145 2.215 . S
O169 C146 1.283 . S
O170 Mn144 2.094 . S
O170 C148 1.240 . S
O171 Mn145 2.117 . S
O171 C148 1.264 . S
C172 C165 1.403 . S
C172 C173 1.399 . S
C172 H178 0.929 . S
C173 C153 1.449 . S
C173 C172 1.399 . S
C173 H179 0.930 . S
H174 C154 0.931 . S
H175 C155 0.930 . S
H176 C163 0.931 . S
H177 C164 0.929 . S
H178 C172 0.929 . S
H179 C173 0.930 . S
Mn180 O185 2.095 . S
Mn180 O195 2.162 . S
Mn180 O196 2.297 . S
Mn180 O204 2.385 . S
Mn180 O205 2.209 . S
Mn180 O206 2.094 . S
Mn181 O186 2.121 . S
Mn181 N188 2.257 . S
Mn181 N197 2.282 . S
Mn181 O205 2.215 . S
Mn181 O207 2.117 . S
C182 O204 1.234 . S
C182 O205 1.283 . S
C183 O195 1.281 . S
C183 O196 1.236 . S
C184 O206 1.240 . S
C184 O207 1.264 . S
O185 Mn180 2.095 . S
O185 C194 1.250 . S
O186 Mn181 2.121 . S
O186 C194 1.258 . S
C187 N188 1.326 . S
C187 C191 1.460 . S
C187 H193 0.929 . S
N188 Mn181 2.257 . S
N188 C187 1.326 . S
N188 C192 1.362 . S
C189 C190 1.258 . S
C189 C192 1.431 . S
C189 C209 1.449 . S
C190 C189 1.258 . S
C190 C191 1.477 . S
C190 H210 0.931 . S
C191 C187 1.460 . S
C191 C190 1.477 . S
C191 H211 0.930 . S
C192 N188 1.362 . S
C192 C189 1.431 . S
C192 C202 1.476 . S
H193 C187 0.929 . S
C194 O185 1.250 . S
C194 O186 1.258 . S
O195 Mn180 2.162 . S
O195 C183 1.281 . S
O196 Mn180 2.297 . S
O196 C183 1.236 . S
N197 Mn181 2.282 . S
N197 C198 1.328 . S
N197 C202 1.318 . S
C198 N197 1.328 . S
C198 C199 1.457 . S
C198 H203 0.929 . S
C199 C198 1.457 . S
C199 C200 1.291 . S
C199 H212 0.931 . S
C200 C199 1.291 . S
C200 C201 1.373 . S
C200 H213 0.929 . S
C201 C200 1.373 . S
C201 C202 1.396 . S
C201 C208 1.403 . S
C202 C192 1.476 . S
C202 N197 1.318 . S
C202 C201 1.396 . S
H203 C198 0.929 . S
O204 Mn180 2.385 . S
O204 C182 1.234 . S
O205 Mn180 2.209 . S
O205 Mn181 2.215 . S
O205 C182 1.283 . S
O206 Mn180 2.094 . S
O206 C184 1.240 . S
O207 Mn181 2.117 . S
O207 C184 1.264 . S
C208 C201 1.403 . S
C208 C209 1.399 . S
C208 H214 0.929 . S
C209 C189 1.449 . S
C209 C208 1.399 . S
C209 H215 0.930 . S
H210 C190 0.931 . S
H211 C191 0.930 . S
H212 C199 0.931 . S
H213 C200 0.929 . S
H214 C208 0.929 . S
H215 C209 0.930 . S
Mn216 O221 2.097 . S
Mn216 O231 2.162 1_655 S
Mn216 O232 2.297 1_655 S
Mn216 O240 2.385 . S
Mn216 O241 2.209 . S
Mn216 O242 2.094 . S
Mn217 O222 2.121 . S
Mn217 N224 2.257 . S
Mn217 N233 2.282 . S
Mn217 O241 2.215 . S
Mn217 O243 2.117 . S
C218 O240 1.234 . S
C218 O241 1.283 . S
C219 O231 1.281 . S
C219 O232 1.236 . S
C220 O242 1.240 . S
C220 O243 1.264 . S
O221 Mn216 2.097 . S
O221 C230 1.254 . S
O222 Mn217 2.121 . S
O222 C230 1.258 . S
C223 N224 1.326 . S
C223 C227 1.460 . S
C223 H229 0.929 . S
N224 Mn217 2.257 . S
N224 C223 1.326 . S
N224 C228 1.362 . S
C225 C226 1.258 . S
C225 C228 1.431 . S
C225 C245 1.449 . S
C226 C225 1.258 . S
C226 C227 1.477 . S
C226 H246 0.931 . S
C227 C223 1.460 . S
C227 C226 1.477 . S
C227 H247 0.930 . S
C228 N224 1.362 . S
C228 C225 1.431 . S
C228 C238 1.476 . S
H229 C223 0.929 . S
C230 O221 1.254 . S
C230 O222 1.258 . S
O231 Mn216 2.162 1_455 S
O231 C219 1.281 . S
O232 Mn216 2.297 1_455 S
O232 C219 1.236 . S
N233 Mn217 2.282 . S
N233 C234 1.328 . S
N233 C238 1.318 . S
C234 N233 1.328 . S
C234 C235 1.457 . S
C234 H239 0.929 . S
C235 C234 1.457 . S
C235 C236 1.291 . S
C235 H248 0.931 . S
C236 C235 1.291 . S
C236 C237 1.373 . S
C236 H249 0.929 . S
C237 C236 1.373 . S
C237 C238 1.396 . S
C237 C244 1.403 . S
C238 C228 1.476 . S
C238 N233 1.318 . S
C238 C237 1.396 . S
H239 C234 0.929 . S
O240 Mn216 2.385 . S
O240 C218 1.234 . S
O241 Mn216 2.209 . S
O241 Mn217 2.215 . S
O241 C218 1.283 . S
O242 Mn216 2.094 . S
O242 C220 1.240 . S
O243 Mn217 2.117 . S
O243 C220 1.264 . S
C244 C237 1.403 . S
C244 C245 1.399 . S
C244 H250 0.929 . S
C245 C225 1.449 . S
C245 C244 1.399 . S
C245 H251 0.930 . S
H246 C226 0.931 . S
H247 C227 0.930 . S
H248 C235 0.931 . S
H249 C236 0.929 . S
H250 C244 0.929 . S
H251 C245 0.930 . S
Mn252 O257 2.097 . S
Mn252 O267 2.162 1_565 S
Mn252 O268 2.297 1_565 S
Mn252 O276 2.385 . S
Mn252 O277 2.209 . S
Mn252 O278 2.094 . S
Mn253 O258 2.121 . S
Mn253 N260 2.257 . S
Mn253 N269 2.282 . S
Mn253 O277 2.215 . S
Mn253 O279 2.117 . S
C254 O276 1.234 . S
C254 O277 1.283 . S
C255 O267 1.281 . S
C255 O268 1.236 . S
C256 O278 1.240 . S
C256 O279 1.264 . S
O257 Mn252 2.097 . S
O257 C266 1.254 . S
O258 Mn253 2.121 . S
O258 C266 1.258 . S
C259 N260 1.326 . S
C259 C263 1.460 . S
C259 H265 0.929 . S
N260 Mn253 2.257 . S
N260 C259 1.326 . S
N260 C264 1.362 . S
C261 C262 1.258 . S
C261 C264 1.431 . S
C261 C281 1.449 . S
C262 C261 1.258 . S
C262 C263 1.477 . S
C262 H282 0.931 . S
C263 C259 1.460 . S
C263 C262 1.477 . S
C263 H283 0.930 . S
C264 N260 1.362 . S
C264 C261 1.431 . S
C264 C274 1.476 . S
H265 C259 0.929 . S
C266 O257 1.254 . S
C266 O258 1.258 . S
O267 Mn252 2.162 1_545 S
O267 C255 1.281 . S
O268 Mn252 2.297 1_545 S
O268 C255 1.236 . S
N269 Mn253 2.282 . S
N269 C270 1.328 . S
N269 C274 1.318 . S
C270 N269 1.328 . S
C270 C271 1.457 . S
C270 H275 0.929 . S
C271 C270 1.457 . S
C271 C272 1.291 . S
C271 H284 0.931 . S
C272 C271 1.291 . S
C272 C273 1.373 . S
C272 H285 0.929 . S
C273 C272 1.373 . S
C273 C274 1.396 . S
C273 C280 1.403 . S
C274 C264 1.476 . S
C274 N269 1.318 . S
C274 C273 1.396 . S
H275 C270 0.929 . S
O276 Mn252 2.385 . S
O276 C254 1.234 . S
O277 Mn252 2.209 . S
O277 Mn253 2.215 . S
O277 C254 1.283 . S
O278 Mn252 2.094 . S
O278 C256 1.240 . S
O279 Mn253 2.117 . S
O279 C256 1.264 . S
C280 C273 1.403 . S
C280 C281 1.399 . S
C280 H286 0.929 . S
C281 C261 1.449 . S
C281 C280 1.399 . S
C281 H287 0.930 . S
H282 C262 0.931 . S
H283 C263 0.930 . S
H284 C271 0.931 . S
H285 C272 0.929 . S
H286 C280 0.929 . S
H287 C281 0.930 . S
Mn288 O293 2.095 . S
Mn288 O303 2.162 . S
Mn288 O304 2.297 . S
Mn288 O312 2.385 . S
Mn288 O313 2.209 . S
Mn288 O314 2.094 . S
Mn289 O294 2.121 . S
Mn289 N296 2.257 . S
Mn289 N305 2.282 . S
Mn289 O313 2.215 . S
Mn289 O315 2.117 . S
C290 O312 1.234 . S
C290 O313 1.283 . S
C291 O303 1.281 . S
C291 O304 1.236 . S
C292 O314 1.240 . S
C292 O315 1.264 . S
O293 Mn288 2.095 . S
O293 C302 1.250 . S
O294 Mn289 2.121 . S
O294 C302 1.258 . S
C295 N296 1.326 . S
C295 C299 1.460 . S
C295 H301 0.929 . S
N296 Mn289 2.257 . S
N296 C295 1.326 . S
N296 C300 1.362 . S
C297 C298 1.258 . S
C297 C300 1.431 . S
C297 C317 1.449 . S
C298 C297 1.258 . S
C298 C299 1.477 . S
C298 H318 0.931 . S
C299 C295 1.460 . S
C299 C298 1.477 . S
C299 H319 0.930 . S
C300 N296 1.362 . S
C300 C297 1.431 . S
C300 C310 1.476 . S
H301 C295 0.929 . S
C302 O293 1.250 . S
C302 O294 1.258 . S
O303 Mn288 2.162 . S
O303 C291 1.281 . S
O304 Mn288 2.297 . S
O304 C291 1.236 . S
N305 Mn289 2.282 . S
N305 C306 1.328 . S
N305 C310 1.318 . S
C306 N305 1.328 . S
C306 C307 1.457 . S
C306 H311 0.929 . S
C307 C306 1.457 . S
C307 C308 1.291 . S
C307 H320 0.931 . S
C308 C307 1.291 . S
C308 C309 1.373 . S
C308 H321 0.929 . S
C309 C308 1.373 . S
C309 C310 1.396 . S
C309 C316 1.403 . S
C310 C300 1.476 . S
C310 N305 1.318 . S
C310 C309 1.396 . S
H311 C306 0.929 . S
O312 Mn288 2.385 . S
O312 C290 1.234 . S
O313 Mn288 2.209 . S
O313 Mn289 2.215 . S
O313 C290 1.283 . S
O314 Mn288 2.094 . S
O314 C292 1.240 . S
O315 Mn289 2.117 . S
O315 C292 1.264 . S
C316 C309 1.403 . S
C316 C317 1.399 . S
C316 H322 0.929 . S
C317 C297 1.449 . S
C317 C316 1.399 . S
C317 H323 0.930 . S
H318 C298 0.931 . S
H319 C299 0.930 . S
H320 C307 0.931 . S
H321 C308 0.929 . S
H322 C316 0.929 . S
H323 C317 0.930 . S
Mn324 O329 2.095 . S
Mn324 O339 2.162 . S
Mn324 O340 2.297 . S
Mn324 O348 2.385 . S
Mn324 O349 2.209 . S
Mn324 O350 2.094 . S
Mn325 O330 2.121 . S
Mn325 N332 2.257 . S
Mn325 N341 2.282 . S
Mn325 O349 2.215 . S
Mn325 O351 2.117 . S
C326 O348 1.234 . S
C326 O349 1.283 . S
C327 O339 1.281 . S
C327 O340 1.236 . S
C328 O350 1.240 . S
C328 O351 1.264 . S
O329 Mn324 2.095 . S
O329 C338 1.250 . S
O330 Mn325 2.121 . S
O330 C338 1.258 . S
C331 N332 1.326 . S
C331 C335 1.460 . S
C331 H337 0.929 . S
N332 Mn325 2.257 . S
N332 C331 1.326 . S
N332 C336 1.362 . S
C333 C334 1.258 . S
C333 C336 1.431 . S
C333 C353 1.449 . S
C334 C333 1.258 . S
C334 C335 1.477 . S
C334 H354 0.931 . S
C335 C331 1.460 . S
C335 C334 1.477 . S
C335 H355 0.930 . S
C336 N332 1.362 . S
C336 C333 1.431 . S
C336 C346 1.476 . S
H337 C331 0.929 . S
C338 O329 1.250 . S
C338 O330 1.258 . S
O339 Mn324 2.162 . S
O339 C327 1.281 . S
O340 Mn324 2.297 . S
O340 C327 1.236 . S
N341 Mn325 2.282 . S
N341 C342 1.328 . S
N341 C346 1.318 . S
C342 N341 1.328 . S
C342 C343 1.457 . S
C342 H347 0.929 . S
C343 C342 1.457 . S
C343 C344 1.291 . S
C343 H356 0.931 . S
C344 C343 1.291 . S
C344 C345 1.373 . S
C344 H357 0.929 . S
C345 C344 1.373 . S
C345 C346 1.396 . S
C345 C352 1.403 . S
C346 C336 1.476 . S
C346 N341 1.318 . S
C346 C345 1.396 . S
H347 C342 0.929 . S
O348 Mn324 2.385 . S
O348 C326 1.234 . S
O349 Mn324 2.209 . S
O349 Mn325 2.215 . S
O349 C326 1.283 . S
O350 Mn324 2.094 . S
O350 C328 1.240 . S
O351 Mn325 2.117 . S
O351 C328 1.264 . S
C352 C345 1.403 . S
C352 C353 1.399 . S
C352 H358 0.929 . S
C353 C333 1.449 . S
C353 C352 1.399 . S
C353 H359 0.930 . S
H354 C334 0.931 . S
H355 C335 0.930 . S
H356 C343 0.931 . S
H357 C344 0.929 . S
H358 C352 0.929 . S
H359 C353 0.930 . S
Mn360 O365 2.097 . S
Mn360 O375 2.162 1_455 S
Mn360 O376 2.297 1_455 S
Mn360 O384 2.385 . S
Mn360 O385 2.209 . S
Mn360 O386 2.094 . S
Mn361 O366 2.121 . S
Mn361 N368 2.257 . S
Mn361 N377 2.282 . S
Mn361 O385 2.215 . S
Mn361 O387 2.117 . S
C362 O384 1.234 . S
C362 O385 1.283 . S
C363 O375 1.281 . S
C363 O376 1.236 . S
C364 O386 1.240 . S
C364 O387 1.264 . S
O365 Mn360 2.097 . S
O365 C374 1.254 . S
O366 Mn361 2.121 . S
O366 C374 1.258 . S
C367 N368 1.326 . S
C367 C371 1.460 . S
C367 H373 0.929 . S
N368 Mn361 2.257 . S
N368 C367 1.326 . S
N368 C372 1.362 . S
C369 C370 1.258 . S
C369 C372 1.431 . S
C369 C389 1.449 . S
C370 C369 1.258 . S
C370 C371 1.477 . S
C370 H390 0.931 . S
C371 C367 1.460 . S
C371 C370 1.477 . S
C371 H391 0.930 . S
C372 N368 1.362 . S
C372 C369 1.431 . S
C372 C382 1.476 . S
H373 C367 0.929 . S
C374 O365 1.254 . S
C374 O366 1.258 . S
O375 Mn360 2.162 1_655 S
O375 C363 1.281 . S
O376 Mn360 2.297 1_655 S
O376 C363 1.236 . S
N377 Mn361 2.282 . S
N377 C378 1.328 . S
N377 C382 1.318 . S
C378 N377 1.328 . S
C378 C379 1.457 . S
C378 H383 0.929 . S
C379 C378 1.457 . S
C379 C380 1.291 . S
C379 H392 0.931 . S
C380 C379 1.291 . S
C380 C381 1.373 . S
C380 H393 0.929 . S
C381 C380 1.373 . S
C381 C382 1.396 . S
C381 C388 1.403 . S
C382 C372 1.476 . S
C382 N377 1.318 . S
C382 C381 1.396 . S
H383 C378 0.929 . S
O384 Mn360 2.385 . S
O384 C362 1.234 . S
O385 Mn360 2.209 . S
O385 Mn361 2.215 . S
O385 C362 1.283 . S
O386 Mn360 2.094 . S
O386 C364 1.240 . S
O387 Mn361 2.117 . S
O387 C364 1.264 . S
C388 C381 1.403 . S
C388 C389 1.399 . S
C388 H394 0.929 . S
C389 C369 1.449 . S
C389 C388 1.399 . S
C389 H395 0.930 . S
H390 C370 0.931 . S
H391 C371 0.930 . S
H392 C379 0.931 . S
H393 C380 0.929 . S
H394 C388 0.929 . S
H395 C389 0.930 . S
Mn396 O401 2.097 . S
Mn396 O411 2.162 1_545 S
Mn396 O412 2.297 1_545 S
Mn396 O420 2.385 . S
Mn396 O421 2.209 . S
Mn396 O422 2.094 . S
Mn397 O402 2.121 . S
Mn397 N404 2.257 . S
Mn397 N413 2.282 . S
Mn397 O421 2.215 . S
Mn397 O423 2.117 . S
C398 O420 1.234 . S
C398 O421 1.283 . S
C399 O411 1.281 . S
C399 O412 1.236 . S
C400 O422 1.240 . S
C400 O423 1.264 . S
O401 Mn396 2.097 . S
O401 C410 1.254 . S
O402 Mn397 2.121 . S
O402 C410 1.258 . S
C403 N404 1.326 . S
C403 C407 1.460 . S
C403 H409 0.929 . S
N404 Mn397 2.257 . S
N404 C403 1.326 . S
N404 C408 1.362 . S
C405 C406 1.258 . S
C405 C408 1.431 . S
C405 C425 1.449 . S
C406 C405 1.258 . S
C406 C407 1.477 . S
C406 H426 0.931 . S
C407 C403 1.460 . S
C407 C406 1.477 . S
C407 H427 0.930 . S
C408 N404 1.362 . S
C408 C405 1.431 . S
C408 C418 1.476 . S
H409 C403 0.929 . S
C410 O401 1.254 . S
C410 O402 1.258 . S
O411 Mn396 2.162 1_565 S
O411 C399 1.281 . S
O412 Mn396 2.297 1_565 S
O412 C399 1.236 . S
N413 Mn397 2.282 . S
N413 C414 1.328 . S
N413 C418 1.318 . S
C414 N413 1.328 . S
C414 C415 1.457 . S
C414 H419 0.929 . S
C415 C414 1.457 . S
C415 C416 1.291 . S
C415 H428 0.931 . S
C416 C415 1.291 . S
C416 C417 1.373 . S
C416 H429 0.929 . S
C417 C416 1.373 . S
C417 C418 1.396 . S
C417 C424 1.403 . S
C418 C408 1.476 . S
C418 N413 1.318 . S
C418 C417 1.396 . S
H419 C414 0.929 . S
O420 Mn396 2.385 . S
O420 C398 1.234 . S
O421 Mn396 2.209 . S
O421 Mn397 2.215 . S
O421 C398 1.283 . S
O422 Mn396 2.094 . S
O422 C400 1.240 . S
O423 Mn397 2.117 . S
O423 C400 1.264 . S
C424 C417 1.403 . S
C424 C425 1.399 . S
C424 H430 0.929 . S
C425 C405 1.449 . S
C425 C424 1.399 . S
C425 H431 0.930 . S
H426 C406 0.931 . S
H427 C407 0.930 . S
H428 C415 0.931 . S
H429 C416 0.929 . S
H430 C424 0.929 . S
H431 C425 0.930 . S
Mn432 O437 2.095 . S
Mn432 O447 2.162 . S
Mn432 O448 2.297 . S
Mn432 O456 2.385 . S
Mn432 O457 2.209 . S
Mn432 O458 2.094 . S
Mn433 O438 2.121 . S
Mn433 N440 2.257 . S
Mn433 N449 2.282 . S
Mn433 O457 2.215 . S
Mn433 O459 2.117 . S
C434 O456 1.234 . S
C434 O457 1.283 . S
C435 O447 1.281 . S
C435 O448 1.236 . S
C436 O458 1.240 . S
C436 O459 1.264 . S
O437 Mn432 2.095 . S
O437 C446 1.250 . S
O438 Mn433 2.121 . S
O438 C446 1.258 . S
C439 N440 1.326 . S
C439 C443 1.460 . S
C439 H445 0.929 . S
N440 Mn433 2.257 . S
N440 C439 1.326 . S
N440 C444 1.362 . S
C441 C442 1.258 . S
C441 C444 1.431 . S
C441 C461 1.449 . S
C442 C441 1.258 . S
C442 C443 1.477 . S
C442 H462 0.931 . S
C443 C439 1.460 . S
C443 C442 1.477 . S
C443 H463 0.930 . S
C444 N440 1.362 . S
C444 C441 1.431 . S
C444 C454 1.476 . S
H445 C439 0.929 . S
C446 O437 1.250 . S
C446 O438 1.258 . S
O447 Mn432 2.162 . S
O447 C435 1.281 . S
O448 Mn432 2.297 . S
O448 C435 1.236 . S
N449 Mn433 2.282 . S
N449 C450 1.328 . S
N449 C454 1.318 . S
C450 N449 1.328 . S
C450 C451 1.457 . S
C450 H455 0.929 . S
C451 C450 1.457 . S
C451 C452 1.291 . S
C451 H464 0.931 . S
C452 C451 1.291 . S
C452 C453 1.373 . S
C452 H465 0.929 . S
C453 C452 1.373 . S
C453 C454 1.396 . S
C453 C460 1.403 . S
C454 C444 1.476 . S
C454 N449 1.318 . S
C454 C453 1.396 . S
H455 C450 0.929 . S
O456 Mn432 2.385 . S
O456 C434 1.234 . S
O457 Mn432 2.209 . S
O457 Mn433 2.215 . S
O457 C434 1.283 . S
O458 Mn432 2.094 . S
O458 C436 1.240 . S
O459 Mn433 2.117 . S
O459 C436 1.264 . S
C460 C453 1.403 . S
C460 C461 1.399 . S
C460 H466 0.929 . S
C461 C441 1.449 . S
C461 C460 1.399 . S
C461 H467 0.930 . S
H462 C442 0.931 . S
H463 C443 0.930 . S
H464 C451 0.931 . S
H465 C452 0.929 . S
H466 C460 0.929 . S
H467 C461 0.930 . S
Mn468 O473 2.095 . S
Mn468 O483 2.162 . S
Mn468 O484 2.297 . S
Mn468 O492 2.385 . S
Mn468 O493 2.209 . S
Mn468 O494 2.094 . S
Mn469 O474 2.121 . S
Mn469 N476 2.257 . S
Mn469 N485 2.282 . S
Mn469 O493 2.215 . S
Mn469 O495 2.117 . S
C470 O492 1.234 . S
C470 O493 1.283 . S
C471 O483 1.281 . S
C471 O484 1.236 . S
C472 O494 1.240 . S
C472 O495 1.264 . S
O473 Mn468 2.095 . S
O473 C482 1.250 . S
O474 Mn469 2.121 . S
O474 C482 1.258 . S
C475 N476 1.326 . S
C475 C479 1.460 . S
C475 H481 0.929 . S
N476 Mn469 2.257 . S
N476 C475 1.326 . S
N476 C480 1.362 . S
C477 C478 1.258 . S
C477 C480 1.431 . S
C477 C497 1.449 . S
C478 C477 1.258 . S
C478 C479 1.477 . S
C478 H498 0.931 . S
C479 C475 1.460 . S
C479 C478 1.477 . S
C479 H499 0.930 . S
C480 N476 1.362 . S
C480 C477 1.431 . S
C480 C490 1.476 . S
H481 C475 0.929 . S
C482 O473 1.250 . S
C482 O474 1.258 . S
O483 Mn468 2.162 . S
O483 C471 1.281 . S
O484 Mn468 2.297 . S
O484 C471 1.236 . S
N485 Mn469 2.282 . S
N485 C486 1.328 . S
N485 C490 1.318 . S
C486 N485 1.328 . S
C486 C487 1.457 . S
C486 H491 0.929 . S
C487 C486 1.457 . S
C487 C488 1.291 . S
C487 H500 0.931 . S
C488 C487 1.291 . S
C488 C489 1.373 . S
C488 H501 0.929 . S
C489 C488 1.373 . S
C489 C490 1.396 . S
C489 C496 1.403 . S
C490 C480 1.476 . S
C490 N485 1.318 . S
C490 C489 1.396 . S
H491 C486 0.929 . S
O492 Mn468 2.385 . S
O492 C470 1.234 . S
O493 Mn468 2.209 . S
O493 Mn469 2.215 . S
O493 C470 1.283 . S
O494 Mn468 2.094 . S
O494 C472 1.240 . S
O495 Mn469 2.117 . S
O495 C472 1.264 . S
C496 C489 1.403 . S
C496 C497 1.399 . S
C496 H502 0.929 . S
C497 C477 1.449 . S
C497 C496 1.399 . S
C497 H503 0.930 . S
H498 C478 0.931 . S
H499 C479 0.930 . S
H500 C487 0.931 . S
H501 C488 0.929 . S
H502 C496 0.929 . S
H503 C497 0.930 . S
Mn504 O509 2.097 . S
Mn504 O519 2.162 1_455 S
Mn504 O520 2.297 1_455 S
Mn504 O528 2.385 . S
Mn504 O529 2.209 . S
Mn504 O530 2.094 . S
Mn505 O510 2.121 . S
Mn505 N512 2.257 . S
Mn505 N521 2.282 . S
Mn505 O529 2.215 . S
Mn505 O531 2.117 . S
C506 O528 1.234 . S
C506 O529 1.283 . S
C507 O519 1.281 . S
C507 O520 1.236 . S
C508 O530 1.240 . S
C508 O531 1.264 . S
O509 Mn504 2.097 . S
O509 C518 1.254 . S
O510 Mn505 2.121 . S
O510 C518 1.258 . S
C511 N512 1.326 . S
C511 C515 1.460 . S
C511 H517 0.929 . S
N512 Mn505 2.257 . S
N512 C511 1.326 . S
N512 C516 1.362 . S
C513 C514 1.258 . S
C513 C516 1.431 . S
C513 C533 1.449 . S
C514 C513 1.258 . S
C514 C515 1.477 . S
C514 H534 0.931 . S
C515 C511 1.460 . S
C515 C514 1.477 . S
C515 H535 0.930 . S
C516 N512 1.362 . S
C516 C513 1.431 . S
C516 C526 1.476 . S
H517 C511 0.929 . S
C518 O509 1.254 . S
C518 O510 1.258 . S
O519 Mn504 2.162 1_655 S
O519 C507 1.281 . S
O520 Mn504 2.297 1_655 S
O520 C507 1.236 . S
N521 Mn505 2.282 . S
N521 C522 1.328 . S
N521 C526 1.318 . S
C522 N521 1.328 . S
C522 C523 1.457 . S
C522 H527 0.929 . S
C523 C522 1.457 . S
C523 C524 1.291 . S
C523 H536 0.931 . S
C524 C523 1.291 . S
C524 C525 1.373 . S
C524 H537 0.929 . S
C525 C524 1.373 . S
C525 C526 1.396 . S
C525 C532 1.403 . S
C526 C516 1.476 . S
C526 N521 1.318 . S
C526 C525 1.396 . S
H527 C522 0.929 . S
O528 Mn504 2.385 . S
O528 C506 1.234 . S
O529 Mn504 2.209 . S
O529 Mn505 2.215 . S
O529 C506 1.283 . S
O530 Mn504 2.094 . S
O530 C508 1.240 . S
O531 Mn505 2.117 . S
O531 C508 1.264 . S
C532 C525 1.403 . S
C532 C533 1.399 . S
C532 H538 0.929 . S
C533 C513 1.449 . S
C533 C532 1.399 . S
C533 H539 0.930 . S
H534 C514 0.931 . S
H535 C515 0.930 . S
H536 C523 0.931 . S
H537 C524 0.929 . S
H538 C532 0.929 . S
H539 C533 0.930 . S
Mn540 O545 2.097 . S
Mn540 O555 2.162 1_545 S
Mn540 O556 2.297 1_545 S
Mn540 O564 2.385 . S
Mn540 O565 2.209 . S
Mn540 O566 2.094 . S
Mn541 O546 2.121 . S
Mn541 N548 2.257 . S
Mn541 N557 2.282 . S
Mn541 O565 2.215 . S
Mn541 O567 2.117 . S
C542 O564 1.234 . S
C542 O565 1.283 . S
C543 O555 1.281 . S
C543 O556 1.236 . S
C544 O566 1.240 . S
C544 O567 1.264 . S
O545 Mn540 2.097 . S
O545 C554 1.254 . S
O546 Mn541 2.121 . S
O546 C554 1.258 . S
C547 N548 1.326 . S
C547 C551 1.460 . S
C547 H553 0.929 . S
N548 Mn541 2.257 . S
N548 C547 1.326 . S
N548 C552 1.362 . S
C549 C550 1.258 . S
C549 C552 1.431 . S
C549 C569 1.449 . S
C550 C549 1.258 . S
C550 C551 1.477 . S
C550 H570 0.931 . S
C551 C547 1.460 . S
C551 C550 1.477 . S
C551 H571 0.930 . S
C552 N548 1.362 . S
C552 C549 1.431 . S
C552 C562 1.476 . S
H553 C547 0.929 . S
C554 O545 1.254 . S
C554 O546 1.258 . S
O555 Mn540 2.162 1_565 S
O555 C543 1.281 . S
O556 Mn540 2.297 1_565 S
O556 C543 1.236 . S
N557 Mn541 2.282 . S
N557 C558 1.328 . S
N557 C562 1.318 . S
C558 N557 1.328 . S
C558 C559 1.457 . S
C558 H563 0.929 . S
C559 C558 1.457 . S
C559 C560 1.291 . S
C559 H572 0.931 . S
C560 C559 1.291 . S
C560 C561 1.373 . S
C560 H573 0.929 . S
C561 C560 1.373 . S
C561 C562 1.396 . S
C561 C568 1.403 . S
C562 C552 1.476 . S
C562 N557 1.318 . S
C562 C561 1.396 . S
H563 C558 0.929 . S
O564 Mn540 2.385 . S
O564 C542 1.234 . S
O565 Mn540 2.209 . S
O565 Mn541 2.215 . S
O565 C542 1.283 . S
O566 Mn540 2.094 . S
O566 C544 1.240 . S
O567 Mn541 2.117 . S
O567 C544 1.264 . S
C568 C561 1.403 . S
C568 C569 1.399 . S
C568 H574 0.929 . S
C569 C549 1.449 . S
C569 C568 1.399 . S
C569 H575 0.930 . S
H570 C550 0.931 . S
H571 C551 0.930 . S
H572 C559 0.931 . S
H573 C560 0.929 . S
H574 C568 0.929 . S
H575 C569 0.930 . S
C576 C577 1.369 . S
C576 C578 1.419 . S
C576 H580 0.930 . S
C577 C576 1.369 . S
C577 C586 1.429 . S
C578 C576 1.419 . S
C578 C579 1.363 . S
C578 H581 0.929 . S
C579 C578 1.363 . S
C579 C585 1.428 . S
H580 C576 0.930 . S
H581 C578 0.929 . S
S582 N583 1.613 . S
S582 N584 1.610 . S
N583 S582 1.613 . S
N583 C586 1.350 . S
N584 S582 1.610 . S
N584 C585 1.351 . S
C585 C579 1.428 . S
C585 N584 1.351 . S
C585 C586 1.434 . S
C586 C577 1.429 . S
C586 N583 1.350 . S
C586 C585 1.434 . S
C587 C588 1.369 . S
C587 C589 1.419 . S
C587 H591 0.930 . S
C588 C587 1.369 . S
C588 C597 1.429 . S
C589 C587 1.419 . S
C589 C590 1.363 . S
C589 H592 0.929 . S
C590 C589 1.363 . S
C590 C596 1.428 . S
H591 C587 0.930 . S
H592 C589 0.929 . S
S593 N594 1.613 . S
S593 N595 1.610 . S
N594 S593 1.613 . S
N594 C597 1.350 . S
N595 S593 1.610 . S
N595 C596 1.351 . S
C596 C590 1.428 . S
C596 N595 1.351 . S
C596 C597 1.434 . S
C597 C588 1.429 . S
C597 N594 1.350 . S
C597 C596 1.434 . S
C598 C599 1.369 . S
C598 C600 1.419 . S
C598 H602 0.930 . S
C599 C598 1.369 . S
C599 C608 1.429 . S
C600 C598 1.419 . S
C600 C601 1.363 . S
C600 H603 0.929 . S
C601 C600 1.363 . S
C601 C607 1.428 . S
H602 C598 0.930 . S
H603 C600 0.929 . S
S604 N605 1.613 . S
S604 N606 1.610 . S
N605 S604 1.613 . S
N605 C608 1.350 . S
N606 S604 1.610 . S
N606 C607 1.351 . S
C607 C601 1.428 . S
C607 N606 1.351 . S
C607 C608 1.434 . S
C608 C599 1.429 . S
C608 N605 1.350 . S
C608 C607 1.434 . S
C609 C610 1.369 . S
C609 C611 1.419 . S
C609 H613 0.930 . S
C610 C609 1.369 . S
C610 C619 1.429 . S
C611 C609 1.419 . S
C611 C612 1.363 . S
C611 H614 0.929 . S
C612 C611 1.363 . S
C612 C618 1.428 . S
H613 C609 0.930 . S
H614 C611 0.929 . S
S615 N616 1.613 . S
S615 N617 1.610 . S
N616 S615 1.613 . S
N616 C619 1.350 . S
N617 S615 1.610 . S
N617 C618 1.351 . S
C618 C612 1.428 . S
C618 N617 1.351 . S
C618 C619 1.434 . S
C619 C610 1.429 . S
C619 N616 1.350 . S
C619 C618 1.434 . S
C620 C621 1.369 . S
C620 C622 1.419 . S
C620 H624 0.930 . S
C621 C620 1.369 . S
C621 C630 1.429 . S
C622 C620 1.419 . S
C622 C623 1.363 . S
C622 H625 0.929 . S
C623 C622 1.363 . S
C623 C629 1.428 . S
H624 C620 0.930 . S
H625 C622 0.929 . S
S626 N627 1.613 . S
S626 N628 1.610 . S
N627 S626 1.613 . S
N627 C630 1.350 . S
N628 S626 1.610 . S
N628 C629 1.351 . S
C629 C623 1.428 . S
C629 N628 1.351 . S
C629 C630 1.434 . S
C630 C621 1.429 . S
C630 N627 1.350 . S
C630 C629 1.434 . S
C631 C632 1.369 . S
C631 C633 1.419 . S
C631 H635 0.930 . S
C632 C631 1.369 . S
C632 C641 1.429 . S
C633 C631 1.419 . S
C633 C634 1.363 . S
C633 H636 0.929 . S
C634 C633 1.363 . S
C634 C640 1.428 . S
H635 C631 0.930 . S
H636 C633 0.929 . S
S637 N638 1.613 . S
S637 N639 1.610 . S
N638 S637 1.613 . S
N638 C641 1.350 . S
N639 S637 1.610 . S
N639 C640 1.351 . S
C640 C634 1.428 . S
C640 N639 1.351 . S
C640 C641 1.434 . S
C641 C632 1.429 . S
C641 N638 1.350 . S
C641 C640 1.434 . S
C642 C643 1.369 . S
C642 C644 1.419 . S
C642 H646 0.930 . S
C643 C642 1.369 . S
C643 C652 1.429 . S
C644 C642 1.419 . S
C644 C645 1.363 . S
C644 H647 0.929 . S
C645 C644 1.363 . S
C645 C651 1.428 . S
H646 C642 0.930 . S
H647 C644 0.929 . S
S648 N649 1.613 . S
S648 N650 1.610 . S
N649 S648 1.613 . S
N649 C652 1.350 . S
N650 S648 1.610 . S
N650 C651 1.351 . S
C651 C645 1.428 . S
C651 N650 1.351 . S
C651 C652 1.434 . S
C652 C643 1.429 . S
C652 N649 1.350 . S
C652 C651 1.434 . S
C653 C654 1.369 . S
C653 C655 1.419 . S
C653 H657 0.930 . S
C654 C653 1.369 . S
C654 C663 1.429 . S
C655 C653 1.419 . S
C655 C656 1.363 . S
C655 H658 0.929 . S
C656 C655 1.363 . S
C656 C662 1.428 . S
H657 C653 0.930 . S
H658 C655 0.929 . S
S659 N660 1.613 . S
S659 N661 1.610 . S
N660 S659 1.613 . S
N660 C663 1.350 . S
N661 S659 1.610 . S
N661 C662 1.351 . S
C662 C656 1.428 . S
C662 N661 1.351 . S
C662 C663 1.434 . S
C663 C654 1.429 . S
C663 N660 1.350 . S
C663 C662 1.434 . S
C664 C665 1.369 . S
C664 C666 1.419 . S
C664 H668 0.930 . S
C665 C664 1.369 . S
C665 C674 1.429 . S
C666 C664 1.419 . S
C666 C667 1.363 . S
C666 H669 0.929 . S
C667 C666 1.363 . S
C667 C673 1.428 . S
H668 C664 0.930 . S
H669 C666 0.929 . S
S670 N671 1.613 . S
S670 N672 1.610 . S
N671 S670 1.613 . S
N671 C674 1.350 . S
N672 S670 1.610 . S
N672 C673 1.351 . S
C673 C667 1.428 . S
C673 N672 1.351 . S
C673 C674 1.434 . S
C674 C665 1.429 . S
C674 N671 1.350 . S
C674 C673 1.434 . S
C675 C676 1.369 . S
C675 C677 1.419 . S
C675 H679 0.930 . S
C676 C675 1.369 . S
C676 C685 1.429 . S
C677 C675 1.419 . S
C677 C678 1.363 . S
C677 H680 0.929 . S
C678 C677 1.363 . S
C678 C684 1.428 . S
H679 C675 0.930 . S
H680 C677 0.929 . S
S681 N682 1.613 . S
S681 N683 1.610 . S
N682 S681 1.613 . S
N682 C685 1.350 . S
N683 S681 1.610 . S
N683 C684 1.351 . S
C684 C678 1.428 . S
C684 N683 1.351 . S
C684 C685 1.434 . S
C685 C676 1.429 . S
C685 N682 1.350 . S
C685 C684 1.434 . S
C686 C687 1.369 . S
C686 C688 1.419 . S
C686 H690 0.930 . S
C687 C686 1.369 . S
C687 C696 1.429 . S
C688 C686 1.419 . S
C688 C689 1.363 . S
C688 H691 0.929 . S
C689 C688 1.363 . S
C689 C695 1.428 . S
H690 C686 0.930 . S
H691 C688 0.929 . S
S692 N693 1.613 . S
S692 N694 1.610 . S
N693 S692 1.613 . S
N693 C696 1.350 . S
N694 S692 1.610 . S
N694 C695 1.351 . S
C695 C689 1.428 . S
C695 N694 1.351 . S
C695 C696 1.434 . S
C696 C687 1.429 . S
C696 N693 1.350 . S
C696 C695 1.434 . S
C697 C698 1.369 . S
C697 C699 1.419 . S
C697 H701 0.930 . S
C698 C697 1.369 . S
C698 C707 1.429 . S
C699 C697 1.419 . S
C699 C700 1.363 . S
C699 H702 0.929 . S
C700 C699 1.363 . S
C700 C706 1.428 . S
H701 C697 0.930 . S
H702 C699 0.929 . S
S703 N704 1.613 . S
S703 N705 1.610 . S
N704 S703 1.613 . S
N704 C707 1.350 . S
N705 S703 1.610 . S
N705 C706 1.351 . S
C706 C700 1.428 . S
C706 N705 1.351 . S
C706 C707 1.434 . S
C707 C698 1.429 . S
C707 N704 1.350 . S
C707 C706 1.434 . S
C708 C709 1.369 . S
C708 C710 1.419 . S
C708 H712 0.930 . S
C709 C708 1.369 . S
C709 C718 1.429 . S
C710 C708 1.419 . S
C710 C711 1.363 . S
C710 H713 0.929 . S
C711 C710 1.363 . S
C711 C717 1.428 . S
H712 C708 0.930 . S
H713 C710 0.929 . S
S714 N715 1.613 . S
S714 N716 1.610 . S
N715 S714 1.613 . S
N715 C718 1.350 . S
N716 S714 1.610 . S
N716 C717 1.351 . S
C717 C711 1.428 . S
C717 N716 1.351 . S
C717 C718 1.434 . S
C718 C709 1.429 . S
C718 N715 1.350 . S
C718 C717 1.434 . S
C719 C720 1.369 . S
C719 C721 1.419 . S
C719 H723 0.930 . S
C720 C719 1.369 . S
C720 C729 1.429 . S
C721 C719 1.419 . S
C721 C722 1.363 . S
C721 H724 0.929 . S
C722 C721 1.363 . S
C722 C728 1.428 . S
H723 C719 0.930 . S
H724 C721 0.929 . S
S725 N726 1.613 . S
S725 N727 1.610 . S
N726 S725 1.613 . S
N726 C729 1.350 . S
N727 S725 1.610 . S
N727 C728 1.351 . S
C728 C722 1.428 . S
C728 N727 1.351 . S
C728 C729 1.434 . S
C729 C720 1.429 . S
C729 N726 1.350 . S
C729 C728 1.434 . S
C730 C731 1.369 . S
C730 C732 1.419 . S
C730 H734 0.930 . S
C731 C730 1.369 . S
C731 C740 1.429 . S
C732 C730 1.419 . S
C732 C733 1.363 . S
C732 H735 0.929 . S
C733 C732 1.363 . S
C733 C739 1.428 . S
H734 C730 0.930 . S
H735 C732 0.929 . S
S736 N737 1.613 . S
S736 N738 1.610 . S
N737 S736 1.613 . S
N737 C740 1.350 . S
N738 S736 1.610 . S
N738 C739 1.351 . S
C739 C733 1.428 . S
C739 N738 1.351 . S
C739 C740 1.434 . S
C740 C731 1.429 . S
C740 N737 1.350 . S
C740 C739 1.434 . S
C741 C742 1.369 . S
C741 C743 1.419 . S
C741 H745 0.930 . S
C742 C741 1.369 . S
C742 C751 1.429 . S
C743 C741 1.419 . S
C743 C744 1.363 . S
C743 H746 0.929 . S
C744 C743 1.363 . S
C744 C750 1.428 . S
H745 C741 0.930 . S
H746 C743 0.929 . S
S747 N748 1.613 . S
S747 N749 1.610 . S
N748 S747 1.613 . S
N748 C751 1.350 . S
N749 S747 1.610 . S
N749 C750 1.351 . S
C750 C744 1.428 . S
C750 N749 1.351 . S
C750 C751 1.434 . S
C751 C742 1.429 . S
C751 N748 1.350 . S
C751 C750 1.434 . S
C752 C753 1.369 . S
C752 C754 1.419 . S
C752 H756 0.930 . S
C753 C752 1.369 . S
C753 C762 1.429 . S
C754 C752 1.419 . S
C754 C755 1.363 . S
C754 H757 0.929 . S
C755 C754 1.363 . S
C755 C761 1.428 . S
H756 C752 0.930 . S
H757 C754 0.929 . S
S758 N759 1.613 . S
S758 N760 1.610 . S
N759 S758 1.613 . S
N759 C762 1.350 . S
N760 S758 1.610 . S
N760 C761 1.351 . S
C761 C755 1.428 . S
C761 N760 1.351 . S
C761 C762 1.434 . S
C762 C753 1.429 . S
C762 N759 1.350 . S
C762 C761 1.434 . S
C763 C764 1.369 . S
C763 C765 1.419 . S
C763 H767 0.930 . S
C764 C763 1.369 . S
C764 C773 1.429 . S
C765 C763 1.419 . S
C765 C766 1.363 . S
C765 H768 0.929 . S
C766 C765 1.363 . S
C766 C772 1.428 . S
H767 C763 0.930 . S
H768 C765 0.929 . S
S769 N770 1.613 . S
S769 N771 1.610 . S
N770 S769 1.613 . S
N770 C773 1.350 . S
N771 S769 1.610 . S
N771 C772 1.351 . S
C772 C766 1.428 . S
C772 N771 1.351 . S
C772 C773 1.434 . S
C773 C764 1.429 . S
C773 N770 1.350 . S
C773 C772 1.434 . S
C774 C775 1.369 . S
C774 C776 1.419 . S
C774 H778 0.930 . S
C775 C774 1.369 . S
C775 C784 1.429 . S
C776 C774 1.419 . S
C776 C777 1.363 . S
C776 H779 0.929 . S
C777 C776 1.363 . S
C777 C783 1.428 . S
H778 C774 0.930 . S
H779 C776 0.929 . S
S780 N781 1.613 . S
S780 N782 1.610 . S
N781 S780 1.613 . S
N781 C784 1.350 . S
N782 S780 1.610 . S
N782 C783 1.351 . S
C783 C777 1.428 . S
C783 N782 1.351 . S
C783 C784 1.434 . S
C784 C775 1.429 . S
C784 N781 1.350 . S
C784 C783 1.434 . S
C785 C786 1.369 . S
C785 C787 1.419 . S
C785 H789 0.930 . S
C786 C785 1.369 . S
C786 C795 1.429 . S
C787 C785 1.419 . S
C787 C788 1.363 . S
C787 H790 0.929 . S
C788 C787 1.363 . S
C788 C794 1.428 . S
H789 C785 0.930 . S
H790 C787 0.929 . S
S791 N792 1.613 . S
S791 N793 1.610 . S
N792 S791 1.613 . S
N792 C795 1.350 . S
N793 S791 1.610 . S
N793 C794 1.351 . S
C794 C788 1.428 . S
C794 N793 1.351 . S
C794 C795 1.434 . S
C795 C786 1.429 . S
C795 N792 1.350 . S
C795 C794 1.434 . S
C796 C797 1.369 . S
C796 C798 1.419 . S
C796 H800 0.930 . S
C797 C796 1.369 . S
C797 C806 1.429 . S
C798 C796 1.419 . S
C798 C799 1.363 . S
C798 H801 0.929 . S
C799 C798 1.363 . S
C799 C805 1.428 . S
H800 C796 0.930 . S
H801 C798 0.929 . S
S802 N803 1.613 . S
S802 N804 1.610 . S
N803 S802 1.613 . S
N803 C806 1.350 . S
N804 S802 1.610 . S
N804 C805 1.351 . S
C805 C799 1.428 . S
C805 N804 1.351 . S
C805 C806 1.434 . S
C806 C797 1.429 . S
C806 N803 1.350 . S
C806 C805 1.434 . S
C807 C808 1.369 . S
C807 C809 1.419 . S
C807 H811 0.930 . S
C808 C807 1.369 . S
C808 C817 1.429 . S
C809 C807 1.419 . S
C809 C810 1.363 . S
C809 H812 0.929 . S
C810 C809 1.363 . S
C810 C816 1.428 . S
H811 C807 0.930 . S
H812 C809 0.929 . S
S813 N814 1.613 . S
S813 N815 1.610 . S
N814 S813 1.613 . S
N814 C817 1.350 . S
N815 S813 1.610 . S
N815 C816 1.351 . S
C816 C810 1.428 . S
C816 N815 1.351 . S
C816 C817 1.434 . S
C817 C808 1.429 . S
C817 N814 1.350 . S
C817 C816 1.434 . S
C818 C819 1.369 . S
C818 C820 1.419 . S
C818 H822 0.930 . S
C819 C818 1.369 . S
C819 C828 1.429 . S
C820 C818 1.419 . S
C820 C821 1.363 . S
C820 H823 0.929 . S
C821 C820 1.363 . S
C821 C827 1.428 . S
H822 C818 0.930 . S
H823 C820 0.929 . S
S824 N825 1.613 . S
S824 N826 1.610 . S
N825 S824 1.613 . S
N825 C828 1.350 . S
N826 S824 1.610 . S
N826 C827 1.351 . S
C827 C821 1.428 . S
C827 N826 1.351 . S
C827 C828 1.434 . S
C828 C819 1.429 . S
C828 N825 1.350 . S
C828 C827 1.434 . S
C829 C830 1.369 . S
C829 C831 1.419 . S
C829 H833 0.930 . S
C830 C829 1.369 . S
C830 C839 1.429 . S
C831 C829 1.419 . S
C831 C832 1.363 . S
C831 H834 0.929 . S
C832 C831 1.363 . S
C832 C838 1.428 . S
H833 C829 0.930 . S
H834 C831 0.929 . S
S835 N836 1.613 . S
S835 N837 1.610 . S
N836 S835 1.613 . S
N836 C839 1.350 . S
N837 S835 1.610 . S
N837 C838 1.351 . S
C838 C832 1.428 . S
C838 N837 1.351 . S
C838 C839 1.434 . S
C839 C830 1.429 . S
C839 N836 1.350 . S
C839 C838 1.434 . S
C840 C841 1.369 . S
C840 C842 1.419 1_554 S
C840 H844 0.930 . S
C841 C840 1.369 . S
C841 C850 1.429 . S
C842 C840 1.419 1_556 S
C842 C843 1.363 . S
C842 H845 0.929 . S
C843 C842 1.363 . S
C843 C849 1.428 . S
H844 C840 0.930 . S
H845 C842 0.929 . S
S846 N847 1.613 1_556 S
S846 N848 1.610 . S
N847 S846 1.613 1_554 S
N847 C850 1.350 . S
N848 S846 1.610 . S
N848 C849 1.351 . S
C849 C843 1.428 . S
C849 N848 1.351 . S
C849 C850 1.434 1_556 S
C850 C841 1.429 . S
C850 N847 1.350 . S
C850 C849 1.434 1_554 S
C851 C852 1.369 . S
C851 C853 1.419 . S
C851 H855 0.930 . S
C852 C851 1.369 . S
C852 C861 1.429 . S
C853 C851 1.419 . S
C853 C854 1.363 . S
C853 H856 0.929 . S
C854 C853 1.363 . S
C854 C860 1.428 . S
H855 C851 0.930 . S
H856 C853 0.929 . S
S857 N858 1.613 . S
S857 N859 1.610 . S
N858 S857 1.613 . S
N858 C861 1.350 . S
N859 S857 1.610 . S
N859 C860 1.351 . S
C860 C854 1.428 . S
C860 N859 1.351 . S
C860 C861 1.434 . S
C861 C852 1.429 . S
C861 N858 1.350 . S
C861 C860 1.434 . S
C862 C863 1.369 1_455 S
C862 C864 1.419 1_554 S
C862 H866 0.930 . S
C863 C862 1.369 1_655 S
C863 C872 1.429 . S
C864 C862 1.419 1_556 S
C864 C865 1.363 1_455 S
C864 H867 0.929 . S
C865 C864 1.363 1_655 S
C865 C871 1.428 . S
H866 C862 0.930 . S
H867 C864 0.929 . S
S868 N869 1.613 . S
S868 N870 1.610 1_554 S
N869 S868 1.613 . S
N869 C872 1.350 . S
N870 S868 1.610 1_556 S
N870 C871 1.351 . S
C871 C865 1.428 . S
C871 N870 1.351 . S
C871 C872 1.434 1_556 S
C872 C863 1.429 . S
C872 N869 1.350 . S
C872 C871 1.434 1_554 S
C873 C874 1.369 1_545 S
C873 C875 1.419 . S
C873 H877 0.930 . S
C874 C873 1.369 1_565 S
C874 C883 1.429 . S
C875 C873 1.419 . S
C875 C876 1.363 1_545 S
C875 H878 0.929 . S
C876 C875 1.363 1_565 S
C876 C882 1.428 . S
H877 C873 0.930 . S
H878 C875 0.929 . S
S879 N880 1.613 . S
S879 N881 1.610 . S
N880 S879 1.613 . S
N880 C883 1.350 . S
N881 S879 1.610 . S
N881 C882 1.351 . S
C882 C876 1.428 . S
C882 N881 1.351 . S
C882 C883 1.434 . S
C883 C874 1.429 . S
C883 N880 1.350 . S
C883 C882 1.434 . S
C884 C885 1.369 . S
C884 C886 1.419 1_556 S
C884 H888 0.930 . S
C885 C884 1.369 . S
C885 C894 1.429 . S
C886 C884 1.419 1_554 S
C886 C887 1.363 . S
C886 H889 0.929 . S
C887 C886 1.363 . S
C887 C893 1.428 . S
H888 C884 0.930 . S
H889 C886 0.929 . S
S890 N891 1.613 . S
S890 N892 1.610 1_556 S
N891 S890 1.613 . S
N891 C894 1.350 . S
N892 S890 1.610 1_554 S
N892 C893 1.351 . S
C893 C887 1.428 . S
C893 N892 1.351 . S
C893 C894 1.434 1_554 S
C894 C885 1.429 . S
C894 N891 1.350 . S
C894 C893 1.434 1_556 S
C895 C896 1.369 . S
C895 C897 1.419 . S
C895 H899 0.930 . S
C896 C895 1.369 . S
C896 C905 1.429 . S
C897 C895 1.419 . S
C897 C898 1.363 . S
C897 H900 0.929 . S
C898 C897 1.363 . S
C898 C904 1.428 . S
H899 C895 0.930 . S
H900 C897 0.929 . S
S901 N902 1.613 . S
S901 N903 1.610 . S
N902 S901 1.613 . S
N902 C905 1.350 . S
N903 S901 1.610 . S
N903 C904 1.351 . S
C904 C898 1.428 . S
C904 N903 1.351 . S
C904 C905 1.434 . S
C905 C896 1.429 . S
C905 N902 1.350 . S
C905 C904 1.434 . S
C906 C907 1.369 . S
C906 C908 1.419 1_554 S
C906 H910 0.930 . S
C907 C906 1.369 . S
C907 C916 1.429 1_455 S
C908 C906 1.419 1_556 S
C908 C909 1.363 . S
C908 H911 0.929 . S
C909 C908 1.363 . S
C909 C915 1.428 1_455 S
H910 C906 0.930 . S
H911 C908 0.929 . S
S912 N913 1.613 . S
S912 N914 1.610 1_554 S
N913 S912 1.613 . S
N913 C916 1.350 . S
N914 S912 1.610 1_556 S
N914 C915 1.351 . S
C915 C909 1.428 1_655 S
C915 N914 1.351 . S
C915 C916 1.434 1_556 S
C916 C907 1.429 1_655 S
C916 N913 1.350 . S
C916 C915 1.434 1_554 S
C917 C918 1.369 . S
C917 C919 1.419 . S
C917 H921 0.930 . S
C918 C917 1.369 . S
C918 C927 1.429 1_545 S
C919 C917 1.419 . S
C919 C920 1.363 . S
C919 H922 0.929 . S
C920 C919 1.363 . S
C920 C926 1.428 1_545 S
H921 C917 0.930 . S
H922 C919 0.929 . S
S923 N924 1.613 . S
S923 N925 1.610 . S
N924 S923 1.613 . S
N924 C927 1.350 . S
N925 S923 1.610 . S
N925 C926 1.351 . S
C926 C920 1.428 1_565 S
C926 N925 1.351 . S
C926 C927 1.434 . S
C927 C918 1.429 1_565 S
C927 N924 1.350 . S
C927 C926 1.434 . S
C577 C3 1.364 . S
C579 C255 1.364 . S
C588 C39 1.366 . S
C590 C147 1.366 . S
C599 C75 1.366 . S
C601 C183 1.366 . S
C610 C111 1.366 . S
C612 C219 1.366 . S
C621 C291 1.366 . S
C623 C543 1.366 . S
C632 C435 1.366 . S
C634 C327 1.366 . S
C643 C363 1.365 . S
C645 C471 1.365 . S
C654 C399 1.366 . S
C656 C507 1.366 . S
C665 C4 1.429 . S
C667 C326 1.491 . S
C676 C40 1.420 . S
C678 C362 1.492 . S
C687 C398 1.492 . S
C689 C76 1.421 . S
C698 C112 1.425 . S
C700 C290 1.491 . S
C709 C148 1.420 . S
C711 C542 1.492 . S
C720 C434 1.491 . S
C722 C184 1.421 . S
C731 C470 1.491 . S
C733 C220 1.426 . S
C742 C506 1.492 . S
C744 C256 1.421 . S
C753 C38 1.493 . S
C755 C292 1.422 . S
C764 C74 1.493 . S
C766 C328 1.425 . S
C775 C364 1.429 . S
C777 C110 1.492 . S
C786 C2 1.491 . S
C788 C400 1.423 . S
C797 C436 1.420 . S
C799 C254 1.493 . S
C808 C472 1.421 . S
C810 C146 1.491 . S
C819 C182 1.491 . S
C821 C508 1.427 . S
C830 C218 1.491 . S
C832 C544 1.427 . S
C841 C14 1.487 . S
C843 C158 1.487 . S
C852 C194 1.486 . S
C854 C50 1.486 . S
C863 C86 1.489 . S
C865 C230 1.491 . S
C874 C266 1.486 . S
C876 C122 1.486 . S
C885 C302 1.491 . S
C887 C446 1.493 . S
C896 C482 1.490 . S
C898 C338 1.492 . S
C907 C518 1.488 . S
C909 C374 1.491 . S
C918 C554 1.495 . S
C920 C410 1.494 . S
