# Generated by pormake.
# Topology svj, (7)-cn, num edge types: 1
# Building blocks:
#     Node 0, Type 0, BuildingBlock: HICVOG_clean_sbu_0, # of connection points: 7
#     Node 1, Type 0, BuildingBlock: HICVOG_clean_sbu_0, # of connection points: 7
#     Node 2, Type 0, BuildingBlock: HICVOG_clean_sbu_0, # of connection points: 7
#     Node 3, Type 0, BuildingBlock: HICVOG_clean_sbu_0, # of connection points: 7
#     Node 4, Type 0, BuildingBlock: HICVOG_clean_sbu_0, # of connection points: 7
#     Node 5, Type 0, BuildingBlock: HICVOG_clean_sbu_0, # of connection points: 7
#     Edge 6, Type (0, 0), BuildingBlock: MIFKUJ_clean_linker_0, # of connection points: 2
#     Edge 7, Type (0, 0), BuildingBlock: MIFKUJ_clean_linker_0, # of connection points: 2
#     Edge 8, Type (0, 0), BuildingBlock: MIFKUJ_clean_linker_0, # of connection points: 2
#     Edge 9, Type (0, 0), BuildingBlock: MIFKUJ_clean_linker_0, # of connection points: 2
#     Edge 10, Type (0, 0), BuildingBlock: MIFKUJ_clean_linker_0, # of connection points: 2
#     Edge 11, Type (0, 0), BuildingBlock: MIFKUJ_clean_linker_0, # of connection points: 2
#     Edge 12, Type (0, 0), BuildingBlock: MIFKUJ_clean_linker_0, # of connection points: 2
#     Edge 13, Type (0, 0), BuildingBlock: MIFKUJ_clean_linker_0, # of connection points: 2
#     Edge 14, Type (0, 0), BuildingBlock: MIFKUJ_clean_linker_0, # of connection points: 2
#     Edge 15, Type (0, 0), BuildingBlock: MIFKUJ_clean_linker_0, # of connection points: 2
#     Edge 16, Type (0, 0), BuildingBlock: MIFKUJ_clean_linker_0, # of connection points: 2
#     Edge 17, Type (0, 0), BuildingBlock: MIFKUJ_clean_linker_0, # of connection points: 2
#     Edge 18, Type (0, 0), BuildingBlock: MIFKUJ_clean_linker_0, # of connection points: 2
#     Edge 19, Type (0, 0), BuildingBlock: MIFKUJ_clean_linker_0, # of connection points: 2
#     Edge 20, Type (0, 0), BuildingBlock: MIFKUJ_clean_linker_0, # of connection points: 2
#     Edge 21, Type (0, 0), BuildingBlock: MIFKUJ_clean_linker_0, # of connection points: 2
#     Edge 22, Type (0, 0), BuildingBlock: MIFKUJ_clean_linker_0, # of connection points: 2
#     Edge 23, Type (0, 0), BuildingBlock: MIFKUJ_clean_linker_0, # of connection points: 2
#     Edge 24, Type (0, 0), BuildingBlock: MIFKUJ_clean_linker_0, # of connection points: 2
#     Edge 25, Type (0, 0), BuildingBlock: MIFKUJ_clean_linker_0, # of connection points: 2
#     Edge 26, Type (0, 0), BuildingBlock: MIFKUJ_clean_linker_0, # of connection points: 2
# Relax obj value: 0.269
# Max RMSD: 0.258
# Mean RMSD: 0.241
data_MOF--net-svj--node1-HICVOG_clean_sbu_0--edge1-MIFKUJ_clean_linker_0
_symmetry_space_group_name_H-M    P1
_symmetry_Int_Tables_number       1
_symmetry_cell_setting            triclinic
loop_
_symmetry_equiv_pos_as_xyz
'x, y, z'
_cell_length_a     52.522745
_cell_length_b     52.500291
_cell_length_c     24.927782
_cell_angle_alpha  90.038745
_cell_angle_beta   90.019548
_cell_angle_gamma 119.99501
loop_
_atom_site_label
_atom_site_type_symbol
_atom_site_fract_x
_atom_site_fract_y
_atom_site_fract_z
_atom_type_partial_charge
Zn0 Zn 0.18735 0.43544 0.97937 0.0
C1 C 0.1237 0.44313 0.05134 0.0
N2 N 0.13274 0.46642 0.01866 0.0
C3 C 0.15699 0.46854 0.9961 0.0
N4 N 0.16237 0.44748 0.01432 0.0
N5 N 0.14191 0.43199 0.05024 0.0
C6 C 0.08873 0.3617 0.0913 0.0
O7 O 0.101 0.3642 0.04424 0.0
O8 O 0.22457 0.47071 0.95257 0.0
Zn9 Zn 0.14556 0.41048 0.11005 0.0
N10 N 0.16508 0.4098 0.92105 0.0
C11 C 0.12864 0.36129 0.89655 0.0
C12 C 0.14611 0.38155 0.93537 0.0
C13 C 0.16754 0.41875 0.86913 0.0
N14 N 0.13106 0.37005 0.84476 0.0
C15 C 0.15013 0.39823 0.82942 0.0
O16 O 0.17296 0.39346 0.10039 0.0
C17 C 0.19276 0.396 0.06761 0.0
O18 O 0.1987 0.41134 0.02519 0.0
H19 H 0.14463 0.3749 0.97679 0.0
H20 H 0.18255 0.44155 0.85945 0.0
C21 C 0.15756 0.43101 0.22055 0.0
C22 C 0.17143 0.45275 0.26043 0.0
C23 C 0.19349 0.489 0.19238 0.0
C24 C 0.18009 0.46742 0.15325 0.0
N25 N 0.16229 0.43891 0.16789 0.0
N26 N 0.189 0.48118 0.2448 0.0
H27 H 0.1439 0.40804 0.23085 0.0
C28 C 0.24571 0.48245 0.98587 0.0
O29 O 0.24216 0.4707 0.03376 0.0
O30 O 0.10427 0.3787 0.12905 0.0
H31 H 0.18406 0.4734 0.11145 0.0
H32 H 0.11333 0.33873 0.90739 0.0
H33 H 0.20761 0.51177 0.18123 0.0
Zn34 Zn 0.66451 0.13067 0.23552 0.0
C35 C 0.70539 0.20224 0.14779 0.0
N36 N 0.68368 0.2068 0.16462 0.0
C37 C 0.66442 0.18073 0.18617 0.0
N38 N 0.674 0.16129 0.1835 0.0
N39 N 0.69961 0.17466 0.15851 0.0
C40 C 0.77393 0.17821 0.12952 0.0
O41 O 0.76316 0.15951 0.16953 0.0
O42 O 0.62081 0.11034 0.25394 0.0
Zn43 Zn 0.71277 0.15353 0.11359 0.0
N44 N 0.69047 0.1502 0.29571 0.0
C45 C 0.74064 0.18179 0.31903 0.0
C46 C 0.71921 0.16566 0.28103 0.0
C47 C 0.68223 0.14962 0.34774 0.0
N48 N 0.73258 0.18131 0.37076 0.0
C49 C 0.70401 0.16556 0.38676 0.0
O50 O 0.70544 0.11421 0.14277 0.0
C51 C 0.68962 0.09507 0.1777 0.0
O52 O 0.67394 0.09959 0.21098 0.0
H53 H 0.72544 0.16544 0.23985 0.0
H54 H 0.65917 0.13722 0.35821 0.0
C55 C 0.69478 0.14834 0.99888 0.0
C56 C 0.67253 0.13658 0.95927 0.0
C57 C 0.63658 0.11353 0.02755 0.0
C58 C 0.65852 0.12479 0.06623 0.0
N59 N 0.68709 0.14199 0.0515 0.0
N60 N 0.64408 0.11955 0.97525 0.0
H61 H 0.71773 0.16157 0.9882 0.0
C62 C 0.60469 0.08803 0.22483 0.0
O63 O 0.61733 0.08014 0.18814 0.0
O64 O 0.75616 0.17969 0.09662 0.0
H65 H 0.65287 0.11957 0.10801 0.0
H66 H 0.76355 0.19445 0.30766 0.0
H67 H 0.61377 0.09984 0.03886 0.0
Zn68 Zn 0.5896 0.73059 0.11235 0.0
C69 C 0.52925 0.69185 0.99496 0.0
N70 N 0.52998 0.66757 0.00896 0.0
C71 C 0.55275 0.67779 0.04342 0.0
N72 N 0.56503 0.70717 0.05157 0.0
N73 N 0.5506 0.71578 0.0197 0.0
C74 C 0.53774 0.78259 0.939 0.0
O75 O 0.56466 0.80507 0.9414 0.0
O76 O 0.62336 0.72197 0.12261 0.0
Zn77 Zn 0.56601 0.75354 0.98684 0.0
N78 N 0.5636 0.71777 0.17536 0.0
C79 C 0.5141 0.69273 0.20652 0.0
C80 C 0.53427 0.70225 0.16472 0.0
C81 C 0.57358 0.72431 0.22696 0.0
N82 N 0.52394 0.6995 0.25764 0.0
C83 C 0.55312 0.7151 0.26955 0.0
O84 O 0.58847 0.7872 0.03688 0.0
C85 C 0.60322 0.79416 0.08019 0.0
O86 O 0.60555 0.77522 0.10868 0.0
H87 H 0.52642 0.69739 0.12399 0.0
H88 H 0.59698 0.73713 0.23446 0.0
C89 C 0.58558 0.75187 0.87824 0.0
C90 C 0.60671 0.7546 0.84013 0.0
C91 C 0.64121 0.76605 0.91094 0.0
C92 C 0.62035 0.76356 0.94811 0.0
N93 N 0.59305 0.75657 0.93117 0.0
N94 N 0.63394 0.76157 0.85819 0.0
H95 H 0.5634 0.74571 0.86664 0.0
C96 C 0.63296 0.71402 0.08278 0.0
O97 O 0.62302 0.71433 0.03457 0.0
O98 O 0.53287 0.75759 0.95513 0.0
H99 H 0.62576 0.76706 0.99034 0.0
H100 H 0.49075 0.68031 0.19842 0.0
H101 H 0.66303 0.77153 0.92382 0.0
Zn102 Zn 0.88066 0.53406 0.24787 0.0
C103 C 0.80664 0.50568 0.16726 0.0
N104 N 0.80167 0.47894 0.18164 0.0
C105 C 0.82793 0.48463 0.20073 0.0
N106 N 0.84789 0.5136 0.19915 0.0
N107 N 0.83457 0.52679 0.1773 0.0
C108 C 0.8227 0.59069 0.15222 0.0
O109 O 0.83723 0.59549 0.19748 0.0
O110 O 0.90238 0.51105 0.25722 0.0
Zn111 Zn 0.85505 0.56148 0.13293 0.0
N112 N 0.86356 0.53958 0.31302 0.0
C113 C 0.83306 0.55851 0.34192 0.0
C114 C 0.84815 0.55339 0.30163 0.0
C115 C 0.86537 0.53149 0.36431 0.0
N116 N 0.83451 0.55027 0.39271 0.0
C117 C 0.85036 0.53708 0.40567 0.0
O118 O 0.89351 0.59482 0.16305 0.0
C119 C 0.91366 0.59696 0.19454 0.0
O120 O 0.9101 0.57546 0.22356 0.0
H121 H 0.84761 0.56038 0.26119 0.0
H122 H 0.87793 0.52071 0.37254 0.0
C123 C 0.86275 0.55021 0.01781 0.0
C124 C 0.8757 0.54051 0.97903 0.0
C125 C 0.89728 0.52685 0.04883 0.0
C126 C 0.88508 0.53697 0.0867 0.0
N127 N 0.86797 0.54828 0.07092 0.0
N128 N 0.89248 0.52903 0.99617 0.0
H129 H 0.84958 0.55985 0.0061 0.0
C130 C 0.92475 0.51959 0.22697 0.0
O131 O 0.93214 0.54217 0.19526 0.0
O132 O 0.827 0.57654 0.11516 0.0
H133 H 0.88956 0.53618 0.12869 0.0
H134 H 0.82045 0.56916 0.33305 0.0
H135 H 0.91083 0.51772 0.06111 0.0
Zn136 Zn 0.2784 0.86347 0.14806 0.0
C137 C 0.32405 0.85868 0.02214 0.0
N138 N 0.34478 0.88502 0.04073 0.0
C139 C 0.33037 0.89079 0.07907 0.0
N140 N 0.30243 0.86868 0.08506 0.0
N141 N 0.29837 0.84881 0.04831 0.0
C142 C 0.26286 0.76495 0.03618 0.0
O143 O 0.26086 0.77173 0.08617 0.0
O144 O 0.28549 0.90383 0.16784 0.0
Zn145 Zn 0.26162 0.81784 0.02131 0.0
N146 N 0.29345 0.84931 0.20526 0.0
C147 C 0.31768 0.82272 0.22776 0.0
C148 C 0.30692 0.83418 0.18948 0.0
C149 C 0.29007 0.85326 0.25837 0.0
N150 N 0.31413 0.82638 0.28052 0.0
C151 C 0.30057 0.84129 0.29749 0.0
O152 O 0.22752 0.80415 0.0725 0.0
C153 C 0.21787 0.81097 0.1137 0.0
O154 O 0.23424 0.83381 0.14168 0.0
H155 H 0.30917 0.83087 0.14737 0.0
H156 H 0.27861 0.86476 0.26965 0.0
C157 C 0.26011 0.83286 0.90858 0.0
C158 C 0.25281 0.84649 0.86721 0.0
C159 C 0.22941 0.8614 0.93157 0.0
C160 C 0.23672 0.84802 0.97209 0.0
N161 N 0.25179 0.83398 0.95998 0.0
N162 N 0.23762 0.86037 0.88045 0.0
H163 H 0.27276 0.82216 0.90058 0.0
C164 C 0.28061 0.9186 0.13306 0.0
O165 O 0.26868 0.9061 0.08704 0.0
O166 O 0.26432 0.78224 0.99911 0.0
H167 H 0.23071 0.84907 0.01317 0.0
H168 H 0.3285 0.8107 0.21569 0.0
H169 H 0.21746 0.87271 0.94065 0.0
Zn170 Zn 0.4559 0.29539 0.14065 0.0
C171 C 0.51942 0.34187 0.24449 0.0
N172 N 0.5249 0.31954 0.23957 0.0
C173 C 0.50053 0.29861 0.21513 0.0
N174 N 0.48141 0.30789 0.20371 0.0
N175 N 0.4929 0.33471 0.22382 0.0
C176 C 0.49152 0.40365 0.21723 0.0
O177 O 0.48017 0.38635 0.17536 0.0
O178 O 0.43841 0.25111 0.1319 0.0
Zn179 Zn 0.46815 0.34765 0.25594 0.0
N180 N 0.48075 0.31649 0.07856 0.0
C181 C 0.52859 0.35216 0.04827 0.0
C182 C 0.50987 0.33466 0.08879 0.0
C183 C 0.46976 0.31485 0.02813 0.0
N184 N 0.51764 0.35087 0.99858 0.0
C185 C 0.48875 0.33267 0.98682 0.0
O186 O 0.43198 0.33654 0.21152 0.0
C187 C 0.41592 0.32117 0.17265 0.0
O188 O 0.42248 0.30497 0.14435 0.0
H189 H 0.51874 0.33606 0.12826 0.0
H190 H 0.44651 0.30055 0.02072 0.0
C191 C 0.46035 0.33376 0.37446 0.0
C192 C 0.44588 0.31284 0.41585 0.0
C193 C 0.41756 0.27698 0.34973 0.0
C194 C 0.43181 0.29748 0.30955 0.0
N195 N 0.45276 0.32538 0.32222 0.0
N196 N 0.42489 0.28512 0.40145 0.0
H197 H 0.47752 0.35597 0.3832 0.0
C198 C 0.41878 0.23445 0.16528 0.0
O199 O 0.41029 0.24656 0.20203 0.0
O200 O 0.48994 0.39198 0.26277 0.0
H201 H 0.42633 0.29123 0.26807 0.0
H202 H 0.55169 0.36684 0.05632 0.0
H203 H 0.40084 0.25471 0.33999 0.0
H204 H 0.38401 0.30726 0.07872 0.0
H205 H 0.34178 0.31383 0.05898 0.0
H206 H 0.34482 0.34491 0.22029 0.0
H207 H 0.38682 0.33865 0.24016 0.0
H208 H 0.28733 0.30637 0.18491 0.0
H209 H 0.37561 0.39356 0.12399 0.0
H210 H 0.42134 0.41949 0.07127 0.0
H211 H 0.37231 0.38465 0.92556 0.0
H212 H 0.32632 0.3582 0.97756 0.0
H213 H 0.20909 0.38456 0.16524 0.0
H214 H 0.24326 0.36643 0.18177 0.0
H215 H 0.24941 0.35596 0.01128 0.0
H216 H 0.21664 0.3755 0.99476 0.0
H217 H 0.30072 0.38044 0.04773 0.0
H218 H 0.21179 0.29579 0.10533 0.0
H219 H 0.16563 0.26824 0.15629 0.0
H220 H 0.21383 0.2951 0.30436 0.0
H221 H 0.26026 0.32312 0.25429 0.0
C222 C 0.37546 0.31518 0.11009 0.0
C223 C 0.38896 0.32265 0.16085 0.0
C224 C 0.35139 0.31899 0.09874 0.0
C225 C 0.34025 0.33003 0.13813 0.0
C226 C 0.35298 0.33635 0.18934 0.0
C227 C 0.37716 0.33291 0.20047 0.0
C228 C 0.31648 0.33667 0.12562 0.0
C229 C 0.29021 0.32264 0.15508 0.0
C230 C 0.32003 0.35744 0.08596 0.0
C231 C 0.34759 0.37367 0.05467 0.0
C232 C 0.37462 0.39128 0.08074 0.0
C233 C 0.40057 0.4061 0.05099 0.0
C234 C 0.39974 0.40366 0.99511 0.0
C235 C 0.37293 0.38649 0.96885 0.0
C236 C 0.34691 0.3716 0.99843 0.0
C237 C 0.21743 0.37796 0.13145 0.0
C238 C 0.21022 0.38148 0.07875 0.0
C239 C 0.23691 0.36747 0.14086 0.0
C240 C 0.24888 0.35947 0.09781 0.0
C241 C 0.24076 0.36208 0.04528 0.0
C242 C 0.22188 0.37315 0.03585 0.0
C243 C 0.27114 0.35008 0.10693 0.0
C244 C 0.29737 0.36379 0.07705 0.0
C245 C 0.26734 0.32873 0.14579 0.0
C246 C 0.23948 0.31175 0.17604 0.0
C247 C 0.21253 0.29597 0.14877 0.0
C248 C 0.18632 0.28025 0.17749 0.0
C249 C 0.18679 0.27998 0.23353 0.0
C250 C 0.21349 0.29535 0.26096 0.0
C251 C 0.23977 0.31113 0.23242 0.0
H252 H 0.16647 0.2678 0.2557 0.0
H253 H 0.41986 0.41513 0.97215 0.0
H254 H 0.05457 0.3558 0.17897 0.0
H255 H 1.00105 0.32525 0.18665 0.0
H256 H 0.99663 0.29414 0.02482 0.0
H257 H 0.04994 0.32405 0.01719 0.0
H258 H 0.95701 0.32524 0.13317 0.0
H259 H 0.94157 0.22368 0.01431 0.0
H260 H 0.96883 0.19771 0.99516 0.0
H261 H 0.01725 0.23047 0.14201 0.0
H262 H 0.99002 0.2563 0.16237 0.0
H263 H 0.80424 0.2279 0.06747 0.0
H264 H 0.85779 0.2606 0.06301 0.0
H265 H 0.8696 0.20616 0.17836 0.0
H266 H 0.81656 0.17361 0.18293 0.0
H267 H 0.90573 0.21811 0.09574 0.0
H268 H 0.8775 0.27118 0.21381 0.0
H269 H 0.85372 0.29837 0.24688 0.0
H270 H 0.89393 0.36162 0.12046 0.0
H271 H 0.91754 0.33446 0.08583 0.0
C272 C 0.04223 0.34215 0.14529 0.0
C273 C 0.05659 0.34209 0.0977 0.0
C274 C 0.01161 0.32491 0.14956 0.0
C275 C 0.99482 0.30716 0.1065 0.0
C276 C 0.00913 0.30724 0.05891 0.0
C277 C 0.03966 0.3244 0.05463 0.0
C278 C 0.96234 0.28852 0.11115 0.0
C279 C 0.94574 0.30182 0.12479 0.0
C280 C 0.94768 0.25789 0.10107 0.0
C281 C 0.96395 0.24216 0.08954 0.0
C282 C 0.95796 0.22525 0.04259 0.0
C283 C 0.97342 0.21057 0.03152 0.0
C284 C 0.99483 0.21252 0.06726 0.0
C285 C 1.00075 0.22907 0.11426 0.0
C286 C 0.98533 0.24376 0.12554 0.0
C287 C 0.81831 0.22288 0.09165 0.0
C288 C 0.80616 0.19802 0.12525 0.0
C289 C 0.84887 0.2417 0.08939 0.0
C290 C 0.86772 0.23587 0.12047 0.0
C291 C 0.85553 0.21107 0.15391 0.0
C292 C 0.82514 0.19248 0.1565 0.0
C293 C 0.90022 0.25482 0.11727 0.0
C294 C 0.91688 0.24157 0.10366 0.0
C295 C 0.91489 0.28537 0.12846 0.0
C296 C 0.89902 0.30054 0.14682 0.0
C297 C 0.88084 0.29056 0.19239 0.0
C298 C 0.86749 0.30606 0.21157 0.0
C299 C 0.87235 0.33173 0.18582 0.0
C300 C 0.89018 0.34171 0.14031 0.0
C301 C 0.90353 0.32625 0.12086 0.0
H302 H 0.86256 0.34407 0.2014 0.0
H303 H 0.00679 0.20116 0.05859 0.0
H304 H 0.62468 0.84241 0.01635 0.0
H305 H 0.64416 0.89365 0.04336 0.0
H306 H 0.63194 0.86778 0.20964 0.0
H307 H 0.61312 0.81623 0.18284 0.0
H308 H 0.6056 0.90543 0.16377 0.0
H309 H 0.69511 0.90158 0.18445 0.0
H310 H 0.7331 0.89028 0.15436 0.0
H311 H 0.75309 0.94852 0.02022 0.0
H312 H 0.71488 0.95982 0.04907 0.0
H313 H 0.66565 0.05173 0.2538 0.0
H314 H 0.65572 1.00118 0.24646 0.0
H315 H 0.69598 0.02024 0.08983 0.0
H316 H 0.70686 0.0711 0.09764 0.0
H317 H 0.7091 0.98465 0.13905 0.0
H318 H 0.62027 0.98636 0.10785 0.0
H319 H 0.58096 0.99763 0.12779 0.0
H320 H 0.55721 0.94326 0.26833 0.0
H321 H 0.59673 0.93205 0.24971 0.0
C322 C 0.62647 0.84763 0.05873 0.0
C323 C 0.61742 0.82531 0.09752 0.0
C324 C 0.6376 0.87691 0.07405 0.0
C325 C 0.63944 0.88445 0.12842 0.0
C326 C 0.63071 0.86234 0.16745 0.0
C327 C 0.62015 0.833 0.15214 0.0
C328 C 0.64944 0.91537 0.14362 0.0
C329 C 0.62834 0.92274 0.15968 0.0
C330 C 0.67885 0.93796 0.13594 0.0
C331 C 0.70194 0.93133 0.11867 0.0
C332 C 0.70741 0.91176 0.14826 0.0
C333 C 0.72903 0.90541 0.13148 0.0
C334 C 0.74545 0.91862 0.08533 0.0
C335 C 0.74034 0.93828 0.05593 0.0
C336 C 0.71872 0.94469 0.07252 0.0
C337 C 0.67277 0.0453 0.21806 0.0
C338 C 0.68688 0.06549 0.17614 0.0
C339 C 0.66692 0.01629 0.21379 0.0
C340 C 0.67448 0.0066 0.16706 0.0
C341 C 0.6898 0.02707 0.12623 0.0
C342 C 0.69601 0.05621 0.13075 0.0
C343 C 0.66529 0.97495 0.15961 0.0
C344 C 0.68644 0.96741 0.14431 0.0
C345 C 0.63571 0.95223 0.16671 0.0
C346 C 0.61171 0.95866 0.17776 0.0
C347 C 0.60681 0.97698 0.14324 0.0
C348 C 0.58448 0.98335 0.15428 0.0
C349 C 0.56667 0.97125 0.1994 0.0
C350 C 0.57108 0.95267 0.23347 0.0
C351 C 0.59344 0.9463 0.22269 0.0
H352 H 0.5494 0.97623 0.20789 0.0
H353 H 0.76218 0.91367 0.07241 0.0
H354 H 0.81382 0.62645 0.21973 0.0
H355 H 0.77941 0.64452 0.20956 0.0
H356 H 0.74806 0.59644 0.0611 0.0
H357 H 0.78305 0.57868 0.07051 0.0
H358 H 0.75834 0.65106 0.05007 0.0
H359 H 0.70907 0.57496 0.18375 0.0
H360 H 0.70438 0.5502 0.27049 0.0
H361 H 0.71795 0.62709 0.35503 0.0
H362 H 0.72384 0.65283 0.26938 0.0
H363 H 0.64056 0.67785 0.01454 0.0
H364 H 0.67011 0.65445 0.028 0.0
H365 H 0.69772 0.69641 0.18272 0.0
H366 H 0.66699 0.71898 0.17028 0.0
H367 H 0.68793 0.64318 0.19056 0.0
H368 H 0.74298 0.72128 0.06685 0.0
H369 H 0.75156 0.75088 0.98504 0.0
H370 H 0.73128 0.67562 0.88747 0.0
H371 H 0.72221 0.64546 0.96874 0.0
C372 C 0.79956 0.61959 0.18493 0.0
C373 C 0.80133 0.6012 0.14576 0.0
C374 C 0.77968 0.6298 0.1794 0.0
C375 C 0.76073 0.62154 0.13498 0.0
C376 C 0.76236 0.60306 0.09586 0.0
C377 C 0.78241 0.59296 0.1012 0.0
C378 C 0.74044 0.63347 0.1279 0.0
C379 C 0.74258 0.64885 0.08047 0.0
C380 C 0.72062 0.63165 0.16843 0.0
C381 C 0.71714 0.61596 0.21993 0.0
C382 C 0.71138 0.58674 0.22078 0.0
C383 C 0.70847 0.5725 0.26973 0.0
C384 C 0.71076 0.58699 0.318 0.0
C385 C 0.71615 0.61586 0.31757 0.0
C386 C 0.71935 0.63032 0.26886 0.0
C387 C 0.65309 0.68232 0.05131 0.0
C388 C 0.65182 0.70072 0.09098 0.0
C389 C 0.67006 0.66891 0.05895 0.0
C390 C 0.68679 0.6741 0.10588 0.0
C391 C 0.68518 0.69211 0.14601 0.0
C392 C 0.66774 0.70517 0.13876 0.0
C393 C 0.70597 0.66082 0.11287 0.0
C394 C 0.70359 0.6452 0.16012 0.0
C395 C 0.72611 0.66296 0.07283 0.0
C396 C 0.73163 0.68105 0.02387 0.0
C397 C 0.74015 0.71099 0.02794 0.0
C398 C 0.74513 0.72787 0.98167 0.0
C399 C 0.74189 0.71512 0.93109 0.0
C400 C 0.73374 0.68546 0.92668 0.0
C401 C 0.7287 0.66847 0.97283 0.0
H402 H 0.74575 0.72822 0.89531 0.0
H403 H 0.70837 0.57584 0.35575 0.0
H404 H 0.18241 0.75342 0.08695 0.0
H405 H 0.13026 0.72191 0.10566 0.0
H406 H 0.12911 0.79316 0.18984 0.0
H407 H 0.18199 0.82466 0.17295 0.0
H408 H 0.09545 0.74454 0.24073 0.0
H409 H 0.10227 0.773 0.05759 0.0
H410 H 0.12048 0.78059 0.96448 0.0
H411 H 0.08657 0.68776 0.94676 0.0
H412 H 0.06853 0.67965 0.04003 0.0
H413 H 0.93246 0.64646 0.13217 0.0
H414 H 0.98256 0.68806 0.12367 0.0
H415 H 0.01223 0.64978 0.24402 0.0
H416 H 0.96235 0.6086 0.25351 0.0
H417 H 0.02964 0.6887 0.08939 0.0
H418 H 0.07172 0.70159 0.30979 0.0
H419 H 0.05254 0.69782 0.40151 0.0
H420 H 0.98599 0.71517 0.34192 0.0
H421 H 1.00501 0.71947 0.24999 0.0
C422 C 0.17114 0.76246 0.10958 0.0
C423 C 0.18637 0.79172 0.12796 0.0
C424 C 0.14118 0.7444 0.12004 0.0
C425 C 0.12536 0.75527 0.14796 0.0
C426 C 0.14068 0.78424 0.16787 0.0
C427 C 0.17092 0.80226 0.15816 0.0
C428 C 0.0929 0.73632 0.15569 0.0
C429 C 0.08107 0.73242 0.20759 0.0
C430 C 0.07376 0.72102 0.11235 0.0
C431 C 0.0842 0.72575 0.05594 0.0
C432 C 0.09882 0.75422 0.03392 0.0
C433 C 0.10911 0.75861 0.98111 0.0
C434 C 0.10472 0.73468 0.94975 0.0
C435 C 0.08996 0.70628 0.9711 0.0
C436 C 0.07966 0.70177 0.02392 0.0
C437 C 0.94952 0.64714 0.15757 0.0
C438 C 0.9432 0.62406 0.19358 0.0
C439 C 0.97825 0.67091 0.15245 0.0
C440 C 1.0013 0.67228 0.18338 0.0
C441 C 0.99487 0.64965 0.22031 0.0
C442 C 0.96622 0.62594 0.22553 0.0
C443 C 0.03235 0.69617 0.17468 0.0
C444 C 0.04394 0.70099 0.12252 0.0
C445 C 0.05104 0.71282 0.21757 0.0
C446 C 0.03967 0.7106 0.27289 0.0
C447 C 0.05309 0.70474 0.31628 0.0
C448 C 0.04222 0.70248 0.36831 0.0
C449 C 0.01801 0.70616 0.37751 0.0
C450 C 1.00467 0.71221 0.33472 0.0
C451 C 0.01546 0.71452 0.28263 0.0
H452 H 0.00962 0.70438 0.41782 0.0
H453 H 0.11273 0.73813 0.90889 0.0
H454 H 0.31348 0.95324 0.21699 0.0
H455 H 0.3362 0.00663 0.2253 0.0
H456 H 0.29793 0.00987 0.07412 0.0
H457 H 0.27481 0.95651 0.06586 0.0
H458 H 0.37619 0.04852 0.1633 0.0
H459 H 0.28566 0.06804 0.0746 0.0
H460 H 0.23157 0.04259 0.06793 0.0
H461 H 0.22407 0.99404 0.21133 0.0
H462 H 0.27808 0.01947 0.21924 0.0
H463 H 0.43392 0.20147 0.10071 0.0
H464 H 0.41115 0.14768 0.09857 0.0
H465 H 0.35266 0.14059 0.2264 0.0
H466 H 0.37482 0.1939 0.22824 0.0
H467 H 0.32238 0.10352 0.15065 0.0
H468 H 0.41037 0.1251 0.24957 0.0
H469 H 0.46245 0.14309 0.27191 0.0
H470 H 0.47349 0.10794 0.12385 0.0
H471 H 0.42149 0.08926 0.10121 0.0
C472 C 0.30945 0.96523 0.18595 0.0
C473 C 0.29212 0.95053 0.14092 0.0
C474 C 0.32265 0.9958 0.19057 0.0
C475 C 0.31863 0.0123 0.15053 0.0
C476 C 0.30101 0.99762 0.10594 0.0
C477 C 0.28783 0.96707 0.10124 0.0
C478 C 0.33377 0.04493 0.15444 0.0
C479 C 0.36441 0.06057 0.16043 0.0
C480 C 0.31843 0.06066 0.15117 0.0
C481 C 0.28592 0.04546 0.14715 0.0
C482 C 0.27246 0.05201 0.1048 0.0
C483 C 0.24181 0.03757 0.10079 0.0
C484 C 0.22439 0.01664 0.13908 0.0
C485 C 0.23758 0.01017 0.18157 0.0
C486 C 0.26821 0.02456 0.18579 0.0
C487 C 0.41621 0.18841 0.12834 0.0
C488 C 0.40598 0.20201 0.16422 0.0
C489 C 0.40339 0.15768 0.12741 0.0
C490 C 0.3802 0.14 0.16243 0.0
C491 C 0.37039 0.15366 0.19879 0.0
C492 C 0.38315 0.18423 0.19979 0.0
C493 C 0.36496 0.10727 0.15965 0.0
C494 C 0.33423 0.09156 0.15333 0.0
C495 C 0.38016 0.09143 0.16341 0.0
C496 C 0.41213 0.10588 0.17368 0.0
C497 C 0.42405 0.12158 0.2215 0.0
C498 C 0.45346 0.13157 0.23451 0.0
C499 C 0.47105 0.12605 0.19987 0.0
C500 C 0.45968 0.11155 0.15126 0.0
C501 C 0.43027 0.10127 0.13831 0.0
H502 H 0.49346 0.13287 0.21075 0.0
H503 H 0.20068 0.00548 0.13589 0.0
H504 H 0.19726 0.44143 0.77246 0.0
H505 H 0.19963 0.45099 0.67627 0.0
H506 H 0.10973 0.38134 0.65856 0.0
H507 H 0.10698 0.37168 0.75464 0.0
H508 H 0.14474 0.37721 0.58429 0.0
H509 H 0.12736 0.45297 0.65223 0.0
H510 H 0.13711 0.4952 0.70958 0.0
H511 H 0.22281 0.54608 0.6395 0.0
H512 H 0.21372 0.50399 0.58223 0.0
H513 H 0.12381 0.40892 0.31498 0.0
H514 H 0.11958 0.39973 0.41164 0.0
H515 H 0.20781 0.47208 0.43419 0.0
H516 H 0.21213 0.48156 0.33799 0.0
H517 H 0.17275 0.47465 0.50634 0.0
H518 H 0.19144 0.39961 0.44031 0.0
H519 H 0.18311 0.35753 0.38387 0.0
H520 H 0.09676 0.30557 0.45085 0.0
H521 H 0.10444 0.3475 0.5072 0.0
C522 C 0.17774 0.42852 0.74853 0.0
C523 C 0.15178 0.40595 0.77167 0.0
C524 C 0.17921 0.43394 0.69333 0.0
C525 C 0.15478 0.417 0.66028 0.0
C526 C 0.12886 0.39464 0.68327 0.0
C527 C 0.12735 0.38919 0.73829 0.0
C528 C 0.1564 0.42197 0.60149 0.0
C529 C 0.15046 0.39841 0.56718 0.0
C530 C 0.16456 0.4498 0.57927 0.0
C531 C 0.16995 0.47523 0.61329 0.0
C532 C 0.14836 0.47309 0.64931 0.0
C533 C 0.15376 0.49701 0.68177 0.0
C534 C 0.18059 0.52328 0.67828 0.0
C535 C 0.20205 0.5257 0.6422 0.0
C536 C 0.19678 0.50184 0.60969 0.0
C537 C 0.14248 0.42259 0.34035 0.0
C538 C 0.16845 0.44581 0.31859 0.0
C539 C 0.13999 0.41737 0.39569 0.0
C540 C 0.16349 0.43506 0.43018 0.0
C541 C 0.18936 0.45819 0.40847 0.0
C542 C 0.19179 0.46354 0.35338 0.0
C543 C 0.16115 0.42989 0.48901 0.0
C544 C 0.16696 0.45342 0.52337 0.0
C545 C 0.15304 0.40206 0.5113 0.0
C546 C 0.1484 0.37679 0.47755 0.0
C547 C 0.17059 0.37929 0.44269 0.0
C548 C 0.166 0.35545 0.41077 0.0
C549 C 0.13939 0.32892 0.41366 0.0
C550 C 0.11735 0.32615 0.44859 0.0
C551 C 0.12181 0.34993 0.48056 0.0
H552 H 0.13589 0.31049 0.38892 0.0
H553 H 0.18474 0.54177 0.70346 0.0
H554 H 0.6599 0.12106 0.44657 0.0
H555 H 0.65438 0.11945 0.54408 0.0
H556 H 0.72852 0.20745 0.55608 0.0
H557 H 0.73422 0.20927 0.45884 0.0
H558 H 0.73438 0.17142 0.62369 0.0
H559 H 0.65845 0.19322 0.57952 0.0
H560 H 0.61394 0.18622 0.53305 0.0
H561 H 0.5636 0.1005 0.60338 0.0
H562 H 0.60791 0.10679 0.64965 0.0
H563 H 0.71646 0.18511 0.90635 0.0
H564 H 0.72217 0.19285 0.80908 0.0
H565 H 0.64734 0.10644 0.78315 0.0
H566 H 0.6414 0.09865 0.87957 0.0
H567 H 0.64271 0.1452 0.72296 0.0
H568 H 0.7184 0.12153 0.76158 0.0
H569 H 0.76268 0.12724 0.807 0.0
H570 H 0.81308 0.21527 0.74628 0.0
H571 H 0.76897 0.21021 0.70105 0.0
C572 C 0.67455 0.14037 0.46971 0.0
C573 C 0.69745 0.16536 0.44474 0.0
C574 C 0.67145 0.13937 0.52559 0.0
C575 C 0.69102 0.16337 0.55743 0.0
C576 C 0.71326 0.18863 0.53241 0.0
C577 C 0.71642 0.18962 0.47675 0.0
C578 C 0.68945 0.16161 0.61692 0.0
C579 C 0.71446 0.16617 0.64548 0.0
C580 C 0.66331 0.15414 0.64526 0.0
C581 C 0.63658 0.15039 0.61772 0.0
C582 C 0.63794 0.17278 0.58477 0.0
C583 C 0.61274 0.16895 0.5585 0.0
C584 C 0.58598 0.14291 0.56518 0.0
C585 C 0.58435 0.12065 0.59821 0.0
C586 C 0.6095 0.12435 0.62451 0.0
C587 C 0.70157 0.16758 0.87992 0.0
C588 C 0.67852 0.1412 0.90082 0.0
C589 C 0.70477 0.17208 0.8243 0.0
C590 C 0.68517 0.15019 0.78874 0.0
C591 C 0.66258 0.12373 0.80968 0.0
C592 C 0.65928 0.11931 0.86493 0.0
C593 C 0.68755 0.15472 0.72968 0.0
C594 C 0.66269 0.15069 0.70119 0.0
C595 C 0.71378 0.16254 0.70136 0.0
C596 C 0.74032 0.16561 0.72846 0.0
C597 C 0.73887 0.14219 0.75829 0.0
C598 C 0.76395 0.14529 0.78393 0.0
C599 C 0.79066 0.17164 0.77967 0.0
C600 C 0.79236 0.1949 0.74963 0.0
C601 C 0.76734 0.19192 0.72396 0.0
H602 H 0.81005 0.17399 0.79954 0.0
H603 H 0.56647 0.13998 0.54487 0.0
H604 H 0.5641 0.7586 0.78003 0.0
H605 H 0.55621 0.7522 0.6834 0.0
H606 H 0.62825 0.73535 0.66899 0.0
H607 H 0.63617 0.74123 0.76556 0.0
H608 H 0.63098 0.77375 0.59273 0.0
H609 H 0.5583 0.6794 0.6617 0.0
H610 H 0.51665 0.64599 0.71914 0.0
H611 H 0.46274 0.67664 0.64653 0.0
H612 H 0.50422 0.71055 0.58916 0.0
H613 H 0.60116 0.71879 0.32262 0.0
H614 H 0.61161 0.72633 0.41906 0.0
H615 H 0.53477 0.73487 0.44185 0.0
H616 H 0.52398 0.7268 0.34633 0.0
H617 H 0.53522 0.70007 0.51453 0.0
H618 H 0.60687 0.79489 0.44708 0.0
H619 H 0.6483 0.8298 0.39077 0.0
H620 H 0.70366 0.80015 0.46069 0.0
H621 H 0.66242 0.76477 0.51693 0.0
C622 C 0.57799 0.75298 0.75684 0.0
C623 C 0.60058 0.75003 0.78133 0.0
C624 C 0.57353 0.74952 0.70126 0.0
C625 C 0.59151 0.74308 0.66893 0.0
C626 C 0.61414 0.74036 0.69305 0.0
C627 C 0.61857 0.74371 0.74848 0.0
C628 C 0.58687 0.73925 0.60991 0.0
C629 C 0.61016 0.75739 0.57555 0.0
C630 C 0.55953 0.71834 0.58749 0.0
C631 C 0.53446 0.6977 0.62149 0.0
C632 C 0.53763 0.67916 0.65824 0.0
C633 C 0.51404 0.66011 0.69075 0.0
C634 C 0.48708 0.65925 0.68659 0.0
C635 C 0.48364 0.67736 0.64976 0.0
C636 C 0.50717 0.69647 0.6172 0.0
C637 C 0.58681 0.72278 0.34808 0.0
C638 C 0.5618 0.72232 0.32671 0.0
C639 C 0.59276 0.72703 0.40329 0.0
C640 C 0.57406 0.73133 0.43794 0.0
C641 C 0.54946 0.73143 0.41625 0.0
C642 C 0.54336 0.72688 0.36148 0.0
C643 C 0.57927 0.73477 0.497 0.0
C644 C 0.55608 0.71646 0.5315 0.0
C645 C 0.60663 0.75569 0.51949 0.0
C646 C 0.63147 0.77696 0.48578 0.0
C647 C 0.62781 0.79565 0.45013 0.0
C648 C 0.65127 0.81555 0.41829 0.0
C649 C 0.67857 0.81713 0.42204 0.0
C650 C 0.68248 0.79887 0.45776 0.0
C651 C 0.65908 0.7789 0.48965 0.0
H652 H 0.6967 0.83255 0.39736 0.0
H653 H 0.46886 0.6445 0.71182 0.0
H654 H 0.82761 0.53367 0.92128 0.0
H655 H 0.82253 0.53206 0.82312 0.0
H656 H 0.91169 0.54982 0.80656 0.0
H657 H 0.91702 0.55185 0.90372 0.0
H658 H 0.89988 0.58046 0.73412 0.0
H659 H 0.85478 0.48053 0.79721 0.0
H660 H 0.82015 0.438 0.85165 0.0
H661 H 0.74725 0.43952 0.77691 0.0
H662 H 0.78149 0.48239 0.7226 0.0
H663 H 0.89699 0.54021 0.46262 0.0
H664 H 0.90065 0.53812 0.56046 0.0
H665 H 0.81085 0.51852 0.57629 0.0
H666 H 0.80687 0.51993 0.47908 0.0
H667 H 0.82271 0.48852 0.64925 0.0
H668 H 0.86758 0.58874 0.58735 0.0
H669 H 0.90203 0.6316 0.53339 0.0
H670 H 0.97519 0.62979 0.60632 0.0
H671 H 0.94112 0.58663 0.66021 0.0
C672 C 0.84628 0.53783 0.89665 0.0
C673 C 0.87271 0.54285 0.9203 0.0
C674 C 0.84327 0.53661 0.84061 0.0
C675 C 0.86665 0.54046 0.8075 0.0
C676 C 0.89335 0.54671 0.83117 0.0
C677 C 0.8963 0.54774 0.88682 0.0
C678 C 0.86332 0.537 0.74829 0.0
C679 C 0.88318 0.56025 0.71559 0.0
C680 C 0.84131 0.51078 0.72402 0.0
C681 C 0.8207 0.48486 0.75628 0.0
C682 C 0.83137 0.47194 0.79269 0.0
C683 C 0.81181 0.44775 0.82348 0.0
C684 C 0.78152 0.43611 0.81784 0.0
C685 C 0.77072 0.44859 0.78129 0.0
C686 C 0.79019 0.47283 0.75049 0.0
C687 C 0.87778 0.53457 0.48684 0.0
C688 C 0.85166 0.53034 0.46307 0.0
C689 C 0.87998 0.53371 0.54281 0.0
C690 C 0.85617 0.52871 0.57579 0.0
C691 C 0.82955 0.52255 0.55182 0.0
C692 C 0.82736 0.52347 0.49616 0.0
C693 C 0.85934 0.53196 0.63509 0.0
C694 C 0.83944 0.50871 0.66779 0.0
C695 C 0.88129 0.55821 0.65942 0.0
C696 C 0.90181 0.58428 0.62737 0.0
C697 C 0.89101 0.59736 0.59159 0.0
C698 C 0.91046 0.62172 0.56106 0.0
C699 C 0.94078 0.63336 0.5663 0.0
C700 C 0.9517 0.62072 0.60223 0.0
C701 C 0.93233 0.59632 0.63279 0.0
H702 H 0.9558 0.65223 0.54263 0.0
H703 H 0.76641 0.41738 0.84171 0.0
H704 H 0.2971 0.88478 0.3551 0.0
H705 H 0.29081 0.88649 0.45218 0.0
H706 H 0.28952 0.80416 0.47022 0.0
H707 H 0.29519 0.80196 0.37367 0.0
H708 H 0.24669 0.80349 0.52766 0.0
H709 H 0.35094 0.86897 0.51014 0.0
H710 H 0.39679 0.91128 0.47677 0.0
H711 H 0.36688 0.97013 0.5272 0.0
H712 H 0.32095 0.92812 0.56148 0.0
H713 H 0.26191 0.80575 0.81189 0.0
H714 H 0.27211 0.80581 0.71608 0.0
H715 H 0.27144 0.88707 0.69647 0.0
H716 H 0.26202 0.88764 0.79197 0.0
H717 H 0.31548 0.88822 0.64007 0.0
H718 H 0.21177 0.82145 0.66262 0.0
H719 H 0.16808 0.77868 0.70113 0.0
H720 H 0.1977 0.72122 0.64123 0.0
H721 H 0.2418 0.76373 0.60295 0.0
C722 C 0.29512 0.86685 0.37956 0.0
C723 C 0.29638 0.84307 0.35624 0.0
C724 C 0.29189 0.86804 0.43525 0.0
C725 C 0.28985 0.84551 0.46869 0.0
C726 C 0.291 0.82179 0.44541 0.0
C727 C 0.29438 0.82066 0.39005 0.0
C728 C 0.28593 0.84612 0.52781 0.0
C729 C 0.26196 0.82189 0.55228 0.0
C730 C 0.30545 0.87026 0.56005 0.0
C731 C 0.33246 0.89543 0.53784 0.0
C732 C 0.35406 0.89092 0.51369 0.0
C733 C 0.38012 0.91485 0.49493 0.0
C734 C 0.38473 0.94338 0.49977 0.0
C735 C 0.36329 0.94803 0.52351 0.0
C736 C 0.3373 0.92418 0.54282 0.0
C737 C 0.26447 0.82394 0.78754 0.0
C738 C 0.26116 0.84674 0.80998 0.0
C739 C 0.26999 0.82376 0.73252 0.0
C740 C 0.27219 0.84628 0.69886 0.0
C741 C 0.26978 0.86943 0.72148 0.0
C742 C 0.26422 0.8696 0.77621 0.0
C743 C 0.27631 0.84559 0.63987 0.0
C744 C 0.30023 0.86983 0.61542 0.0
C745 C 0.25678 0.82139 0.6077 0.0
C746 C 0.23022 0.7958 0.63041 0.0
C747 C 0.20908 0.79972 0.65801 0.0
C748 C 0.18422 0.77552 0.67974 0.0
C749 C 0.18016 0.74726 0.67376 0.0
C750 C 0.2009 0.74313 0.6459 0.0
C751 C 0.22582 0.76726 0.62415 0.0
H752 H 0.1609 0.72855 0.6906 0.0
H753 H 0.40489 0.96187 0.48506 0.0
H754 H 0.47276 0.36663 0.47091 0.0
H755 H 0.47896 0.37392 0.56827 0.0
H756 H 0.43838 0.28027 0.5912 0.0
H757 H 0.43268 0.27267 0.49512 0.0
H758 H 0.41489 0.30526 0.65799 0.0
H759 H 0.51091 0.32251 0.60254 0.0
H760 H 0.55711 0.34788 0.55103 0.0
H761 H 0.57687 0.43021 0.62251 0.0
H762 H 0.53056 0.40536 0.67393 0.0
H763 H 0.45034 0.28548 0.92481 0.0
H764 H 0.44139 0.28583 0.82838 0.0
H765 H 0.49655 0.38031 0.82622 0.0
H766 H 0.50625 0.37985 0.92185 0.0
H767 H 0.51185 0.35977 0.74805 0.0
H768 H 0.41907 0.34367 0.80931 0.0
H769 H 0.37271 0.31996 0.86049 0.0
H770 H 0.34595 0.23847 0.7784 0.0
H771 H 0.39235 0.26159 0.72723 0.0
C772 C 0.46559 0.34758 0.49638 0.0
C773 C 0.45219 0.319 0.47444 0.0
C774 C 0.46897 0.35181 0.55223 0.0
C775 C 0.45894 0.32759 0.58709 0.0
C776 C 0.44599 0.29926 0.56526 0.0
C777 C 0.44281 0.29504 0.50993 0.0
C778 C 0.4617 0.33119 0.64643 0.0
C779 C 0.43609 0.31706 0.6778 0.0
C780 C 0.48925 0.34727 0.67224 0.0
C781 C 0.51713 0.36215 0.64157 0.0
C782 C 0.525 0.34606 0.60692 0.0
C783 C 0.55122 0.36034 0.57782 0.0
C784 C 0.56987 0.39065 0.58336 0.0
C785 C 0.56238 0.40674 0.61817 0.0
C786 C 0.53616 0.39258 0.64732 0.0
C787 C 0.45995 0.30634 0.90396 0.0
C788 C 0.47891 0.33264 0.93096 0.0
C789 C 0.45488 0.30657 0.84872 0.0
C790 C 0.46818 0.33316 0.81968 0.0
C791 C 0.48615 0.35949 0.84732 0.0
C792 C 0.49156 0.35921 0.90213 0.0
C793 C 0.46498 0.33347 0.76014 0.0
C794 C 0.49053 0.34828 0.72859 0.0
C795 C 0.43731 0.3183 0.73418 0.0
C796 C 0.40931 0.30431 0.76475 0.0
C797 C 0.4034 0.32064 0.80244 0.0
C798 C 0.37709 0.30731 0.83141 0.0
C799 C 0.35643 0.27771 0.82279 0.0
C800 C 0.36199 0.26139 0.78507 0.0
C801 C 0.38828 0.27461 0.75602 0.0
H802 H 0.33608 0.26743 0.84526 0.0
H803 H 0.59016 0.40167 0.56079 0.0
H804 H 0.25995 0.72408 0.1069 0.0
H805 H 0.25281 0.67549 0.08704 0.0
H806 H 0.25601 0.69316 0.91747 0.0
H807 H 0.26352 0.74225 0.93711 0.0
H808 H 0.20625 0.63352 0.0387 0.0
H809 H 0.28111 0.64653 0.85328 0.0
H810 H 0.32956 0.68284 0.81704 0.0
H811 H 0.35615 0.72295 0.97229 0.0
H812 H 0.30881 0.68583 0.01034 0.0
H813 H 0.15011 0.49958 0.916 0.0
H814 H 0.18027 0.55292 0.90418 0.0
H815 H 0.2434 0.55524 0.01735 0.0
H816 H 0.21236 0.50257 0.03189 0.0
H817 H 0.26413 0.60465 0.9216 0.0
H818 H 0.20747 0.56427 0.08858 0.0
H819 H 0.16346 0.52557 0.1344 0.0
H820 H 0.10811 0.54246 0.03108 0.0
H821 H 0.15197 0.58113 0.98424 0.0
C822 C 0.25951 0.71786 0.06532 0.0
C823 C 0.26186 0.73688 0.02357 0.0
C824 C 0.25541 0.69002 0.05404 0.0
C825 C 0.25368 0.68058 1.00079 0.0
C826 C 0.25743 0.70003 0.95887 0.0
C827 C 0.26156 0.728 0.97017 0.0
C828 C 0.2452 0.64951 0.98976 0.0
C829 C 0.21905 0.62748 0.01295 0.0
C830 C 0.26203 0.64135 0.95679 0.0
C831 C 0.29105 0.66353 0.93453 0.0
C832 C 0.29741 0.66286 0.8799 0.0
C833 C 0.32484 0.68345 0.85912 0.0
C834 C 0.3461 0.70493 0.89251 0.0
C835 C 0.33993 0.70593 0.94669 0.0
C836 C 0.31277 0.68511 0.96789 0.0
C837 C 0.17125 0.51126 0.93592 0.0
C838 C 0.17952 0.49674 0.97325 0.0
C839 C 0.18853 0.5417 0.929 0.0
C840 C 0.21425 0.55794 0.95942 0.0
C841 C 0.22408 0.54303 0.99245 0.0
C842 C 0.20647 0.51275 1.00025 0.0
C843 C 0.22515 0.5895 0.96945 0.0
C844 C 0.2515 0.61125 0.94654 0.0
C845 C 0.20923 0.59775 0.004 0.0
C846 C 0.18286 0.57544 0.03298 0.0
C847 C 0.18589 0.55969 0.07568 0.0
C848 C 0.16101 0.53775 0.10173 0.0
C849 C 0.13301 0.53158 0.08568 0.0
C850 C 0.12983 0.54732 0.04348 0.0
C851 C 0.15469 0.56926 0.0172 0.0
H852 H 0.11383 0.51471 0.10613 0.0
H853 H 0.36725 0.72096 0.87632 0.0
H854 H 0.5343 0.29226 0.14138 0.0
H855 H 0.54265 0.25071 0.13443 0.0
H856 H 0.47172 0.20158 0.24579 0.0
H857 H 0.4638 0.2438 0.25331 0.0
H858 H 0.51899 0.2046 0.28249 0.0
H859 H 0.47026 0.17323 0.12072 0.0
H860 H 0.4525 0.17429 0.02972 0.0
H861 H 0.53997 0.20969 0.96777 0.0
H862 H 0.55843 0.20924 0.05841 0.0
H863 H 0.61094 0.13546 0.15698 0.0
H864 H 0.56371 0.13388 0.16772 0.0
H865 H 0.60681 0.21376 0.26109 0.0
H866 H 0.65333 0.21443 0.25258 0.0
H867 H 0.55305 0.17224 0.12471 0.0
H868 H 0.56364 0.22349 0.33997 0.0
H869 H 0.57578 0.21494 0.43129 0.0
H870 H 0.55292 0.12686 0.38793 0.0
H871 H 0.54014 0.13468 0.29664 0.0
C872 C 0.51964 0.27207 0.16236 0.0
C873 C 0.49821 0.27091 0.19726 0.0
C874 C 0.52435 0.24824 0.1584 0.0
C875 C 0.50783 0.2229 0.18964 0.0
C876 C 0.48474 0.22087 0.22132 0.0
C877 C 0.48001 0.24481 0.2252 0.0
C878 C 0.51859 0.20172 0.19616 0.0
C879 C 0.52603 0.19711 0.248 0.0
C880 C 0.52654 0.19057 0.15147 0.0
C881 C 0.51576 0.19119 0.09661 0.0
C882 C 0.48578 0.18141 0.0878 0.0
C883 C 0.47557 0.18187 0.03624 0.0
C884 C 0.49509 0.19205 0.99303 0.0
C885 C 0.52487 0.20176 1.00128 0.0
C886 C 0.53521 0.20133 0.05276 0.0
C887 C 0.60982 0.15163 0.18234 0.0
C888 C 0.63547 0.17465 0.2052 0.0
C889 C 0.58299 0.15106 0.18753 0.0
C890 C 0.58159 0.1737 0.21507 0.0
C891 C 0.60701 0.19566 0.2406 0.0
C892 C 0.63366 0.19611 0.23569 0.0
C893 C 0.55544 0.17748 0.21064 0.0
C894 C 0.54527 0.17895 0.15922 0.0
C895 C 0.54398 0.18465 0.25584 0.0
C896 C 0.551 0.17972 0.31128 0.0
C897 C 0.56091 0.2022 0.35 0.0
C898 C 0.56799 0.19751 0.40177 0.0
C899 C 0.56516 0.1704 0.41538 0.0
C900 C 0.55516 0.14787 0.37733 0.0
C901 C 0.54803 0.15244 0.32555 0.0
H902 H 0.57072 0.16686 0.45542 0.0
H903 H 0.48713 0.1924 0.95313 0.0
H904 H 0.26343 0.51112 0.88903 0.0
H905 H 0.30837 0.55816 0.87095 0.0
H906 H 0.33244 0.56486 0.03794 0.0
H907 H 0.28817 0.5182 0.05616 0.0
H908 H 0.34035 0.61779 0.99433 0.0
H909 H 0.36136 0.53886 0.95136 0.0
H910 H 0.35308 0.49515 0.90009 0.0
H911 H 0.36896 0.54314 0.75276 0.0
H912 H 0.37698 0.58704 0.80325 0.0
H913 H 0.48746 0.68857 0.05986 0.0
H914 H 0.43578 0.66523 0.03922 0.0
H915 H 0.45525 0.66593 0.8705 0.0
H916 H 0.50743 0.68649 0.89297 0.0
H917 H 0.41958 0.61616 0.88924 0.0
H918 H 0.40825 0.699 0.93603 0.0
H919 H 0.41323 0.7415 0.98791 0.0
H920 H 0.37858 0.68737 0.1275 0.0
H921 H 0.37267 0.64448 0.07651 0.0
C922 C 0.27835 0.52268 0.92179 0.0
C923 C 0.27246 0.51077 0.97389 0.0
C924 C 0.3039 0.54954 0.91143 0.0
C925 C 0.32367 0.56493 0.95315 0.0
C926 C 0.31739 0.55339 0.00526 0.0
C927 C 0.29217 0.52655 0.01548 0.0
C928 C 0.35192 0.59224 0.94316 0.0
C929 C 0.35781 0.61775 0.97112 0.0
C930 C 0.37414 0.59239 0.91112 0.0
C931 C 0.36935 0.56604 0.88094 0.0
C932 C 0.36283 0.53998 0.908 0.0
C933 C 0.35824 0.5152 0.87911 0.0
C934 C 0.36038 0.51633 0.82319 0.0
C935 C 0.36722 0.54227 0.79606 0.0
C936 C 0.37179 0.5671 0.82478 0.0
C937 C 0.48082 0.68487 0.01812 0.0
C938 C 0.50129 0.68932 0.97798 0.0
C939 C 0.45098 0.67172 0.00601 0.0
C940 C 0.44095 0.66376 0.95295 0.0
C941 C 0.46208 0.67147 0.91189 0.0
C942 C 0.49198 0.68354 0.92446 0.0
C943 C 0.40914 0.64218 0.94272 0.0
C944 C 0.4023 0.61735 0.91088 0.0
C945 C 0.386 0.64276 0.97127 0.0
C946 C 0.39038 0.6687 1.00252 0.0
C947 C 0.40213 0.69635 0.97798 0.0
C948 C 0.40513 0.72046 0.0072 0.0
C949 C 0.39678 0.71728 0.06103 0.0
C950 C 0.38515 0.68987 0.08581 0.0
C951 C 0.38178 0.66561 0.0567 0.0
H952 H 0.39909 0.73601 0.08337 0.0
H953 H 0.35683 0.49712 0.80088 0.0
H954 H 0.87357 0.47715 0.16921 0.0
H955 H 0.87272 0.43006 0.16678 0.0
H956 H 0.79024 0.38946 0.25255 0.0
H957 H 0.7929 0.43688 0.2597 0.0
H958 H 0.81279 0.3587 0.2715 0.0
H959 H 0.79738 0.3989 0.10655 0.0
H960 H 0.81318 0.43678 0.03596 0.0
H961 H 0.8859 0.42432 0.99722 0.0
H962 H 0.87064 0.38658 0.06803 0.0
H963 H 0.71531 0.24578 0.079 0.0
H964 H 0.75624 0.29588 0.08599 0.0
H965 H 0.80117 0.26636 0.19212 0.0
H966 H 0.75923 0.21629 0.18732 0.0
H967 H 0.81232 0.33304 0.07973 0.0
H968 H 0.82327 0.31212 0.30286 0.0
H969 H 0.79686 0.27385 0.37142 0.0
H970 H 0.71514 0.24664 0.28999 0.0
H971 H 0.74102 0.28498 0.2215 0.0
C972 C 0.85644 0.45858 0.19075 0.0
C973 C 0.83343 0.46062 0.21512 0.0
C974 C 0.85551 0.43143 0.18818 0.0
C975 C 0.83083 0.40579 0.20766 0.0
C976 C 0.80948 0.40865 0.2368 0.0
C977 C 0.81091 0.43582 0.24075 0.0
C978 C 0.82433 0.37577 0.19113 0.0
C979 C 0.81326 0.35323 0.22966 0.0
C980 C 0.82441 0.36825 0.13641 0.0
C981 C 0.8331 0.39022 0.09284 0.0
C982 C 0.81675 0.40429 0.08294 0.0
C983 C 0.82562 0.42574 0.04299 0.0
C984 C 0.85058 0.43302 0.01223 0.0
C985 C 0.86661 0.41872 0.02118 0.0
C986 C 0.85788 0.39729 0.0612 0.0
C987 C 0.73458 0.24973 0.10163 0.0
C988 C 0.73415 0.2272 0.1325 0.0
C989 C 0.75806 0.27846 0.10569 0.0
C990 C 0.78147 0.28512 0.14088 0.0
C991 C 0.78311 0.26185 0.16544 0.0
C992 C 0.75932 0.23306 0.16194 0.0
C993 C 0.79977 0.31602 0.15985 0.0
C994 C 0.813 0.33866 0.1218 0.0
C995 C 0.80007 0.32353 0.21465 0.0
C996 C 0.78419 0.30099 0.25652 0.0
C997 C 0.79968 0.29794 0.29962 0.0
C998 C 0.7848 0.27628 0.33851 0.0
C999 C 0.75436 0.25776 0.33494 0.0
C1000 C 0.73872 0.26095 0.29265 0.0
C1001 C 0.75348 0.28265 0.25383 0.0
H1002 H 0.74289 0.24104 0.36509 0.0
H1003 H 0.85746 0.44968 0.9814 0.0
H1004 H 0.53816 0.83469 0.93333 0.0
H1005 H 0.49562 0.84162 0.92834 0.0
H1006 H 0.43877 0.74837 0.90638 0.0
H1007 H 0.48113 0.74097 0.91368 0.0
H1008 H 0.41592 0.77762 0.85715 0.0
H1009 H 0.45551 0.77929 0.03278 0.0
H1010 H 0.49383 0.79658 0.10238 0.0
H1011 H 0.50515 0.8833 0.09274 0.0
H1012 H 0.46704 0.86657 0.02246 0.0
H1013 H 0.32104 0.80967 0.06127 0.0
H1014 H 0.34909 0.78689 0.03018 0.0
H1015 H 0.37846 0.84452 0.89293 0.0
H1016 H 0.34995 0.86722 0.92403 0.0
H1017 H 0.41026 0.82614 0.02396 0.0
H1018 H 0.39484 0.80085 0.79374 0.0
H1019 H 0.35477 0.7811 0.72712 0.0
H1020 H 0.29144 0.73747 0.85213 0.0
H1021 H 0.331 0.75661 0.91946 0.0
C1022 C 0.51666 0.81563 0.92683 0.0
C1023 C 0.51288 0.78718 0.9256 0.0
C1024 C 0.49233 0.81964 0.92396 0.0
C1025 C 0.46382 0.79529 0.91984 0.0
C1026 C 0.46039 0.76727 0.91214 0.0
C1027 C 0.48465 0.76311 0.91607 0.0
C1028 C 0.43781 0.79864 0.93085 0.0
C1029 C 0.4147 0.7884 0.89339 0.0
C1030 C 0.43572 0.81172 0.9792 0.0
C1031 C 0.45845 0.82166 0.02202 0.0
C1032 C 0.46615 0.80204 0.04531 0.0
C1033 C 0.48789 0.81176 0.0849 0.0
C1034 C 0.50195 0.84103 0.10193 0.0
C1035 C 0.49425 0.86063 0.07948 0.0
C1036 C 0.47256 0.85102 0.03979 0.0
C1037 C 0.33196 0.81619 0.02276 0.0
C1038 C 0.33259 0.83948 0.99404 0.0
C1039 C 0.34835 0.80348 0.00545 0.0
C1040 C 0.3658 0.814 0.95926 0.0
C1041 C 0.3648 0.83583 0.92829 0.0
C1042 C 0.3485 0.84872 0.94592 0.0
C1043 C 0.38892 0.80625 0.94935 0.0
C1044 C 0.41146 0.81549 0.98748 0.0
C1045 C 0.39016 0.79202 0.90207 0.0
C1046 C 0.36603 0.7805 0.86184 0.0
C1047 C 0.37239 0.787 0.80709 0.0
C1048 C 0.34972 0.77592 0.76917 0.0
C1049 C 0.32057 0.75815 0.78542 0.0
C1050 C 0.31401 0.75141 0.83965 0.0
C1051 C 0.33656 0.76251 0.87774 0.0
H1052 H 0.30307 0.74955 0.75598 0.0
H1053 H 0.5188 0.84853 0.13255 0.0
H1054 H 0.78749 0.53264 0.23467 0.0
H1055 H 0.73558 0.51736 0.24522 0.0
H1056 H 0.71669 0.4729 0.09237 0.0
H1057 H 0.76839 0.48658 0.08378 0.0
H1058 H 0.68739 0.51283 0.20836 0.0
H1059 H 0.66112 0.40496 0.10288 0.0
H1060 H 0.6863 0.37787 0.07611 0.0
H1061 H 0.74788 0.41793 0.20518 0.0
H1062 H 0.72299 0.44511 0.23294 0.0
H1063 H 0.53318 0.3893 0.18115 0.0
H1064 H 0.58174 0.43312 0.17266 0.0
H1065 H 0.61211 0.40461 0.308 0.0
H1066 H 0.56319 0.3614 0.31797 0.0
H1067 H 0.635 0.40402 0.20065 0.0
H1068 H 0.6166 0.46087 0.32218 0.0
H1069 H 0.59695 0.4893 0.3659 0.0
H1070 H 0.63091 0.55283 0.23886 0.0
H1071 H 0.64915 0.52386 0.19228 0.0
C1072 C 0.7725 0.52096 0.20202 0.0
C1073 C 0.78177 0.51059 0.15857 0.0
C1074 C 0.7427 0.512 0.20824 0.0
C1075 C 0.72197 0.49286 0.17068 0.0
C1076 C 0.73213 0.48684 0.12278 0.0
C1077 C 0.76177 0.49506 0.11736 0.0
C1078 C 0.69038 0.47503 0.18625 0.0
C1079 C 0.67563 0.48907 0.20658 0.0
C1080 C 0.67555 0.44389 0.18526 0.0
C1081 C 0.69038 0.42727 0.16955 0.0
C1082 C 0.67999 0.4079 0.12561 0.0
C1083 C 0.69424 0.39259 0.11024 0.0
C1084 C 0.71878 0.39631 0.13879 0.0
C1085 C 0.729 0.41521 0.18297 0.0
C1086 C 0.71483 0.43057 0.19854 0.0
C1087 C 0.54948 0.39353 0.21166 0.0
C1088 C 0.54408 0.37231 0.25125 0.0
C1089 C 0.57746 0.41847 0.20629 0.0
C1090 C 0.60056 0.42228 0.23986 0.0
C1091 C 0.59451 0.40234 0.28211 0.0
C1092 C 0.56653 0.37766 0.28785 0.0
C1093 C 0.63158 0.44181 0.22318 0.0
C1094 C 0.6463 0.42787 0.20231 0.0
C1095 C 0.64654 0.47298 0.2263 0.0
C1096 C 0.63355 0.48941 0.25253 0.0
C1097 C 0.61898 0.48022 0.30222 0.0
C1098 C 0.60822 0.49663 0.32785 0.0
C1099 C 0.61249 0.52275 0.30502 0.0
C1100 C 0.62751 0.53252 0.25648 0.0
C1101 C 0.63787 0.51594 0.23022 0.0
H1102 H 0.60429 0.5355 0.32508 0.0
H1103 H 0.72983 0.38448 0.12679 0.0
H1104 H 0.90932 0.46396 0.26403 0.0
H1105 H 0.9356 0.43684 0.2467 0.0
H1106 H 1.00351 0.51241 0.16371 0.0
H1107 H 0.97766 0.53911 0.18008 0.0
H1108 H 0.98336 0.46277 0.10458 0.0
H1109 H 0.01424 0.495 0.28947 0.0
H1110 H 1.00485 0.49612 0.38618 0.0
H1111 H 0.96523 0.40215 0.39386 0.0
H1112 H 0.9741 0.40047 0.29699 0.0
H1113 H 0.12524 0.47002 0.14479 0.0
H1114 H 0.08276 0.46726 0.19062 0.0
H1115 H 0.02463 0.39599 0.08651 0.0
H1116 H 0.06729 0.39961 0.03942 0.0
H1117 H 0.02944 0.42991 0.2413 0.0
H1118 H 0.97737 0.4139 0.03506 0.0
H1119 H 0.99096 0.41774 0.93929 0.0
H1120 H 0.07834 0.48707 0.97642 0.0
H1121 H 0.06498 0.48385 0.07208 0.0
C1122 C 0.93002 0.47479 0.24263 0.0
C1123 C 0.94127 0.5036 0.22302 0.0
C1124 C 0.94496 0.45928 0.2327 0.0
C1125 C 0.97139 0.47253 0.20343 0.0
C1126 C 0.98299 0.50159 0.18573 0.0
C1127 C 0.96816 0.51689 0.19533 0.0
C1128 C 0.98721 0.45664 0.18904 0.0
C1129 C 0.99289 0.455 0.13452 0.0
C1130 C 0.99971 0.44649 0.22791 0.0
C1131 C 0.9945 0.44758 0.28599 0.0
C1132 C 1.00331 0.47456 0.31173 0.0
C1133 C 0.99813 0.4753 0.36656 0.0
C1134 C 0.98436 0.44921 0.39611 0.0
C1135 C 0.97583 0.42233 0.3709 0.0
C1136 C 0.98094 0.42148 0.31607 0.0
C1137 C 0.10339 0.45293 0.13341 0.0
C1138 C 0.09939 0.43478 0.08921 0.0
C1139 C 0.07909 0.45128 0.15967 0.0
C1140 C 0.05048 0.43166 0.14161 0.0
C1141 C 0.04649 0.41142 0.10093 0.0
C1142 C 0.07083 0.41334 0.07427 0.0
C1143 C 0.02613 0.4369 0.15702 0.0
C1144 C 0.01891 0.43656 0.21139 0.0
C1145 C 0.01248 0.44578 0.11815 0.0
C1146 C 0.02033 0.44839 0.06057 0.0
C1147 C 0.99942 0.43001 0.02262 0.0
C1148 C 0.00707 0.43208 0.96841 0.0
C1149 C 0.03552 0.45256 0.95179 0.0
C1150 C 0.05633 0.47116 0.98929 0.0
C1151 C 0.04874 0.46924 0.04346 0.0
H1152 H 0.04142 0.45406 0.90985 0.0
H1153 H 0.98037 0.44983 0.43856 0.0
H1154 H 0.56684 0.03671 0.17612 0.0
H1155 H 0.5137 0.0133 0.16999 0.0
H1156 H 0.51475 0.08001 0.27242 0.0
H1157 H 0.56878 0.10404 0.27895 0.0
H1158 H 0.46632 0.01764 0.29161 0.0
H1159 H 0.50638 0.08987 0.1555 0.0
H1160 H 0.53921 0.11907 0.08156 0.0
H1161 H 0.50834 0.04096 0.98642 0.0
H1162 H 0.47507 0.01127 0.05936 0.0
H1163 H 0.33936 0.9461 0.06873 0.0
H1164 H 0.37732 0.9901 0.11486 0.0
H1165 H 0.39863 0.93508 0.21171 0.0
H1166 H 0.35969 0.89153 0.16805 0.0
H1167 H 0.43092 0.00842 0.10413 0.0
H1168 H 0.43573 0.96337 0.31574 0.0
H1169 H 0.40001 0.93221 0.38423 0.0
H1170 H 0.33929 0.95888 0.32976 0.0
H1171 H 0.37468 0.99021 0.2606 0.0
C1172 C 0.55594 0.04643 0.19787 0.0
C1173 C 0.57214 0.07249 0.2275 0.0
C1174 C 0.52548 0.03294 0.19433 0.0
C1175 C 0.51036 0.04514 0.22014 0.0
C1176 C 0.52611 0.07034 0.25212 0.0
C1177 C 0.5569 0.084 0.25575 0.0
C1178 C 0.47838 0.0319 0.20998 0.0
C1179 C 0.45834 0.01599 0.25091 0.0
C1180 C 0.46795 0.03057 0.15714 0.0
C1181 C 0.48807 0.04833 0.11299 0.0
C1182 C 0.50661 0.07887 0.11888 0.0
C1183 C 0.5253 0.09553 0.07713 0.0
C1184 C 0.52595 0.08187 0.02948 0.0
C1185 C 0.50778 0.05153 0.02333 0.0
C1186 C 0.48885 0.0348 0.06475 0.0
C1187 C 0.35119 0.94354 0.10197 0.0
C1188 C 0.34618 0.91555 0.11614 0.0
C1189 C 0.37308 0.96865 0.12791 0.0
C1190 C 0.3909 0.96615 0.16731 0.0
C1191 C 0.38475 0.93787 0.18301 0.0
C1192 C 0.36247 0.91284 0.15792 0.0
C1193 C 0.41885 0.99242 0.18508 0.0
C1194 C 0.43833 0.01083 0.14539 0.0
C1195 C 0.4285 0.99642 0.23914 0.0
C1196 C 0.40797 0.97927 0.28309 0.0
C1197 C 0.41496 0.96298 0.31887 0.0
C1198 C 0.39467 0.94513 0.35765 0.0
C1199 C 0.36742 0.94364 0.36161 0.0
C1200 C 0.36042 0.96006 0.32674 0.0
C1201 C 0.38056 0.97782 0.28763 0.0
H1202 H 0.35171 0.92973 0.39159 0.0
H1203 H 0.54051 0.0948 0.99729 0.0
H1204 H 0.4919 0.43251 0.12698 0.0
H1205 H 0.516 0.48516 0.11198 0.0
H1206 H 0.54884 0.50108 0.27436 0.0
H1207 H 0.52432 0.44769 0.29011 0.0
H1208 H 0.5257 0.53619 0.24416 0.0
H1209 H 0.58987 0.50681 0.17217 0.0
H1210 H 0.60838 0.48016 0.11862 0.0
H1211 H 0.5891 0.51141 0.97379 0.0
H1212 H 0.57056 0.53833 0.02654 0.0
H1213 H 0.57439 0.67914 0.14606 0.0
H1214 H 0.58181 0.64146 0.18801 0.0
H1215 H 0.55277 0.59028 0.04221 0.0
H1216 H 0.54831 0.62922 0.99902 0.0
H1217 H 0.59043 0.5802 0.08604 0.0
H1218 H 0.50471 0.58517 0.15576 0.0
H1219 H 0.48456 0.61288 0.20193 0.0
H1220 H 0.53847 0.62405 0.33944 0.0
H1221 H 0.55915 0.59665 0.29375 0.0
C1222 C 0.5043 0.44706 0.15967 0.0
C1223 C 0.50627 0.43588 0.20975 0.0
C1224 C 0.51817 0.47723 0.15089 0.0
C1225 C 0.53466 0.49703 0.1917 0.0
C1226 C 0.5364 0.4861 0.24221 0.0
C1227 C 0.52239 0.45567 0.25114 0.0
C1228 C 0.54935 0.52905 0.18081 0.0
C1229 C 0.54037 0.54599 0.21025 0.0
C1230 C 0.56835 0.54173 0.1362 0.0
C1231 C 0.57922 0.52513 0.10386 0.0
C1232 C 0.58979 0.50826 0.12905 0.0
C1233 C 0.60017 0.49295 0.09873 0.0
C1234 C 0.6 0.49415 0.04281 0.0
C1235 C 0.58938 0.51062 0.01716 0.0
C1236 C 0.57904 0.52603 0.04738 0.0
C1237 C 0.57077 0.66058 0.12233 0.0
C1238 C 0.56092 0.65745 0.06911 0.0
C1239 C 0.57459 0.63867 0.14665 0.0
C1240 C 0.56714 0.61254 0.11886 0.0
C1241 C 0.55869 0.61011 0.06484 0.0
C1242 C 0.55579 0.63232 0.04028 0.0
C1243 C 0.5646 0.58617 0.14625 0.0
C1244 C 0.57622 0.57043 0.12049 0.0
C1245 C 0.54717 0.5741 0.19282 0.0
C1246 C 0.53359 0.58909 0.2213 0.0
C1247 C 0.51216 0.59347 0.19592 0.0
C1248 C 0.50072 0.60917 0.22191 0.0
C1249 C 0.51028 0.62026 0.27354 0.0
C1250 C 0.53113 0.61547 0.29943 0.0
C1251 C 0.5427 0.59984 0.27354 0.0
H1252 H 0.50151 0.63254 0.2935 0.0
H1253 H 0.60801 0.48225 0.01935 0.0
loop_
_geom_bond_atom_site_label_1
_geom_bond_atom_site_label_2
_geom_bond_distance
_geom_bond_site_symmetry_2
_ccdc_geom_bond_type
Zn0 N4 2.020 . S
Zn0 O8 2.019 1_554 S
Zn0 N10 2.119 1_554 S
Zn0 O18 1.975 . S
C1 N2 1.334 . S
C1 N5 1.336 . S
N2 C1 1.334 . S
N2 C3 1.334 . S
C3 N2 1.334 . S
C3 N4 1.336 . S
N4 Zn0 2.020 . S
N4 C3 1.336 . S
N4 N5 1.354 . S
N5 C1 1.336 . S
N5 N4 1.354 . S
N5 Zn9 2.020 . S
C6 O7 1.244 . S
C6 O30 1.257 . S
O7 C6 1.244 . S
O8 Zn0 2.019 1_556 S
O8 C28 1.257 1_556 S
Zn9 N5 2.020 . S
Zn9 O16 1.975 . S
Zn9 N25 2.119 . S
Zn9 O30 2.019 . S
N10 Zn0 2.119 1_556 S
N10 C12 1.334 . S
N10 C13 1.328 . S
C11 C12 1.391 . S
C11 N14 1.329 . S
C11 H32 0.930 . S
C12 N10 1.334 . S
C12 C11 1.391 . S
C12 H19 0.930 . S
C13 N10 1.328 . S
C13 C15 1.392 . S
C13 H20 0.930 . S
N14 C11 1.329 . S
N14 C15 1.331 . S
C15 C13 1.392 . S
C15 N14 1.331 . S
O16 Zn9 1.975 . S
O16 C17 1.252 . S
C17 O16 1.252 . S
C17 O18 1.252 . S
O18 Zn0 1.975 . S
O18 C17 1.252 . S
H19 C12 0.930 . S
H20 C13 0.930 . S
C21 C22 1.392 . S
C21 N25 1.328 . S
C21 H27 0.930 . S
C22 C21 1.392 . S
C22 N26 1.331 . S
C23 C24 1.391 . S
C23 N26 1.329 . S
C23 H33 0.930 . S
C24 C23 1.391 . S
C24 N25 1.334 . S
C24 H31 0.930 . S
N25 Zn9 2.119 . S
N25 C21 1.328 . S
N25 C24 1.334 . S
N26 C22 1.331 . S
N26 C23 1.329 . S
H27 C21 0.930 . S
C28 O8 1.257 1_554 S
C28 O29 1.244 . S
O29 C28 1.244 . S
O30 C6 1.257 . S
O30 Zn9 2.019 . S
H31 C24 0.930 . S
H32 C11 0.930 . S
H33 C23 0.930 . S
Zn34 N38 2.020 . S
Zn34 O42 2.019 . S
Zn34 N44 2.119 . S
Zn34 O52 1.975 . S
C35 N36 1.334 . S
C35 N39 1.336 . S
N36 C35 1.334 . S
N36 C37 1.334 . S
C37 N36 1.334 . S
C37 N38 1.336 . S
N38 Zn34 2.020 . S
N38 C37 1.336 . S
N38 N39 1.354 . S
N39 C35 1.336 . S
N39 N38 1.354 . S
N39 Zn43 2.020 . S
C40 O41 1.244 . S
C40 O64 1.257 . S
O41 C40 1.244 . S
O42 Zn34 2.019 . S
O42 C62 1.257 . S
Zn43 N39 2.020 . S
Zn43 O50 1.975 . S
Zn43 N59 2.119 . S
Zn43 O64 2.019 . S
N44 Zn34 2.119 . S
N44 C46 1.334 . S
N44 C47 1.328 . S
C45 C46 1.391 . S
C45 N48 1.329 . S
C45 H66 0.930 . S
C46 N44 1.334 . S
C46 C45 1.391 . S
C46 H53 0.930 . S
C47 N44 1.328 . S
C47 C49 1.392 . S
C47 H54 0.930 . S
N48 C45 1.329 . S
N48 C49 1.331 . S
C49 C47 1.392 . S
C49 N48 1.331 . S
O50 Zn43 1.975 . S
O50 C51 1.252 . S
C51 O50 1.252 . S
C51 O52 1.252 . S
O52 Zn34 1.975 . S
O52 C51 1.252 . S
H53 C46 0.930 . S
H54 C47 0.930 . S
C55 C56 1.392 1_554 S
C55 N59 1.328 . S
C55 H61 0.930 . S
C56 C55 1.392 1_556 S
C56 N60 1.331 . S
C57 C58 1.391 . S
C57 N60 1.329 1_554 S
C57 H67 0.930 1_554 S
C58 C57 1.391 . S
C58 N59 1.334 . S
C58 H65 0.930 . S
N59 Zn43 2.119 . S
N59 C55 1.328 . S
N59 C58 1.334 . S
N60 C56 1.331 . S
N60 C57 1.329 1_556 S
H61 C55 0.930 . S
C62 O42 1.257 . S
C62 O63 1.244 . S
O63 C62 1.244 . S
O64 C40 1.257 . S
O64 Zn43 2.019 . S
H65 C58 0.930 . S
H66 C45 0.930 . S
H67 C57 0.930 1_556 S
Zn68 N72 2.020 . S
Zn68 O76 2.019 . S
Zn68 N78 2.119 . S
Zn68 O86 1.975 . S
C69 N70 1.334 . S
C69 N73 1.336 . S
N70 C69 1.334 . S
N70 C71 1.334 . S
C71 N70 1.334 . S
C71 N72 1.336 . S
N72 Zn68 2.020 . S
N72 C71 1.336 . S
N72 N73 1.354 . S
N73 C69 1.336 . S
N73 N72 1.354 . S
N73 Zn77 2.020 . S
C74 O75 1.244 . S
C74 O98 1.257 1_554 S
O75 C74 1.244 . S
O76 Zn68 2.019 . S
O76 C96 1.257 . S
Zn77 N73 2.020 . S
Zn77 O84 1.975 . S
Zn77 N93 2.119 1_554 S
Zn77 O98 2.019 1_554 S
N78 Zn68 2.119 . S
N78 C80 1.334 . S
N78 C81 1.328 . S
C79 C80 1.391 . S
C79 N82 1.329 . S
C79 H100 0.930 . S
C80 N78 1.334 . S
C80 C79 1.391 . S
C80 H87 0.930 . S
C81 N78 1.328 . S
C81 C83 1.392 . S
C81 H88 0.930 . S
N82 C79 1.329 . S
N82 C83 1.331 . S
C83 C81 1.392 . S
C83 N82 1.331 . S
O84 Zn77 1.975 . S
O84 C85 1.252 . S
C85 O84 1.252 . S
C85 O86 1.252 . S
O86 Zn68 1.975 . S
O86 C85 1.252 . S
H87 C80 0.930 . S
H88 C81 0.930 . S
C89 C90 1.392 . S
C89 N93 1.328 . S
C89 H95 0.930 . S
C90 C89 1.392 . S
C90 N94 1.331 . S
C91 C92 1.391 . S
C91 N94 1.329 . S
C91 H101 0.930 . S
C92 C91 1.391 . S
C92 N93 1.334 . S
C92 H99 0.930 . S
N93 Zn77 2.119 1_556 S
N93 C89 1.328 . S
N93 C92 1.334 . S
N94 C90 1.331 . S
N94 C91 1.329 . S
H95 C89 0.930 . S
C96 O76 1.257 . S
C96 O97 1.244 . S
O97 C96 1.244 . S
O98 C74 1.257 1_556 S
O98 Zn77 2.019 1_556 S
H99 C92 0.930 . S
H100 C79 0.930 . S
H101 C91 0.930 . S
Zn102 N106 2.020 . S
Zn102 O110 2.019 . S
Zn102 N112 2.119 . S
Zn102 O120 1.975 . S
C103 N104 1.334 . S
C103 N107 1.336 . S
N104 C103 1.334 . S
N104 C105 1.334 . S
C105 N104 1.334 . S
C105 N106 1.336 . S
N106 Zn102 2.020 . S
N106 C105 1.336 . S
N106 N107 1.354 . S
N107 C103 1.336 . S
N107 N106 1.354 . S
N107 Zn111 2.020 . S
C108 O109 1.244 . S
C108 O132 1.257 . S
O109 C108 1.244 . S
O110 Zn102 2.019 . S
O110 C130 1.257 . S
Zn111 N107 2.020 . S
Zn111 O118 1.975 . S
Zn111 N127 2.119 . S
Zn111 O132 2.019 . S
N112 Zn102 2.119 . S
N112 C114 1.334 . S
N112 C115 1.328 . S
C113 C114 1.391 . S
C113 N116 1.329 . S
C113 H134 0.930 . S
C114 N112 1.334 . S
C114 C113 1.391 . S
C114 H121 0.930 . S
C115 N112 1.328 . S
C115 C117 1.392 . S
C115 H122 0.930 . S
N116 C113 1.329 . S
N116 C117 1.331 . S
C117 C115 1.392 . S
C117 N116 1.331 . S
O118 Zn111 1.975 . S
O118 C119 1.252 . S
C119 O118 1.252 . S
C119 O120 1.252 . S
O120 Zn102 1.975 . S
O120 C119 1.252 . S
H121 C114 0.930 . S
H122 C115 0.930 . S
C123 C124 1.392 1_554 S
C123 N127 1.328 . S
C123 H129 0.930 . S
C124 C123 1.392 1_556 S
C124 N128 1.331 . S
C125 C126 1.391 . S
C125 N128 1.329 1_554 S
C125 H135 0.930 1_554 S
C126 C125 1.391 . S
C126 N127 1.334 . S
C126 H133 0.930 . S
N127 Zn111 2.119 . S
N127 C123 1.328 . S
N127 C126 1.334 . S
N128 C124 1.331 . S
N128 C125 1.329 1_556 S
H129 C123 0.930 . S
C130 O110 1.257 . S
C130 O131 1.244 . S
O131 C130 1.244 . S
O132 C108 1.257 . S
O132 Zn111 2.019 . S
H133 C126 0.930 . S
H134 C113 0.930 . S
H135 C125 0.930 1_556 S
Zn136 N140 2.020 . S
Zn136 O144 2.019 . S
Zn136 N146 2.119 . S
Zn136 O154 1.975 . S
C137 N138 1.334 . S
C137 N141 1.336 . S
N138 C137 1.334 . S
N138 C139 1.334 . S
C139 N138 1.334 . S
C139 N140 1.336 . S
N140 Zn136 2.020 . S
N140 C139 1.336 . S
N140 N141 1.354 . S
N141 C137 1.336 . S
N141 N140 1.354 . S
N141 Zn145 2.020 . S
C142 O143 1.244 . S
C142 O166 1.257 1_554 S
O143 C142 1.244 . S
O144 Zn136 2.019 . S
O144 C164 1.257 . S
Zn145 N141 2.020 . S
Zn145 O152 1.975 . S
Zn145 N161 2.119 1_554 S
Zn145 O166 2.019 1_554 S
N146 Zn136 2.119 . S
N146 C148 1.334 . S
N146 C149 1.328 . S
C147 C148 1.391 . S
C147 N150 1.329 . S
C147 H168 0.930 . S
C148 N146 1.334 . S
C148 C147 1.391 . S
C148 H155 0.930 . S
C149 N146 1.328 . S
C149 C151 1.392 . S
C149 H156 0.930 . S
N150 C147 1.329 . S
N150 C151 1.331 . S
C151 C149 1.392 . S
C151 N150 1.331 . S
O152 Zn145 1.975 . S
O152 C153 1.252 . S
C153 O152 1.252 . S
C153 O154 1.252 . S
O154 Zn136 1.975 . S
O154 C153 1.252 . S
H155 C148 0.930 . S
H156 C149 0.930 . S
C157 C158 1.392 . S
C157 N161 1.328 . S
C157 H163 0.930 . S
C158 C157 1.392 . S
C158 N162 1.331 . S
C159 C160 1.391 . S
C159 N162 1.329 . S
C159 H169 0.930 . S
C160 C159 1.391 . S
C160 N161 1.334 . S
C160 H167 0.930 . S
N161 Zn145 2.119 1_556 S
N161 C157 1.328 . S
N161 C160 1.334 . S
N162 C158 1.331 . S
N162 C159 1.329 . S
H163 C157 0.930 . S
C164 O144 1.257 . S
C164 O165 1.244 . S
O165 C164 1.244 . S
O166 C142 1.257 1_556 S
O166 Zn145 2.019 1_556 S
H167 C160 0.930 . S
H168 C147 0.930 . S
H169 C159 0.930 . S
Zn170 N174 2.020 . S
Zn170 O178 2.019 . S
Zn170 N180 2.119 . S
Zn170 O188 1.975 . S
C171 N172 1.334 . S
C171 N175 1.336 . S
N172 C171 1.334 . S
N172 C173 1.334 . S
C173 N172 1.334 . S
C173 N174 1.336 . S
N174 Zn170 2.020 . S
N174 C173 1.336 . S
N174 N175 1.354 . S
N175 C171 1.336 . S
N175 N174 1.354 . S
N175 Zn179 2.020 . S
C176 O177 1.244 . S
C176 O200 1.257 . S
O177 C176 1.244 . S
O178 Zn170 2.019 . S
O178 C198 1.257 . S
Zn179 N175 2.020 . S
Zn179 O186 1.975 . S
Zn179 N195 2.119 . S
Zn179 O200 2.019 . S
N180 Zn170 2.119 . S
N180 C182 1.334 . S
N180 C183 1.328 . S
C181 C182 1.391 . S
C181 N184 1.329 1_554 S
C181 H202 0.930 1_554 S
C182 N180 1.334 . S
C182 C181 1.391 . S
C182 H189 0.930 . S
C183 N180 1.328 . S
C183 C185 1.392 1_554 S
C183 H190 0.930 . S
N184 C181 1.329 1_556 S
N184 C185 1.331 . S
C185 C183 1.392 1_556 S
C185 N184 1.331 . S
O186 Zn179 1.975 . S
O186 C187 1.252 . S
C187 O186 1.252 . S
C187 O188 1.252 . S
O188 Zn170 1.975 . S
O188 C187 1.252 . S
H189 C182 0.930 . S
H190 C183 0.930 . S
C191 C192 1.392 . S
C191 N195 1.328 . S
C191 H197 0.930 . S
C192 C191 1.392 . S
C192 N196 1.331 . S
C193 C194 1.391 . S
C193 N196 1.329 . S
C193 H203 0.930 . S
C194 C193 1.391 . S
C194 N195 1.334 . S
C194 H201 0.930 . S
N195 Zn179 2.119 . S
N195 C191 1.328 . S
N195 C194 1.334 . S
N196 C192 1.331 . S
N196 C193 1.329 . S
H197 C191 0.930 . S
C198 O178 1.257 . S
C198 O199 1.244 . S
O199 C198 1.244 . S
O200 C176 1.257 . S
O200 Zn179 2.019 . S
H201 C194 0.930 . S
H202 C181 0.930 1_556 S
H203 C193 0.930 . S
H204 C222 0.951 . S
H205 C224 0.951 . S
H206 C226 0.950 . S
H207 C227 0.950 . S
H208 C229 0.950 . S
H209 C232 0.950 . S
H210 C233 0.950 . S
H211 C235 0.950 . S
H212 C236 0.950 . S
H213 C237 0.951 . S
H214 C239 0.951 . S
H215 C241 0.950 . S
H216 C242 0.950 . S
H217 C244 0.950 . S
H218 C247 0.950 . S
H219 C248 0.950 . S
H220 C250 0.950 . S
H221 C251 0.950 . S
C222 H204 0.951 . S
C222 C223 1.366 . S
C222 C224 1.388 . S
C223 C222 1.366 . S
C223 C227 1.385 . S
C224 H205 0.951 . S
C224 C222 1.388 . S
C224 C225 1.366 . S
C225 C224 1.366 . S
C225 C226 1.414 . S
C225 C228 1.499 . S
C226 H206 0.950 . S
C226 C225 1.414 . S
C226 C227 1.374 . S
C227 H207 0.950 . S
C227 C223 1.385 . S
C227 C226 1.374 . S
C228 C225 1.499 . S
C228 C229 1.373 . S
C228 C230 1.389 . S
C229 H208 0.950 . S
C229 C228 1.373 . S
C229 C245 1.377 . S
C230 C228 1.389 . S
C230 C231 1.524 . S
C230 C244 1.377 . S
C231 C230 1.524 . S
C231 C232 1.397 . S
C231 C236 1.363 1_554 S
C232 H209 0.950 . S
C232 C231 1.397 . S
C232 C233 1.334 . S
C233 H210 0.950 . S
C233 C232 1.334 . S
C233 C234 1.287 1_554 S
C234 C233 1.287 1_556 S
C234 C235 1.524 . S
C234 H253 0.913 . S
C235 H211 0.950 . S
C235 C234 1.524 . S
C235 C236 1.415 . S
C236 H212 0.950 . S
C236 C231 1.363 1_556 S
C236 C235 1.415 . S
C237 H213 0.951 . S
C237 C238 1.366 . S
C237 C239 1.388 . S
C238 C237 1.366 . S
C238 C242 1.385 . S
C239 H214 0.951 . S
C239 C237 1.388 . S
C239 C240 1.366 . S
C240 C239 1.366 . S
C240 C241 1.414 . S
C240 C243 1.499 . S
C241 H215 0.950 . S
C241 C240 1.414 . S
C241 C242 1.374 . S
C242 H216 0.950 . S
C242 C238 1.385 . S
C242 C241 1.374 . S
C243 C240 1.499 . S
C243 C244 1.373 . S
C243 C245 1.389 . S
C244 H217 0.950 . S
C244 C230 1.377 . S
C244 C243 1.373 . S
C245 C229 1.377 . S
C245 C243 1.389 . S
C245 C246 1.524 . S
C246 C245 1.524 . S
C246 C247 1.397 . S
C246 C251 1.363 . S
C247 H218 0.950 . S
C247 C246 1.397 . S
C247 C248 1.334 . S
C248 H219 0.950 . S
C248 C247 1.334 . S
C248 C249 1.287 . S
C249 C248 1.287 . S
C249 C250 1.524 . S
C249 H252 0.999 . S
C250 H220 0.950 . S
C250 C249 1.524 . S
C250 C251 1.415 . S
C251 H221 0.950 . S
C251 C246 1.363 . S
C251 C250 1.415 . S
H252 C249 0.999 . S
H253 C234 0.913 . S
H254 C272 0.951 . S
H255 C274 0.951 . S
H256 C276 0.950 1_655 S
H257 C277 0.950 . S
H258 C279 0.950 . S
H259 C282 0.950 . S
H260 C283 0.950 . S
H261 C285 0.950 . S
H262 C286 0.950 . S
H263 C287 0.951 . S
H264 C289 0.951 . S
H265 C291 0.950 . S
H266 C292 0.950 . S
H267 C294 0.950 . S
H268 C297 0.950 . S
H269 C298 0.950 . S
H270 C300 0.950 . S
H271 C301 0.950 . S
C272 H254 0.951 . S
C272 C273 1.366 . S
C272 C274 1.388 . S
C273 C272 1.366 . S
C273 C277 1.385 . S
C274 H255 0.951 . S
C274 C272 1.388 . S
C274 C275 1.366 1_455 S
C275 C274 1.366 1_655 S
C275 C276 1.414 1_655 S
C275 C278 1.499 . S
C276 H256 0.950 1_455 S
C276 C275 1.414 1_455 S
C276 C277 1.374 . S
C277 H257 0.950 . S
C277 C273 1.385 . S
C277 C276 1.374 . S
C278 C275 1.499 . S
C278 C279 1.373 . S
C278 C280 1.389 . S
C279 H258 0.950 . S
C279 C278 1.373 . S
C279 C295 1.377 . S
C280 C278 1.389 . S
C280 C281 1.524 . S
C280 C294 1.377 . S
C281 C280 1.524 . S
C281 C282 1.397 . S
C281 C286 1.363 . S
C282 H259 0.950 . S
C282 C281 1.397 . S
C282 C283 1.334 1_554 S
C283 H260 0.950 . S
C283 C282 1.334 1_556 S
C283 C284 1.287 . S
C284 C283 1.287 . S
C284 C285 1.524 1_556 S
C284 H303 0.913 . S
C285 H261 0.950 . S
C285 C284 1.524 1_554 S
C285 C286 1.415 . S
C286 H262 0.950 . S
C286 C281 1.363 . S
C286 C285 1.415 . S
C287 H263 0.951 . S
C287 C288 1.366 . S
C287 C289 1.388 . S
C288 C287 1.366 . S
C288 C292 1.385 . S
C289 H264 0.951 . S
C289 C287 1.388 . S
C289 C290 1.366 . S
C290 C289 1.366 . S
C290 C291 1.414 . S
C290 C293 1.499 . S
C291 H265 0.950 . S
C291 C290 1.414 . S
C291 C292 1.374 . S
C292 H266 0.950 . S
C292 C288 1.385 . S
C292 C291 1.374 . S
C293 C290 1.499 . S
C293 C294 1.373 . S
C293 C295 1.389 . S
C294 H267 0.950 . S
C294 C280 1.377 . S
C294 C293 1.373 . S
C295 C279 1.377 . S
C295 C293 1.389 . S
C295 C296 1.524 . S
C296 C295 1.524 . S
C296 C297 1.397 . S
C296 C301 1.363 . S
C297 H268 0.950 . S
C297 C296 1.397 . S
C297 C298 1.334 . S
C298 H269 0.950 . S
C298 C297 1.334 . S
C298 C299 1.287 . S
C299 C298 1.287 . S
C299 C300 1.524 . S
C299 H302 0.999 . S
C300 H270 0.950 . S
C300 C299 1.524 . S
C300 C301 1.415 . S
C301 H271 0.950 . S
C301 C296 1.363 . S
C301 C300 1.415 . S
H302 C299 0.999 . S
H303 C284 0.913 . S
H304 C322 0.951 . S
H305 C324 0.951 . S
H306 C326 0.950 . S
H307 C327 0.950 . S
H308 C329 0.950 . S
H309 C332 0.950 . S
H310 C333 0.950 . S
H311 C335 0.950 . S
H312 C336 0.950 . S
H313 C337 0.951 . S
H314 C339 0.951 1_565 S
H315 C341 0.950 . S
H316 C342 0.950 . S
H317 C344 0.950 . S
H318 C347 0.950 . S
H319 C348 0.950 . S
H320 C350 0.950 . S
H321 C351 0.950 . S
C322 H304 0.951 . S
C322 C323 1.366 . S
C322 C324 1.388 . S
C323 C322 1.366 . S
C323 C327 1.385 . S
C324 H305 0.951 . S
C324 C322 1.388 . S
C324 C325 1.366 . S
C325 C324 1.366 . S
C325 C326 1.414 . S
C325 C328 1.499 . S
C326 H306 0.950 . S
C326 C325 1.414 . S
C326 C327 1.374 . S
C327 H307 0.950 . S
C327 C323 1.385 . S
C327 C326 1.374 . S
C328 C325 1.499 . S
C328 C329 1.373 . S
C328 C330 1.389 . S
C329 H308 0.950 . S
C329 C328 1.373 . S
C329 C345 1.377 . S
C330 C328 1.389 . S
C330 C331 1.524 . S
C330 C344 1.377 . S
C331 C330 1.524 . S
C331 C332 1.397 . S
C331 C336 1.363 . S
C332 H309 0.950 . S
C332 C331 1.397 . S
C332 C333 1.334 . S
C333 H310 0.950 . S
C333 C332 1.334 . S
C333 C334 1.287 . S
C334 C333 1.287 . S
C334 C335 1.524 . S
C334 H353 0.913 . S
C335 H311 0.950 . S
C335 C334 1.524 . S
C335 C336 1.415 . S
C336 H312 0.950 . S
C336 C331 1.363 . S
C336 C335 1.415 . S
C337 H313 0.951 . S
C337 C338 1.366 . S
C337 C339 1.388 . S
C338 C337 1.366 . S
C338 C342 1.385 . S
C339 H314 0.951 1_545 S
C339 C337 1.388 . S
C339 C340 1.366 1_545 S
C340 C339 1.366 1_565 S
C340 C341 1.414 1_565 S
C340 C343 1.498 . S
C341 H315 0.950 . S
C341 C340 1.414 1_545 S
C341 C342 1.374 . S
C342 H316 0.950 . S
C342 C338 1.385 . S
C342 C341 1.374 . S
C343 C340 1.498 . S
C343 C344 1.373 . S
C343 C345 1.389 . S
C344 H317 0.950 . S
C344 C330 1.377 . S
C344 C343 1.373 . S
C345 C329 1.377 . S
C345 C343 1.389 . S
C345 C346 1.524 . S
C346 C345 1.524 . S
C346 C347 1.397 . S
C346 C351 1.363 . S
C347 H318 0.950 . S
C347 C346 1.397 . S
C347 C348 1.334 . S
C348 H319 0.950 . S
C348 C347 1.334 . S
C348 C349 1.287 . S
C349 C348 1.287 . S
C349 C350 1.524 . S
C349 H352 0.999 . S
C350 H320 0.950 . S
C350 C349 1.524 . S
C350 C351 1.415 . S
C351 H321 0.950 . S
C351 C346 1.363 . S
C351 C350 1.415 . S
H352 C349 0.999 . S
H353 C334 0.913 . S
H354 C372 0.951 . S
H355 C374 0.951 . S
H356 C376 0.950 . S
H357 C377 0.950 . S
H358 C379 0.950 . S
H359 C382 0.950 . S
H360 C383 0.950 . S
H361 C385 0.950 . S
H362 C386 0.950 . S
H363 C387 0.951 . S
H364 C389 0.951 . S
H365 C391 0.950 . S
H366 C392 0.950 . S
H367 C394 0.950 . S
H368 C397 0.950 . S
H369 C398 0.950 . S
H370 C400 0.950 . S
H371 C401 0.950 . S
C372 H354 0.951 . S
C372 C373 1.366 . S
C372 C374 1.388 . S
C373 C372 1.366 . S
C373 C377 1.385 . S
C374 H355 0.951 . S
C374 C372 1.388 . S
C374 C375 1.366 . S
C375 C374 1.366 . S
C375 C376 1.414 . S
C375 C378 1.499 . S
C376 H356 0.950 . S
C376 C375 1.414 . S
C376 C377 1.374 . S
C377 H357 0.950 . S
C377 C373 1.385 . S
C377 C376 1.374 . S
C378 C375 1.499 . S
C378 C379 1.373 . S
C378 C380 1.389 . S
C379 H358 0.950 . S
C379 C378 1.373 . S
C379 C395 1.377 . S
C380 C378 1.389 . S
C380 C381 1.524 . S
C380 C394 1.377 . S
C381 C380 1.524 . S
C381 C382 1.397 . S
C381 C386 1.363 . S
C382 H359 0.950 . S
C382 C381 1.397 . S
C382 C383 1.334 . S
C383 H360 0.950 . S
C383 C382 1.334 . S
C383 C384 1.287 . S
C384 C383 1.287 . S
C384 C385 1.524 . S
C384 H403 0.913 . S
C385 H361 0.950 . S
C385 C384 1.524 . S
C385 C386 1.415 . S
C386 H362 0.950 . S
C386 C381 1.363 . S
C386 C385 1.415 . S
C387 H363 0.951 . S
C387 C388 1.366 . S
C387 C389 1.388 . S
C388 C387 1.366 . S
C388 C392 1.385 . S
C389 H364 0.951 . S
C389 C387 1.388 . S
C389 C390 1.366 . S
C390 C389 1.366 . S
C390 C391 1.414 . S
C390 C393 1.499 . S
C391 H365 0.950 . S
C391 C390 1.414 . S
C391 C392 1.374 . S
C392 H366 0.950 . S
C392 C388 1.385 . S
C392 C391 1.374 . S
C393 C390 1.499 . S
C393 C394 1.373 . S
C393 C395 1.389 . S
C394 H367 0.950 . S
C394 C380 1.377 . S
C394 C393 1.373 . S
C395 C379 1.377 . S
C395 C393 1.389 . S
C395 C396 1.524 . S
C396 C395 1.524 . S
C396 C397 1.397 . S
C396 C401 1.363 1_554 S
C397 H368 0.950 . S
C397 C396 1.397 . S
C397 C398 1.334 1_554 S
C398 H369 0.950 . S
C398 C397 1.334 1_556 S
C398 C399 1.287 . S
C399 C398 1.287 . S
C399 C400 1.524 . S
C399 H402 0.999 . S
C400 H370 0.950 . S
C400 C399 1.524 . S
C400 C401 1.415 . S
C401 H371 0.950 . S
C401 C396 1.363 1_556 S
C401 C400 1.415 . S
H402 C399 0.999 . S
H403 C384 0.913 . S
H404 C422 0.951 . S
H405 C424 0.951 . S
H406 C426 0.950 . S
H407 C427 0.950 . S
H408 C429 0.950 . S
H409 C432 0.950 . S
H410 C433 0.950 . S
H411 C435 0.950 . S
H412 C436 0.950 . S
H413 C437 0.951 . S
H414 C439 0.951 . S
H415 C441 0.950 1_455 S
H416 C442 0.950 . S
H417 C444 0.950 . S
H418 C447 0.950 . S
H419 C448 0.950 . S
H420 C450 0.950 . S
H421 C451 0.950 . S
C422 H404 0.951 . S
C422 C423 1.366 . S
C422 C424 1.388 . S
C423 C422 1.366 . S
C423 C427 1.385 . S
C424 H405 0.951 . S
C424 C422 1.388 . S
C424 C425 1.366 . S
C425 C424 1.366 . S
C425 C426 1.414 . S
C425 C428 1.499 . S
C426 H406 0.950 . S
C426 C425 1.414 . S
C426 C427 1.374 . S
C427 H407 0.950 . S
C427 C423 1.385 . S
C427 C426 1.374 . S
C428 C425 1.499 . S
C428 C429 1.373 . S
C428 C430 1.389 . S
C429 H408 0.950 . S
C429 C428 1.373 . S
C429 C445 1.377 . S
C430 C428 1.389 . S
C430 C431 1.524 . S
C430 C444 1.377 . S
C431 C430 1.524 . S
C431 C432 1.397 1_554 S
C431 C436 1.363 . S
C432 H409 0.950 . S
C432 C431 1.397 1_556 S
C432 C433 1.334 . S
C433 H410 0.950 . S
C433 C432 1.334 . S
C433 C434 1.287 . S
C434 C433 1.287 . S
C434 C435 1.524 1_556 S
C434 H453 0.913 . S
C435 H411 0.950 . S
C435 C434 1.524 1_554 S
C435 C436 1.415 . S
C436 H412 0.950 . S
C436 C431 1.363 . S
C436 C435 1.415 . S
C437 H413 0.951 . S
C437 C438 1.366 . S
C437 C439 1.388 . S
C438 C437 1.366 . S
C438 C442 1.385 . S
C439 H414 0.951 . S
C439 C437 1.388 . S
C439 C440 1.355 1_655 S
C440 C439 1.355 1_455 S
C440 C441 1.417 1_455 S
C440 C443 1.506 . S
C441 H415 0.950 1_655 S
C441 C440 1.417 1_655 S
C441 C442 1.374 . S
C442 H416 0.950 . S
C442 C438 1.385 . S
C442 C441 1.374 . S
C443 C440 1.506 . S
C443 C444 1.373 . S
C443 C445 1.389 . S
C444 H417 0.950 . S
C444 C430 1.377 . S
C444 C443 1.373 . S
C445 C429 1.377 . S
C445 C443 1.389 . S
C445 C446 1.524 . S
C446 C445 1.524 . S
C446 C447 1.397 . S
C446 C451 1.363 . S
C447 H418 0.950 . S
C447 C446 1.397 . S
C447 C448 1.334 . S
C448 H419 0.950 . S
C448 C447 1.334 . S
C448 C449 1.287 . S
C449 C448 1.287 . S
C449 C450 1.524 . S
C449 H452 0.991 1_455 S
C450 H420 0.950 . S
C450 C449 1.524 . S
C450 C451 1.415 . S
C451 H421 0.950 . S
C451 C446 1.363 . S
C451 C450 1.415 . S
H452 C449 0.991 1_655 S
H453 C434 0.913 . S
H454 C472 0.951 . S
H455 C474 0.951 . S
H456 C476 0.950 1_545 S
H457 C477 0.950 . S
H458 C479 0.950 . S
H459 C482 0.950 . S
H460 C483 0.950 1_556 S
H461 C485 0.950 . S
H462 C486 0.950 . S
H463 C487 0.951 . S
H464 C489 0.951 . S
H465 C491 0.950 . S
H466 C492 0.950 . S
H467 C494 0.950 . S
H468 C497 0.950 . S
H469 C498 0.950 . S
H470 C500 0.950 . S
H471 C501 0.950 . S
C472 H454 0.951 . S
C472 C473 1.366 . S
C472 C474 1.388 . S
C473 C472 1.366 . S
C473 C477 1.385 . S
C474 H455 0.951 . S
C474 C472 1.388 . S
C474 C475 1.366 1_565 S
C475 C474 1.366 1_545 S
C475 C476 1.414 1_545 S
C475 C478 1.499 . S
C476 H456 0.950 1_565 S
C476 C475 1.414 1_565 S
C476 C477 1.374 . S
C477 H457 0.950 . S
C477 C473 1.385 . S
C477 C476 1.374 . S
C478 C475 1.499 . S
C478 C479 1.373 . S
C478 C480 1.389 . S
C479 H458 0.950 . S
C479 C478 1.373 . S
C479 C495 1.377 . S
C480 C478 1.389 . S
C480 C481 1.524 . S
C480 C494 1.377 . S
C481 C480 1.524 . S
C481 C482 1.397 . S
C481 C486 1.363 . S
C482 H459 0.950 . S
C482 C481 1.397 . S
C482 C483 1.334 . S
C483 H460 0.950 1_554 S
C483 C482 1.334 . S
C483 C484 1.287 . S
C484 C483 1.287 . S
C484 C485 1.524 . S
C484 H503 0.913 . S
C485 H461 0.950 . S
C485 C484 1.524 . S
C485 C486 1.415 . S
C486 H462 0.950 . S
C486 C481 1.363 . S
C486 C485 1.415 . S
C487 H463 0.951 . S
C487 C488 1.366 . S
C487 C489 1.388 . S
C488 C487 1.366 . S
C488 C492 1.385 . S
C489 H464 0.951 . S
C489 C487 1.388 . S
C489 C490 1.366 . S
C490 C489 1.366 . S
C490 C491 1.414 . S
C490 C493 1.499 . S
C491 H465 0.950 . S
C491 C490 1.414 . S
C491 C492 1.374 . S
C492 H466 0.950 . S
C492 C488 1.385 . S
C492 C491 1.374 . S
C493 C490 1.499 . S
C493 C494 1.373 . S
C493 C495 1.389 . S
C494 H467 0.950 . S
C494 C480 1.377 . S
C494 C493 1.373 . S
C495 C479 1.377 . S
C495 C493 1.389 . S
C495 C496 1.524 . S
C496 C495 1.524 . S
C496 C497 1.397 . S
C496 C501 1.363 . S
C497 H468 0.950 . S
C497 C496 1.397 . S
C497 C498 1.334 . S
C498 H469 0.950 . S
C498 C497 1.334 . S
C498 C499 1.287 . S
C499 C498 1.287 . S
C499 C500 1.524 . S
C499 H502 0.999 . S
C500 H470 0.950 . S
C500 C499 1.524 . S
C500 C501 1.415 . S
C501 H471 0.950 . S
C501 C496 1.363 . S
C501 C500 1.415 . S
H502 C499 0.999 . S
H503 C484 0.913 . S
H504 C522 0.951 . S
H505 C524 0.951 . S
H506 C526 0.950 . S
H507 C527 0.950 . S
H508 C529 0.950 . S
H509 C532 0.950 . S
H510 C533 0.950 . S
H511 C535 0.950 . S
H512 C536 0.950 . S
H513 C537 0.951 . S
H514 C539 0.951 . S
H515 C541 0.950 . S
H516 C542 0.950 . S
H517 C544 0.950 . S
H518 C547 0.950 . S
H519 C548 0.950 . S
H520 C550 0.950 . S
H521 C551 0.950 . S
C522 H504 0.951 . S
C522 C523 1.366 . S
C522 C524 1.388 . S
C523 C522 1.366 . S
C523 C527 1.385 . S
C524 H505 0.951 . S
C524 C522 1.388 . S
C524 C525 1.366 . S
C525 C524 1.366 . S
C525 C526 1.414 . S
C525 C528 1.499 . S
C526 H506 0.950 . S
C526 C525 1.414 . S
C526 C527 1.374 . S
C527 H507 0.950 . S
C527 C523 1.385 . S
C527 C526 1.374 . S
C528 C525 1.499 . S
C528 C529 1.373 . S
C528 C530 1.389 . S
C529 H508 0.950 . S
C529 C528 1.373 . S
C529 C545 1.377 . S
C530 C528 1.389 . S
C530 C531 1.524 . S
C530 C544 1.377 . S
C531 C530 1.524 . S
C531 C532 1.397 . S
C531 C536 1.363 . S
C532 H509 0.950 . S
C532 C531 1.397 . S
C532 C533 1.334 . S
C533 H510 0.950 . S
C533 C532 1.334 . S
C533 C534 1.287 . S
C534 C533 1.287 . S
C534 C535 1.524 . S
C534 H553 0.913 . S
C535 H511 0.950 . S
C535 C534 1.524 . S
C535 C536 1.415 . S
C536 H512 0.950 . S
C536 C531 1.363 . S
C536 C535 1.415 . S
C537 H513 0.951 . S
C537 C538 1.366 . S
C537 C539 1.388 . S
C538 C537 1.366 . S
C538 C542 1.385 . S
C539 H514 0.951 . S
C539 C537 1.388 . S
C539 C540 1.366 . S
C540 C539 1.366 . S
C540 C541 1.414 . S
C540 C543 1.499 . S
C541 H515 0.950 . S
C541 C540 1.414 . S
C541 C542 1.374 . S
C542 H516 0.950 . S
C542 C538 1.385 . S
C542 C541 1.374 . S
C543 C540 1.499 . S
C543 C544 1.373 . S
C543 C545 1.389 . S
C544 H517 0.950 . S
C544 C530 1.377 . S
C544 C543 1.373 . S
C545 C529 1.377 . S
C545 C543 1.389 . S
C545 C546 1.524 . S
C546 C545 1.524 . S
C546 C547 1.397 . S
C546 C551 1.363 . S
C547 H518 0.950 . S
C547 C546 1.397 . S
C547 C548 1.334 . S
C548 H519 0.950 . S
C548 C547 1.334 . S
C548 C549 1.287 . S
C549 C548 1.287 . S
C549 C550 1.524 . S
C549 H552 0.999 . S
C550 H520 0.950 . S
C550 C549 1.524 . S
C550 C551 1.415 . S
C551 H521 0.950 . S
C551 C546 1.363 . S
C551 C550 1.415 . S
H552 C549 0.999 . S
H553 C534 0.913 . S
H554 C572 0.951 . S
H555 C574 0.951 . S
H556 C576 0.950 . S
H557 C577 0.950 . S
H558 C579 0.950 . S
H559 C582 0.950 . S
H560 C583 0.950 . S
H561 C585 0.950 . S
H562 C586 0.950 . S
H563 C587 0.951 . S
H564 C589 0.951 . S
H565 C591 0.950 . S
H566 C592 0.950 . S
H567 C594 0.950 . S
H568 C597 0.950 . S
H569 C598 0.950 . S
H570 C600 0.950 . S
H571 C601 0.950 . S
C572 H554 0.951 . S
C572 C573 1.366 . S
C572 C574 1.388 . S
C573 C572 1.366 . S
C573 C577 1.385 . S
C574 H555 0.951 . S
C574 C572 1.388 . S
C574 C575 1.366 . S
C575 C574 1.366 . S
C575 C576 1.414 . S
C575 C578 1.499 . S
C576 H556 0.950 . S
C576 C575 1.414 . S
C576 C577 1.374 . S
C577 H557 0.950 . S
C577 C573 1.385 . S
C577 C576 1.374 . S
C578 C575 1.499 . S
C578 C579 1.373 . S
C578 C580 1.389 . S
C579 H558 0.950 . S
C579 C578 1.373 . S
C579 C595 1.377 . S
C580 C578 1.389 . S
C580 C581 1.524 . S
C580 C594 1.377 . S
C581 C580 1.524 . S
C581 C582 1.397 . S
C581 C586 1.363 . S
C582 H559 0.950 . S
C582 C581 1.397 . S
C582 C583 1.334 . S
C583 H560 0.950 . S
C583 C582 1.334 . S
C583 C584 1.287 . S
C584 C583 1.287 . S
C584 C585 1.524 . S
C584 H603 0.913 . S
C585 H561 0.950 . S
C585 C584 1.524 . S
C585 C586 1.415 . S
C586 H562 0.950 . S
C586 C581 1.363 . S
C586 C585 1.415 . S
C587 H563 0.951 . S
C587 C588 1.366 . S
C587 C589 1.388 . S
C588 C587 1.366 . S
C588 C592 1.385 . S
C589 H564 0.951 . S
C589 C587 1.388 . S
C589 C590 1.366 . S
C590 C589 1.366 . S
C590 C591 1.414 . S
C590 C593 1.499 . S
C591 H565 0.950 . S
C591 C590 1.414 . S
C591 C592 1.374 . S
C592 H566 0.950 . S
C592 C588 1.385 . S
C592 C591 1.374 . S
C593 C590 1.499 . S
C593 C594 1.373 . S
C593 C595 1.389 . S
C594 H567 0.950 . S
C594 C580 1.377 . S
C594 C593 1.373 . S
C595 C579 1.377 . S
C595 C593 1.389 . S
C595 C596 1.524 . S
C596 C595 1.524 . S
C596 C597 1.397 . S
C596 C601 1.363 . S
C597 H568 0.950 . S
C597 C596 1.397 . S
C597 C598 1.334 . S
C598 H569 0.950 . S
C598 C597 1.334 . S
C598 C599 1.287 . S
C599 C598 1.287 . S
C599 C600 1.524 . S
C599 H602 0.999 . S
C600 H570 0.950 . S
C600 C599 1.524 . S
C600 C601 1.415 . S
C601 H571 0.950 . S
C601 C596 1.363 . S
C601 C600 1.415 . S
H602 C599 0.999 . S
H603 C584 0.913 . S
H604 C622 0.951 . S
H605 C624 0.951 . S
H606 C626 0.950 . S
H607 C627 0.950 . S
H608 C629 0.950 . S
H609 C632 0.950 . S
H610 C633 0.950 . S
H611 C635 0.950 . S
H612 C636 0.950 . S
H613 C637 0.951 . S
H614 C639 0.951 . S
H615 C641 0.950 . S
H616 C642 0.950 . S
H617 C644 0.950 . S
H618 C647 0.950 . S
H619 C648 0.950 . S
H620 C650 0.950 . S
H621 C651 0.950 . S
C622 H604 0.951 . S
C622 C623 1.366 . S
C622 C624 1.388 . S
C623 C622 1.366 . S
C623 C627 1.385 . S
C624 H605 0.951 . S
C624 C622 1.388 . S
C624 C625 1.366 . S
C625 C624 1.366 . S
C625 C626 1.414 . S
C625 C628 1.499 . S
C626 H606 0.950 . S
C626 C625 1.414 . S
C626 C627 1.374 . S
C627 H607 0.950 . S
C627 C623 1.385 . S
C627 C626 1.374 . S
C628 C625 1.499 . S
C628 C629 1.373 . S
C628 C630 1.389 . S
C629 H608 0.950 . S
C629 C628 1.373 . S
C629 C645 1.377 . S
C630 C628 1.389 . S
C630 C631 1.524 . S
C630 C644 1.377 . S
C631 C630 1.524 . S
C631 C632 1.397 . S
C631 C636 1.363 . S
C632 H609 0.950 . S
C632 C631 1.397 . S
C632 C633 1.334 . S
C633 H610 0.950 . S
C633 C632 1.334 . S
C633 C634 1.287 . S
C634 C633 1.287 . S
C634 C635 1.524 . S
C634 H653 0.913 . S
C635 H611 0.950 . S
C635 C634 1.524 . S
C635 C636 1.415 . S
C636 H612 0.950 . S
C636 C631 1.363 . S
C636 C635 1.415 . S
C637 H613 0.951 . S
C637 C638 1.366 . S
C637 C639 1.388 . S
C638 C637 1.366 . S
C638 C642 1.385 . S
C639 H614 0.951 . S
C639 C637 1.388 . S
C639 C640 1.366 . S
C640 C639 1.366 . S
C640 C641 1.414 . S
C640 C643 1.499 . S
C641 H615 0.950 . S
C641 C640 1.414 . S
C641 C642 1.374 . S
C642 H616 0.950 . S
C642 C638 1.385 . S
C642 C641 1.374 . S
C643 C640 1.499 . S
C643 C644 1.373 . S
C643 C645 1.389 . S
C644 H617 0.950 . S
C644 C630 1.377 . S
C644 C643 1.373 . S
C645 C629 1.377 . S
C645 C643 1.389 . S
C645 C646 1.524 . S
C646 C645 1.524 . S
C646 C647 1.397 . S
C646 C651 1.363 . S
C647 H618 0.950 . S
C647 C646 1.397 . S
C647 C648 1.334 . S
C648 H619 0.950 . S
C648 C647 1.334 . S
C648 C649 1.287 . S
C649 C648 1.287 . S
C649 C650 1.524 . S
C649 H652 0.999 . S
C650 H620 0.950 . S
C650 C649 1.524 . S
C650 C651 1.415 . S
C651 H621 0.950 . S
C651 C646 1.363 . S
C651 C650 1.415 . S
H652 C649 0.999 . S
H653 C634 0.913 . S
H654 C672 0.951 . S
H655 C674 0.951 . S
H656 C676 0.950 . S
H657 C677 0.950 . S
H658 C679 0.950 . S
H659 C682 0.950 . S
H660 C683 0.950 . S
H661 C685 0.950 . S
H662 C686 0.950 . S
H663 C687 0.951 . S
H664 C689 0.951 . S
H665 C691 0.950 . S
H666 C692 0.950 . S
H667 C694 0.950 . S
H668 C697 0.950 . S
H669 C698 0.950 . S
H670 C700 0.981 . S
H671 C701 0.950 . S
C672 H654 0.951 . S
C672 C673 1.366 . S
C672 C674 1.388 . S
C673 C672 1.366 . S
C673 C677 1.385 . S
C674 H655 0.951 . S
C674 C672 1.388 . S
C674 C675 1.366 . S
C675 C674 1.366 . S
C675 C676 1.414 . S
C675 C678 1.499 . S
C676 H656 0.950 . S
C676 C675 1.414 . S
C676 C677 1.374 . S
C677 H657 0.950 . S
C677 C673 1.385 . S
C677 C676 1.374 . S
C678 C675 1.499 . S
C678 C679 1.373 . S
C678 C680 1.389 . S
C679 H658 0.950 . S
C679 C678 1.373 . S
C679 C695 1.377 . S
C680 C678 1.389 . S
C680 C681 1.524 . S
C680 C694 1.377 . S
C681 C680 1.524 . S
C681 C682 1.397 . S
C681 C686 1.363 . S
C682 H659 0.950 . S
C682 C681 1.397 . S
C682 C683 1.334 . S
C683 H660 0.950 . S
C683 C682 1.334 . S
C683 C684 1.287 . S
C684 C683 1.287 . S
C684 C685 1.524 . S
C684 H703 0.913 . S
C685 H661 0.950 . S
C685 C684 1.524 . S
C685 C686 1.415 . S
C686 H662 0.950 . S
C686 C681 1.363 . S
C686 C685 1.415 . S
C687 H663 0.951 . S
C687 C688 1.366 . S
C687 C689 1.388 . S
C688 C687 1.366 . S
C688 C692 1.385 . S
C689 H664 0.951 . S
C689 C687 1.388 . S
C689 C690 1.366 . S
C690 C689 1.366 . S
C690 C691 1.414 . S
C690 C693 1.499 . S
C691 H665 0.950 . S
C691 C690 1.414 . S
C691 C692 1.374 . S
C692 H666 0.950 . S
C692 C688 1.385 . S
C692 C691 1.374 . S
C693 C690 1.499 . S
C693 C694 1.373 . S
C693 C695 1.389 . S
C694 H667 0.950 . S
C694 C680 1.377 . S
C694 C693 1.373 . S
C695 C679 1.377 . S
C695 C693 1.389 . S
C695 C696 1.524 . S
C696 C695 1.524 . S
C696 C697 1.397 . S
C696 C701 1.363 . S
C697 H668 0.950 . S
C697 C696 1.397 . S
C697 C698 1.334 . S
C698 H669 0.950 . S
C698 C697 1.334 . S
C698 C699 1.287 . S
C699 C698 1.287 . S
C699 C700 1.524 . S
C699 H702 0.999 . S
C700 H670 0.981 . S
C700 C699 1.524 . S
C700 C701 1.415 . S
C701 H671 0.950 . S
C701 C696 1.363 . S
C701 C700 1.415 . S
H702 C699 0.999 . S
H703 C684 0.913 . S
H704 C722 0.951 . S
H705 C724 0.951 . S
H706 C726 0.950 . S
H707 C727 0.950 . S
H708 C729 0.950 . S
H709 C732 0.950 . S
H710 C733 0.950 . S
H711 C735 0.950 . S
H712 C736 0.950 . S
H713 C737 0.951 . S
H714 C739 0.951 . S
H715 C741 0.950 . S
H716 C742 0.950 . S
H717 C744 0.950 . S
H718 C747 0.950 . S
H719 C748 0.950 . S
H720 C750 0.950 . S
H721 C751 0.950 . S
C722 H704 0.951 . S
C722 C723 1.366 . S
C722 C724 1.388 . S
C723 C722 1.366 . S
C723 C727 1.385 . S
C724 H705 0.951 . S
C724 C722 1.388 . S
C724 C725 1.366 . S
C725 C724 1.366 . S
C725 C726 1.414 . S
C725 C728 1.499 . S
C726 H706 0.950 . S
C726 C725 1.414 . S
C726 C727 1.374 . S
C727 H707 0.950 . S
C727 C723 1.385 . S
C727 C726 1.374 . S
C728 C725 1.499 . S
C728 C729 1.373 . S
C728 C730 1.389 . S
C729 H708 0.950 . S
C729 C728 1.373 . S
C729 C745 1.377 . S
C730 C728 1.389 . S
C730 C731 1.524 . S
C730 C744 1.377 . S
C731 C730 1.524 . S
C731 C732 1.397 . S
C731 C736 1.363 . S
C732 H709 0.950 . S
C732 C731 1.397 . S
C732 C733 1.334 . S
C733 H710 0.950 . S
C733 C732 1.334 . S
C733 C734 1.287 . S
C734 C733 1.287 . S
C734 C735 1.524 . S
C734 H753 0.913 . S
C735 H711 0.950 . S
C735 C734 1.524 . S
C735 C736 1.415 . S
C736 H712 0.950 . S
C736 C731 1.363 . S
C736 C735 1.415 . S
C737 H713 0.951 . S
C737 C738 1.366 . S
C737 C739 1.388 . S
C738 C737 1.366 . S
C738 C742 1.385 . S
C739 H714 0.951 . S
C739 C737 1.388 . S
C739 C740 1.366 . S
C740 C739 1.366 . S
C740 C741 1.414 . S
C740 C743 1.499 . S
C741 H715 0.950 . S
C741 C740 1.414 . S
C741 C742 1.374 . S
C742 H716 0.950 . S
C742 C738 1.385 . S
C742 C741 1.374 . S
C743 C740 1.499 . S
C743 C744 1.373 . S
C743 C745 1.389 . S
C744 H717 0.950 . S
C744 C730 1.377 . S
C744 C743 1.373 . S
C745 C729 1.377 . S
C745 C743 1.389 . S
C745 C746 1.524 . S
C746 C745 1.524 . S
C746 C747 1.397 . S
C746 C751 1.363 . S
C747 H718 0.950 . S
C747 C746 1.397 . S
C747 C748 1.334 . S
C748 H719 0.950 . S
C748 C747 1.334 . S
C748 C749 1.287 . S
C749 C748 1.287 . S
C749 C750 1.524 . S
C749 H752 0.999 . S
C750 H720 0.950 . S
C750 C749 1.524 . S
C750 C751 1.415 . S
C751 H721 0.950 . S
C751 C746 1.363 . S
C751 C750 1.415 . S
H752 C749 0.999 . S
H753 C734 0.913 . S
H754 C772 0.951 . S
H755 C774 0.951 . S
H756 C776 0.950 . S
H757 C777 0.950 . S
H758 C779 0.950 . S
H759 C782 0.950 . S
H760 C783 0.950 . S
H761 C785 0.950 . S
H762 C786 0.950 . S
H763 C787 0.951 . S
H764 C789 0.951 . S
H765 C791 0.950 . S
H766 C792 0.950 . S
H767 C794 0.950 . S
H768 C797 0.950 . S
H769 C798 0.950 . S
H770 C800 0.950 . S
H771 C801 0.950 . S
C772 H754 0.951 . S
C772 C773 1.366 . S
C772 C774 1.388 . S
C773 C772 1.366 . S
C773 C777 1.385 . S
C774 H755 0.951 . S
C774 C772 1.388 . S
C774 C775 1.366 . S
C775 C774 1.366 . S
C775 C776 1.414 . S
C775 C778 1.499 . S
C776 H756 0.950 . S
C776 C775 1.414 . S
C776 C777 1.374 . S
C777 H757 0.950 . S
C777 C773 1.385 . S
C777 C776 1.374 . S
C778 C775 1.499 . S
C778 C779 1.373 . S
C778 C780 1.389 . S
C779 H758 0.950 . S
C779 C778 1.373 . S
C779 C795 1.377 . S
C780 C778 1.389 . S
C780 C781 1.524 . S
C780 C794 1.377 . S
C781 C780 1.524 . S
C781 C782 1.397 . S
C781 C786 1.363 . S
C782 H759 0.950 . S
C782 C781 1.397 . S
C782 C783 1.334 . S
C783 H760 0.950 . S
C783 C782 1.334 . S
C783 C784 1.287 . S
C784 C783 1.287 . S
C784 C785 1.524 . S
C784 H803 0.913 . S
C785 H761 0.950 . S
C785 C784 1.524 . S
C785 C786 1.415 . S
C786 H762 0.950 . S
C786 C781 1.363 . S
C786 C785 1.415 . S
C787 H763 0.951 . S
C787 C788 1.366 . S
C787 C789 1.388 . S
C788 C787 1.366 . S
C788 C792 1.385 . S
C789 H764 0.951 . S
C789 C787 1.388 . S
C789 C790 1.366 . S
C790 C789 1.366 . S
C790 C791 1.414 . S
C790 C793 1.499 . S
C791 H765 0.950 . S
C791 C790 1.414 . S
C791 C792 1.374 . S
C792 H766 0.950 . S
C792 C788 1.385 . S
C792 C791 1.374 . S
C793 C790 1.499 . S
C793 C794 1.373 . S
C793 C795 1.389 . S
C794 H767 0.950 . S
C794 C780 1.377 . S
C794 C793 1.373 . S
C795 C779 1.377 . S
C795 C793 1.389 . S
C795 C796 1.524 . S
C796 C795 1.524 . S
C796 C797 1.397 . S
C796 C801 1.363 . S
C797 H768 0.950 . S
C797 C796 1.397 . S
C797 C798 1.334 . S
C798 H769 0.950 . S
C798 C797 1.334 . S
C798 C799 1.287 . S
C799 C798 1.287 . S
C799 C800 1.524 . S
C799 H802 0.999 . S
C800 H770 0.950 . S
C800 C799 1.524 . S
C800 C801 1.415 . S
C801 H771 0.950 . S
C801 C796 1.363 . S
C801 C800 1.415 . S
H802 C799 0.999 . S
H803 C784 0.913 . S
H804 C822 0.951 . S
H805 C824 0.951 . S
H806 C826 0.950 . S
H807 C827 0.950 . S
H808 C829 0.950 . S
H809 C832 0.950 . S
H810 C833 0.950 . S
H811 C835 0.950 . S
H812 C836 0.950 . S
H813 C837 0.951 . S
H814 C839 0.951 . S
H815 C841 0.950 . S
H816 C842 0.950 . S
H817 C844 0.950 . S
H818 C847 0.950 . S
H819 C848 0.950 . S
H820 C850 0.950 . S
H821 C851 0.950 . S
C822 H804 0.951 . S
C822 C823 1.366 . S
C822 C824 1.388 . S
C823 C822 1.366 . S
C823 C827 1.385 1_554 S
C824 H805 0.951 . S
C824 C822 1.388 . S
C824 C825 1.366 . S
C825 C824 1.366 . S
C825 C826 1.414 1_554 S
C825 C828 1.499 . S
C826 H806 0.950 . S
C826 C825 1.414 1_556 S
C826 C827 1.374 . S
C827 H807 0.950 . S
C827 C823 1.385 1_556 S
C827 C826 1.374 . S
C828 C825 1.499 . S
C828 C829 1.373 . S
C828 C830 1.389 1_554 S
C829 H808 0.950 . S
C829 C828 1.373 . S
C829 C845 1.377 . S
C830 C828 1.389 1_556 S
C830 C831 1.524 . S
C830 C844 1.377 . S
C831 C830 1.524 . S
C831 C832 1.397 . S
C831 C836 1.363 . S
C832 H809 0.950 . S
C832 C831 1.397 . S
C832 C833 1.334 . S
C833 H810 0.950 . S
C833 C832 1.334 . S
C833 C834 1.287 . S
C834 C833 1.287 . S
C834 C835 1.524 . S
C834 H853 0.913 . S
C835 H811 0.950 . S
C835 C834 1.524 . S
C835 C836 1.415 . S
C836 H812 0.950 . S
C836 C831 1.363 . S
C836 C835 1.415 . S
C837 H813 0.951 . S
C837 C838 1.366 1_556 S
C837 C839 1.388 . S
C838 C837 1.366 1_554 S
C838 C842 1.385 . S
C839 H814 0.951 . S
C839 C837 1.388 . S
C839 C840 1.366 1_556 S
C840 C839 1.366 1_554 S
C840 C841 1.414 . S
C840 C843 1.499 . S
C841 H815 0.950 . S
C841 C840 1.414 . S
C841 C842 1.374 . S
C842 H816 0.950 . S
C842 C838 1.385 . S
C842 C841 1.374 . S
C843 C840 1.499 . S
C843 C844 1.373 1_554 S
C843 C845 1.389 . S
C844 H817 0.950 . S
C844 C830 1.377 . S
C844 C843 1.373 1_556 S
C845 C829 1.377 . S
C845 C843 1.389 . S
C845 C846 1.524 . S
C846 C845 1.524 . S
C846 C847 1.397 . S
C846 C851 1.363 . S
C847 H818 0.950 . S
C847 C846 1.397 . S
C847 C848 1.334 . S
C848 H819 0.950 . S
C848 C847 1.334 . S
C848 C849 1.287 . S
C849 C848 1.287 . S
C849 C850 1.524 . S
C849 H852 0.999 . S
C850 H820 0.950 . S
C850 C849 1.524 . S
C850 C851 1.415 . S
C851 H821 0.950 . S
C851 C846 1.363 . S
C851 C850 1.415 . S
H852 C849 0.999 . S
H853 C834 0.913 . S
H854 C872 0.951 . S
H855 C874 0.951 . S
H856 C876 0.950 . S
H857 C877 0.950 . S
H858 C879 0.950 . S
H859 C882 0.950 . S
H860 C883 0.950 1_556 S
H861 C885 0.950 . S
H862 C886 0.950 . S
H863 C887 0.951 . S
H864 C889 0.951 . S
H865 C891 0.950 . S
H866 C892 0.950 . S
H867 C894 0.950 . S
H868 C897 0.950 . S
H869 C898 0.950 . S
H870 C900 0.950 . S
H871 C901 0.950 . S
C872 H854 0.951 . S
C872 C873 1.366 . S
C872 C874 1.388 . S
C873 C872 1.366 . S
C873 C877 1.385 . S
C874 H855 0.951 . S
C874 C872 1.388 . S
C874 C875 1.366 . S
C875 C874 1.366 . S
C875 C876 1.414 . S
C875 C878 1.499 . S
C876 H856 0.950 . S
C876 C875 1.414 . S
C876 C877 1.374 . S
C877 H857 0.950 . S
C877 C873 1.385 . S
C877 C876 1.374 . S
C878 C875 1.499 . S
C878 C879 1.373 . S
C878 C880 1.389 . S
C879 H858 0.950 . S
C879 C878 1.373 . S
C879 C895 1.377 . S
C880 C878 1.389 . S
C880 C881 1.524 . S
C880 C894 1.377 . S
C881 C880 1.524 . S
C881 C882 1.397 . S
C881 C886 1.363 . S
C882 H859 0.950 . S
C882 C881 1.397 . S
C882 C883 1.334 . S
C883 H860 0.950 1_554 S
C883 C882 1.334 . S
C883 C884 1.287 . S
C884 C883 1.287 . S
C884 C885 1.524 . S
C884 H903 0.913 1_554 S
C885 H861 0.950 . S
C885 C884 1.524 . S
C885 C886 1.415 . S
C886 H862 0.950 . S
C886 C881 1.363 . S
C886 C885 1.415 . S
C887 H863 0.951 . S
C887 C888 1.366 . S
C887 C889 1.388 . S
C888 C887 1.366 . S
C888 C892 1.385 . S
C889 H864 0.951 . S
C889 C887 1.388 . S
C889 C890 1.366 . S
C890 C889 1.366 . S
C890 C891 1.414 . S
C890 C893 1.499 . S
C891 H865 0.950 . S
C891 C890 1.414 . S
C891 C892 1.374 . S
C892 H866 0.950 . S
C892 C888 1.385 . S
C892 C891 1.374 . S
C893 C890 1.499 . S
C893 C894 1.373 . S
C893 C895 1.389 . S
C894 H867 0.950 . S
C894 C880 1.377 . S
C894 C893 1.373 . S
C895 C879 1.377 . S
C895 C893 1.389 . S
C895 C896 1.524 . S
C896 C895 1.524 . S
C896 C897 1.397 . S
C896 C901 1.363 . S
C897 H868 0.950 . S
C897 C896 1.397 . S
C897 C898 1.334 . S
C898 H869 0.950 . S
C898 C897 1.334 . S
C898 C899 1.287 . S
C899 C898 1.287 . S
C899 C900 1.524 . S
C899 H902 0.999 . S
C900 H870 0.950 . S
C900 C899 1.524 . S
C900 C901 1.415 . S
C901 H871 0.950 . S
C901 C896 1.363 . S
C901 C900 1.415 . S
H902 C899 0.999 . S
H903 C884 0.913 1_556 S
H904 C922 0.951 . S
H905 C924 0.951 . S
H906 C926 0.950 . S
H907 C927 0.950 . S
H908 C929 0.950 . S
H909 C932 0.950 . S
H910 C933 0.950 . S
H911 C935 0.950 . S
H912 C936 0.950 . S
H913 C937 0.951 . S
H914 C939 0.951 . S
H915 C941 0.950 . S
H916 C942 0.950 . S
H917 C944 0.950 . S
H918 C947 0.950 . S
H919 C948 0.950 . S
H920 C950 0.950 . S
H921 C951 0.950 . S
C922 H904 0.951 . S
C922 C923 1.366 1_556 S
C922 C924 1.388 . S
C923 C922 1.366 1_554 S
C923 C927 1.385 . S
C924 H905 0.951 . S
C924 C922 1.388 . S
C924 C925 1.366 1_556 S
C925 C924 1.366 1_554 S
C925 C926 1.414 . S
C925 C928 1.499 . S
C926 H906 0.950 . S
C926 C925 1.414 . S
C926 C927 1.374 . S
C927 H907 0.950 . S
C927 C923 1.385 . S
C927 C926 1.374 . S
C928 C925 1.499 . S
C928 C929 1.373 . S
C928 C930 1.389 1_554 S
C929 H908 0.950 . S
C929 C928 1.373 . S
C929 C945 1.377 . S
C930 C928 1.389 1_556 S
C930 C931 1.524 . S
C930 C944 1.377 . S
C931 C930 1.524 . S
C931 C932 1.397 . S
C931 C936 1.363 . S
C932 H909 0.950 . S
C932 C931 1.397 . S
C932 C933 1.334 . S
C933 H910 0.950 . S
C933 C932 1.334 . S
C933 C934 1.287 . S
C934 C933 1.287 . S
C934 C935 1.524 . S
C934 H953 0.913 . S
C935 H911 0.950 . S
C935 C934 1.524 . S
C935 C936 1.415 . S
C936 H912 0.950 . S
C936 C931 1.363 . S
C936 C935 1.415 . S
C937 H913 0.951 . S
C937 C938 1.366 . S
C937 C939 1.388 . S
C938 C937 1.366 . S
C938 C942 1.385 1_554 S
C939 H914 0.951 . S
C939 C937 1.388 . S
C939 C940 1.366 . S
C940 C939 1.366 . S
C940 C941 1.414 1_554 S
C940 C943 1.499 . S
C941 H915 0.950 . S
C941 C940 1.414 1_556 S
C941 C942 1.374 . S
C942 H916 0.950 . S
C942 C938 1.385 1_556 S
C942 C941 1.374 . S
C943 C940 1.499 . S
C943 C944 1.373 1_554 S
C943 C945 1.389 . S
C944 H917 0.950 . S
C944 C930 1.377 . S
C944 C943 1.373 1_556 S
C945 C929 1.377 . S
C945 C943 1.389 . S
C945 C946 1.524 . S
C946 C945 1.524 . S
C946 C947 1.397 . S
C946 C951 1.363 . S
C947 H918 0.950 . S
C947 C946 1.397 . S
C947 C948 1.334 . S
C948 H919 0.950 . S
C948 C947 1.334 . S
C948 C949 1.287 . S
C949 C948 1.287 . S
C949 C950 1.524 . S
C949 H952 0.999 . S
C950 H920 0.950 . S
C950 C949 1.524 . S
C950 C951 1.415 . S
C951 H921 0.950 . S
C951 C946 1.363 . S
C951 C950 1.415 . S
H952 C949 0.999 . S
H953 C934 0.913 . S
H954 C972 0.951 . S
H955 C974 0.951 . S
H956 C976 0.950 . S
H957 C977 0.950 . S
H958 C979 0.950 . S
H959 C982 0.950 . S
H960 C983 0.950 . S
H961 C985 0.950 . S
H962 C986 0.950 . S
H963 C987 0.951 . S
H964 C989 0.951 . S
H965 C991 0.950 . S
H966 C992 0.950 . S
H967 C994 0.950 . S
H968 C997 0.950 . S
H969 C998 0.950 . S
H970 C1000 0.950 . S
H971 C1001 0.950 . S
C972 H954 0.951 . S
C972 C973 1.366 . S
C972 C974 1.388 . S
C973 C972 1.366 . S
C973 C977 1.385 . S
C974 H955 0.951 . S
C974 C972 1.388 . S
C974 C975 1.366 . S
C975 C974 1.366 . S
C975 C976 1.414 . S
C975 C978 1.499 . S
C976 H956 0.950 . S
C976 C975 1.414 . S
C976 C977 1.374 . S
C977 H957 0.950 . S
C977 C973 1.385 . S
C977 C976 1.374 . S
C978 C975 1.499 . S
C978 C979 1.373 . S
C978 C980 1.389 . S
C979 H958 0.950 . S
C979 C978 1.373 . S
C979 C995 1.377 . S
C980 C978 1.389 . S
C980 C981 1.524 . S
C980 C994 1.377 . S
C981 C980 1.524 . S
C981 C982 1.397 . S
C981 C986 1.363 . S
C982 H959 0.950 . S
C982 C981 1.397 . S
C982 C983 1.334 . S
C983 H960 0.950 . S
C983 C982 1.334 . S
C983 C984 1.287 . S
C984 C983 1.287 . S
C984 C985 1.524 . S
C984 H1003 0.913 . S
C985 H961 0.950 . S
C985 C984 1.524 . S
C985 C986 1.415 . S
C986 H962 0.950 . S
C986 C981 1.363 . S
C986 C985 1.415 . S
C987 H963 0.951 . S
C987 C988 1.366 . S
C987 C989 1.388 . S
C988 C987 1.366 . S
C988 C992 1.385 . S
C989 H964 0.951 . S
C989 C987 1.388 . S
C989 C990 1.366 . S
C990 C989 1.366 . S
C990 C991 1.414 . S
C990 C993 1.499 . S
C991 H965 0.950 . S
C991 C990 1.414 . S
C991 C992 1.374 . S
C992 H966 0.950 . S
C992 C988 1.385 . S
C992 C991 1.374 . S
C993 C990 1.499 . S
C993 C994 1.373 . S
C993 C995 1.389 . S
C994 H967 0.950 . S
C994 C980 1.377 . S
C994 C993 1.373 . S
C995 C979 1.377 . S
C995 C993 1.389 . S
C995 C996 1.524 . S
C996 C995 1.524 . S
C996 C997 1.397 . S
C996 C1001 1.363 . S
C997 H968 0.950 . S
C997 C996 1.397 . S
C997 C998 1.334 . S
C998 H969 0.950 . S
C998 C997 1.334 . S
C998 C999 1.287 . S
C999 C998 1.287 . S
C999 C1000 1.524 . S
C999 H1002 0.999 . S
C1000 H970 0.950 . S
C1000 C999 1.524 . S
C1000 C1001 1.415 . S
C1001 H971 0.950 . S
C1001 C996 1.363 . S
C1001 C1000 1.415 . S
H1002 C999 0.999 . S
H1003 C984 0.913 . S
H1004 C1022 0.951 . S
H1005 C1024 0.951 . S
H1006 C1026 0.950 1_556 S
H1007 C1027 0.950 1_556 S
H1008 C1029 0.950 . S
H1009 C1032 0.950 . S
H1010 C1033 0.950 . S
H1011 C1035 0.950 . S
H1012 C1036 0.950 . S
H1013 C1037 0.951 . S
H1014 C1039 0.951 . S
H1015 C1041 0.950 . S
H1016 C1042 0.950 . S
H1017 C1044 0.950 . S
H1018 C1047 0.950 . S
H1019 C1048 0.950 . S
H1020 C1050 0.950 . S
H1021 C1051 0.950 . S
C1022 H1004 0.951 . S
C1022 C1023 1.366 . S
C1022 C1024 1.388 . S
C1023 C1022 1.366 . S
C1023 C1027 1.385 . S
C1024 H1005 0.951 . S
C1024 C1022 1.388 . S
C1024 C1025 1.366 . S
C1025 C1024 1.366 . S
C1025 C1026 1.414 . S
C1025 C1028 1.499 . S
C1026 H1006 0.950 1_554 S
C1026 C1025 1.414 . S
C1026 C1027 1.374 . S
C1027 H1007 0.950 1_554 S
C1027 C1023 1.385 . S
C1027 C1026 1.374 . S
C1028 C1025 1.499 . S
C1028 C1029 1.373 1_554 S
C1028 C1030 1.389 . S
C1029 H1008 0.950 . S
C1029 C1028 1.373 1_556 S
C1029 C1045 1.377 . S
C1030 C1028 1.389 . S
C1030 C1031 1.524 . S
C1030 C1044 1.377 . S
C1031 C1030 1.524 . S
C1031 C1032 1.397 . S
C1031 C1036 1.363 . S
C1032 H1009 0.950 . S
C1032 C1031 1.397 . S
C1032 C1033 1.334 . S
C1033 H1010 0.950 . S
C1033 C1032 1.334 . S
C1033 C1034 1.287 . S
C1034 C1033 1.287 . S
C1034 C1035 1.524 . S
C1034 H1053 0.913 . S
C1035 H1011 0.950 . S
C1035 C1034 1.524 . S
C1035 C1036 1.415 . S
C1036 H1012 0.950 . S
C1036 C1031 1.363 . S
C1036 C1035 1.415 . S
C1037 H1013 0.951 . S
C1037 C1038 1.366 1_556 S
C1037 C1039 1.388 . S
C1038 C1037 1.366 1_554 S
C1038 C1042 1.385 . S
C1039 H1014 0.951 . S
C1039 C1037 1.388 . S
C1039 C1040 1.366 1_556 S
C1040 C1039 1.366 1_554 S
C1040 C1041 1.414 . S
C1040 C1043 1.499 . S
C1041 H1015 0.950 . S
C1041 C1040 1.414 . S
C1041 C1042 1.374 . S
C1042 H1016 0.950 . S
C1042 C1038 1.385 . S
C1042 C1041 1.374 . S
C1043 C1040 1.499 . S
C1043 C1044 1.373 . S
C1043 C1045 1.389 1_554 S
C1044 H1017 0.950 . S
C1044 C1030 1.377 . S
C1044 C1043 1.373 . S
C1045 C1029 1.377 . S
C1045 C1043 1.389 1_556 S
C1045 C1046 1.524 . S
C1046 C1045 1.524 . S
C1046 C1047 1.397 . S
C1046 C1051 1.363 . S
C1047 H1018 0.950 . S
C1047 C1046 1.397 . S
C1047 C1048 1.334 . S
C1048 H1019 0.950 . S
C1048 C1047 1.334 . S
C1048 C1049 1.287 . S
C1049 C1048 1.287 . S
C1049 C1050 1.524 . S
C1049 H1052 0.999 . S
C1050 H1020 0.950 . S
C1050 C1049 1.524 . S
C1050 C1051 1.415 . S
C1051 H1021 0.950 . S
C1051 C1046 1.363 . S
C1051 C1050 1.415 . S
H1052 C1049 0.999 . S
H1053 C1034 0.913 . S
H1054 C1072 0.951 . S
H1055 C1074 0.951 . S
H1056 C1076 0.950 . S
H1057 C1077 0.950 . S
H1058 C1079 0.950 . S
H1059 C1082 0.950 . S
H1060 C1083 0.950 . S
H1061 C1085 0.950 . S
H1062 C1086 0.950 . S
H1063 C1087 0.951 . S
H1064 C1089 0.951 . S
H1065 C1091 0.950 . S
H1066 C1092 0.950 . S
H1067 C1094 0.950 . S
H1068 C1097 0.950 . S
H1069 C1098 0.950 . S
H1070 C1100 0.950 . S
H1071 C1101 0.950 . S
C1072 H1054 0.951 . S
C1072 C1073 1.366 . S
C1072 C1074 1.388 . S
C1073 C1072 1.366 . S
C1073 C1077 1.385 . S
C1074 H1055 0.951 . S
C1074 C1072 1.388 . S
C1074 C1075 1.366 . S
C1075 C1074 1.366 . S
C1075 C1076 1.414 . S
C1075 C1078 1.499 . S
C1076 H1056 0.950 . S
C1076 C1075 1.414 . S
C1076 C1077 1.374 . S
C1077 H1057 0.950 . S
C1077 C1073 1.385 . S
C1077 C1076 1.374 . S
C1078 C1075 1.499 . S
C1078 C1079 1.373 . S
C1078 C1080 1.389 . S
C1079 H1058 0.950 . S
C1079 C1078 1.373 . S
C1079 C1095 1.377 . S
C1080 C1078 1.389 . S
C1080 C1081 1.524 . S
C1080 C1094 1.377 . S
C1081 C1080 1.524 . S
C1081 C1082 1.397 . S
C1081 C1086 1.363 . S
C1082 H1059 0.950 . S
C1082 C1081 1.397 . S
C1082 C1083 1.334 . S
C1083 H1060 0.950 . S
C1083 C1082 1.334 . S
C1083 C1084 1.287 . S
C1084 C1083 1.287 . S
C1084 C1085 1.524 . S
C1084 H1103 0.913 . S
C1085 H1061 0.950 . S
C1085 C1084 1.524 . S
C1085 C1086 1.415 . S
C1086 H1062 0.950 . S
C1086 C1081 1.363 . S
C1086 C1085 1.415 . S
C1087 H1063 0.951 . S
C1087 C1088 1.366 . S
C1087 C1089 1.388 . S
C1088 C1087 1.366 . S
C1088 C1092 1.385 . S
C1089 H1064 0.951 . S
C1089 C1087 1.388 . S
C1089 C1090 1.366 . S
C1090 C1089 1.366 . S
C1090 C1091 1.414 . S
C1090 C1093 1.499 . S
C1091 H1065 0.950 . S
C1091 C1090 1.414 . S
C1091 C1092 1.374 . S
C1092 H1066 0.950 . S
C1092 C1088 1.385 . S
C1092 C1091 1.374 . S
C1093 C1090 1.499 . S
C1093 C1094 1.373 . S
C1093 C1095 1.389 . S
C1094 H1067 0.950 . S
C1094 C1080 1.377 . S
C1094 C1093 1.373 . S
C1095 C1079 1.377 . S
C1095 C1093 1.389 . S
C1095 C1096 1.524 . S
C1096 C1095 1.524 . S
C1096 C1097 1.397 . S
C1096 C1101 1.363 . S
C1097 H1068 0.950 . S
C1097 C1096 1.397 . S
C1097 C1098 1.334 . S
C1098 H1069 0.950 . S
C1098 C1097 1.334 . S
C1098 C1099 1.287 . S
C1099 C1098 1.287 . S
C1099 C1100 1.524 . S
C1099 H1102 0.999 . S
C1100 H1070 0.950 . S
C1100 C1099 1.524 . S
C1100 C1101 1.415 . S
C1101 H1071 0.950 . S
C1101 C1096 1.363 . S
C1101 C1100 1.415 . S
H1102 C1099 0.999 . S
H1103 C1084 0.913 . S
H1104 C1122 0.951 . S
H1105 C1124 0.951 . S
H1106 C1126 0.963 . S
H1107 C1127 0.950 . S
H1108 C1129 0.950 . S
H1109 C1132 0.950 1_455 S
H1110 C1133 0.950 . S
H1111 C1135 0.950 . S
H1112 C1136 0.950 . S
H1113 C1137 0.951 . S
H1114 C1139 0.951 . S
H1115 C1141 0.950 . S
H1116 C1142 0.950 . S
H1117 C1144 0.950 . S
H1118 C1147 0.950 . S
H1119 C1148 0.950 . S
H1120 C1150 0.950 . S
H1121 C1151 0.950 . S
C1122 H1104 0.951 . S
C1122 C1123 1.366 . S
C1122 C1124 1.388 . S
C1123 C1122 1.366 . S
C1123 C1127 1.385 . S
C1124 H1105 0.951 . S
C1124 C1122 1.388 . S
C1124 C1125 1.366 . S
C1125 C1124 1.366 . S
C1125 C1126 1.416 1_655 S
C1125 C1128 1.499 1_655 S
C1126 H1106 0.963 . S
C1126 C1125 1.416 1_455 S
C1126 C1127 1.360 1_455 S
C1127 H1107 0.950 . S
C1127 C1123 1.385 . S
C1127 C1126 1.360 1_655 S
C1128 C1125 1.499 1_455 S
C1128 C1129 1.373 . S
C1128 C1130 1.389 . S
C1129 H1108 0.950 . S
C1129 C1128 1.373 . S
C1129 C1145 1.377 . S
C1130 C1128 1.389 . S
C1130 C1131 1.524 1_455 S
C1130 C1144 1.377 . S
C1131 C1130 1.524 1_655 S
C1131 C1132 1.397 . S
C1131 C1136 1.363 . S
C1132 H1109 0.950 1_655 S
C1132 C1131 1.397 . S
C1132 C1133 1.334 . S
C1133 H1110 0.950 . S
C1133 C1132 1.334 . S
C1133 C1134 1.287 . S
C1134 C1133 1.287 . S
C1134 C1135 1.524 . S
C1134 H1153 0.913 . S
C1135 H1111 0.950 . S
C1135 C1134 1.524 . S
C1135 C1136 1.415 . S
C1136 H1112 0.950 . S
C1136 C1131 1.363 . S
C1136 C1135 1.415 . S
C1137 H1113 0.951 . S
C1137 C1138 1.366 . S
C1137 C1139 1.388 . S
C1138 C1137 1.366 . S
C1138 C1142 1.385 . S
C1139 H1114 0.951 . S
C1139 C1137 1.388 . S
C1139 C1140 1.366 . S
C1140 C1139 1.366 . S
C1140 C1141 1.414 . S
C1140 C1143 1.499 . S
C1141 H1115 0.950 . S
C1141 C1140 1.414 . S
C1141 C1142 1.374 . S
C1142 H1116 0.950 . S
C1142 C1138 1.385 . S
C1142 C1141 1.374 . S
C1143 C1140 1.499 . S
C1143 C1144 1.373 . S
C1143 C1145 1.389 . S
C1144 H1117 0.950 . S
C1144 C1130 1.377 . S
C1144 C1143 1.373 . S
C1145 C1129 1.377 . S
C1145 C1143 1.389 . S
C1145 C1146 1.524 . S
C1146 C1145 1.524 . S
C1146 C1147 1.397 . S
C1146 C1151 1.363 . S
C1147 H1118 0.950 . S
C1147 C1146 1.397 . S
C1147 C1148 1.334 1_554 S
C1148 H1119 0.950 . S
C1148 C1147 1.334 1_556 S
C1148 C1149 1.287 . S
C1149 C1148 1.287 . S
C1149 C1150 1.524 1_556 S
C1149 H1152 0.999 . S
C1150 H1120 0.950 . S
C1150 C1149 1.524 1_554 S
C1150 C1151 1.415 . S
C1151 H1121 0.950 . S
C1151 C1146 1.363 . S
C1151 C1150 1.415 . S
H1152 C1149 0.999 . S
H1153 C1134 0.913 . S
H1154 C1172 0.951 . S
H1155 C1174 0.951 1_565 S
H1156 C1176 0.950 . S
H1157 C1177 0.950 . S
H1158 C1179 0.950 . S
H1159 C1182 0.950 . S
H1160 C1183 0.950 . S
H1161 C1185 0.950 . S
H1162 C1186 0.950 . S
H1163 C1187 0.951 . S
H1164 C1189 0.951 . S
H1165 C1191 0.950 . S
H1166 C1192 0.950 . S
H1167 C1194 0.950 . S
H1168 C1197 0.950 . S
H1169 C1198 0.950 . S
H1170 C1200 0.950 . S
H1171 C1201 0.950 . S
C1172 H1154 0.951 . S
C1172 C1173 1.366 . S
C1172 C1174 1.388 . S
C1173 C1172 1.366 . S
C1173 C1177 1.385 . S
C1174 H1155 0.951 1_545 S
C1174 C1172 1.388 . S
C1174 C1175 1.366 . S
C1175 C1174 1.366 . S
C1175 C1176 1.414 . S
C1175 C1178 1.499 1_545 S
C1176 H1156 0.950 . S
C1176 C1175 1.414 . S
C1176 C1177 1.374 . S
C1177 H1157 0.950 . S
C1177 C1173 1.385 . S
C1177 C1176 1.374 . S
C1178 C1175 1.499 1_565 S
C1178 C1179 1.373 . S
C1178 C1180 1.389 . S
C1179 H1158 0.950 . S
C1179 C1178 1.373 . S
C1179 C1195 1.377 . S
C1180 C1178 1.389 . S
C1180 C1181 1.524 . S
C1180 C1194 1.377 . S
C1181 C1180 1.524 . S
C1181 C1182 1.397 1_565 S
C1181 C1186 1.363 . S
C1182 H1159 0.950 . S
C1182 C1181 1.397 1_545 S
C1182 C1183 1.334 . S
C1183 H1160 0.950 . S
C1183 C1182 1.334 . S
C1183 C1184 1.287 1_554 S
C1184 C1183 1.287 1_556 S
C1184 C1185 1.524 1_545 S
C1184 H1203 0.913 . S
C1185 H1161 0.950 . S
C1185 C1184 1.524 1_565 S
C1185 C1186 1.415 1_556 S
C1186 H1162 0.950 . S
C1186 C1181 1.363 . S
C1186 C1185 1.415 1_554 S
C1187 H1163 0.951 . S
C1187 C1188 1.366 . S
C1187 C1189 1.388 . S
C1188 C1187 1.366 . S
C1188 C1192 1.385 . S
C1189 H1164 0.951 . S
C1189 C1187 1.388 . S
C1189 C1190 1.366 . S
C1190 C1189 1.366 . S
C1190 C1191 1.414 . S
C1190 C1193 1.499 . S
C1191 H1165 0.950 . S
C1191 C1190 1.414 . S
C1191 C1192 1.374 . S
C1192 H1166 0.950 . S
C1192 C1188 1.385 . S
C1192 C1191 1.374 . S
C1193 C1190 1.499 . S
C1193 C1194 1.373 . S
C1193 C1195 1.389 . S
C1194 H1167 0.950 . S
C1194 C1180 1.377 . S
C1194 C1193 1.373 . S
C1195 C1179 1.377 . S
C1195 C1193 1.389 . S
C1195 C1196 1.524 . S
C1196 C1195 1.524 . S
C1196 C1197 1.397 . S
C1196 C1201 1.363 . S
C1197 H1168 0.950 . S
C1197 C1196 1.397 . S
C1197 C1198 1.334 . S
C1198 H1169 0.950 . S
C1198 C1197 1.334 . S
C1198 C1199 1.287 . S
C1199 C1198 1.287 . S
C1199 C1200 1.524 . S
C1199 H1202 0.999 . S
C1200 H1170 0.950 . S
C1200 C1199 1.524 . S
C1200 C1201 1.415 . S
C1201 H1171 0.950 . S
C1201 C1196 1.363 . S
C1201 C1200 1.415 . S
H1202 C1199 0.999 . S
H1203 C1184 0.913 . S
H1204 C1222 0.951 . S
H1205 C1224 0.951 . S
H1206 C1226 0.950 . S
H1207 C1227 0.950 . S
H1208 C1229 0.950 . S
H1209 C1232 0.950 . S
H1210 C1233 0.950 . S
H1211 C1235 0.950 . S
H1212 C1236 0.950 . S
H1213 C1237 0.951 . S
H1214 C1239 0.951 . S
H1215 C1241 0.950 . S
H1216 C1242 0.950 . S
H1217 C1244 0.950 . S
H1218 C1247 0.950 . S
H1219 C1248 0.950 . S
H1220 C1250 0.950 . S
H1221 C1251 0.950 . S
C1222 H1204 0.951 . S
C1222 C1223 1.366 . S
C1222 C1224 1.388 . S
C1223 C1222 1.366 . S
C1223 C1227 1.385 . S
C1224 H1205 0.951 . S
C1224 C1222 1.388 . S
C1224 C1225 1.366 . S
C1225 C1224 1.366 . S
C1225 C1226 1.414 . S
C1225 C1228 1.499 . S
C1226 H1206 0.950 . S
C1226 C1225 1.414 . S
C1226 C1227 1.374 . S
C1227 H1207 0.950 . S
C1227 C1223 1.385 . S
C1227 C1226 1.374 . S
C1228 C1225 1.499 . S
C1228 C1229 1.373 . S
C1228 C1230 1.389 . S
C1229 H1208 0.950 . S
C1229 C1228 1.373 . S
C1229 C1245 1.377 . S
C1230 C1228 1.389 . S
C1230 C1231 1.524 . S
C1230 C1244 1.377 . S
C1231 C1230 1.524 . S
C1231 C1232 1.397 . S
C1231 C1236 1.363 . S
C1232 H1209 0.950 . S
C1232 C1231 1.397 . S
C1232 C1233 1.334 . S
C1233 H1210 0.950 . S
C1233 C1232 1.334 . S
C1233 C1234 1.287 1_554 S
C1234 C1233 1.287 1_556 S
C1234 C1235 1.524 . S
C1234 H1253 0.913 . S
C1235 H1211 0.950 . S
C1235 C1234 1.524 . S
C1235 C1236 1.415 1_556 S
C1236 H1212 0.950 . S
C1236 C1231 1.363 . S
C1236 C1235 1.415 1_554 S
C1237 H1213 0.951 . S
C1237 C1238 1.366 . S
C1237 C1239 1.388 . S
C1238 C1237 1.366 . S
C1238 C1242 1.385 . S
C1239 H1214 0.951 . S
C1239 C1237 1.388 . S
C1239 C1240 1.366 . S
C1240 C1239 1.366 . S
C1240 C1241 1.414 . S
C1240 C1243 1.499 . S
C1241 H1215 0.950 . S
C1241 C1240 1.414 . S
C1241 C1242 1.374 . S
C1242 H1216 0.950 . S
C1242 C1238 1.385 . S
C1242 C1241 1.374 . S
C1243 C1240 1.499 . S
C1243 C1244 1.373 . S
C1243 C1245 1.389 . S
C1244 H1217 0.950 . S
C1244 C1230 1.377 . S
C1244 C1243 1.373 . S
C1245 C1229 1.377 . S
C1245 C1243 1.389 . S
C1245 C1246 1.524 . S
C1246 C1245 1.524 . S
C1246 C1247 1.397 . S
C1246 C1251 1.363 . S
C1247 H1218 0.950 . S
C1247 C1246 1.397 . S
C1247 C1248 1.334 . S
C1248 H1219 0.950 . S
C1248 C1247 1.334 . S
C1248 C1249 1.287 . S
C1249 C1248 1.287 . S
C1249 C1250 1.524 . S
C1249 H1252 0.999 . S
C1250 H1220 0.950 . S
C1250 C1249 1.524 . S
C1250 C1251 1.415 . S
C1251 H1221 0.950 . S
C1251 C1246 1.363 . S
C1251 C1250 1.415 . S
H1252 C1249 0.999 . S
H1253 C1234 0.913 . S
C223 C187 1.283 . S
C238 C17 1.257 . S
C273 C6 1.118 . S
C288 C40 1.131 . S
C323 C85 1.257 . S
C338 C51 1.283 . S
C373 C108 1.131 . S
C388 C96 1.118 . S
C423 C153 1.257 . S
C438 C119 1.282 . S
C473 C164 1.118 . S
C488 C198 1.131 . S
C523 C15 1.618 . S
C538 C22 1.619 . S
C573 C49 1.753 . S
C588 C56 1.756 . S
C623 C90 1.618 . S
C638 C83 1.619 . S
C673 C124 1.757 . S
C688 C117 1.753 . S
C723 C151 1.620 . S
C738 C158 1.618 . S
C773 C192 1.753 . S
C788 C185 1.757 . S
C823 C142 1.405 . S
C838 C3 1.272 . S
C873 C173 1.861 . S
C888 C37 1.876 . S
C923 C28 1.405 . S
C938 C69 1.272 . S
C973 C105 1.877 . S
C988 C35 1.862 . S
C1023 C74 1.406 . S
C1038 C137 1.271 . S
C1073 C103 1.862 . S
C1088 C171 1.876 . S
C1123 C130 1.390 . S
C1138 C1 1.278 . S
C1173 C62 1.390 . S
C1188 C139 1.277 . S
C1223 C176 1.390 . S
C1238 C71 1.277 . S
