# Generated by pormake.
# Topology uoi, (4)-cn, num edge types: 1
# Building blocks:
#     Node 0, Type 0, BuildingBlock: AZAVOO_clean_sbu_0, # of connection points: 4
#     Node 1, Type 0, BuildingBlock: AZAVOO_clean_sbu_0, # of connection points: 4
#     Node 2, Type 0, BuildingBlock: AZAVOO_clean_sbu_0, # of connection points: 4
#     Node 3, Type 0, BuildingBlock: AZAVOO_clean_sbu_0, # of connection points: 4
#     Node 4, Type 0, BuildingBlock: AZAVOO_clean_sbu_0, # of connection points: 4
#     Node 5, Type 0, BuildingBlock: AZAVOO_clean_sbu_0, # of connection points: 4
#     Node 6, Type 0, BuildingBlock: AZAVOO_clean_sbu_0, # of connection points: 4
#     Node 7, Type 0, BuildingBlock: AZAVOO_clean_sbu_0, # of connection points: 4
#     Node 8, Type 0, BuildingBlock: AZAVOO_clean_sbu_0, # of connection points: 4
#     Node 9, Type 0, BuildingBlock: AZAVOO_clean_sbu_0, # of connection points: 4
#     Node 10, Type 0, BuildingBlock: AZAVOO_clean_sbu_0, # of connection points: 4
#     Node 11, Type 0, BuildingBlock: AZAVOO_clean_sbu_0, # of connection points: 4
#     Node 12, Type 0, BuildingBlock: AZAVOO_clean_sbu_0, # of connection points: 4
#     Node 13, Type 0, BuildingBlock: AZAVOO_clean_sbu_0, # of connection points: 4
#     Node 14, Type 0, BuildingBlock: AZAVOO_clean_sbu_0, # of connection points: 4
#     Node 15, Type 0, BuildingBlock: AZAVOO_clean_sbu_0, # of connection points: 4
#     Node 16, Type 0, BuildingBlock: AZAVOO_clean_sbu_0, # of connection points: 4
#     Node 17, Type 0, BuildingBlock: AZAVOO_clean_sbu_0, # of connection points: 4
#     Node 18, Type 0, BuildingBlock: AZAVOO_clean_sbu_0, # of connection points: 4
#     Node 19, Type 0, BuildingBlock: AZAVOO_clean_sbu_0, # of connection points: 4
#     Node 20, Type 0, BuildingBlock: AZAVOO_clean_sbu_0, # of connection points: 4
#     Node 21, Type 0, BuildingBlock: AZAVOO_clean_sbu_0, # of connection points: 4
#     Node 22, Type 0, BuildingBlock: AZAVOO_clean_sbu_0, # of connection points: 4
#     Node 23, Type 0, BuildingBlock: AZAVOO_clean_sbu_0, # of connection points: 4
#     Node 24, Type 0, BuildingBlock: AZAVOO_clean_sbu_0, # of connection points: 4
#     Node 25, Type 0, BuildingBlock: AZAVOO_clean_sbu_0, # of connection points: 4
#     Node 26, Type 0, BuildingBlock: AZAVOO_clean_sbu_0, # of connection points: 4
#     Node 27, Type 0, BuildingBlock: AZAVOO_clean_sbu_0, # of connection points: 4
#     Node 28, Type 0, BuildingBlock: AZAVOO_clean_sbu_0, # of connection points: 4
#     Node 29, Type 0, BuildingBlock: AZAVOO_clean_sbu_0, # of connection points: 4
#     Node 30, Type 0, BuildingBlock: AZAVOO_clean_sbu_0, # of connection points: 4
#     Node 31, Type 0, BuildingBlock: AZAVOO_clean_sbu_0, # of connection points: 4
#     Edge 32, Type (0, 0), BuildingBlock: ZUJKAS_clean_linker_0, # of connection points: 2
#     Edge 33, Type (0, 0), BuildingBlock: ZUJKAS_clean_linker_0, # of connection points: 2
#     Edge 34, Type (0, 0), BuildingBlock: ZUJKAS_clean_linker_0, # of connection points: 2
#     Edge 35, Type (0, 0), BuildingBlock: ZUJKAS_clean_linker_0, # of connection points: 2
#     Edge 36, Type (0, 0), BuildingBlock: ZUJKAS_clean_linker_0, # of connection points: 2
#     Edge 37, Type (0, 0), BuildingBlock: ZUJKAS_clean_linker_0, # of connection points: 2
#     Edge 38, Type (0, 0), BuildingBlock: ZUJKAS_clean_linker_0, # of connection points: 2
#     Edge 39, Type (0, 0), BuildingBlock: ZUJKAS_clean_linker_0, # of connection points: 2
#     Edge 40, Type (0, 0), BuildingBlock: ZUJKAS_clean_linker_0, # of connection points: 2
#     Edge 41, Type (0, 0), BuildingBlock: ZUJKAS_clean_linker_0, # of connection points: 2
#     Edge 42, Type (0, 0), BuildingBlock: ZUJKAS_clean_linker_0, # of connection points: 2
#     Edge 43, Type (0, 0), BuildingBlock: ZUJKAS_clean_linker_0, # of connection points: 2
#     Edge 44, Type (0, 0), BuildingBlock: ZUJKAS_clean_linker_0, # of connection points: 2
#     Edge 45, Type (0, 0), BuildingBlock: ZUJKAS_clean_linker_0, # of connection points: 2
#     Edge 46, Type (0, 0), BuildingBlock: ZUJKAS_clean_linker_0, # of connection points: 2
#     Edge 47, Type (0, 0), BuildingBlock: ZUJKAS_clean_linker_0, # of connection points: 2
#     Edge 48, Type (0, 0), BuildingBlock: ZUJKAS_clean_linker_0, # of connection points: 2
#     Edge 49, Type (0, 0), BuildingBlock: ZUJKAS_clean_linker_0, # of connection points: 2
#     Edge 50, Type (0, 0), BuildingBlock: ZUJKAS_clean_linker_0, # of connection points: 2
#     Edge 51, Type (0, 0), BuildingBlock: ZUJKAS_clean_linker_0, # of connection points: 2
#     Edge 52, Type (0, 0), BuildingBlock: ZUJKAS_clean_linker_0, # of connection points: 2
#     Edge 53, Type (0, 0), BuildingBlock: ZUJKAS_clean_linker_0, # of connection points: 2
#     Edge 54, Type (0, 0), BuildingBlock: ZUJKAS_clean_linker_0, # of connection points: 2
#     Edge 55, Type (0, 0), BuildingBlock: ZUJKAS_clean_linker_0, # of connection points: 2
#     Edge 56, Type (0, 0), BuildingBlock: ZUJKAS_clean_linker_0, # of connection points: 2
#     Edge 57, Type (0, 0), BuildingBlock: ZUJKAS_clean_linker_0, # of connection points: 2
#     Edge 58, Type (0, 0), BuildingBlock: ZUJKAS_clean_linker_0, # of connection points: 2
#     Edge 59, Type (0, 0), BuildingBlock: ZUJKAS_clean_linker_0, # of connection points: 2
#     Edge 60, Type (0, 0), BuildingBlock: ZUJKAS_clean_linker_0, # of connection points: 2
#     Edge 61, Type (0, 0), BuildingBlock: ZUJKAS_clean_linker_0, # of connection points: 2
#     Edge 62, Type (0, 0), BuildingBlock: ZUJKAS_clean_linker_0, # of connection points: 2
#     Edge 63, Type (0, 0), BuildingBlock: ZUJKAS_clean_linker_0, # of connection points: 2
#     Edge 64, Type (0, 0), BuildingBlock: ZUJKAS_clean_linker_0, # of connection points: 2
#     Edge 65, Type (0, 0), BuildingBlock: ZUJKAS_clean_linker_0, # of connection points: 2
#     Edge 66, Type (0, 0), BuildingBlock: ZUJKAS_clean_linker_0, # of connection points: 2
#     Edge 67, Type (0, 0), BuildingBlock: ZUJKAS_clean_linker_0, # of connection points: 2
#     Edge 68, Type (0, 0), BuildingBlock: ZUJKAS_clean_linker_0, # of connection points: 2
#     Edge 69, Type (0, 0), BuildingBlock: ZUJKAS_clean_linker_0, # of connection points: 2
#     Edge 70, Type (0, 0), BuildingBlock: ZUJKAS_clean_linker_0, # of connection points: 2
#     Edge 71, Type (0, 0), BuildingBlock: ZUJKAS_clean_linker_0, # of connection points: 2
#     Edge 72, Type (0, 0), BuildingBlock: ZUJKAS_clean_linker_0, # of connection points: 2
#     Edge 73, Type (0, 0), BuildingBlock: ZUJKAS_clean_linker_0, # of connection points: 2
#     Edge 74, Type (0, 0), BuildingBlock: ZUJKAS_clean_linker_0, # of connection points: 2
#     Edge 75, Type (0, 0), BuildingBlock: ZUJKAS_clean_linker_0, # of connection points: 2
#     Edge 76, Type (0, 0), BuildingBlock: ZUJKAS_clean_linker_0, # of connection points: 2
#     Edge 77, Type (0, 0), BuildingBlock: ZUJKAS_clean_linker_0, # of connection points: 2
#     Edge 78, Type (0, 0), BuildingBlock: ZUJKAS_clean_linker_0, # of connection points: 2
#     Edge 79, Type (0, 0), BuildingBlock: ZUJKAS_clean_linker_0, # of connection points: 2
#     Edge 80, Type (0, 0), BuildingBlock: ZUJKAS_clean_linker_0, # of connection points: 2
#     Edge 81, Type (0, 0), BuildingBlock: ZUJKAS_clean_linker_0, # of connection points: 2
#     Edge 82, Type (0, 0), BuildingBlock: ZUJKAS_clean_linker_0, # of connection points: 2
#     Edge 83, Type (0, 0), BuildingBlock: ZUJKAS_clean_linker_0, # of connection points: 2
#     Edge 84, Type (0, 0), BuildingBlock: ZUJKAS_clean_linker_0, # of connection points: 2
#     Edge 85, Type (0, 0), BuildingBlock: ZUJKAS_clean_linker_0, # of connection points: 2
#     Edge 86, Type (0, 0), BuildingBlock: ZUJKAS_clean_linker_0, # of connection points: 2
#     Edge 87, Type (0, 0), BuildingBlock: ZUJKAS_clean_linker_0, # of connection points: 2
#     Edge 88, Type (0, 0), BuildingBlock: ZUJKAS_clean_linker_0, # of connection points: 2
#     Edge 89, Type (0, 0), BuildingBlock: ZUJKAS_clean_linker_0, # of connection points: 2
#     Edge 90, Type (0, 0), BuildingBlock: ZUJKAS_clean_linker_0, # of connection points: 2
#     Edge 91, Type (0, 0), BuildingBlock: ZUJKAS_clean_linker_0, # of connection points: 2
#     Edge 92, Type (0, 0), BuildingBlock: ZUJKAS_clean_linker_0, # of connection points: 2
#     Edge 93, Type (0, 0), BuildingBlock: ZUJKAS_clean_linker_0, # of connection points: 2
#     Edge 94, Type (0, 0), BuildingBlock: ZUJKAS_clean_linker_0, # of connection points: 2
#     Edge 95, Type (0, 0), BuildingBlock: ZUJKAS_clean_linker_0, # of connection points: 2
# Relax obj value: 0.358
# Max RMSD: 0.233
# Mean RMSD: 0.231
data_MOF--net-uoi--node1-AZAVOO_clean_sbu_0--edge1-ZUJKAS_clean_linker_0
_symmetry_space_group_name_H-M    P1
_symmetry_Int_Tables_number       1
_symmetry_cell_setting            triclinic
loop_
_symmetry_equiv_pos_as_xyz
'x, y, z'
_cell_length_a     107.26192
_cell_length_b     107.26696
_cell_length_c     23.076123
_cell_angle_alpha  90.0035
_cell_angle_beta   90.036073
_cell_angle_gamma 89.992564
loop_
_atom_site_label
_atom_site_type_symbol
_atom_site_fract_x
_atom_site_fract_y
_atom_site_fract_z
_atom_type_partial_charge
Mg0 Mg 0.2112 0.17566 0.12204 0.0
O1 O 0.20374 0.19141 0.17858 0.0
O2 O 0.18781 0.20092 0.13514 0.0
Mg3 Mg 0.18417 0.19013 0.05102 0.0
C4 C 0.19548 0.19994 0.1772 0.0
C5 C 0.2213 0.16013 0.23224 0.0
O6 O 0.21288 0.15185 0.2172 0.0
O7 O 0.19489 0.16283 0.14575 0.0
O8 O 0.17909 0.17222 0.09999 0.0
O9 O 0.22277 0.19004 0.07624 0.0
O10 O 0.20392 0.18436 0.04819 0.0
C11 C 0.1834 0.16338 0.13124 0.0
C12 C 0.2133 0.19171 0.04228 0.0
O13 O 0.22281 0.16981 0.20114 0.0
Mg14 Mg 0.07105 0.95192 0.37159 0.0
O15 O 0.05458 0.94574 0.42672 0.0
O16 O 0.04347 0.93129 0.38035 0.0
Mg17 Mg 0.05384 0.92736 0.29532 0.0
C18 C 0.04522 0.93845 0.42379 0.0
C19 C 0.07837 0.97339 0.45897 0.0
O20 O 0.07469 0.98038 0.41549 0.0
O21 O 0.08202 0.93414 0.3922 0.0
O22 O 0.07116 0.91991 0.34267 0.0
O23 O 0.05802 0.96547 0.3286 0.0
O24 O 0.06163 0.94641 0.29657 0.0
C25 C 0.08035 0.92294 0.37497 0.0
C26 C 0.05534 0.95658 0.29275 0.0
O27 O 0.07848 0.96161 0.45287 0.0
Mg28 Mg 0.29425 0.82144 0.61123 0.0
O29 O 0.30011 0.80554 0.67133 0.0
O30 O 0.3159 0.79504 0.63197 0.0
Mg31 Mg 0.32094 0.80509 0.54751 0.0
C32 C 0.3079 0.79657 0.67226 0.0
C33 C 0.27411 0.82219 0.70769 0.0
O34 O 0.27183 0.81132 0.68371 0.0
O35 O 0.311 0.83345 0.63695 0.0
O36 O 0.32664 0.82303 0.59504 0.0
O37 O 0.28212 0.80769 0.56445 0.0
O38 O 0.30159 0.8119 0.54017 0.0
C39 C 0.32255 0.83226 0.62449 0.0
C40 C 0.29177 0.80522 0.53272 0.0
O41 O 0.28263 0.82904 0.68635 0.0
Mg42 Mg 0.42719 0.03946 0.85846 0.0
O43 O 0.44299 0.04694 0.91453 0.0
O44 O 0.4528 0.06249 0.86962 0.0
Mg45 Mg 0.44231 0.06569 0.78416 0.0
C46 C 0.45163 0.05508 0.91255 0.0
C47 C 0.41168 0.0303 0.97083 0.0
O48 O 0.40379 0.0392 0.95734 0.0
O49 O 0.41466 0.05621 0.87997 0.0
O50 O 0.42432 0.07134 0.83088 0.0
O51 O 0.44137 0.0273 0.81457 0.0
O52 O 0.43613 0.04609 0.78402 0.0
C53 C 0.41537 0.06752 0.86281 0.0
C54 C 0.44328 0.03652 0.77947 0.0
O55 O 0.42105 0.0283 0.93837 0.0
Mg56 Mg 0.2069 0.82287 0.37779 0.0
O57 O 0.19852 0.80499 0.3408 0.0
O58 O 0.18825 0.7948 0.41042 0.0
Mg59 Mg 0.18745 0.808 0.48841 0.0
C60 C 0.19251 0.79551 0.35892 0.0
C61 C 0.22126 0.83528 0.27239 0.0
O62 O 0.22718 0.84112 0.3142 0.0
O63 O 0.18828 0.8331 0.36956 0.0
O64 O 0.17717 0.82338 0.43783 0.0
O65 O 0.22246 0.81096 0.41125 0.0
O66 O 0.20559 0.81566 0.46177 0.0
C67 C 0.17817 0.83162 0.39809 0.0
C68 C 0.21563 0.80919 0.45679 0.0
O69 O 0.2125 0.8278 0.28518 0.0
Mg70 Mg 0.42711 0.95494 0.62738 0.0
O71 O 0.4425 0.94875 0.56548 0.0
O72 O 0.45344 0.93321 0.6044 0.0
Mg73 Mg 0.44406 0.92857 0.69101 0.0
C74 C 0.45149 0.941 0.56361 0.0
C75 C 0.4261 0.9741 0.52717 0.0
O76 O 0.43737 0.97588 0.54793 0.0
O77 O 0.41492 0.93804 0.60538 0.0
O78 O 0.42578 0.92266 0.64704 0.0
O79 O 0.44125 0.96727 0.6708 0.0
O80 O 0.43723 0.94792 0.69762 0.0
C81 C 0.4163 0.92656 0.61878 0.0
C82 C 0.44394 0.95778 0.70315 0.0
O83 O 0.41901 0.96624 0.55205 0.0
Mg84 Mg 0.29324 0.17315 0.89932 0.0
O85 O 0.30001 0.18852 0.83901 0.0
O86 O 0.31562 0.19908 0.87953 0.0
Mg87 Mg 0.31964 0.18943 0.96642 0.0
C88 C 0.30794 0.19735 0.83802 0.0
C89 C 0.27458 0.17284 0.79682 0.0
O90 O 0.27285 0.18406 0.81826 0.0
O91 O 0.30999 0.16071 0.87808 0.0
O92 O 0.32531 0.17103 0.92294 0.0
O93 O 0.28101 0.18746 0.94234 0.0
O94 O 0.30014 0.18297 0.97083 0.0
C95 C 0.3214 0.16172 0.89353 0.0
C96 C 0.29041 0.18988 0.97576 0.0
O97 O 0.28216 0.16553 0.82218 0.0
Mg98 Mg 0.07559 0.04349 0.13191 0.0
O99 O 0.06073 0.0511 0.07094 0.0
O100 O 0.05075 0.06713 0.11099 0.0
Mg101 Mg 0.06041 0.07063 0.19823 0.0
C102 C 0.05227 0.05943 0.06947 0.0
C103 C 0.07485 0.02461 0.03121 0.0
O104 O 0.0639 0.02309 0.05571 0.0
O105 O 0.08897 0.05959 0.11191 0.0
O106 O 0.07908 0.07541 0.1551 0.0
O107 O 0.06055 0.03202 0.17394 0.0
O108 O 0.06597 0.05084 0.20312 0.0
C109 C 0.08832 0.07107 0.1266 0.0
C110 C 0.05854 0.0415 0.20736 0.0
O111 O 0.08257 0.03213 0.05429 0.0
Mg112 Mg 0.79035 0.82228 0.89109 0.0
O113 O 0.79718 0.80632 0.83403 0.0
O114 O 0.81239 0.79583 0.87817 0.0
Mg115 Mg 0.81625 0.80621 0.96321 0.0
C116 C 0.80494 0.79733 0.83558 0.0
C117 C 0.77213 0.82199 0.78714 0.0
O118 O 0.77 0.81109 0.81111 0.0
O119 O 0.80732 0.83436 0.86971 0.0
O120 O 0.82243 0.82403 0.91613 0.0
O121 O 0.77777 0.80843 0.93489 0.0
O122 O 0.79681 0.81297 0.96479 0.0
C123 C 0.8187 0.83319 0.88523 0.0
C124 C 0.787 0.80616 0.96952 0.0
O125 O 0.77978 0.82939 0.8115 0.0
Mg126 Mg 0.92847 0.04629 0.63297 0.0
O127 O 0.94377 0.05352 0.57316 0.0
O128 O 0.9542 0.06893 0.61612 0.0
Mg129 Mg 0.94448 0.07244 0.70306 0.0
C130 C 0.95256 0.06151 0.57354 0.0
C131 C 0.92266 0.02423 0.54666 0.0
O132 O 0.92822 0.01776 0.58754 0.0
O133 O 0.91583 0.063 0.61452 0.0
O134 O 0.92613 0.07832 0.65943 0.0
O135 O 0.94301 0.03395 0.67292 0.0
O136 O 0.93833 0.05278 0.7051 0.0
C137 C 0.91683 0.07439 0.63007 0.0
C138 C 0.94545 0.04315 0.70749 0.0
O139 O 0.92088 0.03583 0.55425 0.0
Mg140 Mg 0.70819 0.17767 0.39078 0.0
O141 O 0.70165 0.1937 0.33355 0.0
O142 O 0.68675 0.20457 0.37796 0.0
Mg143 Mg 0.68291 0.19445 0.46369 0.0
C144 C 0.69407 0.20284 0.33511 0.0
C145 C 0.72929 0.17311 0.29831 0.0
O146 O 0.73571 0.17982 0.33547 0.0
O147 O 0.69084 0.16603 0.37073 0.0
O148 O 0.67606 0.17678 0.41732 0.0
O149 O 0.72122 0.19132 0.43308 0.0
O150 O 0.70221 0.18725 0.46451 0.0
C151 C 0.67951 0.1675 0.3865 0.0
C152 C 0.71216 0.19388 0.4682 0.0
O153 O 0.71812 0.17016 0.31045 0.0
Mg154 Mg 0.57487 0.95732 0.12847 0.0
O155 O 0.55931 0.95021 0.06983 0.0
O156 O 0.5489 0.93484 0.11301 0.0
Mg157 Mg 0.55889 0.93122 0.19922 0.0
C158 C 0.55047 0.94228 0.0705 0.0
C159 C 0.57508 0.97609 0.02665 0.0
O160 O 0.56455 0.97888 0.05272 0.0
O161 O 0.58733 0.94051 0.10857 0.0
O162 O 0.57699 0.92528 0.15396 0.0
O163 O 0.56058 0.9697 0.17028 0.0
O164 O 0.56526 0.9508 0.2013 0.0
C165 C 0.58624 0.92912 0.12397 0.0
C166 C 0.5582 0.96046 0.20464 0.0
O167 O 0.58211 0.96784 0.04905 0.0
Mg168 Mg 0.79042 0.17447 0.60856 0.0
O169 O 0.79622 0.19107 0.66384 0.0
O170 O 0.81122 0.20192 0.62022 0.0
Mg171 Mg 0.816 0.19112 0.5373 0.0
C172 C 0.8036 0.20036 0.66204 0.0
C173 C 0.77148 0.17447 0.70995 0.0
O174 O 0.76834 0.18471 0.6823 0.0
O175 O 0.80776 0.16333 0.6339 0.0
O176 O 0.82274 0.17397 0.58819 0.0
O177 O 0.77753 0.18746 0.56112 0.0
O178 O 0.79688 0.18348 0.53414 0.0
C179 C 0.81919 0.16489 0.61999 0.0
C180 C 0.78684 0.18985 0.52717 0.0
O181 O 0.77992 0.16754 0.68854 0.0
Mg182 Mg 0.57453 0.04519 0.35936 0.0
O183 O 0.55837 0.05127 0.41693 0.0
O184 O 0.54761 0.0665 0.37439 0.0
Mg185 Mg 0.55797 0.0711 0.29013 0.0
C186 C 0.54922 0.05884 0.41606 0.0
C187 C 0.57933 0.02316 0.44703 0.0
O188 O 0.57315 0.01693 0.40726 0.0
O189 O 0.58615 0.06231 0.38303 0.0
O190 O 0.57559 0.07752 0.33852 0.0
O191 O 0.56099 0.03253 0.31426 0.0
O192 O 0.56509 0.05179 0.2862 0.0
C193 C 0.58478 0.07376 0.36918 0.0
C194 C 0.55848 0.04186 0.2806 0.0
O195 O 0.58186 0.03458 0.4382 0.0
Mg196 Mg 0.70825 0.82358 0.10615 0.0
O197 O 0.70164 0.80773 0.16443 0.0
O198 O 0.68594 0.79748 0.12292 0.0
Mg199 Mg 0.68156 0.80792 0.03862 0.0
C200 C 0.69373 0.79887 0.16423 0.0
C201 C 0.7272 0.82304 0.20725 0.0
O202 O 0.72905 0.81212 0.1829 0.0
O203 O 0.69166 0.8359 0.13045 0.0
O204 O 0.67599 0.82582 0.08697 0.0
O205 O 0.72029 0.80955 0.06056 0.0
O206 O 0.70111 0.81432 0.03359 0.0
C207 C 0.68013 0.83491 0.11717 0.0
C208 C 0.71077 0.80735 0.02753 0.0
O209 O 0.7195 0.83054 0.184 0.0
Mg210 Mg 0.92346 0.95564 0.87086 0.0
O211 O 0.93962 0.94919 0.9277 0.0
O212 O 0.94985 0.93359 0.88541 0.0
Mg213 Mg 0.9391 0.9291 0.80204 0.0
C214 C 0.94855 0.94138 0.92678 0.0
C215 C 0.92413 0.97494 0.97051 0.0
O216 O 0.93461 0.97734 0.94324 0.0
O217 O 0.91139 0.93892 0.8962 0.0
O218 O 0.92148 0.92337 0.85189 0.0
O219 O 0.93722 0.96775 0.82379 0.0
O220 O 0.93241 0.94855 0.79748 0.0
C221 C 0.91246 0.92741 0.88282 0.0
C222 C 0.9393 0.95823 0.79063 0.0
O223 O 0.91681 0.96676 0.94959 0.0
Mg224 Mg 0.70795 0.67608 0.60686 0.0
O225 O 0.70088 0.69198 0.66341 0.0
O226 O 0.68578 0.70244 0.61829 0.0
Mg227 Mg 0.68234 0.69213 0.53264 0.0
C228 C 0.69308 0.70093 0.66144 0.0
C229 C 0.729 0.67226 0.70055 0.0
O230 O 0.7353 0.67907 0.66342 0.0
O231 O 0.69088 0.66399 0.62647 0.0
O232 O 0.6759 0.67431 0.57911 0.0
O233 O 0.72069 0.69001 0.56477 0.0
O234 O 0.70183 0.68544 0.53265 0.0
C235 C 0.67955 0.66515 0.61022 0.0
C236 C 0.71163 0.69231 0.52921 0.0
O237 O 0.71795 0.66895 0.68792 0.0
Mg238 Mg 0.57029 0.45382 0.86054 0.0
O239 O 0.55498 0.44677 0.92045 0.0
O240 O 0.54473 0.43101 0.87945 0.0
Mg241 Mg 0.55458 0.42718 0.79301 0.0
C242 C 0.54629 0.43869 0.92108 0.0
C243 C 0.57456 0.47593 0.94877 0.0
O244 O 0.56772 0.4819 0.91057 0.0
O245 O 0.58301 0.4373 0.88138 0.0
O246 O 0.57293 0.42167 0.8377 0.0
O247 O 0.55576 0.46582 0.8178 0.0
O248 O 0.56067 0.44683 0.78869 0.0
C249 C 0.58215 0.42583 0.86696 0.0
C250 C 0.55355 0.45642 0.78405 0.0
O251 O 0.57765 0.46469 0.93872 0.0
Mg252 Mg 0.79113 0.3219 0.10942 0.0
O253 O 0.79747 0.30532 0.16372 0.0
O254 O 0.81187 0.29438 0.11621 0.0
Mg255 Mg 0.81567 0.305 0.03175 0.0
C256 C 0.80478 0.29599 0.15999 0.0
C257 C 0.77027 0.32724 0.20263 0.0
O258 O 0.7633 0.32166 0.16365 0.0
O259 O 0.80886 0.33295 0.12947 0.0
O260 O 0.82317 0.32219 0.07994 0.0
O261 O 0.77757 0.30888 0.06644 0.0
O262 O 0.79656 0.31268 0.03383 0.0
C263 C 0.82007 0.33133 0.1124 0.0
C264 C 0.78642 0.30634 0.03012 0.0
O265 O 0.78171 0.32918 0.19154 0.0
Mg266 Mg 0.92284 0.54065 0.37159 0.0
O267 O 0.93896 0.54724 0.42806 0.0
O268 O 0.94948 0.56248 0.38442 0.0
Mg269 Mg 0.93888 0.56664 0.30023 0.0
C270 C 0.948 0.55493 0.42662 0.0
C271 C 0.92318 0.52195 0.4738 0.0
O272 O 0.93365 0.51923 0.44707 0.0
O273 O 0.91094 0.55766 0.39468 0.0
O274 O 0.9213 0.57285 0.3491 0.0
O275 O 0.93657 0.52815 0.32644 0.0
O276 O 0.93197 0.54724 0.2977 0.0
C277 C 0.9122 0.56909 0.3802 0.0
C278 C 0.9388 0.53746 0.29228 0.0
O279 O 0.91598 0.53008 0.45159 0.0
Mg280 Mg 0.7085 0.32531 0.89075 0.0
O281 O 0.70231 0.30927 0.83291 0.0
O282 O 0.68701 0.29846 0.87444 0.0
Mg283 Mg 0.68251 0.30872 0.95915 0.0
C284 C 0.69469 0.30016 0.83298 0.0
C285 C 0.72747 0.32535 0.7899 0.0
O286 O 0.7302 0.31488 0.81653 0.0
O287 O 0.69141 0.33701 0.86686 0.0
O288 O 0.6762 0.32634 0.91072 0.0
O289 O 0.72107 0.31169 0.93619 0.0
O290 O 0.7018 0.31588 0.96365 0.0
C291 C 0.67994 0.33556 0.88034 0.0
C292 C 0.71169 0.30923 0.96958 0.0
O293 O 0.71925 0.33247 0.81188 0.0
Mg294 Mg 0.9255 0.45318 0.14177 0.0
O295 O 0.94162 0.44726 0.0837 0.0
O296 O 0.95249 0.432 0.12539 0.0
Mg297 Mg 0.94234 0.42735 0.21014 0.0
C298 C 0.95078 0.4397 0.08398 0.0
C299 C 0.92049 0.47523 0.05444 0.0
O300 O 0.92671 0.48147 0.094 0.0
O301 O 0.91399 0.43597 0.11813 0.0
O302 O 0.92469 0.42082 0.16231 0.0
O303 O 0.93895 0.46593 0.18693 0.0
O304 O 0.93506 0.4466 0.21454 0.0
C305 C 0.91544 0.42452 0.1319 0.0
C306 C 0.94156 0.4566 0.22041 0.0
O307 O 0.91799 0.46381 0.0633 0.0
Mg308 Mg 0.79064 0.67491 0.39119 0.0
O309 O 0.79739 0.69101 0.3351 0.0
O310 O 0.81255 0.70148 0.37961 0.0
Mg311 Mg 0.81642 0.69096 0.46429 0.0
C312 C 0.80511 0.70002 0.33696 0.0
C313 C 0.77184 0.67493 0.28907 0.0
O314 O 0.76872 0.68519 0.31658 0.0
O315 O 0.8077 0.66298 0.3695 0.0
O316 O 0.82275 0.67327 0.41649 0.0
O317 O 0.77798 0.68861 0.43553 0.0
O318 O 0.797 0.68409 0.46554 0.0
C319 C 0.81907 0.66416 0.38514 0.0
C320 C 0.78717 0.69086 0.47043 0.0
O321 O 0.78029 0.668 0.31058 0.0
Mg322 Mg 0.57394 0.54311 0.62682 0.0
O323 O 0.5584 0.54953 0.56674 0.0
O324 O 0.54772 0.5652 0.6059 0.0
Mg325 Mg 0.55758 0.5697 0.69166 0.0
C326 C 0.54949 0.55735 0.56515 0.0
C327 C 0.57414 0.52354 0.5284 0.0
O328 O 0.56374 0.52084 0.55571 0.0
O329 O 0.58623 0.55984 0.60368 0.0
O330 O 0.57569 0.57539 0.64567 0.0
O331 O 0.55977 0.53102 0.6714 0.0
O332 O 0.56425 0.55025 0.69829 0.0
C333 C 0.58501 0.57136 0.61671 0.0
C334 C 0.55735 0.54053 0.70401 0.0
O335 O 0.58119 0.53197 0.54911 0.0
Mg336 Mg 0.28983 0.32028 0.40216 0.0
O337 O 0.29737 0.30473 0.34483 0.0
O338 O 0.31272 0.2946 0.38961 0.0
Mg339 Mg 0.31584 0.30477 0.47595 0.0
C340 C 0.30542 0.29601 0.34642 0.0
C341 C 0.2718 0.32001 0.29724 0.0
O342 O 0.26938 0.3092 0.32151 0.0
O343 O 0.30656 0.33286 0.38265 0.0
O344 O 0.32166 0.32293 0.43082 0.0
O345 O 0.27749 0.30589 0.44369 0.0
O346 O 0.29621 0.31092 0.47591 0.0
C347 C 0.31787 0.33203 0.39973 0.0
C348 C 0.28664 0.30375 0.47894 0.0
O349 O 0.27949 0.32732 0.32183 0.0
Mg350 Mg 0.42647 0.54058 0.12938 0.0
O351 O 0.44203 0.54781 0.07106 0.0
O352 O 0.45246 0.56304 0.11535 0.0
Mg353 Mg 0.44249 0.56638 0.20195 0.0
C354 C 0.45088 0.55573 0.07233 0.0
C355 C 0.42027 0.51876 0.04187 0.0
O356 O 0.42524 0.51196 0.08321 0.0
O357 O 0.41407 0.55746 0.11079 0.0
O358 O 0.42434 0.57256 0.15749 0.0
O359 O 0.44078 0.52801 0.16979 0.0
O360 O 0.43611 0.5468 0.20247 0.0
C361 C 0.4151 0.5688 0.12717 0.0
C362 C 0.44314 0.53712 0.205 0.0
O363 O 0.41903 0.53042 0.04963 0.0
Mg364 Mg 0.20048 0.67815 0.87484 0.0
O365 O 0.19759 0.69464 0.81403 0.0
O366 O 0.18156 0.70616 0.84367 0.0
Mg367 Mg 0.17378 0.69657 0.92476 0.0
C368 C 0.19051 0.70409 0.80859 0.0
C369 C 0.22276 0.67562 0.78867 0.0
O370 O 0.22647 0.68525 0.81932 0.0
O371 O 0.18349 0.66766 0.83995 0.0
O372 O 0.16778 0.67893 0.87583 0.0
O373 O 0.21253 0.69034 0.93131 0.0
O374 O 0.19225 0.6881 0.94311 0.0
C375 C 0.17185 0.66948 0.84795 0.0
C376 C 0.20244 0.6935 0.95842 0.0
O377 O 0.21282 0.66999 0.80334 0.0
Mg378 Mg 0.07316 0.45725 0.64419 0.0
O379 O 0.057 0.4504 0.58839 0.0
O380 O 0.04671 0.43523 0.63376 0.0
Mg381 Mg 0.05729 0.43148 0.71831 0.0
C382 C 0.04805 0.44261 0.59084 0.0
C383 C 0.07338 0.47679 0.54501 0.0
O384 O 0.0635 0.4802 0.57466 0.0
O385 O 0.08517 0.44018 0.62223 0.0
O386 O 0.07489 0.42525 0.67004 0.0
O387 O 0.05942 0.46986 0.68876 0.0
O388 O 0.06408 0.45089 0.71882 0.0
C389 C 0.08396 0.42884 0.63826 0.0
C390 C 0.05723 0.46066 0.72363 0.0
O391 O 0.07996 0.46778 0.56374 0.0
Mg392 Mg 0.29224 0.67385 0.11397 0.0
O393 O 0.29964 0.68977 0.16928 0.0
O394 O 0.3148 0.6999 0.12315 0.0
Mg395 Mg 0.31797 0.68939 0.03792 0.0
C396 C 0.30757 0.69858 0.16661 0.0
C397 C 0.27219 0.67288 0.21171 0.0
O398 O 0.26762 0.68169 0.17838 0.0
O399 O 0.30919 0.66155 0.13415 0.0
O400 O 0.32411 0.67161 0.08528 0.0
O401 O 0.27968 0.68785 0.07078 0.0
O402 O 0.29843 0.68294 0.03884 0.0
C403 C 0.32049 0.66257 0.11718 0.0
C404 C 0.28873 0.68992 0.035 0.0
O405 O 0.28202 0.66721 0.1957 0.0
Mg406 Mg 0.07037 0.54492 0.87163 0.0
O407 O 0.05409 0.55079 0.92871 0.0
O408 O 0.04254 0.56514 0.88413 0.0
Mg409 Mg 0.05238 0.56933 0.79803 0.0
C410 C 0.04462 0.55794 0.92711 0.0
C411 C 0.07518 0.52409 0.96429 0.0
O412 O 0.06843 0.51778 0.92693 0.0
O413 O 0.08132 0.56282 0.89069 0.0
O414 O 0.06989 0.57693 0.84299 0.0
O415 O 0.05729 0.5313 0.82904 0.0
O416 O 0.06059 0.55045 0.7976 0.0
C417 C 0.07936 0.57401 0.87374 0.0
C418 C 0.05446 0.54021 0.79353 0.0
O419 O 0.0782 0.53526 0.95232 0.0
Mg420 Mg 0.20554 0.32275 0.62379 0.0
O421 O 0.19867 0.30666 0.67966 0.0
O422 O 0.18364 0.2962 0.63416 0.0
Mg423 Mg 0.18002 0.30671 0.54914 0.0
C424 C 0.19096 0.29764 0.67725 0.0
C425 C 0.22709 0.32785 0.71399 0.0
O426 O 0.23383 0.32258 0.67325 0.0
O427 O 0.18844 0.33468 0.64417 0.0
O428 O 0.17352 0.3245 0.5959 0.0
O429 O 0.21838 0.30903 0.58107 0.0
O430 O 0.19948 0.3135 0.5492 0.0
C431 C 0.17713 0.3336 0.62749 0.0
C432 C 0.20933 0.30672 0.54548 0.0
O433 O 0.21556 0.32976 0.70489 0.0
Mg434 Mg 0.42305 0.45461 0.35731 0.0
O435 O 0.43876 0.44743 0.41474 0.0
O436 O 0.44905 0.43207 0.37091 0.0
Mg437 Mg 0.43882 0.42859 0.28496 0.0
C438 C 0.44758 0.43949 0.4136 0.0
C439 C 0.42345 0.47286 0.46072 0.0
O440 O 0.43414 0.47524 0.43532 0.0
O441 O 0.4107 0.43779 0.37817 0.0
O442 O 0.42077 0.42268 0.33076 0.0
O443 O 0.43719 0.46703 0.31471 0.0
O444 O 0.43241 0.44815 0.28374 0.0
C445 C 0.41165 0.42645 0.36178 0.0
C446 C 0.43944 0.45781 0.27999 0.0
O447 O 0.41606 0.46508 0.43724 0.0
H448 H 0.25792 0.18642 0.73352 0.0
H449 H 0.24906 0.18135 0.63904 0.0
H450 H 0.26875 0.1463 0.63903 0.0
H451 H 0.2778 0.15136 0.7338 0.0
H452 H 0.27148 0.15986 0.53603 0.0
H453 H 0.22171 0.15624 0.59776 0.0
H454 H 0.22886 0.17046 0.62176 0.0
H455 H 0.23417 0.15579 0.65039 0.0
C456 C 0.26028 0.17756 0.71387 0.0
C457 C 0.26855 0.16927 0.7414 0.0
C458 C 0.25515 0.17465 0.6599 0.0
C459 C 0.2581 0.16337 0.63235 0.0
C460 C 0.26629 0.15502 0.65975 0.0
H461 H 0.21889 0.1418 0.31427 0.0
H462 H 0.22862 0.14099 0.4102 0.0
C463 C 0.27142 0.15791 0.71395 0.0
C464 C 0.25312 0.16068 0.57365 0.0
H465 H 0.22602 0.15861 0.49655 0.0
C466 C 0.26154 0.15942 0.52744 0.0
C467 C 0.24017 0.15996 0.56259 0.0
C468 C 0.2307 0.16055 0.61082 0.0
C469 C 0.25733 0.15802 0.47014 0.0
C470 C 0.24437 0.15803 0.45873 0.0
C471 C 0.23596 0.15873 0.50523 0.0
C472 C 0.2393 0.15792 0.39883 0.0
C473 C 0.26681 0.1566 0.42231 0.0
C474 C 0.24211 0.16768 0.36048 0.0
C475 C 0.23657 0.16817 0.30567 0.0
C476 C 0.22804 0.15895 0.28815 0.0
C477 C 0.22544 0.14904 0.32624 0.0
C478 C 0.23097 0.14857 0.38115 0.0
H479 H 0.27583 0.15302 0.43915 0.0
H480 H 0.26339 0.15018 0.38803 0.0
H481 H 0.26856 0.16584 0.40233 0.0
H482 H 0.2483 0.17515 0.3736 0.0
H483 H 0.23875 0.17597 0.27764 0.0
H484 H 0.08005 0.99817 0.48617 0.0
H485 H 0.08241 0.00744 0.58239 0.0
H486 H 0.08446 0.97073 0.65804 0.0
H487 H 0.0824 0.9614 0.56203 0.0
H488 H 0.06649 0.00504 0.67051 0.0
H489 H 0.11274 0.98792 0.74086 0.0
H490 H 0.10758 0.98706 0.66647 0.0
H491 H 0.10268 0.97548 0.71815 0.0
C492 C 0.08122 0.99207 0.52316 0.0
C493 C 0.08104 0.97904 0.51633 0.0
C494 C 0.08257 0.99739 0.57817 0.0
C495 C 0.08378 0.9898 0.62748 0.0
C496 C 0.08386 0.9768 0.62062 0.0
H497 H 0.06054 0.00758 0.97404 0.0
H498 H 0.06356 -0.00062 0.87646 0.0
C499 C 0.08259 0.97147 0.56561 0.0
C500 C 0.0838 0.99544 0.68634 0.0
H501 H 0.09932 0.99578 0.81581 0.0
C502 C 0.07375 0.00311 0.70201 0.0
C503 C 0.09334 0.99306 0.72737 0.0
C504 C 0.10476 0.98554 0.71221 0.0
C505 C 0.07274 0.00812 0.75797 0.0
C506 C 0.08191 0.00517 0.79993 0.0
C507 C 0.09221 0.99788 0.78382 0.0
C508 C 0.08074 0.00939 0.86094 0.0
C509 C 0.06187 0.01657 0.77159 0.0
C510 C 0.0897 0.01732 0.88566 0.0
C511 C 0.08806 0.02197 0.9419 0.0
C512 C 0.07743 0.01873 0.97433 0.0
C513 C 0.06877 0.01037 0.95017 0.0
C514 C 0.07044 0.00571 0.89421 0.0
H515 H 0.05783 0.02071 0.73164 0.0
H516 H 0.05445 0.01107 0.79321 0.0
H517 H 0.0647 0.02423 0.80116 0.0
H518 H 0.09777 0.0202 0.86083 0.0
H519 H 0.09492 0.02837 0.95925 0.0
H520 H 0.23923 0.8508 0.22862 0.0
H521 H 0.24714 0.85153 0.12917 0.0
H522 H 0.22106 0.82284 0.07957 0.0
H523 H 0.21293 0.82226 0.17817 0.0
H524 H 0.25839 0.8328 0.07154 0.0
H525 H 0.21648 0.84736 0.94911 0.0
H526 H 0.21751 0.84865 0.02697 0.0
H527 H 0.21356 0.83399 0.99372 0.0
C528 C 0.23505 0.84479 0.19633 0.0
C529 C 0.22543 0.83649 0.21139 0.0
C530 C 0.23959 0.84521 0.13951 0.0
C531 C 0.23458 0.83738 0.09663 0.0
C532 C 0.22486 0.82921 0.11142 0.0
H533 H 0.25493 0.81005 0.76124 0.0
H534 H 0.24531 0.81507 0.85438 0.0
C535 C 0.22028 0.82883 0.16806 0.0
C536 C 0.24014 0.83699 0.03773 0.0
H537 H 0.233 0.8381 0.89345 0.0
C538 C 0.25288 0.83415 0.03262 0.0
C539 C 0.23294 0.83873 0.98691 0.0
C540 C 0.2194 0.84248 0.98938 0.0
C541 C 0.2585 0.83254 0.9782 0.0
C542 C 0.25121 0.83392 0.92754 0.0
C543 C 0.23855 0.83702 0.93246 0.0
C544 C 0.25647 0.83155 0.86924 0.0
C545 C 0.27207 0.8289 0.97528 0.0
C546 C 0.26575 0.83933 0.84621 0.0
C547 C 0.27126 0.83651 0.79284 0.0
C548 C 0.26759 0.82585 0.76167 0.0
C549 C 0.25801 0.81831 0.78417 0.0
C550 C 0.25248 0.82117 0.83735 0.0
H551 H 0.27579 0.82607 0.01826 0.0
H552 H 0.27343 0.82109 0.94433 0.0
H553 H 0.27761 0.83695 0.95956 0.0
H554 H 0.26884 0.84747 0.86994 0.0
H555 H 0.27858 0.84253 0.77669 0.0
H556 H 0.42692 0.01202 0.01339 0.0
H557 H 0.42605 0.00212 0.10844 0.0
H558 H 0.39294 0.0231 0.14983 0.0
H559 H 0.39382 0.03323 0.05478 0.0
H560 H 0.41069 0.02451 0.23507 0.0
H561 H 0.40327 0.97523 0.17306 0.0
H562 H 0.41629 0.98209 0.13611 0.0
H563 H 0.40082 0.98798 0.12318 0.0
C564 C 0.41933 0.01442 0.04227 0.0
C565 C 0.41043 0.02343 0.02635 0.0
C566 C 0.41881 0.00868 0.09657 0.0
C567 C 0.40933 0.01173 0.13598 0.0
C568 C 0.4003 0.02055 0.11993 0.0
H569 H 0.40419 0.97132 0.4668 0.0
H570 H 0.39852 0.98101 0.37418 0.0
C571 C 0.4008 0.02631 0.06553 0.0
C572 C 0.40946 0.00638 0.19533 0.0
H573 H 0.41103 0.97885 0.2694 0.0
C574 C 0.41059 0.01453 0.24265 0.0
C575 C 0.40914 0.99336 0.20536 0.0
C576 C 0.40718 0.98416 0.15677 0.0
C577 C 0.41201 0.01001 0.29938 0.0
C578 C 0.41253 0.99699 0.30891 0.0
C579 C 0.41078 0.98884 0.26199 0.0
C580 C 0.41557 0.99165 0.36655 0.0
C581 C 0.41307 0.01922 0.34853 0.0
C582 C 0.42705 0.99438 0.39284 0.0
C583 C 0.43031 0.98889 0.4456 0.0
C584 C 0.42218 0.98047 0.47311 0.0
C585 C 0.41063 0.97781 0.44692 0.0
C586 C 0.40739 0.98331 0.39396 0.0
H587 H 0.40871 0.0283 0.33718 0.0
H588 H 0.40861 0.01559 0.38851 0.0
H589 H 0.42307 0.02096 0.35789 0.0
H590 H 0.43363 0.00056 0.37188 0.0
H591 H 0.43931 0.9911 0.46426 0.0
H592 H 0.72341 0.8435 0.27655 0.0
H593 H 0.73158 0.84702 0.37444 0.0
H594 H 0.75182 0.81234 0.36507 0.0
H595 H 0.74385 0.80882 0.26746 0.0
H596 H 0.72765 0.83182 0.46943 0.0
H597 H 0.77819 0.8363 0.42642 0.0
H598 H 0.7666 0.83768 0.36996 0.0
H599 H 0.77163 0.82255 0.39429 0.0
C600 C 0.72976 0.83673 0.29497 0.0
C601 C 0.73299 0.82588 0.26409 0.0
C602 C 0.7344 0.83874 0.35094 0.0
C603 C 0.74244 0.83003 0.37677 0.0
C604 C 0.74585 0.81933 0.34558 0.0
H605 H 0.75556 0.80807 0.72503 0.0
H606 H 0.74788 0.81193 0.62719 0.0
C607 C 0.74122 0.8173 0.2898 0.0
C608 C 0.74654 0.83154 0.4378 0.0
H609 H 0.77237 0.83129 0.52435 0.0
C610 C 0.73743 0.8319 0.48143 0.0
C611 C 0.75929 0.83182 0.45345 0.0
C612 C 0.76949 0.8322 0.40852 0.0
C613 C 0.74073 0.83187 0.54033 0.0
C614 C 0.75347 0.83129 0.55594 0.0
C615 C 0.76259 0.8316 0.51235 0.0
C616 C 0.75752 0.82951 0.6169 0.0
C617 C 0.73054 0.83232 0.58529 0.0
C618 C 0.76563 0.83805 0.64352 0.0
C619 C 0.7701 0.83584 0.69965 0.0
C620 C 0.76663 0.82499 0.72986 0.0
C621 C 0.75838 0.81656 0.70323 0.0
C622 C 0.75391 0.81878 0.64732 0.0
H623 H 0.7219 0.83661 0.56763 0.0
H624 H 0.72824 0.82267 0.599 0.0
H625 H 0.73352 0.83765 0.62413 0.0
H626 H 0.76861 0.84634 0.62061 0.0
H627 H 0.77649 0.84249 0.71877 0.0
H628 H 0.91518 0.03582 0.4469 0.0
H629 H 0.913 0.02663 0.35069 0.0
H630 H 0.92164 0.99037 0.42084 0.0
H631 H 0.92415 -0.00044 0.51715 0.0
H632 H 0.93557 0.99536 0.32834 0.0
H633 H 0.88638 0.0058 0.27495 0.0
H634 H 0.89485 0.01951 0.2957 0.0
H635 H 0.8925 0.00719 0.34756 0.0
C636 C 0.91641 0.02585 0.44214 0.0
C637 C 0.91987 0.01843 0.48978 0.0
C638 C 0.91508 0.02059 0.38704 0.0
C639 C 0.91698 0.00777 0.37855 0.0
C640 C 0.92007 0.00028 0.42637 0.0
H641 H 0.90574 0.96897 0.04843 0.0
H642 H 0.90348 0.97671 0.1478 0.0
C643 C 0.9215 0.00554 0.48143 0.0
C644 C 0.91687 0.0024 0.31917 0.0
H645 H 0.89961 0.00024 0.19499 0.0
C646 C 0.92765 0.99632 0.29944 0.0
C647 C 0.90649 0.00352 0.28156 0.0
C648 C 0.89436 0.00924 0.3012 0.0
C649 C 0.92849 0.99166 0.24278 0.0
C650 C 0.91838 0.9934 0.20419 0.0
C651 C 0.90743 -0.0009 0.22435 0.0
C652 C 0.91911 0.98941 0.14268 0.0
C653 C 0.94019 0.98484 0.22497 0.0
C654 C 0.92838 0.99429 0.10627 0.0
C655 C 0.92973 0.98986 0.04971 0.0
C656 C 0.92174 0.98056 0.02812 0.0
C657 C 0.91206 0.97612 0.06374 0.0
C658 C 0.91076 0.98052 0.12055 0.0
H659 H 0.94533 0.98117 0.26315 0.0
H660 H 0.93802 0.97695 0.19551 0.0
H661 H 0.94646 0.99138 0.2018 0.0
H662 H 0.93472 0.00138 0.12199 0.0
H663 H 0.93721 0.99356 0.02331 0.0
H664 H 0.75242 0.18659 0.76444 0.0
H665 H 0.74565 0.18421 0.86486 0.0
H666 H 0.77256 0.15482 0.88974 0.0
H667 H 0.77924 0.15695 0.78872 0.0
H668 H 0.75005 0.14971 0.94274 0.0
H669 H 0.76632 0.19718 0.99973 0.0
H670 H 0.75536 0.19712 0.94094 0.0
H671 H 0.77031 0.18974 0.93214 0.0
C672 C 0.75683 0.17953 0.79103 0.0
C673 C 0.76646 0.17203 0.76868 0.0
C674 C 0.753 0.17824 0.84857 0.0
C675 C 0.75882 0.16955 0.88518 0.0
C676 C 0.76802 0.16166 0.86235 0.0
H677 H 0.75324 0.17646 0.26063 0.0
H678 H 0.76116 0.17405 0.16192 0.0
C679 C 0.77182 0.16288 0.80458 0.0
C680 C 0.75552 0.16899 0.9476 0.0
H681 H 0.75377 0.18683 0.06982 0.0
C682 C 0.75093 0.15779 0.9707 0.0
C683 C 0.75693 0.17947 0.98433 0.0
C684 C 0.76262 0.19152 0.96325 0.0
C685 C 0.74733 0.1569 0.02915 0.0
C686 C 0.74812 0.16758 0.06507 0.0
C687 C 0.75306 0.17866 0.04226 0.0
C688 C 0.74364 0.16765 0.12602 0.0
C689 C 0.74287 0.1445 0.0519 0.0
C690 C 0.73119 0.16473 0.13895 0.0
C691 C 0.72667 0.16598 0.19548 0.0
C692 C 0.73446 0.17038 0.2401 0.0
C693 C 0.74699 0.17305 0.22731 0.0
C694 C 0.75153 0.17169 0.17086 0.0
H695 H 0.74658 0.13665 0.02566 0.0
H696 H 0.74567 0.14311 0.09776 0.0
H697 H 0.73254 0.14416 0.04936 0.0
H698 H 0.72483 0.16191 0.10495 0.0
H699 H 0.71694 0.16395 0.20368 0.0
H700 H 0.56298 0.99511 0.97201 0.0
H701 H 0.56597 0.00245 0.87286 0.0
H702 H 0.59607 0.97626 0.85002 0.0
H703 H 0.59331 0.969 0.94993 0.0
H704 H 0.60111 -0.0007 0.80077 0.0
H705 H 0.55455 0.98229 0.73321 0.0
H706 H 0.55384 0.99281 0.79358 0.0
H707 H 0.56156 0.97801 0.80144 0.0
C708 C 0.57031 0.99097 0.94616 0.0
C709 C 0.57783 0.98139 0.96874 0.0
C710 C 0.57196 0.99513 0.88932 0.0
C711 C 0.58104 0.98969 0.8536 0.0
C712 C 0.58894 0.98051 0.87672 0.0
H713 H 0.57653 0.99872 0.47845 0.0
H714 H 0.57861 0.98976 0.57543 0.0
C715 C 0.58735 0.97638 0.93383 0.0
C716 C 0.58202 0.99339 0.79179 0.0
H717 H 0.56502 0.99578 0.6672 0.0
C718 C 0.59326 0.99845 0.77136 0.0
C719 C 0.57186 0.99203 0.75313 0.0
C720 C 0.55982 0.98587 0.77121 0.0
C721 C 0.59446 0.0026 0.71382 0.0
C722 C 0.58406 0.00189 0.67613 0.0
C723 C 0.57297 0.99644 0.69614 0.0
C724 C 0.58426 0.00703 0.6163 0.0
C725 C 0.60689 0.0076 0.69394 0.0
C726 C 0.58688 0.01969 0.60675 0.0
C727 C 0.58581 0.02481 0.55124 0.0
C728 C 0.5819 0.01742 0.50425 0.0
C729 C 0.57956 0.00468 0.51365 0.0
C730 C 0.58073 -0.00046 0.5691 0.0
H731 H 0.61466 0.00381 0.72051 0.0
H732 H 0.60865 0.0053 0.64775 0.0
H733 H 0.60695 0.01789 0.69879 0.0
H734 H 0.5893 0.02574 0.64259 0.0
H735 H 0.58758 0.03468 0.54566 0.0
H736 H 0.71671 0.66285 0.79486 0.0
H737 H 0.72434 0.66152 0.89451 0.0
H738 H 0.76038 0.67476 0.83919 0.0
H739 H 0.75273 0.67645 0.73961 0.0
H740 H 0.74338 0.64906 0.94855 0.0
H741 H 0.75087 0.70018 0.96134 0.0
H742 H 0.74259 0.69295 0.90218 0.0
H743 H 0.75936 0.69281 0.90378 0.0
C744 C 0.7263 0.66537 0.80372 0.0
C745 C 0.73407 0.6699 0.75934 0.0
C746 C 0.73065 0.6646 0.86076 0.0
C747 C 0.74285 0.6683 0.87454 0.0
C748 C 0.75083 0.67216 0.82982 0.0
H749 H 0.77989 0.65785 0.20885 0.0
H750 H 0.77263 0.65544 0.10891 0.0
C751 C 0.74647 0.67304 0.77283 0.0
C752 C 0.74699 0.66862 0.93597 0.0
H753 H 0.75777 0.68822 0.04125 0.0
C754 C 0.74653 0.65762 0.96891 0.0
C755 C 0.75089 0.67984 0.96275 0.0
C756 C 0.75086 0.69214 0.93094 0.0
C757 C 0.74997 0.65751 0.02775 0.0
C758 C 0.7542 0.66866 0.054 0.0
C759 C 0.7546 0.67966 0.02106 0.0
C760 C 0.75804 0.66931 0.11585 0.0
C761 C 0.74872 0.64553 0.06153 0.0
C762 C 0.75234 0.67797 0.15299 0.0
C763 C 0.75658 0.67948 0.20982 0.0
C764 C 0.7666 0.67234 0.23086 0.0
C765 C 0.77208 0.66342 0.19416 0.0
C766 C 0.7679 0.66198 0.13704 0.0
H767 H 0.74215 0.63895 0.04023 0.0
H768 H 0.75796 0.64092 0.06415 0.0
H769 H 0.74541 0.64734 0.10633 0.0
H770 H 0.74474 0.68374 0.13763 0.0
H771 H 0.75214 0.68643 0.2369 0.0
H772 H 0.59158 0.53072 0.44802 0.0
H773 H 0.59361 0.52324 0.34808 0.0
H774 H 0.56441 0.4964 0.3784 0.0
H775 H 0.56213 0.50397 0.47761 0.0
H776 H 0.59873 0.50032 0.29839 0.0
H777 H 0.55107 0.51592 0.24073 0.0
H778 H 0.55863 0.52049 0.30728 0.0
H779 H 0.55127 0.50546 0.3014 0.0
C780 C 0.58568 0.52314 0.43358 0.0
C781 C 0.5766 0.51803 0.4706 0.0
C782 C 0.58684 0.51889 0.37643 0.0
C783 C 0.57896 0.50947 0.35538 0.0
C784 C 0.57036 0.50391 0.39324 0.0
H785 H 0.58403 0.4646 0.04555 0.0
H786 H 0.58626 0.47349 0.14236 0.0
C787 C 0.56913 0.50819 0.45011 0.0
C788 C 0.57941 0.50567 0.29352 0.0
H789 H 0.56126 0.50268 0.17275 0.0
C790 C 0.59057 0.50091 0.27073 0.0
C791 C 0.56883 0.50669 0.25708 0.0
C792 C 0.55681 0.51254 0.27762 0.0
C793 C 0.59132 0.49675 0.21301 0.0
C794 C 0.58054 0.49714 0.17757 0.0
C795 C 0.5695 0.50227 0.19996 0.0
C796 C 0.58031 0.49203 0.11764 0.0
C797 C 0.60368 0.49212 0.19052 0.0
C798 C 0.57607 0.49942 0.07138 0.0
C799 C 0.5746 0.4943 0.01603 0.0
C800 C 0.57735 0.48168 0.00577 0.0
C801 C 0.58193 0.47439 0.05177 0.0
C802 C 0.58329 0.47949 0.10721 0.0
H803 H 0.61158 0.49615 0.21542 0.0
H804 H 0.6041 0.48184 0.19533 0.0
H805 H 0.60492 0.49446 0.144 0.0
H806 H 0.57366 0.50912 0.07837 0.0
H807 H 0.57105 0.50018 0.9816 0.0
H808 H 0.74606 0.32559 0.23919 0.0
H809 H 0.73818 0.328 0.33799 0.0
H810 H 0.77528 0.33667 0.3978 0.0
H811 H 0.78318 0.3346 0.29908 0.0
H812 H 0.74441 0.31403 0.42885 0.0
H813 H 0.75543 0.36325 0.47934 0.0
H814 H 0.75589 0.35714 0.40646 0.0
H815 H 0.76885 0.35477 0.45484 0.0
C816 C 0.75251 0.32823 0.27319 0.0
C817 C 0.76525 0.32991 0.26118 0.0
C818 C 0.74799 0.32959 0.32967 0.0
C819 C 0.7561 0.33267 0.37531 0.0
C820 C 0.76878 0.3346 0.36321 0.0
H821 H 0.74586 0.31254 0.73404 0.0
H822 H 0.75278 0.31508 0.63398 0.0
C823 C 0.77329 0.33334 0.30668 0.0
C824 C 0.75151 0.33276 0.43609 0.0
H825 H 0.75076 0.35005 0.56049 0.0
C826 C 0.7457 0.32196 0.45741 0.0
C827 C 0.75306 0.34314 0.4733 0.0
C828 C 0.75853 0.35527 0.45217 0.0
C829 C 0.74171 0.32114 0.51515 0.0
C830 C 0.74385 0.33127 0.55315 0.0
C831 C 0.74931 0.34222 0.53153 0.0
C832 C 0.7405 0.33058 0.61546 0.0
C833 C 0.73514 0.30943 0.53476 0.0
C834 C 0.73173 0.33885 0.63918 0.0
C835 C 0.72784 0.33751 0.69675 0.0
C836 C 0.73266 0.32787 0.73155 0.0
C837 C 0.74187 0.31999 0.70834 0.0
C838 C 0.74579 0.32138 0.651 0.0
H839 H 0.73112 0.30421 0.49758 0.0
H840 H 0.74193 0.30323 0.55678 0.0
H841 H 0.72753 0.31161 0.56578 0.0
H842 H 0.72761 0.34608 0.6126 0.0
H843 H 0.72074 0.34375 0.71331 0.0
H844 H 0.92309 0.4997 0.0231 0.0
H845 H 0.92081 0.50868 0.92625 0.0
H846 H 0.91027 0.47265 0.85918 0.0
H847 H 0.91218 0.46369 0.95597 0.0
H848 H 0.93424 0.50287 0.83387 0.0
H849 H 0.88461 0.49436 0.78242 0.0
H850 H 0.89076 0.49288 0.85492 0.0
H851 H 0.89246 0.48033 0.80367 0.0
C852 C 0.92006 0.49373 0.98795 0.0
C853 C 0.91781 0.48098 0.99733 0.0
C854 C 0.91877 0.49888 0.93256 0.0
C855 C 0.91522 0.49139 0.88543 0.0
C856 C 0.9127 0.47871 0.89498 0.0
H857 H 0.9358 0.50332 0.52888 0.0
H858 H 0.93315 0.49614 0.6285 0.0
C859 C 0.91388 0.47357 0.95041 0.0
C860 C 0.91526 0.49655 0.82563 0.0
H861 H 0.898 0.4989 0.70155 0.0
C862 C 0.92626 0.50211 0.8052 0.0
C863 C 0.90481 0.49572 0.7883 0.0
C864 C 0.89246 0.49062 0.80864 0.0
C865 C 0.92723 0.50651 0.74814 0.0
C866 C 0.91704 0.50501 0.70981 0.0
C867 C 0.90588 0.49985 0.73067 0.0
C868 C 0.91788 0.50866 0.64787 0.0
C869 C 0.93917 0.51281 0.72964 0.0
C870 C 0.90977 0.51764 0.62468 0.0
C871 C 0.91116 0.52167 0.5673 0.0
C872 C 0.92069 0.51676 0.53216 0.0
C873 C 0.92844 0.50738 0.55488 0.0
C874 C 0.927 0.50332 0.61199 0.0
H875 H 0.94442 0.51651 0.76743 0.0
H876 H 0.94523 0.50592 0.7074 0.0
H877 H 0.9373 0.5206 0.69919 0.0
H878 H 0.9026 0.52181 0.65148 0.0
H879 H 0.90502 0.52889 0.55113 0.0
H880 H 0.21469 0.33392 0.81361 0.0
H881 H 0.22316 0.335 0.91162 0.0
H882 H 0.26004 0.32785 0.84505 0.0
H883 H 0.25157 0.3264 0.74683 0.0
H884 H 0.25483 0.31276 0.93257 0.0
H885 H 0.24279 0.36087 0.9981 0.0
H886 H 0.2294 0.35242 0.97318 0.0
H887 H 0.24197 0.3557 0.92376 0.0
C888 C 0.22464 0.33279 0.8196 0.0
C889 C 0.23245 0.33005 0.77232 0.0
C890 C 0.22949 0.3335 0.87576 0.0
C891 C 0.24227 0.33169 0.88576 0.0
C892 C 0.25015 0.32933 0.83839 0.0
H893 H 0.27791 0.33952 0.22572 0.0
H894 H 0.27104 0.34284 0.1256 0.0
C895 C 0.2453 0.32851 0.78224 0.0
C896 C 0.24722 0.33113 0.94591 0.0
H897 H 0.24795 0.34668 0.07516 0.0
C898 C 0.25343 0.32025 0.96351 0.0
C899 C 0.24554 0.34094 0.98624 0.0
C900 C 0.23968 0.35319 0.96921 0.0
C901 C 0.25768 0.31874 0.02059 0.0
C902 C 0.25537 0.32825 0.06174 0.0
C903 C 0.24953 0.33932 0.0438 0.0
C904 C 0.25887 0.32677 0.1236 0.0
C905 C 0.26469 0.307 0.03611 0.0
C906 C 0.254 0.31687 0.15626 0.0
C907 C 0.25794 0.31491 0.21325 0.0
C908 C 0.26672 0.32291 0.23903 0.0
C909 C 0.27115 0.33317 0.20713 0.0
C910 C 0.26725 0.33508 0.1499 0.0
H911 H 0.26883 0.30253 0.99719 0.0
H912 H 0.27225 0.30895 0.06771 0.0
H913 H 0.25814 0.30023 0.05598 0.0
H914 H 0.24728 0.31052 0.13733 0.0
H915 H 0.25425 0.30698 0.23671 0.0
H916 H 0.43689 0.49034 0.51954 0.0
H917 H 0.43397 0.49732 0.61927 0.0
H918 H 0.40149 0.47388 0.63474 0.0
H919 H 0.40422 0.46697 0.53427 0.0
H920 H 0.39831 0.49725 0.68559 0.0
H921 H 0.44239 0.47533 0.75823 0.0
H922 H 0.44457 0.4859 0.69883 0.0
H923 H 0.43543 0.472 0.68871 0.0
C924 C 0.42906 0.48673 0.54388 0.0
C925 C 0.42085 0.47801 0.51906 0.0
C926 C 0.42745 0.49067 0.60104 0.0
C927 C 0.41769 0.48589 0.63482 0.0
C928 C 0.40915 0.4776 0.60953 0.0
H929 H 0.42072 0.4941 0.01128 0.0
H930 H 0.41828 0.48526 0.91416 0.0
C931 C 0.41072 0.47367 0.55211 0.0
C932 C 0.41662 0.48938 0.69682 0.0
H933 H 0.43294 0.48969 0.82379 0.0
C934 C 0.40582 0.49551 0.71602 0.0
C935 C 0.42631 0.48686 0.73676 0.0
C936 C 0.43777 0.47954 0.71982 0.0
C937 C 0.40468 0.49964 0.7736 0.0
C938 C 0.41471 0.49779 0.8126 0.0
C939 C 0.42529 0.49122 0.79385 0.0
C940 C 0.41474 0.50297 0.87232 0.0
C941 C 0.39272 0.50589 0.79205 0.0
C942 C 0.41344 0.51585 0.88129 0.0
C943 C 0.41473 0.52091 0.93679 0.0
C944 C 0.41753 0.51322 0.98441 0.0
C945 C 0.41856 0.50029 0.97557 0.0
C946 C 0.41718 0.49522 0.92006 0.0
H947 H 0.38476 0.5029 0.76453 0.0
H948 H 0.39048 0.5038 0.83801 0.0
H949 H 0.39373 0.51613 0.78723 0.0
H950 H 0.41189 0.52208 0.84505 0.0
H951 H 0.41397 0.53092 0.94192 0.0
H952 H 0.28216 0.65966 0.30242 0.0
H953 H 0.27402 0.6581 0.40122 0.0
H954 H 0.24168 0.67944 0.35106 0.0
H955 H 0.2499 0.68132 0.25284 0.0
H956 H 0.25191 0.68859 0.44691 0.0
H957 H 0.24652 0.6375 0.47206 0.0
H958 H 0.26196 0.64205 0.45098 0.0
H959 H 0.24909 0.64478 0.40258 0.0
C960 C 0.27322 0.66384 0.3122 0.0
C961 C 0.26668 0.67062 0.26971 0.0
C962 C 0.26854 0.66289 0.36871 0.0
C963 C 0.25715 0.66853 0.38355 0.0
C964 C 0.25047 0.67499 0.3407 0.0
H965 H 0.21401 0.66107 0.6999 0.0
H966 H 0.22293 0.65883 0.60289 0.0
C967 C 0.25518 0.67604 0.28447 0.0
C968 C 0.2526 0.66853 0.44445 0.0
H969 H 0.24457 0.6497 0.55795 0.0
C970 C 0.25027 0.68007 0.47107 0.0
C971 C 0.25034 0.65743 0.47588 0.0
C972 C 0.25198 0.64473 0.44879 0.0
C973 C 0.24579 0.68084 0.52809 0.0
C974 C 0.24394 0.66975 0.56027 0.0
C975 C 0.24616 0.65819 0.53358 0.0
C976 C 0.23926 0.67003 0.62091 0.0
C977 C 0.24277 0.69354 0.55263 0.0
C978 C 0.2457 0.67667 0.664 0.0
C979 C 0.24056 0.67808 0.71931 0.0
C980 C 0.22899 0.67267 0.73296 0.0
C981 C 0.22294 0.66536 0.69084 0.0
C982 C 0.22802 0.66408 0.63529 0.0
H983 H 0.24139 0.70057 0.51785 0.0
H984 H 0.23423 0.69324 0.57975 0.0
H985 H 0.25064 0.69673 0.5801 0.0
H986 H 0.25455 0.68105 0.65442 0.0
H987 H 0.24552 0.68366 0.75093 0.0
H988 H 0.08983 0.469 0.46137 0.0
H989 H 0.09222 0.47737 0.36329 0.0
H990 H 0.06519 0.50598 0.40144 0.0
H991 H 0.06253 0.49753 0.49883 0.0
H992 H 0.05982 0.49408 0.30232 0.0
H993 H 0.10957 0.5081 0.3007 0.0
H994 H 0.10714 0.49216 0.32148 0.0
H995 H 0.10129 0.50449 0.3667 0.0
C996 C 0.08454 0.4772 0.44916 0.0
C997 C 0.07597 0.48258 0.48792 0.0
C998 C 0.08597 0.48201 0.39313 0.0
C999 C 0.07898 0.4924 0.37511 0.0
C1000 C 0.07069 0.49798 0.41435 0.0
H1001 H 0.08488 0.53606 0.05918 0.0
H1002 H 0.0865 0.528 0.15816 0.0
C1003 C 0.06919 0.49313 0.47009 0.0
C1004 C 0.07953 0.4969 0.31423 0.0
H1005 H 0.0991 0.50808 0.20954 0.0
C1006 C 0.06841 0.49718 0.28214 0.0
C1007 C 0.09072 0.50104 0.28804 0.0
C1008 C 0.10284 0.50156 0.32111 0.0
C1009 C 0.06815 0.5014 0.22463 0.0
C1010 C 0.0794 0.50517 0.19778 0.0
C1011 C 0.09052 0.50503 0.22995 0.0
C1012 C 0.07965 0.50959 0.13681 0.0
C1013 C 0.05577 0.50205 0.19361 0.0
C1014 C 0.07567 0.50179 0.0916 0.0
C1015 C 0.07466 0.50638 0.03509 0.0
C1016 C 0.07775 0.51883 0.02253 0.0
C1017 C 0.0824 0.52643 0.06734 0.0
C1018 C 0.08333 0.52184 0.12398 0.0
H1019 H 0.04782 0.50201 0.22448 0.0
H1020 H 0.05513 0.51058 0.16645 0.0
H1021 H 0.05479 0.49381 0.16491 0.0
H1022 H 0.07306 0.49222 0.1003 0.0
H1023 H 0.07117 0.50024 0.00153 0.0
H1024 H 0.11281 0.06463 0.10809 0.0
H1025 H 0.13095 0.07855 0.11339 0.0
H1026 H 0.10644 0.1102 0.13077 0.0
H1027 H 0.08838 0.09644 0.12642 0.0
H1028 H 0.13883 0.09976 0.05073 0.0
H1029 H 0.12769 0.11187 0.27808 0.0
H1030 H 0.1205 0.09892 0.24096 0.0
H1031 H 0.11482 0.11454 0.22995 0.0
C1032 C 0.11129 0.07458 0.11189 0.0
C1033 C 0.09915 0.07942 0.11761 0.0
C1034 C 0.12166 0.08251 0.11526 0.0
C1035 C 0.12003 0.09535 0.12429 0.0
C1036 C 0.10792 0.10027 0.12558 0.0
H1037 H 0.15804 0.16375 0.13443 0.0
H1038 H 0.14398 0.14588 0.13908 0.0
C1039 C 0.09759 0.09239 0.12263 0.0
C1040 C 0.13085 0.10368 0.1343 0.0
H1041 H 0.14214 0.12536 0.22932 0.0
C1042 C 0.13971 0.1052 0.09014 0.0
C1043 C 0.13205 0.11066 0.18612 0.0
C1044 C 0.12333 0.10883 0.23674 0.0
C1045 C 0.14928 0.11409 0.09503 0.0
C1046 C 0.15001 0.12155 0.14547 0.0
C1047 C 0.14151 0.11963 0.19066 0.0
C1048 C 0.15866 0.13226 0.14932 0.0
C1049 C 0.15818 0.11592 0.04518 0.0
C1050 C 0.17156 0.13051 0.15574 0.0
C1051 C 0.17966 0.14076 0.15374 0.0
C1052 C 0.17495 0.15285 0.14464 0.0
C1053 C 0.16197 0.15456 0.14114 0.0
C1054 C 0.15392 0.14436 0.14374 0.0
H1055 H 0.1557 0.1101 0.00707 0.0
H1056 H 0.15827 0.12587 0.03179 0.0
H1057 H 0.16776 0.11345 0.05922 0.0
H1058 H 0.17537 0.12122 0.16063 0.0
H1059 H 0.18961 0.13913 0.15632 0.0
H1060 H 0.15485 0.83022 0.44521 0.0
H1061 H 0.13827 0.84572 0.44055 0.0
H1062 H 0.16089 0.86859 0.32862 0.0
H1063 H 0.1776 0.85303 0.3325 0.0
H1064 H 0.14023 0.8704 0.47774 0.0
H1065 H 0.12705 0.86765 0.24516 0.0
H1066 H 0.13615 0.85572 0.28066 0.0
H1067 H 0.14337 0.87007 0.25874 0.0
C1068 C 0.15629 0.83845 0.4189 0.0
C1069 C 0.16761 0.84037 0.38929 0.0
C1070 C 0.14679 0.84733 0.41646 0.0
C1071 C 0.14833 0.85828 0.38417 0.0
C1072 C 0.15945 0.86011 0.35321 0.0
H1073 H 0.10384 0.92617 0.42037 0.0
H1074 H 0.12051 0.9106 0.42612 0.0
C1075 C 0.16899 0.85121 0.35553 0.0
C1076 C 0.13849 0.86799 0.38542 0.0
H1077 H 0.11769 0.88369 0.30053 0.0
C1078 C 0.13529 0.87332 0.43902 0.0
C1079 C 0.13201 0.8717 0.33492 0.0
C1080 C 0.13471 0.86594 0.27662 0.0
C1081 C 0.12579 0.88228 0.44347 0.0
C1082 C 0.11943 0.88611 0.39285 0.0
C1083 C 0.12263 0.88078 0.33926 0.0
C1084 C 0.10916 0.89537 0.39443 0.0
C1085 C 0.12242 0.88733 0.50244 0.0
C1086 C 0.09725 0.89196 0.37515 0.0
C1087 C 0.08774 0.90081 0.37166 0.0
C1088 C 0.08995 0.91331 0.38711 0.0
C1089 C 0.10179 0.91662 0.4085 0.0
C1090 C 0.11133 0.90773 0.41185 0.0
H1091 H 0.12608 0.88135 0.5379 0.0
H1092 H 0.1265 0.89677 0.50752 0.0
H1093 H 0.11215 0.88814 0.50726 0.0
H1094 H 0.09537 0.88246 0.36167 0.0
H1095 H 0.07874 0.89789 0.35519 0.0
H1096 H 0.41775 0.90121 0.61575 0.0
H1097 H 0.40052 0.88638 0.61698 0.0
H1098 H 0.37426 0.9167 0.60363 0.0
H1099 H 0.39152 0.93163 0.60098 0.0
H1100 H 0.38303 0.88559 0.70189 0.0
H1101 H 0.36006 0.89205 0.48813 0.0
H1102 H 0.37549 0.8979 0.50339 0.0
H1103 H 0.362 0.90613 0.52923 0.0
C1104 C 0.40832 0.90473 0.61173 0.0
C1105 C 0.40601 0.91761 0.60837 0.0
C1106 C 0.39847 0.89623 0.61265 0.0
C1107 C 0.38609 0.90041 0.61039 0.0
C1108 C 0.38373 0.91323 0.60445 0.0
H1109 H 0.31717 0.85681 0.64627 0.0
H1110 H 0.33201 0.87421 0.64997 0.0
C1111 C 0.39362 0.92176 0.60295 0.0
C1112 C 0.37577 0.89137 0.619 0.0
H1113 H 0.34987 0.87885 0.55535 0.0
C1114 C 0.37578 0.88414 0.66982 0.0
C1115 C 0.36623 0.88955 0.57744 0.0
C1116 C 0.36595 0.89673 0.52123 0.0
C1117 C 0.36666 0.87501 0.67973 0.0
C1118 C 0.35731 0.87301 0.63765 0.0
C1119 C 0.35704 0.88047 0.58765 0.0
C1120 C 0.34837 0.86254 0.64231 0.0
C1121 C 0.36712 0.86751 0.73497 0.0
C1122 C 0.3527 0.85024 0.63787 0.0
C1123 C 0.34429 0.84033 0.6355 0.0
C1124 C 0.33136 0.84251 0.63769 0.0
C1125 C 0.32707 0.85481 0.64499 0.0
C1126 C 0.33552 0.86476 0.64671 0.0
H1127 H 0.3728 0.8722 0.76884 0.0
H1128 H 0.35759 0.86588 0.75219 0.0
H1129 H 0.3714 0.8583 0.72583 0.0
H1130 H 0.36258 0.84835 0.63382 0.0
H1131 H 0.34791 0.83098 0.62985 0.0
H1132 H 0.3165 0.13859 0.8466 0.0
H1133 H 0.33068 0.12063 0.84264 0.0
H1134 H 0.36021 0.14313 0.91412 0.0
H1135 H 0.34629 0.16103 0.91816 0.0
H1136 H 0.3552 0.11811 0.78774 0.0
H1137 H 0.35688 0.11276 0.02671 0.0
H1138 H 0.34479 0.12146 0.99013 0.0
H1139 H 0.35986 0.12835 0.00185 0.0
C1140 C 0.32606 0.13976 0.86079 0.0
C1141 C 0.3302 0.15125 0.88321 0.0
C1142 C 0.33411 0.12948 0.85873 0.0
C1143 C 0.34638 0.13051 0.8794 0.0
C1144 C 0.35069 0.14208 0.8992 0.0
H1145 H 0.4145 0.09233 0.83732 0.0
H1146 H 0.39662 0.10624 0.84308 0.0
C1147 C 0.34271 0.15233 0.90109 0.0
C1148 C 0.35482 0.11958 0.88072 0.0
H1149 H 0.37273 0.10216 0.97267 0.0
C1150 C 0.35889 0.11448 0.82813 0.0
C1151 C 0.35949 0.11477 0.93356 0.0
C1152 C 0.35496 0.11952 0.99136 0.0
C1153 C 0.36808 0.10515 0.82694 0.0
C1154 C 0.37333 0.10092 0.87966 0.0
C1155 C 0.36875 0.10551 0.93235 0.0
C1156 C 0.38427 0.0925 0.88037 0.0
C1157 C 0.37231 0.10008 0.76924 0.0
C1158 C 0.38337 0.08029 0.90181 0.0
C1159 C 0.39365 0.07222 0.89868 0.0
C1160 C 0.40497 0.07632 0.87439 0.0
C1161 C 0.40593 0.08878 0.8558 0.0
C1162 C 0.39569 0.09677 0.85874 0.0
H1163 H 0.36531 0.10185 0.73465 0.0
H1164 H 0.38114 0.10473 0.75656 0.0
H1165 H 0.37409 0.0899 0.77194 0.0
H1166 H 0.37464 0.07689 0.91926 0.0
H1167 H 0.39258 0.0627 0.91342 0.0
H1168 H 0.88794 0.93273 0.90542 0.0
H1169 H 0.87062 0.91781 0.9104 0.0
H1170 H 0.8966 0.88734 0.89475 0.0
H1171 H 0.9139 0.9021 0.88932 0.0
H1172 H 0.86634 0.89932 0.8153 0.0
H1173 H 0.87265 0.87777 0.03221 0.0
H1174 H 0.8786 0.89307 0.01438 0.0
H1175 H 0.88661 0.87936 0.98973 0.0
C1176 C 0.88999 0.92285 0.90452 0.0
C1177 C 0.90229 0.91859 0.89689 0.0
C1178 C 0.88008 0.91435 0.90697 0.0
C1179 C 0.88236 0.9015 0.90303 0.0
C1180 C 0.89467 0.89722 0.89835 0.0
H1181 H 0.84406 0.8318 0.88529 0.0
H1182 H 0.85883 0.84909 0.88496 0.0
C1183 C 0.90454 0.90567 0.89518 0.0
C1184 C 0.87194 0.8925 0.89907 0.0
H1185 H 0.85931 0.8672 0.96635 0.0
C1186 C 0.86465 0.89237 0.84855 0.0
C1187 C 0.86988 0.88345 0.94239 0.0
C1188 C 0.87726 0.88342 0.99803 0.0
C1189 C 0.85565 0.88306 0.8391 0.0
C1190 C 0.85376 0.87382 0.88198 0.0
C1191 C 0.86082 0.87422 0.93328 0.0
C1192 C 0.84479 0.8634 0.87435 0.0
C1193 C 0.84867 0.88289 0.78232 0.0
C1194 C 0.83199 0.86565 0.86668 0.0
C1195 C 0.8235 0.85572 0.86599 0.0
C1196 C 0.82767 0.84341 0.87404 0.0
C1197 C 0.84054 0.84117 0.87921 0.0
C1198 C 0.849 0.85106 0.87926 0.0
H1199 H 0.85348 0.8885 0.74861 0.0
H1200 H 0.84755 0.87321 0.76602 0.0
H1201 H 0.83925 0.88692 0.78888 0.0
H1202 H 0.82849 0.8751 0.86385 0.0
H1203 H 0.81364 0.85777 0.8626 0.0
H1204 H 0.81502 0.14031 0.64623 0.0
H1205 H 0.8307 0.12371 0.65313 0.0
H1206 H 0.85997 0.15086 0.63214 0.0
H1207 H 0.84445 0.16745 0.62467 0.0
H1208 H 0.8495 0.11992 0.55675 0.0
H1209 H 0.87045 0.12796 0.77392 0.0
H1210 H 0.85482 0.13291 0.75561 0.0
H1211 H 0.86801 0.14161 0.73004 0.0
C1212 C 0.82481 0.14278 0.64449 0.0
C1213 C 0.8285 0.1552 0.63478 0.0
C1214 C 0.83373 0.13328 0.64808 0.0
C1215 C 0.84646 0.13609 0.6432 0.0
C1216 C 0.85019 0.14853 0.63642 0.0
H1217 H 0.91747 0.09979 0.63205 0.0
H1218 H 0.89979 0.1141 0.63123 0.0
C1219 C 0.8413 0.15799 0.63209 0.0
C1220 C 0.85588 0.12604 0.64045 0.0
H1221 H 0.8814 0.11449 0.71033 0.0
C1222 C 0.85641 0.11859 0.59053 0.0
C1223 C 0.86489 0.12446 0.68443 0.0
C1224 C 0.86453 0.13208 0.73933 0.0
C1225 C 0.86604 0.10988 0.58238 0.0
C1226 C 0.87519 0.10841 0.62606 0.0
C1227 C 0.87443 0.11566 0.6767 0.0
C1228 C 0.88588 0.0997 0.61989 0.0
C1229 C 0.8666 0.10274 0.5261 0.0
C1230 C 0.88398 0.08684 0.61231 0.0
C1231 C 0.89413 0.07862 0.61188 0.0
C1232 C 0.90632 0.0831 0.62013 0.0
C1233 C 0.9082 0.09602 0.62576 0.0
C1234 C 0.89809 0.10422 0.62553 0.0
H1235 H 0.86104 0.10733 0.49156 0.0
H1236 H 0.87637 0.10177 0.51077 0.0
H1237 H 0.86273 0.09326 0.53288 0.0
H1238 H 0.87463 0.08309 0.60903 0.0
H1239 H 0.89235 0.06871 0.60814 0.0
H1240 H 0.60923 0.06896 0.39566 0.0
H1241 H 0.62629 0.08414 0.40206 0.0
H1242 H 0.60007 0.11416 0.37829 0.0
H1243 H 0.58302 0.09913 0.37129 0.0
H1244 H 0.63066 0.10301 0.30437 0.0
H1245 H 0.6231 0.12371 0.52254 0.0
H1246 H 0.6179 0.10819 0.50386 0.0
H1247 H 0.60947 0.12153 0.47811 0.0
C1248 C 0.60706 0.0788 0.39306 0.0
C1249 C 0.59477 0.08284 0.38284 0.0
C1250 C 0.61682 0.08744 0.39637 0.0
C1251 C 0.6144 0.10024 0.39066 0.0
C1252 C 0.6021 0.10432 0.38313 0.0
H1253 H 0.65418 0.16957 0.3876 0.0
H1254 H 0.63891 0.15274 0.38398 0.0
C1255 C 0.59237 0.09571 0.3791 0.0
C1256 C 0.62474 0.10934 0.38844 0.0
H1257 H 0.63732 0.13404 0.46068 0.0
C1258 C 0.63225 0.10974 0.3387 0.0
C1259 C 0.62665 0.11812 0.43311 0.0
C1260 C 0.61893 0.11789 0.48773 0.0
C1261 C 0.64139 0.119 0.33156 0.0
C1262 C 0.64324 0.12789 0.37609 0.0
C1263 C 0.63587 0.12727 0.42641 0.0
C1264 C 0.65253 0.13811 0.37134 0.0
C1265 C 0.64861 0.11946 0.2755 0.0
C1266 C 0.66528 0.13554 0.36394 0.0
C1267 C 0.67405 0.1452 0.3651 0.0
C1268 C 0.67024 0.15757 0.37483 0.0
C1269 C 0.65744 0.16014 0.38023 0.0
C1270 C 0.64869 0.15052 0.37837 0.0
H1271 H 0.64374 0.11434 0.24026 0.0
H1272 H 0.65014 0.12923 0.26127 0.0
H1273 H 0.65784 0.11502 0.282 0.0
H1274 H 0.6685 0.12602 0.35961 0.0
H1275 H 0.68385 0.14289 0.36149 0.0
H1276 H 0.61085 0.93434 0.10259 0.0
H1277 H 0.62826 0.91956 0.10339 0.0
H1278 H 0.60238 0.88907 0.12289 0.0
H1279 H 0.58502 0.90376 0.1236 0.0
H1280 H 0.62058 0.88849 0.2042 0.0
H1281 H 0.64161 0.89487 0.9862 0.0
H1282 H 0.63999 0.90896 0.02749 0.0
H1283 H 0.6263 0.90068 0.00422 0.0
C1284 C 0.60886 0.92447 0.10561 0.0
C1285 C 0.59656 0.92023 0.11322 0.0
C1286 C 0.61883 0.91602 0.10603 0.0
C1287 C 0.61663 0.90319 0.11303 0.0
C1288 C 0.60431 0.89893 0.1177 0.0
H1289 H 0.65478 0.83381 0.12276 0.0
H1290 H 0.64022 0.85127 0.12901 0.0
C1291 C 0.59439 0.90734 0.11789 0.0
C1292 C 0.62708 0.89423 0.11994 0.0
H1293 H 0.65235 0.88165 0.05144 0.0
C1294 C 0.62754 0.88702 0.17079 0.0
C1295 C 0.63623 0.89239 0.0766 0.0
C1296 C 0.63599 0.89955 0.02031 0.0
C1297 C 0.63672 0.87787 0.17893 0.0
C1298 C 0.64566 0.87585 0.13508 0.0
C1299 C 0.64549 0.8833 0.08508 0.0
C1300 C 0.65455 0.86532 0.13796 0.0
C1301 C 0.63674 0.87033 0.2341 0.0
C1302 C 0.66743 0.86744 0.1419 0.0
C1303 C 0.67581 0.85744 0.13897 0.0
C1304 C 0.67141 0.8452 0.13088 0.0
C1305 C 0.65847 0.84312 0.12895 0.0
C1306 C 0.65013 0.85307 0.1326 0.0
H1307 H 0.6312 0.8749 0.26881 0.0
H1308 H 0.63258 0.86104 0.22538 0.0
H1309 H 0.64641 0.86887 0.24994 0.0
H1310 H 0.671 0.87685 0.14586 0.0
H1311 H 0.68572 0.85937 0.14008 0.0
H1312 H 0.58361 0.59668 0.61081 0.0
H1313 H 0.60089 0.61147 0.60864 0.0
H1314 H 0.62702 0.581 0.59737 0.0
H1315 H 0.60971 0.56611 0.59797 0.0
H1316 H 0.61858 0.61288 0.69153 0.0
H1317 H 0.64099 0.60473 0.47792 0.0
H1318 H 0.62562 0.59895 0.49504 0.0
H1319 H 0.63923 0.59096 0.52134 0.0
C1320 C 0.59302 0.59312 0.60652 0.0
C1321 C 0.59529 0.58021 0.60464 0.0
C1322 C 0.60289 0.60159 0.60549 0.0
C1323 C 0.61526 0.59736 0.60278 0.0
C1324 C 0.61756 0.5845 0.59843 0.0
H1325 H 0.68445 0.6407 0.63687 0.0
H1326 H 0.6694 0.62348 0.64102 0.0
C1327 C 0.60764 0.57599 0.59882 0.0
C1328 C 0.62563 0.60643 0.60937 0.0
H1329 H 0.65148 0.6183 0.54276 0.0
C1330 C 0.62577 0.61405 0.65895 0.0
C1331 C 0.63509 0.60788 0.56714 0.0
C1332 C 0.63521 0.60028 0.5121 0.0
C1333 C 0.63495 0.62319 0.66695 0.0
C1334 C 0.64423 0.62479 0.62428 0.0
C1335 C 0.64435 0.61697 0.57552 0.0
C1336 C 0.65327 0.6352 0.62718 0.0
C1337 C 0.63463 0.63118 0.72075 0.0
C1338 C 0.64912 0.64746 0.61888 0.0
C1339 C 0.65765 0.65727 0.61618 0.0
C1340 C 0.67051 0.65502 0.622 0.0
C1341 C 0.6746 0.64276 0.63271 0.0
C1342 C 0.66604 0.63291 0.63472 0.0
H1343 H 0.62868 0.62702 0.75509 0.0
H1344 H 0.64418 0.63256 0.73825 0.0
H1345 H 0.63078 0.64048 0.70963 0.0
H1346 H 0.6393 0.64939 0.61255 0.0
H1347 H 0.65418 0.66659 0.60791 0.0
H1348 H 0.5818 0.40042 0.8665 0.0
H1349 H 0.59966 0.38633 0.86845 0.0
H1350 H 0.62441 0.41767 0.89021 0.0
H1351 H 0.60652 0.43185 0.88982 0.0
H1352 H 0.61818 0.38626 0.78914 0.0
H1353 H 0.63815 0.39358 0.00868 0.0
H1354 H 0.62274 0.39888 0.98915 0.0
H1355 H 0.63624 0.40761 0.96719 0.0
C1356 C 0.59102 0.40431 0.87295 0.0
C1357 C 0.59273 0.41726 0.87797 0.0
C1358 C 0.60122 0.39624 0.87384 0.0
C1359 C 0.61338 0.40092 0.8796 0.0
C1360 C 0.61511 0.41381 0.88678 0.0
H1361 H 0.68441 0.36025 0.85728 0.0
H1362 H 0.66887 0.37701 0.85047 0.0
C1363 C 0.60486 0.42191 0.88649 0.0
C1364 C 0.62417 0.39233 0.87374 0.0
H1365 H 0.64977 0.38093 0.94418 0.0
C1366 C 0.62509 0.38512 0.82307 0.0
C1367 C 0.63325 0.39092 0.91778 0.0
C1368 C 0.63253 0.39807 0.974 0.0
C1369 C 0.63469 0.37638 0.8157 0.0
C1370 C 0.64359 0.3748 0.86015 0.0
C1371 C 0.64293 0.38225 0.91006 0.0
C1372 C 0.65298 0.36471 0.85795 0.0
C1373 C 0.63521 0.36881 0.76068 0.0
C1374 C 0.64915 0.35227 0.86347 0.0
C1375 C 0.65795 0.34273 0.86772 0.0
C1376 C 0.67077 0.34543 0.86625 0.0
C1377 C 0.6746 0.35786 0.85806 0.0
C1378 C 0.66575 0.36744 0.85452 0.0
H1379 H 0.62952 0.37305 0.7256 0.0
H1380 H 0.64497 0.36783 0.74535 0.0
H1381 H 0.63152 0.35932 0.76937 0.0
H1382 H 0.63933 0.35 0.86667 0.0
H1383 H 0.65469 0.33327 0.87396 0.0
H1384 H 0.84535 0.32884 0.10735 0.0
H1385 H 0.86096 0.34537 0.1119 0.0
H1386 H 0.83201 0.37236 0.14502 0.0
H1387 H 0.81636 0.35579 0.14225 0.0
H1388 H 0.86252 0.36464 0.03875 0.0
H1389 H 0.85761 0.38263 0.26302 0.0
H1390 H 0.85081 0.36805 0.24016 0.0
H1391 H 0.84325 0.38257 0.22314 0.0
C1392 C 0.84232 0.33825 0.11684 0.0
C1393 C 0.8296 0.34099 0.12447 0.0
C1394 C 0.85126 0.3477 0.11922 0.0
C1395 C 0.84769 0.36011 0.12903 0.0
C1396 C 0.83504 0.36283 0.13857 0.0
H1397 H 0.89095 0.42919 0.10575 0.0
H1398 H 0.87397 0.41391 0.09959 0.0
C1399 C 0.82609 0.35334 0.13688 0.0
C1400 C 0.85712 0.37021 0.12494 0.0
H1401 H 0.87029 0.39447 0.19896 0.0
C1402 C 0.86422 0.37113 0.0739 0.0
C1403 C 0.85932 0.37874 0.17067 0.0
C1404 C 0.85243 0.3779 0.22755 0.0
C1405 C 0.87348 0.38027 0.06753 0.0
C1406 C 0.87567 0.38873 0.11322 0.0
C1407 C 0.86847 0.38799 0.16385 0.0
C1408 C 0.88596 0.39788 0.11088 0.0
C1409 C 0.88091 0.38085 0.01215 0.0
C1410 C 0.89829 0.39386 0.11821 0.0
C1411 C 0.90797 0.40253 0.1221 0.0
C1412 C 0.9055 0.41539 0.11839 0.0
C1413 C 0.89318 0.41935 0.10834 0.0
C1414 C 0.88346 0.41066 0.10516 0.0
H1415 H 0.87675 0.37502 0.97739 0.0
H1416 H 0.88159 0.39063 0.99658 0.0
H1417 H 0.89053 0.37747 0.02059 0.0
H1418 H 0.90037 0.38403 0.12294 0.0
H1419 H 0.91735 0.39916 0.12976 0.0
H1420 H 0.84443 0.66563 0.38512 0.0
H1421 H 0.85926 0.64838 0.3836 0.0
H1422 H 0.82898 0.62234 0.36164 0.0
H1423 H 0.81408 0.63962 0.36146 0.0
H1424 H 0.86002 0.63017 0.46353 0.0
H1425 H 0.85376 0.60915 0.24556 0.0
H1426 H 0.84775 0.62437 0.26382 0.0
H1427 H 0.83958 0.61055 0.28628 0.0
C1428 C 0.84094 0.65626 0.37859 0.0
C1429 C 0.82807 0.654 0.37345 0.0
C1430 C 0.84943 0.6464 0.37795 0.0
C1431 C 0.84526 0.63406 0.37242 0.0
C1432 C 0.83246 0.63179 0.36488 0.0
H1433 H 0.88762 0.5643 0.40406 0.0
H1434 H 0.87057 0.57955 0.4087 0.0
C1435 C 0.82394 0.64169 0.36483 0.0
C1436 C 0.85425 0.62363 0.37933 0.0
H1437 H 0.8665 0.59805 0.31191 0.0
C1438 C 0.86142 0.62316 0.4303 0.0
C1439 C 0.85602 0.61441 0.33622 0.0
C1440 C 0.84896 0.61467 0.27966 0.0
C1441 C 0.87042 0.61385 0.43894 0.0
C1442 C 0.87231 0.60478 0.39553 0.0
C1443 C 0.86494 0.60501 0.34525 0.0
C1444 C 0.88258 0.59561 0.39929 0.0
C1445 C 0.87793 0.6138 0.49423 0.0
C1446 C 0.89494 0.59965 0.39352 0.0
C1447 C 0.90465 0.59101 0.39053 0.0
C1448 C 0.90219 0.57815 0.39354 0.0
C1449 C 0.88983 0.57414 0.40212 0.0
C1450 C 0.88008 0.58282 0.40439 0.0
H1451 H 0.87355 0.61963 0.52841 0.0
H1452 H 0.87905 0.60415 0.51089 0.0
H1453 H 0.88737 0.61758 0.4853 0.0
H1454 H 0.89703 0.60949 0.38907 0.0
H1455 H 0.91405 0.5944 0.38394 0.0
H1456 H 0.38867 0.43117 0.41032 0.0
H1457 H 0.371 0.41672 0.41766 0.0
H1458 H 0.39361 0.38729 0.3461 0.0
H1459 H 0.41122 0.40151 0.33852 0.0
H1460 H 0.3697 0.39141 0.28964 0.0
H1461 H 0.36633 0.38621 0.52939 0.0
H1462 H 0.36706 0.40178 0.5004 0.0
H1463 H 0.38034 0.3917 0.49432 0.0
C1464 C 0.38994 0.42157 0.39702 0.0
C1465 C 0.40138 0.41754 0.37364 0.0
C1466 C 0.37983 0.41335 0.40118 0.0
C1467 C 0.38102 0.40096 0.38226 0.0
C1468 C 0.3925 0.39683 0.36064 0.0
H1469 H 0.34269 0.33276 0.42524 0.0
H1470 H 0.35679 0.35048 0.41796 0.0
C1471 C 0.40257 0.40499 0.35655 0.0
C1472 C 0.3703 0.39228 0.38281 0.0
H1473 H 0.35232 0.37455 0.47266 0.0
C1474 C 0.36577 0.38782 0.32959 0.0
C1475 C 0.36527 0.38763 0.43504 0.0
C1476 C 0.36999 0.39198 0.49321 0.0
C1477 C 0.35656 0.37853 0.32724 0.0
C1478 C 0.35175 0.37365 0.37949 0.0
C1479 C 0.35602 0.37837 0.4327 0.0
C1480 C 0.34313 0.36287 0.38016 0.0
C1481 C 0.35242 0.37359 0.26912 0.0
C1482 C 0.33081 0.36392 0.36028 0.0
C1483 C 0.32265 0.35375 0.36426 0.0
C1484 C 0.32671 0.34239 0.38841 0.0
C1485 C 0.3392 0.34135 0.40658 0.0
C1486 C 0.34729 0.35148 0.40268 0.0
H1487 H 0.35827 0.37719 0.23308 0.0
H1488 H 0.35277 0.36325 0.26875 0.0
H1489 H 0.34262 0.37642 0.26106 0.0
H1490 H 0.32742 0.37269 0.34308 0.0
H1491 H 0.31309 0.35491 0.35012 0.0
H1492 H 0.41566 0.59413 0.13753 0.0
H1493 H 0.39804 0.60854 0.13359 0.0
H1494 H 0.37341 0.57819 0.09068 0.0
H1495 H 0.39103 0.56359 0.09422 0.0
H1496 H 0.37699 0.60958 0.02802 0.0
H1497 H 0.36257 0.59865 0.25457 0.0
H1498 H 0.37873 0.59756 0.23309 0.0
H1499 H 0.3677 0.58644 0.20622 0.0
C1500 C 0.40654 0.5905 0.12649 0.0
C1501 C 0.40475 0.57768 0.11644 0.0
C1502 C 0.39649 0.59876 0.12434 0.0
C1503 C 0.38447 0.59437 0.11245 0.0
C1504 C 0.38265 0.58169 0.10019 0.0
H1505 H 0.31561 0.63817 0.1455 0.0
H1506 H 0.33052 0.6208 0.14532 0.0
C1507 C 0.39274 0.5734 0.10192 0.0
C1508 C 0.37383 0.6031 0.11493 0.0
H1509 H 0.35226 0.61524 0.20794 0.0
C1510 C 0.37147 0.61075 0.06704 0.0
C1511 C 0.36666 0.6045 0.16585 0.0
C1512 C 0.36896 0.59639 0.21815 0.0
C1513 C 0.36225 0.62002 0.06917 0.0
C1514 C 0.35546 0.62187 0.12116 0.0
C1515 C 0.35753 0.61388 0.16837 0.0
C1516 C 0.34659 0.63238 0.12771 0.0
C1517 C 0.35987 0.62776 0.01567 0.0
C1518 C 0.35079 0.64467 0.12079 0.0
C1519 C 0.34234 0.65456 0.12074 0.0
C1520 C 0.32951 0.65239 0.12838 0.0
C1521 C 0.32543 0.64015 0.13954 0.0
C1522 C 0.33392 0.63022 0.13914 0.0
H1523 H 0.36295 0.62284 0.97577 0.0
H1524 H 0.34983 0.63011 0.01129 0.0
H1525 H 0.36523 0.63659 0.01882 0.0
H1526 H 0.36058 0.64659 0.11367 0.0
H1527 H 0.34583 0.66388 0.1128 0.0
H1528 H 0.14648 0.67127 0.8407 0.0
H1529 H 0.13154 0.65408 0.84058 0.0
H1530 H 0.16168 0.6277 0.82605 0.0
H1531 H 0.17677 0.64484 0.826 0.0
H1532 H 0.12793 0.63228 0.76023 0.0
H1533 H 0.14287 0.62006 0.9844 0.0
H1534 H 0.14611 0.63508 0.95244 0.0
H1535 H 0.15484 0.62165 0.93024 0.0
C1536 C 0.14995 0.66183 0.83614 0.0
C1537 C 0.16284 0.65944 0.83392 0.0
C1538 C 0.14138 0.65202 0.83619 0.0
C1539 C 0.14555 0.63965 0.83445 0.0
C1540 C 0.15833 0.63721 0.82818 0.0
H1541 H 0.10431 0.5706 0.89476 0.0
H1542 H 0.12075 0.58637 0.88682 0.0
C1543 C 0.16692 0.64703 0.82764 0.0
C1544 C 0.13654 0.62936 0.84328 0.0
H1545 H 0.12668 0.60814 0.94369 0.0
C1546 C 0.12767 0.62694 0.80014 0.0
C1547 C 0.13627 0.62245 0.89547 0.0
C1548 C 0.14546 0.62493 0.94365 0.0
C1549 C 0.11851 0.61774 0.80774 0.0
C1550 C 0.118 0.61104 0.86066 0.0
C1551 C 0.12703 0.61332 0.90338 0.0
C1552 C 0.10806 0.60175 0.87244 0.0
C1553 C 0.10957 0.61517 0.75862 0.0
C1554 C 0.09548 0.60528 0.87018 0.0
C1555 C 0.08609 0.59631 0.87447 0.0
C1556 C 0.08909 0.58365 0.88204 0.0
C1557 C 0.10168 0.58027 0.88902 0.0
C1558 C 0.11109 0.58926 0.88413 0.0
H1559 H 0.11343 0.61829 0.71634 0.0
H1560 H 0.10733 0.60509 0.75562 0.0
H1561 H 0.10078 0.62037 0.76623 0.0
H1562 H 0.09291 0.61493 0.86314 0.0
H1563 H 0.07648 0.59925 0.86963 0.0
H1564 H 0.15181 0.33295 0.61538 0.0
H1565 H 0.13732 0.35051 0.61961 0.0
H1566 H 0.16742 0.37504 0.66747 0.0
H1567 H 0.18208 0.35749 0.66367 0.0
H1568 H 0.13578 0.3713 0.72657 0.0
H1569 H 0.14773 0.38629 0.50194 0.0
H1570 H 0.14869 0.37008 0.52272 0.0
H1571 H 0.15972 0.38102 0.55112 0.0
C1572 C 0.15536 0.34203 0.62765 0.0
C1573 C 0.16814 0.34381 0.63893 0.0
C1574 C 0.14706 0.35204 0.62995 0.0
C1575 C 0.15136 0.36403 0.64323 0.0
C1576 C 0.16398 0.36582 0.65688 0.0
H1577 H 0.1085 0.43343 0.61161 0.0
H1578 H 0.12562 0.41824 0.61168 0.0
C1579 C 0.17231 0.35577 0.655 0.0
C1580 C 0.14264 0.37467 0.64049 0.0
H1581 H 0.13108 0.39666 0.54785 0.0
C1582 C 0.1348 0.37694 0.6878 0.0
C1583 C 0.14151 0.38201 0.58992 0.0
C1584 C 0.14982 0.37982 0.53824 0.0
C1585 C 0.12563 0.38626 0.68545 0.0
C1586 C 0.12407 0.39324 0.63379 0.0
C1587 C 0.13223 0.39123 0.58716 0.0
C1588 C 0.11372 0.40229 0.62701 0.0
C1589 C 0.1177 0.38854 0.7384 0.0
C1590 C 0.10134 0.39827 0.63261 0.0
C1591 C 0.0916 0.40688 0.63271 0.0
C1592 C 0.094 0.4197 0.62644 0.0
C1593 C 0.10633 0.42363 0.61647 0.0
C1594 C 0.11613 0.41497 0.61682 0.0
H1595 H 0.1224 0.38525 0.7785 0.0
H1596 H 0.11548 0.3986 0.74336 0.0
H1597 H 0.10881 0.38333 0.734 0.0
H1598 H 0.09924 0.38848 0.63875 0.0
H1599 H 0.08219 0.40352 0.63974 0.0
H1600 H 0.22741 0.21309 0.04299 0.0
H1601 H 0.22417 0.23184 0.98363 0.0
H1602 H 0.19361 0.21377 0.89592 0.0
H1603 H 0.19683 0.19508 0.95426 0.0
H1604 H 0.21078 0.22653 0.82172 0.0
H1605 H 0.19405 0.25604 0.00423 0.0
H1606 H 0.2088 0.24835 0.01428 0.0
H1607 H 0.19481 0.23925 0.00894 0.0
C1608 C 0.22009 0.2131 0.01065 0.0
C1609 C 0.21231 0.20266 0.0036 0.0
C1610 C 0.21818 0.22383 0.97717 0.0
C1611 C 0.20851 0.22424 0.93612 0.0
C1612 C 0.20105 0.21367 0.92768 0.0
H1613 H 0.17802 0.27557 0.68276 0.0
H1614 H 0.18193 0.25807 0.7482 0.0
C1615 C 0.2029 0.20301 0.96117 0.0
C1616 C 0.20601 0.23563 0.90177 0.0
H1617 H 0.1952 0.26551 0.91207 0.0
C1618 C 0.2074 0.23507 0.84141 0.0
C1619 C 0.2016 0.24673 0.92773 0.0
C1620 C 0.19962 0.24769 0.99231 0.0
C1621 C 0.20454 0.24534 0.80615 0.0
C1622 C 0.19988 0.25637 0.83193 0.0
C1623 C 0.19867 0.257 0.89243 0.0
C1624 C 0.19647 0.26741 0.79665 0.0
C1625 C 0.20674 0.24434 0.74171 0.0
C1626 C 0.20285 0.27869 0.8043 0.0
C1627 C 0.20055 0.28877 0.76743 0.0
C1628 C 0.19179 0.28776 0.72213 0.0
C1629 C 0.18488 0.27667 0.71684 0.0
C1630 C 0.18718 0.2666 0.7539 0.0
H1631 H 0.21329 0.23665 0.73101 0.0
H1632 H 0.19776 0.24239 0.71964 0.0
H1633 H 0.21056 0.25318 0.72404 0.0
H1634 H 0.20997 0.27955 0.83739 0.0
H1635 H 0.20601 0.29717 0.77311 0.0
H1636 H 0.9493 0.9573 0.01964 0.0
H1637 H 0.9669 0.96123 0.08439 0.0
H1638 H 0.98784 0.93207 0.00039 0.0
H1639 H 0.97037 0.92814 0.9348 0.0
H1640 H 0.98036 0.94586 0.16181 0.0
H1641 H 0.0101 0.96309 0.9823 0.0
H1642 H 0.99348 0.96099 0.97483 0.0
H1643 H 0.00379 0.94781 0.97003 0.0
C1644 C 0.95759 0.9516 0.01521 0.0
C1645 C 0.95845 0.94247 0.97146 0.0
C1646 C 0.96764 0.95389 0.05231 0.0
C1647 C 0.97876 0.94714 0.04628 0.0
C1648 C 0.97943 0.93758 0.00484 0.0
H1649 H 0.05039 0.94154 0.20108 0.0
H1650 H 0.03144 0.94072 0.14284 0.0
C1651 C 0.96939 0.93528 0.96768 0.0
C1652 C 0.98978 0.9503 0.08213 0.0
H1653 H 0.02017 0.95954 0.07279 0.0
C1654 C 0.98904 0.94897 0.14254 0.0
C1655 C 0.00103 0.9545 0.05679 0.0
C1656 C 0.00216 0.95681 0.99248 0.0
C1657 C -0.00054 0.95116 0.17808 0.0
C1658 C 0.01082 0.95494 0.15244 0.0
C1659 C 0.01144 0.95663 0.09225 0.0
C1660 C 0.02246 0.95612 0.18659 0.0
C1661 C 0.9984 0.94892 0.24244 0.0
C1662 C 0.02382 0.96528 0.22966 0.0
C1663 C 0.03472 0.9658 0.26317 0.0
C1664 C 0.04435 0.95713 0.25408 0.0
C1665 C 0.04308 0.94827 0.20958 0.0
C1666 C 0.03227 0.9478 0.17612 0.0
H1667 H 0.9896 0.94405 0.25403 0.0
H1668 H 0.0064 0.94329 0.25822 0.0
H1669 H 0.99859 0.95799 0.26547 0.0
H1670 H 0.01641 0.97192 0.23775 0.0
H1671 H 0.03544 0.97273 0.29715 0.0
H1672 H 0.32189 0.71972 0.17446 0.0
H1673 H 0.31916 0.7371 0.24186 0.0
H1674 H 0.28945 0.71723 0.32729 0.0
H1675 H 0.29223 0.69975 0.26115 0.0
H1676 H 0.29755 0.75079 0.25075 0.0
H1677 H 0.30956 0.73005 0.46396 0.0
H1678 H 0.31371 0.72275 0.39616 0.0
H1679 H 0.29811 0.72138 0.42396 0.0
C1680 C 0.31496 0.71892 0.20835 0.0
C1681 C 0.30727 0.70832 0.2122 0.0
C1682 C 0.31339 0.72888 0.24673 0.0
C1683 C 0.30417 0.72842 0.28983 0.0
C1684 C 0.29678 0.7177 0.29511 0.0
H1685 H 0.27592 0.78511 0.52994 0.0
H1686 H 0.27797 0.76631 0.46972 0.0
C1687 C 0.29836 0.70772 0.25694 0.0
C1688 C 0.30156 0.73955 0.32587 0.0
H1689 H 0.30001 0.75006 0.46543 0.0
C1690 C 0.29815 0.75064 0.29768 0.0
C1691 C 0.30219 0.73929 0.38711 0.0
C1692 C 0.3062 0.72776 0.41966 0.0
C1693 C 0.29536 0.76148 0.32904 0.0
C1694 C 0.29614 0.76126 0.39015 0.0
C1695 C 0.29936 0.75015 0.41852 0.0
C1696 C 0.29449 0.77271 0.42501 0.0
C1697 C 0.29154 0.77308 0.29659 0.0
C1698 C 0.3031 0.78246 0.41963 0.0
C1699 C 0.30198 0.79312 0.45377 0.0
C1700 C 0.29223 0.79424 0.49413 0.0
C1701 C 0.28348 0.78453 0.49896 0.0
C1702 C 0.28467 0.77379 0.46487 0.0
H1703 H 0.28829 0.7709 0.25201 0.0
H1704 H 0.28401 0.77811 0.3199 0.0
H1705 H 0.29968 0.77943 0.29311 0.0
H1706 H 0.31083 0.78173 0.38962 0.0
H1707 H 0.30884 0.80045 0.44884 0.0
H1708 H 0.5491 0.0431 0.50956 0.0
H1709 H 0.53164 0.03854 0.57402 0.0
H1710 H 0.50965 0.06684 0.4894 0.0
H1711 H 0.52699 0.07139 0.42402 0.0
H1712 H 0.5174 0.05322 0.65103 0.0
H1713 H 0.4888 0.03491 0.4695 0.0
H1714 H 0.50532 0.03777 0.46286 0.0
H1715 H 0.49444 0.05049 0.45835 0.0
C1716 C 0.54062 0.04849 0.50497 0.0
C1717 C 0.53942 0.05753 0.461 0.0
C1718 C 0.53064 0.04585 0.54191 0.0
C1719 C 0.51928 0.05215 0.53556 0.0
C1720 C 0.51827 0.06167 0.4941 0.0
H1721 H 0.44703 0.05235 0.68943 0.0
H1722 H 0.46588 0.05496 0.63168 0.0
C1723 C 0.52823 0.06433 0.45706 0.0
C1724 C 0.50834 0.04846 0.5708 0.0
H1725 H 0.47856 0.03745 0.56002 0.0
C1726 C 0.50893 0.04968 0.6313 0.0
C1727 C 0.49736 0.0437 0.54485 0.0
C1728 C 0.49643 0.04151 0.48038 0.0
C1729 C 0.49864 0.04677 0.66639 0.0
C1730 C 0.48756 0.04234 0.64022 0.0
C1731 C 0.48707 0.04084 0.57988 0.0
C1732 C 0.47605 0.04013 0.67411 0.0
C1733 C 0.49951 0.04886 0.73093 0.0
C1734 C 0.47541 0.03069 0.71622 0.0
C1735 C 0.46458 0.02915 0.74944 0.0
C1736 C 0.45429 0.03706 0.74102 0.0
C1737 C 0.45486 0.0462 0.69744 0.0
C1738 C 0.46561 0.04769 0.66426 0.0
H1739 H 0.5079 0.05436 0.74297 0.0
H1740 H 0.49109 0.05379 0.74705 0.0
H1741 H 0.50004 0.03972 0.75327 0.0
H1742 H 0.48332 0.02462 0.72376 0.0
H1743 H 0.46441 0.02202 0.78268 0.0
H1744 H 0.18056 0.72744 0.79541 0.0
H1745 H 0.18777 0.74396 0.73052 0.0
H1746 H 0.21499 0.71899 0.65715 0.0
H1747 H 0.20793 0.70236 0.72199 0.0
H1748 H 0.21578 0.75147 0.7279 0.0
H1749 H 0.19505 0.73681 0.51691 0.0
H1750 H 0.18804 0.73249 0.5852 0.0
H1751 H 0.20232 0.7253 0.5628 0.0
C1752 C 0.18794 0.72536 0.76488 0.0
C1753 C 0.19367 0.71357 0.7641 0.0
C1754 C 0.19208 0.73483 0.72801 0.0
C1755 C 0.2019 0.73266 0.68925 0.0
C1756 C 0.20735 0.7208 0.68668 0.0
H1757 H 0.22818 0.78746 0.43371 0.0
H1758 H 0.22757 0.76821 0.49137 0.0
C1759 C 0.20329 0.71133 0.7238 0.0
C1760 C 0.20685 0.74305 0.65406 0.0
H1761 H 0.20599 0.7558 0.51871 0.0
C1762 C 0.21375 0.75238 0.68202 0.0
C1763 C 0.20437 0.74406 0.59417 0.0
C1764 C 0.19702 0.73419 0.56258 0.0
C1765 C 0.21791 0.76296 0.65192 0.0
C1766 C 0.2148 0.76435 0.59268 0.0
C1767 C 0.20838 0.75472 0.56412 0.0
C1768 C 0.21682 0.77626 0.56139 0.0
C1769 C 0.22549 0.77258 0.68405 0.0
C1770 C 0.21118 0.78719 0.58207 0.0
C1771 C 0.21157 0.79813 0.54952 0.0
C1772 C 0.21752 0.79836 0.49533 0.0
C1773 C 0.22366 0.78759 0.47566 0.0
C1774 C 0.22324 0.77658 0.50832 0.0
H1775 H 0.23075 0.7683 0.72046 0.0
H1776 H 0.23219 0.77736 0.65485 0.0
H1777 H 0.21913 0.77968 0.70269 0.0
H1778 H 0.20595 0.78712 0.62219 0.0
H1779 H 0.20673 0.80628 0.5657 0.0
H1780 H 0.44931 0.94096 0.78741 0.0
H1781 H 0.4682 0.93945 0.84571 0.0
H1782 H 0.48288 0.97234 0.76279 0.0
H1783 H 0.46389 0.97388 0.70334 0.0
H1784 H 0.49972 0.95095 0.76887 0.0
H1785 H 0.47857 0.96246 0.98156 0.0
H1786 H 0.47029 0.95069 0.9417 0.0
H1787 H 0.47118 0.96629 0.91349 0.0
C1788 C 0.45652 0.94792 0.78157 0.0
C1789 C 0.45512 0.95754 0.74069 0.0
C1790 C 0.46728 0.94707 0.81521 0.0
C1791 C 0.47686 0.95584 0.80893 0.0
C1792 C 0.47553 0.96551 0.76838 0.0
H1793 H 0.54971 0.9582 0.97773 0.0
H1794 H 0.53247 0.96142 0.91048 0.0
C1795 C 0.46468 0.96641 0.73473 0.0
C1796 C 0.48836 0.95455 0.84391 0.0
H1797 H 0.49871 0.95312 0.98358 0.0
C1798 C 0.49957 0.95156 0.81578 0.0
C1799 C 0.48809 0.95532 0.90504 0.0
C1800 C 0.47642 0.95898 0.93732 0.0
C1801 C 0.51044 0.94885 0.84745 0.0
C1802 C 0.51008 0.94933 0.90871 0.0
C1803 C 0.49893 0.95262 0.93663 0.0
C1804 C 0.52112 0.94651 0.94515 0.0
C1805 C 0.52208 0.94508 0.8152 0.0
C1806 C 0.5205 0.93702 0.98695 0.0
C1807 C 0.53032 0.93519 0.02588 0.0
C1808 C 0.54094 0.94287 0.02396 0.0
C1809 C 0.54172 0.95206 0.98045 0.0
C1810 C 0.53187 0.9539 0.94166 0.0
H1811 H 0.51996 0.94203 0.77024 0.0
H1812 H 0.52848 0.95318 0.81269 0.0
H1813 H 0.527 0.93741 0.83801 0.0
H1814 H 0.51226 0.93123 0.99041 0.0
H1815 H 0.52938 0.92805 0.05877 0.0
H1816 H 0.30697 0.19468 0.06187 0.0
H1817 H 0.30872 0.21344 0.12088 0.0
H1818 H 0.27655 0.22906 0.03542 0.0
H1819 H 0.27478 0.21021 0.97522 0.0
H1820 H 0.29826 0.24534 0.04382 0.0
H1821 H 0.28552 0.22421 0.25506 0.0
H1822 H 0.29728 0.21576 0.21596 0.0
H1823 H 0.2818 0.21697 0.18652 0.0
C1824 C 0.30022 0.20207 0.05562 0.0
C1825 C 0.29074 0.20097 0.01379 0.0
C1826 C 0.3012 0.21275 0.08968 0.0
C1827 C 0.2927 0.22257 0.08289 0.0
C1828 C 0.28316 0.22153 0.04142 0.0
H1829 H 0.29021 0.29528 0.2511 0.0
H1830 H 0.28741 0.27803 0.1836 0.0
C1831 C 0.28213 0.21076 0.00733 0.0
C1832 C 0.29414 0.23399 0.11828 0.0
H1833 H 0.29508 0.24421 0.25823 0.0
C1834 C 0.29744 0.24517 0.09066 0.0
C1835 C 0.29311 0.23368 0.17932 0.0
C1836 C 0.28913 0.22205 0.21106 0.0
C1837 C 0.30017 0.25597 0.12276 0.0
C1838 C 0.29937 0.25559 0.18395 0.0
C1839 C 0.29582 0.24446 0.21136 0.0
C1840 C 0.302 0.26661 0.22077 0.0
C1841 C 0.30427 0.26757 0.09105 0.0
C1842 C 0.31116 0.26596 0.26413 0.0
C1843 C 0.31275 0.27579 0.30326 0.0
C1844 C 0.30514 0.28645 0.29996 0.0
C1845 C 0.29629 0.28725 0.25495 0.0
C1846 C 0.29469 0.27741 0.21599 0.0
H1847 H 0.30765 0.2654 0.04666 0.0
H1848 H 0.29623 0.27402 0.08705 0.0
H1849 H 0.3118 0.27245 0.11506 0.0
H1850 H 0.31688 0.25769 0.26863 0.0
H1851 H 0.31964 0.27483 0.33732 0.0
H1852 H 0.03744 0.02695 0.20483 0.0
H1853 H 0.0184 0.02977 0.26266 0.0
H1854 H 0.03526 0.06108 0.34983 0.0
H1855 H 0.05423 0.05826 0.29318 0.0
H1856 H 0.0233 0.04358 0.42419 0.0
H1857 H 0.99289 0.05873 0.24173 0.0
H1858 H 0.0012 0.0443 0.23224 0.0
H1859 H 0.0097 0.05868 0.23661 0.0
C1860 C 0.03709 0.03437 0.2366 0.0
C1861 C 0.04729 0.04244 0.24415 0.0
C1862 C 0.02619 0.03603 0.26919 0.0
C1863 C 0.02538 0.04576 0.30979 0.0
C1864 C 0.03567 0.05358 0.31839 0.0
H1865 H 0.97391 0.07542 0.5627 0.0
H1866 H 0.99112 0.07185 0.49531 0.0
C1867 C 0.0465 0.05197 0.28585 0.0
C1868 C 0.01391 0.04784 0.34418 0.0
H1869 H 0.98365 0.05755 0.33436 0.0
C1870 C 0.01462 0.0466 0.40459 0.0
C1871 C 0.00261 0.05177 0.31835 0.0
C1872 C 0.00149 0.05356 0.25371 0.0
C1873 C 0.00432 0.04919 0.44002 0.0
C1874 C 0.9931 0.05341 0.41439 0.0
C1875 C 0.9923 0.05442 0.35385 0.0
C1876 C 0.98208 0.05667 0.45006 0.0
C1877 C 0.00551 0.04722 0.50457 0.0
C1878 C 0.97104 0.04978 0.44475 0.0
C1879 C 0.96112 0.05187 0.48283 0.0
C1880 C 0.96208 0.0609 0.52694 0.0
C1881 C 0.97287 0.06833 0.52963 0.0
C1882 C 0.98277 0.06624 0.49142 0.0
H1883 H 0.01345 0.04099 0.51543 0.0
H1884 H 0.00716 0.05634 0.52596 0.0
H1885 H 0.99684 0.04315 0.52281 0.0
H1886 H 0.97028 0.04243 0.41275 0.0
H1887 H 0.95293 0.04601 0.47916 0.0
H1888 H 0.80288 0.80179 0.05878 0.0
H1889 H 0.80477 0.78294 0.11712 0.0
H1890 H 0.77358 0.76669 0.02655 0.0
H1891 H 0.77167 0.78562 0.96711 0.0
H1892 H 0.78651 0.7712 0.18958 0.0
H1893 H 0.80245 0.74084 0.0084 0.0
H1894 H 0.80269 0.75764 0.00375 0.0
H1895 H 0.78821 0.74939 0.99743 0.0
C1896 C 0.79639 0.79423 0.05122 0.0
C1897 C 0.78719 0.79514 0.00799 0.0
C1898 C 0.79747 0.78348 0.08472 0.0
C1899 C 0.78945 0.77337 0.07552 0.0
C1900 C 0.77999 0.77434 0.03362 0.0
H1901 H 0.78967 0.70053 0.24242 0.0
H1902 H 0.78585 0.71804 0.17726 0.0
C1903 C 0.77885 0.78518 9e-05 0.0
C1904 C 0.79118 0.76186 0.10998 0.0
H1905 H 0.801 0.73163 0.10088 0.0
C1906 C 0.78962 0.76253 0.17023 0.0
C1907 C 0.79523 0.75058 0.08445 0.0
C1908 C 0.79734 0.7495 0.02001 0.0
C1909 C 0.79206 0.75221 0.20583 0.0
C1910 C 0.79646 0.74103 0.18054 0.0
C1911 C 0.79774 0.74026 0.12011 0.0
C1912 C 0.7997 0.73003 0.21639 0.0
C1913 C 0.78979 0.75336 0.27016 0.0
C1914 C 0.80912 0.7308 0.25851 0.0
C1915 C 0.81135 0.7208 0.29601 0.0
C1916 C 0.80423 0.70983 0.29181 0.0
C1917 C 0.7953 0.70885 0.24722 0.0
C1918 C 0.79307 0.71886 0.20986 0.0
H1919 H 0.7834 0.76121 0.28038 0.0
H1920 H 0.78575 0.74463 0.288 0.0
H1921 H 0.79878 0.75514 0.29245 0.0
H1922 H 0.81454 0.73925 0.26333 0.0
H1923 H 0.81834 0.72186 0.32952 0.0
H1924 H 0.05214 0.0438 0.97561 0.0
H1925 H 0.03549 0.04104 0.90465 0.0
H1926 H 0.01474 0.07093 0.98402 0.0
H1927 H 0.03138 0.07386 0.05509 0.0
H1928 H 0.01112 0.03457 0.9342 0.0
H1929 H 0.01203 0.07888 0.8108 0.0
H1930 H 0.02494 0.07374 0.85508 0.0
H1931 H 0.01161 0.08105 0.88793 0.0
C1932 C 0.04416 0.04998 0.97744 0.0
C1933 C 0.0431 0.05905 0.02132 0.0
C1934 C 0.03463 0.04835 0.93682 0.0
C1935 C 0.02392 0.05582 0.93883 0.0
C1936 C 0.02303 0.0652 0.98108 0.0
H1937 H 0.95079 0.05915 0.79524 0.0
H1938 H 0.97033 0.06126 0.84836 0.0
C1939 C 0.03254 0.06684 0.02183 0.0
C1940 C 0.01322 0.05314 0.90012 0.0
H1941 H 0.99369 0.0664 0.80102 0.0
C1942 C 0.00738 0.04145 0.90447 0.0
C1943 C 0.00841 0.06214 0.86143 0.0
C1944 C 0.01463 0.07462 0.85299 0.0
C1945 C 0.9965 0.03873 0.87302 0.0
C1946 C 0.99148 0.04788 0.83559 0.0
C1947 C 0.99754 0.05942 0.82995 0.0
C1948 C 0.97953 0.046 0.80447 0.0
C1949 C 0.99019 0.02631 0.88198 0.0
C1950 C 0.97817 0.03662 0.76245 0.0
C1951 C 0.96693 0.03534 0.73202 0.0
C1952 C 0.95696 0.04353 0.74279 0.0
C1953 C 0.95832 0.05276 0.78558 0.0
C1954 C 0.96949 0.05399 0.81598 0.0
H1955 H 0.99375 0.02142 0.92108 0.0
H1956 H 0.97995 0.0275 0.88631 0.0
H1957 H 0.99197 0.02027 0.84382 0.0
H1958 H 0.98587 0.03047 0.7523 0.0
H1959 H 0.96618 0.02821 0.69897 0.0
H1960 H 0.7109 0.30005 0.74132 0.0
H1961 H 0.71444 0.28328 0.67171 0.0
H1962 H 0.68496 0.26183 0.75029 0.0
H1963 H 0.68127 0.27857 0.82005 0.0
H1964 H 0.72132 0.25874 0.70117 0.0
H1965 H 0.67717 0.25961 0.57619 0.0
H1966 H 0.68221 0.2725 0.62083 0.0
H1967 H 0.67494 0.25911 0.65326 0.0
C1968 C 0.70501 0.29186 0.74337 0.0
C1969 C 0.69578 0.29068 0.78647 0.0
C1970 C 0.70709 0.28227 0.70356 0.0
C1971 C 0.69991 0.27137 0.70559 0.0
C1972 C 0.69047 0.27027 0.74739 0.0
H1973 H 0.69673 0.1988 0.55832 0.0
H1974 H 0.695 0.21807 0.61366 0.0
C1975 C 0.68839 0.27984 0.78737 0.0
C1976 C 0.70279 0.26079 0.66655 0.0
H1977 H 0.68982 0.24143 0.56592 0.0
C1978 C 0.71451 0.25503 0.67101 0.0
C1979 C 0.69389 0.25602 0.62718 0.0
C1980 C 0.68139 0.26219 0.61853 0.0
C1981 C 0.71736 0.24424 0.63908 0.0
C1982 C 0.70829 0.23924 0.60115 0.0
C1983 C 0.69673 0.24526 0.5953 0.0
C1984 C 0.71022 0.22733 0.56981 0.0
C1985 C 0.72982 0.23799 0.64799 0.0
C1986 C 0.71951 0.22606 0.52731 0.0
C1987 C 0.72057 0.21497 0.49556 0.0
C1988 C 0.71225 0.20507 0.50555 0.0
C1989 C 0.7032 0.2063 0.54922 0.0
C1990 C 0.70219 0.21731 0.58091 0.0
H1991 H 0.73472 0.24159 0.68697 0.0
H1992 H 0.72866 0.22775 0.65246 0.0
H1993 H 0.73581 0.23976 0.6097 0.0
H1994 H 0.72569 0.23376 0.51752 0.0
H1995 H 0.72757 0.21432 0.46189 0.0
H1996 H 0.47308 0.92769 0.54827 0.0
H1997 H 0.4897 0.93187 0.47853 0.0
H1998 H 0.46771 0.96122 0.40214 0.0
H1999 H 0.45104 0.95721 0.47179 0.0
H2000 H 0.48991 0.93251 0.35418 0.0
H2001 H 0.50036 0.97876 0.45235 0.0
H2002 H 0.49093 0.96721 0.4886 0.0
H2003 H 0.48449 0.9762 0.43016 0.0
C2004 C 0.47167 0.93493 0.5162 0.0
C2005 C 0.46075 0.94219 0.51616 0.0
C2006 C 0.4812 0.93731 0.47642 0.0
C2007 C 0.48002 0.94702 0.43603 0.0
C2008 C 0.46889 0.95386 0.43377 0.0
H2009 H 0.53753 0.97557 0.19819 0.0
H2010 H 0.51779 0.97296 0.2509 0.0
C2011 C 0.45935 0.95148 0.47346 0.0
C2012 C 0.49065 0.95022 0.39786 0.0
H2013 H 0.51269 0.97258 0.37299 0.0
C2014 C 0.49485 0.94129 0.358 0.0
C2015 C 0.49702 0.96173 0.40279 0.0
C2016 C 0.49307 0.97153 0.44601 0.0
C2017 C 0.50538 0.9435 0.32346 0.0
C2018 C 0.51201 0.95482 0.32987 0.0
C2019 C 0.50758 0.96392 0.36832 0.0
C2020 C 0.52404 0.95695 0.3 0.0
C2021 C 0.50936 0.93366 0.28054 0.0
C2022 C 0.53418 0.94911 0.31179 0.0
C2023 C 0.5454 0.95059 0.28214 0.0
C2024 C 0.54674 0.96 0.24018 0.0
C2025 C 0.53677 0.96823 0.23022 0.0
C2026 C 0.52548 0.96672 0.26006 0.0
H2027 H 0.5015 0.92739 0.26887 0.0
H2028 H 0.51308 0.93795 0.24032 0.0
H2029 H 0.51682 0.92786 0.30013 0.0
H2030 H 0.53337 0.94172 0.34359 0.0
H2031 H 0.55298 0.94423 0.29158 0.0
H2032 H 0.78965 0.2955 0.25549 0.0
H2033 H 0.78586 0.278 0.32049 0.0
H2034 H 0.8137 0.25636 0.23083 0.0
H2035 H 0.81743 0.27376 0.16461 0.0
H2036 H 0.79126 0.24404 0.24228 0.0
H2037 H 0.80595 0.26372 0.45414 0.0
H2038 H 0.79484 0.27312 0.4157 0.0
H2039 H 0.81015 0.2708 0.38593 0.0
C2040 C 0.79515 0.28712 0.25006 0.0
C2041 C 0.80385 0.28606 0.2046 0.0
C2042 C 0.79299 0.27712 0.28755 0.0
C2043 C 0.79957 0.26591 0.28086 0.0
C2044 C 0.80854 0.26495 0.23681 0.0
H2045 H 0.80263 0.19384 0.43738 0.0
H2046 H 0.80429 0.21237 0.37667 0.0
C2047 C 0.8107 0.27493 0.19913 0.0
C2048 C 0.79647 0.25491 0.31699 0.0
H2049 H 0.79549 0.24422 0.45639 0.0
C2050 C 0.79221 0.24408 0.28909 0.0
C2051 C 0.79758 0.25502 0.3781 0.0
C2052 C 0.80248 0.26624 0.41031 0.0
C2053 C 0.78911 0.23333 0.32059 0.0
C2054 C 0.79043 0.23338 0.38152 0.0
C2055 C 0.79443 0.24427 0.40964 0.0
C2056 C 0.78871 0.22191 0.41627 0.0
C2057 C 0.78445 0.222 0.28848 0.0
C2058 C 0.77938 0.22115 0.45881 0.0
C2059 C 0.77837 0.21049 0.49368 0.0
C2060 C 0.78682 0.20058 0.48699 0.0
C2061 C 0.796 0.20134 0.44369 0.0
C2062 C 0.79693 0.21189 0.40873 0.0
H2063 H 0.78084 0.22445 0.24481 0.0
H2064 H 0.79226 0.21532 0.28282 0.0
H2065 H 0.77696 0.21724 0.31322 0.0
H2066 H 0.77299 0.22884 0.46541 0.0
H2067 H 0.77126 0.2102 0.52698 0.0
H2068 H 0.4528 0.03985 0.00757 0.0
H2069 H 0.47002 0.03764 0.07598 0.0
H2070 H 0.48981 0.06729 0.9898 0.0
H2071 H 0.47262 0.06963 0.92103 0.0
H2072 H 0.4948 0.03161 0.04261 0.0
H2073 H 0.49258 0.07629 0.16352 0.0
H2074 H 0.47962 0.07036 0.12178 0.0
H2075 H 0.49244 0.07791 0.08601 0.0
C2076 C 0.46071 0.04606 0.00357 0.0
C2077 C 0.46131 0.05492 0.95856 0.0
C2078 C 0.47056 0.04475 0.04271 0.0
C2079 C 0.48115 0.05233 0.03812 0.0
C2080 C 0.48163 0.06146 0.99458 0.0
H2081 H 0.5535 0.05809 0.19331 0.0
H2082 H 0.5345 0.05972 0.13571 0.0
C2083 C 0.4718 0.06276 0.95521 0.0
C2084 C 0.49204 0.05012 0.07625 0.0
H2085 H 0.51084 0.06403 0.17646 0.0
C2086 C 0.49826 0.03864 0.07232 0.0
C2087 C 0.4965 0.05932 0.11483 0.0
C2088 C 0.48989 0.07163 0.12236 0.0
C2089 C 0.50912 0.03626 0.10453 0.0
C2090 C 0.51371 0.04554 0.14247 0.0
C2091 C 0.50732 0.05693 0.14723 0.0
C2092 C 0.52542 0.04391 0.17581 0.0
C2093 C 0.51583 0.02403 0.09603 0.0
C2094 C 0.5267 0.03439 0.21721 0.0
C2095 C 0.53764 0.03337 0.25012 0.0
C2096 C 0.54738 0.04198 0.24258 0.0
C2097 C 0.54613 0.05136 0.20045 0.0
C2098 C 0.53527 0.05232 0.16749 0.0
H2099 H 0.51282 0.01924 0.05567 0.0
H2100 H 0.52608 0.02545 0.09431 0.0
H2101 H 0.51374 0.01778 0.13309 0.0
H2102 H 0.51913 0.02793 0.22507 0.0
H2103 H 0.53829 0.02612 0.28262 0.0
H2104 H 0.72581 0.78663 0.02897 0.0
H2105 H 0.72319 0.76752 0.97181 0.0
H2106 H 0.6917 0.78395 0.88398 0.0
H2107 H 0.69414 0.8029 0.94124 0.0
H2108 H 0.68667 0.7605 0.9251 0.0
H2109 H 0.73122 0.76081 0.80223 0.0
H2110 H 0.73291 0.76169 0.87955 0.0
H2111 H 0.72559 0.77428 0.84105 0.0
C2112 C 0.71845 0.78621 0.99689 0.0
C2113 C 0.71016 0.79625 0.98969 0.0
C2114 C 0.71697 0.7753 0.9642 0.0
C2115 C 0.70729 0.77435 0.92334 0.0
C2116 C 0.69921 0.78447 0.91534 0.0
H2117 H 0.67923 0.72237 0.67039 0.0
H2118 H 0.68229 0.73949 0.73896 0.0
C2119 C 0.70062 0.7953 0.9481 0.0
C2120 C 0.70517 0.76268 0.89026 0.0
H2121 H 0.71821 0.7432 0.79021 0.0
C2122 C 0.69357 0.75671 0.89564 0.0
C2123 C 0.71421 0.75773 0.852 0.0
C2124 C 0.72665 0.76399 0.8428 0.0
C2125 C 0.69073 0.74596 0.86357 0.0
C2126 C 0.69968 0.74113 0.82472 0.0
C2127 C 0.71138 0.74694 0.82015 0.0
C2128 C 0.697 0.7303 0.78689 0.0
C2129 C 0.67821 0.7398 0.87172 0.0
C2130 C 0.70421 0.71945 0.79136 0.0
C2131 C 0.70249 0.70964 0.75234 0.0
C2132 C 0.6936 0.71056 0.70756 0.0
C2133 C 0.68611 0.72131 0.70439 0.0
C2134 C 0.68783 0.7311 0.74364 0.0
H2135 H 0.67373 0.74269 0.913 0.0
H2136 H 0.67196 0.74254 0.83557 0.0
H2137 H 0.67911 0.72949 0.87132 0.0
H2138 H 0.71135 0.71867 0.82439 0.0
H2139 H 0.70844 0.70152 0.75618 0.0
H2140 H 0.02299 0.92583 0.43055 0.0
H2141 H 0.00587 0.92968 0.49831 0.0
H2142 H 0.02804 0.95729 0.58658 0.0
H2143 H 0.04521 0.95357 0.51938 0.0
H2144 H 0.00549 0.92902 0.62614 0.0
H2145 H 0.99564 0.97592 0.53348 0.0
H2146 H 0.0047 0.96434 0.49535 0.0
H2147 H 0.0115 0.97286 0.55436 0.0
C2148 C 0.02431 0.93261 0.4648 0.0
C2149 C 0.03547 0.93945 0.46912 0.0
C2150 C 0.0145 0.93481 0.50339 0.0
C2151 C 0.01564 0.94393 0.54666 0.0
C2152 C 0.02693 0.95037 0.5528 0.0
H2153 H 0.96018 0.9731 0.7909 0.0
H2154 H 0.97925 0.97006 0.73358 0.0
C2155 C 0.03675 0.94816 0.51446 0.0
C2156 C 0.0049 0.94693 0.58432 0.0
H2157 H 0.98337 0.96958 0.61295 0.0
C2158 C 0.00066 0.93789 0.62341 0.0
C2159 C 0.99871 0.95856 0.58083 0.0
C2160 C 0.00277 0.96849 0.53853 0.0
C2161 C 0.99032 0.94014 0.65914 0.0
C2162 C 0.98389 0.95163 0.65452 0.0
C2163 C 0.9883 0.96078 0.61629 0.0
C2164 C 0.97222 0.95402 0.68695 0.0
C2165 C 0.98642 0.93022 0.70183 0.0
C2166 C 0.96184 0.94631 0.67809 0.0
C2167 C 0.95102 0.94802 0.71054 0.0
C2168 C 0.9503 0.95755 0.7522 0.0
C2169 C 0.96047 0.96567 0.75913 0.0
C2170 C 0.97137 0.96392 0.72664 0.0
H2171 H 0.99424 0.9238 0.71218 0.0
H2172 H 0.98297 0.93442 0.74277 0.0
H2173 H 0.97878 0.92459 0.68268 0.0
H2174 H 0.96217 0.93885 0.6465 0.0
H2175 H 0.94327 0.94173 0.70353 0.0
H2176 H 0.70967 0.7983 0.25709 0.0
H2177 H 0.71367 0.78081 0.32223 0.0
H2178 H 0.68436 0.75979 0.23971 0.0
H2179 H 0.68036 0.77716 0.1737 0.0
H2180 H 0.69844 0.76726 0.40045 0.0
H2181 H 0.71552 0.73771 0.21977 0.0
H2182 H 0.71334 0.75433 0.21267 0.0
H2183 H 0.70019 0.74397 0.20842 0.0
C2184 C 0.70395 0.79003 0.25309 0.0
C2185 C 0.69478 0.7891 0.20954 0.0
C2186 C 0.70627 0.78003 0.29043 0.0
C2187 C 0.6995 0.76892 0.28487 0.0
C2188 C 0.68987 0.76821 0.2438 0.0
H2189 H 0.69601 0.69693 0.43919 0.0
H2190 H 0.69432 0.71591 0.38168 0.0
C2191 C 0.68754 0.77819 0.20639 0.0
C2192 C 0.70281 0.75791 0.32049 0.0
H2193 H 0.71249 0.72766 0.31049 0.0
C2194 C 0.70161 0.75862 0.38097 0.0
C2195 C 0.70709 0.74671 0.29486 0.0
C2196 C 0.70924 0.74562 0.23042 0.0
C2197 C 0.70406 0.74824 0.41634 0.0
C2198 C 0.70797 0.73694 0.39045 0.0
C2199 C 0.70948 0.73634 0.33015 0.0
C2200 C 0.70958 0.72535 0.42453 0.0
C2201 C 0.70198 0.74926 0.48082 0.0
C2202 C 0.71893 0.72424 0.4669 0.0
C2203 C 0.71994 0.71333 0.50001 0.0
C2204 C 0.71157 0.70341 0.49122 0.0
C2205 C 0.7025 0.70445 0.4475 0.0
C2206 C 0.70154 0.71528 0.41445 0.0
H2207 H 0.6969 0.75792 0.49265 0.0
H2208 H 0.69663 0.74112 0.49702 0.0
H2209 H 0.71113 0.74934 0.50327 0.0
H2210 H 0.72536 0.73185 0.47463 0.0
H2211 H 0.72703 0.71279 0.53335 0.0
H2212 H 0.46897 0.4256 0.42338 0.0
H2213 H 0.48607 0.42873 0.49196 0.0
H2214 H 0.46536 0.45813 0.57542 0.0
H2215 H 0.44814 0.45495 0.50803 0.0
H2216 H 0.49928 0.45075 0.50147 0.0
H2217 H 0.47818 0.43831 0.71341 0.0
H2218 H 0.47121 0.43393 0.64515 0.0
H2219 H 0.46945 0.44954 0.67239 0.0
C2220 C 0.46792 0.43255 0.45708 0.0
C2221 C 0.45716 0.44003 0.45997 0.0
C2222 C 0.47773 0.43435 0.49614 0.0
C2223 C 0.47696 0.44361 0.53904 0.0
C2224 C 0.46607 0.45078 0.5434 0.0
H2225 H 0.53295 0.47169 0.78461 0.0
H2226 H 0.51413 0.46964 0.72439 0.0
C2227 C 0.45625 0.44897 0.5045 0.0
C2228 C 0.48794 0.44644 0.57583 0.0
H2229 H 0.49815 0.44786 0.71598 0.0
C2230 C 0.49904 0.45007 0.54836 0.0
C2231 C 0.48756 0.44573 0.63705 0.0
C2232 C 0.476 0.44157 0.66884 0.0
C2233 C 0.50978 0.45295 0.58036 0.0
C2234 C 0.50947 0.452 0.64144 0.0
C2235 C 0.49833 0.44862 0.66911 0.0
C2236 C 0.52088 0.45361 0.67686 0.0
C2237 C 0.52136 0.45704 0.54853 0.0
C2238 C 0.53084 0.44528 0.67007 0.0
C2239 C 0.54151 0.44642 0.70414 0.0
C2240 C 0.54245 0.4559 0.746 0.0
C2241 C 0.53252 0.46435 0.75248 0.0
C2242 C 0.52176 0.46315 0.71837 0.0
H2243 H 0.51914 0.46062 0.50453 0.0
H2244 H 0.52639 0.46441 0.57297 0.0
H2245 H 0.52771 0.44894 0.54358 0.0
H2246 H 0.53027 0.43775 0.63887 0.0
H2247 H 0.54901 0.4398 0.69787 0.0
H2248 H 0.77052 0.28624 0.03469 0.0
H2249 H 0.77144 0.26731 0.97466 0.0
H2250 H 0.80213 0.28295 0.87834 0.0
H2251 H 0.80121 0.30178 0.93728 0.0
H2252 H 0.78306 0.27133 0.80928 0.0
H2253 H 0.80016 0.24113 0.989 0.0
H2254 H 0.78611 0.24989 0.00159 0.0
H2255 H 0.80065 0.25794 0.99298 0.0
C2256 C 0.77735 0.28567 0.00024 0.0
C2257 C 0.78586 0.29544 0.99098 0.0
C2258 C 0.77793 0.27484 0.96636 0.0
C2259 C 0.78699 0.27368 0.92273 0.0
C2260 C 0.79513 0.28363 0.91204 0.0
H2261 H 0.8158 0.2228 0.66843 0.0
H2262 H 0.81132 0.24012 0.73407 0.0
C2263 C 0.7946 0.29437 0.94589 0.0
C2264 C 0.78831 0.2621 0.88841 0.0
H2265 H 0.79847 0.23196 0.89667 0.0
C2266 C 0.78634 0.26269 0.82839 0.0
C2267 C 0.79257 0.25085 0.9136 0.0
C2268 C 0.79509 0.24984 0.97777 0.0
C2269 C 0.78867 0.25237 0.79264 0.0
C2270 C 0.79338 0.24127 0.81748 0.0
C2271 C 0.79497 0.24053 0.87776 0.0
C2272 C 0.79685 0.2304 0.78125 0.0
C2273 C 0.78605 0.25345 0.72857 0.0
C2274 C 0.79063 0.219 0.78794 0.0
C2275 C 0.79324 0.20904 0.75083 0.0
C2276 C 0.80216 0.21028 0.7064 0.0
C2277 C 0.80883 0.22153 0.70184 0.0
C2278 C 0.80621 0.23148 0.73903 0.0
H2279 H 0.77941 0.26114 0.71908 0.0
H2280 H 0.79488 0.25547 0.70537 0.0
H2281 H 0.78216 0.24462 0.71112 0.0
H2282 H 0.78346 0.21794 0.82064 0.0
H2283 H 0.78795 0.2005 0.75588 0.0
H2284 H 0.95969 0.52261 0.29601 0.0
H2285 H 0.97901 0.52544 0.24021 0.0
H2286 H 0.96219 0.55609 0.14793 0.0
H2287 H 0.94303 0.5534 0.20328 0.0
H2288 H 0.98372 0.52557 0.11869 0.0
H2289 H 0.99384 0.57154 0.21768 0.0
H2290 H 0.98259 0.56082 0.24776 0.0
H2291 H 0.97847 0.57057 0.18724 0.0
C2292 C 0.96009 0.52985 0.26335 0.0
C2293 C 0.94991 0.53789 0.25452 0.0
C2294 C 0.97113 0.53149 0.23174 0.0
C2295 C 0.97211 0.54118 0.19108 0.0
C2296 C 0.96174 0.54877 0.18024 0.0
H2297 H 0.02232 0.57033 0.93705 0.0
H2298 H 0.00551 0.56603 0.00585 0.0
C2299 C 0.95078 0.54718 0.21176 0.0
C2300 C 0.98394 0.54357 0.15989 0.0
H2301 H 0.00532 0.5664 0.13208 0.0
C2302 C 0.98856 0.53442 0.12213 0.0
C2303 C 0.99024 0.55512 0.16471 0.0
C2304 C 0.98612 0.56503 0.20697 0.0
C2305 C 0.999 0.53675 0.08701 0.0
C2306 C 0.00502 0.54846 0.09041 0.0
C2307 C 0.00062 0.55747 0.12938 0.0
C2308 C 0.01562 0.5517 0.05219 0.0
C2309 C 0.00322 0.52684 0.04492 0.0
C2310 C 0.027 0.54536 0.05686 0.0
C2311 C 0.03665 0.54782 0.01784 0.0
C2312 C 0.03509 0.55669 0.97334 0.0
C2313 C 0.02385 0.56343 0.97059 0.0
C2314 C 0.01422 0.56098 0.00979 0.0
H2315 H 0.99619 0.51931 0.03984 0.0
H2316 H 0.00513 0.53098 0.00171 0.0
H2317 H 0.012 0.52259 0.06096 0.0
H2318 H 0.02833 0.53833 0.08999 0.0
H2319 H 0.04518 0.54248 0.02155 0.0
H2320 H 0.69547 0.30453 0.05705 0.0
H2321 H 0.69339 0.28546 0.11371 0.0
H2322 H 0.72483 0.26952 0.02382 0.0
H2323 H 0.72709 0.28876 0.96714 0.0
H2324 H 0.68848 0.26209 0.07007 0.0
H2325 H 0.73305 0.2623 0.19332 0.0
H2326 H 0.72728 0.2759 0.15586 0.0
H2327 H 0.7346 0.26352 0.11601 0.0
C2328 C 0.70204 0.29702 0.04964 0.0
C2329 C 0.71143 0.29813 0.00751 0.0
C2330 C 0.70082 0.28613 0.08206 0.0
C2331 C 0.70897 0.27609 0.0732 0.0
C2332 C 0.71856 0.27723 0.03203 0.0
H2333 H 0.70984 0.20324 0.24186 0.0
H2334 H 0.71308 0.22025 0.17321 0.0
C2335 C 0.71983 0.28821 0.99964 0.0
C2336 C 0.70694 0.26431 0.10549 0.0
H2337 H 0.71993 0.24483 0.20575 0.0
C2338 C 0.69537 0.25829 0.09964 0.0
C2339 C 0.71596 0.25935 0.14379 0.0
C2340 C 0.72839 0.26563 0.15318 0.0
C2341 C 0.69252 0.24753 0.13155 0.0
C2342 C 0.70143 0.24274 0.17079 0.0
C2343 C 0.71312 0.24855 0.17558 0.0
C2344 C 0.69864 0.23201 0.20906 0.0
C2345 C 0.68002 0.24136 0.12292 0.0
C2346 C 0.68933 0.23293 0.25156 0.0
C2347 C 0.68743 0.22322 0.29103 0.0
C2348 C 0.69486 0.21242 0.28884 0.0
C2349 C 0.70392 0.21139 0.24489 0.0
C2350 C 0.70583 0.22113 0.20564 0.0
H2351 H 0.67568 0.24412 0.08113 0.0
H2352 H 0.68091 0.23104 0.12407 0.0
H2353 H 0.67366 0.24422 0.1584 0.0
H2354 H 0.68381 0.24135 0.25546 0.0
H2355 H 0.68043 0.22437 0.32437 0.0
H2356 H 0.96127 0.47296 0.2214 0.0
H2357 H 0.98015 0.47168 0.28154 0.0
H2358 H 0.96554 0.43891 0.36577 0.0
H2359 H 0.94673 0.44017 0.30669 0.0
H2360 H 0.9759 0.45744 0.44197 0.0
H2361 H 0.00779 0.44453 0.26129 0.0
H2362 H 0.99837 0.45825 0.25137 0.0
H2363 H 0.99105 0.44324 0.25534 0.0
C2364 C 0.96206 0.46556 0.25307 0.0
C2365 C 0.95256 0.45661 0.25901 0.0
C2366 C 0.97287 0.46478 0.28701 0.0
C2367 C 0.97429 0.45508 0.3274 0.0
C2368 C 0.96466 0.4464 0.33455 0.0
H2369 H 0.02692 0.42832 0.58188 0.0
H2370 H 0.00942 0.4314 0.51552 0.0
C2371 C 0.95392 0.44713 0.30061 0.0
C2372 C 0.98577 0.45383 0.36256 0.0
H2373 H 0.01662 0.44613 0.35456 0.0
C2374 C 0.98483 0.45502 0.42292 0.0
C2375 C 0.99737 0.45069 0.33742 0.0
C2376 C 0.99878 0.44901 0.27284 0.0
C2377 C 0.99518 0.45311 0.45898 0.0
C2378 C 0.00672 0.44962 0.43403 0.0
C2379 C 0.00774 0.4487 0.37354 0.0
C2380 C 0.01781 0.44694 0.47027 0.0
C2381 C 0.9937 0.45499 0.52345 0.0
C2382 C 0.02859 0.45423 0.46478 0.0
C2383 C 0.03868 0.45242 0.50222 0.0
C2384 C 0.03818 0.44325 0.54587 0.0
C2385 C 0.0276 0.43552 0.54915 0.0
C2386 C 0.01754 0.43733 0.51154 0.0
H2387 H 0.98544 0.46083 0.53371 0.0
H2388 H 0.9924 0.44579 0.54462 0.0
H2389 H 0.0021 0.45946 0.5424 0.0
H2390 H 0.02903 0.46163 0.43285 0.0
H2391 H 0.04668 0.45853 0.49819 0.0
H2392 H 0.80291 0.69509 0.56036 0.0
H2393 H 0.80467 0.71382 0.61956 0.0
H2394 H 0.77368 0.73026 0.5282 0.0
H2395 H 0.7719 0.71143 0.46794 0.0
H2396 H 0.79574 0.74573 0.53789 0.0
H2397 H 0.78131 0.72611 0.74983 0.0
H2398 H 0.79296 0.71704 0.71312 0.0
H2399 H 0.7777 0.71864 0.68171 0.0
C2400 C 0.79639 0.70263 0.55305 0.0
C2401 C 0.78727 0.70179 0.50942 0.0
C2402 C 0.79737 0.71331 0.58719 0.0
C2403 C 0.78924 0.72337 0.57861 0.0
C2404 C 0.78 0.72255 0.53561 0.0
H2405 H 0.78954 0.79688 0.74085 0.0
H2406 H 0.78585 0.77947 0.67508 0.0
C2407 C 0.77895 0.71178 0.50149 0.0
C2408 C 0.7909 0.73489 0.61307 0.0
H2409 H 0.79182 0.74568 0.7521 0.0
C2410 C 0.79474 0.74581 0.58466 0.0
C2411 C 0.78964 0.7349 0.67404 0.0
C2412 C 0.78507 0.72358 0.70653 0.0
C2413 C 0.79782 0.75662 0.61594 0.0
C2414 C 0.79682 0.75653 0.67708 0.0
C2415 C 0.7927 0.74569 0.70527 0.0
C2416 C 0.79994 0.76756 0.71302 0.0
C2417 C 0.8025 0.7679 0.5835 0.0
C2418 C 0.80913 0.76668 0.75617 0.0
C2419 C 0.81124 0.77661 0.79421 0.0
C2420 C 0.80413 0.78759 0.79007 0.0
C2421 C 0.79524 0.78859 0.74532 0.0
C2422 C 0.79313 0.77866 0.70739 0.0
H2423 H 0.80575 0.76544 0.53923 0.0
H2424 H 0.79482 0.77476 0.57921 0.0
H2425 H 0.81028 0.77244 0.60722 0.0
H2426 H 0.81447 0.75818 0.76129 0.0
H2427 H 0.81813 0.77548 0.82814 0.0
H2428 H 0.53704 0.5249 0.70353 0.0
H2429 H 0.51772 0.52729 0.75963 0.0
H2430 H 0.53308 0.55971 0.84405 0.0
H2431 H 0.55223 0.55747 0.78824 0.0
H2432 H 0.51358 0.52784 0.87936 0.0
H2433 H 0.5002 0.57284 0.77932 0.0
H2434 H 0.51207 0.56286 0.74899 0.0
H2435 H 0.51568 0.57299 0.80886 0.0
C2436 C 0.5363 0.53248 0.7343 0.0
C2437 C 0.54609 0.54109 0.74092 0.0
C2438 C 0.52526 0.53387 0.76613 0.0
C2439 C 0.52386 0.54388 0.80486 0.0
C2440 C 0.53382 0.55215 0.81315 0.0
H2441 H 0.47216 0.56979 0.06209 0.0
H2442 H 0.48918 0.56683 0.99283 0.0
C2443 C 0.54479 0.5508 0.78137 0.0
C2444 C 0.51208 0.54569 0.83743 0.0
H2445 H 0.48935 0.56717 0.86595 0.0
C2446 C 0.50818 0.53636 0.87594 0.0
C2447 C 0.50505 0.55683 0.83276 0.0
C2448 C 0.50838 0.5669 0.78983 0.0
C2449 C 0.49772 0.53807 0.91163 0.0
C2450 C 0.49091 0.54935 0.9081 0.0
C2451 C 0.49464 0.55856 0.8687 0.0
C2452 C 0.48011 0.55185 0.9463 0.0
C2453 C 0.49427 0.52798 0.9543 0.0
C2454 C 0.46922 0.54471 0.94166 0.0
C2455 C 0.45945 0.5464 0.98092 0.0
C2456 C 0.4604 0.55529 0.02569 0.0
C2457 C 0.47111 0.56285 0.02835 0.0
C2458 C 0.48086 0.56116 0.98888 0.0
H2459 H 0.50182 0.52099 0.95951 0.0
H2460 H 0.49211 0.53206 0.99738 0.0
H2461 H 0.4858 0.52307 0.93868 0.0
H2462 H 0.46839 0.53762 0.90842 0.0
H2463 H 0.45134 0.54045 0.97725 0.0
H2464 H 0.29242 0.19693 0.7438 0.0
H2465 H 0.28869 0.21368 0.67435 0.0
H2466 H 0.31724 0.23584 0.75622 0.0
H2467 H 0.32112 0.21912 0.8258 0.0
H2468 H 0.28073 0.23751 0.70526 0.0
H2469 H 0.32523 0.2396 0.58365 0.0
H2470 H 0.32082 0.22629 0.62695 0.0
H2471 H 0.32725 0.23995 0.66087 0.0
C2472 C 0.29809 0.20526 0.74652 0.0
C2473 C 0.30707 0.20667 0.79066 0.0
C2474 C 0.29591 0.21484 0.70676 0.0
C2475 C 0.30273 0.22597 0.7099 0.0
C2476 C 0.31201 0.22724 0.75241 0.0
H2477 H 0.30218 0.29941 0.56946 0.0
H2478 H 0.305 0.28005 0.62316 0.0
C2479 C 0.3142 0.21767 0.79229 0.0
C2480 C 0.29946 0.23662 0.67188 0.0
H2481 H 0.31168 0.25717 0.57446 0.0
C2482 C 0.28744 0.24173 0.67606 0.0
C2483 C 0.30822 0.24207 0.63384 0.0
C2484 C 0.32107 0.23663 0.62551 0.0
C2485 C 0.28411 0.25251 0.64507 0.0
C2486 C 0.29299 0.25817 0.60835 0.0
C2487 C 0.3049 0.25283 0.60288 0.0
C2488 C 0.29046 0.27006 0.57774 0.0
C2489 C 0.2713 0.25803 0.65371 0.0
C2490 C 0.28119 0.27093 0.53487 0.0
C2491 C 0.2795 0.28207 0.50408 0.0
C2492 C 0.28717 0.29243 0.51539 0.0
C2493 C 0.2962 0.29157 0.55938 0.0
C2494 C 0.29784 0.28051 0.59011 0.0
H2495 H 0.26653 0.25404 0.6922 0.0
H2496 H 0.27186 0.2683 0.65888 0.0
H2497 H 0.26549 0.25603 0.61501 0.0
H2498 H 0.27551 0.26291 0.52409 0.0
H2499 H 0.27254 0.28243 0.47011 0.0
H2500 H 0.54988 0.54124 0.47311 0.0
H2501 H 0.53329 0.53744 0.40284 0.0
H2502 H 0.51128 0.56665 0.48033 0.0
H2503 H 0.52784 0.57062 0.55066 0.0
H2504 H 0.50916 0.53003 0.43199 0.0
H2505 H 0.50849 0.5741 0.30677 0.0
H2506 H 0.52153 0.56956 0.35161 0.0
H2507 H 0.5079 0.57645 0.38374 0.0
C2508 C 0.54162 0.54704 0.4747 0.0
C2509 C 0.5402 0.55625 0.51774 0.0
C2510 C 0.53213 0.54481 0.4345 0.0
C2511 C 0.5211 0.55181 0.43611 0.0
C2512 C 0.51981 0.56128 0.47769 0.0
H2513 H 0.44798 0.55264 0.29499 0.0
H2514 H 0.46747 0.55502 0.34818 0.0
C2515 C 0.52929 0.56352 0.51801 0.0
C2516 C 0.51056 0.54862 0.39735 0.0
H2517 H 0.49054 0.56101 0.29794 0.0
C2518 C 0.50517 0.53672 0.40204 0.0
C2519 C 0.50543 0.55736 0.35826 0.0
C2520 C 0.5112 0.57004 0.34925 0.0
C2521 C 0.49439 0.53356 0.37071 0.0
C2522 C 0.48901 0.54247 0.33319 0.0
C2523 C 0.49466 0.55421 0.32701 0.0
C2524 C 0.47705 0.54021 0.30282 0.0
C2525 C 0.48854 0.52092 0.37988 0.0
C2526 C 0.4759 0.53093 0.26017 0.0
C2527 C 0.46469 0.5295 0.22963 0.0
C2528 C 0.45454 0.53742 0.24103 0.0
C2529 C 0.45566 0.54646 0.28482 0.0
C2530 C 0.46679 0.54785 0.31527 0.0
H2531 H 0.49246 0.51607 0.41835 0.0
H2532 H 0.47829 0.52178 0.3854 0.0
H2533 H 0.49029 0.51502 0.34123 0.0
H2534 H 0.48377 0.52504 0.24939 0.0
H2535 H 0.46412 0.52251 0.19583 0.0
H2536 H 0.19623 0.77145 0.39089 0.0
H2537 H 0.19936 0.75353 0.327 0.0
H2538 H 0.1908 0.77655 0.1787 0.0
H2539 H 0.18858 0.79467 0.24236 0.0
H2540 H 0.18647 0.74067 0.25895 0.0
H2541 H 0.22256 0.76279 0.12343 0.0
H2542 H 0.21667 0.7701 0.18817 0.0
H2543 H 0.20847 0.77171 0.12025 0.0
C2544 C 0.19489 0.77262 0.34466 0.0
C2545 C 0.19218 0.78441 0.32138 0.0
C2546 C 0.19675 0.7624 0.30809 0.0
C2547 C 0.19571 0.76373 0.24765 0.0
C2548 C 0.1922 0.77537 0.22482 0.0
H2549 H 0.1822 0.70333 0.01368 0.0
H2550 H 0.18163 0.71998 0.08423 0.0
C2551 C 0.19072 0.78567 0.26123 0.0
C2552 C 0.19818 0.75292 0.20874 0.0
H2553 H 0.21297 0.7444 0.08378 0.0
C2554 C 0.1924 0.74148 0.22106 0.0
C2555 C 0.20623 0.75375 0.16016 0.0
C2556 C 0.21394 0.76521 0.14769 0.0
C2557 C 0.19403 0.73105 0.18515 0.0
C2558 C 0.20111 0.73224 0.13361 0.0
C2559 C 0.20733 0.74351 0.12255 0.0
C2560 C 0.20167 0.72217 0.08935 0.0
C2561 C 0.18827 0.71884 0.20365 0.0
C2562 C 0.21311 0.71821 0.06582 0.0
C2563 C 0.21343 0.70895 0.0229 0.0
C2564 C 0.20232 0.70343 0.00314 0.0
C2565 C 0.19094 0.70742 0.02699 0.0
C2566 C 0.19061 0.71683 0.06855 0.0
H2567 H 0.18772 0.71819 0.25165 0.0
H2568 H 0.17861 0.71828 0.18671 0.0
H2569 H 0.19366 0.71073 0.18735 0.0
H2570 H 0.22179 0.72224 0.08077 0.0
H2571 H 0.22236 0.70607 0.00558 0.0
H2572 H 0.03627 0.47536 0.71843 0.0
H2573 H 0.01698 0.47271 0.77437 0.0
H2574 H 0.03389 0.44249 0.86943 0.0
H2575 H 0.05303 0.445 0.81375 0.0
H2576 H 0.01073 0.43648 0.82188 0.0
H2577 H 0.00885 0.48118 0.94394 0.0
H2578 H 0.01062 0.48252 0.86673 0.0
H2579 H 0.0229 0.4757 0.90917 0.0
C2580 C 0.03593 0.46831 0.75198 0.0
C2581 C 0.04613 0.46034 0.76153 0.0
C2582 C 0.02491 0.46681 0.7839 0.0
C2583 C 0.02403 0.45741 0.82616 0.0
C2584 C 0.03436 0.44975 0.83689 0.0
H2585 H 0.97267 0.42668 0.07272 0.0
H2586 H 0.98963 0.43078 0.00467 0.0
C2587 C 0.0453 0.45121 0.80502 0.0
C2588 C 0.0122 0.455 0.85742 0.0
H2589 H 0.992 0.46729 0.95636 0.0
C2590 C 0.00661 0.44323 0.85115 0.0
C2591 C 0.00681 0.46385 0.89525 0.0
C2592 C 0.01262 0.4765 0.90473 0.0
C2593 C 0.99585 0.44002 0.88229 0.0
C2594 C 0.99066 0.44873 0.92133 0.0
C2595 C 0.99604 0.46062 0.92642 0.0
C2596 C 0.97996 0.44554 0.95915 0.0
C2597 C 0.99012 0.42733 0.87304 0.0
C2598 C 0.9689 0.45246 0.95605 0.0
C2599 C 0.95918 0.45015 0.99489 0.0
C2600 C 0.96039 0.44094 0.03807 0.0
C2601 C 0.97138 0.43379 0.03993 0.0
C2602 C 0.98108 0.4361 0.00094 0.0
H2603 H 0.99301 0.42321 0.83096 0.0
H2604 H 0.99326 0.42097 0.90807 0.0
H2605 H 0.97978 0.42782 0.87436 0.0
H2606 H 0.96787 0.45981 0.92419 0.0
H2607 H 0.95088 0.45587 0.99213 0.0
H2608 H 0.27358 0.71058 0.03818 0.0
H2609 H 0.27536 0.72946 0.97832 0.0
H2610 H 0.30625 0.71303 0.88639 0.0
H2611 H 0.30444 0.69421 0.94494 0.0
H2612 H 0.29674 0.74509 0.96899 0.0
H2613 H 0.28349 0.72536 0.75578 0.0
H2614 H 0.28003 0.71761 0.82336 0.0
H2615 H 0.29534 0.71649 0.79209 0.0
C2616 C 0.28061 0.71094 0.00458 0.0
C2617 C 0.28888 0.70092 0.99631 0.0
C2618 C 0.28166 0.72174 0.97067 0.0
C2619 C 0.29086 0.72258 0.92755 0.0
C2620 C 0.29896 0.7125 0.91874 0.0
H2621 H 0.32128 0.77494 0.68441 0.0
H2622 H 0.31706 0.7577 0.75076 0.0
C2623 C 0.29796 0.70178 0.95258 0.0
C2624 C 0.29251 0.73415 0.89327 0.0
H2625 H 0.29406 0.74496 0.75436 0.0
C2626 C 0.296 0.74514 0.92212 0.0
C2627 C 0.29156 0.73415 0.83214 0.0
C2628 C 0.28728 0.7228 0.799 0.0
C2629 C 0.29905 0.75601 0.8912 0.0
C2630 C 0.29845 0.75589 0.82997 0.0
C2631 C 0.29465 0.74499 0.8013 0.0
C2632 C 0.30177 0.76691 0.79439 0.0
C2633 C 0.30333 0.76739 0.9241 0.0
C2634 C 0.2947 0.77789 0.7976 0.0
C2635 C 0.29711 0.78779 0.75983 0.0
C2636 C 0.30658 0.78687 0.71778 0.0
C2637 C 0.31393 0.77601 0.71619 0.0
C2638 C 0.31151 0.76612 0.75396 0.0
H2639 H 0.30603 0.7651 0.96935 0.0
H2640 H 0.31138 0.77185 0.90213 0.0
H2641 H 0.29561 0.77427 0.92569 0.0
H2642 H 0.28702 0.77862 0.82785 0.0
H2643 H 0.29122 0.79598 0.76224 0.0
H2644 H 0.94847 0.53925 0.52025 0.0
H2645 H 0.96583 0.53546 0.58624 0.0
H2646 H 0.98712 0.56432 0.50185 0.0
H2647 H 0.96987 0.56807 0.43477 0.0
H2648 H -0.00029 0.54165 0.511 0.0
H2649 H 0.97943 0.55537 0.72322 0.0
H2650 H 0.97033 0.54439 0.68238 0.0
H2651 H 0.97254 0.55991 0.65499 0.0
C2652 C 0.95675 0.54496 0.51621 0.0
C2653 C 0.95777 0.55396 0.47196 0.0
C2654 C 0.96666 0.5428 0.55425 0.0
C2655 C 0.97773 0.54966 0.54923 0.0
C2656 C 0.97863 0.55893 0.50648 0.0
H2657 H 0.04961 0.55513 0.70155 0.0
H2658 H 0.03086 0.55571 0.64204 0.0
C2659 C 0.96874 0.5611 0.46832 0.0
C2660 C 0.9887 0.54659 0.58559 0.0
H2661 H -0.00062 0.54594 0.72506 0.0
C2662 C -0.00037 0.54258 0.55781 0.0
C2663 C 0.98852 0.54764 0.64671 0.0
C2664 C 0.97712 0.55216 0.67872 0.0
C2665 C 0.01045 0.53978 0.58939 0.0
C2666 C 0.01038 0.54119 0.65028 0.0
C2667 C -0.00064 0.54483 0.67834 0.0
C2668 C 0.02197 0.54013 0.68481 0.0
C2669 C 0.02189 0.53539 0.55729 0.0
C2670 C 0.02317 0.53119 0.72896 0.0
C2671 C 0.03395 0.53082 0.7633 0.0
C2672 C 0.04356 0.53952 0.75442 0.0
C2673 C 0.04236 0.54832 0.7096 0.0
C2674 C 0.03168 0.54863 0.67527 0.0
H2675 H 0.01944 0.53132 0.51448 0.0
H2676 H 0.02816 0.54344 0.54962 0.0
H2677 H 0.02708 0.52832 0.58286 0.0
H2678 H 0.01572 0.52461 0.73714 0.0
H2679 H 0.0346 0.524 0.79778 0.0
H2680 H 0.19366 0.30202 0.45568 0.0
H2681 H 0.19224 0.28312 0.39733 0.0
H2682 H 0.2236 0.26751 0.48906 0.0
H2683 H 0.22501 0.28646 0.54858 0.0
H2684 H 0.21061 0.2719 0.32536 0.0
H2685 H 0.19564 0.24088 0.50577 0.0
H2686 H 0.19505 0.25767 0.51103 0.0
H2687 H 0.20969 0.24969 0.51715 0.0
C2688 C 0.20027 0.29458 0.46355 0.0
C2689 C 0.20938 0.29568 0.50712 0.0
C2690 C 0.19946 0.2838 0.43003 0.0
C2691 C 0.20768 0.27386 0.43952 0.0
C2692 C 0.21704 0.27502 0.48179 0.0
H2693 H 0.21082 0.20124 0.27193 0.0
H2694 H 0.2137 0.21891 0.33726 0.0
C2695 C 0.21789 0.28587 0.51536 0.0
C2696 C 0.20629 0.26233 0.4048 0.0
H2697 H 0.19775 0.2317 0.41337 0.0
C2698 C 0.20784 0.2631 0.34456 0.0
C2699 C 0.20269 0.25088 0.43012 0.0
C2700 C 0.20057 0.24966 0.49451 0.0
C2701 C 0.20586 0.25271 0.30879 0.0
C2702 C 0.20195 0.24133 0.33389 0.0
C2703 C 0.20065 0.24048 0.39429 0.0
C2704 C 0.1993 0.23019 0.2979 0.0
C2705 C 0.20811 0.25399 0.2445 0.0
C2706 C 0.1899 0.2305 0.25556 0.0
C2707 C 0.18821 0.22041 0.21798 0.0
C2708 C 0.19587 0.2098 0.22228 0.0
C2709 C 0.2048 0.20927 0.26703 0.0
C2710 C 0.20648 0.21937 0.30449 0.0
H2711 H 0.2141 0.26215 0.2344 0.0
H2712 H 0.21259 0.24548 0.22668 0.0
H2713 H 0.19905 0.25532 0.22209 0.0
H2714 H 0.18406 0.23867 0.25066 0.0
H2715 H 0.1812 0.22113 0.18434 0.0
H2716 H 0.46043 0.47241 0.2872 0.0
H2717 H 0.47993 0.46975 0.23287 0.0
H2718 H 0.4634 0.43949 0.13663 0.0
H2719 H 0.44405 0.442 0.19077 0.0
H2720 H 0.48651 0.43356 0.18429 0.0
H2721 H 0.48823 0.47851 0.06423 0.0
H2722 H 0.48643 0.47974 0.14144 0.0
H2723 H 0.47421 0.47291 0.09872 0.0
C2724 C 0.46091 0.46534 0.25379 0.0
C2725 C 0.45074 0.45738 0.24339 0.0
C2726 C 0.47204 0.46383 0.22279 0.0
C2727 C 0.47308 0.45444 0.18058 0.0
C2728 C 0.46281 0.44675 0.16916 0.0
H2729 H 0.52487 0.42493 0.93301 0.0
H2730 H 0.50799 0.42839 0.00225 0.0
C2731 C 0.45175 0.44822 0.20013 0.0
C2732 C 0.48497 0.45215 0.14966 0.0
H2733 H 0.50524 0.46482 0.0521 0.0
C2734 C 0.49064 0.44041 0.15552 0.0
C2735 C 0.49036 0.46113 0.11246 0.0
C2736 C 0.48448 0.47375 0.10328 0.0
C2737 C 0.50147 0.43734 0.12461 0.0
C2738 C 0.50667 0.44619 0.08626 0.0
C2739 C 0.50121 0.45805 0.08157 0.0
C2740 C 0.51744 0.44319 0.04853 0.0
C2741 C 0.50727 0.42466 0.13336 0.0
C2742 C 0.52837 0.4503 0.0518 0.0
C2743 C 0.53804 0.44837 0.01226 0.0
C2744 C 0.5369 0.43934 0.96821 0.0
C2745 C 0.5261 0.43191 0.96645 0.0
C2746 C 0.51645 0.43385 0.00613 0.0
H2747 H 0.50438 0.42044 0.17521 0.0
H2748 H 0.50419 0.41836 0.09801 0.0
H2749 H 0.51761 0.42522 0.13221 0.0
H2750 H 0.5293 0.45757 0.08416 0.0
H2751 H 0.54621 0.45428 0.01504 0.0
loop_
_geom_bond_atom_site_label_1
_geom_bond_atom_site_label_2
_geom_bond_distance
_geom_bond_site_symmetry_2
_ccdc_geom_bond_type
Mg0 O1 2.028 . S
Mg0 O7 1.986 . S
Mg0 O9 2.114 . S
Mg0 O10 2.251 . S
Mg0 O13 2.010 . S
O1 Mg0 2.028 . S
O1 C4 1.250 . S
O2 Mg3 2.028 . S
O2 C4 1.248 . S
Mg3 O2 2.028 . S
Mg3 O8 2.032 . S
Mg3 O10 2.079 . S
C4 O1 1.250 . S
C4 O2 1.248 . S
C5 O6 1.264 . S
C5 O13 1.249 . S
O6 C5 1.264 . S
O7 Mg0 1.986 . S
O7 C11 1.246 . S
O8 Mg3 2.032 . S
O8 C11 1.259 . S
O9 Mg0 2.114 . S
O9 C12 1.252 . S
O10 Mg0 2.251 . S
O10 Mg3 2.079 . S
O10 C12 1.273 . S
C11 O7 1.246 . S
C11 O8 1.259 . S
C12 O9 1.252 . S
C12 O10 1.273 . S
O13 Mg0 2.010 . S
O13 C5 1.249 . S
Mg14 O15 2.028 . S
Mg14 O21 1.986 . S
Mg14 O23 2.114 . S
Mg14 O24 2.251 . S
Mg14 O27 2.010 . S
O15 Mg14 2.028 . S
O15 C18 1.250 . S
O16 Mg17 2.028 . S
O16 C18 1.248 . S
Mg17 O16 2.028 . S
Mg17 O22 2.032 . S
Mg17 O24 2.079 . S
C18 O15 1.250 . S
C18 O16 1.248 . S
C19 O20 1.264 . S
C19 O27 1.249 . S
O20 C19 1.264 . S
O21 Mg14 1.986 . S
O21 C25 1.246 . S
O22 Mg17 2.032 . S
O22 C25 1.259 . S
O23 Mg14 2.114 . S
O23 C26 1.252 . S
O24 Mg14 2.251 . S
O24 Mg17 2.079 . S
O24 C26 1.273 . S
C25 O21 1.246 . S
C25 O22 1.259 . S
C26 O23 1.252 . S
C26 O24 1.273 . S
O27 Mg14 2.010 . S
O27 C19 1.249 . S
Mg28 O29 2.028 . S
Mg28 O35 1.986 . S
Mg28 O37 2.114 . S
Mg28 O38 2.251 . S
Mg28 O41 2.010 . S
O29 Mg28 2.028 . S
O29 C32 1.250 . S
O30 Mg31 2.028 . S
O30 C32 1.248 . S
Mg31 O30 2.028 . S
Mg31 O36 2.032 . S
Mg31 O38 2.079 . S
C32 O29 1.250 . S
C32 O30 1.248 . S
C33 O34 1.264 . S
C33 O41 1.249 . S
O34 C33 1.264 . S
O35 Mg28 1.986 . S
O35 C39 1.246 . S
O36 Mg31 2.032 . S
O36 C39 1.259 . S
O37 Mg28 2.114 . S
O37 C40 1.252 . S
O38 Mg28 2.251 . S
O38 Mg31 2.079 . S
O38 C40 1.273 . S
C39 O35 1.246 . S
C39 O36 1.259 . S
C40 O37 1.252 . S
C40 O38 1.273 . S
O41 Mg28 2.010 . S
O41 C33 1.249 . S
Mg42 O43 2.028 1_556 S
Mg42 O49 1.986 . S
Mg42 O51 2.114 . S
Mg42 O52 2.251 . S
Mg42 O55 2.010 1_556 S
O43 Mg42 2.028 1_554 S
O43 C46 1.250 . S
O44 Mg45 2.028 1_554 S
O44 C46 1.248 . S
Mg45 O44 2.028 1_556 S
Mg45 O50 2.032 . S
Mg45 O52 2.079 . S
C46 O43 1.250 . S
C46 O44 1.248 . S
C47 O48 1.271 . S
C47 O55 1.249 . S
O48 C47 1.271 . S
O49 Mg42 1.986 . S
O49 C53 1.246 . S
O50 Mg45 2.032 . S
O50 C53 1.259 . S
O51 Mg42 2.114 . S
O51 C54 1.252 . S
O52 Mg42 2.251 . S
O52 Mg45 2.079 . S
O52 C54 1.273 . S
C53 O49 1.246 . S
C53 O50 1.259 . S
C54 O51 1.252 . S
C54 O52 1.273 . S
O55 Mg42 2.010 1_554 S
O55 C47 1.249 . S
Mg56 O57 2.028 . S
Mg56 O63 1.986 . S
Mg56 O65 2.114 . S
Mg56 O66 2.251 . S
Mg56 O69 2.010 . S
O57 Mg56 2.028 . S
O57 C60 1.250 . S
O58 Mg59 2.028 . S
O58 C60 1.248 . S
Mg59 O58 2.028 . S
Mg59 O64 2.032 . S
Mg59 O66 2.079 . S
C60 O57 1.250 . S
C60 O58 1.248 . S
C61 O62 1.264 . S
C61 O69 1.249 . S
O62 C61 1.264 . S
O63 Mg56 1.986 . S
O63 C67 1.246 . S
O64 Mg59 2.032 . S
O64 C67 1.259 . S
O65 Mg56 2.114 . S
O65 C68 1.252 . S
O66 Mg56 2.251 . S
O66 Mg59 2.079 . S
O66 C68 1.273 . S
C67 O63 1.246 . S
C67 O64 1.259 . S
C68 O65 1.252 . S
C68 O66 1.273 . S
O69 Mg56 2.010 . S
O69 C61 1.249 . S
Mg70 O71 2.028 . S
Mg70 O77 1.986 . S
Mg70 O79 2.114 . S
Mg70 O80 2.251 . S
Mg70 O83 2.010 . S
O71 Mg70 2.028 . S
O71 C74 1.250 . S
O72 Mg73 2.028 . S
O72 C74 1.248 . S
Mg73 O72 2.028 . S
Mg73 O78 2.032 . S
Mg73 O80 2.079 . S
C74 O71 1.250 . S
C74 O72 1.248 . S
C75 O76 1.264 . S
C75 O83 1.249 . S
O76 C75 1.264 . S
O77 Mg70 1.986 . S
O77 C81 1.246 . S
O78 Mg73 2.032 . S
O78 C81 1.259 . S
O79 Mg70 2.114 . S
O79 C82 1.252 . S
O80 Mg70 2.251 . S
O80 Mg73 2.079 . S
O80 C82 1.273 . S
C81 O77 1.246 . S
C81 O78 1.259 . S
C82 O79 1.252 . S
C82 O80 1.273 . S
O83 Mg70 2.010 . S
O83 C75 1.249 . S
Mg84 O85 2.028 . S
Mg84 O91 1.986 . S
Mg84 O93 2.114 . S
Mg84 O94 2.251 . S
Mg84 O97 2.010 . S
O85 Mg84 2.028 . S
O85 C88 1.250 . S
O86 Mg87 2.028 . S
O86 C88 1.248 . S
Mg87 O86 2.028 . S
Mg87 O92 2.032 . S
Mg87 O94 2.079 . S
C88 O85 1.250 . S
C88 O86 1.248 . S
C89 O90 1.264 . S
C89 O97 1.249 . S
O90 C89 1.264 . S
O91 Mg84 1.986 . S
O91 C95 1.246 . S
O92 Mg87 2.032 . S
O92 C95 1.259 . S
O93 Mg84 2.114 . S
O93 C96 1.252 . S
O94 Mg84 2.251 . S
O94 Mg87 2.079 . S
O94 C96 1.273 . S
C95 O91 1.246 . S
C95 O92 1.259 . S
C96 O93 1.252 . S
C96 O94 1.273 . S
O97 Mg84 2.010 . S
O97 C89 1.249 . S
Mg98 O99 2.028 1_554 S
Mg98 O105 1.986 . S
Mg98 O107 2.114 . S
Mg98 O108 2.251 . S
Mg98 O111 2.010 1_554 S
O99 Mg98 2.028 1_556 S
O99 C102 1.250 . S
O100 Mg101 2.028 1_556 S
O100 C102 1.248 . S
Mg101 O100 2.028 1_554 S
Mg101 O106 2.032 . S
Mg101 O108 2.079 . S
C102 O99 1.250 . S
C102 O100 1.248 . S
C103 O104 1.271 . S
C103 O111 1.249 . S
O104 C103 1.271 . S
O105 Mg98 1.986 . S
O105 C109 1.246 . S
O106 Mg101 2.032 . S
O106 C109 1.259 . S
O107 Mg98 2.114 . S
O107 C110 1.252 . S
O108 Mg98 2.251 . S
O108 Mg101 2.079 . S
O108 C110 1.273 . S
C109 O105 1.246 . S
C109 O106 1.259 . S
C110 O107 1.252 . S
C110 O108 1.273 . S
O111 Mg98 2.010 1_556 S
O111 C103 1.249 . S
Mg112 O113 2.028 . S
Mg112 O119 1.986 . S
Mg112 O121 2.114 . S
Mg112 O122 2.251 . S
Mg112 O125 2.010 . S
O113 Mg112 2.028 . S
O113 C116 1.250 . S
O114 Mg115 2.028 . S
O114 C116 1.248 . S
Mg115 O114 2.028 . S
Mg115 O120 2.032 . S
Mg115 O122 2.079 . S
C116 O113 1.250 . S
C116 O114 1.248 . S
C117 O118 1.264 . S
C117 O125 1.249 . S
O118 C117 1.264 . S
O119 Mg112 1.986 . S
O119 C123 1.246 . S
O120 Mg115 2.032 . S
O120 C123 1.259 . S
O121 Mg112 2.114 . S
O121 C124 1.252 . S
O122 Mg112 2.251 . S
O122 Mg115 2.079 . S
O122 C124 1.273 . S
C123 O119 1.246 . S
C123 O120 1.259 . S
C124 O121 1.252 . S
C124 O122 1.273 . S
O125 Mg112 2.010 . S
O125 C117 1.249 . S
Mg126 O127 2.028 . S
Mg126 O133 1.986 . S
Mg126 O135 2.114 . S
Mg126 O136 2.251 . S
Mg126 O139 2.010 . S
O127 Mg126 2.028 . S
O127 C130 1.250 . S
O128 Mg129 2.028 . S
O128 C130 1.248 . S
Mg129 O128 2.028 . S
Mg129 O134 2.032 . S
Mg129 O136 2.079 . S
C130 O127 1.250 . S
C130 O128 1.248 . S
C131 O132 1.264 . S
C131 O139 1.249 . S
O132 C131 1.264 . S
O133 Mg126 1.986 . S
O133 C137 1.246 . S
O134 Mg129 2.032 . S
O134 C137 1.259 . S
O135 Mg126 2.114 . S
O135 C138 1.252 . S
O136 Mg126 2.251 . S
O136 Mg129 2.079 . S
O136 C138 1.273 . S
C137 O133 1.246 . S
C137 O134 1.259 . S
C138 O135 1.252 . S
C138 O136 1.273 . S
O139 Mg126 2.010 . S
O139 C131 1.249 . S
Mg140 O141 2.028 . S
Mg140 O147 1.986 . S
Mg140 O149 2.114 . S
Mg140 O150 2.251 . S
Mg140 O153 2.010 . S
O141 Mg140 2.028 . S
O141 C144 1.250 . S
O142 Mg143 2.028 . S
O142 C144 1.248 . S
Mg143 O142 2.028 . S
Mg143 O148 2.032 . S
Mg143 O150 2.079 . S
C144 O141 1.250 . S
C144 O142 1.248 . S
C145 O146 1.264 . S
C145 O153 1.249 . S
O146 C145 1.264 . S
O147 Mg140 1.986 . S
O147 C151 1.246 . S
O148 Mg143 2.032 . S
O148 C151 1.259 . S
O149 Mg140 2.114 . S
O149 C152 1.252 . S
O150 Mg140 2.251 . S
O150 Mg143 2.079 . S
O150 C152 1.273 . S
C151 O147 1.246 . S
C151 O148 1.259 . S
C152 O149 1.252 . S
C152 O150 1.273 . S
O153 Mg140 2.010 . S
O153 C145 1.249 . S
Mg154 O155 2.028 1_554 S
Mg154 O161 1.986 . S
Mg154 O163 2.114 . S
Mg154 O164 2.251 . S
Mg154 O167 2.010 1_554 S
O155 Mg154 2.028 1_556 S
O155 C158 1.250 . S
O156 Mg157 2.028 1_556 S
O156 C158 1.248 . S
Mg157 O156 2.028 1_554 S
Mg157 O162 2.032 . S
Mg157 O164 2.079 . S
C158 O155 1.250 . S
C158 O156 1.248 . S
C159 O160 1.271 . S
C159 O167 1.249 . S
O160 C159 1.271 . S
O161 Mg154 1.986 . S
O161 C165 1.246 . S
O162 Mg157 2.032 . S
O162 C165 1.259 . S
O163 Mg154 2.114 . S
O163 C166 1.252 . S
O164 Mg154 2.251 . S
O164 Mg157 2.079 . S
O164 C166 1.273 . S
C165 O161 1.246 . S
C165 O162 1.259 . S
C166 O163 1.252 . S
C166 O164 1.273 . S
O167 Mg154 2.010 1_556 S
O167 C159 1.249 . S
Mg168 O169 2.028 . S
Mg168 O175 1.986 . S
Mg168 O177 2.114 . S
Mg168 O178 2.251 . S
Mg168 O181 2.010 . S
O169 Mg168 2.028 . S
O169 C172 1.250 . S
O170 Mg171 2.028 . S
O170 C172 1.248 . S
Mg171 O170 2.028 . S
Mg171 O176 2.032 . S
Mg171 O178 2.079 . S
C172 O169 1.250 . S
C172 O170 1.248 . S
C173 O174 1.264 . S
C173 O181 1.249 . S
O174 C173 1.264 . S
O175 Mg168 1.986 . S
O175 C179 1.246 . S
O176 Mg171 2.032 . S
O176 C179 1.259 . S
O177 Mg168 2.114 . S
O177 C180 1.252 . S
O178 Mg168 2.251 . S
O178 Mg171 2.079 . S
O178 C180 1.273 . S
C179 O175 1.246 . S
C179 O176 1.259 . S
C180 O177 1.252 . S
C180 O178 1.273 . S
O181 Mg168 2.010 . S
O181 C173 1.249 . S
Mg182 O183 2.028 . S
Mg182 O189 1.986 . S
Mg182 O191 2.114 . S
Mg182 O192 2.251 . S
Mg182 O195 2.010 . S
O183 Mg182 2.028 . S
O183 C186 1.250 . S
O184 Mg185 2.028 . S
O184 C186 1.248 . S
Mg185 O184 2.028 . S
Mg185 O190 2.032 . S
Mg185 O192 2.079 . S
C186 O183 1.250 . S
C186 O184 1.248 . S
C187 O188 1.264 . S
C187 O195 1.249 . S
O188 C187 1.264 . S
O189 Mg182 1.986 . S
O189 C193 1.246 . S
O190 Mg185 2.032 . S
O190 C193 1.259 . S
O191 Mg182 2.114 . S
O191 C194 1.252 . S
O192 Mg182 2.251 . S
O192 Mg185 2.079 . S
O192 C194 1.273 . S
C193 O189 1.246 . S
C193 O190 1.259 . S
C194 O191 1.252 . S
C194 O192 1.273 . S
O195 Mg182 2.010 . S
O195 C187 1.249 . S
Mg196 O197 2.028 . S
Mg196 O203 1.986 . S
Mg196 O205 2.114 . S
Mg196 O206 2.251 . S
Mg196 O209 2.010 . S
O197 Mg196 2.028 . S
O197 C200 1.250 . S
O198 Mg199 2.028 . S
O198 C200 1.248 . S
Mg199 O198 2.028 . S
Mg199 O204 2.032 . S
Mg199 O206 2.079 . S
C200 O197 1.250 . S
C200 O198 1.248 . S
C201 O202 1.264 . S
C201 O209 1.249 . S
O202 C201 1.264 . S
O203 Mg196 1.986 . S
O203 C207 1.246 . S
O204 Mg199 2.032 . S
O204 C207 1.259 . S
O205 Mg196 2.114 . S
O205 C208 1.252 . S
O206 Mg196 2.251 . S
O206 Mg199 2.079 . S
O206 C208 1.273 . S
C207 O203 1.246 . S
C207 O204 1.259 . S
C208 O205 1.252 . S
C208 O206 1.273 . S
O209 Mg196 2.010 . S
O209 C201 1.249 . S
Mg210 O211 2.028 1_556 S
Mg210 O217 1.986 . S
Mg210 O219 2.114 . S
Mg210 O220 2.251 . S
Mg210 O223 2.010 1_556 S
O211 Mg210 2.028 1_554 S
O211 C214 1.250 . S
O212 Mg213 2.028 1_554 S
O212 C214 1.248 . S
Mg213 O212 2.028 1_556 S
Mg213 O218 2.032 . S
Mg213 O220 2.079 . S
C214 O211 1.250 . S
C214 O212 1.248 . S
C215 O216 1.271 . S
C215 O223 1.249 . S
O216 C215 1.271 . S
O217 Mg210 1.986 . S
O217 C221 1.246 . S
O218 Mg213 2.032 . S
O218 C221 1.259 . S
O219 Mg210 2.114 . S
O219 C222 1.252 . S
O220 Mg210 2.251 . S
O220 Mg213 2.079 . S
O220 C222 1.273 . S
C221 O217 1.246 . S
C221 O218 1.259 . S
C222 O219 1.252 . S
C222 O220 1.273 . S
O223 Mg210 2.010 1_554 S
O223 C215 1.249 . S
Mg224 O225 2.028 . S
Mg224 O231 1.986 . S
Mg224 O233 2.114 . S
Mg224 O234 2.251 . S
Mg224 O237 2.010 . S
O225 Mg224 2.028 . S
O225 C228 1.250 . S
O226 Mg227 2.028 . S
O226 C228 1.248 . S
Mg227 O226 2.028 . S
Mg227 O232 2.032 . S
Mg227 O234 2.079 . S
C228 O225 1.250 . S
C228 O226 1.248 . S
C229 O230 1.264 . S
C229 O237 1.249 . S
O230 C229 1.264 . S
O231 Mg224 1.986 . S
O231 C235 1.246 . S
O232 Mg227 2.032 . S
O232 C235 1.259 . S
O233 Mg224 2.114 . S
O233 C236 1.252 . S
O234 Mg224 2.251 . S
O234 Mg227 2.079 . S
O234 C236 1.273 . S
C235 O231 1.246 . S
C235 O232 1.259 . S
C236 O233 1.252 . S
C236 O234 1.273 . S
O237 Mg224 2.010 . S
O237 C229 1.249 . S
Mg238 O239 2.028 1_556 S
Mg238 O245 1.986 . S
Mg238 O247 2.114 . S
Mg238 O248 2.251 . S
Mg238 O251 2.010 1_556 S
O239 Mg238 2.028 1_554 S
O239 C242 1.250 . S
O240 Mg241 2.028 1_554 S
O240 C242 1.248 . S
Mg241 O240 2.028 1_556 S
Mg241 O246 2.032 . S
Mg241 O248 2.079 . S
C242 O239 1.250 . S
C242 O240 1.248 . S
C243 O244 1.271 . S
C243 O251 1.249 . S
O244 C243 1.271 . S
O245 Mg238 1.986 . S
O245 C249 1.246 . S
O246 Mg241 2.032 . S
O246 C249 1.259 . S
O247 Mg238 2.114 . S
O247 C250 1.252 . S
O248 Mg238 2.251 . S
O248 Mg241 2.079 . S
O248 C250 1.273 . S
C249 O245 1.246 . S
C249 O246 1.259 . S
C250 O247 1.252 . S
C250 O248 1.273 . S
O251 Mg238 2.010 1_554 S
O251 C243 1.249 . S
Mg252 O253 2.028 . S
Mg252 O259 1.986 . S
Mg252 O261 2.114 . S
Mg252 O262 2.251 . S
Mg252 O265 2.010 . S
O253 Mg252 2.028 . S
O253 C256 1.250 . S
O254 Mg255 2.028 . S
O254 C256 1.248 . S
Mg255 O254 2.028 . S
Mg255 O260 2.032 . S
Mg255 O262 2.079 . S
C256 O253 1.250 . S
C256 O254 1.248 . S
C257 O258 1.264 . S
C257 O265 1.249 . S
O258 C257 1.264 . S
O259 Mg252 1.986 . S
O259 C263 1.246 . S
O260 Mg255 2.032 . S
O260 C263 1.259 . S
O261 Mg252 2.114 . S
O261 C264 1.252 . S
O262 Mg252 2.251 . S
O262 Mg255 2.079 . S
O262 C264 1.273 . S
C263 O259 1.246 . S
C263 O260 1.259 . S
C264 O261 1.252 . S
C264 O262 1.273 . S
O265 Mg252 2.010 . S
O265 C257 1.249 . S
Mg266 O267 2.028 . S
Mg266 O273 1.986 . S
Mg266 O275 2.114 . S
Mg266 O276 2.251 . S
Mg266 O279 2.010 . S
O267 Mg266 2.028 . S
O267 C270 1.250 . S
O268 Mg269 2.028 . S
O268 C270 1.248 . S
Mg269 O268 2.028 . S
Mg269 O274 2.032 . S
Mg269 O276 2.079 . S
C270 O267 1.250 . S
C270 O268 1.248 . S
C271 O272 1.264 . S
C271 O279 1.249 . S
O272 C271 1.264 . S
O273 Mg266 1.986 . S
O273 C277 1.246 . S
O274 Mg269 2.032 . S
O274 C277 1.259 . S
O275 Mg266 2.114 . S
O275 C278 1.252 . S
O276 Mg266 2.251 . S
O276 Mg269 2.079 . S
O276 C278 1.273 . S
C277 O273 1.246 . S
C277 O274 1.259 . S
C278 O275 1.252 . S
C278 O276 1.273 . S
O279 Mg266 2.010 . S
O279 C271 1.249 . S
Mg280 O281 2.028 . S
Mg280 O287 1.986 . S
Mg280 O289 2.114 . S
Mg280 O290 2.251 . S
Mg280 O293 2.010 . S
O281 Mg280 2.028 . S
O281 C284 1.250 . S
O282 Mg283 2.028 . S
O282 C284 1.248 . S
Mg283 O282 2.028 . S
Mg283 O288 2.032 . S
Mg283 O290 2.079 . S
C284 O281 1.250 . S
C284 O282 1.248 . S
C285 O286 1.264 . S
C285 O293 1.249 . S
O286 C285 1.264 . S
O287 Mg280 1.986 . S
O287 C291 1.246 . S
O288 Mg283 2.032 . S
O288 C291 1.259 . S
O289 Mg280 2.114 . S
O289 C292 1.252 . S
O290 Mg280 2.251 . S
O290 Mg283 2.079 . S
O290 C292 1.273 . S
C291 O287 1.246 . S
C291 O288 1.259 . S
C292 O289 1.252 . S
C292 O290 1.273 . S
O293 Mg280 2.010 . S
O293 C285 1.249 . S
Mg294 O295 2.028 1_554 S
Mg294 O301 1.986 . S
Mg294 O303 2.114 . S
Mg294 O304 2.251 . S
Mg294 O307 2.010 1_554 S
O295 Mg294 2.028 1_556 S
O295 C298 1.250 . S
O296 Mg297 2.028 1_556 S
O296 C298 1.248 . S
Mg297 O296 2.028 1_554 S
Mg297 O302 2.032 . S
Mg297 O304 2.079 . S
C298 O295 1.250 . S
C298 O296 1.248 . S
C299 O300 1.271 . S
C299 O307 1.249 . S
O300 C299 1.271 . S
O301 Mg294 1.986 . S
O301 C305 1.246 . S
O302 Mg297 2.032 . S
O302 C305 1.259 . S
O303 Mg294 2.114 . S
O303 C306 1.252 . S
O304 Mg294 2.251 . S
O304 Mg297 2.079 . S
O304 C306 1.273 . S
C305 O301 1.246 . S
C305 O302 1.259 . S
C306 O303 1.252 . S
C306 O304 1.273 . S
O307 Mg294 2.010 1_556 S
O307 C299 1.249 . S
Mg308 O309 2.028 . S
Mg308 O315 1.986 . S
Mg308 O317 2.114 . S
Mg308 O318 2.251 . S
Mg308 O321 2.010 . S
O309 Mg308 2.028 . S
O309 C312 1.250 . S
O310 Mg311 2.028 . S
O310 C312 1.248 . S
Mg311 O310 2.028 . S
Mg311 O316 2.032 . S
Mg311 O318 2.079 . S
C312 O309 1.250 . S
C312 O310 1.248 . S
C313 O314 1.264 . S
C313 O321 1.249 . S
O314 C313 1.264 . S
O315 Mg308 1.986 . S
O315 C319 1.246 . S
O316 Mg311 2.032 . S
O316 C319 1.259 . S
O317 Mg308 2.114 . S
O317 C320 1.252 . S
O318 Mg308 2.251 . S
O318 Mg311 2.079 . S
O318 C320 1.273 . S
C319 O315 1.246 . S
C319 O316 1.259 . S
C320 O317 1.252 . S
C320 O318 1.273 . S
O321 Mg308 2.010 . S
O321 C313 1.249 . S
Mg322 O323 2.028 . S
Mg322 O329 1.986 . S
Mg322 O331 2.114 . S
Mg322 O332 2.251 . S
Mg322 O335 2.010 . S
O323 Mg322 2.028 . S
O323 C326 1.250 . S
O324 Mg325 2.028 . S
O324 C326 1.248 . S
Mg325 O324 2.028 . S
Mg325 O330 2.032 . S
Mg325 O332 2.079 . S
C326 O323 1.250 . S
C326 O324 1.248 . S
C327 O328 1.264 . S
C327 O335 1.249 . S
O328 C327 1.264 . S
O329 Mg322 1.986 . S
O329 C333 1.246 . S
O330 Mg325 2.032 . S
O330 C333 1.259 . S
O331 Mg322 2.114 . S
O331 C334 1.252 . S
O332 Mg322 2.251 . S
O332 Mg325 2.079 . S
O332 C334 1.273 . S
C333 O329 1.246 . S
C333 O330 1.259 . S
C334 O331 1.252 . S
C334 O332 1.273 . S
O335 Mg322 2.010 . S
O335 C327 1.249 . S
Mg336 O337 2.028 . S
Mg336 O343 1.986 . S
Mg336 O345 2.114 . S
Mg336 O346 2.251 . S
Mg336 O349 2.010 . S
O337 Mg336 2.028 . S
O337 C340 1.250 . S
O338 Mg339 2.028 . S
O338 C340 1.248 . S
Mg339 O338 2.028 . S
Mg339 O344 2.032 . S
Mg339 O346 2.079 . S
C340 O337 1.250 . S
C340 O338 1.248 . S
C341 O342 1.264 . S
C341 O349 1.249 . S
O342 C341 1.264 . S
O343 Mg336 1.986 . S
O343 C347 1.246 . S
O344 Mg339 2.032 . S
O344 C347 1.259 . S
O345 Mg336 2.114 . S
O345 C348 1.252 . S
O346 Mg336 2.251 . S
O346 Mg339 2.079 . S
O346 C348 1.273 . S
C347 O343 1.246 . S
C347 O344 1.259 . S
C348 O345 1.252 . S
C348 O346 1.273 . S
O349 Mg336 2.010 . S
O349 C341 1.249 . S
Mg350 O351 2.028 1_554 S
Mg350 O357 1.986 . S
Mg350 O359 2.114 . S
Mg350 O360 2.251 . S
Mg350 O363 2.010 1_554 S
O351 Mg350 2.028 1_556 S
O351 C354 1.250 . S
O352 Mg353 2.028 1_556 S
O352 C354 1.248 . S
Mg353 O352 2.028 1_554 S
Mg353 O358 2.032 . S
Mg353 O360 2.079 . S
C354 O351 1.250 . S
C354 O352 1.248 . S
C355 O356 1.271 . S
C355 O363 1.249 . S
O356 C355 1.271 . S
O357 Mg350 1.986 . S
O357 C361 1.246 . S
O358 Mg353 2.032 . S
O358 C361 1.259 . S
O359 Mg350 2.114 . S
O359 C362 1.252 . S
O360 Mg350 2.251 . S
O360 Mg353 2.079 . S
O360 C362 1.273 . S
C361 O357 1.246 . S
C361 O358 1.259 . S
C362 O359 1.252 . S
C362 O360 1.273 . S
O363 Mg350 2.010 1_556 S
O363 C355 1.249 . S
Mg364 O365 2.028 . S
Mg364 O371 1.986 . S
Mg364 O373 2.114 . S
Mg364 O374 2.251 . S
Mg364 O377 2.010 . S
O365 Mg364 2.028 . S
O365 C368 1.250 . S
O366 Mg367 2.028 . S
O366 C368 1.248 . S
Mg367 O366 2.028 . S
Mg367 O372 2.032 . S
Mg367 O374 2.079 . S
C368 O365 1.250 . S
C368 O366 1.248 . S
C369 O370 1.264 . S
C369 O377 1.249 . S
O370 C369 1.264 . S
O371 Mg364 1.986 . S
O371 C375 1.246 . S
O372 Mg367 2.032 . S
O372 C375 1.259 . S
O373 Mg364 2.114 . S
O373 C376 1.252 . S
O374 Mg364 2.251 . S
O374 Mg367 2.079 . S
O374 C376 1.273 . S
C375 O371 1.246 . S
C375 O372 1.259 . S
C376 O373 1.252 . S
C376 O374 1.273 . S
O377 Mg364 2.010 . S
O377 C369 1.249 . S
Mg378 O379 2.028 . S
Mg378 O385 1.986 . S
Mg378 O387 2.114 . S
Mg378 O388 2.251 . S
Mg378 O391 2.010 . S
O379 Mg378 2.028 . S
O379 C382 1.250 . S
O380 Mg381 2.028 . S
O380 C382 1.248 . S
Mg381 O380 2.028 . S
Mg381 O386 2.032 . S
Mg381 O388 2.079 . S
C382 O379 1.250 . S
C382 O380 1.248 . S
C383 O384 1.264 . S
C383 O391 1.249 . S
O384 C383 1.264 . S
O385 Mg378 1.986 . S
O385 C389 1.246 . S
O386 Mg381 2.032 . S
O386 C389 1.259 . S
O387 Mg378 2.114 . S
O387 C390 1.252 . S
O388 Mg378 2.251 . S
O388 Mg381 2.079 . S
O388 C390 1.273 . S
C389 O385 1.246 . S
C389 O386 1.259 . S
C390 O387 1.252 . S
C390 O388 1.273 . S
O391 Mg378 2.010 . S
O391 C383 1.249 . S
Mg392 O393 2.028 . S
Mg392 O399 1.986 . S
Mg392 O401 2.114 . S
Mg392 O402 2.251 . S
Mg392 O405 2.010 . S
O393 Mg392 2.028 . S
O393 C396 1.250 . S
O394 Mg395 2.028 . S
O394 C396 1.248 . S
Mg395 O394 2.028 . S
Mg395 O400 2.032 . S
Mg395 O402 2.079 . S
C396 O393 1.250 . S
C396 O394 1.248 . S
C397 O398 1.264 . S
C397 O405 1.249 . S
O398 C397 1.264 . S
O399 Mg392 1.986 . S
O399 C403 1.246 . S
O400 Mg395 2.032 . S
O400 C403 1.259 . S
O401 Mg392 2.114 . S
O401 C404 1.252 . S
O402 Mg392 2.251 . S
O402 Mg395 2.079 . S
O402 C404 1.273 . S
C403 O399 1.246 . S
C403 O400 1.259 . S
C404 O401 1.252 . S
C404 O402 1.273 . S
O405 Mg392 2.010 . S
O405 C397 1.249 . S
Mg406 O407 2.028 1_556 S
Mg406 O413 1.986 . S
Mg406 O415 2.114 . S
Mg406 O416 2.251 . S
Mg406 O419 2.010 1_556 S
O407 Mg406 2.028 1_554 S
O407 C410 1.250 . S
O408 Mg409 2.028 1_554 S
O408 C410 1.248 . S
Mg409 O408 2.028 1_556 S
Mg409 O414 2.032 . S
Mg409 O416 2.079 . S
C410 O407 1.250 . S
C410 O408 1.248 . S
C411 O412 1.271 . S
C411 O419 1.249 . S
O412 C411 1.271 . S
O413 Mg406 1.986 . S
O413 C417 1.246 . S
O414 Mg409 2.032 . S
O414 C417 1.259 . S
O415 Mg406 2.114 . S
O415 C418 1.252 . S
O416 Mg406 2.251 . S
O416 Mg409 2.079 . S
O416 C418 1.273 . S
C417 O413 1.246 . S
C417 O414 1.259 . S
C418 O415 1.252 . S
C418 O416 1.273 . S
O419 Mg406 2.010 1_554 S
O419 C411 1.249 . S
Mg420 O421 2.028 . S
Mg420 O427 1.986 . S
Mg420 O429 2.114 . S
Mg420 O430 2.251 . S
Mg420 O433 2.010 . S
O421 Mg420 2.028 . S
O421 C424 1.250 . S
O422 Mg423 2.028 . S
O422 C424 1.248 . S
Mg423 O422 2.028 . S
Mg423 O428 2.032 . S
Mg423 O430 2.079 . S
C424 O421 1.250 . S
C424 O422 1.248 . S
C425 O426 1.264 . S
C425 O433 1.249 . S
O426 C425 1.264 . S
O427 Mg420 1.986 . S
O427 C431 1.246 . S
O428 Mg423 2.032 . S
O428 C431 1.259 . S
O429 Mg420 2.114 . S
O429 C432 1.252 . S
O430 Mg420 2.251 . S
O430 Mg423 2.079 . S
O430 C432 1.273 . S
C431 O427 1.246 . S
C431 O428 1.259 . S
C432 O429 1.252 . S
C432 O430 1.273 . S
O433 Mg420 2.010 . S
O433 C425 1.249 . S
Mg434 O435 2.028 . S
Mg434 O441 1.986 . S
Mg434 O443 2.114 . S
Mg434 O444 2.251 . S
Mg434 O447 2.010 . S
O435 Mg434 2.028 . S
O435 C438 1.250 . S
O436 Mg437 2.028 . S
O436 C438 1.248 . S
Mg437 O436 2.028 . S
Mg437 O442 2.032 . S
Mg437 O444 2.079 . S
C438 O435 1.250 . S
C438 O436 1.248 . S
C439 O440 1.264 . S
C439 O447 1.249 . S
O440 C439 1.264 . S
O441 Mg434 1.986 . S
O441 C445 1.246 . S
O442 Mg437 2.032 . S
O442 C445 1.259 . S
O443 Mg434 2.114 . S
O443 C446 1.252 . S
O444 Mg434 2.251 . S
O444 Mg437 2.079 . S
O444 C446 1.273 . S
C445 O441 1.246 . S
C445 O442 1.259 . S
C446 O443 1.252 . S
C446 O444 1.273 . S
O447 Mg434 2.010 . S
O447 C439 1.249 . S
H448 C456 0.929 . S
H449 C458 0.930 . S
H450 C460 0.930 . S
H451 C463 0.929 . S
H452 C466 0.930 . S
H453 C468 0.960 . S
H454 C468 0.960 . S
H455 C468 0.960 . S
C456 H448 0.929 . S
C456 C457 1.377 . S
C456 C458 1.384 . S
C457 C456 1.377 . S
C457 C463 1.390 . S
C458 H449 0.930 . S
C458 C456 1.384 . S
C458 C459 1.372 . S
C459 C458 1.372 . S
C459 C460 1.400 . S
C459 C464 1.490 . S
C460 H450 0.930 . S
C460 C459 1.400 . S
C460 C463 1.386 . S
H461 C477 0.930 . S
H462 C478 0.931 . S
C463 H451 0.929 . S
C463 C457 1.390 . S
C463 C460 1.386 . S
C464 C459 1.490 . S
C464 C466 1.395 . S
C464 C467 1.403 . S
H465 C471 0.930 . S
C466 H452 0.930 . S
C466 C464 1.395 . S
C466 C469 1.403 . S
C467 C464 1.403 . S
C467 C468 1.524 . S
C467 C471 1.400 . S
C468 H453 0.960 . S
C468 H454 0.960 . S
C468 H455 0.960 . S
C468 C467 1.524 . S
C469 C466 1.403 . S
C469 C470 1.392 . S
C469 C473 1.495 . S
C470 C469 1.392 . S
C470 C471 1.385 . S
C470 C472 1.478 . S
C471 H465 0.930 . S
C471 C467 1.400 . S
C471 C470 1.385 . S
C472 C470 1.478 . S
C472 C474 1.381 . S
C472 C478 1.383 . S
C473 C469 1.495 . S
C473 H479 0.959 . S
C473 H480 0.961 . S
C473 H481 0.960 . S
C474 C472 1.381 . S
C474 C475 1.394 . S
C474 H482 0.930 . S
C475 C474 1.394 . S
C475 C476 1.383 . S
C475 H483 0.929 . S
C476 C475 1.383 . S
C476 C477 1.377 . S
C477 H461 0.930 . S
C477 C476 1.377 . S
C477 C478 1.379 . S
C478 H462 0.931 . S
C478 C472 1.383 . S
C478 C477 1.379 . S
H479 C473 0.959 . S
H480 C473 0.961 . S
H481 C473 0.960 . S
H482 C474 0.930 . S
H483 C475 0.929 . S
H484 C492 0.929 . S
H485 C494 0.930 . S
H486 C496 0.930 . S
H487 C499 0.929 . S
H488 C502 0.930 . S
H489 C504 0.960 . S
H490 C504 0.960 . S
H491 C504 0.960 . S
C492 H484 0.929 . S
C492 C493 1.377 . S
C492 C494 1.384 . S
C493 C492 1.377 . S
C493 C499 1.390 . S
C494 H485 0.930 . S
C494 C492 1.384 . S
C494 C495 1.372 . S
C495 C494 1.372 . S
C495 C496 1.400 . S
C495 C500 1.490 . S
C496 H486 0.930 . S
C496 C495 1.400 . S
C496 C499 1.386 . S
H497 C513 0.930 . S
H498 C514 0.931 . S
C499 H487 0.929 . S
C499 C493 1.390 . S
C499 C496 1.386 . S
C500 C495 1.490 . S
C500 C502 1.395 1_565 S
C500 C503 1.403 . S
H501 C507 0.949 . S
C502 H488 0.930 . S
C502 C500 1.395 1_545 S
C502 C505 1.403 . S
C503 C500 1.403 . S
C503 C504 1.524 . S
C503 C507 1.467 . S
C504 H489 0.960 . S
C504 H490 0.960 . S
C504 H491 0.960 . S
C504 C503 1.524 . S
C505 C502 1.403 . S
C505 C506 1.392 . S
C505 C509 1.495 . S
C506 C505 1.392 . S
C506 C507 1.305 1_545 S
C506 C508 1.478 . S
C507 H501 0.949 . S
C507 C503 1.467 . S
C507 C506 1.305 1_565 S
C508 C506 1.478 . S
C508 C510 1.381 . S
C508 C514 1.383 . S
C509 C505 1.495 . S
C509 H515 0.959 . S
C509 H516 0.961 . S
C509 H517 0.960 . S
C510 C508 1.381 . S
C510 C511 1.394 . S
C510 H518 0.930 . S
C511 C510 1.394 . S
C511 C512 1.383 . S
C511 H519 0.929 . S
C512 C511 1.383 . S
C512 C513 1.377 . S
C513 H497 0.930 . S
C513 C512 1.377 . S
C513 C514 1.379 . S
C514 H498 0.931 . S
C514 C508 1.383 . S
C514 C513 1.379 . S
H515 C509 0.959 . S
H516 C509 0.961 . S
H517 C509 0.960 . S
H518 C510 0.930 . S
H519 C511 0.929 . S
H520 C528 0.929 . S
H521 C530 0.930 . S
H522 C532 0.930 . S
H523 C535 0.929 . S
H524 C538 0.930 . S
H525 C540 0.960 . S
H526 C540 0.960 . S
H527 C540 0.960 . S
C528 H520 0.929 . S
C528 C529 1.377 . S
C528 C530 1.384 . S
C529 C528 1.377 . S
C529 C535 1.390 . S
C530 H521 0.930 . S
C530 C528 1.384 . S
C530 C531 1.372 . S
C531 C530 1.372 . S
C531 C532 1.400 . S
C531 C536 1.490 . S
C532 H522 0.930 . S
C532 C531 1.400 . S
C532 C535 1.386 . S
H533 C549 0.930 . S
H534 C550 0.931 . S
C535 H523 0.929 . S
C535 C529 1.390 . S
C535 C532 1.386 . S
C536 C531 1.490 . S
C536 C538 1.395 . S
C536 C539 1.403 1_554 S
H537 C543 0.930 . S
C538 H524 0.930 . S
C538 C536 1.395 . S
C538 C541 1.403 . S
C539 C536 1.403 1_556 S
C539 C540 1.524 . S
C539 C543 1.400 . S
C540 H525 0.960 . S
C540 H526 0.960 . S
C540 H527 0.960 . S
C540 C539 1.524 . S
C541 C538 1.403 . S
C541 C542 1.392 1_554 S
C541 C545 1.495 . S
C542 C541 1.392 1_556 S
C542 C543 1.385 . S
C542 C544 1.478 . S
C543 H537 0.930 . S
C543 C539 1.400 . S
C543 C542 1.385 . S
C544 C542 1.478 . S
C544 C546 1.381 . S
C544 C550 1.383 . S
C545 C541 1.495 . S
C545 H551 0.959 . S
C545 H552 0.961 . S
C545 H553 0.960 . S
C546 C544 1.381 . S
C546 C547 1.394 . S
C546 H554 0.930 . S
C547 C546 1.394 . S
C547 C548 1.383 . S
C547 H555 0.929 . S
C548 C547 1.383 . S
C548 C549 1.377 . S
C549 H533 0.930 . S
C549 C548 1.377 . S
C549 C550 1.379 . S
C550 H534 0.931 . S
C550 C544 1.383 . S
C550 C549 1.379 . S
H551 C545 0.959 . S
H552 C545 0.961 . S
H553 C545 0.960 . S
H554 C546 0.930 . S
H555 C547 0.929 . S
H556 C564 0.929 . S
H557 C566 0.930 . S
H558 C568 0.930 . S
H559 C571 0.929 . S
H560 C574 0.930 . S
H561 C576 0.960 . S
H562 C576 0.960 . S
H563 C576 0.960 . S
C564 H556 0.929 . S
C564 C565 1.377 . S
C564 C566 1.384 . S
C565 C564 1.377 . S
C565 C571 1.390 . S
C566 H557 0.930 . S
C566 C564 1.384 . S
C566 C567 1.372 . S
C567 C566 1.372 . S
C567 C568 1.400 . S
C567 C572 1.490 . S
C568 H558 0.930 . S
C568 C567 1.400 . S
C568 C571 1.386 . S
H569 C585 0.930 . S
H570 C586 0.931 . S
C571 H559 0.929 . S
C571 C565 1.390 . S
C571 C568 1.386 . S
C572 C567 1.490 . S
C572 C574 1.395 . S
C572 C575 1.403 1_545 S
H573 C579 0.930 . S
C574 H560 0.930 . S
C574 C572 1.395 . S
C574 C577 1.403 . S
C575 C572 1.403 1_565 S
C575 C576 1.524 . S
C575 C579 1.400 . S
C576 H561 0.960 . S
C576 H562 0.960 . S
C576 H563 0.960 . S
C576 C575 1.524 . S
C577 C574 1.403 . S
C577 C578 1.392 1_545 S
C577 C581 1.495 . S
C578 C577 1.392 1_565 S
C578 C579 1.385 . S
C578 C580 1.478 . S
C579 H573 0.930 . S
C579 C575 1.400 . S
C579 C578 1.385 . S
C580 C578 1.478 . S
C580 C582 1.381 . S
C580 C586 1.383 . S
C581 C577 1.495 . S
C581 H587 0.959 . S
C581 H588 0.961 . S
C581 H589 0.960 . S
C582 C580 1.381 . S
C582 C583 1.394 . S
C582 H590 0.930 . S
C583 C582 1.394 . S
C583 C584 1.383 . S
C583 H591 0.929 . S
C584 C583 1.383 . S
C584 C585 1.377 . S
C585 H569 0.930 . S
C585 C584 1.377 . S
C585 C586 1.379 . S
C586 H570 0.931 . S
C586 C580 1.383 . S
C586 C585 1.379 . S
H587 C581 0.959 . S
H588 C581 0.961 . S
H589 C581 0.960 . S
H590 C582 0.930 . S
H591 C583 0.929 . S
H592 C600 0.929 . S
H593 C602 0.930 . S
H594 C604 0.930 . S
H595 C607 0.929 . S
H596 C610 0.930 . S
H597 C612 0.960 . S
H598 C612 0.960 . S
H599 C612 0.960 . S
C600 H592 0.929 . S
C600 C601 1.377 . S
C600 C602 1.384 . S
C601 C600 1.377 . S
C601 C607 1.390 . S
C602 H593 0.930 . S
C602 C600 1.384 . S
C602 C603 1.372 . S
C603 C602 1.372 . S
C603 C604 1.400 . S
C603 C608 1.490 . S
C604 H594 0.930 . S
C604 C603 1.400 . S
C604 C607 1.386 . S
H605 C621 0.930 . S
H606 C622 0.931 . S
C607 H595 0.929 . S
C607 C601 1.390 . S
C607 C604 1.386 . S
C608 C603 1.490 . S
C608 C610 1.395 . S
C608 C611 1.403 . S
H609 C615 0.930 . S
C610 H596 0.930 . S
C610 C608 1.395 . S
C610 C613 1.403 . S
C611 C608 1.403 . S
C611 C612 1.524 . S
C611 C615 1.400 . S
C612 H597 0.960 . S
C612 H598 0.960 . S
C612 H599 0.960 . S
C612 C611 1.524 . S
C613 C610 1.403 . S
C613 C614 1.392 . S
C613 C617 1.495 . S
C614 C613 1.392 . S
C614 C615 1.385 . S
C614 C616 1.478 . S
C615 H609 0.930 . S
C615 C611 1.400 . S
C615 C614 1.385 . S
C616 C614 1.478 . S
C616 C618 1.381 . S
C616 C622 1.383 . S
C617 C613 1.495 . S
C617 H623 0.959 . S
C617 H624 0.961 . S
C617 H625 0.960 . S
C618 C616 1.381 . S
C618 C619 1.394 . S
C618 H626 0.930 . S
C619 C618 1.394 . S
C619 C620 1.383 . S
C619 H627 0.929 . S
C620 C619 1.383 . S
C620 C621 1.377 . S
C621 H605 0.930 . S
C621 C620 1.377 . S
C621 C622 1.379 . S
C622 H606 0.931 . S
C622 C616 1.383 . S
C622 C621 1.379 . S
H623 C617 0.959 . S
H624 C617 0.961 . S
H625 C617 0.960 . S
H626 C618 0.930 . S
H627 C619 0.929 . S
H628 C636 0.929 . S
H629 C638 0.930 . S
H630 C640 0.930 . S
H631 C643 0.929 . S
H632 C646 0.930 . S
H633 C648 0.960 1_565 S
H634 C648 0.960 . S
H635 C648 0.960 . S
C636 H628 0.929 . S
C636 C637 1.377 . S
C636 C638 1.384 . S
C637 C636 1.377 . S
C637 C643 1.390 . S
C638 H629 0.930 . S
C638 C636 1.384 . S
C638 C639 1.372 . S
C639 C638 1.372 . S
C639 C640 1.400 . S
C639 C644 1.490 . S
C640 H630 0.930 . S
C640 C639 1.400 . S
C640 C643 1.386 . S
H641 C657 0.930 . S
H642 C658 0.931 . S
C643 H631 0.929 . S
C643 C637 1.390 . S
C643 C640 1.386 . S
C644 C639 1.490 . S
C644 C646 1.395 . S
C644 C647 1.403 . S
H645 C651 0.930 . S
C646 H632 0.930 . S
C646 C644 1.395 . S
C646 C649 1.342 1_545 S
C647 C644 1.403 . S
C647 C648 1.524 . S
C647 C651 1.400 1_545 S
C648 H633 0.960 1_545 S
C648 H634 0.960 . S
C648 H635 0.960 . S
C648 C647 1.524 . S
C649 C646 1.342 1_565 S
C649 C650 1.448 . S
C649 C653 1.506 . S
C650 C649 1.448 . S
C650 C651 1.385 . S
C650 C652 1.478 . S
C651 H645 0.930 . S
C651 C647 1.400 1_565 S
C651 C650 1.385 . S
C652 C650 1.478 . S
C652 C654 1.381 . S
C652 C658 1.383 . S
C653 C649 1.506 . S
C653 H659 0.959 1_565 S
C653 H660 0.961 . S
C653 H661 0.960 . S
C654 C652 1.381 . S
C654 C655 1.394 . S
C654 H662 0.930 . S
C655 C654 1.394 . S
C655 C656 1.383 . S
C655 H663 0.929 . S
C656 C655 1.383 . S
C656 C657 1.377 . S
C657 H641 0.930 . S
C657 C656 1.377 . S
C657 C658 1.379 . S
C658 H642 0.931 . S
C658 C652 1.383 . S
C658 C657 1.379 . S
H659 C653 0.959 1_545 S
H660 C653 0.961 . S
H661 C653 0.960 . S
H662 C654 0.930 . S
H663 C655 0.929 . S
H664 C672 0.929 . S
H665 C674 0.930 . S
H666 C676 0.930 . S
H667 C679 0.929 . S
H668 C682 0.930 . S
H669 C684 0.960 . S
H670 C684 0.960 1_556 S
H671 C684 0.960 . S
C672 H664 0.929 . S
C672 C673 1.377 . S
C672 C674 1.384 . S
C673 C672 1.377 . S
C673 C679 1.390 . S
C674 H665 0.930 . S
C674 C672 1.384 . S
C674 C675 1.372 . S
C675 C674 1.372 . S
C675 C676 1.400 . S
C675 C680 1.490 . S
C676 H666 0.930 . S
C676 C675 1.400 . S
C676 C679 1.386 . S
H677 C693 0.930 . S
H678 C694 0.931 . S
C679 H667 0.929 . S
C679 C673 1.390 . S
C679 C676 1.386 . S
C680 C675 1.490 . S
C680 C682 1.395 . S
C680 C683 1.403 1_556 S
H681 C687 0.930 . S
C682 H668 0.930 . S
C682 C680 1.395 . S
C682 C685 1.403 . S
C683 C680 1.403 1_554 S
C683 C684 1.524 . S
C683 C687 1.400 . S
C684 H669 0.960 . S
C684 H670 0.960 1_554 S
C684 H671 0.960 . S
C684 C683 1.524 . S
C685 C682 1.403 . S
C685 C686 1.392 1_556 S
C685 C689 1.495 . S
C686 C685 1.392 1_554 S
C686 C687 1.385 . S
C686 C688 1.478 . S
C687 H681 0.930 . S
C687 C683 1.400 . S
C687 C686 1.385 . S
C688 C686 1.478 . S
C688 C690 1.381 . S
C688 C694 1.383 . S
C689 C685 1.495 . S
C689 H695 0.959 . S
C689 H696 0.961 1_556 S
C689 H697 0.960 . S
C690 C688 1.381 . S
C690 C691 1.394 . S
C690 H698 0.930 . S
C691 C690 1.394 . S
C691 C692 1.383 . S
C691 H699 0.929 . S
C692 C691 1.383 . S
C692 C693 1.377 . S
C693 H677 0.930 . S
C693 C692 1.377 . S
C693 C694 1.379 . S
C694 H678 0.931 . S
C694 C688 1.383 . S
C694 C693 1.379 . S
H695 C689 0.959 . S
H696 C689 0.961 1_554 S
H697 C689 0.960 . S
H698 C690 0.930 . S
H699 C691 0.929 . S
H700 C708 0.929 . S
H701 C710 0.930 . S
H702 C712 0.930 . S
H703 C715 0.929 . S
H704 C718 0.937 . S
H705 C720 0.960 . S
H706 C720 0.960 . S
H707 C720 0.960 . S
C708 H700 0.929 . S
C708 C709 1.377 . S
C708 C710 1.384 . S
C709 C708 1.377 . S
C709 C715 1.390 . S
C710 H701 0.930 . S
C710 C708 1.384 . S
C710 C711 1.372 . S
C711 C710 1.372 . S
C711 C712 1.400 . S
C711 C716 1.490 . S
C712 H702 0.930 . S
C712 C711 1.400 . S
C712 C715 1.386 . S
H713 C729 0.930 . S
H714 C730 0.931 . S
C715 H703 0.929 . S
C715 C709 1.390 . S
C715 C712 1.386 . S
C716 C711 1.490 . S
C716 C718 1.427 . S
C716 C719 1.403 . S
H717 C723 0.930 . S
C718 H704 0.937 . S
C718 C716 1.427 . S
C718 C721 1.366 1_565 S
C719 C716 1.403 . S
C719 C720 1.524 . S
C719 C723 1.400 1_565 S
C720 H705 0.960 . S
C720 H706 0.960 . S
C720 H707 0.960 . S
C720 C719 1.524 . S
C721 C718 1.366 1_545 S
C721 C722 1.392 . S
C721 C725 1.495 . S
C722 C721 1.392 . S
C722 C723 1.385 . S
C722 C724 1.478 . S
C723 H717 0.930 . S
C723 C719 1.400 1_545 S
C723 C722 1.385 . S
C724 C722 1.478 . S
C724 C726 1.381 . S
C724 C730 1.383 . S
C725 C721 1.495 . S
C725 H731 0.959 . S
C725 H732 0.961 . S
C725 H733 0.960 . S
C726 C724 1.381 . S
C726 C727 1.394 . S
C726 H734 0.930 . S
C727 C726 1.394 . S
C727 C728 1.383 . S
C727 H735 0.929 . S
C728 C727 1.383 . S
C728 C729 1.377 . S
C729 H713 0.930 . S
C729 C728 1.377 . S
C729 C730 1.379 . S
C730 H714 0.931 . S
C730 C724 1.383 . S
C730 C729 1.379 . S
H731 C725 0.959 . S
H732 C725 0.961 . S
H733 C725 0.960 . S
H734 C726 0.930 . S
H735 C727 0.929 . S
H736 C744 0.929 . S
H737 C746 0.930 . S
H738 C748 0.930 . S
H739 C751 0.929 . S
H740 C754 0.930 . S
H741 C756 0.960 . S
H742 C756 0.960 . S
H743 C756 0.960 . S
C744 H736 0.929 . S
C744 C745 1.377 . S
C744 C746 1.384 . S
C745 C744 1.377 . S
C745 C751 1.390 . S
C746 H737 0.930 . S
C746 C744 1.384 . S
C746 C747 1.372 . S
C747 C746 1.372 . S
C747 C748 1.400 . S
C747 C752 1.490 . S
C748 H738 0.930 . S
C748 C747 1.400 . S
C748 C751 1.386 . S
H749 C765 0.930 . S
H750 C766 0.931 . S
C751 H739 0.929 . S
C751 C745 1.390 . S
C751 C748 1.386 . S
C752 C747 1.490 . S
C752 C754 1.395 1_556 S
C752 C755 1.403 . S
H753 C759 0.930 . S
C754 H740 0.930 . S
C754 C752 1.395 1_554 S
C754 C757 1.403 . S
C755 C752 1.403 . S
C755 C756 1.524 . S
C755 C759 1.400 . S
C756 H741 0.960 . S
C756 H742 0.960 . S
C756 H743 0.960 . S
C756 C755 1.524 . S
C757 C754 1.403 . S
C757 C758 1.392 . S
C757 C761 1.495 . S
C758 C757 1.392 . S
C758 C759 1.385 1_554 S
C758 C760 1.478 . S
C759 H753 0.930 . S
C759 C755 1.400 . S
C759 C758 1.385 1_556 S
C760 C758 1.478 . S
C760 C762 1.381 . S
C760 C766 1.383 . S
C761 C757 1.495 . S
C761 H767 0.959 . S
C761 H768 0.961 . S
C761 H769 0.960 . S
C762 C760 1.381 . S
C762 C763 1.394 . S
C762 H770 0.930 . S
C763 C762 1.394 . S
C763 C764 1.383 . S
C763 H771 0.929 . S
C764 C763 1.383 . S
C764 C765 1.377 . S
C765 H749 0.930 . S
C765 C764 1.377 . S
C765 C766 1.379 . S
C766 H750 0.931 . S
C766 C760 1.383 . S
C766 C765 1.379 . S
H767 C761 0.959 . S
H768 C761 0.961 . S
H769 C761 0.960 . S
H770 C762 0.930 . S
H771 C763 0.929 . S
H772 C780 0.929 . S
H773 C782 0.930 . S
H774 C784 0.930 . S
H775 C787 0.929 . S
H776 C790 0.930 . S
H777 C792 0.960 . S
H778 C792 0.960 . S
H779 C792 0.960 . S
C780 H772 0.929 . S
C780 C781 1.377 . S
C780 C782 1.384 . S
C781 C780 1.377 . S
C781 C787 1.390 . S
C782 H773 0.930 . S
C782 C780 1.384 . S
C782 C783 1.372 . S
C783 C782 1.372 . S
C783 C784 1.400 . S
C783 C788 1.490 . S
C784 H774 0.930 . S
C784 C783 1.400 . S
C784 C787 1.386 . S
H785 C801 0.930 . S
H786 C802 0.931 . S
C787 H775 0.929 . S
C787 C781 1.390 . S
C787 C784 1.386 . S
C788 C783 1.490 . S
C788 C790 1.395 . S
C788 C791 1.403 . S
H789 C795 0.930 . S
C790 H776 0.930 . S
C790 C788 1.395 . S
C790 C793 1.403 . S
C791 C788 1.403 . S
C791 C792 1.524 . S
C791 C795 1.400 . S
C792 H777 0.960 . S
C792 H778 0.960 . S
C792 H779 0.960 . S
C792 C791 1.524 . S
C793 C790 1.403 . S
C793 C794 1.392 . S
C793 C797 1.495 . S
C794 C793 1.392 . S
C794 C795 1.385 . S
C794 C796 1.478 . S
C795 H789 0.930 . S
C795 C791 1.400 . S
C795 C794 1.385 . S
C796 C794 1.478 . S
C796 C798 1.381 . S
C796 C802 1.383 . S
C797 C793 1.495 . S
C797 H803 0.959 . S
C797 H804 0.961 . S
C797 H805 0.960 . S
C798 C796 1.381 . S
C798 C799 1.394 . S
C798 H806 0.930 . S
C799 C798 1.394 . S
C799 C800 1.383 . S
C799 H807 0.929 . S
C800 C799 1.383 . S
C800 C801 1.377 . S
C801 H785 0.930 . S
C801 C800 1.377 . S
C801 C802 1.379 . S
C802 H786 0.931 . S
C802 C796 1.383 . S
C802 C801 1.379 . S
H803 C797 0.959 . S
H804 C797 0.961 . S
H805 C797 0.960 . S
H806 C798 0.930 . S
H807 C799 0.929 . S
H808 C816 0.929 . S
H809 C818 0.930 . S
H810 C820 0.930 . S
H811 C823 0.929 . S
H812 C826 0.930 . S
H813 C828 0.960 . S
H814 C828 0.960 . S
H815 C828 0.960 . S
C816 H808 0.929 . S
C816 C817 1.377 . S
C816 C818 1.384 . S
C817 C816 1.377 . S
C817 C823 1.390 . S
C818 H809 0.930 . S
C818 C816 1.384 . S
C818 C819 1.372 . S
C819 C818 1.372 . S
C819 C820 1.400 . S
C819 C824 1.490 . S
C820 H810 0.930 . S
C820 C819 1.400 . S
C820 C823 1.386 . S
H821 C837 0.930 . S
H822 C838 0.931 . S
C823 H811 0.929 . S
C823 C817 1.390 . S
C823 C820 1.386 . S
C824 C819 1.490 . S
C824 C826 1.395 . S
C824 C827 1.403 . S
H825 C831 0.930 . S
C826 H812 0.930 . S
C826 C824 1.395 . S
C826 C829 1.403 . S
C827 C824 1.403 . S
C827 C828 1.524 . S
C827 C831 1.400 . S
C828 H813 0.960 . S
C828 H814 0.960 . S
C828 H815 0.960 . S
C828 C827 1.524 . S
C829 C826 1.403 . S
C829 C830 1.392 . S
C829 C833 1.495 . S
C830 C829 1.392 . S
C830 C831 1.385 . S
C830 C832 1.478 . S
C831 H825 0.930 . S
C831 C827 1.400 . S
C831 C830 1.385 . S
C832 C830 1.478 . S
C832 C834 1.381 . S
C832 C838 1.383 . S
C833 C829 1.495 . S
C833 H839 0.959 . S
C833 H840 0.961 . S
C833 H841 0.960 . S
C834 C832 1.381 . S
C834 C835 1.394 . S
C834 H842 0.930 . S
C835 C834 1.394 . S
C835 C836 1.383 . S
C835 H843 0.929 . S
C836 C835 1.383 . S
C836 C837 1.377 . S
C837 H821 0.930 . S
C837 C836 1.377 . S
C837 C838 1.379 . S
C838 H822 0.931 . S
C838 C832 1.383 . S
C838 C837 1.379 . S
H839 C833 0.959 . S
H840 C833 0.961 . S
H841 C833 0.960 . S
H842 C834 0.930 . S
H843 C835 0.929 . S
H844 C852 0.929 . S
H845 C854 0.930 . S
H846 C856 0.930 . S
H847 C859 0.929 . S
H848 C862 0.930 . S
H849 C864 0.960 . S
H850 C864 0.960 . S
H851 C864 0.960 . S
C852 H844 0.929 . S
C852 C853 1.377 . S
C852 C854 1.384 . S
C853 C852 1.377 . S
C853 C859 1.390 . S
C854 H845 0.930 . S
C854 C852 1.384 . S
C854 C855 1.372 . S
C855 C854 1.372 . S
C855 C856 1.400 . S
C855 C860 1.490 . S
C856 H846 0.930 . S
C856 C855 1.400 . S
C856 C859 1.386 . S
H857 C873 0.930 . S
H858 C874 0.931 . S
C859 H847 0.929 . S
C859 C853 1.390 . S
C859 C856 1.386 . S
C860 C855 1.490 . S
C860 C862 1.395 . S
C860 C863 1.403 . S
H861 C867 0.930 . S
C862 H848 0.930 . S
C862 C860 1.395 . S
C862 C865 1.403 . S
C863 C860 1.403 . S
C863 C864 1.524 . S
C863 C867 1.400 . S
C864 H849 0.960 . S
C864 H850 0.960 . S
C864 H851 0.960 . S
C864 C863 1.524 . S
C865 C862 1.403 . S
C865 C866 1.392 . S
C865 C869 1.495 . S
C866 C865 1.392 . S
C866 C867 1.385 . S
C866 C868 1.478 . S
C867 H861 0.930 . S
C867 C863 1.400 . S
C867 C866 1.385 . S
C868 C866 1.478 . S
C868 C870 1.381 . S
C868 C874 1.383 . S
C869 C865 1.495 . S
C869 H875 0.959 . S
C869 H876 0.961 . S
C869 H877 0.960 . S
C870 C868 1.381 . S
C870 C871 1.394 . S
C870 H878 0.930 . S
C871 C870 1.394 . S
C871 C872 1.383 . S
C871 H879 0.929 . S
C872 C871 1.383 . S
C872 C873 1.377 . S
C873 H857 0.930 . S
C873 C872 1.377 . S
C873 C874 1.379 . S
C874 H858 0.931 . S
C874 C868 1.383 . S
C874 C873 1.379 . S
H875 C869 0.959 . S
H876 C869 0.961 . S
H877 C869 0.960 . S
H878 C870 0.930 . S
H879 C871 0.929 . S
H880 C888 0.929 . S
H881 C890 0.930 . S
H882 C892 0.930 . S
H883 C895 0.929 . S
H884 C898 0.930 . S
H885 C900 0.960 . S
H886 C900 0.960 . S
H887 C900 0.960 1_556 S
C888 H880 0.929 . S
C888 C889 1.377 . S
C888 C890 1.384 . S
C889 C888 1.377 . S
C889 C895 1.390 . S
C890 H881 0.930 . S
C890 C888 1.384 . S
C890 C891 1.372 . S
C891 C890 1.372 . S
C891 C892 1.400 . S
C891 C896 1.490 . S
C892 H882 0.930 . S
C892 C891 1.400 . S
C892 C895 1.386 . S
H893 C909 0.930 . S
H894 C910 0.931 . S
C895 H883 0.929 . S
C895 C889 1.390 . S
C895 C892 1.386 . S
C896 C891 1.490 . S
C896 C898 1.395 . S
C896 C899 1.403 . S
H897 C903 0.930 . S
C898 H884 0.930 . S
C898 C896 1.395 . S
C898 C901 1.392 1_556 S
C899 C896 1.403 . S
C899 C900 1.524 1_556 S
C899 C903 1.400 1_556 S
C900 H885 0.960 . S
C900 H886 0.960 . S
C900 H887 0.960 1_554 S
C900 C899 1.524 1_554 S
C901 C898 1.392 1_554 S
C901 C902 1.404 . S
C901 C905 1.495 1_554 S
C902 C901 1.404 . S
C902 C903 1.385 . S
C902 C904 1.478 . S
C903 H897 0.930 . S
C903 C899 1.400 1_554 S
C903 C902 1.385 . S
C904 C902 1.478 . S
C904 C906 1.381 . S
C904 C910 1.383 . S
C905 C901 1.495 1_556 S
C905 H911 0.961 . S
C905 H912 0.962 . S
C905 H913 0.957 1_556 S
C906 C904 1.381 . S
C906 C907 1.394 . S
C906 H914 0.930 . S
C907 C906 1.394 . S
C907 C908 1.383 . S
C907 H915 0.929 . S
C908 C907 1.383 . S
C908 C909 1.377 . S
C909 H893 0.930 . S
C909 C908 1.377 . S
C909 C910 1.379 . S
C910 H894 0.931 . S
C910 C904 1.383 . S
C910 C909 1.379 . S
H911 C905 0.961 . S
H912 C905 0.962 . S
H913 C905 0.957 1_554 S
H914 C906 0.930 . S
H915 C907 0.929 . S
H916 C924 0.929 . S
H917 C926 0.930 . S
H918 C928 0.930 . S
H919 C931 0.929 . S
H920 C934 0.930 . S
H921 C936 0.960 . S
H922 C936 0.960 . S
H923 C936 0.960 . S
C924 H916 0.929 . S
C924 C925 1.377 . S
C924 C926 1.384 . S
C925 C924 1.377 . S
C925 C931 1.390 . S
C926 H917 0.930 . S
C926 C924 1.384 . S
C926 C927 1.372 . S
C927 C926 1.372 . S
C927 C928 1.400 . S
C927 C932 1.490 . S
C928 H918 0.930 . S
C928 C927 1.400 . S
C928 C931 1.386 . S
H929 C945 0.930 . S
H930 C946 0.931 . S
C931 H919 0.929 . S
C931 C925 1.390 . S
C931 C928 1.386 . S
C932 C927 1.490 . S
C932 C934 1.395 . S
C932 C935 1.403 . S
H933 C939 0.930 . S
C934 H920 0.930 . S
C934 C932 1.395 . S
C934 C937 1.403 . S
C935 C932 1.403 . S
C935 C936 1.524 . S
C935 C939 1.400 . S
C936 H921 0.960 . S
C936 H922 0.960 . S
C936 H923 0.960 . S
C936 C935 1.524 . S
C937 C934 1.403 . S
C937 C938 1.392 . S
C937 C941 1.495 . S
C938 C937 1.392 . S
C938 C939 1.385 . S
C938 C940 1.478 . S
C939 H933 0.930 . S
C939 C935 1.400 . S
C939 C938 1.385 . S
C940 C938 1.478 . S
C940 C942 1.381 . S
C940 C946 1.383 . S
C941 C937 1.495 . S
C941 H947 0.959 . S
C941 H948 0.961 . S
C941 H949 0.960 . S
C942 C940 1.381 . S
C942 C943 1.394 . S
C942 H950 0.930 . S
C943 C942 1.394 . S
C943 C944 1.383 . S
C943 H951 0.929 . S
C944 C943 1.383 . S
C944 C945 1.377 . S
C945 H929 0.930 . S
C945 C944 1.377 . S
C945 C946 1.379 . S
C946 H930 0.931 . S
C946 C940 1.383 . S
C946 C945 1.379 . S
H947 C941 0.959 . S
H948 C941 0.961 . S
H949 C941 0.960 . S
H950 C942 0.930 . S
H951 C943 0.929 . S
H952 C960 0.929 . S
H953 C962 0.930 . S
H954 C964 0.930 . S
H955 C967 0.929 . S
H956 C970 0.930 . S
H957 C972 0.960 . S
H958 C972 0.960 . S
H959 C972 0.960 . S
C960 H952 0.929 . S
C960 C961 1.377 . S
C960 C962 1.384 . S
C961 C960 1.377 . S
C961 C967 1.390 . S
C962 H953 0.930 . S
C962 C960 1.384 . S
C962 C963 1.372 . S
C963 C962 1.372 . S
C963 C964 1.400 . S
C963 C968 1.490 . S
C964 H954 0.930 . S
C964 C963 1.400 . S
C964 C967 1.386 . S
H965 C981 0.930 . S
H966 C982 0.931 . S
C967 H955 0.929 . S
C967 C961 1.390 . S
C967 C964 1.386 . S
C968 C963 1.490 . S
C968 C970 1.395 . S
C968 C971 1.403 . S
H969 C975 0.930 . S
C970 H956 0.930 . S
C970 C968 1.395 . S
C970 C973 1.403 . S
C971 C968 1.403 . S
C971 C972 1.524 . S
C971 C975 1.400 . S
C972 H957 0.960 . S
C972 H958 0.960 . S
C972 H959 0.960 . S
C972 C971 1.524 . S
C973 C970 1.403 . S
C973 C974 1.392 . S
C973 C977 1.495 . S
C974 C973 1.392 . S
C974 C975 1.385 . S
C974 C976 1.478 . S
C975 H969 0.930 . S
C975 C971 1.400 . S
C975 C974 1.385 . S
C976 C974 1.478 . S
C976 C978 1.381 . S
C976 C982 1.383 . S
C977 C973 1.495 . S
C977 H983 0.959 . S
C977 H984 0.961 . S
C977 H985 0.960 . S
C978 C976 1.381 . S
C978 C979 1.394 . S
C978 H986 0.930 . S
C979 C978 1.394 . S
C979 C980 1.383 . S
C979 H987 0.929 . S
C980 C979 1.383 . S
C980 C981 1.377 . S
C981 H965 0.930 . S
C981 C980 1.377 . S
C981 C982 1.379 . S
C982 H966 0.931 . S
C982 C976 1.383 . S
C982 C981 1.379 . S
H983 C977 0.959 . S
H984 C977 0.961 . S
H985 C977 0.960 . S
H986 C978 0.930 . S
H987 C979 0.929 . S
H988 C996 0.929 . S
H989 C998 0.930 . S
H990 C1000 0.930 . S
H991 C1003 0.929 . S
H992 C1006 0.930 . S
H993 C1008 0.960 . S
H994 C1008 0.960 . S
H995 C1008 0.960 . S
C996 H988 0.929 . S
C996 C997 1.377 . S
C996 C998 1.384 . S
C997 C996 1.377 . S
C997 C1003 1.390 . S
C998 H989 0.930 . S
C998 C996 1.384 . S
C998 C999 1.372 . S
C999 C998 1.372 . S
C999 C1000 1.400 . S
C999 C1004 1.490 . S
C1000 H990 0.930 . S
C1000 C999 1.400 . S
C1000 C1003 1.386 . S
H1001 C1017 0.930 . S
H1002 C1018 0.931 . S
C1003 H991 0.929 . S
C1003 C997 1.390 . S
C1003 C1000 1.386 . S
C1004 C999 1.490 . S
C1004 C1006 1.395 . S
C1004 C1007 1.403 . S
H1005 C1011 0.930 . S
C1006 H992 0.930 . S
C1006 C1004 1.395 . S
C1006 C1009 1.403 . S
C1007 C1004 1.403 . S
C1007 C1008 1.524 . S
C1007 C1011 1.400 . S
C1008 H993 0.960 . S
C1008 H994 0.960 . S
C1008 H995 0.960 . S
C1008 C1007 1.524 . S
C1009 C1006 1.403 . S
C1009 C1010 1.392 . S
C1009 C1013 1.495 . S
C1010 C1009 1.392 . S
C1010 C1011 1.385 . S
C1010 C1012 1.478 . S
C1011 H1005 0.930 . S
C1011 C1007 1.400 . S
C1011 C1010 1.385 . S
C1012 C1010 1.478 . S
C1012 C1014 1.381 . S
C1012 C1018 1.383 . S
C1013 C1009 1.495 . S
C1013 H1019 0.959 . S
C1013 H1020 0.961 . S
C1013 H1021 0.960 . S
C1014 C1012 1.381 . S
C1014 C1015 1.394 . S
C1014 H1022 0.930 . S
C1015 C1014 1.394 . S
C1015 C1016 1.383 . S
C1015 H1023 0.929 . S
C1016 C1015 1.383 . S
C1016 C1017 1.377 . S
C1017 H1001 0.930 . S
C1017 C1016 1.377 . S
C1017 C1018 1.379 . S
C1018 H1002 0.931 . S
C1018 C1012 1.383 . S
C1018 C1017 1.379 . S
H1019 C1013 0.959 . S
H1020 C1013 0.961 . S
H1021 C1013 0.960 . S
H1022 C1014 0.930 . S
H1023 C1015 0.929 . S
H1024 C1032 0.929 . S
H1025 C1034 0.930 . S
H1026 C1036 0.930 . S
H1027 C1039 0.929 1_556 S
H1028 C1042 0.930 . S
H1029 C1044 0.960 . S
H1030 C1044 0.960 . S
H1031 C1044 0.960 . S
C1032 H1024 0.929 . S
C1032 C1033 1.377 . S
C1032 C1034 1.384 . S
C1033 C1032 1.377 . S
C1033 C1039 1.390 . S
C1034 H1025 0.930 . S
C1034 C1032 1.384 . S
C1034 C1035 1.372 . S
C1035 C1034 1.372 . S
C1035 C1036 1.400 . S
C1035 C1040 1.490 . S
C1036 H1026 0.930 . S
C1036 C1035 1.400 . S
C1036 C1039 1.386 . S
H1037 C1053 0.930 . S
H1038 C1054 0.931 . S
C1039 H1027 0.929 1_554 S
C1039 C1033 1.390 . S
C1039 C1036 1.386 . S
C1040 C1035 1.490 . S
C1040 C1042 1.395 . S
C1040 C1043 1.403 . S
H1041 C1047 0.930 . S
C1042 H1028 0.930 . S
C1042 C1040 1.395 . S
C1042 C1045 1.403 . S
C1043 C1040 1.403 . S
C1043 C1044 1.524 . S
C1043 C1047 1.400 . S
C1044 H1029 0.960 . S
C1044 H1030 0.960 . S
C1044 H1031 0.960 . S
C1044 C1043 1.524 . S
C1045 C1042 1.403 . S
C1045 C1046 1.392 . S
C1045 C1049 1.495 . S
C1046 C1045 1.392 . S
C1046 C1047 1.385 . S
C1046 C1048 1.478 . S
C1047 H1041 0.930 . S
C1047 C1043 1.400 . S
C1047 C1046 1.385 . S
C1048 C1046 1.478 . S
C1048 C1050 1.381 . S
C1048 C1054 1.383 . S
C1049 C1045 1.495 . S
C1049 H1055 0.959 . S
C1049 H1056 0.961 . S
C1049 H1057 0.960 . S
C1050 C1048 1.381 . S
C1050 C1051 1.394 . S
C1050 H1058 0.930 . S
C1051 C1050 1.394 . S
C1051 C1052 1.383 . S
C1051 H1059 0.929 . S
C1052 C1051 1.383 . S
C1052 C1053 1.377 . S
C1053 H1037 0.930 . S
C1053 C1052 1.377 . S
C1053 C1054 1.379 . S
C1054 H1038 0.931 . S
C1054 C1048 1.383 . S
C1054 C1053 1.379 . S
H1055 C1049 0.959 . S
H1056 C1049 0.961 . S
H1057 C1049 0.960 . S
H1058 C1050 0.930 . S
H1059 C1051 0.929 . S
H1060 C1068 0.929 . S
H1061 C1070 0.930 . S
H1062 C1072 0.930 . S
H1063 C1075 0.929 . S
H1064 C1078 0.930 . S
H1065 C1080 0.960 . S
H1066 C1080 0.960 . S
H1067 C1080 0.960 . S
C1068 H1060 0.929 . S
C1068 C1069 1.377 . S
C1068 C1070 1.384 . S
C1069 C1068 1.377 . S
C1069 C1075 1.390 . S
C1070 H1061 0.930 . S
C1070 C1068 1.384 . S
C1070 C1071 1.372 . S
C1071 C1070 1.372 . S
C1071 C1072 1.400 . S
C1071 C1076 1.490 . S
C1072 H1062 0.930 . S
C1072 C1071 1.400 . S
C1072 C1075 1.386 . S
H1073 C1089 0.930 . S
H1074 C1090 0.931 . S
C1075 H1063 0.929 . S
C1075 C1069 1.390 . S
C1075 C1072 1.386 . S
C1076 C1071 1.490 . S
C1076 C1078 1.395 . S
C1076 C1079 1.403 . S
H1077 C1083 0.930 . S
C1078 H1064 0.930 . S
C1078 C1076 1.395 . S
C1078 C1081 1.403 . S
C1079 C1076 1.403 . S
C1079 C1080 1.524 . S
C1079 C1083 1.400 . S
C1080 H1065 0.960 . S
C1080 H1066 0.960 . S
C1080 H1067 0.960 . S
C1080 C1079 1.524 . S
C1081 C1078 1.403 . S
C1081 C1082 1.392 . S
C1081 C1085 1.495 . S
C1082 C1081 1.392 . S
C1082 C1083 1.385 . S
C1082 C1084 1.478 . S
C1083 H1077 0.930 . S
C1083 C1079 1.400 . S
C1083 C1082 1.385 . S
C1084 C1082 1.478 . S
C1084 C1086 1.381 . S
C1084 C1090 1.383 . S
C1085 C1081 1.495 . S
C1085 H1091 0.959 . S
C1085 H1092 0.961 . S
C1085 H1093 0.960 . S
C1086 C1084 1.381 . S
C1086 C1087 1.394 . S
C1086 H1094 0.930 . S
C1087 C1086 1.394 . S
C1087 C1088 1.383 . S
C1087 H1095 0.929 . S
C1088 C1087 1.383 . S
C1088 C1089 1.377 . S
C1089 H1073 0.930 . S
C1089 C1088 1.377 . S
C1089 C1090 1.379 . S
C1090 H1074 0.931 . S
C1090 C1084 1.383 . S
C1090 C1089 1.379 . S
H1091 C1085 0.959 . S
H1092 C1085 0.961 . S
H1093 C1085 0.960 . S
H1094 C1086 0.930 . S
H1095 C1087 0.929 . S
H1096 C1104 0.929 . S
H1097 C1106 0.930 . S
H1098 C1108 0.930 . S
H1099 C1111 0.929 . S
H1100 C1114 0.930 . S
H1101 C1116 0.960 . S
H1102 C1116 0.960 . S
H1103 C1116 0.960 . S
C1104 H1096 0.929 . S
C1104 C1105 1.377 . S
C1104 C1106 1.384 . S
C1105 C1104 1.377 . S
C1105 C1111 1.390 . S
C1106 H1097 0.930 . S
C1106 C1104 1.384 . S
C1106 C1107 1.372 . S
C1107 C1106 1.372 . S
C1107 C1108 1.400 . S
C1107 C1112 1.490 . S
C1108 H1098 0.930 . S
C1108 C1107 1.400 . S
C1108 C1111 1.386 . S
H1109 C1125 0.930 . S
H1110 C1126 0.931 . S
C1111 H1099 0.929 . S
C1111 C1105 1.390 . S
C1111 C1108 1.386 . S
C1112 C1107 1.490 . S
C1112 C1114 1.395 . S
C1112 C1115 1.403 . S
H1113 C1119 0.930 . S
C1114 H1100 0.930 . S
C1114 C1112 1.395 . S
C1114 C1117 1.403 . S
C1115 C1112 1.403 . S
C1115 C1116 1.524 . S
C1115 C1119 1.400 . S
C1116 H1101 0.960 . S
C1116 H1102 0.960 . S
C1116 H1103 0.960 . S
C1116 C1115 1.524 . S
C1117 C1114 1.403 . S
C1117 C1118 1.392 . S
C1117 C1121 1.495 . S
C1118 C1117 1.392 . S
C1118 C1119 1.385 . S
C1118 C1120 1.478 . S
C1119 H1113 0.930 . S
C1119 C1115 1.400 . S
C1119 C1118 1.385 . S
C1120 C1118 1.478 . S
C1120 C1122 1.381 . S
C1120 C1126 1.383 . S
C1121 C1117 1.495 . S
C1121 H1127 0.959 . S
C1121 H1128 0.961 . S
C1121 H1129 0.960 . S
C1122 C1120 1.381 . S
C1122 C1123 1.394 . S
C1122 H1130 0.930 . S
C1123 C1122 1.394 . S
C1123 C1124 1.383 . S
C1123 H1131 0.929 . S
C1124 C1123 1.383 . S
C1124 C1125 1.377 . S
C1125 H1109 0.930 . S
C1125 C1124 1.377 . S
C1125 C1126 1.379 . S
C1126 H1110 0.931 . S
C1126 C1120 1.383 . S
C1126 C1125 1.379 . S
H1127 C1121 0.959 . S
H1128 C1121 0.961 . S
H1129 C1121 0.960 . S
H1130 C1122 0.930 . S
H1131 C1123 0.929 . S
H1132 C1140 0.929 . S
H1133 C1142 0.930 . S
H1134 C1144 0.930 . S
H1135 C1147 0.929 . S
H1136 C1150 0.930 . S
H1137 C1152 0.960 . S
H1138 C1152 0.960 . S
H1139 C1152 0.960 . S
C1140 H1132 0.929 . S
C1140 C1141 1.377 . S
C1140 C1142 1.384 . S
C1141 C1140 1.377 . S
C1141 C1147 1.390 . S
C1142 H1133 0.930 . S
C1142 C1140 1.384 . S
C1142 C1143 1.372 . S
C1143 C1142 1.372 . S
C1143 C1144 1.400 . S
C1143 C1148 1.490 . S
C1144 H1134 0.930 . S
C1144 C1143 1.400 . S
C1144 C1147 1.386 . S
H1145 C1161 0.930 . S
H1146 C1162 0.931 . S
C1147 H1135 0.929 . S
C1147 C1141 1.390 . S
C1147 C1144 1.386 . S
C1148 C1143 1.490 . S
C1148 C1150 1.395 . S
C1148 C1151 1.403 . S
H1149 C1155 0.930 . S
C1150 H1136 0.930 . S
C1150 C1148 1.395 . S
C1150 C1153 1.403 . S
C1151 C1148 1.403 . S
C1151 C1152 1.524 . S
C1151 C1155 1.400 . S
C1152 H1137 0.960 . S
C1152 H1138 0.960 . S
C1152 H1139 0.960 . S
C1152 C1151 1.524 . S
C1153 C1150 1.403 . S
C1153 C1154 1.392 . S
C1153 C1157 1.495 . S
C1154 C1153 1.392 . S
C1154 C1155 1.385 . S
C1154 C1156 1.478 . S
C1155 H1149 0.930 . S
C1155 C1151 1.400 . S
C1155 C1154 1.385 . S
C1156 C1154 1.478 . S
C1156 C1158 1.381 . S
C1156 C1162 1.383 . S
C1157 C1153 1.495 . S
C1157 H1163 0.959 . S
C1157 H1164 0.961 . S
C1157 H1165 0.960 . S
C1158 C1156 1.381 . S
C1158 C1159 1.394 1_556 S
C1158 H1166 0.930 1_556 S
C1159 C1158 1.394 1_554 S
C1159 C1160 1.383 1_554 S
C1159 H1167 0.929 . S
C1160 C1159 1.383 1_556 S
C1160 C1161 1.377 . S
C1161 H1145 0.930 . S
C1161 C1160 1.377 . S
C1161 C1162 1.379 . S
C1162 H1146 0.931 . S
C1162 C1156 1.383 . S
C1162 C1161 1.379 . S
H1163 C1157 0.959 . S
H1164 C1157 0.961 . S
H1165 C1157 0.960 . S
H1166 C1158 0.930 1_554 S
H1167 C1159 0.929 . S
H1168 C1176 0.929 . S
H1169 C1178 0.930 . S
H1170 C1180 0.930 . S
H1171 C1183 0.929 . S
H1172 C1186 0.930 . S
H1173 C1188 0.960 . S
H1174 C1188 0.960 1_554 S
H1175 C1188 0.960 . S
C1176 H1168 0.929 . S
C1176 C1177 1.377 . S
C1176 C1178 1.384 . S
C1177 C1176 1.377 . S
C1177 C1183 1.390 . S
C1178 H1169 0.930 . S
C1178 C1176 1.384 . S
C1178 C1179 1.372 . S
C1179 C1178 1.372 . S
C1179 C1180 1.400 . S
C1179 C1184 1.490 . S
C1180 H1170 0.930 . S
C1180 C1179 1.400 . S
C1180 C1183 1.386 . S
H1181 C1197 0.930 . S
H1182 C1198 0.931 . S
C1183 H1171 0.929 . S
C1183 C1177 1.390 . S
C1183 C1180 1.386 . S
C1184 C1179 1.490 . S
C1184 C1186 1.395 . S
C1184 C1187 1.403 . S
H1185 C1191 0.930 . S
C1186 H1172 0.930 . S
C1186 C1184 1.395 . S
C1186 C1189 1.403 . S
C1187 C1184 1.403 . S
C1187 C1188 1.524 . S
C1187 C1191 1.400 . S
C1188 H1173 0.960 . S
C1188 H1174 0.960 1_556 S
C1188 H1175 0.960 . S
C1188 C1187 1.524 . S
C1189 C1186 1.403 . S
C1189 C1190 1.392 . S
C1189 C1193 1.495 . S
C1190 C1189 1.392 . S
C1190 C1191 1.385 . S
C1190 C1192 1.478 . S
C1191 H1185 0.930 . S
C1191 C1187 1.400 . S
C1191 C1190 1.385 . S
C1192 C1190 1.478 . S
C1192 C1194 1.381 . S
C1192 C1198 1.383 . S
C1193 C1189 1.495 . S
C1193 H1199 0.959 . S
C1193 H1200 0.961 . S
C1193 H1201 0.960 . S
C1194 C1192 1.381 . S
C1194 C1195 1.394 . S
C1194 H1202 0.930 . S
C1195 C1194 1.394 . S
C1195 C1196 1.383 . S
C1195 H1203 0.929 . S
C1196 C1195 1.383 . S
C1196 C1197 1.377 . S
C1197 H1181 0.930 . S
C1197 C1196 1.377 . S
C1197 C1198 1.379 . S
C1198 H1182 0.931 . S
C1198 C1192 1.383 . S
C1198 C1197 1.379 . S
H1199 C1193 0.959 . S
H1200 C1193 0.961 . S
H1201 C1193 0.960 . S
H1202 C1194 0.930 . S
H1203 C1195 0.929 . S
H1204 C1212 0.929 . S
H1205 C1214 0.930 . S
H1206 C1216 0.930 . S
H1207 C1219 0.929 . S
H1208 C1222 0.930 . S
H1209 C1224 0.960 . S
H1210 C1224 0.960 . S
H1211 C1224 0.960 . S
C1212 H1204 0.929 . S
C1212 C1213 1.377 . S
C1212 C1214 1.384 . S
C1213 C1212 1.377 . S
C1213 C1219 1.390 . S
C1214 H1205 0.930 . S
C1214 C1212 1.384 . S
C1214 C1215 1.372 . S
C1215 C1214 1.372 . S
C1215 C1216 1.400 . S
C1215 C1220 1.490 . S
C1216 H1206 0.930 . S
C1216 C1215 1.400 . S
C1216 C1219 1.386 . S
H1217 C1233 0.930 . S
H1218 C1234 0.931 . S
C1219 H1207 0.929 . S
C1219 C1213 1.390 . S
C1219 C1216 1.386 . S
C1220 C1215 1.490 . S
C1220 C1222 1.395 . S
C1220 C1223 1.403 . S
H1221 C1227 0.930 . S
C1222 H1208 0.930 . S
C1222 C1220 1.395 . S
C1222 C1225 1.403 . S
C1223 C1220 1.403 . S
C1223 C1224 1.524 . S
C1223 C1227 1.400 . S
C1224 H1209 0.960 . S
C1224 H1210 0.960 . S
C1224 H1211 0.960 . S
C1224 C1223 1.524 . S
C1225 C1222 1.403 . S
C1225 C1226 1.392 . S
C1225 C1229 1.495 . S
C1226 C1225 1.392 . S
C1226 C1227 1.385 . S
C1226 C1228 1.478 . S
C1227 H1221 0.930 . S
C1227 C1223 1.400 . S
C1227 C1226 1.385 . S
C1228 C1226 1.478 . S
C1228 C1230 1.381 . S
C1228 C1234 1.383 . S
C1229 C1225 1.495 . S
C1229 H1235 0.959 . S
C1229 H1236 0.961 . S
C1229 H1237 0.960 . S
C1230 C1228 1.381 . S
C1230 C1231 1.394 . S
C1230 H1238 0.930 . S
C1231 C1230 1.394 . S
C1231 C1232 1.383 . S
C1231 H1239 0.929 . S
C1232 C1231 1.383 . S
C1232 C1233 1.377 . S
C1233 H1217 0.930 . S
C1233 C1232 1.377 . S
C1233 C1234 1.379 . S
C1234 H1218 0.931 . S
C1234 C1228 1.383 . S
C1234 C1233 1.379 . S
H1235 C1229 0.959 . S
H1236 C1229 0.961 . S
H1237 C1229 0.960 . S
H1238 C1230 0.930 . S
H1239 C1231 0.929 . S
H1240 C1248 0.929 . S
H1241 C1250 0.930 . S
H1242 C1252 0.930 . S
H1243 C1255 0.929 . S
H1244 C1258 0.930 . S
H1245 C1260 0.960 . S
H1246 C1260 0.960 . S
H1247 C1260 0.960 . S
C1248 H1240 0.929 . S
C1248 C1249 1.377 . S
C1248 C1250 1.384 . S
C1249 C1248 1.377 . S
C1249 C1255 1.390 . S
C1250 H1241 0.930 . S
C1250 C1248 1.384 . S
C1250 C1251 1.372 . S
C1251 C1250 1.372 . S
C1251 C1252 1.400 . S
C1251 C1256 1.490 . S
C1252 H1242 0.930 . S
C1252 C1251 1.400 . S
C1252 C1255 1.386 . S
H1253 C1269 0.930 . S
H1254 C1270 0.931 . S
C1255 H1243 0.929 . S
C1255 C1249 1.390 . S
C1255 C1252 1.386 . S
C1256 C1251 1.490 . S
C1256 C1258 1.395 . S
C1256 C1259 1.403 . S
H1257 C1263 0.930 . S
C1258 H1244 0.930 . S
C1258 C1256 1.395 . S
C1258 C1261 1.403 . S
C1259 C1256 1.403 . S
C1259 C1260 1.524 . S
C1259 C1263 1.400 . S
C1260 H1245 0.960 . S
C1260 H1246 0.960 . S
C1260 H1247 0.960 . S
C1260 C1259 1.524 . S
C1261 C1258 1.403 . S
C1261 C1262 1.392 . S
C1261 C1265 1.495 . S
C1262 C1261 1.392 . S
C1262 C1263 1.385 . S
C1262 C1264 1.478 . S
C1263 H1257 0.930 . S
C1263 C1259 1.400 . S
C1263 C1262 1.385 . S
C1264 C1262 1.478 . S
C1264 C1266 1.381 . S
C1264 C1270 1.383 . S
C1265 C1261 1.495 . S
C1265 H1271 0.959 . S
C1265 H1272 0.961 . S
C1265 H1273 0.960 . S
C1266 C1264 1.381 . S
C1266 C1267 1.394 . S
C1266 H1274 0.930 . S
C1267 C1266 1.394 . S
C1267 C1268 1.383 . S
C1267 H1275 0.929 . S
C1268 C1267 1.383 . S
C1268 C1269 1.377 . S
C1269 H1253 0.930 . S
C1269 C1268 1.377 . S
C1269 C1270 1.379 . S
C1270 H1254 0.931 . S
C1270 C1264 1.383 . S
C1270 C1269 1.379 . S
H1271 C1265 0.959 . S
H1272 C1265 0.961 . S
H1273 C1265 0.960 . S
H1274 C1266 0.930 . S
H1275 C1267 0.929 . S
H1276 C1284 0.929 . S
H1277 C1286 0.930 . S
H1278 C1288 0.930 . S
H1279 C1291 0.929 1_556 S
H1280 C1294 0.930 . S
H1281 C1296 0.960 1_556 S
H1282 C1296 0.960 . S
H1283 C1296 0.960 1_556 S
C1284 H1276 0.929 . S
C1284 C1285 1.377 . S
C1284 C1286 1.384 . S
C1285 C1284 1.377 . S
C1285 C1291 1.390 . S
C1286 H1277 0.930 . S
C1286 C1284 1.384 . S
C1286 C1287 1.372 . S
C1287 C1286 1.372 . S
C1287 C1288 1.400 . S
C1287 C1292 1.490 . S
C1288 H1278 0.930 . S
C1288 C1287 1.400 . S
C1288 C1291 1.386 . S
H1289 C1305 0.930 . S
H1290 C1306 0.931 . S
C1291 H1279 0.929 1_554 S
C1291 C1285 1.390 . S
C1291 C1288 1.386 . S
C1292 C1287 1.490 . S
C1292 C1294 1.395 . S
C1292 C1295 1.403 . S
H1293 C1299 0.930 . S
C1294 H1280 0.930 . S
C1294 C1292 1.395 . S
C1294 C1297 1.403 . S
C1295 C1292 1.403 . S
C1295 C1296 1.524 . S
C1295 C1299 1.400 . S
C1296 H1281 0.960 1_554 S
C1296 H1282 0.960 . S
C1296 H1283 0.960 1_554 S
C1296 C1295 1.524 . S
C1297 C1294 1.403 . S
C1297 C1298 1.392 . S
C1297 C1301 1.495 . S
C1298 C1297 1.392 . S
C1298 C1299 1.385 . S
C1298 C1300 1.478 . S
C1299 H1293 0.930 . S
C1299 C1295 1.400 . S
C1299 C1298 1.385 . S
C1300 C1298 1.478 . S
C1300 C1302 1.381 . S
C1300 C1306 1.383 . S
C1301 C1297 1.495 . S
C1301 H1307 0.959 . S
C1301 H1308 0.961 . S
C1301 H1309 0.960 . S
C1302 C1300 1.381 . S
C1302 C1303 1.394 . S
C1302 H1310 0.930 . S
C1303 C1302 1.394 . S
C1303 C1304 1.383 . S
C1303 H1311 0.929 . S
C1304 C1303 1.383 . S
C1304 C1305 1.377 . S
C1305 H1289 0.930 . S
C1305 C1304 1.377 . S
C1305 C1306 1.379 . S
C1306 H1290 0.931 . S
C1306 C1300 1.383 . S
C1306 C1305 1.379 . S
H1307 C1301 0.959 . S
H1308 C1301 0.961 . S
H1309 C1301 0.960 . S
H1310 C1302 0.930 . S
H1311 C1303 0.929 . S
H1312 C1320 0.929 . S
H1313 C1322 0.930 . S
H1314 C1324 0.930 . S
H1315 C1327 0.929 . S
H1316 C1330 0.930 . S
H1317 C1332 0.960 . S
H1318 C1332 0.960 . S
H1319 C1332 0.960 . S
C1320 H1312 0.929 . S
C1320 C1321 1.377 . S
C1320 C1322 1.384 . S
C1321 C1320 1.377 . S
C1321 C1327 1.390 . S
C1322 H1313 0.930 . S
C1322 C1320 1.384 . S
C1322 C1323 1.372 . S
C1323 C1322 1.372 . S
C1323 C1324 1.400 . S
C1323 C1328 1.490 . S
C1324 H1314 0.930 . S
C1324 C1323 1.400 . S
C1324 C1327 1.386 . S
H1325 C1341 0.930 . S
H1326 C1342 0.931 . S
C1327 H1315 0.929 . S
C1327 C1321 1.390 . S
C1327 C1324 1.386 . S
C1328 C1323 1.490 . S
C1328 C1330 1.395 . S
C1328 C1331 1.403 . S
H1329 C1335 0.930 . S
C1330 H1316 0.930 . S
C1330 C1328 1.395 . S
C1330 C1333 1.403 . S
C1331 C1328 1.403 . S
C1331 C1332 1.524 . S
C1331 C1335 1.400 . S
C1332 H1317 0.960 . S
C1332 H1318 0.960 . S
C1332 H1319 0.960 . S
C1332 C1331 1.524 . S
C1333 C1330 1.403 . S
C1333 C1334 1.392 . S
C1333 C1337 1.495 . S
C1334 C1333 1.392 . S
C1334 C1335 1.385 . S
C1334 C1336 1.478 . S
C1335 H1329 0.930 . S
C1335 C1331 1.400 . S
C1335 C1334 1.385 . S
C1336 C1334 1.478 . S
C1336 C1338 1.381 . S
C1336 C1342 1.383 . S
C1337 C1333 1.495 . S
C1337 H1343 0.959 . S
C1337 H1344 0.961 . S
C1337 H1345 0.960 . S
C1338 C1336 1.381 . S
C1338 C1339 1.394 . S
C1338 H1346 0.930 . S
C1339 C1338 1.394 . S
C1339 C1340 1.383 . S
C1339 H1347 0.929 . S
C1340 C1339 1.383 . S
C1340 C1341 1.377 . S
C1341 H1325 0.930 . S
C1341 C1340 1.377 . S
C1341 C1342 1.379 . S
C1342 H1326 0.931 . S
C1342 C1336 1.383 . S
C1342 C1341 1.379 . S
H1343 C1337 0.959 . S
H1344 C1337 0.961 . S
H1345 C1337 0.960 . S
H1346 C1338 0.930 . S
H1347 C1339 0.929 . S
H1348 C1356 0.929 . S
H1349 C1358 0.930 . S
H1350 C1360 0.930 . S
H1351 C1363 0.929 . S
H1352 C1366 0.930 . S
H1353 C1368 0.960 1_554 S
H1354 C1368 0.960 1_554 S
H1355 C1368 0.960 1_554 S
C1356 H1348 0.929 . S
C1356 C1357 1.377 . S
C1356 C1358 1.384 . S
C1357 C1356 1.377 . S
C1357 C1363 1.390 . S
C1358 H1349 0.930 . S
C1358 C1356 1.384 . S
C1358 C1359 1.372 . S
C1359 C1358 1.372 . S
C1359 C1360 1.400 . S
C1359 C1364 1.490 . S
C1360 H1350 0.930 . S
C1360 C1359 1.400 . S
C1360 C1363 1.386 . S
H1361 C1377 0.930 . S
H1362 C1378 0.931 . S
C1363 H1351 0.929 . S
C1363 C1357 1.390 . S
C1363 C1360 1.386 . S
C1364 C1359 1.490 . S
C1364 C1366 1.395 . S
C1364 C1367 1.403 . S
H1365 C1371 0.930 . S
C1366 H1352 0.930 . S
C1366 C1364 1.395 . S
C1366 C1369 1.403 . S
C1367 C1364 1.403 . S
C1367 C1368 1.524 . S
C1367 C1371 1.400 . S
C1368 H1353 0.960 1_556 S
C1368 H1354 0.960 1_556 S
C1368 H1355 0.960 1_556 S
C1368 C1367 1.524 . S
C1369 C1366 1.403 . S
C1369 C1370 1.392 . S
C1369 C1373 1.495 . S
C1370 C1369 1.392 . S
C1370 C1371 1.385 . S
C1370 C1372 1.478 . S
C1371 H1365 0.930 . S
C1371 C1367 1.400 . S
C1371 C1370 1.385 . S
C1372 C1370 1.478 . S
C1372 C1374 1.381 . S
C1372 C1378 1.383 . S
C1373 C1369 1.495 . S
C1373 H1379 0.959 . S
C1373 H1380 0.961 . S
C1373 H1381 0.960 . S
C1374 C1372 1.381 . S
C1374 C1375 1.394 . S
C1374 H1382 0.930 . S
C1375 C1374 1.394 . S
C1375 C1376 1.383 . S
C1375 H1383 0.929 . S
C1376 C1375 1.383 . S
C1376 C1377 1.377 . S
C1377 H1361 0.930 . S
C1377 C1376 1.377 . S
C1377 C1378 1.379 . S
C1378 H1362 0.931 . S
C1378 C1372 1.383 . S
C1378 C1377 1.379 . S
H1379 C1373 0.959 . S
H1380 C1373 0.961 . S
H1381 C1373 0.960 . S
H1382 C1374 0.930 . S
H1383 C1375 0.929 . S
H1384 C1392 0.929 . S
H1385 C1394 0.930 . S
H1386 C1396 0.930 . S
H1387 C1399 0.929 . S
H1388 C1402 0.930 . S
H1389 C1404 0.960 . S
H1390 C1404 0.960 . S
H1391 C1404 0.960 . S
C1392 H1384 0.929 . S
C1392 C1393 1.377 . S
C1392 C1394 1.384 . S
C1393 C1392 1.377 . S
C1393 C1399 1.390 . S
C1394 H1385 0.930 . S
C1394 C1392 1.384 . S
C1394 C1395 1.372 . S
C1395 C1394 1.372 . S
C1395 C1396 1.400 . S
C1395 C1400 1.490 . S
C1396 H1386 0.930 . S
C1396 C1395 1.400 . S
C1396 C1399 1.386 . S
H1397 C1413 0.930 1_556 S
H1398 C1414 0.931 . S
C1399 H1387 0.929 . S
C1399 C1393 1.390 . S
C1399 C1396 1.386 . S
C1400 C1395 1.490 . S
C1400 C1402 1.395 . S
C1400 C1403 1.403 . S
H1401 C1407 0.930 . S
C1402 H1388 0.930 . S
C1402 C1400 1.395 . S
C1402 C1405 1.403 . S
C1403 C1400 1.403 . S
C1403 C1404 1.524 . S
C1403 C1407 1.400 . S
C1404 H1389 0.960 . S
C1404 H1390 0.960 . S
C1404 H1391 0.960 . S
C1404 C1403 1.524 . S
C1405 C1402 1.403 . S
C1405 C1406 1.392 . S
C1405 C1409 1.495 . S
C1406 C1405 1.392 . S
C1406 C1407 1.385 . S
C1406 C1408 1.478 . S
C1407 H1401 0.930 . S
C1407 C1403 1.400 . S
C1407 C1406 1.385 . S
C1408 C1406 1.478 . S
C1408 C1410 1.381 . S
C1408 C1414 1.383 . S
C1409 C1405 1.495 . S
C1409 H1415 0.959 . S
C1409 H1416 0.961 . S
C1409 H1417 0.960 . S
C1410 C1408 1.381 . S
C1410 C1411 1.394 . S
C1410 H1418 0.930 . S
C1411 C1410 1.394 . S
C1411 C1412 1.383 . S
C1411 H1419 0.929 . S
C1412 C1411 1.383 . S
C1412 C1413 1.377 . S
C1413 H1397 0.930 1_554 S
C1413 C1412 1.377 . S
C1413 C1414 1.379 . S
C1414 H1398 0.931 . S
C1414 C1408 1.383 . S
C1414 C1413 1.379 . S
H1415 C1409 0.959 . S
H1416 C1409 0.961 . S
H1417 C1409 0.960 . S
H1418 C1410 0.930 . S
H1419 C1411 0.929 . S
H1420 C1428 0.929 . S
H1421 C1430 0.930 . S
H1422 C1432 0.930 . S
H1423 C1435 0.929 . S
H1424 C1438 0.930 . S
H1425 C1440 0.960 . S
H1426 C1440 0.960 . S
H1427 C1440 0.960 . S
C1428 H1420 0.929 . S
C1428 C1429 1.377 . S
C1428 C1430 1.384 . S
C1429 C1428 1.377 . S
C1429 C1435 1.390 . S
C1430 H1421 0.930 . S
C1430 C1428 1.384 . S
C1430 C1431 1.372 . S
C1431 C1430 1.372 . S
C1431 C1432 1.400 . S
C1431 C1436 1.490 . S
C1432 H1422 0.930 . S
C1432 C1431 1.400 . S
C1432 C1435 1.386 . S
H1433 C1449 0.930 . S
H1434 C1450 0.931 . S
C1435 H1423 0.929 . S
C1435 C1429 1.390 . S
C1435 C1432 1.386 . S
C1436 C1431 1.490 . S
C1436 C1438 1.395 . S
C1436 C1439 1.403 . S
H1437 C1443 0.930 . S
C1438 H1424 0.930 . S
C1438 C1436 1.395 . S
C1438 C1441 1.403 . S
C1439 C1436 1.403 . S
C1439 C1440 1.524 . S
C1439 C1443 1.400 . S
C1440 H1425 0.960 . S
C1440 H1426 0.960 . S
C1440 H1427 0.960 . S
C1440 C1439 1.524 . S
C1441 C1438 1.403 . S
C1441 C1442 1.392 . S
C1441 C1445 1.495 . S
C1442 C1441 1.392 . S
C1442 C1443 1.385 . S
C1442 C1444 1.478 . S
C1443 H1437 0.930 . S
C1443 C1439 1.400 . S
C1443 C1442 1.385 . S
C1444 C1442 1.478 . S
C1444 C1446 1.381 . S
C1444 C1450 1.383 . S
C1445 C1441 1.495 . S
C1445 H1451 0.959 . S
C1445 H1452 0.961 . S
C1445 H1453 0.960 . S
C1446 C1444 1.381 . S
C1446 C1447 1.394 . S
C1446 H1454 0.930 . S
C1447 C1446 1.394 . S
C1447 C1448 1.383 . S
C1447 H1455 0.929 . S
C1448 C1447 1.383 . S
C1448 C1449 1.377 . S
C1449 H1433 0.930 . S
C1449 C1448 1.377 . S
C1449 C1450 1.379 . S
C1450 H1434 0.931 . S
C1450 C1444 1.383 . S
C1450 C1449 1.379 . S
H1451 C1445 0.959 . S
H1452 C1445 0.961 . S
H1453 C1445 0.960 . S
H1454 C1446 0.930 . S
H1455 C1447 0.929 . S
H1456 C1464 0.929 . S
H1457 C1466 0.930 . S
H1458 C1468 0.930 . S
H1459 C1471 0.929 . S
H1460 C1474 0.930 . S
H1461 C1476 0.960 . S
H1462 C1476 0.960 . S
H1463 C1476 0.960 . S
C1464 H1456 0.929 . S
C1464 C1465 1.377 . S
C1464 C1466 1.384 . S
C1465 C1464 1.377 . S
C1465 C1471 1.390 . S
C1466 H1457 0.930 . S
C1466 C1464 1.384 . S
C1466 C1467 1.372 . S
C1467 C1466 1.372 . S
C1467 C1468 1.400 . S
C1467 C1472 1.490 . S
C1468 H1458 0.930 . S
C1468 C1467 1.400 . S
C1468 C1471 1.386 . S
H1469 C1485 0.930 . S
H1470 C1486 0.931 . S
C1471 H1459 0.929 . S
C1471 C1465 1.390 . S
C1471 C1468 1.386 . S
C1472 C1467 1.490 . S
C1472 C1474 1.395 . S
C1472 C1475 1.403 . S
H1473 C1479 0.930 . S
C1474 H1460 0.930 . S
C1474 C1472 1.395 . S
C1474 C1477 1.403 . S
C1475 C1472 1.403 . S
C1475 C1476 1.524 . S
C1475 C1479 1.400 . S
C1476 H1461 0.960 . S
C1476 H1462 0.960 . S
C1476 H1463 0.960 . S
C1476 C1475 1.524 . S
C1477 C1474 1.403 . S
C1477 C1478 1.392 . S
C1477 C1481 1.495 . S
C1478 C1477 1.392 . S
C1478 C1479 1.385 . S
C1478 C1480 1.478 . S
C1479 H1473 0.930 . S
C1479 C1475 1.400 . S
C1479 C1478 1.385 . S
C1480 C1478 1.478 . S
C1480 C1482 1.381 . S
C1480 C1486 1.383 . S
C1481 C1477 1.495 . S
C1481 H1487 0.959 . S
C1481 H1488 0.961 . S
C1481 H1489 0.960 . S
C1482 C1480 1.381 . S
C1482 C1483 1.394 . S
C1482 H1490 0.930 . S
C1483 C1482 1.394 . S
C1483 C1484 1.383 . S
C1483 H1491 0.929 . S
C1484 C1483 1.383 . S
C1484 C1485 1.377 . S
C1485 H1469 0.930 . S
C1485 C1484 1.377 . S
C1485 C1486 1.379 . S
C1486 H1470 0.931 . S
C1486 C1480 1.383 . S
C1486 C1485 1.379 . S
H1487 C1481 0.959 . S
H1488 C1481 0.961 . S
H1489 C1481 0.960 . S
H1490 C1482 0.930 . S
H1491 C1483 0.929 . S
H1492 C1500 0.929 . S
H1493 C1502 0.930 . S
H1494 C1504 0.930 1_556 S
H1495 C1507 0.929 . S
H1496 C1510 0.930 . S
H1497 C1512 0.960 . S
H1498 C1512 0.960 . S
H1499 C1512 0.960 . S
C1500 H1492 0.929 . S
C1500 C1501 1.377 . S
C1500 C1502 1.384 . S
C1501 C1500 1.377 . S
C1501 C1507 1.390 1_554 S
C1502 H1493 0.930 . S
C1502 C1500 1.384 . S
C1502 C1503 1.372 . S
C1503 C1502 1.372 . S
C1503 C1504 1.400 . S
C1503 C1508 1.490 . S
C1504 H1494 0.930 1_554 S
C1504 C1503 1.400 . S
C1504 C1507 1.386 1_554 S
H1505 C1521 0.930 . S
H1506 C1522 0.931 . S
C1507 H1495 0.929 . S
C1507 C1501 1.390 1_556 S
C1507 C1504 1.386 1_556 S
C1508 C1503 1.490 . S
C1508 C1510 1.395 . S
C1508 C1511 1.403 . S
H1509 C1515 0.930 . S
C1510 H1496 0.930 . S
C1510 C1508 1.395 . S
C1510 C1513 1.403 . S
C1511 C1508 1.403 . S
C1511 C1512 1.524 . S
C1511 C1515 1.400 . S
C1512 H1497 0.960 . S
C1512 H1498 0.960 . S
C1512 H1499 0.960 . S
C1512 C1511 1.524 . S
C1513 C1510 1.403 . S
C1513 C1514 1.392 . S
C1513 C1517 1.495 . S
C1514 C1513 1.392 . S
C1514 C1515 1.385 . S
C1514 C1516 1.478 . S
C1515 H1509 0.930 . S
C1515 C1511 1.400 . S
C1515 C1514 1.385 . S
C1516 C1514 1.478 . S
C1516 C1518 1.381 . S
C1516 C1522 1.383 . S
C1517 C1513 1.495 . S
C1517 H1523 0.959 . S
C1517 H1524 0.961 . S
C1517 H1525 0.960 . S
C1518 C1516 1.381 . S
C1518 C1519 1.394 . S
C1518 H1526 0.930 . S
C1519 C1518 1.394 . S
C1519 C1520 1.383 . S
C1519 H1527 0.929 . S
C1520 C1519 1.383 . S
C1520 C1521 1.377 . S
C1521 H1505 0.930 . S
C1521 C1520 1.377 . S
C1521 C1522 1.379 . S
C1522 H1506 0.931 . S
C1522 C1516 1.383 . S
C1522 C1521 1.379 . S
H1523 C1517 0.959 . S
H1524 C1517 0.961 . S
H1525 C1517 0.960 . S
H1526 C1518 0.930 . S
H1527 C1519 0.929 . S
H1528 C1536 0.929 . S
H1529 C1538 0.930 . S
H1530 C1540 0.930 . S
H1531 C1543 0.929 . S
H1532 C1546 0.930 . S
H1533 C1548 0.960 . S
H1534 C1548 0.960 . S
H1535 C1548 0.960 . S
C1536 H1528 0.929 . S
C1536 C1537 1.377 . S
C1536 C1538 1.384 . S
C1537 C1536 1.377 . S
C1537 C1543 1.390 . S
C1538 H1529 0.930 . S
C1538 C1536 1.384 . S
C1538 C1539 1.372 . S
C1539 C1538 1.372 . S
C1539 C1540 1.400 . S
C1539 C1544 1.490 . S
C1540 H1530 0.930 . S
C1540 C1539 1.400 . S
C1540 C1543 1.386 . S
H1541 C1557 0.930 . S
H1542 C1558 0.931 . S
C1543 H1531 0.929 . S
C1543 C1537 1.390 . S
C1543 C1540 1.386 . S
C1544 C1539 1.490 . S
C1544 C1546 1.395 . S
C1544 C1547 1.403 . S
H1545 C1551 0.930 . S
C1546 H1532 0.930 . S
C1546 C1544 1.395 . S
C1546 C1549 1.403 . S
C1547 C1544 1.403 . S
C1547 C1548 1.524 . S
C1547 C1551 1.400 . S
C1548 H1533 0.960 . S
C1548 H1534 0.960 . S
C1548 H1535 0.960 . S
C1548 C1547 1.524 . S
C1549 C1546 1.403 . S
C1549 C1550 1.392 . S
C1549 C1553 1.495 . S
C1550 C1549 1.392 . S
C1550 C1551 1.385 . S
C1550 C1552 1.478 . S
C1551 H1545 0.930 . S
C1551 C1547 1.400 . S
C1551 C1550 1.385 . S
C1552 C1550 1.478 . S
C1552 C1554 1.381 . S
C1552 C1558 1.383 . S
C1553 C1549 1.495 . S
C1553 H1559 0.959 . S
C1553 H1560 0.961 . S
C1553 H1561 0.960 . S
C1554 C1552 1.381 . S
C1554 C1555 1.394 . S
C1554 H1562 0.930 . S
C1555 C1554 1.394 . S
C1555 C1556 1.383 . S
C1555 H1563 0.929 1_556 S
C1556 C1555 1.383 . S
C1556 C1557 1.377 . S
C1557 H1541 0.930 . S
C1557 C1556 1.377 . S
C1557 C1558 1.379 . S
C1558 H1542 0.931 . S
C1558 C1552 1.383 . S
C1558 C1557 1.379 . S
H1559 C1553 0.959 . S
H1560 C1553 0.961 . S
H1561 C1553 0.960 . S
H1562 C1554 0.930 . S
H1563 C1555 0.929 1_554 S
H1564 C1572 0.929 . S
H1565 C1574 0.930 . S
H1566 C1576 0.930 . S
H1567 C1579 0.929 . S
H1568 C1582 0.930 . S
H1569 C1584 0.960 . S
H1570 C1584 0.960 . S
H1571 C1584 0.960 . S
C1572 H1564 0.929 . S
C1572 C1573 1.377 . S
C1572 C1574 1.384 . S
C1573 C1572 1.377 . S
C1573 C1579 1.390 . S
C1574 H1565 0.930 . S
C1574 C1572 1.384 . S
C1574 C1575 1.372 . S
C1575 C1574 1.372 . S
C1575 C1576 1.400 . S
C1575 C1580 1.490 . S
C1576 H1566 0.930 . S
C1576 C1575 1.400 . S
C1576 C1579 1.386 . S
H1577 C1593 0.930 . S
H1578 C1594 0.931 . S
C1579 H1567 0.929 . S
C1579 C1573 1.390 . S
C1579 C1576 1.386 . S
C1580 C1575 1.490 . S
C1580 C1582 1.395 . S
C1580 C1583 1.403 . S
H1581 C1587 0.930 . S
C1582 H1568 0.930 . S
C1582 C1580 1.395 . S
C1582 C1585 1.403 . S
C1583 C1580 1.403 . S
C1583 C1584 1.524 . S
C1583 C1587 1.400 . S
C1584 H1569 0.960 . S
C1584 H1570 0.960 . S
C1584 H1571 0.960 . S
C1584 C1583 1.524 . S
C1585 C1582 1.403 . S
C1585 C1586 1.392 . S
C1585 C1589 1.495 . S
C1586 C1585 1.392 . S
C1586 C1587 1.385 . S
C1586 C1588 1.478 . S
C1587 H1581 0.930 . S
C1587 C1583 1.400 . S
C1587 C1586 1.385 . S
C1588 C1586 1.478 . S
C1588 C1590 1.381 . S
C1588 C1594 1.383 . S
C1589 C1585 1.495 . S
C1589 H1595 0.959 . S
C1589 H1596 0.961 . S
C1589 H1597 0.960 . S
C1590 C1588 1.381 . S
C1590 C1591 1.394 . S
C1590 H1598 0.930 . S
C1591 C1590 1.394 . S
C1591 C1592 1.383 . S
C1591 H1599 0.929 . S
C1592 C1591 1.383 . S
C1592 C1593 1.377 . S
C1593 H1577 0.930 . S
C1593 C1592 1.377 . S
C1593 C1594 1.379 . S
C1594 H1578 0.931 . S
C1594 C1588 1.383 . S
C1594 C1593 1.379 . S
H1595 C1589 0.959 . S
H1596 C1589 0.961 . S
H1597 C1589 0.960 . S
H1598 C1590 0.930 . S
H1599 C1591 0.929 . S
H1600 C1608 0.929 . S
H1601 C1610 0.930 . S
H1602 C1612 0.930 . S
H1603 C1615 0.929 . S
H1604 C1618 0.930 . S
H1605 C1620 0.960 . S
H1606 C1620 0.960 . S
H1607 C1620 0.960 . S
C1608 H1600 0.929 . S
C1608 C1609 1.377 . S
C1608 C1610 1.384 . S
C1609 C1608 1.377 . S
C1609 C1615 1.390 . S
C1610 H1601 0.930 . S
C1610 C1608 1.384 . S
C1610 C1611 1.372 . S
C1611 C1610 1.372 . S
C1611 C1612 1.400 . S
C1611 C1616 1.490 . S
C1612 H1602 0.930 . S
C1612 C1611 1.400 . S
C1612 C1615 1.386 . S
H1613 C1629 0.930 . S
H1614 C1630 0.931 . S
C1615 H1603 0.929 . S
C1615 C1609 1.390 . S
C1615 C1612 1.386 . S
C1616 C1611 1.490 . S
C1616 C1618 1.395 1_554 S
C1616 C1619 1.403 . S
H1617 C1623 0.930 1_554 S
C1618 H1604 0.930 . S
C1618 C1616 1.395 1_556 S
C1618 C1621 1.403 . S
C1619 C1616 1.403 . S
C1619 C1620 1.524 . S
C1619 C1623 1.400 1_554 S
C1620 H1605 0.960 . S
C1620 H1606 0.960 . S
C1620 H1607 0.960 . S
C1620 C1619 1.524 . S
C1621 C1618 1.403 . S
C1621 C1622 1.392 . S
C1621 C1625 1.495 . S
C1622 C1621 1.392 . S
C1622 C1623 1.385 . S
C1622 C1624 1.478 . S
C1623 H1617 0.930 1_556 S
C1623 C1619 1.400 1_556 S
C1623 C1622 1.385 . S
C1624 C1622 1.478 . S
C1624 C1626 1.381 . S
C1624 C1630 1.383 . S
C1625 C1621 1.495 . S
C1625 H1631 0.959 . S
C1625 H1632 0.961 . S
C1625 H1633 0.960 . S
C1626 C1624 1.381 . S
C1626 C1627 1.394 . S
C1626 H1634 0.930 . S
C1627 C1626 1.394 . S
C1627 C1628 1.383 . S
C1627 H1635 0.929 . S
C1628 C1627 1.383 . S
C1628 C1629 1.377 . S
C1629 H1613 0.930 . S
C1629 C1628 1.377 . S
C1629 C1630 1.379 . S
C1630 H1614 0.931 . S
C1630 C1624 1.383 . S
C1630 C1629 1.379 . S
H1631 C1625 0.959 . S
H1632 C1625 0.961 . S
H1633 C1625 0.960 . S
H1634 C1626 0.930 . S
H1635 C1627 0.929 . S
H1636 C1644 0.929 . S
H1637 C1646 0.930 . S
H1638 C1648 0.930 . S
H1639 C1651 0.929 . S
H1640 C1654 0.930 . S
H1641 C1656 0.960 . S
H1642 C1656 0.960 1_655 S
H1643 C1656 0.976 . S
C1644 H1636 0.929 . S
C1644 C1645 1.377 . S
C1644 C1646 1.384 . S
C1645 C1644 1.377 . S
C1645 C1651 1.390 . S
C1646 H1637 0.930 . S
C1646 C1644 1.384 . S
C1646 C1647 1.372 . S
C1647 C1646 1.372 . S
C1647 C1648 1.400 . S
C1647 C1652 1.490 . S
C1648 H1638 0.930 . S
C1648 C1647 1.400 . S
C1648 C1651 1.386 . S
H1649 C1665 0.930 . S
H1650 C1666 0.931 . S
C1651 H1639 0.929 . S
C1651 C1645 1.390 . S
C1651 C1648 1.386 . S
C1652 C1647 1.490 . S
C1652 C1654 1.395 . S
C1652 C1655 1.401 1_655 S
H1653 C1659 0.930 . S
C1654 H1640 0.930 . S
C1654 C1652 1.395 . S
C1654 C1657 1.403 . S
C1655 C1652 1.401 1_455 S
C1655 C1656 1.524 . S
C1655 C1659 1.401 . S
C1656 H1641 0.960 . S
C1656 H1642 0.960 1_455 S
C1656 H1643 0.976 . S
C1656 C1655 1.524 . S
C1657 C1654 1.403 . S
C1657 C1658 1.392 1_655 S
C1657 C1661 1.495 . S
C1658 C1657 1.392 1_455 S
C1658 C1659 1.385 . S
C1658 C1660 1.478 . S
C1659 H1653 0.930 . S
C1659 C1655 1.401 . S
C1659 C1658 1.385 . S
C1660 C1658 1.478 . S
C1660 C1662 1.381 . S
C1660 C1666 1.383 . S
C1661 C1657 1.495 . S
C1661 H1667 0.959 . S
C1661 H1668 0.962 1_655 S
C1661 H1669 0.960 . S
C1662 C1660 1.381 . S
C1662 C1663 1.394 . S
C1662 H1670 0.930 . S
C1663 C1662 1.394 . S
C1663 C1664 1.383 . S
C1663 H1671 0.929 . S
C1664 C1663 1.383 . S
C1664 C1665 1.377 . S
C1665 H1649 0.930 . S
C1665 C1664 1.377 . S
C1665 C1666 1.379 . S
C1666 H1650 0.931 . S
C1666 C1660 1.383 . S
C1666 C1665 1.379 . S
H1667 C1661 0.959 . S
H1668 C1661 0.962 1_455 S
H1669 C1661 0.960 . S
H1670 C1662 0.930 . S
H1671 C1663 0.929 . S
H1672 C1680 0.929 . S
H1673 C1682 0.930 . S
H1674 C1684 0.930 . S
H1675 C1687 0.929 . S
H1676 C1690 0.930 . S
H1677 C1692 0.960 . S
H1678 C1692 0.960 . S
H1679 C1692 0.960 . S
C1680 H1672 0.929 . S
C1680 C1681 1.377 . S
C1680 C1682 1.384 . S
C1681 C1680 1.377 . S
C1681 C1687 1.390 . S
C1682 H1673 0.930 . S
C1682 C1680 1.384 . S
C1682 C1683 1.372 . S
C1683 C1682 1.372 . S
C1683 C1684 1.400 . S
C1683 C1688 1.490 . S
C1684 H1674 0.930 . S
C1684 C1683 1.400 . S
C1684 C1687 1.386 . S
H1685 C1701 0.930 . S
H1686 C1702 0.931 . S
C1687 H1675 0.929 . S
C1687 C1681 1.390 . S
C1687 C1684 1.386 . S
C1688 C1683 1.490 . S
C1688 C1690 1.395 . S
C1688 C1691 1.403 . S
H1689 C1695 0.930 . S
C1690 H1676 0.930 . S
C1690 C1688 1.395 . S
C1690 C1693 1.403 . S
C1691 C1688 1.403 . S
C1691 C1692 1.524 . S
C1691 C1695 1.400 . S
C1692 H1677 0.960 . S
C1692 H1678 0.960 . S
C1692 H1679 0.960 . S
C1692 C1691 1.524 . S
C1693 C1690 1.403 . S
C1693 C1694 1.392 . S
C1693 C1697 1.495 . S
C1694 C1693 1.392 . S
C1694 C1695 1.385 . S
C1694 C1696 1.478 . S
C1695 H1689 0.930 . S
C1695 C1691 1.400 . S
C1695 C1694 1.385 . S
C1696 C1694 1.478 . S
C1696 C1698 1.381 . S
C1696 C1702 1.383 . S
C1697 C1693 1.495 . S
C1697 H1703 0.959 . S
C1697 H1704 0.961 . S
C1697 H1705 0.960 . S
C1698 C1696 1.381 . S
C1698 C1699 1.394 . S
C1698 H1706 0.930 . S
C1699 C1698 1.394 . S
C1699 C1700 1.383 . S
C1699 H1707 0.929 . S
C1700 C1699 1.383 . S
C1700 C1701 1.377 . S
C1701 H1685 0.930 . S
C1701 C1700 1.377 . S
C1701 C1702 1.379 . S
C1702 H1686 0.931 . S
C1702 C1696 1.383 . S
C1702 C1701 1.379 . S
H1703 C1697 0.959 . S
H1704 C1697 0.961 . S
H1705 C1697 0.960 . S
H1706 C1698 0.930 . S
H1707 C1699 0.929 . S
H1708 C1716 0.929 . S
H1709 C1718 0.930 . S
H1710 C1720 0.930 . S
H1711 C1723 0.929 . S
H1712 C1726 0.930 . S
H1713 C1728 0.960 . S
H1714 C1728 0.960 . S
H1715 C1728 0.960 . S
C1716 H1708 0.929 . S
C1716 C1717 1.377 . S
C1716 C1718 1.384 . S
C1717 C1716 1.377 . S
C1717 C1723 1.390 . S
C1718 H1709 0.930 . S
C1718 C1716 1.384 . S
C1718 C1719 1.372 . S
C1719 C1718 1.372 . S
C1719 C1720 1.400 . S
C1719 C1724 1.490 . S
C1720 H1710 0.930 . S
C1720 C1719 1.400 . S
C1720 C1723 1.386 . S
H1721 C1737 0.930 . S
H1722 C1738 0.931 . S
C1723 H1711 0.929 . S
C1723 C1717 1.390 . S
C1723 C1720 1.386 . S
C1724 C1719 1.490 . S
C1724 C1726 1.395 . S
C1724 C1727 1.403 . S
H1725 C1731 0.930 . S
C1726 H1712 0.930 . S
C1726 C1724 1.395 . S
C1726 C1729 1.403 . S
C1727 C1724 1.403 . S
C1727 C1728 1.524 . S
C1727 C1731 1.400 . S
C1728 H1713 0.960 . S
C1728 H1714 0.960 . S
C1728 H1715 0.960 . S
C1728 C1727 1.524 . S
C1729 C1726 1.403 . S
C1729 C1730 1.392 . S
C1729 C1733 1.495 . S
C1730 C1729 1.392 . S
C1730 C1731 1.385 . S
C1730 C1732 1.478 . S
C1731 H1725 0.930 . S
C1731 C1727 1.400 . S
C1731 C1730 1.385 . S
C1732 C1730 1.478 . S
C1732 C1734 1.381 . S
C1732 C1738 1.383 . S
C1733 C1729 1.495 . S
C1733 H1739 0.959 . S
C1733 H1740 0.961 . S
C1733 H1741 0.960 . S
C1734 C1732 1.381 . S
C1734 C1735 1.394 . S
C1734 H1742 0.930 . S
C1735 C1734 1.394 . S
C1735 C1736 1.383 . S
C1735 H1743 0.929 . S
C1736 C1735 1.383 . S
C1736 C1737 1.377 . S
C1737 H1721 0.930 . S
C1737 C1736 1.377 . S
C1737 C1738 1.379 . S
C1738 H1722 0.931 . S
C1738 C1732 1.383 . S
C1738 C1737 1.379 . S
H1739 C1733 0.959 . S
H1740 C1733 0.961 . S
H1741 C1733 0.960 . S
H1742 C1734 0.930 . S
H1743 C1735 0.929 . S
H1744 C1752 0.929 . S
H1745 C1754 0.930 . S
H1746 C1756 0.930 . S
H1747 C1759 0.929 . S
H1748 C1762 0.930 . S
H1749 C1764 0.960 . S
H1750 C1764 0.960 . S
H1751 C1764 0.960 . S
C1752 H1744 0.929 . S
C1752 C1753 1.377 . S
C1752 C1754 1.384 . S
C1753 C1752 1.377 . S
C1753 C1759 1.390 . S
C1754 H1745 0.930 . S
C1754 C1752 1.384 . S
C1754 C1755 1.372 . S
C1755 C1754 1.372 . S
C1755 C1756 1.400 . S
C1755 C1760 1.490 . S
C1756 H1746 0.930 . S
C1756 C1755 1.400 . S
C1756 C1759 1.386 . S
H1757 C1773 0.930 . S
H1758 C1774 0.931 . S
C1759 H1747 0.929 . S
C1759 C1753 1.390 . S
C1759 C1756 1.386 . S
C1760 C1755 1.490 . S
C1760 C1762 1.395 . S
C1760 C1763 1.403 . S
H1761 C1767 0.930 . S
C1762 H1748 0.930 . S
C1762 C1760 1.395 . S
C1762 C1765 1.403 . S
C1763 C1760 1.403 . S
C1763 C1764 1.524 . S
C1763 C1767 1.400 . S
C1764 H1749 0.960 . S
C1764 H1750 0.960 . S
C1764 H1751 0.960 . S
C1764 C1763 1.524 . S
C1765 C1762 1.403 . S
C1765 C1766 1.392 . S
C1765 C1769 1.495 . S
C1766 C1765 1.392 . S
C1766 C1767 1.385 . S
C1766 C1768 1.478 . S
C1767 H1761 0.930 . S
C1767 C1763 1.400 . S
C1767 C1766 1.385 . S
C1768 C1766 1.478 . S
C1768 C1770 1.381 . S
C1768 C1774 1.383 . S
C1769 C1765 1.495 . S
C1769 H1775 0.959 . S
C1769 H1776 0.961 . S
C1769 H1777 0.960 . S
C1770 C1768 1.381 . S
C1770 C1771 1.394 . S
C1770 H1778 0.930 . S
C1771 C1770 1.394 . S
C1771 C1772 1.383 . S
C1771 H1779 0.929 . S
C1772 C1771 1.383 . S
C1772 C1773 1.377 . S
C1773 H1757 0.930 . S
C1773 C1772 1.377 . S
C1773 C1774 1.379 . S
C1774 H1758 0.931 . S
C1774 C1768 1.383 . S
C1774 C1773 1.379 . S
H1775 C1769 0.959 . S
H1776 C1769 0.961 . S
H1777 C1769 0.960 . S
H1778 C1770 0.930 . S
H1779 C1771 0.929 . S
H1780 C1788 0.929 . S
H1781 C1790 0.930 . S
H1782 C1792 0.930 . S
H1783 C1795 0.929 . S
H1784 C1798 0.930 . S
H1785 C1800 0.960 . S
H1786 C1800 0.960 . S
H1787 C1800 0.960 . S
C1788 H1780 0.929 . S
C1788 C1789 1.377 . S
C1788 C1790 1.384 . S
C1789 C1788 1.377 . S
C1789 C1795 1.390 . S
C1790 H1781 0.930 . S
C1790 C1788 1.384 . S
C1790 C1791 1.372 . S
C1791 C1790 1.372 . S
C1791 C1792 1.400 . S
C1791 C1796 1.490 . S
C1792 H1782 0.930 . S
C1792 C1791 1.400 . S
C1792 C1795 1.386 . S
H1793 C1809 0.930 . S
H1794 C1810 0.931 . S
C1795 H1783 0.929 . S
C1795 C1789 1.390 . S
C1795 C1792 1.386 . S
C1796 C1791 1.490 . S
C1796 C1798 1.395 . S
C1796 C1799 1.403 . S
H1797 C1803 0.930 . S
C1798 H1784 0.930 . S
C1798 C1796 1.395 . S
C1798 C1801 1.403 . S
C1799 C1796 1.403 . S
C1799 C1800 1.524 . S
C1799 C1803 1.400 . S
C1800 H1785 0.960 . S
C1800 H1786 0.960 . S
C1800 H1787 0.960 . S
C1800 C1799 1.524 . S
C1801 C1798 1.403 . S
C1801 C1802 1.392 . S
C1801 C1805 1.495 . S
C1802 C1801 1.392 . S
C1802 C1803 1.385 . S
C1802 C1804 1.478 . S
C1803 H1797 0.930 . S
C1803 C1799 1.400 . S
C1803 C1802 1.385 . S
C1804 C1802 1.478 . S
C1804 C1806 1.381 . S
C1804 C1810 1.383 . S
C1805 C1801 1.495 . S
C1805 H1811 0.959 . S
C1805 H1812 0.961 . S
C1805 H1813 0.960 . S
C1806 C1804 1.381 . S
C1806 C1807 1.394 . S
C1806 H1814 0.930 . S
C1807 C1806 1.394 . S
C1807 C1808 1.383 . S
C1807 H1815 0.929 . S
C1808 C1807 1.383 . S
C1808 C1809 1.377 . S
C1809 H1793 0.930 . S
C1809 C1808 1.377 . S
C1809 C1810 1.379 . S
C1810 H1794 0.931 . S
C1810 C1804 1.383 . S
C1810 C1809 1.379 . S
H1811 C1805 0.959 . S
H1812 C1805 0.961 . S
H1813 C1805 0.960 . S
H1814 C1806 0.930 . S
H1815 C1807 0.929 . S
H1816 C1824 0.929 . S
H1817 C1826 0.930 . S
H1818 C1828 0.930 . S
H1819 C1831 0.929 . S
H1820 C1834 0.930 . S
H1821 C1836 0.960 . S
H1822 C1836 0.960 . S
H1823 C1836 0.960 . S
C1824 H1816 0.929 . S
C1824 C1825 1.377 . S
C1824 C1826 1.384 . S
C1825 C1824 1.377 . S
C1825 C1831 1.390 . S
C1826 H1817 0.930 . S
C1826 C1824 1.384 . S
C1826 C1827 1.372 . S
C1827 C1826 1.372 . S
C1827 C1828 1.400 . S
C1827 C1832 1.490 . S
C1828 H1818 0.930 . S
C1828 C1827 1.400 . S
C1828 C1831 1.386 . S
H1829 C1845 0.930 . S
H1830 C1846 0.931 . S
C1831 H1819 0.929 . S
C1831 C1825 1.390 . S
C1831 C1828 1.386 . S
C1832 C1827 1.490 . S
C1832 C1834 1.395 . S
C1832 C1835 1.403 1_556 S
H1833 C1839 0.930 . S
C1834 H1820 0.930 . S
C1834 C1832 1.395 . S
C1834 C1837 1.403 . S
C1835 C1832 1.403 1_554 S
C1835 C1836 1.524 . S
C1835 C1839 1.400 . S
C1836 H1821 0.960 . S
C1836 H1822 0.960 . S
C1836 H1823 0.960 . S
C1836 C1835 1.524 . S
C1837 C1834 1.403 . S
C1837 C1838 1.392 1_556 S
C1837 C1841 1.495 . S
C1838 C1837 1.392 1_554 S
C1838 C1839 1.385 . S
C1838 C1840 1.478 . S
C1839 H1833 0.930 . S
C1839 C1835 1.400 . S
C1839 C1838 1.385 . S
C1840 C1838 1.478 . S
C1840 C1842 1.381 . S
C1840 C1846 1.383 . S
C1841 C1837 1.495 . S
C1841 H1847 0.959 . S
C1841 H1848 0.961 . S
C1841 H1849 0.960 . S
C1842 C1840 1.381 . S
C1842 C1843 1.394 . S
C1842 H1850 0.930 . S
C1843 C1842 1.394 . S
C1843 C1844 1.383 . S
C1843 H1851 0.929 . S
C1844 C1843 1.383 . S
C1844 C1845 1.377 . S
C1845 H1829 0.930 . S
C1845 C1844 1.377 . S
C1845 C1846 1.379 . S
C1846 H1830 0.931 . S
C1846 C1840 1.383 . S
C1846 C1845 1.379 . S
H1847 C1841 0.959 . S
H1848 C1841 0.961 . S
H1849 C1841 0.960 . S
H1850 C1842 0.930 . S
H1851 C1843 0.929 . S
H1852 C1860 0.929 . S
H1853 C1862 0.930 . S
H1854 C1864 0.930 . S
H1855 C1867 0.929 . S
H1856 C1870 0.930 . S
H1857 C1872 0.960 . S
H1858 C1872 0.960 . S
H1859 C1872 1.001 . S
C1860 H1852 0.929 . S
C1860 C1861 1.377 . S
C1860 C1862 1.384 . S
C1861 C1860 1.377 . S
C1861 C1867 1.390 . S
C1862 H1853 0.930 . S
C1862 C1860 1.384 . S
C1862 C1863 1.372 . S
C1863 C1862 1.372 . S
C1863 C1864 1.400 . S
C1863 C1868 1.490 . S
C1864 H1854 0.930 . S
C1864 C1863 1.400 . S
C1864 C1867 1.386 . S
H1865 C1881 0.930 . S
H1866 C1882 0.931 . S
C1867 H1855 0.929 . S
C1867 C1861 1.390 . S
C1867 C1864 1.386 . S
C1868 C1863 1.490 . S
C1868 C1870 1.395 . S
C1868 C1871 1.403 1_455 S
H1869 C1875 0.930 . S
C1870 H1856 0.930 . S
C1870 C1868 1.395 . S
C1870 C1873 1.403 . S
C1871 C1868 1.403 1_655 S
C1871 C1872 1.524 . S
C1871 C1875 1.400 . S
C1872 H1857 0.960 . S
C1872 H1858 0.960 . S
C1872 H1859 1.001 . S
C1872 C1871 1.524 . S
C1873 C1870 1.403 . S
C1873 C1874 1.392 1_455 S
C1873 C1877 1.495 . S
C1874 C1873 1.392 1_655 S
C1874 C1875 1.385 . S
C1874 C1876 1.478 . S
C1875 H1869 0.930 . S
C1875 C1871 1.400 . S
C1875 C1874 1.385 . S
C1876 C1874 1.478 . S
C1876 C1878 1.381 . S
C1876 C1882 1.383 . S
C1877 C1873 1.495 . S
C1877 H1883 0.959 . S
C1877 H1884 0.961 . S
C1877 H1885 0.978 . S
C1878 C1876 1.381 . S
C1878 C1879 1.394 . S
C1878 H1886 0.930 . S
C1879 C1878 1.394 . S
C1879 C1880 1.383 . S
C1879 H1887 0.929 . S
C1880 C1879 1.383 . S
C1880 C1881 1.377 . S
C1881 H1865 0.930 . S
C1881 C1880 1.377 . S
C1881 C1882 1.379 . S
C1882 H1866 0.931 . S
C1882 C1876 1.383 . S
C1882 C1881 1.379 . S
H1883 C1877 0.959 . S
H1884 C1877 0.961 . S
H1885 C1877 0.978 . S
H1886 C1878 0.930 . S
H1887 C1879 0.929 . S
H1888 C1896 0.929 . S
H1889 C1898 0.930 . S
H1890 C1900 0.930 . S
H1891 C1903 0.929 . S
H1892 C1906 0.930 . S
H1893 C1908 0.960 . S
H1894 C1908 0.960 . S
H1895 C1908 0.960 . S
C1896 H1888 0.929 . S
C1896 C1897 1.377 . S
C1896 C1898 1.384 . S
C1897 C1896 1.377 . S
C1897 C1903 1.390 . S
C1898 H1889 0.930 . S
C1898 C1896 1.384 . S
C1898 C1899 1.372 . S
C1899 C1898 1.372 . S
C1899 C1900 1.400 . S
C1899 C1904 1.490 . S
C1900 H1890 0.930 . S
C1900 C1899 1.400 . S
C1900 C1903 1.386 . S
H1901 C1917 0.930 . S
H1902 C1918 0.931 . S
C1903 H1891 0.929 . S
C1903 C1897 1.390 . S
C1903 C1900 1.386 . S
C1904 C1899 1.490 . S
C1904 C1906 1.395 1_556 S
C1904 C1907 1.403 . S
H1905 C1911 0.930 . S
C1906 H1892 0.930 . S
C1906 C1904 1.395 1_554 S
C1906 C1909 1.403 . S
C1907 C1904 1.403 . S
C1907 C1908 1.524 . S
C1907 C1911 1.400 1_556 S
C1908 H1893 0.960 . S
C1908 H1894 0.960 . S
C1908 H1895 0.960 . S
C1908 C1907 1.524 . S
C1909 C1906 1.403 . S
C1909 C1910 1.392 . S
C1909 C1913 1.495 . S
C1910 C1909 1.392 . S
C1910 C1911 1.385 . S
C1910 C1912 1.478 . S
C1911 H1905 0.930 . S
C1911 C1907 1.400 1_554 S
C1911 C1910 1.385 . S
C1912 C1910 1.478 . S
C1912 C1914 1.381 . S
C1912 C1918 1.383 . S
C1913 C1909 1.495 . S
C1913 H1919 0.959 . S
C1913 H1920 0.961 . S
C1913 H1921 0.960 . S
C1914 C1912 1.381 . S
C1914 C1915 1.394 . S
C1914 H1922 0.930 . S
C1915 C1914 1.394 . S
C1915 C1916 1.383 . S
C1915 H1923 0.929 . S
C1916 C1915 1.383 . S
C1916 C1917 1.377 . S
C1917 H1901 0.930 . S
C1917 C1916 1.377 . S
C1917 C1918 1.379 . S
C1918 H1902 0.931 . S
C1918 C1912 1.383 . S
C1918 C1917 1.379 . S
H1919 C1913 0.959 . S
H1920 C1913 0.961 . S
H1921 C1913 0.960 . S
H1922 C1914 0.930 . S
H1923 C1915 0.929 . S
H1924 C1932 0.929 . S
H1925 C1934 0.930 . S
H1926 C1936 0.930 . S
H1927 C1939 0.929 . S
H1928 C1942 0.930 . S
H1929 C1944 0.960 . S
H1930 C1944 0.960 . S
H1931 C1944 0.960 . S
C1932 H1924 0.929 . S
C1932 C1933 1.377 . S
C1932 C1934 1.384 . S
C1933 C1932 1.377 . S
C1933 C1939 1.390 . S
C1934 H1925 0.930 . S
C1934 C1932 1.384 . S
C1934 C1935 1.372 . S
C1935 C1934 1.372 . S
C1935 C1936 1.400 . S
C1935 C1940 1.490 . S
C1936 H1926 0.930 . S
C1936 C1935 1.400 . S
C1936 C1939 1.386 . S
H1937 C1953 0.930 . S
H1938 C1954 0.931 . S
C1939 H1927 0.929 . S
C1939 C1933 1.390 . S
C1939 C1936 1.386 . S
C1940 C1935 1.490 . S
C1940 C1942 1.395 . S
C1940 C1943 1.403 . S
H1941 C1947 0.930 . S
C1942 H1928 0.930 . S
C1942 C1940 1.395 . S
C1942 C1945 1.403 1_455 S
C1943 C1940 1.403 . S
C1943 C1944 1.524 . S
C1943 C1947 1.400 1_455 S
C1944 H1929 0.960 . S
C1944 H1930 0.960 . S
C1944 H1931 0.960 . S
C1944 C1943 1.524 . S
C1945 C1942 1.403 1_655 S
C1945 C1946 1.392 . S
C1945 C1949 1.495 . S
C1946 C1945 1.392 . S
C1946 C1947 1.385 . S
C1946 C1948 1.478 . S
C1947 H1941 0.930 . S
C1947 C1943 1.400 1_655 S
C1947 C1946 1.385 . S
C1948 C1946 1.478 . S
C1948 C1950 1.381 . S
C1948 C1954 1.383 . S
C1949 C1945 1.495 . S
C1949 H1955 0.959 . S
C1949 H1956 0.961 . S
C1949 H1957 0.960 . S
C1950 C1948 1.381 . S
C1950 C1951 1.394 . S
C1950 H1958 0.930 . S
C1951 C1950 1.394 . S
C1951 C1952 1.383 . S
C1951 H1959 0.929 . S
C1952 C1951 1.383 . S
C1952 C1953 1.377 . S
C1953 H1937 0.930 . S
C1953 C1952 1.377 . S
C1953 C1954 1.379 . S
C1954 H1938 0.931 . S
C1954 C1948 1.383 . S
C1954 C1953 1.379 . S
H1955 C1949 0.959 . S
H1956 C1949 0.961 . S
H1957 C1949 0.960 . S
H1958 C1950 0.930 . S
H1959 C1951 0.929 . S
H1960 C1968 0.929 . S
H1961 C1970 0.930 . S
H1962 C1972 0.930 . S
H1963 C1975 0.929 . S
H1964 C1978 0.930 . S
H1965 C1980 0.960 . S
H1966 C1980 0.960 . S
H1967 C1980 0.960 . S
C1968 H1960 0.929 . S
C1968 C1969 1.377 . S
C1968 C1970 1.384 . S
C1969 C1968 1.377 . S
C1969 C1975 1.390 . S
C1970 H1961 0.930 . S
C1970 C1968 1.384 . S
C1970 C1971 1.372 . S
C1971 C1970 1.372 . S
C1971 C1972 1.400 . S
C1971 C1976 1.490 . S
C1972 H1962 0.930 . S
C1972 C1971 1.400 . S
C1972 C1975 1.386 . S
H1973 C1989 0.930 . S
H1974 C1990 0.931 . S
C1975 H1963 0.929 . S
C1975 C1969 1.390 . S
C1975 C1972 1.386 . S
C1976 C1971 1.490 . S
C1976 C1978 1.395 . S
C1976 C1979 1.403 . S
H1977 C1983 0.930 . S
C1978 H1964 0.930 . S
C1978 C1976 1.395 . S
C1978 C1981 1.403 . S
C1979 C1976 1.403 . S
C1979 C1980 1.524 . S
C1979 C1983 1.400 . S
C1980 H1965 0.960 . S
C1980 H1966 0.960 . S
C1980 H1967 0.960 . S
C1980 C1979 1.524 . S
C1981 C1978 1.403 . S
C1981 C1982 1.392 . S
C1981 C1985 1.495 . S
C1982 C1981 1.392 . S
C1982 C1983 1.385 . S
C1982 C1984 1.478 . S
C1983 H1977 0.930 . S
C1983 C1979 1.400 . S
C1983 C1982 1.385 . S
C1984 C1982 1.478 . S
C1984 C1986 1.381 . S
C1984 C1990 1.383 . S
C1985 C1981 1.495 . S
C1985 H1991 0.959 . S
C1985 H1992 0.961 . S
C1985 H1993 0.960 . S
C1986 C1984 1.381 . S
C1986 C1987 1.394 . S
C1986 H1994 0.930 . S
C1987 C1986 1.394 . S
C1987 C1988 1.383 . S
C1987 H1995 0.929 . S
C1988 C1987 1.383 . S
C1988 C1989 1.377 . S
C1989 H1973 0.930 . S
C1989 C1988 1.377 . S
C1989 C1990 1.379 . S
C1990 H1974 0.931 . S
C1990 C1984 1.383 . S
C1990 C1989 1.379 . S
H1991 C1985 0.959 . S
H1992 C1985 0.961 . S
H1993 C1985 0.960 . S
H1994 C1986 0.930 . S
H1995 C1987 0.929 . S
H1996 C2004 0.929 . S
H1997 C2006 0.930 . S
H1998 C2008 0.930 . S
H1999 C2011 0.929 . S
H2000 C2014 0.930 . S
H2001 C2016 0.960 . S
H2002 C2016 0.960 . S
H2003 C2016 0.960 . S
C2004 H1996 0.929 . S
C2004 C2005 1.377 . S
C2004 C2006 1.384 . S
C2005 C2004 1.377 . S
C2005 C2011 1.390 . S
C2006 H1997 0.930 . S
C2006 C2004 1.384 . S
C2006 C2007 1.372 . S
C2007 C2006 1.372 . S
C2007 C2008 1.400 . S
C2007 C2012 1.490 . S
C2008 H1998 0.930 . S
C2008 C2007 1.400 . S
C2008 C2011 1.386 . S
H2009 C2025 0.930 . S
H2010 C2026 0.931 . S
C2011 H1999 0.929 . S
C2011 C2005 1.390 . S
C2011 C2008 1.386 . S
C2012 C2007 1.490 . S
C2012 C2014 1.395 . S
C2012 C2015 1.403 . S
H2013 C2019 0.930 . S
C2014 H2000 0.930 . S
C2014 C2012 1.395 . S
C2014 C2017 1.403 . S
C2015 C2012 1.403 . S
C2015 C2016 1.524 . S
C2015 C2019 1.400 . S
C2016 H2001 0.960 . S
C2016 H2002 0.960 . S
C2016 H2003 0.960 . S
C2016 C2015 1.524 . S
C2017 C2014 1.403 . S
C2017 C2018 1.392 . S
C2017 C2021 1.495 . S
C2018 C2017 1.392 . S
C2018 C2019 1.385 . S
C2018 C2020 1.478 . S
C2019 H2013 0.930 . S
C2019 C2015 1.400 . S
C2019 C2018 1.385 . S
C2020 C2018 1.478 . S
C2020 C2022 1.381 . S
C2020 C2026 1.383 . S
C2021 C2017 1.495 . S
C2021 H2027 0.959 . S
C2021 H2028 0.961 . S
C2021 H2029 0.960 . S
C2022 C2020 1.381 . S
C2022 C2023 1.394 . S
C2022 H2030 0.930 . S
C2023 C2022 1.394 . S
C2023 C2024 1.383 . S
C2023 H2031 0.929 . S
C2024 C2023 1.383 . S
C2024 C2025 1.377 . S
C2025 H2009 0.930 . S
C2025 C2024 1.377 . S
C2025 C2026 1.379 . S
C2026 H2010 0.931 . S
C2026 C2020 1.383 . S
C2026 C2025 1.379 . S
H2027 C2021 0.959 . S
H2028 C2021 0.961 . S
H2029 C2021 0.960 . S
H2030 C2022 0.930 . S
H2031 C2023 0.929 . S
H2032 C2040 0.929 . S
H2033 C2042 0.930 . S
H2034 C2044 0.930 . S
H2035 C2047 0.929 . S
H2036 C2050 0.930 . S
H2037 C2052 0.960 . S
H2038 C2052 0.960 . S
H2039 C2052 0.960 . S
C2040 H2032 0.929 . S
C2040 C2041 1.377 . S
C2040 C2042 1.384 . S
C2041 C2040 1.377 . S
C2041 C2047 1.390 . S
C2042 H2033 0.930 . S
C2042 C2040 1.384 . S
C2042 C2043 1.372 . S
C2043 C2042 1.372 . S
C2043 C2044 1.400 . S
C2043 C2048 1.490 . S
C2044 H2034 0.930 . S
C2044 C2043 1.400 . S
C2044 C2047 1.386 . S
H2045 C2061 0.930 . S
H2046 C2062 0.931 . S
C2047 H2035 0.929 . S
C2047 C2041 1.390 . S
C2047 C2044 1.386 . S
C2048 C2043 1.490 . S
C2048 C2050 1.395 . S
C2048 C2051 1.403 . S
H2049 C2055 0.930 . S
C2050 H2036 0.930 . S
C2050 C2048 1.395 . S
C2050 C2053 1.403 . S
C2051 C2048 1.403 . S
C2051 C2052 1.524 . S
C2051 C2055 1.400 . S
C2052 H2037 0.960 . S
C2052 H2038 0.960 . S
C2052 H2039 0.960 . S
C2052 C2051 1.524 . S
C2053 C2050 1.403 . S
C2053 C2054 1.392 . S
C2053 C2057 1.495 . S
C2054 C2053 1.392 . S
C2054 C2055 1.385 . S
C2054 C2056 1.478 . S
C2055 H2049 0.930 . S
C2055 C2051 1.400 . S
C2055 C2054 1.385 . S
C2056 C2054 1.478 . S
C2056 C2058 1.381 . S
C2056 C2062 1.383 . S
C2057 C2053 1.495 . S
C2057 H2063 0.959 . S
C2057 H2064 0.961 . S
C2057 H2065 0.960 . S
C2058 C2056 1.381 . S
C2058 C2059 1.394 . S
C2058 H2066 0.930 . S
C2059 C2058 1.394 . S
C2059 C2060 1.383 . S
C2059 H2067 0.929 . S
C2060 C2059 1.383 . S
C2060 C2061 1.377 . S
C2061 H2045 0.930 . S
C2061 C2060 1.377 . S
C2061 C2062 1.379 . S
C2062 H2046 0.931 . S
C2062 C2056 1.383 . S
C2062 C2061 1.379 . S
H2063 C2057 0.959 . S
H2064 C2057 0.961 . S
H2065 C2057 0.960 . S
H2066 C2058 0.930 . S
H2067 C2059 0.929 . S
H2068 C2076 0.929 . S
H2069 C2078 0.930 . S
H2070 C2080 0.930 . S
H2071 C2083 0.929 . S
H2072 C2086 0.930 . S
H2073 C2088 0.960 . S
H2074 C2088 0.960 . S
H2075 C2088 0.960 . S
C2076 H2068 0.929 . S
C2076 C2077 1.377 . S
C2076 C2078 1.384 . S
C2077 C2076 1.377 . S
C2077 C2083 1.390 . S
C2078 H2069 0.930 . S
C2078 C2076 1.384 . S
C2078 C2079 1.372 . S
C2079 C2078 1.372 . S
C2079 C2080 1.400 . S
C2079 C2084 1.490 . S
C2080 H2070 0.930 . S
C2080 C2079 1.400 . S
C2080 C2083 1.386 . S
H2081 C2097 0.930 . S
H2082 C2098 0.931 . S
C2083 H2071 0.929 . S
C2083 C2077 1.390 . S
C2083 C2080 1.386 . S
C2084 C2079 1.490 . S
C2084 C2086 1.395 . S
C2084 C2087 1.403 . S
H2085 C2091 0.930 . S
C2086 H2072 0.930 . S
C2086 C2084 1.395 . S
C2086 C2089 1.403 . S
C2087 C2084 1.403 . S
C2087 C2088 1.524 . S
C2087 C2091 1.400 . S
C2088 H2073 0.960 . S
C2088 H2074 0.960 . S
C2088 H2075 0.960 . S
C2088 C2087 1.524 . S
C2089 C2086 1.403 . S
C2089 C2090 1.392 . S
C2089 C2093 1.495 . S
C2090 C2089 1.392 . S
C2090 C2091 1.385 . S
C2090 C2092 1.478 . S
C2091 H2085 0.930 . S
C2091 C2087 1.400 . S
C2091 C2090 1.385 . S
C2092 C2090 1.478 . S
C2092 C2094 1.381 . S
C2092 C2098 1.383 . S
C2093 C2089 1.495 . S
C2093 H2099 0.959 . S
C2093 H2100 0.961 . S
C2093 H2101 0.960 . S
C2094 C2092 1.381 . S
C2094 C2095 1.394 . S
C2094 H2102 0.930 . S
C2095 C2094 1.394 . S
C2095 C2096 1.383 . S
C2095 H2103 0.929 . S
C2096 C2095 1.383 . S
C2096 C2097 1.377 . S
C2097 H2081 0.930 . S
C2097 C2096 1.377 . S
C2097 C2098 1.379 . S
C2098 H2082 0.931 . S
C2098 C2092 1.383 . S
C2098 C2097 1.379 . S
H2099 C2093 0.959 . S
H2100 C2093 0.961 . S
H2101 C2093 0.960 . S
H2102 C2094 0.930 . S
H2103 C2095 0.929 . S
H2104 C2112 0.929 . S
H2105 C2114 0.930 . S
H2106 C2116 0.917 1_556 S
H2107 C2119 0.929 . S
H2108 C2122 0.930 1_554 S
H2109 C2124 0.960 1_556 S
H2110 C2124 0.960 . S
H2111 C2124 0.960 . S
C2112 H2104 0.929 . S
C2112 C2113 1.377 . S
C2112 C2114 1.384 . S
C2113 C2112 1.377 . S
C2113 C2119 1.390 . S
C2114 H2105 0.930 . S
C2114 C2112 1.384 . S
C2114 C2115 1.372 . S
C2115 C2114 1.372 . S
C2115 C2116 1.400 . S
C2115 C2120 1.490 . S
C2116 H2106 0.917 1_554 S
C2116 C2115 1.400 . S
C2116 C2119 1.386 . S
H2117 C2133 0.930 . S
H2118 C2134 0.931 . S
C2119 H2107 0.929 . S
C2119 C2113 1.390 . S
C2119 C2116 1.386 . S
C2120 C2115 1.490 . S
C2120 C2122 1.395 1_554 S
C2120 C2123 1.403 1_554 S
H2121 C2127 0.930 . S
C2122 H2108 0.930 1_556 S
C2122 C2120 1.395 1_556 S
C2122 C2125 1.403 . S
C2123 C2120 1.403 1_556 S
C2123 C2124 1.524 1_556 S
C2123 C2127 1.400 . S
C2124 H2109 0.960 1_554 S
C2124 H2110 0.960 . S
C2124 H2111 0.960 . S
C2124 C2123 1.524 1_554 S
C2125 C2122 1.403 . S
C2125 C2126 1.392 . S
C2125 C2129 1.495 . S
C2126 C2125 1.392 . S
C2126 C2127 1.385 . S
C2126 C2128 1.478 . S
C2127 H2121 0.930 . S
C2127 C2123 1.400 . S
C2127 C2126 1.385 . S
C2128 C2126 1.478 . S
C2128 C2130 1.381 . S
C2128 C2134 1.383 . S
C2129 C2125 1.495 . S
C2129 H2135 0.959 . S
C2129 H2136 0.961 . S
C2129 H2137 0.960 . S
C2130 C2128 1.381 . S
C2130 C2131 1.394 . S
C2130 H2138 0.930 . S
C2131 C2130 1.394 . S
C2131 C2132 1.383 . S
C2131 H2139 0.929 . S
C2132 C2131 1.383 . S
C2132 C2133 1.377 . S
C2133 H2117 0.930 . S
C2133 C2132 1.377 . S
C2133 C2134 1.379 . S
C2134 H2118 0.931 . S
C2134 C2128 1.383 . S
C2134 C2133 1.379 . S
H2135 C2129 0.959 . S
H2136 C2129 0.961 . S
H2137 C2129 0.960 . S
H2138 C2130 0.930 . S
H2139 C2131 0.929 . S
H2140 C2148 0.929 . S
H2141 C2150 0.930 . S
H2142 C2152 0.930 . S
H2143 C2155 0.929 . S
H2144 C2158 0.930 . S
H2145 C2160 0.960 . S
H2146 C2160 0.960 . S
H2147 C2160 0.960 . S
C2148 H2140 0.929 . S
C2148 C2149 1.377 . S
C2148 C2150 1.384 . S
C2149 C2148 1.377 . S
C2149 C2155 1.390 . S
C2150 H2141 0.930 . S
C2150 C2148 1.384 . S
C2150 C2151 1.372 . S
C2151 C2150 1.372 . S
C2151 C2152 1.400 . S
C2151 C2156 1.490 . S
C2152 H2142 0.930 . S
C2152 C2151 1.400 . S
C2152 C2155 1.386 . S
H2153 C2169 0.930 . S
H2154 C2170 0.931 . S
C2155 H2143 0.929 . S
C2155 C2149 1.390 . S
C2155 C2152 1.386 . S
C2156 C2151 1.490 . S
C2156 C2158 1.395 . S
C2156 C2159 1.403 . S
H2157 C2163 0.930 . S
C2158 H2144 0.930 . S
C2158 C2156 1.395 . S
C2158 C2161 1.403 1_455 S
C2159 C2156 1.403 . S
C2159 C2160 1.524 . S
C2159 C2163 1.400 1_455 S
C2160 H2145 0.960 . S
C2160 H2146 0.960 . S
C2160 H2147 0.960 . S
C2160 C2159 1.524 . S
C2161 C2158 1.403 1_655 S
C2161 C2162 1.392 . S
C2161 C2165 1.495 . S
C2162 C2161 1.392 . S
C2162 C2163 1.385 . S
C2162 C2164 1.478 . S
C2163 H2157 0.930 . S
C2163 C2159 1.400 1_655 S
C2163 C2162 1.385 . S
C2164 C2162 1.478 . S
C2164 C2166 1.381 . S
C2164 C2170 1.383 . S
C2165 C2161 1.495 . S
C2165 H2171 0.959 . S
C2165 H2172 0.961 . S
C2165 H2173 0.960 . S
C2166 C2164 1.381 . S
C2166 C2167 1.394 . S
C2166 H2174 0.930 . S
C2167 C2166 1.394 . S
C2167 C2168 1.383 . S
C2167 H2175 0.929 . S
C2168 C2167 1.383 . S
C2168 C2169 1.377 . S
C2169 H2153 0.930 . S
C2169 C2168 1.377 . S
C2169 C2170 1.379 . S
C2170 H2154 0.931 . S
C2170 C2164 1.383 . S
C2170 C2169 1.379 . S
H2171 C2165 0.959 . S
H2172 C2165 0.961 . S
H2173 C2165 0.960 . S
H2174 C2166 0.930 . S
H2175 C2167 0.929 . S
H2176 C2184 0.929 . S
H2177 C2186 0.930 . S
H2178 C2188 0.930 . S
H2179 C2191 0.929 . S
H2180 C2194 0.930 . S
H2181 C2196 0.960 . S
H2182 C2196 0.960 . S
H2183 C2196 0.960 . S
C2184 H2176 0.929 . S
C2184 C2185 1.377 . S
C2184 C2186 1.384 . S
C2185 C2184 1.377 . S
C2185 C2191 1.390 . S
C2186 H2177 0.930 . S
C2186 C2184 1.384 . S
C2186 C2187 1.372 . S
C2187 C2186 1.372 . S
C2187 C2188 1.400 . S
C2187 C2192 1.490 . S
C2188 H2178 0.930 . S
C2188 C2187 1.400 . S
C2188 C2191 1.386 . S
H2189 C2205 0.930 . S
H2190 C2206 0.931 . S
C2191 H2179 0.929 . S
C2191 C2185 1.390 . S
C2191 C2188 1.386 . S
C2192 C2187 1.490 . S
C2192 C2194 1.395 . S
C2192 C2195 1.403 . S
H2193 C2199 0.930 . S
C2194 H2180 0.930 . S
C2194 C2192 1.395 . S
C2194 C2197 1.403 . S
C2195 C2192 1.403 . S
C2195 C2196 1.524 . S
C2195 C2199 1.400 . S
C2196 H2181 0.960 . S
C2196 H2182 0.960 . S
C2196 H2183 0.960 . S
C2196 C2195 1.524 . S
C2197 C2194 1.403 . S
C2197 C2198 1.392 . S
C2197 C2201 1.495 . S
C2198 C2197 1.392 . S
C2198 C2199 1.385 . S
C2198 C2200 1.478 . S
C2199 H2193 0.930 . S
C2199 C2195 1.400 . S
C2199 C2198 1.385 . S
C2200 C2198 1.478 . S
C2200 C2202 1.381 . S
C2200 C2206 1.383 . S
C2201 C2197 1.495 . S
C2201 H2207 0.959 . S
C2201 H2208 0.961 . S
C2201 H2209 0.960 . S
C2202 C2200 1.381 . S
C2202 C2203 1.394 . S
C2202 H2210 0.930 . S
C2203 C2202 1.394 . S
C2203 C2204 1.383 . S
C2203 H2211 0.929 . S
C2204 C2203 1.383 . S
C2204 C2205 1.377 . S
C2205 H2189 0.930 . S
C2205 C2204 1.377 . S
C2205 C2206 1.379 . S
C2206 H2190 0.931 . S
C2206 C2200 1.383 . S
C2206 C2205 1.379 . S
H2207 C2201 0.959 . S
H2208 C2201 0.961 . S
H2209 C2201 0.960 . S
H2210 C2202 0.930 . S
H2211 C2203 0.929 . S
H2212 C2220 0.929 . S
H2213 C2222 0.930 . S
H2214 C2224 0.930 . S
H2215 C2227 0.929 . S
H2216 C2230 0.930 . S
H2217 C2232 0.960 . S
H2218 C2232 0.960 . S
H2219 C2232 0.960 . S
C2220 H2212 0.929 . S
C2220 C2221 1.377 . S
C2220 C2222 1.384 . S
C2221 C2220 1.377 . S
C2221 C2227 1.390 . S
C2222 H2213 0.930 . S
C2222 C2220 1.384 . S
C2222 C2223 1.372 . S
C2223 C2222 1.372 . S
C2223 C2224 1.400 . S
C2223 C2228 1.490 . S
C2224 H2214 0.930 . S
C2224 C2223 1.400 . S
C2224 C2227 1.386 . S
H2225 C2241 0.930 . S
H2226 C2242 0.931 . S
C2227 H2215 0.929 . S
C2227 C2221 1.390 . S
C2227 C2224 1.386 . S
C2228 C2223 1.490 . S
C2228 C2230 1.395 . S
C2228 C2231 1.403 . S
H2229 C2235 0.930 . S
C2230 H2216 0.930 . S
C2230 C2228 1.395 . S
C2230 C2233 1.403 . S
C2231 C2228 1.403 . S
C2231 C2232 1.524 . S
C2231 C2235 1.400 . S
C2232 H2217 0.960 . S
C2232 H2218 0.960 . S
C2232 H2219 0.960 . S
C2232 C2231 1.524 . S
C2233 C2230 1.403 . S
C2233 C2234 1.392 . S
C2233 C2237 1.495 . S
C2234 C2233 1.392 . S
C2234 C2235 1.385 . S
C2234 C2236 1.478 . S
C2235 H2229 0.930 . S
C2235 C2231 1.400 . S
C2235 C2234 1.385 . S
C2236 C2234 1.478 . S
C2236 C2238 1.381 . S
C2236 C2242 1.383 . S
C2237 C2233 1.495 . S
C2237 H2243 0.959 . S
C2237 H2244 0.961 . S
C2237 H2245 0.960 . S
C2238 C2236 1.381 . S
C2238 C2239 1.394 . S
C2238 H2246 0.930 . S
C2239 C2238 1.394 . S
C2239 C2240 1.383 . S
C2239 H2247 0.929 . S
C2240 C2239 1.383 . S
C2240 C2241 1.377 . S
C2241 H2225 0.930 . S
C2241 C2240 1.377 . S
C2241 C2242 1.379 . S
C2242 H2226 0.931 . S
C2242 C2236 1.383 . S
C2242 C2241 1.379 . S
H2243 C2237 0.959 . S
H2244 C2237 0.961 . S
H2245 C2237 0.960 . S
H2246 C2238 0.930 . S
H2247 C2239 0.929 . S
H2248 C2256 0.929 . S
H2249 C2258 0.930 . S
H2250 C2260 0.930 . S
H2251 C2263 0.929 . S
H2252 C2266 0.930 . S
H2253 C2268 0.960 . S
H2254 C2268 0.960 . S
H2255 C2268 0.960 . S
C2256 H2248 0.929 . S
C2256 C2257 1.377 . S
C2256 C2258 1.384 . S
C2257 C2256 1.377 . S
C2257 C2263 1.390 . S
C2258 H2249 0.930 . S
C2258 C2256 1.384 . S
C2258 C2259 1.372 . S
C2259 C2258 1.372 . S
C2259 C2260 1.400 . S
C2259 C2264 1.490 . S
C2260 H2250 0.930 . S
C2260 C2259 1.400 . S
C2260 C2263 1.386 . S
H2261 C2277 0.930 . S
H2262 C2278 0.931 . S
C2263 H2251 0.929 . S
C2263 C2257 1.390 . S
C2263 C2260 1.386 . S
C2264 C2259 1.490 . S
C2264 C2266 1.395 1_554 S
C2264 C2267 1.403 . S
H2265 C2271 0.930 1_554 S
C2266 H2252 0.930 . S
C2266 C2264 1.395 1_556 S
C2266 C2269 1.403 . S
C2267 C2264 1.403 . S
C2267 C2268 1.524 . S
C2267 C2271 1.400 1_554 S
C2268 H2253 0.960 . S
C2268 H2254 0.960 . S
C2268 H2255 0.960 . S
C2268 C2267 1.524 . S
C2269 C2266 1.403 . S
C2269 C2270 1.392 . S
C2269 C2273 1.495 . S
C2270 C2269 1.392 . S
C2270 C2271 1.385 . S
C2270 C2272 1.478 . S
C2271 H2265 0.930 1_556 S
C2271 C2267 1.400 1_556 S
C2271 C2270 1.385 . S
C2272 C2270 1.478 . S
C2272 C2274 1.381 . S
C2272 C2278 1.383 . S
C2273 C2269 1.495 . S
C2273 H2279 0.959 . S
C2273 H2280 0.961 . S
C2273 H2281 0.960 . S
C2274 C2272 1.381 . S
C2274 C2275 1.394 . S
C2274 H2282 0.930 . S
C2275 C2274 1.394 . S
C2275 C2276 1.383 . S
C2275 H2283 0.929 . S
C2276 C2275 1.383 . S
C2276 C2277 1.377 . S
C2277 H2261 0.930 . S
C2277 C2276 1.377 . S
C2277 C2278 1.379 . S
C2278 H2262 0.931 . S
C2278 C2272 1.383 . S
C2278 C2277 1.379 . S
H2279 C2273 0.959 . S
H2280 C2273 0.961 . S
H2281 C2273 0.960 . S
H2282 C2274 0.930 . S
H2283 C2275 0.929 . S
H2284 C2292 0.929 . S
H2285 C2294 0.930 . S
H2286 C2296 0.930 . S
H2287 C2299 0.929 . S
H2288 C2302 0.930 . S
H2289 C2304 0.920 1_455 S
H2290 C2304 0.958 . S
H2291 C2304 1.006 . S
C2292 H2284 0.929 . S
C2292 C2293 1.377 . S
C2292 C2294 1.384 . S
C2293 C2292 1.377 . S
C2293 C2299 1.390 . S
C2294 H2285 0.930 . S
C2294 C2292 1.384 . S
C2294 C2295 1.372 . S
C2295 C2294 1.372 . S
C2295 C2296 1.400 . S
C2295 C2300 1.490 . S
C2296 H2286 0.930 . S
C2296 C2295 1.400 . S
C2296 C2299 1.386 . S
H2297 C2313 0.930 . S
H2298 C2314 0.931 . S
C2299 H2287 0.929 . S
C2299 C2293 1.390 . S
C2299 C2296 1.386 . S
C2300 C2295 1.490 . S
C2300 C2302 1.395 . S
C2300 C2303 1.424 . S
H2301 C2307 0.930 . S
C2302 H2288 0.930 . S
C2302 C2300 1.395 . S
C2302 C2305 1.403 1_655 S
C2303 C2300 1.424 . S
C2303 C2304 1.524 . S
C2303 C2307 1.377 1_655 S
C2304 H2289 0.920 1_655 S
C2304 H2290 0.958 . S
C2304 H2291 1.006 . S
C2304 C2303 1.524 . S
C2305 C2302 1.403 1_455 S
C2305 C2306 1.392 . S
C2305 C2309 1.495 . S
C2306 C2305 1.392 . S
C2306 C2307 1.385 . S
C2306 C2308 1.478 . S
C2307 H2301 0.930 . S
C2307 C2303 1.377 1_455 S
C2307 C2306 1.385 . S
C2308 C2306 1.478 . S
C2308 C2310 1.381 . S
C2308 C2314 1.383 . S
C2309 C2305 1.495 . S
C2309 H2315 0.959 1_455 S
C2309 H2316 0.961 . S
C2309 H2317 0.960 . S
C2310 C2308 1.381 . S
C2310 C2311 1.394 . S
C2310 H2318 0.930 . S
C2311 C2310 1.394 . S
C2311 C2312 1.383 . S
C2311 H2319 0.929 . S
C2312 C2311 1.383 . S
C2312 C2313 1.377 . S
C2313 H2297 0.930 . S
C2313 C2312 1.377 . S
C2313 C2314 1.379 . S
C2314 H2298 0.931 . S
C2314 C2308 1.383 . S
C2314 C2313 1.379 . S
H2315 C2309 0.959 1_655 S
H2316 C2309 0.961 . S
H2317 C2309 0.960 . S
H2318 C2310 0.930 . S
H2319 C2311 0.929 . S
H2320 C2328 0.929 . S
H2321 C2330 0.930 1_554 S
H2322 C2332 0.930 . S
H2323 C2335 0.929 . S
H2324 C2338 0.930 . S
H2325 C2340 0.960 . S
H2326 C2340 0.960 . S
H2327 C2340 0.960 . S
C2328 H2320 0.929 . S
C2328 C2329 1.377 . S
C2328 C2330 1.384 . S
C2329 C2328 1.377 . S
C2329 C2335 1.390 . S
C2330 H2321 0.930 1_556 S
C2330 C2328 1.384 . S
C2330 C2331 1.372 . S
C2331 C2330 1.372 . S
C2331 C2332 1.400 . S
C2331 C2336 1.490 . S
C2332 H2322 0.930 . S
C2332 C2331 1.400 . S
C2332 C2335 1.386 . S
H2333 C2349 0.930 . S
H2334 C2350 0.931 . S
C2335 H2323 0.929 . S
C2335 C2329 1.390 . S
C2335 C2332 1.386 . S
C2336 C2331 1.490 . S
C2336 C2338 1.395 1_556 S
C2336 C2339 1.403 . S
H2337 C2343 0.930 . S
C2338 H2324 0.930 . S
C2338 C2336 1.395 1_554 S
C2338 C2341 1.403 . S
C2339 C2336 1.403 . S
C2339 C2340 1.524 . S
C2339 C2343 1.400 1_556 S
C2340 H2325 0.960 . S
C2340 H2326 0.960 . S
C2340 H2327 0.960 . S
C2340 C2339 1.524 . S
C2341 C2338 1.403 . S
C2341 C2342 1.392 . S
C2341 C2345 1.495 . S
C2342 C2341 1.392 . S
C2342 C2343 1.385 . S
C2342 C2344 1.478 . S
C2343 H2337 0.930 . S
C2343 C2339 1.400 1_554 S
C2343 C2342 1.385 . S
C2344 C2342 1.478 . S
C2344 C2346 1.381 . S
C2344 C2350 1.383 . S
C2345 C2341 1.495 . S
C2345 H2351 0.959 . S
C2345 H2352 0.961 . S
C2345 H2353 0.960 . S
C2346 C2344 1.381 . S
C2346 C2347 1.394 . S
C2346 H2354 0.930 . S
C2347 C2346 1.394 . S
C2347 C2348 1.383 . S
C2347 H2355 0.929 . S
C2348 C2347 1.383 . S
C2348 C2349 1.377 . S
C2349 H2333 0.930 . S
C2349 C2348 1.377 . S
C2349 C2350 1.379 . S
C2350 H2334 0.931 . S
C2350 C2344 1.383 . S
C2350 C2349 1.379 . S
H2351 C2345 0.959 . S
H2352 C2345 0.961 . S
H2353 C2345 0.960 . S
H2354 C2346 0.930 . S
H2355 C2347 0.929 . S
H2356 C2364 0.929 . S
H2357 C2366 0.930 . S
H2358 C2368 0.930 . S
H2359 C2371 0.929 . S
H2360 C2374 0.930 . S
H2361 C2376 0.960 . S
H2362 C2376 0.960 . S
H2363 C2376 0.994 . S
C2364 H2356 0.929 . S
C2364 C2365 1.377 . S
C2364 C2366 1.384 . S
C2365 C2364 1.377 . S
C2365 C2371 1.390 . S
C2366 H2357 0.930 . S
C2366 C2364 1.384 . S
C2366 C2367 1.372 . S
C2367 C2366 1.372 . S
C2367 C2368 1.400 . S
C2367 C2372 1.490 . S
C2368 H2358 0.930 . S
C2368 C2367 1.400 . S
C2368 C2371 1.386 . S
H2369 C2385 0.930 . S
H2370 C2386 0.931 . S
C2371 H2359 0.929 . S
C2371 C2365 1.390 . S
C2371 C2368 1.386 . S
C2372 C2367 1.490 . S
C2372 C2374 1.395 . S
C2372 C2375 1.403 1_655 S
H2373 C2379 0.930 . S
C2374 H2360 0.930 . S
C2374 C2372 1.395 . S
C2374 C2377 1.403 . S
C2375 C2372 1.403 1_455 S
C2375 C2376 1.524 . S
C2375 C2379 1.400 . S
C2376 H2361 0.960 . S
C2376 H2362 0.960 . S
C2376 H2363 0.994 . S
C2376 C2375 1.524 . S
C2377 C2374 1.403 . S
C2377 C2378 1.392 1_655 S
C2377 C2381 1.495 . S
C2378 C2377 1.392 1_455 S
C2378 C2379 1.385 . S
C2378 C2380 1.478 . S
C2379 H2373 0.930 . S
C2379 C2375 1.400 . S
C2379 C2378 1.385 . S
C2380 C2378 1.478 . S
C2380 C2382 1.381 . S
C2380 C2386 1.383 . S
C2381 C2377 1.495 . S
C2381 H2387 0.959 . S
C2381 H2388 0.961 . S
C2381 H2389 0.969 . S
C2382 C2380 1.381 . S
C2382 C2383 1.394 . S
C2382 H2390 0.930 . S
C2383 C2382 1.394 . S
C2383 C2384 1.383 . S
C2383 H2391 0.929 . S
C2384 C2383 1.383 . S
C2384 C2385 1.377 . S
C2385 H2369 0.930 . S
C2385 C2384 1.377 . S
C2385 C2386 1.379 . S
C2386 H2370 0.931 . S
C2386 C2380 1.383 . S
C2386 C2385 1.379 . S
H2387 C2381 0.959 . S
H2388 C2381 0.961 . S
H2389 C2381 0.969 . S
H2390 C2382 0.930 . S
H2391 C2383 0.929 . S
H2392 C2400 0.929 . S
H2393 C2402 0.930 . S
H2394 C2404 0.930 . S
H2395 C2407 0.929 . S
H2396 C2410 0.930 . S
H2397 C2412 0.960 . S
H2398 C2412 0.960 . S
H2399 C2412 0.960 . S
C2400 H2392 0.929 . S
C2400 C2401 1.377 . S
C2400 C2402 1.384 . S
C2401 C2400 1.377 . S
C2401 C2407 1.390 . S
C2402 H2393 0.930 . S
C2402 C2400 1.384 . S
C2402 C2403 1.372 . S
C2403 C2402 1.372 . S
C2403 C2404 1.400 . S
C2403 C2408 1.490 . S
C2404 H2394 0.930 . S
C2404 C2403 1.400 . S
C2404 C2407 1.386 . S
H2405 C2421 0.930 . S
H2406 C2422 0.931 . S
C2407 H2395 0.929 . S
C2407 C2401 1.390 . S
C2407 C2404 1.386 . S
C2408 C2403 1.490 . S
C2408 C2410 1.395 . S
C2408 C2411 1.403 . S
H2409 C2415 0.930 . S
C2410 H2396 0.930 . S
C2410 C2408 1.395 . S
C2410 C2413 1.403 . S
C2411 C2408 1.403 . S
C2411 C2412 1.524 . S
C2411 C2415 1.400 . S
C2412 H2397 0.960 . S
C2412 H2398 0.960 . S
C2412 H2399 0.960 . S
C2412 C2411 1.524 . S
C2413 C2410 1.403 . S
C2413 C2414 1.392 . S
C2413 C2417 1.495 . S
C2414 C2413 1.392 . S
C2414 C2415 1.385 . S
C2414 C2416 1.478 . S
C2415 H2409 0.930 . S
C2415 C2411 1.400 . S
C2415 C2414 1.385 . S
C2416 C2414 1.478 . S
C2416 C2418 1.381 . S
C2416 C2422 1.383 . S
C2417 C2413 1.495 . S
C2417 H2423 0.959 . S
C2417 H2424 0.961 . S
C2417 H2425 0.960 . S
C2418 C2416 1.381 . S
C2418 C2419 1.394 . S
C2418 H2426 0.930 . S
C2419 C2418 1.394 . S
C2419 C2420 1.383 . S
C2419 H2427 0.929 . S
C2420 C2419 1.383 . S
C2420 C2421 1.377 . S
C2421 H2405 0.930 . S
C2421 C2420 1.377 . S
C2421 C2422 1.379 . S
C2422 H2406 0.931 . S
C2422 C2416 1.383 . S
C2422 C2421 1.379 . S
H2423 C2417 0.959 . S
H2424 C2417 0.961 . S
H2425 C2417 0.960 . S
H2426 C2418 0.930 . S
H2427 C2419 0.929 . S
H2428 C2436 0.929 . S
H2429 C2438 0.930 . S
H2430 C2440 0.930 . S
H2431 C2443 0.929 . S
H2432 C2446 0.930 . S
H2433 C2448 0.960 . S
H2434 C2448 0.960 . S
H2435 C2448 0.960 . S
C2436 H2428 0.929 . S
C2436 C2437 1.377 . S
C2436 C2438 1.384 . S
C2437 C2436 1.377 . S
C2437 C2443 1.390 . S
C2438 H2429 0.930 . S
C2438 C2436 1.384 . S
C2438 C2439 1.372 . S
C2439 C2438 1.372 . S
C2439 C2440 1.400 . S
C2439 C2444 1.490 . S
C2440 H2430 0.930 . S
C2440 C2439 1.400 . S
C2440 C2443 1.386 . S
H2441 C2457 0.930 . S
H2442 C2458 0.931 . S
C2443 H2431 0.929 . S
C2443 C2437 1.390 . S
C2443 C2440 1.386 . S
C2444 C2439 1.490 . S
C2444 C2446 1.395 . S
C2444 C2447 1.403 . S
H2445 C2451 0.930 . S
C2446 H2432 0.930 . S
C2446 C2444 1.395 . S
C2446 C2449 1.403 . S
C2447 C2444 1.403 . S
C2447 C2448 1.524 . S
C2447 C2451 1.400 . S
C2448 H2433 0.960 . S
C2448 H2434 0.960 . S
C2448 H2435 0.960 . S
C2448 C2447 1.524 . S
C2449 C2446 1.403 . S
C2449 C2450 1.392 . S
C2449 C2453 1.495 . S
C2450 C2449 1.392 . S
C2450 C2451 1.385 . S
C2450 C2452 1.478 . S
C2451 H2445 0.930 . S
C2451 C2447 1.400 . S
C2451 C2450 1.385 . S
C2452 C2450 1.478 . S
C2452 C2454 1.381 . S
C2452 C2458 1.383 . S
C2453 C2449 1.495 . S
C2453 H2459 0.959 . S
C2453 H2460 0.961 . S
C2453 H2461 0.960 . S
C2454 C2452 1.381 . S
C2454 C2455 1.394 . S
C2454 H2462 0.930 . S
C2455 C2454 1.394 . S
C2455 C2456 1.383 . S
C2455 H2463 0.929 . S
C2456 C2455 1.383 . S
C2456 C2457 1.377 . S
C2457 H2441 0.930 . S
C2457 C2456 1.377 . S
C2457 C2458 1.379 . S
C2458 H2442 0.931 . S
C2458 C2452 1.383 . S
C2458 C2457 1.379 . S
H2459 C2453 0.959 . S
H2460 C2453 0.961 . S
H2461 C2453 0.960 . S
H2462 C2454 0.930 . S
H2463 C2455 0.929 . S
H2464 C2472 0.929 . S
H2465 C2474 0.930 . S
H2466 C2476 0.930 . S
H2467 C2479 0.929 . S
H2468 C2482 0.930 . S
H2469 C2484 0.960 . S
H2470 C2484 0.960 . S
H2471 C2484 0.960 . S
C2472 H2464 0.929 . S
C2472 C2473 1.377 . S
C2472 C2474 1.384 . S
C2473 C2472 1.377 . S
C2473 C2479 1.390 . S
C2474 H2465 0.930 . S
C2474 C2472 1.384 . S
C2474 C2475 1.372 . S
C2475 C2474 1.372 . S
C2475 C2476 1.400 . S
C2475 C2480 1.490 . S
C2476 H2466 0.930 . S
C2476 C2475 1.400 . S
C2476 C2479 1.386 . S
H2477 C2493 0.930 . S
H2478 C2494 0.931 . S
C2479 H2467 0.929 . S
C2479 C2473 1.390 . S
C2479 C2476 1.386 . S
C2480 C2475 1.490 . S
C2480 C2482 1.395 . S
C2480 C2483 1.403 . S
H2481 C2487 0.930 . S
C2482 H2468 0.930 . S
C2482 C2480 1.395 . S
C2482 C2485 1.403 . S
C2483 C2480 1.403 . S
C2483 C2484 1.524 . S
C2483 C2487 1.400 . S
C2484 H2469 0.960 . S
C2484 H2470 0.960 . S
C2484 H2471 0.960 . S
C2484 C2483 1.524 . S
C2485 C2482 1.403 . S
C2485 C2486 1.392 . S
C2485 C2489 1.495 . S
C2486 C2485 1.392 . S
C2486 C2487 1.385 . S
C2486 C2488 1.478 . S
C2487 H2481 0.930 . S
C2487 C2483 1.400 . S
C2487 C2486 1.385 . S
C2488 C2486 1.478 . S
C2488 C2490 1.381 . S
C2488 C2494 1.383 . S
C2489 C2485 1.495 . S
C2489 H2495 0.959 . S
C2489 H2496 0.961 . S
C2489 H2497 0.960 . S
C2490 C2488 1.381 . S
C2490 C2491 1.394 . S
C2490 H2498 0.930 . S
C2491 C2490 1.394 . S
C2491 C2492 1.383 . S
C2491 H2499 0.929 . S
C2492 C2491 1.383 . S
C2492 C2493 1.377 . S
C2493 H2477 0.930 . S
C2493 C2492 1.377 . S
C2493 C2494 1.379 . S
C2494 H2478 0.931 . S
C2494 C2488 1.383 . S
C2494 C2493 1.379 . S
H2495 C2489 0.959 . S
H2496 C2489 0.961 . S
H2497 C2489 0.960 . S
H2498 C2490 0.930 . S
H2499 C2491 0.929 . S
H2500 C2508 0.929 . S
H2501 C2510 0.930 . S
H2502 C2512 0.930 . S
H2503 C2515 0.929 . S
H2504 C2518 0.930 . S
H2505 C2520 0.960 . S
H2506 C2520 0.960 . S
H2507 C2520 0.960 . S
C2508 H2500 0.929 . S
C2508 C2509 1.377 . S
C2508 C2510 1.384 . S
C2509 C2508 1.377 . S
C2509 C2515 1.390 . S
C2510 H2501 0.930 . S
C2510 C2508 1.384 . S
C2510 C2511 1.372 . S
C2511 C2510 1.372 . S
C2511 C2512 1.400 . S
C2511 C2516 1.490 . S
C2512 H2502 0.930 . S
C2512 C2511 1.400 . S
C2512 C2515 1.386 . S
H2513 C2529 0.930 . S
H2514 C2530 0.931 . S
C2515 H2503 0.929 . S
C2515 C2509 1.390 . S
C2515 C2512 1.386 . S
C2516 C2511 1.490 . S
C2516 C2518 1.395 . S
C2516 C2519 1.403 . S
H2517 C2523 0.930 . S
C2518 H2504 0.930 . S
C2518 C2516 1.395 . S
C2518 C2521 1.403 . S
C2519 C2516 1.403 . S
C2519 C2520 1.524 . S
C2519 C2523 1.400 . S
C2520 H2505 0.960 . S
C2520 H2506 0.960 . S
C2520 H2507 0.960 . S
C2520 C2519 1.524 . S
C2521 C2518 1.403 . S
C2521 C2522 1.392 . S
C2521 C2525 1.495 . S
C2522 C2521 1.392 . S
C2522 C2523 1.385 . S
C2522 C2524 1.478 . S
C2523 H2517 0.930 . S
C2523 C2519 1.400 . S
C2523 C2522 1.385 . S
C2524 C2522 1.478 . S
C2524 C2526 1.381 . S
C2524 C2530 1.383 . S
C2525 C2521 1.495 . S
C2525 H2531 0.959 . S
C2525 H2532 0.961 . S
C2525 H2533 0.960 . S
C2526 C2524 1.381 . S
C2526 C2527 1.394 . S
C2526 H2534 0.930 . S
C2527 C2526 1.394 . S
C2527 C2528 1.383 . S
C2527 H2535 0.929 . S
C2528 C2527 1.383 . S
C2528 C2529 1.377 . S
C2529 H2513 0.930 . S
C2529 C2528 1.377 . S
C2529 C2530 1.379 . S
C2530 H2514 0.931 . S
C2530 C2524 1.383 . S
C2530 C2529 1.379 . S
H2531 C2525 0.959 . S
H2532 C2525 0.961 . S
H2533 C2525 0.960 . S
H2534 C2526 0.930 . S
H2535 C2527 0.929 . S
H2536 C2544 0.929 . S
H2537 C2546 0.930 . S
H2538 C2548 0.930 . S
H2539 C2551 0.929 . S
H2540 C2554 0.930 . S
H2541 C2556 0.960 . S
H2542 C2556 0.960 1_554 S
H2543 C2556 0.960 . S
C2544 H2536 0.929 . S
C2544 C2545 1.377 . S
C2544 C2546 1.384 . S
C2545 C2544 1.377 . S
C2545 C2551 1.390 . S
C2546 H2537 0.930 . S
C2546 C2544 1.384 . S
C2546 C2547 1.372 . S
C2547 C2546 1.372 . S
C2547 C2548 1.400 . S
C2547 C2552 1.490 . S
C2548 H2538 0.930 . S
C2548 C2547 1.400 . S
C2548 C2551 1.386 . S
H2549 C2565 0.930 . S
H2550 C2566 0.931 . S
C2551 H2539 0.929 . S
C2551 C2545 1.390 . S
C2551 C2548 1.386 . S
C2552 C2547 1.490 . S
C2552 C2554 1.395 . S
C2552 C2555 1.403 . S
H2553 C2559 0.930 . S
C2554 H2540 0.930 . S
C2554 C2552 1.395 . S
C2554 C2557 1.403 . S
C2555 C2552 1.403 . S
C2555 C2556 1.524 1_554 S
C2555 C2559 1.400 1_554 S
C2556 H2541 0.960 . S
C2556 H2542 0.960 1_556 S
C2556 H2543 0.960 . S
C2556 C2555 1.524 1_556 S
C2557 C2554 1.403 . S
C2557 C2558 1.392 1_554 S
C2557 C2561 1.495 . S
C2558 C2557 1.392 1_556 S
C2558 C2559 1.385 . S
C2558 C2560 1.478 . S
C2559 H2553 0.930 . S
C2559 C2555 1.400 1_556 S
C2559 C2558 1.385 . S
C2560 C2558 1.478 . S
C2560 C2562 1.381 . S
C2560 C2566 1.383 . S
C2561 C2557 1.495 . S
C2561 H2567 0.959 . S
C2561 H2568 0.961 . S
C2561 H2569 0.960 . S
C2562 C2560 1.381 . S
C2562 C2563 1.394 . S
C2562 H2570 0.930 1_556 S
C2563 C2562 1.394 . S
C2563 C2564 1.383 . S
C2563 H2571 0.929 . S
C2564 C2563 1.383 . S
C2564 C2565 1.377 . S
C2565 H2549 0.930 . S
C2565 C2564 1.377 . S
C2565 C2566 1.379 . S
C2566 H2550 0.931 . S
C2566 C2560 1.383 . S
C2566 C2565 1.379 . S
H2567 C2561 0.959 . S
H2568 C2561 0.961 . S
H2569 C2561 0.960 . S
H2570 C2562 0.930 1_554 S
H2571 C2563 0.929 . S
H2572 C2580 0.929 . S
H2573 C2582 0.930 . S
H2574 C2584 0.930 . S
H2575 C2587 0.929 . S
H2576 C2590 0.930 . S
H2577 C2592 0.960 . S
H2578 C2592 0.960 . S
H2579 C2592 0.960 . S
C2580 H2572 0.929 . S
C2580 C2581 1.377 . S
C2580 C2582 1.384 . S
C2581 C2580 1.377 . S
C2581 C2587 1.390 . S
C2582 H2573 0.930 . S
C2582 C2580 1.384 . S
C2582 C2583 1.372 . S
C2583 C2582 1.372 . S
C2583 C2584 1.400 . S
C2583 C2588 1.490 . S
C2584 H2574 0.930 . S
C2584 C2583 1.400 . S
C2584 C2587 1.386 . S
H2585 C2601 0.930 . S
H2586 C2602 0.931 . S
C2587 H2575 0.929 . S
C2587 C2581 1.390 . S
C2587 C2584 1.386 . S
C2588 C2583 1.490 . S
C2588 C2590 1.395 . S
C2588 C2591 1.403 . S
H2589 C2595 0.930 . S
C2590 H2576 0.930 . S
C2590 C2588 1.395 . S
C2590 C2593 1.403 1_455 S
C2591 C2588 1.403 . S
C2591 C2592 1.524 . S
C2591 C2595 1.400 1_455 S
C2592 H2577 0.960 . S
C2592 H2578 0.960 . S
C2592 H2579 0.960 . S
C2592 C2591 1.524 . S
C2593 C2590 1.403 1_655 S
C2593 C2594 1.392 . S
C2593 C2597 1.495 . S
C2594 C2593 1.392 . S
C2594 C2595 1.385 . S
C2594 C2596 1.478 . S
C2595 H2589 0.930 . S
C2595 C2591 1.400 1_655 S
C2595 C2594 1.385 . S
C2596 C2594 1.478 . S
C2596 C2598 1.381 . S
C2596 C2602 1.383 . S
C2597 C2593 1.495 . S
C2597 H2603 0.959 . S
C2597 H2604 0.961 . S
C2597 H2605 0.960 . S
C2598 C2596 1.381 . S
C2598 C2599 1.394 . S
C2598 H2606 0.930 . S
C2599 C2598 1.394 . S
C2599 C2600 1.383 . S
C2599 H2607 0.929 . S
C2600 C2599 1.383 . S
C2600 C2601 1.377 . S
C2601 H2585 0.930 . S
C2601 C2600 1.377 . S
C2601 C2602 1.379 . S
C2602 H2586 0.931 . S
C2602 C2596 1.383 . S
C2602 C2601 1.379 . S
H2603 C2597 0.959 . S
H2604 C2597 0.961 . S
H2605 C2597 0.960 . S
H2606 C2598 0.930 . S
H2607 C2599 0.929 . S
H2608 C2616 0.929 . S
H2609 C2618 0.930 . S
H2610 C2620 0.930 . S
H2611 C2623 0.929 . S
H2612 C2626 0.930 . S
H2613 C2628 0.960 . S
H2614 C2628 0.960 . S
H2615 C2628 0.960 1_554 S
C2616 H2608 0.929 . S
C2616 C2617 1.377 . S
C2616 C2618 1.384 . S
C2617 C2616 1.377 . S
C2617 C2623 1.390 . S
C2618 H2609 0.930 . S
C2618 C2616 1.384 . S
C2618 C2619 1.372 . S
C2619 C2618 1.372 . S
C2619 C2620 1.400 . S
C2619 C2624 1.490 . S
C2620 H2610 0.930 . S
C2620 C2619 1.400 . S
C2620 C2623 1.386 . S
H2621 C2637 0.930 . S
H2622 C2638 0.931 . S
C2623 H2611 0.929 . S
C2623 C2617 1.390 . S
C2623 C2620 1.386 . S
C2624 C2619 1.490 . S
C2624 C2626 1.395 . S
C2624 C2627 1.403 1_554 S
H2625 C2631 0.930 . S
C2626 H2612 0.930 . S
C2626 C2624 1.395 . S
C2626 C2629 1.403 1_554 S
C2627 C2624 1.403 1_556 S
C2627 C2628 1.524 . S
C2627 C2631 1.400 . S
C2628 H2613 0.960 . S
C2628 H2614 0.960 . S
C2628 H2615 0.960 1_556 S
C2628 C2627 1.524 . S
C2629 C2626 1.403 1_556 S
C2629 C2630 1.392 . S
C2629 C2633 1.495 . S
C2630 C2629 1.392 . S
C2630 C2631 1.385 . S
C2630 C2632 1.478 . S
C2631 H2625 0.930 . S
C2631 C2627 1.400 . S
C2631 C2630 1.385 . S
C2632 C2630 1.478 . S
C2632 C2634 1.381 . S
C2632 C2638 1.383 . S
C2633 C2629 1.495 . S
C2633 H2639 0.960 1_556 S
C2633 H2640 0.961 . S
C2633 H2641 0.960 . S
C2634 C2632 1.381 . S
C2634 C2635 1.394 . S
C2634 H2642 0.930 . S
C2635 C2634 1.394 . S
C2635 C2636 1.383 . S
C2635 H2643 0.929 . S
C2636 C2635 1.383 . S
C2636 C2637 1.377 . S
C2637 H2621 0.930 . S
C2637 C2636 1.377 . S
C2637 C2638 1.379 . S
C2638 H2622 0.931 . S
C2638 C2632 1.383 . S
C2638 C2637 1.379 . S
H2639 C2633 0.960 1_554 S
H2640 C2633 0.961 . S
H2641 C2633 0.960 . S
H2642 C2634 0.930 . S
H2643 C2635 0.929 . S
H2644 C2652 0.929 . S
H2645 C2654 0.930 . S
H2646 C2656 0.930 . S
H2647 C2659 0.929 . S
H2648 C2662 0.930 . S
H2649 C2664 0.960 . S
H2650 C2664 0.960 . S
H2651 C2664 0.960 . S
C2652 H2644 0.929 . S
C2652 C2653 1.377 . S
C2652 C2654 1.384 . S
C2653 C2652 1.377 . S
C2653 C2659 1.390 . S
C2654 H2645 0.930 . S
C2654 C2652 1.384 . S
C2654 C2655 1.372 . S
C2655 C2654 1.372 . S
C2655 C2656 1.400 . S
C2655 C2660 1.490 . S
C2656 H2646 0.930 . S
C2656 C2655 1.400 . S
C2656 C2659 1.386 . S
H2657 C2673 0.930 . S
H2658 C2674 0.931 . S
C2659 H2647 0.929 . S
C2659 C2653 1.390 . S
C2659 C2656 1.386 . S
C2660 C2655 1.490 . S
C2660 C2662 1.359 1_655 S
C2660 C2663 1.403 . S
H2661 C2667 0.930 . S
C2662 H2648 0.930 . S
C2662 C2660 1.359 1_455 S
C2662 C2665 1.439 . S
C2663 C2660 1.403 . S
C2663 C2664 1.524 . S
C2663 C2667 1.392 . S
C2664 H2649 0.960 . S
C2664 H2650 0.960 . S
C2664 H2651 0.960 . S
C2664 C2663 1.524 . S
C2665 C2662 1.439 . S
C2665 C2666 1.392 . S
C2665 C2669 1.495 . S
C2666 C2665 1.392 . S
C2666 C2667 1.393 1_455 S
C2666 C2668 1.478 . S
C2667 H2661 0.930 . S
C2667 C2663 1.392 . S
C2667 C2666 1.393 1_655 S
C2668 C2666 1.478 . S
C2668 C2670 1.381 . S
C2668 C2674 1.383 . S
C2669 C2665 1.495 . S
C2669 H2675 0.959 . S
C2669 H2676 0.961 . S
C2669 H2677 0.960 . S
C2670 C2668 1.381 . S
C2670 C2671 1.394 . S
C2670 H2678 0.930 . S
C2671 C2670 1.394 . S
C2671 C2672 1.383 . S
C2671 H2679 0.929 . S
C2672 C2671 1.383 . S
C2672 C2673 1.377 . S
C2673 H2657 0.930 . S
C2673 C2672 1.377 . S
C2673 C2674 1.379 . S
C2674 H2658 0.931 . S
C2674 C2668 1.383 . S
C2674 C2673 1.379 . S
H2675 C2669 0.959 . S
H2676 C2669 0.961 . S
H2677 C2669 0.960 . S
H2678 C2670 0.930 . S
H2679 C2671 0.929 . S
H2680 C2688 0.929 . S
H2681 C2690 0.930 . S
H2682 C2692 0.930 . S
H2683 C2695 0.929 . S
H2684 C2698 0.930 . S
H2685 C2700 0.960 . S
H2686 C2700 0.960 . S
H2687 C2700 0.960 . S
C2688 H2680 0.929 . S
C2688 C2689 1.377 . S
C2688 C2690 1.384 . S
C2689 C2688 1.377 . S
C2689 C2695 1.390 . S
C2690 H2681 0.930 . S
C2690 C2688 1.384 . S
C2690 C2691 1.372 . S
C2691 C2690 1.372 . S
C2691 C2692 1.400 . S
C2691 C2696 1.490 . S
C2692 H2682 0.930 . S
C2692 C2691 1.400 . S
C2692 C2695 1.386 . S
H2693 C2709 0.930 . S
H2694 C2710 0.931 . S
C2695 H2683 0.929 . S
C2695 C2689 1.390 . S
C2695 C2692 1.386 . S
C2696 C2691 1.490 . S
C2696 C2698 1.395 . S
C2696 C2699 1.403 . S
H2697 C2703 0.930 . S
C2698 H2684 0.930 . S
C2698 C2696 1.395 . S
C2698 C2701 1.403 . S
C2699 C2696 1.403 . S
C2699 C2700 1.524 . S
C2699 C2703 1.400 . S
C2700 H2685 0.960 . S
C2700 H2686 0.960 . S
C2700 H2687 0.960 . S
C2700 C2699 1.524 . S
C2701 C2698 1.403 . S
C2701 C2702 1.392 . S
C2701 C2705 1.495 . S
C2702 C2701 1.392 . S
C2702 C2703 1.385 . S
C2702 C2704 1.478 . S
C2703 H2697 0.930 . S
C2703 C2699 1.400 . S
C2703 C2702 1.385 . S
C2704 C2702 1.478 . S
C2704 C2706 1.381 . S
C2704 C2710 1.383 . S
C2705 C2701 1.495 . S
C2705 H2711 0.959 . S
C2705 H2712 0.961 . S
C2705 H2713 0.960 . S
C2706 C2704 1.381 . S
C2706 C2707 1.394 . S
C2706 H2714 0.930 . S
C2707 C2706 1.394 . S
C2707 C2708 1.383 . S
C2707 H2715 0.929 . S
C2708 C2707 1.383 . S
C2708 C2709 1.377 . S
C2709 H2693 0.930 . S
C2709 C2708 1.377 . S
C2709 C2710 1.379 . S
C2710 H2694 0.931 . S
C2710 C2704 1.383 . S
C2710 C2709 1.379 . S
H2711 C2705 0.959 . S
H2712 C2705 0.961 . S
H2713 C2705 0.960 . S
H2714 C2706 0.930 . S
H2715 C2707 0.929 . S
H2716 C2724 0.929 . S
H2717 C2726 0.930 . S
H2718 C2728 0.930 . S
H2719 C2731 0.929 . S
H2720 C2734 0.930 . S
H2721 C2736 0.960 . S
H2722 C2736 0.960 . S
H2723 C2736 0.960 . S
C2724 H2716 0.929 . S
C2724 C2725 1.377 . S
C2724 C2726 1.384 . S
C2725 C2724 1.377 . S
C2725 C2731 1.390 . S
C2726 H2717 0.930 . S
C2726 C2724 1.384 . S
C2726 C2727 1.372 . S
C2727 C2726 1.372 . S
C2727 C2728 1.400 . S
C2727 C2732 1.490 . S
C2728 H2718 0.930 . S
C2728 C2727 1.400 . S
C2728 C2731 1.386 . S
H2729 C2745 0.930 . S
H2730 C2746 0.931 . S
C2731 H2719 0.929 . S
C2731 C2725 1.390 . S
C2731 C2728 1.386 . S
C2732 C2727 1.490 . S
C2732 C2734 1.395 . S
C2732 C2735 1.403 . S
H2733 C2739 0.930 . S
C2734 H2720 0.930 . S
C2734 C2732 1.395 . S
C2734 C2737 1.403 . S
C2735 C2732 1.403 . S
C2735 C2736 1.524 . S
C2735 C2739 1.400 . S
C2736 H2721 0.960 . S
C2736 H2722 0.960 . S
C2736 H2723 0.960 . S
C2736 C2735 1.524 . S
C2737 C2734 1.403 . S
C2737 C2738 1.392 . S
C2737 C2741 1.495 . S
C2738 C2737 1.392 . S
C2738 C2739 1.385 . S
C2738 C2740 1.478 . S
C2739 H2733 0.930 . S
C2739 C2735 1.400 . S
C2739 C2738 1.385 . S
C2740 C2738 1.478 . S
C2740 C2742 1.381 . S
C2740 C2746 1.383 . S
C2741 C2737 1.495 . S
C2741 H2747 0.959 . S
C2741 H2748 0.961 . S
C2741 H2749 0.960 . S
C2742 C2740 1.381 . S
C2742 C2743 1.394 . S
C2742 H2750 0.930 . S
C2743 C2742 1.394 . S
C2743 C2744 1.383 . S
C2743 H2751 0.929 . S
C2744 C2743 1.383 . S
C2744 C2745 1.377 . S
C2745 H2729 0.930 . S
C2745 C2744 1.377 . S
C2745 C2746 1.379 . S
C2746 H2730 0.931 . S
C2746 C2740 1.383 . S
C2746 C2745 1.379 . S
H2747 C2741 0.959 . S
H2748 C2741 0.961 . S
H2749 C2741 0.960 . S
H2750 C2742 0.930 . S
H2751 C2743 0.929 . S
C457 C89 1.342 . S
C476 C5 1.328 . S
C493 C19 1.335 . S
C512 C103 1.365 . S
C529 C61 1.341 . S
C548 C33 1.374 . S
C565 C47 1.338 . S
C584 C75 1.304 . S
C601 C201 1.339 . S
C620 C117 1.314 . S
C637 C131 1.339 . S
C656 C215 1.344 . S
C673 C173 1.346 . S
C692 C145 1.346 . S
C709 C159 1.337 . S
C728 C187 1.327 . S
C745 C229 1.347 . S
C764 C313 1.310 . S
C781 C327 1.343 . S
C800 C243 1.332 . S
C817 C257 1.342 . S
C836 C285 1.374 . S
C853 C299 1.330 . S
C872 C271 1.345 . S
C889 C425 1.351 . S
C908 C341 1.372 . S
C925 C439 1.341 . S
C944 C355 1.349 . S
C961 C397 1.340 . S
C980 C369 1.322 . S
C997 C383 1.333 . S
C1016 C411 1.316 . S
C1033 C109 0.928 . S
C1052 C11 0.960 . S
C1069 C67 0.927 . S
C1088 C25 0.972 . S
C1105 C81 0.939 . S
C1124 C39 0.925 . S
C1141 C95 0.927 . S
C1160 C53 0.968 . S
C1177 C221 0.943 . S
C1196 C123 0.970 . S
C1213 C179 0.935 . S
C1232 C137 0.958 . S
C1249 C193 0.943 . S
C1268 C151 0.966 . S
C1285 C165 0.942 . S
C1304 C207 0.944 . S
C1321 C333 0.942 . S
C1340 C235 0.908 . S
C1357 C249 0.934 . S
C1376 C291 0.952 . S
C1393 C263 0.939 . S
C1412 C305 0.926 . S
C1429 C319 0.943 . S
C1448 C277 0.896 . S
C1465 C445 0.939 . S
C1484 C347 0.969 . S
C1501 C361 0.935 . S
C1520 C403 0.907 . S
C1537 C375 0.929 . S
C1556 C417 0.896 . S
C1573 C431 0.931 . S
C1592 C389 0.897 . S
C1609 C12 0.657 . S
C1628 C424 0.612 . S
C1645 C214 0.641 . S
C1664 C26 0.596 . S
C1681 C396 0.668 . S
C1700 C40 0.689 . S
C1717 C186 0.646 . S
C1736 C54 0.624 . S
C1753 C368 0.663 . S
C1772 C68 0.697 . S
C1789 C82 0.637 . S
C1808 C158 0.690 . S
C1825 C96 0.655 . S
C1844 C340 0.707 . S
C1861 C110 0.649 . S
C1880 C130 0.607 . S
C1897 C124 0.648 . S
C1916 C312 0.638 . S
C1933 C102 0.652 . S
C1952 C138 0.676 . S
C1969 C284 0.667 . S
C1988 C152 0.653 . S
C2005 C74 0.644 . S
C2024 C166 0.624 . S
C2041 C256 0.657 . S
C2060 C180 0.673 . S
C2077 C46 0.650 . S
C2096 C194 0.676 . S
C2113 C208 0.650 . S
C2132 C228 0.662 . S
C2149 C18 0.644 . S
C2168 C222 0.630 . S
C2185 C200 0.650 . S
C2204 C236 0.642 . S
C2221 C438 0.665 . S
C2240 C250 0.668 . S
C2257 C264 0.658 . S
C2276 C172 0.615 . S
C2293 C278 0.631 . S
C2312 C410 0.600 . S
C2329 C292 0.663 . S
C2348 C144 0.650 . S
C2365 C306 0.649 . S
C2384 C382 0.607 . S
C2401 C320 0.653 . S
C2420 C116 0.703 . S
C2437 C334 0.630 . S
C2456 C354 0.613 . S
C2473 C88 0.671 . S
C2492 C348 0.688 . S
C2509 C326 0.661 . S
C2528 C362 0.691 . S
C2545 C60 0.658 . S
C2564 C376 0.678 . S
C2581 C390 0.633 . S
C2600 C298 0.657 . S
C2617 C404 0.663 . S
C2636 C32 0.677 . S
C2653 C270 0.659 . S
C2672 C418 0.690 . S
C2689 C432 0.649 . S
C2708 C4 0.611 . S
C2725 C446 0.638 . S
C2744 C242 0.680 . S
