# Generated by pormake.
# Topology wme, (6)-cn, num edge types: 1
# Building blocks:
#     Node 0, Type 0, BuildingBlock: HISSIN_clean_sbu_0, # of connection points: 6
#     Node 1, Type 0, BuildingBlock: HISSIN_clean_sbu_0, # of connection points: 6
#     Node 2, Type 0, BuildingBlock: HISSIN_clean_sbu_0, # of connection points: 6
#     Node 3, Type 0, BuildingBlock: HISSIN_clean_sbu_0, # of connection points: 6
#     Node 4, Type 0, BuildingBlock: HISSIN_clean_sbu_0, # of connection points: 6
#     Node 5, Type 0, BuildingBlock: HISSIN_clean_sbu_0, # of connection points: 6
#     Node 6, Type 0, BuildingBlock: HISSIN_clean_sbu_0, # of connection points: 6
#     Node 7, Type 0, BuildingBlock: HISSIN_clean_sbu_0, # of connection points: 6
#     Node 8, Type 0, BuildingBlock: HISSIN_clean_sbu_0, # of connection points: 6
#     Node 9, Type 0, BuildingBlock: HISSIN_clean_sbu_0, # of connection points: 6
#     Node 10, Type 0, BuildingBlock: HISSIN_clean_sbu_0, # of connection points: 6
#     Node 11, Type 0, BuildingBlock: HISSIN_clean_sbu_0, # of connection points: 6
#     Edge 12, Type (0, 0), BuildingBlock: EZIPEK_clean_linker_0, # of connection points: 2
#     Edge 13, Type (0, 0), BuildingBlock: EZIPEK_clean_linker_0, # of connection points: 2
#     Edge 14, Type (0, 0), BuildingBlock: EZIPEK_clean_linker_0, # of connection points: 2
#     Edge 15, Type (0, 0), BuildingBlock: EZIPEK_clean_linker_0, # of connection points: 2
#     Edge 16, Type (0, 0), BuildingBlock: EZIPEK_clean_linker_0, # of connection points: 2
#     Edge 17, Type (0, 0), BuildingBlock: EZIPEK_clean_linker_0, # of connection points: 2
#     Edge 18, Type (0, 0), BuildingBlock: EZIPEK_clean_linker_0, # of connection points: 2
#     Edge 19, Type (0, 0), BuildingBlock: EZIPEK_clean_linker_0, # of connection points: 2
#     Edge 20, Type (0, 0), BuildingBlock: EZIPEK_clean_linker_0, # of connection points: 2
#     Edge 21, Type (0, 0), BuildingBlock: EZIPEK_clean_linker_0, # of connection points: 2
#     Edge 22, Type (0, 0), BuildingBlock: EZIPEK_clean_linker_0, # of connection points: 2
#     Edge 23, Type (0, 0), BuildingBlock: EZIPEK_clean_linker_0, # of connection points: 2
#     Edge 24, Type (0, 0), BuildingBlock: EZIPEK_clean_linker_0, # of connection points: 2
#     Edge 25, Type (0, 0), BuildingBlock: EZIPEK_clean_linker_0, # of connection points: 2
#     Edge 26, Type (0, 0), BuildingBlock: EZIPEK_clean_linker_0, # of connection points: 2
#     Edge 27, Type (0, 0), BuildingBlock: EZIPEK_clean_linker_0, # of connection points: 2
#     Edge 28, Type (0, 0), BuildingBlock: EZIPEK_clean_linker_0, # of connection points: 2
#     Edge 29, Type (0, 0), BuildingBlock: EZIPEK_clean_linker_0, # of connection points: 2
#     Edge 30, Type (0, 0), BuildingBlock: EZIPEK_clean_linker_0, # of connection points: 2
#     Edge 31, Type (0, 0), BuildingBlock: EZIPEK_clean_linker_0, # of connection points: 2
#     Edge 32, Type (0, 0), BuildingBlock: EZIPEK_clean_linker_0, # of connection points: 2
#     Edge 33, Type (0, 0), BuildingBlock: EZIPEK_clean_linker_0, # of connection points: 2
#     Edge 34, Type (0, 0), BuildingBlock: EZIPEK_clean_linker_0, # of connection points: 2
#     Edge 35, Type (0, 0), BuildingBlock: EZIPEK_clean_linker_0, # of connection points: 2
#     Edge 36, Type (0, 0), BuildingBlock: EZIPEK_clean_linker_0, # of connection points: 2
#     Edge 37, Type (0, 0), BuildingBlock: EZIPEK_clean_linker_0, # of connection points: 2
#     Edge 38, Type (0, 0), BuildingBlock: EZIPEK_clean_linker_0, # of connection points: 2
#     Edge 39, Type (0, 0), BuildingBlock: EZIPEK_clean_linker_0, # of connection points: 2
#     Edge 40, Type (0, 0), BuildingBlock: EZIPEK_clean_linker_0, # of connection points: 2
#     Edge 41, Type (0, 0), BuildingBlock: EZIPEK_clean_linker_0, # of connection points: 2
#     Edge 42, Type (0, 0), BuildingBlock: EZIPEK_clean_linker_0, # of connection points: 2
#     Edge 43, Type (0, 0), BuildingBlock: EZIPEK_clean_linker_0, # of connection points: 2
#     Edge 44, Type (0, 0), BuildingBlock: EZIPEK_clean_linker_0, # of connection points: 2
#     Edge 45, Type (0, 0), BuildingBlock: EZIPEK_clean_linker_0, # of connection points: 2
#     Edge 46, Type (0, 0), BuildingBlock: EZIPEK_clean_linker_0, # of connection points: 2
#     Edge 47, Type (0, 0), BuildingBlock: EZIPEK_clean_linker_0, # of connection points: 2
# Relax obj value: 0.096
# Max RMSD: 0.209
# Mean RMSD: 0.209
data_MOF--net-wme--node1-HISSIN_clean_sbu_0--edge1-EZIPEK_clean_linker_0
_symmetry_space_group_name_H-M    P1
_symmetry_Int_Tables_number       1
_symmetry_cell_setting            triclinic
loop_
_symmetry_equiv_pos_as_xyz
'x, y, z'
_cell_length_a     32.043349
_cell_length_b     32.056018
_cell_length_c     38.658281
_cell_angle_alpha  90.134335
_cell_angle_beta   89.760521
_cell_angle_gamma 119.78149
loop_
_atom_site_label
_atom_site_type_symbol
_atom_site_fract_x
_atom_site_fract_y
_atom_site_fract_z
_atom_type_partial_charge
Eu0 Eu 0.22863 0.3881 0.08846 0.0
Eu1 Eu 0.27304 0.32183 0.12076 0.0
C2 C 0.24357 0.37991 0.17122 0.0
C3 C 0.18635 0.48075 0.07379 0.0
C4 C 0.20359 0.50504 0.10515 0.0
C5 C 0.15792 0.5359 0.05924 0.0
C6 C 0.19945 0.54564 0.11289 0.0
C7 C 0.16192 0.4954 0.05153 0.0
C8 C 0.18091 0.56522 0.08843 0.0
C9 C 0.1911 0.43868 0.06451 0.0
O10 O 0.19167 0.28031 0.1271 0.0
O11 O 0.17186 0.31137 0.08072 0.0
C12 C 0.16008 0.27841 0.10454 0.0
O13 O 0.26744 0.37143 0.04539 0.0
O14 O 0.27415 0.27111 0.15802 0.0
O15 O 0.32051 0.29195 0.11294 0.0
O16 O 0.24859 0.29867 0.06705 0.0
C17 C 0.26625 0.32995 0.0422 0.0
O18 O 0.29974 0.44098 0.11085 0.0
O19 O 0.33647 0.39522 0.10554 0.0
O20 O 0.27742 0.36939 0.16446 0.0
O21 O 0.23401 0.44671 0.05636 0.0
O22 O 0.16791 0.40068 0.08389 0.0
O23 O 0.21587 0.38154 0.14672 0.0
C24 C 0.28424 0.2107 0.13078 0.0
C25 C 0.25557 0.18943 0.10144 0.0
C26 C 0.275 0.13295 0.14641 0.0
C27 C 0.23664 0.14034 0.09474 0.0
C28 C 0.29394 0.18212 0.15313 0.0
C29 C 0.2459 0.11163 0.1173 0.0
C30 C 0.30226 0.26198 0.13882 0.0
C31 C 0.33861 0.4375 0.10751 0.0
H32 H 0.21977 0.4923 0.12385 0.0
H33 H 0.13615 0.54349 0.04195 0.0
H34 H 0.20994 0.55995 0.13858 0.0
H35 H 0.14554 0.47529 0.02813 0.0
H36 H 0.24735 0.21066 0.0839 0.0
H37 H 0.28246 0.11136 0.16413 0.0
H38 H 0.21427 0.12459 0.07217 0.0
H39 H 0.31571 0.19772 0.17598 0.0
Eu40 Eu 0.87666 0.22415 0.59585 0.0
Eu41 Eu 0.98269 0.259 0.63458 0.0
C42 C 0.88986 0.23258 0.68111 0.0
C43 C 0.74255 0.1813 0.57714 0.0
C44 C 0.72966 0.18542 0.61111 0.0
C45 C 0.66071 0.15603 0.55937 0.0
C46 C 0.68299 0.1765 0.61882 0.0
C47 C 0.70716 0.16492 0.55164 0.0
C48 C 0.64843 0.1663 0.59242 0.0
C49 C 0.79092 0.18904 0.56833 0.0
O50 O 0.93852 0.17846 0.63631 0.0
O51 O 0.89648 0.16712 0.58652 0.0
C52 C 0.91238 0.15078 0.61104 0.0
O53 O 0.93674 0.26922 0.55757 0.0
O54 O 1.02406 0.24317 0.67184 0.0
O55 O 0.06085 0.30422 0.63785 0.0
O56 O 0.98906 0.24673 0.57833 0.0
C57 C 0.97668 0.26719 0.55438 0.0
O58 O 0.8952 0.2942 0.61943 0.0
O59 O 0.97731 0.32714 0.62608 0.0
O60 O 0.93685 0.25468 0.6789 0.0
O61 O 0.82553 0.2332 0.56351 0.0
O62 O 0.80523 0.1637 0.58579 0.0
O63 O 0.86203 0.21568 0.65367 0.0
C64 C 0.09792 0.25727 0.64871 0.0
C65 C 0.10596 0.25166 0.61359 0.0
C66 C 0.14843 0.22369 0.66482 0.0
C67 C 0.13567 0.23295 0.60422 0.0
C68 C 0.11907 0.24274 0.67418 0.0
C69 C 0.15716 0.21892 0.6298 0.0
C70 C 0.06532 0.27528 0.65915 0.0
C71 C 0.93832 0.33135 0.62299 0.0
H72 H 0.75538 0.19451 0.63188 0.0
H73 H 0.63451 0.14031 0.53895 0.0
H74 H 0.67476 0.17625 0.64584 0.0
H75 H 0.71515 0.15807 0.52566 0.0
H76 H 0.08931 0.26168 0.5934 0.0
H77 H 0.16496 0.21328 0.68488 0.0
H78 H 0.14227 0.2298 0.57709 0.0
H79 H 0.1128 0.24607 0.70135 0.0
Eu80 Eu 0.67623 0.85177 0.08527 0.0
Eu81 Eu 0.74424 0.96156 0.11643 0.0
C82 C 0.68518 0.87643 0.16787 0.0
C83 C 0.5854 0.71629 0.07008 0.0
C84 C 0.56133 0.70759 0.10199 0.0
C85 C 0.53426 0.63235 0.05459 0.0
C86 C 0.52348 0.66144 0.10996 0.0
C87 C 0.57184 0.67833 0.04662 0.0
C88 C 0.50954 0.62357 0.08619 0.0
C89 C 0.62531 0.76416 0.06077 0.0
O90 O 0.78462 0.92116 0.12476 0.0
O91 O 0.75252 0.86758 0.08009 0.0
C92 C 0.78526 0.88882 0.10408 0.0
O93 O 0.69393 0.90617 0.04182 0.0
O94 O 0.79362 1.01308 0.15407 0.0
O95 O 0.77709 0.03852 0.10686 0.0
O96 O 0.76726 0.95694 0.06297 0.0
C97 C 0.73654 0.9443 0.03785 0.0
O98 O 0.6233 0.87245 0.10512 0.0
O99 O 0.67135 0.95482 0.10533 0.0
O100 O 0.69687 0.92079 0.16067 0.0
O101 O 0.61508 0.7982 0.0553 0.0
O102 O 0.66497 0.77938 0.07815 0.0
O103 O 0.68191 0.84585 0.14362 0.0
C104 C 0.85761 0.08105 0.12742 0.0
C105 C 0.87702 0.0913 0.09369 0.0
C106 C 0.93822 0.12875 0.15068 0.0
C107 C 0.92658 0.12063 0.0886 0.0
C108 C 0.88874 0.0998 0.15579 0.0
C109 C 0.95741 0.13965 0.1171 0.0
C110 C 0.80551 0.04969 0.13363 0.0
C111 C 0.62844 0.91577 0.10558 0.0
H112 H 0.57152 0.73647 0.12049 0.0
H113 H 0.52374 0.60376 0.03579 0.0
H114 H 0.5045 0.65545 0.13432 0.0
H115 H 0.59014 0.68434 0.02196 0.0
H116 H 0.85402 0.07695 0.07126 0.0
H117 H 0.96153 0.14352 0.17293 0.0
H118 H 0.94081 0.1291 0.0625 0.0
H119 H 0.87472 0.09215 0.18197 0.0
Eu120 Eu 0.84008 0.65481 0.58247 0.0
Eu121 Eu 0.79939 0.73054 0.6215 0.0
C122 C 0.83513 0.6726 0.66843 0.0
C123 C 0.89237 0.56831 0.57548 0.0
C124 C 0.87911 0.54521 0.60759 0.0
C125 C 0.93571 0.52589 0.56283 0.0
C126 C 0.89141 0.51027 0.61598 0.0
C127 C 0.92339 0.56075 0.55422 0.0
C128 C 0.91404 0.49493 0.59145 0.0
C129 C 0.87145 0.59703 0.5625 0.0
O130 O 0.87972 0.77806 0.61779 0.0
O131 O 0.90505 0.7285 0.59179 0.0
C132 C 0.91348 0.76947 0.60611 0.0
O133 O 0.81973 0.67456 0.53118 0.0
O134 O 0.78142 0.77517 0.65423 0.0
O135 O 0.76778 0.77056 0.59909 0.0
O136 O 0.80117 0.71303 0.56814 0.0
C137 C 0.80214 0.7027 0.5363 0.0
O138 O 0.75961 0.61156 0.59103 0.0
O139 O 0.73632 0.65486 0.62748 0.0
O140 O 0.82071 0.70444 0.66705 0.0
O141 O 0.82711 0.58285 0.57134 0.0
O142 O 0.89818 0.64367 0.56268 0.0
O143 O 0.8423 0.65116 0.64144 0.0
C144 C 0.79386 0.84587 0.62466 0.0
C145 C 0.78097 0.86631 0.59749 0.0
C146 C 0.85269 0.92607 0.64393 0.0
C147 C 0.80353 0.91616 0.59371 0.0
C148 C 0.83032 0.87623 0.64764 0.0
C149 C 0.83912 0.94621 0.61713 0.0
C150 C 0.77027 0.79306 0.62775 0.0
C151 C 0.72804 0.61513 0.6111 0.0
H152 H 0.85783 0.55287 0.62565 0.0
H153 H 0.96166 0.52353 0.54635 0.0
H154 H 0.88137 0.49436 0.64141 0.0
H155 H 0.93694 0.58074 0.53034 0.0
H156 H 0.75329 0.84372 0.57926 0.0
H157 H 0.87992 0.94899 0.66235 0.0
H158 H 0.79254 0.93135 0.57303 0.0
H159 H 0.84142 0.86159 0.66859 0.0
Eu160 Eu 0.2116 0.83582 0.08996 0.0
Eu161 Eu 0.10534 0.79674 0.12553 0.0
C162 C 0.19432 0.82703 0.17265 0.0
C163 C 0.34562 0.87555 0.07416 0.0
C164 C 0.36366 0.88917 0.10792 0.0
C165 C 0.42034 0.87849 0.05731 0.0
C166 C 0.4099 0.89789 0.11616 0.0
C167 C 0.37424 0.86996 0.04906 0.0
C168 C 0.4387 0.89283 0.09085 0.0
C169 C 0.29823 0.86911 0.06413 0.0
O170 O 0.14718 0.87888 0.12623 0.0
O171 O 0.1895 0.89022 0.07695 0.0
C172 C 0.17061 0.9064 0.09964 0.0
O173 O 0.15388 0.79066 0.04991 0.0
O174 O 0.06029 0.80657 0.16345 0.0
O175 O 1.02783 0.74722 0.12771 0.0
O176 O 0.09729 0.80797 0.06986 0.0
C177 C 0.11258 0.78993 0.04605 0.0
O178 O 0.19494 0.7665 0.11478 0.0
O179 O 0.11258 0.7305 0.11343 0.0
O180 O 0.15072 0.79206 0.16681 0.0
O181 O 0.26334 0.82523 0.05925 0.0
O182 O 0.28375 0.8955 0.08021 0.0
O183 O 0.22117 0.85527 0.14734 0.0
C184 C 0.98509 0.78719 0.14067 0.0
C185 C 0.9976 0.82409 0.11641 0.0
C186 C 0.90701 0.78107 0.14778 0.0
C187 C 0.96602 0.84113 0.10921 0.0
C188 C 0.93938 0.76525 0.15592 0.0
C189 C 0.92051 0.81996 0.12501 0.0
C190 C 1.02025 0.77264 0.15049 0.0
C191 C 0.15246 0.72787 0.11411 0.0
H192 H 0.34235 0.89381 0.12775 0.0
H193 H 0.44199 0.87446 0.03742 0.0
H194 H 0.42342 0.909 0.14215 0.0
H195 H 0.36117 0.85964 0.02287 0.0
H196 H 1.0321 0.84011 0.10342 0.0
H197 H 0.87194 0.76399 0.16005 0.0
H198 H 0.97713 0.87092 0.09145 0.0
H199 H 0.92894 0.73633 0.17437 0.0
Eu200 Eu 0.40655 0.19526 0.59112 0.0
Eu201 Eu 0.33475 0.08342 0.62394 0.0
C202 C 0.39293 0.17446 0.67521 0.0
C203 C 0.49502 0.33134 0.58095 0.0
C204 C 0.49571 0.34923 0.61441 0.0
C205 C 0.56744 0.40644 0.56687 0.0
C206 C 0.53165 0.39549 0.62381 0.0
C207 C 0.53146 0.36026 0.55743 0.0
C208 C 0.5675 0.42451 0.59997 0.0
C209 C 0.4551 0.28431 0.56939 0.0
O210 O 0.2917 0.12137 0.62669 0.0
O211 O 0.32923 0.17586 0.58302 0.0
C212 C 0.29361 0.15357 0.60499 0.0
O213 O 0.39604 0.14173 0.54893 0.0
O214 O 0.2863 0.02993 0.66172 0.0
O215 O 0.29491 1.00701 0.6113 0.0
O216 O 0.32127 0.08785 0.56788 0.0
C217 C 0.35552 0.10125 0.54495 0.0
O218 O 0.45982 0.17349 0.60613 0.0
O219 O 0.4111 0.09274 0.62033 0.0
O220 O 0.35931 0.1294 0.67114 0.0
O221 O 0.46538 0.25121 0.56017 0.0
O222 O 0.41518 0.26673 0.58708 0.0
O223 O 0.4168 0.20283 0.64917 0.0
C224 C 0.21766 0.96421 0.63596 0.0
C225 C 0.19066 0.98253 0.62011 0.0
C226 C 0.14466 0.88634 0.64113 0.0
C227 C 0.14107 0.95292 0.61474 0.0
C228 C 0.19423 0.91591 0.64639 0.0
C229 C 0.1177 0.9045 0.62512 0.0
C230 C 0.27045 0.99427 0.63993 0.0
C231 C 0.45377 0.13098 0.61371 0.0
H232 H 0.46807 0.32789 0.63311 0.0
H233 H 0.59494 0.42837 0.54819 0.0
H234 H 0.53124 0.40887 0.6495 0.0
H235 H 0.53158 0.34743 0.5315 0.0
H236 H 0.20808 1.01959 0.61162 0.0
H237 H 0.12735 0.84914 0.64933 0.0
H238 H 0.12094 0.96768 0.60242 0.0
H239 H 0.21438 0.9009 0.65833 0.0
Eu240 Eu 0.67602 0.833 0.39706 0.0
Eu241 Eu 0.74547 0.7983 0.35727 0.0
C242 C 0.68188 0.82545 0.31178 0.0
C243 C 0.58463 0.87506 0.41532 0.0
C244 C 0.58482 0.89437 0.38261 0.0
C245 C 0.51093 0.87572 0.42959 0.0
C246 C 0.54849 0.90454 0.3736 0.0
C247 C 0.54738 0.86582 0.43867 0.0
C248 C 0.51121 0.89518 0.39702 0.0
C249 C 0.62346 0.86555 0.42585 0.0
O250 O 0.78152 0.87977 0.35564 0.0
O251 O 0.75253 0.89064 0.40663 0.0
C252 C 0.78417 0.90755 0.38152 0.0
O253 O 0.69068 0.78694 0.43486 0.0
O254 O 0.80313 0.81552 0.31998 0.0
O255 O 0.77818 0.75264 0.35208 0.0
O256 O 0.76476 0.80995 0.41322 0.0
C257 C 0.73232 0.78833 0.43722 0.0
O258 O 0.62263 0.76198 0.37609 0.0
O259 O 0.67152 0.72957 0.3646 0.0
O260 O 0.69921 0.79641 0.31455 0.0
O261 O 0.61297 0.82077 0.42759 0.0
O262 O 0.6656 0.89276 0.41208 0.0
O263 O 0.67629 0.84773 0.33888 0.0
C264 C 0.86241 0.79986 0.3438 0.0
C265 C 0.8753 0.7668 0.35663 0.0
C266 C 0.94462 0.86437 0.35336 0.0
C267 C 0.92256 0.78229 0.3672 0.0
C268 C 0.89744 0.84899 0.34295 0.0
C269 C 0.95768 0.83108 0.36503 0.0
C270 C 0.81248 0.78309 0.33209 0.0
C271 C 0.62826 0.72501 0.36952 0.0
H272 H 0.61308 0.9017 0.36405 0.0
H273 H 0.48233 0.86801 0.44792 0.0
H274 H 0.54915 0.9193 0.34829 0.0
H275 H 0.54653 0.851 0.464 0.0
H276 H 0.84899 0.72886 0.35796 0.0
H277 H 0.97136 0.9021 0.3513 0.0
H278 H 0.93217 0.75606 0.37589 0.0
H279 H 0.88873 0.87562 0.33371 0.0
Eu280 Eu 0.87412 0.66554 0.89269 0.0
Eu281 Eu 0.98034 0.73455 0.85734 0.0
C282 C 0.89205 0.67602 0.80965 0.0
C283 C 0.73932 0.57173 0.90735 0.0
C284 C 0.72219 0.56656 0.87325 0.0
C285 C 0.66359 0.50154 0.92406 0.0
C286 C 0.67607 0.52923 0.8647 0.0
C287 C 0.70963 0.53879 0.93259 0.0
C288 C 0.64635 0.49648 0.89009 0.0
C289 C 0.78686 0.61217 0.91758 0.0
O290 O 0.9362 0.77218 0.85826 0.0
O291 O 0.89592 0.74128 0.90805 0.0
C292 C 0.91549 0.77707 0.88617 0.0
O293 O 0.93178 0.67846 0.933 0.0
O294 O 1.02276 0.79205 0.82051 0.0
O295 O 0.05861 0.7673 0.855 0.0
O296 O 0.98758 0.75237 0.91331 0.0
C297 C 0.97283 0.71905 0.93688 0.0
O298 O 0.89362 0.6135 0.86951 0.0
O299 O 0.97601 0.66209 0.86817 0.0
O300 O 0.93595 0.68497 0.81523 0.0
O301 O 0.82167 0.60282 0.92238 0.0
O302 O 0.8016 0.65308 0.90179 0.0
O303 O 0.8651 0.67658 0.83537 0.0
C304 C 0.09552 0.85108 0.84465 0.0
C305 C 0.09677 0.86492 0.8794 0.0
C306 C 0.15208 0.9342 0.8299 0.0
C307 C 0.1259 0.91299 0.88934 0.0
C308 C 0.12299 0.8862 0.81997 0.0
C309 C 0.15391 0.94791 0.86464 0.0
C310 C 0.06366 0.80088 0.83362 0.0
C311 C 0.93701 0.61898 0.86918 0.0
H312 H 0.74421 0.59165 0.85335 0.0
H313 H 0.64127 0.47669 0.94402 0.0
H314 H 0.66346 0.52594 0.83834 0.0
H315 H 0.7219 0.54219 0.95906 0.0
H316 H 0.07536 0.83858 0.89887 0.0
H317 H 0.1738 0.96062 0.81056 0.0
H318 H 0.12728 0.9228 0.91631 0.0
H319 H 0.12203 0.87644 0.79301 0.0
Eu320 Eu 0.23333 0.85499 0.40069 0.0
Eu321 Eu 0.27365 0.96253 0.36154 0.0
C322 C 0.24423 0.86872 0.31583 0.0
C323 C 0.19173 0.72241 0.41868 0.0
C324 C 0.19197 0.71037 0.38387 0.0
C325 C 0.17642 0.64284 0.43461 0.0
C326 C 0.18586 0.66533 0.37462 0.0
C327 C 0.18228 0.68768 0.44387 0.0
C328 C 0.1827 0.63192 0.39999 0.0
C329 C 0.19787 0.76958 0.42886 0.0
O330 O 0.19287 0.92587 0.36138 0.0
O331 O 0.17282 0.87118 0.40519 0.0
C332 C 0.16092 0.89348 0.38226 0.0
O333 O 0.27884 0.91466 0.43882 0.0
O334 O 0.26252 1.00554 0.32273 0.0
O335 O 0.32173 0.04023 0.35844 0.0
O336 O 0.26009 0.9691 0.41722 0.0
C337 C 0.27969 0.95601 0.4412 0.0
O338 O 0.30389 0.87061 0.37914 0.0
O339 O 0.33934 0.95269 0.37012 0.0
O340 O 0.26889 0.9156 0.31788 0.0
O341 O 0.24171 0.80436 0.43406 0.0
O342 O 0.17253 0.78401 0.41163 0.0
O343 O 0.22513 0.84051 0.34296 0.0
C344 C 0.27895 0.081 0.34473 0.0
C345 C 0.27973 0.09667 0.37879 0.0
C346 C 0.24348 0.12881 0.32656 0.0
C347 C 0.26482 0.13016 0.3862 0.0
C348 C 0.25885 0.09596 0.31902 0.0
C349 C 0.25103 0.15108 0.35951 0.0
C350 C 0.29501 0.04618 0.33598 0.0
C351 C 0.34189 0.91283 0.37404 0.0
H352 H 0.19604 0.73555 0.36368 0.0
H353 H 0.16646 0.61676 0.45514 0.0
H354 H 0.18225 0.65752 0.34741 0.0
H355 H 0.17888 0.69498 0.47081 0.0
H356 H 0.2912 0.08259 0.39988 0.0
H357 H 0.2253 0.13608 0.306 0.0
H358 H 0.26319 0.13771 0.41315 0.0
H359 H 0.25438 0.08171 0.293 0.0
Eu360 Eu 0.40794 0.21813 0.90367 0.0
Eu361 Eu 0.34208 0.26182 0.87032 0.0
C362 C 0.39369 0.22553 0.81814 0.0
C363 C 0.50345 0.18 0.91469 0.0
C364 C 0.50712 0.16818 0.88014 0.0
C365 C 0.57497 0.17559 0.92867 0.0
C366 C 0.54394 0.15922 0.87014 0.0
C367 C 0.53793 0.18414 0.93874 0.0
C368 C 0.57788 0.16256 0.89442 0.0
C369 C 0.46205 0.18443 0.92655 0.0
O370 O 0.29516 0.18011 0.87154 0.0
O371 O 0.33287 0.15799 0.91163 0.0
C372 C 0.29679 0.14733 0.891 0.0
O373 O 0.36903 0.2302 0.94842 0.0
O374 O 0.29938 0.28156 0.83688 0.0
O375 O 0.297 0.28769 0.89269 0.0
O376 O 0.37545 0.29429 0.9207 0.0
C377 C 0.36404 0.26826 0.94835 0.0
O378 O 0.45935 0.29719 0.89552 0.0
O379 O 0.41795 0.32333 0.8607 0.0
O380 O 0.36845 0.24733 0.82143 0.0
O381 O 0.46958 0.22733 0.93427 0.0
O382 O 0.42218 0.15913 0.90957 0.0
O383 O 0.40963 0.21133 0.84471 0.0
C384 C 0.22578 0.26775 0.86369 0.0
C385 C 0.20536 0.28823 0.8852 0.0
C386 C 0.14534 0.2041 0.84865 0.0
C387 C 0.15553 0.26712 0.88833 0.0
C388 C 0.19543 0.22524 0.84559 0.0
C389 C 0.12515 0.22512 0.86996 0.0
C390 C 0.27859 0.2897 0.86321 0.0
C391 C 0.45769 0.32994 0.87601 0.0
H392 H 0.48096 0.16484 0.86105 0.0
H393 H 0.60098 0.1784 0.94769 0.0
H394 H 0.54576 0.14928 0.84361 0.0
H395 H 0.53562 0.19302 0.96548 0.0
H396 H 0.22809 0.32044 0.89994 0.0
H397 H 0.12232 0.17153 0.83441 0.0
H398 H 0.14061 0.28366 0.90504 0.0
H399 H 0.21034 0.2082 0.8294 0.0
Eu400 Eu 0.2132 0.392 0.39866 0.0
Eu401 Eu 0.10317 0.32376 0.36325 0.0
C402 C 0.19598 0.38304 0.31491 0.0
C403 C 0.3485 0.48264 0.41256 0.0
C404 C 0.36383 0.48598 0.37799 0.0
C405 C 0.42686 0.5507 0.42704 0.0
C406 C 0.41036 0.5214 0.3681 0.0
C407 C 0.38051 0.51521 0.43695 0.0
C408 C 0.44221 0.55428 0.39253 0.0
C409 C 0.30019 0.44455 0.42399 0.0
O410 O 0.14177 0.28136 0.35948 0.0
O411 O 0.19689 0.31508 0.40278 0.0
C412 C 0.17405 0.28084 0.37983 0.0
O413 O 0.15689 0.37574 0.44045 0.0
O414 O 0.05581 0.27031 0.32538 0.0
O415 O 1.02513 0.29262 0.36625 0.0
O416 O 0.10096 0.3033 0.41868 0.0
C417 C 0.116 0.3351 0.44351 0.0
O418 O 0.19356 0.44355 0.37482 0.0
O419 O 0.11087 0.39738 0.37495 0.0
O420 O 0.14945 0.36614 0.31843 0.0
O421 O 0.26647 0.45592 0.42688 0.0
O422 O 0.28417 0.40213 0.41032 0.0
O423 O 0.22502 0.39096 0.34119 0.0
C424 C 0.98355 0.20979 0.3508 0.0
C425 C 0.97839 0.19271 0.38502 0.0
C426 C 0.92726 0.12826 0.33186 0.0
C427 C 0.94771 0.14386 0.39253 0.0
C428 C 0.95781 0.17701 0.32436 0.0
C429 C 0.92193 0.11124 0.36596 0.0
C430 C 1.01672 0.26104 0.34209 0.0
C431 C 0.15078 0.43955 0.37497 0.0
H432 H 0.33986 0.46124 0.35867 0.0
H433 H 0.45066 0.5758 0.44627 0.0
H434 H 0.4213 0.52368 0.3413 0.0
H435 H 0.36963 0.5132 0.46375 0.0
H436 H 0.99805 0.21706 0.40596 0.0
H437 H 0.90749 0.10374 0.31104 0.0
H438 H 0.94383 0.13155 0.41903 0.0
H439 H 0.96138 0.18915 0.29783 0.0
Eu440 Eu 0.85211 0.2037 0.90656 0.0
Eu441 Eu 0.81252 0.09368 0.87421 0.0
C442 C 0.84278 0.18374 0.82344 0.0
C443 C 0.89359 0.33841 0.91843 0.0
C444 C 0.91812 0.35804 0.88709 0.0
C445 C 0.88831 0.41095 0.92761 0.0
C446 C 0.92816 0.40398 0.87641 0.0
C447 C 0.87858 0.36525 0.9384 0.0
C448 C 0.91346 0.43093 0.89664 0.0
C449 C 0.88428 0.29082 0.93121 0.0
O450 O 0.88873 0.12283 0.89406 0.0
O451 O 0.91553 0.20208 0.88335 0.0
C452 C 0.92387 0.16638 0.88705 0.0
O453 O 0.842 0.15094 0.95001 0.0
O454 O 0.80842 0.04009 0.83695 0.0
O455 O 0.77475 1.01754 0.88717 0.0
O456 O 0.77684 0.09232 0.92365 0.0
C457 C 0.80262 0.10865 0.9513 0.0
O458 O 0.77298 0.17372 0.89821 0.0
O459 O 0.75087 0.10729 0.86285 0.0
O460 O 0.83709 0.14055 0.82746 0.0
O461 O 0.83952 0.25685 0.93344 0.0
O462 O 0.91188 0.27471 0.91962 0.0
O463 O 0.84352 0.21107 0.84927 0.0
C464 C 0.80948 0.97415 0.86361 0.0
C465 C 0.84604 0.98642 0.88814 0.0
C466 C 0.81284 0.90186 0.84953 0.0
C467 C 0.86571 0.95653 0.89338 0.0
C468 C 0.79311 0.93177 0.8443 0.0
C469 C 0.84919 0.91404 0.87416 0.0
C470 C 0.78742 1.00461 0.85884 0.0
C471 C 0.7421 0.13917 0.87802 0.0
H472 H 0.92992 0.33813 0.871 0.0
H473 H 0.87665 0.43103 0.94364 0.0
H474 H 0.94763 0.41866 0.85246 0.0
H475 H 0.85963 0.351 0.96259 0.0
H476 H 0.85909 1.0189 0.90342 0.0
H477 H 0.79969 0.86918 0.8345 0.0
H478 H 0.89368 0.9664 0.91253 0.0
H479 H 0.76484 0.92165 0.82537 0.0
C480 C 0.2198 0.99247 0.07637 0.0
C481 C 0.18252 0.95854 0.09834 0.0
C482 C 0.18157 1.02588 0.12881 0.0
C483 C 0.22385 0.05891 0.11071 0.0
N484 N 0.28648 0.07358 0.06968 0.0
N485 N 0.11426 0.94468 0.13309 0.0
C486 C 0.24379 0.04216 0.08512 0.0
C487 C 0.15954 0.97571 0.12132 0.0
N488 N 0.22897 0.97835 0.04522 0.0
N489 N 0.16295 0.04247 0.15367 0.0
H490 H 0.09465 0.90954 0.12414 0.0
H491 H 0.09344 0.9549 0.14763 0.0
H492 H 0.1763 0.07895 0.15849 0.0
H493 H 0.13617 1.0203 0.17102 0.0
H494 H 0.25376 1.00216 0.02739 0.0
H495 H 0.20606 0.9449 0.03436 0.0
H496 H 0.3057 0.0625 0.054 0.0
H497 H 0.30487 0.11035 0.07498 0.0
C498 C 0.21005 0.1413 0.59863 0.0
C499 C 0.25857 0.17068 0.60887 0.0
C500 C 0.24154 0.23421 0.62654 0.0
C501 C 0.19197 0.20278 0.62034 0.0
N502 N 0.12759 0.12484 0.60323 0.0
N503 N 0.31924 0.24196 0.63751 0.0
C504 C 0.17576 0.15588 0.60692 0.0
C505 C 0.27403 0.2164 0.62402 0.0
N506 N 0.19717 0.10017 0.5803 0.0
N507 N 0.2578 0.28152 0.63406 0.0
H508 H 0.34411 0.23009 0.63625 0.0
H509 H 0.33065 0.2727 0.65258 0.0
H510 H 0.23513 0.29612 0.63587 0.0
H511 H 0.29413 0.30728 0.63521 0.0
H512 H 0.16347 0.07938 0.56915 0.0
H513 H 0.22166 0.08891 0.57379 0.0
H514 H 0.11314 0.08864 0.59706 0.0
H515 H 0.10162 0.1345 0.60871 0.0
C516 C 1.02585 0.22396 0.11893 0.0
C517 C 1.0093 0.17475 0.11214 0.0
C518 C 0.09171 0.19368 0.09788 0.0
C519 C 0.1086 0.24192 0.10822 0.0
N520 N 0.0929 0.30159 0.13376 0.0
N521 N 1.02595 0.11111 0.09814 0.0
C522 C 0.07596 0.25667 0.12013 0.0
C523 C 1.04208 0.15908 0.10231 0.0
N524 N 0.99354 0.23974 0.12313 0.0
N525 N 0.12281 0.18137 0.08289 0.0
H526 H 0.9898 0.08499 0.10064 0.0
H527 H 0.04859 0.09685 0.09451 0.0
H528 H 0.15943 0.20568 0.07983 0.0
H529 H 0.11195 0.14821 0.07129 0.0
H530 H 1.00341 0.27594 0.12429 0.0
H531 H 0.9564 0.21693 0.12218 0.0
H532 H 0.07127 0.31244 0.14661 0.0
H533 H 0.12933 0.32677 0.13503 0.0
C534 C 0.89516 1.02692 0.59112 0.0
C535 C 0.85888 0.99882 0.6156 0.0
C536 C 0.86113 0.07094 0.63887 0.0
C537 C 0.89484 0.0987 0.61276 0.0
N538 N 0.94039 0.10355 0.56161 0.0
N539 N 0.80137 0.99193 0.65891 0.0
C540 C 0.91073 0.07678 0.58806 0.0
C541 C 0.84034 1.02026 0.63852 0.0
N542 N 0.91565 1.00615 0.57164 0.0
N543 N 0.84893 0.09296 0.6641 0.0
H544 H 0.78515 0.95456 0.65967 0.0
H545 H 0.78246 1.00489 0.67301 0.0
H546 H 0.86054 0.12957 0.66416 0.0
H547 H 0.82976 0.07553 0.68631 0.0
H548 H 0.94567 1.02544 0.55591 0.0
H549 H 0.90475 0.96965 0.57313 0.0
H550 H 0.94882 0.08879 0.54055 0.0
H551 H 0.95448 0.1406 0.55957 0.0
C552 C 0.87172 0.85602 0.14763 0.0
C553 C 0.8877 0.83974 0.11907 0.0
C554 C 0.84418 0.86504 0.0802 0.0
C555 C 0.82191 0.8736 0.10916 0.0
N556 N 0.80564 0.86302 0.17079 0.0
N557 N 0.88088 0.8201 0.05816 0.0
C558 C 0.83329 0.86536 0.14306 0.0
C559 C 0.87164 0.8418 0.08526 0.0
N560 N 0.89379 0.86367 0.17902 0.0
N561 N 0.84082 0.88066 0.04806 0.0
H562 H 0.89925 0.80108 0.06095 0.0
H563 H 0.866 0.81682 0.0337 0.0
H564 H 0.82361 0.90043 0.04368 0.0
H565 H 0.85985 0.8789 0.0267 0.0
H566 H 0.88584 0.87952 0.19971 0.0
H567 H 0.92356 0.85933 0.18316 0.0
H568 H 0.81061 0.85316 0.19545 0.0
H569 H 0.77406 0.86453 0.16847 0.0
C570 C 0.99676 0.8219 0.58153 0.0
C571 C 0.96496 0.80759 0.6104 0.0
C572 C 1.03236 0.86318 0.6474 0.0
C573 C 0.06485 0.87264 0.61955 0.0
N574 N 0.07905 0.85673 0.56099 0.0
N575 N 0.95417 0.8098 0.67227 0.0
C576 C 0.04731 0.85087 0.58681 0.0
C577 C 0.9831 0.82725 0.64371 0.0
N578 N 0.97848 0.8094 0.54885 0.0
N579 N 0.04854 0.88903 0.67734 0.0
H580 H 0.91835 0.78273 0.67132 0.0
H581 H 0.96675 0.81894 0.69749 0.0
H582 H 0.08446 0.91495 0.68121 0.0
H583 H 1.02583 0.88787 0.69713 0.0
H584 H 0.99932 0.82256 0.52654 0.0
H585 H 0.94167 0.78973 0.54387 0.0
H586 H 0.06888 0.83738 0.53793 0.0
H587 H 0.11619 0.87832 0.56365 0.0
C588 C 0.08054 0.87591 0.40771 0.0
C589 C 0.10902 0.87925 0.37821 0.0
C590 C 1.03722 0.84837 0.3412 0.0
C591 C 1.00939 0.84664 0.37027 0.0
N592 N 1.00314 0.86078 0.43064 0.0
N593 N 0.11492 0.87403 0.31583 0.0
C594 C 1.03063 0.86073 0.40347 0.0
C595 C 0.08754 0.86728 0.34472 0.0
N596 N 0.10147 0.88818 0.43965 0.0
N597 N 1.01498 0.82957 0.31027 0.0
H598 H 0.14979 0.87981 0.31611 0.0
H599 H 0.10343 0.87582 0.29101 0.0
H600 H 0.97843 0.81644 0.30607 0.0
H601 H 1.03175 0.82332 0.28938 0.0
H602 H 0.08245 0.88091 0.46279 0.0
H603 H 0.13855 0.90552 0.44332 0.0
H604 H 1.01639 0.87431 0.45509 0.0
H605 H 0.96647 0.84883 0.42837 0.0
C606 C 0.23797 1.01116 0.87847 0.0
C607 C 0.18901 0.99801 0.87531 0.0
C608 C 0.20949 0.0811 0.88892 0.0
C609 C 0.25922 0.09557 0.88707 0.0
N610 N 0.32041 0.07417 0.87405 0.0
N611 N 0.12732 1.02007 0.87551 0.0
C612 C 0.27338 0.06049 0.88057 0.0
C613 C 0.17444 0.03286 0.88013 0.0
N614 N 0.25075 0.97632 0.8798 0.0
N615 N 0.19571 0.11287 0.90029 0.0
H616 H 0.10068 0.98487 0.87012 0.0
H617 H 0.11513 0.04471 0.87484 0.0
H618 H 0.22025 0.148 0.90762 0.0
H619 H 0.16016 0.10333 0.90548 0.0
H620 H 0.28523 0.98339 0.88614 0.0
H621 H 0.2259 0.93971 0.87794 0.0
H622 H 0.33162 0.05071 0.86494 0.0
H623 H 0.3479 0.10969 0.87395 0.0
C624 C 0.19718 0.23076 0.34114 0.0
C625 C 0.18929 0.24369 0.37492 0.0
C626 C 0.23694 0.20932 0.39875 0.0
C627 C 0.23971 0.19181 0.36549 0.0
N628 N 0.25531 0.22187 0.30721 0.0
N629 N 0.19287 0.23388 0.4366 0.0
C630 C 0.22927 0.21278 0.33703 0.0
C631 C 0.2066 0.22955 0.40392 0.0
N632 N 0.17372 0.23379 0.31267 0.0
N633 N 0.27006 0.21602 0.42333 0.0
H634 H 0.16809 0.24537 0.4414 0.0
H635 H 0.20156 0.22047 0.45829 0.0
H636 H 0.30086 0.21422 0.41715 0.0
H637 H 0.2719 0.23208 0.44719 0.0
H638 H 0.17678 0.22076 0.28859 0.0
H639 H 0.14697 0.243 0.31305 0.0
H640 H 0.25095 0.23931 0.28601 0.0
H641 H 0.28519 0.21705 0.30558 0.0
C642 C 0.04631 0.21031 0.84534 0.0
C643 C 0.07214 0.2043 0.87278 0.0
C644 C 1.00081 0.17356 0.90999 0.0
C645 C 0.97388 0.17595 0.88179 0.0
N646 N 0.9685 0.1876 0.8207 0.0
N647 N 0.07153 0.17081 0.92867 0.0
C648 C 0.99591 0.19152 0.84883 0.0
C649 C 0.04847 0.18268 0.90427 0.0
N650 N 0.07023 0.23598 0.8166 0.0
N651 N 0.98223 0.16606 0.94266 0.0
H652 H 0.10648 0.177 0.92524 0.0
H653 H 0.05446 0.15085 0.95072 0.0
H654 H 0.94887 0.16277 0.94785 0.0
H655 H 1.00184 0.1685 0.96474 0.0
H656 H 0.05425 0.24647 0.79769 0.0
H657 H 0.10711 0.25033 0.81293 0.0
H658 H 0.98168 0.19403 0.79545 0.0
H659 H 0.93141 0.17349 0.82221 0.0
C660 C 0.83736 0.04371 0.37471 0.0
C661 C 0.88727 0.05955 0.37365 0.0
C662 C 0.8697 0.97638 0.38337 0.0
C663 C 0.81976 0.96004 0.38022 0.0
N664 N 0.75612 0.97755 0.36837 0.0
N665 N 0.95179 0.04147 0.37512 0.0
C666 C 0.80358 0.99359 0.37497 0.0
C667 C 0.90372 1.02602 0.37771 0.0
N668 N 0.82223 0.07677 0.37609 0.0
N669 N 0.88442 0.94459 0.39264 0.0
H670 H 0.97764 0.07757 0.37193 0.0
H671 H 0.96594 1.01847 0.37405 0.0
H672 H 0.86047 0.90814 0.39678 0.0
H673 H 0.91977 0.95468 0.39883 0.0
H674 H 0.78671 0.06777 0.38078 0.0
H675 H 0.8459 0.11377 0.37572 0.0
H676 H 0.74298 0.99977 0.36024 0.0
H677 H 0.73025 0.94126 0.36785 0.0
C678 C 0.87357 0.81924 0.91377 0.0
C679 C 0.90739 0.81946 0.88966 0.0
C680 C 0.90956 0.88809 0.8597 0.0
C681 C 0.87008 0.88226 0.88007 0.0
N682 N 0.81252 0.8411 0.92565 0.0
N683 N 0.97487 0.87099 0.85348 0.0
C684 C 0.85172 0.8477 0.90704 0.0
C685 C 0.93049 0.85881 0.86641 0.0
N686 N 0.86613 0.79614 0.94476 0.0
N687 N 0.92621 0.9207 0.83326 0.0
H688 H 0.99406 0.85454 0.86195 0.0
H689 H 0.99557 0.9015 0.83857 0.0
H690 H 0.91294 0.94393 0.82827 0.0
H691 H 0.9508 0.92246 0.8148 0.0
H692 H 0.84433 0.79744 0.96429 0.0
H693 H 0.8879 0.78272 0.95342 0.0
H694 H 0.79386 0.81252 0.94266 0.0
H695 H 0.79627 0.86205 0.92213 0.0
C696 C 0.14512 0.66167 0.07605 0.0
C697 C 0.15217 0.68167 0.10969 0.0
C698 C 0.1952 0.63901 0.12551 0.0
C699 C 0.18066 0.61255 0.09402 0.0
N700 N 0.1781 0.63067 0.03389 0.0
N701 N 0.18034 0.68587 0.1679 0.0
C702 C 0.16528 0.63233 0.06737 0.0
C703 C 0.17566 0.66876 0.13495 0.0
N704 N 0.12017 0.67138 0.05191 0.0
N705 N 0.23508 0.64473 0.14223 0.0
H706 H 0.16643 0.70781 0.17556 0.0
H707 H 0.19384 0.67441 0.188 0.0
H708 H 0.25844 0.63504 0.13052 0.0
H709 H 0.24957 0.66668 0.16387 0.0
H710 H 0.11087 0.65427 0.02791 0.0
H711 H 0.10475 0.69265 0.05711 0.0
H712 H 0.17213 0.64859 0.01373 0.0
H713 H 0.20101 0.61741 0.02743 0.0
C714 C 0.56743 0.15514 0.57081 0.0
C715 C 0.59863 0.16148 0.59892 0.0
C716 C 0.53017 0.14066 0.63846 0.0
C717 C 0.49841 0.12756 0.61009 0.0
N718 N 0.4863 0.11456 0.5488 0.0
N719 N 0.61112 0.19501 0.65642 0.0
C720 C 0.51697 0.13175 0.57621 0.0
C721 C 0.58081 0.16312 0.63255 0.0
N722 N 0.58609 0.17957 0.54065 0.0
N723 N 0.51201 0.13295 0.67121 0.0
H724 H 0.64518 0.22267 0.64938 0.0
H725 H 0.59972 0.20017 0.68053 0.0
H726 H 0.4751 0.11611 0.6758 0.0
H727 H 0.53305 0.13843 0.69309 0.0
H728 H 0.56478 0.17986 0.52044 0.0
H729 H 0.62244 0.20524 0.53822 0.0
H730 H 0.49795 0.11358 0.52373 0.0
H731 H 0.44908 0.09688 0.55204 0.0
C732 C 0.4679 0.54251 0.11615 0.0
C733 C 0.46632 0.57567 0.09258 0.0
C734 C 0.38557 0.51455 0.07474 0.0
C735 C 0.38454 0.48314 0.1011 0.0
N736 N 0.42269 0.46969 0.15008 0.0
N737 N 0.4199 0.59645 0.05462 0.0
C738 C 0.4253 0.49763 0.12261 0.0
C739 C 0.42402 0.56258 0.07341 0.0
N740 N 0.51033 0.55346 0.13173 0.0
N741 N 0.35077 0.49795 0.04989 0.0
H742 H 0.44708 0.63231 0.05317 0.0
H743 H 0.3878 0.59008 0.0433 0.0
H744 H 0.32299 0.46248 0.0489 0.0
H745 H 0.35247 0.5178 0.02809 0.0
H746 H 0.51514 0.52888 0.14628 0.0
H747 H 0.54188 0.58613 0.12792 0.0
H748 H 0.44929 0.48074 0.16888 0.0
H749 H 0.39219 0.43683 0.15561 0.0
C750 C 0.89024 0.41639 0.62392 0.0
C751 C 0.91687 0.44916 0.59711 0.0
C752 C 0.96119 0.40564 0.58826 0.0
C753 C 0.94052 0.37861 0.61889 0.0
N754 N 0.88686 0.36143 0.66755 0.0
N755 N 0.94251 0.44052 0.54018 0.0
C756 C 0.9061 0.38564 0.63745 0.0
C757 C 0.94369 0.43543 0.57513 0.0
N758 N 0.84483 0.40743 0.63147 0.0
N759 N 0.99556 0.40122 0.57033 0.0
H760 H 0.91861 0.44965 0.52885 0.0
H761 H 0.95778 0.42722 0.52259 0.0
H762 H 1.00893 0.37916 0.57819 0.0
H763 H 1.01383 0.42317 0.54929 0.0
H764 H 0.82173 0.38047 0.64841 0.0
H765 H 0.82773 0.42162 0.6166 0.0
H766 H 0.86562 0.36924 0.68386 0.0
H767 H 0.89498 0.33613 0.67723 0.0
C768 C 0.57515 0.94973 0.08524 0.0
C769 C 0.58325 0.91886 0.10732 0.0
C770 C 0.49682 0.87313 0.1207 0.0
C771 C 0.48874 0.90386 0.09889 0.0
N772 N 0.52151 0.97941 0.0688 0.0
N773 N 0.55429 0.8642 0.15572 0.0
C774 C 0.52841 0.94478 0.08387 0.0
C775 C 0.54477 0.88466 0.12812 0.0
N776 N 0.61086 0.98215 0.06423 0.0
N777 N 0.45886 0.83175 0.13319 0.0
H778 H 0.58931 0.87431 0.16322 0.0
H779 H 0.52813 0.84191 0.17346 0.0
H780 H 0.42313 0.82169 0.12817 0.0
H781 H 0.46301 0.80549 0.14602 0.0
H782 H 0.60484 1.00057 0.04449 0.0
H783 H 0.64609 0.98907 0.06481 0.0
H784 H 0.5496 1.01254 0.06074 0.0
H785 H 0.48786 0.97701 0.06749 0.0
C786 C 0.63842 0.56159 0.6027 0.0
C787 C 0.68232 0.56914 0.6171 0.0
C788 C 0.64727 0.4822 0.62647 0.0
C789 C 0.60499 0.47436 0.60923 0.0
N790 N 0.55582 0.50499 0.5862 0.0
N791 N 0.72487 0.5392 0.65071 0.0
C792 C 0.59917 0.51372 0.59904 0.0
C793 C 0.68536 0.53008 0.63166 0.0
N794 N 0.63485 0.6002 0.59195 0.0
N795 N 0.65183 0.44367 0.63628 0.0
H796 H 0.75377 0.57375 0.6542 0.0
H797 H 0.72779 0.51351 0.66525 0.0
H798 H 0.62416 0.40819 0.63377 0.0
H799 H 0.68352 0.44628 0.64542 0.0
H800 H 0.60714 0.59809 0.5768 0.0
H801 H 0.65988 0.63511 0.59912 0.0
H802 H 0.54745 0.5315 0.57999 0.0
H803 H 0.52661 0.47039 0.58324 0.0
C804 C 0.39567 0.87963 0.35664 0.0
C805 C 0.38918 0.91415 0.37574 0.0
C806 C 0.46788 0.94222 0.40319 0.0
C807 C 0.47131 0.90412 0.38732 0.0
N808 N 0.43586 0.83266 0.35207 0.0
N809 N 0.41501 0.97077 0.42328 0.0
C810 C 0.43478 0.8721 0.36456 0.0
C811 C 0.42447 0.94396 0.40036 0.0
N812 N 0.36427 0.85362 0.33092 0.0
N813 N 0.50622 0.97684 0.42107 0.0
H814 H 0.38266 0.97096 0.4239 0.0
H815 H 0.43713 0.98878 0.44419 0.0
H816 H 0.53842 0.97647 0.42383 0.0
H817 H 0.50767 1.00811 0.43027 0.0
H818 H 0.37075 0.83318 0.313 0.0
H819 H 0.333 0.8547 0.32591 0.0
H820 H 0.40729 0.80463 0.33903 0.0
H821 H 0.46382 0.82577 0.35705 0.0
C822 C 0.59105 0.41491 0.86414 0.0
C823 C 0.59702 0.45666 0.88143 0.0
C824 C 0.50949 0.41798 0.89038 0.0
C825 C 0.50352 0.37644 0.87276 0.0
N826 N 0.5367 0.3389 0.83651 0.0
N827 N 0.56195 0.50224 0.90438 0.0
C828 C 0.54382 0.37624 0.85751 0.0
C829 C 0.55613 0.45952 0.89239 0.0
N830 N 0.63054 0.41113 0.85571 0.0
N831 N 0.47115 0.41685 0.90692 0.0
H832 H 0.59556 0.53319 0.90633 0.0
H833 H 0.53343 0.5082 0.90958 0.0
H834 H 0.43628 0.38787 0.90516 0.0
H835 H 0.47425 0.44333 0.92406 0.0
H836 H 0.62864 0.37955 0.84687 0.0
H837 H 0.66568 0.43871 0.85988 0.0
H838 H 0.56374 0.33869 0.82163 0.0
H839 H 0.50265 0.30973 0.83161 0.0
C840 C 0.17526 0.56511 0.35732 0.0
C841 C 0.18121 0.58428 0.39148 0.0
C842 C 0.16209 0.50537 0.41439 0.0
C843 C 0.14985 0.48499 0.38095 0.0
N844 N 0.13797 0.49415 0.32084 0.0
N845 N 0.2146 0.57749 0.44555 0.0
C846 C 0.1539 0.51445 0.35255 0.0
C847 C 0.18418 0.55582 0.41846 0.0
N848 N 0.19958 0.59478 0.33042 0.0
N849 N 0.15225 0.47639 0.44254 0.0
H850 H 0.23786 0.61459 0.44625 0.0
H851 H 0.22151 0.55837 0.4643 0.0
H852 H 0.13316 0.43906 0.44042 0.0
H853 H 0.15764 0.48942 0.46784 0.0
H854 H 0.19899 0.58246 0.30535 0.0
H855 H 0.22772 0.62964 0.33475 0.0
H856 H 0.13666 0.51355 0.29966 0.0
H857 H 0.12163 0.45706 0.31703 0.0
C858 C 0.69394 0.17534 0.85706 0.0
C859 C 0.69501 0.13667 0.87392 0.0
C860 C 0.61372 0.10857 0.89647 0.0
C861 C 0.6162 0.15155 0.8844 0.0
N862 N 0.65949 0.2276 0.85475 0.0
N863 N 0.657 0.06667 0.91053 0.0
C864 C 0.6562 0.18511 0.86459 0.0
C865 C 0.65483 0.10279 0.8934 0.0
N866 N 0.72933 0.20279 0.83389 0.0
N867 N 0.57186 0.07317 0.91058 0.0
H868 H 0.68539 0.05985 0.90745 0.0
H869 H 0.63192 0.04492 0.92902 0.0
H870 H 0.54111 0.07632 0.91316 0.0
H871 H 0.56617 0.0392 0.91696 0.0
H872 H 0.72839 0.22854 0.81806 0.0
H873 H 0.75757 0.19657 0.82819 0.0
H874 H 0.69024 0.25591 0.8438 0.0
H875 H 0.63264 0.23619 0.85977 0.0
C876 C 0.53304 0.59512 0.3934 0.0
C877 C 0.49068 0.59443 0.38196 0.0
C878 C 0.54052 0.67278 0.35412 0.0
C879 C 0.58272 0.67697 0.36993 0.0
N880 N 0.6159 0.64424 0.4109 0.0
N881 N 0.45375 0.63593 0.35534 0.0
C882 C 0.57834 0.63841 0.39087 0.0
C883 C 0.49435 0.6339 0.36302 0.0
N884 N 0.52998 0.55431 0.40681 0.0
N885 N 0.54421 0.70617 0.33057 0.0
H886 H 0.41915 0.60857 0.36142 0.0
H887 H 0.45442 0.66655 0.34564 0.0
H888 H 0.57631 0.73706 0.32473 0.0
H889 H 0.51586 0.70143 0.31484 0.0
H890 H 0.56005 0.55111 0.4124 0.0
H891 H 0.49741 0.5222 0.40915 0.0
H892 H 0.6128 0.61931 0.42944 0.0
H893 H 0.64877 0.67594 0.41187 0.0
C894 C 0.96216 0.56632 0.90147 0.0
C895 C 0.94027 0.57419 0.87214 0.0
C896 C 0.90202 0.4881 0.85774 0.0
C897 C 0.92543 0.4807 0.88626 0.0
N898 N 0.9872 0.5149 0.92973 0.0
N899 N 0.89916 0.5451 0.81791 0.0
C900 C 0.95861 0.52059 0.90628 0.0
C901 C 0.9134 0.53578 0.84882 0.0
N902 N 0.98349 0.60118 0.92614 0.0
N903 N 0.86708 0.4495 0.84026 0.0
H904 H 0.90772 0.57975 0.81044 0.0
H905 H 0.88328 0.51961 0.79837 0.0
H906 H 0.85743 0.41408 0.8461 0.0
H907 H 0.84494 0.4523 0.82186 0.0
H908 H 0.9945 0.59524 0.95005 0.0
H909 H 0.98676 0.63499 0.92409 0.0
H910 H 1.01542 0.54356 0.94258 0.0
H911 H 0.98579 0.48206 0.93381 0.0
C912 C 0.23068 0.35676 0.26753 0.0
C913 C 0.21523 0.3887 0.2793 0.0
C914 C 0.22549 0.42119 0.2204 0.0
C915 C 0.23271 0.38343 0.20813 0.0
N916 N 0.22685 0.30661 0.2201 0.0
N917 N 0.19668 0.45133 0.26706 0.0
C918 C 0.23144 0.349 0.23171 0.0
C919 C 0.21196 0.42081 0.25567 0.0
N920 N 0.2444 0.33326 0.29014 0.0
N921 N 0.23369 0.45839 0.19901 0.0
H922 H 0.19108 0.45497 0.29322 0.0
H923 H 0.18794 0.47146 0.25055 0.0
H924 H 0.24573 0.46086 0.17361 0.0
H925 H 0.23299 0.48895 0.20733 0.0
H926 H 0.2623 0.31539 0.28179 0.0
H927 H 0.24279 0.33541 0.31689 0.0
H928 H 0.22196 0.27891 0.23668 0.0
H929 H 0.22119 0.29646 0.19418 0.0
C930 C 0.89788 0.25891 0.74303 0.0
C931 C 0.86905 0.22554 0.71684 0.0
C932 C 0.81408 0.17413 0.76257 0.0
C933 C 0.84895 0.20191 0.78773 0.0
N934 N 0.92736 0.26854 0.80146 0.0
N935 N 0.79713 0.14885 0.70334 0.0
C936 C 0.89142 0.2441 0.778 0.0
C937 C 0.8259 0.18286 0.72687 0.0
N938 N 0.93156 0.30504 0.73476 0.0
N939 N 0.76915 0.1396 0.7728 0.0
H940 H 0.79875 0.1533 0.67677 0.0
H941 H 0.7714 0.11405 0.71048 0.0
H942 H 0.75926 0.13194 0.79869 0.0
H943 H 0.74036 0.12211 0.75582 0.0
H944 H 0.94948 0.33164 0.75334 0.0
H945 H 0.93823 0.31831 0.70966 0.0
H946 H 0.96153 0.29587 0.7944 0.0
H947 H 0.9249 0.25892 0.82741 0.0
C948 C 0.64432 0.819 0.21734 0.0
C949 C 0.68215 0.86322 0.20492 0.0
C950 C 0.71238 0.88615 0.26406 0.0
C951 C 0.67798 0.83959 0.27592 0.0
N952 N 0.62166 0.75701 0.26022 0.0
N953 N 0.76107 0.93143 0.21558 0.0
C954 C 0.64681 0.80453 0.25159 0.0
C955 C 0.71849 0.89508 0.22803 0.0
N956 N 0.60571 0.79101 0.19685 0.0
N957 N 0.74129 0.92135 0.28676 0.0
H958 H 0.76948 0.9363 0.18936 0.0
H959 H 0.79058 0.95258 0.23123 0.0
H960 H 0.74184 0.91578 0.31314 0.0
H961 H 0.76262 0.9572 0.27947 0.0
H962 H 0.57522 0.76049 0.20603 0.0
H963 H 0.60201 0.80091 0.17186 0.0
H964 H 0.60187 0.73001 0.2423 0.0
H965 H 0.62533 0.74393 0.2839 0.0
C966 C 0.81284 0.64148 0.7291 0.0
C967 C 0.84841 0.66435 0.70302 0.0
C968 C 0.90986 0.69942 0.74706 0.0
C969 C 0.87586 0.67144 0.77304 0.0
N970 N 0.79627 0.60572 0.78611 0.0
N971 N 0.93249 0.70482 0.68703 0.0
C972 C 0.82756 0.63931 0.76337 0.0
C973 C 0.89754 0.68893 0.71192 0.0
N974 N 0.76529 0.623 0.72155 0.0
N975 N 0.95185 0.73956 0.75566 0.0
H976 H 0.92506 0.69934 0.66067 0.0
H977 H 0.96886 0.71978 0.69301 0.0
H978 H 0.9576 0.75403 0.7804 0.0
H979 H 0.97662 0.76254 0.73742 0.0
H980 H 0.73856 0.61033 0.74052 0.0
H981 H 0.7531 0.62401 0.69677 0.0
H982 H 0.76168 0.57933 0.77914 0.0
H983 H 0.80666 0.60072 0.81055 0.0
C984 C 0.25705 0.85034 0.21975 0.0
C985 C 0.20975 0.83692 0.20927 0.0
C986 C 0.18432 0.82534 0.26963 0.0
C987 C 0.23292 0.84859 0.2804 0.0
N988 N 0.31724 0.89158 0.26349 0.0
N989 N 0.13411 0.83058 0.22613 0.0
C990 C 0.26998 0.86353 0.25485 0.0
C991 C 0.17477 0.82944 0.23473 0.0
N992 N 0.28918 0.84945 0.1969 0.0
N993 N 0.14705 0.80114 0.29221 0.0
H994 H 0.13011 0.8422 0.20189 0.0
H995 H 0.10868 0.82757 0.24435 0.0
H996 H 0.15131 0.79583 0.31815 0.0
H997 H 0.11144 0.7818 0.2839 0.0
H998 H 0.32292 0.85538 0.2044 0.0
H999 H 0.28023 0.83764 0.17145 0.0
H1000 H 0.34458 0.90687 0.24503 0.0
H1001 H 0.32879 0.90317 0.28858 0.0
C1002 C 0.39147 0.16832 0.77232 0.0
C1003 C 0.40288 0.21535 0.78227 0.0
C1004 C 0.41342 0.23944 0.72126 0.0
C1005 C 0.40432 0.19265 0.71153 0.0
N1006 N 0.40406 0.12041 0.73004 0.0
N1007 N 0.43939 0.29914 0.76675 0.0
C1008 C 0.39998 0.15981 0.73784 0.0
C1009 C 0.41881 0.25208 0.75689 0.0
N1010 N 0.36881 0.13071 0.79471 0.0
N1011 N 0.41394 0.27105 0.6974 0.0
H1012 H 0.44447 0.30983 0.7926 0.0
H1013 H 0.45601 0.32764 0.74937 0.0
H1014 H 0.41009 0.26473 0.67102 0.0
H1015 H 0.41432 0.30271 0.70421 0.0
H1016 H 0.35588 0.09506 0.78737 0.0
H1017 H 0.35746 0.13445 0.81912 0.0
H1018 H 0.40483 0.09765 0.74894 0.0
H1019 H 0.41241 0.11386 0.70528 0.0
C1020 C 0.36683 0.32819 0.99061 0.0
C1021 C 0.3411 0.28114 0.97655 0.0
C1022 C 0.26534 0.27377 -0.00244 0.0
C1023 C 0.29124 0.31914 0.01405 0.0
N1024 N 0.36749 0.38885 0.02823 0.0
N1025 N 0.26676 0.20616 0.97058 0.0
C1026 C 0.34221 0.3464 0.01087 0.0
C1027 C 0.29062 0.25293 0.98139 0.0
N1028 N 0.415 0.35589 0.98394 0.0
N1029 N 0.21624 0.2514 -0.00349 0.0
H1030 H 0.2838 0.18968 0.95839 0.0
H1031 H 0.23087 0.18228 0.97642 0.0
H1032 H 0.19697 0.26657 0.00741 0.0
H1033 H 0.19495 0.22061 0.98205 0.0
H1034 H 0.43475 0.39264 0.98885 0.0
H1035 H 0.43506 0.34232 0.97199 0.0
H1036 H 0.4046 0.40651 0.03159 0.0
H1037 H 0.35131 0.40617 0.04023 0.0
C1038 C 1.03362 0.31257 0.46535 0.0
C1039 C 0.08227 0.32657 0.47277 0.0
C1040 C 0.06176 0.3191 0.53395 0.0
C1041 C 1.01189 0.29238 0.52587 0.0
N1042 N 0.95066 0.26081 0.48154 0.0
N1043 N 0.14219 0.34034 0.51582 0.0
C1044 C 0.99767 0.2885 0.4909 0.0
C1045 C 0.09647 0.32934 0.50761 0.0
N1046 N 1.02218 0.32501 0.43468 0.0
N1047 N 0.07595 0.33764 0.56625 0.0
H1048 H 0.16861 0.34768 0.49723 0.0
H1049 H 0.15237 0.33817 0.54105 0.0
H1050 H 0.05117 0.33626 0.58435 0.0
H1051 H 0.11186 0.35998 0.57295 0.0
H1052 H 0.9878 0.31894 0.42905 0.0
H1053 H 0.04871 0.34738 0.41729 0.0
H1054 H 0.93995 0.25399 0.45574 0.0
H1055 H 0.92313 0.24117 0.49917 0.0
C1056 C 0.79799 1.00485 -0.00147 0.0
C1057 C 0.74932 0.98016 0.00946 0.0
C1058 C 0.74 0.04754 0.98932 0.0
C1059 C 0.78927 0.07304 0.97973 0.0
N1060 N 0.86757 0.08057 0.98283 0.0
N1061 N 0.67031 0.97087 0.00316 0.0
C1062 C 0.81901 0.05295 0.98648 0.0
C1063 C 0.71908 0.99942 0.00159 0.0
N1064 N 0.82323 0.98085 -0.00179 0.0
N1065 N 0.7136 0.0703 0.98737 0.0
H1066 H 0.65342 0.93451 0.00924 0.0
H1067 H 0.64646 0.98149 -0.00589 0.0
H1068 H 0.72863 0.1059 0.97908 0.0
H1069 H 0.6788 0.05594 -0.00288 0.0
H1070 H 0.85754 0.9947 0.98767 0.0
H1071 H 0.80698 0.94454 0.00475 0.0
H1072 H 0.89184 0.06928 0.98947 0.0
H1073 H 0.8837 0.1171 0.97769 0.0
C1074 C 0.79381 0.72547 0.47507 0.0
C1075 C 0.77907 0.71845 0.50997 0.0
C1076 C 0.7292 0.75563 0.49828 0.0
C1077 C 0.74174 0.75922 0.46291 0.0
N1078 N 0.76117 0.71888 0.4186 0.0
N1079 N 0.71428 0.70637 0.54875 0.0
C1080 C 0.76703 0.7359 0.45139 0.0
C1081 C 0.74133 0.72764 0.52008 0.0
N1082 N 0.83318 0.72333 0.46407 0.0
N1083 N 0.70651 0.77866 0.51139 0.0
H1084 H 0.71834 0.68115 0.56296 0.0
H1085 H 0.68423 0.7092 0.5555 0.0
H1086 H 0.69783 0.80021 0.4964 0.0
H1087 H 0.69998 0.77915 0.5378 0.0
H1088 H 0.84524 0.7309 0.4385 0.0
H1089 H 0.85649 0.71956 0.48078 0.0
H1090 H 0.77679 0.69897 0.40973 0.0
H1091 H 0.73421 0.71796 0.4031 0.0
C1092 C 0.99333 0.71992 0.00041 0.0
C1093 C 1.00734 0.72677 0.96527 0.0
C1094 C 0.09245 0.77072 0.98246 0.0
C1095 C 0.07842 0.76289 0.01757 0.0
N1096 N 1.01675 0.71088 0.05777 0.0
N1097 N 0.07 0.73939 0.92468 0.0
C1098 C 1.02912 0.7316 0.02594 0.0
C1099 C 0.05694 0.74629 0.95681 0.0
N1100 N 0.94677 0.70428 0.00979 0.0
N1101 N 0.13875 0.80255 0.97324 0.0
H1102 H 0.04447 0.7172 0.90673 0.0
H1103 H 0.10539 0.7499 0.9179 0.0
H1104 H 0.16583 0.8217 0.9912 0.0
H1105 H 0.14908 0.81273 0.94763 0.0
H1106 H 0.93636 0.70348 0.03549 0.0
H1107 H 0.91947 0.69605 0.99196 0.0
H1108 H 0.98166 0.68531 0.06451 0.0
H1109 H 0.04284 0.71423 0.07524 0.0
C1110 C 0.30689 0.98085 0.50316 0.0
C1111 C 0.30894 0.99242 0.46777 0.0
C1112 C 0.35143 0.07832 0.48195 0.0
C1113 C 0.3489 0.06655 0.51726 0.0
N1114 N 0.34882 1.00888 0.5571 0.0
N1115 N 0.35734 0.05148 0.425 0.0
C1116 C 0.3342 1.01842 0.52667 0.0
C1117 C 0.3384 0.04112 0.45741 0.0
N1118 N 0.27783 0.9352 0.51488 0.0
N1119 N 0.36502 0.12398 0.47161 0.0
H1120 H 0.3542 1.02422 0.40868 0.0
H1121 H 0.3816 0.08633 0.41687 0.0
H1122 H 0.37511 0.15232 0.48896 0.0
H1123 H 0.363 0.13249 0.44586 0.0
H1124 H 0.27285 0.92701 0.54122 0.0
H1125 H 0.25573 0.90669 0.49874 0.0
H1126 H 0.34242 0.97465 0.5637 0.0
H1127 H 0.37182 0.03637 0.57355 0.0
loop_
_geom_bond_atom_site_label_1
_geom_bond_atom_site_label_2
_geom_bond_distance
_geom_bond_site_symmetry_2
_ccdc_geom_bond_type
Eu0 C9 2.828 . S
Eu0 O11 2.392 . S
Eu0 O13 2.418 . S
Eu0 O18 2.373 . S
Eu0 O21 2.488 . S
Eu0 O22 2.471 . S
Eu0 O23 2.349 . S
Eu1 O10 2.373 . S
Eu1 O14 2.488 . S
Eu1 O15 2.471 . S
Eu1 O16 2.349 . S
Eu1 O19 2.392 . S
Eu1 O20 2.418 . S
Eu1 C30 2.828 . S
C2 O20 1.244 . S
C2 O23 1.265 . S
C3 C4 1.379 . S
C3 C7 1.373 . S
C3 C9 1.505 . S
C4 C3 1.379 . S
C4 C6 1.369 . S
C4 H32 0.930 . S
C5 C7 1.383 . S
C5 C8 1.382 . S
C5 H33 0.930 . S
C6 C4 1.369 . S
C6 C8 1.392 . S
C6 H34 0.930 . S
C7 C3 1.373 . S
C7 C5 1.383 . S
C7 H35 0.931 . S
C8 C5 1.382 . S
C8 C6 1.392 . S
C9 Eu0 2.828 . S
C9 C3 1.505 . S
C9 O21 1.249 . S
C9 O22 1.244 . S
O10 Eu1 2.373 . S
O10 C12 1.258 . S
O11 Eu0 2.392 . S
O11 C12 1.242 . S
C12 O10 1.258 . S
C12 O11 1.242 . S
O13 Eu0 2.418 . S
O13 C17 1.244 . S
O14 Eu1 2.488 . S
O14 C30 1.249 . S
O15 Eu1 2.471 . S
O15 C30 1.244 . S
O16 Eu1 2.349 . S
O16 C17 1.265 . S
C17 O13 1.244 . S
C17 O16 1.265 . S
O18 Eu0 2.373 . S
O18 C31 1.258 . S
O19 Eu1 2.392 . S
O19 C31 1.242 . S
O20 Eu1 2.418 . S
O20 C2 1.244 . S
O21 Eu0 2.488 . S
O21 C9 1.249 . S
O22 Eu0 2.471 . S
O22 C9 1.244 . S
O23 Eu0 2.349 . S
O23 C2 1.265 . S
C24 C25 1.379 . S
C24 C28 1.373 . S
C24 C30 1.505 . S
C25 C24 1.379 . S
C25 C27 1.369 . S
C25 H36 0.930 . S
C26 C28 1.383 . S
C26 C29 1.382 . S
C26 H37 0.930 . S
C27 C25 1.369 . S
C27 C29 1.392 . S
C27 H38 0.930 . S
C28 C24 1.373 . S
C28 C26 1.383 . S
C28 H39 0.931 . S
C29 C26 1.382 . S
C29 C27 1.392 . S
C30 Eu1 2.828 . S
C30 O14 1.249 . S
C30 O15 1.244 . S
C30 C24 1.505 . S
C31 O18 1.258 . S
C31 O19 1.242 . S
H32 C4 0.930 . S
H33 C5 0.930 . S
H34 C6 0.930 . S
H35 C7 0.931 . S
H36 C25 0.930 . S
H37 C26 0.930 . S
H38 C27 0.930 . S
H39 C28 0.931 . S
Eu40 C49 2.828 . S
Eu40 O51 2.392 . S
Eu40 O53 2.418 . S
Eu40 O58 2.373 . S
Eu40 O61 2.488 . S
Eu40 O62 2.471 . S
Eu40 O63 2.349 . S
Eu41 O50 2.373 . S
Eu41 O54 2.488 . S
Eu41 O55 2.471 . S
Eu41 O56 2.349 . S
Eu41 O59 2.392 . S
Eu41 O60 2.418 . S
Eu41 C70 2.826 . S
C42 O60 1.244 . S
C42 O63 1.265 . S
C43 C44 1.379 . S
C43 C47 1.373 . S
C43 C49 1.505 . S
C44 C43 1.379 . S
C44 C46 1.369 . S
C44 H72 0.930 . S
C45 C47 1.383 . S
C45 C48 1.382 . S
C45 H73 0.930 . S
C46 C44 1.369 . S
C46 C48 1.392 . S
C46 H74 0.930 . S
C47 C43 1.373 . S
C47 C45 1.383 . S
C47 H75 0.931 . S
C48 C45 1.382 . S
C48 C46 1.392 . S
C49 Eu40 2.828 . S
C49 C43 1.505 . S
C49 O61 1.249 . S
C49 O62 1.244 . S
O50 Eu41 2.373 . S
O50 C52 1.258 . S
O51 Eu40 2.392 . S
O51 C52 1.242 . S
C52 O50 1.258 . S
C52 O51 1.242 . S
O53 Eu40 2.418 . S
O53 C57 1.244 . S
O54 Eu41 2.488 . S
O54 C70 1.249 . S
O55 Eu41 2.471 . S
O55 C70 1.244 . S
O56 Eu41 2.349 . S
O56 C57 1.265 . S
C57 O53 1.244 . S
C57 O56 1.265 . S
O58 Eu40 2.373 . S
O58 C71 1.258 . S
O59 Eu41 2.392 . S
O59 C71 1.242 . S
O60 Eu41 2.418 . S
O60 C42 1.244 . S
O61 Eu40 2.488 . S
O61 C49 1.249 . S
O62 Eu40 2.471 . S
O62 C49 1.244 . S
O63 Eu40 2.349 . S
O63 C42 1.265 . S
C64 C65 1.379 . S
C64 C68 1.373 . S
C64 C70 1.507 1_455 S
C65 C64 1.379 . S
C65 C67 1.369 . S
C65 H76 0.930 . S
C66 C68 1.383 . S
C66 C69 1.382 . S
C66 H77 0.930 . S
C67 C65 1.369 . S
C67 C69 1.392 . S
C67 H78 0.930 . S
C68 C64 1.373 . S
C68 C66 1.383 . S
C68 H79 0.931 . S
C69 C66 1.382 . S
C69 C67 1.392 . S
C70 Eu41 2.826 . S
C70 O54 1.249 . S
C70 O55 1.244 . S
C70 C64 1.507 1_655 S
C71 O58 1.258 . S
C71 O59 1.242 . S
H72 C44 0.930 . S
H73 C45 0.930 . S
H74 C46 0.930 . S
H75 C47 0.931 . S
H76 C65 0.930 . S
H77 C66 0.930 . S
H78 C67 0.930 . S
H79 C68 0.931 . S
Eu80 C89 2.828 . S
Eu80 O91 2.392 . S
Eu80 O93 2.418 . S
Eu80 O98 2.373 . S
Eu80 O101 2.488 . S
Eu80 O102 2.471 . S
Eu80 O103 2.349 . S
Eu81 O90 2.373 . S
Eu81 O94 2.488 . S
Eu81 O95 2.471 . S
Eu81 O96 2.349 . S
Eu81 O99 2.392 . S
Eu81 O100 2.418 . S
Eu81 C110 2.827 . S
C82 O100 1.244 . S
C82 O103 1.265 . S
C83 C84 1.379 . S
C83 C87 1.373 . S
C83 C89 1.505 . S
C84 C83 1.379 . S
C84 C86 1.369 . S
C84 H112 0.930 . S
C85 C87 1.383 . S
C85 C88 1.382 . S
C85 H113 0.930 . S
C86 C84 1.369 . S
C86 C88 1.392 . S
C86 H114 0.930 . S
C87 C83 1.373 . S
C87 C85 1.383 . S
C87 H115 0.931 . S
C88 C85 1.382 . S
C88 C86 1.392 . S
C89 Eu80 2.828 . S
C89 C83 1.505 . S
C89 O101 1.249 . S
C89 O102 1.244 . S
O90 Eu81 2.373 . S
O90 C92 1.258 . S
O91 Eu80 2.392 . S
O91 C92 1.242 . S
C92 O90 1.258 . S
C92 O91 1.242 . S
O93 Eu80 2.418 . S
O93 C97 1.244 . S
O94 Eu81 2.488 . S
O94 C110 1.249 . S
O95 Eu81 2.471 . S
O95 C110 1.244 . S
O96 Eu81 2.349 . S
O96 C97 1.265 . S
C97 O93 1.244 . S
C97 O96 1.265 . S
O98 Eu80 2.373 . S
O98 C111 1.258 . S
O99 Eu81 2.392 . S
O99 C111 1.242 . S
O100 Eu81 2.418 . S
O100 C82 1.244 . S
O101 Eu80 2.488 . S
O101 C89 1.249 . S
O102 Eu80 2.471 . S
O102 C89 1.244 . S
O103 Eu80 2.349 . S
O103 C82 1.265 . S
C104 C105 1.379 . S
C104 C108 1.373 . S
C104 C110 1.506 1_545 S
C105 C104 1.379 . S
C105 C107 1.369 . S
C105 H116 0.930 . S
C106 C108 1.383 . S
C106 C109 1.382 . S
C106 H117 0.930 . S
C107 C105 1.369 . S
C107 C109 1.392 . S
C107 H118 0.930 . S
C108 C104 1.373 . S
C108 C106 1.383 . S
C108 H119 0.931 . S
C109 C106 1.382 . S
C109 C107 1.392 . S
C110 Eu81 2.827 . S
C110 O94 1.249 . S
C110 O95 1.244 . S
C110 C104 1.506 1_565 S
C111 O98 1.258 . S
C111 O99 1.242 . S
H112 C84 0.930 . S
H113 C85 0.930 . S
H114 C86 0.930 . S
H115 C87 0.931 . S
H116 C105 0.930 . S
H117 C106 0.930 . S
H118 C107 0.930 . S
H119 C108 0.931 . S
Eu120 C129 2.828 . S
Eu120 O131 2.392 . S
Eu120 O133 2.418 . S
Eu120 O138 2.373 . S
Eu120 O141 2.488 . S
Eu120 O142 2.471 . S
Eu120 O143 2.349 . S
Eu121 O130 2.373 . S
Eu121 O134 2.488 . S
Eu121 O135 2.471 . S
Eu121 O136 2.349 . S
Eu121 O139 2.392 . S
Eu121 O140 2.418 . S
Eu121 C150 2.828 . S
C122 O140 1.244 . S
C122 O143 1.265 . S
C123 C124 1.379 . S
C123 C127 1.373 . S
C123 C129 1.505 . S
C124 C123 1.379 . S
C124 C126 1.369 . S
C124 H152 0.930 . S
C125 C127 1.383 . S
C125 C128 1.382 . S
C125 H153 0.930 . S
C126 C124 1.369 . S
C126 C128 1.392 . S
C126 H154 0.930 . S
C127 C123 1.373 . S
C127 C125 1.383 . S
C127 H155 0.931 . S
C128 C125 1.382 . S
C128 C126 1.392 . S
C129 Eu120 2.828 . S
C129 C123 1.505 . S
C129 O141 1.249 . S
C129 O142 1.244 . S
O130 Eu121 2.373 . S
O130 C132 1.258 . S
O131 Eu120 2.392 . S
O131 C132 1.242 . S
C132 O130 1.258 . S
C132 O131 1.242 . S
O133 Eu120 2.418 . S
O133 C137 1.244 . S
O134 Eu121 2.488 . S
O134 C150 1.249 . S
O135 Eu121 2.471 . S
O135 C150 1.244 . S
O136 Eu121 2.349 . S
O136 C137 1.265 . S
C137 O133 1.244 . S
C137 O136 1.265 . S
O138 Eu120 2.373 . S
O138 C151 1.258 . S
O139 Eu121 2.392 . S
O139 C151 1.242 . S
O140 Eu121 2.418 . S
O140 C122 1.244 . S
O141 Eu120 2.488 . S
O141 C129 1.249 . S
O142 Eu120 2.471 . S
O142 C129 1.244 . S
O143 Eu120 2.349 . S
O143 C122 1.265 . S
C144 C145 1.379 . S
C144 C148 1.373 . S
C144 C150 1.505 . S
C145 C144 1.379 . S
C145 C147 1.369 . S
C145 H156 0.930 . S
C146 C148 1.383 . S
C146 C149 1.382 . S
C146 H157 0.930 . S
C147 C145 1.369 . S
C147 C149 1.392 . S
C147 H158 0.930 . S
C148 C144 1.373 . S
C148 C146 1.383 . S
C148 H159 0.931 . S
C149 C146 1.382 . S
C149 C147 1.392 . S
C150 Eu121 2.828 . S
C150 O134 1.249 . S
C150 O135 1.244 . S
C150 C144 1.505 . S
C151 O138 1.258 . S
C151 O139 1.242 . S
H152 C124 0.930 . S
H153 C125 0.930 . S
H154 C126 0.930 . S
H155 C127 0.931 . S
H156 C145 0.930 . S
H157 C146 0.930 . S
H158 C147 0.930 . S
H159 C148 0.931 . S
Eu160 C169 2.828 . S
Eu160 O171 2.392 . S
Eu160 O173 2.418 . S
Eu160 O178 2.373 . S
Eu160 O181 2.488 . S
Eu160 O182 2.471 . S
Eu160 O183 2.349 . S
Eu161 O170 2.373 . S
Eu161 O174 2.488 . S
Eu161 O175 2.471 . S
Eu161 O176 2.349 . S
Eu161 O179 2.392 . S
Eu161 O180 2.418 . S
Eu161 C190 2.826 . S
C162 O180 1.244 . S
C162 O183 1.265 . S
C163 C164 1.379 . S
C163 C167 1.373 . S
C163 C169 1.505 . S
C164 C163 1.379 . S
C164 C166 1.369 . S
C164 H192 0.930 . S
C165 C167 1.383 . S
C165 C168 1.382 . S
C165 H193 0.930 . S
C166 C164 1.369 . S
C166 C168 1.392 . S
C166 H194 0.930 . S
C167 C163 1.373 . S
C167 C165 1.383 . S
C167 H195 0.931 . S
C168 C165 1.382 . S
C168 C166 1.392 . S
C169 Eu160 2.828 . S
C169 C163 1.505 . S
C169 O181 1.249 . S
C169 O182 1.244 . S
O170 Eu161 2.373 . S
O170 C172 1.258 . S
O171 Eu160 2.392 . S
O171 C172 1.242 . S
C172 O170 1.258 . S
C172 O171 1.242 . S
O173 Eu160 2.418 . S
O173 C177 1.244 . S
O174 Eu161 2.488 . S
O174 C190 1.249 . S
O175 Eu161 2.471 . S
O175 C190 1.244 . S
O176 Eu161 2.349 . S
O176 C177 1.265 . S
C177 O173 1.244 . S
C177 O176 1.265 . S
O178 Eu160 2.373 . S
O178 C191 1.258 . S
O179 Eu161 2.392 . S
O179 C191 1.242 . S
O180 Eu161 2.418 . S
O180 C162 1.244 . S
O181 Eu160 2.488 . S
O181 C169 1.249 . S
O182 Eu160 2.471 . S
O182 C169 1.244 . S
O183 Eu160 2.349 . S
O183 C162 1.265 . S
C184 C185 1.379 . S
C184 C188 1.373 . S
C184 C190 1.507 1_655 S
C185 C184 1.379 . S
C185 C187 1.369 . S
C185 H196 0.930 . S
C186 C188 1.383 . S
C186 C189 1.382 . S
C186 H197 0.930 . S
C187 C185 1.369 . S
C187 C189 1.392 . S
C187 H198 0.930 . S
C188 C184 1.373 . S
C188 C186 1.383 . S
C188 H199 0.931 . S
C189 C186 1.382 . S
C189 C187 1.392 . S
C190 Eu161 2.826 . S
C190 O174 1.249 . S
C190 O175 1.244 . S
C190 C184 1.507 1_455 S
C191 O178 1.258 . S
C191 O179 1.242 . S
H192 C164 0.930 . S
H193 C165 0.930 . S
H194 C166 0.930 . S
H195 C167 0.931 . S
H196 C185 0.930 . S
H197 C186 0.930 . S
H198 C187 0.930 . S
H199 C188 0.931 . S
Eu200 C209 2.828 . S
Eu200 O211 2.392 . S
Eu200 O213 2.418 . S
Eu200 O218 2.373 . S
Eu200 O221 2.488 . S
Eu200 O222 2.471 . S
Eu200 O223 2.349 . S
Eu201 O210 2.373 . S
Eu201 O214 2.488 . S
Eu201 O215 2.471 . S
Eu201 O216 2.349 . S
Eu201 O219 2.392 . S
Eu201 O220 2.418 . S
Eu201 C230 2.827 . S
C202 O220 1.244 . S
C202 O223 1.265 . S
C203 C204 1.379 . S
C203 C207 1.373 . S
C203 C209 1.505 . S
C204 C203 1.379 . S
C204 C206 1.369 . S
C204 H232 0.930 . S
C205 C207 1.383 . S
C205 C208 1.382 . S
C205 H233 0.930 . S
C206 C204 1.369 . S
C206 C208 1.392 . S
C206 H234 0.930 . S
C207 C203 1.373 . S
C207 C205 1.383 . S
C207 H235 0.931 . S
C208 C205 1.382 . S
C208 C206 1.392 . S
C209 Eu200 2.828 . S
C209 C203 1.505 . S
C209 O221 1.249 . S
C209 O222 1.244 . S
O210 Eu201 2.373 . S
O210 C212 1.258 . S
O211 Eu200 2.392 . S
O211 C212 1.242 . S
C212 O210 1.258 . S
C212 O211 1.242 . S
O213 Eu200 2.418 . S
O213 C217 1.244 . S
O214 Eu201 2.488 . S
O214 C230 1.249 . S
O215 Eu201 2.471 . S
O215 C230 1.244 . S
O216 Eu201 2.349 . S
O216 C217 1.265 . S
C217 O213 1.244 . S
C217 O216 1.265 . S
O218 Eu200 2.373 . S
O218 C231 1.258 . S
O219 Eu201 2.392 . S
O219 C231 1.242 . S
O220 Eu201 2.418 . S
O220 C202 1.244 . S
O221 Eu200 2.488 . S
O221 C209 1.249 . S
O222 Eu200 2.471 . S
O222 C209 1.244 . S
O223 Eu200 2.349 . S
O223 C202 1.265 . S
C224 C225 1.379 . S
C224 C228 1.373 . S
C224 C230 1.506 1_565 S
C225 C224 1.379 . S
C225 C227 1.369 . S
C225 H236 0.930 . S
C226 C228 1.383 . S
C226 C229 1.382 . S
C226 H237 0.930 . S
C227 C225 1.369 . S
C227 C229 1.392 . S
C227 H238 0.930 . S
C228 C224 1.373 . S
C228 C226 1.383 . S
C228 H239 0.931 . S
C229 C226 1.382 . S
C229 C227 1.392 . S
C230 Eu201 2.827 . S
C230 O214 1.249 . S
C230 O215 1.244 . S
C230 C224 1.506 1_545 S
C231 O218 1.258 . S
C231 O219 1.242 . S
H232 C204 0.930 . S
H233 C205 0.930 . S
H234 C206 0.930 . S
H235 C207 0.931 . S
H236 C225 0.930 . S
H237 C226 0.930 . S
H238 C227 0.930 . S
H239 C228 0.931 . S
Eu240 C249 2.828 . S
Eu240 O251 2.392 . S
Eu240 O253 2.418 . S
Eu240 O258 2.373 . S
Eu240 O261 2.488 . S
Eu240 O262 2.471 . S
Eu240 O263 2.349 . S
Eu241 O250 2.373 . S
Eu241 O254 2.488 . S
Eu241 O255 2.471 . S
Eu241 O256 2.349 . S
Eu241 O259 2.392 . S
Eu241 O260 2.418 . S
Eu241 C270 2.828 . S
C242 O260 1.244 . S
C242 O263 1.265 . S
C243 C244 1.379 . S
C243 C247 1.373 . S
C243 C249 1.505 . S
C244 C243 1.379 . S
C244 C246 1.369 . S
C244 H272 0.930 . S
C245 C247 1.383 . S
C245 C248 1.382 . S
C245 H273 0.930 . S
C246 C244 1.369 . S
C246 C248 1.392 . S
C246 H274 0.930 . S
C247 C243 1.373 . S
C247 C245 1.383 . S
C247 H275 0.931 . S
C248 C245 1.382 . S
C248 C246 1.392 . S
C249 Eu240 2.828 . S
C249 C243 1.505 . S
C249 O261 1.249 . S
C249 O262 1.244 . S
O250 Eu241 2.373 . S
O250 C252 1.258 . S
O251 Eu240 2.392 . S
O251 C252 1.242 . S
C252 O250 1.258 . S
C252 O251 1.242 . S
O253 Eu240 2.418 . S
O253 C257 1.244 . S
O254 Eu241 2.488 . S
O254 C270 1.249 . S
O255 Eu241 2.471 . S
O255 C270 1.244 . S
O256 Eu241 2.349 . S
O256 C257 1.265 . S
C257 O253 1.244 . S
C257 O256 1.265 . S
O258 Eu240 2.373 . S
O258 C271 1.258 . S
O259 Eu241 2.392 . S
O259 C271 1.242 . S
O260 Eu241 2.418 . S
O260 C242 1.244 . S
O261 Eu240 2.488 . S
O261 C249 1.249 . S
O262 Eu240 2.471 . S
O262 C249 1.244 . S
O263 Eu240 2.349 . S
O263 C242 1.265 . S
C264 C265 1.379 . S
C264 C268 1.373 . S
C264 C270 1.505 . S
C265 C264 1.379 . S
C265 C267 1.369 . S
C265 H276 0.930 . S
C266 C268 1.383 . S
C266 C269 1.382 . S
C266 H277 0.930 . S
C267 C265 1.369 . S
C267 C269 1.392 . S
C267 H278 0.930 . S
C268 C264 1.373 . S
C268 C266 1.383 . S
C268 H279 0.931 . S
C269 C266 1.382 . S
C269 C267 1.392 . S
C270 Eu241 2.828 . S
C270 O254 1.249 . S
C270 O255 1.244 . S
C270 C264 1.505 . S
C271 O258 1.258 . S
C271 O259 1.242 . S
H272 C244 0.930 . S
H273 C245 0.930 . S
H274 C246 0.930 . S
H275 C247 0.931 . S
H276 C265 0.930 . S
H277 C266 0.930 . S
H278 C267 0.930 . S
H279 C268 0.931 . S
Eu280 C289 2.828 . S
Eu280 O291 2.392 . S
Eu280 O293 2.418 . S
Eu280 O298 2.373 . S
Eu280 O301 2.488 . S
Eu280 O302 2.471 . S
Eu280 O303 2.349 . S
Eu281 O290 2.373 . S
Eu281 O294 2.488 . S
Eu281 O295 2.471 . S
Eu281 O296 2.349 . S
Eu281 O299 2.392 . S
Eu281 O300 2.418 . S
Eu281 C310 2.827 . S
C282 O300 1.244 . S
C282 O303 1.265 . S
C283 C284 1.379 . S
C283 C287 1.373 . S
C283 C289 1.505 . S
C284 C283 1.379 . S
C284 C286 1.369 . S
C284 H312 0.930 . S
C285 C287 1.383 . S
C285 C288 1.382 . S
C285 H313 0.930 . S
C286 C284 1.369 . S
C286 C288 1.392 . S
C286 H314 0.930 . S
C287 C283 1.373 . S
C287 C285 1.383 . S
C287 H315 0.931 . S
C288 C285 1.382 . S
C288 C286 1.392 . S
C289 Eu280 2.828 . S
C289 C283 1.505 . S
C289 O301 1.249 . S
C289 O302 1.244 . S
O290 Eu281 2.373 . S
O290 C292 1.258 . S
O291 Eu280 2.392 . S
O291 C292 1.242 . S
C292 O290 1.258 . S
C292 O291 1.242 . S
O293 Eu280 2.418 . S
O293 C297 1.244 . S
O294 Eu281 2.488 . S
O294 C310 1.249 . S
O295 Eu281 2.471 . S
O295 C310 1.244 . S
O296 Eu281 2.349 . S
O296 C297 1.265 . S
C297 O293 1.244 . S
C297 O296 1.265 . S
O298 Eu280 2.373 . S
O298 C311 1.258 . S
O299 Eu281 2.392 . S
O299 C311 1.242 . S
O300 Eu281 2.418 . S
O300 C282 1.244 . S
O301 Eu280 2.488 . S
O301 C289 1.249 . S
O302 Eu280 2.471 . S
O302 C289 1.244 . S
O303 Eu280 2.349 . S
O303 C282 1.265 . S
C304 C305 1.379 . S
C304 C308 1.373 . S
C304 C310 1.506 1_455 S
C305 C304 1.379 . S
C305 C307 1.369 . S
C305 H316 0.930 . S
C306 C308 1.383 . S
C306 C309 1.382 . S
C306 H317 0.930 . S
C307 C305 1.369 . S
C307 C309 1.392 . S
C307 H318 0.930 . S
C308 C304 1.373 . S
C308 C306 1.383 . S
C308 H319 0.931 . S
C309 C306 1.382 . S
C309 C307 1.392 . S
C310 Eu281 2.827 . S
C310 O294 1.249 . S
C310 O295 1.244 . S
C310 C304 1.506 1_655 S
C311 O298 1.258 . S
C311 O299 1.242 . S
H312 C284 0.930 . S
H313 C285 0.930 . S
H314 C286 0.930 . S
H315 C287 0.931 . S
H316 C305 0.930 . S
H317 C306 0.930 . S
H318 C307 0.930 . S
H319 C308 0.931 . S
Eu320 C329 2.828 . S
Eu320 O331 2.392 . S
Eu320 O333 2.418 . S
Eu320 O338 2.373 . S
Eu320 O341 2.488 . S
Eu320 O342 2.471 . S
Eu320 O343 2.349 . S
Eu321 O330 2.373 . S
Eu321 O334 2.488 . S
Eu321 O335 2.471 . S
Eu321 O336 2.349 . S
Eu321 O339 2.392 . S
Eu321 O340 2.418 . S
Eu321 C350 2.826 . S
C322 O340 1.244 . S
C322 O343 1.265 . S
C323 C324 1.379 . S
C323 C327 1.373 . S
C323 C329 1.505 . S
C324 C323 1.379 . S
C324 C326 1.369 . S
C324 H352 0.930 . S
C325 C327 1.383 . S
C325 C328 1.382 . S
C325 H353 0.930 . S
C326 C324 1.369 . S
C326 C328 1.392 . S
C326 H354 0.930 . S
C327 C323 1.373 . S
C327 C325 1.383 . S
C327 H355 0.931 . S
C328 C325 1.382 . S
C328 C326 1.392 . S
C329 Eu320 2.828 . S
C329 C323 1.505 . S
C329 O341 1.249 . S
C329 O342 1.244 . S
O330 Eu321 2.373 . S
O330 C332 1.258 . S
O331 Eu320 2.392 . S
O331 C332 1.242 . S
C332 O330 1.258 . S
C332 O331 1.242 . S
O333 Eu320 2.418 . S
O333 C337 1.244 . S
O334 Eu321 2.488 . S
O334 C350 1.249 . S
O335 Eu321 2.471 . S
O335 C350 1.244 . S
O336 Eu321 2.349 . S
O336 C337 1.265 . S
C337 O333 1.244 . S
C337 O336 1.265 . S
O338 Eu320 2.373 . S
O338 C351 1.258 . S
O339 Eu321 2.392 . S
O339 C351 1.242 . S
O340 Eu321 2.418 . S
O340 C322 1.244 . S
O341 Eu320 2.488 . S
O341 C329 1.249 . S
O342 Eu320 2.471 . S
O342 C329 1.244 . S
O343 Eu320 2.349 . S
O343 C322 1.265 . S
C344 C345 1.379 . S
C344 C348 1.373 . S
C344 C350 1.507 1_545 S
C345 C344 1.379 . S
C345 C347 1.369 . S
C345 H356 0.930 . S
C346 C348 1.383 . S
C346 C349 1.382 . S
C346 H357 0.930 . S
C347 C345 1.369 . S
C347 C349 1.392 . S
C347 H358 0.930 . S
C348 C344 1.373 . S
C348 C346 1.383 . S
C348 H359 0.931 . S
C349 C346 1.382 . S
C349 C347 1.392 . S
C350 Eu321 2.826 . S
C350 O334 1.249 . S
C350 O335 1.244 . S
C350 C344 1.507 1_565 S
C351 O338 1.258 . S
C351 O339 1.242 . S
H352 C324 0.930 . S
H353 C325 0.930 . S
H354 C326 0.930 . S
H355 C327 0.931 . S
H356 C345 0.930 . S
H357 C346 0.930 . S
H358 C347 0.930 . S
H359 C348 0.931 . S
Eu360 C369 2.828 . S
Eu360 O371 2.392 . S
Eu360 O373 2.418 . S
Eu360 O378 2.373 . S
Eu360 O381 2.488 . S
Eu360 O382 2.471 . S
Eu360 O383 2.349 . S
Eu361 O370 2.373 . S
Eu361 O374 2.488 . S
Eu361 O375 2.471 . S
Eu361 O376 2.349 . S
Eu361 O379 2.392 . S
Eu361 O380 2.418 . S
Eu361 C390 2.828 . S
C362 O380 1.244 . S
C362 O383 1.265 . S
C363 C364 1.379 . S
C363 C367 1.373 . S
C363 C369 1.505 . S
C364 C363 1.379 . S
C364 C366 1.369 . S
C364 H392 0.930 . S
C365 C367 1.383 . S
C365 C368 1.382 . S
C365 H393 0.930 . S
C366 C364 1.369 . S
C366 C368 1.392 . S
C366 H394 0.930 . S
C367 C363 1.373 . S
C367 C365 1.383 . S
C367 H395 0.931 . S
C368 C365 1.382 . S
C368 C366 1.392 . S
C369 Eu360 2.828 . S
C369 C363 1.505 . S
C369 O381 1.249 . S
C369 O382 1.244 . S
O370 Eu361 2.373 . S
O370 C372 1.258 . S
O371 Eu360 2.392 . S
O371 C372 1.242 . S
C372 O370 1.258 . S
C372 O371 1.242 . S
O373 Eu360 2.418 . S
O373 C377 1.244 . S
O374 Eu361 2.488 . S
O374 C390 1.249 . S
O375 Eu361 2.471 . S
O375 C390 1.244 . S
O376 Eu361 2.349 . S
O376 C377 1.265 . S
C377 O373 1.244 . S
C377 O376 1.265 . S
O378 Eu360 2.373 . S
O378 C391 1.258 . S
O379 Eu361 2.392 . S
O379 C391 1.242 . S
O380 Eu361 2.418 . S
O380 C362 1.244 . S
O381 Eu360 2.488 . S
O381 C369 1.249 . S
O382 Eu360 2.471 . S
O382 C369 1.244 . S
O383 Eu360 2.349 . S
O383 C362 1.265 . S
C384 C385 1.379 . S
C384 C388 1.373 . S
C384 C390 1.505 . S
C385 C384 1.379 . S
C385 C387 1.369 . S
C385 H396 0.930 . S
C386 C388 1.383 . S
C386 C389 1.382 . S
C386 H397 0.930 . S
C387 C385 1.369 . S
C387 C389 1.392 . S
C387 H398 0.930 . S
C388 C384 1.373 . S
C388 C386 1.383 . S
C388 H399 0.931 . S
C389 C386 1.382 . S
C389 C387 1.392 . S
C390 Eu361 2.828 . S
C390 O374 1.249 . S
C390 O375 1.244 . S
C390 C384 1.505 . S
C391 O378 1.258 . S
C391 O379 1.242 . S
H392 C364 0.930 . S
H393 C365 0.930 . S
H394 C366 0.930 . S
H395 C367 0.931 . S
H396 C385 0.930 . S
H397 C386 0.930 . S
H398 C387 0.930 . S
H399 C388 0.931 . S
Eu400 C409 2.828 . S
Eu400 O411 2.392 . S
Eu400 O413 2.418 . S
Eu400 O418 2.373 . S
Eu400 O421 2.488 . S
Eu400 O422 2.471 . S
Eu400 O423 2.349 . S
Eu401 O410 2.373 . S
Eu401 O414 2.488 . S
Eu401 O415 2.471 . S
Eu401 O416 2.349 . S
Eu401 O419 2.392 . S
Eu401 O420 2.418 . S
Eu401 C430 2.827 . S
C402 O420 1.244 . S
C402 O423 1.265 . S
C403 C404 1.379 . S
C403 C407 1.373 . S
C403 C409 1.505 . S
C404 C403 1.379 . S
C404 C406 1.369 . S
C404 H432 0.930 . S
C405 C407 1.383 . S
C405 C408 1.382 . S
C405 H433 0.930 . S
C406 C404 1.369 . S
C406 C408 1.392 . S
C406 H434 0.930 . S
C407 C403 1.373 . S
C407 C405 1.383 . S
C407 H435 0.931 . S
C408 C405 1.382 . S
C408 C406 1.392 . S
C409 Eu400 2.828 . S
C409 C403 1.505 . S
C409 O421 1.249 . S
C409 O422 1.244 . S
O410 Eu401 2.373 . S
O410 C412 1.258 . S
O411 Eu400 2.392 . S
O411 C412 1.242 . S
C412 O410 1.258 . S
C412 O411 1.242 . S
O413 Eu400 2.418 . S
O413 C417 1.244 . S
O414 Eu401 2.488 . S
O414 C430 1.249 . S
O415 Eu401 2.471 . S
O415 C430 1.244 . S
O416 Eu401 2.349 . S
O416 C417 1.265 . S
C417 O413 1.244 . S
C417 O416 1.265 . S
O418 Eu400 2.373 . S
O418 C431 1.258 . S
O419 Eu401 2.392 . S
O419 C431 1.242 . S
O420 Eu401 2.418 . S
O420 C402 1.244 . S
O421 Eu400 2.488 . S
O421 C409 1.249 . S
O422 Eu400 2.471 . S
O422 C409 1.244 . S
O423 Eu400 2.349 . S
O423 C402 1.265 . S
C424 C425 1.379 . S
C424 C428 1.373 . S
C424 C430 1.506 1_655 S
C425 C424 1.379 . S
C425 C427 1.369 . S
C425 H436 0.930 . S
C426 C428 1.383 . S
C426 C429 1.382 . S
C426 H437 0.930 . S
C427 C425 1.369 . S
C427 C429 1.392 . S
C427 H438 0.930 . S
C428 C424 1.373 . S
C428 C426 1.383 . S
C428 H439 0.931 . S
C429 C426 1.382 . S
C429 C427 1.392 . S
C430 Eu401 2.827 . S
C430 O414 1.249 . S
C430 O415 1.244 . S
C430 C424 1.506 1_455 S
C431 O418 1.258 . S
C431 O419 1.242 . S
H432 C404 0.930 . S
H433 C405 0.930 . S
H434 C406 0.930 . S
H435 C407 0.931 . S
H436 C425 0.930 . S
H437 C426 0.930 . S
H438 C427 0.930 . S
H439 C428 0.931 . S
Eu440 C449 2.828 . S
Eu440 O451 2.392 . S
Eu440 O453 2.418 . S
Eu440 O458 2.373 . S
Eu440 O461 2.488 . S
Eu440 O462 2.471 . S
Eu440 O463 2.349 . S
Eu441 O450 2.373 . S
Eu441 O454 2.488 . S
Eu441 O455 2.471 . S
Eu441 O456 2.349 . S
Eu441 O459 2.392 . S
Eu441 O460 2.418 . S
Eu441 C470 2.826 . S
C442 O460 1.244 . S
C442 O463 1.265 . S
C443 C444 1.379 . S
C443 C447 1.373 . S
C443 C449 1.505 . S
C444 C443 1.379 . S
C444 C446 1.369 . S
C444 H472 0.930 . S
C445 C447 1.383 . S
C445 C448 1.382 . S
C445 H473 0.930 . S
C446 C444 1.369 . S
C446 C448 1.392 . S
C446 H474 0.930 . S
C447 C443 1.373 . S
C447 C445 1.383 . S
C447 H475 0.931 . S
C448 C445 1.382 . S
C448 C446 1.392 . S
C449 Eu440 2.828 . S
C449 C443 1.505 . S
C449 O461 1.249 . S
C449 O462 1.244 . S
O450 Eu441 2.373 . S
O450 C452 1.258 . S
O451 Eu440 2.392 . S
O451 C452 1.242 . S
C452 O450 1.258 . S
C452 O451 1.242 . S
O453 Eu440 2.418 . S
O453 C457 1.244 . S
O454 Eu441 2.488 . S
O454 C470 1.249 . S
O455 Eu441 2.471 . S
O455 C470 1.244 . S
O456 Eu441 2.349 . S
O456 C457 1.265 . S
C457 O453 1.244 . S
C457 O456 1.265 . S
O458 Eu440 2.373 . S
O458 C471 1.258 . S
O459 Eu441 2.392 . S
O459 C471 1.242 . S
O460 Eu441 2.418 . S
O460 C442 1.244 . S
O461 Eu440 2.488 . S
O461 C449 1.249 . S
O462 Eu440 2.471 . S
O462 C449 1.244 . S
O463 Eu440 2.349 . S
O463 C442 1.265 . S
C464 C465 1.379 . S
C464 C468 1.373 . S
C464 C470 1.507 1_565 S
C465 C464 1.379 . S
C465 C467 1.369 . S
C465 H476 0.930 . S
C466 C468 1.383 . S
C466 C469 1.382 . S
C466 H477 0.930 . S
C467 C465 1.369 . S
C467 C469 1.392 . S
C467 H478 0.930 . S
C468 C464 1.373 . S
C468 C466 1.383 . S
C468 H479 0.931 . S
C469 C466 1.382 . S
C469 C467 1.392 . S
C470 Eu441 2.826 . S
C470 O454 1.249 . S
C470 O455 1.244 . S
C470 C464 1.507 1_545 S
C471 O458 1.258 . S
C471 O459 1.242 . S
H472 C444 0.930 . S
H473 C445 0.930 . S
H474 C446 0.930 . S
H475 C447 0.931 . S
H476 C465 0.930 . S
H477 C466 0.930 . S
H478 C467 0.930 . S
H479 C468 0.931 . S
C480 C481 1.363 . S
C480 C486 1.379 1_565 S
C480 N488 1.356 . S
C481 C480 1.363 . S
C481 C487 1.363 . S
C482 C483 1.363 1_565 S
C482 C487 1.379 . S
C482 N489 1.356 1_565 S
C483 C482 1.363 1_545 S
C483 C486 1.363 . S
N484 C486 1.356 . S
N484 H496 0.984 . S
N484 H497 0.985 . S
N485 C487 1.356 . S
N485 H490 0.984 . S
N485 H491 0.985 . S
C486 C480 1.379 1_545 S
C486 C483 1.363 . S
C486 N484 1.356 . S
C487 C481 1.363 . S
C487 C482 1.379 . S
C487 N485 1.356 . S
N488 C480 1.356 . S
N488 H494 0.984 . S
N488 H495 0.984 . S
N489 C482 1.356 1_545 S
N489 H492 0.984 . S
N489 H493 0.985 1_545 S
H490 N485 0.984 . S
H491 N485 0.985 . S
H492 N489 0.984 . S
H493 N489 0.985 1_565 S
H494 N488 0.984 . S
H495 N488 0.984 . S
H496 N484 0.984 . S
H497 N484 0.985 . S
C498 C499 1.363 . S
C498 C504 1.379 . S
C498 N506 1.356 . S
C499 C498 1.363 . S
C499 C505 1.363 . S
C500 C501 1.363 . S
C500 C505 1.379 . S
C500 N507 1.356 . S
C501 C500 1.363 . S
C501 C504 1.363 . S
N502 C504 1.356 . S
N502 H514 0.984 . S
N502 H515 0.985 . S
N503 C505 1.356 . S
N503 H508 0.984 . S
N503 H509 0.985 . S
C504 C498 1.379 . S
C504 C501 1.363 . S
C504 N502 1.356 . S
C505 C499 1.363 . S
C505 C500 1.379 . S
C505 N503 1.356 . S
N506 C498 1.356 . S
N506 H512 0.984 . S
N506 H513 0.984 . S
N507 C500 1.356 . S
N507 H510 0.984 . S
N507 H511 0.985 . S
H508 N503 0.984 . S
H509 N503 0.985 . S
H510 N507 0.984 . S
H511 N507 0.985 . S
H512 N506 0.984 . S
H513 N506 0.984 . S
H514 N502 0.984 . S
H515 N502 0.985 . S
C516 C517 1.363 1_455 S
C516 C522 1.381 . S
C516 N524 1.354 1_455 S
C517 C516 1.363 1_655 S
C517 C523 1.363 1_655 S
C518 C519 1.363 . S
C518 C523 1.379 . S
C518 N525 1.356 . S
C519 C518 1.363 . S
C519 C522 1.363 . S
N520 C522 1.356 . S
N520 H532 0.984 . S
N520 H533 0.985 . S
N521 C523 1.356 1_655 S
N521 H526 0.984 . S
N521 H527 0.985 . S
C522 C516 1.381 . S
C522 C519 1.363 . S
C522 N520 1.356 . S
C523 C517 1.363 1_455 S
C523 C518 1.379 . S
C523 N521 1.356 1_455 S
N524 C516 1.354 1_655 S
N524 H530 0.984 . S
N524 H531 0.984 . S
N525 C518 1.356 . S
N525 H528 0.984 . S
N525 H529 0.985 . S
H526 N521 0.984 . S
H527 N521 0.985 . S
H528 N525 0.984 . S
H529 N525 0.985 . S
H530 N524 0.984 . S
H531 N524 0.984 . S
H532 N520 0.984 . S
H533 N520 0.985 . S
C534 C535 1.363 . S
C534 C540 1.379 1_565 S
C534 N542 1.356 . S
C535 C534 1.363 . S
C535 C541 1.363 1_565 S
C536 C537 1.363 . S
C536 C541 1.379 . S
C536 N543 1.356 . S
C537 C536 1.363 . S
C537 C540 1.363 . S
N538 C540 1.356 . S
N538 H550 0.984 . S
N538 H551 0.985 . S
N539 C541 1.356 1_565 S
N539 H544 0.984 . S
N539 H545 0.985 . S
C540 C534 1.379 1_545 S
C540 C537 1.363 . S
C540 N538 1.356 . S
C541 C535 1.363 1_545 S
C541 C536 1.379 . S
C541 N539 1.356 1_545 S
N542 C534 1.356 . S
N542 H548 0.984 . S
N542 H549 0.984 . S
N543 C536 1.356 . S
N543 H546 0.984 . S
N543 H547 0.985 . S
H544 N539 0.984 . S
H545 N539 0.985 . S
H546 N543 0.984 . S
H547 N543 0.985 . S
H548 N542 0.984 . S
H549 N542 0.984 . S
H550 N538 0.984 . S
H551 N538 0.985 . S
C552 C553 1.363 . S
C552 C558 1.379 . S
C552 N560 1.356 . S
C553 C552 1.363 . S
C553 C559 1.363 . S
C554 C555 1.363 . S
C554 C559 1.379 . S
C554 N561 1.356 . S
C555 C554 1.363 . S
C555 C558 1.363 . S
N556 C558 1.356 . S
N556 H568 0.984 . S
N556 H569 0.985 . S
N557 C559 1.356 . S
N557 H562 0.984 . S
N557 H563 0.985 . S
C558 C552 1.379 . S
C558 C555 1.363 . S
C558 N556 1.356 . S
C559 C553 1.363 . S
C559 C554 1.379 . S
C559 N557 1.356 . S
N560 C552 1.356 . S
N560 H566 0.984 . S
N560 H567 0.984 . S
N561 C554 1.356 . S
N561 H564 0.984 . S
N561 H565 0.985 . S
H562 N557 0.984 . S
H563 N557 0.985 . S
H564 N561 0.984 . S
H565 N561 0.985 . S
H566 N560 0.984 . S
H567 N560 0.984 . S
H568 N556 0.984 . S
H569 N556 0.985 . S
C570 C571 1.363 . S
C570 C576 1.379 1_655 S
C570 N578 1.356 . S
C571 C570 1.363 . S
C571 C577 1.363 . S
C572 C573 1.363 1_655 S
C572 C577 1.379 . S
C572 N579 1.356 1_655 S
C573 C572 1.363 1_455 S
C573 C576 1.363 . S
N574 C576 1.356 . S
N574 H586 0.984 . S
N574 H587 0.985 . S
N575 C577 1.356 . S
N575 H580 0.984 . S
N575 H581 0.985 . S
C576 C570 1.379 1_455 S
C576 C573 1.363 . S
C576 N574 1.356 . S
C577 C571 1.363 . S
C577 C572 1.379 . S
C577 N575 1.356 . S
N578 C570 1.356 . S
N578 H584 0.984 . S
N578 H585 0.984 . S
N579 C572 1.356 1_455 S
N579 H582 0.984 . S
N579 H583 0.985 1_455 S
H580 N575 0.984 . S
H581 N575 0.985 . S
H582 N579 0.984 . S
H583 N579 0.985 1_655 S
H584 N578 0.984 . S
H585 N578 0.984 . S
H586 N574 0.984 . S
H587 N574 0.985 . S
C588 C589 1.363 . S
C588 C594 1.379 1_455 S
C588 N596 1.356 . S
C589 C588 1.363 . S
C589 C595 1.363 . S
C590 C591 1.363 1_455 S
C590 C595 1.379 . S
C590 N597 1.356 1_455 S
C591 C590 1.363 1_655 S
C591 C594 1.363 . S
N592 C594 1.356 . S
N592 H604 0.984 . S
N592 H605 0.985 . S
N593 C595 1.356 . S
N593 H598 0.984 . S
N593 H599 0.985 . S
C594 C588 1.379 1_655 S
C594 C591 1.363 . S
C594 N592 1.356 . S
C595 C589 1.363 . S
C595 C590 1.379 . S
C595 N593 1.356 . S
N596 C588 1.356 . S
N596 H602 0.984 . S
N596 H603 0.984 . S
N597 C590 1.356 1_655 S
N597 H600 0.984 . S
N597 H601 0.985 . S
H598 N593 0.984 . S
H599 N593 0.985 . S
H600 N597 0.984 . S
H601 N597 0.985 . S
H602 N596 0.984 . S
H603 N596 0.984 . S
H604 N592 0.984 . S
H605 N592 0.985 . S
C606 C607 1.363 . S
C606 C612 1.379 1_565 S
C606 N614 1.356 . S
C607 C606 1.363 . S
C607 C613 1.363 1_565 S
C608 C609 1.363 . S
C608 C613 1.379 . S
C608 N615 1.356 . S
C609 C608 1.363 . S
C609 C612 1.363 . S
N610 C612 1.356 . S
N610 H622 0.984 . S
N610 H623 0.985 . S
N611 C613 1.356 1_565 S
N611 H616 0.984 . S
N611 H617 0.985 . S
C612 C606 1.379 1_545 S
C612 C609 1.363 . S
C612 N610 1.356 . S
C613 C607 1.363 1_545 S
C613 C608 1.379 . S
C613 N611 1.356 1_545 S
N614 C606 1.356 . S
N614 H620 0.984 . S
N614 H621 0.984 . S
N615 C608 1.356 . S
N615 H618 0.984 . S
N615 H619 0.985 . S
H616 N611 0.984 . S
H617 N611 0.985 . S
H618 N615 0.984 . S
H619 N615 0.985 . S
H620 N614 0.984 . S
H621 N614 0.984 . S
H622 N610 0.984 . S
H623 N610 0.985 . S
C624 C625 1.363 . S
C624 C630 1.379 . S
C624 N632 1.356 . S
C625 C624 1.363 . S
C625 C631 1.363 . S
C626 C627 1.363 . S
C626 C631 1.379 . S
C626 N633 1.356 . S
C627 C626 1.363 . S
C627 C630 1.363 . S
N628 C630 1.356 . S
N628 H640 0.984 . S
N628 H641 0.985 . S
N629 C631 1.356 . S
N629 H634 0.984 . S
N629 H635 0.985 . S
C630 C624 1.379 . S
C630 C627 1.363 . S
C630 N628 1.356 . S
C631 C625 1.363 . S
C631 C626 1.379 . S
C631 N629 1.356 . S
N632 C624 1.356 . S
N632 H638 0.984 . S
N632 H639 0.984 . S
N633 C626 1.356 . S
N633 H636 0.984 . S
N633 H637 0.985 . S
H634 N629 0.984 . S
H635 N629 0.985 . S
H636 N633 0.984 . S
H637 N633 0.985 . S
H638 N632 0.984 . S
H639 N632 0.984 . S
H640 N628 0.984 . S
H641 N628 0.985 . S
C642 C643 1.363 1_655 S
C642 C648 1.379 . S
C642 N650 1.356 1_655 S
C643 C642 1.363 1_455 S
C643 C649 1.363 . S
C644 C645 1.363 . S
C644 C649 1.379 1_655 S
C644 N651 1.356 . S
C645 C644 1.363 . S
C645 C648 1.363 . S
N646 C648 1.356 . S
N646 H658 0.984 . S
N646 H659 0.985 . S
N647 C649 1.356 . S
N647 H652 0.984 . S
N647 H653 0.985 . S
C648 C642 1.379 . S
C648 C645 1.363 . S
C648 N646 1.356 . S
C649 C643 1.363 . S
C649 C644 1.379 1_455 S
C649 N647 1.356 . S
N650 C642 1.356 1_455 S
N650 H656 0.984 . S
N650 H657 0.984 . S
N651 C644 1.356 . S
N651 H654 0.984 . S
N651 H655 0.985 . S
H652 N647 0.984 . S
H653 N647 0.985 . S
H654 N651 0.984 . S
H655 N651 0.985 . S
H656 N650 0.984 . S
H657 N650 0.984 . S
H658 N646 0.984 . S
H659 N646 0.985 . S
C660 C661 1.363 1_565 S
C660 C666 1.379 . S
C660 N668 1.356 1_565 S
C661 C660 1.363 1_545 S
C661 C667 1.363 . S
C662 C663 1.363 . S
C662 C667 1.379 1_565 S
C662 N669 1.356 . S
C663 C662 1.363 . S
C663 C666 1.363 . S
N664 C666 1.356 . S
N664 H676 0.984 . S
N664 H677 0.985 . S
N665 C667 1.356 . S
N665 H670 0.984 . S
N665 H671 0.985 . S
C666 C660 1.379 . S
C666 C663 1.363 . S
C666 N664 1.356 . S
C667 C661 1.363 . S
C667 C662 1.379 1_545 S
C667 N665 1.356 . S
N668 C660 1.356 1_545 S
N668 H674 0.984 . S
N668 H675 0.984 . S
N669 C662 1.356 . S
N669 H672 0.984 . S
N669 H673 0.985 . S
H670 N665 0.984 . S
H671 N665 0.985 . S
H672 N669 0.984 . S
H673 N669 0.985 . S
H674 N668 0.984 . S
H675 N668 0.984 . S
H676 N664 0.984 . S
H677 N664 0.985 . S
C678 C679 1.363 . S
C678 C684 1.379 . S
C678 N686 1.356 . S
C679 C678 1.363 . S
C679 C685 1.363 . S
C680 C681 1.363 . S
C680 C685 1.379 . S
C680 N687 1.356 . S
C681 C680 1.363 . S
C681 C684 1.363 . S
N682 C684 1.356 . S
N682 H694 0.984 . S
N682 H695 0.985 . S
N683 C685 1.356 . S
N683 H688 0.984 . S
N683 H689 0.985 . S
C684 C678 1.379 . S
C684 C681 1.363 . S
C684 N682 1.356 . S
C685 C679 1.363 . S
C685 C680 1.379 . S
C685 N683 1.356 . S
N686 C678 1.356 . S
N686 H692 0.984 . S
N686 H693 0.984 . S
N687 C680 1.356 . S
N687 H690 0.984 . S
N687 H691 0.985 . S
H688 N683 0.984 . S
H689 N683 0.985 . S
H690 N687 0.984 . S
H691 N687 0.985 . S
H692 N686 0.984 . S
H693 N686 0.984 . S
H694 N682 0.984 . S
H695 N682 0.985 . S
C696 C697 1.363 . S
C696 C702 1.379 . S
C696 N704 1.356 . S
C697 C696 1.363 . S
C697 C703 1.363 . S
C698 C699 1.363 . S
C698 C703 1.379 . S
C698 N705 1.356 . S
C699 C698 1.363 . S
C699 C702 1.363 . S
N700 C702 1.356 . S
N700 H712 0.984 . S
N700 H713 0.985 . S
N701 C703 1.356 . S
N701 H706 0.984 . S
N701 H707 0.985 . S
C702 C696 1.379 . S
C702 C699 1.363 . S
C702 N700 1.356 . S
C703 C697 1.363 . S
C703 C698 1.379 . S
C703 N701 1.356 . S
N704 C696 1.356 . S
N704 H710 0.984 . S
N704 H711 0.984 . S
N705 C698 1.356 . S
N705 H708 0.984 . S
N705 H709 0.985 . S
H706 N701 0.984 . S
H707 N701 0.985 . S
H708 N705 0.984 . S
H709 N705 0.985 . S
H710 N704 0.984 . S
H711 N704 0.984 . S
H712 N700 0.984 . S
H713 N700 0.985 . S
C714 C715 1.363 . S
C714 C720 1.379 . S
C714 N722 1.356 . S
C715 C714 1.363 . S
C715 C721 1.363 . S
C716 C717 1.363 . S
C716 C721 1.379 . S
C716 N723 1.356 . S
C717 C716 1.363 . S
C717 C720 1.363 . S
N718 C720 1.356 . S
N718 H730 0.984 . S
N718 H731 0.985 . S
N719 C721 1.356 . S
N719 H724 0.984 . S
N719 H725 0.985 . S
C720 C714 1.379 . S
C720 C717 1.363 . S
C720 N718 1.356 . S
C721 C715 1.363 . S
C721 C716 1.379 . S
C721 N719 1.356 . S
N722 C714 1.356 . S
N722 H728 0.984 . S
N722 H729 0.984 . S
N723 C716 1.356 . S
N723 H726 0.984 . S
N723 H727 0.985 . S
H724 N719 0.984 . S
H725 N719 0.985 . S
H726 N723 0.984 . S
H727 N723 0.985 . S
H728 N722 0.984 . S
H729 N722 0.984 . S
H730 N718 0.984 . S
H731 N718 0.985 . S
C732 C733 1.363 . S
C732 C738 1.379 . S
C732 N740 1.356 . S
C733 C732 1.363 . S
C733 C739 1.363 . S
C734 C735 1.363 . S
C734 C739 1.379 . S
C734 N741 1.356 . S
C735 C734 1.363 . S
C735 C738 1.363 . S
N736 C738 1.356 . S
N736 H748 0.984 . S
N736 H749 0.985 . S
N737 C739 1.356 . S
N737 H742 0.984 . S
N737 H743 0.985 . S
C738 C732 1.379 . S
C738 C735 1.363 . S
C738 N736 1.356 . S
C739 C733 1.363 . S
C739 C734 1.379 . S
C739 N737 1.356 . S
N740 C732 1.356 . S
N740 H746 0.984 . S
N740 H747 0.984 . S
N741 C734 1.356 . S
N741 H744 0.984 . S
N741 H745 0.985 . S
H742 N737 0.984 . S
H743 N737 0.985 . S
H744 N741 0.984 . S
H745 N741 0.985 . S
H746 N740 0.984 . S
H747 N740 0.984 . S
H748 N736 0.984 . S
H749 N736 0.985 . S
C750 C751 1.363 . S
C750 C756 1.379 . S
C750 N758 1.356 . S
C751 C750 1.363 . S
C751 C757 1.363 . S
C752 C753 1.363 . S
C752 C757 1.379 . S
C752 N759 1.356 . S
C753 C752 1.363 . S
C753 C756 1.363 . S
N754 C756 1.356 . S
N754 H766 0.984 . S
N754 H767 0.985 . S
N755 C757 1.356 . S
N755 H760 0.984 . S
N755 H761 0.985 . S
C756 C750 1.379 . S
C756 C753 1.363 . S
C756 N754 1.356 . S
C757 C751 1.363 . S
C757 C752 1.379 . S
C757 N755 1.356 . S
N758 C750 1.356 . S
N758 H764 0.984 . S
N758 H765 0.984 . S
N759 C752 1.356 . S
N759 H762 0.984 . S
N759 H763 0.985 . S
H760 N755 0.984 . S
H761 N755 0.985 . S
H762 N759 0.984 . S
H763 N759 0.985 . S
H764 N758 0.984 . S
H765 N758 0.984 . S
H766 N754 0.984 . S
H767 N754 0.985 . S
C768 C769 1.363 . S
C768 C774 1.379 . S
C768 N776 1.356 . S
C769 C768 1.363 . S
C769 C775 1.363 . S
C770 C771 1.363 . S
C770 C775 1.379 . S
C770 N777 1.356 . S
C771 C770 1.363 . S
C771 C774 1.363 . S
N772 C774 1.356 . S
N772 H784 0.984 . S
N772 H785 0.985 . S
N773 C775 1.356 . S
N773 H778 0.984 . S
N773 H779 0.985 . S
C774 C768 1.379 . S
C774 C771 1.363 . S
C774 N772 1.356 . S
C775 C769 1.363 . S
C775 C770 1.379 . S
C775 N773 1.356 . S
N776 C768 1.356 . S
N776 H782 0.984 . S
N776 H783 0.984 . S
N777 C770 1.356 . S
N777 H780 0.984 . S
N777 H781 0.985 . S
H778 N773 0.984 . S
H779 N773 0.985 . S
H780 N777 0.984 . S
H781 N777 0.985 . S
H782 N776 0.984 . S
H783 N776 0.984 . S
H784 N772 0.984 . S
H785 N772 0.985 . S
C786 C787 1.363 . S
C786 C792 1.379 . S
C786 N794 1.356 . S
C787 C786 1.363 . S
C787 C793 1.363 . S
C788 C789 1.363 . S
C788 C793 1.379 . S
C788 N795 1.356 . S
C789 C788 1.363 . S
C789 C792 1.363 . S
N790 C792 1.356 . S
N790 H802 0.984 . S
N790 H803 0.985 . S
N791 C793 1.356 . S
N791 H796 0.984 . S
N791 H797 0.985 . S
C792 C786 1.379 . S
C792 C789 1.363 . S
C792 N790 1.356 . S
C793 C787 1.363 . S
C793 C788 1.379 . S
C793 N791 1.356 . S
N794 C786 1.356 . S
N794 H800 0.984 . S
N794 H801 0.984 . S
N795 C788 1.356 . S
N795 H798 0.984 . S
N795 H799 0.985 . S
H796 N791 0.984 . S
H797 N791 0.985 . S
H798 N795 0.984 . S
H799 N795 0.985 . S
H800 N794 0.984 . S
H801 N794 0.984 . S
H802 N790 0.984 . S
H803 N790 0.985 . S
C804 C805 1.363 . S
C804 C810 1.379 . S
C804 N812 1.356 . S
C805 C804 1.363 . S
C805 C811 1.363 . S
C806 C807 1.363 . S
C806 C811 1.379 . S
C806 N813 1.356 . S
C807 C806 1.363 . S
C807 C810 1.363 . S
N808 C810 1.356 . S
N808 H820 0.984 . S
N808 H821 0.985 . S
N809 C811 1.356 . S
N809 H814 0.984 . S
N809 H815 0.985 . S
C810 C804 1.379 . S
C810 C807 1.363 . S
C810 N808 1.356 . S
C811 C805 1.363 . S
C811 C806 1.379 . S
C811 N809 1.356 . S
N812 C804 1.356 . S
N812 H818 0.984 . S
N812 H819 0.984 . S
N813 C806 1.356 . S
N813 H816 0.984 . S
N813 H817 0.985 . S
H814 N809 0.984 . S
H815 N809 0.985 . S
H816 N813 0.984 . S
H817 N813 0.985 . S
H818 N812 0.984 . S
H819 N812 0.984 . S
H820 N808 0.984 . S
H821 N808 0.985 . S
C822 C823 1.363 . S
C822 C828 1.379 . S
C822 N830 1.356 . S
C823 C822 1.363 . S
C823 C829 1.363 . S
C824 C825 1.363 . S
C824 C829 1.379 . S
C824 N831 1.356 . S
C825 C824 1.363 . S
C825 C828 1.363 . S
N826 C828 1.356 . S
N826 H838 0.984 . S
N826 H839 0.985 . S
N827 C829 1.356 . S
N827 H832 0.984 . S
N827 H833 0.985 . S
C828 C822 1.379 . S
C828 C825 1.363 . S
C828 N826 1.356 . S
C829 C823 1.363 . S
C829 C824 1.379 . S
C829 N827 1.356 . S
N830 C822 1.356 . S
N830 H836 0.984 . S
N830 H837 0.984 . S
N831 C824 1.356 . S
N831 H834 0.984 . S
N831 H835 0.985 . S
H832 N827 0.984 . S
H833 N827 0.985 . S
H834 N831 0.984 . S
H835 N831 0.985 . S
H836 N830 0.984 . S
H837 N830 0.984 . S
H838 N826 0.984 . S
H839 N826 0.985 . S
C840 C841 1.363 . S
C840 C846 1.379 . S
C840 N848 1.356 . S
C841 C840 1.363 . S
C841 C847 1.363 . S
C842 C843 1.363 . S
C842 C847 1.379 . S
C842 N849 1.356 . S
C843 C842 1.363 . S
C843 C846 1.363 . S
N844 C846 1.356 . S
N844 H856 0.984 . S
N844 H857 0.985 . S
N845 C847 1.356 . S
N845 H850 0.984 . S
N845 H851 0.985 . S
C846 C840 1.379 . S
C846 C843 1.363 . S
C846 N844 1.356 . S
C847 C841 1.363 . S
C847 C842 1.379 . S
C847 N845 1.356 . S
N848 C840 1.356 . S
N848 H854 0.984 . S
N848 H855 0.984 . S
N849 C842 1.356 . S
N849 H852 0.984 . S
N849 H853 0.985 . S
H850 N845 0.984 . S
H851 N845 0.985 . S
H852 N849 0.984 . S
H853 N849 0.985 . S
H854 N848 0.984 . S
H855 N848 0.984 . S
H856 N844 0.984 . S
H857 N844 0.985 . S
C858 C859 1.363 . S
C858 C864 1.379 . S
C858 N866 1.356 . S
C859 C858 1.363 . S
C859 C865 1.363 . S
C860 C861 1.363 . S
C860 C865 1.379 . S
C860 N867 1.356 . S
C861 C860 1.363 . S
C861 C864 1.363 . S
N862 C864 1.356 . S
N862 H874 0.984 . S
N862 H875 0.985 . S
N863 C865 1.356 . S
N863 H868 0.984 . S
N863 H869 0.985 . S
C864 C858 1.379 . S
C864 C861 1.363 . S
C864 N862 1.356 . S
C865 C859 1.363 . S
C865 C860 1.379 . S
C865 N863 1.356 . S
N866 C858 1.356 . S
N866 H872 0.984 . S
N866 H873 0.984 . S
N867 C860 1.356 . S
N867 H870 0.984 . S
N867 H871 0.985 . S
H868 N863 0.984 . S
H869 N863 0.985 . S
H870 N867 0.984 . S
H871 N867 0.985 . S
H872 N866 0.984 . S
H873 N866 0.984 . S
H874 N862 0.984 . S
H875 N862 0.985 . S
C876 C877 1.363 . S
C876 C882 1.379 . S
C876 N884 1.356 . S
C877 C876 1.363 . S
C877 C883 1.363 . S
C878 C879 1.363 . S
C878 C883 1.379 . S
C878 N885 1.356 . S
C879 C878 1.363 . S
C879 C882 1.363 . S
N880 C882 1.356 . S
N880 H892 0.984 . S
N880 H893 0.985 . S
N881 C883 1.356 . S
N881 H886 0.984 . S
N881 H887 0.985 . S
C882 C876 1.379 . S
C882 C879 1.363 . S
C882 N880 1.356 . S
C883 C877 1.363 . S
C883 C878 1.379 . S
C883 N881 1.356 . S
N884 C876 1.356 . S
N884 H890 0.984 . S
N884 H891 0.984 . S
N885 C878 1.356 . S
N885 H888 0.984 . S
N885 H889 0.985 . S
H886 N881 0.984 . S
H887 N881 0.985 . S
H888 N885 0.984 . S
H889 N885 0.985 . S
H890 N884 0.984 . S
H891 N884 0.984 . S
H892 N880 0.984 . S
H893 N880 0.985 . S
C894 C895 1.363 . S
C894 C900 1.379 . S
C894 N902 1.356 . S
C895 C894 1.363 . S
C895 C901 1.363 . S
C896 C897 1.363 . S
C896 C901 1.379 . S
C896 N903 1.356 . S
C897 C896 1.363 . S
C897 C900 1.363 . S
N898 C900 1.356 . S
N898 H910 0.984 . S
N898 H911 0.985 . S
N899 C901 1.356 . S
N899 H904 0.984 . S
N899 H905 0.985 . S
C900 C894 1.379 . S
C900 C897 1.363 . S
C900 N898 1.356 . S
C901 C895 1.363 . S
C901 C896 1.379 . S
C901 N899 1.356 . S
N902 C894 1.356 . S
N902 H908 0.984 . S
N902 H909 0.984 . S
N903 C896 1.356 . S
N903 H906 0.984 . S
N903 H907 0.985 . S
H904 N899 0.984 . S
H905 N899 0.985 . S
H906 N903 0.984 . S
H907 N903 0.985 . S
H908 N902 0.984 . S
H909 N902 0.984 . S
H910 N898 0.984 . S
H911 N898 0.985 . S
C912 C913 1.363 . S
C912 C918 1.379 . S
C912 N920 1.356 . S
C913 C912 1.363 . S
C913 C919 1.363 . S
C914 C915 1.363 . S
C914 C919 1.379 . S
C914 N921 1.356 . S
C915 C914 1.363 . S
C915 C918 1.363 . S
N916 C918 1.356 . S
N916 H928 0.984 . S
N916 H929 0.985 . S
N917 C919 1.356 . S
N917 H922 0.984 . S
N917 H923 0.985 . S
C918 C912 1.379 . S
C918 C915 1.363 . S
C918 N916 1.356 . S
C919 C913 1.363 . S
C919 C914 1.379 . S
C919 N917 1.356 . S
N920 C912 1.356 . S
N920 H926 0.984 . S
N920 H927 0.984 . S
N921 C914 1.356 . S
N921 H924 0.984 . S
N921 H925 0.985 . S
H922 N917 0.984 . S
H923 N917 0.985 . S
H924 N921 0.984 . S
H925 N921 0.985 . S
H926 N920 0.984 . S
H927 N920 0.984 . S
H928 N916 0.984 . S
H929 N916 0.985 . S
C930 C931 1.363 . S
C930 C936 1.379 . S
C930 N938 1.356 . S
C931 C930 1.363 . S
C931 C937 1.363 . S
C932 C933 1.363 . S
C932 C937 1.379 . S
C932 N939 1.356 . S
C933 C932 1.363 . S
C933 C936 1.363 . S
N934 C936 1.356 . S
N934 H946 0.984 . S
N934 H947 0.985 . S
N935 C937 1.356 . S
N935 H940 0.984 . S
N935 H941 0.985 . S
C936 C930 1.379 . S
C936 C933 1.363 . S
C936 N934 1.356 . S
C937 C931 1.363 . S
C937 C932 1.379 . S
C937 N935 1.356 . S
N938 C930 1.356 . S
N938 H944 0.984 . S
N938 H945 0.984 . S
N939 C932 1.356 . S
N939 H942 0.984 . S
N939 H943 0.985 . S
H940 N935 0.984 . S
H941 N935 0.985 . S
H942 N939 0.984 . S
H943 N939 0.985 . S
H944 N938 0.984 . S
H945 N938 0.984 . S
H946 N934 0.984 . S
H947 N934 0.985 . S
C948 C949 1.363 . S
C948 C954 1.379 . S
C948 N956 1.356 . S
C949 C948 1.363 . S
C949 C955 1.363 . S
C950 C951 1.363 . S
C950 C955 1.379 . S
C950 N957 1.356 . S
C951 C950 1.363 . S
C951 C954 1.363 . S
N952 C954 1.356 . S
N952 H964 0.984 . S
N952 H965 0.985 . S
N953 C955 1.356 . S
N953 H958 0.984 . S
N953 H959 0.985 . S
C954 C948 1.379 . S
C954 C951 1.363 . S
C954 N952 1.356 . S
C955 C949 1.363 . S
C955 C950 1.379 . S
C955 N953 1.356 . S
N956 C948 1.356 . S
N956 H962 0.984 . S
N956 H963 0.984 . S
N957 C950 1.356 . S
N957 H960 0.984 . S
N957 H961 0.985 . S
H958 N953 0.984 . S
H959 N953 0.985 . S
H960 N957 0.984 . S
H961 N957 0.985 . S
H962 N956 0.984 . S
H963 N956 0.984 . S
H964 N952 0.984 . S
H965 N952 0.985 . S
C966 C967 1.363 . S
C966 C972 1.379 . S
C966 N974 1.356 . S
C967 C966 1.363 . S
C967 C973 1.363 . S
C968 C969 1.363 . S
C968 C973 1.379 . S
C968 N975 1.356 . S
C969 C968 1.363 . S
C969 C972 1.363 . S
N970 C972 1.356 . S
N970 H982 0.984 . S
N970 H983 0.985 . S
N971 C973 1.356 . S
N971 H976 0.984 . S
N971 H977 0.985 . S
C972 C966 1.379 . S
C972 C969 1.363 . S
C972 N970 1.356 . S
C973 C967 1.363 . S
C973 C968 1.379 . S
C973 N971 1.356 . S
N974 C966 1.356 . S
N974 H980 0.984 . S
N974 H981 0.984 . S
N975 C968 1.356 . S
N975 H978 0.984 . S
N975 H979 0.985 . S
H976 N971 0.984 . S
H977 N971 0.985 . S
H978 N975 0.984 . S
H979 N975 0.985 . S
H980 N974 0.984 . S
H981 N974 0.984 . S
H982 N970 0.984 . S
H983 N970 0.985 . S
C984 C985 1.363 . S
C984 C990 1.379 . S
C984 N992 1.356 . S
C985 C984 1.363 . S
C985 C991 1.363 . S
C986 C987 1.363 . S
C986 C991 1.379 . S
C986 N993 1.356 . S
C987 C986 1.363 . S
C987 C990 1.363 . S
N988 C990 1.356 . S
N988 H1000 0.984 . S
N988 H1001 0.985 . S
N989 C991 1.356 . S
N989 H994 0.984 . S
N989 H995 0.985 . S
C990 C984 1.379 . S
C990 C987 1.363 . S
C990 N988 1.356 . S
C991 C985 1.363 . S
C991 C986 1.379 . S
C991 N989 1.356 . S
N992 C984 1.356 . S
N992 H998 0.984 . S
N992 H999 0.984 . S
N993 C986 1.356 . S
N993 H996 0.984 . S
N993 H997 0.985 . S
H994 N989 0.984 . S
H995 N989 0.985 . S
H996 N993 0.984 . S
H997 N993 0.985 . S
H998 N992 0.984 . S
H999 N992 0.984 . S
H1000 N988 0.984 . S
H1001 N988 0.985 . S
C1002 C1003 1.363 . S
C1002 C1008 1.379 . S
C1002 N1010 1.356 . S
C1003 C1002 1.363 . S
C1003 C1009 1.363 . S
C1004 C1005 1.363 . S
C1004 C1009 1.379 . S
C1004 N1011 1.356 . S
C1005 C1004 1.363 . S
C1005 C1008 1.363 . S
N1006 C1008 1.356 . S
N1006 H1018 0.984 . S
N1006 H1019 0.985 . S
N1007 C1009 1.356 . S
N1007 H1012 0.984 . S
N1007 H1013 0.985 . S
C1008 C1002 1.379 . S
C1008 C1005 1.363 . S
C1008 N1006 1.356 . S
C1009 C1003 1.363 . S
C1009 C1004 1.379 . S
C1009 N1007 1.356 . S
N1010 C1002 1.356 . S
N1010 H1016 0.984 . S
N1010 H1017 0.984 . S
N1011 C1004 1.356 . S
N1011 H1014 0.984 . S
N1011 H1015 0.985 . S
H1012 N1007 0.984 . S
H1013 N1007 0.985 . S
H1014 N1011 0.984 . S
H1015 N1011 0.985 . S
H1016 N1010 0.984 . S
H1017 N1010 0.984 . S
H1018 N1006 0.984 . S
H1019 N1006 0.985 . S
C1020 C1021 1.363 . S
C1020 C1026 1.379 1_556 S
C1020 N1028 1.356 . S
C1021 C1020 1.363 . S
C1021 C1027 1.363 . S
C1022 C1023 1.363 . S
C1022 C1027 1.379 1_554 S
C1022 N1029 1.356 . S
C1023 C1022 1.363 . S
C1023 C1026 1.363 . S
N1024 C1026 1.356 . S
N1024 H1036 0.984 . S
N1024 H1037 0.985 . S
N1025 C1027 1.356 . S
N1025 H1030 0.984 . S
N1025 H1031 0.985 . S
C1026 C1020 1.379 1_554 S
C1026 C1023 1.363 . S
C1026 N1024 1.356 . S
C1027 C1021 1.363 . S
C1027 C1022 1.379 1_556 S
C1027 N1025 1.356 . S
N1028 C1020 1.356 . S
N1028 H1034 0.984 . S
N1028 H1035 0.984 . S
N1029 C1022 1.356 . S
N1029 H1032 0.984 . S
N1029 H1033 0.985 . S
H1030 N1025 0.984 . S
H1031 N1025 0.985 . S
H1032 N1029 0.984 . S
H1033 N1029 0.985 . S
H1034 N1028 0.984 . S
H1035 N1028 0.984 . S
H1036 N1024 0.984 . S
H1037 N1024 0.985 . S
C1038 C1039 1.363 . S
C1038 C1044 1.379 1_455 S
C1038 N1046 1.356 . S
C1039 C1038 1.363 . S
C1039 C1045 1.363 . S
C1040 C1041 1.363 . S
C1040 C1045 1.379 1_655 S
C1040 N1047 1.356 . S
C1041 C1040 1.363 . S
C1041 C1044 1.363 . S
N1042 C1044 1.356 . S
N1042 H1054 0.984 . S
N1042 H1055 0.985 . S
N1043 C1045 1.356 . S
N1043 H1048 0.984 . S
N1043 H1049 0.985 . S
C1044 C1038 1.379 1_655 S
C1044 C1041 1.363 . S
C1044 N1042 1.356 . S
C1045 C1039 1.363 . S
C1045 C1040 1.379 1_455 S
C1045 N1043 1.356 . S
N1046 C1038 1.356 . S
N1046 H1052 0.984 . S
N1046 H1053 0.984 . S
N1047 C1040 1.356 . S
N1047 H1050 0.984 . S
N1047 H1051 0.985 . S
H1048 N1043 0.984 . S
H1049 N1043 0.985 . S
H1050 N1047 0.984 . S
H1051 N1047 0.985 . S
H1052 N1046 0.984 . S
H1053 N1046 0.984 . S
H1054 N1042 0.984 . S
H1055 N1042 0.985 . S
C1056 C1057 1.363 1_556 S
C1056 C1062 1.379 1_565 S
C1056 N1064 1.356 . S
C1057 C1056 1.363 1_554 S
C1057 C1063 1.363 . S
C1058 C1059 1.363 1_554 S
C1058 C1063 1.379 1_545 S
C1058 N1065 1.356 . S
C1059 C1058 1.363 1_556 S
C1059 C1062 1.363 . S
N1060 C1062 1.356 . S
N1060 H1072 0.984 . S
N1060 H1073 0.985 . S
N1061 C1063 1.356 . S
N1061 H1066 0.984 . S
N1061 H1067 0.985 . S
C1062 C1056 1.379 1_545 S
C1062 C1059 1.363 . S
C1062 N1060 1.356 . S
C1063 C1057 1.363 . S
C1063 C1058 1.379 1_565 S
C1063 N1061 1.356 . S
N1064 C1056 1.356 . S
N1064 H1070 0.984 . S
N1064 H1071 0.984 . S
N1065 C1058 1.356 . S
N1065 H1068 0.984 . S
N1065 H1069 0.985 . S
H1066 N1061 0.984 . S
H1067 N1061 0.985 . S
H1068 N1065 0.984 . S
H1069 N1065 0.985 . S
H1070 N1064 0.984 . S
H1071 N1064 0.984 . S
H1072 N1060 0.984 . S
H1073 N1060 0.985 . S
C1074 C1075 1.363 . S
C1074 C1080 1.379 . S
C1074 N1082 1.356 . S
C1075 C1074 1.363 . S
C1075 C1081 1.363 . S
C1076 C1077 1.363 . S
C1076 C1081 1.379 . S
C1076 N1083 1.356 . S
C1077 C1076 1.363 . S
C1077 C1080 1.363 . S
N1078 C1080 1.356 . S
N1078 H1090 0.984 . S
N1078 H1091 0.985 . S
N1079 C1081 1.356 . S
N1079 H1084 0.984 . S
N1079 H1085 0.985 . S
C1080 C1074 1.379 . S
C1080 C1077 1.363 . S
C1080 N1078 1.356 . S
C1081 C1075 1.363 . S
C1081 C1076 1.379 . S
C1081 N1079 1.356 . S
N1082 C1074 1.356 . S
N1082 H1088 0.984 . S
N1082 H1089 0.984 . S
N1083 C1076 1.356 . S
N1083 H1086 0.984 . S
N1083 H1087 0.985 . S
H1084 N1079 0.984 . S
H1085 N1079 0.985 . S
H1086 N1083 0.984 . S
H1087 N1083 0.985 . S
H1088 N1082 0.984 . S
H1089 N1082 0.984 . S
H1090 N1078 0.984 . S
H1091 N1078 0.985 . S
C1092 C1093 1.363 1_554 S
C1092 C1098 1.379 1_655 S
C1092 N1100 1.356 . S
C1093 C1092 1.363 1_556 S
C1093 C1099 1.363 . S
C1094 C1095 1.363 1_556 S
C1094 C1099 1.379 1_455 S
C1094 N1101 1.356 . S
C1095 C1094 1.363 1_554 S
C1095 C1098 1.363 . S
N1096 C1098 1.356 . S
N1096 H1108 0.984 . S
N1096 H1109 0.985 . S
N1097 C1099 1.356 . S
N1097 H1102 0.984 . S
N1097 H1103 0.985 . S
C1098 C1092 1.379 1_455 S
C1098 C1095 1.363 . S
C1098 N1096 1.356 . S
C1099 C1093 1.363 . S
C1099 C1094 1.379 1_655 S
C1099 N1097 1.356 . S
N1100 C1092 1.356 . S
N1100 H1106 0.984 . S
N1100 H1107 0.984 . S
N1101 C1094 1.356 . S
N1101 H1104 0.984 . S
N1101 H1105 0.985 . S
H1102 N1097 0.984 . S
H1103 N1097 0.985 . S
H1104 N1101 0.984 . S
H1105 N1101 0.985 . S
H1106 N1100 0.984 . S
H1107 N1100 0.984 . S
H1108 N1096 0.984 . S
H1109 N1096 0.985 . S
C1110 C1111 1.363 . S
C1110 C1116 1.379 1_565 S
C1110 N1118 1.356 . S
C1111 C1110 1.363 . S
C1111 C1117 1.363 . S
C1112 C1113 1.363 . S
C1112 C1117 1.379 1_545 S
C1112 N1119 1.356 . S
C1113 C1112 1.363 . S
C1113 C1116 1.363 . S
N1114 C1116 1.356 . S
N1114 H1126 0.984 . S
N1114 H1127 0.985 . S
N1115 C1117 1.356 . S
N1115 H1120 0.984 . S
N1115 H1121 0.985 . S
C1116 C1110 1.379 1_545 S
C1116 C1113 1.363 . S
C1116 N1114 1.356 . S
C1117 C1111 1.363 . S
C1117 C1112 1.379 1_565 S
C1117 N1115 1.356 . S
N1118 C1110 1.356 . S
N1118 H1124 0.984 . S
N1118 H1125 0.984 . S
N1119 C1112 1.356 . S
N1119 H1122 0.984 . S
N1119 H1123 0.985 . S
H1120 N1115 0.984 . S
H1121 N1115 0.985 . S
H1122 N1119 0.984 . S
H1123 N1119 0.985 . S
H1124 N1118 0.984 . S
H1125 N1118 0.984 . S
H1126 N1114 0.984 . S
H1127 N1114 0.985 . S
C481 C172 1.398 . S
C483 C29 1.423 . S
C499 C212 1.398 . S
C501 C69 1.423 . S
C517 C109 1.423 . S
C519 C12 1.398 . S
C535 C149 1.423 . S
C537 C52 1.398 . S
C553 C189 1.423 . S
C555 C92 1.398 . S
C571 C132 1.398 . S
C573 C229 1.423 . S
C589 C332 1.398 . S
C591 C269 1.423 . S
C607 C309 1.423 . S
C609 C372 1.398 . S
C625 C412 1.398 . S
C627 C349 1.423 . S
C643 C389 1.423 . S
C645 C452 1.398 . S
C661 C429 1.423 . S
C663 C252 1.398 . S
C679 C292 1.398 . S
C681 C469 1.423 . S
C697 C191 1.816 . S
C699 C8 1.754 . S
C715 C48 1.754 . S
C717 C231 1.816 . S
C733 C88 1.754 . S
C735 C31 1.815 . S
C751 C128 1.754 . S
C753 C71 1.816 . S
C769 C111 1.816 . S
C771 C168 1.754 . S
C787 C151 1.815 . S
C789 C208 1.754 . S
C805 C351 1.816 . S
C807 C248 1.754 . S
C823 C288 1.754 . S
C825 C391 1.815 . S
C841 C328 1.754 . S
C843 C431 1.816 . S
C859 C471 1.816 . S
C861 C368 1.754 . S
C877 C408 1.754 . S
C879 C271 1.815 . S
C895 C311 1.816 . S
C897 C448 1.754 . S
C913 C402 1.626 . S
C915 C2 1.626 . S
C931 C42 1.626 . S
C933 C442 1.626 . S
C949 C82 1.626 . S
C951 C242 1.626 . S
C967 C122 1.626 . S
C969 C282 1.626 . S
C985 C162 1.626 . S
C987 C322 1.626 . S
C1003 C362 1.626 . S
C1005 C202 1.626 . S
C1021 C377 2.339 . S
C1023 C17 2.339 . S
C1039 C417 2.339 . S
C1041 C57 2.339 . S
C1057 C97 2.339 . S
C1059 C457 2.339 . S
C1075 C137 2.339 . S
C1077 C257 2.339 . S
C1093 C297 2.339 . S
C1095 C177 2.339 . S
C1111 C337 2.339 . S
C1113 C217 2.339 . S
