# Generated by pormake.
# Topology qtz-e, (6)-cn, num edge types: 1
# Building blocks:
#     Node 0, Type 0, BuildingBlock: HISSIN_clean_sbu_0, # of connection points: 6
#     Node 1, Type 0, BuildingBlock: HISSIN_clean_sbu_0, # of connection points: 6
#     Node 2, Type 0, BuildingBlock: HISSIN_clean_sbu_0, # of connection points: 6
#     Node 3, Type 0, BuildingBlock: HISSIN_clean_sbu_0, # of connection points: 6
#     Node 4, Type 0, BuildingBlock: HISSIN_clean_sbu_0, # of connection points: 6
#     Node 5, Type 0, BuildingBlock: HISSIN_clean_sbu_0, # of connection points: 6
#     Edge 6, Type (0, 0), BuildingBlock: XUDNAN_clean_linker_2, # of connection points: 2
#     Edge 7, Type (0, 0), BuildingBlock: XUDNAN_clean_linker_2, # of connection points: 2
#     Edge 8, Type (0, 0), BuildingBlock: XUDNAN_clean_linker_2, # of connection points: 2
#     Edge 9, Type (0, 0), BuildingBlock: XUDNAN_clean_linker_2, # of connection points: 2
#     Edge 10, Type (0, 0), BuildingBlock: XUDNAN_clean_linker_2, # of connection points: 2
#     Edge 11, Type (0, 0), BuildingBlock: XUDNAN_clean_linker_2, # of connection points: 2
#     Edge 12, Type (0, 0), BuildingBlock: XUDNAN_clean_linker_2, # of connection points: 2
#     Edge 13, Type (0, 0), BuildingBlock: XUDNAN_clean_linker_2, # of connection points: 2
#     Edge 14, Type (0, 0), BuildingBlock: XUDNAN_clean_linker_2, # of connection points: 2
#     Edge 15, Type (0, 0), BuildingBlock: XUDNAN_clean_linker_2, # of connection points: 2
#     Edge 16, Type (0, 0), BuildingBlock: XUDNAN_clean_linker_2, # of connection points: 2
#     Edge 17, Type (0, 0), BuildingBlock: XUDNAN_clean_linker_2, # of connection points: 2
#     Edge 18, Type (0, 0), BuildingBlock: XUDNAN_clean_linker_2, # of connection points: 2
#     Edge 19, Type (0, 0), BuildingBlock: XUDNAN_clean_linker_2, # of connection points: 2
#     Edge 20, Type (0, 0), BuildingBlock: XUDNAN_clean_linker_2, # of connection points: 2
#     Edge 21, Type (0, 0), BuildingBlock: XUDNAN_clean_linker_2, # of connection points: 2
#     Edge 22, Type (0, 0), BuildingBlock: XUDNAN_clean_linker_2, # of connection points: 2
#     Edge 23, Type (0, 0), BuildingBlock: XUDNAN_clean_linker_2, # of connection points: 2
# Relax obj value: 0.127
# Max RMSD: 0.199
# Mean RMSD: 0.199
data_MOF--net-qtz-e--node1-HISSIN_clean_sbu_0--edge1-XUDNAN_clean_linker_2
_symmetry_space_group_name_H-M    P1
_symmetry_Int_Tables_number       1
_symmetry_cell_setting            triclinic
loop_
_symmetry_equiv_pos_as_xyz
'x, y, z'
_cell_length_a     25.54058
_cell_length_b     25.634332
_cell_length_c     52.134841
_cell_angle_alpha  90.151289
_cell_angle_beta   89.724583
_cell_angle_gamma 119.90022
loop_
_atom_site_label
_atom_site_type_symbol
_atom_site_fract_x
_atom_site_fract_y
_atom_site_fract_z
_atom_type_partial_charge
Eu0 Eu 0.15909 0.45788 0.0673 0.0
Eu1 Eu 0.18313 0.34904 0.04651 0.0
C2 C 0.0631 0.3482 0.03479 0.0
C3 C 0.13683 0.55036 0.11749 0.0
C4 C 0.15205 0.60893 0.12474 0.0
C5 C 0.13337 0.52397 0.16252 0.0
C6 C 0.15851 0.62516 0.15072 0.0
C7 C 0.1271 0.50789 0.13661 0.0
C8 C 0.15001 0.58306 0.16995 0.0
C9 C 0.1352 0.53469 0.09011 0.0
O10 O 0.22081 0.42144 1.01624 0.0
O11 O 0.17264 0.47593 0.02463 0.0
C12 C 0.20394 0.46029 1.00942 0.0
O13 O 0.25913 0.4966 0.06571 0.0
O14 O 0.14903 0.25495 0.03628 0.0
O15 O 0.24463 0.3192 0.03252 0.0
O16 O 0.26142 0.40932 0.07204 0.0
C17 C 0.28764 0.46839 0.07264 0.0
O18 O 0.17005 0.41138 0.10157 0.0
O19 O 0.13156 0.31751 0.08414 0.0
O20 O 0.10675 0.34423 0.02364 0.0
O21 O 0.18731 0.5498 0.07968 0.0
O22 O 0.09393 0.48045 0.08357 0.0
O23 O 0.07184 0.37414 0.05724 0.0
C24 C 0.20075 0.24524 1.00047 0.0
C25 C 0.16968 0.25679 0.98118 0.0
C26 C 0.23666 0.20114 0.96845 0.0
C27 C 0.17176 0.24032 0.95575 0.0
C28 C 0.23425 0.21735 0.99394 0.0
C29 C 0.2054 0.21242 0.94906 0.0
C30 C 0.20099 0.2652 0.02704 0.0
C31 C 0.14363 0.35287 0.10419 0.0
H32 H 0.16027 0.6425 0.11029 0.0
H33 H 0.12549 0.49006 0.17674 0.0
H34 H 0.17206 0.67123 0.15567 0.0
H35 H 0.11553 0.46239 0.13152 0.0
H36 H 0.14428 0.27914 0.98574 0.0
H37 H 0.26261 0.17936 0.96395 0.0
H38 H 0.14798 0.25051 0.94124 0.0
H39 H 0.25893 0.20852 1.00851 0.0
Eu40 Eu 0.79055 0.25219 0.41811 0.0
Eu41 Eu 0.81361 0.17148 0.37317 0.0
C42 C 0.68287 0.1513 0.38827 0.0
C43 C 0.73507 0.28891 0.47937 0.0
C44 C 0.68758 0.22968 0.48263 0.0
C45 C 0.72188 0.31081 0.52356 0.0
C46 C 0.6572 0.21126 0.50612 0.0
C47 C 0.752 0.32931 0.49996 0.0
C48 C 0.6741 0.25145 0.52698 0.0
C49 C 0.76854 0.30806 0.45493 0.0
O50 O 0.83895 0.26003 0.35475 0.0
O51 O 0.78255 0.28845 0.37953 0.0
C52 C 0.81172 0.29154 0.35811 0.0
O53 O 0.88599 0.30821 0.40559 0.0
O54 O 0.787 0.12454 0.33647 0.0
O55 O 0.85977 0.12552 0.35784 0.0
O56 O 0.9063 0.23703 0.38841 0.0
C57 C 0.92366 0.29083 0.39771 0.0
O58 O 0.81 0.18696 0.43882 0.0
O59 O 0.78126 0.11261 0.40844 0.0
O60 O 0.71902 0.15633 0.36931 0.0
O61 O 0.8175 0.30416 0.45368 0.0
O62 O 0.73642 0.28874 0.43404 0.0
O63 O 0.70345 0.16802 0.41148 0.0
C64 C 0.87011 0.1333 0.31229 0.0
C65 C 0.92919 0.14257 0.31273 0.0
C66 C 0.88592 0.16657 0.26769 0.0
C67 C 0.96662 0.16492 0.29113 0.0
C68 C 0.84853 0.14444 0.28933 0.0
C69 C 0.94575 0.1781 0.26849 0.0
C70 C 0.83197 0.11405 0.33582 0.0
C71 C 0.79275 0.13116 0.43238 0.0
H72 H 0.67405 0.19758 0.46702 0.0
H73 H 0.73679 0.34275 0.53924 0.0
H74 H 0.62009 0.16553 0.50781 0.0
H75 H 0.78899 0.37504 0.49786 0.0
H76 H 0.94701 0.13364 0.32994 0.0
H77 H 0.86857 0.17661 0.25062 0.0
H78 H 0.01219 0.17238 0.29222 0.0
H79 H 0.8031 0.13735 0.28819 0.0
Eu80 Eu 0.52603 0.73747 0.73395 0.0
Eu81 Eu 0.6497 0.79029 0.69778 0.0
C82 C 0.54293 0.65624 0.69233 0.0
C83 C 0.41606 0.67994 0.79174 0.0
C84 C 0.4288 0.638 0.80329 0.0
C85 C 0.35772 0.67573 0.82962 0.0
C86 C 0.40419 0.61342 0.82724 0.0
C87 C 0.38173 0.69981 0.80542 0.0
C88 C 0.36707 0.63081 0.84031 0.0
C89 C 0.43273 0.69829 0.76468 0.0
O90 O 0.57704 0.78037 0.67091 0.0
O91 O 0.50612 0.77827 0.69912 0.0
C92 C 0.52817 0.78363 0.67566 0.0
O93 O 0.5997 0.82609 0.74836 0.0
O94 O 0.70121 0.77986 0.66671 0.0
O95 O 0.7386 0.86459 0.68711 0.0
O96 O 0.63091 0.86435 0.709 0.0
C97 C 0.61957 0.87174 0.73281 0.0
O98 O 0.58559 0.70795 0.75369 0.0
O99 O 0.67827 0.77761 0.73706 0.0
O100 O 0.60151 0.68895 0.69571 0.0
O101 O 0.46859 0.75538 0.75981 0.0
O102 O 0.44492 0.66356 0.75052 0.0
O103 O 0.50579 0.67301 0.70146 0.0
C104 C 0.75278 0.86748 0.64215 0.0
C105 C 0.71921 0.89528 0.63558 0.0
C106 C 0.796 0.88769 0.59927 0.0
C107 C 0.72401 0.91912 0.61103 0.0
C108 C 0.79157 0.86433 0.62392 0.0
C109 C 0.76168 0.91468 0.59243 0.0
C110 C 0.74277 0.8365 0.66694 0.0
C111 C 0.64507 0.73719 0.75445 0.0
H112 H 0.45565 0.62221 0.79337 0.0
H113 H 0.32906 0.68967 0.83928 0.0
H114 H 0.41245 0.57919 0.8352 0.0
H115 H 0.37133 0.7321 0.79692 0.0
H116 H 0.68812 0.89723 0.64925 0.0
H117 H 0.82608 0.88432 0.5855 0.0
H118 H 0.6967 0.93925 0.60637 0.0
H119 H 0.81738 0.84255 0.62856 0.0
Eu120 Eu 0.76469 0.50701 0.07331 0.0
Eu121 Eu 0.80974 0.62947 0.03685 0.0
C122 C 0.85915 0.54036 0.03033 0.0
C123 C 0.74904 0.41454 0.13219 0.0
C124 C 0.75389 0.46035 0.14852 0.0
C125 C 0.76199 0.36385 0.16887 0.0
C126 C 0.76249 0.45781 0.17486 0.0
C127 C 0.75331 0.36641 0.14251 0.0
C128 C 0.7667 0.40956 0.18539 0.0
C129 C 0.74187 0.418 0.10435 0.0
O130 O 0.72416 0.55608 0.01941 0.0
O131 O 0.72101 0.47033 0.03486 0.0
C132 C 0.70499 0.4981 1.01809 0.0
O133 O 0.69379 0.53303 0.07714 0.0
O134 O 0.87643 0.69744 1.01099 0.0
O135 O 0.79214 0.69576 1.01876 0.0
O136 O 0.74749 0.63359 0.06662 0.0
C137 C 0.70015 0.58708 0.07689 0.0
O138 O 0.80984 0.58641 0.09949 0.0
O139 O 0.87349 0.65909 0.07098 0.0
O140 O 0.83506 0.5664 1.01733 0.0
O141 O 0.70139 0.43172 0.09716 0.0
O142 O 0.79188 0.44733 0.09131 0.0
O143 O 0.85527 0.53981 0.05525 0.0
C144 C 0.82752 0.71599 0.97602 0.0
C145 C 0.78932 0.73712 0.96748 0.0
C146 C 0.83601 0.68908 0.93192 0.0
C147 C 0.77419 0.73382 0.94153 0.0
C148 C 0.85062 0.69177 0.95793 0.0
C149 C 0.79746 0.70989 0.92342 0.0
C150 C 0.8395 0.71615 1.00387 0.0
C151 C 0.85833 0.63827 0.09461 0.0
H152 H 0.75117 0.49818 0.14089 0.0
H153 H 0.76408 0.32555 0.17633 0.0
H154 H 0.76647 0.49399 0.18694 0.0
H155 H 0.74994 0.33078 0.13017 0.0
H156 H 0.77066 0.7558 0.98098 0.0
H157 H 0.85428 0.66993 0.91848 0.0
H158 H 0.74506 0.751 0.93557 0.0
H159 H 0.87957 0.67435 0.96383 0.0
Eu160 Eu 0.24472 0.80698 0.40047 0.0
Eu161 Eu 0.13372 0.81875 0.37332 0.0
C162 C 0.27092 0.91784 0.3668 0.0
C163 C 0.34639 0.8038 0.45296 0.0
C164 C 0.34146 0.84358 0.4701 0.0
C165 C 0.38145 0.76686 0.48811 0.0
C166 C 0.35607 0.84475 0.49601 0.0
C167 C 0.36668 0.76562 0.46218 0.0
C168 C 0.37586 0.80616 0.50536 0.0
C169 C 0.33006 0.80135 0.42561 0.0
O170 O 0.1796 0.79742 0.34136 0.0
O171 O 0.22239 0.75115 0.364 0.0
C172 C 0.20176 0.76086 0.34239 0.0
O173 O 0.1564 0.73955 0.41728 0.0
O174 O 0.10311 0.87342 0.35352 0.0
O175 O 0.04093 0.77849 0.35916 0.0
O176 O 0.10411 0.72094 0.38048 0.0
C177 C 0.11584 0.70115 0.40162 0.0
O178 O 0.22299 0.8648 0.42625 0.0
O179 O 0.124 0.8318 0.41549 0.0
O180 O 0.21851 0.90993 0.37445 0.0
O181 O 0.28025 0.75374 0.41828 0.0
O182 O 0.3361 0.85089 0.41574 0.0
O183 O 0.28335 0.87439 0.36885 0.0
C184 C 0.04006 0.81956 0.31881 0.0
C185 C 0.98063 0.78724 0.30976 0.0
C186 C 0.07692 0.83168 0.27483 0.0
C187 C 0.96939 0.7767 0.28345 0.0
C188 C 0.08813 0.84161 0.30109 0.0
C189 C 0.01747 0.79858 0.2657 0.0
C190 C 0.05205 0.82698 0.34665 0.0
C191 C 0.16937 0.85777 0.43166 0.0
H192 H 0.32647 0.87393 0.46346 0.0
H193 H 0.39624 0.73633 0.49476 0.0
H194 H 0.35257 0.87636 0.50871 0.0
H195 H 0.37081 0.73456 0.44932 0.0
H196 H 0.94294 0.76947 0.32307 0.0
H197 H 0.1149 0.84863 0.26172 0.0
H198 H 0.92302 0.75155 0.27699 0.0
H199 H 0.13456 0.86584 0.30755 0.0
Eu200 Eu 0.42747 0.23095 0.7411 0.0
Eu201 Eu 0.31049 0.11103 0.71509 0.0
C202 C 0.34507 0.24149 0.70113 0.0
C203 C 0.52441 0.34044 0.79179 0.0
C204 C 0.53317 0.39368 0.80329 0.0
C205 C 0.53878 0.30626 0.83322 0.0
C206 C 0.54419 0.40303 0.82964 0.0
C207 C 0.52716 0.29673 0.80697 0.0
C208 C 0.54692 0.35929 0.84498 0.0
C209 C 0.50653 0.32835 0.76466 0.0
O210 O 0.39136 0.12798 0.69125 0.0
O211 O 0.45858 0.22762 0.70072 0.0
C212 C 0.4416 0.17891 0.68674 0.0
O213 O 0.44629 0.15653 0.74947 0.0
O214 O 0.22109 0.07582 0.69806 0.0
O215 O 0.26024 0.01826 0.70158 0.0
O216 O 0.35495 0.07155 0.73937 0.0
C217 C 0.41037 0.09797 0.74853 0.0
O218 O 0.36926 0.17613 0.77365 0.0
O219 O 0.27931 0.13398 0.75238 0.0
O220 O 0.33547 0.19179 0.69026 0.0
O221 O 0.52076 0.29276 0.75227 0.0
O222 O 0.45144 0.31597 0.75997 0.0
O223 O 0.35502 0.24687 0.72571 0.0
C224 C 0.2041 0.00805 0.66431 0.0
C225 C 0.14473 0.96917 0.65631 0.0
C226 C 0.23854 0.01612 0.62019 0.0
C227 C 0.13226 0.95374 0.63037 0.0
C228 C 0.25088 0.0317 0.64607 0.0
C229 C 0.17908 0.97686 0.61201 0.0
C230 C 0.21717 0.02481 0.69153 0.0
C231 C 0.3105 0.1519 0.77386 0.0
H232 H 0.5301 0.42746 0.79198 0.0
H233 H 0.54155 0.27199 0.84424 0.0
H234 H 0.54924 0.44397 0.83802 0.0
H235 H 0.51955 0.25477 0.79862 0.0
H236 H 0.10805 0.95067 0.67013 0.0
H237 H 0.27551 0.03542 0.60653 0.0
H238 H 0.08609 0.923 0.62474 0.0
H239 H 0.29699 0.06234 0.65184 0.0
H240 H 0.15481 0.76474 0.29568 0.0
H241 H 0.24407 0.68182 0.33526 0.0
H242 H 0.23828 0.62548 0.29577 0.0
H243 H 0.0517 0.63343 0.25913 0.0
H244 H 0.05556 0.67685 0.23131 0.0
H245 H 0.0666 0.70952 0.26282 0.0
H246 H 0.17091 0.79834 0.24822 0.0
H247 H 0.15853 0.76512 0.21679 0.0
H248 H 0.22586 0.782 0.23434 0.0
H249 H 0.22477 0.58011 0.25152 0.0
H250 H 0.20456 0.54884 0.20621 0.0
H251 H 0.12089 0.65906 0.19615 0.0
C252 C 0.17353 0.73502 0.29613 0.0
C253 C 0.20053 0.72825 0.31861 0.0
C254 C 0.22369 0.68825 0.31827 0.0
C255 C 0.22041 0.65589 0.29595 0.0
C256 C 0.19351 0.66375 0.27417 0.0
C257 C 0.17031 0.70222 0.27412 0.0
C258 C 0.14358 0.70263 0.24825 0.0
C259 C 0.07532 0.6792 0.25052 0.0
C260 C 0.17671 0.76576 0.23619 0.0
C261 C 0.15617 0.65897 0.23357 0.0
C262 C 0.18477 0.63688 0.24889 0.0
C263 C 0.20195 0.59675 0.23943 0.0
C264 C 0.18989 0.57894 0.21366 0.0
C265 C 0.16078 0.60112 0.19751 0.0
C266 C 0.1436 0.64155 0.20781 0.0
H267 H 0.51259 0.27496 0.65538 0.0
H268 H 0.45344 0.08638 0.66811 0.0
H269 H 0.51172 0.08635 0.6302 0.0
H270 H 0.49853 0.26319 0.58763 0.0
H271 H 0.5634 0.33588 0.58121 0.0
H272 H 0.52214 0.32303 0.61081 0.0
H273 H 0.62024 0.35683 0.63654 0.0
H274 H 0.66206 0.36991 0.60704 0.0
H275 H 0.6641 0.32036 0.63098 0.0
H276 H 0.57386 0.10574 0.5905 0.0
H277 H 0.63148 0.14143 0.55017 0.0
H278 H 0.64439 0.31562 0.56103 0.0
C279 C 0.51285 0.23404 0.65037 0.0
C280 C 0.47914 0.18077 0.66476 0.0
C281 C 0.47921 0.12765 0.65734 0.0
C282 C 0.51228 0.12725 0.6359 0.0
C283 C 0.54447 0.18021 0.62188 0.0
C284 C 0.54475 0.23255 0.62867 0.0
C285 C 0.57963 0.28199 0.60922 0.0
C286 C 0.53845 0.30218 0.59646 0.0
C287 C 0.63479 0.33543 0.6217 0.0
C288 C 0.59853 0.2491 0.59041 0.0
C289 C 0.57834 0.1907 0.59828 0.0
C290 C 0.58968 0.15131 0.58405 0.0
C291 C 0.62204 0.17191 0.56101 0.0
C292 C 0.64212 0.23122 0.55213 0.0
C293 C 0.63041 0.27028 0.56729 0.0
H294 H 0.26367 0.57482 0.98835 0.0
H295 H 0.16702 0.38485 0.96944 0.0
H296 H 0.19256 0.40907 0.92379 0.0
H297 H 0.22694 0.62899 0.92811 0.0
H298 H 0.30103 0.69467 0.92601 0.0
H299 H 0.26897 0.66337 0.95692 0.0
H300 H 0.36317 0.65453 0.96755 0.0
H301 H 0.39527 0.6852 0.93662 0.0
H302 H 0.38501 0.61317 0.94621 0.0
H303 H 0.23691 0.45118 0.88169 0.0
H304 H 0.29414 0.51037 0.84399 0.0
H305 H 0.36303 0.67478 0.88841 0.0
C306 C 0.24657 0.53877 0.97438 0.0
C307 C 0.21294 0.47799 0.9822 0.0
C308 C 0.19264 0.43163 0.96366 0.0
C309 C 0.20684 0.44494 0.93772 0.0
C310 C 0.24159 0.505 0.93057 0.0
C311 C 0.26093 0.55139 0.94819 0.0
C312 C 0.30142 0.61166 0.93531 0.0
C313 C 0.27287 0.65206 0.93666 0.0
C314 C 0.36498 0.64297 0.94713 0.0
C315 C 0.30253 0.59154 0.90794 0.0
C316 C 0.26748 0.52975 0.90578 0.0
C317 C 0.26388 0.49968 0.883 0.0
C318 C 0.29684 0.53358 0.86177 0.0
C319 C 0.33283 0.59694 0.86334 0.0
C320 C 0.33527 0.62639 0.88668 0.0
H321 H 0.86536 0.30582 0.31106 0.0
H322 H 0.75118 0.35492 0.35475 0.0
H323 H 0.73551 0.40005 0.3158 0.0
H324 H 0.93219 0.43892 0.26747 0.0
H325 H 0.93167 0.39416 0.24064 0.0
H326 H 0.94125 0.37439 0.27274 0.0
H327 H 0.85011 0.2673 0.26625 0.0
H328 H 0.83985 0.28667 0.23428 0.0
H329 H 0.77819 0.25836 0.25695 0.0
H330 H 0.72206 0.42814 0.27103 0.0
H331 H 0.71351 0.43886 0.22447 0.0
H332 H 0.83687 0.37157 0.21013 0.0
C333 C 0.8382 0.32733 0.31269 0.0
C334 C 0.80953 0.32682 0.33606 0.0
C335 C 0.7739 0.35497 0.33716 0.0
C336 C 0.76474 0.38075 0.3151 0.0
C337 C 0.79195 0.37848 0.29218 0.0
C338 C 0.82853 0.35305 0.29091 0.0
C339 C 0.84871 0.35201 0.26363 0.0
C340 C 0.91754 0.39229 0.26097 0.0
C341 C 0.82793 0.28724 0.25476 0.0
C342 C 0.81566 0.37849 0.24955 0.0
C343 C 0.78397 0.39438 0.26638 0.0
C344 C 0.74755 0.41686 0.25772 0.0
C345 C 0.74312 0.42295 0.23119 0.0
C346 C 0.77461 0.40624 0.21354 0.0
C347 C 0.81187 0.3844 0.22303 0.0
H348 H 0.56325 0.79659 0.62531 0.0
H349 H 0.42157 0.78667 0.67496 0.0
H350 H 0.3694 0.79665 0.63693 0.0
H351 H 0.5658 0.90234 0.57929 0.0
H352 H 0.57695 0.86521 0.55214 0.0
H353 H 0.60523 0.86091 0.58313 0.0
H354 H 0.54641 0.7451 0.58149 0.0
H355 H 0.51821 0.74791 0.55025 0.0
H356 H 0.46618 0.7061 0.57573 0.0
H357 H 0.3313 0.80441 0.59274 0.0
H358 H 0.30907 0.80585 0.5467 0.0
H359 H 0.47433 0.80662 0.52655 0.0
C360 C 0.5215 0.79701 0.62839 0.0
C361 C 0.49692 0.79162 0.65331 0.0
C362 C 0.44184 0.79178 0.65619 0.0
C363 C 0.4118 0.79719 0.63466 0.0
C364 C 0.43721 0.80192 0.61039 0.0
C365 C 0.49078 0.80166 0.60721 0.0
C366 C 0.50732 0.80412 0.57911 0.0
C367 C 0.56736 0.86161 0.57307 0.0
C368 C 0.50963 0.74743 0.57119 0.0
C369 C 0.4545 0.80555 0.56684 0.0
C370 C 0.41475 0.80476 0.58516 0.0
C371 C 0.36232 0.80529 0.5783 0.0
C372 C 0.35018 0.80639 0.55211 0.0
C373 C 0.38998 0.80648 0.53304 0.0
C374 C 0.44282 0.80615 0.54065 0.0
H375 H 0.70929 0.54558 0.97109 0.0
H376 H 0.62325 0.37727 1.01326 0.0
H377 H 0.56791 0.32395 0.97392 0.0
H378 H 0.58454 0.51764 0.92952 0.0
H379 H 0.63272 0.55229 0.90209 0.0
H380 H 0.66123 0.57766 0.93393 0.0
H381 H 0.74966 0.55771 0.92527 0.0
H382 H 0.72191 0.53376 0.89327 0.0
H383 H 0.73365 0.4846 0.91417 0.0
H384 H 0.52295 0.28968 0.92966 0.0
H385 H 0.49834 0.27501 0.88359 0.0
H386 H 0.6215 0.46537 0.87024 0.0
C387 C 0.67791 0.49763 0.97223 0.0
C388 C 0.66954 0.46553 0.99531 0.0
C389 C 0.62974 0.40262 0.99579 0.0
C390 C 0.5981 0.37214 0.9736 0.0
C391 C 0.60762 0.40524 0.95111 0.0
C392 C 0.64709 0.46654 0.95024 0.0
C393 C 0.65316 0.49115 0.92335 0.0
C394 C 0.63158 0.5374 0.92218 0.0
C395 C 0.71845 0.51836 0.91343 0.0
C396 C 0.61076 0.43402 0.90912 0.0
C397 C 0.58437 0.38512 0.92548 0.0
C398 C 0.54375 0.32757 0.91665 0.0
C399 C 0.53049 0.31964 0.89037 0.0
C400 C 0.55849 0.36883 0.87307 0.0
C401 C 0.59869 0.42681 0.88281 0.0
H402 H 0.35569 0.42872 0.09679 0.0
H403 H 0.3634 0.58886 0.06525 0.0
H404 H 0.47302 0.64598 0.07297 0.0
H405 H 0.48325 0.51068 0.14532 0.0
H406 H 0.50884 0.45754 0.13983 0.0
H407 H 0.42951 0.43345 0.13777 0.0
H408 H 0.42643 0.39309 0.09179 0.0
H409 H 0.50517 0.4167 0.09377 0.0
H410 H 0.47808 0.44318 0.06783 0.0
H411 H 0.58211 0.67834 0.07449 0.0
H412 H 0.68006 0.68197 0.06958 0.0
H413 H 0.60167 0.50324 0.10262 0.0
C414 C 0.3802 0.47625 0.09222 0.0
C415 C 0.35129 0.50429 0.08036 0.0
C416 C 0.38473 0.56646 0.07446 0.0
C417 C 0.44698 0.59945 0.07894 0.0
C418 C 0.47471 0.56993 0.08986 0.0
C419 C 0.44216 0.50986 0.09681 0.0
C420 C 0.48325 0.48639 0.10493 0.0
C421 C 0.47576 0.47114 0.13367 0.0
C422 C 0.47261 0.4317 0.08859 0.0
C423 C 0.54394 0.54106 0.09938 0.0
C424 C 0.53837 0.58942 0.09137 0.0
C425 C 0.58743 0.64156 0.0815 0.0
C426 C 0.64292 0.64325 0.07875 0.0
C427 C 0.6483 0.59279 0.08563 0.0
C428 C 0.59904 0.54269 0.09732 0.0
H429 H 0.06518 0.61402 0.36466 0.0
H430 H 0.13425 0.64596 0.44247 0.0
H431 H 0.11935 0.54343 0.44404 0.0
H432 H 0.9484 0.47007 0.37411 0.0
H433 H 0.95475 0.4428 0.34299 0.0
H434 H 0.98049 0.52122 0.34743 0.0
H435 H 0.08559 0.54538 0.32965 0.0
H436 H 0.05996 0.46617 0.3264 0.0
H437 H 0.1263 0.51357 0.34505 0.0
H438 H 0.08254 0.43558 0.44022 0.0
H439 H 0.00959 0.32796 0.43416 0.0
H440 H 0.9705 0.36454 0.35798 0.0
C441 C 0.07735 0.59949 0.382 0.0
C442 C 0.10071 0.63784 0.40346 0.0
C443 C 0.11615 0.61724 0.42579 0.0
C444 C 0.10883 0.55944 0.42671 0.0
C445 C 0.08681 0.52307 0.40504 0.0
C446 C 0.07067 0.54205 0.38319 0.0
C447 C 0.04068 0.49178 0.36382 0.0
C448 C 0.97736 0.4808 0.35672 0.0
C449 C 0.08053 0.50503 0.33981 0.0
C450 C 0.03779 0.4402 0.37912 0.0
C451 C 0.06697 0.45979 0.40246 0.0
C452 C 0.0613 0.41963 0.42175 0.0
C453 C 0.02042 0.35838 0.41807 0.0
C454 C -0.01384 0.33861 0.39538 0.0
C455 C -0.00134 0.37894 0.37494 0.0
H456 H 0.41406 0.01811 0.71634 0.0
H457 H 0.47441 0.10137 0.79085 0.0
H458 H 0.5385 0.0542 0.79496 0.0
H459 H 0.4159 0.87822 0.72869 0.0
H460 H 0.44431 0.8783 0.69699 0.0
H461 H 0.39754 0.91149 0.70228 0.0
H462 H 0.48129 0.00996 0.68191 0.0
H463 H 0.52972 0.9783 0.67769 0.0
H464 H 0.55596 0.04715 0.69558 0.0
H465 H 0.59551 -0.00296 0.79033 0.0
H466 H 0.64199 0.9361 0.77708 0.0
H467 H 0.55435 0.90429 0.70315 0.0
C468 C 0.43908 0.02442 0.73391 0.0
C469 C 0.43809 0.06123 0.75373 0.0
C470 C 0.47369 0.07163 0.77588 0.0
C471 C 0.51039 0.04552 0.77823 0.0
C472 C 0.51191 0.01083 0.7579 0.0
C473 C 0.47729 0.00051 0.73614 0.0
C474 C 0.49037 0.96576 0.71617 0.0
C475 C 0.43363 0.90481 0.71074 0.0
C476 C 0.51588 0.00255 0.69139 0.0
C477 C 0.53775 0.95797 0.73005 0.0
C478 C 0.54905 0.98345 0.75424 0.0
C479 C 0.58785 0.97781 0.77128 0.0
C480 C 0.61436 0.94371 0.76359 0.0
C481 C 0.60307 0.91745 0.7389 0.0
C482 C 0.56545 0.92587 0.72179 0.0
H483 H 0.58383 0.57676 0.69367 0.0
H484 H 0.44068 0.60291 0.66388 0.0
H485 H 0.3834 0.49619 0.65131 0.0
H486 H 0.55666 0.44376 0.64784 0.0
H487 H 0.57225 0.40772 0.67396 0.0
H488 H 0.61214 0.48872 0.67159 0.0
H489 H 0.57755 0.49579 0.71778 0.0
H490 H 0.53856 0.41556 0.72011 0.0
H491 H 0.49801 0.45551 0.72545 0.0
H492 H 0.33049 0.38552 0.65289 0.0
H493 H 0.28699 0.28166 0.66983 0.0
H494 H 0.46149 0.32708 0.70073 0.0
C495 C 0.54193 0.56039 0.68326 0.0
C496 C 0.51659 0.59748 0.67958 0.0
C497 C 0.46069 0.57475 0.66679 0.0
C498 C 0.42813 0.51436 0.65935 0.0
C499 C 0.45223 0.47742 0.66478 0.0
C500 C 0.5084 0.49978 0.6762 0.0
C501 C 0.51863 0.44938 0.68492 0.0
C502 C 0.56784 0.44729 0.6686 0.0
C503 C 0.53396 0.45439 0.71375 0.0
C504 C 0.45728 0.39589 0.67922 0.0
C505 C 0.42053 0.41243 0.66642 0.0
C506 C 0.35937 0.37159 0.66213 0.0
C507 C 0.33489 0.31294 0.67185 0.0
C508 C 0.37146 0.29687 0.68608 0.0
C509 C 0.43338 0.33811 0.68913 0.0
H510 H 0.07311 0.42458 0.99793 0.0
H511 H 0.94362 0.26835 0.04028 0.0
H512 H 0.8626 0.28833 0.02758 0.0
H513 H 0.0395 0.51226 0.02442 0.0
H514 H 0.04794 0.56267 0.99863 0.0
H515 H 0.08759 0.52173 0.99728 0.0
H516 H 0.03927 0.47544 0.95363 0.0
H517 H 0.00011 0.51772 0.95431 0.0
H518 H 0.95835 0.43723 0.95009 0.0
H519 H 0.80845 0.34151 0.02606 0.0
H520 H 0.78639 0.42145 0.03689 0.0
H521 H 0.95078 0.55282 0.99916 0.0
C522 C 0.02683 0.39273 1.00296 0.0
C523 C 0.01368 0.34434 0.01946 0.0
C524 C 0.9537 0.30462 0.02698 0.0
C525 C 0.90757 0.31589 0.0198 0.0
C526 C 0.92278 0.36798 1.00576 0.0
C527 C 0.98122 0.40574 0.99712 0.0
C528 C -0.00976 0.46674 0.98933 0.0
C529 C 0.04441 0.51879 1.00329 0.0
C530 C -0.00262 0.47472 0.9601 0.0
C531 C 0.93064 0.46015 0.9981 0.0
C532 C 0.8912 0.40167 1.00601 0.0
C533 C 0.83777 0.38664 0.01899 0.0
C534 C 0.82563 0.43251 0.02517 0.0
C535 C 0.86649 0.49272 1.01831 0.0
C536 C 0.91825 0.50652 1.00373 0.0
H537 H 0.36127 0.94621 0.33327 0.0
H538 H 0.29731 0.02159 0.39157 0.0
H539 H 0.40057 0.1071 0.39669 0.0
H540 H 0.47412 0.95964 0.363 0.0
H541 H 0.52923 0.98086 0.33762 0.0
H542 H 0.45041 0.94034 0.33012 0.0
H543 H 0.46231 0.02364 0.29881 0.0
H544 H 0.54229 0.06391 0.30525 0.0
H545 H 0.49843 0.10079 0.30944 0.0
H546 H 0.50852 0.15891 0.40665 0.0
H547 H 0.61403 0.18646 0.41502 0.0
H548 H 0.61092 0.08007 0.34965 0.0
C549 C 0.36874 0.98301 0.34582 0.0
C550 C 0.32209 0.97801 0.36197 0.0
C551 C 0.3326 0.0255 0.37875 0.0
C552 C 0.39125 0.07403 0.38185 0.0
C553 C 0.43789 0.0746 0.36755 0.0
C554 C 0.42699 0.03147 0.34907 0.0
C555 C 0.48515 0.03569 0.33959 0.0
C556 C 0.48462 0.9756 0.34281 0.0
C557 C 0.4978 0.05733 0.31161 0.0
C558 C 0.52968 0.08335 0.35752 0.0
C559 C 0.50178 0.10617 0.3731 0.0
C560 C 0.53141 0.14334 0.3939 0.0
C561 C 0.59098 0.15788 0.39876 0.0
C562 C 0.62026 0.13529 0.38288 0.0
C563 C 0.58963 0.09864 0.36174 0.0
H564 H 0.36484 0.19138 0.82053 0.0
H565 H 0.18969 0.11019 0.78341 0.0
H566 H 0.14312 0.11472 0.82453 0.0
H567 H 0.31353 0.11731 0.88192 0.0
H568 H 0.36653 0.18275 0.89975 0.0
H569 H 0.38502 0.17061 0.86774 0.0
H570 H 0.4039 0.27569 0.8542 0.0
H571 H 0.38565 0.28814 0.88618 0.0
H572 H 0.3454 0.29455 0.85917 0.0
H573 H 0.11682 0.1323 0.86951 0.0
H574 H 0.11214 0.15867 0.91479 0.0
H575 H 0.30506 0.22881 0.92189 0.0
C576 C 0.3165 0.17382 0.82097 0.0
C577 C 0.28083 0.1501 0.79866 0.0
C578 C 0.21789 0.12825 0.80022 0.0
C579 C 0.1911 0.13076 0.82349 0.0
C580 C 0.22787 0.15518 0.84498 0.0
C581 C 0.28921 0.17611 0.84391 0.0
C582 C 0.3192 0.20167 0.86947 0.0
C583 C 0.34772 0.16591 0.88036 0.0
C584 C 0.36629 0.269 0.8671 0.0
C585 C 0.26506 0.19192 0.88521 0.0
C586 C 0.21283 0.16518 0.87075 0.0
C587 C 0.15739 0.15301 0.88102 0.0
C588 C 0.15524 0.16844 0.90671 0.0
C589 C 0.20816 0.19563 0.92193 0.0
C590 C 0.26366 0.20727 0.91091 0.0
H591 H 0.92231 0.15258 0.21691 0.0
H592 H 0.06267 0.26987 0.26996 0.0
H593 H 0.13084 0.32172 0.23354 0.0
H594 H 0.02238 0.14041 0.16962 0.0
H595 H 0.9792 0.14157 0.1426 0.0
H596 H 0.94218 0.11101 0.17285 0.0
H597 H 0.90016 0.18448 0.17312 0.0
H598 H 0.93687 0.21512 0.14287 0.0
H599 H 0.9517 0.26416 0.17003 0.0
H600 H 0.1803 0.36698 0.19186 0.0
H601 H 0.20986 0.40037 0.14712 0.0
H602 H 0.04021 0.2518 0.12037 0.0
C603 C 0.96753 0.18893 0.22084 0.0
C604 C -0.01272 0.20687 0.24634 0.0
C605 C 0.04684 0.25461 0.25066 0.0
C606 C 0.08583 0.28453 0.23009 0.0
C607 C 0.06489 0.26596 0.20524 0.0
C608 C 0.00734 0.21904 0.20048 0.0
C609 C -0.00432 0.20941 0.17186 0.0
C610 C 0.98419 0.14687 0.16376 0.0
C611 C 0.94299 0.21887 0.16402 0.0
C612 C 0.05537 0.25886 0.16131 0.0
C613 C 0.09449 0.29098 0.18098 0.0
C614 C 0.15057 0.34153 0.17628 0.0
C615 C 0.16693 0.36017 0.15084 0.0
C616 C 0.12778 0.32795 0.13037 0.0
C617 C 0.07164 0.27613 0.13566 0.0
H618 H 0.76598 0.01943 0.57712 0.0
H619 H 0.76191 0.85906 0.54751 0.0
H620 H 0.76681 0.89547 0.50328 0.0
H621 H 0.67375 0.03136 0.52684 0.0
H622 H 0.71668 0.11241 0.52615 0.0
H623 H 0.71073 0.07271 0.55546 0.0
H624 H 0.82746 0.12654 0.55838 0.0
H625 H 0.83375 0.16634 0.5291 0.0
H626 H 0.8703 0.12191 0.53176 0.0
H627 H 0.77321 0.95004 0.46212 0.0
H628 H 0.78371 0.02022 0.42737 0.0
H629 H 0.78458 0.14501 0.48408 0.0
C630 C 0.76547 -0.00835 0.56134 0.0
C631 C 0.76385 0.93648 0.56581 0.0
C632 C 0.76405 0.90189 0.54459 0.0
C633 C 0.76633 0.92196 0.51938 0.0
C634 C 0.76832 0.97671 0.51566 0.0
C635 C 0.76789 0.01108 0.53606 0.0
C636 C 0.77204 0.06905 0.52687 0.0
C637 C 0.7149 0.0715 0.53426 0.0
C638 C 0.82931 0.1242 0.53714 0.0
C639 C 0.77581 0.06229 0.49815 0.0
C640 C 0.77294 0.00847 0.49203 0.0
C641 C 0.77549 -0.00766 0.46668 0.0
C642 C 0.78143 0.03245 0.44707 0.0
C643 C 0.7854 0.08827 0.45297 0.0
C644 C 0.78228 0.10297 0.4789 0.0
H645 H 0.59775 0.68983 0.80194 0.0
H646 H 0.76277 0.76399 0.75684 0.0
H647 H 0.81714 0.75641 0.79434 0.0
H648 H 0.66462 0.76911 0.85799 0.0
H649 H 0.6178 0.70938 0.87989 0.0
H650 H 0.58933 0.71265 0.84879 0.0
H651 H 0.5671 0.60433 0.83867 0.0
H652 H 0.59421 0.60066 0.87008 0.0
H653 H 0.62655 0.58629 0.84201 0.0
H654 H 0.85556 0.74787 0.83724 0.0
H655 H 0.87626 0.74247 0.88305 0.0
H656 H 0.68742 0.67645 0.90104 0.0
C657 C 0.64499 0.70314 0.79978 0.0
C658 C 0.6759 0.72709 0.77634 0.0
C659 C 0.73808 0.74539 0.77454 0.0
C660 C 0.76933 0.74103 0.79572 0.0
C661 C 0.73791 0.71839 0.81867 0.0
C662 C 0.6771 0.69965 0.82087 0.0
C663 C 0.65525 0.68153 0.84827 0.0
C664 C 0.6303 0.72051 0.85938 0.0
C665 C 0.608 0.6142 0.84983 0.0
C666 C 0.71369 0.69479 0.86124 0.0
C667 C 0.76051 0.71491 0.84369 0.0
C668 C 0.81914 0.73158 0.85112 0.0
C669 C 0.83044 0.72817 0.87719 0.0
C670 C 0.78353 0.70894 0.89565 0.0
C671 C 0.72428 0.69155 0.88741 0.0
H672 H 0.93628 0.69212 0.24312 0.0
H673 H 0.07245 0.8759 0.22526 0.0
H674 H 0.05131 0.85443 0.17898 0.0
H675 H 0.96491 0.62223 0.18849 0.0
H676 H 0.88629 0.56766 0.18398 0.0
H677 H 0.91404 0.59657 0.21557 0.0
H678 H 0.83425 0.62951 0.22035 0.0
H679 H 0.80568 0.60231 0.1887 0.0
H680 H 0.83086 0.67944 0.19696 0.0
H681 H 0.01043 0.81299 0.13423 0.0
H682 H 0.9539 0.75539 0.09582 0.0
H683 H 0.8457 0.60019 0.14419 0.0
C684 C 0.96156 0.72797 0.22951 0.0
C685 C 0.00577 0.78578 0.23783 0.0
C686 C 0.03862 0.83111 0.21932 0.0
C687 C 0.02685 0.81938 0.19299 0.0
C688 C 0.98245 0.76195 0.18547 0.0
C689 C 0.9506 0.71699 0.20326 0.0
C690 C 0.90409 0.65956 0.19047 0.0
C691 C 0.91819 0.6085 0.19489 0.0
C692 C 0.83995 0.64167 0.19967 0.0
C693 C 0.91381 0.67946 0.16273 0.0
C694 C 0.95937 0.73845 0.16007 0.0
C695 C 0.97489 0.76661 0.13611 0.0
C696 C 0.94259 0.73361 0.11439 0.0
C697 C 0.89516 0.67332 0.11689 0.0
C698 C 0.88143 0.6462 0.14145 0.0
H699 H 0.24398 0.94745 0.57882 0.0
H700 H 0.08514 0.96741 0.58292 0.0
H701 H 0.06472 0.93956 0.53707 0.0
H702 H 0.29317 0.00827 0.51604 0.0
H703 H 0.31664 0.95501 0.50714 0.0
H704 H 0.31826 0.9757 0.54028 0.0
H705 H 0.25167 0.86411 0.55228 0.0
H706 H 0.24659 0.84104 0.51926 0.0
H707 H 0.1789 0.8198 0.53742 0.0
H708 H 0.06197 0.90864 0.49024 0.0
H709 H 0.07752 0.87784 0.44705 0.0
H710 H 0.23923 0.88092 0.47429 0.0
C711 C 0.20523 0.94663 0.57005 0.0
C712 C 0.1663 0.95987 0.58447 0.0
C713 C 0.11533 0.95693 0.57233 0.0
C714 C 0.10355 0.94149 0.54626 0.0
C715 C 0.14306 0.92893 0.5326 0.0
C716 C 0.1928 0.93127 0.54414 0.0
C717 C 0.2276 0.91451 0.52552 0.0
C718 C 0.29277 0.96648 0.52204 0.0
C719 C 0.22614 0.85646 0.53415 0.0
C720 C 0.19077 0.90404 0.50147 0.0
C721 C 0.14175 0.91183 0.5059 0.0
C722 C 0.10043 0.90274 0.48656 0.0
C723 C 0.10959 0.88523 0.4621 0.0
C724 C 0.15999 0.87762 0.45717 0.0
C725 C 0.20088 0.88733 0.47723 0.0
loop_
_geom_bond_atom_site_label_1
_geom_bond_atom_site_label_2
_geom_bond_distance
_geom_bond_site_symmetry_2
_ccdc_geom_bond_type
Eu0 C9 2.828 . S
Eu0 O11 2.392 . S
Eu0 O13 2.418 . S
Eu0 O18 2.373 . S
Eu0 O21 2.488 . S
Eu0 O22 2.471 . S
Eu0 O23 2.349 . S
Eu1 O10 2.373 1_554 S
Eu1 O14 2.488 1_554 S
Eu1 O15 2.471 1_554 S
Eu1 O16 2.349 . S
Eu1 O19 2.392 . S
Eu1 O20 2.418 . S
Eu1 C30 2.828 1_554 S
C2 O20 1.244 . S
C2 O23 1.265 . S
C3 C4 1.379 . S
C3 C7 1.373 . S
C3 C9 1.505 . S
C4 C3 1.379 . S
C4 C6 1.369 . S
C4 H32 0.930 . S
C5 C7 1.383 . S
C5 C8 1.382 . S
C5 H33 0.930 . S
C6 C4 1.369 . S
C6 C8 1.392 . S
C6 H34 0.930 . S
C7 C3 1.373 . S
C7 C5 1.383 . S
C7 H35 0.931 . S
C8 C5 1.382 . S
C8 C6 1.392 . S
C9 Eu0 2.828 . S
C9 C3 1.505 . S
C9 O21 1.249 . S
C9 O22 1.244 . S
O10 Eu1 2.373 1_556 S
O10 C12 1.258 . S
O11 Eu0 2.392 . S
O11 C12 1.242 1_554 S
C12 O10 1.258 . S
C12 O11 1.242 1_556 S
O13 Eu0 2.418 . S
O13 C17 1.244 . S
O14 Eu1 2.488 1_556 S
O14 C30 1.249 . S
O15 Eu1 2.471 1_556 S
O15 C30 1.244 . S
O16 Eu1 2.349 . S
O16 C17 1.265 . S
C17 O13 1.244 . S
C17 O16 1.265 . S
O18 Eu0 2.373 . S
O18 C31 1.258 . S
O19 Eu1 2.392 . S
O19 C31 1.242 . S
O20 Eu1 2.418 . S
O20 C2 1.244 . S
O21 Eu0 2.488 . S
O21 C9 1.249 . S
O22 Eu0 2.471 . S
O22 C9 1.244 . S
O23 Eu0 2.349 . S
O23 C2 1.265 . S
C24 C25 1.379 . S
C24 C28 1.373 . S
C24 C30 1.505 . S
C25 C24 1.379 . S
C25 C27 1.369 . S
C25 H36 0.930 . S
C26 C28 1.383 . S
C26 C29 1.382 . S
C26 H37 0.930 . S
C27 C25 1.369 . S
C27 C29 1.392 . S
C27 H38 0.930 . S
C28 C24 1.373 . S
C28 C26 1.383 . S
C28 H39 0.931 . S
C29 C26 1.382 . S
C29 C27 1.392 . S
C30 Eu1 2.828 1_556 S
C30 O14 1.249 . S
C30 O15 1.244 . S
C30 C24 1.505 . S
C31 O18 1.258 . S
C31 O19 1.242 . S
H32 C4 0.930 . S
H33 C5 0.930 . S
H34 C6 0.930 . S
H35 C7 0.931 . S
H36 C25 0.930 . S
H37 C26 0.930 . S
H38 C27 0.930 . S
H39 C28 0.931 . S
Eu40 C49 2.828 . S
Eu40 O51 2.392 . S
Eu40 O53 2.418 . S
Eu40 O58 2.373 . S
Eu40 O61 2.488 . S
Eu40 O62 2.471 . S
Eu40 O63 2.349 . S
Eu41 O50 2.373 . S
Eu41 O54 2.488 . S
Eu41 O55 2.471 . S
Eu41 O56 2.349 . S
Eu41 O59 2.392 . S
Eu41 O60 2.418 . S
Eu41 C70 2.828 . S
C42 O60 1.244 . S
C42 O63 1.265 . S
C43 C44 1.379 . S
C43 C47 1.373 . S
C43 C49 1.505 . S
C44 C43 1.379 . S
C44 C46 1.369 . S
C44 H72 0.930 . S
C45 C47 1.383 . S
C45 C48 1.382 . S
C45 H73 0.930 . S
C46 C44 1.369 . S
C46 C48 1.392 . S
C46 H74 0.930 . S
C47 C43 1.373 . S
C47 C45 1.383 . S
C47 H75 0.931 . S
C48 C45 1.382 . S
C48 C46 1.392 . S
C49 Eu40 2.828 . S
C49 C43 1.505 . S
C49 O61 1.249 . S
C49 O62 1.244 . S
O50 Eu41 2.373 . S
O50 C52 1.258 . S
O51 Eu40 2.392 . S
O51 C52 1.242 . S
C52 O50 1.258 . S
C52 O51 1.242 . S
O53 Eu40 2.418 . S
O53 C57 1.244 . S
O54 Eu41 2.488 . S
O54 C70 1.249 . S
O55 Eu41 2.471 . S
O55 C70 1.244 . S
O56 Eu41 2.349 . S
O56 C57 1.265 . S
C57 O53 1.244 . S
C57 O56 1.265 . S
O58 Eu40 2.373 . S
O58 C71 1.258 . S
O59 Eu41 2.392 . S
O59 C71 1.242 . S
O60 Eu41 2.418 . S
O60 C42 1.244 . S
O61 Eu40 2.488 . S
O61 C49 1.249 . S
O62 Eu40 2.471 . S
O62 C49 1.244 . S
O63 Eu40 2.349 . S
O63 C42 1.265 . S
C64 C65 1.379 . S
C64 C68 1.373 . S
C64 C70 1.505 . S
C65 C64 1.379 . S
C65 C67 1.369 . S
C65 H76 0.930 . S
C66 C68 1.383 . S
C66 C69 1.382 . S
C66 H77 0.930 . S
C67 C65 1.369 . S
C67 C69 1.392 . S
C67 H78 0.930 1_655 S
C68 C64 1.373 . S
C68 C66 1.383 . S
C68 H79 0.931 . S
C69 C66 1.382 . S
C69 C67 1.392 . S
C70 Eu41 2.828 . S
C70 O54 1.249 . S
C70 O55 1.244 . S
C70 C64 1.505 . S
C71 O58 1.258 . S
C71 O59 1.242 . S
H72 C44 0.930 . S
H73 C45 0.930 . S
H74 C46 0.930 . S
H75 C47 0.931 . S
H76 C65 0.930 . S
H77 C66 0.930 . S
H78 C67 0.930 1_455 S
H79 C68 0.931 . S
Eu80 C89 2.828 . S
Eu80 O91 2.392 . S
Eu80 O93 2.418 . S
Eu80 O98 2.373 . S
Eu80 O101 2.488 . S
Eu80 O102 2.471 . S
Eu80 O103 2.349 . S
Eu81 O90 2.373 . S
Eu81 O94 2.488 . S
Eu81 O95 2.471 . S
Eu81 O96 2.349 . S
Eu81 O99 2.392 . S
Eu81 O100 2.418 . S
Eu81 C110 2.828 . S
C82 O100 1.244 . S
C82 O103 1.265 . S
C83 C84 1.379 . S
C83 C87 1.373 . S
C83 C89 1.505 . S
C84 C83 1.379 . S
C84 C86 1.369 . S
C84 H112 0.930 . S
C85 C87 1.383 . S
C85 C88 1.382 . S
C85 H113 0.930 . S
C86 C84 1.369 . S
C86 C88 1.392 . S
C86 H114 0.930 . S
C87 C83 1.373 . S
C87 C85 1.383 . S
C87 H115 0.931 . S
C88 C85 1.382 . S
C88 C86 1.392 . S
C89 Eu80 2.828 . S
C89 C83 1.505 . S
C89 O101 1.249 . S
C89 O102 1.244 . S
O90 Eu81 2.373 . S
O90 C92 1.258 . S
O91 Eu80 2.392 . S
O91 C92 1.242 . S
C92 O90 1.258 . S
C92 O91 1.242 . S
O93 Eu80 2.418 . S
O93 C97 1.244 . S
O94 Eu81 2.488 . S
O94 C110 1.249 . S
O95 Eu81 2.471 . S
O95 C110 1.244 . S
O96 Eu81 2.349 . S
O96 C97 1.265 . S
C97 O93 1.244 . S
C97 O96 1.265 . S
O98 Eu80 2.373 . S
O98 C111 1.258 . S
O99 Eu81 2.392 . S
O99 C111 1.242 . S
O100 Eu81 2.418 . S
O100 C82 1.244 . S
O101 Eu80 2.488 . S
O101 C89 1.249 . S
O102 Eu80 2.471 . S
O102 C89 1.244 . S
O103 Eu80 2.349 . S
O103 C82 1.265 . S
C104 C105 1.379 . S
C104 C108 1.373 . S
C104 C110 1.505 . S
C105 C104 1.379 . S
C105 C107 1.369 . S
C105 H116 0.930 . S
C106 C108 1.383 . S
C106 C109 1.382 . S
C106 H117 0.930 . S
C107 C105 1.369 . S
C107 C109 1.392 . S
C107 H118 0.930 1_565 S
C108 C104 1.373 . S
C108 C106 1.383 . S
C108 H119 0.931 . S
C109 C106 1.382 . S
C109 C107 1.392 . S
C110 Eu81 2.828 . S
C110 O94 1.249 . S
C110 O95 1.244 . S
C110 C104 1.505 . S
C111 O98 1.258 . S
C111 O99 1.242 . S
H112 C84 0.930 . S
H113 C85 0.930 . S
H114 C86 0.930 . S
H115 C87 0.931 . S
H116 C105 0.930 . S
H117 C106 0.930 . S
H118 C107 0.930 1_545 S
H119 C108 0.931 . S
Eu120 C129 2.828 . S
Eu120 O131 2.392 . S
Eu120 O133 2.418 . S
Eu120 O138 2.373 . S
Eu120 O141 2.488 . S
Eu120 O142 2.471 . S
Eu120 O143 2.349 . S
Eu121 O130 2.373 1_554 S
Eu121 O134 2.488 1_554 S
Eu121 O135 2.471 1_554 S
Eu121 O136 2.349 . S
Eu121 O139 2.392 . S
Eu121 O140 2.418 . S
Eu121 C150 2.828 1_554 S
C122 O140 1.244 . S
C122 O143 1.265 . S
C123 C124 1.379 . S
C123 C127 1.373 . S
C123 C129 1.505 . S
C124 C123 1.379 . S
C124 C126 1.369 . S
C124 H152 0.930 . S
C125 C127 1.383 . S
C125 C128 1.382 . S
C125 H153 0.930 . S
C126 C124 1.369 . S
C126 C128 1.392 . S
C126 H154 0.930 . S
C127 C123 1.373 . S
C127 C125 1.383 . S
C127 H155 0.931 . S
C128 C125 1.382 . S
C128 C126 1.392 . S
C129 Eu120 2.828 . S
C129 C123 1.505 . S
C129 O141 1.249 . S
C129 O142 1.244 . S
O130 Eu121 2.373 1_556 S
O130 C132 1.258 . S
O131 Eu120 2.392 . S
O131 C132 1.242 1_554 S
C132 O130 1.258 . S
C132 O131 1.242 1_556 S
O133 Eu120 2.418 . S
O133 C137 1.244 . S
O134 Eu121 2.488 1_556 S
O134 C150 1.249 . S
O135 Eu121 2.471 1_556 S
O135 C150 1.244 . S
O136 Eu121 2.349 . S
O136 C137 1.265 . S
C137 O133 1.244 . S
C137 O136 1.265 . S
O138 Eu120 2.373 . S
O138 C151 1.258 . S
O139 Eu121 2.392 . S
O139 C151 1.242 . S
O140 Eu121 2.418 . S
O140 C122 1.244 . S
O141 Eu120 2.488 . S
O141 C129 1.249 . S
O142 Eu120 2.471 . S
O142 C129 1.244 . S
O143 Eu120 2.349 . S
O143 C122 1.265 . S
C144 C145 1.379 . S
C144 C148 1.373 . S
C144 C150 1.505 . S
C145 C144 1.379 . S
C145 C147 1.369 . S
C145 H156 0.930 . S
C146 C148 1.383 . S
C146 C149 1.382 . S
C146 H157 0.930 . S
C147 C145 1.369 . S
C147 C149 1.392 . S
C147 H158 0.930 . S
C148 C144 1.373 . S
C148 C146 1.383 . S
C148 H159 0.931 . S
C149 C146 1.382 . S
C149 C147 1.392 . S
C150 Eu121 2.828 1_556 S
C150 O134 1.249 . S
C150 O135 1.244 . S
C150 C144 1.505 . S
C151 O138 1.258 . S
C151 O139 1.242 . S
H152 C124 0.930 . S
H153 C125 0.930 . S
H154 C126 0.930 . S
H155 C127 0.931 . S
H156 C145 0.930 . S
H157 C146 0.930 . S
H158 C147 0.930 . S
H159 C148 0.931 . S
Eu160 C169 2.828 . S
Eu160 O171 2.392 . S
Eu160 O173 2.418 . S
Eu160 O178 2.373 . S
Eu160 O181 2.488 . S
Eu160 O182 2.471 . S
Eu160 O183 2.349 . S
Eu161 O170 2.373 . S
Eu161 O174 2.488 . S
Eu161 O175 2.471 . S
Eu161 O176 2.349 . S
Eu161 O179 2.392 . S
Eu161 O180 2.418 . S
Eu161 C190 2.828 . S
C162 O180 1.244 . S
C162 O183 1.265 . S
C163 C164 1.379 . S
C163 C167 1.373 . S
C163 C169 1.505 . S
C164 C163 1.379 . S
C164 C166 1.369 . S
C164 H192 0.930 . S
C165 C167 1.383 . S
C165 C168 1.382 . S
C165 H193 0.930 . S
C166 C164 1.369 . S
C166 C168 1.392 . S
C166 H194 0.930 . S
C167 C163 1.373 . S
C167 C165 1.383 . S
C167 H195 0.931 . S
C168 C165 1.382 . S
C168 C166 1.392 . S
C169 Eu160 2.828 . S
C169 C163 1.505 . S
C169 O181 1.249 . S
C169 O182 1.244 . S
O170 Eu161 2.373 . S
O170 C172 1.258 . S
O171 Eu160 2.392 . S
O171 C172 1.242 . S
C172 O170 1.258 . S
C172 O171 1.242 . S
O173 Eu160 2.418 . S
O173 C177 1.244 . S
O174 Eu161 2.488 . S
O174 C190 1.249 . S
O175 Eu161 2.471 . S
O175 C190 1.244 . S
O176 Eu161 2.349 . S
O176 C177 1.265 . S
C177 O173 1.244 . S
C177 O176 1.265 . S
O178 Eu160 2.373 . S
O178 C191 1.258 . S
O179 Eu161 2.392 . S
O179 C191 1.242 . S
O180 Eu161 2.418 . S
O180 C162 1.244 . S
O181 Eu160 2.488 . S
O181 C169 1.249 . S
O182 Eu160 2.471 . S
O182 C169 1.244 . S
O183 Eu160 2.349 . S
O183 C162 1.265 . S
C184 C185 1.379 . S
C184 C188 1.373 . S
C184 C190 1.505 . S
C185 C184 1.379 . S
C185 C187 1.369 . S
C185 H196 0.930 . S
C186 C188 1.383 . S
C186 C189 1.382 . S
C186 H197 0.930 . S
C187 C185 1.369 . S
C187 C189 1.392 . S
C187 H198 0.930 1_455 S
C188 C184 1.373 . S
C188 C186 1.383 . S
C188 H199 0.931 . S
C189 C186 1.382 . S
C189 C187 1.392 . S
C190 Eu161 2.828 . S
C190 O174 1.249 . S
C190 O175 1.244 . S
C190 C184 1.505 . S
C191 O178 1.258 . S
C191 O179 1.242 . S
H192 C164 0.930 . S
H193 C165 0.930 . S
H194 C166 0.930 . S
H195 C167 0.931 . S
H196 C185 0.930 . S
H197 C186 0.930 . S
H198 C187 0.930 1_655 S
H199 C188 0.931 . S
Eu200 C209 2.828 . S
Eu200 O211 2.392 . S
Eu200 O213 2.418 . S
Eu200 O218 2.373 . S
Eu200 O221 2.488 . S
Eu200 O222 2.471 . S
Eu200 O223 2.349 . S
Eu201 O210 2.373 . S
Eu201 O214 2.488 . S
Eu201 O215 2.471 . S
Eu201 O216 2.349 . S
Eu201 O219 2.392 . S
Eu201 O220 2.418 . S
Eu201 C230 2.828 . S
C202 O220 1.244 . S
C202 O223 1.265 . S
C203 C204 1.379 . S
C203 C207 1.373 . S
C203 C209 1.505 . S
C204 C203 1.379 . S
C204 C206 1.369 . S
C204 H232 0.930 . S
C205 C207 1.383 . S
C205 C208 1.382 . S
C205 H233 0.930 . S
C206 C204 1.369 . S
C206 C208 1.392 . S
C206 H234 0.930 . S
C207 C203 1.373 . S
C207 C205 1.383 . S
C207 H235 0.931 . S
C208 C205 1.382 . S
C208 C206 1.392 . S
C209 Eu200 2.828 . S
C209 C203 1.505 . S
C209 O221 1.249 . S
C209 O222 1.244 . S
O210 Eu201 2.373 . S
O210 C212 1.258 . S
O211 Eu200 2.392 . S
O211 C212 1.242 . S
C212 O210 1.258 . S
C212 O211 1.242 . S
O213 Eu200 2.418 . S
O213 C217 1.244 . S
O214 Eu201 2.488 . S
O214 C230 1.249 . S
O215 Eu201 2.471 . S
O215 C230 1.244 . S
O216 Eu201 2.349 . S
O216 C217 1.265 . S
C217 O213 1.244 . S
C217 O216 1.265 . S
O218 Eu200 2.373 . S
O218 C231 1.258 . S
O219 Eu201 2.392 . S
O219 C231 1.242 . S
O220 Eu201 2.418 . S
O220 C202 1.244 . S
O221 Eu200 2.488 . S
O221 C209 1.249 . S
O222 Eu200 2.471 . S
O222 C209 1.244 . S
O223 Eu200 2.349 . S
O223 C202 1.265 . S
C224 C225 1.379 . S
C224 C228 1.373 . S
C224 C230 1.505 . S
C225 C224 1.379 . S
C225 C227 1.369 . S
C225 H236 0.930 . S
C226 C228 1.383 . S
C226 C229 1.382 . S
C226 H237 0.930 . S
C227 C225 1.369 . S
C227 C229 1.392 . S
C227 H238 0.930 1_545 S
C228 C224 1.373 . S
C228 C226 1.383 . S
C228 H239 0.931 . S
C229 C226 1.382 . S
C229 C227 1.392 . S
C230 Eu201 2.828 . S
C230 O214 1.249 . S
C230 O215 1.244 . S
C230 C224 1.505 . S
C231 O218 1.258 . S
C231 O219 1.242 . S
H232 C204 0.930 . S
H233 C205 0.930 . S
H234 C206 0.930 . S
H235 C207 0.931 . S
H236 C225 0.930 . S
H237 C226 0.930 . S
H238 C227 0.930 1_565 S
H239 C228 0.931 . S
H240 C252 0.930 . S
H241 C254 0.930 . S
H242 C255 0.930 . S
H243 C259 0.959 . S
H244 C259 0.959 . S
H245 C259 0.961 . S
H246 C260 0.960 . S
H247 C260 0.961 . S
H248 C260 0.959 . S
H249 C263 0.929 . S
H250 C264 0.931 . S
H251 C266 0.930 . S
C252 H240 0.930 . S
C252 C253 1.399 . S
C252 C257 1.399 . S
C253 C252 1.399 . S
C253 C254 1.376 . S
C254 H241 0.930 . S
C254 C253 1.376 . S
C254 C255 1.388 . S
C255 H242 0.930 . S
C255 C254 1.388 . S
C255 C256 1.390 . S
C256 C255 1.390 . S
C256 C257 1.394 . S
C256 C262 1.465 . S
C257 C252 1.399 . S
C257 C256 1.394 . S
C257 C258 1.516 . S
C258 C257 1.516 . S
C258 C259 1.502 . S
C258 C260 1.561 . S
C258 C261 1.526 . S
C259 H243 0.959 . S
C259 H244 0.959 . S
C259 H245 0.961 . S
C259 C258 1.502 . S
C260 H246 0.960 . S
C260 H247 0.961 . S
C260 H248 0.959 . S
C260 C258 1.561 . S
C261 C258 1.526 . S
C261 C262 1.396 . S
C261 C266 1.390 . S
C262 C256 1.465 . S
C262 C261 1.396 . S
C262 C263 1.399 . S
C263 H249 0.929 . S
C263 C262 1.399 . S
C263 C264 1.385 . S
C264 H250 0.931 . S
C264 C263 1.385 . S
C264 C265 1.389 . S
C265 C264 1.389 . S
C265 C266 1.387 . S
C266 H251 0.930 . S
C266 C261 1.390 . S
C266 C265 1.387 . S
H267 C279 0.930 . S
H268 C281 0.930 . S
H269 C282 0.930 . S
H270 C286 0.959 . S
H271 C286 0.959 . S
H272 C286 0.961 . S
H273 C287 0.960 . S
H274 C287 0.961 . S
H275 C287 0.959 . S
H276 C290 0.929 . S
H277 C291 0.931 . S
H278 C293 0.930 . S
C279 H267 0.930 . S
C279 C280 1.399 . S
C279 C284 1.399 . S
C280 C279 1.399 . S
C280 C281 1.376 . S
C281 H268 0.930 . S
C281 C280 1.376 . S
C281 C282 1.388 . S
C282 H269 0.930 . S
C282 C281 1.388 . S
C282 C283 1.390 . S
C283 C282 1.390 . S
C283 C284 1.394 . S
C283 C289 1.465 . S
C284 C279 1.399 . S
C284 C283 1.394 . S
C284 C285 1.516 . S
C285 C284 1.516 . S
C285 C286 1.502 . S
C285 C287 1.561 . S
C285 C288 1.526 . S
C286 H270 0.959 . S
C286 H271 0.959 . S
C286 H272 0.961 . S
C286 C285 1.502 . S
C287 H273 0.960 . S
C287 H274 0.961 . S
C287 H275 0.959 . S
C287 C285 1.561 . S
C288 C285 1.526 . S
C288 C289 1.396 . S
C288 C293 1.390 . S
C289 C283 1.465 . S
C289 C288 1.396 . S
C289 C290 1.399 . S
C290 H276 0.929 . S
C290 C289 1.399 . S
C290 C291 1.385 . S
C291 H277 0.931 . S
C291 C290 1.385 . S
C291 C292 1.389 . S
C292 C291 1.389 . S
C292 C293 1.387 . S
C293 H278 0.930 . S
C293 C288 1.390 . S
C293 C292 1.387 . S
H294 C306 0.930 . S
H295 C308 0.930 . S
H296 C309 0.930 . S
H297 C313 0.959 . S
H298 C313 0.959 . S
H299 C313 0.961 . S
H300 C314 0.960 . S
H301 C314 0.961 . S
H302 C314 0.959 . S
H303 C317 0.929 . S
H304 C318 0.931 . S
H305 C320 0.930 . S
C306 H294 0.930 . S
C306 C307 1.399 . S
C306 C311 1.399 . S
C307 C306 1.399 . S
C307 C308 1.376 . S
C308 H295 0.930 . S
C308 C307 1.376 . S
C308 C309 1.388 . S
C309 H296 0.930 . S
C309 C308 1.388 . S
C309 C310 1.390 . S
C310 C309 1.390 . S
C310 C311 1.394 . S
C310 C316 1.465 . S
C311 C306 1.399 . S
C311 C310 1.394 . S
C311 C312 1.516 . S
C312 C311 1.516 . S
C312 C313 1.502 . S
C312 C314 1.561 . S
C312 C315 1.526 . S
C313 H297 0.959 . S
C313 H298 0.959 . S
C313 H299 0.961 . S
C313 C312 1.502 . S
C314 H300 0.960 . S
C314 H301 0.961 . S
C314 H302 0.959 . S
C314 C312 1.561 . S
C315 C312 1.526 . S
C315 C316 1.396 . S
C315 C320 1.390 . S
C316 C310 1.465 . S
C316 C315 1.396 . S
C316 C317 1.399 . S
C317 H303 0.929 . S
C317 C316 1.399 . S
C317 C318 1.385 . S
C318 H304 0.931 . S
C318 C317 1.385 . S
C318 C319 1.389 . S
C319 C318 1.389 . S
C319 C320 1.387 . S
C320 H305 0.930 . S
C320 C315 1.390 . S
C320 C319 1.387 . S
H321 C333 0.930 . S
H322 C335 0.930 . S
H323 C336 0.930 . S
H324 C340 0.959 . S
H325 C340 0.959 . S
H326 C340 0.961 . S
H327 C341 0.960 . S
H328 C341 0.961 . S
H329 C341 0.959 . S
H330 C344 0.929 . S
H331 C345 0.931 . S
H332 C347 0.930 . S
C333 H321 0.930 . S
C333 C334 1.399 . S
C333 C338 1.399 . S
C334 C333 1.399 . S
C334 C335 1.376 . S
C335 H322 0.930 . S
C335 C334 1.376 . S
C335 C336 1.388 . S
C336 H323 0.930 . S
C336 C335 1.388 . S
C336 C337 1.390 . S
C337 C336 1.390 . S
C337 C338 1.394 . S
C337 C343 1.465 . S
C338 C333 1.399 . S
C338 C337 1.394 . S
C338 C339 1.516 . S
C339 C338 1.516 . S
C339 C340 1.502 . S
C339 C341 1.561 . S
C339 C342 1.526 . S
C340 H324 0.959 . S
C340 H325 0.959 . S
C340 H326 0.961 . S
C340 C339 1.502 . S
C341 H327 0.960 . S
C341 H328 0.961 . S
C341 H329 0.959 . S
C341 C339 1.561 . S
C342 C339 1.526 . S
C342 C343 1.396 . S
C342 C347 1.390 . S
C343 C337 1.465 . S
C343 C342 1.396 . S
C343 C344 1.399 . S
C344 H330 0.929 . S
C344 C343 1.399 . S
C344 C345 1.385 . S
C345 H331 0.931 . S
C345 C344 1.385 . S
C345 C346 1.389 . S
C346 C345 1.389 . S
C346 C347 1.387 . S
C347 H332 0.930 . S
C347 C342 1.390 . S
C347 C346 1.387 . S
H348 C360 0.930 . S
H349 C362 0.930 . S
H350 C363 0.930 . S
H351 C367 0.959 . S
H352 C367 0.959 . S
H353 C367 0.961 . S
H354 C368 0.960 . S
H355 C368 0.961 . S
H356 C368 0.959 . S
H357 C371 0.929 . S
H358 C372 0.931 . S
H359 C374 0.930 . S
C360 H348 0.930 . S
C360 C361 1.399 . S
C360 C365 1.399 . S
C361 C360 1.399 . S
C361 C362 1.376 . S
C362 H349 0.930 . S
C362 C361 1.376 . S
C362 C363 1.388 . S
C363 H350 0.930 . S
C363 C362 1.388 . S
C363 C364 1.390 . S
C364 C363 1.390 . S
C364 C365 1.394 . S
C364 C370 1.465 . S
C365 C360 1.399 . S
C365 C364 1.394 . S
C365 C366 1.516 . S
C366 C365 1.516 . S
C366 C367 1.502 . S
C366 C368 1.561 . S
C366 C369 1.526 . S
C367 H351 0.959 . S
C367 H352 0.959 . S
C367 H353 0.961 . S
C367 C366 1.502 . S
C368 H354 0.960 . S
C368 H355 0.961 . S
C368 H356 0.959 . S
C368 C366 1.561 . S
C369 C366 1.526 . S
C369 C370 1.396 . S
C369 C374 1.390 . S
C370 C364 1.465 . S
C370 C369 1.396 . S
C370 C371 1.399 . S
C371 H357 0.929 . S
C371 C370 1.399 . S
C371 C372 1.385 . S
C372 H358 0.931 . S
C372 C371 1.385 . S
C372 C373 1.389 . S
C373 C372 1.389 . S
C373 C374 1.387 . S
C374 H359 0.930 . S
C374 C369 1.390 . S
C374 C373 1.387 . S
H375 C387 0.930 . S
H376 C389 0.930 . S
H377 C390 0.930 . S
H378 C394 0.959 . S
H379 C394 0.959 . S
H380 C394 0.961 . S
H381 C395 0.960 . S
H382 C395 0.961 . S
H383 C395 0.959 . S
H384 C398 0.929 . S
H385 C399 0.931 . S
H386 C401 0.930 . S
C387 H375 0.930 . S
C387 C388 1.399 . S
C387 C392 1.399 . S
C388 C387 1.399 . S
C388 C389 1.376 . S
C389 H376 0.930 . S
C389 C388 1.376 . S
C389 C390 1.388 . S
C390 H377 0.930 . S
C390 C389 1.388 . S
C390 C391 1.390 . S
C391 C390 1.390 . S
C391 C392 1.394 . S
C391 C397 1.465 . S
C392 C387 1.399 . S
C392 C391 1.394 . S
C392 C393 1.516 . S
C393 C392 1.516 . S
C393 C394 1.502 . S
C393 C395 1.561 . S
C393 C396 1.526 . S
C394 H378 0.959 . S
C394 H379 0.959 . S
C394 H380 0.961 . S
C394 C393 1.502 . S
C395 H381 0.960 . S
C395 H382 0.961 . S
C395 H383 0.959 . S
C395 C393 1.561 . S
C396 C393 1.526 . S
C396 C397 1.396 . S
C396 C401 1.390 . S
C397 C391 1.465 . S
C397 C396 1.396 . S
C397 C398 1.399 . S
C398 H384 0.929 . S
C398 C397 1.399 . S
C398 C399 1.385 . S
C399 H385 0.931 . S
C399 C398 1.385 . S
C399 C400 1.389 . S
C400 C399 1.389 . S
C400 C401 1.387 . S
C401 H386 0.930 . S
C401 C396 1.390 . S
C401 C400 1.387 . S
H402 C414 0.930 . S
H403 C416 0.930 . S
H404 C417 0.930 . S
H405 C421 0.959 . S
H406 C421 0.959 1_556 S
H407 C421 0.955 1_556 S
H408 C422 0.960 . S
H409 C422 0.961 . S
H410 C422 0.959 1_554 S
H411 C425 0.929 . S
H412 C426 0.931 . S
H413 C428 0.930 . S
C414 H402 0.930 . S
C414 C415 1.399 . S
C414 C419 1.399 . S
C415 C414 1.399 . S
C415 C416 1.376 . S
C416 H403 0.930 . S
C416 C415 1.376 . S
C416 C417 1.388 . S
C417 H404 0.930 . S
C417 C416 1.388 . S
C417 C418 1.390 . S
C418 C417 1.390 . S
C418 C419 1.394 . S
C418 C424 1.465 . S
C419 C414 1.399 . S
C419 C418 1.394 . S
C419 C420 1.516 . S
C420 C419 1.516 . S
C420 C421 1.502 . S
C420 C422 1.561 1_554 S
C420 C423 1.526 . S
C421 H405 0.959 . S
C421 H406 0.959 1_554 S
C421 H407 0.955 1_554 S
C421 C420 1.502 . S
C422 H408 0.960 . S
C422 H409 0.961 . S
C422 H410 0.959 1_556 S
C422 C420 1.561 1_556 S
C423 C420 1.526 . S
C423 C424 1.396 . S
C423 C428 1.390 . S
C424 C418 1.465 . S
C424 C423 1.396 . S
C424 C425 1.399 . S
C425 H411 0.929 . S
C425 C424 1.399 . S
C425 C426 1.385 . S
C426 H412 0.931 . S
C426 C425 1.385 . S
C426 C427 1.389 . S
C427 C426 1.389 . S
C427 C428 1.387 . S
C428 H413 0.930 . S
C428 C423 1.390 . S
C428 C427 1.387 . S
H429 C441 0.930 . S
H430 C443 0.930 . S
H431 C444 0.930 . S
H432 C448 0.959 1_655 S
H433 C448 0.959 . S
H434 C448 0.961 . S
H435 C449 0.960 . S
H436 C449 0.961 . S
H437 C449 0.959 . S
H438 C452 0.929 . S
H439 C453 0.931 . S
H440 C455 0.930 . S
C441 H429 0.930 . S
C441 C442 1.399 . S
C441 C446 1.399 . S
C442 C441 1.399 . S
C442 C443 1.376 . S
C443 H430 0.930 . S
C443 C442 1.376 . S
C443 C444 1.388 1_455 S
C444 H431 0.930 . S
C444 C443 1.388 1_655 S
C444 C445 1.390 1_655 S
C445 C444 1.390 1_455 S
C445 C446 1.394 . S
C445 C451 1.465 1_455 S
C446 C441 1.399 . S
C446 C445 1.394 . S
C446 C447 1.516 . S
C447 C446 1.516 . S
C447 C448 1.502 . S
C447 C449 1.561 . S
C447 C450 1.526 1_455 S
C448 H432 0.959 1_455 S
C448 H433 0.959 . S
C448 H434 0.961 . S
C448 C447 1.502 . S
C449 H435 0.960 . S
C449 H436 0.961 . S
C449 H437 0.959 . S
C449 C447 1.561 . S
C450 C447 1.526 1_655 S
C450 C451 1.396 . S
C450 C455 1.390 . S
C451 C445 1.465 1_655 S
C451 C450 1.396 . S
C451 C452 1.399 . S
C452 H438 0.929 . S
C452 C451 1.399 . S
C452 C453 1.385 . S
C453 H439 0.931 . S
C453 C452 1.385 . S
C453 C454 1.389 . S
C454 C453 1.389 . S
C454 C455 1.387 . S
C455 H440 0.930 . S
C455 C450 1.390 . S
C455 C454 1.387 . S
H456 C468 0.930 . S
H457 C470 0.930 . S
H458 C471 0.930 . S
H459 C475 0.959 . S
H460 C475 0.959 . S
H461 C475 0.961 . S
H462 C476 0.960 . S
H463 C476 0.961 . S
H464 C476 0.959 . S
H465 C479 0.929 1_545 S
H466 C480 0.931 . S
H467 C482 0.930 . S
C468 H456 0.930 . S
C468 C469 1.399 . S
C468 C473 1.399 . S
C469 C468 1.399 . S
C469 C470 1.376 . S
C470 H457 0.930 . S
C470 C469 1.376 . S
C470 C471 1.388 . S
C471 H458 0.930 . S
C471 C470 1.388 . S
C471 C472 1.390 . S
C472 C471 1.390 . S
C472 C473 1.394 . S
C472 C478 1.465 1_545 S
C473 C468 1.399 . S
C473 C472 1.394 . S
C473 C474 1.516 1_545 S
C474 C473 1.516 1_565 S
C474 C475 1.502 . S
C474 C476 1.561 1_565 S
C474 C477 1.526 . S
C475 H459 0.959 . S
C475 H460 0.959 . S
C475 H461 0.961 . S
C475 C474 1.502 . S
C476 H462 0.960 . S
C476 H463 0.961 . S
C476 H464 0.959 . S
C476 C474 1.561 1_545 S
C477 C474 1.526 . S
C477 C478 1.396 . S
C477 C482 1.390 . S
C478 C472 1.465 1_565 S
C478 C477 1.396 . S
C478 C479 1.399 . S
C479 H465 0.929 1_565 S
C479 C478 1.399 . S
C479 C480 1.385 . S
C480 H466 0.931 . S
C480 C479 1.385 . S
C480 C481 1.389 . S
C481 C480 1.389 . S
C481 C482 1.387 . S
C482 H467 0.930 . S
C482 C477 1.390 . S
C482 C481 1.387 . S
H483 C495 0.930 . S
H484 C497 0.930 . S
H485 C498 0.930 . S
H486 C502 0.959 . S
H487 C502 0.959 . S
H488 C502 0.961 . S
H489 C503 0.960 . S
H490 C503 0.961 . S
H491 C503 0.959 . S
H492 C506 0.929 . S
H493 C507 0.931 . S
H494 C509 0.930 . S
C495 H483 0.930 . S
C495 C496 1.399 . S
C495 C500 1.399 . S
C496 C495 1.399 . S
C496 C497 1.376 . S
C497 H484 0.930 . S
C497 C496 1.376 . S
C497 C498 1.388 . S
C498 H485 0.930 . S
C498 C497 1.388 . S
C498 C499 1.390 . S
C499 C498 1.390 . S
C499 C500 1.394 . S
C499 C505 1.465 . S
C500 C495 1.399 . S
C500 C499 1.394 . S
C500 C501 1.516 . S
C501 C500 1.516 . S
C501 C502 1.502 . S
C501 C503 1.561 . S
C501 C504 1.526 . S
C502 H486 0.959 . S
C502 H487 0.959 . S
C502 H488 0.961 . S
C502 C501 1.502 . S
C503 H489 0.960 . S
C503 H490 0.961 . S
C503 H491 0.959 . S
C503 C501 1.561 . S
C504 C501 1.526 . S
C504 C505 1.396 . S
C504 C509 1.390 . S
C505 C499 1.465 . S
C505 C504 1.396 . S
C505 C506 1.399 . S
C506 H492 0.929 . S
C506 C505 1.399 . S
C506 C507 1.385 . S
C507 H493 0.931 . S
C507 C506 1.385 . S
C507 C508 1.389 . S
C508 C507 1.389 . S
C508 C509 1.387 . S
C509 H494 0.930 . S
C509 C504 1.390 . S
C509 C508 1.387 . S
H510 C522 0.930 . S
H511 C524 0.930 1_655 S
H512 C525 0.930 . S
H513 C529 0.959 . S
H514 C529 0.959 . S
H515 C529 0.961 . S
H516 C530 0.960 . S
H517 C530 0.961 . S
H518 C530 0.959 . S
H519 C533 0.929 . S
H520 C534 0.931 . S
H521 C536 0.930 1_455 S
C522 H510 0.930 . S
C522 C523 1.399 . S
C522 C527 1.399 . S
C523 C522 1.399 . S
C523 C524 1.376 . S
C524 H511 0.930 1_455 S
C524 C523 1.376 . S
C524 C525 1.388 1_455 S
C525 H512 0.930 . S
C525 C524 1.388 1_655 S
C525 C526 1.390 . S
C526 C525 1.390 . S
C526 C527 1.394 1_655 S
C526 C532 1.465 . S
C527 C522 1.399 . S
C527 C526 1.394 1_455 S
C527 C528 1.516 . S
C528 C527 1.516 . S
C528 C529 1.502 . S
C528 C530 1.561 1_554 S
C528 C531 1.526 1_455 S
C529 H513 0.959 . S
C529 H514 0.959 . S
C529 H515 0.961 . S
C529 C528 1.502 . S
C530 H516 0.960 . S
C530 H517 0.961 . S
C530 H518 0.959 . S
C530 C528 1.561 1_556 S
C531 C528 1.526 1_655 S
C531 C532 1.396 . S
C531 C536 1.390 . S
C532 C526 1.465 . S
C532 C531 1.396 . S
C532 C533 1.399 . S
C533 H519 0.929 . S
C533 C532 1.399 . S
C533 C534 1.385 . S
C534 H520 0.931 . S
C534 C533 1.385 . S
C534 C535 1.389 . S
C535 C534 1.389 . S
C535 C536 1.387 . S
C536 H521 0.930 1_655 S
C536 C531 1.390 . S
C536 C535 1.387 . S
H537 C549 0.930 . S
H538 C551 0.930 . S
H539 C552 0.930 1_545 S
H540 C556 0.959 . S
H541 C556 0.959 . S
H542 C556 0.961 . S
H543 C557 0.960 . S
H544 C557 0.961 . S
H545 C557 0.959 . S
H546 C560 0.929 . S
H547 C561 0.931 . S
H548 C563 0.930 . S
C549 H537 0.930 . S
C549 C550 1.399 . S
C549 C554 1.399 . S
C550 C549 1.399 . S
C550 C551 1.376 . S
C551 H538 0.930 . S
C551 C550 1.376 . S
C551 C552 1.388 . S
C552 H539 0.930 1_565 S
C552 C551 1.388 . S
C552 C553 1.390 . S
C553 C552 1.390 . S
C553 C554 1.394 . S
C553 C559 1.465 1_565 S
C554 C549 1.399 . S
C554 C553 1.394 . S
C554 C555 1.516 . S
C555 C554 1.516 . S
C555 C556 1.502 . S
C555 C557 1.561 1_565 S
C555 C558 1.526 1_565 S
C556 H540 0.959 . S
C556 H541 0.959 . S
C556 H542 0.961 . S
C556 C555 1.502 . S
C557 H543 0.960 . S
C557 H544 0.961 . S
C557 H545 0.959 . S
C557 C555 1.561 1_545 S
C558 C555 1.526 1_545 S
C558 C559 1.396 . S
C558 C563 1.390 . S
C559 C553 1.465 1_545 S
C559 C558 1.396 . S
C559 C560 1.399 . S
C560 H546 0.929 . S
C560 C559 1.399 . S
C560 C561 1.385 . S
C561 H547 0.931 . S
C561 C560 1.385 . S
C561 C562 1.389 . S
C562 C561 1.389 . S
C562 C563 1.387 . S
C563 H548 0.930 . S
C563 C558 1.390 . S
C563 C562 1.387 . S
H564 C576 0.930 . S
H565 C578 0.930 . S
H566 C579 0.930 . S
H567 C583 0.959 . S
H568 C583 0.959 . S
H569 C583 0.961 . S
H570 C584 0.960 . S
H571 C584 0.961 . S
H572 C584 0.959 . S
H573 C587 0.929 . S
H574 C588 0.931 . S
H575 C590 0.930 . S
C576 H564 0.930 . S
C576 C577 1.399 . S
C576 C581 1.399 . S
C577 C576 1.399 . S
C577 C578 1.376 . S
C578 H565 0.930 . S
C578 C577 1.376 . S
C578 C579 1.388 . S
C579 H566 0.930 . S
C579 C578 1.388 . S
C579 C580 1.390 . S
C580 C579 1.390 . S
C580 C581 1.394 . S
C580 C586 1.465 . S
C581 C576 1.399 . S
C581 C580 1.394 . S
C581 C582 1.516 . S
C582 C581 1.516 . S
C582 C583 1.502 . S
C582 C584 1.561 . S
C582 C585 1.526 . S
C583 H567 0.959 . S
C583 H568 0.959 . S
C583 H569 0.961 . S
C583 C582 1.502 . S
C584 H570 0.960 . S
C584 H571 0.961 . S
C584 H572 0.959 . S
C584 C582 1.561 . S
C585 C582 1.526 . S
C585 C586 1.396 . S
C585 C590 1.390 . S
C586 C580 1.465 . S
C586 C585 1.396 . S
C586 C587 1.399 . S
C587 H573 0.929 . S
C587 C586 1.399 . S
C587 C588 1.385 . S
C588 H574 0.931 . S
C588 C587 1.385 . S
C588 C589 1.389 . S
C589 C588 1.389 . S
C589 C590 1.387 . S
C590 H575 0.930 . S
C590 C585 1.390 . S
C590 C589 1.387 . S
H591 C603 0.930 . S
H592 C605 0.930 . S
H593 C606 0.930 . S
H594 C610 0.959 . S
H595 C610 0.959 . S
H596 C610 0.961 . S
H597 C611 0.960 . S
H598 C611 0.961 . S
H599 C611 0.959 . S
H600 C614 0.929 . S
H601 C615 0.931 . S
H602 C617 0.930 . S
C603 H591 0.930 . S
C603 C604 1.399 . S
C603 C608 1.399 . S
C604 C603 1.399 . S
C604 C605 1.376 . S
C605 H592 0.930 . S
C605 C604 1.376 . S
C605 C606 1.388 . S
C606 H593 0.930 . S
C606 C605 1.388 . S
C606 C607 1.390 . S
C607 C606 1.390 . S
C607 C608 1.394 . S
C607 C613 1.465 . S
C608 C603 1.399 . S
C608 C607 1.394 . S
C608 C609 1.516 . S
C609 C608 1.516 . S
C609 C610 1.502 . S
C609 C611 1.561 1_455 S
C609 C612 1.526 . S
C610 H594 0.959 . S
C610 H595 0.959 . S
C610 H596 0.961 . S
C610 C609 1.502 . S
C611 H597 0.960 . S
C611 H598 0.961 . S
C611 H599 0.959 . S
C611 C609 1.561 1_655 S
C612 C609 1.526 . S
C612 C613 1.396 . S
C612 C617 1.390 . S
C613 C607 1.465 . S
C613 C612 1.396 . S
C613 C614 1.399 . S
C614 H600 0.929 . S
C614 C613 1.399 . S
C614 C615 1.385 . S
C615 H601 0.931 . S
C615 C614 1.385 . S
C615 C616 1.389 . S
C616 C615 1.389 . S
C616 C617 1.387 . S
C617 H602 0.930 . S
C617 C612 1.390 . S
C617 C616 1.387 . S
H618 C630 0.930 . S
H619 C632 0.930 . S
H620 C633 0.930 . S
H621 C637 0.959 . S
H622 C637 0.959 . S
H623 C637 0.961 . S
H624 C638 0.960 . S
H625 C638 0.961 . S
H626 C638 0.959 . S
H627 C641 0.929 . S
H628 C642 0.931 . S
H629 C644 0.930 . S
C630 H618 0.930 . S
C630 C631 1.399 . S
C630 C635 1.399 . S
C631 C630 1.399 . S
C631 C632 1.376 1_545 S
C632 H619 0.930 . S
C632 C631 1.376 1_565 S
C632 C633 1.388 . S
C633 H620 0.930 . S
C633 C632 1.388 . S
C633 C634 1.390 1_565 S
C634 C633 1.390 1_545 S
C634 C635 1.394 . S
C634 C640 1.465 . S
C635 C630 1.399 . S
C635 C634 1.394 . S
C635 C636 1.516 . S
C636 C635 1.516 . S
C636 C637 1.502 . S
C636 C638 1.561 . S
C636 C639 1.526 . S
C637 H621 0.959 . S
C637 H622 0.959 . S
C637 H623 0.961 . S
C637 C636 1.502 . S
C638 H624 0.960 . S
C638 H625 0.961 . S
C638 H626 0.959 . S
C638 C636 1.561 . S
C639 C636 1.526 . S
C639 C640 1.396 . S
C639 C644 1.390 . S
C640 C634 1.465 . S
C640 C639 1.396 . S
C640 C641 1.399 . S
C641 H627 0.929 . S
C641 C640 1.399 . S
C641 C642 1.385 . S
C642 H628 0.931 . S
C642 C641 1.385 . S
C642 C643 1.389 . S
C643 C642 1.389 . S
C643 C644 1.387 . S
C644 H629 0.930 . S
C644 C639 1.390 . S
C644 C643 1.387 . S
H645 C657 0.930 . S
H646 C659 0.930 . S
H647 C660 0.930 . S
H648 C664 0.959 . S
H649 C664 0.959 . S
H650 C664 0.961 . S
H651 C665 0.960 . S
H652 C665 0.961 . S
H653 C665 0.959 . S
H654 C668 0.929 . S
H655 C669 0.931 . S
H656 C671 0.930 . S
C657 H645 0.930 . S
C657 C658 1.399 . S
C657 C662 1.399 . S
C658 C657 1.399 . S
C658 C659 1.376 . S
C659 H646 0.930 . S
C659 C658 1.376 . S
C659 C660 1.388 . S
C660 H647 0.930 . S
C660 C659 1.388 . S
C660 C661 1.390 . S
C661 C660 1.390 . S
C661 C662 1.394 . S
C661 C667 1.465 . S
C662 C657 1.399 . S
C662 C661 1.394 . S
C662 C663 1.516 . S
C663 C662 1.516 . S
C663 C664 1.502 . S
C663 C665 1.561 . S
C663 C666 1.526 . S
C664 H648 0.959 . S
C664 H649 0.959 . S
C664 H650 0.961 . S
C664 C663 1.502 . S
C665 H651 0.960 . S
C665 H652 0.961 . S
C665 H653 0.959 . S
C665 C663 1.561 . S
C666 C663 1.526 . S
C666 C667 1.396 . S
C666 C671 1.390 . S
C667 C661 1.465 . S
C667 C666 1.396 . S
C667 C668 1.399 . S
C668 H654 0.929 . S
C668 C667 1.399 . S
C668 C669 1.385 . S
C669 H655 0.931 . S
C669 C668 1.385 . S
C669 C670 1.389 . S
C670 C669 1.389 . S
C670 C671 1.387 . S
C671 H656 0.930 . S
C671 C666 1.390 . S
C671 C670 1.387 . S
H672 C684 0.930 1_455 S
H673 C686 0.930 . S
H674 C687 0.930 . S
H675 C691 0.959 . S
H676 C691 0.959 . S
H677 C691 0.961 . S
H678 C692 0.960 . S
H679 C692 0.961 . S
H680 C692 0.959 . S
H681 C695 0.929 . S
H682 C696 0.931 . S
H683 C698 0.930 . S
C684 H672 0.930 1_655 S
C684 C685 1.399 . S
C684 C689 1.399 . S
C685 C684 1.399 . S
C685 C686 1.376 . S
C686 H673 0.930 . S
C686 C685 1.376 . S
C686 C687 1.388 . S
C687 H674 0.930 . S
C687 C686 1.388 . S
C687 C688 1.390 . S
C688 C687 1.390 . S
C688 C689 1.394 . S
C688 C694 1.465 . S
C689 C684 1.399 . S
C689 C688 1.394 . S
C689 C690 1.516 . S
C690 C689 1.516 . S
C690 C691 1.502 1_655 S
C690 C692 1.561 . S
C690 C693 1.526 . S
C691 H675 0.959 . S
C691 H676 0.959 . S
C691 H677 0.961 . S
C691 C690 1.502 1_455 S
C692 H678 0.960 . S
C692 H679 0.961 . S
C692 H680 0.959 . S
C692 C690 1.561 . S
C693 C690 1.526 . S
C693 C694 1.396 . S
C693 C698 1.390 . S
C694 C688 1.465 . S
C694 C693 1.396 . S
C694 C695 1.399 . S
C695 H681 0.929 . S
C695 C694 1.399 . S
C695 C696 1.385 . S
C696 H682 0.931 . S
C696 C695 1.385 . S
C696 C697 1.389 . S
C697 C696 1.389 . S
C697 C698 1.387 . S
C698 H683 0.930 . S
C698 C693 1.390 . S
C698 C697 1.387 . S
H699 C711 0.930 . S
H700 C713 0.930 . S
H701 C714 0.930 . S
H702 C718 0.959 1_565 S
H703 C718 0.959 . S
H704 C718 0.961 . S
H705 C719 0.960 . S
H706 C719 0.961 . S
H707 C719 0.959 . S
H708 C722 0.929 . S
H709 C723 0.931 . S
H710 C725 0.930 . S
C711 H699 0.930 . S
C711 C712 1.399 1_545 S
C711 C716 1.399 1_545 S
C712 C711 1.399 1_565 S
C712 C713 1.376 . S
C713 H700 0.930 . S
C713 C712 1.376 . S
C713 C714 1.388 . S
C714 H701 0.930 . S
C714 C713 1.388 . S
C714 C715 1.390 . S
C715 C714 1.390 . S
C715 C716 1.394 . S
C715 C721 1.465 . S
C716 C711 1.399 1_565 S
C716 C715 1.394 . S
C716 C717 1.516 . S
C717 C716 1.516 . S
C717 C718 1.502 1_565 S
C717 C719 1.561 1_565 S
C717 C720 1.526 . S
C718 H702 0.959 1_545 S
C718 H703 0.959 . S
C718 H704 0.961 . S
C718 C717 1.502 1_545 S
C719 H705 0.960 . S
C719 H706 0.961 . S
C719 H707 0.959 . S
C719 C717 1.561 1_545 S
C720 C717 1.526 . S
C720 C721 1.396 . S
C720 C725 1.390 . S
C721 C715 1.465 . S
C721 C720 1.396 . S
C721 C722 1.399 . S
C722 H708 0.929 . S
C722 C721 1.399 . S
C722 C723 1.385 . S
C723 H709 0.931 . S
C723 C722 1.385 . S
C723 C724 1.389 . S
C724 C723 1.389 . S
C724 C725 1.387 . S
C725 H710 0.930 . S
C725 C720 1.390 . S
C725 C724 1.387 . S
C253 C172 1.167 . S
C265 C8 1.156 . S
C280 C212 1.164 . S
C292 C48 1.178 . S
C307 C12 1.157 . S
C319 C88 1.176 . S
C334 C52 1.171 . S
C346 C128 1.170 . S
C361 C92 1.164 . S
C373 C168 1.178 . S
C388 C132 1.177 . S
C400 C208 1.152 . S
C415 C17 0.782 . S
C427 C137 0.920 . S
C442 C177 0.881 . S
C454 C57 0.817 . S
C469 C217 0.798 . S
C481 C97 0.900 . S
C496 C82 1.028 . S
C508 C202 1.012 . S
C523 C2 1.028 . S
C535 C122 0.999 . S
C550 C162 1.028 . S
C562 C42 1.013 . S
C577 C231 1.201 . S
C589 C29 1.190 . S
C604 C69 1.189 1_455 S
C616 C31 1.201 . S
C631 C109 1.224 1_545 S
C643 C71 1.215 . S
C658 C111 1.226 . S
C670 C149 1.229 . S
C685 C189 1.221 1_655 S
C697 C151 1.227 . S
C712 C229 1.198 1_565 S
C724 C191 1.214 . S
