# Generated by pormake.
# Topology rac, (4)-cn, num edge types: 1
# Building blocks:
#     Node 0, Type 0, BuildingBlock: NAHDIM_clean_sbu_0, # of connection points: 4
#     Node 1, Type 0, BuildingBlock: NAHDIM_clean_sbu_0, # of connection points: 4
#     Node 2, Type 0, BuildingBlock: NAHDIM_clean_sbu_0, # of connection points: 4
#     Node 3, Type 0, BuildingBlock: NAHDIM_clean_sbu_0, # of connection points: 4
#     Node 4, Type 0, BuildingBlock: NAHDIM_clean_sbu_0, # of connection points: 4
#     Node 5, Type 0, BuildingBlock: NAHDIM_clean_sbu_0, # of connection points: 4
#     Node 6, Type 0, BuildingBlock: NAHDIM_clean_sbu_0, # of connection points: 4
#     Node 7, Type 0, BuildingBlock: NAHDIM_clean_sbu_0, # of connection points: 4
#     Edge 8, Type (0, 0), BuildingBlock: CIFDUS_clean_linker_0, # of connection points: 2
#     Edge 9, Type (0, 0), BuildingBlock: CIFDUS_clean_linker_0, # of connection points: 2
#     Edge 10, Type (0, 0), BuildingBlock: CIFDUS_clean_linker_0, # of connection points: 2
#     Edge 11, Type (0, 0), BuildingBlock: CIFDUS_clean_linker_0, # of connection points: 2
#     Edge 12, Type (0, 0), BuildingBlock: CIFDUS_clean_linker_0, # of connection points: 2
#     Edge 13, Type (0, 0), BuildingBlock: CIFDUS_clean_linker_0, # of connection points: 2
#     Edge 14, Type (0, 0), BuildingBlock: CIFDUS_clean_linker_0, # of connection points: 2
#     Edge 15, Type (0, 0), BuildingBlock: CIFDUS_clean_linker_0, # of connection points: 2
#     Edge 16, Type (0, 0), BuildingBlock: CIFDUS_clean_linker_0, # of connection points: 2
#     Edge 17, Type (0, 0), BuildingBlock: CIFDUS_clean_linker_0, # of connection points: 2
#     Edge 18, Type (0, 0), BuildingBlock: CIFDUS_clean_linker_0, # of connection points: 2
#     Edge 19, Type (0, 0), BuildingBlock: CIFDUS_clean_linker_0, # of connection points: 2
#     Edge 20, Type (0, 0), BuildingBlock: CIFDUS_clean_linker_0, # of connection points: 2
#     Edge 21, Type (0, 0), BuildingBlock: CIFDUS_clean_linker_0, # of connection points: 2
#     Edge 22, Type (0, 0), BuildingBlock: CIFDUS_clean_linker_0, # of connection points: 2
#     Edge 23, Type (0, 0), BuildingBlock: CIFDUS_clean_linker_0, # of connection points: 2
# Relax obj value: 0.224
# Max RMSD: 0.117
# Mean RMSD: 0.117
data_MOF--net-rac--node1-NAHDIM_clean_sbu_0--edge1-CIFDUS_clean_linker_0
_symmetry_space_group_name_H-M    P1
_symmetry_Int_Tables_number       1
_symmetry_cell_setting            triclinic
loop_
_symmetry_equiv_pos_as_xyz
'x, y, z'
_cell_length_a     35.178007
_cell_length_b     18.234894
_cell_length_c     36.827429
_cell_angle_alpha  89.256527
_cell_angle_beta   89.984563
_cell_angle_gamma 90.280411
loop_
_atom_site_label
_atom_site_type_symbol
_atom_site_fract_x
_atom_site_fract_y
_atom_site_fract_z
_atom_type_partial_charge
C0 C 0.44617 0.34907 0.05276 0.0
O1 O 0.44524 0.34294 0.08831 0.0
O2 O 0.38424 0.2566 0.11451 0.0
Zn3 Zn 0.37691 0.26838 0.06027 0.0
O4 O 0.33918 0.34782 0.05541 0.0
C5 C 0.35344 0.11769 0.05792 0.0
O6 O 0.37976 0.11196 0.0831 0.0
O7 O 0.42226 0.31292 0.03406 0.0
C8 C 0.31542 0.35266 0.02961 0.0
O9 O 0.31431 0.3018 0.00469 0.0
C10 C 0.35333 0.24751 0.13197 0.0
O11 O 0.32137 0.24321 0.11363 0.0
O12 O 0.35073 0.17784 0.04032 0.0
C13 C 0.06402 0.66138 0.03011 0.0
O14 O 0.08882 0.62647 0.05041 0.0
O15 O 0.10267 0.76909 0.10656 0.0
Zn16 Zn 0.11455 0.76959 0.0525 0.0
O17 O 0.15642 0.6981 0.0442 0.0
C18 C 0.15582 0.90237 0.06092 0.0
O19 O 0.14948 0.88387 0.09496 0.0
O20 O 0.06838 0.73029 0.02502 0.0
C21 C 0.18775 0.70317 0.06105 0.0
O22 O 0.19255 0.75567 0.08466 0.0
C23 C 0.10968 0.71444 0.12734 0.0
O24 O 0.12425 0.65478 0.11359 0.0
O25 O 0.13867 0.86713 0.0361 0.0
C26 C 0.44705 0.16095 0.43884 0.0
O27 O 0.42844 0.13519 0.41077 0.0
O28 O 0.40584 0.26837 0.36736 0.0
Zn29 Zn 0.39541 0.2688 0.42125 0.0
O30 O 0.35359 0.19631 0.42971 0.0
C31 C 0.34394 0.37715 0.45117 0.0
O32 O 0.32859 0.3191 0.46679 0.0
O33 O 0.44009 0.22621 0.44896 0.0
C34 C 0.34895 0.16131 0.45944 0.0
O35 O 0.37183 0.17385 0.48689 0.0
C36 C 0.37644 0.26917 0.34729 0.0
O37 O 0.34282 0.27249 0.36274 0.0
O38 O 0.37511 0.37015 0.43385 0.0
C39 C 0.07338 0.8848 0.43839 0.0
O40 O 0.0951 0.92605 0.41751 0.0
O41 O 0.10853 0.76205 0.35774 0.0
Zn42 Zn 0.12394 0.77838 0.4099 0.0
O43 O 0.16283 0.8578 0.40938 0.0
C44 C 0.1846 0.67984 0.41678 0.0
O45 O 0.19623 0.72514 0.39101 0.0
O46 O 0.07965 0.81595 0.4402 0.0
C47 C 0.1801 0.87419 0.43839 0.0
O48 O 0.17224 0.83794 0.46856 0.0
C49 C 0.10582 0.81725 0.33641 0.0
O50 O 0.11173 0.88315 0.3492 0.0
O51 O 0.15146 0.68858 0.43008 0.0
C52 C 0.53112 0.70313 0.95093 0.0
O53 O 0.52172 0.72682 0.91835 0.0
O54 O 0.59275 0.78047 0.87992 0.0
Zn55 Zn 0.60759 0.75266 0.93139 0.0
O56 O 0.63758 0.65958 0.93047 0.0
C57 C 0.67641 0.83062 0.93858 0.0
O58 O 0.68423 0.78132 0.91411 0.0
O59 O 0.56366 0.71981 0.96355 0.0
C60 C 0.65485 0.62991 0.90424 0.0
O61 O 0.65565 0.66247 0.87222 0.0
C62 C 0.58014 0.73484 0.85695 0.0
O63 O 0.57344 0.66683 0.86744 0.0
O64 O 0.64287 0.83232 0.95172 0.0
C65 C 0.91282 0.37085 0.95634 0.0
O66 O 0.88813 0.40252 0.93459 0.0
O67 O 0.90663 0.21114 0.88123 0.0
Zn68 Zn 0.87855 0.24105 0.92618 0.0
O69 O 0.83713 0.30568 0.90795 0.0
C70 C 0.85863 0.08865 0.94046 0.0
O71 O 0.88839 0.07674 0.91984 0.0
O72 O 0.91335 0.30096 0.95878 0.0
C73 C 0.80757 0.31503 0.92697 0.0
O74 O 0.8046 0.28144 0.95863 0.0
C75 C 0.91759 0.26227 0.85982 0.0
O76 O 0.91318 0.33063 0.86972 0.0
O77 O 0.85125 0.15404 0.94954 0.0
C78 C 0.55861 0.83799 0.54128 0.0
O79 O 0.57609 0.86481 0.56967 0.0
O80 O 0.58947 0.71745 0.61762 0.0
Zn81 Zn 0.6064 0.72724 0.56494 0.0
O82 O 0.64773 0.80109 0.56038 0.0
C83 C 0.62757 0.57449 0.56796 0.0
O84 O 0.60155 0.57283 0.59356 0.0
O85 O 0.56479 0.77135 0.53295 0.0
C86 C 0.67893 0.80248 0.57752 0.0
O87 O 0.68615 0.7522 0.60241 0.0
C88 C 0.59603 0.76532 0.64171 0.0
O89 O 0.6139 0.82618 0.63257 0.0
O90 O 0.63166 0.63284 0.54906 0.0
C91 C 0.92712 0.13657 0.54549 0.0
O92 O 0.91041 0.09706 0.57092 0.0
O93 O 0.90509 0.27953 0.62464 0.0
Zn94 Zn 0.88026 0.24493 0.57857 0.0
O95 O 0.84682 0.16027 0.59263 0.0
C96 C 0.81413 0.32955 0.57821 0.0
O97 O 0.81133 0.29005 0.60819 0.0
O98 O 0.91926 0.20474 0.54265 0.0
C99 C 0.82579 0.13442 0.56792 0.0
O100 O 0.82648 0.16517 0.53545 0.0
C101 C 0.91792 0.23149 0.64671 0.0
O102 O 0.91717 0.1623 0.63735 0.0
O103 O 0.84405 0.32356 0.5589 0.0
H104 H 0.28942 0.11862 0.0149 0.0
H105 H 0.34563 0.99521 0.1001 0.0
H106 H 0.2894 0.91882 0.10804 0.0
H107 H 0.22296 0.893 0.09469 0.0
H108 H 0.16628 0.00794 0.00746 0.0
H109 H 0.22394 0.08225 -0.00346 0.0
C110 C 0.2896 0.07419 0.03476 0.0
C111 C 0.32176 0.06347 0.05716 0.0
C112 C 0.25689 0.02987 0.03927 0.0
C113 C 0.32143 0.00527 0.08259 0.0
C114 C 0.28912 0.96165 0.08735 0.0
C115 C 0.22318 0.93425 0.0732 0.0
C116 C 0.19025 0.94624 0.05238 0.0
C117 C 0.25647 0.97472 0.06656 0.0
C118 C 0.19123 0.99848 0.02407 0.0
C119 C 0.22418 0.04072 0.01785 0.0
H120 H 0.25968 0.66575 0.40201 0.0
H121 H 0.16779 0.56227 0.46142 0.0
H122 H 0.2103 0.46285 0.48025 0.0
H123 H 0.27237 0.40174 0.47648 0.0
H124 H 0.36376 0.50519 0.41617 0.0
H125 H 0.32267 0.609 0.40161 0.0
C126 C 0.24886 0.62157 0.41915 0.0
C127 C 0.2104 0.62104 0.42991 0.0
C128 C 0.27343 0.56478 0.42984 0.0
C129 C 0.19715 0.56386 0.45257 0.0
C130 C 0.22147 0.50701 0.46334 0.0
C131 C 0.28356 0.4474 0.46056 0.0
C132 C 0.32117 0.44522 0.44726 0.0
C133 C 0.25953 0.50643 0.45172 0.0
C134 C 0.33503 0.50514 0.42674 0.0
C135 C 0.31144 0.56442 0.41821 0.0
H136 H 0.75192 0.81278 0.93161 0.0
H137 H 0.6685 0.96823 0.96774 0.0
H138 H 0.71875 0.0607 0.97555 0.0
H139 H 0.78552 0.10043 0.96566 0.0
H140 H 0.86765 0.94298 0.92834 0.0
H141 H 0.81875 0.84802 0.92786 0.0
C142 C 0.74468 0.86671 0.94154 0.0
C143 C 0.70645 0.88399 0.94858 0.0
C144 C 0.77352 0.91931 0.9456 0.0
C145 C 0.69769 0.95364 0.96203 0.0
C146 C 0.72641 0.00656 0.96632 0.0
C147 C 0.79289 0.04501 0.95809 0.0
C148 C 0.83026 0.02918 0.94666 0.0
C149 C 0.76433 0.99053 0.95729 0.0
C150 C 0.83919 0.957 0.93696 0.0
C151 C 0.81118 0.90259 0.93657 0.0
H152 H 0.69648 0.57588 0.53288 0.0
H153 H 0.62405 0.44049 0.60101 0.0
H154 H 0.67493 0.35147 0.60831 0.0
H155 H 0.74127 0.31719 0.60009 0.0
H156 H 0.81488 0.45016 0.53233 0.0
H157 H 0.76221 0.53481 0.51997 0.0
C158 C 0.69159 0.52623 0.54875 0.0
C159 C 0.65644 0.51535 0.56662 0.0
C160 C 0.72133 0.47532 0.55331 0.0
C161 C 0.65075 0.45069 0.58714 0.0
C162 C 0.67993 0.39975 0.59147 0.0
C163 C 0.74585 0.36455 0.58247 0.0
C164 C 0.78212 0.37802 0.56761 0.0
C165 C 0.71557 0.4125 0.57552 0.0
C166 C 0.7873 0.43878 0.54426 0.0
C167 C 0.75719 0.48721 0.53727 0.0
H168 H 0.41305 0.26172 0.17911 0.0
H169 H 0.29135 0.22978 0.17523 0.0
H170 H 0.28811 0.23346 0.24112 0.0
H171 H 0.31907 0.24855 0.2997 0.0
H172 H 0.44064 0.27911 0.30506 0.0
H173 H 0.44463 0.27312 0.23877 0.0
C174 C 0.38588 0.25519 0.19271 0.0
C175 C 0.3525 0.2458 0.17215 0.0
C176 C 0.38411 0.25744 0.23087 0.0
C177 C 0.31751 0.2373 0.19025 0.0
C178 C 0.31557 0.23948 0.22801 0.0
C179 C 0.3465 0.25402 0.28645 0.0
C180 C 0.37946 0.26477 0.3073 0.0
C181 C 0.34858 0.25012 0.24853 0.0
C182 C 0.41479 0.27098 0.28963 0.0
C183 C 0.41709 0.26756 0.25173 0.0
H184 H 0.1092 0.69073 0.29813 0.0
H185 H 0.08957 0.92331 0.28617 0.0
H186 H 0.08618 0.91113 0.2204 0.0
H187 H 0.09336 0.83622 0.1661 0.0
H188 H 0.11538 0.60442 0.17786 0.0
H189 H 0.11302 0.61455 0.24379 0.0
C190 C 0.1037 0.73857 0.28116 0.0
C191 C 0.09987 0.80782 0.29703 0.0
C192 C 0.10245 0.73147 0.24327 0.0
C193 C 0.09288 0.86936 0.27464 0.0
C194 C 0.09096 0.86252 0.237 0.0
C195 C 0.09721 0.78776 0.18306 0.0
C196 C 0.10475 0.71982 0.16707 0.0
C197 C 0.09642 0.79411 0.22099 0.0
C198 C 0.10977 0.65756 0.18946 0.0
C199 C 0.10844 0.66324 0.2272 0.0
H200 H 0.56212 0.64706 0.80016 0.0
H201 H 0.5955 0.8686 0.82591 0.0
H202 H 0.60107 0.89855 0.7614 0.0
H203 H 0.60124 0.85951 0.69801 0.0
H204 H 0.56879 0.63767 0.67202 0.0
H205 H 0.55791 0.61045 0.73631 0.0
C206 C 0.57017 0.70217 0.7917 0.0
C207 C 0.57869 0.75526 0.81792 0.0
C208 C 0.57379 0.71887 0.7545 0.0
C209 C 0.58895 0.82648 0.80638 0.0
C210 C 0.59226 0.84366 0.76946 0.0
C211 C 0.59153 0.8053 0.70633 0.0
C212 C 0.58621 0.75055 0.68023 0.0
C213 C 0.58556 0.78987 0.74333 0.0
C214 C 0.57326 0.68082 0.69152 0.0
C215 C 0.56709 0.66513 0.72831 0.0
H216 H 0.93344 0.13846 0.70272 0.0
H217 H 0.92256 0.3686 0.6758 0.0
H218 H 0.92713 0.39903 0.74005 0.0
H219 H 0.92581 0.35903 0.80379 0.0
H220 H 0.9322 0.12821 0.83065 0.0
H221 H 0.93832 0.0994 0.76635 0.0
C222 C 0.93268 0.19543 0.71078 0.0
C223 C 0.92713 0.25111 0.68453 0.0
C224 C 0.93421 0.21233 0.74778 0.0
C225 C 0.92645 0.32462 0.69549 0.0
C226 C 0.92896 0.34206 0.73223 0.0
C227 C 0.92922 0.30247 0.79568 0.0
C228 C 0.92806 0.24576 0.82195 0.0
C229 C 0.93155 0.28616 0.75865 0.0
C230 C 0.93265 0.17284 0.81095 0.0
C231 C 0.93604 0.1563 0.77418 0.0
H232 H 0.42693 0.43243 0.99401 0.0
H233 H 0.51385 0.40475 0.0755 0.0
H234 H 0.54673 0.51468 0.05274 0.0
H235 H 0.55038 0.61925 0.01006 0.0
H236 H 0.46204 0.64925 0.92993 0.0
H237 H 0.42968 0.539 0.95238 0.0
C238 C 0.45344 0.44978 0.00635 0.0
C239 C 0.46836 0.40978 0.03597 0.0
C240 C 0.47148 0.51439 0.99389 0.0
C241 C 0.5021 0.43415 0.05238 0.0
C242 C 0.52072 0.4973 0.03956 0.0
C243 C 0.52379 0.60236 -0.00223 0.0
C244 C 0.50873 0.64287 0.9683 0.0
C245 C 0.50548 0.53828 0.01055 0.0
C246 C 0.47431 0.61952 0.95268 0.0
C247 C 0.45589 0.55603 0.96532 0.0
H248 H 0.04901 0.5171 0.04003 0.0
H249 H 0.00725 0.71043 0.98444 0.0
H250 H 0.95571 0.63759 0.95792 0.0
H251 H 0.92383 0.51834 0.94953 0.0
H252 H 0.96697 0.32568 0.00484 0.0
H253 H 0.01678 0.39962 0.03278 0.0
C254 C 0.02869 0.54372 0.02214 0.0
C255 C 0.03213 0.61926 0.01411 0.0
C256 C -0.00059 0.50163 0.00704 0.0
C257 C 0.00534 0.65246 0.991 0.0
C258 C 0.97589 0.6108 0.97586 0.0
C259 C 0.94396 0.49247 0.96788 0.0
C260 C 0.94165 0.41634 0.97503 0.0
C261 C 0.9728 0.53524 0.98357 0.0
C262 C 0.96806 0.38395 -0.00119 0.0
C263 C 0.9966 0.42621 0.01475 0.0
H264 H 0.54738 0.98322 0.55096 0.0
H265 H 0.51794 0.80565 0.47963 0.0
H266 H 0.48203 0.89104 0.44101 0.0
H267 H 0.45918 0.0158 0.42777 0.0
H268 H 0.48884 0.19268 0.49947 0.0
H269 H 0.5251 0.10743 0.53758 0.0
C270 C 0.53304 0.96278 0.52704 0.0
C271 C 0.53528 0.88783 0.5183 0.0
C272 C 0.51282 0.01216 0.50492 0.0
C273 C 0.51659 0.86284 0.48709 0.0
C274 C 0.49618 0.91173 0.46495 0.0
C275 C 0.47376 0.03601 0.4516 0.0
C276 C 0.47134 0.11082 0.46067 0.0
C277 C 0.49422 0.98652 0.47358 0.0
C278 C 0.4903 0.13565 0.49176 0.0
C279 C 0.51091 0.08682 0.51363 0.0
H280 H 0.94447 0.9921 0.54394 0.0
H281 H 0.97204 0.1999 0.49259 0.0
H282 H 0.01904 0.13925 0.45437 0.0
H283 H 0.0531 0.02813 0.43684 0.0
H284 H 0.02557 0.82057 0.48847 0.0
H285 H 0.97737 0.8807 0.52542 0.0
C286 C 0.96068 0.0244 0.52438 0.0
C287 C 0.95485 0.10069 0.52128 0.0
C288 C 0.98759 0.98925 0.50265 0.0
C289 C 0.97599 0.14127 0.49559 0.0
C290 C 0.00287 0.10659 0.47378 0.0
C291 C 0.03655 0.99578 0.45611 0.0
C292 C 0.04309 0.91982 0.45998 0.0
C293 C 0.00904 0.03073 0.47728 0.0
C294 C 0.02119 0.87898 0.48497 0.0
C295 C 0.99367 0.91339 0.50612 0.0
H296 H 0.1851 0.58606 0.01643 0.0
H297 H 0.25624 0.6942 0.09523 0.0
H298 H 0.3028 0.59613 0.09095 0.0
H299 H 0.32153 0.4775 0.06745 0.0
H300 H 0.25085 0.36809 0.98887 0.0
H301 H 0.20572 0.46975 0.99031 0.0
C302 C 0.2109 0.58843 0.03251 0.0
C303 C 0.21707 0.64686 0.05638 0.0
C304 C 0.23743 0.53177 0.03008 0.0
C305 C 0.25072 0.64951 0.07684 0.0
C306 C 0.27733 0.59349 0.07445 0.0
C307 C 0.29628 0.47583 0.05056 0.0
C308 C 0.28922 0.41518 0.0284 0.0
C309 C 0.27064 0.53395 0.05161 0.0
C310 C 0.25677 0.41425 0.00624 0.0
C311 C 0.23097 0.47217 0.00712 0.0
H312 H 0.29768 0.12704 0.40794 0.0
H313 H 0.33107 0.07323 0.51789 0.0
H314 H 0.28072 0.98038 0.52155 0.0
H315 H 0.22834 0.91271 0.49268 0.0
H316 H 0.19653 0.96713 0.38228 0.0
H317 H 0.24536 0.06194 0.37976 0.0
C318 C 0.29399 0.09522 0.4328 0.0
C319 C 0.3181 0.10679 0.46256 0.0
C320 C 0.26535 0.04203 0.43461 0.0
C321 C 0.31284 0.06521 0.49457 0.0
C322 C 0.28412 0.01214 0.49667 0.0
C323 C 0.23203 0.94555 0.46815 0.0
C324 C 0.20899 0.93276 0.4377 0.0
C325 C 0.26036 0.99982 0.46674 0.0
C326 C 0.21405 0.97562 0.40606 0.0
C327 C 0.24193 0.02991 0.40456 0.0
H328 H 0.70813 0.56903 0.86078 0.0
H329 H 0.65061 0.54003 0.96362 0.0
H330 H 0.69101 0.43577 0.97843 0.0
H331 H 0.74568 0.3592 0.96436 0.0
H332 H 0.80488 0.39053 0.86256 0.0
H333 H 0.76053 0.48712 0.84506 0.0
C334 C 0.70416 0.53935 0.88623 0.0
C335 C 0.67676 0.56263 0.9112 0.0
C336 C 0.72789 0.48016 0.89488 0.0
C337 C 0.67186 0.52363 0.94408 0.0
C338 C 0.69491 0.46399 0.9526 0.0
C339 C 0.74868 0.38664 0.9382 0.0
C340 C 0.77869 0.36827 0.91499 0.0
C341 C 0.72353 0.44281 0.92855 0.0
C342 C 0.78213 0.4041 0.88108 0.0
C343 C 0.75682 0.45937 0.87104 0.0
H344 H 0.73544 0.85338 0.62101 0.0
H345 H 0.68192 0.88713 0.51666 0.0
H346 H 0.72317 0.99201 0.50433 0.0
H347 H 0.77288 0.07618 0.52365 0.0
H348 H 0.82555 0.04661 0.62864 0.0
H349 H 0.78608 0.9382 0.64031 0.0
C350 C 0.73314 0.88339 0.59549 0.0
C351 C 0.70577 0.86271 0.56983 0.0
C352 C 0.75652 0.94462 0.58877 0.0
C353 C 0.70271 0.90232 0.53695 0.0
C354 C 0.72625 0.96229 0.52984 0.0
C355 C 0.77581 0.04597 0.54906 0.0
C356 C 0.80198 0.06933 0.57521 0.0
C357 C 0.75296 0.98431 0.55568 0.0
C358 C 0.80539 0.0298 0.60809 0.0
C359 C 0.78294 0.96774 0.61476 0.0
loop_
_geom_bond_atom_site_label_1
_geom_bond_atom_site_label_2
_geom_bond_distance
_geom_bond_site_symmetry_2
_ccdc_geom_bond_type
C0 O1 1.160 . S
C0 O7 1.185 . S
O1 C0 1.160 . S
O2 Zn3 1.899 . S
O2 C10 1.284 . S
Zn3 O2 1.899 . S
Zn3 O4 2.032 . S
Zn3 O7 2.086 . S
Zn3 O12 1.977 . S
O4 Zn3 2.032 . S
O4 C8 1.278 . S
C5 O6 1.203 . S
C5 O12 1.267 . S
O6 C5 1.203 . S
O7 C0 1.185 . S
O7 Zn3 2.086 . S
C8 O4 1.278 . S
C8 O9 1.211 . S
O9 C8 1.211 . S
C10 O2 1.284 . S
C10 O11 1.273 . S
O11 C10 1.273 . S
O12 Zn3 1.977 . S
O12 C5 1.267 . S
C13 O14 1.160 . S
C13 O20 1.185 . S
O14 C13 1.160 . S
O15 Zn16 1.899 . S
O15 C23 1.284 . S
Zn16 O15 1.899 . S
Zn16 O17 2.032 . S
Zn16 O20 2.086 . S
Zn16 O25 1.977 . S
O17 Zn16 2.032 . S
O17 C21 1.278 . S
C18 O19 1.203 . S
C18 O25 1.267 . S
O19 C18 1.203 . S
O20 C13 1.185 . S
O20 Zn16 2.086 . S
C21 O17 1.278 . S
C21 O22 1.211 . S
O22 C21 1.211 . S
C23 O15 1.284 . S
C23 O24 1.273 . S
O24 C23 1.273 . S
O25 Zn16 1.977 . S
O25 C18 1.267 . S
C26 O27 1.160 . S
C26 O33 1.185 . S
O27 C26 1.160 . S
O28 Zn29 1.899 . S
O28 C36 1.284 . S
Zn29 O28 1.899 . S
Zn29 O30 2.032 . S
Zn29 O33 2.086 . S
Zn29 O38 1.977 . S
O30 Zn29 2.032 . S
O30 C34 1.278 . S
C31 O32 1.203 . S
C31 O38 1.267 . S
O32 C31 1.203 . S
O33 C26 1.185 . S
O33 Zn29 2.086 . S
C34 O30 1.278 . S
C34 O35 1.211 . S
O35 C34 1.211 . S
C36 O28 1.284 . S
C36 O37 1.273 . S
O37 C36 1.273 . S
O38 Zn29 1.977 . S
O38 C31 1.267 . S
C39 O40 1.160 . S
C39 O46 1.185 . S
O40 C39 1.160 . S
O41 Zn42 1.899 . S
O41 C49 1.284 . S
Zn42 O41 1.899 . S
Zn42 O43 2.032 . S
Zn42 O46 2.086 . S
Zn42 O51 1.977 . S
O43 Zn42 2.032 . S
O43 C47 1.278 . S
C44 O45 1.203 . S
C44 O51 1.267 . S
O45 C44 1.203 . S
O46 C39 1.185 . S
O46 Zn42 2.086 . S
C47 O43 1.278 . S
C47 O48 1.211 . S
O48 C47 1.211 . S
C49 O41 1.284 . S
C49 O50 1.273 . S
O50 C49 1.273 . S
O51 Zn42 1.977 . S
O51 C44 1.267 . S
C52 O53 1.160 . S
C52 O59 1.185 . S
O53 C52 1.160 . S
O54 Zn55 1.899 . S
O54 C62 1.284 . S
Zn55 O54 1.899 . S
Zn55 O56 2.032 . S
Zn55 O59 2.086 . S
Zn55 O64 1.977 . S
O56 Zn55 2.032 . S
O56 C60 1.278 . S
C57 O58 1.203 . S
C57 O64 1.267 . S
O58 C57 1.203 . S
O59 C52 1.185 . S
O59 Zn55 2.086 . S
C60 O56 1.278 . S
C60 O61 1.211 . S
O61 C60 1.211 . S
C62 O54 1.284 . S
C62 O63 1.273 . S
O63 C62 1.273 . S
O64 Zn55 1.977 . S
O64 C57 1.267 . S
C65 O66 1.160 . S
C65 O72 1.185 . S
O66 C65 1.160 . S
O67 Zn68 1.899 . S
O67 C75 1.284 . S
Zn68 O67 1.899 . S
Zn68 O69 2.032 . S
Zn68 O72 2.086 . S
Zn68 O77 1.977 . S
O69 Zn68 2.032 . S
O69 C73 1.278 . S
C70 O71 1.203 . S
C70 O77 1.267 . S
O71 C70 1.203 . S
O72 C65 1.185 . S
O72 Zn68 2.086 . S
C73 O69 1.278 . S
C73 O74 1.211 . S
O74 C73 1.211 . S
C75 O67 1.284 . S
C75 O76 1.273 . S
O76 C75 1.273 . S
O77 Zn68 1.977 . S
O77 C70 1.267 . S
C78 O79 1.160 . S
C78 O85 1.185 . S
O79 C78 1.160 . S
O80 Zn81 1.899 . S
O80 C88 1.284 . S
Zn81 O80 1.899 . S
Zn81 O82 2.032 . S
Zn81 O85 2.086 . S
Zn81 O90 1.977 . S
O82 Zn81 2.032 . S
O82 C86 1.278 . S
C83 O84 1.203 . S
C83 O90 1.267 . S
O84 C83 1.203 . S
O85 C78 1.185 . S
O85 Zn81 2.086 . S
C86 O82 1.278 . S
C86 O87 1.211 . S
O87 C86 1.211 . S
C88 O80 1.284 . S
C88 O89 1.273 . S
O89 C88 1.273 . S
O90 Zn81 1.977 . S
O90 C83 1.267 . S
C91 O92 1.160 . S
C91 O98 1.185 . S
O92 C91 1.160 . S
O93 Zn94 1.899 . S
O93 C101 1.284 . S
Zn94 O93 1.899 . S
Zn94 O95 2.032 . S
Zn94 O98 2.086 . S
Zn94 O103 1.977 . S
O95 Zn94 2.032 . S
O95 C99 1.278 . S
C96 O97 1.203 . S
C96 O103 1.267 . S
O97 C96 1.203 . S
O98 C91 1.185 . S
O98 Zn94 2.086 . S
C99 O95 1.278 . S
C99 O100 1.211 . S
O100 C99 1.211 . S
C101 O93 1.284 . S
C101 O102 1.273 . S
O102 C101 1.273 . S
O103 Zn94 1.977 . S
O103 C96 1.267 . S
H104 C110 0.930 1_565 S
H105 C113 0.930 . S
H106 C114 0.930 . S
H107 C115 0.930 1_545 S
H108 C118 0.930 . S
H109 C119 0.930 . S
C110 H104 0.930 1_545 S
C110 C111 1.355 . S
C110 C112 1.415 1_545 S
C111 C110 1.355 . S
C111 C113 1.419 . S
C112 C110 1.415 1_565 S
C112 C117 1.425 1_565 S
C112 C119 1.409 . S
C113 H105 0.930 . S
C113 C111 1.419 . S
C113 C114 1.362 . S
C114 H106 0.930 . S
C114 C113 1.362 . S
C114 C117 1.409 . S
C115 H107 0.930 1_565 S
C115 C116 1.355 . S
C115 C117 1.415 1_565 S
C116 C115 1.355 . S
C116 C118 1.419 . S
C117 C112 1.425 1_545 S
C117 C114 1.409 . S
C117 C115 1.415 1_545 S
C118 H108 0.930 . S
C118 C116 1.419 . S
C118 C119 1.362 . S
C119 H109 0.930 . S
C119 C112 1.409 . S
C119 C118 1.362 . S
H120 C126 0.930 . S
H121 C129 0.930 . S
H122 C130 0.930 . S
H123 C131 0.930 . S
H124 C134 0.930 . S
H125 C135 0.930 . S
C126 H120 0.930 . S
C126 C127 1.355 . S
C126 C128 1.415 . S
C127 C126 1.355 . S
C127 C129 1.419 . S
C128 C126 1.415 . S
C128 C133 1.425 . S
C128 C135 1.409 . S
C129 H121 0.930 . S
C129 C127 1.419 . S
C129 C130 1.362 . S
C130 H122 0.930 . S
C130 C129 1.362 . S
C130 C133 1.409 . S
C131 H123 0.930 . S
C131 C132 1.355 . S
C131 C133 1.415 . S
C132 C131 1.355 . S
C132 C134 1.419 . S
C133 C128 1.425 . S
C133 C130 1.409 . S
C133 C131 1.415 . S
C134 H124 0.930 . S
C134 C132 1.419 . S
C134 C135 1.362 . S
C135 H125 0.930 . S
C135 C128 1.409 . S
C135 C134 1.362 . S
H136 C142 0.930 . S
H137 C145 0.930 1_554 S
H138 C146 0.930 1_554 S
H139 C147 0.930 . S
H140 C150 0.930 . S
H141 C151 0.930 . S
C142 H136 0.930 . S
C142 C143 1.355 . S
C142 C144 1.415 . S
C143 C142 1.355 . S
C143 C145 1.419 . S
C144 C142 1.415 . S
C144 C149 1.425 1_565 S
C144 C151 1.409 . S
C145 H137 0.930 1_556 S
C145 C143 1.419 . S
C145 C146 1.362 1_565 S
C146 H138 0.930 1_556 S
C146 C145 1.362 1_545 S
C146 C149 1.409 . S
C147 H139 0.930 . S
C147 C148 1.355 . S
C147 C149 1.415 . S
C148 C147 1.355 . S
C148 C150 1.419 . S
C149 C144 1.425 1_545 S
C149 C146 1.409 . S
C149 C147 1.415 . S
C150 H140 0.930 . S
C150 C148 1.419 . S
C150 C151 1.362 1_545 S
C151 H141 0.930 . S
C151 C144 1.409 . S
C151 C150 1.362 1_565 S
H152 C158 0.930 . S
H153 C161 0.930 . S
H154 C162 0.930 . S
H155 C163 0.930 . S
H156 C166 0.930 . S
H157 C167 0.930 . S
C158 H152 0.930 . S
C158 C159 1.355 . S
C158 C160 1.415 . S
C159 C158 1.355 . S
C159 C161 1.419 . S
C160 C158 1.415 . S
C160 C165 1.425 . S
C160 C167 1.409 . S
C161 H153 0.930 . S
C161 C159 1.419 . S
C161 C162 1.362 . S
C162 H154 0.930 . S
C162 C161 1.362 . S
C162 C165 1.409 . S
C163 H155 0.930 . S
C163 C164 1.355 . S
C163 C165 1.415 . S
C164 C163 1.355 . S
C164 C166 1.419 . S
C165 C160 1.425 . S
C165 C162 1.409 . S
C165 C163 1.415 . S
C166 H156 0.930 . S
C166 C164 1.419 . S
C166 C167 1.362 . S
C167 H157 0.930 . S
C167 C160 1.409 . S
C167 C166 1.362 . S
H168 C174 0.930 . S
H169 C177 0.930 . S
H170 C178 0.930 . S
H171 C179 0.930 . S
H172 C182 0.930 . S
H173 C183 0.930 . S
C174 H168 0.930 . S
C174 C175 1.355 . S
C174 C176 1.415 . S
C175 C174 1.355 . S
C175 C177 1.419 . S
C176 C174 1.415 . S
C176 C181 1.425 . S
C176 C183 1.409 . S
C177 H169 0.930 . S
C177 C175 1.419 . S
C177 C178 1.362 . S
C178 H170 0.930 . S
C178 C177 1.362 . S
C178 C181 1.409 . S
C179 H171 0.930 . S
C179 C180 1.355 . S
C179 C181 1.415 . S
C180 C179 1.355 . S
C180 C182 1.419 . S
C181 C176 1.425 . S
C181 C178 1.409 . S
C181 C179 1.415 . S
C182 H172 0.930 . S
C182 C180 1.419 . S
C182 C183 1.362 . S
C183 H173 0.930 . S
C183 C176 1.409 . S
C183 C182 1.362 . S
H184 C190 0.930 . S
H185 C193 0.930 . S
H186 C194 0.930 . S
H187 C195 0.930 . S
H188 C198 0.930 . S
H189 C199 0.930 . S
C190 H184 0.930 . S
C190 C191 1.355 . S
C190 C192 1.415 . S
C191 C190 1.355 . S
C191 C193 1.419 . S
C192 C190 1.415 . S
C192 C197 1.425 . S
C192 C199 1.409 . S
C193 H185 0.930 . S
C193 C191 1.419 . S
C193 C194 1.362 . S
C194 H186 0.930 . S
C194 C193 1.362 . S
C194 C197 1.409 . S
C195 H187 0.930 . S
C195 C196 1.355 . S
C195 C197 1.415 . S
C196 C195 1.355 . S
C196 C198 1.419 . S
C197 C192 1.425 . S
C197 C194 1.409 . S
C197 C195 1.415 . S
C198 H188 0.930 . S
C198 C196 1.419 . S
C198 C199 1.362 . S
C199 H189 0.930 . S
C199 C192 1.409 . S
C199 C198 1.362 . S
H200 C206 0.930 . S
H201 C209 0.930 . S
H202 C210 0.930 . S
H203 C211 0.930 . S
H204 C214 0.930 . S
H205 C215 0.930 . S
C206 H200 0.930 . S
C206 C207 1.355 . S
C206 C208 1.415 . S
C207 C206 1.355 . S
C207 C209 1.419 . S
C208 C206 1.415 . S
C208 C213 1.425 . S
C208 C215 1.409 . S
C209 H201 0.930 . S
C209 C207 1.419 . S
C209 C210 1.362 . S
C210 H202 0.930 . S
C210 C209 1.362 . S
C210 C213 1.409 . S
C211 H203 0.930 . S
C211 C212 1.355 . S
C211 C213 1.415 . S
C212 C211 1.355 . S
C212 C214 1.419 . S
C213 C208 1.425 . S
C213 C210 1.409 . S
C213 C211 1.415 . S
C214 H204 0.930 . S
C214 C212 1.419 . S
C214 C215 1.362 . S
C215 H205 0.930 . S
C215 C208 1.409 . S
C215 C214 1.362 . S
H216 C222 0.930 . S
H217 C225 0.930 . S
H218 C226 0.930 . S
H219 C227 0.930 . S
H220 C230 0.930 . S
H221 C231 0.930 . S
C222 H216 0.930 . S
C222 C223 1.355 . S
C222 C224 1.415 . S
C223 C222 1.355 . S
C223 C225 1.419 . S
C224 C222 1.415 . S
C224 C229 1.425 . S
C224 C231 1.409 . S
C225 H217 0.930 . S
C225 C223 1.419 . S
C225 C226 1.362 . S
C226 H218 0.930 . S
C226 C225 1.362 . S
C226 C229 1.409 . S
C227 H219 0.930 . S
C227 C228 1.355 . S
C227 C229 1.415 . S
C228 C227 1.355 . S
C228 C230 1.419 . S
C229 C224 1.425 . S
C229 C226 1.409 . S
C229 C227 1.415 . S
C230 H220 0.930 . S
C230 C228 1.419 . S
C230 C231 1.362 . S
C231 H221 0.930 . S
C231 C224 1.409 . S
C231 C230 1.362 . S
H232 C238 0.930 . S
H233 C241 0.930 . S
H234 C242 0.930 . S
H235 C243 0.930 . S
H236 C246 0.930 . S
H237 C247 0.930 . S
C238 H232 0.930 . S
C238 C239 1.355 1_556 S
C238 C240 1.415 . S
C239 C238 1.355 1_554 S
C239 C241 1.419 . S
C240 C238 1.415 . S
C240 C245 1.425 1_556 S
C240 C247 1.409 . S
C241 H233 0.930 . S
C241 C239 1.419 . S
C241 C242 1.362 . S
C242 H234 0.930 . S
C242 C241 1.362 . S
C242 C245 1.409 . S
C243 H235 0.930 . S
C243 C244 1.355 1_554 S
C243 C245 1.415 . S
C244 C243 1.355 1_556 S
C244 C246 1.419 . S
C245 C240 1.425 1_554 S
C245 C242 1.409 . S
C245 C243 1.415 . S
C246 H236 0.930 . S
C246 C244 1.419 . S
C246 C247 1.362 . S
C247 H237 0.930 . S
C247 C240 1.409 . S
C247 C246 1.362 . S
H248 C254 0.926 1_556 S
H249 C257 0.930 . S
H250 C258 0.930 . S
H251 C259 0.926 1_554 S
H252 C262 0.930 . S
H253 C263 0.930 . S
C254 H248 0.926 1_554 S
C254 C255 1.355 . S
C254 C256 1.415 1_554 S
C255 C254 1.355 . S
C255 C257 1.419 1_455 S
C256 C254 1.415 1_556 S
C256 C261 1.425 1_456 S
C256 C263 1.409 . S
C257 H249 0.930 . S
C257 C255 1.419 1_655 S
C257 C258 1.362 . S
C258 H250 0.930 . S
C258 C257 1.362 . S
C258 C261 1.409 . S
C259 H251 0.926 1_556 S
C259 C260 1.355 . S
C259 C261 1.415 1_556 S
C260 C259 1.355 . S
C260 C262 1.419 1_655 S
C261 C256 1.425 1_654 S
C261 C258 1.409 . S
C261 C259 1.415 1_554 S
C262 H252 0.930 . S
C262 C260 1.419 1_455 S
C262 C263 1.362 . S
C263 H253 0.930 . S
C263 C256 1.409 . S
C263 C262 1.362 . S
H264 C270 0.930 . S
H265 C273 0.930 . S
H266 C274 0.930 1_545 S
H267 C275 0.930 . S
H268 C278 0.930 . S
H269 C279 0.930 1_565 S
C270 H264 0.930 . S
C270 C271 1.355 . S
C270 C272 1.415 . S
C271 C270 1.355 . S
C271 C273 1.419 . S
C272 C270 1.415 . S
C272 C277 1.425 1_565 S
C272 C279 1.409 1_565 S
C273 H265 0.930 . S
C273 C271 1.419 . S
C273 C274 1.362 . S
C274 H266 0.930 1_565 S
C274 C273 1.362 . S
C274 C277 1.409 1_565 S
C275 H267 0.930 . S
C275 C276 1.355 . S
C275 C277 1.415 . S
C276 C275 1.355 . S
C276 C278 1.419 . S
C277 C272 1.425 1_545 S
C277 C274 1.409 1_545 S
C277 C275 1.415 . S
C278 H268 0.930 . S
C278 C276 1.419 . S
C278 C279 1.362 . S
C279 H269 0.930 1_545 S
C279 C272 1.409 1_545 S
C279 C278 1.362 . S
H280 C286 0.930 1_455 S
H281 C289 0.930 . S
H282 C290 0.931 1_565 S
H283 C291 0.930 1_655 S
H284 C294 0.930 . S
H285 C295 0.931 1_545 S
C286 H280 0.930 1_655 S
C286 C287 1.355 . S
C286 C288 1.415 1_655 S
C287 C286 1.355 . S
C287 C289 1.419 . S
C288 C286 1.415 1_455 S
C288 C293 1.425 1_445 S
C288 C295 1.409 1_545 S
C289 H281 0.930 . S
C289 C287 1.419 . S
C289 C290 1.362 . S
C290 H282 0.931 1_545 S
C290 C289 1.362 . S
C290 C293 1.409 1_545 S
C291 H283 0.930 1_455 S
C291 C292 1.355 . S
C291 C293 1.415 1_455 S
C292 C291 1.355 . S
C292 C294 1.419 . S
C293 C288 1.425 1_665 S
C293 C290 1.409 1_565 S
C293 C291 1.415 1_655 S
C294 H284 0.930 . S
C294 C292 1.419 . S
C294 C295 1.362 . S
C295 H285 0.931 1_565 S
C295 C288 1.409 1_565 S
C295 C294 1.362 . S
H296 C302 0.930 . S
H297 C305 0.930 . S
H298 C306 0.930 . S
H299 C307 0.930 . S
H300 C310 0.930 . S
H301 C311 0.930 . S
C302 H296 0.930 . S
C302 C303 1.355 . S
C302 C304 1.415 . S
C303 C302 1.355 . S
C303 C305 1.419 . S
C304 C302 1.415 . S
C304 C309 1.425 . S
C304 C311 1.409 . S
C305 H297 0.930 . S
C305 C303 1.419 . S
C305 C306 1.362 . S
C306 H298 0.930 . S
C306 C305 1.362 . S
C306 C309 1.409 . S
C307 H299 0.930 . S
C307 C308 1.355 . S
C307 C309 1.415 . S
C308 C307 1.355 . S
C308 C310 1.419 . S
C309 C304 1.425 . S
C309 C306 1.409 . S
C309 C307 1.415 . S
C310 H300 0.930 . S
C310 C308 1.419 . S
C310 C311 1.362 . S
C311 H301 0.930 . S
C311 C304 1.409 . S
C311 C310 1.362 . S
H312 C318 0.930 . S
H313 C321 0.930 . S
H314 C322 0.930 . S
H315 C323 0.930 . S
H316 C326 0.930 . S
H317 C327 0.930 . S
C318 H312 0.930 . S
C318 C319 1.355 . S
C318 C320 1.415 . S
C319 C318 1.355 . S
C319 C321 1.419 . S
C320 C318 1.415 . S
C320 C325 1.425 1_545 S
C320 C327 1.409 . S
C321 H313 0.930 . S
C321 C319 1.419 . S
C321 C322 1.362 1_545 S
C322 H314 0.930 . S
C322 C321 1.362 1_565 S
C322 C325 1.409 . S
C323 H315 0.930 . S
C323 C324 1.355 . S
C323 C325 1.415 . S
C324 C323 1.355 . S
C324 C326 1.419 . S
C325 C320 1.425 1_565 S
C325 C322 1.409 . S
C325 C323 1.415 . S
C326 H316 0.930 . S
C326 C324 1.419 . S
C326 C327 1.362 1_565 S
C327 H317 0.930 . S
C327 C320 1.409 . S
C327 C326 1.362 1_545 S
H328 C334 0.930 . S
H329 C337 0.933 . S
H330 C338 0.930 1_554 S
H331 C339 0.930 . S
H332 C342 0.930 . S
H333 C343 0.930 . S
C334 H328 0.930 . S
C334 C335 1.355 . S
C334 C336 1.415 . S
C335 C334 1.355 . S
C335 C337 1.419 . S
C336 C334 1.415 . S
C336 C341 1.425 . S
C336 C343 1.409 . S
C337 H329 0.933 . S
C337 C335 1.419 . S
C337 C338 1.362 . S
C338 H330 0.930 1_556 S
C338 C337 1.362 . S
C338 C341 1.409 . S
C339 H331 0.930 . S
C339 C340 1.355 . S
C339 C341 1.415 . S
C340 C339 1.355 . S
C340 C342 1.419 . S
C341 C336 1.425 . S
C341 C338 1.409 . S
C341 C339 1.415 . S
C342 H332 0.930 . S
C342 C340 1.419 . S
C342 C343 1.362 . S
C343 H333 0.930 . S
C343 C336 1.409 . S
C343 C342 1.362 . S
H344 C350 0.930 . S
H345 C353 0.930 . S
H346 C354 0.930 . S
H347 C355 0.930 . S
H348 C358 0.930 . S
H349 C359 0.930 . S
C350 H344 0.930 . S
C350 C351 1.355 . S
C350 C352 1.415 . S
C351 C350 1.355 . S
C351 C353 1.419 . S
C352 C350 1.415 . S
C352 C357 1.425 1_565 S
C352 C359 1.409 . S
C353 H345 0.930 . S
C353 C351 1.419 . S
C353 C354 1.362 1_565 S
C354 H346 0.930 . S
C354 C353 1.362 1_545 S
C354 C357 1.409 . S
C355 H347 0.930 . S
C355 C356 1.355 . S
C355 C357 1.415 . S
C356 C355 1.355 . S
C356 C358 1.419 . S
C357 C352 1.425 1_545 S
C357 C354 1.409 . S
C357 C355 1.415 . S
C358 H348 0.930 . S
C358 C356 1.419 . S
C358 C359 1.362 1_545 S
C359 H349 0.930 . S
C359 C352 1.409 . S
C359 C358 1.362 1_565 S
C111 C5 1.323 . S
C116 C18 1.337 . S
C127 C44 1.372 . S
C132 C31 1.419 . S
C143 C57 1.410 . S
C148 C70 1.323 . S
C159 C83 1.393 . S
C164 C96 1.408 . S
C175 C10 1.453 . S
C180 C36 1.500 . S
C191 C49 1.453 . S
C196 C23 1.486 . S
C207 C62 1.492 . S
C212 C88 1.511 . S
C223 C101 1.470 . S
C228 C75 1.515 . S
C239 C0 1.529 . S
C244 C52 1.529 . S
C255 C13 1.557 . S
C260 C65 1.557 . S
C271 C78 1.565 . S
C276 C26 1.565 . S
C287 C91 1.549 . S
C292 C39 1.549 . S
C303 C21 0.742 . S
C308 C8 0.735 . S
C319 C34 0.820 . S
C324 C47 0.806 . S
C335 C60 0.805 . S
C340 C73 0.788 . S
C351 C86 0.831 . S
C356 C99 0.833 . S
