# Generated by pormake.
# Topology uki, (4)-cn, num edge types: 1
# Building blocks:
#     Node 0, Type 0, BuildingBlock: CEKHIL_clean_sbu_0, # of connection points: 4
#     Node 1, Type 0, BuildingBlock: CEKHIL_clean_sbu_0, # of connection points: 4
#     Node 2, Type 0, BuildingBlock: CEKHIL_clean_sbu_0, # of connection points: 4
#     Node 3, Type 0, BuildingBlock: CEKHIL_clean_sbu_0, # of connection points: 4
#     Node 4, Type 0, BuildingBlock: CEKHIL_clean_sbu_0, # of connection points: 4
#     Node 5, Type 0, BuildingBlock: CEKHIL_clean_sbu_0, # of connection points: 4
#     Node 6, Type 0, BuildingBlock: CEKHIL_clean_sbu_0, # of connection points: 4
#     Node 7, Type 0, BuildingBlock: CEKHIL_clean_sbu_0, # of connection points: 4
#     Node 8, Type 0, BuildingBlock: CEKHIL_clean_sbu_0, # of connection points: 4
#     Node 9, Type 0, BuildingBlock: CEKHIL_clean_sbu_0, # of connection points: 4
#     Node 10, Type 0, BuildingBlock: CEKHIL_clean_sbu_0, # of connection points: 4
#     Node 11, Type 0, BuildingBlock: CEKHIL_clean_sbu_0, # of connection points: 4
#     Node 12, Type 0, BuildingBlock: CEKHIL_clean_sbu_0, # of connection points: 4
#     Node 13, Type 0, BuildingBlock: CEKHIL_clean_sbu_0, # of connection points: 4
#     Node 14, Type 0, BuildingBlock: CEKHIL_clean_sbu_0, # of connection points: 4
#     Node 15, Type 0, BuildingBlock: CEKHIL_clean_sbu_0, # of connection points: 4
#     Edge 16, Type (0, 0), BuildingBlock: EZIPEK_clean_linker_0, # of connection points: 2
#     Edge 17, Type (0, 0), BuildingBlock: EZIPEK_clean_linker_0, # of connection points: 2
#     Edge 18, Type (0, 0), BuildingBlock: EZIPEK_clean_linker_0, # of connection points: 2
#     Edge 19, Type (0, 0), BuildingBlock: EZIPEK_clean_linker_0, # of connection points: 2
#     Edge 20, Type (0, 0), BuildingBlock: EZIPEK_clean_linker_0, # of connection points: 2
#     Edge 21, Type (0, 0), BuildingBlock: EZIPEK_clean_linker_0, # of connection points: 2
#     Edge 22, Type (0, 0), BuildingBlock: EZIPEK_clean_linker_0, # of connection points: 2
#     Edge 23, Type (0, 0), BuildingBlock: EZIPEK_clean_linker_0, # of connection points: 2
#     Edge 24, Type (0, 0), BuildingBlock: EZIPEK_clean_linker_0, # of connection points: 2
#     Edge 25, Type (0, 0), BuildingBlock: EZIPEK_clean_linker_0, # of connection points: 2
#     Edge 26, Type (0, 0), BuildingBlock: EZIPEK_clean_linker_0, # of connection points: 2
#     Edge 27, Type (0, 0), BuildingBlock: EZIPEK_clean_linker_0, # of connection points: 2
#     Edge 28, Type (0, 0), BuildingBlock: EZIPEK_clean_linker_0, # of connection points: 2
#     Edge 29, Type (0, 0), BuildingBlock: EZIPEK_clean_linker_0, # of connection points: 2
#     Edge 30, Type (0, 0), BuildingBlock: EZIPEK_clean_linker_0, # of connection points: 2
#     Edge 31, Type (0, 0), BuildingBlock: EZIPEK_clean_linker_0, # of connection points: 2
#     Edge 32, Type (0, 0), BuildingBlock: EZIPEK_clean_linker_0, # of connection points: 2
#     Edge 33, Type (0, 0), BuildingBlock: EZIPEK_clean_linker_0, # of connection points: 2
#     Edge 34, Type (0, 0), BuildingBlock: EZIPEK_clean_linker_0, # of connection points: 2
#     Edge 35, Type (0, 0), BuildingBlock: EZIPEK_clean_linker_0, # of connection points: 2
#     Edge 36, Type (0, 0), BuildingBlock: EZIPEK_clean_linker_0, # of connection points: 2
#     Edge 37, Type (0, 0), BuildingBlock: EZIPEK_clean_linker_0, # of connection points: 2
#     Edge 38, Type (0, 0), BuildingBlock: EZIPEK_clean_linker_0, # of connection points: 2
#     Edge 39, Type (0, 0), BuildingBlock: EZIPEK_clean_linker_0, # of connection points: 2
#     Edge 40, Type (0, 0), BuildingBlock: EZIPEK_clean_linker_0, # of connection points: 2
#     Edge 41, Type (0, 0), BuildingBlock: EZIPEK_clean_linker_0, # of connection points: 2
#     Edge 42, Type (0, 0), BuildingBlock: EZIPEK_clean_linker_0, # of connection points: 2
#     Edge 43, Type (0, 0), BuildingBlock: EZIPEK_clean_linker_0, # of connection points: 2
#     Edge 44, Type (0, 0), BuildingBlock: EZIPEK_clean_linker_0, # of connection points: 2
#     Edge 45, Type (0, 0), BuildingBlock: EZIPEK_clean_linker_0, # of connection points: 2
#     Edge 46, Type (0, 0), BuildingBlock: EZIPEK_clean_linker_0, # of connection points: 2
#     Edge 47, Type (0, 0), BuildingBlock: EZIPEK_clean_linker_0, # of connection points: 2
# Relax obj value: 0.098
# Max RMSD: 0.194
# Mean RMSD: 0.194
data_MOF--net-uki--node1-CEKHIL_clean_sbu_0--edge1-EZIPEK_clean_linker_0
_symmetry_space_group_name_H-M    P1
_symmetry_Int_Tables_number       1
_symmetry_cell_setting            triclinic
loop_
_symmetry_equiv_pos_as_xyz
'x, y, z'
_cell_length_a     22.203709
_cell_length_b     22.169445
_cell_length_c     53.474051
_cell_angle_alpha  89.95895
_cell_angle_beta   90.005338
_cell_angle_gamma 89.982184
loop_
_atom_site_label
_atom_site_type_symbol
_atom_site_fract_x
_atom_site_fract_y
_atom_site_fract_z
_atom_type_partial_charge
Co0 Co 0.12309 0.21163 0.2984 0.0
O1 O 0.20211 0.19564 0.31212 0.0
O2 O 0.12 0.21093 0.33466 0.0
C3 C 0.15341 0.28301 0.27055 0.0
O4 O 0.03465 0.23069 0.29099 0.0
Co5 Co 0.09778 0.18478 0.24212 0.0
O6 O 0.01702 0.21721 0.24986 0.0
C7 C 0.07993 0.08976 0.28041 0.0
C8 C 0.17779 0.20111 0.33404 0.0
C9 C -0.00058 0.23085 0.27183 0.0
O10 O 0.10228 0.12332 0.29764 0.0
O11 O 0.07708 0.10492 0.25736 0.0
O12 O 0.14375 0.29619 0.29382 0.0
O13 O 0.15031 0.22622 0.26515 0.0
Co14 Co 0.21166 0.87131 0.71071 0.0
O15 O 0.18095 0.79388 0.7002 0.0
O16 O 0.20298 0.86907 0.67457 0.0
C17 C 0.2841 0.83469 0.73634 0.0
O18 O 0.24441 0.95638 0.71483 0.0
Co19 Co 0.19878 0.90402 0.76709 0.0
O20 O 0.23075 0.98284 0.75522 0.0
C21 C 0.09566 0.9167 0.73447 0.0
C22 C 0.18631 0.81318 0.67745 0.0
C23 C 0.24628 0.9949 0.7328 0.0
O24 O 0.12864 0.90654 0.71512 0.0
O25 O 0.11195 0.90268 0.75664 0.0
O26 O 0.29314 0.83861 0.71247 0.0
O27 O 0.22991 0.84614 0.74361 0.0
Co28 Co 0.8627 0.77231 0.29169 0.0
O29 O 0.7901 0.80624 0.3057 0.0
O30 O 0.86555 0.76902 0.32795 0.0
C31 C 0.81677 0.71142 0.26361 0.0
O32 O 0.9427 0.73209 0.28368 0.0
Co33 Co 0.89059 0.79945 0.23583 0.0
O34 O 0.9613 0.74756 0.24269 0.0
C35 C 0.926 0.88744 0.27402 0.0
C36 C 0.81146 0.79172 0.32741 0.0
C37 C 0.97556 0.72644 0.26404 0.0
O38 O 0.90546 0.85285 0.2914 0.0
O39 O 0.91862 0.87727 0.25068 0.0
O40 O 0.82243 0.69581 0.28679 0.0
O41 O 0.83164 0.76652 0.25853 0.0
Co42 Co 0.77598 0.12629 0.70418 0.0
O43 O 0.80511 0.2033 0.69242 0.0
O44 O 0.78541 0.12571 0.66786 0.0
C45 C 0.70099 0.16221 0.7286 0.0
O46 O 0.74269 0.04114 0.71131 0.0
Co47 Co 0.78974 0.1036 0.76206 0.0
O48 O 0.75144 0.02647 0.75311 0.0
C49 C 0.88904 0.07223 0.72778 0.0
C50 C 0.80105 0.18219 0.66996 0.0
C51 C 0.7355 0.00907 0.73139 0.0
O52 O 0.86058 0.09453 0.70895 0.0
O53 O 0.86982 0.07468 0.75029 0.0
O54 O 0.69427 0.15784 0.70467 0.0
O55 O 0.75554 0.15377 0.73633 0.0
Co56 Co 0.12935 0.27482 0.95366 0.0
O57 O 0.19617 0.30015 0.93336 0.0
O58 O 0.10853 0.26905 0.91836 0.0
C59 C 0.17974 0.2118 0.97947 0.0
O60 O 0.05216 0.24476 0.97041 0.0
Co61 Co 0.13662 0.31654 0.00949 0.0
O62 O 0.05932 0.27263 0.01091 0.0
C63 C 0.08569 0.39885 0.97204 0.0
C64 C 0.16323 0.28781 0.9141 0.0
C65 C 0.03134 0.24702 0.99297 0.0
O66 O 0.09538 0.3595 0.95484 0.0
O67 O 0.10227 0.39222 0.99478 0.0
O68 O 0.16429 0.19445 0.95727 0.0
O69 O 0.17385 0.26908 0.98353 0.0
Co70 Co 0.29071 0.88386 0.04989 0.0
O71 O 0.3178 0.80604 0.06195 0.0
O72 O 0.30343 0.88633 0.0857 0.0
C73 C 0.21379 0.84711 0.02634 0.0
O74 O 0.26096 0.97095 0.04456 0.0
Co75 Co 0.29095 0.91345 0.9925 0.0
O76 O 0.24696 0.98625 0.00322 0.0
C77 C 0.39827 0.94034 0.02434 0.0
C78 C 0.31572 0.82903 0.08423 0.0
C79 C 0.24457 0.00394 0.02585 0.0
O80 O 0.37556 0.91263 0.04329 0.0
O81 O 0.37199 0.94369 0.00305 0.0
O82 O 0.208 0.8538 0.0503 0.0
O83 O 0.26727 0.85685 0.01782 0.0
Co84 Co 0.88429 0.72909 0.95425 0.0
O85 O 0.81031 0.70236 0.93899 0.0
O86 O 0.88984 0.73515 0.91804 0.0
C87 C 0.84042 0.79016 0.98293 0.0
O88 O 0.96679 0.76308 0.96391 0.0
Co89 Co 0.90846 0.69507 0.00933 0.0
O90 O 0.98103 0.74519 0.00499 0.0
C91 C 0.93772 0.60762 0.96997 0.0
C92 C 0.83452 0.71571 0.91769 0.0
C93 C 0.99782 0.76728 0.98419 0.0
O94 O 0.9187 0.64456 0.95319 0.0
O95 O 0.93381 0.6177 0.99344 0.0
O96 O 0.84988 0.80798 0.96023 0.0
O97 O 0.85117 0.73363 0.98719 0.0
Co98 Co 0.71804 0.12062 0.04881 0.0
O99 O 0.69547 0.19377 0.06581 0.0
O100 O 0.70197 0.10433 0.08394 0.0
C101 C 0.80003 0.16381 0.03032 0.0
O102 O 0.74217 0.03616 0.03732 0.0
Co103 Co 0.72027 0.11746 0.99136 0.0
O104 O 0.75852 0.03783 0.99576 0.0
C105 C 0.60567 0.09424 0.01823 0.0
C106 C 0.69363 0.16228 0.08615 0.0
C107 C 0.75865 0.01084 0.01676 0.0
O108 O 0.63227 0.10228 0.03936 0.0
O109 O 0.63267 0.10165 0.99737 0.0
O110 O 0.80195 0.14072 0.05254 0.0
O111 O 0.74724 0.16236 0.02014 0.0
Co112 Co 0.62423 0.71772 0.79509 0.0
O113 O 0.70355 0.70198 0.80832 0.0
O114 O 0.62219 0.71802 0.83133 0.0
C115 C 0.65343 0.78863 0.76688 0.0
O116 O 0.53571 0.73644 0.78793 0.0
Co117 Co 0.59796 0.68902 0.73902 0.0
O118 O 0.51873 0.72502 0.74664 0.0
C119 C 0.58017 0.59548 0.77803 0.0
C120 C 0.67996 0.70818 0.83033 0.0
C121 C 0.50088 0.73782 0.76866 0.0
O122 O 0.60318 0.62954 0.79491 0.0
O123 O 0.57679 0.60978 0.75488 0.0
O124 O 0.64484 0.80198 0.7902 0.0
O125 O 0.65038 0.7317 0.76167 0.0
Co126 Co 0.71405 0.36367 0.21108 0.0
O127 O 0.6945 0.28557 0.19756 0.0
O128 O 0.71271 0.36686 0.17473 0.0
C129 C 0.78417 0.32907 0.23826 0.0
O130 O 0.73598 0.4514 0.21893 0.0
Co131 Co 0.68952 0.38761 0.26748 0.0
O132 O 0.72567 0.46711 0.2604 0.0
C133 C 0.59414 0.40995 0.22979 0.0
C134 C 0.70032 0.30945 0.17561 0.0
C135 C 0.7385 0.48546 0.23846 0.0
O136 O 0.62675 0.38755 0.21228 0.0
O137 O 0.60971 0.41097 0.25283 0.0
O138 O 0.79776 0.33962 0.21513 0.0
O139 O 0.72781 0.33417 0.24394 0.0
Co140 Co 0.36323 0.27523 0.78944 0.0
O141 O 0.28936 0.30923 0.80258 0.0
O142 O 0.36219 0.26952 0.82557 0.0
C143 C 0.32055 0.2169 0.75939 0.0
O144 O 0.44328 0.23398 0.78313 0.0
Co145 Co 0.39986 0.30399 0.73431 0.0
O146 O 0.47081 0.25426 0.74342 0.0
C147 C 0.42938 0.39085 0.7738 0.0
C148 C 0.30851 0.29284 0.82448 0.0
C149 C 0.48019 0.23051 0.76474 0.0
O150 O 0.40756 0.35537 0.79069 0.0
O151 O 0.42389 0.38164 0.75031 0.0
O152 O 0.32203 0.19957 0.78249 0.0
O153 O 0.33744 0.27186 0.75548 0.0
Co154 Co 0.27649 0.61735 0.2055 0.0
O155 O 0.3097 0.69186 0.19299 0.0
O156 O 0.28738 0.61339 0.16932 0.0
C157 C 0.20095 0.65718 0.22873 0.0
O158 O 0.24085 0.53451 0.21376 0.0
Co159 Co 0.28991 0.60178 0.2638 0.0
O160 O 0.24466 0.52717 0.25608 0.0
C161 C 0.38907 0.56517 0.23079 0.0
C162 C 0.30494 0.66942 0.17077 0.0
C163 C 0.23127 0.50618 0.23456 0.0
O164 O 0.35849 0.58098 0.21143 0.0
O165 O 0.37267 0.57602 0.2533 0.0
O166 O 0.19597 0.65219 0.20475 0.0
O167 O 0.25498 0.64802 0.23699 0.0
Co168 Co 0.62687 0.77925 0.4549 0.0
O169 O 0.69401 0.80496 0.43491 0.0
O170 O 0.60609 0.77638 0.41949 0.0
C171 C 0.68109 0.71339 0.47817 0.0
O172 O 0.54903 0.74689 0.47043 0.0
Co173 Co 0.62983 0.80953 0.51032 0.0
O174 O 0.55593 0.76072 0.51185 0.0
C175 C 0.58445 0.90024 0.47548 0.0
C176 C 0.66134 0.79381 0.4155 0.0
C177 C 0.52806 0.74086 0.49274 0.0
O178 O 0.59603 0.86447 0.45726 0.0
O179 O 0.59761 0.88846 0.4982 0.0
O180 O 0.65812 0.69927 0.45675 0.0
O181 O 0.67606 0.7698 0.48436 0.0
Co182 Co 0.79864 0.37986 0.54431 0.0
O183 O 0.81688 0.30646 0.56195 0.0
O184 O 0.80501 0.39512 0.58009 0.0
C185 C 0.72247 0.34268 0.5206 0.0
O186 O 0.77664 0.46349 0.53075 0.0
Co187 Co 0.82276 0.37513 0.48681 0.0
O188 O 0.80887 0.46273 0.491 0.0
C189 C 0.91569 0.42226 0.52106 0.0
C190 C 0.8136 0.33715 0.58244 0.0
C191 C 0.78486 0.48983 0.50947 0.0
O192 O 0.88711 0.40061 0.53998 0.0
O193 O 0.89783 0.41516 0.49853 0.0
O194 O 0.71323 0.35861 0.54358 0.0
O195 O 0.77849 0.34068 0.5141 0.0
Co196 Co 0.38458 0.2301 0.45742 0.0
O197 O 0.30942 0.19993 0.44411 0.0
O198 O 0.38719 0.22804 0.42106 0.0
C199 C 0.34386 0.29786 0.48435 0.0
O200 O 0.46736 0.26554 0.46445 0.0
Co201 Co 0.41172 0.20838 0.51371 0.0
O202 O 0.48526 0.25526 0.50577 0.0
C203 C 0.43768 0.11233 0.47788 0.0
C204 C 0.33171 0.20927 0.42206 0.0
C205 C 0.50043 0.27255 0.48396 0.0
O206 O 0.42101 0.14643 0.45962 0.0
O207 O 0.43109 0.12622 0.50091 0.0
O208 O 0.35025 0.31019 0.46084 0.0
O209 O 0.35466 0.24244 0.49045 0.0
Co210 Co 0.21589 0.62698 0.55118 0.0
O211 O 0.18754 0.69767 0.56846 0.0
O212 O 0.19674 0.60748 0.58573 0.0
C213 C 0.29791 0.67418 0.53423 0.0
O214 O 0.24554 0.54515 0.53884 0.0
Co215 Co 0.22258 0.63012 0.49311 0.0
O216 O 0.26756 0.55374 0.49779 0.0
C217 C 0.10793 0.59646 0.51832 0.0
C218 C 0.1853 0.66479 0.58843 0.0
C219 C 0.26626 0.52382 0.51815 0.0
O220 O 0.13253 0.60386 0.53991 0.0
O221 O 0.13523 0.60905 0.49791 0.0
O222 O 0.29833 0.65211 0.55663 0.0
O223 O 0.24595 0.67033 0.52347 0.0
C224 C 0.21958 0.33717 0.23896 0.0
C225 C 0.16411 0.33194 0.25199 0.0
C226 C 0.14667 0.43968 0.24783 0.0
C227 C 0.20209 0.44621 0.23494 0.0
N228 N 0.28405 0.39928 0.21263 0.0
N229 N 0.06522 0.37306 0.25806 0.0
C230 C 0.23566 0.39404 0.22822 0.0
C231 C 0.12433 0.38151 0.25252 0.0
N232 N 0.25859 0.2896 0.23838 0.0
N233 N 0.11753 0.48843 0.25765 0.0
H234 H 0.04814 0.33009 0.2606 0.0
H235 H 0.03296 0.40713 0.25674 0.0
H236 H 0.13458 0.5319 0.25661 0.0
H237 H 0.08 0.48476 0.26928 0.0
H238 H 0.30275 0.29292 0.23196 0.0
H239 H 0.2476 0.24725 0.2455 0.0
H240 H 0.3076 0.36236 0.2056 0.0
H241 H 0.29759 0.44049 0.2051 0.0
C242 C 0.39275 0.71795 0.75956 0.0
C243 C 0.4367 0.75549 0.77097 0.0
C244 C 0.3711 0.84296 0.76627 0.0
C245 C 0.32968 0.80673 0.75281 0.0
N246 N 0.29089 0.70797 0.74346 0.0
N247 N 0.45589 0.84571 0.79479 0.0
C248 C 0.33695 0.74334 0.75196 0.0
C249 C 0.42175 0.81532 0.77773 0.0
N250 N 0.40603 0.65882 0.7549 0.0
N251 N 0.36417 0.90405 0.76681 0.0
H252 H 0.49226 0.82594 0.80396 0.0
H253 H 0.4443 0.888 0.80177 0.0
H254 H 0.32704 0.92531 0.75895 0.0
H255 H 0.39687 0.93351 0.77358 0.0
H256 H 0.37945 0.63048 0.74401 0.0
H257 H 0.44551 0.63861 0.76135 0.0
H258 H 0.29138 0.66106 0.74405 0.0
H259 H 0.24964 0.72588 0.73776 0.0
C260 C 0.70839 0.59214 0.24616 0.0
C261 C 0.75096 0.5509 0.23594 0.0
C262 C 0.82155 0.6343 0.22997 0.0
C263 C 0.78609 0.66993 0.24611 0.0
N264 N 0.6918 0.68885 0.26637 0.0
N265 N 0.84798 0.5331 0.21684 0.0
C266 C 0.72743 0.65117 0.25259 0.0
C267 C 0.80708 0.57227 0.22683 0.0
N268 N 0.65028 0.57426 0.2501 0.0
N269 N 0.86863 0.66023 0.21773 0.0
H270 H 0.8391 0.48737 0.21429 0.0
H271 H 0.89198 0.54531 0.2124 0.0
H272 H 0.87567 0.70661 0.21868 0.0
H273 H 0.89487 0.63788 0.20452 0.0
H274 H 0.61575 0.60341 0.25531 0.0
H275 H 0.63546 0.53073 0.24622 0.0
H276 H 0.65146 0.67589 0.2747 0.0
H277 H 0.70424 0.73343 0.27002 0.0
C278 C 0.58902 0.22723 0.77538 0.0
C279 C 0.53671 0.19678 0.76732 0.0
C280 C 0.59445 0.13377 0.73931 0.0
C281 C 0.64745 0.16764 0.74518 0.0
N282 N 0.69771 0.23771 0.77312 0.0
N283 N 0.4936 0.10566 0.75212 0.0
C284 C 0.64594 0.21071 0.76502 0.0
C285 C 0.54114 0.14456 0.75287 0.0
N286 N 0.58313 0.27397 0.79182 0.0
N287 N 0.59402 0.09198 0.72051 0.0
H288 H 0.45412 0.11405 0.76219 0.0
H289 H 0.49614 0.06296 0.74406 0.0
H290 H 0.6327 0.07512 0.71211 0.0
H291 H 0.55445 0.07371 0.71327 0.0
H292 H 0.61771 0.30332 0.7967 0.0
H293 H 0.54184 0.2842 0.80015 0.0
H294 H 0.7 0.26539 0.78878 0.0
H295 H 0.73968 0.23038 0.76509 0.0
C296 C 0.2702 0.11247 0.02366 0.0
C297 C 0.22676 0.06775 0.02927 0.0
C298 C 0.15122 0.12175 0.00581 0.0
C299 C 0.19414 0.16684 0.99919 0.0
N300 N 0.29118 0.21248 0.00715 0.0
N301 N 0.12306 0.0517 0.03843 0.0
C302 C 0.25235 0.16538 0.01032 0.0
C303 C 0.16608 0.08029 0.02479 0.0
N304 N 0.32896 0.10174 0.02951 0.0
N305 N 0.09796 0.11542 0.99338 0.0
H306 H 0.13507 0.02536 0.05384 0.0
H307 H 0.0772 0.06078 0.03644 0.0
H308 H 0.08564 0.14162 0.97815 0.0
H309 H 0.0685 0.07976 0.99689 0.0
H310 H 0.36467 0.12849 0.02347 0.0
H311 H 0.34124 0.064 0.03998 0.0
H312 H 0.3323 0.21559 0.01643 0.0
H313 H 0.2804 0.25051 0.99659 0.0
C314 C 0.16217 0.78908 0.99163 0.0
C315 C 0.16079 0.83618 0.00979 0.0
C316 C 0.05393 0.85439 1.00023 0.0
C317 C 0.05403 0.8027 0.98504 0.0
N318 N 0.10883 0.73595 0.95848 0.0
N319 N 0.10572 0.91602 0.03047 0.0
C320 C 0.10868 0.77509 0.97812 0.0
C321 C 0.10695 0.87027 0.01346 0.0
N322 N 0.21253 0.75418 0.9889 0.0
N323 N 0.00258 0.88831 0.00155 0.0
H324 H 0.1444 0.93275 0.03882 0.0
H325 H 0.06644 0.9362 0.03697 0.0
H326 H 0.96411 0.87714 0.9913 0.0
H327 H -0.00065 0.9296 0.01068 0.0
H328 H 0.21402 0.71537 0.97799 0.0
H329 H 0.25205 0.76088 0.99898 0.0
H330 H 0.14758 0.71692 0.9509 0.0
H331 H 0.07003 0.72848 0.94797 0.0
C332 C 0.75059 0.8521 0.99315 0.0
C333 C 0.80804 0.83064 1.00041 0.0
C334 C 0.82504 0.92116 0.02554 0.0
C335 C 0.77043 0.94525 0.01619 0.0
N336 N 0.67217 0.92728 0.99869 0.0
N337 N 0.88629 0.83144 0.03124 0.0
C338 C 0.72995 0.90821 0.0026 0.0
C339 C 0.84078 0.86083 0.0193 0.0
N340 N 0.71742 0.81994 0.97627 0.0
N341 N 0.86313 0.95675 0.0391 0.0
H342 H 0.89417 0.78583 0.02803 0.0
H343 H 0.9103 0.84955 0.04618 0.0
H344 H 0.85207 0.00069 0.04436 0.0
H345 H 0.90662 0.94378 0.04403 0.0
H346 H 0.67868 0.83629 0.96764 0.0
H347 H 0.73022 0.77692 0.97036 0.0
H348 H 0.63894 0.90074 0.99049 0.0
H349 H 0.65609 0.96802 0.00582 0.0
C350 C 0.86249 0.20632 0.99301 0.0
C351 C 0.85547 0.19157 0.01893 0.0
C352 C 0.96395 0.19861 0.02428 0.0
C353 C 0.9715 0.22071 0.99959 0.0
N354 N 0.92222 0.26093 0.96263 0.0
N355 N 0.89963 0.2096 0.05976 0.0
C356 C 0.91938 0.22838 0.98432 0.0
C357 C 0.90614 0.19829 0.03479 0.0
N358 N 0.81582 0.20146 0.97656 0.0
N359 N 0.0117 0.17915 0.0382 0.0
H360 H 0.85823 0.22083 0.06773 0.0
H361 H 0.93639 0.21765 0.07146 0.0
H362 H 0.0554 0.17677 0.03126 0.0
H363 H 0.0061 0.15943 0.05579 0.0
H364 H 0.82224 0.20196 0.95724 0.0
H365 H 0.77111 0.19728 0.98175 0.0
H366 H 0.88407 0.27345 0.95252 0.0
H367 H 0.96121 0.28132 0.95598 0.0
C368 C 0.62486 0.88949 0.7514 0.0
C369 C 0.66118 0.8379 0.74818 0.0
C370 C 0.72758 0.89828 0.72132 0.0
C371 C 0.70125 0.95154 0.73119 0.0
N372 N 0.6266 0.99566 0.75892 0.0
N373 N 0.7472 0.79175 0.72827 0.0
C374 C 0.64947 0.9467 0.74669 0.0
C375 C 0.71194 0.84129 0.73207 0.0
N376 N 0.56738 0.88384 0.75986 0.0
N377 N 0.76806 0.90233 0.70226 0.0
H378 H 0.73623 0.74928 0.73524 0.0
H379 H 0.78862 0.79351 0.71916 0.0
H380 H 0.77759 0.94338 0.69366 0.0
H381 H 0.78624 0.86486 0.69326 0.0
H382 H 0.53717 0.91983 0.76071 0.0
H383 H 0.5486 0.84172 0.76289 0.0
H384 H 0.59278 0.9925 0.77239 0.0
H385 H 0.64528 0.03841 0.75767 0.0
C386 C 0.92299 0.31177 0.27908 0.0
C387 C 0.93575 0.25047 0.27403 0.0
C388 C 0.8346 0.23855 0.25622 0.0
C389 C 0.82922 0.30218 0.25532 0.0
N390 N 0.86875 0.40043 0.26549 0.0
N391 N 0.90204 0.15293 0.26006 0.0
C392 C 0.87296 0.33916 0.26708 0.0
C393 C 0.89029 0.21275 0.26382 0.0
N394 N 0.95892 0.34395 0.2949 0.0
N395 N 0.78727 0.20315 0.24906 0.0
H396 H 0.94174 0.13266 0.26622 0.0
H397 H 0.87411 0.12412 0.24999 0.0
H398 H 0.74639 0.22103 0.24295 0.0
H399 H 0.78652 0.15648 0.25119 0.0
H400 H 0.94893 0.38772 0.30065 0.0
H401 H 0.99521 0.32472 0.30433 0.0
H402 H 0.9031 0.42957 0.27098 0.0
H403 H 0.83241 0.42184 0.25704 0.0
C404 C 0.2179 0.10272 0.73164 0.0
C405 C 0.26251 0.05825 0.72764 0.0
C406 C 0.33834 0.13737 0.72743 0.0
C407 C 0.29726 0.17568 0.73989 0.0
N408 N 0.1949 0.1992 0.75066 0.0
N409 N 0.36561 0.03374 0.71812 0.0
C410 C 0.23562 0.16025 0.74046 0.0
C411 C 0.323 0.07575 0.72395 0.0
N412 N 0.15915 0.08956 0.72682 0.0
N413 N 0.39039 0.16073 0.71829 0.0
H414 H 0.35494 0.98853 0.71504 0.0
H415 H 0.4114 0.04356 0.71716 0.0
H416 H 0.39669 0.20723 0.71801 0.0
H417 H 0.4214 0.13589 0.70791 0.0
H418 H 0.12489 0.12162 0.72757 0.0
H419 H 0.14659 0.04794 0.71932 0.0
H420 H 0.15023 0.18756 0.75419 0.0
H421 H 0.20711 0.24261 0.7563 0.0
C422 C 0.03767 0.64272 0.2497 0.0
C423 C 0.03315 0.69357 0.26511 0.0
C424 C 0.14311 0.70465 0.26479 0.0
C425 C 0.14581 0.66279 0.24455 0.0
N426 N 0.0935 0.58958 0.21831 0.0
N427 N 0.07965 0.76958 0.29047 0.0
C428 C 0.09251 0.63087 0.23729 0.0
C429 C 0.08555 0.72257 0.27415 0.0
N430 N 0.98877 0.60589 0.24703 0.0
N431 N 0.19467 0.7289 0.27444 0.0
H432 H 0.03827 0.78125 0.29834 0.0
H433 H 0.11462 0.79835 0.29549 0.0
H434 H 0.23739 0.72028 0.26738 0.0
H435 H 0.1958 0.75481 0.29065 0.0
H436 H 0.99023 0.56439 0.23792 0.0
H437 H 0.9484 0.61429 0.25645 0.0
H438 H 0.05465 0.57347 0.20966 0.0
H439 H 0.13274 0.57075 0.21118 0.0
C440 C 0.74838 0.59656 0.52295 0.0
C441 C 0.76213 0.55251 0.50419 0.0
C442 C 0.75318 0.63158 0.47298 0.0
C443 C 0.72298 0.6694 0.4899 0.0
N444 N 0.68938 0.6862 0.53224 0.0
N445 N 0.74607 0.52958 0.45995 0.0
C446 C 0.72012 0.65188 0.51543 0.0
C447 C 0.75637 0.57024 0.47866 0.0
N448 N 0.76322 0.58751 0.54741 0.0
N449 N 0.77295 0.65276 0.45049 0.0
H450 H 0.73347 0.48502 0.4634 0.0
H451 H 0.73964 0.543 0.44142 0.0
H452 H 0.77128 0.69861 0.44599 0.0
H453 H 0.79605 0.62531 0.43785 0.0
H454 H 0.75756 0.62071 0.56101 0.0
H455 H 0.78738 0.55035 0.5537 0.0
H456 H 0.68027 0.67171 0.5504 0.0
H457 H 0.6706 0.72764 0.52749 0.0
C458 C 0.66559 0.27969 0.48892 0.0
C459 C 0.67101 0.33363 0.50316 0.0
C460 C 0.56559 0.35897 0.49412 0.0
C461 C 0.55925 0.30278 0.48213 0.0
N462 N 0.60511 0.22142 0.45967 0.0
N463 N 0.63189 0.43323 0.51218 0.0
C464 C 0.61032 0.26747 0.47645 0.0
C465 C 0.62287 0.37626 0.5033 0.0
N466 N 0.71072 0.23777 0.48902 0.0
N467 N 0.51569 0.3939 0.49797 0.0
H468 H 0.6728 0.44739 0.51938 0.0
H469 H 0.60064 0.468 0.51044 0.0
H470 H 0.47411 0.38355 0.4899 0.0
H471 H 0.51476 0.43136 0.5097 0.0
H472 H 0.706 0.19467 0.48154 0.0
H473 H 0.75174 0.24417 0.49805 0.0
H474 H 0.64161 0.19648 0.45313 0.0
H475 H 0.56451 0.21212 0.45062 0.0
C476 C 0.23949 0.42299 0.50099 0.0
C477 C 0.27856 0.45841 0.51609 0.0
C478 C 0.3481 0.3732 0.51956 0.0
C479 C 0.31449 0.34252 0.50101 0.0
N480 N 0.2198 0.32695 0.48058 0.0
N481 N 0.36922 0.46826 0.54043 0.0
C482 C 0.25726 0.36404 0.49382 0.0
C483 C 0.33211 0.43338 0.52607 0.0
N484 N 0.18692 0.44734 0.49242 0.0
N485 N 0.3937 0.34384 0.53144 0.0
H486 H 0.35793 0.51201 0.54588 0.0
H487 H 0.41234 0.45526 0.54584 0.0
H488 H 0.4008 0.29808 0.52862 0.0
H489 H 0.41855 0.36196 0.54612 0.0
H490 H 0.16139 0.42876 0.47808 0.0
H491 H 0.17012 0.48811 0.4991 0.0
H492 H 0.17546 0.33732 0.47601 0.0
H493 H 0.23195 0.28284 0.47594 0.0
C494 C 0.41516 0.72547 0.48465 0.0
C495 C 0.4689 0.71085 0.49789 0.0
C496 C 0.41025 0.68677 0.53481 0.0
C497 C 0.35521 0.69456 0.52164 0.0
N498 N 0.30623 0.72427 0.48286 0.0
N499 N 0.51259 0.6524 0.53125 0.0
C500 C 0.3578 0.71412 0.4961 0.0
C501 C 0.46421 0.68182 0.52128 0.0
N502 N 0.41827 0.75261 0.46176 0.0
N503 N 0.41284 0.69064 0.56028 0.0
H504 H 0.55279 0.64711 0.52132 0.0
H505 H 0.50985 0.62822 0.54796 0.0
H506 H 0.37748 0.70771 0.57096 0.0
H507 H 0.45332 0.68777 0.57012 0.0
H508 H 0.38178 0.77361 0.45316 0.0
H509 H 0.45745 0.75469 0.45119 0.0
H510 H 0.30504 0.72607 0.4634 0.0
H511 H 0.26489 0.73313 0.49119 0.0
C512 C 0.29689 0.15729 0.3826 0.0
C513 C 0.29256 0.20647 0.39946 0.0
C514 C 0.21543 0.2533 0.37275 0.0
C515 C 0.21572 0.2017 0.35705 0.0
N516 N 0.25003 0.10039 0.34897 0.0
N517 N 0.24072 0.29675 0.41283 0.0
C518 C 0.25486 0.15256 0.36244 0.0
C519 C 0.24949 0.25288 0.39526 0.0
N520 N 0.34122 0.11521 0.38582 0.0
N521 N 0.18573 0.30445 0.36543 0.0
H522 H 0.26664 0.30045 0.42896 0.0
H523 H 0.20472 0.32688 0.41233 0.0
H524 H 0.16172 0.30785 0.34875 0.0
H525 H 0.18981 0.34564 0.37464 0.0
H526 H 0.35112 0.08186 0.37276 0.0
H527 H 0.37105 0.11611 0.4009 0.0
H528 H 0.27287 0.06083 0.35345 0.0
H529 H 0.21894 0.09488 0.33453 0.0
C530 C 0.13128 0.73444 0.61795 0.0
C531 C 0.18013 0.69458 0.6133 0.0
C532 C 0.22658 0.72518 0.65301 0.0
C533 C 0.18198 0.77072 0.65596 0.0
N534 N 0.09305 0.82114 0.64086 0.0
N535 N 0.27999 0.65994 0.62445 0.0
C536 C 0.13457 0.77603 0.6383 0.0
C537 C 0.22891 0.69132 0.63047 0.0
N538 N 0.0811 0.73131 0.60321 0.0
N539 N 0.2676 0.71448 0.67157 0.0
H540 H 0.28508 0.63504 0.60811 0.0
H541 H 0.31986 0.66293 0.63464 0.0
H542 H 0.27098 0.74041 0.6877 0.0
H543 H 0.29558 0.67674 0.67183 0.0
H544 H 0.04157 0.75503 0.60678 0.0
H545 H 0.07712 0.70047 0.58858 0.0
H546 H 0.0613 0.83188 0.62724 0.0
H547 H 0.09247 0.85035 0.65615 0.0
C548 C 0.70587 0.84778 0.37881 0.0
C549 C 0.69042 0.79261 0.39057 0.0
C550 C 0.75116 0.73686 0.35996 0.0
C551 C 0.7717 0.79243 0.34978 0.0
N552 N 0.77254 0.90102 0.35025 0.0
N553 N 0.70148 0.68473 0.394 0.0
C554 C 0.74968 0.84805 0.35927 0.0
C555 C 0.71353 0.73714 0.38146 0.0
N556 N 0.67788 0.89969 0.38624 0.0
N557 N 0.76566 0.68365 0.34851 0.0
H558 H 0.67083 0.68215 0.40871 0.0
H559 H 0.72414 0.64437 0.39074 0.0
H560 H 0.79424 0.68083 0.33313 0.0
H561 H 0.74588 0.64249 0.35304 0.0
H562 H 0.68268 0.94096 0.37718 0.0
H563 H 0.64555 0.90033 0.40042 0.0
H564 H 0.76302 0.94316 0.35783 0.0
H565 H 0.80493 0.90254 0.33615 0.0
C566 C 0.85552 0.2197 0.63151 0.0
C567 C 0.80589 0.22388 0.64809 0.0
C568 C 0.76498 0.30938 0.62369 0.0
C569 C 0.8145 0.30459 0.60692 0.0
N570 N 0.91321 0.26541 0.59783 0.0
N571 N 0.71193 0.27039 0.66003 0.0
C572 C 0.86147 0.26242 0.61167 0.0
C573 C 0.76084 0.26896 0.64445 0.0
N574 N 0.89643 0.17414 0.63451 0.0
N575 N 0.72133 0.3519 0.61955 0.0
H576 H 0.70688 0.24175 0.67525 0.0
H577 H 0.67439 0.29776 0.65771 0.0
H578 H 0.71848 0.37784 0.60339 0.0
H579 H 0.68801 0.3636 0.63228 0.0
H580 H 0.92977 0.16381 0.62153 0.0
H581 H 0.89487 0.14381 0.64942 0.0
H582 H 0.95163 0.24008 0.60153 0.0
H583 H 0.91997 0.29773 0.58391 0.0
C584 C 0.21416 0.234 0.87887 0.0
C585 C 0.19088 0.28846 0.88884 0.0
C586 C 0.24482 0.34663 0.85669 0.0
C587 C 0.26733 0.29196 0.84646 0.0
N588 N 0.26255 0.18322 0.84423 0.0
N589 N 0.1745 0.39524 0.88525 0.0
C590 C 0.24884 0.23553 0.85653 0.0
C591 C 0.20325 0.34443 0.87705 0.0
N592 N 0.2053 0.18087 0.89136 0.0
N593 N 0.26519 0.40054 0.84761 0.0
H594 H 0.14369 0.39447 0.89999 0.0
H595 H 0.17701 0.43685 0.8763 0.0
H596 H 0.29544 0.40358 0.83275 0.0
H597 H 0.2556 0.44206 0.85575 0.0
H598 H 0.22816 0.14115 0.88713 0.0
H599 H 0.1776 0.17712 0.90702 0.0
H600 H 0.24434 0.14144 0.84892 0.0
H601 H 0.28812 0.18191 0.82793 0.0
C602 C 0.26525 0.75613 0.1453 0.0
C603 C 0.30898 0.70978 0.14848 0.0
C604 C 0.36241 0.74706 0.11115 0.0
C605 C 0.31528 0.78927 0.10678 0.0
N606 N 0.2138 0.8217 0.11637 0.0
N607 N 0.39656 0.65726 0.1333 0.0
C608 C 0.26469 0.7907 0.12299 0.0
C609 C 0.35666 0.70386 0.13095 0.0
N610 N 0.22378 0.76779 0.16356 0.0
N611 N 0.41364 0.74989 0.09704 0.0
H612 H 0.39517 0.62678 0.14816 0.0
H613 H 0.42856 0.6465 0.1198 0.0
H614 H 0.41963 0.7816 0.08283 0.0
H615 H 0.45208 0.7245 0.1007 0.0
H616 H 0.19682 0.80629 0.16359 0.0
H617 H 0.21921 0.74221 0.1797 0.0
H618 H 0.17321 0.81805 0.12603 0.0
H619 H 0.20934 0.84573 0.09975 0.0
C620 C 0.79986 0.66449 0.87829 0.0
C621 C 0.79755 0.71486 0.89458 0.0
C622 C 0.72082 0.76223 0.86794 0.0
C623 C 0.71877 0.70939 0.85298 0.0
N624 N 0.75005 0.60674 0.8457 0.0
N625 N 0.75017 0.8081 0.90712 0.0
C626 C 0.75686 0.65959 0.85856 0.0
C627 C 0.75623 0.76257 0.89008 0.0
N628 N 0.84331 0.62155 0.88165 0.0
N629 N 0.69175 0.81345 0.8603 0.0
H630 H 0.77747 0.81216 0.92286 0.0
H631 H 0.71539 0.83961 0.90656 0.0
H632 H 0.66636 0.81597 0.84394 0.0
H633 H 0.69739 0.85522 0.86888 0.0
H634 H 0.85157 0.58691 0.86897 0.0
H635 H 0.87438 0.62317 0.89628 0.0
H636 H 0.77206 0.56687 0.85043 0.0
H637 H 0.71822 0.60116 0.83154 0.0
C638 C 0.64307 0.23318 0.11613 0.0
C639 C 0.69177 0.19375 0.11071 0.0
C640 C 0.7436 0.2273 0.14885 0.0
C641 C 0.6977 0.27091 0.15291 0.0
N642 N 0.60585 0.31922 0.13972 0.0
N643 N 0.79333 0.16066 0.1196 0.0
C644 C 0.64805 0.27507 0.13629 0.0
C645 C 0.7431 0.19222 0.12659 0.0
N646 N 0.59129 0.22906 0.10241 0.0
N647 N 0.78816 0.21943 0.16622 0.0
H648 H 0.79564 0.13414 0.10358 0.0
H649 H 0.83474 0.16454 0.1286 0.0
H650 H 0.79353 0.24712 0.18179 0.0
H651 H 0.81778 0.18299 0.16603 0.0
H652 H 0.55183 0.25222 0.10666 0.0
H653 H 0.58611 0.19805 0.08792 0.0
H654 H 0.57215 0.3291 0.12682 0.0
H655 H 0.6067 0.34888 0.15485 0.0
C656 C 0.02998 0.9313 0.2719 0.0
C657 C 0.96954 0.93551 0.28088 0.0
C658 C 0.99129 0.03523 0.29854 0.0
C659 C 0.0493 0.03293 0.28727 0.0
N660 N 0.13065 0.97458 0.27083 0.0
N661 N 0.89559 0.98528 0.30659 0.0
C662 C 0.07076 0.97926 0.27645 0.0
C663 C 0.95141 0.98522 0.29579 0.0
N664 N 0.04794 0.88218 0.25837 0.0
N665 N 0.97324 0.08668 0.31048 0.0
H666 H 0.86364 0.95186 0.30323 0.0
H667 H 0.88126 0.0168 0.31969 0.0
H668 H 0.00209 0.12273 0.31392 0.0
H669 H 0.92952 0.09495 0.31652 0.0
H670 H 0.08827 0.87977 0.24852 0.0
H671 H 0.02163 0.84377 0.25625 0.0
H672 H 0.15139 0.93502 0.26488 0.0
H673 H 0.16093 0.00952 0.27449 0.0
C674 C 0.99499 0.05559 0.73964 0.0
C675 C 0.94654 0.03942 0.72404 0.0
C676 C 0.99829 0.9448 0.71302 0.0
C677 C 0.04272 0.95738 0.73145 0.0
N678 N 0.08078 0.02499 0.76382 0.0
N679 N 0.90096 0.96937 0.69515 0.0
C680 C 0.04019 0.01262 0.74527 0.0
C681 C 0.94837 0.98476 0.71012 0.0
N682 N -0.00135 0.11348 0.74838 0.0
N683 N 0.00317 0.89407 0.69861 0.0
H684 H 0.86587 0.99875 0.691 0.0
H685 H 0.89518 0.92686 0.68729 0.0
H686 H 0.03438 0.85996 0.70213 0.0
H687 H 0.97783 0.88648 0.68255 0.0
H688 H 0.03588 0.13067 0.75783 0.0
H689 H 0.96689 0.1464 0.74374 0.0
H690 H 0.07417 0.05883 0.77704 0.0
H691 H 0.12059 0.00155 0.76671 0.0
C692 C 0.06313 0.49949 0.95221 0.0
C693 C 0.04379 0.44922 0.96645 0.0
C694 C 0.94472 0.49644 0.97227 0.0
C695 C 0.96797 0.55073 0.96253 0.0
N696 N 0.04667 0.60417 0.94076 0.0
N697 N 0.96522 0.39787 0.98946 0.0
C698 C 0.026 0.55199 0.95124 0.0
C699 C 0.98396 0.44682 0.97603 0.0
N700 N 0.11706 0.49713 0.93992 0.0
N701 N 0.88467 0.49269 0.97769 0.0
H702 H 0.99137 0.35944 0.99166 0.0
H703 H 0.92515 0.39635 0.99954 0.0
H704 H 0.85522 0.52868 0.9746 0.0
H705 H 0.86301 0.45287 0.98274 0.0
H706 H 0.13153 0.52964 0.92723 0.0
H707 H 0.14604 0.46019 0.94114 0.0
H708 H 0.09108 0.61106 0.93526 0.0
H709 H 0.01919 0.64156 0.93794 0.0
C710 C 0.4651 0.01988 0.04469 0.0
C711 C 0.45632 0.97389 0.02635 0.0
C712 C 0.53113 0.02146 0.99935 0.0
C713 C 0.54522 0.06382 0.01836 0.0
N714 N 0.51253 0.11586 0.05522 0.0
N715 N 0.49552 0.92098 0.99062 0.0
C716 C 0.50873 0.06619 0.04016 0.0
C717 C 0.49448 0.9715 0.00522 0.0
N718 N 0.43276 0.01912 0.06645 0.0
N719 N 0.54754 0.03135 0.97507 0.0
H720 H 0.4704 0.88258 0.99501 0.0
H721 H 0.52624 0.91505 0.97607 0.0
H722 H 0.5633 0.07287 0.96875 0.0
H723 H 0.535 0.00277 0.9605 0.0
H724 H 0.44048 0.04794 0.08143 0.0
H725 H 0.40024 0.98708 0.07066 0.0
H726 H 0.48569 0.12372 0.0708 0.0
H727 H 0.53889 0.15307 0.05041 0.0
C728 C 0.53327 0.43517 0.77237 0.0
C729 C 0.47264 0.43885 0.7812 0.0
C730 C 0.49167 0.54122 0.79657 0.0
C731 C 0.54994 0.5389 0.78552 0.0
N732 N 0.63303 0.48026 0.7708 0.0
N733 N 0.398 0.48918 0.80633 0.0
C734 C 0.57291 0.48444 0.77606 0.0
C735 C 0.45335 0.48966 0.79515 0.0
N736 N 0.55235 0.3854 0.75958 0.0
N737 N 0.47188 0.59387 0.80702 0.0
H738 H 0.36767 0.45368 0.80433 0.0
H739 H 0.38304 0.52208 0.81872 0.0
H740 H 0.49966 0.63123 0.80949 0.0
H741 H 0.42771 0.60172 0.81261 0.0
H742 H 0.5927 0.38311 0.74973 0.0
H743 H 0.52673 0.34644 0.75806 0.0
H744 H 0.65466 0.44029 0.76596 0.0
H745 H 0.66253 0.51626 0.77373 0.0
C746 C 0.54097 0.49945 0.21122 0.0
C747 C 0.53796 0.44223 0.22329 0.0
C748 C 0.4355 0.46306 0.23735 0.0
C749 C 0.43982 0.52243 0.22707 0.0
N750 N 0.49084 0.59339 0.20024 0.0
N751 N 0.47874 0.36257 0.24079 0.0
C752 C 0.49053 0.53917 0.21248 0.0
C753 C 0.48387 0.42196 0.23416 0.0
N754 N 0.5933 0.51721 0.19991 0.0
N755 N 0.38541 0.44603 0.25044 0.0
H756 H 0.51367 0.33171 0.23806 0.0
H757 H 0.43886 0.34242 0.24666 0.0
H758 H 0.34627 0.47159 0.2512 0.0
H759 H 0.38282 0.40715 0.26129 0.0
H760 H 0.6018 0.56086 0.19372 0.0
H761 H 0.63013 0.48877 0.19754 0.0
H762 H 0.52274 0.60561 0.18693 0.0
H763 H 0.45725 0.6258 0.20245 0.0
C764 C 0.45409 0.0071 0.46165 0.0
C765 C 0.47746 0.06024 0.47259 0.0
C766 C 0.57644 0.01189 0.47711 0.0
C767 C 0.55027 0.95621 0.47046 0.0
N768 N 0.46322 0.89876 0.45745 0.0
N769 N 0.56102 0.11377 0.49145 0.0
C770 C 0.4891 0.95332 0.46251 0.0
C771 C 0.53887 0.06295 0.48032 0.0
N772 N 0.39826 0.00776 0.4509 0.0
N773 N 0.63753 0.01598 0.4799 0.0
H774 H 0.53669 0.15368 0.49282 0.0
H775 H 0.6025 0.11561 0.50051 0.0
H776 H 0.66613 0.97912 0.47732 0.0
H777 H 0.66033 0.05663 0.48224 0.0
H778 H 0.38128 0.97225 0.44029 0.0
H779 H 0.37067 0.04584 0.45087 0.0
H780 H 0.41722 0.89285 0.4546 0.0
H781 H 0.48708 0.85838 0.45774 0.0
C782 C 0.96416 0.51642 0.53978 0.0
C783 C 0.96803 0.4638 0.52437 0.0
C784 C 0.04496 0.5138 0.49929 0.0
C785 C 0.05044 0.56076 0.51722 0.0
N786 N 0.01113 0.60913 0.55409 0.0
N787 N 0.02476 0.40772 0.49386 0.0
C788 C 0.00901 0.56239 0.53749 0.0
C789 C 0.01331 0.46089 0.50583 0.0
N790 N 0.91615 0.52497 0.55537 0.0
N791 N 0.06586 0.52056 0.47545 0.0
H792 H 0.00368 0.36746 0.49899 0.0
H793 H 0.05923 0.40277 0.4808 0.0
H794 H 0.07981 0.56183 0.46822 0.0
H795 H 0.05954 0.48781 0.4617 0.0
H796 H 0.90713 0.56582 0.56422 0.0
H797 H 0.88282 0.4931 0.55855 0.0
H798 H 0.98895 0.6087 0.57126 0.0
H799 H 0.03611 0.64813 0.55066 0.0
loop_
_geom_bond_atom_site_label_1
_geom_bond_atom_site_label_2
_geom_bond_distance
_geom_bond_site_symmetry_2
_ccdc_geom_bond_type
Co0 O1 2.216 . S
Co0 O2 2.091 . S
Co0 O4 2.004 . S
Co0 O10 2.021 . S
Co0 O12 2.137 . S
Co0 O13 2.244 . S
O1 Co0 2.216 . S
O1 C8 1.247 . S
O2 Co0 2.091 . S
O2 C8 1.261 . S
C3 O12 1.247 . S
C3 O13 1.272 . S
O4 Co0 2.004 . S
O4 C9 1.259 1_455 S
Co5 O6 2.075 . S
Co5 O11 2.052 . S
Co5 O13 2.135 . S
O6 Co5 2.075 . S
O6 C9 1.230 1_455 S
C7 O10 1.238 . S
C7 O11 1.241 . S
C8 O1 1.247 . S
C8 O2 1.261 . S
C9 O4 1.259 1_655 S
C9 O6 1.230 1_655 S
O10 Co0 2.021 . S
O10 C7 1.238 . S
O11 Co5 2.052 . S
O11 C7 1.241 . S
O12 Co0 2.137 . S
O12 C3 1.247 . S
O13 Co0 2.244 . S
O13 C3 1.272 . S
O13 Co5 2.135 . S
Co14 O15 2.216 . S
Co14 O16 2.091 . S
Co14 O18 2.004 . S
Co14 O24 2.021 . S
Co14 O26 2.137 . S
Co14 O27 2.244 . S
O15 Co14 2.216 . S
O15 C22 1.247 . S
O16 Co14 2.091 . S
O16 C22 1.261 . S
C17 O26 1.247 . S
C17 O27 1.272 . S
O18 Co14 2.004 . S
O18 C23 1.259 1_565 S
Co19 O20 2.075 . S
Co19 O25 2.052 . S
Co19 O27 2.135 . S
O20 Co19 2.075 . S
O20 C23 1.230 1_565 S
C21 O24 1.238 . S
C21 O25 1.241 . S
C22 O15 1.247 . S
C22 O16 1.261 . S
C23 O18 1.259 1_545 S
C23 O20 1.230 1_545 S
O24 Co14 2.021 . S
O24 C21 1.238 . S
O25 Co19 2.052 . S
O25 C21 1.241 . S
O26 Co14 2.137 . S
O26 C17 1.247 . S
O27 Co14 2.244 . S
O27 C17 1.272 . S
O27 Co19 2.135 . S
Co28 O29 2.216 . S
Co28 O30 2.091 . S
Co28 O32 2.004 . S
Co28 O38 2.021 . S
Co28 O40 2.137 . S
Co28 O41 2.244 . S
O29 Co28 2.216 . S
O29 C36 1.247 . S
O30 Co28 2.091 . S
O30 C36 1.261 . S
C31 O40 1.247 . S
C31 O41 1.272 . S
O32 Co28 2.004 . S
O32 C37 1.259 1_655 S
Co33 O34 2.075 . S
Co33 O39 2.052 . S
Co33 O41 2.135 . S
O34 Co33 2.075 . S
O34 C37 1.230 1_655 S
C35 O38 1.238 . S
C35 O39 1.241 . S
C36 O29 1.247 . S
C36 O30 1.261 . S
C37 O32 1.259 1_455 S
C37 O34 1.230 1_455 S
O38 Co28 2.021 . S
O38 C35 1.238 . S
O39 Co33 2.052 . S
O39 C35 1.241 . S
O40 Co28 2.137 . S
O40 C31 1.247 . S
O41 Co28 2.244 . S
O41 C31 1.272 . S
O41 Co33 2.135 . S
Co42 O43 2.216 . S
Co42 O44 2.091 . S
Co42 O46 2.004 . S
Co42 O52 2.021 . S
Co42 O54 2.137 . S
Co42 O55 2.244 . S
O43 Co42 2.216 . S
O43 C50 1.247 . S
O44 Co42 2.091 . S
O44 C50 1.261 . S
C45 O54 1.247 . S
C45 O55 1.272 . S
O46 Co42 2.004 . S
O46 C51 1.259 1_545 S
Co47 O48 2.075 . S
Co47 O53 2.052 . S
Co47 O55 2.135 . S
O48 Co47 2.075 . S
O48 C51 1.230 1_545 S
C49 O52 1.238 . S
C49 O53 1.241 . S
C50 O43 1.247 . S
C50 O44 1.261 . S
C51 O46 1.259 1_565 S
C51 O48 1.230 1_565 S
O52 Co42 2.021 . S
O52 C49 1.238 . S
O53 Co47 2.052 . S
O53 C49 1.241 . S
O54 Co42 2.137 . S
O54 C45 1.247 . S
O55 Co42 2.244 . S
O55 C45 1.272 . S
O55 Co47 2.135 . S
Co56 O57 2.216 . S
Co56 O58 2.091 . S
Co56 O60 2.004 . S
Co56 O66 2.021 . S
Co56 O68 2.137 . S
Co56 O69 2.244 . S
O57 Co56 2.216 . S
O57 C64 1.247 . S
O58 Co56 2.091 . S
O58 C64 1.261 . S
C59 O68 1.247 . S
C59 O69 1.272 . S
O60 Co56 2.004 . S
O60 C65 1.259 1_455 S
Co61 O62 2.075 1_554 S
Co61 O67 2.052 1_554 S
Co61 O69 2.135 1_554 S
O62 Co61 2.075 1_556 S
O62 C65 1.230 1_455 S
C63 O66 1.238 . S
C63 O67 1.241 . S
C64 O57 1.247 . S
C64 O58 1.261 . S
C65 O60 1.259 1_655 S
C65 O62 1.230 1_655 S
O66 Co56 2.021 . S
O66 C63 1.238 . S
O67 Co61 2.052 1_556 S
O67 C63 1.241 . S
O68 Co56 2.137 . S
O68 C59 1.247 . S
O69 Co56 2.244 . S
O69 C59 1.272 . S
O69 Co61 2.135 1_556 S
Co70 O71 2.216 . S
Co70 O72 2.091 . S
Co70 O74 2.004 . S
Co70 O80 2.021 . S
Co70 O82 2.137 . S
Co70 O83 2.244 . S
O71 Co70 2.216 . S
O71 C78 1.247 . S
O72 Co70 2.091 . S
O72 C78 1.261 . S
C73 O82 1.247 . S
C73 O83 1.272 . S
O74 Co70 2.004 . S
O74 C79 1.259 1_565 S
Co75 O76 2.075 1_556 S
Co75 O81 2.052 1_556 S
Co75 O83 2.135 1_556 S
O76 Co75 2.075 1_554 S
O76 C79 1.230 1_565 S
C77 O80 1.238 . S
C77 O81 1.241 . S
C78 O71 1.247 . S
C78 O72 1.261 . S
C79 O74 1.259 1_545 S
C79 O76 1.230 1_545 S
O80 Co70 2.021 . S
O80 C77 1.238 . S
O81 Co75 2.052 1_554 S
O81 C77 1.241 . S
O82 Co70 2.137 . S
O82 C73 1.247 . S
O83 Co70 2.244 . S
O83 C73 1.272 . S
O83 Co75 2.135 1_554 S
Co84 O85 2.216 . S
Co84 O86 2.091 . S
Co84 O88 2.004 . S
Co84 O94 2.021 . S
Co84 O96 2.137 . S
Co84 O97 2.244 . S
O85 Co84 2.216 . S
O85 C92 1.247 . S
O86 Co84 2.091 . S
O86 C92 1.261 . S
C87 O96 1.247 . S
C87 O97 1.272 . S
O88 Co84 2.004 . S
O88 C93 1.259 1_655 S
Co89 O90 2.075 1_554 S
Co89 O95 2.052 1_554 S
Co89 O97 2.135 1_554 S
O90 Co89 2.075 1_556 S
O90 C93 1.230 1_655 S
C91 O94 1.238 . S
C91 O95 1.241 . S
C92 O85 1.247 . S
C92 O86 1.261 . S
C93 O88 1.259 1_455 S
C93 O90 1.230 1_455 S
O94 Co84 2.021 . S
O94 C91 1.238 . S
O95 Co89 2.052 1_556 S
O95 C91 1.241 . S
O96 Co84 2.137 . S
O96 C87 1.247 . S
O97 Co84 2.244 . S
O97 C87 1.272 . S
O97 Co89 2.135 1_556 S
Co98 O99 2.216 . S
Co98 O100 2.091 . S
Co98 O102 2.004 . S
Co98 O108 2.021 . S
Co98 O110 2.137 . S
Co98 O111 2.244 . S
O99 Co98 2.216 . S
O99 C106 1.247 . S
O100 Co98 2.091 . S
O100 C106 1.261 . S
C101 O110 1.247 . S
C101 O111 1.272 . S
O102 Co98 2.004 . S
O102 C107 1.259 1_545 S
Co103 O104 2.075 1_556 S
Co103 O109 2.052 1_556 S
Co103 O111 2.135 1_556 S
O104 Co103 2.075 1_554 S
O104 C107 1.230 1_545 S
C105 O108 1.238 . S
C105 O109 1.241 . S
C106 O99 1.247 . S
C106 O100 1.261 . S
C107 O102 1.259 1_565 S
C107 O104 1.230 1_565 S
O108 Co98 2.021 . S
O108 C105 1.238 . S
O109 Co103 2.052 1_554 S
O109 C105 1.241 . S
O110 Co98 2.137 . S
O110 C101 1.247 . S
O111 Co98 2.244 . S
O111 C101 1.272 . S
O111 Co103 2.135 1_554 S
Co112 O113 2.216 . S
Co112 O114 2.091 . S
Co112 O116 2.004 . S
Co112 O122 2.021 . S
Co112 O124 2.137 . S
Co112 O125 2.244 . S
O113 Co112 2.216 . S
O113 C120 1.247 . S
O114 Co112 2.091 . S
O114 C120 1.261 . S
C115 O124 1.247 . S
C115 O125 1.272 . S
O116 Co112 2.004 . S
O116 C121 1.259 . S
Co117 O118 2.061 . S
Co117 O123 2.052 . S
Co117 O125 2.135 . S
O118 Co117 2.061 . S
O118 C121 1.235 . S
C119 O122 1.238 . S
C119 O123 1.241 . S
C120 O113 1.247 . S
C120 O114 1.261 . S
C121 O116 1.259 . S
C121 O118 1.235 . S
O122 Co112 2.021 . S
O122 C119 1.238 . S
O123 Co117 2.052 . S
O123 C119 1.241 . S
O124 Co112 2.137 . S
O124 C115 1.247 . S
O125 Co112 2.244 . S
O125 C115 1.272 . S
O125 Co117 2.135 . S
Co126 O127 2.216 . S
Co126 O128 2.091 . S
Co126 O130 2.004 . S
Co126 O136 2.021 . S
Co126 O138 2.137 . S
Co126 O139 2.244 . S
O127 Co126 2.216 . S
O127 C134 1.247 . S
O128 Co126 2.091 . S
O128 C134 1.261 . S
C129 O138 1.247 . S
C129 O139 1.272 . S
O130 Co126 2.004 . S
O130 C135 1.259 . S
Co131 O132 2.061 . S
Co131 O137 2.052 . S
Co131 O139 2.135 . S
O132 Co131 2.061 . S
O132 C135 1.235 . S
C133 O136 1.238 . S
C133 O137 1.241 . S
C134 O127 1.247 . S
C134 O128 1.261 . S
C135 O130 1.259 . S
C135 O132 1.235 . S
O136 Co126 2.021 . S
O136 C133 1.238 . S
O137 Co131 2.052 . S
O137 C133 1.241 . S
O138 Co126 2.137 . S
O138 C129 1.247 . S
O139 Co126 2.244 . S
O139 C129 1.272 . S
O139 Co131 2.135 . S
Co140 O141 2.216 . S
Co140 O142 2.091 . S
Co140 O144 2.004 . S
Co140 O150 2.021 . S
Co140 O152 2.137 . S
Co140 O153 2.244 . S
O141 Co140 2.216 . S
O141 C148 1.247 . S
O142 Co140 2.091 . S
O142 C148 1.261 . S
C143 O152 1.247 . S
C143 O153 1.272 . S
O144 Co140 2.004 . S
O144 C149 1.259 . S
Co145 O146 2.061 . S
Co145 O151 2.052 . S
Co145 O153 2.135 . S
O146 Co145 2.061 . S
O146 C149 1.235 . S
C147 O150 1.238 . S
C147 O151 1.241 . S
C148 O141 1.247 . S
C148 O142 1.261 . S
C149 O144 1.259 . S
C149 O146 1.235 . S
O150 Co140 2.021 . S
O150 C147 1.238 . S
O151 Co145 2.052 . S
O151 C147 1.241 . S
O152 Co140 2.137 . S
O152 C143 1.247 . S
O153 Co140 2.244 . S
O153 C143 1.272 . S
O153 Co145 2.135 . S
Co154 O155 2.216 . S
Co154 O156 2.091 . S
Co154 O158 2.004 . S
Co154 O164 2.021 . S
Co154 O166 2.137 . S
Co154 O167 2.244 . S
O155 Co154 2.216 . S
O155 C162 1.247 . S
O156 Co154 2.091 . S
O156 C162 1.261 . S
C157 O166 1.247 . S
C157 O167 1.272 . S
O158 Co154 2.004 . S
O158 C163 1.259 . S
Co159 O160 2.061 . S
Co159 O165 2.052 . S
Co159 O167 2.135 . S
O160 Co159 2.061 . S
O160 C163 1.235 . S
C161 O164 1.238 . S
C161 O165 1.241 . S
C162 O155 1.247 . S
C162 O156 1.261 . S
C163 O158 1.259 . S
C163 O160 1.235 . S
O164 Co154 2.021 . S
O164 C161 1.238 . S
O165 Co159 2.052 . S
O165 C161 1.241 . S
O166 Co154 2.137 . S
O166 C157 1.247 . S
O167 Co154 2.244 . S
O167 C157 1.272 . S
O167 Co159 2.135 . S
Co168 O169 2.216 . S
Co168 O170 2.091 . S
Co168 O172 2.004 . S
Co168 O178 2.021 . S
Co168 O180 2.137 . S
Co168 O181 2.244 . S
O169 Co168 2.216 . S
O169 C176 1.247 . S
O170 Co168 2.091 . S
O170 C176 1.261 . S
C171 O180 1.247 . S
C171 O181 1.272 . S
O172 Co168 2.004 . S
O172 C177 1.259 . S
Co173 O174 2.061 . S
Co173 O179 2.052 . S
Co173 O181 2.135 . S
O174 Co173 2.061 . S
O174 C177 1.235 . S
C175 O178 1.238 . S
C175 O179 1.241 . S
C176 O169 1.247 . S
C176 O170 1.261 . S
C177 O172 1.259 . S
C177 O174 1.235 . S
O178 Co168 2.021 . S
O178 C175 1.238 . S
O179 Co173 2.052 . S
O179 C175 1.241 . S
O180 Co168 2.137 . S
O180 C171 1.247 . S
O181 Co168 2.244 . S
O181 C171 1.272 . S
O181 Co173 2.135 . S
Co182 O183 2.216 . S
Co182 O184 2.091 . S
Co182 O186 2.004 . S
Co182 O192 2.021 . S
Co182 O194 2.137 . S
Co182 O195 2.244 . S
O183 Co182 2.216 . S
O183 C190 1.247 . S
O184 Co182 2.091 . S
O184 C190 1.261 . S
C185 O194 1.247 . S
C185 O195 1.272 . S
O186 Co182 2.004 . S
O186 C191 1.259 . S
Co187 O188 2.061 . S
Co187 O193 2.052 . S
Co187 O195 2.135 . S
O188 Co187 2.061 . S
O188 C191 1.235 . S
C189 O192 1.238 . S
C189 O193 1.241 . S
C190 O183 1.247 . S
C190 O184 1.261 . S
C191 O186 1.259 . S
C191 O188 1.235 . S
O192 Co182 2.021 . S
O192 C189 1.238 . S
O193 Co187 2.052 . S
O193 C189 1.241 . S
O194 Co182 2.137 . S
O194 C185 1.247 . S
O195 Co182 2.244 . S
O195 C185 1.272 . S
O195 Co187 2.135 . S
Co196 O197 2.216 . S
Co196 O198 2.091 . S
Co196 O200 2.004 . S
Co196 O206 2.021 . S
Co196 O208 2.137 . S
Co196 O209 2.244 . S
O197 Co196 2.216 . S
O197 C204 1.247 . S
O198 Co196 2.091 . S
O198 C204 1.261 . S
C199 O208 1.247 . S
C199 O209 1.272 . S
O200 Co196 2.004 . S
O200 C205 1.259 . S
Co201 O202 2.061 . S
Co201 O207 2.052 . S
Co201 O209 2.135 . S
O202 Co201 2.061 . S
O202 C205 1.235 . S
C203 O206 1.238 . S
C203 O207 1.241 . S
C204 O197 1.247 . S
C204 O198 1.261 . S
C205 O200 1.259 . S
C205 O202 1.235 . S
O206 Co196 2.021 . S
O206 C203 1.238 . S
O207 Co201 2.052 . S
O207 C203 1.241 . S
O208 Co196 2.137 . S
O208 C199 1.247 . S
O209 Co196 2.244 . S
O209 C199 1.272 . S
O209 Co201 2.135 . S
Co210 O211 2.216 . S
Co210 O212 2.091 . S
Co210 O214 2.004 . S
Co210 O220 2.021 . S
Co210 O222 2.137 . S
Co210 O223 2.244 . S
O211 Co210 2.216 . S
O211 C218 1.247 . S
O212 Co210 2.091 . S
O212 C218 1.261 . S
C213 O222 1.247 . S
C213 O223 1.272 . S
O214 Co210 2.004 . S
O214 C219 1.259 . S
Co215 O216 2.061 . S
Co215 O221 2.052 . S
Co215 O223 2.135 . S
O216 Co215 2.061 . S
O216 C219 1.235 . S
C217 O220 1.238 . S
C217 O221 1.241 . S
C218 O211 1.247 . S
C218 O212 1.261 . S
C219 O214 1.259 . S
C219 O216 1.235 . S
O220 Co210 2.021 . S
O220 C217 1.238 . S
O221 Co215 2.052 . S
O221 C217 1.241 . S
O222 Co210 2.137 . S
O222 C213 1.247 . S
O223 Co210 2.244 . S
O223 C213 1.272 . S
O223 Co215 2.135 . S
C224 C225 1.363 . S
C224 C230 1.379 . S
C224 N232 1.356 . S
C225 C224 1.363 . S
C225 C231 1.363 . S
C226 C227 1.363 . S
C226 C231 1.379 . S
C226 N233 1.356 . S
C227 C226 1.363 . S
C227 C230 1.363 . S
N228 C230 1.356 . S
N228 H240 0.984 . S
N228 H241 0.985 . S
N229 C231 1.356 . S
N229 H234 0.984 . S
N229 H235 0.985 . S
C230 C224 1.379 . S
C230 C227 1.363 . S
C230 N228 1.356 . S
C231 C225 1.363 . S
C231 C226 1.379 . S
C231 N229 1.356 . S
N232 C224 1.356 . S
N232 H238 0.984 . S
N232 H239 0.984 . S
N233 C226 1.356 . S
N233 H236 0.984 . S
N233 H237 0.985 . S
H234 N229 0.984 . S
H235 N229 0.985 . S
H236 N233 0.984 . S
H237 N233 0.985 . S
H238 N232 0.984 . S
H239 N232 0.984 . S
H240 N228 0.984 . S
H241 N228 0.985 . S
C242 C243 1.363 . S
C242 C248 1.379 . S
C242 N250 1.356 . S
C243 C242 1.363 . S
C243 C249 1.363 . S
C244 C245 1.363 . S
C244 C249 1.379 . S
C244 N251 1.356 . S
C245 C244 1.363 . S
C245 C248 1.363 . S
N246 C248 1.356 . S
N246 H258 0.984 . S
N246 H259 0.985 . S
N247 C249 1.356 . S
N247 H252 0.984 . S
N247 H253 0.985 . S
C248 C242 1.379 . S
C248 C245 1.363 . S
C248 N246 1.356 . S
C249 C243 1.363 . S
C249 C244 1.379 . S
C249 N247 1.356 . S
N250 C242 1.356 . S
N250 H256 0.984 . S
N250 H257 0.984 . S
N251 C244 1.356 . S
N251 H254 0.984 . S
N251 H255 0.985 . S
H252 N247 0.984 . S
H253 N247 0.985 . S
H254 N251 0.984 . S
H255 N251 0.985 . S
H256 N250 0.984 . S
H257 N250 0.984 . S
H258 N246 0.984 . S
H259 N246 0.985 . S
C260 C261 1.363 . S
C260 C266 1.379 . S
C260 N268 1.356 . S
C261 C260 1.363 . S
C261 C267 1.363 . S
C262 C263 1.363 . S
C262 C267 1.379 . S
C262 N269 1.356 . S
C263 C262 1.363 . S
C263 C266 1.363 . S
N264 C266 1.356 . S
N264 H276 0.984 . S
N264 H277 0.985 . S
N265 C267 1.356 . S
N265 H270 0.984 . S
N265 H271 0.985 . S
C266 C260 1.379 . S
C266 C263 1.363 . S
C266 N264 1.356 . S
C267 C261 1.363 . S
C267 C262 1.379 . S
C267 N265 1.356 . S
N268 C260 1.356 . S
N268 H274 0.984 . S
N268 H275 0.984 . S
N269 C262 1.356 . S
N269 H272 0.984 . S
N269 H273 0.985 . S
H270 N265 0.984 . S
H271 N265 0.985 . S
H272 N269 0.984 . S
H273 N269 0.985 . S
H274 N268 0.984 . S
H275 N268 0.984 . S
H276 N264 0.984 . S
H277 N264 0.985 . S
C278 C279 1.363 . S
C278 C284 1.379 . S
C278 N286 1.356 . S
C279 C278 1.363 . S
C279 C285 1.363 . S
C280 C281 1.363 . S
C280 C285 1.379 . S
C280 N287 1.356 . S
C281 C280 1.363 . S
C281 C284 1.363 . S
N282 C284 1.356 . S
N282 H294 0.984 . S
N282 H295 0.985 . S
N283 C285 1.356 . S
N283 H288 0.984 . S
N283 H289 0.985 . S
C284 C278 1.379 . S
C284 C281 1.363 . S
C284 N282 1.356 . S
C285 C279 1.363 . S
C285 C280 1.379 . S
C285 N283 1.356 . S
N286 C278 1.356 . S
N286 H292 0.984 . S
N286 H293 0.984 . S
N287 C280 1.356 . S
N287 H290 0.984 . S
N287 H291 0.985 . S
H288 N283 0.984 . S
H289 N283 0.985 . S
H290 N287 0.984 . S
H291 N287 0.985 . S
H292 N286 0.984 . S
H293 N286 0.984 . S
H294 N282 0.984 . S
H295 N282 0.985 . S
C296 C297 1.363 . S
C296 C302 1.379 . S
C296 N304 1.356 . S
C297 C296 1.363 . S
C297 C303 1.363 . S
C298 C299 1.363 1_554 S
C298 C303 1.379 . S
C298 N305 1.356 1_554 S
C299 C298 1.363 1_556 S
C299 C302 1.363 1_556 S
N300 C302 1.352 1_556 S
N300 H312 0.982 1_556 S
N300 H313 0.991 . S
N301 C303 1.356 . S
N301 H306 0.984 1_545 S
N301 H307 0.985 . S
C302 C296 1.379 . S
C302 C299 1.363 1_554 S
C302 N300 1.352 1_554 S
C303 C297 1.363 . S
C303 C298 1.379 . S
C303 N301 1.356 . S
N304 C296 1.356 . S
N304 H310 0.984 . S
N304 H311 0.984 . S
N305 C298 1.356 1_556 S
N305 H308 0.984 . S
N305 H309 0.985 . S
H306 N301 0.984 1_565 S
H307 N301 0.985 . S
H308 N305 0.984 . S
H309 N305 0.985 . S
H310 N304 0.984 . S
H311 N304 0.984 . S
H312 N300 0.982 1_554 S
H313 N300 0.991 . S
C314 C315 1.363 1_556 S
C314 C320 1.379 . S
C314 N322 1.356 . S
C315 C314 1.363 1_554 S
C315 C321 1.363 . S
C316 C317 1.363 1_554 S
C316 C321 1.379 . S
C316 N323 1.356 . S
C317 C316 1.363 1_556 S
C317 C320 1.363 . S
N318 C320 1.356 . S
N318 H330 0.984 . S
N318 H331 0.985 . S
N319 C321 1.356 . S
N319 H324 0.984 . S
N319 H325 0.985 . S
C320 C314 1.379 . S
C320 C317 1.363 . S
C320 N318 1.356 . S
C321 C315 1.363 . S
C321 C316 1.379 . S
C321 N319 1.356 . S
N322 C314 1.356 . S
N322 H328 0.984 . S
N322 H329 0.984 . S
N323 C316 1.356 . S
N323 H326 0.984 1_455 S
N323 H327 0.985 . S
H324 N319 0.984 . S
H325 N319 0.985 . S
H326 N323 0.984 1_655 S
H327 N323 0.985 . S
H328 N322 0.984 . S
H329 N322 0.984 . S
H330 N318 0.984 . S
H331 N318 0.985 . S
C332 C333 1.363 . S
C332 C338 1.379 . S
C332 N340 1.356 . S
C333 C332 1.363 . S
C333 C339 1.363 1_556 S
C334 C335 1.363 . S
C334 C339 1.379 . S
C334 N341 1.356 . S
C335 C334 1.363 . S
C335 C338 1.363 1_554 S
N336 C338 1.356 . S
N336 H348 0.984 . S
N336 H349 0.964 1_556 S
N337 C339 1.356 . S
N337 H342 0.984 . S
N337 H343 0.985 . S
C338 C332 1.379 . S
C338 C335 1.363 1_556 S
C338 N336 1.356 . S
C339 C333 1.363 1_554 S
C339 C334 1.379 . S
C339 N337 1.356 . S
N340 C332 1.356 . S
N340 H346 0.984 . S
N340 H347 0.984 . S
N341 C334 1.356 . S
N341 H344 0.984 . S
N341 H345 0.985 . S
H342 N337 0.984 . S
H343 N337 0.985 . S
H344 N341 0.984 . S
H345 N341 0.985 . S
H346 N340 0.984 . S
H347 N340 0.984 . S
H348 N336 0.984 . S
H349 N336 0.964 1_554 S
C350 C351 1.363 1_556 S
C350 C356 1.379 . S
C350 N358 1.356 . S
C351 C350 1.363 1_554 S
C351 C357 1.363 . S
C352 C353 1.363 1_554 S
C352 C357 1.379 . S
C352 N359 1.356 . S
C353 C352 1.363 1_556 S
C353 C356 1.363 . S
N354 C356 1.356 . S
N354 H366 0.984 . S
N354 H367 0.985 . S
N355 C357 1.356 . S
N355 H360 0.984 . S
N355 H361 0.985 . S
C356 C350 1.379 . S
C356 C353 1.363 . S
C356 N354 1.356 . S
C357 C351 1.363 . S
C357 C352 1.379 . S
C357 N355 1.356 . S
N358 C350 1.356 . S
N358 H364 0.984 . S
N358 H365 0.984 . S
N359 C352 1.356 . S
N359 H362 0.984 1_655 S
N359 H363 0.985 . S
H360 N355 0.984 . S
H361 N355 0.985 . S
H362 N359 0.984 1_455 S
H363 N359 0.985 . S
H364 N358 0.984 . S
H365 N358 0.984 . S
H366 N354 0.984 . S
H367 N354 0.985 . S
C368 C369 1.363 . S
C368 C374 1.379 . S
C368 N376 1.356 . S
C369 C368 1.363 . S
C369 C375 1.363 . S
C370 C371 1.363 . S
C370 C375 1.379 . S
C370 N377 1.356 . S
C371 C370 1.363 . S
C371 C374 1.363 . S
N372 C374 1.356 . S
N372 H384 0.990 . S
N372 H385 0.985 1_565 S
N373 C375 1.356 . S
N373 H378 0.984 . S
N373 H379 0.985 . S
C374 C368 1.379 . S
C374 C371 1.363 . S
C374 N372 1.356 . S
C375 C369 1.363 . S
C375 C370 1.379 . S
C375 N373 1.356 . S
N376 C368 1.356 . S
N376 H382 0.984 . S
N376 H383 0.984 . S
N377 C370 1.356 . S
N377 H380 0.984 . S
N377 H381 0.985 . S
H378 N373 0.984 . S
H379 N373 0.985 . S
H380 N377 0.984 . S
H381 N377 0.985 . S
H382 N376 0.984 . S
H383 N376 0.984 . S
H384 N372 0.990 . S
H385 N372 0.985 1_545 S
C386 C387 1.363 . S
C386 C392 1.379 . S
C386 N394 1.356 . S
C387 C386 1.363 . S
C387 C393 1.363 . S
C388 C389 1.363 . S
C388 C393 1.379 . S
C388 N395 1.356 . S
C389 C388 1.363 . S
C389 C392 1.363 . S
N390 C392 1.356 . S
N390 H402 0.984 . S
N390 H403 0.985 . S
N391 C393 1.356 . S
N391 H396 0.984 . S
N391 H397 0.985 . S
C392 C386 1.379 . S
C392 C389 1.363 . S
C392 N390 1.356 . S
C393 C387 1.363 . S
C393 C388 1.379 . S
C393 N391 1.356 . S
N394 C386 1.356 . S
N394 H400 0.984 . S
N394 H401 0.981 1_655 S
N395 C388 1.356 . S
N395 H398 0.984 . S
N395 H399 0.985 . S
H396 N391 0.984 . S
H397 N391 0.985 . S
H398 N395 0.984 . S
H399 N395 0.985 . S
H400 N394 0.984 . S
H401 N394 0.981 1_455 S
H402 N390 0.984 . S
H403 N390 0.985 . S
C404 C405 1.363 . S
C404 C410 1.379 . S
C404 N412 1.356 . S
C405 C404 1.363 . S
C405 C411 1.363 . S
C406 C407 1.363 . S
C406 C411 1.379 . S
C406 N413 1.356 . S
C407 C406 1.363 . S
C407 C410 1.363 . S
N408 C410 1.356 . S
N408 H420 0.984 . S
N408 H421 0.985 . S
N409 C411 1.356 . S
N409 H414 0.984 . S
N409 H415 0.985 . S
C410 C404 1.379 . S
C410 C407 1.363 . S
C410 N408 1.356 . S
C411 C405 1.363 . S
C411 C406 1.379 . S
C411 N409 1.356 . S
N412 C404 1.356 . S
N412 H418 0.984 . S
N412 H419 0.984 . S
N413 C406 1.356 . S
N413 H416 0.984 . S
N413 H417 0.985 . S
H414 N409 0.984 . S
H415 N409 0.985 . S
H416 N413 0.984 . S
H417 N413 0.985 . S
H418 N412 0.984 . S
H419 N412 0.984 . S
H420 N408 0.984 . S
H421 N408 0.985 . S
C422 C423 1.363 . S
C422 C428 1.379 . S
C422 N430 1.356 . S
C423 C422 1.363 . S
C423 C429 1.363 . S
C424 C425 1.363 . S
C424 C429 1.379 . S
C424 N431 1.356 . S
C425 C424 1.363 . S
C425 C428 1.363 . S
N426 C428 1.356 . S
N426 H438 0.984 . S
N426 H439 0.985 . S
N427 C429 1.356 . S
N427 H432 0.984 . S
N427 H433 0.985 . S
C428 C422 1.379 . S
C428 C425 1.363 . S
C428 N426 1.356 . S
C429 C423 1.363 . S
C429 C424 1.379 . S
C429 N427 1.356 . S
N430 C422 1.356 . S
N430 H436 0.985 . S
N430 H437 0.984 1_455 S
N431 C424 1.356 . S
N431 H434 0.984 . S
N431 H435 0.985 . S
H432 N427 0.984 . S
H433 N427 0.985 . S
H434 N431 0.984 . S
H435 N431 0.985 . S
H436 N430 0.985 . S
H437 N430 0.984 1_655 S
H438 N426 0.984 . S
H439 N426 0.985 . S
C440 C441 1.363 . S
C440 C446 1.379 . S
C440 N448 1.356 . S
C441 C440 1.363 . S
C441 C447 1.363 . S
C442 C443 1.363 . S
C442 C447 1.379 . S
C442 N449 1.356 . S
C443 C442 1.363 . S
C443 C446 1.363 . S
N444 C446 1.356 . S
N444 H456 0.984 . S
N444 H457 0.985 . S
N445 C447 1.356 . S
N445 H450 0.984 . S
N445 H451 0.985 . S
C446 C440 1.379 . S
C446 C443 1.363 . S
C446 N444 1.356 . S
C447 C441 1.363 . S
C447 C442 1.379 . S
C447 N445 1.356 . S
N448 C440 1.356 . S
N448 H454 0.984 . S
N448 H455 0.984 . S
N449 C442 1.356 . S
N449 H452 0.984 . S
N449 H453 0.985 . S
H450 N445 0.984 . S
H451 N445 0.985 . S
H452 N449 0.984 . S
H453 N449 0.985 . S
H454 N448 0.984 . S
H455 N448 0.984 . S
H456 N444 0.984 . S
H457 N444 0.985 . S
C458 C459 1.363 . S
C458 C464 1.379 . S
C458 N466 1.356 . S
C459 C458 1.363 . S
C459 C465 1.363 . S
C460 C461 1.363 . S
C460 C465 1.379 . S
C460 N467 1.356 . S
C461 C460 1.363 . S
C461 C464 1.363 . S
N462 C464 1.356 . S
N462 H474 0.984 . S
N462 H475 0.985 . S
N463 C465 1.356 . S
N463 H468 0.984 . S
N463 H469 0.985 . S
C464 C458 1.379 . S
C464 C461 1.363 . S
C464 N462 1.356 . S
C465 C459 1.363 . S
C465 C460 1.379 . S
C465 N463 1.356 . S
N466 C458 1.356 . S
N466 H472 0.984 . S
N466 H473 0.984 . S
N467 C460 1.356 . S
N467 H470 0.984 . S
N467 H471 0.985 . S
H468 N463 0.984 . S
H469 N463 0.985 . S
H470 N467 0.984 . S
H471 N467 0.985 . S
H472 N466 0.984 . S
H473 N466 0.984 . S
H474 N462 0.984 . S
H475 N462 0.985 . S
C476 C477 1.363 . S
C476 C482 1.379 . S
C476 N484 1.356 . S
C477 C476 1.363 . S
C477 C483 1.363 . S
C478 C479 1.363 . S
C478 C483 1.379 . S
C478 N485 1.356 . S
C479 C478 1.363 . S
C479 C482 1.363 . S
N480 C482 1.356 . S
N480 H492 0.984 . S
N480 H493 0.985 . S
N481 C483 1.356 . S
N481 H486 0.984 . S
N481 H487 0.985 . S
C482 C476 1.379 . S
C482 C479 1.363 . S
C482 N480 1.356 . S
C483 C477 1.363 . S
C483 C478 1.379 . S
C483 N481 1.356 . S
N484 C476 1.356 . S
N484 H490 0.984 . S
N484 H491 0.984 . S
N485 C478 1.356 . S
N485 H488 0.984 . S
N485 H489 0.985 . S
H486 N481 0.984 . S
H487 N481 0.985 . S
H488 N485 0.984 . S
H489 N485 0.985 . S
H490 N484 0.984 . S
H491 N484 0.984 . S
H492 N480 0.984 . S
H493 N480 0.985 . S
C494 C495 1.363 . S
C494 C500 1.379 . S
C494 N502 1.356 . S
C495 C494 1.363 . S
C495 C501 1.363 . S
C496 C497 1.363 . S
C496 C501 1.379 . S
C496 N503 1.356 . S
C497 C496 1.363 . S
C497 C500 1.363 . S
N498 C500 1.356 . S
N498 H510 0.984 . S
N498 H511 0.985 . S
N499 C501 1.356 . S
N499 H504 0.984 . S
N499 H505 0.985 . S
C500 C494 1.379 . S
C500 C497 1.363 . S
C500 N498 1.356 . S
C501 C495 1.363 . S
C501 C496 1.379 . S
C501 N499 1.356 . S
N502 C494 1.356 . S
N502 H508 0.984 . S
N502 H509 0.984 . S
N503 C496 1.356 . S
N503 H506 0.984 . S
N503 H507 0.985 . S
H504 N499 0.984 . S
H505 N499 0.985 . S
H506 N503 0.984 . S
H507 N503 0.985 . S
H508 N502 0.984 . S
H509 N502 0.984 . S
H510 N498 0.984 . S
H511 N498 0.985 . S
C512 C513 1.363 . S
C512 C518 1.379 . S
C512 N520 1.356 . S
C513 C512 1.363 . S
C513 C519 1.363 . S
C514 C515 1.363 . S
C514 C519 1.379 . S
C514 N521 1.356 . S
C515 C514 1.363 . S
C515 C518 1.363 . S
N516 C518 1.356 . S
N516 H528 0.984 . S
N516 H529 0.985 . S
N517 C519 1.356 . S
N517 H522 0.984 . S
N517 H523 0.985 . S
C518 C512 1.379 . S
C518 C515 1.363 . S
C518 N516 1.356 . S
C519 C513 1.363 . S
C519 C514 1.379 . S
C519 N517 1.356 . S
N520 C512 1.356 . S
N520 H526 0.984 . S
N520 H527 0.984 . S
N521 C514 1.356 . S
N521 H524 0.984 . S
N521 H525 0.985 . S
H522 N517 0.984 . S
H523 N517 0.985 . S
H524 N521 0.984 . S
H525 N521 0.985 . S
H526 N520 0.984 . S
H527 N520 0.984 . S
H528 N516 0.984 . S
H529 N516 0.985 . S
C530 C531 1.363 . S
C530 C536 1.379 . S
C530 N538 1.356 . S
C531 C530 1.363 . S
C531 C537 1.363 . S
C532 C533 1.363 . S
C532 C537 1.379 . S
C532 N539 1.356 . S
C533 C532 1.363 . S
C533 C536 1.363 . S
N534 C536 1.356 . S
N534 H546 0.984 . S
N534 H547 0.985 . S
N535 C537 1.356 . S
N535 H540 0.984 . S
N535 H541 0.985 . S
C536 C530 1.379 . S
C536 C533 1.363 . S
C536 N534 1.356 . S
C537 C531 1.363 . S
C537 C532 1.379 . S
C537 N535 1.356 . S
N538 C530 1.356 . S
N538 H544 0.984 . S
N538 H545 0.984 . S
N539 C532 1.356 . S
N539 H542 0.984 . S
N539 H543 0.985 . S
H540 N535 0.984 . S
H541 N535 0.985 . S
H542 N539 0.984 . S
H543 N539 0.985 . S
H544 N538 0.984 . S
H545 N538 0.984 . S
H546 N534 0.984 . S
H547 N534 0.985 . S
C548 C549 1.363 . S
C548 C554 1.379 . S
C548 N556 1.356 . S
C549 C548 1.363 . S
C549 C555 1.363 . S
C550 C551 1.363 . S
C550 C555 1.379 . S
C550 N557 1.356 . S
C551 C550 1.363 . S
C551 C554 1.363 . S
N552 C554 1.356 . S
N552 H564 0.984 . S
N552 H565 0.985 . S
N553 C555 1.356 . S
N553 H558 0.984 . S
N553 H559 0.985 . S
C554 C548 1.379 . S
C554 C551 1.363 . S
C554 N552 1.356 . S
C555 C549 1.363 . S
C555 C550 1.379 . S
C555 N553 1.356 . S
N556 C548 1.356 . S
N556 H562 0.984 . S
N556 H563 0.984 . S
N557 C550 1.356 . S
N557 H560 0.984 . S
N557 H561 0.985 . S
H558 N553 0.984 . S
H559 N553 0.985 . S
H560 N557 0.984 . S
H561 N557 0.985 . S
H562 N556 0.984 . S
H563 N556 0.984 . S
H564 N552 0.984 . S
H565 N552 0.985 . S
C566 C567 1.363 . S
C566 C572 1.379 . S
C566 N574 1.356 . S
C567 C566 1.363 . S
C567 C573 1.363 . S
C568 C569 1.363 . S
C568 C573 1.379 . S
C568 N575 1.356 . S
C569 C568 1.363 . S
C569 C572 1.363 . S
N570 C572 1.356 . S
N570 H582 0.984 . S
N570 H583 0.985 . S
N571 C573 1.356 . S
N571 H576 0.984 . S
N571 H577 0.985 . S
C572 C566 1.379 . S
C572 C569 1.363 . S
C572 N570 1.356 . S
C573 C567 1.363 . S
C573 C568 1.379 . S
C573 N571 1.356 . S
N574 C566 1.356 . S
N574 H580 0.984 . S
N574 H581 0.984 . S
N575 C568 1.356 . S
N575 H578 0.984 . S
N575 H579 0.985 . S
H576 N571 0.984 . S
H577 N571 0.985 . S
H578 N575 0.984 . S
H579 N575 0.985 . S
H580 N574 0.984 . S
H581 N574 0.984 . S
H582 N570 0.984 . S
H583 N570 0.985 . S
C584 C585 1.363 . S
C584 C590 1.379 . S
C584 N592 1.356 . S
C585 C584 1.363 . S
C585 C591 1.363 . S
C586 C587 1.363 . S
C586 C591 1.379 . S
C586 N593 1.356 . S
C587 C586 1.363 . S
C587 C590 1.363 . S
N588 C590 1.356 . S
N588 H600 0.984 . S
N588 H601 0.985 . S
N589 C591 1.356 . S
N589 H594 0.984 . S
N589 H595 0.985 . S
C590 C584 1.379 . S
C590 C587 1.363 . S
C590 N588 1.356 . S
C591 C585 1.363 . S
C591 C586 1.379 . S
C591 N589 1.356 . S
N592 C584 1.356 . S
N592 H598 0.984 . S
N592 H599 0.984 . S
N593 C586 1.356 . S
N593 H596 0.984 . S
N593 H597 0.985 . S
H594 N589 0.984 . S
H595 N589 0.985 . S
H596 N593 0.984 . S
H597 N593 0.985 . S
H598 N592 0.984 . S
H599 N592 0.984 . S
H600 N588 0.984 . S
H601 N588 0.985 . S
C602 C603 1.363 . S
C602 C608 1.379 . S
C602 N610 1.356 . S
C603 C602 1.363 . S
C603 C609 1.363 . S
C604 C605 1.363 . S
C604 C609 1.379 . S
C604 N611 1.356 . S
C605 C604 1.363 . S
C605 C608 1.363 . S
N606 C608 1.356 . S
N606 H618 0.984 . S
N606 H619 0.985 . S
N607 C609 1.356 . S
N607 H612 0.984 . S
N607 H613 0.985 . S
C608 C602 1.379 . S
C608 C605 1.363 . S
C608 N606 1.356 . S
C609 C603 1.363 . S
C609 C604 1.379 . S
C609 N607 1.356 . S
N610 C602 1.356 . S
N610 H616 0.984 . S
N610 H617 0.984 . S
N611 C604 1.356 . S
N611 H614 0.984 . S
N611 H615 0.985 . S
H612 N607 0.984 . S
H613 N607 0.985 . S
H614 N611 0.984 . S
H615 N611 0.985 . S
H616 N610 0.984 . S
H617 N610 0.984 . S
H618 N606 0.984 . S
H619 N606 0.985 . S
C620 C621 1.363 . S
C620 C626 1.379 . S
C620 N628 1.356 . S
C621 C620 1.363 . S
C621 C627 1.363 . S
C622 C623 1.363 . S
C622 C627 1.379 . S
C622 N629 1.356 . S
C623 C622 1.363 . S
C623 C626 1.363 . S
N624 C626 1.356 . S
N624 H636 0.984 . S
N624 H637 0.985 . S
N625 C627 1.356 . S
N625 H630 0.984 . S
N625 H631 0.985 . S
C626 C620 1.379 . S
C626 C623 1.363 . S
C626 N624 1.356 . S
C627 C621 1.363 . S
C627 C622 1.379 . S
C627 N625 1.356 . S
N628 C620 1.356 . S
N628 H634 0.984 . S
N628 H635 0.984 . S
N629 C622 1.356 . S
N629 H632 0.984 . S
N629 H633 0.985 . S
H630 N625 0.984 . S
H631 N625 0.985 . S
H632 N629 0.984 . S
H633 N629 0.985 . S
H634 N628 0.984 . S
H635 N628 0.984 . S
H636 N624 0.984 . S
H637 N624 0.985 . S
C638 C639 1.363 . S
C638 C644 1.379 . S
C638 N646 1.356 . S
C639 C638 1.363 . S
C639 C645 1.363 . S
C640 C641 1.363 . S
C640 C645 1.379 . S
C640 N647 1.356 . S
C641 C640 1.363 . S
C641 C644 1.363 . S
N642 C644 1.356 . S
N642 H654 0.984 . S
N642 H655 0.985 . S
N643 C645 1.356 . S
N643 H648 0.984 . S
N643 H649 0.985 . S
C644 C638 1.379 . S
C644 C641 1.363 . S
C644 N642 1.356 . S
C645 C639 1.363 . S
C645 C640 1.379 . S
C645 N643 1.356 . S
N646 C638 1.356 . S
N646 H652 0.984 . S
N646 H653 0.984 . S
N647 C640 1.356 . S
N647 H650 0.984 . S
N647 H651 0.985 . S
H648 N643 0.984 . S
H649 N643 0.985 . S
H650 N647 0.984 . S
H651 N647 0.985 . S
H652 N646 0.984 . S
H653 N646 0.984 . S
H654 N642 0.984 . S
H655 N642 0.985 . S
C656 C657 1.367 . S
C656 C662 1.362 1_665 S
C656 N664 1.358 . S
C657 C656 1.367 . S
C657 C663 1.376 . S
C658 C659 1.367 . S
C658 C663 1.362 1_445 S
C658 N665 1.358 . S
C659 C658 1.367 . S
C659 C662 1.376 . S
N660 C662 1.361 . S
N660 H672 0.984 1_545 S
N660 H673 0.985 . S
N661 C663 1.361 . S
N661 H666 0.984 . S
N661 H667 0.985 1_565 S
C662 C656 1.362 1_445 S
C662 C659 1.376 . S
C662 N660 1.361 . S
C663 C657 1.376 . S
C663 C658 1.362 1_665 S
C663 N661 1.361 . S
N664 C656 1.358 . S
N664 H670 0.984 1_655 S
N664 H671 0.984 . S
N665 C658 1.358 . S
N665 H668 0.984 . S
N665 H669 0.985 1_455 S
H666 N661 0.984 . S
H667 N661 0.985 1_545 S
H668 N665 0.984 . S
H669 N665 0.985 1_655 S
H670 N664 0.984 1_455 S
H671 N664 0.984 . S
H672 N660 0.984 1_565 S
H673 N660 0.985 . S
C674 C675 1.376 . S
C674 C680 1.362 1_645 S
C674 N682 1.361 . S
C675 C674 1.376 . S
C675 C681 1.367 . S
C676 C677 1.376 . S
C676 C681 1.362 1_465 S
C676 N683 1.361 . S
C677 C676 1.376 . S
C677 C680 1.367 . S
N678 C680 1.358 . S
N678 H690 0.984 1_565 S
N678 H691 0.985 . S
N679 C681 1.358 . S
N679 H684 0.984 . S
N679 H685 0.985 1_545 S
C680 C674 1.362 1_465 S
C680 C677 1.367 . S
C680 N678 1.358 . S
C681 C675 1.367 . S
C681 C676 1.362 1_645 S
C681 N679 1.358 . S
N682 C674 1.361 . S
N682 H688 0.984 1_655 S
N682 H689 0.984 . S
N683 C676 1.361 . S
N683 H686 0.984 . S
N683 H687 0.985 1_455 S
H684 N679 0.984 . S
H685 N679 0.985 1_565 S
H686 N683 0.984 . S
H687 N683 0.985 1_655 S
H688 N682 0.984 1_455 S
H689 N682 0.984 . S
H690 N678 0.984 1_545 S
H691 N678 0.985 . S
C692 C693 1.363 . S
C692 C698 1.374 1_455 S
C692 N700 1.356 . S
C693 C692 1.363 . S
C693 C699 1.367 . S
C694 C695 1.363 . S
C694 C699 1.374 1_655 S
C694 N701 1.341 1_556 S
C695 C694 1.363 . S
C695 C698 1.367 . S
N696 C698 1.358 . S
N696 H708 0.984 1_655 S
N696 H709 0.985 . S
N697 C699 1.343 1_554 S
N697 H702 0.978 1_554 S
N697 H703 1.006 1_455 S
C698 C692 1.374 1_655 S
C698 C695 1.367 . S
C698 N696 1.358 . S
C699 C693 1.367 . S
C699 C694 1.374 1_455 S
C699 N697 1.343 1_556 S
N700 C692 1.356 . S
N700 H706 0.984 . S
N700 H707 0.984 . S
N701 C694 1.341 1_554 S
N701 H704 0.978 1_554 S
N701 H705 1.006 . S
H702 N697 0.978 1_556 S
H703 N697 1.006 1_655 S
H704 N701 0.978 1_556 S
H705 N701 1.006 . S
H706 N700 0.984 . S
H707 N700 0.984 . S
H708 N696 0.984 1_455 S
H709 N696 0.985 . S
C710 C711 1.367 . S
C710 C716 1.374 1_565 S
C710 N718 1.358 . S
C711 C710 1.367 . S
C711 C717 1.363 . S
C712 C713 1.367 . S
C712 C717 1.374 1_545 S
C712 N719 1.343 1_554 S
C713 C712 1.367 . S
C713 C716 1.363 . S
N714 C716 1.356 . S
N714 H726 0.984 . S
N714 H727 0.985 . S
N715 C717 1.341 1_556 S
N715 H720 0.978 1_556 S
N715 H721 1.006 . S
C716 C710 1.374 1_545 S
C716 C713 1.363 . S
C716 N714 1.356 . S
C717 C711 1.363 . S
C717 C712 1.374 1_565 S
C717 N715 1.341 1_554 S
N718 C710 1.358 . S
N718 H724 0.984 1_565 S
N718 H725 0.984 . S
N719 C712 1.343 1_556 S
N719 H722 0.978 1_556 S
N719 H723 1.006 1_545 S
H720 N715 0.978 1_554 S
H721 N715 1.006 . S
H722 N719 0.978 1_554 S
H723 N719 1.006 1_565 S
H724 N718 0.984 1_545 S
H725 N718 0.984 . S
H726 N714 0.984 . S
H727 N714 0.985 . S
C728 C729 1.363 . S
C728 C734 1.379 . S
C728 N736 1.356 . S
C729 C728 1.363 . S
C729 C735 1.363 . S
C730 C731 1.363 . S
C730 C735 1.379 . S
C730 N737 1.356 . S
C731 C730 1.363 . S
C731 C734 1.363 . S
N732 C734 1.356 . S
N732 H744 0.984 . S
N732 H745 0.985 . S
N733 C735 1.356 . S
N733 H738 0.984 . S
N733 H739 0.985 . S
C734 C728 1.379 . S
C734 C731 1.363 . S
C734 N732 1.356 . S
C735 C729 1.363 . S
C735 C730 1.379 . S
C735 N733 1.356 . S
N736 C728 1.356 . S
N736 H742 0.984 . S
N736 H743 0.984 . S
N737 C730 1.356 . S
N737 H740 0.984 . S
N737 H741 0.985 . S
H738 N733 0.984 . S
H739 N733 0.985 . S
H740 N737 0.984 . S
H741 N737 0.985 . S
H742 N736 0.984 . S
H743 N736 0.984 . S
H744 N732 0.984 . S
H745 N732 0.985 . S
C746 C747 1.363 . S
C746 C752 1.379 . S
C746 N754 1.356 . S
C747 C746 1.363 . S
C747 C753 1.363 . S
C748 C749 1.363 . S
C748 C753 1.379 . S
C748 N755 1.356 . S
C749 C748 1.363 . S
C749 C752 1.363 . S
N750 C752 1.356 . S
N750 H762 0.984 . S
N750 H763 0.985 . S
N751 C753 1.356 . S
N751 H756 0.984 . S
N751 H757 0.985 . S
C752 C746 1.379 . S
C752 C749 1.363 . S
C752 N750 1.356 . S
C753 C747 1.363 . S
C753 C748 1.379 . S
C753 N751 1.356 . S
N754 C746 1.356 . S
N754 H760 0.984 . S
N754 H761 0.984 . S
N755 C748 1.356 . S
N755 H758 0.984 . S
N755 H759 0.985 . S
H756 N751 0.984 . S
H757 N751 0.985 . S
H758 N755 0.984 . S
H759 N755 0.985 . S
H760 N754 0.984 . S
H761 N754 0.984 . S
H762 N750 0.984 . S
H763 N750 0.985 . S
C764 C765 1.376 . S
C764 C770 1.366 1_545 S
C764 N772 1.361 . S
C765 C764 1.376 . S
C765 C771 1.363 . S
C766 C767 1.376 . S
C766 C771 1.366 1_565 S
C766 N773 1.361 . S
C767 C766 1.376 . S
C767 C770 1.363 . S
N768 C770 1.356 . S
N768 H780 0.984 . S
N768 H781 0.985 . S
N769 C771 1.356 . S
N769 H774 0.984 . S
N769 H775 0.985 . S
C770 C764 1.366 1_565 S
C770 C767 1.363 . S
C770 N768 1.356 . S
C771 C765 1.363 . S
C771 C766 1.366 1_545 S
C771 N769 1.356 . S
N772 C764 1.361 . S
N772 H778 0.984 1_545 S
N772 H779 0.984 . S
N773 C766 1.361 . S
N773 H776 0.984 . S
N773 H777 0.985 1_565 S
H774 N769 0.984 . S
H775 N769 0.985 . S
H776 N773 0.984 . S
H777 N773 0.985 1_545 S
H778 N772 0.984 1_565 S
H779 N772 0.984 . S
H780 N768 0.984 . S
H781 N768 0.985 . S
C782 C783 1.363 . S
C782 C788 1.366 1_655 S
C782 N790 1.356 . S
C783 C782 1.363 . S
C783 C789 1.376 . S
C784 C785 1.363 . S
C784 C789 1.366 1_455 S
C784 N791 1.356 . S
C785 C784 1.363 . S
C785 C788 1.376 . S
N786 C788 1.361 . S
N786 H798 0.984 1_455 S
N786 H799 0.985 . S
N787 C789 1.361 . S
N787 H792 0.984 . S
N787 H793 0.985 1_655 S
C788 C782 1.366 1_455 S
C788 C785 1.376 . S
C788 N786 1.361 . S
C789 C783 1.376 . S
C789 C784 1.366 1_655 S
C789 N787 1.361 . S
N790 C782 1.356 . S
N790 H796 0.984 . S
N790 H797 0.984 . S
N791 C784 1.356 . S
N791 H794 0.984 . S
N791 H795 0.985 . S
H792 N787 0.984 . S
H793 N787 0.985 1_455 S
H794 N791 0.984 . S
H795 N791 0.985 . S
H796 N790 0.984 . S
H797 N790 0.984 . S
H798 N786 0.984 1_655 S
H799 N786 0.985 . S
C225 C3 1.281 . S
C227 C163 1.298 . S
C243 C121 1.298 . S
C245 C17 1.281 . S
C261 C135 1.298 . S
C263 C31 1.281 . S
C279 C149 1.298 . S
C281 C45 1.281 . S
C297 C79 1.298 . S
C299 C59 1.281 . S
C315 C73 1.281 . S
C317 C93 1.298 . S
C333 C87 1.281 . S
C335 C107 1.298 . S
C351 C101 1.281 . S
C353 C65 1.298 . S
C369 C115 1.281 . S
C371 C51 1.298 . S
C387 C9 1.298 . S
C389 C129 1.281 . S
C405 C23 1.298 . S
C407 C143 1.281 . S
C423 C37 1.298 . S
C425 C157 1.281 . S
C441 C191 1.298 . S
C443 C171 1.281 . S
C459 C185 1.281 . S
C461 C205 1.298 . S
C477 C219 1.298 . S
C479 C199 1.281 . S
C495 C177 1.298 . S
C497 C213 1.281 . S
C513 C204 1.580 . S
C515 C8 1.580 . S
C531 C218 1.580 . S
C533 C22 1.580 . S
C549 C176 1.580 . S
C551 C36 1.580 . S
C567 C50 1.580 . S
C569 C190 1.580 . S
C585 C64 1.580 . S
C587 C148 1.580 . S
C603 C162 1.580 . S
C605 C78 1.580 . S
C621 C92 1.580 . S
C623 C120 1.580 . S
C639 C106 1.580 . S
C641 C134 1.580 . S
C657 C35 1.343 . S
C659 C7 1.343 . S
C675 C49 1.343 . S
C677 C21 1.343 . S
C693 C63 1.343 . S
C695 C91 1.343 . S
C711 C77 1.343 . S
C713 C105 1.343 . S
C729 C147 1.343 . S
C731 C119 1.343 . S
C747 C133 1.343 . S
C749 C161 1.343 . S
C765 C203 1.343 . S
C767 C175 1.343 . S
C783 C189 1.343 . S
C785 C217 1.343 . S
