# Generated by pormake.
# Topology wnr, (7)-cn, num edge types: 1
# Building blocks:
#     Node 0, Type 0, BuildingBlock: HICVOG_clean_sbu_0, # of connection points: 7
#     Node 1, Type 0, BuildingBlock: HICVOG_clean_sbu_0, # of connection points: 7
#     Node 2, Type 0, BuildingBlock: HICVOG_clean_sbu_0, # of connection points: 7
#     Node 3, Type 0, BuildingBlock: HICVOG_clean_sbu_0, # of connection points: 7
#     Node 4, Type 0, BuildingBlock: HICVOG_clean_sbu_0, # of connection points: 7
#     Node 5, Type 0, BuildingBlock: HICVOG_clean_sbu_0, # of connection points: 7
#     Edge 6, Type (0, 0), BuildingBlock: XIVTED_clean_linker_0, # of connection points: 2
#     Edge 7, Type (0, 0), BuildingBlock: XIVTED_clean_linker_0, # of connection points: 2
#     Edge 8, Type (0, 0), BuildingBlock: XIVTED_clean_linker_0, # of connection points: 2
#     Edge 9, Type (0, 0), BuildingBlock: XIVTED_clean_linker_0, # of connection points: 2
#     Edge 10, Type (0, 0), BuildingBlock: XIVTED_clean_linker_0, # of connection points: 2
#     Edge 11, Type (0, 0), BuildingBlock: XIVTED_clean_linker_0, # of connection points: 2
#     Edge 12, Type (0, 0), BuildingBlock: XIVTED_clean_linker_0, # of connection points: 2
#     Edge 13, Type (0, 0), BuildingBlock: XIVTED_clean_linker_0, # of connection points: 2
#     Edge 14, Type (0, 0), BuildingBlock: XIVTED_clean_linker_0, # of connection points: 2
#     Edge 15, Type (0, 0), BuildingBlock: XIVTED_clean_linker_0, # of connection points: 2
#     Edge 16, Type (0, 0), BuildingBlock: XIVTED_clean_linker_0, # of connection points: 2
#     Edge 17, Type (0, 0), BuildingBlock: XIVTED_clean_linker_0, # of connection points: 2
#     Edge 18, Type (0, 0), BuildingBlock: XIVTED_clean_linker_0, # of connection points: 2
#     Edge 19, Type (0, 0), BuildingBlock: XIVTED_clean_linker_0, # of connection points: 2
#     Edge 20, Type (0, 0), BuildingBlock: XIVTED_clean_linker_0, # of connection points: 2
#     Edge 21, Type (0, 0), BuildingBlock: XIVTED_clean_linker_0, # of connection points: 2
#     Edge 22, Type (0, 0), BuildingBlock: XIVTED_clean_linker_0, # of connection points: 2
#     Edge 23, Type (0, 0), BuildingBlock: XIVTED_clean_linker_0, # of connection points: 2
#     Edge 24, Type (0, 0), BuildingBlock: XIVTED_clean_linker_0, # of connection points: 2
#     Edge 25, Type (0, 0), BuildingBlock: XIVTED_clean_linker_0, # of connection points: 2
#     Edge 26, Type (0, 0), BuildingBlock: XIVTED_clean_linker_0, # of connection points: 2
# Relax obj value: 0.156
# Max RMSD: 0.226
# Mean RMSD: 0.226
data_MOF--net-wnr--node1-HICVOG_clean_sbu_0--edge1-XIVTED_clean_linker_0
_symmetry_space_group_name_H-M    P1
_symmetry_Int_Tables_number       1
_symmetry_cell_setting            triclinic
loop_
_symmetry_equiv_pos_as_xyz
'x, y, z'
_cell_length_a     43.138079
_cell_length_b     43.143402
_cell_length_c     17.737137
_cell_angle_alpha  90.077107
_cell_angle_beta   89.935803
_cell_angle_gamma 119.95115
loop_
_atom_site_label
_atom_site_type_symbol
_atom_site_fract_x
_atom_site_fract_y
_atom_site_fract_z
_atom_type_partial_charge
Zn0 Zn 0.17124 0.39772 0.01186 0.0
C1 C 0.09613 0.41135 0.11991 0.0
N2 N 0.07407 0.38558 0.0724 0.0
C3 C 0.09667 0.3804 0.0296 0.0
N4 N 0.13122 0.402 0.04969 0.0
N5 N 0.13093 0.42169 0.10708 0.0
C6 C 0.20003 0.47232 0.30815 0.0
O7 O 0.2281 0.50008 0.27865 0.0
O8 O 0.17125 0.39711 0.89724 0.0
Zn9 Zn 0.17105 0.46322 0.15584 0.0
N10 N 0.1684 0.35469 0.05283 0.0
C11 C 0.14322 0.30793 0.14363 0.0
C12 C 0.1443 0.33734 0.10877 0.0
C13 C 0.19151 0.34365 0.02997 0.0
N14 N 0.16642 0.29711 0.12149 0.0
C15 C 0.19066 0.314 0.06535 0.0
O16 O 0.22075 0.48063 0.11244 0.0
C17 C 0.23662 0.46873 0.07107 0.0
O18 O 0.21959 0.43883 0.03745 0.0
H19 H 0.12646 0.34662 0.12724 0.0
H20 H 0.21093 0.3585 0.98649 0.0
C21 C 0.17179 0.52934 0.19646 0.0
C22 C 0.16331 0.55653 0.18395 0.0
C23 C 0.13434 0.52796 0.06969 0.0
C24 C 0.14328 0.50156 0.08169 0.0
N25 N 0.16137 0.50239 0.14507 0.0
N26 N 0.14452 0.55469 0.12079 0.0
H27 H 0.18607 0.52933 0.24645 0.0
C28 C 0.18504 0.42772 0.8659 0.0
O29 O 0.19672 0.45628 0.90863 0.0
O30 O 0.17325 0.45306 0.26644 0.0
H31 H 0.13572 0.48039 0.04077 0.0
H32 H 0.12432 0.29399 0.1885 0.0
H33 H 0.11963 0.52741 0.01987 0.0
Zn34 Zn 0.63906 0.78133 0.68393 0.0
C35 C 0.62508 0.69306 0.79444 0.0
N36 N 0.65148 0.69694 0.74857 0.0
C37 C 0.65698 0.72464 0.70535 0.0
N38 N 0.63488 0.73731 0.72347 0.0
N39 N 0.61466 0.71737 0.78029 0.0
C40 C 0.60148 0.75314 0.96748 0.0
O41 O 0.6252 0.7789 0.92458 0.0
O42 O 0.64278 0.78309 0.56961 0.0
Zn43 Zn 0.57177 0.71523 0.82448 0.0
N44 N 0.68056 0.82172 0.72856 0.0
C45 C 0.72461 0.84432 0.82526 0.0
C46 C 0.69614 0.81561 0.78894 0.0
C47 C 0.69237 0.85552 0.70275 0.0
N48 N 0.73631 0.87803 0.7999 0.0
C49 C 0.72116 0.88471 0.73933 0.0
O50 O 0.55503 0.74785 0.78014 0.0
C51 C 0.56694 0.77503 0.73725 0.0
O52 O 0.59697 0.78758 0.70436 0.0
H53 H 0.68619 0.78872 0.80955 0.0
H54 H 0.67876 0.85947 0.65575 0.0
C55 C 0.50539 0.64992 0.8578 0.0
C56 C 0.47858 0.61432 0.84352 0.0
C57 C 0.50908 0.61473 0.73147 0.0
C58 C 0.53523 0.64998 0.7454 0.0
N59 N 0.53318 0.66676 0.80851 0.0
N60 N 0.48154 0.59782 0.78062 0.0
H61 H 0.5046 0.66396 0.90768 0.0
C62 C 0.61356 0.76448 0.53397 0.0
O63 O 0.58412 0.74499 0.57275 0.0
O64 O 0.57716 0.72462 0.93689 0.0
H65 H 0.5572 0.66386 0.70636 0.0
H66 H 0.73716 0.83991 0.87364 0.0
H67 H 0.51054 0.60091 0.68185 0.0
Zn68 Zn 0.31749 0.86294 0.49536 0.0
C69 C 0.30899 0.93814 0.37286 0.0
N70 N 0.33671 0.96042 0.41598 0.0
C71 C 0.34044 0.93802 0.46231 0.0
N72 N 0.31604 0.90332 0.44849 0.0
N73 N 0.29612 0.90347 0.39157 0.0
C74 C 0.27076 0.85138 0.20696 0.0
O75 O 0.28722 0.83959 0.25061 0.0
O76 O 0.30676 0.86124 0.60681 0.0
Zn77 Zn 0.25221 0.86394 0.35182 0.0
N78 N 0.36588 0.87194 0.4807 0.0
C79 C 0.4174 0.89826 0.40198 0.0
C80 C 0.38242 0.88991 0.41669 0.0
C81 C 0.38277 0.86112 0.53017 0.0
N82 N 0.43429 0.88766 0.45116 0.0
C83 C 0.41805 0.86902 0.51495 0.0
O84 O 0.24401 0.81518 0.37742 0.0
C85 C 0.2564 0.7978 0.41142 0.0
O86 O 0.28414 0.81336 0.45279 0.0
H87 H 0.36852 0.89781 0.37734 0.0
H88 H 0.36905 0.84699 0.58077 0.0
C89 C 0.17788 0.84415 0.36673 0.0
C90 C 0.1489 0.84554 0.39995 0.0
C91 C 0.18974 0.89365 0.47737 0.0
C92 C 0.21824 0.89201 0.44471 0.0
N93 N 0.21185 0.86734 0.39018 0.0
N94 N 0.1559 0.87038 0.45462 0.0
H95 H 0.17359 0.82427 0.3245 0.0
C96 C 0.29972 0.83472 0.64893 0.0
O97 O 0.29894 0.80638 0.61948 0.0
O98 O 0.2533 0.86474 0.23736 0.0
H99 H 0.2452 0.9099 0.46378 0.0
H100 H 0.431 0.91285 0.35161 0.0
H101 H 0.19442 0.91302 0.52106 0.0
Zn102 Zn 0.4696 0.16392 0.83851 0.0
C103 C 0.38619 0.08872 0.96173 0.0
N104 N 0.39192 0.06657 0.91866 0.0
C105 C 0.418 0.08909 0.87234 0.0
N106 N 0.42794 0.1237 0.886 0.0
N107 N 0.40775 0.12345 0.94288 0.0
C108 C 0.43438 0.17665 0.12686 0.0
O109 O 0.46263 0.18853 0.08312 0.0
O110 O 0.46055 0.16458 0.72676 0.0
Zn111 Zn 0.4031 0.16306 0.98204 0.0
N112 N 0.50927 0.15546 0.85475 0.0
C113 C 0.53475 0.1305 0.93643 0.0
C114 C 0.50795 0.1384 0.92008 0.0
C115 C 0.53701 0.16579 0.80548 0.0
N116 N 0.56226 0.14057 0.88743 0.0
C117 C 0.56454 0.15829 0.82229 0.0
O118 O 0.44344 0.21168 0.95553 0.0
C119 C 0.47303 0.22917 0.92098 0.0
O120 O 0.48535 0.21368 0.87961 0.0
H121 H 0.48611 0.13089 0.95921 0.0
H122 H 0.53735 0.1792 0.75383 0.0
C123 C 0.3489 0.1832 0.96574 0.0
C124 C 0.3187 0.18192 0.93207 0.0
C125 C 0.31094 0.13301 0.85662 0.0
C126 C 0.34091 0.13453 0.88973 0.0
N127 N 0.35936 0.15956 0.94346 0.0
N128 N 0.30069 0.15674 0.87815 0.0
H129 H 0.36461 0.20335 0.00735 0.0
C130 C 0.48005 0.19107 0.68457 0.0
O131 O 0.5074 0.2195 0.71415 0.0
O132 O 0.40355 0.163 0.09656 0.0
H133 H 0.34973 0.11629 0.87158 0.0
H134 H 0.53386 0.11665 0.98789 0.0
H135 H 0.29612 0.11337 0.81351 0.0
Zn136 Zn 0.87202 0.24612 0.63999 0.0
C137 C 0.94555 0.33417 0.52813 0.0
N138 N 0.9684 0.32999 0.57216 0.0
C139 C 0.94653 0.30223 0.61562 0.0
N140 N 0.91165 0.28986 0.59944 0.0
N141 N 0.91098 0.31002 0.54358 0.0
C142 C 0.86289 0.27577 0.35679 0.0
O143 O 0.86076 0.24967 0.39863 0.0
O144 O 0.87523 0.24437 0.75397 0.0
Zn145 Zn 0.87034 0.3125 0.50108 0.0
N146 N 0.8722 0.2055 0.59375 0.0
C147 C 0.89198 0.18261 0.49417 0.0
C148 C 0.89295 0.21144 0.53171 0.0
C149 C 0.85046 0.17174 0.62007 0.0
N150 N 0.87022 0.14895 0.52003 0.0
C151 C 0.84933 0.14243 0.58227 0.0
O152 O 0.82111 0.27989 0.54618 0.0
C153 C 0.8061 0.25309 0.59018 0.0
O154 O 0.82375 0.24058 0.62251 0.0
H155 H 0.9097 0.2383 0.51075 0.0
H156 H 0.83364 0.16792 0.66847 0.0
C157 C 0.86924 0.37791 0.46998 0.0
C158 C 0.87801 0.41346 0.48496 0.0
C159 C 0.90853 0.41278 0.59592 0.0
C160 C 0.89944 0.37756 0.58131 0.0
N161 N 0.88037 0.36095 0.5184 0.0
N162 N 0.89769 0.42981 0.54764 0.0
H163 H 0.85425 0.36398 0.42021 0.0
C164 C 0.86551 0.26348 0.79065 0.0
O165 O 0.85588 0.2835 0.75293 0.0
O166 O 0.86684 0.304 0.3885 0.0
H167 H 0.9077 0.36359 0.61963 0.0
H168 H 0.90819 0.1869 0.44447 0.0
H169 H 0.924 0.42649 0.64537 0.0
Zn170 Zn 0.72162 0.56395 0.16874 0.0
C171 C 0.73122 0.64907 0.28826 0.0
N172 N 0.70318 0.64323 0.24576 0.0
C173 C 0.69918 0.61671 0.20013 0.0
N174 N 0.72371 0.60655 0.21372 0.0
N175 N 0.74396 0.62705 0.26992 0.0
C176 C 0.77314 0.60772 0.4589 0.0
O177 O 0.75359 0.57786 0.42143 0.0
O178 O 0.73056 0.56976 0.05628 0.0
Zn179 Zn 0.78835 0.63156 0.30787 0.0
N180 N 0.6732 0.52522 0.1846 0.0
C181 C 0.62124 0.50044 0.26189 0.0
C182 C 0.6564 0.52686 0.24805 0.0
C183 C 0.65647 0.49763 0.13482 0.0
N184 N 0.60446 0.47305 0.21231 0.0
C185 C 0.62098 0.47052 0.14902 0.0
O186 O 0.794 0.58901 0.2887 0.0
C187 C 0.78134 0.55892 0.256 0.0
O188 O 0.75427 0.54715 0.21274 0.0
H189 H 0.67019 0.54869 0.28745 0.0
H190 H 0.67055 0.49722 0.08467 0.0
C191 C 0.86242 0.68449 0.28459 0.0
C192 C 0.89122 0.71236 0.24519 0.0
C193 C 0.84992 0.71428 0.15949 0.0
C194 C 0.82159 0.68671 0.19858 0.0
N195 N 0.82833 0.67229 0.26013 0.0
N196 N 0.88391 0.72631 0.1834 0.0
H197 H 0.86692 0.67184 0.3327 0.0
C198 C 0.75873 0.59425 0.02497 0.0
O199 O 0.78463 0.61825 0.06717 0.0
O200 O 0.79128 0.63662 0.42196 0.0
H201 H 0.79446 0.67647 0.17913 0.0
H202 H 0.60739 0.50156 0.31179 0.0
H203 H 0.84498 0.72587 0.11011 0.0
H204 H 0.11183 0.3948 0.88112 0.0
H205 H 0.99594 0.28139 0.6063 0.0
H206 H 0.04558 0.31081 0.03575 0.0
H207 H 0.93552 0.30567 0.76466 0.0
H208 H 0.03797 0.2888 0.7077 0.0
H209 H 0.07447 0.3583 0.77679 0.0
C210 C 0.09121 0.36758 0.89236 0.0
C211 C 0.08309 0.35496 0.96644 0.0
C212 C 1.01423 0.29032 0.72078 0.0
C213 C 0.03794 0.31472 0.84893 0.0
C214 C 0.99013 0.28581 0.66348 0.0
C215 C 0.96118 0.29123 0.67814 0.0
C216 C 1.00894 0.29992 0.79305 0.0
C217 C 0.95576 0.29868 0.75222 0.0
C218 C 0.06926 0.34707 0.83309 0.0
C219 C 0.05322 0.32096 0.97891 0.0
N220 N 0.97964 0.30311 0.80698 0.0
N221 N 0.03094 0.30248 0.92103 0.0
H222 H 0.72976 0.63396 0.4364 0.0
H223 H 0.64123 0.72233 0.55737 0.0
H224 H 0.74988 0.71882 0.28244 0.0
H225 H 0.72683 0.74351 0.71021 0.0
H226 H 0.67698 0.72017 0.45289 0.0
H227 H 0.72792 0.67004 0.54059 0.0
C228 C 0.73677 0.66131 0.4255 0.0
C229 C 0.7424 0.67434 0.35165 0.0
C230 C 0.68872 0.7272 0.50868 0.0
C231 C 0.73579 0.71393 0.4686 0.0
C232 C 0.66866 0.72951 0.56791 0.0
C233 C 0.682 0.73553 0.64154 0.0
C234 C 0.72124 0.72857 0.52431 0.0
C235 C 0.71617 0.73997 0.65361 0.0
C236 C 0.73465 0.68155 0.48458 0.0
C237 C 0.74665 0.70841 0.33919 0.0
N238 N 0.7342 0.73521 0.59595 0.0
N239 N 0.74206 0.7266 0.39674 0.0
H240 H 0.28793 0.98724 0.38317 0.0
H241 H 0.39947 0.10326 0.11065 0.0
H242 H 0.30995 0.92565 0.22318 0.0
H243 H 0.31695 0.03685 0.95332 0.0
H244 H 0.36258 0.06532 0.21372 0.0
H245 H 0.29446 0.02886 0.28181 0.0
C246 C 0.29178 0.98116 0.32578 0.0
C247 C 0.29713 0.95221 0.31078 0.0
C248 C 0.35171 0.06017 0.15709 0.0
C249 C 0.30479 0.99951 0.19583 0.0
C250 C 0.37243 0.08249 0.09852 0.0
C251 C 0.36034 0.07453 0.02407 0.0
C252 C 0.31973 0.02862 0.14021 0.0
C253 C 0.32665 0.04437 0.01049 0.0
C254 C 0.29576 1.00502 0.26847 0.0
C255 C 0.30351 0.94625 0.23624 0.0
N256 N 0.308 0.02173 0.06774 0.0
N257 N 0.30757 0.96999 0.18146 0.0
H258 H 0.22413 0.59123 0.27327 0.0
H259 H 0.18966 0.75359 0.35569 0.0
H260 H 0.12853 0.59334 0.21048 0.0
H261 H 0.28473 0.75342 0.43065 0.0
H262 H 0.16465 0.69187 0.3148 0.0
H263 H 0.24446 0.64712 0.3434 0.0
C264 C 0.20703 0.60293 0.27543 0.0
C265 C 0.17454 0.58752 0.23553 0.0
C266 C 0.19086 0.70508 0.34076 0.0
C267 C 0.19799 0.65178 0.31474 0.0
C268 C 0.2052 0.74045 0.3642 0.0
C269 C 0.23953 0.75891 0.39603 0.0
C270 C 0.21106 0.68788 0.34816 0.0
C271 C 0.25819 0.74025 0.40624 0.0
C272 C 0.21882 0.63503 0.31509 0.0
C273 C 0.15393 0.60438 0.23954 0.0
N274 N 0.24391 0.70587 0.38145 0.0
N275 N 0.16608 0.63557 0.2778 0.0
H276 H 0.28058 0.54129 0.09329 0.0
H277 H 0.44254 0.54278 0.8692 0.0
H278 H 0.28111 0.44729 0.01136 0.0
H279 H 0.44205 0.63944 0.93005 0.0
H280 H 0.38679 0.50797 0.93784 0.0
H281 H 0.3428 0.57803 0.05065 0.0
C282 C 0.29389 0.52832 0.06743 0.0
C283 C 0.27543 0.49116 0.05522 0.0
C284 C 0.39894 0.53682 0.93693 0.0
C285 C 0.34642 0.53297 0.00628 0.0
C286 C 0.43086 0.55676 0.8976 0.0
C287 C 0.44706 0.59413 0.89344 0.0
C288 C 0.38259 0.55417 0.97205 0.0
C289 C 0.43076 0.61073 0.93216 0.0
C290 C 0.32933 0.54932 0.04283 0.0
C291 C 0.29403 0.47584 0.02125 0.0
N292 N 0.3992 0.5906 0.9692 0.0
N293 N 0.32828 0.49678 0.9977 0.0
H294 H 0.58916 0.84101 0.67779 0.0
H295 H 0.39234 0.80835 0.60458 0.0
H296 H 0.49427 0.7469 0.75721 0.0
H297 H 0.48989 0.90275 0.53649 0.0
H298 H 0.42812 0.78753 0.67202 0.0
H299 H 0.55244 0.86599 0.63706 0.0
C300 C 0.56054 0.82564 0.68717 0.0
C301 C 0.54477 0.79161 0.72038 0.0
C302 C 0.4416 0.813 0.64309 0.0
C303 C 0.5022 0.82011 0.67287 0.0
C304 C 0.42117 0.82508 0.60497 0.0
C305 C 0.43812 0.8574 0.56448 0.0
C306 C 0.47916 0.83337 0.64058 0.0
C307 C 0.47562 0.87751 0.56612 0.0
C308 C 0.53951 0.83998 0.66387 0.0
C309 C 0.50754 0.77319 0.73172 0.0
N310 N 0.49477 0.8651 0.60296 0.0
N311 N 0.48743 0.7875 0.70718 0.0
H312 H 0.60245 0.12412 0.80411 0.0
H313 H 0.76116 0.28048 0.56579 0.0
H314 H 0.59952 0.21781 0.72946 0.0
H315 H 0.76322 0.18911 0.65888 0.0
H316 H 0.69929 0.25536 0.61069 0.0
H317 H 0.65837 0.14479 0.73636 0.0
C318 C 0.61341 0.14895 0.77286 0.0
C319 C 0.59618 0.16923 0.77285 0.0
C320 C 0.71327 0.24074 0.62057 0.0
C321 C 0.66088 0.19346 0.69516 0.0
C322 C 0.74852 0.25498 0.59474 0.0
C323 C 0.76759 0.23705 0.60911 0.0
C324 C 0.69698 0.20829 0.6606 0.0
C325 C 0.74983 0.20414 0.64708 0.0
C326 C 0.64544 0.16078 0.73405 0.0
C327 C 0.61161 0.20107 0.73061 0.0
N328 N 0.71575 0.19101 0.67168 0.0
N329 N 0.6433 0.2124 0.69405 0.0
H330 H 0.91291 0.48517 0.46124 0.0
H331 H 0.75318 0.48638 0.23398 0.0
H332 H 0.81645 0.3884 0.39845 0.0
H333 H 0.84642 0.58036 0.31965 0.0
H334 H 0.77862 0.44977 0.27781 0.0
H335 H 0.89173 0.51997 0.39345 0.0
C336 C 0.88735 0.47116 0.43264 0.0
C337 C 0.86646 0.43375 0.43593 0.0
C338 C 0.79358 0.47845 0.28628 0.0
C339 C 0.84169 0.4737 0.35824 0.0
C340 C 0.77916 0.49938 0.26102 0.0
C341 C 0.79753 0.53649 0.27376 0.0
C342 C 0.82666 0.49483 0.324 0.0
C343 C 0.83105 0.55184 0.30927 0.0
C344 C 0.87524 0.4911 0.39379 0.0
C345 C 0.83368 0.41713 0.39698 0.0
N346 N 0.84437 0.53098 0.33335 0.0
N347 N 0.82213 0.43726 0.36034 0.0
H348 H 0.45021 0.27304 0.97788 0.0
H349 H 0.6468 0.43581 0.05839 0.0
H350 H 0.54556 0.27388 0.90074 0.0
H351 H 0.54914 0.43269 0.12642 0.0
H352 H 0.6112 0.38 0.98835 0.0
H353 H 0.48672 0.33461 0.01982 0.0
C354 C 0.47887 0.28631 0.96905 0.0
C355 C 0.49484 0.26807 0.93636 0.0
C356 C 0.59765 0.39183 0.01786 0.0
C357 C 0.53716 0.3389 0.98546 0.0
C358 C 0.61798 0.42389 0.05751 0.0
C359 C 0.60097 0.43907 0.09867 0.0
C360 C 0.5601 0.37485 0.01947 0.0
C361 C 0.56347 0.42187 0.09631 0.0
C362 C 0.49978 0.32158 0.99313 0.0
C363 C 0.53212 0.28688 0.92579 0.0
N364 N 0.5444 0.39071 0.05795 0.0
N365 N 0.5521 0.32115 0.95119 0.0
H366 H 0.99401 0.40435 0.54225 0.0
H367 H 0.11028 0.41252 0.26925 0.0
H368 H 0.9327 0.32328 0.37789 0.0
H369 H 0.04376 0.42825 0.11169 0.0
H370 H 0.07242 0.4116 0.37217 0.0
H371 H 0.03541 0.44108 0.44208 0.0
C372 C 0.98791 0.39529 0.48432 0.0
C373 C 0.95919 0.36109 0.46775 0.0
C374 C 0.06722 0.41725 0.31553 0.0
C375 C 1.00623 0.40267 0.35403 0.0
C376 C 0.0896 0.41884 0.25697 0.0
C377 C 0.08148 0.42258 0.18244 0.0
C378 C 0.0355 0.41737 0.29863 0.0
C379 C 0.05128 0.42608 0.16885 0.0
C380 C 1.01165 0.41613 0.42763 0.0
C381 C 0.95306 0.35008 0.39238 0.0
N382 N 0.02859 0.42208 0.2261 0.0
N383 N 0.97673 0.37062 0.33823 0.0
H384 H 0.62911 0.59582 0.21421 0.0
H385 H 0.62092 0.704 0.94384 0.0
H386 H 0.71 0.61492 0.04975 0.0
H387 H 0.60809 0.62387 0.78319 0.0
H388 H 0.62063 0.66615 0.04567 0.0
H389 H 0.5925 0.60076 0.11415 0.0
C390 C 0.63817 0.59874 0.15628 0.0
C391 C 0.67228 0.60392 0.13965 0.0
C392 C 0.61584 0.65591 0.98849 0.0
C393 C 0.63083 0.60967 0.02602 0.0
C394 C 0.61496 0.67726 0.93047 0.0
C395 C 0.61254 0.66637 0.85543 0.0
C396 C 0.61632 0.62444 0.97066 0.0
C397 C 0.60934 0.63288 0.84071 0.0
C398 C 0.61739 0.60176 0.09964 0.0
C399 C 0.68326 0.60869 0.06428 0.0
N400 N 0.61269 0.61365 0.89757 0.0
N401 N 0.66279 0.61196 0.01018 0.0
H402 H 0.44013 0.04076 0.88219 0.0
H403 H 0.32731 0.92417 0.61165 0.0
H404 H 0.41619 0.10084 0.72254 0.0
H405 H 0.41001 0.98922 0.45343 0.0
H406 H 0.36457 0.96212 0.71416 0.0
H407 H 0.43377 0.999 0.78107 0.0
C408 C 0.43588 0.04651 0.82489 0.0
C409 C 0.42986 0.07504 0.80998 0.0
C410 C 0.37538 0.96694 0.65746 0.0
C411 C 0.42253 0.02764 0.69526 0.0
C412 C 0.35443 0.94452 0.59919 0.0
C413 C 0.36637 0.95222 0.52459 0.0
C414 C 0.40749 0.99826 0.64017 0.0
C415 C 0.40028 0.982 0.51067 0.0
C416 C 0.43204 0.02259 0.7677 0.0
C417 C 0.42319 0.08068 0.73551 0.0
N418 N 0.41917 1.00476 0.56762 0.0
N419 N 0.41923 0.05684 0.68088 0.0
H420 H 0.21738 0.3121 0.92483 0.0
H421 H 0.31952 0.21123 0.07117 0.0
H422 H 0.21941 0.28471 0.15801 0.0
H423 H 0.2881 0.20937 0.83952 0.0
H424 H 0.29325 0.24848 0.10316 0.0
H425 H 0.25367 0.28482 0.89232 0.0
C426 C 0.22593 0.30093 0.96938 0.0
C427 C 0.2153 0.3007 0.04434 0.0
C428 C 0.29242 0.24016 0.04522 0.0
C429 C 0.25661 0.26923 0.00736 0.0
C430 C 0.30767 0.21912 0.02679 0.0
C431 C 0.30601 0.20712 0.95247 0.0
C432 C 0.27571 0.24954 0.98888 0.0
C433 C 0.28973 0.21777 0.89764 0.0
C434 C 0.24641 0.2851 0.95068 0.0
C435 C 0.22674 0.28524 0.09943 0.0
N436 N 0.27521 0.23831 0.9169 0.0
N437 N 0.24671 0.27012 0.07989 0.0
H438 H 0.7237 0.91097 0.59572 0.0
H439 H 0.82785 0.11627 0.72682 0.0
H440 H 0.75179 0.94461 0.82703 0.0
H441 H 0.81834 0.08254 0.49459 0.0
H442 H 0.79267 0.05357 0.76471 0.0
H443 H 0.75089 0.9737 0.55826 0.0
C444 C 0.73504 0.93142 0.63888 0.0
C445 C 0.73529 0.92237 0.71485 0.0
C446 C 0.79808 0.05994 0.70541 0.0
C447 C 0.76695 0.9944 0.67196 0.0
C448 C 0.81794 0.09581 0.6836 0.0
C449 C 0.82603 0.10483 0.60721 0.0
C450 C 0.78607 0.03283 0.65054 0.0
C451 C 0.81299 0.0769 0.55413 0.0
C452 C 0.75086 0.96731 0.61729 0.0
C453 C 0.75116 0.95028 0.76779 0.0
N454 N 0.79372 0.04224 0.57675 0.0
N455 N 0.76633 0.98495 0.74539 0.0
H456 H 0.94985 0.73908 0.15404 0.0
H457 H 0.09022 0.81882 0.4906 0.0
H458 H 0.91922 0.71963 0.38848 0.0
H459 H 0.1212 0.81657 0.2601 0.0
H460 H 0.02751 0.78228 0.45429 0.0
H461 H 1.01264 0.76728 0.19144 0.0
C462 C 0.9563 0.7405 0.21341 0.0
C463 C 0.92911 0.72683 0.2681 0.0
C464 C 0.048 0.78943 0.41176 0.0
C465 C 1.00114 0.75946 0.31141 0.0
C466 C 0.08385 0.81042 0.43237 0.0
C467 C 0.1111 0.82079 0.37841 0.0
C468 C 0.03913 0.77911 0.33621 0.0
C469 C 0.1012 0.80892 0.30387 0.0
C470 C 0.99219 0.7565 0.23467 0.0
C471 C 0.93913 0.72932 0.34418 0.0
N472 N 0.06601 0.78903 0.28485 0.0
N473 N 0.97433 0.74563 0.36356 0.0
H474 H 0.24814 0.51321 0.41674 0.0
H475 H 0.14874 0.37677 0.75646 0.0
H476 H 0.14959 0.41341 0.38556 0.0
H477 H 0.22722 0.48829 0.78646 0.0
H478 H 0.15281 0.38617 0.61918 0.0
H479 H 0.24522 0.50083 0.55155 0.0
C480 C 0.22595 0.4886 0.43813 0.0
C481 C 0.19902 0.46439 0.38968 0.0
C482 C 0.16914 0.40849 0.65603 0.0
C483 C 0.19555 0.44997 0.54438 0.0
C484 C 0.16694 0.40311 0.73421 0.0
C485 C 0.18759 0.43182 0.78292 0.0
C486 C 0.19255 0.44265 0.62665 0.0
C487 C 0.21062 0.46543 0.75113 0.0
C488 C 0.22424 0.48159 0.51524 0.0
C489 C 0.17088 0.43291 0.42087 0.0
N490 N 0.21254 0.46987 0.67521 0.0
N491 N 0.16988 0.42658 0.49626 0.0
H492 H 0.55704 0.72062 0.4446 0.0
H493 H 0.65518 0.80548 0.05344 0.0
H494 H 0.66744 0.80468 0.43268 0.0
H495 H 0.55426 0.70703 0.07172 0.0
H496 H 0.65924 0.80859 0.19143 0.0
H497 H 0.55467 0.71822 0.3075 0.0
C498 C 0.58085 0.73865 0.41317 0.0
C499 C 0.61249 0.76297 0.45041 0.0
C500 C 0.63625 0.78633 0.16512 0.0
C501 C 0.60987 0.7604 0.29248 0.0
C502 C 0.63383 0.78459 0.08636 0.0
C503 C 0.60427 0.756 0.05083 0.0
C504 C 0.60876 0.75946 0.20865 0.0
C505 C 0.57752 0.72961 0.09647 0.0
C506 C 0.57948 0.73719 0.33467 0.0
C507 C 0.64248 0.78554 0.40635 0.0
N508 N 0.58037 0.73206 0.17279 0.0
N509 N 0.6404 0.78382 0.32964 0.0
H510 H 0.29484 0.78798 0.75857 0.0
H511 H 0.25551 0.88676 0.09671 0.0
H512 H 0.29065 0.88496 0.72591 0.0
H513 H 0.29137 0.81049 0.12848 0.0
H514 H 0.26115 0.88245 0.95962 0.0
H515 H 0.28619 0.7916 0.89367 0.0
C516 C 0.29197 0.80998 0.77971 0.0
C517 C 0.29359 0.83625 0.73075 0.0
C518 C 0.26773 0.86668 0.99681 0.0
C519 C 0.28355 0.84051 0.88569 0.0
C520 C 0.26438 0.86902 0.07489 0.0
C521 C 0.27304 0.849 0.12406 0.0
C522 C 0.27932 0.84379 0.96793 0.0
C523 C 0.28458 0.82657 0.09279 0.0
C524 C 0.28714 0.8121 0.85696 0.0
C525 C 0.28974 0.86419 0.7616 0.0
N526 N 0.28725 0.8245 0.01692 0.0
N527 N 0.28482 0.86556 0.8371 0.0
H528 H 0.52207 0.23783 0.57518 0.0
H529 H 0.38384 0.14064 0.23707 0.0
H530 H 0.42077 0.14108 0.60738 0.0
H531 H 0.49574 0.21748 0.20537 0.0
H532 H 0.39386 0.14419 0.37404 0.0
H533 H 0.50979 0.23471 0.44026 0.0
C534 C 0.49718 0.21597 0.55396 0.0
C535 C 0.47248 0.18963 0.60276 0.0
C536 C 0.41614 0.16026 0.33691 0.0
C537 C 0.45815 0.18595 0.44796 0.0
C538 C 0.41041 0.15836 0.25888 0.0
C539 C 0.43901 0.17876 0.20975 0.0
C540 C 0.45058 0.18309 0.36578 0.0
C541 C 0.47293 0.20113 0.24101 0.0
C542 C 0.49022 0.21414 0.4768 0.0
C543 C 0.44066 0.16188 0.57181 0.0
N544 N 0.47772 0.20277 0.31684 0.0
N545 N 0.43436 0.1608 0.49638 0.0
H546 H 0.86238 0.32292 0.25467 0.0
H547 H 0.87853 0.22212 0.88981 0.0
H548 H 0.86453 0.22412 0.26854 0.0
H549 H 0.85403 0.30761 0.88213 0.0
H550 H 0.8782 0.2246 0.02817 0.0
H551 H 0.86393 0.31989 0.11757 0.0
C552 C 0.86311 0.30051 0.22892 0.0
C553 C 0.86317 0.27365 0.27335 0.0
C554 C 0.87287 0.24276 0.99602 0.0
C555 C 0.86517 0.27012 0.11572 0.0
C556 C 0.87314 0.24141 0.9171 0.0
C557 C 0.86617 0.2646 0.87422 0.0
C558 C 0.8659 0.26767 0.03215 0.0
C559 C 0.8594 0.28909 0.91265 0.0
C560 C 0.86398 0.29879 0.15047 0.0
C561 C 0.86426 0.24533 0.23655 0.0
N562 N 0.8595 0.29 0.98917 0.0
N563 N 0.8653 0.24434 0.15986 0.0
H564 H 0.81246 0.66309 0.55785 0.0
H565 H 0.71265 0.54595 0.92234 0.0
H566 H 0.73087 0.5516 0.55062 0.0
H567 H 0.81001 0.64803 0.93728 0.0
H568 H 0.71632 0.55021 0.78526 0.0
H569 H 0.80947 0.66072 0.69626 0.0
C570 C 0.79396 0.63816 0.58524 0.0
C571 C 0.772 0.60746 0.54248 0.0
C572 C 0.73697 0.57168 0.81839 0.0
C573 C 0.76828 0.60465 0.70039 0.0
C574 C 0.73486 0.56929 0.89683 0.0
C575 C 0.76115 0.5966 0.94155 0.0
C576 C 0.76542 0.60176 0.78393 0.0
C577 C 0.78925 0.62624 0.90505 0.0
C578 C 0.79231 0.63682 0.66417 0.0
C579 C 0.74844 0.57592 0.58102 0.0
N580 N 0.79061 0.62809 0.82835 0.0
N581 N 0.74717 0.57538 0.65751 0.0
loop_
_geom_bond_atom_site_label_1
_geom_bond_atom_site_label_2
_geom_bond_distance
_geom_bond_site_symmetry_2
_ccdc_geom_bond_type
Zn0 N4 2.020 . S
Zn0 O8 2.019 1_554 S
Zn0 N10 2.119 . S
Zn0 O18 1.975 . S
C1 N2 1.334 . S
C1 N5 1.336 . S
N2 C1 1.334 . S
N2 C3 1.334 . S
C3 N2 1.334 . S
C3 N4 1.336 . S
N4 Zn0 2.020 . S
N4 C3 1.336 . S
N4 N5 1.354 . S
N5 C1 1.336 . S
N5 N4 1.354 . S
N5 Zn9 2.020 . S
C6 O7 1.244 . S
C6 O30 1.257 . S
O7 C6 1.244 . S
O8 Zn0 2.019 1_556 S
O8 C28 1.257 . S
Zn9 N5 2.020 . S
Zn9 O16 1.975 . S
Zn9 N25 2.119 . S
Zn9 O30 2.019 . S
N10 Zn0 2.119 . S
N10 C12 1.334 . S
N10 C13 1.328 . S
C11 C12 1.391 . S
C11 N14 1.329 . S
C11 H32 0.930 . S
C12 N10 1.334 . S
C12 C11 1.391 . S
C12 H19 0.930 . S
C13 N10 1.328 . S
C13 C15 1.392 . S
C13 H20 0.930 1_554 S
N14 C11 1.329 . S
N14 C15 1.331 . S
C15 C13 1.392 . S
C15 N14 1.331 . S
O16 Zn9 1.975 . S
O16 C17 1.252 . S
C17 O16 1.252 . S
C17 O18 1.252 . S
O18 Zn0 1.975 . S
O18 C17 1.252 . S
H19 C12 0.930 . S
H20 C13 0.930 1_556 S
C21 C22 1.392 . S
C21 N25 1.328 . S
C21 H27 0.930 . S
C22 C21 1.392 . S
C22 N26 1.331 . S
C23 C24 1.391 . S
C23 N26 1.329 . S
C23 H33 0.930 . S
C24 C23 1.391 . S
C24 N25 1.334 . S
C24 H31 0.930 . S
N25 Zn9 2.119 . S
N25 C21 1.328 . S
N25 C24 1.334 . S
N26 C22 1.331 . S
N26 C23 1.329 . S
H27 C21 0.930 . S
C28 O8 1.257 . S
C28 O29 1.244 . S
O29 C28 1.244 . S
O30 C6 1.257 . S
O30 Zn9 2.019 . S
H31 C24 0.930 . S
H32 C11 0.930 . S
H33 C23 0.930 . S
Zn34 N38 2.020 . S
Zn34 O42 2.019 . S
Zn34 N44 2.119 . S
Zn34 O52 1.975 . S
C35 N36 1.334 . S
C35 N39 1.336 . S
N36 C35 1.334 . S
N36 C37 1.334 . S
C37 N36 1.334 . S
C37 N38 1.336 . S
N38 Zn34 2.020 . S
N38 C37 1.336 . S
N38 N39 1.354 . S
N39 C35 1.336 . S
N39 N38 1.354 . S
N39 Zn43 2.020 . S
C40 O41 1.244 . S
C40 O64 1.257 . S
O41 C40 1.244 . S
O42 Zn34 2.019 . S
O42 C62 1.257 . S
Zn43 N39 2.020 . S
Zn43 O50 1.975 . S
Zn43 N59 2.119 . S
Zn43 O64 2.019 1_556 S
N44 Zn34 2.119 . S
N44 C46 1.334 . S
N44 C47 1.328 . S
C45 C46 1.391 . S
C45 N48 1.329 . S
C45 H66 0.930 . S
C46 N44 1.334 . S
C46 C45 1.391 . S
C46 H53 0.930 . S
C47 N44 1.328 . S
C47 C49 1.392 . S
C47 H54 0.930 . S
N48 C45 1.329 . S
N48 C49 1.331 . S
C49 C47 1.392 . S
C49 N48 1.331 . S
O50 Zn43 1.975 . S
O50 C51 1.252 . S
C51 O50 1.252 . S
C51 O52 1.252 . S
O52 Zn34 1.975 . S
O52 C51 1.252 . S
H53 C46 0.930 . S
H54 C47 0.930 . S
C55 C56 1.392 . S
C55 N59 1.328 . S
C55 H61 0.930 . S
C56 C55 1.392 . S
C56 N60 1.331 . S
C57 C58 1.391 . S
C57 N60 1.329 . S
C57 H67 0.930 . S
C58 C57 1.391 . S
C58 N59 1.334 . S
C58 H65 0.930 . S
N59 Zn43 2.119 . S
N59 C55 1.328 . S
N59 C58 1.334 . S
N60 C56 1.331 . S
N60 C57 1.329 . S
H61 C55 0.930 . S
C62 O42 1.257 . S
C62 O63 1.244 . S
O63 C62 1.244 . S
O64 C40 1.257 . S
O64 Zn43 2.019 1_554 S
H65 C58 0.930 . S
H66 C45 0.930 . S
H67 C57 0.930 . S
Zn68 N72 2.020 . S
Zn68 O76 2.019 . S
Zn68 N78 2.119 . S
Zn68 O86 1.975 . S
C69 N70 1.334 . S
C69 N73 1.336 . S
N70 C69 1.334 . S
N70 C71 1.334 . S
C71 N70 1.334 . S
C71 N72 1.336 . S
N72 Zn68 2.020 . S
N72 C71 1.336 . S
N72 N73 1.354 . S
N73 C69 1.336 . S
N73 N72 1.354 . S
N73 Zn77 2.020 . S
C74 O75 1.244 . S
C74 O98 1.257 . S
O75 C74 1.244 . S
O76 Zn68 2.019 . S
O76 C96 1.257 . S
Zn77 N73 2.020 . S
Zn77 O84 1.975 . S
Zn77 N93 2.119 . S
Zn77 O98 2.019 . S
N78 Zn68 2.119 . S
N78 C80 1.334 . S
N78 C81 1.328 . S
C79 C80 1.391 . S
C79 N82 1.329 . S
C79 H100 0.930 . S
C80 N78 1.334 . S
C80 C79 1.391 . S
C80 H87 0.930 . S
C81 N78 1.328 . S
C81 C83 1.392 . S
C81 H88 0.930 . S
N82 C79 1.329 . S
N82 C83 1.331 . S
C83 C81 1.392 . S
C83 N82 1.331 . S
O84 Zn77 1.975 . S
O84 C85 1.252 . S
C85 O84 1.252 . S
C85 O86 1.252 . S
O86 Zn68 1.975 . S
O86 C85 1.252 . S
H87 C80 0.930 . S
H88 C81 0.930 . S
C89 C90 1.392 . S
C89 N93 1.328 . S
C89 H95 0.930 . S
C90 C89 1.392 . S
C90 N94 1.331 . S
C91 C92 1.391 . S
C91 N94 1.329 . S
C91 H101 0.930 . S
C92 C91 1.391 . S
C92 N93 1.334 . S
C92 H99 0.930 . S
N93 Zn77 2.119 . S
N93 C89 1.328 . S
N93 C92 1.334 . S
N94 C90 1.331 . S
N94 C91 1.329 . S
H95 C89 0.930 . S
C96 O76 1.257 . S
C96 O97 1.244 . S
O97 C96 1.244 . S
O98 C74 1.257 . S
O98 Zn77 2.019 . S
H99 C92 0.930 . S
H100 C79 0.930 . S
H101 C91 0.930 . S
Zn102 N106 2.020 . S
Zn102 O110 2.019 . S
Zn102 N112 2.119 . S
Zn102 O120 1.975 . S
C103 N104 1.334 . S
C103 N107 1.336 . S
N104 C103 1.334 . S
N104 C105 1.334 . S
C105 N104 1.334 . S
C105 N106 1.336 . S
N106 Zn102 2.020 . S
N106 C105 1.336 . S
N106 N107 1.354 . S
N107 C103 1.336 . S
N107 N106 1.354 . S
N107 Zn111 2.020 . S
C108 O109 1.244 . S
C108 O132 1.257 . S
O109 C108 1.244 . S
O110 Zn102 2.019 . S
O110 C130 1.257 . S
Zn111 N107 2.020 . S
Zn111 O118 1.975 . S
Zn111 N127 2.119 . S
Zn111 O132 2.019 1_556 S
N112 Zn102 2.119 . S
N112 C114 1.334 . S
N112 C115 1.328 . S
C113 C114 1.391 . S
C113 N116 1.329 . S
C113 H134 0.930 . S
C114 N112 1.334 . S
C114 C113 1.391 . S
C114 H121 0.930 . S
C115 N112 1.328 . S
C115 C117 1.392 . S
C115 H122 0.930 . S
N116 C113 1.329 . S
N116 C117 1.331 . S
C117 C115 1.392 . S
C117 N116 1.331 . S
O118 Zn111 1.975 . S
O118 C119 1.252 . S
C119 O118 1.252 . S
C119 O120 1.252 . S
O120 Zn102 1.975 . S
O120 C119 1.252 . S
H121 C114 0.930 . S
H122 C115 0.930 . S
C123 C124 1.392 . S
C123 N127 1.328 . S
C123 H129 0.930 1_556 S
C124 C123 1.392 . S
C124 N128 1.331 . S
C125 C126 1.391 . S
C125 N128 1.329 . S
C125 H135 0.930 . S
C126 C125 1.391 . S
C126 N127 1.334 . S
C126 H133 0.930 . S
N127 Zn111 2.119 . S
N127 C123 1.328 . S
N127 C126 1.334 . S
N128 C124 1.331 . S
N128 C125 1.329 . S
H129 C123 0.930 1_554 S
C130 O110 1.257 . S
C130 O131 1.244 . S
O131 C130 1.244 . S
O132 C108 1.257 . S
O132 Zn111 2.019 1_554 S
H133 C126 0.930 . S
H134 C113 0.930 . S
H135 C125 0.930 . S
Zn136 N140 2.020 . S
Zn136 O144 2.019 . S
Zn136 N146 2.119 . S
Zn136 O154 1.975 . S
C137 N138 1.334 . S
C137 N141 1.336 . S
N138 C137 1.334 . S
N138 C139 1.334 . S
C139 N138 1.334 . S
C139 N140 1.336 . S
N140 Zn136 2.020 . S
N140 C139 1.336 . S
N140 N141 1.354 . S
N141 C137 1.336 . S
N141 N140 1.354 . S
N141 Zn145 2.020 . S
C142 O143 1.244 . S
C142 O166 1.257 . S
O143 C142 1.244 . S
O144 Zn136 2.019 . S
O144 C164 1.257 . S
Zn145 N141 2.020 . S
Zn145 O152 1.975 . S
Zn145 N161 2.119 . S
Zn145 O166 2.019 . S
N146 Zn136 2.119 . S
N146 C148 1.334 . S
N146 C149 1.328 . S
C147 C148 1.391 . S
C147 N150 1.329 . S
C147 H168 0.930 . S
C148 N146 1.334 . S
C148 C147 1.391 . S
C148 H155 0.930 . S
C149 N146 1.328 . S
C149 C151 1.392 . S
C149 H156 0.930 . S
N150 C147 1.329 . S
N150 C151 1.331 . S
C151 C149 1.392 . S
C151 N150 1.331 . S
O152 Zn145 1.975 . S
O152 C153 1.252 . S
C153 O152 1.252 . S
C153 O154 1.252 . S
O154 Zn136 1.975 . S
O154 C153 1.252 . S
H155 C148 0.930 . S
H156 C149 0.930 . S
C157 C158 1.392 . S
C157 N161 1.328 . S
C157 H163 0.930 . S
C158 C157 1.392 . S
C158 N162 1.331 . S
C159 C160 1.391 . S
C159 N162 1.329 . S
C159 H169 0.930 . S
C160 C159 1.391 . S
C160 N161 1.334 . S
C160 H167 0.930 . S
N161 Zn145 2.119 . S
N161 C157 1.328 . S
N161 C160 1.334 . S
N162 C158 1.331 . S
N162 C159 1.329 . S
H163 C157 0.930 . S
C164 O144 1.257 . S
C164 O165 1.244 . S
O165 C164 1.244 . S
O166 C142 1.257 . S
O166 Zn145 2.019 . S
H167 C160 0.930 . S
H168 C147 0.930 . S
H169 C159 0.930 . S
Zn170 N174 2.020 . S
Zn170 O178 2.019 1_554 S
Zn170 N180 2.119 . S
Zn170 O188 1.975 . S
C171 N172 1.334 . S
C171 N175 1.336 . S
N172 C171 1.334 . S
N172 C173 1.334 . S
C173 N172 1.334 . S
C173 N174 1.336 . S
N174 Zn170 2.020 . S
N174 C173 1.336 . S
N174 N175 1.354 . S
N175 C171 1.336 . S
N175 N174 1.354 . S
N175 Zn179 2.020 . S
C176 O177 1.244 . S
C176 O200 1.257 . S
O177 C176 1.244 . S
O178 Zn170 2.019 1_556 S
O178 C198 1.257 . S
Zn179 N175 2.020 . S
Zn179 O186 1.975 . S
Zn179 N195 2.119 . S
Zn179 O200 2.019 . S
N180 Zn170 2.119 . S
N180 C182 1.334 . S
N180 C183 1.328 . S
C181 C182 1.391 . S
C181 N184 1.329 . S
C181 H202 0.930 . S
C182 N180 1.334 . S
C182 C181 1.391 . S
C182 H189 0.930 . S
C183 N180 1.328 . S
C183 C185 1.392 . S
C183 H190 0.930 . S
N184 C181 1.329 . S
N184 C185 1.331 . S
C185 C183 1.392 . S
C185 N184 1.331 . S
O186 Zn179 1.975 . S
O186 C187 1.252 . S
C187 O186 1.252 . S
C187 O188 1.252 . S
O188 Zn170 1.975 . S
O188 C187 1.252 . S
H189 C182 0.930 . S
H190 C183 0.930 . S
C191 C192 1.392 . S
C191 N195 1.328 . S
C191 H197 0.930 . S
C192 C191 1.392 . S
C192 N196 1.331 . S
C193 C194 1.391 . S
C193 N196 1.329 . S
C193 H203 0.930 . S
C194 C193 1.391 . S
C194 N195 1.334 . S
C194 H201 0.930 . S
N195 Zn179 2.119 . S
N195 C191 1.328 . S
N195 C194 1.334 . S
N196 C192 1.331 . S
N196 C193 1.329 . S
H197 C191 0.930 . S
C198 O178 1.257 . S
C198 O199 1.244 . S
O199 C198 1.244 . S
O200 C176 1.257 . S
O200 Zn179 2.019 . S
H201 C194 0.930 . S
H202 C181 0.930 . S
H203 C193 0.930 . S
H204 C210 0.930 . S
H205 C214 0.930 . S
H206 C219 0.929 1_554 S
H207 C217 0.929 . S
H208 C212 0.929 . S
H209 C218 0.929 . S
C210 H204 0.930 . S
C210 C211 1.367 . S
C210 C218 1.378 . S
C211 C210 1.367 . S
C211 C219 1.433 . S
C212 H208 0.929 . S
C212 C214 1.378 . S
C212 C216 1.350 . S
C213 C216 1.463 1_455 S
C213 C218 1.350 . S
C213 N221 1.427 . S
C214 H205 0.930 . S
C214 C212 1.378 . S
C214 C215 1.367 . S
C215 C214 1.367 . S
C215 C217 1.433 . S
C216 C212 1.350 . S
C216 C213 1.463 1_655 S
C216 N220 1.427 . S
C217 H207 0.929 . S
C217 C215 1.433 . S
C217 N220 1.384 . S
C218 H209 0.929 . S
C218 C210 1.378 . S
C218 C213 1.350 . S
C219 H206 0.929 1_556 S
C219 C211 1.433 . S
C219 N221 1.384 . S
N220 C216 1.427 . S
N220 C217 1.384 . S
N221 C213 1.427 . S
N221 C219 1.384 . S
H222 C228 0.930 . S
H223 C232 0.930 . S
H224 C237 0.929 . S
H225 C235 0.929 . S
H226 C230 0.929 . S
H227 C236 0.929 . S
C228 H222 0.930 . S
C228 C229 1.367 . S
C228 C236 1.378 . S
C229 C228 1.367 . S
C229 C237 1.433 . S
C230 H226 0.929 . S
C230 C232 1.378 . S
C230 C234 1.350 . S
C231 C234 1.463 . S
C231 C236 1.350 . S
C231 N239 1.427 . S
C232 H223 0.930 . S
C232 C230 1.378 . S
C232 C233 1.367 . S
C233 C232 1.367 . S
C233 C235 1.433 . S
C234 C230 1.350 . S
C234 C231 1.463 . S
C234 N238 1.427 . S
C235 H225 0.929 . S
C235 C233 1.433 . S
C235 N238 1.384 . S
C236 H227 0.929 . S
C236 C228 1.378 . S
C236 C231 1.350 . S
C237 H224 0.929 . S
C237 C229 1.433 . S
C237 N239 1.384 . S
N238 C234 1.427 . S
N238 C235 1.384 . S
N239 C231 1.427 . S
N239 C237 1.384 . S
H240 C246 0.930 . S
H241 C250 0.930 . S
H242 C255 0.929 . S
H243 C253 0.929 1_556 S
H244 C248 0.929 . S
H245 C254 0.929 . S
C246 H240 0.930 . S
C246 C247 1.367 . S
C246 C254 1.378 . S
C247 C246 1.367 . S
C247 C255 1.433 . S
C248 H244 0.929 . S
C248 C250 1.378 . S
C248 C252 1.350 . S
C249 C252 1.463 1_565 S
C249 C254 1.350 . S
C249 N257 1.427 . S
C250 H241 0.930 . S
C250 C248 1.378 . S
C250 C251 1.367 . S
C251 C250 1.367 . S
C251 C253 1.433 . S
C252 C248 1.350 . S
C252 C249 1.463 1_545 S
C252 N256 1.427 . S
C253 H243 0.929 1_554 S
C253 C251 1.433 . S
C253 N256 1.384 . S
C254 H245 0.929 . S
C254 C246 1.378 . S
C254 C249 1.350 . S
C255 H242 0.929 . S
C255 C247 1.433 . S
C255 N257 1.384 . S
N256 C252 1.427 . S
N256 C253 1.384 . S
N257 C249 1.427 . S
N257 C255 1.384 . S
H258 C264 0.930 . S
H259 C268 0.930 . S
H260 C273 0.929 . S
H261 C271 0.929 . S
H262 C266 0.929 . S
H263 C272 0.929 . S
C264 H258 0.930 . S
C264 C265 1.367 . S
C264 C272 1.378 . S
C265 C264 1.367 . S
C265 C273 1.433 . S
C266 H262 0.929 . S
C266 C268 1.378 . S
C266 C270 1.350 . S
C267 C270 1.463 . S
C267 C272 1.350 . S
C267 N275 1.427 . S
C268 H259 0.930 . S
C268 C266 1.378 . S
C268 C269 1.367 . S
C269 C268 1.367 . S
C269 C271 1.433 . S
C270 C266 1.350 . S
C270 C267 1.463 . S
C270 N274 1.427 . S
C271 H261 0.929 . S
C271 C269 1.433 . S
C271 N274 1.384 . S
C272 H263 0.929 . S
C272 C264 1.378 . S
C272 C267 1.350 . S
C273 H260 0.929 . S
C273 C265 1.433 . S
C273 N275 1.384 . S
N274 C270 1.427 . S
N274 C271 1.384 . S
N275 C267 1.427 . S
N275 C273 1.384 . S
H276 C282 0.930 . S
H277 C286 0.930 . S
H278 C291 0.929 . S
H279 C289 0.929 . S
H280 C284 0.929 . S
H281 C290 0.929 . S
C282 H276 0.930 . S
C282 C283 1.367 . S
C282 C290 1.378 . S
C283 C282 1.367 . S
C283 C291 1.433 . S
C284 H280 0.929 . S
C284 C286 1.378 . S
C284 C288 1.350 1_556 S
C285 C288 1.463 . S
C285 C290 1.350 . S
C285 N293 1.427 . S
C286 H277 0.930 . S
C286 C284 1.378 . S
C286 C287 1.367 . S
C287 C286 1.367 . S
C287 C289 1.433 1_556 S
C288 C284 1.350 1_554 S
C288 C285 1.463 . S
C288 N292 1.427 . S
C289 H279 0.929 . S
C289 C287 1.433 1_554 S
C289 N292 1.384 . S
C290 H281 0.929 . S
C290 C282 1.378 . S
C290 C285 1.350 . S
C291 H278 0.929 . S
C291 C283 1.433 . S
C291 N293 1.384 . S
N292 C288 1.427 . S
N292 C289 1.384 . S
N293 C285 1.427 . S
N293 C291 1.384 . S
H294 C300 0.930 . S
H295 C304 0.930 . S
H296 C309 0.929 . S
H297 C307 0.929 . S
H298 C302 0.929 . S
H299 C308 0.929 . S
C300 H294 0.930 . S
C300 C301 1.367 . S
C300 C308 1.378 . S
C301 C300 1.367 . S
C301 C309 1.433 . S
C302 H298 0.929 . S
C302 C304 1.378 . S
C302 C306 1.350 . S
C303 C306 1.463 . S
C303 C308 1.350 . S
C303 N311 1.427 . S
C304 H295 0.930 . S
C304 C302 1.378 . S
C304 C305 1.367 . S
C305 C304 1.367 . S
C305 C307 1.433 . S
C306 C302 1.350 . S
C306 C303 1.463 . S
C306 N310 1.427 . S
C307 H297 0.929 . S
C307 C305 1.433 . S
C307 N310 1.384 . S
C308 H299 0.929 . S
C308 C300 1.378 . S
C308 C303 1.350 . S
C309 H296 0.929 . S
C309 C301 1.433 . S
C309 N311 1.384 . S
N310 C306 1.427 . S
N310 C307 1.384 . S
N311 C303 1.427 . S
N311 C309 1.384 . S
H312 C318 0.930 . S
H313 C322 0.930 . S
H314 C327 0.929 . S
H315 C325 0.929 . S
H316 C320 0.929 . S
H317 C326 0.929 . S
C318 H312 0.930 . S
C318 C319 1.367 . S
C318 C326 1.378 . S
C319 C318 1.367 . S
C319 C327 1.433 . S
C320 H316 0.929 . S
C320 C322 1.378 . S
C320 C324 1.350 . S
C321 C324 1.463 . S
C321 C326 1.350 . S
C321 N329 1.427 . S
C322 H313 0.930 . S
C322 C320 1.378 . S
C322 C323 1.367 . S
C323 C322 1.367 . S
C323 C325 1.433 . S
C324 C320 1.350 . S
C324 C321 1.463 . S
C324 N328 1.427 . S
C325 H315 0.929 . S
C325 C323 1.433 . S
C325 N328 1.384 . S
C326 H317 0.929 . S
C326 C318 1.378 . S
C326 C321 1.350 . S
C327 H314 0.929 . S
C327 C319 1.433 . S
C327 N329 1.384 . S
N328 C324 1.427 . S
N328 C325 1.384 . S
N329 C321 1.427 . S
N329 C327 1.384 . S
H330 C336 0.930 . S
H331 C340 0.930 . S
H332 C345 0.929 . S
H333 C343 0.929 . S
H334 C338 0.929 . S
H335 C344 0.929 . S
C336 H330 0.930 . S
C336 C337 1.367 . S
C336 C344 1.378 . S
C337 C336 1.367 . S
C337 C345 1.433 . S
C338 H334 0.929 . S
C338 C340 1.378 . S
C338 C342 1.350 . S
C339 C342 1.463 . S
C339 C344 1.350 . S
C339 N347 1.427 . S
C340 H331 0.930 . S
C340 C338 1.378 . S
C340 C341 1.367 . S
C341 C340 1.367 . S
C341 C343 1.433 . S
C342 C338 1.350 . S
C342 C339 1.463 . S
C342 N346 1.427 . S
C343 H333 0.929 . S
C343 C341 1.433 . S
C343 N346 1.384 . S
C344 H335 0.929 . S
C344 C336 1.378 . S
C344 C339 1.350 . S
C345 H332 0.929 . S
C345 C337 1.433 . S
C345 N347 1.384 . S
N346 C342 1.427 . S
N346 C343 1.384 . S
N347 C339 1.427 . S
N347 C345 1.384 . S
H348 C354 0.930 . S
H349 C358 0.930 . S
H350 C363 0.929 . S
H351 C361 0.929 . S
H352 C356 0.929 . S
H353 C362 0.929 1_554 S
C354 H348 0.930 . S
C354 C355 1.367 . S
C354 C362 1.378 . S
C355 C354 1.367 . S
C355 C363 1.433 . S
C356 H352 0.929 . S
C356 C358 1.378 . S
C356 C360 1.350 . S
C357 C360 1.463 . S
C357 C362 1.350 . S
C357 N365 1.427 . S
C358 H349 0.930 . S
C358 C356 1.378 . S
C358 C359 1.367 1_556 S
C359 C358 1.367 1_554 S
C359 C361 1.433 . S
C360 C356 1.350 . S
C360 C357 1.463 . S
C360 N364 1.427 1_556 S
C361 H351 0.929 . S
C361 C359 1.433 . S
C361 N364 1.384 . S
C362 H353 0.929 1_556 S
C362 C354 1.378 . S
C362 C357 1.350 . S
C363 H350 0.929 . S
C363 C355 1.433 . S
C363 N365 1.384 . S
N364 C360 1.427 1_554 S
N364 C361 1.384 . S
N365 C357 1.427 . S
N365 C363 1.384 . S
H366 C372 0.930 . S
H367 C376 0.930 . S
H368 C381 0.929 . S
H369 C379 0.929 . S
H370 C374 0.929 . S
H371 C380 0.929 . S
C372 H366 0.930 . S
C372 C373 1.367 . S
C372 C380 1.378 . S
C373 C372 1.367 . S
C373 C381 1.433 . S
C374 H370 0.929 . S
C374 C376 1.378 . S
C374 C378 1.350 . S
C375 C378 1.463 1_655 S
C375 C380 1.350 . S
C375 N383 1.427 . S
C376 H367 0.930 . S
C376 C374 1.378 . S
C376 C377 1.367 . S
C377 C376 1.367 . S
C377 C379 1.433 . S
C378 C374 1.350 . S
C378 C375 1.463 1_455 S
C378 N382 1.427 . S
C379 H369 0.929 . S
C379 C377 1.433 . S
C379 N382 1.384 . S
C380 H371 0.929 . S
C380 C372 1.378 . S
C380 C375 1.350 . S
C381 H368 0.929 . S
C381 C373 1.433 . S
C381 N383 1.384 . S
N382 C378 1.427 . S
N382 C379 1.384 . S
N383 C375 1.427 . S
N383 C381 1.384 . S
H384 C390 0.930 . S
H385 C394 0.930 . S
H386 C399 0.929 . S
H387 C397 0.929 . S
H388 C392 0.929 . S
H389 C398 0.929 . S
C390 H384 0.930 . S
C390 C391 1.367 . S
C390 C398 1.378 . S
C391 C390 1.367 . S
C391 C399 1.433 . S
C392 H388 0.929 . S
C392 C394 1.378 . S
C392 C396 1.350 . S
C393 C396 1.463 1_554 S
C393 C398 1.350 . S
C393 N401 1.427 . S
C394 H385 0.930 . S
C394 C392 1.378 . S
C394 C395 1.367 . S
C395 C394 1.367 . S
C395 C397 1.433 . S
C396 C392 1.350 . S
C396 C393 1.463 1_556 S
C396 N400 1.427 . S
C397 H387 0.929 . S
C397 C395 1.433 . S
C397 N400 1.384 . S
C398 H389 0.929 . S
C398 C390 1.378 . S
C398 C393 1.350 . S
C399 H386 0.929 . S
C399 C391 1.433 . S
C399 N401 1.384 . S
N400 C396 1.427 . S
N400 C397 1.384 . S
N401 C393 1.427 . S
N401 C399 1.384 . S
H402 C408 0.930 . S
H403 C412 0.930 . S
H404 C417 0.929 . S
H405 C415 0.929 . S
H406 C410 0.929 . S
H407 C416 0.929 . S
C408 H402 0.930 . S
C408 C409 1.367 . S
C408 C416 1.378 . S
C409 C408 1.367 . S
C409 C417 1.433 . S
C410 H406 0.929 . S
C410 C412 1.378 . S
C410 C414 1.350 . S
C411 C414 1.463 1_545 S
C411 C416 1.350 . S
C411 N419 1.427 . S
C412 H403 0.930 . S
C412 C410 1.378 . S
C412 C413 1.367 . S
C413 C412 1.367 . S
C413 C415 1.433 . S
C414 C410 1.350 . S
C414 C411 1.463 1_565 S
C414 N418 1.427 . S
C415 H405 0.929 . S
C415 C413 1.433 . S
C415 N418 1.384 . S
C416 H407 0.929 . S
C416 C408 1.378 . S
C416 C411 1.350 . S
C417 H404 0.929 . S
C417 C409 1.433 . S
C417 N419 1.384 . S
N418 C414 1.427 . S
N418 C415 1.384 . S
N419 C411 1.427 . S
N419 C417 1.384 . S
H420 C426 0.930 . S
H421 C430 0.930 . S
H422 C435 0.929 . S
H423 C433 0.929 . S
H424 C428 0.929 . S
H425 C434 0.929 . S
C426 H420 0.930 . S
C426 C427 1.353 1_556 S
C426 C434 1.378 . S
C427 C426 1.353 1_554 S
C427 C435 1.447 . S
C428 H424 0.929 . S
C428 C430 1.378 . S
C428 C432 1.350 . S
C429 C432 1.463 1_556 S
C429 C434 1.350 . S
C429 N437 1.427 1_556 S
C430 H421 0.930 . S
C430 C428 1.378 . S
C430 C431 1.353 1_554 S
C431 C430 1.353 1_556 S
C431 C433 1.447 . S
C432 C428 1.350 . S
C432 C429 1.463 1_554 S
C432 N436 1.427 1_554 S
C433 H423 0.929 . S
C433 C431 1.447 . S
C433 N436 1.384 . S
C434 H425 0.929 . S
C434 C426 1.378 . S
C434 C429 1.350 . S
C435 H422 0.929 . S
C435 C427 1.447 . S
C435 N437 1.384 . S
N436 C432 1.427 1_556 S
N436 C433 1.384 . S
N437 C429 1.427 1_554 S
N437 C435 1.384 . S
H438 C444 0.930 . S
H439 C448 0.930 . S
H440 C453 0.929 . S
H441 C451 0.929 . S
H442 C446 0.929 . S
H443 C452 0.929 . S
C444 H438 0.930 . S
C444 C445 1.367 . S
C444 C452 1.378 . S
C445 C444 1.367 . S
C445 C453 1.433 . S
C446 H442 0.929 . S
C446 C448 1.378 . S
C446 C450 1.350 . S
C447 C450 1.463 1_565 S
C447 C452 1.350 . S
C447 N455 1.427 . S
C448 H439 0.930 . S
C448 C446 1.378 . S
C448 C449 1.367 . S
C449 C448 1.367 . S
C449 C451 1.433 . S
C450 C446 1.350 . S
C450 C447 1.463 1_545 S
C450 N454 1.427 . S
C451 H441 0.929 . S
C451 C449 1.433 . S
C451 N454 1.384 . S
C452 H443 0.929 . S
C452 C444 1.378 . S
C452 C447 1.350 . S
C453 H440 0.929 . S
C453 C445 1.433 . S
C453 N455 1.384 . S
N454 C450 1.427 . S
N454 C451 1.384 . S
N455 C447 1.427 . S
N455 C453 1.384 . S
H456 C462 0.930 . S
H457 C466 0.930 . S
H458 C471 0.929 . S
H459 C469 0.929 . S
H460 C464 0.929 . S
H461 C470 0.929 . S
C462 H456 0.930 . S
C462 C463 1.367 . S
C462 C470 1.378 . S
C463 C462 1.367 . S
C463 C471 1.433 . S
C464 H460 0.929 . S
C464 C466 1.378 . S
C464 C468 1.350 . S
C465 C468 1.463 1_655 S
C465 C470 1.350 . S
C465 N473 1.427 . S
C466 H457 0.930 . S
C466 C464 1.378 . S
C466 C467 1.367 . S
C467 C466 1.367 . S
C467 C469 1.433 . S
C468 C464 1.350 . S
C468 C465 1.463 1_455 S
C468 N472 1.427 . S
C469 H459 0.929 . S
C469 C467 1.433 . S
C469 N472 1.384 . S
C470 H461 0.929 . S
C470 C462 1.378 . S
C470 C465 1.350 . S
C471 H458 0.929 . S
C471 C463 1.433 . S
C471 N473 1.384 . S
N472 C468 1.427 . S
N472 C469 1.384 . S
N473 C465 1.427 . S
N473 C471 1.384 . S
H474 C480 0.930 . S
H475 C484 0.930 . S
H476 C489 0.929 . S
H477 C487 0.929 . S
H478 C482 0.929 . S
H479 C488 0.929 . S
C480 H474 0.930 . S
C480 C481 1.367 . S
C480 C488 1.378 . S
C481 C480 1.367 . S
C481 C489 1.433 . S
C482 H478 0.929 . S
C482 C484 1.378 . S
C482 C486 1.350 . S
C483 C486 1.463 . S
C483 C488 1.350 . S
C483 N491 1.427 . S
C484 H475 0.930 . S
C484 C482 1.378 . S
C484 C485 1.367 . S
C485 C484 1.367 . S
C485 C487 1.433 . S
C486 C482 1.350 . S
C486 C483 1.463 . S
C486 N490 1.427 . S
C487 H477 0.929 . S
C487 C485 1.433 . S
C487 N490 1.384 . S
C488 H479 0.929 . S
C488 C480 1.378 . S
C488 C483 1.350 . S
C489 H476 0.929 . S
C489 C481 1.433 . S
C489 N491 1.384 . S
N490 C486 1.427 . S
N490 C487 1.384 . S
N491 C483 1.427 . S
N491 C489 1.384 . S
H492 C498 0.930 . S
H493 C502 0.930 . S
H494 C507 0.929 . S
H495 C505 0.929 . S
H496 C500 0.929 . S
H497 C506 0.929 . S
C498 H492 0.930 . S
C498 C499 1.367 . S
C498 C506 1.378 . S
C499 C498 1.367 . S
C499 C507 1.433 . S
C500 H496 0.929 . S
C500 C502 1.378 . S
C500 C504 1.350 . S
C501 C504 1.463 . S
C501 C506 1.350 . S
C501 N509 1.427 . S
C502 H493 0.930 . S
C502 C500 1.378 . S
C502 C503 1.367 . S
C503 C502 1.367 . S
C503 C505 1.433 . S
C504 C500 1.350 . S
C504 C501 1.463 . S
C504 N508 1.427 . S
C505 H495 0.929 . S
C505 C503 1.433 . S
C505 N508 1.384 . S
C506 H497 0.929 . S
C506 C498 1.378 . S
C506 C501 1.350 . S
C507 H494 0.929 . S
C507 C499 1.433 . S
C507 N509 1.384 . S
N508 C504 1.427 . S
N508 C505 1.384 . S
N509 C501 1.427 . S
N509 C507 1.384 . S
H510 C516 0.930 . S
H511 C520 0.930 . S
H512 C525 0.929 . S
H513 C523 0.929 . S
H514 C518 0.929 . S
H515 C524 0.929 . S
C516 H510 0.930 . S
C516 C517 1.367 . S
C516 C524 1.378 . S
C517 C516 1.367 . S
C517 C525 1.433 . S
C518 H514 0.929 . S
C518 C520 1.378 . S
C518 C522 1.350 . S
C519 C522 1.463 1_556 S
C519 C524 1.350 . S
C519 N527 1.427 . S
C520 H511 0.930 . S
C520 C518 1.378 . S
C520 C521 1.367 . S
C521 C520 1.367 . S
C521 C523 1.433 . S
C522 C518 1.350 . S
C522 C519 1.463 1_554 S
C522 N526 1.427 . S
C523 H513 0.929 . S
C523 C521 1.433 . S
C523 N526 1.384 . S
C524 H515 0.929 . S
C524 C516 1.378 . S
C524 C519 1.350 . S
C525 H512 0.929 . S
C525 C517 1.433 . S
C525 N527 1.384 . S
N526 C522 1.427 . S
N526 C523 1.384 . S
N527 C519 1.427 . S
N527 C525 1.384 . S
H528 C534 0.930 . S
H529 C538 0.930 . S
H530 C543 0.929 . S
H531 C541 0.929 . S
H532 C536 0.929 . S
H533 C542 0.929 . S
C534 H528 0.930 . S
C534 C535 1.367 . S
C534 C542 1.378 . S
C535 C534 1.367 . S
C535 C543 1.433 . S
C536 H532 0.929 . S
C536 C538 1.378 . S
C536 C540 1.350 . S
C537 C540 1.463 . S
C537 C542 1.350 . S
C537 N545 1.427 . S
C538 H529 0.930 . S
C538 C536 1.378 . S
C538 C539 1.367 . S
C539 C538 1.367 . S
C539 C541 1.433 . S
C540 C536 1.350 . S
C540 C537 1.463 . S
C540 N544 1.427 . S
C541 H531 0.929 . S
C541 C539 1.433 . S
C541 N544 1.384 . S
C542 H533 0.929 . S
C542 C534 1.378 . S
C542 C537 1.350 . S
C543 H530 0.929 . S
C543 C535 1.433 . S
C543 N545 1.384 . S
N544 C540 1.427 . S
N544 C541 1.384 . S
N545 C537 1.427 . S
N545 C543 1.384 . S
H546 C552 0.930 . S
H547 C556 0.930 . S
H548 C561 0.929 . S
H549 C559 0.929 . S
H550 C554 0.929 . S
H551 C560 0.929 . S
C552 H546 0.930 . S
C552 C553 1.367 . S
C552 C560 1.378 . S
C553 C552 1.367 . S
C553 C561 1.433 . S
C554 H550 0.929 . S
C554 C556 1.378 . S
C554 C558 1.350 . S
C555 C558 1.463 1_554 S
C555 C560 1.350 . S
C555 N563 1.427 . S
C556 H547 0.930 . S
C556 C554 1.378 . S
C556 C557 1.367 . S
C557 C556 1.367 . S
C557 C559 1.433 . S
C558 C554 1.350 . S
C558 C555 1.463 1_556 S
C558 N562 1.427 . S
C559 H549 0.929 . S
C559 C557 1.433 . S
C559 N562 1.384 . S
C560 H551 0.929 . S
C560 C552 1.378 . S
C560 C555 1.350 . S
C561 H548 0.929 . S
C561 C553 1.433 . S
C561 N563 1.384 . S
N562 C558 1.427 . S
N562 C559 1.384 . S
N563 C555 1.427 . S
N563 C561 1.384 . S
H564 C570 0.930 . S
H565 C574 0.930 . S
H566 C579 0.929 . S
H567 C577 0.929 . S
H568 C572 0.929 . S
H569 C578 0.929 . S
C570 H564 0.930 . S
C570 C571 1.367 . S
C570 C578 1.378 . S
C571 C570 1.367 . S
C571 C579 1.433 . S
C572 H568 0.929 . S
C572 C574 1.378 . S
C572 C576 1.350 . S
C573 C576 1.463 . S
C573 C578 1.350 . S
C573 N581 1.427 . S
C574 H565 0.930 . S
C574 C572 1.378 . S
C574 C575 1.367 . S
C575 C574 1.367 . S
C575 C577 1.433 . S
C576 C572 1.350 . S
C576 C573 1.463 . S
C576 N580 1.427 . S
C577 H567 0.929 . S
C577 C575 1.433 . S
C577 N580 1.384 . S
C578 H569 0.929 . S
C578 C570 1.378 . S
C578 C573 1.350 . S
C579 H566 0.929 . S
C579 C571 1.433 . S
C579 N581 1.384 . S
N580 C576 1.427 . S
N580 C577 1.384 . S
N581 C573 1.427 . S
N581 C579 1.384 . S
C211 C3 2.635 1_556 S
C215 C139 2.639 . S
C229 C171 2.638 . S
C233 C37 2.637 . S
C247 C69 2.639 . S
C251 C103 2.635 1_554 S
C265 C22 1.790 . S
C269 C85 1.825 . S
C283 C17 1.831 . S
C287 C56 1.781 . S
C301 C51 1.824 . S
C305 C83 1.791 . S
C319 C117 1.781 . S
C323 C153 1.832 . S
C337 C158 1.787 . S
C341 C187 1.828 . S
C355 C119 1.824 . S
C359 C185 1.793 . S
C373 C137 1.048 . S
C377 C1 1.036 . S
C391 C173 1.055 . S
C395 C35 1.042 . S
C409 C105 1.062 . S
C413 C71 1.054 . S
C427 C15 1.326 . S
C431 C124 1.326 . S
C445 C49 1.310 . S
C449 C151 1.316 . S
C463 C192 1.300 . S
C467 C90 1.296 . S
C481 C6 1.160 . S
C485 C28 1.160 . S
C499 C62 1.164 . S
C503 C40 1.160 . S
C517 C96 1.161 . S
C521 C74 1.161 . S
C535 C130 1.161 . S
C539 C108 1.161 . S
C553 C142 1.155 . S
C557 C164 1.160 . S
C571 C176 1.161 . S
C575 C198 1.154 . S
