# Generated by pormake.
# Topology ure, (4)-cn, num edge types: 1
# Building blocks:
#     Node 0, Type 0, BuildingBlock: NAHDIM_clean_sbu_0, # of connection points: 4
#     Node 1, Type 0, BuildingBlock: NAHDIM_clean_sbu_0, # of connection points: 4
#     Node 2, Type 0, BuildingBlock: NAHDIM_clean_sbu_0, # of connection points: 4
#     Node 3, Type 0, BuildingBlock: NAHDIM_clean_sbu_0, # of connection points: 4
#     Node 4, Type 0, BuildingBlock: NAHDIM_clean_sbu_0, # of connection points: 4
#     Node 5, Type 0, BuildingBlock: NAHDIM_clean_sbu_0, # of connection points: 4
#     Node 6, Type 0, BuildingBlock: NAHDIM_clean_sbu_0, # of connection points: 4
#     Node 7, Type 0, BuildingBlock: NAHDIM_clean_sbu_0, # of connection points: 4
#     Node 8, Type 0, BuildingBlock: NAHDIM_clean_sbu_0, # of connection points: 4
#     Node 9, Type 0, BuildingBlock: NAHDIM_clean_sbu_0, # of connection points: 4
#     Node 10, Type 0, BuildingBlock: NAHDIM_clean_sbu_0, # of connection points: 4
#     Node 11, Type 0, BuildingBlock: NAHDIM_clean_sbu_0, # of connection points: 4
#     Node 12, Type 0, BuildingBlock: NAHDIM_clean_sbu_0, # of connection points: 4
#     Node 13, Type 0, BuildingBlock: NAHDIM_clean_sbu_0, # of connection points: 4
#     Node 14, Type 0, BuildingBlock: NAHDIM_clean_sbu_0, # of connection points: 4
#     Node 15, Type 0, BuildingBlock: NAHDIM_clean_sbu_0, # of connection points: 4
#     Edge 16, Type (0, 0), BuildingBlock: OJICUG_clean_linker_0, # of connection points: 2
#     Edge 17, Type (0, 0), BuildingBlock: OJICUG_clean_linker_0, # of connection points: 2
#     Edge 18, Type (0, 0), BuildingBlock: OJICUG_clean_linker_0, # of connection points: 2
#     Edge 19, Type (0, 0), BuildingBlock: OJICUG_clean_linker_0, # of connection points: 2
#     Edge 20, Type (0, 0), BuildingBlock: OJICUG_clean_linker_0, # of connection points: 2
#     Edge 21, Type (0, 0), BuildingBlock: OJICUG_clean_linker_0, # of connection points: 2
#     Edge 22, Type (0, 0), BuildingBlock: OJICUG_clean_linker_0, # of connection points: 2
#     Edge 23, Type (0, 0), BuildingBlock: OJICUG_clean_linker_0, # of connection points: 2
#     Edge 24, Type (0, 0), BuildingBlock: OJICUG_clean_linker_0, # of connection points: 2
#     Edge 25, Type (0, 0), BuildingBlock: OJICUG_clean_linker_0, # of connection points: 2
#     Edge 26, Type (0, 0), BuildingBlock: OJICUG_clean_linker_0, # of connection points: 2
#     Edge 27, Type (0, 0), BuildingBlock: OJICUG_clean_linker_0, # of connection points: 2
#     Edge 28, Type (0, 0), BuildingBlock: OJICUG_clean_linker_0, # of connection points: 2
#     Edge 29, Type (0, 0), BuildingBlock: OJICUG_clean_linker_0, # of connection points: 2
#     Edge 30, Type (0, 0), BuildingBlock: OJICUG_clean_linker_0, # of connection points: 2
#     Edge 31, Type (0, 0), BuildingBlock: OJICUG_clean_linker_0, # of connection points: 2
#     Edge 32, Type (0, 0), BuildingBlock: OJICUG_clean_linker_0, # of connection points: 2
#     Edge 33, Type (0, 0), BuildingBlock: OJICUG_clean_linker_0, # of connection points: 2
#     Edge 34, Type (0, 0), BuildingBlock: OJICUG_clean_linker_0, # of connection points: 2
#     Edge 35, Type (0, 0), BuildingBlock: OJICUG_clean_linker_0, # of connection points: 2
#     Edge 36, Type (0, 0), BuildingBlock: OJICUG_clean_linker_0, # of connection points: 2
#     Edge 37, Type (0, 0), BuildingBlock: OJICUG_clean_linker_0, # of connection points: 2
#     Edge 38, Type (0, 0), BuildingBlock: OJICUG_clean_linker_0, # of connection points: 2
#     Edge 39, Type (0, 0), BuildingBlock: OJICUG_clean_linker_0, # of connection points: 2
#     Edge 40, Type (0, 0), BuildingBlock: OJICUG_clean_linker_0, # of connection points: 2
#     Edge 41, Type (0, 0), BuildingBlock: OJICUG_clean_linker_0, # of connection points: 2
#     Edge 42, Type (0, 0), BuildingBlock: OJICUG_clean_linker_0, # of connection points: 2
#     Edge 43, Type (0, 0), BuildingBlock: OJICUG_clean_linker_0, # of connection points: 2
#     Edge 44, Type (0, 0), BuildingBlock: OJICUG_clean_linker_0, # of connection points: 2
#     Edge 45, Type (0, 0), BuildingBlock: OJICUG_clean_linker_0, # of connection points: 2
#     Edge 46, Type (0, 0), BuildingBlock: OJICUG_clean_linker_0, # of connection points: 2
#     Edge 47, Type (0, 0), BuildingBlock: OJICUG_clean_linker_0, # of connection points: 2
# Relax obj value: 0.102
# Max RMSD: 0.078
# Mean RMSD: 0.070
data_MOF--net-ure--node1-NAHDIM_clean_sbu_0--edge1-OJICUG_clean_linker_0
_symmetry_space_group_name_H-M    P1
_symmetry_Int_Tables_number       1
_symmetry_cell_setting            triclinic
loop_
_symmetry_equiv_pos_as_xyz
'x, y, z'
_cell_length_a     22.447484
_cell_length_b     23.447469
_cell_length_c     24.157646
_cell_angle_alpha  90.454726
_cell_angle_beta   91.182283
_cell_angle_gamma 93.220217
loop_
_atom_site_label
_atom_site_type_symbol
_atom_site_fract_x
_atom_site_fract_y
_atom_site_fract_z
_atom_type_partial_charge
C0 C 0.22249 0.18246 0.1798 0.0
O1 O 0.27175 0.20557 0.15908 0.0
O2 O 0.33632 0.26027 0.25781 0.0
Zn3 Zn 0.24811 0.26601 0.26598 0.0
O4 O 0.22573 0.3422 0.23602 0.0
C5 C 0.25903 0.22882 0.37882 0.0
O6 O 0.30059 0.19813 0.35816 0.0
O7 O 0.20365 0.20185 0.22503 0.0
C8 C 0.21788 0.3829 0.26965 0.0
O9 O 0.22178 0.37344 0.32305 0.0
C10 C 0.37227 0.2948 0.28437 0.0
O11 O 0.3508 0.33417 0.3161 0.0
O12 O 0.2296 0.26009 0.34682 0.0
C13 C 0.00482 0.88721 0.43188 0.0
O14 O 0.9567 0.86385 0.45444 0.0
O15 O 0.89198 0.96729 0.49551 0.0
Zn16 Zn 0.98082 0.98195 0.50321 0.0
O17 O 0.00698 0.96054 0.58026 0.0
C18 C 0.97118 0.09723 0.46097 0.0
O19 O 0.92853 0.07406 0.42862 0.0
O20 O 0.02327 0.9374 0.4465 0.0
C21 C 0.01502 -0.00081 0.61734 0.0
O22 O 0.00739 0.0526 0.60436 0.0
C23 C 0.85878 0.99523 0.52652 0.0
O24 O 0.88363 0.03167 0.56283 0.0
O25 O -4e-05 0.0657 0.49321 0.0
C26 C 0.28085 0.80537 0.65624 0.0
O27 O 0.23767 0.77849 0.62715 0.0
O28 O 0.15064 0.74175 0.72713 0.0
Zn29 Zn 0.23743 0.73044 0.74193 0.0
O30 O 0.25657 0.65226 0.71464 0.0
C31 C 0.22658 0.76645 0.85715 0.0
O32 O 0.19181 0.80501 0.83733 0.0
O33 O 0.28918 0.79178 0.70648 0.0
C34 C 0.28934 0.6216 0.74431 0.0
O35 O 0.31323 0.64288 0.79062 0.0
C36 C 0.11292 0.71074 0.75362 0.0
O37 O 0.13223 0.67206 0.78764 0.0
O38 O 0.2509 0.73287 0.82412 0.0
C39 C 0.51084 0.05822 0.90234 0.0
O40 O 0.55845 0.03406 0.88477 0.0
O41 O 0.62349 0.00016 0.98837 0.0
Zn42 Zn 0.53576 -0.00155 0.00436 0.0
O43 O 0.52149 0.02456 0.08241 0.0
C44 C 0.53077 0.88092 0.96749 0.0
O45 O 0.58009 0.89771 0.94257 0.0
O46 O 0.49354 0.04889 0.95139 0.0
C47 C 0.52533 0.9894 0.12191 0.0
O48 O 0.53972 0.937 0.11097 0.0
C49 C 0.66527 -0.00195 0.02447 0.0
O50 O 0.65277 -0.00056 0.0773 0.0
O51 O 0.50293 0.91705 0.99501 0.0
C52 C 0.13725 0.76175 0.27338 0.0
O53 O 0.11855 0.71002 0.25736 0.0
O54 O 0.3237 0.76264 0.2173 0.0
Zn55 Zn 0.23723 0.73758 0.20625 0.0
O56 O 0.22643 0.65402 0.22438 0.0
C57 C 0.253 0.73099 0.09206 0.0
O58 O 0.29656 0.70066 0.11061 0.0
O59 O 0.18672 0.78292 0.25602 0.0
C60 C 0.20594 0.61407 0.19223 0.0
O61 O 0.18845 0.6259 0.14162 0.0
C62 C 0.35995 0.73801 0.24896 0.0
O63 O 0.34033 0.69506 0.27944 0.0
O64 O 0.21784 0.75183 0.12639 0.0
C65 C 0.43757 0.97743 0.55579 0.0
O66 O 0.47972 0.00513 0.58547 0.0
O67 O 0.47404 0.12238 0.48243 0.0
Zn68 Zn 0.49337 0.04104 0.46838 0.0
O69 O 0.57547 0.03042 0.49957 0.0
C70 C 0.48172 0.05657 0.34759 0.0
O71 O 0.46016 0.10613 0.35909 0.0
O72 O 0.43399 0.98647 0.50409 0.0
C73 C 0.60533 0.98993 0.48174 0.0
O74 O 0.58046 0.95368 0.44524 0.0
C75 C 0.5129 0.16137 0.46985 0.0
O76 O 0.56275 0.14692 0.44734 0.0
O77 O 0.49611 0.02389 0.38678 0.0
C78 C 0.37265 0.19773 0.75732 0.0
O79 O 0.38807 0.20687 0.70584 0.0
O80 O 0.27384 0.23829 0.64723 0.0
Zn81 Zn 0.26851 0.26081 0.7275 0.0
O82 O 0.18457 0.2409 0.75185 0.0
C83 C 0.29006 0.38055 0.69661 0.0
O84 O 0.2837 0.36101 0.64566 0.0
O85 O 0.32465 0.21718 0.77467 0.0
C86 C 0.15341 0.27494 0.77858 0.0
O87 O 0.17667 0.32575 0.79276 0.0
C88 C 0.23002 0.24712 0.61484 0.0
O89 O 0.18247 0.2693 0.63502 0.0
O90 O 0.28704 0.34585 0.73684 0.0
C91 C 0.0809 0.00733 0.05998 0.0
O92 O 0.03285 0.98321 0.08203 0.0
O93 O 0.04226 0.86738 0.96987 0.0
Zn94 Zn 0.03065 0.95131 0.9634 0.0
O95 O 0.94838 0.96807 0.98759 0.0
C96 C 0.04943 0.93815 0.84591 0.0
O97 O 0.05931 0.88529 0.85934 0.0
O98 O 0.09081 -0.00187 0.00922 0.0
C99 C 0.90402 0.95862 0.95469 0.0
O100 O 0.9128 0.93805 0.90495 0.0
C101 C 0.00417 0.83218 0.99085 0.0
O102 O 0.95678 0.85121 0.01425 0.0
O103 O 0.03796 0.97378 0.88362 0.0
C104 C 0.70059 0.27608 0.86602 0.0
O105 O 0.70235 0.22179 0.87863 0.0
O106 O 0.86639 0.25922 0.79541 0.0
Zn107 Zn 0.77822 0.24647 0.77663 0.0
O108 O 0.75014 0.16346 0.78379 0.0
C109 C 0.80388 0.27264 0.66205 0.0
O110 O 0.85794 0.2588 0.67631 0.0
O111 O 0.73031 0.29545 0.82539 0.0
C112 C 0.75833 0.12747 0.74542 0.0
O113 O 0.78593 0.14451 0.70055 0.0
C114 C 0.90156 0.2186 0.79816 0.0
O115 O 0.87987 0.16573 0.79191 0.0
O116 O 0.76328 0.27061 0.698 0.0
C117 C 0.9386 0.43911 0.05153 0.0
O118 O 0.97969 0.47807 0.06796 0.0
O119 O 0.98183 0.55532 0.96604 0.0
Zn120 Zn 0.98742 0.47145 0.9489 0.0
O121 O 0.0721 0.45195 0.96654 0.0
C122 C 0.9621 0.49437 0.833 0.0
O123 O 0.97181 0.54759 0.84952 0.0
O124 O 0.93267 0.42755 0.00012 0.0
C125 C 0.1125 0.45033 0.93054 0.0
O126 O 0.09836 0.45781 0.87815 0.0
C127 C 0.0254 0.59057 0.95631 0.0
O128 O 0.07356 0.57201 0.93393 0.0
O129 O 0.96529 0.45441 0.86815 0.0
C130 C 0.78279 0.69849 0.30244 0.0
O131 O 0.74054 0.67474 0.27001 0.0
O132 O 0.75644 0.79893 0.17951 0.0
Zn133 Zn 0.73659 0.80246 0.26056 0.0
O134 O 0.64993 0.77785 0.27007 0.0
C135 C 0.75067 0.9251 0.25348 0.0
O136 O 0.74628 0.91395 0.20014 0.0
O137 O 0.78944 0.75263 0.30498 0.0
C138 C 0.61173 0.80333 0.24128 0.0
O139 O 0.63043 0.84381 0.20746 0.0
C140 C 0.72751 0.76605 0.14518 0.0
O141 O 0.68564 0.7299 0.16324 0.0
O142 O 0.74867 0.88397 0.28751 0.0
C143 C 0.9332 0.55918 0.43647 0.0
O144 O 0.97513 0.58319 0.46909 0.0
O145 O 0.06346 0.47471 0.46873 0.0
Zn146 Zn 0.9768 0.45809 0.48456 0.0
O147 O 0.96372 0.47567 0.56518 0.0
C148 C -0.0006 0.34182 0.48922 0.0
O149 O 0.04287 0.36445 0.52099 0.0
O150 O 0.92528 0.50508 0.43581 0.0
C151 C 0.94056 0.44058 0.59953 0.0
O152 O 0.92053 0.38973 0.58219 0.0
C153 C 0.10014 0.50176 0.50155 0.0
O154 O 0.08065 0.52525 0.54677 0.0
O155 O 0.96153 0.37422 0.46829 0.0
C156 C 0.54194 0.42196 0.97879 0.0
O157 O 0.50874 0.4022 0.01931 0.0
O158 O 0.39629 0.49946 0.97541 0.0
Zn159 Zn 0.48032 0.52281 0.00105 0.0
O160 O 0.49074 0.51347 0.08357 0.0
C161 C 0.45966 0.64125 0.98138 0.0
O162 O 0.40438 0.62415 0.99202 0.0
O163 O 0.53729 0.4732 0.96324 0.0
C164 C 0.47408 0.54966 0.11868 0.0
O165 O 0.44798 0.59511 0.10125 0.0
C166 C 0.35796 0.47492 0.00656 0.0
O167 O 0.37312 0.4633 0.05788 0.0
O168 O 0.49977 0.60508 0.98172 0.0
C169 C 0.68856 0.7227 0.69757 0.0
O170 O 0.7279 0.75722 0.67335 0.0
O171 O 0.82979 0.74314 0.78522 0.0
Zn172 Zn 0.74731 0.77064 0.7948 0.0
O173 O 0.74661 0.85249 0.77068 0.0
C174 C 0.76419 0.79103 0.91029 0.0
O175 O 0.81021 0.82206 0.89217 0.0
O176 O 0.68788 0.72134 0.75011 0.0
C177 C 0.71227 0.88821 0.7908 0.0
O178 O 0.67383 0.87132 0.82841 0.0
C179 C 0.86536 0.76516 0.75005 0.0
O180 O 0.84727 0.8058 0.7177 0.0
O181 O 0.729 0.76496 0.8755 0.0
C182 C 0.79128 0.31977 0.2121 0.0
O183 O 0.75249 0.27869 0.19582 0.0
O184 O 0.66204 0.29787 0.30797 0.0
Zn185 Zn 0.74903 0.28173 0.31593 0.0
O186 O 0.75838 0.19946 0.29565 0.0
C187 C 0.74086 0.30784 0.43265 0.0
O188 O 0.686 0.31909 0.41853 0.0
O189 O 0.79789 0.33057 0.26361 0.0
C190 C 0.75635 0.15919 0.33058 0.0
O191 O 0.74967 0.1711 0.38324 0.0
C192 C 0.62576 0.26537 0.27953 0.0
O193 O 0.64581 0.22166 0.25274 0.0
O194 O 0.77657 0.29383 0.39532 0.0
C195 C 0.5273 0.57242 0.56663 0.0
O196 O 0.48664 0.539 0.59044 0.0
O197 O 0.49735 0.43683 0.47573 0.0
Zn198 Zn 0.47587 0.51881 0.46848 0.0
O199 O 0.39102 0.52602 0.49085 0.0
C200 C 0.50438 0.50877 0.35283 0.0
O201 O 0.53084 0.46335 0.36987 0.0
O202 O 0.53129 0.57096 0.51427 0.0
C203 C 0.35243 0.49736 0.46133 0.0
O204 O 0.37063 0.46607 0.42026 0.0
C205 C 0.46783 0.39919 0.50304 0.0
O206 O 0.42261 0.41415 0.53249 0.0
O207 O 0.48004 0.54017 0.38798 0.0
C208 C 0.13786 0.10837 0.1744 0.0
C209 C 0.18837 0.13535 0.15032 0.0
H210 H 0.06472 0.04638 0.16503 0.0
C211 C 0.20514 0.11763 0.09748 0.0
H212 H 0.12397 0.12077 0.21524 0.0
C213 C 0.17108 0.07496 0.06863 0.0
C214 C 0.11971 0.04901 0.09218 0.0
H215 H 0.24396 0.13739 0.07789 0.0
H216 H 0.18449 0.06304 0.02751 0.0
C217 C 0.10398 0.06556 0.14569 0.0
C218 C 0.08968 0.8804 0.36702 0.0
C219 C 0.03779 0.85539 0.39043 0.0
H220 H 0.1616 0.87059 0.31173 0.0
C221 C 0.01819 0.79967 0.37422 0.0
H222 H 0.10598 0.9233 0.37854 0.0
C223 C 0.05005 0.76942 0.33569 0.0
C224 C 0.10229 0.79427 0.31274 0.0
H225 H 0.97845 0.77921 0.39154 0.0
H226 H 0.03399 0.72639 0.32437 0.0
C227 C 0.12159 0.85016 0.32866 0.0
C228 C 0.4026 0.92198 0.63829 0.0
C229 C 0.39625 0.93468 0.58181 0.0
H230 H 0.37128 0.87123 0.70605 0.0
C231 C 0.35085 0.90526 0.55021 0.0
H232 H 0.43706 0.94387 0.66383 0.0
C233 C 0.31304 0.86361 0.57446 0.0
C234 C 0.31991 0.85039 0.63078 0.0
H235 H 0.3447 0.9141 0.50659 0.0
H236 H 0.27876 0.84149 0.54889 0.0
C237 C 0.3649 0.88025 0.66249 0.0
C238 C 0.49448 0.10518 0.81062 0.0
C239 C 0.4768 0.09515 0.86536 0.0
H240 H 0.47554 0.14556 0.73346 0.0
C241 C 0.4256 0.12026 0.88447 0.0
H242 H 0.53383 0.08658 0.79467 0.0
C243 C 0.39234 0.15399 0.84952 0.0
C244 C 0.40945 0.16348 0.79457 0.0
H245 H 0.41079 0.11358 0.92643 0.0
H246 H 0.35288 0.17227 0.8656 0.0
C247 C 0.46111 0.13902 0.77556 0.0
C248 C 0.65846 0.37134 0.88149 0.0
C249 C 0.66179 0.31381 0.89658 0.0
H250 H 0.6181 0.45048 0.89547 0.0
C251 C 0.62634 0.29242 0.93985 0.0
H252 H 0.68521 0.38923 0.84838 0.0
C253 C 0.58774 0.32765 0.96691 0.0
C254 C 0.58379 0.38494 0.9512 0.0
H255 H 0.62786 0.24829 0.95248 0.0
H256 H 0.56065 0.30977 -0.00021 0.0
C257 C 0.61988 0.40648 0.90847 0.0
C258 C 0.85639 0.36724 0.07536 0.0
C259 C 0.90016 0.40923 0.09246 0.0
H260 H 0.78762 0.30626 0.09964 0.0
C261 C 0.90711 0.42234 0.14922 0.0
H262 H 0.84979 0.35621 0.03195 0.0
C263 C 0.8714 0.39375 0.18807 0.0
C264 C 0.828 0.35139 0.17101 0.0
H265 H 0.94034 0.45457 0.16379 0.0
H266 H 0.87814 0.40462 0.2315 0.0
C267 C 0.82071 0.33863 0.11421 0.0
C268 C 0.85026 0.56921 0.36664 0.0
C269 C 0.89527 0.59471 0.40152 0.0
H270 H 0.77955 0.58187 0.30799 0.0
C271 C 0.9034 0.65459 0.40303 0.0
H272 H 0.84286 0.52319 0.36443 0.0
C273 C 0.86702 0.68822 0.37073 0.0
C274 C 0.82178 0.66275 0.3361 0.0
H275 H 0.9377 0.67562 0.42937 0.0
H276 H 0.87423 0.73424 0.37312 0.0
C277 C 0.81393 0.60287 0.33426 0.0
C278 C 0.56487 0.61219 0.65823 0.0
C279 C 0.56804 0.61129 0.6002 0.0
H280 H 0.60035 0.64808 0.73453 0.0
C281 C 0.61065 0.64785 0.57448 0.0
H282 H 0.5325 0.58463 0.67933 0.0
C283 C 0.64945 0.68429 0.60609 0.0
C284 C 0.64659 0.68492 0.66413 0.0
H285 H 0.61421 0.6483 0.52983 0.0
H286 H 0.6819 0.71174 0.58496 0.0
C287 C 0.60377 0.64859 0.68987 0.0
C288 C 0.28833 0.20361 0.47574 0.0
C289 C 0.2494 0.23025 0.4391 0.0
H290 H 0.31266 0.18799 0.56024 0.0
C291 C 0.20263 0.26039 0.46074 0.0
H292 H 0.32491 0.18021 0.46036 0.0
C293 C 0.19559 0.26466 0.51784 0.0
C294 C 0.23525 0.23908 0.55451 0.0
H295 H 0.17191 0.28149 0.43363 0.0
H296 H 0.16007 0.28944 0.53321 0.0
C297 C 0.28144 0.20817 0.53293 0.0
C298 C 0.03573 0.01128 0.77266 0.0
C299 C 0.04591 0.95469 0.78715 0.0
H300 H 0.01865 0.06966 0.70755 0.0
C301 C 0.04949 0.91345 0.74503 0.0
H302 H 0.03309 0.04417 0.80412 0.0
C303 C 0.0405 0.92792 0.68961 0.0
C304 C 0.02855 0.98416 0.6753 0.0
H305 H 0.05788 0.86969 0.75499 0.0
H306 H 0.04211 0.89491 0.65815 0.0
C307 C 0.02742 0.02589 0.71729 0.0
C308 C 0.26453 0.71212 0.93767 0.0
C309 C 0.23422 0.75877 0.91745 0.0
H310 H 0.29326 0.6665 0.0087 0.0
C311 C 0.20993 0.79642 0.95529 0.0
H312 H 0.28364 0.68212 0.9097 0.0
C313 C 0.21496 0.78695 0.01223 0.0
C314 C 0.24542 0.74034 0.03219 0.0
H315 H 0.18666 0.83294 0.94098 0.0
H316 H 0.19578 0.81652 0.04059 0.0
C317 C 0.27005 0.70306 0.99441 0.0
C318 C 0.47778 0.0753 0.24548 0.0
C319 C 0.49198 0.03949 0.28964 0.0
H320 H 0.47739 0.08776 0.15772 0.0
C321 C 0.51754 0.98744 0.27809 0.0
H322 H 0.45807 0.11565 0.25304 0.0
C323 C 0.52853 0.97149 0.22367 0.0
C324 C 0.51421 0.00711 0.17948 0.0
H325 H 0.52945 0.95895 0.31111 0.0
H326 H 0.54882 0.93144 0.21637 0.0
C327 C 0.48894 0.05935 0.19091 0.0
C328 C 0.47721 0.32489 0.31324 0.0
C329 C 0.43732 0.28896 0.28154 0.0
H330 H 0.56814 0.34586 0.33728 0.0
C331 C 0.46008 0.24642 0.24798 0.0
H332 H 0.46108 0.35804 0.33959 0.0
C333 C 0.52135 0.23932 0.24681 0.0
C334 C 0.56121 0.27474 0.27901 0.0
H335 H 0.43053 0.21814 0.22294 0.0
H336 H 0.53733 0.20568 0.22098 0.0
C337 C 0.53857 0.31791 0.31191 0.0
C338 C 0.0259 0.24331 0.51387 0.0
C339 C 0.99412 0.27949 0.47961 0.0
H340 H 0.04423 0.15765 0.53442 0.0
C341 C 0.95726 0.25547 0.43679 0.0
H342 H 0.05449 0.26047 0.54736 0.0
C343 C 0.95054 0.19617 0.4298 0.0
C344 C 0.98137 0.15996 0.46497 0.0
H345 H 0.93292 0.28245 0.4092 0.0
H346 H 0.92067 0.17876 0.39734 0.0
C347 C 0.01984 0.18425 0.5065 0.0
C348 C 0.94868 0.70816 0.78616 0.0
C349 C 0.92765 0.74791 0.74819 0.0
H350 H 0.02365 0.66514 0.81753 0.0
C351 C 0.96737 0.77273 0.70989 0.0
H352 H 0.91921 0.68812 0.81615 0.0
C353 C 0.02724 0.75936 0.71057 0.0
C354 C 0.04867 0.72114 0.74975 0.0
H355 H 0.95258 0.80337 0.67998 0.0
H356 H 0.05698 0.78 0.68116 0.0
C357 C 0.00857 0.69491 0.78691 0.0
C358 C 0.53128 0.72027 0.95181 0.0
C359 C 0.47607 0.70258 0.97417 0.0
H360 H 0.59143 0.79059 0.93131 0.0
C361 C 0.4378 0.74409 0.99202 0.0
H362 H 0.56167 0.68923 0.93764 0.0
C363 C 0.45502 0.80213 0.98889 0.0
C364 C 0.51066 0.81982 0.96736 0.0
H365 H 0.39532 0.73179 0.01004 0.0
H366 H 0.42507 0.83306 0.00409 0.0
C367 C 0.54823 0.77833 0.94808 0.0
C368 C 0.507 0.80884 0.20583 0.0
C369 C 0.54737 0.7867 0.24411 0.0
H370 H 0.41645 0.81122 0.17755 0.0
C371 C 0.5256 0.74854 0.28452 0.0
H372 H 0.52237 0.83753 0.17359 0.0
C373 C 0.46457 0.73311 0.28665 0.0
C374 C 0.42426 0.75546 0.24836 0.0
H375 H 0.55563 0.73069 0.31458 0.0
H376 H 0.449 0.70379 0.31831 0.0
C377 C 0.44617 0.79361 0.20805 0.0
C378 C 0.45286 0.23774 0.5103 0.0
C379 C 0.50205 0.22215 0.47969 0.0
H380 H 0.40363 0.3059 0.54215 0.0
C381 C 0.5409 0.26521 0.45839 0.0
H382 H 0.42237 0.20548 0.52753 0.0
C383 C 0.53039 0.32269 0.46694 0.0
C384 C 0.48086 0.33837 0.49709 0.0
H385 H 0.57908 0.25457 0.43448 0.0
H386 H 0.56082 0.35482 0.44937 0.0
C387 C 0.44238 0.29529 0.51899 0.0
C388 C 0.05207 0.29964 0.80974 0.0
C389 C 0.09005 0.25897 0.78947 0.0
H390 H 0.96262 0.31822 0.82965 0.0
C391 C 0.06622 0.20351 0.77703 0.0
H392 H 0.06908 0.3426 0.82019 0.0
C393 C 0.00531 0.18973 0.78244 0.0
C394 C 0.96684 0.23121 0.79988 0.0
H395 H 0.09432 0.17099 0.7618 0.0
H396 H 0.98805 0.14715 0.7709 0.0
C397 C 0.99102 0.28585 0.81483 0.0
C398 C 0.05658 0.75029 0.95185 0.0
C399 C 0.0107 0.77021 0.98426 0.0
H400 H 0.09763 0.67811 0.91813 0.0
C401 C 0.9697 0.73046 0.00785 0.0
H402 H 0.08769 0.77982 0.93173 0.0
C403 C 0.97454 0.67193 -0.00098 0.0
C404 C 0.0207 0.65217 0.96681 0.0
H405 H 0.93351 0.7445 0.03262 0.0
H406 H 0.94212 0.64221 0.01739 0.0
C407 C 0.06193 0.69192 0.94366 0.0
C408 C 0.20279 0.45232 0.19256 0.0
C409 C 0.21005 0.44138 0.24939 0.0
H410 H 0.19508 0.5158 0.12977 0.0
C411 C 0.21269 0.48744 0.28703 0.0
H412 H 0.2004 0.41769 0.16251 0.0
C413 C 0.21033 0.54332 0.26836 0.0
C414 C 0.20447 0.55449 0.21157 0.0
H415 H 0.21802 0.4806 0.33097 0.0
H416 H 0.2137 0.57786 0.29852 0.0
C417 C 0.19963 0.50844 0.17383 0.0
C418 C 0.77143 0.02471 0.72372 0.0
C419 C 0.74242 0.06623 0.75359 0.0
H420 H 0.78508 0.93591 0.71241 0.0
C421 C 0.70001 0.04864 0.79281 0.0
H422 H 0.80419 0.03699 0.69307 0.0
C423 C 0.68804 0.99057 0.80303 0.0
C424 C 0.71953 0.94912 0.77543 0.0
H425 H 0.67635 0.07976 0.81588 0.0
H426 H 0.65518 0.97829 0.8335 0.0
C427 C 0.76049 0.96677 0.73487 0.0
C428 C 0.28109 0.46872 0.92975 0.0
C429 C 0.29587 0.46306 0.9862 0.0
H430 H 0.21171 0.46811 0.86762 0.0
C431 C 0.25032 0.44836 0.02336 0.0
H432 H 0.31531 0.47943 0.90004 0.0
C433 C 0.19091 0.44206 0.00488 0.0
C434 C 0.17583 0.44983 0.94874 0.0
H435 H 0.26026 0.44348 0.06707 0.0
H436 H 0.15666 0.43257 0.03493 0.0
C437 C 0.22172 0.46193 0.91115 0.0
C438 C 0.75664 0.08659 0.25433 0.0
C439 C 0.75783 0.09931 0.31131 0.0
H440 H 0.75326 0.02181 0.19149 0.0
C441 C 0.75859 0.05425 0.34931 0.0
H442 H 0.75591 0.12028 0.22393 0.0
C443 C 0.75734 -0.00239 0.33056 0.0
C444 C 0.75496 0.98494 0.27356 0.0
H445 H 0.75968 0.06261 0.39351 0.0
H446 H 0.75758 0.96372 0.36066 0.0
C447 C 0.75508 0.03006 0.23568 0.0
C448 C 0.79491 0.9644 0.93464 0.0
C449 C 0.84318 0.96959 0.97257 0.0
H450 H 0.70096 0.96907 0.92167 0.0
C451 C 0.83262 0.98465 0.02784 0.0
H452 H 0.80145 0.95256 0.89185 0.0
C453 C 0.77487 0.99429 0.0448 0.0
C454 C 0.72671 0.98945 0.00673 0.0
H455 H 0.86888 0.98858 0.05816 0.0
H456 H 0.76802 0.00551 0.08767 0.0
C457 C 0.73735 0.97426 0.95159 0.0
C458 C 0.31241 0.52263 0.77138 0.0
C459 C 0.2949 0.56077 0.73034 0.0
H460 H 0.32406 0.43559 0.79308 0.0
C461 C 0.27942 0.5396 0.67713 0.0
H462 H 0.3245 0.53772 0.81281 0.0
C463 C 0.28005 0.48115 0.66556 0.0
C464 C 0.29514 0.44273 0.70731 0.0
H465 H 0.26595 0.56807 0.64467 0.0
H466 H 0.26678 0.46593 0.62443 0.0
C467 C 0.31201 0.46412 0.76014 0.0
C468 C 0.18614 0.46362 0.45222 0.0
C469 C 0.16476 0.50174 0.49128 0.0
H470 H 0.26219 0.43143 0.41354 0.0
C471 C 0.20579 0.5378 0.52162 0.0
H472 H 0.15582 0.43455 0.4288 0.0
C473 C 0.26701 0.53641 0.51227 0.0
C474 C 0.28816 0.49857 0.47275 0.0
H475 H 0.19064 0.56728 0.55236 0.0
H476 H 0.29765 0.56505 0.5358 0.0
C477 C 0.24715 0.46178 0.44343 0.0
C478 C 0.70866 0.7477 0.98985 0.0
C479 C 0.75469 0.7849 0.97037 0.0
H480 H 0.66422 0.71228 0.0602 0.0
C481 C 0.7922 0.81538 0.00887 0.0
H482 H 0.67912 0.72342 0.96126 0.0
C483 C 0.78372 0.80895 0.06566 0.0
C484 C 0.73776 0.77162 0.08514 0.0
H485 H 0.82817 0.84423 0.9952 0.0
H486 H 0.8132 0.83333 0.09423 0.0
C487 C 0.70032 0.74107 0.04661 0.0
C488 C 0.47017 0.56891 0.27435 0.0
C489 C 0.499 0.52074 0.293 0.0
H490 H 0.43986 0.61602 0.20474 0.0
C491 C 0.52051 0.48275 0.25386 0.0
H492 H 0.45283 0.59878 0.30349 0.0
C493 C 0.51267 0.49233 0.19727 0.0
C494 C 0.48335 0.54021 0.1786 0.0
H495 H 0.54274 0.44512 0.26683 0.0
H496 H 0.5293 0.46193 0.1682 0.0
C497 C 0.46257 0.57866 0.21773 0.0
C498 C 0.81638 0.28969 0.5071 0.0
C499 C 0.7586 0.30444 0.49176 0.0
H500 H 0.87616 0.26801 0.57268 0.0
C501 C 0.71677 0.31192 0.53331 0.0
H502 H 0.84943 0.28376 0.47608 0.0
C503 C 0.73192 0.3029 0.58882 0.0
C504 C 0.78922 0.28631 0.6039 0.0
H505 H 0.67179 0.32325 0.52293 0.0
H506 H 0.6983 0.30787 0.61976 0.0
C507 C 0.83158 0.28065 0.56252 0.0
C508 C 0.92508 0.41394 0.69879 0.0
C509 C 0.94129 0.45532 0.65921 0.0
H510 H 0.91801 0.39414 0.7849 0.0
C511 C 0.96117 0.51037 0.67738 0.0
H512 H 0.90936 0.37121 0.68617 0.0
C513 C 0.96637 0.52329 0.73383 0.0
C514 C 0.95221 0.48136 0.77343 0.0
H515 H 0.97379 0.54333 0.64801 0.0
H516 H 0.98302 0.5658 0.74636 0.0
C517 C 0.93054 0.42685 0.75536 0.0
C518 C 0.76617 0.9497 0.48185 0.0
C519 C 0.79323 0.99024 0.51891 0.0
H520 H 0.68542 0.91743 0.44139 0.0
C521 C 0.75728 0.0278 0.54683 0.0
H522 H 0.79263 0.91991 0.45998 0.0
C523 C 0.69587 0.02652 0.53605 0.0
C524 C 0.66911 0.98741 0.49738 0.0
H525 H 0.7767 0.05933 0.57593 0.0
H526 H 0.66964 0.05709 0.55711 0.0
C527 C 0.70468 0.94819 0.4713 0.0
loop_
_geom_bond_atom_site_label_1
_geom_bond_atom_site_label_2
_geom_bond_distance
_geom_bond_site_symmetry_2
_ccdc_geom_bond_type
C0 O1 1.160 . S
C0 O7 1.185 . S
O1 C0 1.160 . S
O2 Zn3 1.899 . S
O2 C10 1.284 . S
Zn3 O2 1.899 . S
Zn3 O4 2.032 . S
Zn3 O7 2.086 . S
Zn3 O12 1.977 . S
O4 Zn3 2.032 . S
O4 C8 1.278 . S
C5 O6 1.203 . S
C5 O12 1.267 . S
O6 C5 1.203 . S
O7 C0 1.185 . S
O7 Zn3 2.086 . S
C8 O4 1.278 . S
C8 O9 1.211 . S
O9 C8 1.211 . S
C10 O2 1.284 . S
C10 O11 1.273 . S
O11 C10 1.273 . S
O12 Zn3 1.977 . S
O12 C5 1.267 . S
C13 O14 1.160 1_455 S
C13 O20 1.185 . S
O14 C13 1.160 1_655 S
O15 Zn16 1.899 . S
O15 C23 1.284 1_545 S
Zn16 O15 1.899 . S
Zn16 O17 2.032 1_545 S
Zn16 O20 2.086 1_645 S
Zn16 O25 1.977 1_655 S
O17 Zn16 2.032 1_565 S
O17 C21 1.278 . S
C18 O19 1.203 . S
C18 O25 1.267 1_655 S
O19 C18 1.203 . S
O20 C13 1.185 . S
O20 Zn16 2.086 1_465 S
C21 O17 1.278 . S
C21 O22 1.211 1_565 S
O22 C21 1.211 1_545 S
C23 O15 1.284 1_565 S
C23 O24 1.273 1_565 S
O24 C23 1.273 1_545 S
O25 Zn16 1.977 1_455 S
O25 C18 1.267 1_455 S
C26 O27 1.160 . S
C26 O33 1.185 . S
O27 C26 1.160 . S
O28 Zn29 1.899 . S
O28 C36 1.284 . S
Zn29 O28 1.899 . S
Zn29 O30 2.032 . S
Zn29 O33 2.086 . S
Zn29 O38 1.977 . S
O30 Zn29 2.032 . S
O30 C34 1.278 . S
C31 O32 1.203 . S
C31 O38 1.267 . S
O32 C31 1.203 . S
O33 C26 1.185 . S
O33 Zn29 2.086 . S
C34 O30 1.278 . S
C34 O35 1.211 . S
O35 C34 1.211 . S
C36 O28 1.284 . S
C36 O37 1.273 . S
O37 C36 1.273 . S
O38 Zn29 1.977 . S
O38 C31 1.267 . S
C39 O40 1.160 . S
C39 O46 1.185 . S
O40 C39 1.160 . S
O41 Zn42 1.899 1_556 S
O41 C49 1.288 . S
Zn42 O41 1.899 1_554 S
Zn42 O43 2.032 1_565 S
Zn42 O46 2.086 1_564 S
Zn42 O51 1.977 1_554 S
O43 Zn42 2.032 1_545 S
O43 C47 1.278 1_545 S
C44 O45 1.203 . S
C44 O51 1.265 1_554 S
O45 C44 1.203 . S
O46 C39 1.185 . S
O46 Zn42 2.086 1_546 S
C47 O43 1.278 1_565 S
C47 O48 1.211 . S
O48 C47 1.211 . S
C49 O41 1.288 . S
C49 O50 1.267 1_556 S
O50 C49 1.267 1_554 S
O51 Zn42 1.977 1_556 S
O51 C44 1.265 1_556 S
C52 O53 1.160 . S
C52 O59 1.185 . S
O53 C52 1.160 . S
O54 Zn55 1.899 . S
O54 C62 1.284 . S
Zn55 O54 1.899 . S
Zn55 O56 2.032 . S
Zn55 O59 2.086 . S
Zn55 O64 1.977 . S
O56 Zn55 2.032 . S
O56 C60 1.278 . S
C57 O58 1.203 . S
C57 O64 1.267 . S
O58 C57 1.203 . S
O59 C52 1.185 . S
O59 Zn55 2.086 . S
C60 O56 1.278 . S
C60 O61 1.211 . S
O61 C60 1.211 . S
C62 O54 1.284 . S
C62 O63 1.273 . S
O63 C62 1.273 . S
O64 Zn55 1.977 . S
O64 C57 1.267 . S
C65 O66 1.160 1_565 S
C65 O72 1.185 . S
O66 C65 1.160 1_545 S
O67 Zn68 1.899 . S
O67 C75 1.284 . S
Zn68 O67 1.899 . S
Zn68 O69 2.032 . S
Zn68 O72 2.086 1_545 S
Zn68 O77 1.977 1_545 S
O69 Zn68 2.032 . S
O69 C73 1.278 . S
C70 O71 1.203 . S
C70 O77 1.267 1_545 S
O71 C70 1.203 . S
O72 C65 1.185 . S
O72 Zn68 2.086 1_565 S
C73 O69 1.278 . S
C73 O74 1.211 . S
O74 C73 1.211 . S
C75 O67 1.284 . S
C75 O76 1.273 . S
O76 C75 1.273 . S
O77 Zn68 1.977 1_565 S
O77 C70 1.267 1_565 S
C78 O79 1.160 . S
C78 O85 1.185 . S
O79 C78 1.160 . S
O80 Zn81 1.899 . S
O80 C88 1.284 . S
Zn81 O80 1.899 . S
Zn81 O82 2.032 . S
Zn81 O85 2.086 . S
Zn81 O90 1.977 . S
O82 Zn81 2.032 . S
O82 C86 1.278 . S
C83 O84 1.203 . S
C83 O90 1.267 . S
O84 C83 1.203 . S
O85 C78 1.185 . S
O85 Zn81 2.086 . S
C86 O82 1.278 . S
C86 O87 1.211 . S
O87 C86 1.211 . S
C88 O80 1.284 . S
C88 O89 1.273 . S
O89 C88 1.273 . S
O90 Zn81 1.977 . S
O90 C83 1.267 . S
C91 O92 1.160 1_545 S
C91 O98 1.178 1_554 S
O92 C91 1.160 1_565 S
O93 Zn94 1.899 1_455 S
O93 C101 1.284 1_455 S
Zn94 O93 1.899 1_655 S
Zn94 O95 2.032 . S
Zn94 O98 2.090 1_665 S
Zn94 O103 1.977 1_665 S
O95 Zn94 2.032 . S
O95 C99 1.278 . S
C96 O97 1.203 . S
C96 O103 1.267 1_665 S
O97 C96 1.203 . S
O98 C91 1.178 1_556 S
O98 Zn94 2.090 1_445 S
C99 O95 1.278 . S
C99 O100 1.211 . S
O100 C99 1.211 . S
C101 O93 1.284 1_655 S
C101 O102 1.273 . S
O102 C101 1.273 . S
O103 Zn94 1.977 1_445 S
O103 C96 1.267 1_445 S
C104 O105 1.160 . S
C104 O111 1.185 . S
O105 C104 1.160 . S
O106 Zn107 1.899 . S
O106 C114 1.284 . S
Zn107 O106 1.899 . S
Zn107 O108 2.032 . S
Zn107 O111 2.086 . S
Zn107 O116 1.977 . S
O108 Zn107 2.032 . S
O108 C112 1.278 . S
C109 O110 1.203 . S
C109 O116 1.267 . S
O110 C109 1.203 . S
O111 C104 1.185 . S
O111 Zn107 2.086 . S
C112 O108 1.278 . S
C112 O113 1.211 . S
O113 C112 1.211 . S
C114 O106 1.284 . S
C114 O115 1.273 . S
O115 C114 1.273 . S
O116 Zn107 1.977 . S
O116 C109 1.267 . S
C117 O118 1.160 . S
C117 O124 1.185 1_554 S
O118 C117 1.160 . S
O119 Zn120 1.899 1_655 S
O119 C127 1.284 1_655 S
Zn120 O119 1.899 1_455 S
Zn120 O121 2.032 . S
Zn120 O124 2.086 1_455 S
Zn120 O129 1.977 1_455 S
O121 Zn120 2.032 . S
O121 C125 1.278 . S
C122 O123 1.203 . S
C122 O129 1.267 1_455 S
O123 C122 1.203 . S
O124 C117 1.185 1_556 S
O124 Zn120 2.086 1_655 S
C125 O121 1.278 . S
C125 O126 1.211 . S
O126 C125 1.211 . S
C127 O119 1.284 1_455 S
C127 O128 1.273 . S
O128 C127 1.273 . S
O129 Zn120 1.977 1_655 S
O129 C122 1.267 1_655 S
C130 O131 1.160 . S
C130 O137 1.185 . S
O131 C130 1.160 . S
O132 Zn133 1.899 . S
O132 C140 1.284 . S
Zn133 O132 1.899 . S
Zn133 O134 2.032 . S
Zn133 O137 2.086 . S
Zn133 O142 1.977 . S
O134 Zn133 2.032 . S
O134 C138 1.278 . S
C135 O136 1.203 . S
C135 O142 1.267 . S
O136 C135 1.203 . S
O137 C130 1.185 . S
O137 Zn133 2.086 . S
C138 O134 1.278 . S
C138 O139 1.211 . S
O139 C138 1.211 . S
C140 O132 1.284 . S
C140 O141 1.273 . S
O141 C140 1.273 . S
O142 Zn133 1.977 . S
O142 C135 1.267 . S
C143 O144 1.160 1_655 S
C143 O150 1.185 . S
O144 C143 1.160 1_455 S
O145 Zn146 1.899 . S
O145 C153 1.284 . S
Zn146 O145 1.899 . S
Zn146 O147 2.028 1_455 S
Zn146 O150 2.086 1_455 S
Zn146 O155 1.977 1_455 S
O147 Zn146 2.028 1_655 S
O147 C151 1.276 1_655 S
C148 O149 1.203 . S
C148 O155 1.267 1_455 S
O149 C148 1.203 . S
O150 C143 1.185 . S
O150 Zn146 2.086 1_655 S
C151 O147 1.276 1_455 S
C151 O152 1.211 . S
O152 C151 1.211 . S
C153 O145 1.284 . S
C153 O154 1.273 . S
O154 C153 1.273 . S
O155 Zn146 1.977 1_655 S
O155 C148 1.267 1_655 S
C156 O157 1.160 . S
C156 O163 1.185 . S
O157 C156 1.160 . S
O158 Zn159 1.899 1_556 S
O158 C166 1.284 1_556 S
Zn159 O158 1.899 1_554 S
Zn159 O160 2.032 . S
Zn159 O163 2.086 1_554 S
Zn159 O168 1.977 . S
O160 Zn159 2.032 . S
O160 C164 1.278 . S
C161 O162 1.203 . S
C161 O168 1.267 . S
O162 C161 1.203 . S
O163 C156 1.185 . S
O163 Zn159 2.086 1_556 S
C164 O160 1.278 . S
C164 O165 1.211 . S
O165 C164 1.211 . S
C166 O158 1.284 1_554 S
C166 O167 1.273 . S
O167 C166 1.273 . S
O168 Zn159 1.977 . S
O168 C161 1.267 . S
C169 O170 1.160 . S
C169 O176 1.185 . S
O170 C169 1.160 . S
O171 Zn172 1.899 . S
O171 C179 1.284 . S
Zn172 O171 1.899 . S
Zn172 O173 2.032 . S
Zn172 O176 2.086 . S
Zn172 O181 1.977 . S
O173 Zn172 2.032 . S
O173 C177 1.278 . S
C174 O175 1.203 . S
C174 O181 1.267 . S
O175 C174 1.203 . S
O176 C169 1.185 . S
O176 Zn172 2.086 . S
C177 O173 1.278 . S
C177 O178 1.211 . S
O178 C177 1.211 . S
C179 O171 1.284 . S
C179 O180 1.273 . S
O180 C179 1.273 . S
O181 Zn172 1.977 . S
O181 C174 1.267 . S
C182 O183 1.160 . S
C182 O189 1.185 . S
O183 C182 1.160 . S
O184 Zn185 1.899 . S
O184 C192 1.284 . S
Zn185 O184 1.899 . S
Zn185 O186 2.032 . S
Zn185 O189 2.086 . S
Zn185 O194 1.977 . S
O186 Zn185 2.032 . S
O186 C190 1.278 . S
C187 O188 1.203 . S
C187 O194 1.267 . S
O188 C187 1.203 . S
O189 C182 1.185 . S
O189 Zn185 2.086 . S
C190 O186 1.278 . S
C190 O191 1.211 . S
O191 C190 1.211 . S
C192 O184 1.284 . S
C192 O193 1.273 . S
O193 C192 1.273 . S
O194 Zn185 1.977 . S
O194 C187 1.267 . S
C195 O196 1.160 . S
C195 O202 1.185 . S
O196 C195 1.160 . S
O197 Zn198 1.899 . S
O197 C205 1.284 . S
Zn198 O197 1.899 . S
Zn198 O199 2.032 . S
Zn198 O202 2.086 . S
Zn198 O207 1.977 . S
O199 Zn198 2.032 . S
O199 C203 1.278 . S
C200 O201 1.203 . S
C200 O207 1.267 . S
O201 C200 1.203 . S
O202 C195 1.185 . S
O202 Zn198 2.086 . S
C203 O199 1.278 . S
C203 O204 1.211 . S
O204 C203 1.211 . S
C205 O197 1.284 . S
C205 O206 1.273 . S
O206 C205 1.273 . S
O207 Zn198 1.977 . S
O207 C200 1.267 . S
C208 C209 1.387 . S
C208 H212 0.950 . S
C208 C217 1.390 . S
C209 C208 1.387 . S
C209 C211 1.387 . S
H210 C217 0.950 . S
C211 C209 1.387 . S
C211 C213 1.390 . S
C211 H215 0.950 . S
H212 C208 0.950 . S
C213 C211 1.390 . S
C213 C214 1.387 . S
C213 H216 0.950 . S
C214 C213 1.387 . S
C214 C217 1.387 . S
H215 C211 0.950 . S
H216 C213 0.950 . S
C217 C208 1.390 . S
C217 H210 0.950 . S
C217 C214 1.387 . S
C218 C219 1.387 . S
C218 H222 0.950 . S
C218 C227 1.390 . S
C219 C218 1.387 . S
C219 C221 1.387 . S
H220 C227 0.950 . S
C221 C219 1.387 . S
C221 C223 1.390 . S
C221 H225 0.950 . S
H222 C218 0.950 . S
C223 C221 1.390 . S
C223 C224 1.387 . S
C223 H226 0.950 . S
C224 C223 1.387 . S
C224 C227 1.387 . S
H225 C221 0.950 . S
H226 C223 0.950 . S
C227 C218 1.390 . S
C227 H220 0.950 . S
C227 C224 1.387 . S
C228 C229 1.387 . S
C228 H232 0.950 . S
C228 C237 1.390 . S
C229 C228 1.387 . S
C229 C231 1.387 . S
H230 C237 0.950 . S
C231 C229 1.387 . S
C231 C233 1.390 . S
C231 H235 0.950 . S
H232 C228 0.950 . S
C233 C231 1.390 . S
C233 C234 1.387 . S
C233 H236 0.950 . S
C234 C233 1.387 . S
C234 C237 1.387 . S
H235 C231 0.950 . S
H236 C233 0.950 . S
C237 C228 1.390 . S
C237 H230 0.950 . S
C237 C234 1.387 . S
C238 C239 1.387 . S
C238 H242 0.950 . S
C238 C247 1.390 . S
C239 C238 1.387 . S
C239 C241 1.387 . S
H240 C247 0.950 . S
C241 C239 1.387 . S
C241 C243 1.390 . S
C241 H245 0.950 . S
H242 C238 0.950 . S
C243 C241 1.390 . S
C243 C244 1.387 . S
C243 H246 0.950 . S
C244 C243 1.387 . S
C244 C247 1.387 . S
H245 C241 0.950 . S
H246 C243 0.950 . S
C247 C238 1.390 . S
C247 H240 0.950 . S
C247 C244 1.387 . S
C248 C249 1.387 . S
C248 H252 0.950 . S
C248 C257 1.390 . S
C249 C248 1.387 . S
C249 C251 1.387 . S
H250 C257 0.950 . S
C251 C249 1.387 . S
C251 C253 1.390 . S
C251 H255 0.950 . S
H252 C248 0.950 . S
C253 C251 1.390 . S
C253 C254 1.387 . S
C253 H256 0.950 . S
C254 C253 1.387 . S
C254 C257 1.387 . S
H255 C251 0.950 . S
H256 C253 0.950 . S
C257 C248 1.390 . S
C257 H250 0.950 . S
C257 C254 1.387 . S
C258 C259 1.387 . S
C258 H262 0.950 . S
C258 C267 1.390 . S
C259 C258 1.387 . S
C259 C261 1.387 . S
H260 C267 0.950 . S
C261 C259 1.387 . S
C261 C263 1.390 . S
C261 H265 0.950 . S
H262 C258 0.950 . S
C263 C261 1.390 . S
C263 C264 1.387 . S
C263 H266 0.950 . S
C264 C263 1.387 . S
C264 C267 1.387 . S
H265 C261 0.950 . S
H266 C263 0.950 . S
C267 C258 1.390 . S
C267 H260 0.950 . S
C267 C264 1.387 . S
C268 C269 1.387 . S
C268 H272 0.950 . S
C268 C277 1.390 . S
C269 C268 1.387 . S
C269 C271 1.387 . S
H270 C277 0.950 . S
C271 C269 1.387 . S
C271 C273 1.390 . S
C271 H275 0.950 . S
H272 C268 0.950 . S
C273 C271 1.390 . S
C273 C274 1.387 . S
C273 H276 0.950 . S
C274 C273 1.387 . S
C274 C277 1.387 . S
H275 C271 0.950 . S
H276 C273 0.950 . S
C277 C268 1.390 . S
C277 H270 0.950 . S
C277 C274 1.387 . S
C278 C279 1.387 . S
C278 H282 0.950 . S
C278 C287 1.390 . S
C279 C278 1.387 . S
C279 C281 1.387 . S
H280 C287 0.950 . S
C281 C279 1.387 . S
C281 C283 1.390 . S
C281 H285 0.950 . S
H282 C278 0.950 . S
C283 C281 1.390 . S
C283 C284 1.387 . S
C283 H286 0.950 . S
C284 C283 1.387 . S
C284 C287 1.387 . S
H285 C281 0.950 . S
H286 C283 0.950 . S
C287 C278 1.390 . S
C287 H280 0.950 . S
C287 C284 1.387 . S
C288 C289 1.387 . S
C288 H292 0.950 . S
C288 C297 1.390 . S
C289 C288 1.387 . S
C289 C291 1.387 . S
H290 C297 0.950 . S
C291 C289 1.387 . S
C291 C293 1.390 . S
C291 H295 0.950 . S
H292 C288 0.950 . S
C293 C291 1.390 . S
C293 C294 1.387 . S
C293 H296 0.950 . S
C294 C293 1.387 . S
C294 C297 1.387 . S
H295 C291 0.950 . S
H296 C293 0.950 . S
C297 C288 1.390 . S
C297 H290 0.950 . S
C297 C294 1.387 . S
C298 C299 1.387 . S
C298 H302 0.950 . S
C298 C307 1.390 . S
C299 C298 1.387 . S
C299 C301 1.387 1_655 S
H300 C307 0.950 . S
C301 C299 1.387 1_455 S
C301 C303 1.390 . S
C301 H305 0.950 . S
H302 C298 0.950 . S
C303 C301 1.390 . S
C303 C304 1.387 1_455 S
C303 H306 0.950 . S
C304 C303 1.387 1_655 S
C304 C307 1.387 . S
H305 C301 0.950 . S
H306 C303 0.950 . S
C307 C298 1.390 . S
C307 H300 0.950 . S
C307 C304 1.387 . S
C308 C309 1.387 . S
C308 H312 0.950 . S
C308 C317 1.390 1_556 S
C309 C308 1.387 . S
C309 C311 1.387 . S
H310 C317 0.950 . S
C311 C309 1.387 . S
C311 C313 1.390 1_556 S
C311 H315 0.950 . S
H312 C308 0.950 . S
C313 C311 1.390 1_554 S
C313 C314 1.387 . S
C313 H316 0.950 . S
C314 C313 1.387 . S
C314 C317 1.387 . S
H315 C311 0.950 . S
H316 C313 0.950 . S
C317 C308 1.390 1_554 S
C317 H310 0.950 . S
C317 C314 1.387 . S
C318 C319 1.395 . S
C318 H322 0.950 . S
C318 C327 1.390 . S
C319 C318 1.395 . S
C319 C321 1.381 1_545 S
H320 C327 0.950 . S
C321 C319 1.381 1_565 S
C321 C323 1.390 . S
C321 H325 0.950 . S
H322 C318 0.950 . S
C323 C321 1.390 . S
C323 C324 1.387 1_565 S
C323 H326 0.950 . S
C324 C323 1.387 1_545 S
C324 C327 1.387 . S
H325 C321 0.950 . S
H326 C323 0.950 . S
C327 C318 1.390 . S
C327 H320 0.950 . S
C327 C324 1.387 . S
C328 C329 1.387 . S
C328 H332 0.950 . S
C328 C337 1.390 . S
C329 C328 1.387 . S
C329 C331 1.387 . S
H330 C337 0.950 . S
C331 C329 1.387 . S
C331 C333 1.390 . S
C331 H335 0.950 . S
H332 C328 0.950 . S
C333 C331 1.390 . S
C333 C334 1.387 . S
C333 H336 0.950 . S
C334 C333 1.387 . S
C334 C337 1.387 . S
H335 C331 0.950 . S
H336 C333 0.950 . S
C337 C328 1.390 . S
C337 H330 0.950 . S
C337 C334 1.387 . S
C338 C339 1.387 1_455 S
C338 H342 0.950 . S
C338 C347 1.390 . S
C339 C338 1.387 1_655 S
C339 C341 1.387 . S
H340 C347 0.950 . S
C341 C339 1.387 . S
C341 C343 1.390 . S
C341 H345 0.950 . S
H342 C338 0.950 . S
C343 C341 1.390 . S
C343 C344 1.387 1_655 S
C343 H346 0.950 . S
C344 C343 1.387 1_455 S
C344 C347 1.387 . S
H345 C341 0.950 . S
H346 C343 0.950 . S
C347 C338 1.390 . S
C347 H340 0.950 . S
C347 C344 1.387 . S
C348 C349 1.387 . S
C348 H352 0.950 . S
C348 C357 1.390 1_655 S
C349 C348 1.387 . S
C349 C351 1.387 . S
H350 C357 0.950 . S
C351 C349 1.387 . S
C351 C353 1.390 1_655 S
C351 H355 0.950 . S
H352 C348 0.950 . S
C353 C351 1.390 1_455 S
C353 C354 1.387 . S
C353 H356 0.950 . S
C354 C353 1.387 . S
C354 C357 1.387 . S
H355 C351 0.950 . S
H356 C353 0.950 . S
C357 C348 1.390 1_455 S
C357 H350 0.950 . S
C357 C354 1.387 . S
C358 C359 1.387 1_556 S
C358 H362 0.950 . S
C358 C367 1.390 . S
C359 C358 1.387 1_554 S
C359 C361 1.387 . S
H360 C367 0.950 . S
C361 C359 1.387 . S
C361 C363 1.390 . S
C361 H365 0.950 . S
H362 C358 0.950 . S
C363 C361 1.390 . S
C363 C364 1.387 . S
C363 H366 0.950 . S
C364 C363 1.387 . S
C364 C367 1.387 1_554 S
H365 C361 0.950 . S
H366 C363 0.950 . S
C367 C358 1.390 . S
C367 H360 0.950 . S
C367 C364 1.387 1_556 S
C368 C369 1.387 . S
C368 H372 0.950 . S
C368 C377 1.390 . S
C369 C368 1.387 . S
C369 C371 1.387 . S
H370 C377 0.950 . S
C371 C369 1.387 . S
C371 C373 1.390 . S
C371 H375 0.950 . S
H372 C368 0.950 . S
C373 C371 1.390 . S
C373 C374 1.387 . S
C373 H376 0.950 . S
C374 C373 1.387 . S
C374 C377 1.387 . S
H375 C371 0.950 . S
H376 C373 0.950 . S
C377 C368 1.390 . S
C377 H370 0.950 . S
C377 C374 1.387 . S
C378 C379 1.387 . S
C378 H382 0.950 . S
C378 C387 1.390 . S
C379 C378 1.387 . S
C379 C381 1.387 . S
H380 C387 0.950 . S
C381 C379 1.387 . S
C381 C383 1.390 . S
C381 H385 0.950 . S
H382 C378 0.950 . S
C383 C381 1.390 . S
C383 C384 1.387 . S
C383 H386 0.950 . S
C384 C383 1.387 . S
C384 C387 1.387 . S
H385 C381 0.950 . S
H386 C383 0.950 . S
C387 C378 1.390 . S
C387 H380 0.950 . S
C387 C384 1.387 . S
C388 C389 1.387 . S
C388 H392 0.950 . S
C388 C397 1.390 1_455 S
C389 C388 1.387 . S
C389 C391 1.387 . S
H390 C397 0.950 . S
C391 C389 1.387 . S
C391 C393 1.390 1_455 S
C391 H395 0.950 . S
H392 C388 0.950 . S
C393 C391 1.390 1_655 S
C393 C394 1.387 . S
C393 H396 0.950 . S
C394 C393 1.387 . S
C394 C397 1.387 . S
H395 C391 0.950 . S
H396 C393 0.950 . S
C397 C388 1.390 1_655 S
C397 H390 0.950 . S
C397 C394 1.387 . S
C398 C399 1.387 . S
C398 H402 0.950 . S
C398 C407 1.390 1_455 S
C399 C398 1.387 . S
C399 C401 1.387 1_556 S
H400 C407 0.950 . S
C401 C399 1.387 1_554 S
C401 C403 1.390 1_455 S
C401 H405 0.950 . S
H402 C398 0.950 . S
C403 C401 1.390 1_655 S
C403 C404 1.387 1_554 S
C403 H406 0.950 . S
C404 C403 1.387 1_556 S
C404 C407 1.387 . S
H405 C401 0.950 . S
H406 C403 0.950 . S
C407 C398 1.390 1_655 S
C407 H400 0.950 . S
C407 C404 1.387 . S
C408 C409 1.387 . S
C408 H412 0.950 . S
C408 C417 1.390 . S
C409 C408 1.387 . S
C409 C411 1.387 . S
H410 C417 0.950 . S
C411 C409 1.387 . S
C411 C413 1.390 . S
C411 H415 0.950 . S
H412 C408 0.950 . S
C413 C411 1.390 . S
C413 C414 1.387 . S
C413 H416 0.950 . S
C414 C413 1.387 . S
C414 C417 1.387 . S
H415 C411 0.950 . S
H416 C413 0.950 . S
C417 C408 1.390 . S
C417 H410 0.950 . S
C417 C414 1.387 . S
C418 C419 1.387 . S
C418 H422 0.950 . S
C418 C427 1.390 1_545 S
C419 C418 1.387 . S
C419 C421 1.387 . S
H420 C427 0.950 . S
C421 C419 1.387 . S
C421 C423 1.390 1_545 S
C421 H425 0.950 . S
H422 C418 0.950 . S
C423 C421 1.390 1_565 S
C423 C424 1.387 . S
C423 H426 0.950 . S
C424 C423 1.387 . S
C424 C427 1.387 . S
H425 C421 0.950 . S
H426 C423 0.950 . S
C427 C418 1.390 1_565 S
C427 H420 0.950 . S
C427 C424 1.387 . S
C428 C429 1.387 . S
C428 H432 0.950 . S
C428 C437 1.390 . S
C429 C428 1.387 . S
C429 C431 1.387 1_556 S
H430 C437 0.950 . S
C431 C429 1.387 1_554 S
C431 C433 1.390 . S
C431 H435 0.950 . S
H432 C428 0.950 . S
C433 C431 1.390 . S
C433 C434 1.387 1_554 S
C433 H436 0.950 . S
C434 C433 1.387 1_556 S
C434 C437 1.387 . S
H435 C431 0.950 . S
H436 C433 0.950 . S
C437 C428 1.390 . S
C437 H430 0.950 . S
C437 C434 1.387 . S
C438 C439 1.387 . S
C438 H442 0.950 . S
C438 C447 1.390 1_545 S
C439 C438 1.387 . S
C439 C441 1.387 . S
H440 C447 0.950 . S
C441 C439 1.387 . S
C441 C443 1.390 1_545 S
C441 H445 0.950 . S
H442 C438 0.950 . S
C443 C441 1.390 1_565 S
C443 C444 1.387 . S
C443 H446 0.950 . S
C444 C443 1.387 . S
C444 C447 1.387 . S
H445 C441 0.950 . S
H446 C443 0.950 . S
C447 C438 1.390 1_565 S
C447 H440 0.950 . S
C447 C444 1.387 . S
C448 C449 1.387 . S
C448 H452 0.950 . S
C448 C457 1.390 . S
C449 C448 1.387 . S
C449 C451 1.387 1_566 S
H450 C457 0.950 . S
C451 C449 1.387 1_544 S
C451 C453 1.390 . S
C451 H455 0.950 . S
H452 C448 0.950 . S
C453 C451 1.390 . S
C453 C454 1.387 1_544 S
C453 H456 0.950 . S
C454 C453 1.387 1_566 S
C454 C457 1.387 . S
H455 C451 0.950 . S
H456 C453 0.950 . S
C457 C448 1.390 . S
C457 H450 0.950 . S
C457 C454 1.387 . S
C458 C459 1.387 . S
C458 H462 0.950 . S
C458 C467 1.390 . S
C459 C458 1.387 . S
C459 C461 1.387 . S
H460 C467 0.950 . S
C461 C459 1.387 . S
C461 C463 1.390 . S
C461 H465 0.950 . S
H462 C458 0.950 . S
C463 C461 1.390 . S
C463 C464 1.387 . S
C463 H466 0.950 . S
C464 C463 1.387 . S
C464 C467 1.387 . S
H465 C461 0.950 . S
H466 C463 0.950 . S
C467 C458 1.390 . S
C467 H460 0.950 . S
C467 C464 1.387 . S
C468 C469 1.387 . S
C468 H472 0.950 . S
C468 C477 1.390 . S
C469 C468 1.387 . S
C469 C471 1.387 . S
H470 C477 0.950 . S
C471 C469 1.387 . S
C471 C473 1.390 . S
C471 H475 0.950 . S
H472 C468 0.950 . S
C473 C471 1.390 . S
C473 C474 1.387 . S
C473 H476 0.950 . S
C474 C473 1.387 . S
C474 C477 1.387 . S
H475 C471 0.950 . S
H476 C473 0.950 . S
C477 C468 1.390 . S
C477 H470 0.950 . S
C477 C474 1.387 . S
C478 C479 1.387 . S
C478 H482 0.950 . S
C478 C487 1.390 1_556 S
C479 C478 1.387 . S
C479 C481 1.387 . S
H480 C487 0.950 . S
C481 C479 1.387 . S
C481 C483 1.390 1_556 S
C481 H485 0.950 . S
H482 C478 0.950 . S
C483 C481 1.390 1_554 S
C483 C484 1.387 . S
C483 H486 0.950 . S
C484 C483 1.387 . S
C484 C487 1.387 . S
H485 C481 0.950 . S
H486 C483 0.950 . S
C487 C478 1.390 1_554 S
C487 H480 0.950 . S
C487 C484 1.387 . S
C488 C489 1.387 . S
C488 H492 0.950 . S
C488 C497 1.390 . S
C489 C488 1.387 . S
C489 C491 1.387 . S
H490 C497 0.950 . S
C491 C489 1.387 . S
C491 C493 1.390 . S
C491 H495 0.950 . S
H492 C488 0.950 . S
C493 C491 1.390 . S
C493 C494 1.387 . S
C493 H496 0.950 . S
C494 C493 1.387 . S
C494 C497 1.387 . S
H495 C491 0.950 . S
H496 C493 0.950 . S
C497 C488 1.390 . S
C497 H490 0.950 . S
C497 C494 1.387 . S
C498 C499 1.387 . S
C498 H502 0.950 . S
C498 C507 1.390 . S
C499 C498 1.387 . S
C499 C501 1.387 . S
H500 C507 0.950 . S
C501 C499 1.387 . S
C501 C503 1.390 . S
C501 H505 0.950 . S
H502 C498 0.950 . S
C503 C501 1.390 . S
C503 C504 1.387 . S
C503 H506 0.950 . S
C504 C503 1.387 . S
C504 C507 1.387 . S
H505 C501 0.950 . S
H506 C503 0.950 . S
C507 C498 1.390 . S
C507 H500 0.950 . S
C507 C504 1.387 . S
C508 C509 1.387 . S
C508 H512 0.950 . S
C508 C517 1.390 . S
C509 C508 1.387 . S
C509 C511 1.387 1_455 S
H510 C517 0.950 . S
C511 C509 1.387 1_655 S
C511 C513 1.390 . S
C511 H515 0.950 . S
H512 C508 0.950 . S
C513 C511 1.390 . S
C513 C514 1.388 . S
C513 H516 0.950 . S
C514 C513 1.388 . S
C514 C517 1.387 1_655 S
H515 C511 0.950 . S
H516 C513 0.950 . S
C517 C508 1.390 . S
C517 H510 0.950 . S
C517 C514 1.387 1_455 S
C518 C519 1.387 1_545 S
C518 H522 0.950 . S
C518 C527 1.390 . S
C519 C518 1.387 1_565 S
C519 C521 1.387 . S
H520 C527 0.950 . S
C521 C519 1.387 . S
C521 C523 1.390 . S
C521 H525 0.950 . S
H522 C518 0.950 . S
C523 C521 1.390 . S
C523 C524 1.387 1_565 S
C523 H526 0.950 . S
C524 C523 1.387 1_545 S
C524 C527 1.387 . S
H525 C521 0.950 . S
H526 C523 0.950 . S
C527 C518 1.390 . S
C527 H520 0.950 . S
C527 C524 1.387 . S
C209 C0 1.636 . S
C214 C91 1.671 . S
C219 C13 1.624 . S
C224 C52 1.623 . S
C229 C65 1.639 . S
C234 C26 1.620 . S
C239 C39 1.613 . S
C244 C78 1.629 . S
C249 C104 1.623 . S
C254 C156 1.624 . S
C259 C117 1.638 . S
C264 C182 1.621 . S
C269 C143 1.612 . S
C274 C130 1.630 . S
C279 C195 1.670 . S
C284 C169 1.637 . S
C289 C5 1.255 . S
C294 C88 1.275 . S
C299 C96 1.230 . S
C304 C21 1.211 . S
C309 C31 1.253 . S
C314 C57 1.274 . S
C319 C70 1.276 . S
C324 C47 1.257 1_545 S
C329 C10 1.312 . S
C334 C192 1.311 . S
C339 C148 1.239 1_655 S
C344 C18 1.246 1_455 S
C349 C179 1.315 . S
C354 C36 1.313 . S
C359 C161 1.250 . S
C364 C44 1.243 . S
C369 C138 1.285 . S
C374 C62 1.317 . S
C379 C75 1.322 . S
C384 C205 1.318 . S
C389 C86 1.290 . S
C394 C114 1.321 . S
C399 C101 1.314 1_455 S
C404 C127 1.318 1_655 S
C409 C8 1.263 . S
C414 C60 1.261 . S
C419 C112 1.257 . S
C424 C177 1.258 . S
C429 C166 1.264 1_556 S
C434 C125 1.243 . S
C439 C190 1.190 . S
C444 C135 1.206 . S
C449 C99 1.283 . S
C454 C49 1.309 . S
C459 C34 1.192 . S
C464 C83 1.206 . S
C469 C153 1.307 . S
C474 C203 1.283 . S
C479 C174 1.255 . S
C484 C140 1.275 . S
C489 C200 1.230 . S
C494 C164 1.211 . S
C499 C187 1.254 . S
C504 C109 1.275 . S
C509 C151 1.256 . S
C514 C122 1.270 1_655 S
C519 C23 1.263 . S
C524 C73 1.241 . S
