# Generated by pormake.
# Topology wiq, (6)-cn, num edge types: 1
# Building blocks:
#     Node 0, Type 0, BuildingBlock: MAKGUD_clean_sbu_1, # of connection points: 6
#     Node 1, Type 0, BuildingBlock: MAKGUD_clean_sbu_1, # of connection points: 6
#     Node 2, Type 0, BuildingBlock: MAKGUD_clean_sbu_1, # of connection points: 6
#     Node 3, Type 0, BuildingBlock: MAKGUD_clean_sbu_1, # of connection points: 6
#     Node 4, Type 0, BuildingBlock: MAKGUD_clean_sbu_1, # of connection points: 6
#     Node 5, Type 0, BuildingBlock: MAKGUD_clean_sbu_1, # of connection points: 6
#     Node 6, Type 0, BuildingBlock: MAKGUD_clean_sbu_1, # of connection points: 6
#     Node 7, Type 0, BuildingBlock: MAKGUD_clean_sbu_1, # of connection points: 6
#     Node 8, Type 0, BuildingBlock: MAKGUD_clean_sbu_1, # of connection points: 6
#     Node 9, Type 0, BuildingBlock: MAKGUD_clean_sbu_1, # of connection points: 6
#     Node 10, Type 0, BuildingBlock: MAKGUD_clean_sbu_1, # of connection points: 6
#     Node 11, Type 0, BuildingBlock: MAKGUD_clean_sbu_1, # of connection points: 6
#     Node 12, Type 0, BuildingBlock: MAKGUD_clean_sbu_1, # of connection points: 6
#     Node 13, Type 0, BuildingBlock: MAKGUD_clean_sbu_1, # of connection points: 6
#     Node 14, Type 0, BuildingBlock: MAKGUD_clean_sbu_1, # of connection points: 6
#     Node 15, Type 0, BuildingBlock: MAKGUD_clean_sbu_1, # of connection points: 6
#     Node 16, Type 0, BuildingBlock: MAKGUD_clean_sbu_1, # of connection points: 6
#     Node 17, Type 0, BuildingBlock: MAKGUD_clean_sbu_1, # of connection points: 6
#     Node 18, Type 0, BuildingBlock: MAKGUD_clean_sbu_1, # of connection points: 6
#     Node 19, Type 0, BuildingBlock: MAKGUD_clean_sbu_1, # of connection points: 6
#     Node 20, Type 0, BuildingBlock: MAKGUD_clean_sbu_1, # of connection points: 6
#     Node 21, Type 0, BuildingBlock: MAKGUD_clean_sbu_1, # of connection points: 6
#     Node 22, Type 0, BuildingBlock: MAKGUD_clean_sbu_1, # of connection points: 6
#     Node 23, Type 0, BuildingBlock: MAKGUD_clean_sbu_1, # of connection points: 6
#     Node 24, Type 0, BuildingBlock: MAKGUD_clean_sbu_1, # of connection points: 6
#     Node 25, Type 0, BuildingBlock: MAKGUD_clean_sbu_1, # of connection points: 6
#     Node 26, Type 0, BuildingBlock: MAKGUD_clean_sbu_1, # of connection points: 6
#     Node 27, Type 0, BuildingBlock: MAKGUD_clean_sbu_1, # of connection points: 6
#     Node 28, Type 0, BuildingBlock: MAKGUD_clean_sbu_1, # of connection points: 6
#     Node 29, Type 0, BuildingBlock: MAKGUD_clean_sbu_1, # of connection points: 6
#     Node 30, Type 0, BuildingBlock: MAKGUD_clean_sbu_1, # of connection points: 6
#     Node 31, Type 0, BuildingBlock: MAKGUD_clean_sbu_1, # of connection points: 6
#     Edge 32, Type (0, 0), BuildingBlock: OJICUG_clean_linker_0, # of connection points: 2
#     Edge 33, Type (0, 0), BuildingBlock: OJICUG_clean_linker_0, # of connection points: 2
#     Edge 34, Type (0, 0), BuildingBlock: OJICUG_clean_linker_0, # of connection points: 2
#     Edge 35, Type (0, 0), BuildingBlock: OJICUG_clean_linker_0, # of connection points: 2
#     Edge 36, Type (0, 0), BuildingBlock: OJICUG_clean_linker_0, # of connection points: 2
#     Edge 37, Type (0, 0), BuildingBlock: OJICUG_clean_linker_0, # of connection points: 2
#     Edge 38, Type (0, 0), BuildingBlock: OJICUG_clean_linker_0, # of connection points: 2
#     Edge 39, Type (0, 0), BuildingBlock: OJICUG_clean_linker_0, # of connection points: 2
#     Edge 40, Type (0, 0), BuildingBlock: OJICUG_clean_linker_0, # of connection points: 2
#     Edge 41, Type (0, 0), BuildingBlock: OJICUG_clean_linker_0, # of connection points: 2
#     Edge 42, Type (0, 0), BuildingBlock: OJICUG_clean_linker_0, # of connection points: 2
#     Edge 43, Type (0, 0), BuildingBlock: OJICUG_clean_linker_0, # of connection points: 2
#     Edge 44, Type (0, 0), BuildingBlock: OJICUG_clean_linker_0, # of connection points: 2
#     Edge 45, Type (0, 0), BuildingBlock: OJICUG_clean_linker_0, # of connection points: 2
#     Edge 46, Type (0, 0), BuildingBlock: OJICUG_clean_linker_0, # of connection points: 2
#     Edge 47, Type (0, 0), BuildingBlock: OJICUG_clean_linker_0, # of connection points: 2
#     Edge 48, Type (0, 0), BuildingBlock: OJICUG_clean_linker_0, # of connection points: 2
#     Edge 49, Type (0, 0), BuildingBlock: OJICUG_clean_linker_0, # of connection points: 2
#     Edge 50, Type (0, 0), BuildingBlock: OJICUG_clean_linker_0, # of connection points: 2
#     Edge 51, Type (0, 0), BuildingBlock: OJICUG_clean_linker_0, # of connection points: 2
#     Edge 52, Type (0, 0), BuildingBlock: OJICUG_clean_linker_0, # of connection points: 2
#     Edge 53, Type (0, 0), BuildingBlock: OJICUG_clean_linker_0, # of connection points: 2
#     Edge 54, Type (0, 0), BuildingBlock: OJICUG_clean_linker_0, # of connection points: 2
#     Edge 55, Type (0, 0), BuildingBlock: OJICUG_clean_linker_0, # of connection points: 2
#     Edge 56, Type (0, 0), BuildingBlock: OJICUG_clean_linker_0, # of connection points: 2
#     Edge 57, Type (0, 0), BuildingBlock: OJICUG_clean_linker_0, # of connection points: 2
#     Edge 58, Type (0, 0), BuildingBlock: OJICUG_clean_linker_0, # of connection points: 2
#     Edge 59, Type (0, 0), BuildingBlock: OJICUG_clean_linker_0, # of connection points: 2
#     Edge 60, Type (0, 0), BuildingBlock: OJICUG_clean_linker_0, # of connection points: 2
#     Edge 61, Type (0, 0), BuildingBlock: OJICUG_clean_linker_0, # of connection points: 2
#     Edge 62, Type (0, 0), BuildingBlock: OJICUG_clean_linker_0, # of connection points: 2
#     Edge 63, Type (0, 0), BuildingBlock: OJICUG_clean_linker_0, # of connection points: 2
#     Edge 64, Type (0, 0), BuildingBlock: OJICUG_clean_linker_0, # of connection points: 2
#     Edge 65, Type (0, 0), BuildingBlock: OJICUG_clean_linker_0, # of connection points: 2
#     Edge 66, Type (0, 0), BuildingBlock: OJICUG_clean_linker_0, # of connection points: 2
#     Edge 67, Type (0, 0), BuildingBlock: OJICUG_clean_linker_0, # of connection points: 2
#     Edge 68, Type (0, 0), BuildingBlock: OJICUG_clean_linker_0, # of connection points: 2
#     Edge 69, Type (0, 0), BuildingBlock: OJICUG_clean_linker_0, # of connection points: 2
#     Edge 70, Type (0, 0), BuildingBlock: OJICUG_clean_linker_0, # of connection points: 2
#     Edge 71, Type (0, 0), BuildingBlock: OJICUG_clean_linker_0, # of connection points: 2
#     Edge 72, Type (0, 0), BuildingBlock: OJICUG_clean_linker_0, # of connection points: 2
#     Edge 73, Type (0, 0), BuildingBlock: OJICUG_clean_linker_0, # of connection points: 2
#     Edge 74, Type (0, 0), BuildingBlock: OJICUG_clean_linker_0, # of connection points: 2
#     Edge 75, Type (0, 0), BuildingBlock: OJICUG_clean_linker_0, # of connection points: 2
#     Edge 76, Type (0, 0), BuildingBlock: OJICUG_clean_linker_0, # of connection points: 2
#     Edge 77, Type (0, 0), BuildingBlock: OJICUG_clean_linker_0, # of connection points: 2
#     Edge 78, Type (0, 0), BuildingBlock: OJICUG_clean_linker_0, # of connection points: 2
#     Edge 79, Type (0, 0), BuildingBlock: OJICUG_clean_linker_0, # of connection points: 2
#     Edge 80, Type (0, 0), BuildingBlock: OJICUG_clean_linker_0, # of connection points: 2
#     Edge 81, Type (0, 0), BuildingBlock: OJICUG_clean_linker_0, # of connection points: 2
#     Edge 82, Type (0, 0), BuildingBlock: OJICUG_clean_linker_0, # of connection points: 2
#     Edge 83, Type (0, 0), BuildingBlock: OJICUG_clean_linker_0, # of connection points: 2
#     Edge 84, Type (0, 0), BuildingBlock: OJICUG_clean_linker_0, # of connection points: 2
#     Edge 85, Type (0, 0), BuildingBlock: OJICUG_clean_linker_0, # of connection points: 2
#     Edge 86, Type (0, 0), BuildingBlock: OJICUG_clean_linker_0, # of connection points: 2
#     Edge 87, Type (0, 0), BuildingBlock: OJICUG_clean_linker_0, # of connection points: 2
#     Edge 88, Type (0, 0), BuildingBlock: OJICUG_clean_linker_0, # of connection points: 2
#     Edge 89, Type (0, 0), BuildingBlock: OJICUG_clean_linker_0, # of connection points: 2
#     Edge 90, Type (0, 0), BuildingBlock: OJICUG_clean_linker_0, # of connection points: 2
#     Edge 91, Type (0, 0), BuildingBlock: OJICUG_clean_linker_0, # of connection points: 2
#     Edge 92, Type (0, 0), BuildingBlock: OJICUG_clean_linker_0, # of connection points: 2
#     Edge 93, Type (0, 0), BuildingBlock: OJICUG_clean_linker_0, # of connection points: 2
#     Edge 94, Type (0, 0), BuildingBlock: OJICUG_clean_linker_0, # of connection points: 2
#     Edge 95, Type (0, 0), BuildingBlock: OJICUG_clean_linker_0, # of connection points: 2
#     Edge 96, Type (0, 0), BuildingBlock: OJICUG_clean_linker_0, # of connection points: 2
#     Edge 97, Type (0, 0), BuildingBlock: OJICUG_clean_linker_0, # of connection points: 2
#     Edge 98, Type (0, 0), BuildingBlock: OJICUG_clean_linker_0, # of connection points: 2
#     Edge 99, Type (0, 0), BuildingBlock: OJICUG_clean_linker_0, # of connection points: 2
#     Edge 100, Type (0, 0), BuildingBlock: OJICUG_clean_linker_0, # of connection points: 2
#     Edge 101, Type (0, 0), BuildingBlock: OJICUG_clean_linker_0, # of connection points: 2
#     Edge 102, Type (0, 0), BuildingBlock: OJICUG_clean_linker_0, # of connection points: 2
#     Edge 103, Type (0, 0), BuildingBlock: OJICUG_clean_linker_0, # of connection points: 2
#     Edge 104, Type (0, 0), BuildingBlock: OJICUG_clean_linker_0, # of connection points: 2
#     Edge 105, Type (0, 0), BuildingBlock: OJICUG_clean_linker_0, # of connection points: 2
#     Edge 106, Type (0, 0), BuildingBlock: OJICUG_clean_linker_0, # of connection points: 2
#     Edge 107, Type (0, 0), BuildingBlock: OJICUG_clean_linker_0, # of connection points: 2
#     Edge 108, Type (0, 0), BuildingBlock: OJICUG_clean_linker_0, # of connection points: 2
#     Edge 109, Type (0, 0), BuildingBlock: OJICUG_clean_linker_0, # of connection points: 2
#     Edge 110, Type (0, 0), BuildingBlock: OJICUG_clean_linker_0, # of connection points: 2
#     Edge 111, Type (0, 0), BuildingBlock: OJICUG_clean_linker_0, # of connection points: 2
#     Edge 112, Type (0, 0), BuildingBlock: OJICUG_clean_linker_0, # of connection points: 2
#     Edge 113, Type (0, 0), BuildingBlock: OJICUG_clean_linker_0, # of connection points: 2
#     Edge 114, Type (0, 0), BuildingBlock: OJICUG_clean_linker_0, # of connection points: 2
#     Edge 115, Type (0, 0), BuildingBlock: OJICUG_clean_linker_0, # of connection points: 2
#     Edge 116, Type (0, 0), BuildingBlock: OJICUG_clean_linker_0, # of connection points: 2
#     Edge 117, Type (0, 0), BuildingBlock: OJICUG_clean_linker_0, # of connection points: 2
#     Edge 118, Type (0, 0), BuildingBlock: OJICUG_clean_linker_0, # of connection points: 2
#     Edge 119, Type (0, 0), BuildingBlock: OJICUG_clean_linker_0, # of connection points: 2
#     Edge 120, Type (0, 0), BuildingBlock: OJICUG_clean_linker_0, # of connection points: 2
#     Edge 121, Type (0, 0), BuildingBlock: OJICUG_clean_linker_0, # of connection points: 2
#     Edge 122, Type (0, 0), BuildingBlock: OJICUG_clean_linker_0, # of connection points: 2
#     Edge 123, Type (0, 0), BuildingBlock: OJICUG_clean_linker_0, # of connection points: 2
#     Edge 124, Type (0, 0), BuildingBlock: OJICUG_clean_linker_0, # of connection points: 2
#     Edge 125, Type (0, 0), BuildingBlock: OJICUG_clean_linker_0, # of connection points: 2
#     Edge 126, Type (0, 0), BuildingBlock: OJICUG_clean_linker_0, # of connection points: 2
#     Edge 127, Type (0, 0), BuildingBlock: OJICUG_clean_linker_0, # of connection points: 2
# Relax obj value: 0.275
# Max RMSD: 0.259
# Mean RMSD: 0.259
data_MOF--net-wiq--node1-MAKGUD_clean_sbu_1--edge1-OJICUG_clean_linker_0
_symmetry_space_group_name_H-M    P1
_symmetry_Int_Tables_number       1
_symmetry_cell_setting            triclinic
loop_
_symmetry_equiv_pos_as_xyz
'x, y, z'
_cell_length_a     39.715867
_cell_length_b     39.509968
_cell_length_c     42.893843
_cell_angle_alpha  89.913328
_cell_angle_beta   89.990406
_cell_angle_gamma 90.106546
loop_
_atom_site_label
_atom_site_type_symbol
_atom_site_fract_x
_atom_site_fract_y
_atom_site_fract_z
_atom_type_partial_charge
O0 O 0.1427 0.2932 0.39758 0.0
Tb1 Tb 0.17331 0.25582 0.37317 0.0
C2 C 0.15709 0.1823 0.38503 0.0
O3 O 0.23685 0.22339 0.32625 0.0
Tb4 Tb 0.19572 0.18568 0.32308 0.0
C5 C 0.22082 0.12282 0.32004 0.0
O6 O 0.20821 0.2727 0.33823 0.0
O7 O 0.16688 0.19295 0.28033 0.0
C8 C 0.18151 0.20328 0.25445 0.0
O9 O 0.21273 0.21427 0.25572 0.0
O10 O 0.1761 0.20679 0.39552 0.0
O11 O 0.15303 0.17911 0.35479 0.0
O12 O 0.13017 0.25925 0.34274 0.0
C13 C 0.23485 0.25687 0.32778 0.0
C14 C 0.16629 0.30451 0.41572 0.0
O15 O 0.2164 0.14019 0.34547 0.0
O16 O 0.21219 0.14142 0.29633 0.0
C17 C 0.10017 0.25078 0.35279 0.0
O18 O 0.09751 0.23219 0.37807 0.0
O19 O 0.1941 0.28812 0.41025 0.0
O20 O 0.19947 0.97052 0.59638 0.0
Tb21 Tb 0.15484 0.95023 0.57283 0.0
C22 C 0.08543 0.98745 0.57342 0.0
O23 O 0.12483 0.93555 0.64343 0.0
Tb24 Tb 0.0765 0.93082 0.62044 0.0
C25 C 1.02313 0.93521 0.65845 0.0
O26 O 0.15693 0.90918 0.60698 0.0
O27 O 0.0787 0.87723 0.61282 0.0
C28 C 0.07337 0.859 0.63784 0.0
O29 O 0.07522 0.87395 0.66513 0.0
O30 O 0.11823 0.99134 0.57604 0.0
O31 O 0.07166 0.95764 0.5769 0.0
O32 O 0.14947 0.92103 0.52991 0.0
C33 C 0.14859 0.91382 0.63638 0.0
C34 C 0.21658 0.97695 0.5712 0.0
O35 O 0.05174 0.95089 0.66259 0.0
O36 O 1.02444 0.91864 0.63238 0.0
C37 C 0.13884 0.9355 0.50402 0.0
O38 O 0.12657 0.96632 0.50546 0.0
O39 O 0.19869 0.9687 0.54704 0.0
O40 O 0.36966 0.96214 0.84742 0.0
Tb41 Tb 0.38676 0.91569 0.82419 0.0
C42 C 0.3499 0.84545 0.82601 0.0
O43 O 0.40359 0.88094 0.89303 0.0
Tb44 Tb 0.40802 0.83252 0.8698 0.0
C45 C 0.40104 0.77794 0.90653 0.0
O46 O 0.42853 0.91575 0.85746 0.0
O47 O 0.46149 0.83257 0.86215 0.0
C48 C 0.47932 0.82458 0.88676 0.0
O49 O 0.46442 0.82459 0.91411 0.0
O50 O 0.34582 0.87852 0.82852 0.0
O51 O 0.38009 0.83237 0.82674 0.0
O52 O 0.41493 0.90831 0.78106 0.0
C53 C 0.42548 0.90481 0.88636 0.0
C54 C 0.36403 0.97959 0.82219 0.0
O55 O 0.389 0.80794 0.91254 0.0
O56 O 0.41521 0.77864 0.87925 0.0
C57 C 0.39972 0.89743 0.75568 0.0
O58 O 0.36859 0.88635 0.75787 0.0
O59 O 0.37033 0.96062 0.79818 0.0
O60 O 0.38158 0.12136 1.04666 0.0
Tb61 Tb 0.42642 0.13755 0.07263 0.0
C62 C 0.49622 0.10018 0.07427 0.0
O63 O 0.45726 0.15746 0.14197 0.0
Tb64 Tb 0.50402 0.16118 0.11634 0.0
C65 C 0.55739 0.1606 0.15447 0.0
O66 O 0.42386 0.18043 0.10473 0.0
O67 O 0.49893 0.2127 0.10084 0.0
C68 C 0.50293 0.23616 0.12201 0.0
O69 O 0.50357 0.22708 0.1515 0.0
O70 O 0.46335 0.09632 0.07769 0.0
O71 O 0.50979 0.13026 0.0755 0.0
O72 O 0.43552 0.16611 1.02986 0.0
C73 C 0.4325 0.17764 0.13421 0.0
C74 C 0.36288 0.11455 0.07078 0.0
O75 O 0.53046 0.14207 0.15791 0.0
O76 O 0.55445 0.17848 0.12921 0.0
C77 C 0.44654 0.15118 1.00439 0.0
O78 O 0.45603 0.11938 1.00597 0.0
O79 O 0.38047 0.11966 0.09593 0.0
O80 O 0.21654 0.95958 0.29018 0.0
Tb81 Tb 0.20057 0.91287 0.31384 0.0
C82 C 0.24013 0.84378 0.31215 0.0
O83 O 0.18365 0.88014 0.24441 0.0
Tb84 Tb 0.18123 0.83203 0.26876 0.0
C85 C 0.18637 0.77844 0.23113 0.0
O86 O 0.15843 0.91299 0.28098 0.0
O87 O 0.12822 0.8335 0.27853 0.0
C88 C 0.10872 0.83321 0.25393 0.0
O89 O 0.12264 0.83532 0.22621 0.0
O90 O 0.24266 0.87701 0.30931 0.0
O91 O 0.21072 0.82898 0.3108 0.0
O92 O 0.17188 0.905 0.3567 0.0
C93 C 0.16174 0.90367 0.25168 0.0
C94 C 0.22232 0.97715 0.31526 0.0
O95 O 0.20137 0.80744 0.22668 0.0
O96 O 0.16976 0.77954 0.25718 0.0
C97 C 0.18659 0.89475 0.38257 0.0
O98 O 0.21805 0.88462 0.38135 0.0
O99 O 0.21672 0.95811 0.33946 0.0
O100 O 0.37832 0.97464 0.59089 0.0
Tb101 Tb 0.42176 0.95604 0.56479 0.0
C102 C 0.49327 0.99002 0.55855 0.0
O103 O 0.45429 0.9411 0.49858 0.0
Tb104 Tb 0.50597 0.93356 0.51189 0.0
C105 C 0.55128 0.95184 0.46894 0.0
O106 O 0.41884 0.91433 0.53153 0.0
O107 O 0.51275 0.88121 0.52405 0.0
C108 C 0.54302 0.87049 0.53112 0.0
O109 O 0.56862 0.8915 0.52956 0.0
O110 O 0.46051 0.99546 0.56033 0.0
O111 O 0.50493 0.95917 0.55634 0.0
O112 O 0.42823 0.92672 0.60751 0.0
C113 C 0.43325 0.91621 0.50402 0.0
C114 C 0.36003 0.98238 0.56681 0.0
O115 O 0.55568 0.9533 0.499 0.0
O116 O 0.52089 0.94131 0.46329 0.0
C117 C 0.44084 0.94064 0.63284 0.0
O118 O 0.45386 0.97117 0.63094 0.0
O119 O 0.37697 0.97607 0.54153 0.0
O120 O 0.3789 0.14208 0.84033 0.0
Tb121 Tb 0.39545 0.18642 0.81384 0.0
C122 C 0.35004 0.25487 0.80147 0.0
O123 O 0.41176 0.19587 0.73741 0.0
Tb124 Tb 0.40915 0.24807 0.75197 0.0
C125 C 0.4203 0.29194 0.70545 0.0
O126 O 0.43772 0.17902 0.78178 0.0
O127 O 0.44512 0.26139 0.78789 0.0
C128 C 0.47668 0.25218 0.78484 0.0
O129 O 0.4844 0.22957 0.76365 0.0
O130 O 0.35822 0.2277 0.8181 0.0
O131 O 0.3646 0.26443 0.77541 0.0
O132 O 0.42495 0.18933 0.85672 0.0
C133 C 0.43276 0.17556 0.75159 0.0
C134 C 0.36676 0.12504 0.81703 0.0
O135 O 0.39231 0.27549 0.71008 0.0
O136 O 0.44208 0.28283 0.72639 0.0
C137 C 0.41179 0.20196 0.8824 0.0
O138 O 0.38261 0.21745 0.88072 0.0
O139 O 0.36955 0.1433 0.7918 0.0
O140 O 0.04915 0.14186 0.98019 0.0
Tb141 Tb 0.08434 0.16423 1.01404 0.0
C142 C 0.15693 0.17985 1.00302 0.0
O143 O 0.11754 0.10111 1.0611 0.0
Tb144 Tb 0.15533 0.14207 1.0651 0.0
C145 C 0.21792 0.11678 0.06717 0.0
O146 O 0.06846 0.13054 1.05042 0.0
O147 O 0.14841 0.17134 0.10769 0.0
C148 C 0.13757 0.15708 0.13359 0.0
O149 O 0.12616 0.12587 0.13253 0.0
O150 O 0.13377 0.15865 0.99381 0.0
O151 O 0.16073 0.18472 1.03306 0.0
O152 O 0.07775 0.20707 1.04463 0.0
C153 C 0.08422 0.10331 1.05984 0.0
C154 C 1.03768 0.17065 0.96975 0.0
O155 O 0.20047 0.12214 1.04198 0.0
O156 O 0.19956 0.12462 0.09121 0.0
C157 C 0.08702 0.23749 1.03602 0.0
O158 O 0.10714 0.24098 1.01195 0.0
O159 O 0.05271 0.19538 0.98404 0.0
O160 O 0.87195 0.95531 0.8417 0.0
Tb161 Tb 0.88751 0.90988 0.81632 0.0
C162 C 0.85026 0.84034 0.81718 0.0
O163 O 0.90324 0.87601 0.74642 0.0
Tb164 Tb 0.90482 0.82753 0.77017 0.0
C165 C 0.89181 0.77407 0.73376 0.0
O166 O 0.92905 0.90936 0.78262 0.0
O167 O 0.95846 0.82454 0.7752 0.0
C168 C 0.97449 0.81524 0.74997 0.0
O169 O 0.95787 0.81399 0.72352 0.0
O170 O 0.84588 0.87326 0.81425 0.0
O171 O 0.88051 0.8278 0.815 0.0
O172 O 0.91657 0.90348 0.85914 0.0
C173 C 0.92557 0.89933 0.75348 0.0
C174 C 0.8648 0.97365 0.81743 0.0
O175 O 0.88142 0.80487 0.72858 0.0
O176 O 0.90788 0.77349 0.76012 0.0
C177 C 0.90226 0.8923 0.88491 0.0
O178 O 0.87138 0.88043 0.88349 0.0
O179 O 0.86966 0.95569 0.79242 0.0
O180 O 0.88276 0.11943 0.53984 0.0
Tb181 Tb 0.9271 0.13883 0.56434 0.0
C182 C 0.99686 0.10261 0.56236 0.0
O183 O 0.9604 0.15177 0.49533 0.0
Tb184 Tb 1.01095 0.15596 0.51381 0.0
C185 C 0.06175 0.13809 0.47642 0.0
O186 O 0.92738 0.17971 0.5301 0.0
O187 O 1.01505 0.21011 0.51591 0.0
C188 C 1.02528 0.2255 0.49049 0.0
O189 O 1.03049 0.20762 0.46517 0.0
O190 O 0.96403 0.09815 0.56198 0.0
O191 O 1.00957 0.13297 0.5594 0.0
O192 O 0.93182 0.16916 0.60654 0.0
C193 C 0.93911 0.17623 0.50158 0.0
C194 C 0.86532 0.11244 0.5647 0.0
O195 O 1.0299 0.13337 0.47044 0.0
O196 O 0.0646 0.15115 0.50409 0.0
C197 C 0.94419 0.1562 0.63241 0.0
O198 O 0.95808 0.12606 0.63145 0.0
O199 O 0.88288 0.12001 0.58926 0.0
O200 O 0.71454 0.12989 0.28619 0.0
Tb201 Tb 0.69825 0.17665 0.3095 0.0
C202 C 0.73626 0.24635 0.30836 0.0
O203 O 0.68221 0.21222 0.24068 0.0
Tb204 Tb 0.67987 0.26112 0.2634 0.0
C205 C 0.69266 0.31455 0.22681 0.0
O206 O 0.65644 0.17785 0.27619 0.0
O207 O 0.62609 0.26472 0.26808 0.0
C208 C 0.61023 0.2722 0.24217 0.0
O209 O 0.62724 0.27143 0.2159 0.0
O210 O 0.73983 0.21322 0.30584 0.0
O211 O 0.70626 0.25984 0.30728 0.0
O212 O 0.67001 0.18403 0.35262 0.0
C213 C 0.65928 0.18937 0.24742 0.0
C214 C 0.72008 0.11239 0.31142 0.0
O215 O 0.70208 0.28356 0.2211 0.0
O216 O 0.67782 0.31531 0.25378 0.0
C217 C 0.6853 0.19428 0.37821 0.0
O218 O 0.71665 0.20474 0.37628 0.0
O219 O 0.71415 0.13148 0.33543 0.0
O220 O 0.7015 0.96515 0.09003 0.0
Tb221 Tb 0.65729 0.94951 1.06308 0.0
C222 C 0.58768 0.98651 1.0631 0.0
O223 O 0.62744 0.93366 0.99245 0.0
Tb224 Tb 0.57973 0.92976 1.01685 0.0
C225 C 0.52602 0.93431 0.97971 0.0
O226 O 0.65965 0.9081 1.02925 0.0
O227 O 0.58301 0.87642 1.0253 0.0
C228 C 0.58348 0.8574 1.00036 0.0
O229 O 0.58586 0.87203 0.97292 0.0
O230 O 0.62044 0.99084 1.05974 0.0
O231 O 0.57462 0.95636 1.0603 0.0
O232 O 0.64899 0.91997 0.10546 0.0
C233 C 0.6514 0.91221 0.99975 0.0
C234 C 0.72034 0.97331 1.06641 0.0
O235 O 0.55365 0.95187 0.97637 0.0
O236 O 0.52857 0.91535 1.00432 0.0
C237 C 0.63788 0.93446 0.13114 0.0
O238 O 0.62739 0.96594 0.12974 0.0
O239 O 0.70324 0.96891 1.04085 0.0
O240 O 0.86932 0.13671 0.84599 0.0
Tb241 Tb 0.88692 0.18281 0.82244 0.0
C242 C 0.84717 0.25267 0.82348 0.0
O243 O 0.90614 0.2142 0.88965 0.0
Tb244 Tb 0.90875 0.26173 0.86518 0.0
C245 C 0.90715 0.31278 0.90579 0.0
O246 O 0.9303 0.18045 0.85374 0.0
O247 O 0.95936 0.25696 0.84745 0.0
C248 C 0.971 0.28066 0.82885 0.0
O249 O 0.95055 0.30459 0.81918 0.0
O250 O 0.84532 0.21943 0.82727 0.0
O251 O 0.87581 0.26886 0.82593 0.0
O252 O 0.91468 0.19081 0.7792 0.0
C253 C 0.9287 0.19147 0.88255 0.0
C254 C 0.86381 0.11915 0.82085 0.0
O255 O 0.8883 0.28584 0.90731 0.0
O256 O 0.92628 0.311 0.88133 0.0
C257 C 0.89923 0.20041 0.75352 0.0
O258 O 0.86762 0.20999 0.75522 0.0
O259 O 0.8704 0.13789 0.79666 0.0
O260 O 0.70433 0.11622 0.54268 0.0
Tb261 Tb 0.66029 0.1338 0.56844 0.0
C262 C 0.58906 0.09966 0.57276 0.0
O263 O 0.63143 0.14437 0.63746 0.0
Tb264 Tb 0.57938 0.15059 0.62479 0.0
C265 C 0.53221 0.1311 0.66541 0.0
O266 O 0.66228 0.17442 0.60292 0.0
O267 O 0.57529 0.20447 0.62241 0.0
C268 C 0.55009 0.21818 0.60742 0.0
O269 O 0.52934 0.19888 0.5915 0.0
O270 O 0.62172 0.09413 0.57059 0.0
O271 O 0.57777 0.13016 0.57813 0.0
O272 O 0.65488 0.16397 0.52605 0.0
C273 C 0.6512 0.17022 0.63158 0.0
C274 C 0.72195 0.10737 0.56685 0.0
O275 O 0.56432 0.13306 0.67127 0.0
O276 O 0.52722 0.13836 0.63619 0.0
C277 C 0.64226 0.15066 0.50043 0.0
O278 O 0.62857 0.1204 0.50187 0.0
O279 O 0.70442 0.11269 0.59198 0.0
O280 O 0.70823 0.94877 0.29449 0.0
Tb281 Tb 0.69267 0.90445 0.32165 0.0
C282 C 0.73692 0.83535 0.33476 0.0
O283 O 0.67677 0.89553 0.39733 0.0
Tb284 Tb 0.67704 0.84292 0.38389 0.0
C285 C 0.66639 0.80098 0.43189 0.0
O286 O 0.65009 0.9116 0.35337 0.0
O287 O 0.64026 0.82899 0.34889 0.0
C288 C 0.60888 0.83872 0.35199 0.0
O289 O 0.60156 0.86152 0.37311 0.0
O290 O 0.73139 0.86424 0.31964 0.0
O291 O 0.71968 0.82428 0.35886 0.0
O292 O 0.66344 0.89918 0.2788 0.0
C293 C 0.655 0.91525 0.38353 0.0
C294 C 0.71946 0.96669 0.31764 0.0
O295 O 0.64354 0.81208 0.4128 0.0
O296 O 0.69531 0.81433 0.42451 0.0
C297 C 0.67734 0.88731 0.25315 0.0
O298 O 0.70755 0.87396 0.25481 0.0
O299 O 0.71689 0.94885 0.34313 0.0
O300 O 0.88173 0.96713 0.09829 0.0
Tb301 Tb 0.92776 0.94902 0.0755 0.0
C302 C 0.99732 0.98708 0.07837 0.0
O303 O 0.95644 0.93101 0.14673 0.0
Tb304 Tb 1.00433 0.92763 0.12253 0.0
C305 C 0.05746 0.93021 0.16084 0.0
O306 O 0.92491 0.90692 0.10852 0.0
O307 O 1.00153 0.87521 0.1096 0.0
C308 C 0.9983 0.8534 0.13239 0.0
O309 O 0.99076 0.86478 0.16029 0.0
O310 O 0.96433 0.99045 0.08054 0.0
O311 O 1.01134 0.95738 0.08101 0.0
O312 O 0.93542 0.92048 1.03255 0.0
C313 C 0.93154 0.91112 0.13831 0.0
C314 C 0.86482 0.97302 0.0729 0.0
O315 O 1.03005 0.94799 0.16405 0.0
O316 O 0.05493 0.9118 0.13593 0.0
C317 C 0.94586 0.9356 1.00689 0.0
O318 O 0.95652 0.96704 1.00861 0.0
O319 O 0.88378 0.96624 1.04903 0.0
O320 O 0.6643 0.80894 0.88123 0.0
Tb321 Tb 0.67676 0.75681 0.86884 0.0
C322 C 0.65971 0.68346 0.88426 0.0
O323 O 0.74127 0.71431 0.82972 0.0
Tb324 Tb 0.69972 0.67811 0.82285 0.0
C325 C 0.72023 0.61352 0.8191 0.0
O326 O 0.70729 0.76059 0.82752 0.0
O327 O 0.67634 0.69026 0.77816 0.0
C328 C 0.69487 0.7033 0.75565 0.0
O329 O 0.72598 0.71226 0.762 0.0
O330 O 0.67919 0.70859 0.89305 0.0
O331 O 0.65646 0.67639 0.85442 0.0
O332 O 0.62437 0.75569 0.85616 0.0
C333 C 0.73744 0.74743 0.82719 0.0
C334 C 0.68104 0.81014 0.90719 0.0
O335 O 0.71257 0.63292 0.79568 0.0
O336 O 0.71745 0.63097 0.84468 0.0
C337 C 0.6027 0.7517 0.87887 0.0
O338 O 0.61401 0.74334 0.9066 0.0
O339 O 0.69642 0.78134 0.91127 0.0
O340 O 0.70686 0.46821 0.09408 0.0
Tb341 Tb 0.66138 0.45024 0.07008 0.0
C342 C 0.5916 0.48716 0.07038 0.0
O343 O 0.62987 0.43191 0.14062 0.0
Tb344 Tb 0.58279 0.42879 0.11521 0.0
C345 C 0.52863 0.43392 0.15193 0.0
O346 O 0.66278 0.40806 0.10325 0.0
O347 O 0.5858 0.37554 0.10543 0.0
C348 C 0.56391 0.36213 0.08613 0.0
O349 O 0.54714 0.38211 0.0672 0.0
O350 O 0.6244 0.49153 0.07352 0.0
O351 O 0.57875 0.4568 0.07227 0.0
O352 O 0.65436 0.4209 1.02743 0.0
C353 C 0.65466 0.41169 0.13283 0.0
C354 C 0.72474 0.47376 0.06916 0.0
O355 O 0.55655 0.45087 0.15563 0.0
O356 O 0.53122 0.41509 0.12733 0.0
C357 C 0.6417 0.4346 1.00197 0.0
O358 O 0.62917 0.4653 1.00347 0.0
O359 O 0.70647 0.46699 1.04478 0.0
O360 O 0.87549 0.44922 0.29469 0.0
Tb361 Tb 0.89146 0.40467 0.32143 0.0
C362 C 0.85218 0.33406 0.3255 0.0
O363 O 0.91109 0.38136 0.39327 0.0
Tb364 Tb 0.91395 0.3331 0.36966 0.0
C365 C 0.91922 0.28347 0.41163 0.0
O366 O 0.93393 0.41084 0.35338 0.0
O367 O 0.95814 0.32998 0.34051 0.0
C368 C 0.98776 0.33846 0.35145 0.0
O369 O 0.98951 0.35692 0.37683 0.0
O370 O 0.84998 0.36753 0.32554 0.0
O371 O 0.87986 0.31824 0.33326 0.0
O372 O 0.92022 0.39668 0.27877 0.0
C373 C 0.92978 0.40648 0.38348 0.0
C374 C 0.86701 0.46775 0.31845 0.0
O375 O 0.89173 0.30021 0.40566 0.0
O376 O 0.94343 0.29482 0.39419 0.0
C377 C 0.90547 0.38644 0.25296 0.0
O378 O 0.87407 0.37602 0.25426 0.0
O379 O 0.87123 0.4502 0.34384 0.0
O380 O 0.88292 0.62525 0.54933 0.0
Tb381 Tb 0.9271 0.64176 0.57585 0.0
C382 C 0.99666 0.60416 0.57761 0.0
O383 O 0.95578 0.65893 0.64716 0.0
Tb384 Tb 1.00359 0.66307 0.62286 0.0
C385 C 0.05684 0.66154 0.66126 0.0
O386 O 0.92379 0.68329 0.60939 0.0
O387 O 1.0001 0.71542 0.60973 0.0
C388 C 0.99672 0.73729 0.63237 0.0
O389 O 0.98949 0.72597 0.6604 0.0
O390 O 0.96374 0.60046 0.57997 0.0
O391 O 1.01069 0.63385 0.58104 0.0
O392 O 0.93437 0.67016 0.53262 0.0
C393 C 0.93076 0.67879 0.63911 0.0
C394 C 0.86464 0.61647 0.57312 0.0
O395 O 1.02973 0.64318 0.66443 0.0
O396 O 0.05399 0.67988 0.63628 0.0
C397 C 0.94509 0.65497 0.50714 0.0
O398 O 0.95629 0.62378 0.50926 0.0
O399 O 0.8819 0.62124 0.5985 0.0
O400 O 0.70617 0.44883 0.83613 0.0
Tb401 Tb 0.68808 0.40477 0.8098 0.0
C402 C 0.72729 0.33426 0.80488 0.0
O403 O 0.66707 0.37812 0.73917 0.0
Tb404 Tb 0.66419 0.32985 0.763 0.0
C405 C 0.66122 0.27992 0.72092 0.0
O406 O 0.645 0.40948 0.77834 0.0
O407 O 0.62021 0.32549 0.79253 0.0
C408 C 0.59061 0.33613 0.78321 0.0
O409 O 0.5887 0.35548 0.75837 0.0
O410 O 0.72911 0.36775 0.80364 0.0
O411 O 0.69921 0.31778 0.79965 0.0
O412 O 0.66161 0.39718 0.85389 0.0
C413 C 0.64845 0.40349 0.74838 0.0
C414 C 0.7131 0.46791 0.81228 0.0
O415 O 0.63597 0.29158 0.73686 0.0
O416 O 0.68839 0.29642 0.72867 0.0
C417 C 0.67805 0.38756 0.87907 0.0
O418 O 0.70933 0.37725 0.87616 0.0
O419 O 0.70682 0.45098 0.78694 0.0
O420 O 0.88789 0.4649 0.0903 0.0
Tb421 Tb 0.93212 0.4479 1.06395 0.0
C422 C 1.00345 0.48638 1.06097 0.0
O423 O 0.95773 0.43327 0.995 0.0
Tb424 Tb 1.00591 0.42512 1.01674 0.0
C425 C 0.05329 0.41929 0.97314 0.0
O426 O 0.92651 0.40634 1.03077 0.0
O427 O 1.01126 0.38156 1.04676 0.0
C428 C 1.00126 0.35149 1.03785 0.0
O429 O 0.98048 0.34887 1.01419 0.0
O430 O 0.97011 0.4888 1.06008 0.0
O431 O 1.01935 0.45834 1.05421 0.0
O432 O 0.93905 0.41789 0.10616 0.0
C433 C 0.93412 0.41141 1.00139 0.0
C434 C 0.86961 0.47329 1.06636 0.0
O435 O 1.04289 0.44788 0.98483 0.0
O436 O 1.03702 0.39437 0.986 0.0
C437 C 0.95035 0.43172 0.13204 0.0
O438 O 0.96228 0.46275 0.13103 0.0
O439 O 0.8871 0.46846 1.04112 0.0
O440 O 0.8733 0.63155 0.29057 0.0
Tb441 Tb 0.88882 0.67774 0.31522 0.0
C442 C 0.84964 0.7464 0.31279 0.0
O443 O 0.90563 0.71262 0.24585 0.0
Tb444 Tb 0.90663 0.76143 0.26884 0.0
C445 C 0.89278 0.81419 0.2318 0.0
O446 O 0.93117 0.67953 0.28246 0.0
O447 O 0.96008 0.76641 0.27541 0.0
C448 C 0.9765 0.77664 0.25064 0.0
O449 O 0.96051 0.77756 0.22384 0.0
O450 O 0.84645 0.71318 0.31145 0.0
O451 O 0.87953 0.76012 0.31216 0.0
O452 O 0.91669 0.68468 0.35867 0.0
C453 C 0.92818 0.68973 0.25331 0.0
C454 C 0.86735 0.61339 0.31531 0.0
O455 O 0.88472 0.78282 0.22602 0.0
O456 O 0.90704 0.81564 0.259 0.0
C457 C 0.90171 0.69567 0.38413 0.0
O458 O 0.87069 0.70696 0.38213 0.0
O459 O 0.87276 0.63182 0.33988 0.0
O460 O 0.52763 0.67205 0.50536 0.0
Tb461 Tb 0.57889 0.66202 0.52078 0.0
C462 C 0.64961 0.68386 0.51139 0.0
O463 O 0.62009 0.5973 0.5612 0.0
Tb464 Tb 0.65753 0.63751 0.56892 0.0
C465 C 0.72041 0.61345 0.56907 0.0
O466 O 0.57398 0.63172 0.5623 0.0
O467 O 0.64845 0.65947 0.61482 0.0
C468 C 0.66833 0.684 0.62457 0.0
O469 O 0.69027 0.69676 0.60483 0.0
O470 O 0.62901 0.66015 0.50184 0.0
O471 O 0.65938 0.68359 0.54068 0.0
O472 O 0.58261 0.71456 0.53316 0.0
C473 C 0.58715 0.60145 0.56331 0.0
C474 C 0.52951 0.65612 0.47895 0.0
O475 O 0.70201 0.61881 0.59361 0.0
O476 O 0.70295 0.62078 0.54431 0.0
C477 C 0.55938 0.72848 0.55055 0.0
O478 O 0.53539 0.70947 0.56243 0.0
O479 O 0.55931 0.64264 0.47622 0.0
O480 O 0.36996 0.46233 0.28261 0.0
Tb481 Tb 0.38661 0.41526 0.30519 0.0
C482 C 0.34909 0.34542 0.30504 0.0
O483 O 0.40378 0.38181 0.23609 0.0
Tb484 Tb 0.40713 0.33407 0.26088 0.0
C485 C 0.39927 0.27942 0.22507 0.0
O486 O 0.42852 0.41578 0.27217 0.0
O487 O 0.46074 0.33487 0.2678 0.0
C488 C 0.47879 0.33235 0.24233 0.0
O489 O 0.46333 0.33404 0.21529 0.0
O490 O 0.34526 0.37841 0.30146 0.0
O491 O 0.37912 0.33204 0.30384 0.0
O492 O 0.41543 0.4071 0.34774 0.0
C493 C 0.42529 0.4059 0.24304 0.0
C494 C 0.365 0.47943 0.30812 0.0
O495 O 0.38561 0.30885 0.2197 0.0
O496 O 0.41609 0.2808 0.25097 0.0
C497 C 0.40062 0.39592 0.37321 0.0
O498 O 0.36945 0.38492 0.37142 0.0
O499 O 0.37117 0.45992 0.33185 0.0
O500 O 0.38407 0.62203 1.03905 0.0
Tb501 Tb 0.43067 0.63889 1.06181 0.0
C502 C 0.49897 0.60038 1.06107 0.0
O503 O 0.46264 0.65583 0.99071 0.0
Tb504 Tb 0.51091 0.65592 1.01444 0.0
C505 C 0.56379 0.64322 0.97762 0.0
O506 O 0.43073 0.68096 1.02833 0.0
O507 O 0.51476 0.70965 1.02045 0.0
C508 C 0.52391 0.72624 0.99541 0.0
O509 O 0.52434 0.71017 0.96861 0.0
O510 O 0.46611 0.5963 1.05885 0.0
O511 O 0.51157 0.63076 1.05895 0.0
O512 O 0.43863 0.6688 0.10398 0.0
C513 C 0.43946 0.67782 0.99881 0.0
C514 C 0.36688 0.61716 1.06451 0.0
O515 O 0.53308 0.63289 0.97247 0.0
O516 O 0.56456 0.6591 1.00407 0.0
C517 C 0.44961 0.65487 0.12999 0.0
O518 O 0.46036 0.62345 0.12931 0.0
O519 O 0.386 0.62371 0.08835 0.0
O520 O 0.21564 0.63957 0.84088 0.0
Tb521 Tb 0.19873 0.68424 0.81506 0.0
C522 C 0.23593 0.75431 0.81512 0.0
O523 O 0.18207 0.71469 0.74491 0.0
Tb524 Tb 0.179 0.76283 0.76903 0.0
C525 C 0.18356 0.81644 0.73129 0.0
O526 O 0.15686 0.68224 0.78186 0.0
O527 O 0.12597 0.75992 0.77786 0.0
C528 C 0.10686 0.75991 0.75302 0.0
O529 O 0.12119 0.7582 0.72547 0.0
O530 O 0.23988 0.72136 0.81184 0.0
O531 O 0.20612 0.7678 0.81223 0.0
O532 O 0.16994 0.69057 0.85806 0.0
C533 C 0.1604 0.69089 0.75238 0.0
C534 C 0.22334 0.62131 0.81676 0.0
O535 O 0.20017 0.78826 0.72771 0.0
O536 O 0.1656 0.81452 0.75651 0.0
C537 C 0.18446 0.70132 0.88385 0.0
O538 O 0.21543 0.71295 0.88238 0.0
O539 O 0.21788 0.63887 0.79159 0.0
O540 O 0.20021 0.47105 0.53982 0.0
Tb541 Tb 0.15544 0.45284 0.56465 0.0
C542 C 0.08583 0.48953 0.56321 0.0
O543 O 0.12295 0.43813 0.49528 0.0
Tb544 Tb 0.07276 0.43573 0.5149 0.0
C545 C 1.02175 0.45194 0.47713 0.0
O546 O 0.1545 0.41084 0.53169 0.0
O547 O 0.06923 0.38155 0.51735 0.0
C548 C 0.06066 0.36609 0.4915 0.0
O549 O 0.05652 0.38403 0.46599 0.0
O550 O 0.11871 0.49393 0.5622 0.0
O551 O 0.07302 0.45923 0.56022 0.0
O552 O 0.15021 0.4236 0.60751 0.0
C553 C 0.14415 0.41394 0.50267 0.0
C554 C 0.2183 0.47687 0.56453 0.0
O555 O 0.05334 0.45916 0.47201 0.0
O556 O 1.01919 0.43728 0.50417 0.0
C557 C 0.13928 0.43776 0.63336 0.0
O558 O 0.12687 0.46853 0.63204 0.0
O559 O 0.20064 0.46984 0.5892 0.0
O560 O 0.3788 0.64403 0.29266 0.0
Tb561 Tb 0.3968 0.6874 0.31994 0.0
C562 C 0.35849 0.75869 0.32482 0.0
O563 O 0.41332 0.71212 0.39002 0.0
Tb564 Tb 0.41979 0.76125 0.36867 0.0
C565 C 0.4225 0.80867 0.41295 0.0
O566 O 0.43871 0.68141 0.35264 0.0
O567 O 0.46434 0.76738 0.34014 0.0
C568 C 0.49375 0.75599 0.34923 0.0
O569 O 0.49521 0.73509 0.37301 0.0
O570 O 0.35616 0.72518 0.32533 0.0
O571 O 0.38671 0.77457 0.33092 0.0
O572 O 0.42521 0.69469 0.27686 0.0
C573 C 0.43425 0.68809 0.38233 0.0
C574 C 0.37084 0.62478 0.31613 0.0
O575 O 0.39487 0.79636 0.40106 0.0
O576 O 0.44826 0.7943 0.39984 0.0
C577 C 0.40999 0.70441 0.25107 0.0
O578 O 0.37878 0.71521 0.2528 0.0
O579 O 0.37658 0.6413 0.34181 0.0
O580 O 0.20327 0.62609 1.0475 0.0
Tb581 Tb 0.15907 0.64226 0.07417 0.0
C582 C 0.08993 0.60358 0.07609 0.0
O583 O 0.12878 0.65734 0.14483 0.0
Tb584 Tb 0.08048 0.66095 0.12163 0.0
C585 C 1.02711 0.65561 0.15942 0.0
O586 O 0.16054 0.68366 0.10797 0.0
O587 O 0.08175 0.71452 0.11351 0.0
C588 C 0.07628 0.73277 0.13843 0.0
O589 O 0.07851 0.71799 0.16582 0.0
O590 O 0.12292 0.60034 0.07835 0.0
O591 O 0.07595 0.63331 0.07865 0.0
O592 O 0.15145 0.67147 1.03148 0.0
C593 C 0.15231 0.67929 0.13744 0.0
C594 C 0.22229 0.61904 0.07126 0.0
O595 O 0.056 0.64067 0.16388 0.0
O596 O 1.0282 0.67203 0.13322 0.0
C597 C 0.14102 0.65671 1.00568 0.0
O598 O 0.13029 0.62527 1.00711 0.0
O599 O 0.20533 0.62428 0.09674 0.0
O600 O 0.21802 0.45922 0.84624 0.0
Tb601 Tb 0.20052 0.41323 0.82278 0.0
C602 C 0.23767 0.34227 0.82869 0.0
O603 O 0.18202 0.37815 0.88746 0.0
Tb604 Tb 0.17519 0.32835 0.86808 0.0
C605 C 0.18669 0.27983 0.91019 0.0
O606 O 0.15797 0.41575 0.85475 0.0
O607 O 0.12346 0.32614 0.85279 0.0
C608 C 0.11336 0.29913 0.83758 0.0
O609 O 0.13504 0.27495 0.83153 0.0
O610 O 0.24076 0.37563 0.82919 0.0
O611 O 0.20808 0.32765 0.82812 0.0
O612 O 0.17173 0.40567 0.78011 0.0
C613 C 0.15872 0.40072 0.882 0.0
C614 C 0.22501 0.47626 0.82108 0.0
O615 O 0.18595 0.31208 0.91594 0.0
O616 O 0.18163 0.27504 0.88061 0.0
C617 C 0.1862 0.39496 0.75435 0.0
O618 O 0.21744 0.38414 0.75562 0.0
O619 O 0.21906 0.45735 0.79691 0.0
O620 O 0.38017 0.46965 0.5401 0.0
Tb621 Tb 0.425 0.45139 0.5644 0.0
C622 C 0.49508 0.48764 0.5676 0.0
O623 O 0.45709 0.43218 0.63196 0.0
Tb624 Tb 0.50744 0.43084 0.61308 0.0
C625 C 0.55697 0.44572 0.65296 0.0
O626 O 0.42496 0.40711 0.59498 0.0
O627 O 0.50969 0.37719 0.60561 0.0
C628 C 0.5228 0.35863 0.62779 0.0
O629 O 0.53274 0.37317 0.65373 0.0
O630 O 0.46222 0.49218 0.56883 0.0
O631 O 0.5075 0.45713 0.56906 0.0
O632 O 0.43108 0.42382 0.52082 0.0
C633 C 0.43662 0.40772 0.62367 0.0
C634 C 0.36243 0.4758 0.56491 0.0
O635 O 0.52508 0.45146 0.65772 0.0
O636 O 0.56072 0.43294 0.62526 0.0
C637 C 0.44288 0.43859 0.49554 0.0
O638 O 0.45526 0.46936 0.49765 0.0
O639 O 0.38027 0.46882 0.58954 0.0
C640 C 0.22717 0.06894 0.28985 0.0
C641 C 0.22721 0.08588 0.31866 0.0
H642 H 0.22596 1.02114 0.26618 0.0
C643 C 0.22945 0.0667 0.34619 0.0
H644 H 0.2254 0.08305 0.26824 0.0
C645 C 0.22969 1.03124 0.34501 0.0
C646 C 0.22776 1.01428 0.31627 0.0
H647 H 0.22945 0.07903 0.36873 0.0
H648 H 0.22992 1.01711 0.36667 0.0
C649 C 0.22748 1.03349 0.28867 0.0
C650 C 0.30458 0.98936 0.54031 0.0
C651 C 0.32347 0.98866 0.56797 0.0
H652 H 0.25552 0.98648 0.51974 0.0
C653 C 0.30661 0.98906 0.59676 0.0
H654 H 0.31697 0.9891 0.51781 0.0
C655 C 0.27145 0.98755 0.59786 0.0
C656 C 0.25269 0.98557 0.5702 0.0
H657 H 0.32061 0.98857 0.61843 0.0
H658 H 0.25912 0.98599 0.62035 0.0
C659 C 0.26944 0.9878 0.54142 0.0
C660 C 0.35905 0.07133 0.84712 0.0
C661 C 0.35925 0.08828 0.81826 0.0
H662 H 0.35994 1.02359 0.87099 0.0
C663 C 0.35683 0.06911 0.79079 0.0
H664 H 0.36092 0.08541 0.8687 0.0
C665 C 0.35646 1.03361 0.79211 0.0
C666 C 0.35832 1.01667 0.82094 0.0
H667 H 0.3571 0.08145 0.76822 0.0
H668 H 0.35629 1.01945 0.77051 0.0
C669 C 0.3585 1.0359 0.84845 0.0
C670 C 0.3071 0.10848 0.09763 0.0
C671 C 0.32593 0.10907 0.06988 0.0
H672 H 0.25802 0.11016 0.11852 0.0
C673 C 0.30874 0.10822 1.04125 0.0
H674 H 0.31963 0.10916 0.12005 0.0
C675 C 0.27345 0.1087 1.04037 0.0
C676 C 0.25465 0.11013 0.06811 0.0
H677 H 0.32256 0.10869 1.01947 0.0
H678 H 0.26094 0.10956 1.01794 0.0
C679 C 0.27181 0.10905 0.09675 0.0
C680 C 0.85757 1.02945 0.7904 0.0
C681 C 0.85866 1.01059 0.81817 0.0
H682 H 0.85801 0.07883 0.7695 0.0
C683 C 0.85747 1.02779 0.84681 0.0
H684 H 0.85848 1.01687 0.76799 0.0
C685 C 0.85715 0.06323 0.84768 0.0
C686 C 0.85807 0.08212 0.81993 0.0
H687 H 0.85826 1.01391 0.86859 0.0
H688 H 0.85775 0.07579 0.8701 0.0
C689 C 0.8573 0.06491 0.79127 0.0
C690 C 0.81199 0.10104 0.59354 0.0
C691 C 0.82922 0.10384 0.56506 0.0
H692 H 0.76405 0.09939 0.61641 0.0
C693 C 0.81095 0.10245 0.53708 0.0
H694 H 0.82554 0.10188 0.61545 0.0
C695 C 0.77579 0.10102 0.53764 0.0
C696 C 0.75845 0.1009 0.56618 0.0
H697 H 0.82368 0.10444 0.51481 0.0
H698 H 0.76218 0.102 0.51577 0.0
C699 C 0.77683 0.09954 0.5941 0.0
C700 C 0.72833 0.0586 0.34168 0.0
C701 C 0.72583 0.0753 0.31278 0.0
H702 H 0.72883 1.01098 0.36591 0.0
C703 C 0.72537 0.05582 0.28541 0.0
H704 H 0.72872 0.07293 0.36319 0.0
C705 C 0.72535 1.02038 0.28699 0.0
C706 C 0.72596 1.00365 0.31596 0.0
H707 H 0.72344 0.06794 0.26281 0.0
H708 H 0.72336 1.00608 0.26554 0.0
C709 C 0.72848 1.02311 0.34326 0.0
C710 C 0.80872 0.97979 0.09873 0.0
C711 C 0.82813 0.97932 0.07136 0.0
H712 H 0.75917 0.97855 0.11859 0.0
C713 C 0.8117 0.98103 1.04238 0.0
H714 H 0.8207 0.97847 0.12139 0.0
C715 C 0.77647 0.98115 1.04077 0.0
C716 C 0.75706 0.97948 0.06811 0.0
H717 H 0.82603 0.98071 1.02089 0.0
H718 H 0.76448 0.98089 1.01809 0.0
C719 C 0.7735 0.97982 0.09712 0.0
C720 C 0.72322 0.55977 0.78823 0.0
C721 C 0.72418 0.57622 0.81727 0.0
H722 H 0.71936 0.5125 0.76387 0.0
C723 C 0.72511 0.55647 0.84453 0.0
H724 H 0.72244 0.57431 0.76681 0.0
C725 C 0.72324 0.52106 0.84284 0.0
C726 C 0.72051 0.5047 0.81385 0.0
H727 H 0.72576 0.56841 0.86724 0.0
H728 H 0.72256 0.50658 0.8643 0.0
C729 C 0.72146 0.52437 0.78654 0.0
C730 C 0.81424 0.48168 1.03947 0.0
C731 C 0.83285 0.47967 0.06729 0.0
H732 H 0.76531 0.48164 1.01829 0.0
C733 C 0.81549 0.47976 0.09585 0.0
H734 H 0.82691 0.4816 1.01711 0.0
C735 C 0.7802 0.47987 0.09653 0.0
C736 C 0.76159 0.47978 0.06866 0.0
H737 H 0.82915 0.47819 0.11766 0.0
H738 H 0.76751 0.47838 0.11885 0.0
C739 C 0.77896 0.48167 1.04015 0.0
C740 C 0.86199 0.52213 0.28867 0.0
C741 C 0.8611 0.50475 0.31728 0.0
H742 H 0.86433 0.57032 0.26558 0.0
C743 C 0.85851 0.52349 0.34498 0.0
H744 H 0.86405 0.50835 0.26694 0.0
C745 C 0.85877 0.55894 0.3442 0.0
C746 C 0.86155 0.57633 0.3157 0.0
H747 H 0.85785 0.5108 0.36738 0.0
H748 H 0.85821 0.57271 0.36602 0.0
C749 C 0.86217 0.55761 0.28788 0.0
C750 C 0.77416 0.60517 0.59835 0.0
C751 C 0.75714 0.60758 0.56971 0.0
H752 H 0.82181 0.60575 0.62186 0.0
C753 C 0.77597 0.60856 0.54201 0.0
H754 H 0.76027 0.60438 0.62008 0.0
C755 C 0.81119 0.60937 0.54304 0.0
C756 C 0.82816 0.60919 0.57179 0.0
H757 H 0.7635 0.61043 0.51961 0.0
H758 H 0.82506 0.6118 0.5214 0.0
C759 C 0.80938 0.60596 0.59938 0.0
C760 C 0.36071 0.53655 0.28283 0.0
C761 C 0.36043 0.51662 0.30998 0.0
H762 H 0.36392 0.58659 0.26351 0.0
C763 C 0.35967 0.53283 0.33913 0.0
H764 H 0.36137 0.52478 0.26004 0.0
C765 C 0.3611 0.56821 0.34113 0.0
C766 C 0.36337 0.58807 0.31401 0.0
H767 H 0.35948 0.51813 0.36047 0.0
H768 H 0.36198 0.57991 0.36394 0.0
C769 C 0.36219 0.57195 0.28482 0.0
C770 C 0.31363 0.61088 0.09518 0.0
C771 C 0.33003 0.61178 1.06615 0.0
H772 H 0.26648 0.6121 0.11956 0.0
C773 C 0.31056 0.61119 1.03882 0.0
H774 H 0.32801 0.61132 0.11664 0.0
C775 C 0.27534 0.61169 1.0405 0.0
C776 C 0.25897 0.61272 0.06955 0.0
H777 H 0.32252 0.6119 1.01613 0.0
H778 H 0.26098 0.61274 1.01906 0.0
C779 C 0.27841 0.61132 0.09687 0.0
C780 C 0.2319 0.56565 0.79012 0.0
C781 C 0.23025 0.58457 0.81778 0.0
H782 H 0.23192 0.51622 0.76951 0.0
C783 C 0.23131 0.56753 0.84653 0.0
H784 H 0.23113 0.57815 0.76764 0.0
C785 C 0.23178 0.53213 0.84761 0.0
C786 C 0.23119 0.51316 0.81996 0.0
H787 H 0.23012 0.58148 0.86822 0.0
H788 H 0.23091 0.51964 0.8701 0.0
C789 C 0.23236 0.53022 0.7912 0.0
C790 C 0.27272 0.4839 0.59292 0.0
C791 C 0.25493 0.48326 0.56461 0.0
H792 H 0.32101 0.48239 0.6152 0.0
C793 C 0.27292 0.48463 0.53647 0.0
H794 H 0.25944 0.48291 0.61497 0.0
C795 C 0.30815 0.48436 0.53661 0.0
C796 C 0.32591 0.48268 0.5649 0.0
H797 H 0.25982 0.48419 0.51432 0.0
H798 H 0.32141 0.48374 0.51454 0.0
C799 C 0.30793 0.4836 0.59306 0.0
C800 C 0.32404 0.28715 0.31081 0.0
C801 C 0.3197 0.3226 0.30955 0.0
H802 H 0.30082 0.23845 0.31716 0.0
C803 C 0.28713 0.33574 0.31242 0.0
H804 H 0.34881 0.27605 0.30836 0.0
C805 C 0.25971 0.31415 0.31728 0.0
C806 C 0.26404 0.27875 0.3194 0.0
H807 H 0.28278 0.36277 0.31131 0.0
H808 H 0.23504 0.32546 0.31983 0.0
C809 C 0.29652 0.26547 0.31562 0.0
C810 C 1.00649 1.04036 0.56708 0.0
C811 C 1.01967 0.07321 0.56451 0.0
H812 H 1.01684 0.98765 0.57164 0.0
C813 C 0.05483 0.07766 0.56388 0.0
H814 H 0.97956 1.03603 0.56752 0.0
C815 C 0.07636 0.04982 0.56622 0.0
C816 C 0.06313 1.017 0.56918 0.0
H817 H 0.0658 0.10268 0.56176 0.0
H818 H 0.10331 0.05406 0.56601 0.0
C819 C 1.02796 1.01259 0.56935 0.0
C820 C 0.32554 0.78691 0.82263 0.0
C821 C 0.32062 0.82224 0.82359 0.0
H822 H 0.30285 0.73774 0.81944 0.0
C823 C 0.28764 0.83481 0.82262 0.0
H824 H 0.35063 0.77626 0.82352 0.0
C825 C 0.26027 0.81263 0.82042 0.0
C826 C 0.26519 0.77731 0.81912 0.0
H827 H 0.28293 0.86179 0.82342 0.0
H828 H 0.2352 0.82333 0.81943 0.0
C829 C 0.29815 0.76471 0.82041 0.0
C830 C 0.507 1.03751 0.07067 0.0
C831 C 0.51923 0.07081 0.07098 0.0
H832 H 0.51897 0.98486 0.06818 0.0
C833 C 0.55433 0.07614 0.06919 0.0
H834 H 0.48023 1.03248 0.07215 0.0
C835 C 0.57663 0.0489 0.06708 0.0
C836 C 0.56443 1.01562 1.06668 0.0
H837 H 0.5648 0.10147 0.06951 0.0
H838 H 0.60339 0.05399 1.0656 0.0
C839 C 0.52934 1.01023 0.06853 0.0
C840 C 0.30281 0.83638 0.31655 0.0
C841 C 0.27053 0.82209 0.31497 0.0
H842 H 0.35566 0.82776 0.32048 0.0
C843 C 0.26742 0.7865 0.31538 0.0
H844 H 0.30618 0.86358 0.3161 0.0
C845 C 0.29588 0.76575 0.31775 0.0
C846 C 0.32815 0.78007 0.31983 0.0
H847 H 0.24293 0.77451 0.31395 0.0
H848 H 0.2925 0.73855 0.31844 0.0
C849 C 0.33122 0.81567 0.31896 0.0
C850 C 0.50648 0.0516 0.56666 0.0
C851 C 0.51757 1.01831 0.56179 0.0
H852 H 0.52028 0.10331 0.57397 0.0
C853 C 0.55244 1.01206 0.56027 0.0
H854 H 0.47985 0.05731 0.56797 0.0
C855 C 0.57566 1.03841 0.56362 0.0
C856 C 0.56459 0.07165 0.56868 0.0
H857 H 0.56195 0.9867 0.55661 0.0
H858 H 0.60228 1.03265 0.56241 0.0
C859 C 0.52972 0.07796 0.57011 0.0
C860 C 0.26607 0.28573 0.83218 0.0
C861 C 0.26769 0.32051 0.8248 0.0
H862 H 0.29119 0.23756 0.83125 0.0
C863 C 0.29764 0.3337 0.81248 0.0
H864 H 0.24339 0.27489 0.84208 0.0
C865 C 0.32469 0.31229 0.80604 0.0
C866 C 0.32265 0.27731 0.81226 0.0
H867 H 0.29977 0.36032 0.8067 0.0
H868 H 0.3471 0.32308 0.79556 0.0
C869 C 0.29345 0.26435 0.82623 0.0
C870 C 1.00608 0.04951 0.07175 0.0
C871 C 1.01959 1.01693 0.07441 0.0
H872 H 1.01576 0.10216 1.06573 0.0
C873 C 0.05492 1.01304 0.07397 0.0
H874 H 0.97911 0.05348 0.07229 0.0
C875 C 0.07619 1.04107 0.07029 0.0
C876 C 0.06259 0.07359 0.06691 0.0
H877 H 0.06627 0.98826 0.07625 0.0
H878 H 0.10315 1.03713 0.06941 0.0
C879 C 1.02728 0.07746 0.06808 0.0
C880 C 0.79973 0.75871 0.82306 0.0
C881 C 0.76661 0.77082 0.82445 0.0
H882 H 0.85205 0.7711 0.81974 0.0
C883 C 0.76124 0.80611 0.82371 0.0
H884 H 0.80478 0.73178 0.82362 0.0
C885 C 0.78827 0.82872 0.82159 0.0
C886 C 0.82138 0.81665 0.82013 0.0
H887 H 0.73604 0.81647 0.82488 0.0
H888 H 0.78316 0.85563 0.82103 0.0
C889 C 0.82681 0.78136 0.82091 0.0
C890 C 0.79854 0.2556 0.31306 0.0
C891 C 0.76597 0.26902 0.31136 0.0
H892 H 0.851 0.26542 0.31829 0.0
C893 C 0.76198 0.30449 0.3125 0.0
H894 H 0.80261 0.22852 0.31203 0.0
C895 C 0.7899 0.32594 0.31606 0.0
C896 C 0.82242 0.31239 0.3186 0.0
H897 H 0.73721 0.31578 0.31097 0.0
H898 H 0.7859 0.353 0.31753 0.0
C899 C 0.82635 0.27695 0.31661 0.0
C900 C 0.81861 0.30891 0.81696 0.0
C901 C 0.81637 0.27328 0.81843 0.0
H902 H 0.79254 0.35607 0.8119 0.0
C903 C 0.78454 0.2581 0.81607 0.0
H904 H 0.84269 0.32163 0.81886 0.0
C905 C 0.75573 0.278 0.81218 0.0
C906 C 0.75797 0.31363 0.81059 0.0
H907 H 0.78183 0.23084 0.81725 0.0
H908 H 0.73164 0.26528 0.81026 0.0
C909 C 0.78979 0.32882 0.81314 0.0
C910 C 0.82284 0.80386 0.30948 0.0
C911 C 0.81988 0.76882 0.31538 0.0
H912 H 0.79869 0.85255 0.31028 0.0
C913 C 0.78861 0.75582 0.32464 0.0
H914 H 0.84657 0.81463 0.30189 0.0
C915 C 0.76142 0.77755 0.32954 0.0
C916 C 0.76469 0.81276 0.32492 0.0
H917 H 0.7854 0.72903 0.32915 0.0
H918 H 0.73789 0.7668 0.33769 0.0
C919 C 0.79541 0.82561 0.31397 0.0
C920 C 0.58012 0.54964 1.06585 0.0
C921 C 0.56814 0.51626 0.0672 0.0
H922 H 0.56779 0.60219 1.06295 0.0
C923 C 0.53303 0.51071 1.0665 0.0
H924 H 0.60689 0.55486 1.06638 0.0
C925 C 0.51048 0.53786 1.06467 0.0
C926 C 0.52246 0.57124 1.06345 0.0
H927 H 0.52278 0.48532 0.06761 0.0
H928 H 0.4837 0.53265 1.06423 0.0
C929 C 0.55757 0.57678 1.06398 0.0
C930 C 1.02769 0.51416 0.56641 0.0
C931 C 0.06289 0.51881 0.56639 0.0
H932 H 0.97905 0.5374 0.56978 0.0
C933 C 0.07585 0.55169 0.56919 0.0
H934 H 1.01684 0.48912 0.56413 0.0
C935 C 0.05421 0.57926 0.57225 0.0
C936 C 1.01901 0.57467 0.57266 0.0
H937 H 0.10276 0.5562 0.56916 0.0
H938 H 0.06524 0.60421 0.57465 0.0
C939 C 1.00597 0.54182 0.56954 0.0
C940 C 0.0813 0.54093 0.07164 0.0
C941 C 0.06771 0.57358 0.07281 0.0
H942 H 0.07182 0.48804 0.06765 0.0
C943 C 1.0324 0.57738 0.07161 0.0
H944 H 0.10826 0.53703 0.07279 0.0
C945 C 1.01124 0.54915 0.06872 0.0
C946 C 1.02492 0.51651 0.06697 0.0
H947 H 1.021 0.60222 0.0727 0.0
H948 H 0.98429 0.55298 0.06727 0.0
C949 C 0.06021 0.51279 0.06881 0.0
C950 C 0.5288 0.57734 0.5645 0.0
C951 C 0.56391 0.57209 0.56491 0.0
H952 H 0.47964 0.55502 0.56486 0.0
C953 C 0.5761 0.53882 0.56617 0.0
H954 H 0.51842 0.60265 0.56342 0.0
C955 C 0.5537 0.51146 0.56695 0.0
C956 C 0.5186 0.51677 0.56645 0.0
H957 H 0.60292 0.53388 0.56648 0.0
H958 H 0.56398 0.48611 0.56798 0.0
C959 C 0.50644 0.55003 0.56525 0.0
C960 C 0.18115 0.33517 0.46501 0.0
C961 C 0.16205 0.33295 0.43758 0.0
H962 H 0.18997 0.36223 0.50759 0.0
C963 C 0.13823 0.35814 0.43103 0.0
H964 H 0.19974 0.31603 0.47048 0.0
C965 C 0.13353 0.38516 0.45153 0.0
C966 C 0.15138 0.38673 0.47979 0.0
H967 H 0.12343 0.35716 0.40983 0.0
H968 H 0.11535 0.40446 0.44546 0.0
C969 C 0.17551 0.36158 0.48619 0.0
C970 C 0.99962 0.94249 0.71267 0.0
C971 C 0.99639 0.93002 0.68214 0.0
H972 H 0.97978 0.9427 0.75928 0.0
C973 C 0.96885 0.90905 0.67502 0.0
H974 H 1.02076 0.95846 0.71889 0.0
C975 C 0.94563 0.89984 0.69802 0.0
C976 C 0.94925 0.91135 0.72885 0.0
H977 H 0.96575 0.89881 0.65178 0.0
H978 H 0.9252 0.88302 0.69166 0.0
C979 C 0.97623 0.93329 0.73581 0.0
C980 C 0.42547 0.72191 0.92106 0.0
C981 C 0.40642 0.75037 0.92958 0.0
H982 H 0.45079 0.67698 0.93595 0.0
C983 C 0.39643 0.75382 0.96085 0.0
H984 H 0.43382 0.71861 0.89721 0.0
C985 C 0.40623 0.72978 0.98328 0.0
C986 C 0.42644 0.70195 0.97491 0.0
H987 H 0.382 0.77564 0.96818 0.0
H988 H 0.39881 0.73359 1.00731 0.0
C989 C 0.43539 0.69808 0.94339 0.0
C990 C 0.63648 0.19357 0.19302 0.0
C991 C 0.63425 0.17971 0.22318 0.0
H992 H 0.61407 0.19827 0.14785 0.0
C993 C 0.60744 0.15749 0.22993 0.0
H994 H 0.65681 0.21061 0.18683 0.0
C995 C 0.58296 0.15015 0.20728 0.0
C996 C 0.5848 0.16496 0.17753 0.0
H997 H 0.60499 0.14624 0.25286 0.0
H998 H 0.56215 0.13364 0.21333 0.0
C999 C 0.61201 0.18641 0.17056 0.0
C1000 C 0.15523 0.69824 0.19308 0.0
C1001 C 0.16475 0.70296 0.16179 0.0
H1002 H 0.15504 0.71816 0.23941 0.0
C1003 C 0.18461 0.73134 0.15408 0.0
H1004 H 0.14018 0.6766 0.19999 0.0
C1005 C 0.19332 0.75523 0.17692 0.0
C1006 C 0.18236 0.75112 0.20785 0.0
H1007 H 0.19248 0.7357 0.13023 0.0
H1008 H 0.20744 0.77753 0.17013 0.0
C1009 C 0.16388 0.72203 0.21577 0.0
C1010 C 0.61227 0.94888 0.45572 0.0
C1011 C 0.57873 0.95126 0.44572 0.0
H1012 H 0.66281 0.93557 0.44365 0.0
C1013 C 0.57142 0.94717 0.41388 0.0
H1014 H 0.61865 0.95195 0.48011 0.0
C1015 C 0.59684 0.93818 0.39283 0.0
C1016 C 0.6298 0.93239 0.40348 0.0
H1017 H 0.54573 0.94895 0.40556 0.0
H1018 H 0.59015 0.93336 0.36876 0.0
C1019 C 0.63752 0.9393 0.43484 0.0
C1020 C 0.40805 0.35276 0.63773 0.0
C1021 C 0.43237 0.37773 0.64429 0.0
H1022 H 0.3848 0.30609 0.65221 0.0
C1023 C 0.45289 0.37366 0.67073 0.0
H1024 H 0.39171 0.3552 0.61764 0.0
C1025 C 0.4497 0.34508 0.68977 0.0
C1026 C 0.42507 0.32047 0.68352 0.0
H1027 H 0.47168 0.39247 0.67668 0.0
H1028 H 0.46596 0.34274 0.70994 0.0
C1029 C 0.40413 0.32462 0.65742 0.0
C1030 C 0.9745 0.15471 0.90482 0.0
C1031 C 0.95684 0.18552 0.90447 0.0
H1032 H 1.01372 0.12537 0.92646 0.0
C1033 C 0.9663 0.21115 0.9254 0.0
H1034 H 0.96767 0.13457 0.88891 0.0
C1035 C 0.99292 0.20622 0.94613 0.0
C1036 C 1.01018 0.17528 0.94698 0.0
H1037 H 0.95341 0.2353 0.92551 0.0
H1038 H 0.99966 0.22657 0.96186 0.0
C1039 C 1.0007 0.14943 0.92627 0.0
C1040 C 0.89753 0.73027 0.65535 0.0
C1041 C 0.91537 0.70075 0.66336 0.0
H1042 H 0.87561 0.77676 0.67154 0.0
C1043 C 0.92094 0.69371 0.69509 0.0
H1044 H 0.89279 0.73646 0.63115 0.0
C1045 C 0.91088 0.71657 0.71809 0.0
C1046 C 0.89505 0.74709 0.71 0.0
H1047 H 0.93429 0.67108 0.70216 0.0
H1048 H 0.91708 0.71107 0.74216 0.0
C1049 C 0.88754 0.75331 0.67848 0.0
C1050 C 0.1206 0.1523 0.46157 0.0
C1051 C 0.08856 0.14087 0.45259 0.0
H1052 H 0.16735 0.17424 0.44719 0.0
C1053 C 0.08099 0.13854 0.42063 0.0
H1054 H 0.12721 0.15434 0.486 0.0
C1055 C 0.10418 0.14994 0.39821 0.0
C1056 C 0.13509 0.16415 0.40749 0.0
H1057 H 0.05639 0.13002 0.41304 0.0
H1058 H 0.09698 0.14965 0.37386 0.0
C1059 C 0.14354 0.16393 0.43931 0.0
C1060 C 0.66272 0.39515 0.18873 0.0
C1061 C 0.66904 0.38889 0.15701 0.0
H1062 H 0.66611 0.37696 0.23561 0.0
C1063 C 0.68731 0.3597 0.14884 0.0
H1064 H 0.64907 0.41752 0.19593 0.0
C1065 C 0.69712 0.33628 0.17177 0.0
C1066 C 0.6891 0.34181 0.20327 0.0
H1067 H 0.69271 0.35415 0.12464 0.0
H1068 H 0.70952 0.31314 0.16468 0.0
C1069 C 0.67271 0.37197 0.21155 0.0
C1070 C 0.44664 0.90284 0.94126 0.0
C1071 C 0.44979 0.91553 0.91076 0.0
H1072 H 0.46804 0.89925 0.98685 0.0
C1073 C 0.47695 0.93726 0.90384 0.0
H1074 H 0.42597 0.88626 0.94757 0.0
C1075 C 0.50114 0.94491 0.92666 0.0
C1076 C 0.49853 0.93096 0.9567 0.0
H1077 H 0.48005 0.94759 0.88062 0.0
H1078 H 0.52246 0.96068 0.92047 0.0
C1079 C 0.47072 0.9104 0.96388 0.0
C1080 C 0.93557 0.39234 0.94604 0.0
C1081 C 0.92333 0.38773 0.97653 0.0
H1082 H 0.93986 0.37229 0.9 0.0
C1083 C 0.90286 0.35945 0.98293 0.0
H1084 H 0.95117 0.41393 0.94012 0.0
C1085 C 0.89612 0.33553 0.95955 0.0
C1086 C 0.90989 0.33955 0.92958 0.0
H1087 H 0.89298 0.35525 1.00615 0.0
H1088 H 0.88128 0.31333 0.96524 0.0
C1089 C 0.92907 0.36848 0.92294 0.0
C1090 C 0.51362 0.13724 0.72095 0.0
C1091 C 0.50547 0.13305 0.68928 0.0
H1092 H 0.4967 0.15379 0.76597 0.0
C1093 C 0.47195 0.13738 0.67978 0.0
H1094 H 0.53932 0.13412 0.7289 0.0
C1095 C 0.44777 0.14895 0.70081 0.0
C1096 C 0.45652 0.15624 0.73184 0.0
H1097 H 0.46488 0.13418 0.65557 0.0
H1098 H 0.42259 0.15401 0.69229 0.0
C1099 C 0.48925 0.14862 0.74215 0.0
C1100 C 0.68557 0.76489 0.47683 0.0
C1101 C 0.6612 0.77295 0.45427 0.0
H1102 H 0.70069 0.73053 0.51313 0.0
C1103 C 0.63256 0.75229 0.4515 0.0
H1104 H 0.70792 0.7804 0.47937 0.0
C1105 C 0.62891 0.72343 0.47005 0.0
C1106 C 0.65342 0.715 0.49239 0.0
H1107 H 0.61342 0.75778 0.43423 0.0
H1108 H 0.60681 0.7077 0.46685 0.0
C1109 C 0.68147 0.73639 0.49605 0.0
C1110 C 0.10783 0.93308 0.23611 0.0
C1111 C 0.1366 0.9143 0.22787 0.0
H1112 H 0.06014 0.95319 0.22122 0.0
C1113 C 0.14017 0.90374 0.19675 0.0
H1114 H 0.10428 0.9417 0.25983 0.0
C1115 C 0.11486 0.91002 0.1749 0.0
C1116 C 0.08555 0.92754 0.1834 0.0
H1117 H 0.16206 0.88949 0.18943 0.0
H1118 H 0.11792 0.90041 0.15142 0.0
C1119 C 0.08255 0.93971 0.21403 0.0
C1120 C 0.68858 0.83373 0.96129 0.0
C1121 C 0.67804 0.83791 0.93025 0.0
H1122 H 0.68853 0.85394 1.00775 0.0
C1123 C 0.66148 0.86794 0.92185 0.0
H1124 H 0.70127 0.81076 0.96846 0.0
C1125 C 0.65436 0.89268 0.94417 0.0
C1126 C 0.66325 0.88789 0.97561 0.0
H1127 H 0.65308 0.87193 0.8981 0.0
H1128 H 0.64073 0.91507 0.93691 0.0
C1129 C 0.68123 0.85848 0.98378 0.0
C1130 C 0.50315 0.4441 0.20477 0.0
C1131 C 0.50042 0.43138 0.17432 0.0
H1132 H 0.48147 0.44604 0.25058 0.0
C1133 C 0.4716 0.41282 0.16607 0.0
H1134 H 0.5252 0.45836 0.21176 0.0
C1135 C 0.44662 0.40586 0.18809 0.0
C1136 C 0.45 0.41697 0.21905 0.0
H1137 H 0.46878 0.40272 0.14275 0.0
H1138 H 0.42517 0.39073 0.18102 0.0
C1139 C 0.47814 0.43693 0.22698 0.0
C1140 C 0.90747 0.2274 0.48259 0.0
C1141 C 0.93269 0.20292 0.47794 0.0
H1142 H 0.88285 0.27183 0.46475 0.0
C1143 C 0.9522 0.20452 0.45064 0.0
H1144 H 0.89175 0.22668 0.50322 0.0
C1145 C 0.94785 0.23091 0.42931 0.0
C1146 C 0.92287 0.25543 0.43409 0.0
H1147 H 0.97134 0.18573 0.44596 0.0
H1148 H 0.96389 0.23197 0.40889 0.0
C1149 C 0.90229 0.25317 0.4606 0.0
C1150 C 0.08186 0.65301 0.71471 0.0
C1151 C 0.08484 0.66489 0.68392 0.0
H1152 H 0.10336 0.65192 0.76066 0.0
C1153 C 0.114 0.68278 0.67537 0.0
H1154 H 0.05958 0.63926 0.72197 0.0
C1155 C 0.13915 0.6897 0.69727 0.0
C1156 C 0.13556 0.67945 0.72853 0.0
H1157 H 0.11706 0.69219 0.6518 0.0
H1158 H 0.16089 0.70422 0.68988 0.0
C1159 C 0.10694 0.66032 0.73684 0.0
C1160 C 0.68088 0.22148 0.653 0.0
C1161 C 0.6539 0.19839 0.65441 0.0
H1162 H 0.70483 0.26499 0.67343 0.0
C1163 C 0.62963 0.20237 0.67799 0.0
H1164 H 0.70008 0.21897 0.63522 0.0
C1165 C 0.63188 0.22914 0.69924 0.0
C1166 C 0.65904 0.25192 0.69807 0.0
H1167 H 0.60852 0.18512 0.67979 0.0
H1168 H 0.61253 0.23175 0.71688 0.0
C1169 C 0.68367 0.24772 0.67489 0.0
C1170 C 0.0957 0.38345 0.94622 0.0
C1171 C 0.07999 0.41504 0.94955 0.0
H1172 H 0.13308 0.35432 0.92248 0.0
C1173 C 0.08991 0.44193 0.93013 0.0
H1174 H 0.0885 0.36228 0.96088 0.0
C1175 C 0.11502 0.43714 0.90758 0.0
C1176 C 0.13119 0.40566 0.90473 0.0
H1177 H 0.07804 0.46649 0.93219 0.0
H1178 H 0.12229 0.45819 0.89281 0.0
C1179 C 0.1213 0.37892 0.92432 0.0
C1180 C 0.92057 0.89571 0.19401 0.0
C1181 C 0.91611 0.88862 0.16217 0.0
H1182 H 0.91582 0.87802 0.24095 0.0
C1183 C 0.89939 0.85857 0.15368 0.0
H1184 H 0.93304 0.91875 0.20139 0.0
C1185 C 0.88948 0.83508 0.17652 0.0
C1186 C 0.89589 0.8414 0.2082 0.0
H1187 H 0.89554 0.85235 0.12936 0.0
H1188 H 0.87848 0.81127 0.16925 0.0
C1189 C 0.9105 0.87243 0.21673 0.0
C1190 C 0.51051 0.65014 0.42318 0.0
C1191 C 0.50353 0.65847 0.45438 0.0
H1192 H 0.49385 0.65283 0.37551 0.0
C1193 C 0.47231 0.67289 0.46174 0.0
H1194 H 0.53449 0.63905 0.41688 0.0
C1195 C 0.44929 0.68076 0.43832 0.0
C1196 C 0.4569 0.67451 0.40685 0.0
H1197 H 0.46612 0.67937 0.4856 0.0
H1198 H 0.42593 0.69295 0.44489 0.0
C1199 C 0.48729 0.65805 0.39953 0.0
C1200 C 0.4283 0.19748 0.18937 0.0
C1201 C 0.41956 0.20173 0.15786 0.0
H1202 H 0.42812 0.21847 0.23527 0.0
C1203 C 0.40042 0.23021 0.14924 0.0
H1204 H 0.44273 0.17573 0.19693 0.0
C1205 C 0.39192 0.25484 0.17145 0.0
C1206 C 0.40232 0.25127 0.20258 0.0
H1207 H 0.3932 0.2342 0.12517 0.0
H1208 H 0.37859 0.27733 0.16398 0.0
C1209 C 0.41978 0.22194 0.21143 0.0
C1210 C 0.62143 0.66149 0.96246 0.0
C1211 C 0.5907 0.64654 0.95392 0.0
H1212 H 0.66726 0.68457 0.94724 0.0
C1213 C 0.58439 0.6402 0.92221 0.0
H1214 H 0.62701 0.66674 0.98671 0.0
C1215 C 0.60762 0.65054 0.89937 0.0
C1216 C 0.63737 0.66758 0.90793 0.0
H1217 H 0.56076 0.62898 0.91495 0.0
H1218 H 0.60144 0.64679 0.87503 0.0
C1219 C 0.64444 0.6719 0.93978 0.0
C1220 C 0.16012 0.8721 0.71519 0.0
C1221 C 0.17947 0.84353 0.70777 0.0
H1222 H 0.13551 0.91666 0.69871 0.0
C1223 C 0.1911 0.83955 0.67706 0.0
H1224 H 0.15078 0.87583 0.73867 0.0
C1225 C 0.1821 0.86299 0.65389 0.0
C1226 C 0.16134 0.89077 0.66109 0.0
H1227 H 0.20589 0.81763 0.67067 0.0
H1228 H 0.19046 0.85871 0.63019 0.0
C1229 C 0.15124 0.89546 0.69219 0.0
C1230 C 0.94177 0.42387 0.43826 0.0
C1231 C 0.95078 0.42477 0.40659 0.0
H1232 H 0.95687 0.43291 0.48535 0.0
C1233 C 0.9813 0.44037 0.39804 0.0
H1234 H 0.91822 0.41249 0.44559 0.0
C1235 C 1.00362 0.45212 0.42101 0.0
C1236 C 0.99556 0.44871 0.45279 0.0
H1237 H 0.98889 0.44153 0.37381 0.0
H1238 H 1.02801 0.46177 0.41397 0.0
C1239 C 0.96384 0.43581 0.46106 0.0
C1240 C 0.40005 0.86998 0.47798 0.0
C1241 C 0.43054 0.88769 0.48171 0.0
H1242 H 0.37324 0.83144 0.45264 0.0
C1243 C 0.45819 0.87862 0.46316 0.0
H1244 H 0.37827 0.8765 0.49193 0.0
C1245 C 0.45553 0.85261 0.44126 0.0
C1246 C 0.42489 0.83551 0.43688 0.0
H1247 H 0.48208 0.89134 0.46575 0.0
H1248 H 0.47742 0.84625 0.42738 0.0
C1249 C 0.39712 0.84437 0.45544 0.0
C1250 C 0.97962 0.65687 0.23639 0.0
C1251 C 0.95234 0.67818 0.22904 0.0
H1252 H 1.02475 0.63261 0.22 0.0
C1253 C 0.94875 0.68944 0.1981 0.0
H1254 H 0.98313 0.64768 0.25996 0.0
C1255 C 0.9723 0.68059 0.17537 0.0
C1256 C 1.00014 0.66029 0.18287 0.0
H1257 H 0.92807 0.70575 0.19145 0.0
H1258 H 0.9692 0.69062 0.15202 0.0
C1259 C 1.00337 0.64806 0.2135 0.0
C1260 C 0.18894 0.26077 0.96586 0.0
C1261 C 0.18565 0.25294 0.93405 0.0
H1262 H 0.18309 0.24337 1.01297 0.0
C1263 C 0.17726 0.21979 0.92534 0.0
H1264 H 0.19546 0.28618 0.97316 0.0
C1265 C 0.16972 0.19555 0.94799 0.0
C1266 C 0.1708 0.20386 0.97982 0.0
H1267 H 0.17468 0.21303 0.90098 0.0
H1268 H 0.1617 0.17063 0.9405 0.0
C1269 C 0.18189 0.23627 0.98862 0.0
C1270 C 0.59649 0.43591 0.73274 0.0
C1271 C 0.62738 0.42087 0.72478 0.0
H1272 H 0.54961 0.45598 0.71592 0.0
C1273 C 0.63675 0.41945 0.69322 0.0
H1274 H 0.58861 0.43739 0.75688 0.0
C1275 C 0.61476 0.43044 0.66996 0.0
C1276 C 0.58275 0.44283 0.67768 0.0
H1277 H 0.66059 0.40846 0.68634 0.0
H1278 H 0.62209 0.42727 0.64581 0.0
C1279 C 0.57422 0.44665 0.70931 0.0
C1280 C 0.07676 0.30797 0.34335 0.0
C1281 C 0.07183 0.2727 0.34433 0.0
H1282 H 0.05344 0.35688 0.34542 0.0
C1283 C 1.03913 0.25958 0.34286 0.0
H1284 H 0.10182 0.31869 0.34502 0.0
C1285 C 1.0116 0.28147 0.34191 0.0
C1286 C 1.01646 0.31672 0.34368 0.0
H1287 H 1.03483 0.23252 0.34401 0.0
H1288 H 0.98649 0.27071 0.34246 0.0
C1289 C 0.0492 0.32985 0.34365 0.0
C1290 C 0.05923 0.80489 0.61117 0.0
C1291 C 0.05293 0.8284 0.63485 0.0
H1292 H 0.04579 0.75698 0.59156 0.0
C1293 C 1.02485 0.82414 0.65437 0.0
H1294 H 0.08028 0.80832 0.5954 0.0
C1295 C 1.0043 0.79584 0.65124 0.0
C1296 C 1.01221 0.77082 0.62942 0.0
H1297 H 1.01861 0.84279 0.67194 0.0
H1298 H 0.98285 0.79291 0.66657 0.0
C1299 C 1.03914 0.77599 0.60865 0.0
C1300 C 0.53366 0.81321 0.85955 0.0
C1301 C 0.51018 0.80489 0.88272 0.0
H1302 H 0.58206 0.80239 0.83995 0.0
C1303 C 0.51516 0.77594 0.90116 0.0
H1304 H 0.52979 0.83502 0.84464 0.0
C1305 C 0.54406 0.75654 0.89756 0.0
C1306 C 0.56896 0.76642 0.87634 0.0
H1307 H 0.49666 0.7682 0.91835 0.0
H1308 H 0.54752 0.73439 0.91208 0.0
C1309 C 0.56314 0.79423 0.85656 0.0
C1310 C 0.51071 0.28276 0.08316 0.0
C1311 C 0.51739 0.2688 0.11263 0.0
H1312 H 0.52056 0.32356 1.05137 0.0
C1313 C 0.54106 0.28439 0.13212 0.0
H1314 H 0.49291 0.27075 0.06754 0.0
C1315 C 0.55761 0.31365 0.12258 0.0
C1316 C 0.55033 0.32836 0.09352 0.0
H1317 H 0.54739 0.27351 0.15453 0.0
H1318 H 0.5754 0.32522 0.13847 0.0
C1319 C 0.5268 0.31261 0.0738 0.0
C1320 C 1.03117 0.7854 0.27838 0.0
C1321 C 1.00957 0.79291 0.25347 0.0
H1322 H 0.08001 0.79311 0.29842 0.0
C1323 C 1.01931 0.81716 0.23128 0.0
H1324 H 1.02387 0.76725 0.29611 0.0
C1325 C 0.05115 0.83168 0.23241 0.0
C1326 C 0.07346 0.82285 0.2563 0.0
H1327 H 1.00231 0.82499 0.21301 0.0
H1328 H 0.05858 0.84928 0.21424 0.0
C1329 C 0.06301 0.80042 0.27986 0.0
C1330 C 0.52524 0.78083 0.55595 0.0
C1331 C 0.55653 0.76549 0.55061 0.0
H1332 H 0.49635 0.82637 0.55344 0.0
C1333 C 0.58407 0.78545 0.54129 0.0
H1334 H 0.50356 0.76598 0.56296 0.0
C1335 C 0.58 0.82002 0.5361 0.0
C1336 C 0.54822 0.83494 0.53965 0.0
H1337 H 0.60848 0.77417 0.53697 0.0
H1338 H 0.60136 0.8347 0.528 0.0
C1339 C 0.52104 0.81529 0.55022 0.0
C1340 C 0.53513 0.26235 0.8029 0.0
C1341 C 0.50343 0.27531 0.79512 0.0
H1342 H 0.58785 0.27216 0.80656 0.0
C1343 C 0.49983 0.31022 0.78974 0.0
H1344 H 0.53845 0.23546 0.80685 0.0
C1345 C 0.52823 0.33113 0.78851 0.0
C1346 C 0.56038 0.31753 0.79353 0.0
H1347 H 0.47563 0.32073 0.78326 0.0
H1348 H 0.52528 0.3573 0.78145 0.0
C1349 C 0.56336 0.28344 0.80267 0.0
C1350 C 1.00908 0.28962 1.04607 0.0
C1351 C 1.02257 0.32238 1.0458 0.0
H1352 H 1.01947 0.23659 1.04453 0.0
C1353 C 0.0577 0.32679 1.04752 0.0
H1354 H 0.98213 0.28569 1.04449 0.0
C1355 C 0.07909 0.29884 1.04651 0.0
C1356 C 0.06562 0.26613 1.04494 0.0
H1357 H 0.06876 0.35187 1.04689 0.0
H1358 H 0.10606 0.30282 1.04527 0.0
C1359 C 1.03049 0.26163 1.0462 0.0
C1360 C 0.04948 0.76135 0.73111 0.0
C1361 C 0.07168 0.77017 0.75508 0.0
H1362 H 1.00053 0.76765 0.71185 0.0
C1363 C 0.06121 0.79249 0.77861 0.0
H1364 H 0.05698 0.74384 0.71296 0.0
C1365 C 1.0294 0.80732 0.77712 0.0
C1366 C 1.00781 0.79968 0.75225 0.0
H1367 H 0.07814 0.79981 0.79722 0.0
H1368 H 1.02204 0.82529 0.7949 0.0
C1369 C 1.01759 0.77563 0.73001 0.0
C1370 C 0.047 0.31267 0.51952 0.0
C1371 C 0.05269 0.32991 0.4914 0.0
H1372 H 1.03311 0.26597 0.54125 0.0
C1373 C 0.04897 0.31273 0.46298 0.0
H1374 H 0.04948 0.32547 0.54172 0.0
C1375 C 1.03966 0.27878 0.46271 0.0
C1376 C 1.03368 0.26159 0.49083 0.0
H1377 H 0.05324 0.3255 0.44095 0.0
H1378 H 1.03707 0.26606 0.44047 0.0
C1379 C 1.03733 0.27877 0.51924 0.0
C1380 C 0.533 0.31956 0.21623 0.0
C1381 C 0.51363 0.32001 0.24356 0.0
H1382 H 0.57873 0.30409 0.19457 0.0
C1383 C 0.52646 0.30511 0.27085 0.0
H1384 H 0.52382 0.33099 0.19489 0.0
C1385 C 0.55777 0.28905 0.27048 0.0
C1386 C 0.57666 0.28781 0.24285 0.0
H1387 H 0.51189 0.3049 0.2922 0.0
H1388 H 0.56701 0.27741 0.29169 0.0
C1389 C 0.56424 0.30372 0.21593 0.0
C1390 C 0.5496 0.81201 1.02538 0.0
C1391 C 0.57227 0.82226 1.00203 0.0
H1392 H 0.5155 0.77343 1.04104 0.0
C1393 C 0.58037 0.80009 0.97777 0.0
H1394 H 0.54282 0.8289 1.04422 0.0
C1395 C 0.56497 0.76857 0.97616 0.0
C1396 C 0.54058 0.75914 0.9982 0.0
H1397 H 0.59811 0.8074 0.95975 0.0
H1398 H 0.57234 0.7515 0.95777 0.0
C1399 C 0.53371 0.78057 1.02339 0.0
C1400 C 1.02895 0.2568 0.82833 0.0
C1401 C 1.00758 0.28487 0.82561 0.0
H1402 H 0.07963 0.2394 0.83355 0.0
C1403 C 1.02153 0.31752 0.82388 0.0
H1404 H 1.01871 0.23141 0.8298 0.0
C1405 C 0.05621 0.32217 0.82689 0.0
C1406 C 0.07745 0.29418 0.8308 0.0
H1407 H 1.00554 0.33961 0.82206 0.0
H1408 H 0.06631 0.34766 0.82692 0.0
C1409 C 0.06372 0.2614 0.83047 0.0
C1410 C 0.51248 0.30518 0.59861 0.0
C1411 C 0.5289 0.32257 0.62276 0.0
H1412 H 0.50634 0.258 0.57474 0.0
C1413 C 0.55229 0.30557 0.64152 0.0
H1414 H 0.49424 0.31786 0.58391 0.0
C1415 C 0.55956 0.27177 0.63598 0.0
C1416 C 0.54316 0.25423 0.6119 0.0
H1417 H 0.56542 0.31848 0.6602 0.0
H1418 H 0.57778 0.25934 0.65088 0.0
C1419 C 0.51941 0.27108 0.59334 0.0
C1420 C 0.55621 0.76067 0.3447 0.0
C1421 C 0.52425 0.77492 0.34021 0.0
H1422 H 0.6089 0.77011 0.35062 0.0
C1423 C 0.52168 0.80955 0.3329 0.0
H1424 H 0.55882 0.73407 0.35037 0.0
C1425 C 0.55015 0.83028 0.33385 0.0
C1426 C 0.58168 0.8165 0.34103 0.0
H1427 H 0.49734 0.82131 0.32947 0.0
H1428 H 0.54717 0.85739 0.33118 0.0
C1429 C 0.58485 0.78128 0.34466 0.0
C1430 C 1.00703 0.79535 0.1522 0.0
C1431 C 1.01415 0.82007 0.12976 0.0
H1432 H 1.02223 0.74894 0.1734 0.0
C1433 C 1.04064 0.81488 0.10854 0.0
H1434 H 0.98593 0.79827 0.16791 0.0
C1435 C 0.06105 0.78628 0.11116 0.0
C1436 C 0.05552 0.76309 0.13535 0.0
H1437 H 0.04667 0.83365 0.09096 0.0
H1438 H 0.08174 0.78284 0.095 0.0
C1439 C 1.0279 0.76736 0.15538 0.0
C1440 C 0.12954 0.16037 0.19164 0.0
C1441 C 0.14421 0.17332 0.16425 0.0
H1442 H 0.12919 0.16025 0.24161 0.0
C1443 C 0.16827 0.19935 0.1669 0.0
H1444 H 0.11086 0.14041 0.19045 0.0
C1445 C 0.17914 0.21041 0.19626 0.0
C1446 C 0.1658 0.19613 0.22367 0.0
H1447 H 0.18014 0.20989 0.14632 0.0
H1448 H 0.19895 0.22924 0.19748 0.0
C1449 C 0.14 0.17185 0.22101 0.0
C1450 C 0.13191 0.93337 0.44579 0.0
C1451 C 0.14672 0.92039 0.47309 0.0
H1452 H 0.13228 0.93492 0.39584 0.0
C1453 C 0.17205 0.89576 0.47015 0.0
H1454 H 0.11228 0.95231 0.4472 0.0
C1455 C 0.18388 0.88613 0.44065 0.0
C1456 C 0.17028 0.90046 0.41338 0.0
H1457 H 0.18411 0.88528 0.49065 0.0
H1458 H 0.20456 0.86836 0.43927 0.0
C1459 C 0.14334 0.92332 0.4163 0.0
C1460 C 0.40016 0.88931 0.69759 0.0
C1461 C 0.41463 0.90379 0.72438 0.0
H1462 H 0.39755 0.889 0.64768 0.0
C1463 C 0.4408 0.92748 0.72058 0.0
H1464 H 0.38003 0.8709 0.69966 0.0
C1465 C 0.45057 0.93819 0.69074 0.0
C1466 C 0.43477 0.9251 0.66397 0.0
H1467 H 0.45249 0.9392 0.74068 0.0
H1468 H 0.46963 0.95771 0.68869 0.0
C1469 C 0.41028 0.89965 0.66774 0.0
C1470 C 0.41382 0.209 0.94054 0.0
C1471 C 0.42584 0.19299 0.91347 0.0
H1472 H 0.41143 0.20886 0.99044 0.0
C1473 C 0.44813 0.1656 0.9168 0.0
H1474 H 0.39672 0.23025 0.93884 0.0
C1475 C 0.45626 0.15304 0.94645 0.0
C1476 C 0.44267 0.16786 0.97347 0.0
H1477 H 0.45782 0.1526 0.89648 0.0
H1478 H 0.47218 0.13087 0.94812 0.0
C1479 C 0.42232 0.19675 0.97018 0.0
C1480 C 0.91581 0.89379 0.97255 0.0
C1481 C 0.93941 0.92014 0.97583 0.0
H1482 H 0.88555 0.86433 0.94126 0.0
C1483 C 0.95368 0.93425 0.94872 0.0
H1484 H 0.90422 0.88238 0.99288 0.0
C1485 C 0.94329 0.92355 0.91908 0.0
C1486 C 0.91794 0.89889 0.91583 0.0
H1487 H 0.972 0.95451 0.95039 0.0
H1488 H 0.95378 0.93601 0.89876 0.0
C1489 C 0.905 0.88349 0.94291 0.0
C1490 C 0.95291 0.16071 0.69027 0.0
C1491 C 0.93689 0.17222 0.66302 0.0
H1492 H 0.95415 0.16117 0.74021 0.0
C1493 C 0.91113 0.19642 0.66581 0.0
H1494 H 0.97293 0.14219 0.68896 0.0
C1495 C 0.90004 0.20699 0.69524 0.0
C1496 C 0.91481 0.19403 0.72256 0.0
H1497 H 0.8982 0.20582 0.64533 0.0
H1498 H 0.879 0.22433 0.6966 0.0
C1499 C 0.94218 0.1717 0.71969 0.0
C1500 C 0.67416 0.19124 0.46611 0.0
C1501 C 0.64896 0.16645 0.46949 0.0
H1502 H 0.70537 0.21953 0.43464 0.0
C1503 C 0.63298 0.15412 0.44251 0.0
H1504 H 0.68705 0.20128 0.48634 0.0
C1505 C 0.64322 0.16492 0.41281 0.0
C1506 C 0.67005 0.18792 0.40938 0.0
H1507 H 0.61338 0.13511 0.44425 0.0
H1508 H 0.63134 0.15377 0.39255 0.0
C1509 C 0.68474 0.20166 0.43641 0.0
C1510 C 0.63801 0.92038 0.21876 0.0
C1511 C 0.66244 0.8949 0.22208 0.0
H1512 H 0.61105 0.95285 0.18742 0.0
C1513 C 0.67545 0.87968 0.195 0.0
H1514 H 0.62748 0.93272 0.23907 0.0
C1515 C 0.66572 0.89098 0.16534 0.0
C1516 C 0.64312 0.91812 0.16205 0.0
H1517 H 0.69421 0.8599 0.1967 0.0
H1518 H 0.67738 0.87967 0.14506 0.0
C1519 C 0.62865 0.93202 0.1891 0.0
C1520 C 0.69502 0.71636 0.66826 0.0
C1521 C 0.67059 0.69297 0.65822 0.0
H1522 H 0.72154 0.73812 0.70676 0.0
C1523 C 0.65113 0.67608 0.68087 0.0
H1524 H 0.71035 0.73005 0.65158 0.0
C1525 C 0.65743 0.681 0.71279 0.0
C1526 C 0.68349 0.70268 0.72264 0.0
H1527 H 0.63205 0.65796 0.67398 0.0
H1528 H 0.64314 0.66643 0.72964 0.0
C1529 C 0.70148 0.72102 0.7 0.0
C1530 C 0.67988 0.38135 0.93739 0.0
C1531 C 0.66437 0.39491 0.91066 0.0
H1532 H 0.68442 0.38265 0.98718 0.0
C1533 C 0.63847 0.41876 0.91463 0.0
H1534 H 0.69986 0.36289 0.9352 0.0
C1535 C 0.62994 0.43048 0.94446 0.0
C1536 C 0.64671 0.41823 0.97107 0.0
H1537 H 0.62604 0.42983 0.8946 0.0
H1538 H 0.61103 0.45007 0.94655 0.0
C1539 C 0.67096 0.39266 0.96724 0.0
C1540 C 0.95852 0.42798 0.19004 0.0
C1541 C 0.94349 0.41546 0.16269 0.0
H1542 H 0.95892 0.42804 0.24 0.0
C1543 C 0.91881 0.39003 0.1654 0.0
H1544 H 0.97769 0.44748 0.18879 0.0
C1545 C 0.90769 0.37921 0.19479 0.0
C1546 C 0.92139 0.39314 0.22216 0.0
H1547 H 0.90664 0.37984 0.14485 0.0
H1548 H 0.8874 0.3609 0.19606 0.0
C1549 C 0.94781 0.41674 0.21943 0.0
C1550 C 0.91409 0.69535 0.47202 0.0
C1551 C 0.93846 0.66989 0.47584 0.0
H1552 H 0.88332 0.72344 0.44008 0.0
C1553 C 0.95344 0.65599 0.44903 0.0
H1554 H 0.90194 0.70655 0.49211 0.0
C1555 C 0.94307 0.66601 0.41916 0.0
C1556 C 0.91704 0.68977 0.41536 0.0
H1557 H 0.97235 0.63639 0.45111 0.0
H1558 H 0.95419 0.65373 0.39909 0.0
C1559 C 0.90332 0.70497 0.44215 0.0
C1560 C 0.41268 0.39737 0.46087 0.0
C1561 C 0.43662 0.42337 0.4644 0.0
H1562 H 0.38254 0.36826 0.42925 0.0
C1563 C 0.45168 0.43711 0.43753 0.0
H1564 H 0.40056 0.3862 0.48104 0.0
C1565 C 0.44166 0.42644 0.40779 0.0
C1566 C 0.41597 0.40219 0.40426 0.0
H1567 H 0.47031 0.45705 0.43942 0.0
H1568 H 0.45272 0.43864 0.38759 0.0
C1569 C 0.40228 0.3871 0.43114 0.0
C1570 C 0.45009 0.67177 0.21718 0.0
C1571 C 0.42479 0.69645 0.22005 0.0
H1572 H 0.47773 0.6392 0.1865 0.0
C1573 C 0.41081 0.7102 0.1927 0.0
H1574 H 0.46133 0.66051 0.23772 0.0
C1575 C 0.42057 0.69829 0.16327 0.0
C1576 C 0.44411 0.6719 0.16051 0.0
H1577 H 0.39132 0.72929 0.19405 0.0
H1578 H 0.40821 0.70848 0.1428 0.0
C1579 C 0.45942 0.65944 0.18777 0.0
C1580 C 0.17135 0.69872 0.97158 0.0
C1581 C 0.14749 0.67257 0.97473 0.0
H1582 H 0.20177 0.7283 0.94042 0.0
C1583 C 0.13295 0.659 0.94756 0.0
H1584 H 0.18315 0.70971 0.99196 0.0
C1585 C 0.1433 0.67001 0.91796 0.0
C1586 C 0.16888 0.69446 0.91481 0.0
H1587 H 0.11443 0.6389 0.94912 0.0
H1588 H 0.13258 0.65795 0.89758 0.0
C1589 C 0.18212 0.70933 0.94198 0.0
C1590 C 0.13212 0.43497 0.69149 0.0
C1591 C 0.1469 0.42221 0.66414 0.0
H1592 H 0.13236 0.4358 0.74142 0.0
C1593 C 0.17192 0.39722 0.66687 0.0
H1594 H 0.1127 0.45414 0.69021 0.0
C1595 C 0.18355 0.38703 0.69627 0.0
C1596 C 0.17004 0.40117 0.72361 0.0
H1597 H 0.18391 0.38688 0.64631 0.0
H1598 H 0.20403 0.36901 0.69753 0.0
C1599 C 0.14336 0.42436 0.72088 0.0
loop_
_geom_bond_atom_site_label_1
_geom_bond_atom_site_label_2
_geom_bond_distance
_geom_bond_site_symmetry_2
_ccdc_geom_bond_type
O0 Tb1 2.506 . S
O0 C14 1.265 . S
Tb1 O0 2.506 . S
Tb1 O6 2.312 . S
Tb1 O10 2.271 . S
Tb1 O12 2.338 . S
Tb1 O19 2.441 . S
C2 O10 1.252 . S
C2 O11 1.253 . S
O3 Tb4 2.271 . S
O3 C13 1.252 . S
Tb4 O3 2.271 . S
Tb4 O7 2.338 . S
Tb4 O11 2.312 . S
Tb4 O15 2.441 . S
Tb4 O16 2.506 . S
C5 O15 1.244 . S
C5 O16 1.265 . S
O6 Tb1 2.312 . S
O6 C13 1.253 . S
O7 Tb4 2.338 . S
O7 C8 1.258 . S
C8 O7 1.258 . S
C8 O9 1.251 . S
O9 C8 1.251 . S
O10 Tb1 2.271 . S
O10 C2 1.252 . S
O11 C2 1.253 . S
O11 Tb4 2.312 . S
O12 Tb1 2.338 . S
O12 C17 1.258 . S
C13 O3 1.252 . S
C13 O6 1.253 . S
C14 O0 1.265 . S
C14 O19 1.244 . S
O15 Tb4 2.441 . S
O15 C5 1.244 . S
O16 Tb4 2.506 . S
O16 C5 1.265 . S
C17 O12 1.258 . S
C17 O18 1.251 . S
O18 C17 1.251 . S
O19 Tb1 2.441 . S
O19 C14 1.244 . S
O20 Tb21 2.506 . S
O20 C34 1.265 . S
Tb21 O20 2.506 . S
Tb21 O26 2.312 . S
Tb21 O30 2.271 . S
Tb21 O32 2.338 . S
Tb21 O39 2.441 . S
C22 O30 1.252 . S
C22 O31 1.253 . S
O23 Tb24 2.271 . S
O23 C33 1.252 . S
Tb24 O23 2.271 . S
Tb24 O27 2.338 1_455 S
Tb24 O31 2.312 . S
Tb24 O35 2.441 . S
Tb24 O36 2.506 1_455 S
C25 O35 1.244 1_655 S
C25 O36 1.265 . S
O26 Tb21 2.312 . S
O26 C33 1.253 . S
O27 Tb24 2.338 1_655 S
O27 C28 1.258 1_655 S
C28 O27 1.258 1_455 S
C28 O29 1.251 . S
O29 C28 1.251 . S
O30 Tb21 2.271 . S
O30 C22 1.252 . S
O31 C22 1.253 . S
O31 Tb24 2.312 . S
O32 Tb21 2.338 . S
O32 C37 1.258 . S
C33 O23 1.252 . S
C33 O26 1.253 . S
C34 O20 1.265 . S
C34 O39 1.244 . S
O35 Tb24 2.441 . S
O35 C25 1.244 1_455 S
O36 Tb24 2.506 1_655 S
O36 C25 1.265 . S
C37 O32 1.258 . S
C37 O38 1.251 . S
O38 C37 1.251 . S
O39 Tb21 2.441 . S
O39 C34 1.244 . S
O40 Tb41 2.506 . S
O40 C54 1.265 . S
Tb41 O40 2.506 . S
Tb41 O46 2.312 . S
Tb41 O50 2.271 . S
Tb41 O52 2.338 . S
Tb41 O59 2.441 . S
C42 O50 1.252 . S
C42 O51 1.253 . S
O43 Tb44 2.271 . S
O43 C53 1.252 . S
Tb44 O43 2.271 . S
Tb44 O47 2.338 . S
Tb44 O51 2.312 . S
Tb44 O55 2.441 . S
Tb44 O56 2.506 . S
C45 O55 1.244 . S
C45 O56 1.265 . S
O46 Tb41 2.312 . S
O46 C53 1.253 . S
O47 Tb44 2.338 . S
O47 C48 1.258 . S
C48 O47 1.258 . S
C48 O49 1.251 . S
O49 C48 1.251 . S
O50 Tb41 2.271 . S
O50 C42 1.252 . S
O51 C42 1.253 . S
O51 Tb44 2.312 . S
O52 Tb41 2.338 . S
O52 C57 1.258 . S
C53 O43 1.252 . S
C53 O46 1.253 . S
C54 O40 1.265 . S
C54 O59 1.244 . S
O55 Tb44 2.441 . S
O55 C45 1.244 . S
O56 Tb44 2.506 . S
O56 C45 1.265 . S
C57 O52 1.258 . S
C57 O58 1.251 . S
O58 C57 1.251 . S
O59 Tb41 2.441 . S
O59 C54 1.244 . S
O60 Tb61 2.506 . S
O60 C74 1.265 . S
Tb61 O60 2.506 . S
Tb61 O66 2.312 . S
Tb61 O70 2.271 . S
Tb61 O72 2.338 1_554 S
Tb61 O79 2.441 . S
C62 O70 1.252 . S
C62 O71 1.253 . S
O63 Tb64 2.271 . S
O63 C73 1.252 . S
Tb64 O63 2.271 . S
Tb64 O67 2.338 . S
Tb64 O71 2.312 . S
Tb64 O75 2.441 . S
Tb64 O76 2.506 . S
C65 O75 1.244 . S
C65 O76 1.265 . S
O66 Tb61 2.312 . S
O66 C73 1.253 . S
O67 Tb64 2.338 . S
O67 C68 1.258 . S
C68 O67 1.258 . S
C68 O69 1.251 . S
O69 C68 1.251 . S
O70 Tb61 2.271 . S
O70 C62 1.252 . S
O71 C62 1.253 . S
O71 Tb64 2.312 . S
O72 Tb61 2.338 1_556 S
O72 C77 1.258 . S
C73 O63 1.252 . S
C73 O66 1.253 . S
C74 O60 1.265 . S
C74 O79 1.244 . S
O75 Tb64 2.441 . S
O75 C65 1.244 . S
O76 Tb64 2.506 . S
O76 C65 1.265 . S
C77 O72 1.258 . S
C77 O78 1.251 . S
O78 C77 1.251 . S
O79 Tb61 2.441 . S
O79 C74 1.244 . S
O80 Tb81 2.506 . S
O80 C94 1.265 . S
Tb81 O80 2.506 . S
Tb81 O86 2.312 . S
Tb81 O90 2.271 . S
Tb81 O92 2.338 . S
Tb81 O99 2.441 . S
C82 O90 1.252 . S
C82 O91 1.253 . S
O83 Tb84 2.271 . S
O83 C93 1.252 . S
Tb84 O83 2.271 . S
Tb84 O87 2.338 . S
Tb84 O91 2.312 . S
Tb84 O95 2.441 . S
Tb84 O96 2.506 . S
C85 O95 1.244 . S
C85 O96 1.265 . S
O86 Tb81 2.312 . S
O86 C93 1.253 . S
O87 Tb84 2.338 . S
O87 C88 1.258 . S
C88 O87 1.258 . S
C88 O89 1.251 . S
O89 C88 1.251 . S
O90 Tb81 2.271 . S
O90 C82 1.252 . S
O91 C82 1.253 . S
O91 Tb84 2.312 . S
O92 Tb81 2.338 . S
O92 C97 1.258 . S
C93 O83 1.252 . S
C93 O86 1.253 . S
C94 O80 1.265 . S
C94 O99 1.244 . S
O95 Tb84 2.441 . S
O95 C85 1.244 . S
O96 Tb84 2.506 . S
O96 C85 1.265 . S
C97 O92 1.258 . S
C97 O98 1.251 . S
O98 C97 1.251 . S
O99 Tb81 2.441 . S
O99 C94 1.244 . S
O100 Tb101 2.506 . S
O100 C114 1.265 . S
Tb101 O100 2.506 . S
Tb101 O106 2.312 . S
Tb101 O110 2.271 . S
Tb101 O112 2.338 . S
Tb101 O119 2.441 . S
C102 O110 1.252 . S
C102 O111 1.253 . S
O103 Tb104 2.271 . S
O103 C113 1.252 . S
Tb104 O103 2.271 . S
Tb104 O107 2.338 . S
Tb104 O111 2.312 . S
Tb104 O115 2.441 . S
Tb104 O116 2.506 . S
C105 O115 1.244 . S
C105 O116 1.265 . S
O106 Tb101 2.312 . S
O106 C113 1.253 . S
O107 Tb104 2.338 . S
O107 C108 1.258 . S
C108 O107 1.258 . S
C108 O109 1.251 . S
O109 C108 1.251 . S
O110 Tb101 2.271 . S
O110 C102 1.252 . S
O111 C102 1.253 . S
O111 Tb104 2.312 . S
O112 Tb101 2.338 . S
O112 C117 1.258 . S
C113 O103 1.252 . S
C113 O106 1.253 . S
C114 O100 1.265 . S
C114 O119 1.244 . S
O115 Tb104 2.441 . S
O115 C105 1.244 . S
O116 Tb104 2.506 . S
O116 C105 1.265 . S
C117 O112 1.258 . S
C117 O118 1.251 . S
O118 C117 1.251 . S
O119 Tb101 2.441 . S
O119 C114 1.244 . S
O120 Tb121 2.506 . S
O120 C134 1.265 . S
Tb121 O120 2.506 . S
Tb121 O126 2.312 . S
Tb121 O130 2.271 . S
Tb121 O132 2.338 . S
Tb121 O139 2.441 . S
C122 O130 1.252 . S
C122 O131 1.253 . S
O123 Tb124 2.271 . S
O123 C133 1.252 . S
Tb124 O123 2.271 . S
Tb124 O127 2.338 . S
Tb124 O131 2.312 . S
Tb124 O135 2.441 . S
Tb124 O136 2.506 . S
C125 O135 1.244 . S
C125 O136 1.265 . S
O126 Tb121 2.312 . S
O126 C133 1.253 . S
O127 Tb124 2.338 . S
O127 C128 1.258 . S
C128 O127 1.258 . S
C128 O129 1.251 . S
O129 C128 1.251 . S
O130 Tb121 2.271 . S
O130 C122 1.252 . S
O131 C122 1.253 . S
O131 Tb124 2.312 . S
O132 Tb121 2.338 . S
O132 C137 1.258 . S
C133 O123 1.252 . S
C133 O126 1.253 . S
C134 O120 1.265 . S
C134 O139 1.244 . S
O135 Tb124 2.441 . S
O135 C125 1.244 . S
O136 Tb124 2.506 . S
O136 C125 1.265 . S
C137 O132 1.258 . S
C137 O138 1.251 . S
O138 C137 1.251 . S
O139 Tb121 2.441 . S
O139 C134 1.244 . S
O140 Tb141 2.506 1_655 S
O140 C154 1.265 . S
Tb141 O140 2.506 1_455 S
Tb141 O146 2.312 . S
Tb141 O150 2.271 . S
Tb141 O152 2.338 1_455 S
Tb141 O159 2.441 . S
C142 O150 1.252 . S
C142 O151 1.253 . S
O143 Tb144 2.271 . S
O143 C153 1.252 . S
Tb144 O143 2.271 . S
Tb144 O147 2.338 1_556 S
Tb144 O151 2.312 . S
Tb144 O155 2.441 . S
Tb144 O156 2.506 . S
C145 O155 1.244 . S
C145 O156 1.265 . S
O146 Tb141 2.312 . S
O146 C153 1.253 . S
O147 Tb144 2.338 1_554 S
O147 C148 1.258 . S
C148 O147 1.258 . S
C148 O149 1.251 . S
O149 C148 1.251 . S
O150 Tb141 2.271 . S
O150 C142 1.252 . S
O151 C142 1.253 . S
O151 Tb144 2.312 . S
O152 Tb141 2.338 1_655 S
O152 C157 1.258 1_655 S
C153 O143 1.252 . S
C153 O146 1.253 . S
C154 O140 1.265 . S
C154 O159 1.244 1_655 S
O155 Tb144 2.441 . S
O155 C145 1.244 . S
O156 Tb144 2.506 . S
O156 C145 1.265 . S
C157 O152 1.258 1_455 S
C157 O158 1.251 . S
O158 C157 1.251 . S
O159 Tb141 2.441 . S
O159 C154 1.244 1_455 S
O160 Tb161 2.506 . S
O160 C174 1.265 . S
Tb161 O160 2.506 . S
Tb161 O166 2.312 . S
Tb161 O170 2.271 . S
Tb161 O172 2.338 . S
Tb161 O179 2.441 . S
C162 O170 1.252 . S
C162 O171 1.253 . S
O163 Tb164 2.271 . S
O163 C173 1.252 . S
Tb164 O163 2.271 . S
Tb164 O167 2.338 . S
Tb164 O171 2.312 . S
Tb164 O175 2.441 . S
Tb164 O176 2.506 . S
C165 O175 1.244 . S
C165 O176 1.265 . S
O166 Tb161 2.312 . S
O166 C173 1.253 . S
O167 Tb164 2.338 . S
O167 C168 1.258 . S
C168 O167 1.258 . S
C168 O169 1.251 . S
O169 C168 1.251 . S
O170 Tb161 2.271 . S
O170 C162 1.252 . S
O171 C162 1.253 . S
O171 Tb164 2.312 . S
O172 Tb161 2.338 . S
O172 C177 1.258 . S
C173 O163 1.252 . S
C173 O166 1.253 . S
C174 O160 1.265 . S
C174 O179 1.244 . S
O175 Tb164 2.441 . S
O175 C165 1.244 . S
O176 Tb164 2.506 . S
O176 C165 1.265 . S
C177 O172 1.258 . S
C177 O178 1.251 . S
O178 C177 1.251 . S
O179 Tb161 2.441 . S
O179 C174 1.244 . S
O180 Tb181 2.506 . S
O180 C194 1.265 . S
Tb181 O180 2.506 . S
Tb181 O186 2.312 . S
Tb181 O190 2.271 . S
Tb181 O192 2.338 . S
Tb181 O199 2.441 . S
C182 O190 1.252 . S
C182 O191 1.253 . S
O183 Tb184 2.271 . S
O183 C193 1.252 . S
Tb184 O183 2.271 . S
Tb184 O187 2.338 1_655 S
Tb184 O191 2.312 . S
Tb184 O195 2.441 . S
Tb184 O196 2.506 1_655 S
C185 O195 1.244 1_455 S
C185 O196 1.265 . S
O186 Tb181 2.312 . S
O186 C193 1.253 . S
O187 Tb184 2.338 1_455 S
O187 C188 1.258 1_455 S
C188 O187 1.258 1_655 S
C188 O189 1.251 . S
O189 C188 1.251 . S
O190 Tb181 2.271 . S
O190 C182 1.252 . S
O191 C182 1.253 . S
O191 Tb184 2.312 . S
O192 Tb181 2.338 . S
O192 C197 1.258 . S
C193 O183 1.252 . S
C193 O186 1.253 . S
C194 O180 1.265 . S
C194 O199 1.244 . S
O195 Tb184 2.441 . S
O195 C185 1.244 1_655 S
O196 Tb184 2.506 1_455 S
O196 C185 1.265 . S
C197 O192 1.258 . S
C197 O198 1.251 . S
O198 C197 1.251 . S
O199 Tb181 2.441 . S
O199 C194 1.244 . S
O200 Tb201 2.506 . S
O200 C214 1.265 . S
Tb201 O200 2.506 . S
Tb201 O206 2.312 . S
Tb201 O210 2.271 . S
Tb201 O212 2.338 . S
Tb201 O219 2.441 . S
C202 O210 1.252 . S
C202 O211 1.253 . S
O203 Tb204 2.271 . S
O203 C213 1.252 . S
Tb204 O203 2.271 . S
Tb204 O207 2.338 . S
Tb204 O211 2.312 . S
Tb204 O215 2.441 . S
Tb204 O216 2.506 . S
C205 O215 1.244 . S
C205 O216 1.265 . S
O206 Tb201 2.312 . S
O206 C213 1.253 . S
O207 Tb204 2.338 . S
O207 C208 1.258 . S
C208 O207 1.258 . S
C208 O209 1.251 . S
O209 C208 1.251 . S
O210 Tb201 2.271 . S
O210 C202 1.252 . S
O211 C202 1.253 . S
O211 Tb204 2.312 . S
O212 Tb201 2.338 . S
O212 C217 1.258 . S
C213 O203 1.252 . S
C213 O206 1.253 . S
C214 O200 1.265 . S
C214 O219 1.244 . S
O215 Tb204 2.441 . S
O215 C205 1.244 . S
O216 Tb204 2.506 . S
O216 C205 1.265 . S
C217 O212 1.258 . S
C217 O218 1.251 . S
O218 C217 1.251 . S
O219 Tb201 2.441 . S
O219 C214 1.244 . S
O220 Tb221 2.506 . S
O220 C234 1.265 . S
Tb221 O220 2.506 . S
Tb221 O226 2.312 . S
Tb221 O230 2.271 . S
Tb221 O232 2.338 1_556 S
Tb221 O239 2.441 . S
C222 O230 1.252 . S
C222 O231 1.253 . S
O223 Tb224 2.271 . S
O223 C233 1.252 . S
Tb224 O223 2.271 . S
Tb224 O227 2.338 . S
Tb224 O231 2.312 . S
Tb224 O235 2.441 . S
Tb224 O236 2.506 . S
C225 O235 1.244 . S
C225 O236 1.265 . S
O226 Tb221 2.312 . S
O226 C233 1.253 . S
O227 Tb224 2.338 . S
O227 C228 1.258 . S
C228 O227 1.258 . S
C228 O229 1.251 . S
O229 C228 1.251 . S
O230 Tb221 2.271 . S
O230 C222 1.252 . S
O231 C222 1.253 . S
O231 Tb224 2.312 . S
O232 Tb221 2.338 1_554 S
O232 C237 1.258 . S
C233 O223 1.252 . S
C233 O226 1.253 . S
C234 O220 1.265 . S
C234 O239 1.244 . S
O235 Tb224 2.441 . S
O235 C225 1.244 . S
O236 Tb224 2.506 . S
O236 C225 1.265 . S
C237 O232 1.258 . S
C237 O238 1.251 . S
O238 C237 1.251 . S
O239 Tb221 2.441 . S
O239 C234 1.244 . S
O240 Tb241 2.506 . S
O240 C254 1.265 . S
Tb241 O240 2.506 . S
Tb241 O246 2.312 . S
Tb241 O250 2.271 . S
Tb241 O252 2.338 . S
Tb241 O259 2.441 . S
C242 O250 1.252 . S
C242 O251 1.253 . S
O243 Tb244 2.271 . S
O243 C253 1.252 . S
Tb244 O243 2.271 . S
Tb244 O247 2.338 . S
Tb244 O251 2.312 . S
Tb244 O255 2.441 . S
Tb244 O256 2.506 . S
C245 O255 1.244 . S
C245 O256 1.265 . S
O246 Tb241 2.312 . S
O246 C253 1.253 . S
O247 Tb244 2.338 . S
O247 C248 1.258 . S
C248 O247 1.258 . S
C248 O249 1.251 . S
O249 C248 1.251 . S
O250 Tb241 2.271 . S
O250 C242 1.252 . S
O251 C242 1.253 . S
O251 Tb244 2.312 . S
O252 Tb241 2.338 . S
O252 C257 1.258 . S
C253 O243 1.252 . S
C253 O246 1.253 . S
C254 O240 1.265 . S
C254 O259 1.244 . S
O255 Tb244 2.441 . S
O255 C245 1.244 . S
O256 Tb244 2.506 . S
O256 C245 1.265 . S
C257 O252 1.258 . S
C257 O258 1.251 . S
O258 C257 1.251 . S
O259 Tb241 2.441 . S
O259 C254 1.244 . S
O260 Tb261 2.506 . S
O260 C274 1.265 . S
Tb261 O260 2.506 . S
Tb261 O266 2.312 . S
Tb261 O270 2.271 . S
Tb261 O272 2.338 . S
Tb261 O279 2.441 . S
C262 O270 1.252 . S
C262 O271 1.253 . S
O263 Tb264 2.271 . S
O263 C273 1.252 . S
Tb264 O263 2.271 . S
Tb264 O267 2.338 . S
Tb264 O271 2.312 . S
Tb264 O275 2.441 . S
Tb264 O276 2.506 . S
C265 O275 1.244 . S
C265 O276 1.265 . S
O266 Tb261 2.312 . S
O266 C273 1.253 . S
O267 Tb264 2.338 . S
O267 C268 1.258 . S
C268 O267 1.258 . S
C268 O269 1.251 . S
O269 C268 1.251 . S
O270 Tb261 2.271 . S
O270 C262 1.252 . S
O271 C262 1.253 . S
O271 Tb264 2.312 . S
O272 Tb261 2.338 . S
O272 C277 1.258 . S
C273 O263 1.252 . S
C273 O266 1.253 . S
C274 O260 1.265 . S
C274 O279 1.244 . S
O275 Tb264 2.441 . S
O275 C265 1.244 . S
O276 Tb264 2.506 . S
O276 C265 1.265 . S
C277 O272 1.258 . S
C277 O278 1.251 . S
O278 C277 1.251 . S
O279 Tb261 2.441 . S
O279 C274 1.244 . S
O280 Tb281 2.506 . S
O280 C294 1.265 . S
Tb281 O280 2.506 . S
Tb281 O286 2.312 . S
Tb281 O290 2.271 . S
Tb281 O292 2.338 . S
Tb281 O299 2.441 . S
C282 O290 1.252 . S
C282 O291 1.253 . S
O283 Tb284 2.271 . S
O283 C293 1.252 . S
Tb284 O283 2.271 . S
Tb284 O287 2.338 . S
Tb284 O291 2.312 . S
Tb284 O295 2.441 . S
Tb284 O296 2.506 . S
C285 O295 1.244 . S
C285 O296 1.265 . S
O286 Tb281 2.312 . S
O286 C293 1.253 . S
O287 Tb284 2.338 . S
O287 C288 1.258 . S
C288 O287 1.258 . S
C288 O289 1.251 . S
O289 C288 1.251 . S
O290 Tb281 2.271 . S
O290 C282 1.252 . S
O291 C282 1.253 . S
O291 Tb284 2.312 . S
O292 Tb281 2.338 . S
O292 C297 1.258 . S
C293 O283 1.252 . S
C293 O286 1.253 . S
C294 O280 1.265 . S
C294 O299 1.244 . S
O295 Tb284 2.441 . S
O295 C285 1.244 . S
O296 Tb284 2.506 . S
O296 C285 1.265 . S
C297 O292 1.258 . S
C297 O298 1.251 . S
O298 C297 1.251 . S
O299 Tb281 2.441 . S
O299 C294 1.244 . S
O300 Tb301 2.506 . S
O300 C314 1.265 . S
Tb301 O300 2.506 . S
Tb301 O306 2.312 . S
Tb301 O310 2.271 . S
Tb301 O312 2.338 1_554 S
Tb301 O319 2.441 . S
C302 O310 1.252 . S
C302 O311 1.253 . S
O303 Tb304 2.271 . S
O303 C313 1.252 . S
Tb304 O303 2.271 . S
Tb304 O307 2.338 1_655 S
Tb304 O311 2.312 . S
Tb304 O315 2.441 . S
Tb304 O316 2.506 1_655 S
C305 O315 1.244 1_455 S
C305 O316 1.265 . S
O306 Tb301 2.312 . S
O306 C313 1.253 . S
O307 Tb304 2.338 1_455 S
O307 C308 1.258 1_455 S
C308 O307 1.258 1_655 S
C308 O309 1.251 . S
O309 C308 1.251 . S
O310 Tb301 2.271 . S
O310 C302 1.252 . S
O311 C302 1.253 . S
O311 Tb304 2.312 . S
O312 Tb301 2.338 1_556 S
O312 C317 1.258 . S
C313 O303 1.252 . S
C313 O306 1.253 . S
C314 O300 1.265 . S
C314 O319 1.244 . S
O315 Tb304 2.441 . S
O315 C305 1.244 1_655 S
O316 Tb304 2.506 1_455 S
O316 C305 1.265 . S
C317 O312 1.258 . S
C317 O318 1.251 . S
O318 C317 1.251 . S
O319 Tb301 2.441 . S
O319 C314 1.244 . S
O320 Tb321 2.506 . S
O320 C334 1.265 . S
Tb321 O320 2.506 . S
Tb321 O326 2.312 . S
Tb321 O330 2.271 . S
Tb321 O332 2.338 . S
Tb321 O339 2.441 . S
C322 O330 1.252 . S
C322 O331 1.253 . S
O323 Tb324 2.271 . S
O323 C333 1.252 . S
Tb324 O323 2.271 . S
Tb324 O327 2.338 . S
Tb324 O331 2.312 . S
Tb324 O335 2.441 . S
Tb324 O336 2.506 . S
C325 O335 1.244 . S
C325 O336 1.265 . S
O326 Tb321 2.312 . S
O326 C333 1.253 . S
O327 Tb324 2.338 . S
O327 C328 1.258 . S
C328 O327 1.258 . S
C328 O329 1.251 . S
O329 C328 1.251 . S
O330 Tb321 2.271 . S
O330 C322 1.252 . S
O331 C322 1.253 . S
O331 Tb324 2.312 . S
O332 Tb321 2.338 . S
O332 C337 1.258 . S
C333 O323 1.252 . S
C333 O326 1.253 . S
C334 O320 1.265 . S
C334 O339 1.244 . S
O335 Tb324 2.441 . S
O335 C325 1.244 . S
O336 Tb324 2.506 . S
O336 C325 1.265 . S
C337 O332 1.258 . S
C337 O338 1.251 . S
O338 C337 1.251 . S
O339 Tb321 2.441 . S
O339 C334 1.244 . S
O340 Tb341 2.506 . S
O340 C354 1.265 . S
Tb341 O340 2.506 . S
Tb341 O346 2.312 . S
Tb341 O350 2.271 . S
Tb341 O352 2.338 1_554 S
Tb341 O359 2.441 . S
C342 O350 1.252 . S
C342 O351 1.253 . S
O343 Tb344 2.271 . S
O343 C353 1.252 . S
Tb344 O343 2.271 . S
Tb344 O347 2.338 . S
Tb344 O351 2.312 . S
Tb344 O355 2.441 . S
Tb344 O356 2.506 . S
C345 O355 1.244 . S
C345 O356 1.265 . S
O346 Tb341 2.312 . S
O346 C353 1.253 . S
O347 Tb344 2.338 . S
O347 C348 1.258 . S
C348 O347 1.258 . S
C348 O349 1.251 . S
O349 C348 1.251 . S
O350 Tb341 2.271 . S
O350 C342 1.252 . S
O351 C342 1.253 . S
O351 Tb344 2.312 . S
O352 Tb341 2.338 1_556 S
O352 C357 1.258 . S
C353 O343 1.252 . S
C353 O346 1.253 . S
C354 O340 1.265 . S
C354 O359 1.244 . S
O355 Tb344 2.441 . S
O355 C345 1.244 . S
O356 Tb344 2.506 . S
O356 C345 1.265 . S
C357 O352 1.258 . S
C357 O358 1.251 . S
O358 C357 1.251 . S
O359 Tb341 2.441 . S
O359 C354 1.244 . S
O360 Tb361 2.506 . S
O360 C374 1.265 . S
Tb361 O360 2.506 . S
Tb361 O366 2.312 . S
Tb361 O370 2.271 . S
Tb361 O372 2.338 . S
Tb361 O379 2.441 . S
C362 O370 1.252 . S
C362 O371 1.253 . S
O363 Tb364 2.271 . S
O363 C373 1.252 . S
Tb364 O363 2.271 . S
Tb364 O367 2.338 . S
Tb364 O371 2.312 . S
Tb364 O375 2.441 . S
Tb364 O376 2.506 . S
C365 O375 1.244 . S
C365 O376 1.265 . S
O366 Tb361 2.312 . S
O366 C373 1.253 . S
O367 Tb364 2.338 . S
O367 C368 1.258 . S
C368 O367 1.258 . S
C368 O369 1.251 . S
O369 C368 1.251 . S
O370 Tb361 2.271 . S
O370 C362 1.252 . S
O371 C362 1.253 . S
O371 Tb364 2.312 . S
O372 Tb361 2.338 . S
O372 C377 1.258 . S
C373 O363 1.252 . S
C373 O366 1.253 . S
C374 O360 1.265 . S
C374 O379 1.244 . S
O375 Tb364 2.441 . S
O375 C365 1.244 . S
O376 Tb364 2.506 . S
O376 C365 1.265 . S
C377 O372 1.258 . S
C377 O378 1.251 . S
O378 C377 1.251 . S
O379 Tb361 2.441 . S
O379 C374 1.244 . S
O380 Tb381 2.506 . S
O380 C394 1.265 . S
Tb381 O380 2.506 . S
Tb381 O386 2.312 . S
Tb381 O390 2.271 . S
Tb381 O392 2.338 . S
Tb381 O399 2.441 . S
C382 O390 1.252 . S
C382 O391 1.253 . S
O383 Tb384 2.271 . S
O383 C393 1.252 . S
Tb384 O383 2.271 . S
Tb384 O387 2.338 1_655 S
Tb384 O391 2.312 . S
Tb384 O395 2.441 . S
Tb384 O396 2.506 1_655 S
C385 O395 1.244 1_455 S
C385 O396 1.265 . S
O386 Tb381 2.312 . S
O386 C393 1.253 . S
O387 Tb384 2.338 1_455 S
O387 C388 1.258 1_455 S
C388 O387 1.258 1_655 S
C388 O389 1.251 . S
O389 C388 1.251 . S
O390 Tb381 2.271 . S
O390 C382 1.252 . S
O391 C382 1.253 . S
O391 Tb384 2.312 . S
O392 Tb381 2.338 . S
O392 C397 1.258 . S
C393 O383 1.252 . S
C393 O386 1.253 . S
C394 O380 1.265 . S
C394 O399 1.244 . S
O395 Tb384 2.441 . S
O395 C385 1.244 1_655 S
O396 Tb384 2.506 1_455 S
O396 C385 1.265 . S
C397 O392 1.258 . S
C397 O398 1.251 . S
O398 C397 1.251 . S
O399 Tb381 2.441 . S
O399 C394 1.244 . S
O400 Tb401 2.506 . S
O400 C414 1.265 . S
Tb401 O400 2.506 . S
Tb401 O406 2.312 . S
Tb401 O410 2.271 . S
Tb401 O412 2.338 . S
Tb401 O419 2.441 . S
C402 O410 1.252 . S
C402 O411 1.253 . S
O403 Tb404 2.271 . S
O403 C413 1.252 . S
Tb404 O403 2.271 . S
Tb404 O407 2.338 . S
Tb404 O411 2.312 . S
Tb404 O415 2.441 . S
Tb404 O416 2.506 . S
C405 O415 1.244 . S
C405 O416 1.265 . S
O406 Tb401 2.312 . S
O406 C413 1.253 . S
O407 Tb404 2.338 . S
O407 C408 1.258 . S
C408 O407 1.258 . S
C408 O409 1.251 . S
O409 C408 1.251 . S
O410 Tb401 2.271 . S
O410 C402 1.252 . S
O411 C402 1.253 . S
O411 Tb404 2.312 . S
O412 Tb401 2.338 . S
O412 C417 1.258 . S
C413 O403 1.252 . S
C413 O406 1.253 . S
C414 O400 1.265 . S
C414 O419 1.244 . S
O415 Tb404 2.441 . S
O415 C405 1.244 . S
O416 Tb404 2.506 . S
O416 C405 1.265 . S
C417 O412 1.258 . S
C417 O418 1.251 . S
O418 C417 1.251 . S
O419 Tb401 2.441 . S
O419 C414 1.244 . S
O420 Tb421 2.506 . S
O420 C434 1.265 . S
Tb421 O420 2.506 . S
Tb421 O426 2.312 . S
Tb421 O430 2.271 . S
Tb421 O432 2.338 1_556 S
Tb421 O439 2.441 . S
C422 O430 1.252 . S
C422 O431 1.253 . S
O423 Tb424 2.271 . S
O423 C433 1.252 . S
Tb424 O423 2.271 . S
Tb424 O427 2.338 1_655 S
Tb424 O431 2.312 . S
Tb424 O435 2.441 . S
Tb424 O436 2.506 1_655 S
C425 O435 1.244 1_455 S
C425 O436 1.265 . S
O426 Tb421 2.312 . S
O426 C433 1.253 . S
O427 Tb424 2.338 1_455 S
O427 C428 1.258 1_455 S
C428 O427 1.258 1_655 S
C428 O429 1.251 . S
O429 C428 1.251 . S
O430 Tb421 2.271 . S
O430 C422 1.252 . S
O431 C422 1.253 . S
O431 Tb424 2.312 . S
O432 Tb421 2.338 1_554 S
O432 C437 1.258 . S
C433 O423 1.252 . S
C433 O426 1.253 . S
C434 O420 1.265 . S
C434 O439 1.244 . S
O435 Tb424 2.441 . S
O435 C425 1.244 1_655 S
O436 Tb424 2.506 1_455 S
O436 C425 1.265 . S
C437 O432 1.258 . S
C437 O438 1.251 . S
O438 C437 1.251 . S
O439 Tb421 2.441 . S
O439 C434 1.244 . S
O440 Tb441 2.506 . S
O440 C454 1.265 . S
Tb441 O440 2.506 . S
Tb441 O446 2.312 . S
Tb441 O450 2.271 . S
Tb441 O452 2.338 . S
Tb441 O459 2.441 . S
C442 O450 1.252 . S
C442 O451 1.253 . S
O443 Tb444 2.271 . S
O443 C453 1.252 . S
Tb444 O443 2.271 . S
Tb444 O447 2.338 . S
Tb444 O451 2.312 . S
Tb444 O455 2.441 . S
Tb444 O456 2.506 . S
C445 O455 1.244 . S
C445 O456 1.265 . S
O446 Tb441 2.312 . S
O446 C453 1.253 . S
O447 Tb444 2.338 . S
O447 C448 1.258 . S
C448 O447 1.258 . S
C448 O449 1.251 . S
O449 C448 1.251 . S
O450 Tb441 2.271 . S
O450 C442 1.252 . S
O451 C442 1.253 . S
O451 Tb444 2.312 . S
O452 Tb441 2.338 . S
O452 C457 1.258 . S
C453 O443 1.252 . S
C453 O446 1.253 . S
C454 O440 1.265 . S
C454 O459 1.244 . S
O455 Tb444 2.441 . S
O455 C445 1.244 . S
O456 Tb444 2.506 . S
O456 C445 1.265 . S
C457 O452 1.258 . S
C457 O458 1.251 . S
O458 C457 1.251 . S
O459 Tb441 2.441 . S
O459 C454 1.244 . S
O460 Tb461 2.506 . S
O460 C474 1.265 . S
Tb461 O460 2.506 . S
Tb461 O466 2.312 . S
Tb461 O470 2.271 . S
Tb461 O472 2.338 . S
Tb461 O479 2.441 . S
C462 O470 1.252 . S
C462 O471 1.253 . S
O463 Tb464 2.271 . S
O463 C473 1.252 . S
Tb464 O463 2.271 . S
Tb464 O467 2.338 . S
Tb464 O471 2.312 . S
Tb464 O475 2.441 . S
Tb464 O476 2.506 . S
C465 O475 1.244 . S
C465 O476 1.265 . S
O466 Tb461 2.312 . S
O466 C473 1.253 . S
O467 Tb464 2.338 . S
O467 C468 1.258 . S
C468 O467 1.258 . S
C468 O469 1.251 . S
O469 C468 1.251 . S
O470 Tb461 2.271 . S
O470 C462 1.252 . S
O471 C462 1.253 . S
O471 Tb464 2.312 . S
O472 Tb461 2.338 . S
O472 C477 1.258 . S
C473 O463 1.252 . S
C473 O466 1.253 . S
C474 O460 1.265 . S
C474 O479 1.244 . S
O475 Tb464 2.441 . S
O475 C465 1.244 . S
O476 Tb464 2.506 . S
O476 C465 1.265 . S
C477 O472 1.258 . S
C477 O478 1.251 . S
O478 C477 1.251 . S
O479 Tb461 2.441 . S
O479 C474 1.244 . S
O480 Tb481 2.506 . S
O480 C494 1.265 . S
Tb481 O480 2.506 . S
Tb481 O486 2.312 . S
Tb481 O490 2.271 . S
Tb481 O492 2.338 . S
Tb481 O499 2.441 . S
C482 O490 1.252 . S
C482 O491 1.253 . S
O483 Tb484 2.271 . S
O483 C493 1.252 . S
Tb484 O483 2.271 . S
Tb484 O487 2.338 . S
Tb484 O491 2.312 . S
Tb484 O495 2.441 . S
Tb484 O496 2.506 . S
C485 O495 1.244 . S
C485 O496 1.265 . S
O486 Tb481 2.312 . S
O486 C493 1.253 . S
O487 Tb484 2.338 . S
O487 C488 1.258 . S
C488 O487 1.258 . S
C488 O489 1.251 . S
O489 C488 1.251 . S
O490 Tb481 2.271 . S
O490 C482 1.252 . S
O491 C482 1.253 . S
O491 Tb484 2.312 . S
O492 Tb481 2.338 . S
O492 C497 1.258 . S
C493 O483 1.252 . S
C493 O486 1.253 . S
C494 O480 1.265 . S
C494 O499 1.244 . S
O495 Tb484 2.441 . S
O495 C485 1.244 . S
O496 Tb484 2.506 . S
O496 C485 1.265 . S
C497 O492 1.258 . S
C497 O498 1.251 . S
O498 C497 1.251 . S
O499 Tb481 2.441 . S
O499 C494 1.244 . S
O500 Tb501 2.506 . S
O500 C514 1.265 . S
Tb501 O500 2.506 . S
Tb501 O506 2.312 . S
Tb501 O510 2.271 . S
Tb501 O512 2.338 1_556 S
Tb501 O519 2.441 . S
C502 O510 1.252 . S
C502 O511 1.253 . S
O503 Tb504 2.271 . S
O503 C513 1.252 . S
Tb504 O503 2.271 . S
Tb504 O507 2.338 . S
Tb504 O511 2.312 . S
Tb504 O515 2.441 . S
Tb504 O516 2.506 . S
C505 O515 1.244 . S
C505 O516 1.265 . S
O506 Tb501 2.312 . S
O506 C513 1.253 . S
O507 Tb504 2.338 . S
O507 C508 1.258 . S
C508 O507 1.258 . S
C508 O509 1.251 . S
O509 C508 1.251 . S
O510 Tb501 2.271 . S
O510 C502 1.252 . S
O511 C502 1.253 . S
O511 Tb504 2.312 . S
O512 Tb501 2.338 1_554 S
O512 C517 1.258 . S
C513 O503 1.252 . S
C513 O506 1.253 . S
C514 O500 1.265 . S
C514 O519 1.244 . S
O515 Tb504 2.441 . S
O515 C505 1.244 . S
O516 Tb504 2.506 . S
O516 C505 1.265 . S
C517 O512 1.258 . S
C517 O518 1.251 . S
O518 C517 1.251 . S
O519 Tb501 2.441 . S
O519 C514 1.244 . S
O520 Tb521 2.506 . S
O520 C534 1.265 . S
Tb521 O520 2.506 . S
Tb521 O526 2.312 . S
Tb521 O530 2.271 . S
Tb521 O532 2.338 . S
Tb521 O539 2.441 . S
C522 O530 1.252 . S
C522 O531 1.253 . S
O523 Tb524 2.271 . S
O523 C533 1.252 . S
Tb524 O523 2.271 . S
Tb524 O527 2.338 . S
Tb524 O531 2.312 . S
Tb524 O535 2.441 . S
Tb524 O536 2.506 . S
C525 O535 1.244 . S
C525 O536 1.265 . S
O526 Tb521 2.312 . S
O526 C533 1.253 . S
O527 Tb524 2.338 . S
O527 C528 1.258 . S
C528 O527 1.258 . S
C528 O529 1.251 . S
O529 C528 1.251 . S
O530 Tb521 2.271 . S
O530 C522 1.252 . S
O531 C522 1.253 . S
O531 Tb524 2.312 . S
O532 Tb521 2.338 . S
O532 C537 1.258 . S
C533 O523 1.252 . S
C533 O526 1.253 . S
C534 O520 1.265 . S
C534 O539 1.244 . S
O535 Tb524 2.441 . S
O535 C525 1.244 . S
O536 Tb524 2.506 . S
O536 C525 1.265 . S
C537 O532 1.258 . S
C537 O538 1.251 . S
O538 C537 1.251 . S
O539 Tb521 2.441 . S
O539 C534 1.244 . S
O540 Tb541 2.506 . S
O540 C554 1.265 . S
Tb541 O540 2.506 . S
Tb541 O546 2.312 . S
Tb541 O550 2.271 . S
Tb541 O552 2.338 . S
Tb541 O559 2.441 . S
C542 O550 1.252 . S
C542 O551 1.253 . S
O543 Tb544 2.271 . S
O543 C553 1.252 . S
Tb544 O543 2.271 . S
Tb544 O547 2.338 1_455 S
Tb544 O551 2.312 . S
Tb544 O555 2.441 . S
Tb544 O556 2.506 1_455 S
C545 O555 1.244 1_655 S
C545 O556 1.265 . S
O546 Tb541 2.312 . S
O546 C553 1.253 . S
O547 Tb544 2.338 1_655 S
O547 C548 1.258 1_655 S
C548 O547 1.258 1_455 S
C548 O549 1.251 . S
O549 C548 1.251 . S
O550 Tb541 2.271 . S
O550 C542 1.252 . S
O551 C542 1.253 . S
O551 Tb544 2.312 . S
O552 Tb541 2.338 . S
O552 C557 1.258 . S
C553 O543 1.252 . S
C553 O546 1.253 . S
C554 O540 1.265 . S
C554 O559 1.244 . S
O555 Tb544 2.441 . S
O555 C545 1.244 1_455 S
O556 Tb544 2.506 1_655 S
O556 C545 1.265 . S
C557 O552 1.258 . S
C557 O558 1.251 . S
O558 C557 1.251 . S
O559 Tb541 2.441 . S
O559 C554 1.244 . S
O560 Tb561 2.506 . S
O560 C574 1.265 . S
Tb561 O560 2.506 . S
Tb561 O566 2.312 . S
Tb561 O570 2.271 . S
Tb561 O572 2.338 . S
Tb561 O579 2.441 . S
C562 O570 1.252 . S
C562 O571 1.253 . S
O563 Tb564 2.271 . S
O563 C573 1.252 . S
Tb564 O563 2.271 . S
Tb564 O567 2.338 . S
Tb564 O571 2.312 . S
Tb564 O575 2.441 . S
Tb564 O576 2.506 . S
C565 O575 1.244 . S
C565 O576 1.265 . S
O566 Tb561 2.312 . S
O566 C573 1.253 . S
O567 Tb564 2.338 . S
O567 C568 1.258 . S
C568 O567 1.258 . S
C568 O569 1.251 . S
O569 C568 1.251 . S
O570 Tb561 2.271 . S
O570 C562 1.252 . S
O571 C562 1.253 . S
O571 Tb564 2.312 . S
O572 Tb561 2.338 . S
O572 C577 1.258 . S
C573 O563 1.252 . S
C573 O566 1.253 . S
C574 O560 1.265 . S
C574 O579 1.244 . S
O575 Tb564 2.441 . S
O575 C565 1.244 . S
O576 Tb564 2.506 . S
O576 C565 1.265 . S
C577 O572 1.258 . S
C577 O578 1.251 . S
O578 C577 1.251 . S
O579 Tb561 2.441 . S
O579 C574 1.244 . S
O580 Tb581 2.506 . S
O580 C594 1.265 . S
Tb581 O580 2.506 . S
Tb581 O586 2.312 . S
Tb581 O590 2.271 . S
Tb581 O592 2.338 1_554 S
Tb581 O599 2.441 . S
C582 O590 1.252 . S
C582 O591 1.253 . S
O583 Tb584 2.271 . S
O583 C593 1.252 . S
Tb584 O583 2.271 . S
Tb584 O587 2.338 1_455 S
Tb584 O591 2.312 . S
Tb584 O595 2.441 . S
Tb584 O596 2.506 1_455 S
C585 O595 1.244 1_655 S
C585 O596 1.265 . S
O586 Tb581 2.312 . S
O586 C593 1.253 . S
O587 Tb584 2.338 1_655 S
O587 C588 1.258 1_655 S
C588 O587 1.258 1_455 S
C588 O589 1.251 . S
O589 C588 1.251 . S
O590 Tb581 2.271 . S
O590 C582 1.252 . S
O591 C582 1.253 . S
O591 Tb584 2.312 . S
O592 Tb581 2.338 1_556 S
O592 C597 1.258 . S
C593 O583 1.252 . S
C593 O586 1.253 . S
C594 O580 1.265 . S
C594 O599 1.244 . S
O595 Tb584 2.441 . S
O595 C585 1.244 1_455 S
O596 Tb584 2.506 1_655 S
O596 C585 1.265 . S
C597 O592 1.258 . S
C597 O598 1.251 . S
O598 C597 1.251 . S
O599 Tb581 2.441 . S
O599 C594 1.244 . S
O600 Tb601 2.506 . S
O600 C614 1.265 . S
Tb601 O600 2.506 . S
Tb601 O606 2.312 . S
Tb601 O610 2.271 . S
Tb601 O612 2.338 . S
Tb601 O619 2.441 . S
C602 O610 1.252 . S
C602 O611 1.253 . S
O603 Tb604 2.271 . S
O603 C613 1.252 . S
Tb604 O603 2.271 . S
Tb604 O607 2.338 . S
Tb604 O611 2.312 . S
Tb604 O615 2.441 . S
Tb604 O616 2.506 . S
C605 O615 1.244 . S
C605 O616 1.265 . S
O606 Tb601 2.312 . S
O606 C613 1.253 . S
O607 Tb604 2.338 . S
O607 C608 1.258 . S
C608 O607 1.258 . S
C608 O609 1.251 . S
O609 C608 1.251 . S
O610 Tb601 2.271 . S
O610 C602 1.252 . S
O611 C602 1.253 . S
O611 Tb604 2.312 . S
O612 Tb601 2.338 . S
O612 C617 1.258 . S
C613 O603 1.252 . S
C613 O606 1.253 . S
C614 O600 1.265 . S
C614 O619 1.244 . S
O615 Tb604 2.441 . S
O615 C605 1.244 . S
O616 Tb604 2.506 . S
O616 C605 1.265 . S
C617 O612 1.258 . S
C617 O618 1.251 . S
O618 C617 1.251 . S
O619 Tb601 2.441 . S
O619 C614 1.244 . S
O620 Tb621 2.506 . S
O620 C634 1.265 . S
Tb621 O620 2.506 . S
Tb621 O626 2.312 . S
Tb621 O630 2.271 . S
Tb621 O632 2.338 . S
Tb621 O639 2.441 . S
C622 O630 1.252 . S
C622 O631 1.253 . S
O623 Tb624 2.271 . S
O623 C633 1.252 . S
Tb624 O623 2.271 . S
Tb624 O627 2.338 . S
Tb624 O631 2.312 . S
Tb624 O635 2.441 . S
Tb624 O636 2.506 . S
C625 O635 1.244 . S
C625 O636 1.265 . S
O626 Tb621 2.312 . S
O626 C633 1.253 . S
O627 Tb624 2.338 . S
O627 C628 1.258 . S
C628 O627 1.258 . S
C628 O629 1.251 . S
O629 C628 1.251 . S
O630 Tb621 2.271 . S
O630 C622 1.252 . S
O631 C622 1.253 . S
O631 Tb624 2.312 . S
O632 Tb621 2.338 . S
O632 C637 1.258 . S
C633 O623 1.252 . S
C633 O626 1.253 . S
C634 O620 1.265 . S
C634 O639 1.244 . S
O635 Tb624 2.441 . S
O635 C625 1.244 . S
O636 Tb624 2.506 . S
O636 C625 1.265 . S
C637 O632 1.258 . S
C637 O638 1.251 . S
O638 C637 1.251 . S
O639 Tb621 2.441 . S
O639 C634 1.244 . S
C640 C641 1.387 . S
C640 H644 0.950 . S
C640 C649 1.390 1_545 S
C641 C640 1.387 . S
C641 C643 1.387 . S
H642 C649 0.950 . S
C643 C641 1.387 . S
C643 C645 1.390 1_545 S
C643 H647 0.950 . S
H644 C640 0.950 . S
C645 C643 1.390 1_565 S
C645 C646 1.387 . S
C645 H648 0.950 . S
C646 C645 1.387 . S
C646 C649 1.387 . S
H647 C643 0.950 . S
H648 C645 0.950 . S
C649 C640 1.390 1_565 S
C649 H642 0.950 . S
C649 C646 1.387 . S
C650 C651 1.387 . S
C650 H654 0.950 . S
C650 C659 1.390 . S
C651 C650 1.387 . S
C651 C653 1.387 . S
H652 C659 0.950 . S
C653 C651 1.387 . S
C653 C655 1.390 . S
C653 H657 0.950 . S
H654 C650 0.950 . S
C655 C653 1.390 . S
C655 C656 1.387 . S
C655 H658 0.950 . S
C656 C655 1.387 . S
C656 C659 1.387 . S
H657 C653 0.950 . S
H658 C655 0.950 . S
C659 C650 1.390 . S
C659 H652 0.950 . S
C659 C656 1.387 . S
C660 C661 1.387 . S
C660 H664 0.950 . S
C660 C669 1.390 1_545 S
C661 C660 1.387 . S
C661 C663 1.387 . S
H662 C669 0.950 . S
C663 C661 1.387 . S
C663 C665 1.390 1_545 S
C663 H667 0.950 . S
H664 C660 0.950 . S
C665 C663 1.390 1_565 S
C665 C666 1.387 . S
C665 H668 0.950 . S
C666 C665 1.387 . S
C666 C669 1.387 . S
H667 C663 0.950 . S
H668 C665 0.950 . S
C669 C660 1.390 1_565 S
C669 H662 0.950 . S
C669 C666 1.387 . S
C670 C671 1.387 . S
C670 H674 0.950 . S
C670 C679 1.390 1_554 S
C671 C670 1.387 . S
C671 C673 1.387 . S
H672 C679 0.950 . S
C673 C671 1.387 . S
C673 C675 1.390 1_554 S
C673 H677 0.950 . S
H674 C670 0.950 . S
C675 C673 1.390 1_556 S
C675 C676 1.387 . S
C675 H678 0.950 . S
C676 C675 1.387 . S
C676 C679 1.387 . S
H677 C673 0.950 . S
H678 C675 0.950 . S
C679 C670 1.390 1_556 S
C679 H672 0.950 . S
C679 C676 1.387 . S
C680 C681 1.387 . S
C680 H684 0.950 . S
C680 C689 1.390 1_565 S
C681 C680 1.387 . S
C681 C683 1.387 . S
H682 C689 0.950 . S
C683 C681 1.387 . S
C683 C685 1.390 1_565 S
C683 H687 0.950 . S
H684 C680 0.950 . S
C685 C683 1.390 1_545 S
C685 C686 1.387 . S
C685 H688 0.950 . S
C686 C685 1.387 . S
C686 C689 1.387 . S
H687 C683 0.950 . S
H688 C685 0.950 . S
C689 C680 1.390 1_545 S
C689 H682 0.950 . S
C689 C686 1.387 . S
C690 C691 1.387 . S
C690 H694 0.950 . S
C690 C699 1.390 . S
C691 C690 1.387 . S
C691 C693 1.387 . S
H692 C699 0.950 . S
C693 C691 1.387 . S
C693 C695 1.390 . S
C693 H697 0.950 . S
H694 C690 0.950 . S
C695 C693 1.390 . S
C695 C696 1.387 . S
C695 H698 0.950 . S
C696 C695 1.387 . S
C696 C699 1.387 . S
H697 C693 0.950 . S
H698 C695 0.950 . S
C699 C690 1.390 . S
C699 H692 0.950 . S
C699 C696 1.387 . S
C700 C701 1.387 . S
C700 H704 0.950 . S
C700 C709 1.390 1_545 S
C701 C700 1.387 . S
C701 C703 1.387 . S
H702 C709 0.950 . S
C703 C701 1.387 . S
C703 C705 1.390 1_545 S
C703 H707 0.950 . S
H704 C700 0.950 . S
C705 C703 1.390 1_565 S
C705 C706 1.387 . S
C705 H708 0.950 . S
C706 C705 1.387 . S
C706 C709 1.387 . S
H707 C703 0.950 . S
H708 C705 0.950 . S
C709 C700 1.390 1_565 S
C709 H702 0.950 . S
C709 C706 1.387 . S
C710 C711 1.387 . S
C710 H714 0.950 . S
C710 C719 1.390 1_554 S
C711 C710 1.387 . S
C711 C713 1.387 . S
H712 C719 0.950 . S
C713 C711 1.387 . S
C713 C715 1.390 1_554 S
C713 H717 0.950 . S
H714 C710 0.950 . S
C715 C713 1.390 1_556 S
C715 C716 1.387 . S
C715 H718 0.950 . S
C716 C715 1.387 . S
C716 C719 1.387 . S
H717 C713 0.950 . S
H718 C715 0.950 . S
C719 C710 1.390 1_556 S
C719 H712 0.950 . S
C719 C716 1.387 . S
C720 C721 1.387 . S
C720 H724 0.950 . S
C720 C729 1.390 . S
C721 C720 1.387 . S
C721 C723 1.387 . S
H722 C729 0.950 . S
C723 C721 1.387 . S
C723 C725 1.390 . S
C723 H727 0.950 . S
H724 C720 0.950 . S
C725 C723 1.390 . S
C725 C726 1.387 . S
C725 H728 0.950 . S
C726 C725 1.387 . S
C726 C729 1.387 . S
H727 C723 0.950 . S
H728 C725 0.950 . S
C729 C720 1.390 . S
C729 H722 0.950 . S
C729 C726 1.387 . S
C730 C731 1.387 . S
C730 H734 0.950 . S
C730 C739 1.390 1_556 S
C731 C730 1.387 . S
C731 C733 1.387 . S
H732 C739 0.950 . S
C733 C731 1.387 . S
C733 C735 1.390 1_556 S
C733 H737 0.950 . S
H734 C730 0.950 . S
C735 C733 1.390 1_554 S
C735 C736 1.387 . S
C735 H738 0.950 . S
C736 C735 1.387 . S
C736 C739 1.387 . S
H737 C733 0.950 . S
H738 C735 0.950 . S
C739 C730 1.390 1_554 S
C739 H732 0.950 . S
C739 C736 1.387 . S
C740 C741 1.387 . S
C740 H744 0.950 . S
C740 C749 1.390 . S
C741 C740 1.387 . S
C741 C743 1.387 . S
H742 C749 0.950 . S
C743 C741 1.387 . S
C743 C745 1.390 . S
C743 H747 0.950 . S
H744 C740 0.950 . S
C745 C743 1.390 . S
C745 C746 1.387 . S
C745 H748 0.950 . S
C746 C745 1.387 . S
C746 C749 1.387 . S
H747 C743 0.950 . S
H748 C745 0.950 . S
C749 C740 1.390 . S
C749 H742 0.950 . S
C749 C746 1.387 . S
C750 C751 1.387 . S
C750 H754 0.950 . S
C750 C759 1.390 . S
C751 C750 1.387 . S
C751 C753 1.387 . S
H752 C759 0.950 . S
C753 C751 1.387 . S
C753 C755 1.390 . S
C753 H757 0.950 . S
H754 C750 0.950 . S
C755 C753 1.390 . S
C755 C756 1.387 . S
C755 H758 0.950 . S
C756 C755 1.387 . S
C756 C759 1.387 . S
H757 C753 0.950 . S
H758 C755 0.950 . S
C759 C750 1.390 . S
C759 H752 0.950 . S
C759 C756 1.387 . S
C760 C761 1.387 . S
C760 H764 0.950 . S
C760 C769 1.390 . S
C761 C760 1.387 . S
C761 C763 1.387 . S
H762 C769 0.950 . S
C763 C761 1.387 . S
C763 C765 1.390 . S
C763 H767 0.950 . S
H764 C760 0.950 . S
C765 C763 1.390 . S
C765 C766 1.387 . S
C765 H768 0.950 . S
C766 C765 1.387 . S
C766 C769 1.387 . S
H767 C763 0.950 . S
H768 C765 0.950 . S
C769 C760 1.390 . S
C769 H762 0.950 . S
C769 C766 1.387 . S
C770 C771 1.387 . S
C770 H774 0.949 . S
C770 C779 1.389 1_556 S
C771 C770 1.387 . S
C771 C773 1.387 . S
H772 C779 0.949 . S
C773 C771 1.387 . S
C773 C775 1.389 1_556 S
C773 H777 0.949 . S
H774 C770 0.949 . S
C775 C773 1.389 1_554 S
C775 C776 1.387 . S
C775 H778 0.949 . S
C776 C775 1.387 . S
C776 C779 1.387 . S
H777 C773 0.949 . S
H778 C775 0.949 . S
C779 C770 1.389 1_554 S
C779 H772 0.949 . S
C779 C776 1.387 . S
C780 C781 1.387 . S
C780 H784 0.950 . S
C780 C789 1.390 . S
C781 C780 1.387 . S
C781 C783 1.387 . S
H782 C789 0.950 . S
C783 C781 1.387 . S
C783 C785 1.390 . S
C783 H787 0.950 . S
H784 C780 0.950 . S
C785 C783 1.390 . S
C785 C786 1.387 . S
C785 H788 0.950 . S
C786 C785 1.387 . S
C786 C789 1.387 . S
H787 C783 0.950 . S
H788 C785 0.950 . S
C789 C780 1.390 . S
C789 H782 0.950 . S
C789 C786 1.387 . S
C790 C791 1.387 . S
C790 H794 0.950 . S
C790 C799 1.390 . S
C791 C790 1.387 . S
C791 C793 1.387 . S
H792 C799 0.950 . S
C793 C791 1.387 . S
C793 C795 1.390 . S
C793 H797 0.950 . S
H794 C790 0.950 . S
C795 C793 1.390 . S
C795 C796 1.387 . S
C795 H798 0.950 . S
C796 C795 1.387 . S
C796 C799 1.387 . S
H797 C793 0.950 . S
H798 C795 0.950 . S
C799 C790 1.390 . S
C799 H792 0.950 . S
C799 C796 1.387 . S
C800 C801 1.387 . S
C800 H804 0.950 . S
C800 C809 1.390 . S
C801 C800 1.387 . S
C801 C803 1.387 . S
H802 C809 0.950 . S
C803 C801 1.387 . S
C803 C805 1.390 . S
C803 H807 0.950 . S
H804 C800 0.950 . S
C805 C803 1.390 . S
C805 C806 1.387 . S
C805 H808 0.950 . S
C806 C805 1.387 . S
C806 C809 1.387 . S
H807 C803 0.950 . S
H808 C805 0.950 . S
C809 C800 1.390 . S
C809 H802 0.950 . S
C809 C806 1.387 . S
C810 C811 1.387 . S
C810 H814 0.950 . S
C810 C819 1.390 1_655 S
C811 C810 1.387 . S
C811 C813 1.387 1_545 S
H812 C819 0.950 . S
C813 C811 1.387 1_565 S
C813 C815 1.390 1_655 S
C813 H817 0.950 . S
H814 C810 0.950 . S
C815 C813 1.390 1_455 S
C815 C816 1.387 . S
C815 H818 0.950 . S
C816 C815 1.387 . S
C816 C819 1.387 1_565 S
H817 C813 0.950 . S
H818 C815 0.950 . S
C819 C810 1.390 1_455 S
C819 H812 0.950 . S
C819 C816 1.387 1_545 S
C820 C821 1.387 . S
C820 H824 0.950 . S
C820 C829 1.390 . S
C821 C820 1.387 . S
C821 C823 1.387 . S
H822 C829 0.950 . S
C823 C821 1.387 . S
C823 C825 1.390 . S
C823 H827 0.950 . S
H824 C820 0.950 . S
C825 C823 1.390 . S
C825 C826 1.387 . S
C825 H828 0.950 . S
C826 C825 1.387 . S
C826 C829 1.387 . S
H827 C823 0.950 . S
H828 C825 0.950 . S
C829 C820 1.390 . S
C829 H822 0.950 . S
C829 C826 1.387 . S
C830 C831 1.387 1_556 S
C830 H834 0.950 . S
C830 C839 1.390 . S
C831 C830 1.387 1_554 S
C831 C833 1.387 1_545 S
H832 C839 0.950 . S
C833 C831 1.387 1_565 S
C833 C835 1.390 . S
C833 H837 0.950 . S
H834 C830 0.950 . S
C835 C833 1.390 . S
C835 C836 1.387 1_554 S
C835 H838 0.950 . S
C836 C835 1.387 1_556 S
C836 C839 1.387 1_565 S
H837 C833 0.950 . S
H838 C835 0.950 . S
C839 C830 1.390 . S
C839 H832 0.950 . S
C839 C836 1.387 1_545 S
C840 C841 1.387 . S
C840 H844 0.950 . S
C840 C849 1.390 . S
C841 C840 1.387 . S
C841 C843 1.387 . S
H842 C849 0.950 . S
C843 C841 1.387 . S
C843 C845 1.390 . S
C843 H847 0.950 . S
H844 C840 0.950 . S
C845 C843 1.390 . S
C845 C846 1.387 . S
C845 H848 0.950 . S
C846 C845 1.387 . S
C846 C849 1.387 . S
H847 C843 0.950 . S
H848 C845 0.950 . S
C849 C840 1.390 . S
C849 H842 0.950 . S
C849 C846 1.387 . S
C850 C851 1.387 . S
C850 H854 0.950 . S
C850 C859 1.390 . S
C851 C850 1.387 . S
C851 C853 1.387 1_565 S
H852 C859 0.950 . S
C853 C851 1.387 1_545 S
C853 C855 1.390 . S
C853 H857 0.950 . S
H854 C850 0.950 . S
C855 C853 1.390 . S
C855 C856 1.387 . S
C855 H858 0.950 . S
C856 C855 1.387 . S
C856 C859 1.387 1_545 S
H857 C853 0.950 . S
H858 C855 0.950 . S
C859 C850 1.390 . S
C859 H852 0.950 . S
C859 C856 1.387 1_565 S
C860 C861 1.387 . S
C860 H864 0.950 . S
C860 C869 1.390 . S
C861 C860 1.387 . S
C861 C863 1.387 . S
H862 C869 0.950 . S
C863 C861 1.387 . S
C863 C865 1.390 . S
C863 H867 0.950 . S
H864 C860 0.950 . S
C865 C863 1.390 . S
C865 C866 1.387 . S
C865 H868 0.950 . S
C866 C865 1.387 . S
C866 C869 1.387 . S
H867 C863 0.950 . S
H868 C865 0.950 . S
C869 C860 1.390 . S
C869 H862 0.950 . S
C869 C866 1.387 . S
C870 C871 1.387 1_556 S
C870 H874 0.950 . S
C870 C879 1.390 1_665 S
C871 C870 1.387 1_554 S
C871 C873 1.387 . S
H872 C879 0.950 . S
C873 C871 1.387 . S
C873 C875 1.390 1_665 S
C873 H877 0.950 . S
H874 C870 0.950 . S
C875 C873 1.390 1_445 S
C875 C876 1.387 1_554 S
C875 H878 0.950 . S
C876 C875 1.387 1_556 S
C876 C879 1.387 . S
H877 C873 0.950 . S
H878 C875 0.950 . S
C879 C870 1.390 1_445 S
C879 H872 0.950 . S
C879 C876 1.387 . S
C880 C881 1.387 . S
C880 H884 0.950 . S
C880 C889 1.390 . S
C881 C880 1.387 . S
C881 C883 1.387 . S
H882 C889 0.950 . S
C883 C881 1.387 . S
C883 C885 1.390 . S
C883 H887 0.950 . S
H884 C880 0.950 . S
C885 C883 1.390 . S
C885 C886 1.387 . S
C885 H888 0.950 . S
C886 C885 1.387 . S
C886 C889 1.387 . S
H887 C883 0.950 . S
H888 C885 0.950 . S
C889 C880 1.390 . S
C889 H882 0.950 . S
C889 C886 1.387 . S
C890 C891 1.387 . S
C890 H894 0.950 . S
C890 C899 1.390 . S
C891 C890 1.387 . S
C891 C893 1.387 . S
H892 C899 0.950 . S
C893 C891 1.387 . S
C893 C895 1.390 . S
C893 H897 0.950 . S
H894 C890 0.950 . S
C895 C893 1.390 . S
C895 C896 1.387 . S
C895 H898 0.950 . S
C896 C895 1.387 . S
C896 C899 1.387 . S
H897 C893 0.950 . S
H898 C895 0.950 . S
C899 C890 1.390 . S
C899 H892 0.950 . S
C899 C896 1.387 . S
C900 C901 1.387 . S
C900 H904 0.950 . S
C900 C909 1.390 . S
C901 C900 1.387 . S
C901 C903 1.387 . S
H902 C909 0.950 . S
C903 C901 1.387 . S
C903 C905 1.390 . S
C903 H907 0.950 . S
H904 C900 0.950 . S
C905 C903 1.390 . S
C905 C906 1.387 . S
C905 H908 0.950 . S
C906 C905 1.387 . S
C906 C909 1.387 . S
H907 C903 0.950 . S
H908 C905 0.950 . S
C909 C900 1.390 . S
C909 H902 0.950 . S
C909 C906 1.387 . S
C910 C911 1.387 . S
C910 H914 0.950 . S
C910 C919 1.390 . S
C911 C910 1.387 . S
C911 C913 1.387 . S
H912 C919 0.950 . S
C913 C911 1.387 . S
C913 C915 1.390 . S
C913 H917 0.950 . S
H914 C910 0.950 . S
C915 C913 1.390 . S
C915 C916 1.387 . S
C915 H918 0.950 . S
C916 C915 1.387 . S
C916 C919 1.387 . S
H917 C913 0.950 . S
H918 C915 0.950 . S
C919 C910 1.390 . S
C919 H912 0.950 . S
C919 C916 1.387 . S
C920 C921 1.387 1_556 S
C920 H924 0.950 . S
C920 C929 1.390 . S
C921 C920 1.387 1_554 S
C921 C923 1.387 . S
H922 C929 0.950 . S
C923 C921 1.387 . S
C923 C925 1.390 . S
C923 H927 0.950 . S
H924 C920 0.950 . S
C925 C923 1.390 . S
C925 C926 1.387 1_554 S
C925 H928 0.950 . S
C926 C925 1.387 1_556 S
C926 C929 1.387 . S
H927 C923 0.950 . S
H928 C925 0.950 . S
C929 C920 1.390 . S
C929 H922 0.950 . S
C929 C926 1.387 . S
C930 C931 1.387 . S
C930 H934 0.950 . S
C930 C939 1.390 1_455 S
C931 C930 1.387 . S
C931 C933 1.387 . S
H932 C939 0.950 . S
C933 C931 1.387 . S
C933 C935 1.390 1_455 S
C933 H937 0.950 . S
H934 C930 0.950 . S
C935 C933 1.390 1_655 S
C935 C936 1.387 . S
C935 H938 0.950 . S
C936 C935 1.387 . S
C936 C939 1.387 . S
H937 C933 0.950 . S
H938 C935 0.950 . S
C939 C930 1.390 1_655 S
C939 H932 0.950 . S
C939 C936 1.387 . S
C940 C941 1.387 1_556 S
C940 H944 0.950 . S
C940 C949 1.390 1_455 S
C941 C940 1.387 1_554 S
C941 C943 1.387 . S
H942 C949 0.950 . S
C943 C941 1.387 . S
C943 C945 1.390 1_455 S
C943 H947 0.950 . S
H944 C940 0.950 . S
C945 C943 1.390 1_655 S
C945 C946 1.387 1_554 S
C945 H948 0.950 . S
C946 C945 1.387 1_556 S
C946 C949 1.387 . S
H947 C943 0.950 . S
H948 C945 0.950 . S
C949 C940 1.390 1_655 S
C949 H942 0.950 . S
C949 C946 1.387 . S
C950 C951 1.387 . S
C950 H954 0.950 . S
C950 C959 1.390 . S
C951 C950 1.387 . S
C951 C953 1.387 . S
H952 C959 0.950 . S
C953 C951 1.387 . S
C953 C955 1.390 . S
C953 H957 0.950 . S
H954 C950 0.950 . S
C955 C953 1.390 . S
C955 C956 1.387 . S
C955 H958 0.950 . S
C956 C955 1.387 . S
C956 C959 1.387 . S
H957 C953 0.950 . S
H958 C955 0.950 . S
C959 C950 1.390 . S
C959 H952 0.950 . S
C959 C956 1.387 . S
C960 C961 1.387 . S
C960 H964 0.950 . S
C960 C969 1.390 . S
C961 C960 1.387 . S
C961 C963 1.387 . S
H962 C969 0.950 . S
C963 C961 1.387 . S
C963 C965 1.390 . S
C963 H967 0.950 . S
H964 C960 0.950 . S
C965 C963 1.390 . S
C965 C966 1.387 . S
C965 H968 0.950 . S
C966 C965 1.387 . S
C966 C969 1.387 . S
H967 C963 0.950 . S
H968 C965 0.950 . S
C969 C960 1.390 . S
C969 H962 0.950 . S
C969 C966 1.387 . S
C970 C971 1.387 . S
C970 H974 0.950 . S
C970 C979 1.390 . S
C971 C970 1.387 . S
C971 C973 1.387 . S
H972 C979 0.950 . S
C973 C971 1.387 . S
C973 C975 1.390 . S
C973 H977 0.950 . S
H974 C970 0.950 . S
C975 C973 1.390 . S
C975 C976 1.387 . S
C975 H978 0.950 . S
C976 C975 1.387 . S
C976 C979 1.387 . S
H977 C973 0.950 . S
H978 C975 0.950 . S
C979 C970 1.390 . S
C979 H972 0.950 . S
C979 C976 1.387 . S
C980 C981 1.387 . S
C980 H984 0.950 . S
C980 C989 1.390 . S
C981 C980 1.387 . S
C981 C983 1.387 . S
H982 C989 0.950 . S
C983 C981 1.387 . S
C983 C985 1.390 . S
C983 H987 0.950 . S
H984 C980 0.950 . S
C985 C983 1.390 . S
C985 C986 1.387 . S
C985 H988 0.950 . S
C986 C985 1.387 . S
C986 C989 1.387 . S
H987 C983 0.950 . S
H988 C985 0.950 . S
C989 C980 1.390 . S
C989 H982 0.950 . S
C989 C986 1.387 . S
C990 C991 1.387 . S
C990 H994 0.950 . S
C990 C999 1.390 . S
C991 C990 1.387 . S
C991 C993 1.387 . S
H992 C999 0.950 . S
C993 C991 1.387 . S
C993 C995 1.390 . S
C993 H997 0.950 . S
H994 C990 0.950 . S
C995 C993 1.390 . S
C995 C996 1.387 . S
C995 H998 0.950 . S
C996 C995 1.387 . S
C996 C999 1.387 . S
H997 C993 0.950 . S
H998 C995 0.950 . S
C999 C990 1.390 . S
C999 H992 0.950 . S
C999 C996 1.387 . S
C1000 C1001 1.387 . S
C1000 H1004 0.950 . S
C1000 C1009 1.390 . S
C1001 C1000 1.387 . S
C1001 C1003 1.387 . S
H1002 C1009 0.950 . S
C1003 C1001 1.387 . S
C1003 C1005 1.390 . S
C1003 H1007 0.950 . S
H1004 C1000 0.950 . S
C1005 C1003 1.390 . S
C1005 C1006 1.387 . S
C1005 H1008 0.950 . S
C1006 C1005 1.387 . S
C1006 C1009 1.387 . S
H1007 C1003 0.950 . S
H1008 C1005 0.950 . S
C1009 C1000 1.390 . S
C1009 H1002 0.950 . S
C1009 C1006 1.387 . S
C1010 C1011 1.387 . S
C1010 H1014 0.950 . S
C1010 C1019 1.390 . S
C1011 C1010 1.387 . S
C1011 C1013 1.387 . S
H1012 C1019 0.950 . S
C1013 C1011 1.387 . S
C1013 C1015 1.390 . S
C1013 H1017 0.950 . S
H1014 C1010 0.950 . S
C1015 C1013 1.390 . S
C1015 C1016 1.387 . S
C1015 H1018 0.950 . S
C1016 C1015 1.387 . S
C1016 C1019 1.387 . S
H1017 C1013 0.950 . S
H1018 C1015 0.950 . S
C1019 C1010 1.390 . S
C1019 H1012 0.950 . S
C1019 C1016 1.387 . S
C1020 C1021 1.387 . S
C1020 H1024 0.950 . S
C1020 C1029 1.390 . S
C1021 C1020 1.387 . S
C1021 C1023 1.387 . S
H1022 C1029 0.950 . S
C1023 C1021 1.387 . S
C1023 C1025 1.390 . S
C1023 H1027 0.950 . S
H1024 C1020 0.950 . S
C1025 C1023 1.390 . S
C1025 C1026 1.387 . S
C1025 H1028 0.950 . S
C1026 C1025 1.387 . S
C1026 C1029 1.387 . S
H1027 C1023 0.950 . S
H1028 C1025 0.950 . S
C1029 C1020 1.390 . S
C1029 H1022 0.950 . S
C1029 C1026 1.387 . S
C1030 C1031 1.387 . S
C1030 H1034 0.950 . S
C1030 C1039 1.390 . S
C1031 C1030 1.387 . S
C1031 C1033 1.387 . S
H1032 C1039 0.950 . S
C1033 C1031 1.387 . S
C1033 C1035 1.390 . S
C1033 H1037 0.950 . S
H1034 C1030 0.950 . S
C1035 C1033 1.390 . S
C1035 C1036 1.387 . S
C1035 H1038 0.950 . S
C1036 C1035 1.387 . S
C1036 C1039 1.387 . S
H1037 C1033 0.950 . S
H1038 C1035 0.950 . S
C1039 C1030 1.390 . S
C1039 H1032 0.950 . S
C1039 C1036 1.387 . S
C1040 C1041 1.387 . S
C1040 H1044 0.950 . S
C1040 C1049 1.390 . S
C1041 C1040 1.387 . S
C1041 C1043 1.387 . S
H1042 C1049 0.950 . S
C1043 C1041 1.387 . S
C1043 C1045 1.390 . S
C1043 H1047 0.950 . S
H1044 C1040 0.950 . S
C1045 C1043 1.390 . S
C1045 C1046 1.387 . S
C1045 H1048 0.950 . S
C1046 C1045 1.387 . S
C1046 C1049 1.387 . S
H1047 C1043 0.950 . S
H1048 C1045 0.950 . S
C1049 C1040 1.390 . S
C1049 H1042 0.950 . S
C1049 C1046 1.387 . S
C1050 C1051 1.387 . S
C1050 H1054 0.950 . S
C1050 C1059 1.390 . S
C1051 C1050 1.387 . S
C1051 C1053 1.387 . S
H1052 C1059 0.950 . S
C1053 C1051 1.387 . S
C1053 C1055 1.390 . S
C1053 H1057 0.950 . S
H1054 C1050 0.950 . S
C1055 C1053 1.390 . S
C1055 C1056 1.387 . S
C1055 H1058 0.950 . S
C1056 C1055 1.387 . S
C1056 C1059 1.387 . S
H1057 C1053 0.950 . S
H1058 C1055 0.950 . S
C1059 C1050 1.390 . S
C1059 H1052 0.950 . S
C1059 C1056 1.387 . S
C1060 C1061 1.387 . S
C1060 H1064 0.950 . S
C1060 C1069 1.390 . S
C1061 C1060 1.387 . S
C1061 C1063 1.387 . S
H1062 C1069 0.950 . S
C1063 C1061 1.387 . S
C1063 C1065 1.390 . S
C1063 H1067 0.950 . S
H1064 C1060 0.950 . S
C1065 C1063 1.390 . S
C1065 C1066 1.387 . S
C1065 H1068 0.950 . S
C1066 C1065 1.387 . S
C1066 C1069 1.387 . S
H1067 C1063 0.950 . S
H1068 C1065 0.950 . S
C1069 C1060 1.390 . S
C1069 H1062 0.950 . S
C1069 C1066 1.387 . S
C1070 C1071 1.387 . S
C1070 H1074 0.950 . S
C1070 C1079 1.390 . S
C1071 C1070 1.387 . S
C1071 C1073 1.387 . S
H1072 C1079 0.950 . S
C1073 C1071 1.387 . S
C1073 C1075 1.390 . S
C1073 H1077 0.950 . S
H1074 C1070 0.950 . S
C1075 C1073 1.390 . S
C1075 C1076 1.387 . S
C1075 H1078 0.950 . S
C1076 C1075 1.387 . S
C1076 C1079 1.387 . S
H1077 C1073 0.950 . S
H1078 C1075 0.950 . S
C1079 C1070 1.390 . S
C1079 H1072 0.950 . S
C1079 C1076 1.387 . S
C1080 C1081 1.387 . S
C1080 H1084 0.950 . S
C1080 C1089 1.390 . S
C1081 C1080 1.387 . S
C1081 C1083 1.387 . S
H1082 C1089 0.950 . S
C1083 C1081 1.387 . S
C1083 C1085 1.390 . S
C1083 H1087 0.950 . S
H1084 C1080 0.950 . S
C1085 C1083 1.390 . S
C1085 C1086 1.387 . S
C1085 H1088 0.950 . S
C1086 C1085 1.387 . S
C1086 C1089 1.387 . S
H1087 C1083 0.950 . S
H1088 C1085 0.950 . S
C1089 C1080 1.390 . S
C1089 H1082 0.950 . S
C1089 C1086 1.387 . S
C1090 C1091 1.387 . S
C1090 H1094 0.950 . S
C1090 C1099 1.390 . S
C1091 C1090 1.387 . S
C1091 C1093 1.387 . S
H1092 C1099 0.950 . S
C1093 C1091 1.387 . S
C1093 C1095 1.390 . S
C1093 H1097 0.950 . S
H1094 C1090 0.950 . S
C1095 C1093 1.390 . S
C1095 C1096 1.387 . S
C1095 H1098 0.950 . S
C1096 C1095 1.387 . S
C1096 C1099 1.387 . S
H1097 C1093 0.950 . S
H1098 C1095 0.950 . S
C1099 C1090 1.390 . S
C1099 H1092 0.950 . S
C1099 C1096 1.387 . S
C1100 C1101 1.387 . S
C1100 H1104 0.950 . S
C1100 C1109 1.390 . S
C1101 C1100 1.387 . S
C1101 C1103 1.387 . S
H1102 C1109 0.950 . S
C1103 C1101 1.387 . S
C1103 C1105 1.390 . S
C1103 H1107 0.950 . S
H1104 C1100 0.950 . S
C1105 C1103 1.390 . S
C1105 C1106 1.387 . S
C1105 H1108 0.950 . S
C1106 C1105 1.387 . S
C1106 C1109 1.387 . S
H1107 C1103 0.950 . S
H1108 C1105 0.950 . S
C1109 C1100 1.390 . S
C1109 H1102 0.950 . S
C1109 C1106 1.387 . S
C1110 C1111 1.387 . S
C1110 H1114 0.950 . S
C1110 C1119 1.390 . S
C1111 C1110 1.387 . S
C1111 C1113 1.387 . S
H1112 C1119 0.950 . S
C1113 C1111 1.387 . S
C1113 C1115 1.390 . S
C1113 H1117 0.950 . S
H1114 C1110 0.950 . S
C1115 C1113 1.390 . S
C1115 C1116 1.387 . S
C1115 H1118 0.950 . S
C1116 C1115 1.387 . S
C1116 C1119 1.387 . S
H1117 C1113 0.950 . S
H1118 C1115 0.950 . S
C1119 C1110 1.390 . S
C1119 H1112 0.950 . S
C1119 C1116 1.387 . S
C1120 C1121 1.387 . S
C1120 H1124 0.950 . S
C1120 C1129 1.390 . S
C1121 C1120 1.387 . S
C1121 C1123 1.387 . S
H1122 C1129 0.950 . S
C1123 C1121 1.387 . S
C1123 C1125 1.390 . S
C1123 H1127 0.950 . S
H1124 C1120 0.950 . S
C1125 C1123 1.390 . S
C1125 C1126 1.387 . S
C1125 H1128 0.950 . S
C1126 C1125 1.387 . S
C1126 C1129 1.387 . S
H1127 C1123 0.950 . S
H1128 C1125 0.950 . S
C1129 C1120 1.390 . S
C1129 H1122 0.950 . S
C1129 C1126 1.387 . S
C1130 C1131 1.387 . S
C1130 H1134 0.950 . S
C1130 C1139 1.390 . S
C1131 C1130 1.387 . S
C1131 C1133 1.387 . S
H1132 C1139 0.950 . S
C1133 C1131 1.387 . S
C1133 C1135 1.390 . S
C1133 H1137 0.950 . S
H1134 C1130 0.950 . S
C1135 C1133 1.390 . S
C1135 C1136 1.387 . S
C1135 H1138 0.950 . S
C1136 C1135 1.387 . S
C1136 C1139 1.387 . S
H1137 C1133 0.950 . S
H1138 C1135 0.950 . S
C1139 C1130 1.390 . S
C1139 H1132 0.950 . S
C1139 C1136 1.387 . S
C1140 C1141 1.387 . S
C1140 H1144 0.950 . S
C1140 C1149 1.390 . S
C1141 C1140 1.387 . S
C1141 C1143 1.387 . S
H1142 C1149 0.950 . S
C1143 C1141 1.387 . S
C1143 C1145 1.390 . S
C1143 H1147 0.950 . S
H1144 C1140 0.950 . S
C1145 C1143 1.390 . S
C1145 C1146 1.387 . S
C1145 H1148 0.950 . S
C1146 C1145 1.387 . S
C1146 C1149 1.387 . S
H1147 C1143 0.950 . S
H1148 C1145 0.950 . S
C1149 C1140 1.390 . S
C1149 H1142 0.950 . S
C1149 C1146 1.387 . S
C1150 C1151 1.387 . S
C1150 H1154 0.950 . S
C1150 C1159 1.390 . S
C1151 C1150 1.387 . S
C1151 C1153 1.387 . S
H1152 C1159 0.950 . S
C1153 C1151 1.387 . S
C1153 C1155 1.390 . S
C1153 H1157 0.950 . S
H1154 C1150 0.950 . S
C1155 C1153 1.390 . S
C1155 C1156 1.387 . S
C1155 H1158 0.950 . S
C1156 C1155 1.387 . S
C1156 C1159 1.387 . S
H1157 C1153 0.950 . S
H1158 C1155 0.950 . S
C1159 C1150 1.390 . S
C1159 H1152 0.950 . S
C1159 C1156 1.387 . S
C1160 C1161 1.387 . S
C1160 H1164 0.950 . S
C1160 C1169 1.390 . S
C1161 C1160 1.387 . S
C1161 C1163 1.387 . S
H1162 C1169 0.950 . S
C1163 C1161 1.387 . S
C1163 C1165 1.390 . S
C1163 H1167 0.950 . S
H1164 C1160 0.950 . S
C1165 C1163 1.390 . S
C1165 C1166 1.387 . S
C1165 H1168 0.950 . S
C1166 C1165 1.387 . S
C1166 C1169 1.387 . S
H1167 C1163 0.950 . S
H1168 C1165 0.950 . S
C1169 C1160 1.390 . S
C1169 H1162 0.950 . S
C1169 C1166 1.387 . S
C1170 C1171 1.387 . S
C1170 H1174 0.950 . S
C1170 C1179 1.390 . S
C1171 C1170 1.387 . S
C1171 C1173 1.387 . S
H1172 C1179 0.950 . S
C1173 C1171 1.387 . S
C1173 C1175 1.390 . S
C1173 H1177 0.950 . S
H1174 C1170 0.950 . S
C1175 C1173 1.390 . S
C1175 C1176 1.387 . S
C1175 H1178 0.950 . S
C1176 C1175 1.387 . S
C1176 C1179 1.387 . S
H1177 C1173 0.950 . S
H1178 C1175 0.950 . S
C1179 C1170 1.390 . S
C1179 H1172 0.950 . S
C1179 C1176 1.387 . S
C1180 C1181 1.387 . S
C1180 H1184 0.950 . S
C1180 C1189 1.390 . S
C1181 C1180 1.387 . S
C1181 C1183 1.387 . S
H1182 C1189 0.950 . S
C1183 C1181 1.387 . S
C1183 C1185 1.390 . S
C1183 H1187 0.950 . S
H1184 C1180 0.950 . S
C1185 C1183 1.390 . S
C1185 C1186 1.387 . S
C1185 H1188 0.950 . S
C1186 C1185 1.387 . S
C1186 C1189 1.387 . S
H1187 C1183 0.950 . S
H1188 C1185 0.950 . S
C1189 C1180 1.390 . S
C1189 H1182 0.950 . S
C1189 C1186 1.387 . S
C1190 C1191 1.387 . S
C1190 H1194 0.950 . S
C1190 C1199 1.390 . S
C1191 C1190 1.387 . S
C1191 C1193 1.387 . S
H1192 C1199 0.950 . S
C1193 C1191 1.387 . S
C1193 C1195 1.390 . S
C1193 H1197 0.950 . S
H1194 C1190 0.950 . S
C1195 C1193 1.390 . S
C1195 C1196 1.387 . S
C1195 H1198 0.950 . S
C1196 C1195 1.387 . S
C1196 C1199 1.387 . S
H1197 C1193 0.950 . S
H1198 C1195 0.950 . S
C1199 C1190 1.390 . S
C1199 H1192 0.950 . S
C1199 C1196 1.387 . S
C1200 C1201 1.387 . S
C1200 H1204 0.950 . S
C1200 C1209 1.390 . S
C1201 C1200 1.387 . S
C1201 C1203 1.387 . S
H1202 C1209 0.950 . S
C1203 C1201 1.387 . S
C1203 C1205 1.390 . S
C1203 H1207 0.950 . S
H1204 C1200 0.950 . S
C1205 C1203 1.390 . S
C1205 C1206 1.387 . S
C1205 H1208 0.950 . S
C1206 C1205 1.387 . S
C1206 C1209 1.387 . S
H1207 C1203 0.950 . S
H1208 C1205 0.950 . S
C1209 C1200 1.390 . S
C1209 H1202 0.950 . S
C1209 C1206 1.387 . S
C1210 C1211 1.387 . S
C1210 H1214 0.950 . S
C1210 C1219 1.390 . S
C1211 C1210 1.387 . S
C1211 C1213 1.387 . S
H1212 C1219 0.950 . S
C1213 C1211 1.387 . S
C1213 C1215 1.390 . S
C1213 H1217 0.950 . S
H1214 C1210 0.950 . S
C1215 C1213 1.390 . S
C1215 C1216 1.387 . S
C1215 H1218 0.950 . S
C1216 C1215 1.387 . S
C1216 C1219 1.387 . S
H1217 C1213 0.950 . S
H1218 C1215 0.950 . S
C1219 C1210 1.390 . S
C1219 H1212 0.950 . S
C1219 C1216 1.387 . S
C1220 C1221 1.387 . S
C1220 H1224 0.950 . S
C1220 C1229 1.390 . S
C1221 C1220 1.387 . S
C1221 C1223 1.387 . S
H1222 C1229 0.950 . S
C1223 C1221 1.387 . S
C1223 C1225 1.390 . S
C1223 H1227 0.950 . S
H1224 C1220 0.950 . S
C1225 C1223 1.390 . S
C1225 C1226 1.387 . S
C1225 H1228 0.950 . S
C1226 C1225 1.387 . S
C1226 C1229 1.387 . S
H1227 C1223 0.950 . S
H1228 C1225 0.950 . S
C1229 C1220 1.390 . S
C1229 H1222 0.950 . S
C1229 C1226 1.387 . S
C1230 C1231 1.387 . S
C1230 H1234 0.950 . S
C1230 C1239 1.390 . S
C1231 C1230 1.387 . S
C1231 C1233 1.387 . S
H1232 C1239 0.950 . S
C1233 C1231 1.387 . S
C1233 C1235 1.390 . S
C1233 H1237 0.950 . S
H1234 C1230 0.950 . S
C1235 C1233 1.390 . S
C1235 C1236 1.387 . S
C1235 H1238 0.950 . S
C1236 C1235 1.387 . S
C1236 C1239 1.387 . S
H1237 C1233 0.950 . S
H1238 C1235 0.950 . S
C1239 C1230 1.390 . S
C1239 H1232 0.950 . S
C1239 C1236 1.387 . S
C1240 C1241 1.387 . S
C1240 H1244 0.950 . S
C1240 C1249 1.390 . S
C1241 C1240 1.387 . S
C1241 C1243 1.387 . S
H1242 C1249 0.950 . S
C1243 C1241 1.387 . S
C1243 C1245 1.390 . S
C1243 H1247 0.950 . S
H1244 C1240 0.950 . S
C1245 C1243 1.390 . S
C1245 C1246 1.387 . S
C1245 H1248 0.950 . S
C1246 C1245 1.387 . S
C1246 C1249 1.387 . S
H1247 C1243 0.950 . S
H1248 C1245 0.950 . S
C1249 C1240 1.390 . S
C1249 H1242 0.950 . S
C1249 C1246 1.387 . S
C1250 C1251 1.387 . S
C1250 H1254 0.950 . S
C1250 C1259 1.390 . S
C1251 C1250 1.387 . S
C1251 C1253 1.387 . S
H1252 C1259 0.950 . S
C1253 C1251 1.387 . S
C1253 C1255 1.390 . S
C1253 H1257 0.950 . S
H1254 C1250 0.950 . S
C1255 C1253 1.390 . S
C1255 C1256 1.387 . S
C1255 H1258 0.950 . S
C1256 C1255 1.387 . S
C1256 C1259 1.387 . S
H1257 C1253 0.950 . S
H1258 C1255 0.950 . S
C1259 C1250 1.390 . S
C1259 H1252 0.950 . S
C1259 C1256 1.387 . S
C1260 C1261 1.387 . S
C1260 H1264 0.950 . S
C1260 C1269 1.390 . S
C1261 C1260 1.387 . S
C1261 C1263 1.387 . S
H1262 C1269 0.950 . S
C1263 C1261 1.387 . S
C1263 C1265 1.390 . S
C1263 H1267 0.950 . S
H1264 C1260 0.950 . S
C1265 C1263 1.390 . S
C1265 C1266 1.387 . S
C1265 H1268 0.950 . S
C1266 C1265 1.387 . S
C1266 C1269 1.387 . S
H1267 C1263 0.950 . S
H1268 C1265 0.950 . S
C1269 C1260 1.390 . S
C1269 H1262 0.950 . S
C1269 C1266 1.387 . S
C1270 C1271 1.387 . S
C1270 H1274 0.950 . S
C1270 C1279 1.390 . S
C1271 C1270 1.387 . S
C1271 C1273 1.387 . S
H1272 C1279 0.950 . S
C1273 C1271 1.387 . S
C1273 C1275 1.390 . S
C1273 H1277 0.950 . S
H1274 C1270 0.950 . S
C1275 C1273 1.390 . S
C1275 C1276 1.387 . S
C1275 H1278 0.950 . S
C1276 C1275 1.387 . S
C1276 C1279 1.387 . S
H1277 C1273 0.950 . S
H1278 C1275 0.950 . S
C1279 C1270 1.390 . S
C1279 H1272 0.950 . S
C1279 C1276 1.387 . S
C1280 C1281 1.387 . S
C1280 H1284 0.950 . S
C1280 C1289 1.390 1_455 S
C1281 C1280 1.387 . S
C1281 C1283 1.387 . S
H1282 C1289 0.950 . S
C1283 C1281 1.387 . S
C1283 C1285 1.390 1_455 S
C1283 H1287 0.950 . S
H1284 C1280 0.950 . S
C1285 C1283 1.390 1_655 S
C1285 C1286 1.387 . S
C1285 H1288 0.950 . S
C1286 C1285 1.387 . S
C1286 C1289 1.387 . S
H1287 C1283 0.950 . S
H1288 C1285 0.950 . S
C1289 C1280 1.390 1_655 S
C1289 H1282 0.950 . S
C1289 C1286 1.387 . S
C1290 C1291 1.387 . S
C1290 H1294 0.950 . S
C1290 C1299 1.390 1_455 S
C1291 C1290 1.387 . S
C1291 C1293 1.387 . S
H1292 C1299 0.950 . S
C1293 C1291 1.387 . S
C1293 C1295 1.390 1_455 S
C1293 H1297 0.950 . S
H1294 C1290 0.950 . S
C1295 C1293 1.390 1_655 S
C1295 C1296 1.387 . S
C1295 H1298 0.950 . S
C1296 C1295 1.387 . S
C1296 C1299 1.387 . S
H1297 C1293 0.950 . S
H1298 C1295 0.950 . S
C1299 C1290 1.390 1_655 S
C1299 H1292 0.950 . S
C1299 C1296 1.387 . S
C1300 C1301 1.387 . S
C1300 H1304 0.950 . S
C1300 C1309 1.390 . S
C1301 C1300 1.387 . S
C1301 C1303 1.387 . S
H1302 C1309 0.950 . S
C1303 C1301 1.387 . S
C1303 C1305 1.390 . S
C1303 H1307 0.950 . S
H1304 C1300 0.950 . S
C1305 C1303 1.390 . S
C1305 C1306 1.387 . S
C1305 H1308 0.950 . S
C1306 C1305 1.387 . S
C1306 C1309 1.387 . S
H1307 C1303 0.950 . S
H1308 C1305 0.950 . S
C1309 C1300 1.390 . S
C1309 H1302 0.950 . S
C1309 C1306 1.387 . S
C1310 C1311 1.387 . S
C1310 H1314 0.950 . S
C1310 C1319 1.390 . S
C1311 C1310 1.387 . S
C1311 C1313 1.387 . S
H1312 C1319 0.950 . S
C1313 C1311 1.387 . S
C1313 C1315 1.390 . S
C1313 H1317 0.950 . S
H1314 C1310 0.950 . S
C1315 C1313 1.390 . S
C1315 C1316 1.387 . S
C1315 H1318 0.950 . S
C1316 C1315 1.387 . S
C1316 C1319 1.387 . S
H1317 C1313 0.950 . S
H1318 C1315 0.950 . S
C1319 C1310 1.390 . S
C1319 H1312 0.950 . S
C1319 C1316 1.387 . S
C1320 C1321 1.387 . S
C1320 H1324 0.950 . S
C1320 C1329 1.390 1_655 S
C1321 C1320 1.387 . S
C1321 C1323 1.387 . S
H1322 C1329 0.950 . S
C1323 C1321 1.387 . S
C1323 C1325 1.390 1_655 S
C1323 H1327 0.950 . S
H1324 C1320 0.950 . S
C1325 C1323 1.390 1_455 S
C1325 C1326 1.387 . S
C1325 H1328 0.950 . S
C1326 C1325 1.387 . S
C1326 C1329 1.387 . S
H1327 C1323 0.950 . S
H1328 C1325 0.950 . S
C1329 C1320 1.390 1_455 S
C1329 H1322 0.950 . S
C1329 C1326 1.387 . S
C1330 C1331 1.387 . S
C1330 H1334 0.950 . S
C1330 C1339 1.390 . S
C1331 C1330 1.387 . S
C1331 C1333 1.387 . S
H1332 C1339 0.950 . S
C1333 C1331 1.387 . S
C1333 C1335 1.390 . S
C1333 H1337 0.950 . S
H1334 C1330 0.950 . S
C1335 C1333 1.390 . S
C1335 C1336 1.387 . S
C1335 H1338 0.950 . S
C1336 C1335 1.387 . S
C1336 C1339 1.387 . S
H1337 C1333 0.950 . S
H1338 C1335 0.950 . S
C1339 C1330 1.390 . S
C1339 H1332 0.950 . S
C1339 C1336 1.387 . S
C1340 C1341 1.387 . S
C1340 H1344 0.950 . S
C1340 C1349 1.390 . S
C1341 C1340 1.387 . S
C1341 C1343 1.387 . S
H1342 C1349 0.950 . S
C1343 C1341 1.387 . S
C1343 C1345 1.390 . S
C1343 H1347 0.950 . S
H1344 C1340 0.950 . S
C1345 C1343 1.390 . S
C1345 C1346 1.387 . S
C1345 H1348 0.950 . S
C1346 C1345 1.387 . S
C1346 C1349 1.387 . S
H1347 C1343 0.950 . S
H1348 C1345 0.950 . S
C1349 C1340 1.390 . S
C1349 H1342 0.950 . S
C1349 C1346 1.387 . S
C1350 C1351 1.387 . S
C1350 H1354 0.950 . S
C1350 C1359 1.390 1_655 S
C1351 C1350 1.387 . S
C1351 C1353 1.387 . S
H1352 C1359 0.950 . S
C1353 C1351 1.387 . S
C1353 C1355 1.390 1_655 S
C1353 H1357 0.950 . S
H1354 C1350 0.950 . S
C1355 C1353 1.390 1_455 S
C1355 C1356 1.387 . S
C1355 H1358 0.950 . S
C1356 C1355 1.387 . S
C1356 C1359 1.387 . S
H1357 C1353 0.950 . S
H1358 C1355 0.950 . S
C1359 C1350 1.390 1_455 S
C1359 H1352 0.950 . S
C1359 C1356 1.387 . S
C1360 C1361 1.387 . S
C1360 H1364 0.950 . S
C1360 C1369 1.390 1_455 S
C1361 C1360 1.387 . S
C1361 C1363 1.387 . S
H1362 C1369 0.950 . S
C1363 C1361 1.387 . S
C1363 C1365 1.390 1_455 S
C1363 H1367 0.950 . S
H1364 C1360 0.950 . S
C1365 C1363 1.390 1_655 S
C1365 C1366 1.387 . S
C1365 H1368 0.950 . S
C1366 C1365 1.387 . S
C1366 C1369 1.387 . S
H1367 C1363 0.950 . S
H1368 C1365 0.950 . S
C1369 C1360 1.390 1_655 S
C1369 H1362 0.950 . S
C1369 C1366 1.387 . S
C1370 C1371 1.387 . S
C1370 H1374 0.950 . S
C1370 C1379 1.390 1_455 S
C1371 C1370 1.387 . S
C1371 C1373 1.387 . S
H1372 C1379 0.950 . S
C1373 C1371 1.387 . S
C1373 C1375 1.390 1_455 S
C1373 H1377 0.950 . S
H1374 C1370 0.950 . S
C1375 C1373 1.390 1_655 S
C1375 C1376 1.387 . S
C1375 H1378 0.950 . S
C1376 C1375 1.387 . S
C1376 C1379 1.387 . S
H1377 C1373 0.950 . S
H1378 C1375 0.950 . S
C1379 C1370 1.390 1_655 S
C1379 H1372 0.950 . S
C1379 C1376 1.387 . S
C1380 C1381 1.387 . S
C1380 H1384 0.950 . S
C1380 C1389 1.390 . S
C1381 C1380 1.387 . S
C1381 C1383 1.387 . S
H1382 C1389 0.950 . S
C1383 C1381 1.387 . S
C1383 C1385 1.390 . S
C1383 H1387 0.950 . S
H1384 C1380 0.950 . S
C1385 C1383 1.390 . S
C1385 C1386 1.387 . S
C1385 H1388 0.950 . S
C1386 C1385 1.387 . S
C1386 C1389 1.387 . S
H1387 C1383 0.950 . S
H1388 C1385 0.950 . S
C1389 C1380 1.390 . S
C1389 H1382 0.950 . S
C1389 C1386 1.387 . S
C1390 C1391 1.387 . S
C1390 H1394 0.950 . S
C1390 C1399 1.390 . S
C1391 C1390 1.387 . S
C1391 C1393 1.387 . S
H1392 C1399 0.950 . S
C1393 C1391 1.387 . S
C1393 C1395 1.390 . S
C1393 H1397 0.950 . S
H1394 C1390 0.950 . S
C1395 C1393 1.390 . S
C1395 C1396 1.387 . S
C1395 H1398 0.950 . S
C1396 C1395 1.387 . S
C1396 C1399 1.387 . S
H1397 C1393 0.950 . S
H1398 C1395 0.950 . S
C1399 C1390 1.390 . S
C1399 H1392 0.950 . S
C1399 C1396 1.387 . S
C1400 C1401 1.387 . S
C1400 H1404 0.950 . S
C1400 C1409 1.390 1_655 S
C1401 C1400 1.387 . S
C1401 C1403 1.387 . S
H1402 C1409 0.950 . S
C1403 C1401 1.387 . S
C1403 C1405 1.390 1_655 S
C1403 H1407 0.950 . S
H1404 C1400 0.950 . S
C1405 C1403 1.390 1_455 S
C1405 C1406 1.387 . S
C1405 H1408 0.950 . S
C1406 C1405 1.387 . S
C1406 C1409 1.387 . S
H1407 C1403 0.950 . S
H1408 C1405 0.950 . S
C1409 C1400 1.390 1_455 S
C1409 H1402 0.950 . S
C1409 C1406 1.387 . S
C1410 C1411 1.387 . S
C1410 H1414 0.950 . S
C1410 C1419 1.390 . S
C1411 C1410 1.387 . S
C1411 C1413 1.387 . S
H1412 C1419 0.950 . S
C1413 C1411 1.387 . S
C1413 C1415 1.390 . S
C1413 H1417 0.950 . S
H1414 C1410 0.950 . S
C1415 C1413 1.390 . S
C1415 C1416 1.387 . S
C1415 H1418 0.950 . S
C1416 C1415 1.387 . S
C1416 C1419 1.387 . S
H1417 C1413 0.950 . S
H1418 C1415 0.950 . S
C1419 C1410 1.390 . S
C1419 H1412 0.950 . S
C1419 C1416 1.387 . S
C1420 C1421 1.387 . S
C1420 H1424 0.950 . S
C1420 C1429 1.390 . S
C1421 C1420 1.387 . S
C1421 C1423 1.387 . S
H1422 C1429 0.950 . S
C1423 C1421 1.387 . S
C1423 C1425 1.390 . S
C1423 H1427 0.950 . S
H1424 C1420 0.950 . S
C1425 C1423 1.390 . S
C1425 C1426 1.387 . S
C1425 H1428 0.950 . S
C1426 C1425 1.387 . S
C1426 C1429 1.387 . S
H1427 C1423 0.950 . S
H1428 C1425 0.950 . S
C1429 C1420 1.390 . S
C1429 H1422 0.950 . S
C1429 C1426 1.387 . S
C1430 C1431 1.387 . S
C1430 H1434 0.950 . S
C1430 C1439 1.390 1_655 S
C1431 C1430 1.387 . S
C1431 C1433 1.387 . S
H1432 C1439 0.950 . S
C1433 C1431 1.387 . S
C1433 C1435 1.390 1_655 S
C1433 H1437 0.950 . S
H1434 C1430 0.950 . S
C1435 C1433 1.390 1_455 S
C1435 C1436 1.387 . S
C1435 H1438 0.950 . S
C1436 C1435 1.387 . S
C1436 C1439 1.387 . S
H1437 C1433 0.950 . S
H1438 C1435 0.950 . S
C1439 C1430 1.390 1_455 S
C1439 H1432 0.950 . S
C1439 C1436 1.387 . S
C1440 C1441 1.387 . S
C1440 H1444 0.950 . S
C1440 C1449 1.390 . S
C1441 C1440 1.387 . S
C1441 C1443 1.387 . S
H1442 C1449 0.950 . S
C1443 C1441 1.387 . S
C1443 C1445 1.390 . S
C1443 H1447 0.950 . S
H1444 C1440 0.950 . S
C1445 C1443 1.390 . S
C1445 C1446 1.387 . S
C1445 H1448 0.950 . S
C1446 C1445 1.387 . S
C1446 C1449 1.387 . S
H1447 C1443 0.950 . S
H1448 C1445 0.950 . S
C1449 C1440 1.390 . S
C1449 H1442 0.950 . S
C1449 C1446 1.387 . S
C1450 C1451 1.387 . S
C1450 H1454 0.950 . S
C1450 C1459 1.390 . S
C1451 C1450 1.387 . S
C1451 C1453 1.387 . S
H1452 C1459 0.950 . S
C1453 C1451 1.387 . S
C1453 C1455 1.390 . S
C1453 H1457 0.950 . S
H1454 C1450 0.950 . S
C1455 C1453 1.390 . S
C1455 C1456 1.387 . S
C1455 H1458 0.950 . S
C1456 C1455 1.387 . S
C1456 C1459 1.387 . S
H1457 C1453 0.950 . S
H1458 C1455 0.950 . S
C1459 C1450 1.390 . S
C1459 H1452 0.950 . S
C1459 C1456 1.387 . S
C1460 C1461 1.387 . S
C1460 H1464 0.950 . S
C1460 C1469 1.390 . S
C1461 C1460 1.387 . S
C1461 C1463 1.387 . S
H1462 C1469 0.950 . S
C1463 C1461 1.387 . S
C1463 C1465 1.390 . S
C1463 H1467 0.950 . S
H1464 C1460 0.950 . S
C1465 C1463 1.390 . S
C1465 C1466 1.387 . S
C1465 H1468 0.950 . S
C1466 C1465 1.387 . S
C1466 C1469 1.387 . S
H1467 C1463 0.950 . S
H1468 C1465 0.950 . S
C1469 C1460 1.390 . S
C1469 H1462 0.950 . S
C1469 C1466 1.387 . S
C1470 C1471 1.387 . S
C1470 H1474 0.950 . S
C1470 C1479 1.390 . S
C1471 C1470 1.387 . S
C1471 C1473 1.387 . S
H1472 C1479 0.950 . S
C1473 C1471 1.387 . S
C1473 C1475 1.390 . S
C1473 H1477 0.950 . S
H1474 C1470 0.950 . S
C1475 C1473 1.390 . S
C1475 C1476 1.387 . S
C1475 H1478 0.950 . S
C1476 C1475 1.387 . S
C1476 C1479 1.387 . S
H1477 C1473 0.950 . S
H1478 C1475 0.950 . S
C1479 C1470 1.390 . S
C1479 H1472 0.950 . S
C1479 C1476 1.387 . S
C1480 C1481 1.387 . S
C1480 H1484 0.950 . S
C1480 C1489 1.390 . S
C1481 C1480 1.387 . S
C1481 C1483 1.387 . S
H1482 C1489 0.950 . S
C1483 C1481 1.387 . S
C1483 C1485 1.390 . S
C1483 H1487 0.950 . S
H1484 C1480 0.950 . S
C1485 C1483 1.390 . S
C1485 C1486 1.387 . S
C1485 H1488 0.950 . S
C1486 C1485 1.387 . S
C1486 C1489 1.387 . S
H1487 C1483 0.950 . S
H1488 C1485 0.950 . S
C1489 C1480 1.390 . S
C1489 H1482 0.950 . S
C1489 C1486 1.387 . S
C1490 C1491 1.387 . S
C1490 H1494 0.950 . S
C1490 C1499 1.390 . S
C1491 C1490 1.387 . S
C1491 C1493 1.387 . S
H1492 C1499 0.950 . S
C1493 C1491 1.387 . S
C1493 C1495 1.390 . S
C1493 H1497 0.950 . S
H1494 C1490 0.950 . S
C1495 C1493 1.390 . S
C1495 C1496 1.387 . S
C1495 H1498 0.950 . S
C1496 C1495 1.387 . S
C1496 C1499 1.387 . S
H1497 C1493 0.950 . S
H1498 C1495 0.950 . S
C1499 C1490 1.390 . S
C1499 H1492 0.950 . S
C1499 C1496 1.387 . S
C1500 C1501 1.387 . S
C1500 H1504 0.950 . S
C1500 C1509 1.390 . S
C1501 C1500 1.387 . S
C1501 C1503 1.387 . S
H1502 C1509 0.950 . S
C1503 C1501 1.387 . S
C1503 C1505 1.390 . S
C1503 H1507 0.950 . S
H1504 C1500 0.950 . S
C1505 C1503 1.390 . S
C1505 C1506 1.387 . S
C1505 H1508 0.950 . S
C1506 C1505 1.387 . S
C1506 C1509 1.387 . S
H1507 C1503 0.950 . S
H1508 C1505 0.950 . S
C1509 C1500 1.390 . S
C1509 H1502 0.950 . S
C1509 C1506 1.387 . S
C1510 C1511 1.387 . S
C1510 H1514 0.950 . S
C1510 C1519 1.390 . S
C1511 C1510 1.387 . S
C1511 C1513 1.387 . S
H1512 C1519 0.950 . S
C1513 C1511 1.387 . S
C1513 C1515 1.390 . S
C1513 H1517 0.950 . S
H1514 C1510 0.950 . S
C1515 C1513 1.390 . S
C1515 C1516 1.387 . S
C1515 H1518 0.950 . S
C1516 C1515 1.387 . S
C1516 C1519 1.387 . S
H1517 C1513 0.950 . S
H1518 C1515 0.950 . S
C1519 C1510 1.390 . S
C1519 H1512 0.950 . S
C1519 C1516 1.387 . S
C1520 C1521 1.387 . S
C1520 H1524 0.950 . S
C1520 C1529 1.390 . S
C1521 C1520 1.387 . S
C1521 C1523 1.387 . S
H1522 C1529 0.950 . S
C1523 C1521 1.387 . S
C1523 C1525 1.390 . S
C1523 H1527 0.950 . S
H1524 C1520 0.950 . S
C1525 C1523 1.390 . S
C1525 C1526 1.387 . S
C1525 H1528 0.950 . S
C1526 C1525 1.387 . S
C1526 C1529 1.387 . S
H1527 C1523 0.950 . S
H1528 C1525 0.950 . S
C1529 C1520 1.390 . S
C1529 H1522 0.950 . S
C1529 C1526 1.387 . S
C1530 C1531 1.387 . S
C1530 H1534 0.950 . S
C1530 C1539 1.390 . S
C1531 C1530 1.387 . S
C1531 C1533 1.387 . S
H1532 C1539 0.950 . S
C1533 C1531 1.387 . S
C1533 C1535 1.390 . S
C1533 H1537 0.950 . S
H1534 C1530 0.950 . S
C1535 C1533 1.390 . S
C1535 C1536 1.387 . S
C1535 H1538 0.950 . S
C1536 C1535 1.387 . S
C1536 C1539 1.387 . S
H1537 C1533 0.950 . S
H1538 C1535 0.950 . S
C1539 C1530 1.390 . S
C1539 H1532 0.950 . S
C1539 C1536 1.387 . S
C1540 C1541 1.387 . S
C1540 H1544 0.950 . S
C1540 C1549 1.390 . S
C1541 C1540 1.387 . S
C1541 C1543 1.387 . S
H1542 C1549 0.950 . S
C1543 C1541 1.387 . S
C1543 C1545 1.390 . S
C1543 H1547 0.950 . S
H1544 C1540 0.950 . S
C1545 C1543 1.390 . S
C1545 C1546 1.387 . S
C1545 H1548 0.950 . S
C1546 C1545 1.387 . S
C1546 C1549 1.387 . S
H1547 C1543 0.950 . S
H1548 C1545 0.950 . S
C1549 C1540 1.390 . S
C1549 H1542 0.950 . S
C1549 C1546 1.387 . S
C1550 C1551 1.387 . S
C1550 H1554 0.950 . S
C1550 C1559 1.390 . S
C1551 C1550 1.387 . S
C1551 C1553 1.387 . S
H1552 C1559 0.950 . S
C1553 C1551 1.387 . S
C1553 C1555 1.390 . S
C1553 H1557 0.950 . S
H1554 C1550 0.950 . S
C1555 C1553 1.390 . S
C1555 C1556 1.387 . S
C1555 H1558 0.950 . S
C1556 C1555 1.387 . S
C1556 C1559 1.387 . S
H1557 C1553 0.950 . S
H1558 C1555 0.950 . S
C1559 C1550 1.390 . S
C1559 H1552 0.950 . S
C1559 C1556 1.387 . S
C1560 C1561 1.387 . S
C1560 H1564 0.950 . S
C1560 C1569 1.390 . S
C1561 C1560 1.387 . S
C1561 C1563 1.387 . S
H1562 C1569 0.950 . S
C1563 C1561 1.387 . S
C1563 C1565 1.390 . S
C1563 H1567 0.950 . S
H1564 C1560 0.950 . S
C1565 C1563 1.390 . S
C1565 C1566 1.387 . S
C1565 H1568 0.950 . S
C1566 C1565 1.387 . S
C1566 C1569 1.387 . S
H1567 C1563 0.950 . S
H1568 C1565 0.950 . S
C1569 C1560 1.390 . S
C1569 H1562 0.950 . S
C1569 C1566 1.387 . S
C1570 C1571 1.387 . S
C1570 H1574 0.950 . S
C1570 C1579 1.390 . S
C1571 C1570 1.387 . S
C1571 C1573 1.387 . S
H1572 C1579 0.950 . S
C1573 C1571 1.387 . S
C1573 C1575 1.390 . S
C1573 H1577 0.950 . S
H1574 C1570 0.950 . S
C1575 C1573 1.390 . S
C1575 C1576 1.387 . S
C1575 H1578 0.950 . S
C1576 C1575 1.387 . S
C1576 C1579 1.387 . S
H1577 C1573 0.950 . S
H1578 C1575 0.950 . S
C1579 C1570 1.390 . S
C1579 H1572 0.950 . S
C1579 C1576 1.387 . S
C1580 C1581 1.387 . S
C1580 H1584 0.950 . S
C1580 C1589 1.390 . S
C1581 C1580 1.387 . S
C1581 C1583 1.387 . S
H1582 C1589 0.950 . S
C1583 C1581 1.387 . S
C1583 C1585 1.390 . S
C1583 H1587 0.950 . S
H1584 C1580 0.950 . S
C1585 C1583 1.390 . S
C1585 C1586 1.387 . S
C1585 H1588 0.950 . S
C1586 C1585 1.387 . S
C1586 C1589 1.387 . S
H1587 C1583 0.950 . S
H1588 C1585 0.950 . S
C1589 C1580 1.390 . S
C1589 H1582 0.950 . S
C1589 C1586 1.387 . S
C1590 C1591 1.387 . S
C1590 H1594 0.950 . S
C1590 C1599 1.390 . S
C1591 C1590 1.387 . S
C1591 C1593 1.387 . S
H1592 C1599 0.950 . S
C1593 C1591 1.387 . S
C1593 C1595 1.390 . S
C1593 H1597 0.950 . S
H1594 C1590 0.950 . S
C1595 C1593 1.390 . S
C1595 C1596 1.387 . S
C1595 H1598 0.950 . S
C1596 C1595 1.387 . S
C1596 C1599 1.387 . S
H1597 C1593 0.950 . S
H1598 C1595 0.950 . S
C1599 C1590 1.390 . S
C1599 H1592 0.950 . S
C1599 C1596 1.387 . S
C641 C5 1.611 . S
C646 C94 1.611 . S
C651 C114 1.613 . S
C656 C34 1.613 . S
C661 C134 1.611 . S
C666 C54 1.611 . S
C671 C74 1.619 . S
C676 C145 1.619 . S
C681 C174 1.611 . S
C686 C254 1.611 . S
C691 C194 1.611 . S
C696 C274 1.611 . S
C701 C214 1.611 . S
C706 C294 1.611 . S
C711 C314 1.619 . S
C716 C234 1.619 . S
C721 C325 1.613 . S
C726 C414 1.613 . S
C731 C434 1.619 . S
C736 C354 1.619 . S
C741 C374 1.611 . S
C746 C454 1.611 . S
C751 C465 1.613 . S
C756 C394 1.613 . S
C761 C494 1.613 . S
C766 C574 1.613 . S
C771 C514 1.619 . S
C776 C594 1.619 . S
C781 C534 1.611 . S
C786 C614 1.611 . S
C791 C554 1.611 . S
C796 C634 1.611 . S
C801 C482 2.696 . S
C806 C13 2.696 . S
C811 C182 2.694 . S
C816 C22 2.694 . S
C821 C42 2.694 . S
C826 C522 2.694 . S
C831 C62 2.696 . S
C836 C222 2.696 . S
C841 C82 2.696 . S
C846 C562 2.696 . S
C851 C102 2.696 . S
C856 C262 2.696 . S
C861 C602 2.696 . S
C866 C122 2.696 . S
C871 C302 2.695 . S
C876 C153 2.695 . S
C881 C333 2.696 . S
C886 C162 2.696 . S
C891 C202 2.695 . S
C896 C362 2.695 . S
C901 C242 2.696 . S
C906 C402 2.696 . S
C911 C442 2.695 . S
C916 C282 2.695 . S
C921 C342 2.696 . S
C926 C502 2.696 . S
C931 C542 2.696 . S
C936 C382 2.696 . S
C941 C582 2.695 . S
C946 C422 2.695 . S
C951 C473 2.694 . S
C956 C622 2.694 . S
C961 C14 1.312 . S
C966 C553 1.353 . S
C971 C25 1.312 . S
C976 C173 1.353 . S
C981 C45 1.312 . S
C986 C513 1.355 . S
C991 C213 1.354 . S
C996 C65 1.310 . S
C1001 C593 1.354 . S
C1006 C85 1.312 . S
C1011 C105 1.309 . S
C1016 C293 1.353 . S
C1021 C633 1.353 . S
C1026 C125 1.312 . S
C1031 C253 1.354 . S
C1036 C154 1.313 . S
C1041 C393 1.354 . S
C1046 C165 1.311 . S
C1051 C185 1.310 . S
C1056 C2 1.352 . S
C1061 C353 1.353 . S
C1066 C205 1.309 . S
C1071 C53 1.353 . S
C1076 C225 1.313 . S
C1081 C433 1.353 . S
C1086 C245 1.311 . S
C1091 C265 1.310 . S
C1096 C133 1.354 . S
C1101 C285 1.309 . S
C1106 C462 1.353 . S
C1111 C93 1.354 . S
C1116 C305 1.310 . S
C1121 C334 1.311 . S
C1126 C233 1.352 . S
C1131 C345 1.312 . S
C1136 C493 1.353 . S
C1141 C193 1.353 . S
C1146 C365 1.311 . S
C1151 C385 1.312 . S
C1156 C533 1.353 . S
C1161 C273 1.354 . S
C1166 C405 1.313 . S
C1171 C425 1.310 . S
C1176 C613 1.354 . S
C1181 C313 1.354 . S
C1186 C445 1.311 . S
C1191 C474 1.312 . S
C1196 C573 1.353 . S
C1201 C73 1.352 . S
C1206 C485 1.310 . S
C1211 C505 1.312 . S
C1216 C322 1.353 . S
C1221 C525 1.310 . S
C1226 C33 1.353 . S
C1231 C373 1.353 . S
C1236 C545 1.312 . S
C1241 C113 1.354 . S
C1246 C565 1.310 . S
C1251 C453 1.354 . S
C1256 C585 1.310 . S
C1261 C605 1.312 . S
C1266 C142 1.354 . S
C1271 C413 1.353 . S
C1276 C625 1.309 . S
C1281 C17 1.815 . S
C1286 C368 1.815 . S
C1291 C28 1.816 . S
C1296 C388 1.816 . S
C1301 C48 1.816 . S
C1306 C337 1.816 . S
C1311 C68 1.816 . S
C1316 C348 1.816 . S
C1321 C448 1.816 . S
C1326 C88 1.816 . S
C1331 C477 1.816 . S
C1336 C108 1.816 . S
C1341 C128 1.815 . S
C1346 C408 1.815 . S
C1351 C428 1.815 . S
C1356 C157 1.815 . S
C1361 C528 1.816 . S
C1366 C168 1.816 . S
C1371 C548 1.815 . S
C1376 C188 1.815 . S
C1381 C488 1.816 . S
C1386 C208 1.816 . S
C1391 C228 1.815 . S
C1396 C508 1.815 . S
C1401 C248 1.816 . S
C1406 C608 1.816 . S
C1411 C628 1.815 . S
C1416 C268 1.815 . S
C1421 C568 1.816 . S
C1426 C288 1.816 . S
C1431 C308 1.816 . S
C1436 C588 1.816 . S
C1441 C148 3.030 . S
C1446 C8 3.031 . S
C1451 C37 3.031 . S
C1456 C97 3.031 . S
C1461 C57 3.029 . S
C1466 C117 3.029 . S
C1471 C137 3.029 . S
C1476 C77 3.030 . S
C1481 C317 3.029 . S
C1486 C177 3.029 . S
C1491 C197 3.030 . S
C1496 C257 3.029 . S
C1501 C277 3.030 . S
C1506 C217 3.031 . S
C1511 C297 3.029 . S
C1516 C237 3.029 . S
C1521 C468 3.031 . S
C1526 C328 3.031 . S
C1531 C417 3.030 . S
C1536 C357 3.031 . S
C1541 C437 3.029 . S
C1546 C377 3.031 . S
C1551 C397 3.031 . S
C1556 C457 3.031 . S
C1561 C637 3.030 . S
C1566 C497 3.031 . S
C1571 C577 3.030 . S
C1576 C517 3.031 . S
C1581 C597 3.030 . S
C1586 C537 3.031 . S
C1591 C557 3.030 . S
C1596 C617 3.029 . S
