# Generated by pormake.
# Topology wlg, (5)-cn, num edge types: 1
# Building blocks:
#     Node 0, Type 0, BuildingBlock: BEQFEK_clean_sbu_0, # of connection points: 5
#     Node 1, Type 0, BuildingBlock: BEQFEK_clean_sbu_0, # of connection points: 5
#     Node 2, Type 0, BuildingBlock: BEQFEK_clean_sbu_0, # of connection points: 5
#     Node 3, Type 0, BuildingBlock: BEQFEK_clean_sbu_0, # of connection points: 5
#     Node 4, Type 0, BuildingBlock: BEQFEK_clean_sbu_0, # of connection points: 5
#     Node 5, Type 0, BuildingBlock: BEQFEK_clean_sbu_0, # of connection points: 5
#     Node 6, Type 0, BuildingBlock: BEQFEK_clean_sbu_0, # of connection points: 5
#     Node 7, Type 0, BuildingBlock: BEQFEK_clean_sbu_0, # of connection points: 5
#     Node 8, Type 0, BuildingBlock: BEQFEK_clean_sbu_0, # of connection points: 5
#     Node 9, Type 0, BuildingBlock: BEQFEK_clean_sbu_0, # of connection points: 5
#     Node 10, Type 0, BuildingBlock: BEQFEK_clean_sbu_0, # of connection points: 5
#     Node 11, Type 0, BuildingBlock: BEQFEK_clean_sbu_0, # of connection points: 5
#     Node 12, Type 0, BuildingBlock: BEQFEK_clean_sbu_0, # of connection points: 5
#     Node 13, Type 0, BuildingBlock: BEQFEK_clean_sbu_0, # of connection points: 5
#     Node 14, Type 0, BuildingBlock: BEQFEK_clean_sbu_0, # of connection points: 5
#     Node 15, Type 0, BuildingBlock: BEQFEK_clean_sbu_0, # of connection points: 5
#     Node 16, Type 0, BuildingBlock: BEQFEK_clean_sbu_0, # of connection points: 5
#     Node 17, Type 0, BuildingBlock: BEQFEK_clean_sbu_0, # of connection points: 5
#     Node 18, Type 0, BuildingBlock: BEQFEK_clean_sbu_0, # of connection points: 5
#     Node 19, Type 0, BuildingBlock: BEQFEK_clean_sbu_0, # of connection points: 5
#     Node 20, Type 0, BuildingBlock: BEQFEK_clean_sbu_0, # of connection points: 5
#     Node 21, Type 0, BuildingBlock: BEQFEK_clean_sbu_0, # of connection points: 5
#     Node 22, Type 0, BuildingBlock: BEQFEK_clean_sbu_0, # of connection points: 5
#     Node 23, Type 0, BuildingBlock: BEQFEK_clean_sbu_0, # of connection points: 5
#     Node 24, Type 0, BuildingBlock: BEQFEK_clean_sbu_0, # of connection points: 5
#     Node 25, Type 0, BuildingBlock: BEQFEK_clean_sbu_0, # of connection points: 5
#     Node 26, Type 0, BuildingBlock: BEQFEK_clean_sbu_0, # of connection points: 5
#     Node 27, Type 0, BuildingBlock: BEQFEK_clean_sbu_0, # of connection points: 5
#     Node 28, Type 0, BuildingBlock: BEQFEK_clean_sbu_0, # of connection points: 5
#     Node 29, Type 0, BuildingBlock: BEQFEK_clean_sbu_0, # of connection points: 5
#     Node 30, Type 0, BuildingBlock: BEQFEK_clean_sbu_0, # of connection points: 5
#     Node 31, Type 0, BuildingBlock: BEQFEK_clean_sbu_0, # of connection points: 5
#     Node 32, Type 0, BuildingBlock: BEQFEK_clean_sbu_0, # of connection points: 5
#     Node 33, Type 0, BuildingBlock: BEQFEK_clean_sbu_0, # of connection points: 5
#     Node 34, Type 0, BuildingBlock: BEQFEK_clean_sbu_0, # of connection points: 5
#     Node 35, Type 0, BuildingBlock: BEQFEK_clean_sbu_0, # of connection points: 5
#     Edge 36, Type (0, 0), None
#     Edge 37, Type (0, 0), None
#     Edge 38, Type (0, 0), None
#     Edge 39, Type (0, 0), None
#     Edge 40, Type (0, 0), None
#     Edge 41, Type (0, 0), None
#     Edge 42, Type (0, 0), None
#     Edge 43, Type (0, 0), None
#     Edge 44, Type (0, 0), None
#     Edge 45, Type (0, 0), None
#     Edge 46, Type (0, 0), None
#     Edge 47, Type (0, 0), None
#     Edge 48, Type (0, 0), None
#     Edge 49, Type (0, 0), None
#     Edge 50, Type (0, 0), None
#     Edge 51, Type (0, 0), None
#     Edge 52, Type (0, 0), None
#     Edge 53, Type (0, 0), None
#     Edge 54, Type (0, 0), None
#     Edge 55, Type (0, 0), None
#     Edge 56, Type (0, 0), None
#     Edge 57, Type (0, 0), None
#     Edge 58, Type (0, 0), None
#     Edge 59, Type (0, 0), None
#     Edge 60, Type (0, 0), None
#     Edge 61, Type (0, 0), None
#     Edge 62, Type (0, 0), None
#     Edge 63, Type (0, 0), None
#     Edge 64, Type (0, 0), None
#     Edge 65, Type (0, 0), None
#     Edge 66, Type (0, 0), None
#     Edge 67, Type (0, 0), None
#     Edge 68, Type (0, 0), None
#     Edge 69, Type (0, 0), None
#     Edge 70, Type (0, 0), None
#     Edge 71, Type (0, 0), None
#     Edge 72, Type (0, 0), None
#     Edge 73, Type (0, 0), None
#     Edge 74, Type (0, 0), None
#     Edge 75, Type (0, 0), None
#     Edge 76, Type (0, 0), None
#     Edge 77, Type (0, 0), None
#     Edge 78, Type (0, 0), None
#     Edge 79, Type (0, 0), None
#     Edge 80, Type (0, 0), None
#     Edge 81, Type (0, 0), None
#     Edge 82, Type (0, 0), None
#     Edge 83, Type (0, 0), None
#     Edge 84, Type (0, 0), None
#     Edge 85, Type (0, 0), None
#     Edge 86, Type (0, 0), None
#     Edge 87, Type (0, 0), None
#     Edge 88, Type (0, 0), None
#     Edge 89, Type (0, 0), None
#     Edge 90, Type (0, 0), None
#     Edge 91, Type (0, 0), None
#     Edge 92, Type (0, 0), None
#     Edge 93, Type (0, 0), None
#     Edge 94, Type (0, 0), None
#     Edge 95, Type (0, 0), None
#     Edge 96, Type (0, 0), None
#     Edge 97, Type (0, 0), None
#     Edge 98, Type (0, 0), None
#     Edge 99, Type (0, 0), None
#     Edge 100, Type (0, 0), None
#     Edge 101, Type (0, 0), None
#     Edge 102, Type (0, 0), None
#     Edge 103, Type (0, 0), None
#     Edge 104, Type (0, 0), None
#     Edge 105, Type (0, 0), None
#     Edge 106, Type (0, 0), None
#     Edge 107, Type (0, 0), None
#     Edge 108, Type (0, 0), None
#     Edge 109, Type (0, 0), None
#     Edge 110, Type (0, 0), None
#     Edge 111, Type (0, 0), None
#     Edge 112, Type (0, 0), None
#     Edge 113, Type (0, 0), None
#     Edge 114, Type (0, 0), None
#     Edge 115, Type (0, 0), None
#     Edge 116, Type (0, 0), None
#     Edge 117, Type (0, 0), None
#     Edge 118, Type (0, 0), None
#     Edge 119, Type (0, 0), None
#     Edge 120, Type (0, 0), None
#     Edge 121, Type (0, 0), None
#     Edge 122, Type (0, 0), None
#     Edge 123, Type (0, 0), None
#     Edge 124, Type (0, 0), None
#     Edge 125, Type (0, 0), None
# Relax obj value: 0.310
# Max RMSD: 0.187
# Mean RMSD: 0.187
data_MOF--net-wlg--node1-BEQFEK_clean_sbu_0--edge1-none
_symmetry_space_group_name_H-M    P1
_symmetry_Int_Tables_number       1
_symmetry_cell_setting            triclinic
loop_
_symmetry_equiv_pos_as_xyz
'x, y, z'
_cell_length_a     29.920346
_cell_length_b     29.920237
_cell_length_c     31.133978
_cell_angle_alpha  89.998434
_cell_angle_beta   90.000663
_cell_angle_gamma 119.99985
loop_
_atom_site_label
_atom_site_type_symbol
_atom_site_fract_x
_atom_site_fract_y
_atom_site_fract_z
_atom_type_partial_charge
Co0 Co 0.94322 0.17893 0.16626 0.0
Co1 Co 0.03126 0.15606 0.15235 0.0
C2 C 0.91977 0.07861 0.12981 0.0
O3 O 0.90733 0.11245 0.13696 0.0
O4 O 0.96648 0.08941 0.13432 0.0
C5 C 0.84948 0.16083 0.18243 0.0
O6 O 0.84921 0.12035 0.19904 0.0
C7 C 0.09132 0.10922 0.121 0.0
C8 C 0.16545 0.15534 0.1538 0.0
C9 C 0.13746 0.1107 0.12965 0.0
N10 N 0.0909 0.14914 0.14055 0.0
N11 N 0.13625 0.17759 0.15905 0.0
C12 C 0.04757 0.06987 0.09556 0.0
H13 H 0.03104 0.0887 0.07547 0.0
H14 H 0.05969 0.04769 0.0748 0.0
H15 H 0.01811 0.0444 0.1188 0.0
C16 C 0.01749 0.27904 0.12936 0.0
N17 N 0.00322 0.22997 0.13915 0.0
N18 N 0.03964 0.22001 0.12813 0.0
C19 C 0.07768 0.26252 0.10823 0.0
C20 C 0.06493 0.30192 0.10821 0.0
C21 C 0.98886 0.30482 0.14558 0.0
H22 H 0.97554 0.29189 0.17893 0.0
H23 H 0.95398 0.29284 0.1256 0.0
H24 H 0.01333 0.34747 0.14531 0.0
O25 O 0.95583 0.16741 0.22545 0.0
O26 O 0.02473 0.15834 0.21775 0.0
H27 H 0.15511 0.27751 0.11318 0.0
H28 H 0.1385 0.29172 0.06113 0.0
C29 C 0.12421 0.26451 0.08863 0.0
H30 H 0.11482 0.22547 0.07766 0.0
H31 H 0.14589 0.21009 0.17781 0.0
O32 O 0.89077 0.19771 0.16726 0.0
C33 C 0.99029 0.15965 0.24137 0.0
Co34 Co 0.8087 0.76179 0.16625 0.0
Co35 Co 0.83154 0.87268 0.15235 0.0
C36 C 0.90903 0.83869 0.12981 0.0
O37 O 0.87519 0.7924 0.13695 0.0
O38 O 0.89821 0.87458 0.13433 0.0
C39 C 0.82682 0.68617 0.18243 0.0
O40 O 0.86727 0.72639 0.19905 0.0
C41 C 0.87842 0.9796 0.12108 0.0
C42 C 0.8323 0.0076 0.15391 0.0
C43 C 0.87699 0.02425 0.12985 0.0
N44 N 0.83846 0.93924 0.14057 0.0
N45 N 0.81 0.95613 0.15907 0.0
C46 C 0.91779 0.97522 0.09564 0.0
H47 H 0.89898 0.93986 0.07555 0.0
H48 H 0.93995 0.00952 0.07488 0.0
H49 H 0.94327 0.97124 0.11889 0.0
C50 C 0.70858 0.73594 0.12934 0.0
N51 N 0.75765 0.77073 0.13913 0.0
N52 N 0.76761 0.81712 0.12812 0.0
C53 C 0.7251 0.81265 0.10822 0.0
C54 C 0.68571 0.76051 0.10819 0.0
C55 C 0.68281 0.68153 0.14555 0.0
H56 H 0.69573 0.68113 0.17889 0.0
H57 H 0.69478 0.65863 0.12556 0.0
H58 H 0.64016 0.66335 0.14528 0.0
O59 O 0.8202 0.7859 0.22544 0.0
O60 O 0.82925 0.86386 0.21775 0.0
H61 H 0.71011 0.87509 0.11317 0.0
H62 H 0.69591 0.84428 0.06112 0.0
C63 C 0.72312 0.85721 0.08863 0.0
H64 H 0.76216 0.88685 0.07766 0.0
H65 H 0.77746 0.93325 0.17779 0.0
O66 O 0.78993 0.69056 0.16725 0.0
C67 C 0.82794 0.82811 0.24137 0.0
Co68 Co 0.22587 0.04445 0.16621 0.0
Co69 Co 0.11497 0.95642 0.15231 0.0
C70 C 0.14901 0.06789 0.12971 0.0
O71 O 0.19528 0.08033 0.13688 0.0
O72 O 0.11308 0.02119 0.13424 0.0
C73 C 0.30148 0.13817 0.18241 0.0
O74 O 0.26125 0.13841 0.19901 0.0
C75 C 0.00804 0.89636 0.12107 0.0
C76 C 0.98005 0.82225 0.15393 0.0
C77 C 0.96339 0.85028 0.12985 0.0
N78 N 0.0484 0.89677 0.14056 0.0
N79 N 0.03152 0.85143 0.15908 0.0
C80 C 0.01241 0.94009 0.0956 0.0
H81 H 0.04775 0.9566 0.07548 0.0
H82 H 0.97809 0.92794 0.07486 0.0
H83 H 0.01642 0.96957 0.11883 0.0
C84 C 0.2517 0.97016 0.12934 0.0
N85 N 0.21692 0.98444 0.13911 0.0
N86 N 0.17053 0.94802 0.1281 0.0
C87 C 0.175 0.90997 0.10821 0.0
C88 C 0.22714 0.92271 0.10819 0.0
C89 C 0.30612 -0.00121 0.14555 0.0
H90 H 0.30651 0.01212 0.17889 0.0
H91 H 0.32901 0.03366 0.12556 0.0
H92 H 0.32429 0.97431 0.14529 0.0
O93 O 0.20175 0.03186 0.2254 0.0
O94 O 0.12378 0.96298 0.21771 0.0
H95 H 0.11255 0.83254 0.11318 0.0
H96 H 0.14336 0.84914 0.06113 0.0
C97 C 0.13044 0.86343 0.08863 0.0
H98 H 0.10079 0.87282 0.07766 0.0
H99 H 0.05441 0.84179 0.1778 0.0
O100 O 0.2971 0.0969 0.16722 0.0
C101 C 0.15954 -0.00259 0.24133 0.0
Co102 Co 0.17646 0.94568 0.36337 0.0
Co103 Co 0.15361 0.03373 0.37727 0.0
C104 C 0.07614 0.92224 0.39981 0.0
O105 O 0.10998 0.90979 0.39268 0.0
O106 O 0.08695 0.96895 0.39529 0.0
C107 C 0.15835 0.85194 0.34719 0.0
O108 O 0.11789 0.85169 0.33058 0.0
C109 C 0.10677 0.09378 0.40862 0.0
C110 C 0.15289 0.16792 0.37582 0.0
C111 C 0.10825 0.13992 0.39997 0.0
N112 N 0.14669 0.09337 0.38906 0.0
N113 N 0.17515 0.13872 0.37057 0.0
C114 C 0.06741 0.05002 0.43405 0.0
H115 H 0.08623 0.03347 0.45413 0.0
H116 H 0.04524 0.06214 0.45482 0.0
H117 H 0.04194 0.02058 0.4108 0.0
C118 C 0.27657 0.01994 0.40028 0.0
N119 N 0.22751 0.00567 0.39049 0.0
N120 N 0.21755 0.04209 0.4015 0.0
C121 C 0.26006 0.08013 0.4214 0.0
C122 C 0.29945 0.06738 0.42143 0.0
C123 C 0.30235 0.9913 0.38407 0.0
H124 H 0.28942 0.97798 0.35073 0.0
H125 H 0.29037 0.95643 0.40406 0.0
H126 H 0.345 0.01578 0.38434 0.0
O127 O 0.16495 0.95829 0.30419 0.0
O128 O 0.1559 0.0272 0.31186 0.0
H129 H 0.27504 0.15756 0.41644 0.0
H130 H 0.28925 0.14095 0.4685 0.0
C131 C 0.26204 0.12667 0.44099 0.0
H132 H 0.223 0.11728 0.45196 0.0
H133 H 0.20764 0.14836 0.35181 0.0
O134 O 0.19524 0.89322 0.36237 0.0
C135 C 0.1572 0.99275 0.28826 0.0
Co136 Co 0.04199 0.22832 0.36341 0.0
Co137 Co 0.95396 0.1174 0.37731 0.0
C138 C 0.06544 0.15146 0.39991 0.0
O139 O 0.07788 0.19774 0.39274 0.0
O140 O 0.01874 0.11553 0.39538 0.0
C141 C 0.13572 0.30394 0.34721 0.0
O142 O 0.13597 0.26372 0.33061 0.0
C143 C 0.89388 0.01049 0.40863 0.0
C144 C 0.81977 0.9825 0.37581 0.0
C145 C 0.84774 0.96584 0.39997 0.0
N146 N 0.89432 0.05084 0.38909 0.0
N147 N 0.84898 0.03395 0.37057 0.0
C148 C 0.93762 0.01488 0.4341 0.0
H149 H 0.95413 0.05022 0.4542 0.0
H150 H 0.92549 0.98057 0.45484 0.0
H151 H 0.96709 0.01889 0.41087 0.0
C152 C 0.96771 0.25415 0.40028 0.0
N153 N 0.98199 0.21936 0.3905 0.0
N154 N 0.94557 0.17297 0.40152 0.0
C155 C 0.90752 0.17744 0.42141 0.0
C156 C 0.92027 0.22958 0.42143 0.0
C157 C -0.00366 0.30856 0.38407 0.0
H158 H 0.00967 0.30895 0.35073 0.0
H159 H 0.03121 0.33146 0.40406 0.0
H160 H 0.97186 0.32673 0.38433 0.0
O161 O 0.0294 0.20419 0.30422 0.0
O162 O 0.96052 0.12622 0.31191 0.0
H163 H 0.83009 0.115 0.41645 0.0
H164 H 0.84669 0.14581 0.4685 0.0
C165 C 0.86098 0.13288 0.441 0.0
H166 H 0.87037 0.10324 0.45197 0.0
H167 H 0.83935 0.05682 0.35181 0.0
O168 O 0.09444 0.29955 0.36239 0.0
C169 C -0.00504 0.16197 0.2883 0.0
Co170 Co 0.75931 0.81117 0.36342 0.0
Co171 Co 0.87021 0.83404 0.3773 0.0
C172 C 0.83619 0.91148 0.39991 0.0
O173 O 0.78991 0.87765 0.39274 0.0
O174 O 0.87211 0.9007 0.39537 0.0
C175 C 0.68371 0.82929 0.34721 0.0
O176 O 0.72394 0.86975 0.3306 0.0
C177 C 0.97713 0.88091 0.40855 0.0
C178 C 0.00512 0.83478 0.3757 0.0
C179 C 0.02178 0.87947 0.39977 0.0
N180 N 0.93677 0.84095 0.38906 0.0
N181 N 0.95365 0.81249 0.37054 0.0
C182 C 0.97276 0.92026 0.43401 0.0
H183 H 0.93741 0.90144 0.45412 0.0
H184 H 0.00707 0.94242 0.45476 0.0
H185 H 0.96877 0.94574 0.41078 0.0
C186 C 0.73348 0.71106 0.40031 0.0
N187 N 0.76826 0.76012 0.39052 0.0
N188 N 0.81465 0.77009 0.40153 0.0
C189 C 0.81019 0.72758 0.42142 0.0
C190 C 0.75805 0.68818 0.42145 0.0
C191 C 0.67906 0.68528 0.3841 0.0
H192 H 0.67866 0.69821 0.35076 0.0
H193 H 0.65617 0.69725 0.4041 0.0
H194 H 0.66089 0.64263 0.38437 0.0
O195 O 0.78341 0.82269 0.30423 0.0
O196 O 0.86138 0.83176 0.3119 0.0
H197 H 0.87263 0.71259 0.41645 0.0
H198 H 0.84183 0.69838 0.4685 0.0
C199 C 0.85475 0.7256 0.441 0.0
H200 H 0.8844 0.76463 0.45196 0.0
H201 H 0.93076 0.77996 0.35182 0.0
O202 O 0.68808 0.7924 0.36241 0.0
C203 C 0.82562 0.83045 0.2883 0.0
Co204 Co 0.04197 0.81119 0.86336 0.0
Co205 Co 0.95393 0.83406 0.87727 0.0
C206 C 0.06542 0.91152 0.89981 0.0
O207 O 0.07786 0.87768 0.89266 0.0
O208 O 0.01871 0.90071 0.8953 0.0
C209 C 0.13571 0.8293 0.84719 0.0
O210 O 0.13598 0.86977 0.83057 0.0
C211 C 0.89387 0.8809 0.90862 0.0
C212 C 0.81974 0.83478 0.87581 0.0
C213 C 0.84773 0.87942 0.89997 0.0
N214 N 0.89429 0.84098 0.88907 0.0
N215 N 0.84894 0.81253 0.87057 0.0
C216 C 0.93762 0.92025 0.93406 0.0
H217 H 0.95415 0.90142 0.95415 0.0
H218 H 0.9255 0.94243 0.95482 0.0
H219 H 0.96708 0.94572 0.91082 0.0
C220 C 0.9677 0.71108 0.90026 0.0
N221 N 0.98198 0.76015 0.89047 0.0
N222 N 0.94555 0.77011 0.90149 0.0
C223 C 0.90752 0.7276 0.92139 0.0
C224 C 0.92027 0.68821 0.92142 0.0
C225 C -0.00366 0.68531 0.88404 0.0
H226 H 0.00966 0.69824 0.8507 0.0
H227 H 0.03121 0.69728 0.90403 0.0
H228 H 0.97186 0.64266 0.88431 0.0
O229 O 0.02936 0.82271 0.80417 0.0
O230 O 0.96046 0.83178 0.81187 0.0
H231 H 0.83008 0.71261 0.91644 0.0
H232 H 0.84669 0.6984 0.96849 0.0
C233 C 0.86098 0.72562 0.94099 0.0
H234 H 0.87037 0.76465 0.95195 0.0
H235 H 0.8393 0.78003 0.85181 0.0
O236 O 0.09443 0.79241 0.86236 0.0
C237 C -0.0051 0.83047 0.78825 0.0
Co238 Co 0.17649 0.22833 0.86337 0.0
Co239 Co 0.15365 0.11744 0.87727 0.0
C240 C 0.07616 0.15143 0.89981 0.0
O241 O 0.11 0.19772 0.89266 0.0
O242 O 0.08698 0.11554 0.89529 0.0
C243 C 0.15837 0.30394 0.84719 0.0
O244 O 0.11791 0.26373 0.83056 0.0
C245 C 0.10677 0.01053 0.90854 0.0
C246 C 0.15289 0.98252 0.87571 0.0
C247 C 0.1082 0.96587 0.89977 0.0
N248 N 0.14673 0.05088 0.88905 0.0
N249 N 0.17519 0.03399 0.87054 0.0
C250 C 0.0674 0.01491 0.93398 0.0
H251 H 0.08621 0.05026 0.95407 0.0
H252 H 0.04524 0.98061 0.95474 0.0
H253 H 0.04192 0.01888 0.91073 0.0
C254 C 0.2766 0.25418 0.90028 0.0
N255 N 0.22754 0.21939 0.89049 0.0
N256 N 0.21758 0.173 0.9015 0.0
C257 C 0.26009 0.17747 0.9214 0.0
C258 C 0.29948 0.22962 0.92143 0.0
C259 C 0.30238 0.3086 0.88407 0.0
H260 H 0.28945 0.309 0.85073 0.0
H261 H 0.2904 0.33149 0.90407 0.0
H262 H 0.34503 0.32677 0.88435 0.0
O263 O 0.16499 0.20422 0.80418 0.0
O264 O 0.15593 0.12626 0.81187 0.0
H265 H 0.27508 0.11503 0.91644 0.0
H266 H 0.28928 0.14584 0.9685 0.0
C267 C 0.26207 0.13291 0.94099 0.0
H268 H 0.22303 0.10327 0.95195 0.0
H269 H 0.20773 0.05687 0.85183 0.0
O270 O 0.19526 0.29956 0.86237 0.0
C271 C 0.15725 0.16201 0.78825 0.0
Co272 Co 0.75932 0.94567 0.86341 0.0
Co273 Co 0.87022 0.0337 0.87731 0.0
C274 C 0.83618 0.92223 0.89991 0.0
O275 O 0.78991 0.90979 0.89274 0.0
O276 O 0.87211 0.96893 0.89538 0.0
C277 C 0.68371 0.85194 0.8472 0.0
O278 O 0.72394 0.85171 0.8306 0.0
C279 C 0.97715 0.09376 0.90855 0.0
C280 C 0.00514 0.16787 0.87569 0.0
C281 C 0.0218 0.13984 0.89977 0.0
N282 N 0.93678 0.09335 0.88906 0.0
N283 N 0.95366 0.13869 0.87054 0.0
C284 C 0.97278 0.05003 0.93402 0.0
H285 H 0.93744 0.03352 0.95414 0.0
H286 H 0.0071 0.06218 0.95476 0.0
H287 H 0.96877 0.02055 0.9108 0.0
C288 C 0.73349 0.01996 0.90028 0.0
N289 N 0.76827 0.00567 0.89051 0.0
N290 N 0.81466 0.0421 0.90152 0.0
C291 C 0.81019 0.08015 0.92141 0.0
C292 C 0.75805 0.0674 0.92143 0.0
C293 C 0.67907 0.99132 0.88407 0.0
H294 H 0.67868 0.97799 0.85073 0.0
H295 H 0.65618 0.95646 0.90407 0.0
H296 H 0.6609 0.0158 0.88434 0.0
O297 O 0.78343 0.95826 0.80422 0.0
O298 O 0.8614 0.02714 0.81191 0.0
H299 H 0.87263 0.15758 0.91644 0.0
H300 H 0.84183 0.14098 0.96849 0.0
C301 C 0.85475 0.12669 0.94099 0.0
H302 H 0.8844 0.1173 0.95195 0.0
H303 H 0.93078 0.14833 0.85182 0.0
O304 O 0.68808 0.89321 0.86239 0.0
C305 C 0.82565 0.99271 0.78829 0.0
Co306 Co 0.80873 0.04444 0.66625 0.0
Co307 Co 0.83158 0.95639 0.65235 0.0
C308 C 0.90905 0.06788 0.62981 0.0
O309 O 0.87521 0.08033 0.63694 0.0
O310 O 0.89824 0.02117 0.63433 0.0
C311 C 0.82683 0.13817 0.68242 0.0
O312 O 0.8673 0.13843 0.69903 0.0
C313 C 0.87842 0.89634 0.621 0.0
C314 C 0.8323 0.8222 0.6538 0.0
C315 C 0.87694 0.8502 0.62965 0.0
N316 N 0.8385 0.89675 0.64055 0.0
N317 N 0.81004 0.8514 0.65905 0.0
C318 C 0.91778 0.9401 0.59557 0.0
H319 H 0.89896 0.95665 0.57549 0.0
H320 H 0.93995 0.92798 0.5748 0.0
H321 H 0.94325 0.96954 0.61882 0.0
C322 C 0.70862 0.97018 0.62934 0.0
N323 N 0.75768 0.98445 0.63913 0.0
N324 N 0.76764 0.94802 0.62812 0.0
C325 C 0.72513 0.90999 0.60822 0.0
C326 C 0.68574 0.92274 0.60819 0.0
C327 C 0.68284 -0.00119 0.64555 0.0
H328 H 0.69577 0.01213 0.6789 0.0
H329 H 0.69482 0.03369 0.62556 0.0
H330 H 0.64019 0.97434 0.64528 0.0
O331 O 0.82024 0.03183 0.72543 0.0
O332 O 0.82929 0.96292 0.71776 0.0
H333 H 0.71014 0.83255 0.61317 0.0
H334 H 0.69594 0.84917 0.56112 0.0
C335 C 0.72315 0.86345 0.58863 0.0
H336 H 0.76219 0.87284 0.57766 0.0
H337 H 0.77754 0.84175 0.67781 0.0
O338 O 0.78994 0.09689 0.66725 0.0
C339 C 0.82799 -0.00263 0.74136 0.0
Co340 Co 0.9432 0.7618 0.66621 0.0
Co341 Co 0.03123 0.87272 0.65231 0.0
C342 C 0.91975 0.83866 0.62971 0.0
O343 O 0.90731 0.79238 0.63688 0.0
O344 O 0.96645 0.87459 0.63424 0.0
C345 C 0.84948 0.68618 0.68241 0.0
O346 O 0.84922 0.7264 0.699 0.0
C347 C 0.09131 0.97963 0.62099 0.0
C348 C 0.16542 0.00763 0.65381 0.0
C349 C 0.13745 0.02429 0.62965 0.0
N350 N 0.09088 0.93928 0.64053 0.0
N351 N 0.13622 0.95617 0.65905 0.0
C352 C 0.04757 0.97525 0.59552 0.0
H353 H 0.03106 0.9399 0.57542 0.0
H354 H 0.0597 0.00955 0.57478 0.0
H355 H 0.0181 0.97123 0.61875 0.0
C356 C 0.01749 0.73598 0.62934 0.0
N357 N 0.0032 0.77076 0.63912 0.0
N358 N 0.03963 0.81715 0.6281 0.0
C359 C 0.07767 0.81268 0.60821 0.0
C360 C 0.06493 0.76054 0.60819 0.0
C361 C 0.98885 0.68156 0.64556 0.0
H362 H 0.97553 0.68117 0.6789 0.0
H363 H 0.95398 0.65867 0.62557 0.0
H364 H 0.01333 0.66339 0.64529 0.0
O365 O 0.95579 0.78593 0.72539 0.0
O366 O 0.02467 0.8639 0.71771 0.0
H367 H 0.1551 0.87512 0.61317 0.0
H368 H 0.1385 0.84431 0.56112 0.0
C369 C 0.12421 0.85724 0.58862 0.0
H370 H 0.11482 0.88688 0.57765 0.0
H371 H 0.14584 0.9333 0.67781 0.0
O372 O 0.89075 0.69057 0.66723 0.0
C373 C 0.99023 0.82815 0.74132 0.0
Co374 Co 0.22588 0.17895 0.6662 0.0
Co375 Co 0.11498 0.15608 0.65232 0.0
C376 C 0.149 0.07864 0.62971 0.0
O377 O 0.19528 0.11247 0.63688 0.0
O378 O 0.11308 0.08942 0.63425 0.0
C379 C 0.30148 0.16083 0.68241 0.0
O380 O 0.26125 0.12038 0.69901 0.0
C381 C 0.00806 0.10921 0.62107 0.0
C382 C 0.98006 0.15534 0.65392 0.0
C383 C 0.96341 0.11065 0.62985 0.0
N384 N 0.04842 0.14917 0.64056 0.0
N385 N 0.03154 0.17763 0.65908 0.0
C386 C 0.01243 0.06986 0.59561 0.0
H387 H 0.04778 0.08868 0.5755 0.0
H388 H 0.97812 0.0477 0.57486 0.0
H389 H 0.01642 0.04438 0.61884 0.0
C390 C 0.25171 0.27907 0.62932 0.0
N391 N 0.21693 0.23 0.6391 0.0
N392 N 0.17054 0.22003 0.62809 0.0
C393 C 0.175 0.26255 0.6082 0.0
C394 C 0.22714 0.30194 0.60817 0.0
C395 C 0.30613 0.30485 0.64552 0.0
H396 H 0.30653 0.29191 0.67886 0.0
H397 H 0.32902 0.29287 0.62552 0.0
H398 H 0.3243 0.3475 0.64525 0.0
O399 O 0.20178 0.16743 0.72539 0.0
O400 O 0.12381 0.15836 0.71772 0.0
H401 H 0.11256 0.27753 0.61317 0.0
H402 H 0.14336 0.29174 0.56111 0.0
C403 C 0.13044 0.26453 0.58862 0.0
H404 H 0.10079 0.22549 0.57766 0.0
H405 H 0.05443 0.21017 0.6778 0.0
O406 O 0.29711 0.19772 0.66721 0.0
C407 C 0.15956 0.15967 0.74132 0.0
Co408 Co 0.60989 0.51227 0.49959 0.0
Co409 Co 0.69793 0.4894 0.48568 0.0
C410 C 0.58644 0.41194 0.46315 0.0
O411 O 0.574 0.44578 0.4703 0.0
O412 O 0.63315 0.42274 0.46766 0.0
C413 C 0.51615 0.49416 0.51577 0.0
O414 O 0.51589 0.4537 0.53238 0.0
C415 C 0.75799 0.44255 0.45434 0.0
C416 C 0.83212 0.48867 0.48714 0.0
C417 C 0.80413 0.44403 0.46299 0.0
N418 N 0.75757 0.48247 0.47389 0.0
N419 N 0.80292 0.51093 0.49239 0.0
C420 C 0.71424 0.4032 0.42889 0.0
H421 H 0.6977 0.42203 0.4088 0.0
H422 H 0.72636 0.38102 0.40813 0.0
H423 H 0.68478 0.37774 0.45213 0.0
C424 C 0.68415 0.61236 0.46266 0.0
N425 N 0.66988 0.56331 0.47247 0.0
N426 N 0.7063 0.55334 0.46145 0.0
C427 C 0.74433 0.59584 0.44153 0.0
C428 C 0.73157 0.63522 0.44147 0.0
C429 C 0.65551 0.63815 0.47886 0.0
H430 H 0.64219 0.62523 0.51221 0.0
H431 H 0.62065 0.62617 0.45887 0.0
H432 H 0.68 0.6808 0.47859 0.0
O433 O 0.62251 0.50076 0.55878 0.0
O434 O 0.69139 0.49167 0.55108 0.0
H435 H 0.82176 0.61082 0.44649 0.0
H436 H 0.80516 0.62503 0.39444 0.0
C437 C 0.79087 0.59781 0.42194 0.0
H438 H 0.78147 0.55877 0.41098 0.0
H439 H 0.81256 0.54342 0.51115 0.0
O440 O 0.55743 0.53105 0.50059 0.0
C441 C 0.65696 0.493 0.5747 0.0
Co442 Co 0.47535 0.09512 0.49958 0.0
Co443 Co 0.49821 0.20601 0.48569 0.0
C444 C 0.57569 0.17202 0.46315 0.0
O445 O 0.54186 0.12573 0.4703 0.0
O446 O 0.56487 0.20791 0.46766 0.0
C447 C 0.49348 0.01951 0.51576 0.0
O448 O 0.53393 0.05972 0.5324 0.0
C449 C 0.54509 0.31293 0.45442 0.0
C450 C 0.49896 0.34094 0.48726 0.0
C451 C 0.54366 0.35758 0.46319 0.0
N452 N 0.50512 0.27257 0.47391 0.0
N453 N 0.47666 0.28946 0.49242 0.0
C454 C 0.58445 0.30855 0.42898 0.0
H455 H 0.56564 0.27319 0.40888 0.0
H456 H 0.60661 0.34285 0.40822 0.0
H457 H 0.60993 0.30458 0.45222 0.0
C458 C 0.37526 0.06928 0.46263 0.0
N459 N 0.42431 0.10406 0.47245 0.0
N460 N 0.43428 0.15046 0.46144 0.0
C461 C 0.39178 0.14599 0.44152 0.0
C462 C 0.3524 0.09385 0.44146 0.0
C463 C 0.34947 0.01485 0.47883 0.0
H464 H 0.36239 0.01444 0.51217 0.0
H465 H 0.36145 0.99197 0.45883 0.0
H466 H 0.30682 -0.00332 0.47855 0.0
O467 O 0.48684 0.11922 0.55877 0.0
O468 O 0.49592 0.19719 0.55108 0.0
H469 H 0.37681 0.20844 0.44649 0.0
H470 H 0.3626 0.17764 0.39443 0.0
C471 C 0.38981 0.19056 0.42194 0.0
H472 H 0.42885 0.2202 0.41098 0.0
H473 H 0.44413 0.26658 0.51113 0.0
O474 O 0.45659 0.02388 0.50057 0.0
C475 C 0.49459 0.16143 0.5747 0.0
Co476 Co 0.89254 0.37778 0.49954 0.0
Co477 Co 0.78163 0.28975 0.48564 0.0
C478 C 0.81567 0.40122 0.46305 0.0
O479 O 0.86195 0.41366 0.47023 0.0
O480 O 0.77975 0.35452 0.46757 0.0
C481 C 0.96815 0.4715 0.51575 0.0
O482 O 0.92792 0.47173 0.53235 0.0
C483 C 0.6747 0.2297 0.4544 0.0
C484 C 0.64671 0.15558 0.48727 0.0
C485 C 0.63006 0.18361 0.46319 0.0
N486 N 0.71507 0.2301 0.47389 0.0
N487 N 0.69819 0.18477 0.49242 0.0
C488 C 0.67907 0.27342 0.42893 0.0
H489 H 0.71441 0.28993 0.40881 0.0
H490 H 0.64475 0.26127 0.4082 0.0
H491 H 0.68308 0.3029 0.45216 0.0
C492 C 0.91837 0.3035 0.46262 0.0
N493 N 0.88358 0.31778 0.47243 0.0
N494 N 0.83719 0.28136 0.46142 0.0
C495 C 0.84165 0.24332 0.44151 0.0
C496 C 0.8938 0.25607 0.44145 0.0
C497 C 0.97279 0.33213 0.47882 0.0
H498 H 0.97319 0.34547 0.51216 0.0
H499 H -0.00432 0.367 0.45882 0.0
H500 H 0.99095 0.30765 0.47855 0.0
O501 O 0.86843 0.36518 0.55873 0.0
O502 O 0.79045 0.29631 0.55104 0.0
H503 H 0.7792 0.16589 0.44649 0.0
H504 H 0.81 0.18248 0.39443 0.0
C505 C 0.79709 0.19678 0.42193 0.0
H506 H 0.76744 0.20617 0.41097 0.0
H507 H 0.72108 0.17513 0.51114 0.0
O508 O 0.96378 0.43024 0.50055 0.0
C509 C 0.82621 0.33074 0.57466 0.0
Co510 Co 0.84313 0.279 0.6967 0.0
Co511 Co 0.82028 0.36705 0.71059 0.0
C512 C 0.7428 0.25557 0.73314 0.0
O513 O 0.77664 0.24312 0.726 0.0
O514 O 0.75362 0.30228 0.72862 0.0
C515 C 0.82503 0.18527 0.68053 0.0
O516 O 0.78456 0.18501 0.66392 0.0
C517 C 0.77343 0.42711 0.74194 0.0
C518 C 0.81955 0.50125 0.70915 0.0
C519 C 0.77491 0.47325 0.7333 0.0
N520 N 0.81335 0.42669 0.72239 0.0
N521 N 0.84181 0.47205 0.7039 0.0
C522 C 0.73408 0.38335 0.76738 0.0
H523 H 0.7529 0.3668 0.78746 0.0
H524 H 0.71191 0.39547 0.78815 0.0
H525 H 0.7086 0.35391 0.74413 0.0
C526 C 0.94323 0.35327 0.73361 0.0
N527 N 0.89417 0.339 0.72382 0.0
N528 N 0.88421 0.37542 0.73483 0.0
C529 C 0.92672 0.41346 0.75473 0.0
C530 C 0.96611 0.40071 0.75476 0.0
C531 C 0.96901 0.32463 0.7174 0.0
H532 H 0.95609 0.31131 0.68405 0.0
H533 H 0.95704 0.28976 0.73739 0.0
H534 H 0.01166 0.34911 0.71767 0.0
O535 O 0.83162 0.29161 0.63752 0.0
O536 O 0.82257 0.36052 0.64519 0.0
H537 H 0.94171 0.49089 0.74977 0.0
H538 H 0.95592 0.47429 0.80182 0.0
C539 C 0.9287 0.46 0.77432 0.0
H540 H 0.88966 0.45061 0.78528 0.0
H541 H 0.87431 0.48169 0.68513 0.0
O542 O 0.86191 0.22655 0.69571 0.0
C543 C 0.82387 0.32608 0.62159 0.0
Co544 Co 0.70866 0.56165 0.69674 0.0
Co545 Co 0.62063 0.45074 0.71064 0.0
C546 C 0.7321 0.48479 0.73324 0.0
O547 O 0.74454 0.53107 0.72608 0.0
O548 O 0.68541 0.44886 0.72871 0.0
C549 C 0.80238 0.63728 0.68055 0.0
O550 O 0.80264 0.59706 0.66396 0.0
C551 C 0.56055 0.34382 0.74196 0.0
C552 C 0.48643 0.31583 0.70914 0.0
C553 C 0.51441 0.29917 0.7333 0.0
N554 N 0.56098 0.38417 0.72242 0.0
N555 N 0.51564 0.36729 0.7039 0.0
C556 C 0.60428 0.34821 0.76743 0.0
H557 H 0.6208 0.38356 0.78753 0.0
H558 H 0.59215 0.3139 0.78817 0.0
H559 H 0.63376 0.35222 0.7442 0.0
C560 C 0.63437 0.58748 0.73362 0.0
N561 N 0.64866 0.55269 0.72384 0.0
N562 N 0.61223 0.5063 0.73485 0.0
C563 C 0.57419 0.51077 0.75474 0.0
C564 C 0.58693 0.56291 0.75477 0.0
C565 C 0.66301 0.64189 0.7174 0.0
H566 H 0.67633 0.64228 0.68406 0.0
H567 H 0.69788 0.66479 0.73739 0.0
H568 H 0.63853 0.66006 0.71766 0.0
O569 O 0.69607 0.53753 0.63756 0.0
O570 O 0.62719 0.45956 0.64524 0.0
H571 H 0.49676 0.44833 0.74978 0.0
H572 H 0.51335 0.47914 0.80183 0.0
C573 C 0.52765 0.46621 0.77433 0.0
H574 H 0.53703 0.43656 0.7853 0.0
H575 H 0.50602 0.39015 0.68514 0.0
O576 O 0.76111 0.63289 0.69573 0.0
C577 C 0.66163 0.49532 0.62163 0.0
Co578 Co 0.42597 0.1445 0.69676 0.0
Co579 Co 0.53687 0.16737 0.71063 0.0
C580 C 0.50285 0.24481 0.73324 0.0
O581 O 0.45657 0.21098 0.72607 0.0
O582 O 0.53877 0.23403 0.7287 0.0
C583 C 0.35037 0.16262 0.68055 0.0
O584 O 0.3906 0.20307 0.66395 0.0
C585 C 0.6438 0.21423 0.74188 0.0
C586 C 0.67179 0.16811 0.70902 0.0
C587 C 0.68844 0.2128 0.7331 0.0
N588 N 0.60343 0.17428 0.72239 0.0
N589 N 0.62031 0.14582 0.70387 0.0
C590 C 0.63943 0.25359 0.76734 0.0
H591 H 0.60408 0.23477 0.78745 0.0
H592 H 0.67374 0.27575 0.78809 0.0
H593 H 0.63544 0.27907 0.74411 0.0
C594 C 0.40014 0.04439 0.73364 0.0
N595 N 0.43492 0.09345 0.72386 0.0
N596 N 0.48132 0.10342 0.73486 0.0
C597 C 0.47685 0.06091 0.75475 0.0
C598 C 0.42471 0.02151 0.75478 0.0
C599 C 0.34572 0.01861 0.71744 0.0
H600 H 0.34532 0.03154 0.6841 0.0
H601 H 0.32283 0.03058 0.73744 0.0
H602 H 0.32755 0.97596 0.71771 0.0
O603 O 0.45007 0.15601 0.63757 0.0
O604 O 0.52804 0.16509 0.64523 0.0
H605 H 0.5393 0.04592 0.74978 0.0
H606 H 0.5085 0.03171 0.80184 0.0
C607 C 0.52142 0.05893 0.77433 0.0
H608 H 0.55107 0.09796 0.78529 0.0
H609 H 0.59742 0.11329 0.68515 0.0
O610 O 0.35474 0.12573 0.69575 0.0
C611 C 0.49228 0.16377 0.62163 0.0
Co612 Co 0.70864 0.14453 0.19669 0.0
Co613 Co 0.6206 0.16739 0.2106 0.0
C614 C 0.73209 0.24485 0.23314 0.0
O615 O 0.74453 0.21101 0.22599 0.0
O616 O 0.68538 0.23405 0.22863 0.0
C617 C 0.80239 0.16263 0.18053 0.0
O618 O 0.80265 0.2031 0.16392 0.0
C619 C 0.56054 0.21424 0.24195 0.0
C620 C 0.48641 0.16812 0.20914 0.0
C621 C 0.5144 0.21275 0.2333 0.0
N622 N 0.56096 0.17432 0.22239 0.0
N623 N 0.51561 0.14586 0.20389 0.0
C624 C 0.60429 0.25358 0.26739 0.0
H625 H 0.62082 0.23476 0.28748 0.0
H626 H 0.59217 0.27576 0.28815 0.0
H627 H 0.63375 0.27905 0.24415 0.0
C628 C 0.63437 0.04442 0.23359 0.0
N629 N 0.64865 0.09348 0.22381 0.0
N630 N 0.61223 0.10345 0.23482 0.0
C631 C 0.57419 0.06093 0.25472 0.0
C632 C 0.58694 0.02154 0.25474 0.0
C633 C 0.66301 0.01864 0.21737 0.0
H634 H 0.67632 0.03157 0.18403 0.0
H635 H 0.69788 0.03061 0.23736 0.0
H636 H 0.63853 0.97599 0.21764 0.0
O637 O 0.69603 0.15604 0.13751 0.0
O638 O 0.62714 0.16512 0.1452 0.0
H639 H 0.49675 0.04595 0.24977 0.0
H640 H 0.51336 0.03173 0.30182 0.0
C641 C 0.52765 0.05895 0.27431 0.0
H642 H 0.53704 0.09799 0.28528 0.0
H643 H 0.50597 0.11337 0.18513 0.0
O644 O 0.7611 0.12574 0.1957 0.0
C645 C 0.66157 0.1638 0.12158 0.0
Co646 Co 0.84316 0.56167 0.19671 0.0
Co647 Co 0.82032 0.45078 0.21061 0.0
C648 C 0.74283 0.48477 0.23314 0.0
O649 O 0.77666 0.53106 0.226 0.0
O650 O 0.75365 0.44888 0.22863 0.0
C651 C 0.82504 0.63729 0.18054 0.0
O652 O 0.78458 0.59707 0.16391 0.0
C653 C 0.77344 0.34386 0.24187 0.0
C654 C 0.81956 0.31586 0.20904 0.0
C655 C 0.77487 0.29921 0.2331 0.0
N656 N 0.8134 0.38422 0.22238 0.0
N657 N 0.84186 0.36733 0.20387 0.0
C658 C 0.73407 0.34824 0.26731 0.0
H659 H 0.75288 0.3836 0.2874 0.0
H660 H 0.71191 0.31394 0.28807 0.0
H661 H 0.70859 0.35221 0.24406 0.0
C662 C 0.94327 0.58752 0.23362 0.0
N663 N 0.89421 0.55273 0.22383 0.0
N664 N 0.88425 0.50634 0.23484 0.0
C665 C 0.92676 0.51081 0.25474 0.0
C666 C 0.96615 0.56295 0.25477 0.0
C667 C 0.96905 0.64193 0.21741 0.0
H668 H 0.95612 0.64233 0.18407 0.0
H669 H 0.95707 0.66482 0.2374 0.0
H670 H 0.0117 0.66011 0.21768 0.0
O671 O 0.83167 0.53757 0.13752 0.0
O672 O 0.82261 0.45961 0.14521 0.0
H673 H 0.94175 0.44837 0.24978 0.0
H674 H 0.95595 0.47917 0.30183 0.0
C675 C 0.92874 0.46625 0.27433 0.0
H676 H 0.8897 0.4366 0.28529 0.0
H677 H 0.8744 0.39021 0.18516 0.0
O678 O 0.86193 0.6329 0.19572 0.0
C679 C 0.82392 0.49536 0.12159 0.0
Co680 Co 0.42598 0.279 0.19675 0.0
Co681 Co 0.53689 0.36703 0.21064 0.0
C682 C 0.50285 0.25556 0.23324 0.0
O683 O 0.45657 0.24312 0.22607 0.0
O684 O 0.53877 0.30226 0.22871 0.0
C685 C 0.35037 0.18528 0.18055 0.0
O686 O 0.3906 0.18504 0.16395 0.0
C687 C 0.64382 0.42709 0.24188 0.0
C688 C 0.67181 0.5012 0.20902 0.0
C689 C 0.68846 0.47317 0.2331 0.0
N690 N 0.60345 0.42668 0.22239 0.0
N691 N 0.62033 0.47202 0.20387 0.0
C692 C 0.63945 0.38337 0.26735 0.0
H693 H 0.60411 0.36685 0.28747 0.0
H694 H 0.67377 0.39551 0.28809 0.0
H695 H 0.63543 0.35388 0.24413 0.0
C696 C 0.40015 0.35329 0.23362 0.0
N697 N 0.43494 0.33901 0.22385 0.0
N698 N 0.48133 0.37543 0.23486 0.0
C699 C 0.47686 0.41348 0.25474 0.0
C700 C 0.42472 0.40074 0.25477 0.0
C701 C 0.34574 0.32466 0.21741 0.0
H702 H 0.34535 0.31133 0.18407 0.0
H703 H 0.32284 0.28979 0.23741 0.0
H704 H 0.32757 0.34914 0.21767 0.0
O705 O 0.45009 0.29159 0.13756 0.0
O706 O 0.52806 0.36047 0.14524 0.0
H707 H 0.5393 0.49091 0.24977 0.0
H708 H 0.5085 0.47432 0.30183 0.0
C709 C 0.52142 0.46002 0.27432 0.0
H710 H 0.55107 0.45063 0.28529 0.0
H711 H 0.59744 0.48166 0.18515 0.0
O712 O 0.35475 0.22654 0.19574 0.0
C713 C 0.4923 0.32604 0.12163 0.0
Co714 Co 0.47538 0.37777 0.99958 0.0
Co715 Co 0.49824 0.28973 0.98569 0.0
C716 C 0.57571 0.40121 0.96315 0.0
O717 O 0.54188 0.41366 0.97029 0.0
O718 O 0.5649 0.3545 0.96767 0.0
C719 C 0.49349 0.47151 0.01576 0.0
O720 O 0.53395 0.47176 0.03238 0.0
C721 C 0.54509 0.22968 0.95434 0.0
C722 C 0.49897 0.15554 0.98714 0.0
C723 C 0.54361 0.18354 0.96299 0.0
N724 N 0.50517 0.23009 0.97389 0.0
N725 N 0.47671 0.18474 0.99239 0.0
C726 C 0.58445 0.27343 0.92891 0.0
H727 H 0.56563 0.28998 0.90883 0.0
H728 H 0.60661 0.26131 0.90814 0.0
H729 H 0.60992 0.30288 0.95216 0.0
C730 C 0.3753 0.30352 0.96264 0.0
N731 N 0.42435 0.31779 0.97245 0.0
N732 N 0.43431 0.28136 0.96145 0.0
C733 C 0.39182 0.24333 0.94153 0.0
C734 C 0.35244 0.2561 0.94146 0.0
C735 C 0.34951 0.33216 0.97883 0.0
H736 H 0.36242 0.34548 1.01218 0.0
H737 H 0.36149 0.36702 0.95883 0.0
H738 H 0.30686 0.30768 0.97855 0.0
O739 O 0.48688 0.36515 0.05877 0.0
O740 O 0.49595 0.29625 0.05109 0.0
H741 H 0.37684 0.1659 0.94649 0.0
H742 H 0.36263 0.18251 0.89443 0.0
C743 C 0.38985 0.1968 0.92194 0.0
H744 H 0.42889 0.20619 0.91098 0.0
H745 H 0.44421 0.17509 1.01115 0.0
O746 O 0.45661 0.43023 1.00058 0.0
C747 C 0.49464 0.3307 0.0747 0.0
Co748 Co 0.60987 0.09513 0.99954 0.0
Co749 Co 0.6979 0.20605 0.98564 0.0
C750 C 0.58642 0.172 0.96305 0.0
O751 O 0.57398 0.12572 0.97022 0.0
O752 O 0.63312 0.20793 0.96757 0.0
C753 C 0.51615 0.01951 0.01574 0.0
O754 O 0.5159 0.05973 0.03234 0.0
C755 C 0.75798 0.31297 0.95432 0.0
C756 C 0.83209 0.34096 0.98715 0.0
C757 C 0.80411 0.35762 0.96299 0.0
N758 N 0.75754 0.27262 0.97387 0.0
N759 N 0.80288 0.2895 0.99238 0.0
C760 C 0.71424 0.30858 0.92886 0.0
H761 H 0.69773 0.27324 0.90875 0.0
H762 H 0.72637 0.34289 0.90811 0.0
H763 H 0.68476 0.30457 0.95209 0.0
C764 C 0.68414 0.06931 0.96263 0.0
N765 N 0.66987 0.1041 0.97243 0.0
N766 N 0.70629 0.15049 0.96142 0.0
C767 C 0.74433 0.14602 0.94151 0.0
C768 C 0.73157 0.09388 0.94145 0.0
C769 C 0.65551 0.01489 0.97883 0.0
H770 H 0.64218 0.01449 1.01217 0.0
H771 H 0.62065 0.992 0.95883 0.0
H772 H 0.67999 -0.00328 0.97856 0.0
O773 O 0.62247 0.11925 0.05873 0.0
O774 O 0.69134 0.19723 0.05104 0.0
H775 H 0.82175 0.20847 0.94648 0.0
H776 H 0.80516 0.17767 0.89442 0.0
C777 C 0.79086 0.19059 0.92192 0.0
H778 H 0.78147 0.22023 0.91096 0.0
H779 H 0.81251 0.26664 1.01115 0.0
O780 O 0.55742 0.0239 1.00055 0.0
C781 C 0.65691 0.16147 0.07465 0.0
Co782 Co 0.89255 0.51229 0.99954 0.0
Co783 Co 0.78164 0.48942 0.98566 0.0
C784 C 0.81567 0.41198 0.96306 0.0
O785 O 0.86195 0.44581 0.97023 0.0
O786 O 0.77975 0.42276 0.96759 0.0
C787 C 0.96815 0.49417 0.01574 0.0
O788 O 0.92792 0.45372 0.03236 0.0
C789 C 0.67472 0.44255 0.95441 0.0
C790 C 0.64673 0.48867 0.98727 0.0
C791 C 0.63007 0.44398 0.9632 0.0
N792 N 0.71509 0.48251 0.9739 0.0
N793 N 0.6982 0.51096 0.99243 0.0
C794 C 0.67909 0.4032 0.92895 0.0
H795 H 0.71444 0.42202 0.90884 0.0
H796 H 0.64478 0.38104 0.9082 0.0
H797 H 0.68308 0.37772 0.95218 0.0
C798 C 0.91837 0.61239 0.96261 0.0
N799 N 0.88359 0.56333 0.97242 0.0
N800 N 0.8372 0.55336 0.96142 0.0
C801 C 0.84166 0.59586 0.94151 0.0
C802 C 0.8938 0.63525 0.94144 0.0
C803 C 0.9728 0.63818 0.9788 0.0
H804 H 0.97321 0.62526 1.01214 0.0
H805 H -0.00431 0.62621 0.9588 0.0
H806 H 0.99097 0.68083 0.97852 0.0
O807 O 0.86846 0.5008 0.05873 0.0
O808 O 0.79048 0.49169 0.05106 0.0
H809 H 0.77921 0.61083 0.94649 0.0
H810 H 0.81 0.62504 0.89442 0.0
C811 C 0.79709 0.59783 0.92193 0.0
H812 H 0.76744 0.55879 0.91097 0.0
H813 H 0.72109 0.5435 1.01115 0.0
O814 O 0.96378 0.53106 1.00054 0.0
C815 C 0.82624 0.49302 0.07466 0.0
Co816 Co 0.27655 0.8456 0.83293 0.0
Co817 Co 0.36459 0.82273 0.81902 0.0
C818 C 0.2531 0.74527 0.79648 0.0
O819 O 0.24066 0.77911 0.80364 0.0
O820 O 0.29981 0.75607 0.80099 0.0
C821 C 0.18281 0.8275 0.84909 0.0
O822 O 0.18255 0.78703 0.86571 0.0
C823 C 0.42465 0.77588 0.78768 0.0
C824 C 0.49878 0.822 0.82049 0.0
C825 C 0.47079 0.77736 0.79633 0.0
N826 N 0.42423 0.8158 0.80723 0.0
N827 N 0.46958 0.84426 0.82573 0.0
C828 C 0.3809 0.73654 0.76223 0.0
H829 H 0.36437 0.75537 0.74214 0.0
H830 H 0.39302 0.71436 0.74147 0.0
H831 H 0.35144 0.71107 0.78547 0.0
C832 C 0.35081 0.94569 0.79599 0.0
N833 N 0.33654 0.89664 0.8058 0.0
N834 N 0.37296 0.88667 0.79479 0.0
C835 C 0.411 0.92917 0.77487 0.0
C836 C 0.39823 0.96855 0.77481 0.0
C837 C 0.32218 0.97148 0.81219 0.0
H838 H 0.30886 0.95856 0.84554 0.0
H839 H 0.28731 0.95951 0.7922 0.0
H840 H 0.34666 0.01413 0.81192 0.0
O841 O 0.28917 0.8341 0.89211 0.0
O842 O 0.35805 0.82501 0.88442 0.0
H843 H 0.48842 0.94415 0.77983 0.0
H844 H 0.47182 0.95836 0.72777 0.0
C845 C 0.45753 0.93114 0.75528 0.0
H846 H 0.44814 0.8921 0.74432 0.0
H847 H 0.47922 0.87675 0.84449 0.0
O848 O 0.22409 0.86438 0.83392 0.0
C849 C 0.32363 0.82634 0.90804 0.0
Co850 Co 0.14202 0.42844 0.8329 0.0
Co851 Co 0.16487 0.53934 0.81901 0.0
C852 C 0.24236 0.50535 0.79648 0.0
O853 O 0.20853 0.45906 0.80363 0.0
O854 O 0.23154 0.54124 0.80099 0.0
C855 C 0.16014 0.35283 0.84908 0.0
O856 O 0.20059 0.39304 0.86571 0.0
C857 C 0.21175 0.64626 0.78776 0.0
C858 C 0.16563 0.67426 0.82059 0.0
C859 C 0.21033 0.69091 0.79653 0.0
N860 N 0.17179 0.6059 0.80724 0.0
N861 N 0.14333 0.62279 0.82575 0.0
C862 C 0.25112 0.64188 0.76231 0.0
H863 H 0.23231 0.60652 0.74222 0.0
H864 H 0.27328 0.67618 0.74155 0.0
H865 H 0.2766 0.63791 0.78556 0.0
C866 C 0.04193 0.40261 0.79596 0.0
N867 N 0.09098 0.43739 0.80577 0.0
N868 N 0.10095 0.48379 0.79477 0.0
C869 C 0.05845 0.47932 0.77485 0.0
C870 C 0.01907 0.42718 0.77478 0.0
C871 C 0.01614 0.34819 0.81215 0.0
H872 H 0.02906 0.34777 0.8455 0.0
H873 H 0.02812 0.3253 0.79215 0.0
H874 H 0.97349 0.33002 0.81188 0.0
O875 O 0.15349 0.45254 0.8921 0.0
O876 O 0.16258 0.53051 0.88441 0.0
H877 H 0.04347 0.54177 0.77982 0.0
H878 H 0.02927 0.51097 0.72776 0.0
C879 C 0.05648 0.52389 0.75527 0.0
H880 H 0.09552 0.55354 0.74431 0.0
H881 H 0.11079 0.59991 0.84447 0.0
O882 O 0.12325 0.35721 0.83389 0.0
C883 C 0.16125 0.49475 0.90803 0.0
Co884 Co 0.55921 0.71112 0.83287 0.0
Co885 Co 0.4483 0.62309 0.81898 0.0
C886 C 0.48234 0.73456 0.79638 0.0
O887 O 0.52861 0.747 0.80356 0.0
O888 O 0.44641 0.68786 0.80091 0.0
C889 C 0.63482 0.80484 0.84906 0.0
O890 O 0.5946 0.80507 0.86567 0.0
C891 C 0.34137 0.56303 0.78774 0.0
C892 C 0.31338 0.48892 0.8206 0.0
C893 C 0.29672 0.51695 0.79653 0.0
N894 N 0.38174 0.56344 0.80723 0.0
N895 N 0.36486 0.5181 0.82575 0.0
C896 C 0.34574 0.60675 0.76227 0.0
H897 H 0.38108 0.62326 0.74215 0.0
H898 H 0.31142 0.5946 0.74153 0.0
H899 H 0.34975 0.63623 0.78549 0.0
C900 C 0.58503 0.63683 0.79595 0.0
N901 N 0.55025 0.65111 0.80576 0.0
N902 N 0.50386 0.61469 0.79475 0.0
C903 C 0.50832 0.57665 0.77485 0.0
C904 C 0.56046 0.5894 0.77479 0.0
C905 C 0.63945 0.66547 0.81215 0.0
H906 H 0.63986 0.6788 0.84549 0.0
H907 H 0.66234 0.70033 0.79215 0.0
H908 H 0.65762 0.64098 0.81188 0.0
O909 O 0.53511 0.69852 0.89206 0.0
O910 O 0.45713 0.62965 0.88438 0.0
H911 H 0.44587 0.49922 0.77982 0.0
H912 H 0.47666 0.51581 0.72776 0.0
C913 C 0.46375 0.53011 0.75527 0.0
H914 H 0.4341 0.5395 0.74431 0.0
H915 H 0.38775 0.50846 0.84447 0.0
O916 O 0.63045 0.76357 0.83387 0.0
C917 C 0.4929 0.66407 0.90799 0.0
Co918 Co 0.50981 0.61234 0.03004 0.0
Co919 Co 0.48695 0.70039 0.04393 0.0
C920 C 0.40947 0.58891 0.06646 0.0
O921 O 0.44331 0.57645 0.05932 0.0
O922 O 0.42029 0.63562 0.06194 0.0
C923 C 0.4917 0.51861 1.01387 0.0
O924 O 0.45124 0.51836 0.99724 0.0
C925 C 0.4401 0.76044 0.07527 0.0
C926 C 0.48622 0.83458 0.04247 0.0
C927 C 0.44158 0.80658 0.06662 0.0
N928 N 0.48002 0.76003 0.05572 0.0
N929 N 0.50848 0.80538 0.03722 0.0
C930 C 0.40075 0.71669 0.10071 0.0
H931 H 0.41957 0.70014 0.12079 0.0
H932 H 0.37858 0.72881 0.12148 0.0
H933 H 0.37527 0.68724 0.07746 0.0
C934 C 0.60989 0.6866 0.06699 0.0
N935 N 0.56084 0.67233 0.05717 0.0
N936 N 0.55087 0.70876 0.06817 0.0
C937 C 0.59337 0.74679 0.08809 0.0
C938 C 0.63275 0.73402 0.08816 0.0
C939 C 0.63568 0.65796 0.05079 0.0
H940 H 0.62276 0.64463 0.01745 0.0
H941 H 0.6237 0.6231 0.07079 0.0
H942 H 0.67833 0.68244 0.05107 0.0
O943 O 0.49832 0.62496 0.97085 0.0
O944 O 0.48924 0.69386 0.97852 0.0
H945 H 0.60834 0.82421 0.08313 0.0
H946 H 0.62255 0.80762 0.13518 0.0
C947 C 0.59534 0.79332 0.10768 0.0
H948 H 0.5563 0.78393 0.11864 0.0
H949 H 0.54097 0.81502 0.01846 0.0
O950 O 0.52858 0.55988 0.02905 0.0
C951 C 0.49056 0.65942 0.95492 0.0
Co952 Co 0.37533 0.89499 0.03008 0.0
Co953 Co 0.2873 0.78407 0.04398 0.0
C954 C 0.39877 0.81812 0.06657 0.0
O955 O 0.41121 0.8644 0.0594 0.0
O956 O 0.35207 0.78219 0.06204 0.0
C957 C 0.46905 0.97061 1.01388 0.0
O958 O 0.4693 0.9304 0.99728 0.0
C959 C 0.22722 0.67715 0.07529 0.0
C960 C 0.1531 0.64916 0.04246 0.0
C961 C 0.18108 0.6325 0.06662 0.0
N962 N 0.22765 0.7175 0.05574 0.0
N963 N 0.18231 0.70062 0.03723 0.0
C964 C 0.27095 0.68154 0.10076 0.0
H965 H 0.28746 0.71689 0.12086 0.0
H966 H 0.25882 0.64723 0.1215 0.0
H967 H 0.30043 0.68556 0.07753 0.0
C968 C 0.30105 0.92081 0.067 0.0
N969 N 0.31532 0.88603 0.05719 0.0
N970 N 0.2789 0.83963 0.0682 0.0
C971 C 0.24086 0.84409 0.08811 0.0
C972 C 0.25362 0.89624 0.08817 0.0
C973 C 0.32968 0.97523 0.0508 0.0
H974 H 0.34301 0.97564 0.01745 0.0
H975 H 0.36454 -0.00188 0.0708 0.0
H976 H 0.3052 0.9934 0.05107 0.0
O977 O 0.36273 0.87088 0.97089 0.0
O978 O 0.29385 0.7929 0.97857 0.0
H979 H 0.16344 0.78164 0.08314 0.0
H980 H 0.18003 0.81244 0.1352 0.0
C981 C 0.19433 0.79953 0.10769 0.0
H982 H 0.20372 0.76988 0.11865 0.0
H983 H 0.17269 0.72349 0.01846 0.0
O984 O 0.42778 0.96623 0.02907 0.0
C985 C 0.32829 0.82866 0.95497 0.0
Co986 Co 0.09263 0.47783 0.03009 0.0
Co987 Co 0.20354 0.5007 0.04396 0.0
C988 C 0.16952 0.57815 0.06656 0.0
O989 O 0.12324 0.54432 0.05939 0.0
O990 O 0.20544 0.56736 0.06203 0.0
C991 C 0.01703 0.49595 1.01388 0.0
O992 O 0.05726 0.53639 0.99726 0.0
C993 C 0.31046 0.54757 0.0752 0.0
C994 C 0.33846 0.50145 0.04234 0.0
C995 C 0.35511 0.54613 0.06642 0.0
N996 N 0.2701 0.50761 0.05571 0.0
N997 N 0.28698 0.47916 0.03718 0.0
C998 C 0.3061 0.58692 0.10067 0.0
H999 H 0.27075 0.5681 0.12078 0.0
H1000 H 0.34041 0.60908 0.12142 0.0
H1001 H 0.3021 0.6124 0.07744 0.0
C1002 C 0.06681 0.37773 0.06701 0.0
N1003 N 0.10159 0.42679 0.0572 0.0
N1004 N 0.14799 0.43676 0.0682 0.0
C1005 C 0.14353 0.39426 0.08811 0.0
C1006 C 0.09139 0.35488 0.08818 0.0
C1007 C 0.01239 0.35194 0.05083 0.0
H1008 H 0.01197 0.36486 0.01748 0.0
H1009 H 0.9895 0.36391 0.07083 0.0
H1010 H -0.00578 0.30929 0.0511 0.0
O1011 O 0.11672 0.48932 0.97089 0.0
O1012 O 0.1947 0.49842 0.97856 0.0
H1013 H 0.20599 0.37929 0.08313 0.0
H1014 H 0.1752 0.36508 0.13519 0.0
C1015 C 0.1881 0.39229 0.10768 0.0
H1016 H 0.21775 0.43133 0.11864 0.0
H1017 H 0.26409 0.44663 0.01846 0.0
O1018 O 0.0214 0.45906 0.02909 0.0
C1019 C 0.15893 0.49709 0.95496 0.0
Co1020 Co 0.3753 0.47785 0.53003 0.0
Co1021 Co 0.28727 0.50072 0.54393 0.0
C1022 C 0.39875 0.57818 0.56647 0.0
O1023 O 0.41119 0.54434 0.55931 0.0
O1024 O 0.35204 0.56738 0.56196 0.0
C1025 C 0.46905 0.49596 0.51386 0.0
O1026 O 0.46931 0.53642 0.49724 0.0
C1027 C 0.22721 0.54757 0.57528 0.0
C1028 C 0.15308 0.50145 0.54247 0.0
C1029 C 0.18107 0.54609 0.56662 0.0
N1030 N 0.22763 0.50765 0.55572 0.0
N1031 N 0.18228 0.4792 0.53722 0.0
C1032 C 0.27095 0.58692 0.60072 0.0
H1033 H 0.28749 0.56809 0.62081 0.0
H1034 H 0.25883 0.60909 0.62148 0.0
H1035 H 0.30041 0.61238 0.57748 0.0
C1036 C 0.30105 0.37776 0.56697 0.0
N1037 N 0.31531 0.42682 0.55716 0.0
N1038 N 0.27889 0.43678 0.56817 0.0
C1039 C 0.24086 0.39428 0.58809 0.0
C1040 C 0.25362 0.3549 0.58815 0.0
C1041 C 0.32968 0.35197 0.55076 0.0
H1042 H 0.343 0.3649 0.51742 0.0
H1043 H 0.36454 0.36395 0.57076 0.0
H1044 H 0.3052 0.30932 0.55104 0.0
O1045 O 0.36268 0.48935 0.47084 0.0
O1046 O 0.2938 0.49844 0.47853 0.0
H1047 H 0.16343 0.37931 0.58312 0.0
H1048 H 0.18003 0.3651 0.63518 0.0
C1049 C 0.19432 0.39231 0.60767 0.0
H1050 H 0.20372 0.43135 0.61863 0.0
H1051 H 0.17264 0.4467 0.51846 0.0
O1052 O 0.42776 0.45907 0.52904 0.0
C1053 C 0.32823 0.49711 0.45492 0.0
Co1054 Co 0.50984 0.89501 0.53004 0.0
Co1055 Co 0.48698 0.78411 0.54393 0.0
C1056 C 0.4095 0.8181 0.56646 0.0
O1057 O 0.44333 0.86439 0.55931 0.0
O1058 O 0.42032 0.78221 0.56196 0.0
C1059 C 0.49171 0.97062 0.51386 0.0
O1060 O 0.45127 0.93041 0.49723 0.0
C1061 C 0.4401 0.67719 0.57519 0.0
C1062 C 0.48623 0.64919 0.54236 0.0
C1063 C 0.44153 0.63254 0.56642 0.0
N1064 N 0.48007 0.71755 0.5557 0.0
N1065 N 0.50852 0.70066 0.53719 0.0
C1066 C 0.40074 0.68157 0.60064 0.0
H1067 H 0.41955 0.71693 0.62073 0.0
H1068 H 0.37858 0.64727 0.6214 0.0
H1069 H 0.37526 0.68554 0.57739 0.0
C1070 C 0.60993 0.92084 0.56699 0.0
N1071 N 0.56087 0.88606 0.55717 0.0
N1072 N 0.55091 0.83967 0.56818 0.0
C1073 C 0.5934 0.84413 0.58809 0.0
C1074 C 0.63278 0.89627 0.58816 0.0
C1075 C 0.63572 0.97527 0.5508 0.0
H1076 H 0.6228 0.97568 0.51745 0.0
H1077 H 0.62374 -0.00185 0.5708 0.0
H1078 H 0.67837 0.99344 0.55107 0.0
O1079 O 0.49836 0.87092 0.47085 0.0
O1080 O 0.48928 0.79295 0.47853 0.0
H1081 H 0.60838 0.78168 0.58313 0.0
H1082 H 0.62258 0.81247 0.63519 0.0
C1083 C 0.59537 0.79956 0.60768 0.0
H1084 H 0.55633 0.76991 0.61863 0.0
H1085 H 0.54106 0.72354 0.51848 0.0
O1086 O 0.5286 0.96624 0.52906 0.0
C1087 C 0.49061 0.8287 0.45492 0.0
Co1088 Co 0.09264 0.61234 0.53008 0.0
Co1089 Co 0.20355 0.70036 0.54397 0.0
C1090 C 0.16952 0.58889 0.56657 0.0
O1091 O 0.12324 0.57645 0.55939 0.0
O1092 O 0.20544 0.63559 0.56204 0.0
C1093 C 0.01704 0.51861 0.51388 0.0
O1094 O 0.05726 0.51838 0.49727 0.0
C1095 C 0.31048 0.76042 0.57521 0.0
C1096 C 0.33847 0.83453 0.54234 0.0
C1097 C 0.35513 0.8065 0.56642 0.0
N1098 N 0.27012 0.76001 0.55572 0.0
N1099 N 0.287 0.80535 0.53719 0.0
C1100 C 0.30612 0.7167 0.60068 0.0
H1101 H 0.27078 0.70019 0.6208 0.0
H1102 H 0.34044 0.72885 0.62142 0.0
H1103 H 0.3021 0.68722 0.57746 0.0
C1104 C 0.06682 0.68662 0.567 0.0
N1105 N 0.1016 0.67234 0.5572 0.0
N1106 N 0.148 0.70876 0.5682 0.0
C1107 C 0.14354 0.7468 0.58811 0.0
C1108 C 0.0914 0.73405 0.58817 0.0
C1109 C 0.0124 0.65798 0.5508 0.0
H1110 H 0.01199 0.64465 0.51746 0.0
H1111 H 0.98951 0.62312 0.5708 0.0
H1112 H -0.00577 0.68247 0.55107 0.0
O1113 O 0.11674 0.62493 0.47089 0.0
O1114 O 0.19472 0.6938 0.47857 0.0
H1115 H 0.20599 0.82423 0.58313 0.0
H1116 H 0.17519 0.80764 0.63519 0.0
C1117 C 0.18811 0.79334 0.60768 0.0
H1118 H 0.21775 0.78395 0.61864 0.0
H1119 H 0.26411 0.81499 0.51847 0.0
O1120 O 0.02141 0.55987 0.52908 0.0
C1121 C 0.15896 0.65938 0.45496 0.0
Co1122 Co 0.14205 0.71111 0.33291 0.0
Co1123 Co 0.16491 0.62306 0.31902 0.0
C1124 C 0.24238 0.73455 0.29649 0.0
O1125 O 0.20855 0.747 0.30363 0.0
O1126 O 0.23157 0.68784 0.301 0.0
C1127 C 0.16015 0.80484 0.34908 0.0
O1128 O 0.20061 0.8051 0.36571 0.0
C1129 C 0.21176 0.56301 0.28768 0.0
C1130 C 0.16564 0.48887 0.32048 0.0
C1131 C 0.21028 0.51687 0.29633 0.0
N1132 N 0.17184 0.56343 0.30723 0.0
N1133 N 0.14338 0.51807 0.32573 0.0
C1134 C 0.25111 0.60677 0.26224 0.0
H1135 H 0.23229 0.62332 0.24216 0.0
H1136 H 0.27328 0.59465 0.24147 0.0
H1137 H 0.27659 0.63621 0.28549 0.0
C1138 C 0.04196 0.63686 0.29597 0.0
N1139 N 0.09102 0.65112 0.30578 0.0
N1140 N 0.10098 0.6147 0.29478 0.0
C1141 C 0.05849 0.57667 0.27486 0.0
C1142 C 0.01911 0.58943 0.27479 0.0
C1143 C 0.01618 0.66549 0.31217 0.0
H1144 H 0.02909 0.67882 0.34551 0.0
H1145 H 0.02815 0.70036 0.29217 0.0
H1146 H 0.97353 0.64101 0.31189 0.0
O1147 O 0.15354 0.69849 0.3921 0.0
O1148 O 0.16261 0.6296 0.38443 0.0
H1149 H 0.04351 0.49924 0.27982 0.0
H1150 H 0.0293 0.51584 0.22777 0.0
C1151 C 0.05651 0.53013 0.25527 0.0
H1152 H 0.09555 0.53953 0.24431 0.0
H1153 H 0.11088 0.50843 0.34449 0.0
O1154 O 0.12327 0.76357 0.3339 0.0
C1155 C 0.1613 0.66404 0.40803 0.0
Co1156 Co 0.27653 0.42846 0.33287 0.0
Co1157 Co 0.36456 0.53939 0.31898 0.0
C1158 C 0.25309 0.50533 0.29638 0.0
O1159 O 0.24065 0.45905 0.30355 0.0
O1160 O 0.29978 0.54126 0.30091 0.0
C1161 C 0.18281 0.35284 0.34907 0.0
O1162 O 0.18256 0.39306 0.36567 0.0
C1163 C 0.42464 0.6463 0.28766 0.0
C1164 C 0.49876 0.67429 0.32049 0.0
C1165 C 0.47078 0.69095 0.29633 0.0
N1166 N 0.42421 0.60595 0.30721 0.0
N1167 N 0.46955 0.62284 0.32572 0.0
C1168 C 0.38091 0.64191 0.26219 0.0
H1169 H 0.36439 0.60657 0.24209 0.0
H1170 H 0.39304 0.67622 0.24145 0.0
H1171 H 0.35143 0.6379 0.28542 0.0
C1172 C 0.35081 0.40265 0.29596 0.0
N1173 N 0.33654 0.43743 0.30576 0.0
N1174 N 0.37296 0.48382 0.29476 0.0
C1175 C 0.411 0.47936 0.27484 0.0
C1176 C 0.39824 0.42721 0.27479 0.0
C1177 C 0.32218 0.34823 0.31216 0.0
H1178 H 0.30885 0.34782 0.34551 0.0
H1179 H 0.28732 0.32533 0.29217 0.0
H1180 H 0.34666 0.33006 0.31189 0.0
O1181 O 0.28913 0.45258 0.39206 0.0
O1182 O 0.358 0.53056 0.38438 0.0
H1183 H 0.48842 0.54181 0.27981 0.0
H1184 H 0.47183 0.51101 0.22776 0.0
C1185 C 0.45753 0.52392 0.25526 0.0
H1186 H 0.44814 0.55357 0.2443 0.0
H1187 H 0.47917 0.59997 0.34449 0.0
O1188 O 0.22408 0.35723 0.33388 0.0
C1189 C 0.32357 0.49479 0.40799 0.0
Co1190 Co 0.55922 0.84563 0.33286 0.0
Co1191 Co 0.44832 0.82275 0.31898 0.0
C1192 C 0.48233 0.74531 0.29639 0.0
O1193 O 0.52862 0.77914 0.30356 0.0
O1194 O 0.44642 0.75609 0.30092 0.0
C1195 C 0.63482 0.82751 0.34906 0.0
O1196 O 0.5946 0.78706 0.36568 0.0
C1197 C 0.34139 0.77589 0.28775 0.0
C1198 C 0.3134 0.82201 0.32061 0.0
C1199 C 0.29675 0.77732 0.29653 0.0
N1200 N 0.38176 0.81584 0.30724 0.0
N1201 N 0.36488 0.8443 0.32576 0.0
C1202 C 0.34576 0.73653 0.26228 0.0
H1203 H 0.38111 0.75535 0.24217 0.0
H1204 H 0.31145 0.71437 0.24153 0.0
H1205 H 0.34975 0.71105 0.28551 0.0
C1206 C 0.58504 0.94572 0.29593 0.0
N1207 N 0.55026 0.89667 0.30574 0.0
N1208 N 0.50387 0.8867 0.29475 0.0
C1209 C 0.50833 0.9292 0.27484 0.0
C1210 C 0.56047 0.96858 0.27477 0.0
C1211 C 0.63947 0.97151 0.31212 0.0
H1212 H 0.63988 0.95859 0.34547 0.0
H1213 H 0.66236 0.95954 0.29212 0.0
H1214 H 0.65764 0.01416 0.31185 0.0
O1215 O 0.53514 0.83414 0.39205 0.0
O1216 O 0.45716 0.82503 0.38438 0.0
H1217 H 0.44587 0.94417 0.27982 0.0
H1218 H 0.47667 0.95838 0.22775 0.0
C1219 C 0.46376 0.93117 0.25526 0.0
H1220 H 0.43411 0.89213 0.2443 0.0
H1221 H 0.38777 0.87683 0.34448 0.0
O1222 O 0.63045 0.8644 0.33386 0.0
C1223 C 0.49292 0.82637 0.40799 0.0
loop_
_geom_bond_atom_site_label_1
_geom_bond_atom_site_label_2
_geom_bond_distance
_geom_bond_site_symmetry_2
_ccdc_geom_bond_type
Co0 O3 1.970 . S
Co0 N17 1.989 1_655 S
Co0 O25 1.967 . S
Co0 O32 1.920 . S
Co1 O4 1.966 1_455 S
Co1 N10 2.022 . S
Co1 N18 1.993 . S
Co1 O26 1.941 . S
C2 O3 1.258 . S
C2 O4 1.263 . S
O3 Co0 1.970 . S
O3 C2 1.258 . S
O4 Co1 1.966 1_655 S
O4 C2 1.263 . S
C5 O6 1.235 . S
C5 O32 1.289 . S
O6 C5 1.235 . S
C7 C9 1.400 . S
C7 N10 1.351 . S
C7 C12 1.501 . S
C8 C9 1.387 . S
C8 N11 1.341 . S
C9 C7 1.400 . S
C9 C8 1.387 . S
N10 Co1 2.022 . S
N10 C7 1.351 . S
N10 N11 1.365 . S
N11 C8 1.341 . S
N11 N10 1.365 . S
N11 H31 0.862 . S
C12 C7 1.501 . S
C12 H13 0.961 . S
C12 H14 0.961 . S
C12 H15 0.960 . S
H13 C12 0.961 . S
H14 C12 0.961 . S
H15 C12 0.960 . S
C16 N17 1.342 . S
C16 C20 1.401 . S
C16 C21 1.499 1_455 S
N17 Co0 1.989 1_455 S
N17 C16 1.342 . S
N17 N18 1.388 . S
N18 Co1 1.993 . S
N18 N17 1.388 . S
N18 C19 1.346 . S
C19 N18 1.346 . S
C19 C20 1.396 . S
C19 C29 1.510 . S
C20 C16 1.401 . S
C20 C19 1.396 . S
C21 C16 1.499 1_655 S
C21 H22 0.959 . S
C21 H23 0.960 . S
C21 H24 0.962 . S
H22 C21 0.959 . S
H23 C21 0.960 . S
H24 C21 0.962 . S
O25 Co0 1.967 . S
O25 C33 1.258 1_655 S
O26 Co1 1.941 . S
O26 C33 1.266 . S
H27 C29 0.959 . S
H28 C29 0.961 . S
C29 C19 1.510 . S
C29 H27 0.959 . S
C29 H28 0.961 . S
C29 H30 0.960 . S
H30 C29 0.960 . S
H31 N11 0.862 . S
O32 Co0 1.920 . S
O32 C5 1.289 . S
C33 O25 1.258 1_455 S
C33 O26 1.266 . S
Co34 O37 1.970 . S
Co34 N51 1.989 . S
Co34 O59 1.967 . S
Co34 O66 1.920 . S
Co35 O38 1.966 . S
Co35 N44 2.022 . S
Co35 N52 1.993 . S
Co35 O60 1.941 . S
C36 O37 1.258 . S
C36 O38 1.263 . S
O37 Co34 1.970 . S
O37 C36 1.258 . S
O38 Co35 1.966 . S
O38 C36 1.263 . S
C39 O40 1.235 . S
C39 O66 1.289 . S
O40 C39 1.235 . S
C41 C43 1.400 1_565 S
C41 N44 1.351 . S
C41 C46 1.501 . S
C42 C43 1.387 . S
C42 N45 1.341 1_545 S
C43 C41 1.400 1_545 S
C43 C42 1.387 . S
N44 Co35 2.022 . S
N44 C41 1.351 . S
N44 N45 1.365 . S
N45 C42 1.341 1_565 S
N45 N44 1.365 . S
N45 H65 0.862 . S
C46 C41 1.501 . S
C46 H47 0.961 . S
C46 H48 0.961 . S
C46 H49 0.960 1_565 S
H47 C46 0.961 . S
H48 C46 0.961 . S
H49 C46 0.960 1_545 S
C50 N51 1.342 . S
C50 C54 1.401 . S
C50 C55 1.499 . S
N51 Co34 1.989 . S
N51 C50 1.342 . S
N51 N52 1.388 . S
N52 Co35 1.993 . S
N52 N51 1.388 . S
N52 C53 1.346 . S
C53 N52 1.346 . S
C53 C54 1.396 . S
C53 C63 1.510 . S
C54 C50 1.401 . S
C54 C53 1.396 . S
C55 C50 1.499 . S
C55 H56 0.959 . S
C55 H57 0.960 . S
C55 H58 0.961 . S
H56 C55 0.959 . S
H57 C55 0.960 . S
H58 C55 0.961 . S
O59 Co34 1.967 . S
O59 C67 1.258 . S
O60 Co35 1.941 . S
O60 C67 1.266 . S
H61 C63 0.959 . S
H62 C63 0.961 . S
C63 C53 1.510 . S
C63 H61 0.959 . S
C63 H62 0.961 . S
C63 H64 0.960 . S
H64 C63 0.960 . S
H65 N45 0.862 . S
O66 Co34 1.920 . S
O66 C39 1.289 . S
C67 O59 1.258 . S
C67 O60 1.266 . S
Co68 O71 1.970 . S
Co68 N85 1.989 1_545 S
Co68 O93 1.967 . S
Co68 O100 1.920 . S
Co69 O72 1.966 1_565 S
Co69 N78 2.022 . S
Co69 N86 1.993 . S
Co69 O94 1.941 . S
C70 O71 1.258 . S
C70 O72 1.263 . S
O71 Co68 1.970 . S
O71 C70 1.258 . S
O72 Co69 1.966 1_545 S
O72 C70 1.263 . S
C73 O74 1.235 . S
C73 O100 1.289 . S
O74 C73 1.235 . S
C75 C77 1.400 1_455 S
C75 N78 1.351 . S
C75 C80 1.501 . S
C76 C77 1.387 . S
C76 N79 1.341 1_655 S
C77 C75 1.400 1_655 S
C77 C76 1.387 . S
N78 Co69 2.022 . S
N78 C75 1.351 . S
N78 N79 1.365 . S
N79 C76 1.341 1_455 S
N79 N78 1.365 . S
N79 H99 0.862 . S
C80 C75 1.501 . S
C80 H81 0.961 . S
C80 H82 0.961 . S
C80 H83 0.960 1_455 S
H81 C80 0.961 . S
H82 C80 0.961 . S
H83 C80 0.960 1_655 S
C84 N85 1.342 . S
C84 C88 1.401 . S
C84 C89 1.499 1_565 S
N85 Co68 1.989 1_565 S
N85 C84 1.342 . S
N85 N86 1.388 . S
N86 Co69 1.993 . S
N86 N85 1.388 . S
N86 C87 1.346 . S
C87 N86 1.346 . S
C87 C88 1.396 . S
C87 C97 1.510 . S
C88 C84 1.401 . S
C88 C87 1.396 . S
C89 C84 1.499 1_545 S
C89 H90 0.959 . S
C89 H91 0.960 . S
C89 H92 0.982 . S
H90 C89 0.959 . S
H91 C89 0.960 . S
H92 C89 0.982 . S
O93 Co68 1.967 . S
O93 C101 1.258 1_545 S
O94 Co69 1.941 . S
O94 C101 1.266 . S
H95 C97 0.959 . S
H96 C97 0.961 . S
C97 C87 1.510 . S
C97 H95 0.959 . S
C97 H96 0.961 . S
C97 H98 0.960 . S
H98 C97 0.960 . S
H99 N79 0.862 . S
O100 Co68 1.920 . S
O100 C73 1.289 . S
C101 O93 1.258 1_565 S
C101 O94 1.266 . S
Co102 O105 1.970 . S
Co102 N119 1.989 1_565 S
Co102 O127 1.967 . S
Co102 O134 1.920 . S
Co103 O106 1.966 1_545 S
Co103 N112 2.022 . S
Co103 N120 1.993 . S
Co103 O128 1.941 . S
C104 O105 1.258 . S
C104 O106 1.263 . S
O105 Co102 1.970 . S
O105 C104 1.258 . S
O106 Co103 1.966 1_565 S
O106 C104 1.263 . S
C107 O108 1.235 . S
C107 O134 1.289 . S
O108 C107 1.235 . S
C109 C111 1.400 . S
C109 N112 1.351 . S
C109 C114 1.501 . S
C110 C111 1.387 . S
C110 N113 1.341 . S
C111 C109 1.400 . S
C111 C110 1.387 . S
N112 Co103 2.022 . S
N112 C109 1.351 . S
N112 N113 1.365 . S
N113 C110 1.341 . S
N113 N112 1.365 . S
N113 H133 0.862 . S
C114 C109 1.501 . S
C114 H115 0.961 . S
C114 H116 0.961 . S
C114 H117 0.960 . S
H115 C114 0.961 . S
H116 C114 0.961 . S
H117 C114 0.960 . S
C118 N119 1.342 . S
C118 C122 1.401 . S
C118 C123 1.499 1_545 S
N119 Co102 1.989 1_545 S
N119 C118 1.342 . S
N119 N120 1.388 . S
N120 Co103 1.993 . S
N120 N119 1.388 . S
N120 C121 1.346 . S
C121 N120 1.346 . S
C121 C122 1.396 . S
C121 C131 1.510 . S
C122 C118 1.401 . S
C122 C121 1.396 . S
C123 C118 1.499 1_565 S
C123 H124 0.959 . S
C123 H125 0.960 . S
C123 H126 0.962 . S
H124 C123 0.959 . S
H125 C123 0.960 . S
H126 C123 0.962 . S
O127 Co102 1.967 . S
O127 C135 1.258 1_565 S
O128 Co103 1.941 . S
O128 C135 1.266 . S
H129 C131 0.959 . S
H130 C131 0.961 . S
C131 C121 1.510 . S
C131 H129 0.959 . S
C131 H130 0.961 . S
C131 H132 0.960 . S
H132 C131 0.960 . S
H133 N113 0.862 . S
O134 Co102 1.920 . S
O134 C107 1.289 . S
C135 O127 1.258 1_545 S
C135 O128 1.266 . S
Co136 O139 1.970 . S
Co136 N153 1.989 1_455 S
Co136 O161 1.967 . S
Co136 O168 1.920 . S
Co137 O140 1.966 1_655 S
Co137 N146 2.022 . S
Co137 N154 1.993 . S
Co137 O162 1.941 . S
C138 O139 1.258 . S
C138 O140 1.263 . S
O139 Co136 1.970 . S
O139 C138 1.258 . S
O140 Co137 1.966 1_455 S
O140 C138 1.263 . S
C141 O142 1.235 . S
C141 O168 1.289 . S
O142 C141 1.235 . S
C143 C145 1.400 1_545 S
C143 N146 1.351 . S
C143 C148 1.501 . S
C144 C145 1.387 . S
C144 N147 1.341 1_565 S
C145 C143 1.400 1_565 S
C145 C144 1.387 . S
N146 Co137 2.022 . S
N146 C143 1.351 . S
N146 N147 1.365 . S
N147 C144 1.341 1_545 S
N147 N146 1.365 . S
N147 H167 0.862 . S
C148 C143 1.501 . S
C148 H149 0.961 . S
C148 H150 0.961 . S
C148 H151 0.960 1_545 S
H149 C148 0.961 . S
H150 C148 0.961 . S
H151 C148 0.960 1_565 S
C152 N153 1.342 . S
C152 C156 1.401 . S
C152 C157 1.499 1_655 S
N153 Co136 1.989 1_655 S
N153 C152 1.342 . S
N153 N154 1.388 . S
N154 Co137 1.993 . S
N154 N153 1.388 . S
N154 C155 1.346 . S
C155 N154 1.346 . S
C155 C156 1.396 . S
C155 C165 1.510 . S
C156 C152 1.401 . S
C156 C155 1.396 . S
C157 C152 1.499 1_455 S
C157 H158 0.959 . S
C157 H159 0.960 . S
C157 H160 0.982 . S
H158 C157 0.959 . S
H159 C157 0.960 . S
H160 C157 0.982 . S
O161 Co136 1.967 . S
O161 C169 1.258 1_455 S
O162 Co137 1.941 . S
O162 C169 1.266 . S
H163 C165 0.959 . S
H164 C165 0.961 . S
C165 C155 1.510 . S
C165 H163 0.959 . S
C165 H164 0.961 . S
C165 H166 0.960 . S
H166 C165 0.960 . S
H167 N147 0.862 . S
O168 Co136 1.920 . S
O168 C141 1.289 . S
C169 O161 1.258 1_655 S
C169 O162 1.266 . S
Co170 O173 1.970 . S
Co170 N187 1.989 . S
Co170 O195 1.967 . S
Co170 O202 1.920 . S
Co171 O174 1.966 . S
Co171 N180 2.022 . S
Co171 N188 1.993 . S
Co171 O196 1.941 . S
C172 O173 1.258 . S
C172 O174 1.263 . S
O173 Co170 1.970 . S
O173 C172 1.258 . S
O174 Co171 1.966 . S
O174 C172 1.263 . S
C175 O176 1.235 . S
C175 O202 1.289 . S
O176 C175 1.235 . S
C177 C179 1.400 1_655 S
C177 N180 1.351 . S
C177 C182 1.501 . S
C178 C179 1.387 . S
C178 N181 1.341 1_455 S
C179 C177 1.400 1_455 S
C179 C178 1.387 . S
N180 Co171 2.022 . S
N180 C177 1.351 . S
N180 N181 1.365 . S
N181 C178 1.341 1_655 S
N181 N180 1.365 . S
N181 H201 0.862 . S
C182 C177 1.501 . S
C182 H183 0.961 . S
C182 H184 0.961 . S
C182 H185 0.960 1_655 S
H183 C182 0.961 . S
H184 C182 0.961 . S
H185 C182 0.960 1_455 S
C186 N187 1.342 . S
C186 C190 1.401 . S
C186 C191 1.499 . S
N187 Co170 1.989 . S
N187 C186 1.342 . S
N187 N188 1.388 . S
N188 Co171 1.993 . S
N188 N187 1.388 . S
N188 C189 1.346 . S
C189 N188 1.346 . S
C189 C190 1.396 . S
C189 C199 1.510 . S
C190 C186 1.401 . S
C190 C189 1.396 . S
C191 C186 1.499 . S
C191 H192 0.959 . S
C191 H193 0.960 . S
C191 H194 0.961 . S
H192 C191 0.959 . S
H193 C191 0.960 . S
H194 C191 0.961 . S
O195 Co170 1.967 . S
O195 C203 1.258 . S
O196 Co171 1.941 . S
O196 C203 1.266 . S
H197 C199 0.959 . S
H198 C199 0.961 . S
C199 C189 1.510 . S
C199 H197 0.959 . S
C199 H198 0.961 . S
C199 H200 0.960 . S
H200 C199 0.960 . S
H201 N181 0.862 . S
O202 Co170 1.920 . S
O202 C175 1.289 . S
C203 O195 1.258 . S
C203 O196 1.266 . S
Co204 O207 1.970 . S
Co204 N221 1.989 1_455 S
Co204 O229 1.967 . S
Co204 O236 1.920 . S
Co205 O208 1.966 1_655 S
Co205 N214 2.022 . S
Co205 N222 1.993 . S
Co205 O230 1.941 . S
C206 O207 1.258 . S
C206 O208 1.263 . S
O207 Co204 1.970 . S
O207 C206 1.258 . S
O208 Co205 1.966 1_455 S
O208 C206 1.263 . S
C209 O210 1.235 . S
C209 O236 1.289 . S
O210 C209 1.235 . S
C211 C213 1.400 . S
C211 N214 1.351 . S
C211 C216 1.501 . S
C212 C213 1.387 . S
C212 N215 1.341 . S
C213 C211 1.400 . S
C213 C212 1.387 . S
N214 Co205 2.022 . S
N214 C211 1.351 . S
N214 N215 1.365 . S
N215 C212 1.341 . S
N215 N214 1.365 . S
N215 H235 0.862 . S
C216 C211 1.501 . S
C216 H217 0.961 . S
C216 H218 0.961 . S
C216 H219 0.960 . S
H217 C216 0.961 . S
H218 C216 0.961 . S
H219 C216 0.960 . S
C220 N221 1.342 . S
C220 C224 1.401 . S
C220 C225 1.499 1_655 S
N221 Co204 1.989 1_655 S
N221 C220 1.342 . S
N221 N222 1.388 . S
N222 Co205 1.993 . S
N222 N221 1.388 . S
N222 C223 1.346 . S
C223 N222 1.346 . S
C223 C224 1.396 . S
C223 C233 1.510 . S
C224 C220 1.401 . S
C224 C223 1.396 . S
C225 C220 1.499 1_455 S
C225 H226 0.959 . S
C225 H227 0.960 . S
C225 H228 0.962 . S
H226 C225 0.959 . S
H227 C225 0.960 . S
H228 C225 0.962 . S
O229 Co204 1.967 . S
O229 C237 1.258 1_455 S
O230 Co205 1.941 . S
O230 C237 1.266 . S
H231 C233 0.959 . S
H232 C233 0.961 . S
C233 C223 1.510 . S
C233 H231 0.959 . S
C233 H232 0.961 . S
C233 H234 0.960 . S
H234 C233 0.960 . S
H235 N215 0.862 . S
O236 Co204 1.920 . S
O236 C209 1.289 . S
C237 O229 1.258 1_655 S
C237 O230 1.266 . S
Co238 O241 1.970 . S
Co238 N255 1.989 . S
Co238 O263 1.967 . S
Co238 O270 1.920 . S
Co239 O242 1.966 . S
Co239 N248 2.022 . S
Co239 N256 1.993 . S
Co239 O264 1.941 . S
C240 O241 1.258 . S
C240 O242 1.263 . S
O241 Co238 1.970 . S
O241 C240 1.258 . S
O242 Co239 1.966 . S
O242 C240 1.263 . S
C243 O244 1.235 . S
C243 O270 1.289 . S
O244 C243 1.235 . S
C245 C247 1.400 1_545 S
C245 N248 1.351 . S
C245 C250 1.501 . S
C246 C247 1.387 . S
C246 N249 1.341 1_565 S
C247 C245 1.400 1_565 S
C247 C246 1.387 . S
N248 Co239 2.022 . S
N248 C245 1.351 . S
N248 N249 1.365 . S
N249 C246 1.341 1_545 S
N249 N248 1.365 . S
N249 H269 0.862 . S
C250 C245 1.501 . S
C250 H251 0.961 . S
C250 H252 0.961 . S
C250 H253 0.960 1_545 S
H251 C250 0.961 . S
H252 C250 0.961 . S
H253 C250 0.960 1_565 S
C254 N255 1.342 . S
C254 C258 1.401 . S
C254 C259 1.499 . S
N255 Co238 1.989 . S
N255 C254 1.342 . S
N255 N256 1.388 . S
N256 Co239 1.993 . S
N256 N255 1.388 . S
N256 C257 1.346 . S
C257 N256 1.346 . S
C257 C258 1.396 . S
C257 C267 1.510 . S
C258 C254 1.401 . S
C258 C257 1.396 . S
C259 C254 1.499 . S
C259 H260 0.959 . S
C259 H261 0.960 . S
C259 H262 0.961 . S
H260 C259 0.959 . S
H261 C259 0.960 . S
H262 C259 0.961 . S
O263 Co238 1.967 . S
O263 C271 1.258 . S
O264 Co239 1.941 . S
O264 C271 1.266 . S
H265 C267 0.959 . S
H266 C267 0.961 . S
C267 C257 1.510 . S
C267 H265 0.959 . S
C267 H266 0.961 . S
C267 H268 0.960 . S
H268 C267 0.960 . S
H269 N249 0.862 . S
O270 Co238 1.920 . S
O270 C243 1.289 . S
C271 O263 1.258 . S
C271 O264 1.266 . S
Co272 O275 1.970 . S
Co272 N289 1.989 1_565 S
Co272 O297 1.967 . S
Co272 O304 1.920 . S
Co273 O276 1.966 1_545 S
Co273 N282 2.022 . S
Co273 N290 1.993 . S
Co273 O298 1.941 . S
C274 O275 1.258 . S
C274 O276 1.263 . S
O275 Co272 1.970 . S
O275 C274 1.258 . S
O276 Co273 1.966 1_565 S
O276 C274 1.263 . S
C277 O278 1.235 . S
C277 O304 1.289 . S
O278 C277 1.235 . S
C279 C281 1.400 1_655 S
C279 N282 1.351 . S
C279 C284 1.501 . S
C280 C281 1.387 . S
C280 N283 1.341 1_455 S
C281 C279 1.400 1_455 S
C281 C280 1.387 . S
N282 Co273 2.022 . S
N282 C279 1.351 . S
N282 N283 1.365 . S
N283 C280 1.341 1_655 S
N283 N282 1.365 . S
N283 H303 0.862 . S
C284 C279 1.501 . S
C284 H285 0.961 . S
C284 H286 0.961 . S
C284 H287 0.960 1_655 S
H285 C284 0.961 . S
H286 C284 0.961 . S
H287 C284 0.960 1_455 S
C288 N289 1.342 . S
C288 C292 1.401 . S
C288 C293 1.499 1_545 S
N289 Co272 1.989 1_545 S
N289 C288 1.342 . S
N289 N290 1.388 . S
N290 Co273 1.993 . S
N290 N289 1.388 . S
N290 C291 1.346 . S
C291 N290 1.346 . S
C291 C292 1.396 . S
C291 C301 1.510 . S
C292 C288 1.401 . S
C292 C291 1.396 . S
C293 C288 1.499 1_565 S
C293 H294 0.959 . S
C293 H295 0.960 . S
C293 H296 0.982 . S
H294 C293 0.959 . S
H295 C293 0.960 . S
H296 C293 0.982 . S
O297 Co272 1.967 . S
O297 C305 1.258 1_565 S
O298 Co273 1.941 . S
O298 C305 1.266 . S
H299 C301 0.959 . S
H300 C301 0.961 . S
C301 C291 1.510 . S
C301 H299 0.959 . S
C301 H300 0.961 . S
C301 H302 0.960 . S
H302 C301 0.960 . S
H303 N283 0.862 . S
O304 Co272 1.920 . S
O304 C277 1.289 . S
C305 O297 1.258 1_545 S
C305 O298 1.266 . S
Co306 O309 1.970 . S
Co306 N323 1.989 1_545 S
Co306 O331 1.967 . S
Co306 O338 1.920 . S
Co307 O310 1.966 1_565 S
Co307 N316 2.022 . S
Co307 N324 1.993 . S
Co307 O332 1.941 . S
C308 O309 1.258 . S
C308 O310 1.263 . S
O309 Co306 1.970 . S
O309 C308 1.258 . S
O310 Co307 1.966 1_545 S
O310 C308 1.263 . S
C311 O312 1.235 . S
C311 O338 1.289 . S
O312 C311 1.235 . S
C313 C315 1.400 . S
C313 N316 1.351 . S
C313 C318 1.501 . S
C314 C315 1.387 . S
C314 N317 1.341 . S
C315 C313 1.400 . S
C315 C314 1.387 . S
N316 Co307 2.022 . S
N316 C313 1.351 . S
N316 N317 1.365 . S
N317 C314 1.341 . S
N317 N316 1.365 . S
N317 H337 0.862 . S
C318 C313 1.501 . S
C318 H319 0.961 . S
C318 H320 0.961 . S
C318 H321 0.960 . S
H319 C318 0.961 . S
H320 C318 0.961 . S
H321 C318 0.960 . S
C322 N323 1.342 . S
C322 C326 1.401 . S
C322 C327 1.499 1_565 S
N323 Co306 1.989 1_565 S
N323 C322 1.342 . S
N323 N324 1.388 . S
N324 Co307 1.993 . S
N324 N323 1.388 . S
N324 C325 1.346 . S
C325 N324 1.346 . S
C325 C326 1.396 . S
C325 C335 1.510 . S
C326 C322 1.401 . S
C326 C325 1.396 . S
C327 C322 1.499 1_545 S
C327 H328 0.959 . S
C327 H329 0.960 . S
C327 H330 0.962 . S
H328 C327 0.959 . S
H329 C327 0.960 . S
H330 C327 0.962 . S
O331 Co306 1.967 . S
O331 C339 1.258 1_545 S
O332 Co307 1.941 . S
O332 C339 1.266 . S
H333 C335 0.959 . S
H334 C335 0.961 . S
C335 C325 1.510 . S
C335 H333 0.959 . S
C335 H334 0.961 . S
C335 H336 0.960 . S
H336 C335 0.960 . S
H337 N317 0.862 . S
O338 Co306 1.920 . S
O338 C311 1.289 . S
C339 O331 1.258 1_565 S
C339 O332 1.266 . S
Co340 O343 1.970 . S
Co340 N357 1.989 1_655 S
Co340 O365 1.967 . S
Co340 O372 1.920 . S
Co341 O344 1.966 1_455 S
Co341 N350 2.022 . S
Co341 N358 1.993 . S
Co341 O366 1.941 . S
C342 O343 1.258 . S
C342 O344 1.263 . S
O343 Co340 1.970 . S
O343 C342 1.258 . S
O344 Co341 1.966 1_655 S
O344 C342 1.263 . S
C345 O346 1.235 . S
C345 O372 1.289 . S
O346 C345 1.235 . S
C347 C349 1.400 1_565 S
C347 N350 1.351 . S
C347 C352 1.501 . S
C348 C349 1.387 . S
C348 N351 1.341 1_545 S
C349 C347 1.400 1_545 S
C349 C348 1.387 . S
N350 Co341 2.022 . S
N350 C347 1.351 . S
N350 N351 1.365 . S
N351 C348 1.341 1_565 S
N351 N350 1.365 . S
N351 H371 0.862 . S
C352 C347 1.501 . S
C352 H353 0.961 . S
C352 H354 0.961 . S
C352 H355 0.960 1_565 S
H353 C352 0.961 . S
H354 C352 0.961 . S
H355 C352 0.960 1_545 S
C356 N357 1.342 . S
C356 C360 1.401 . S
C356 C361 1.499 1_455 S
N357 Co340 1.989 1_455 S
N357 C356 1.342 . S
N357 N358 1.388 . S
N358 Co341 1.993 . S
N358 N357 1.388 . S
N358 C359 1.346 . S
C359 N358 1.346 . S
C359 C360 1.396 . S
C359 C369 1.510 . S
C360 C356 1.401 . S
C360 C359 1.396 . S
C361 C356 1.499 1_655 S
C361 H362 0.959 . S
C361 H363 0.960 . S
C361 H364 0.982 . S
H362 C361 0.959 . S
H363 C361 0.960 . S
H364 C361 0.982 . S
O365 Co340 1.967 . S
O365 C373 1.258 1_655 S
O366 Co341 1.941 . S
O366 C373 1.266 . S
H367 C369 0.959 . S
H368 C369 0.961 . S
C369 C359 1.510 . S
C369 H367 0.959 . S
C369 H368 0.961 . S
C369 H370 0.960 . S
H370 C369 0.960 . S
H371 N351 0.862 . S
O372 Co340 1.920 . S
O372 C345 1.289 . S
C373 O365 1.258 1_455 S
C373 O366 1.266 . S
Co374 O377 1.970 . S
Co374 N391 1.989 . S
Co374 O399 1.967 . S
Co374 O406 1.920 . S
Co375 O378 1.966 . S
Co375 N384 2.022 . S
Co375 N392 1.993 . S
Co375 O400 1.941 . S
C376 O377 1.258 . S
C376 O378 1.263 . S
O377 Co374 1.970 . S
O377 C376 1.258 . S
O378 Co375 1.966 . S
O378 C376 1.263 . S
C379 O380 1.235 . S
C379 O406 1.289 . S
O380 C379 1.235 . S
C381 C383 1.400 1_455 S
C381 N384 1.351 . S
C381 C386 1.501 . S
C382 C383 1.387 . S
C382 N385 1.341 1_655 S
C383 C381 1.400 1_655 S
C383 C382 1.387 . S
N384 Co375 2.022 . S
N384 C381 1.351 . S
N384 N385 1.365 . S
N385 C382 1.341 1_455 S
N385 N384 1.365 . S
N385 H405 0.862 . S
C386 C381 1.501 . S
C386 H387 0.961 . S
C386 H388 0.961 . S
C386 H389 0.960 1_455 S
H387 C386 0.961 . S
H388 C386 0.961 . S
H389 C386 0.960 1_655 S
C390 N391 1.342 . S
C390 C394 1.401 . S
C390 C395 1.499 . S
N391 Co374 1.989 . S
N391 C390 1.342 . S
N391 N392 1.388 . S
N392 Co375 1.993 . S
N392 N391 1.388 . S
N392 C393 1.346 . S
C393 N392 1.346 . S
C393 C394 1.396 . S
C393 C403 1.510 . S
C394 C390 1.401 . S
C394 C393 1.396 . S
C395 C390 1.499 . S
C395 H396 0.959 . S
C395 H397 0.960 . S
C395 H398 0.961 . S
H396 C395 0.959 . S
H397 C395 0.960 . S
H398 C395 0.961 . S
O399 Co374 1.967 . S
O399 C407 1.258 . S
O400 Co375 1.941 . S
O400 C407 1.266 . S
H401 C403 0.959 . S
H402 C403 0.961 . S
C403 C393 1.510 . S
C403 H401 0.959 . S
C403 H402 0.961 . S
C403 H404 0.960 . S
H404 C403 0.960 . S
H405 N385 0.862 . S
O406 Co374 1.920 . S
O406 C379 1.289 . S
C407 O399 1.258 . S
C407 O400 1.266 . S
Co408 O411 1.970 . S
Co408 N425 1.989 . S
Co408 O433 1.967 . S
Co408 O440 1.920 . S
Co409 O412 1.966 . S
Co409 N418 2.022 . S
Co409 N426 1.993 . S
Co409 O434 1.941 . S
C410 O411 1.258 . S
C410 O412 1.263 . S
O411 Co408 1.970 . S
O411 C410 1.258 . S
O412 Co409 1.966 . S
O412 C410 1.263 . S
C413 O414 1.235 . S
C413 O440 1.289 . S
O414 C413 1.235 . S
C415 C417 1.400 . S
C415 N418 1.351 . S
C415 C420 1.501 . S
C416 C417 1.387 . S
C416 N419 1.341 . S
C417 C415 1.400 . S
C417 C416 1.387 . S
N418 Co409 2.022 . S
N418 C415 1.351 . S
N418 N419 1.365 . S
N419 C416 1.341 . S
N419 N418 1.365 . S
N419 H439 0.862 . S
C420 C415 1.501 . S
C420 H421 0.961 . S
C420 H422 0.961 . S
C420 H423 0.960 . S
H421 C420 0.961 . S
H422 C420 0.961 . S
H423 C420 0.960 . S
C424 N425 1.342 . S
C424 C428 1.401 . S
C424 C429 1.499 . S
N425 Co408 1.989 . S
N425 C424 1.342 . S
N425 N426 1.388 . S
N426 Co409 1.993 . S
N426 N425 1.388 . S
N426 C427 1.346 . S
C427 N426 1.346 . S
C427 C428 1.396 . S
C427 C437 1.510 . S
C428 C424 1.401 . S
C428 C427 1.396 . S
C429 C424 1.499 . S
C429 H430 0.959 . S
C429 H431 0.960 . S
C429 H432 0.961 . S
H430 C429 0.959 . S
H431 C429 0.960 . S
H432 C429 0.961 . S
O433 Co408 1.967 . S
O433 C441 1.258 . S
O434 Co409 1.941 . S
O434 C441 1.266 . S
H435 C437 0.959 . S
H436 C437 0.961 . S
C437 C427 1.510 . S
C437 H435 0.959 . S
C437 H436 0.961 . S
C437 H438 0.960 . S
H438 C437 0.960 . S
H439 N419 0.862 . S
O440 Co408 1.920 . S
O440 C413 1.289 . S
C441 O433 1.258 . S
C441 O434 1.266 . S
Co442 O445 1.970 . S
Co442 N459 1.989 . S
Co442 O467 1.967 . S
Co442 O474 1.920 . S
Co443 O446 1.966 . S
Co443 N452 2.022 . S
Co443 N460 1.993 . S
Co443 O468 1.941 . S
C444 O445 1.258 . S
C444 O446 1.263 . S
O445 Co442 1.970 . S
O445 C444 1.258 . S
O446 Co443 1.966 . S
O446 C444 1.263 . S
C447 O448 1.235 . S
C447 O474 1.289 . S
O448 C447 1.235 . S
C449 C451 1.400 . S
C449 N452 1.351 . S
C449 C454 1.501 . S
C450 C451 1.387 . S
C450 N453 1.341 . S
C451 C449 1.400 . S
C451 C450 1.387 . S
N452 Co443 2.022 . S
N452 C449 1.351 . S
N452 N453 1.365 . S
N453 C450 1.341 . S
N453 N452 1.365 . S
N453 H473 0.862 . S
C454 C449 1.501 . S
C454 H455 0.961 . S
C454 H456 0.961 . S
C454 H457 0.960 . S
H455 C454 0.961 . S
H456 C454 0.961 . S
H457 C454 0.960 . S
C458 N459 1.342 . S
C458 C462 1.401 . S
C458 C463 1.499 . S
N459 Co442 1.989 . S
N459 C458 1.342 . S
N459 N460 1.388 . S
N460 Co443 1.993 . S
N460 N459 1.388 . S
N460 C461 1.346 . S
C461 N460 1.346 . S
C461 C462 1.396 . S
C461 C471 1.510 . S
C462 C458 1.401 . S
C462 C461 1.396 . S
C463 C458 1.499 . S
C463 H464 0.959 . S
C463 H465 0.960 . S
C463 H466 0.961 . S
H464 C463 0.959 . S
H465 C463 0.960 . S
H466 C463 0.961 . S
O467 Co442 1.967 . S
O467 C475 1.258 . S
O468 Co443 1.941 . S
O468 C475 1.266 . S
H469 C471 0.959 . S
H470 C471 0.961 . S
C471 C461 1.510 . S
C471 H469 0.959 . S
C471 H470 0.961 . S
C471 H472 0.960 . S
H472 C471 0.960 . S
H473 N453 0.862 . S
O474 Co442 1.920 . S
O474 C447 1.289 . S
C475 O467 1.258 . S
C475 O468 1.266 . S
Co476 O479 1.970 . S
Co476 N493 1.989 . S
Co476 O501 1.967 . S
Co476 O508 1.920 . S
Co477 O480 1.966 . S
Co477 N486 2.022 . S
Co477 N494 1.993 . S
Co477 O502 1.941 . S
C478 O479 1.258 . S
C478 O480 1.263 . S
O479 Co476 1.970 . S
O479 C478 1.258 . S
O480 Co477 1.966 . S
O480 C478 1.263 . S
C481 O482 1.235 . S
C481 O508 1.289 . S
O482 C481 1.235 . S
C483 C485 1.400 . S
C483 N486 1.351 . S
C483 C488 1.501 . S
C484 C485 1.387 . S
C484 N487 1.341 . S
C485 C483 1.400 . S
C485 C484 1.387 . S
N486 Co477 2.022 . S
N486 C483 1.351 . S
N486 N487 1.365 . S
N487 C484 1.341 . S
N487 N486 1.365 . S
N487 H507 0.862 . S
C488 C483 1.501 . S
C488 H489 0.961 . S
C488 H490 0.961 . S
C488 H491 0.960 . S
H489 C488 0.961 . S
H490 C488 0.961 . S
H491 C488 0.960 . S
C492 N493 1.342 . S
C492 C496 1.401 . S
C492 C497 1.499 . S
N493 Co476 1.989 . S
N493 C492 1.342 . S
N493 N494 1.388 . S
N494 Co477 1.993 . S
N494 N493 1.388 . S
N494 C495 1.346 . S
C495 N494 1.346 . S
C495 C496 1.396 . S
C495 C505 1.510 . S
C496 C492 1.401 . S
C496 C495 1.396 . S
C497 C492 1.499 . S
C497 H498 0.959 . S
C497 H499 0.960 . S
C497 H500 0.961 . S
H498 C497 0.959 . S
H499 C497 0.960 . S
H500 C497 0.961 . S
O501 Co476 1.967 . S
O501 C509 1.258 . S
O502 Co477 1.941 . S
O502 C509 1.266 . S
H503 C505 0.959 . S
H504 C505 0.961 . S
C505 C495 1.510 . S
C505 H503 0.959 . S
C505 H504 0.961 . S
C505 H506 0.960 . S
H506 C505 0.960 . S
H507 N487 0.862 . S
O508 Co476 1.920 . S
O508 C481 1.289 . S
C509 O501 1.258 . S
C509 O502 1.266 . S
Co510 O513 1.970 . S
Co510 N527 1.989 . S
Co510 O535 1.967 . S
Co510 O542 1.920 . S
Co511 O514 1.966 . S
Co511 N520 2.022 . S
Co511 N528 1.993 . S
Co511 O536 1.941 . S
C512 O513 1.258 . S
C512 O514 1.263 . S
O513 Co510 1.970 . S
O513 C512 1.258 . S
O514 Co511 1.966 . S
O514 C512 1.263 . S
C515 O516 1.235 . S
C515 O542 1.289 . S
O516 C515 1.235 . S
C517 C519 1.400 . S
C517 N520 1.351 . S
C517 C522 1.501 . S
C518 C519 1.387 . S
C518 N521 1.341 . S
C519 C517 1.400 . S
C519 C518 1.387 . S
N520 Co511 2.022 . S
N520 C517 1.351 . S
N520 N521 1.365 . S
N521 C518 1.341 . S
N521 N520 1.365 . S
N521 H541 0.862 . S
C522 C517 1.501 . S
C522 H523 0.961 . S
C522 H524 0.961 . S
C522 H525 0.960 . S
H523 C522 0.961 . S
H524 C522 0.961 . S
H525 C522 0.960 . S
C526 N527 1.342 . S
C526 C530 1.401 . S
C526 C531 1.499 . S
N527 Co510 1.989 . S
N527 C526 1.342 . S
N527 N528 1.388 . S
N528 Co511 1.993 . S
N528 N527 1.388 . S
N528 C529 1.346 . S
C529 N528 1.346 . S
C529 C530 1.396 . S
C529 C539 1.510 . S
C530 C526 1.401 . S
C530 C529 1.396 . S
C531 C526 1.499 . S
C531 H532 0.959 . S
C531 H533 0.960 . S
C531 H534 0.961 . S
H532 C531 0.959 . S
H533 C531 0.960 . S
H534 C531 0.961 . S
O535 Co510 1.967 . S
O535 C543 1.258 . S
O536 Co511 1.941 . S
O536 C543 1.266 . S
H537 C539 0.959 . S
H538 C539 0.961 . S
C539 C529 1.510 . S
C539 H537 0.959 . S
C539 H538 0.961 . S
C539 H540 0.960 . S
H540 C539 0.960 . S
H541 N521 0.862 . S
O542 Co510 1.920 . S
O542 C515 1.289 . S
C543 O535 1.258 . S
C543 O536 1.266 . S
Co544 O547 1.970 . S
Co544 N561 1.989 . S
Co544 O569 1.967 . S
Co544 O576 1.920 . S
Co545 O548 1.966 . S
Co545 N554 2.022 . S
Co545 N562 1.993 . S
Co545 O570 1.941 . S
C546 O547 1.258 . S
C546 O548 1.263 . S
O547 Co544 1.970 . S
O547 C546 1.258 . S
O548 Co545 1.966 . S
O548 C546 1.263 . S
C549 O550 1.235 . S
C549 O576 1.289 . S
O550 C549 1.235 . S
C551 C553 1.400 . S
C551 N554 1.351 . S
C551 C556 1.501 . S
C552 C553 1.387 . S
C552 N555 1.341 . S
C553 C551 1.400 . S
C553 C552 1.387 . S
N554 Co545 2.022 . S
N554 C551 1.351 . S
N554 N555 1.365 . S
N555 C552 1.341 . S
N555 N554 1.365 . S
N555 H575 0.862 . S
C556 C551 1.501 . S
C556 H557 0.961 . S
C556 H558 0.961 . S
C556 H559 0.960 . S
H557 C556 0.961 . S
H558 C556 0.961 . S
H559 C556 0.960 . S
C560 N561 1.342 . S
C560 C564 1.401 . S
C560 C565 1.499 . S
N561 Co544 1.989 . S
N561 C560 1.342 . S
N561 N562 1.388 . S
N562 Co545 1.993 . S
N562 N561 1.388 . S
N562 C563 1.346 . S
C563 N562 1.346 . S
C563 C564 1.396 . S
C563 C573 1.510 . S
C564 C560 1.401 . S
C564 C563 1.396 . S
C565 C560 1.499 . S
C565 H566 0.959 . S
C565 H567 0.960 . S
C565 H568 0.961 . S
H566 C565 0.959 . S
H567 C565 0.960 . S
H568 C565 0.961 . S
O569 Co544 1.967 . S
O569 C577 1.258 . S
O570 Co545 1.941 . S
O570 C577 1.266 . S
H571 C573 0.959 . S
H572 C573 0.961 . S
C573 C563 1.510 . S
C573 H571 0.959 . S
C573 H572 0.961 . S
C573 H574 0.960 . S
H574 C573 0.960 . S
H575 N555 0.862 . S
O576 Co544 1.920 . S
O576 C549 1.289 . S
C577 O569 1.258 . S
C577 O570 1.266 . S
Co578 O581 1.970 . S
Co578 N595 1.989 . S
Co578 O603 1.967 . S
Co578 O610 1.920 . S
Co579 O582 1.966 . S
Co579 N588 2.022 . S
Co579 N596 1.993 . S
Co579 O604 1.941 . S
C580 O581 1.258 . S
C580 O582 1.263 . S
O581 Co578 1.970 . S
O581 C580 1.258 . S
O582 Co579 1.966 . S
O582 C580 1.263 . S
C583 O584 1.235 . S
C583 O610 1.289 . S
O584 C583 1.235 . S
C585 C587 1.400 . S
C585 N588 1.351 . S
C585 C590 1.501 . S
C586 C587 1.387 . S
C586 N589 1.341 . S
C587 C585 1.400 . S
C587 C586 1.387 . S
N588 Co579 2.022 . S
N588 C585 1.351 . S
N588 N589 1.365 . S
N589 C586 1.341 . S
N589 N588 1.365 . S
N589 H609 0.862 . S
C590 C585 1.501 . S
C590 H591 0.961 . S
C590 H592 0.961 . S
C590 H593 0.960 . S
H591 C590 0.961 . S
H592 C590 0.961 . S
H593 C590 0.960 . S
C594 N595 1.342 . S
C594 C598 1.401 . S
C594 C599 1.499 . S
N595 Co578 1.989 . S
N595 C594 1.342 . S
N595 N596 1.388 . S
N596 Co579 1.993 . S
N596 N595 1.388 . S
N596 C597 1.346 . S
C597 N596 1.346 . S
C597 C598 1.396 . S
C597 C607 1.510 . S
C598 C594 1.401 . S
C598 C597 1.396 . S
C599 C594 1.499 . S
C599 H600 0.959 . S
C599 H601 0.960 . S
C599 H602 0.961 . S
H600 C599 0.959 . S
H601 C599 0.960 . S
H602 C599 0.961 . S
O603 Co578 1.967 . S
O603 C611 1.258 . S
O604 Co579 1.941 . S
O604 C611 1.266 . S
H605 C607 0.959 . S
H606 C607 0.961 . S
C607 C597 1.510 . S
C607 H605 0.959 . S
C607 H606 0.961 . S
C607 H608 0.960 . S
H608 C607 0.960 . S
H609 N589 0.862 . S
O610 Co578 1.920 . S
O610 C583 1.289 . S
C611 O603 1.258 . S
C611 O604 1.266 . S
Co612 O615 1.970 . S
Co612 N629 1.989 . S
Co612 O637 1.967 . S
Co612 O644 1.920 . S
Co613 O616 1.966 . S
Co613 N622 2.022 . S
Co613 N630 1.993 . S
Co613 O638 1.941 . S
C614 O615 1.258 . S
C614 O616 1.263 . S
O615 Co612 1.970 . S
O615 C614 1.258 . S
O616 Co613 1.966 . S
O616 C614 1.263 . S
C617 O618 1.235 . S
C617 O644 1.289 . S
O618 C617 1.235 . S
C619 C621 1.400 . S
C619 N622 1.351 . S
C619 C624 1.501 . S
C620 C621 1.387 . S
C620 N623 1.341 . S
C621 C619 1.400 . S
C621 C620 1.387 . S
N622 Co613 2.022 . S
N622 C619 1.351 . S
N622 N623 1.365 . S
N623 C620 1.341 . S
N623 N622 1.365 . S
N623 H643 0.862 . S
C624 C619 1.501 . S
C624 H625 0.961 . S
C624 H626 0.961 . S
C624 H627 0.960 . S
H625 C624 0.961 . S
H626 C624 0.961 . S
H627 C624 0.960 . S
C628 N629 1.342 . S
C628 C632 1.401 . S
C628 C633 1.499 . S
N629 Co612 1.989 . S
N629 C628 1.342 . S
N629 N630 1.388 . S
N630 Co613 1.993 . S
N630 N629 1.388 . S
N630 C631 1.346 . S
C631 N630 1.346 . S
C631 C632 1.396 . S
C631 C641 1.510 . S
C632 C628 1.401 . S
C632 C631 1.396 . S
C633 C628 1.499 . S
C633 H634 0.959 . S
C633 H635 0.960 . S
C633 H636 0.961 . S
H634 C633 0.959 . S
H635 C633 0.960 . S
H636 C633 0.961 . S
O637 Co612 1.967 . S
O637 C645 1.258 . S
O638 Co613 1.941 . S
O638 C645 1.266 . S
H639 C641 0.959 . S
H640 C641 0.961 . S
C641 C631 1.510 . S
C641 H639 0.959 . S
C641 H640 0.961 . S
C641 H642 0.960 . S
H642 C641 0.960 . S
H643 N623 0.862 . S
O644 Co612 1.920 . S
O644 C617 1.289 . S
C645 O637 1.258 . S
C645 O638 1.266 . S
Co646 O649 1.970 . S
Co646 N663 1.989 . S
Co646 O671 1.967 . S
Co646 O678 1.920 . S
Co647 O650 1.966 . S
Co647 N656 2.022 . S
Co647 N664 1.993 . S
Co647 O672 1.941 . S
C648 O649 1.258 . S
C648 O650 1.263 . S
O649 Co646 1.970 . S
O649 C648 1.258 . S
O650 Co647 1.966 . S
O650 C648 1.263 . S
C651 O652 1.235 . S
C651 O678 1.289 . S
O652 C651 1.235 . S
C653 C655 1.400 . S
C653 N656 1.351 . S
C653 C658 1.501 . S
C654 C655 1.387 . S
C654 N657 1.341 . S
C655 C653 1.400 . S
C655 C654 1.387 . S
N656 Co647 2.022 . S
N656 C653 1.351 . S
N656 N657 1.365 . S
N657 C654 1.341 . S
N657 N656 1.365 . S
N657 H677 0.862 . S
C658 C653 1.501 . S
C658 H659 0.961 . S
C658 H660 0.961 . S
C658 H661 0.960 . S
H659 C658 0.961 . S
H660 C658 0.961 . S
H661 C658 0.960 . S
C662 N663 1.342 . S
C662 C666 1.401 . S
C662 C667 1.499 . S
N663 Co646 1.989 . S
N663 C662 1.342 . S
N663 N664 1.388 . S
N664 Co647 1.993 . S
N664 N663 1.388 . S
N664 C665 1.346 . S
C665 N664 1.346 . S
C665 C666 1.396 . S
C665 C675 1.510 . S
C666 C662 1.401 . S
C666 C665 1.396 . S
C667 C662 1.499 . S
C667 H668 0.959 . S
C667 H669 0.960 . S
C667 H670 0.961 . S
H668 C667 0.959 . S
H669 C667 0.960 . S
H670 C667 0.961 . S
O671 Co646 1.967 . S
O671 C679 1.258 . S
O672 Co647 1.941 . S
O672 C679 1.266 . S
H673 C675 0.959 . S
H674 C675 0.961 . S
C675 C665 1.510 . S
C675 H673 0.959 . S
C675 H674 0.961 . S
C675 H676 0.960 . S
H676 C675 0.960 . S
H677 N657 0.862 . S
O678 Co646 1.920 . S
O678 C651 1.289 . S
C679 O671 1.258 . S
C679 O672 1.266 . S
Co680 O683 1.970 . S
Co680 N697 1.989 . S
Co680 O705 1.967 . S
Co680 O712 1.920 . S
Co681 O684 1.966 . S
Co681 N690 2.022 . S
Co681 N698 1.993 . S
Co681 O706 1.941 . S
C682 O683 1.258 . S
C682 O684 1.263 . S
O683 Co680 1.970 . S
O683 C682 1.258 . S
O684 Co681 1.966 . S
O684 C682 1.263 . S
C685 O686 1.235 . S
C685 O712 1.289 . S
O686 C685 1.235 . S
C687 C689 1.400 . S
C687 N690 1.351 . S
C687 C692 1.501 . S
C688 C689 1.387 . S
C688 N691 1.341 . S
C689 C687 1.400 . S
C689 C688 1.387 . S
N690 Co681 2.022 . S
N690 C687 1.351 . S
N690 N691 1.365 . S
N691 C688 1.341 . S
N691 N690 1.365 . S
N691 H711 0.862 . S
C692 C687 1.501 . S
C692 H693 0.961 . S
C692 H694 0.961 . S
C692 H695 0.960 . S
H693 C692 0.961 . S
H694 C692 0.961 . S
H695 C692 0.960 . S
C696 N697 1.342 . S
C696 C700 1.401 . S
C696 C701 1.499 . S
N697 Co680 1.989 . S
N697 C696 1.342 . S
N697 N698 1.388 . S
N698 Co681 1.993 . S
N698 N697 1.388 . S
N698 C699 1.346 . S
C699 N698 1.346 . S
C699 C700 1.396 . S
C699 C709 1.510 . S
C700 C696 1.401 . S
C700 C699 1.396 . S
C701 C696 1.499 . S
C701 H702 0.959 . S
C701 H703 0.960 . S
C701 H704 0.961 . S
H702 C701 0.959 . S
H703 C701 0.960 . S
H704 C701 0.961 . S
O705 Co680 1.967 . S
O705 C713 1.258 . S
O706 Co681 1.941 . S
O706 C713 1.266 . S
H707 C709 0.959 . S
H708 C709 0.961 . S
C709 C699 1.510 . S
C709 H707 0.959 . S
C709 H708 0.961 . S
C709 H710 0.960 . S
H710 C709 0.960 . S
H711 N691 0.862 . S
O712 Co680 1.920 . S
O712 C685 1.289 . S
C713 O705 1.258 . S
C713 O706 1.266 . S
Co714 O717 1.970 . S
Co714 N731 1.989 . S
Co714 O739 1.967 1_556 S
Co714 O746 1.920 . S
Co715 O718 1.966 . S
Co715 N724 2.022 . S
Co715 N732 1.993 . S
Co715 O740 1.941 1_556 S
C716 O717 1.258 . S
C716 O718 1.263 . S
O717 Co714 1.970 . S
O717 C716 1.258 . S
O718 Co715 1.966 . S
O718 C716 1.263 . S
C719 O720 1.235 . S
C719 O746 1.289 . S
O720 C719 1.235 . S
C721 C723 1.400 . S
C721 N724 1.351 . S
C721 C726 1.501 . S
C722 C723 1.387 . S
C722 N725 1.341 . S
C723 C721 1.400 . S
C723 C722 1.387 . S
N724 Co715 2.022 . S
N724 C721 1.351 . S
N724 N725 1.365 . S
N725 C722 1.341 . S
N725 N724 1.365 . S
N725 H745 0.862 1_556 S
C726 C721 1.501 . S
C726 H727 0.961 . S
C726 H728 0.961 . S
C726 H729 0.960 . S
H727 C726 0.961 . S
H728 C726 0.961 . S
H729 C726 0.960 . S
C730 N731 1.342 . S
C730 C734 1.401 . S
C730 C735 1.499 . S
N731 Co714 1.989 . S
N731 C730 1.342 . S
N731 N732 1.388 . S
N732 Co715 1.993 . S
N732 N731 1.388 . S
N732 C733 1.346 . S
C733 N732 1.346 . S
C733 C734 1.396 . S
C733 C743 1.510 . S
C734 C730 1.401 . S
C734 C733 1.396 . S
C735 C730 1.499 . S
C735 H736 0.959 . S
C735 H737 0.960 . S
C735 H738 0.961 . S
H736 C735 0.959 . S
H737 C735 0.960 . S
H738 C735 0.961 . S
O739 Co714 1.967 1_554 S
O739 C747 1.258 . S
O740 Co715 1.941 1_554 S
O740 C747 1.266 . S
H741 C743 0.959 . S
H742 C743 0.961 . S
C743 C733 1.510 . S
C743 H741 0.959 . S
C743 H742 0.961 . S
C743 H744 0.960 . S
H744 C743 0.960 . S
H745 N725 0.862 1_554 S
O746 Co714 1.920 . S
O746 C719 1.289 . S
C747 O739 1.258 . S
C747 O740 1.266 . S
Co748 O751 1.970 . S
Co748 N765 1.989 . S
Co748 O773 1.967 1_556 S
Co748 O780 1.920 . S
Co749 O752 1.966 . S
Co749 N758 2.022 . S
Co749 N766 1.993 . S
Co749 O774 1.941 1_556 S
C750 O751 1.258 . S
C750 O752 1.263 . S
O751 Co748 1.970 . S
O751 C750 1.258 . S
O752 Co749 1.966 . S
O752 C750 1.263 . S
C753 O754 1.235 . S
C753 O780 1.289 . S
O754 C753 1.235 . S
C755 C757 1.400 . S
C755 N758 1.351 . S
C755 C760 1.501 . S
C756 C757 1.387 . S
C756 N759 1.341 . S
C757 C755 1.400 . S
C757 C756 1.387 . S
N758 Co749 2.022 . S
N758 C755 1.351 . S
N758 N759 1.365 . S
N759 C756 1.341 . S
N759 N758 1.365 . S
N759 H779 0.862 1_556 S
C760 C755 1.501 . S
C760 H761 0.961 . S
C760 H762 0.961 . S
C760 H763 0.960 . S
H761 C760 0.961 . S
H762 C760 0.961 . S
H763 C760 0.960 . S
C764 N765 1.342 . S
C764 C768 1.401 . S
C764 C769 1.499 . S
N765 Co748 1.989 . S
N765 C764 1.342 . S
N765 N766 1.388 . S
N766 Co749 1.993 . S
N766 N765 1.388 . S
N766 C767 1.346 . S
C767 N766 1.346 . S
C767 C768 1.396 . S
C767 C777 1.510 . S
C768 C764 1.401 . S
C768 C767 1.396 . S
C769 C764 1.499 . S
C769 H770 0.959 . S
C769 H771 0.960 . S
C769 H772 0.961 . S
H770 C769 0.959 . S
H771 C769 0.960 . S
H772 C769 0.961 . S
O773 Co748 1.967 1_554 S
O773 C781 1.258 . S
O774 Co749 1.941 1_554 S
O774 C781 1.266 . S
H775 C777 0.959 . S
H776 C777 0.961 . S
C777 C767 1.510 . S
C777 H775 0.959 . S
C777 H776 0.961 . S
C777 H778 0.960 . S
H778 C777 0.960 . S
H779 N759 0.862 1_554 S
O780 Co748 1.920 . S
O780 C753 1.289 . S
C781 O773 1.258 . S
C781 O774 1.266 . S
Co782 O785 1.970 . S
Co782 N799 1.989 . S
Co782 O807 1.967 1_556 S
Co782 O814 1.920 . S
Co783 O786 1.966 . S
Co783 N792 2.022 . S
Co783 N800 1.993 . S
Co783 O808 1.941 1_556 S
C784 O785 1.258 . S
C784 O786 1.263 . S
O785 Co782 1.970 . S
O785 C784 1.258 . S
O786 Co783 1.966 . S
O786 C784 1.263 . S
C787 O788 1.235 . S
C787 O814 1.289 . S
O788 C787 1.235 . S
C789 C791 1.400 . S
C789 N792 1.351 . S
C789 C794 1.501 . S
C790 C791 1.387 . S
C790 N793 1.341 . S
C791 C789 1.400 . S
C791 C790 1.387 . S
N792 Co783 2.022 . S
N792 C789 1.351 . S
N792 N793 1.365 . S
N793 C790 1.341 . S
N793 N792 1.365 . S
N793 H813 0.862 1_556 S
C794 C789 1.501 . S
C794 H795 0.961 . S
C794 H796 0.961 . S
C794 H797 0.960 . S
H795 C794 0.961 . S
H796 C794 0.961 . S
H797 C794 0.960 . S
C798 N799 1.342 . S
C798 C802 1.401 . S
C798 C803 1.499 . S
N799 Co782 1.989 . S
N799 C798 1.342 . S
N799 N800 1.388 . S
N800 Co783 1.993 . S
N800 N799 1.388 . S
N800 C801 1.346 . S
C801 N800 1.346 . S
C801 C802 1.396 . S
C801 C811 1.510 . S
C802 C798 1.401 . S
C802 C801 1.396 . S
C803 C798 1.499 . S
C803 H804 0.959 . S
C803 H805 0.960 . S
C803 H806 0.961 . S
H804 C803 0.959 . S
H805 C803 0.960 . S
H806 C803 0.961 . S
O807 Co782 1.967 1_554 S
O807 C815 1.258 . S
O808 Co783 1.941 1_554 S
O808 C815 1.266 . S
H809 C811 0.959 . S
H810 C811 0.961 . S
C811 C801 1.510 . S
C811 H809 0.959 . S
C811 H810 0.961 . S
C811 H812 0.960 . S
H812 C811 0.960 . S
H813 N793 0.862 1_554 S
O814 Co782 1.920 . S
O814 C787 1.289 . S
C815 O807 1.258 . S
C815 O808 1.266 . S
Co816 O819 1.970 . S
Co816 N833 1.989 . S
Co816 O841 1.967 . S
Co816 O848 1.920 . S
Co817 O820 1.966 . S
Co817 N826 2.022 . S
Co817 N834 1.993 . S
Co817 O842 1.941 . S
C818 O819 1.258 . S
C818 O820 1.263 . S
O819 Co816 1.970 . S
O819 C818 1.258 . S
O820 Co817 1.966 . S
O820 C818 1.263 . S
C821 O822 1.235 . S
C821 O848 1.289 . S
O822 C821 1.235 . S
C823 C825 1.400 . S
C823 N826 1.351 . S
C823 C828 1.501 . S
C824 C825 1.387 . S
C824 N827 1.341 . S
C825 C823 1.400 . S
C825 C824 1.387 . S
N826 Co817 2.022 . S
N826 C823 1.351 . S
N826 N827 1.365 . S
N827 C824 1.341 . S
N827 N826 1.365 . S
N827 H847 0.862 . S
C828 C823 1.501 . S
C828 H829 0.961 . S
C828 H830 0.961 . S
C828 H831 0.960 . S
H829 C828 0.961 . S
H830 C828 0.961 . S
H831 C828 0.960 . S
C832 N833 1.342 . S
C832 C836 1.401 . S
C832 C837 1.499 . S
N833 Co816 1.989 . S
N833 C832 1.342 . S
N833 N834 1.388 . S
N834 Co817 1.993 . S
N834 N833 1.388 . S
N834 C835 1.346 . S
C835 N834 1.346 . S
C835 C836 1.396 . S
C835 C845 1.510 . S
C836 C832 1.401 . S
C836 C835 1.396 . S
C837 C832 1.499 . S
C837 H838 0.959 . S
C837 H839 0.960 . S
C837 H840 0.961 . S
H838 C837 0.959 . S
H839 C837 0.960 . S
H840 C837 0.961 . S
O841 Co816 1.967 . S
O841 C849 1.258 . S
O842 Co817 1.941 . S
O842 C849 1.266 . S
H843 C845 0.959 . S
H844 C845 0.961 . S
C845 C835 1.510 . S
C845 H843 0.959 . S
C845 H844 0.961 . S
C845 H846 0.960 . S
H846 C845 0.960 . S
H847 N827 0.862 . S
O848 Co816 1.920 . S
O848 C821 1.289 . S
C849 O841 1.258 . S
C849 O842 1.266 . S
Co850 O853 1.970 . S
Co850 N867 1.989 . S
Co850 O875 1.967 . S
Co850 O882 1.920 . S
Co851 O854 1.966 . S
Co851 N860 2.022 . S
Co851 N868 1.993 . S
Co851 O876 1.941 . S
C852 O853 1.258 . S
C852 O854 1.263 . S
O853 Co850 1.970 . S
O853 C852 1.258 . S
O854 Co851 1.966 . S
O854 C852 1.263 . S
C855 O856 1.235 . S
C855 O882 1.289 . S
O856 C855 1.235 . S
C857 C859 1.400 . S
C857 N860 1.351 . S
C857 C862 1.501 . S
C858 C859 1.387 . S
C858 N861 1.341 . S
C859 C857 1.400 . S
C859 C858 1.387 . S
N860 Co851 2.022 . S
N860 C857 1.351 . S
N860 N861 1.365 . S
N861 C858 1.341 . S
N861 N860 1.365 . S
N861 H881 0.862 . S
C862 C857 1.501 . S
C862 H863 0.961 . S
C862 H864 0.961 . S
C862 H865 0.960 . S
H863 C862 0.961 . S
H864 C862 0.961 . S
H865 C862 0.960 . S
C866 N867 1.342 . S
C866 C870 1.401 . S
C866 C871 1.499 . S
N867 Co850 1.989 . S
N867 C866 1.342 . S
N867 N868 1.388 . S
N868 Co851 1.993 . S
N868 N867 1.388 . S
N868 C869 1.346 . S
C869 N868 1.346 . S
C869 C870 1.396 . S
C869 C879 1.510 . S
C870 C866 1.401 . S
C870 C869 1.396 . S
C871 C866 1.499 . S
C871 H872 0.959 . S
C871 H873 0.960 . S
C871 H874 0.961 . S
H872 C871 0.959 . S
H873 C871 0.960 . S
H874 C871 0.961 . S
O875 Co850 1.967 . S
O875 C883 1.258 . S
O876 Co851 1.941 . S
O876 C883 1.266 . S
H877 C879 0.959 . S
H878 C879 0.961 . S
C879 C869 1.510 . S
C879 H877 0.959 . S
C879 H878 0.961 . S
C879 H880 0.960 . S
H880 C879 0.960 . S
H881 N861 0.862 . S
O882 Co850 1.920 . S
O882 C855 1.289 . S
C883 O875 1.258 . S
C883 O876 1.266 . S
Co884 O887 1.970 . S
Co884 N901 1.989 . S
Co884 O909 1.967 . S
Co884 O916 1.920 . S
Co885 O888 1.966 . S
Co885 N894 2.022 . S
Co885 N902 1.993 . S
Co885 O910 1.941 . S
C886 O887 1.258 . S
C886 O888 1.263 . S
O887 Co884 1.970 . S
O887 C886 1.258 . S
O888 Co885 1.966 . S
O888 C886 1.263 . S
C889 O890 1.235 . S
C889 O916 1.289 . S
O890 C889 1.235 . S
C891 C893 1.400 . S
C891 N894 1.351 . S
C891 C896 1.501 . S
C892 C893 1.387 . S
C892 N895 1.341 . S
C893 C891 1.400 . S
C893 C892 1.387 . S
N894 Co885 2.022 . S
N894 C891 1.351 . S
N894 N895 1.365 . S
N895 C892 1.341 . S
N895 N894 1.365 . S
N895 H915 0.862 . S
C896 C891 1.501 . S
C896 H897 0.961 . S
C896 H898 0.961 . S
C896 H899 0.960 . S
H897 C896 0.961 . S
H898 C896 0.961 . S
H899 C896 0.960 . S
C900 N901 1.342 . S
C900 C904 1.401 . S
C900 C905 1.499 . S
N901 Co884 1.989 . S
N901 C900 1.342 . S
N901 N902 1.388 . S
N902 Co885 1.993 . S
N902 N901 1.388 . S
N902 C903 1.346 . S
C903 N902 1.346 . S
C903 C904 1.396 . S
C903 C913 1.510 . S
C904 C900 1.401 . S
C904 C903 1.396 . S
C905 C900 1.499 . S
C905 H906 0.959 . S
C905 H907 0.960 . S
C905 H908 0.961 . S
H906 C905 0.959 . S
H907 C905 0.960 . S
H908 C905 0.961 . S
O909 Co884 1.967 . S
O909 C917 1.258 . S
O910 Co885 1.941 . S
O910 C917 1.266 . S
H911 C913 0.959 . S
H912 C913 0.961 . S
C913 C903 1.510 . S
C913 H911 0.959 . S
C913 H912 0.961 . S
C913 H914 0.960 . S
H914 C913 0.960 . S
H915 N895 0.862 . S
O916 Co884 1.920 . S
O916 C889 1.289 . S
C917 O909 1.258 . S
C917 O910 1.266 . S
Co918 O921 1.970 . S
Co918 N935 1.989 . S
Co918 O943 1.967 1_554 S
Co918 O950 1.920 . S
Co919 O922 1.966 . S
Co919 N928 2.022 . S
Co919 N936 1.993 . S
Co919 O944 1.941 1_554 S
C920 O921 1.258 . S
C920 O922 1.263 . S
O921 Co918 1.970 . S
O921 C920 1.258 . S
O922 Co919 1.966 . S
O922 C920 1.263 . S
C923 O924 1.235 . S
C923 O950 1.289 . S
O924 C923 1.235 . S
C925 C927 1.400 . S
C925 N928 1.351 . S
C925 C930 1.501 . S
C926 C927 1.387 . S
C926 N929 1.341 . S
C927 C925 1.400 . S
C927 C926 1.387 . S
N928 Co919 2.022 . S
N928 C925 1.351 . S
N928 N929 1.365 . S
N929 C926 1.341 . S
N929 N928 1.365 . S
N929 H949 0.862 1_554 S
C930 C925 1.501 . S
C930 H931 0.961 . S
C930 H932 0.961 . S
C930 H933 0.960 . S
H931 C930 0.961 . S
H932 C930 0.961 . S
H933 C930 0.960 . S
C934 N935 1.342 . S
C934 C938 1.401 . S
C934 C939 1.499 . S
N935 Co918 1.989 . S
N935 C934 1.342 . S
N935 N936 1.388 . S
N936 Co919 1.993 . S
N936 N935 1.388 . S
N936 C937 1.346 . S
C937 N936 1.346 . S
C937 C938 1.396 . S
C937 C947 1.510 . S
C938 C934 1.401 . S
C938 C937 1.396 . S
C939 C934 1.499 . S
C939 H940 0.959 . S
C939 H941 0.960 . S
C939 H942 0.961 . S
H940 C939 0.959 . S
H941 C939 0.960 . S
H942 C939 0.961 . S
O943 Co918 1.967 1_556 S
O943 C951 1.258 . S
O944 Co919 1.941 1_556 S
O944 C951 1.266 . S
H945 C947 0.959 . S
H946 C947 0.961 . S
C947 C937 1.510 . S
C947 H945 0.959 . S
C947 H946 0.961 . S
C947 H948 0.960 . S
H948 C947 0.960 . S
H949 N929 0.862 1_556 S
O950 Co918 1.920 . S
O950 C923 1.289 . S
C951 O943 1.258 . S
C951 O944 1.266 . S
Co952 O955 1.970 . S
Co952 N969 1.989 . S
Co952 O977 1.967 1_554 S
Co952 O984 1.920 . S
Co953 O956 1.966 . S
Co953 N962 2.022 . S
Co953 N970 1.993 . S
Co953 O978 1.941 1_554 S
C954 O955 1.258 . S
C954 O956 1.263 . S
O955 Co952 1.970 . S
O955 C954 1.258 . S
O956 Co953 1.966 . S
O956 C954 1.263 . S
C957 O958 1.235 . S
C957 O984 1.289 . S
O958 C957 1.235 . S
C959 C961 1.400 . S
C959 N962 1.351 . S
C959 C964 1.501 . S
C960 C961 1.387 . S
C960 N963 1.341 . S
C961 C959 1.400 . S
C961 C960 1.387 . S
N962 Co953 2.022 . S
N962 C959 1.351 . S
N962 N963 1.365 . S
N963 C960 1.341 . S
N963 N962 1.365 . S
N963 H983 0.862 1_554 S
C964 C959 1.501 . S
C964 H965 0.961 . S
C964 H966 0.961 . S
C964 H967 0.960 . S
H965 C964 0.961 . S
H966 C964 0.961 . S
H967 C964 0.960 . S
C968 N969 1.342 . S
C968 C972 1.401 . S
C968 C973 1.499 . S
N969 Co952 1.989 . S
N969 C968 1.342 . S
N969 N970 1.388 . S
N970 Co953 1.993 . S
N970 N969 1.388 . S
N970 C971 1.346 . S
C971 N970 1.346 . S
C971 C972 1.396 . S
C971 C981 1.510 . S
C972 C968 1.401 . S
C972 C971 1.396 . S
C973 C968 1.499 . S
C973 H974 0.959 . S
C973 H975 0.960 . S
C973 H976 0.961 . S
H974 C973 0.959 . S
H975 C973 0.960 . S
H976 C973 0.961 . S
O977 Co952 1.967 1_556 S
O977 C985 1.258 . S
O978 Co953 1.941 1_556 S
O978 C985 1.266 . S
H979 C981 0.959 . S
H980 C981 0.961 . S
C981 C971 1.510 . S
C981 H979 0.959 . S
C981 H980 0.961 . S
C981 H982 0.960 . S
H982 C981 0.960 . S
H983 N963 0.862 1_556 S
O984 Co952 1.920 . S
O984 C957 1.289 . S
C985 O977 1.258 . S
C985 O978 1.266 . S
Co986 O989 1.970 . S
Co986 N1003 1.989 . S
Co986 O1011 1.967 1_554 S
Co986 O1018 1.920 . S
Co987 O990 1.966 . S
Co987 N996 2.022 . S
Co987 N1004 1.993 . S
Co987 O1012 1.941 1_554 S
C988 O989 1.258 . S
C988 O990 1.263 . S
O989 Co986 1.970 . S
O989 C988 1.258 . S
O990 Co987 1.966 . S
O990 C988 1.263 . S
C991 O992 1.235 . S
C991 O1018 1.289 . S
O992 C991 1.235 . S
C993 C995 1.400 . S
C993 N996 1.351 . S
C993 C998 1.501 . S
C994 C995 1.387 . S
C994 N997 1.341 . S
C995 C993 1.400 . S
C995 C994 1.387 . S
N996 Co987 2.022 . S
N996 C993 1.351 . S
N996 N997 1.365 . S
N997 C994 1.341 . S
N997 N996 1.365 . S
N997 H1017 0.862 1_554 S
C998 C993 1.501 . S
C998 H999 0.961 . S
C998 H1000 0.961 . S
C998 H1001 0.960 . S
H999 C998 0.961 . S
H1000 C998 0.961 . S
H1001 C998 0.960 . S
C1002 N1003 1.342 . S
C1002 C1006 1.401 . S
C1002 C1007 1.499 . S
N1003 Co986 1.989 . S
N1003 C1002 1.342 . S
N1003 N1004 1.388 . S
N1004 Co987 1.993 . S
N1004 N1003 1.388 . S
N1004 C1005 1.346 . S
C1005 N1004 1.346 . S
C1005 C1006 1.396 . S
C1005 C1015 1.510 . S
C1006 C1002 1.401 . S
C1006 C1005 1.396 . S
C1007 C1002 1.499 . S
C1007 H1008 0.959 . S
C1007 H1009 0.960 . S
C1007 H1010 0.961 . S
H1008 C1007 0.959 . S
H1009 C1007 0.960 . S
H1010 C1007 0.961 . S
O1011 Co986 1.967 1_556 S
O1011 C1019 1.258 . S
O1012 Co987 1.941 1_556 S
O1012 C1019 1.266 . S
H1013 C1015 0.959 . S
H1014 C1015 0.961 . S
C1015 C1005 1.510 . S
C1015 H1013 0.959 . S
C1015 H1014 0.961 . S
C1015 H1016 0.960 . S
H1016 C1015 0.960 . S
H1017 N997 0.862 1_556 S
O1018 Co986 1.920 . S
O1018 C991 1.289 . S
C1019 O1011 1.258 . S
C1019 O1012 1.266 . S
Co1020 O1023 1.970 . S
Co1020 N1037 1.989 . S
Co1020 O1045 1.967 . S
Co1020 O1052 1.920 . S
Co1021 O1024 1.966 . S
Co1021 N1030 2.022 . S
Co1021 N1038 1.993 . S
Co1021 O1046 1.941 . S
C1022 O1023 1.258 . S
C1022 O1024 1.263 . S
O1023 Co1020 1.970 . S
O1023 C1022 1.258 . S
O1024 Co1021 1.966 . S
O1024 C1022 1.263 . S
C1025 O1026 1.235 . S
C1025 O1052 1.289 . S
O1026 C1025 1.235 . S
C1027 C1029 1.400 . S
C1027 N1030 1.351 . S
C1027 C1032 1.501 . S
C1028 C1029 1.387 . S
C1028 N1031 1.341 . S
C1029 C1027 1.400 . S
C1029 C1028 1.387 . S
N1030 Co1021 2.022 . S
N1030 C1027 1.351 . S
N1030 N1031 1.365 . S
N1031 C1028 1.341 . S
N1031 N1030 1.365 . S
N1031 H1051 0.862 . S
C1032 C1027 1.501 . S
C1032 H1033 0.961 . S
C1032 H1034 0.961 . S
C1032 H1035 0.960 . S
H1033 C1032 0.961 . S
H1034 C1032 0.961 . S
H1035 C1032 0.960 . S
C1036 N1037 1.342 . S
C1036 C1040 1.401 . S
C1036 C1041 1.499 . S
N1037 Co1020 1.989 . S
N1037 C1036 1.342 . S
N1037 N1038 1.388 . S
N1038 Co1021 1.993 . S
N1038 N1037 1.388 . S
N1038 C1039 1.346 . S
C1039 N1038 1.346 . S
C1039 C1040 1.396 . S
C1039 C1049 1.510 . S
C1040 C1036 1.401 . S
C1040 C1039 1.396 . S
C1041 C1036 1.499 . S
C1041 H1042 0.959 . S
C1041 H1043 0.960 . S
C1041 H1044 0.961 . S
H1042 C1041 0.959 . S
H1043 C1041 0.960 . S
H1044 C1041 0.961 . S
O1045 Co1020 1.967 . S
O1045 C1053 1.258 . S
O1046 Co1021 1.941 . S
O1046 C1053 1.266 . S
H1047 C1049 0.959 . S
H1048 C1049 0.961 . S
C1049 C1039 1.510 . S
C1049 H1047 0.959 . S
C1049 H1048 0.961 . S
C1049 H1050 0.960 . S
H1050 C1049 0.960 . S
H1051 N1031 0.862 . S
O1052 Co1020 1.920 . S
O1052 C1025 1.289 . S
C1053 O1045 1.258 . S
C1053 O1046 1.266 . S
Co1054 O1057 1.970 . S
Co1054 N1071 1.989 . S
Co1054 O1079 1.967 . S
Co1054 O1086 1.920 . S
Co1055 O1058 1.966 . S
Co1055 N1064 2.022 . S
Co1055 N1072 1.993 . S
Co1055 O1080 1.941 . S
C1056 O1057 1.258 . S
C1056 O1058 1.263 . S
O1057 Co1054 1.970 . S
O1057 C1056 1.258 . S
O1058 Co1055 1.966 . S
O1058 C1056 1.263 . S
C1059 O1060 1.235 . S
C1059 O1086 1.289 . S
O1060 C1059 1.235 . S
C1061 C1063 1.400 . S
C1061 N1064 1.351 . S
C1061 C1066 1.501 . S
C1062 C1063 1.387 . S
C1062 N1065 1.341 . S
C1063 C1061 1.400 . S
C1063 C1062 1.387 . S
N1064 Co1055 2.022 . S
N1064 C1061 1.351 . S
N1064 N1065 1.365 . S
N1065 C1062 1.341 . S
N1065 N1064 1.365 . S
N1065 H1085 0.862 . S
C1066 C1061 1.501 . S
C1066 H1067 0.961 . S
C1066 H1068 0.961 . S
C1066 H1069 0.960 . S
H1067 C1066 0.961 . S
H1068 C1066 0.961 . S
H1069 C1066 0.960 . S
C1070 N1071 1.342 . S
C1070 C1074 1.401 . S
C1070 C1075 1.499 . S
N1071 Co1054 1.989 . S
N1071 C1070 1.342 . S
N1071 N1072 1.388 . S
N1072 Co1055 1.993 . S
N1072 N1071 1.388 . S
N1072 C1073 1.346 . S
C1073 N1072 1.346 . S
C1073 C1074 1.396 . S
C1073 C1083 1.510 . S
C1074 C1070 1.401 . S
C1074 C1073 1.396 . S
C1075 C1070 1.499 . S
C1075 H1076 0.959 . S
C1075 H1077 0.960 . S
C1075 H1078 0.961 . S
H1076 C1075 0.959 . S
H1077 C1075 0.960 . S
H1078 C1075 0.961 . S
O1079 Co1054 1.967 . S
O1079 C1087 1.258 . S
O1080 Co1055 1.941 . S
O1080 C1087 1.266 . S
H1081 C1083 0.959 . S
H1082 C1083 0.961 . S
C1083 C1073 1.510 . S
C1083 H1081 0.959 . S
C1083 H1082 0.961 . S
C1083 H1084 0.960 . S
H1084 C1083 0.960 . S
H1085 N1065 0.862 . S
O1086 Co1054 1.920 . S
O1086 C1059 1.289 . S
C1087 O1079 1.258 . S
C1087 O1080 1.266 . S
Co1088 O1091 1.970 . S
Co1088 N1105 1.989 . S
Co1088 O1113 1.967 . S
Co1088 O1120 1.920 . S
Co1089 O1092 1.966 . S
Co1089 N1098 2.022 . S
Co1089 N1106 1.993 . S
Co1089 O1114 1.941 . S
C1090 O1091 1.258 . S
C1090 O1092 1.263 . S
O1091 Co1088 1.970 . S
O1091 C1090 1.258 . S
O1092 Co1089 1.966 . S
O1092 C1090 1.263 . S
C1093 O1094 1.235 . S
C1093 O1120 1.289 . S
O1094 C1093 1.235 . S
C1095 C1097 1.400 . S
C1095 N1098 1.351 . S
C1095 C1100 1.501 . S
C1096 C1097 1.387 . S
C1096 N1099 1.341 . S
C1097 C1095 1.400 . S
C1097 C1096 1.387 . S
N1098 Co1089 2.022 . S
N1098 C1095 1.351 . S
N1098 N1099 1.365 . S
N1099 C1096 1.341 . S
N1099 N1098 1.365 . S
N1099 H1119 0.862 . S
C1100 C1095 1.501 . S
C1100 H1101 0.961 . S
C1100 H1102 0.961 . S
C1100 H1103 0.960 . S
H1101 C1100 0.961 . S
H1102 C1100 0.961 . S
H1103 C1100 0.960 . S
C1104 N1105 1.342 . S
C1104 C1108 1.401 . S
C1104 C1109 1.499 . S
N1105 Co1088 1.989 . S
N1105 C1104 1.342 . S
N1105 N1106 1.388 . S
N1106 Co1089 1.993 . S
N1106 N1105 1.388 . S
N1106 C1107 1.346 . S
C1107 N1106 1.346 . S
C1107 C1108 1.396 . S
C1107 C1117 1.510 . S
C1108 C1104 1.401 . S
C1108 C1107 1.396 . S
C1109 C1104 1.499 . S
C1109 H1110 0.959 . S
C1109 H1111 0.960 . S
C1109 H1112 0.961 . S
H1110 C1109 0.959 . S
H1111 C1109 0.960 . S
H1112 C1109 0.961 . S
O1113 Co1088 1.967 . S
O1113 C1121 1.258 . S
O1114 Co1089 1.941 . S
O1114 C1121 1.266 . S
H1115 C1117 0.959 . S
H1116 C1117 0.961 . S
C1117 C1107 1.510 . S
C1117 H1115 0.959 . S
C1117 H1116 0.961 . S
C1117 H1118 0.960 . S
H1118 C1117 0.960 . S
H1119 N1099 0.862 . S
O1120 Co1088 1.920 . S
O1120 C1093 1.289 . S
C1121 O1113 1.258 . S
C1121 O1114 1.266 . S
Co1122 O1125 1.970 . S
Co1122 N1139 1.989 . S
Co1122 O1147 1.967 . S
Co1122 O1154 1.920 . S
Co1123 O1126 1.966 . S
Co1123 N1132 2.022 . S
Co1123 N1140 1.993 . S
Co1123 O1148 1.941 . S
C1124 O1125 1.258 . S
C1124 O1126 1.263 . S
O1125 Co1122 1.970 . S
O1125 C1124 1.258 . S
O1126 Co1123 1.966 . S
O1126 C1124 1.263 . S
C1127 O1128 1.235 . S
C1127 O1154 1.289 . S
O1128 C1127 1.235 . S
C1129 C1131 1.400 . S
C1129 N1132 1.351 . S
C1129 C1134 1.501 . S
C1130 C1131 1.387 . S
C1130 N1133 1.341 . S
C1131 C1129 1.400 . S
C1131 C1130 1.387 . S
N1132 Co1123 2.022 . S
N1132 C1129 1.351 . S
N1132 N1133 1.365 . S
N1133 C1130 1.341 . S
N1133 N1132 1.365 . S
N1133 H1153 0.862 . S
C1134 C1129 1.501 . S
C1134 H1135 0.961 . S
C1134 H1136 0.961 . S
C1134 H1137 0.960 . S
H1135 C1134 0.961 . S
H1136 C1134 0.961 . S
H1137 C1134 0.960 . S
C1138 N1139 1.342 . S
C1138 C1142 1.401 . S
C1138 C1143 1.499 . S
N1139 Co1122 1.989 . S
N1139 C1138 1.342 . S
N1139 N1140 1.388 . S
N1140 Co1123 1.993 . S
N1140 N1139 1.388 . S
N1140 C1141 1.346 . S
C1141 N1140 1.346 . S
C1141 C1142 1.396 . S
C1141 C1151 1.510 . S
C1142 C1138 1.401 . S
C1142 C1141 1.396 . S
C1143 C1138 1.499 . S
C1143 H1144 0.959 . S
C1143 H1145 0.960 . S
C1143 H1146 0.961 . S
H1144 C1143 0.959 . S
H1145 C1143 0.960 . S
H1146 C1143 0.961 . S
O1147 Co1122 1.967 . S
O1147 C1155 1.258 . S
O1148 Co1123 1.941 . S
O1148 C1155 1.266 . S
H1149 C1151 0.959 . S
H1150 C1151 0.961 . S
C1151 C1141 1.510 . S
C1151 H1149 0.959 . S
C1151 H1150 0.961 . S
C1151 H1152 0.960 . S
H1152 C1151 0.960 . S
H1153 N1133 0.862 . S
O1154 Co1122 1.920 . S
O1154 C1127 1.289 . S
C1155 O1147 1.258 . S
C1155 O1148 1.266 . S
Co1156 O1159 1.970 . S
Co1156 N1173 1.989 . S
Co1156 O1181 1.967 . S
Co1156 O1188 1.920 . S
Co1157 O1160 1.966 . S
Co1157 N1166 2.022 . S
Co1157 N1174 1.993 . S
Co1157 O1182 1.941 . S
C1158 O1159 1.258 . S
C1158 O1160 1.263 . S
O1159 Co1156 1.970 . S
O1159 C1158 1.258 . S
O1160 Co1157 1.966 . S
O1160 C1158 1.263 . S
C1161 O1162 1.235 . S
C1161 O1188 1.289 . S
O1162 C1161 1.235 . S
C1163 C1165 1.400 . S
C1163 N1166 1.351 . S
C1163 C1168 1.501 . S
C1164 C1165 1.387 . S
C1164 N1167 1.341 . S
C1165 C1163 1.400 . S
C1165 C1164 1.387 . S
N1166 Co1157 2.022 . S
N1166 C1163 1.351 . S
N1166 N1167 1.365 . S
N1167 C1164 1.341 . S
N1167 N1166 1.365 . S
N1167 H1187 0.862 . S
C1168 C1163 1.501 . S
C1168 H1169 0.961 . S
C1168 H1170 0.961 . S
C1168 H1171 0.960 . S
H1169 C1168 0.961 . S
H1170 C1168 0.961 . S
H1171 C1168 0.960 . S
C1172 N1173 1.342 . S
C1172 C1176 1.401 . S
C1172 C1177 1.499 . S
N1173 Co1156 1.989 . S
N1173 C1172 1.342 . S
N1173 N1174 1.388 . S
N1174 Co1157 1.993 . S
N1174 N1173 1.388 . S
N1174 C1175 1.346 . S
C1175 N1174 1.346 . S
C1175 C1176 1.396 . S
C1175 C1185 1.510 . S
C1176 C1172 1.401 . S
C1176 C1175 1.396 . S
C1177 C1172 1.499 . S
C1177 H1178 0.959 . S
C1177 H1179 0.960 . S
C1177 H1180 0.961 . S
H1178 C1177 0.959 . S
H1179 C1177 0.960 . S
H1180 C1177 0.961 . S
O1181 Co1156 1.967 . S
O1181 C1189 1.258 . S
O1182 Co1157 1.941 . S
O1182 C1189 1.266 . S
H1183 C1185 0.959 . S
H1184 C1185 0.961 . S
C1185 C1175 1.510 . S
C1185 H1183 0.959 . S
C1185 H1184 0.961 . S
C1185 H1186 0.960 . S
H1186 C1185 0.960 . S
H1187 N1167 0.862 . S
O1188 Co1156 1.920 . S
O1188 C1161 1.289 . S
C1189 O1181 1.258 . S
C1189 O1182 1.266 . S
Co1190 O1193 1.970 . S
Co1190 N1207 1.989 . S
Co1190 O1215 1.967 . S
Co1190 O1222 1.920 . S
Co1191 O1194 1.966 . S
Co1191 N1200 2.022 . S
Co1191 N1208 1.993 . S
Co1191 O1216 1.941 . S
C1192 O1193 1.258 . S
C1192 O1194 1.263 . S
O1193 Co1190 1.970 . S
O1193 C1192 1.258 . S
O1194 Co1191 1.966 . S
O1194 C1192 1.263 . S
C1195 O1196 1.235 . S
C1195 O1222 1.289 . S
O1196 C1195 1.235 . S
C1197 C1199 1.400 . S
C1197 N1200 1.351 . S
C1197 C1202 1.501 . S
C1198 C1199 1.387 . S
C1198 N1201 1.341 . S
C1199 C1197 1.400 . S
C1199 C1198 1.387 . S
N1200 Co1191 2.022 . S
N1200 C1197 1.351 . S
N1200 N1201 1.365 . S
N1201 C1198 1.341 . S
N1201 N1200 1.365 . S
N1201 H1221 0.862 . S
C1202 C1197 1.501 . S
C1202 H1203 0.961 . S
C1202 H1204 0.961 . S
C1202 H1205 0.960 . S
H1203 C1202 0.961 . S
H1204 C1202 0.961 . S
H1205 C1202 0.960 . S
C1206 N1207 1.342 . S
C1206 C1210 1.401 . S
C1206 C1211 1.499 . S
N1207 Co1190 1.989 . S
N1207 C1206 1.342 . S
N1207 N1208 1.388 . S
N1208 Co1191 1.993 . S
N1208 N1207 1.388 . S
N1208 C1209 1.346 . S
C1209 N1208 1.346 . S
C1209 C1210 1.396 . S
C1209 C1219 1.510 . S
C1210 C1206 1.401 . S
C1210 C1209 1.396 . S
C1211 C1206 1.499 . S
C1211 H1212 0.959 . S
C1211 H1213 0.960 . S
C1211 H1214 0.961 . S
H1212 C1211 0.959 . S
H1213 C1211 0.960 . S
H1214 C1211 0.961 . S
O1215 Co1190 1.967 . S
O1215 C1223 1.258 . S
O1216 Co1191 1.941 . S
O1216 C1223 1.266 . S
H1217 C1219 0.959 . S
H1218 C1219 0.961 . S
C1219 C1209 1.510 . S
C1219 H1217 0.959 . S
C1219 H1218 0.961 . S
C1219 H1220 0.960 . S
H1220 C1219 0.960 . S
H1221 N1201 0.862 . S
O1222 Co1190 1.920 . S
O1222 C1195 1.289 . S
C1223 O1215 1.258 . S
C1223 O1216 1.266 . S
C9 C70 2.419 . S
C43 C2 2.419 . S
C77 C36 2.419 . S
C111 C138 2.419 . S
C145 C172 2.419 . S
C179 C104 2.419 . S
C274 C213 2.419 . S
C206 C247 2.419 . S
C240 C281 2.419 . S
C342 C315 2.419 . S
C349 C376 2.419 . S
C308 C383 2.419 . S
C417 C478 2.419 . S
C410 C451 2.419 . S
C485 C444 2.419 . S
C519 C546 2.419 . S
C553 C580 2.419 . S
C587 C512 2.419 . S
C682 C621 2.419 . S
C655 C614 2.419 . S
C648 C689 2.419 . S
C723 C750 2.419 . S
C757 C784 2.419 . S
C791 C716 2.419 . S
C825 C886 2.419 . S
C818 C859 2.419 . S
C852 C893 2.419 . S
C954 C927 2.419 . S
C988 C961 2.419 . S
C920 C995 2.419 . S
C1090 C1029 2.419 . S
C1022 C1063 2.419 . S
C1097 C1056 2.419 . S
C1158 C1131 2.419 . S
C1192 C1165 2.419 . S
C1124 C1199 2.419 . S
C169 C33 1.194 1_655 S
C203 C67 1.194 . S
C101 C135 1.194 1_565 S
C373 C237 1.194 1_455 S
C271 C407 1.194 . S
C305 C339 1.194 1_545 S
C441 C577 1.194 . S
C611 C475 1.193 . S
C543 C509 1.194 . S
C645 C781 1.194 . S
C679 C815 1.194 . S
C747 C713 1.194 . S
C849 C985 1.194 . S
C883 C1019 1.194 . S
C951 C917 1.194 . S
C1053 C1189 1.194 . S
C1087 C1223 1.193 . S
C1155 C1121 1.194 . S
C1006 C20 2.209 . S
C938 C54 2.210 . S
C88 C972 2.210 . S
C122 C462 2.210 . S
C496 C156 2.210 . S
C190 C428 2.209 . S
C224 C802 2.209 . S
C258 C734 2.210 . S
C768 C292 2.210 . S
C1074 C326 2.210 . S
C360 C1108 2.210 . S
C394 C1040 2.209 . S
C870 C530 2.210 1_455 S
C564 C904 2.210 . S
C836 C598 2.209 1_565 S
C632 C1210 2.209 1_545 S
C666 C1142 2.210 1_655 S
C700 C1176 2.210 . S
C5 C617 2.521 . S
C651 C39 2.521 . S
C685 C73 2.521 . S
C107 C1127 2.521 . S
C1161 C141 2.521 . S
C175 C1195 2.521 . S
C821 C209 2.521 . S
C243 C855 2.521 . S
C277 C889 2.521 . S
C311 C515 2.521 . S
C345 C549 2.521 . S
C583 C379 2.521 . S
C1025 C413 2.520 . S
C447 C1059 2.521 1_545 S
C481 C1093 2.521 1_655 S
C719 C923 2.521 1_556 S
C753 C957 2.521 1_546 S
C991 C787 2.521 1_454 S
