# Generated by pormake.
# Topology ukk, (4)-cn, num edge types: 1
# Building blocks:
#     Node 0, Type 0, BuildingBlock: CEKHIL_clean_sbu_0, # of connection points: 4
#     Node 1, Type 0, BuildingBlock: CEKHIL_clean_sbu_0, # of connection points: 4
#     Node 2, Type 0, BuildingBlock: CEKHIL_clean_sbu_0, # of connection points: 4
#     Node 3, Type 0, BuildingBlock: CEKHIL_clean_sbu_0, # of connection points: 4
#     Node 4, Type 0, BuildingBlock: CEKHIL_clean_sbu_0, # of connection points: 4
#     Node 5, Type 0, BuildingBlock: CEKHIL_clean_sbu_0, # of connection points: 4
#     Node 6, Type 0, BuildingBlock: CEKHIL_clean_sbu_0, # of connection points: 4
#     Node 7, Type 0, BuildingBlock: CEKHIL_clean_sbu_0, # of connection points: 4
#     Node 8, Type 0, BuildingBlock: CEKHIL_clean_sbu_0, # of connection points: 4
#     Node 9, Type 0, BuildingBlock: CEKHIL_clean_sbu_0, # of connection points: 4
#     Node 10, Type 0, BuildingBlock: CEKHIL_clean_sbu_0, # of connection points: 4
#     Node 11, Type 0, BuildingBlock: CEKHIL_clean_sbu_0, # of connection points: 4
#     Node 12, Type 0, BuildingBlock: CEKHIL_clean_sbu_0, # of connection points: 4
#     Node 13, Type 0, BuildingBlock: CEKHIL_clean_sbu_0, # of connection points: 4
#     Node 14, Type 0, BuildingBlock: CEKHIL_clean_sbu_0, # of connection points: 4
#     Node 15, Type 0, BuildingBlock: CEKHIL_clean_sbu_0, # of connection points: 4
#     Edge 16, Type (0, 0), BuildingBlock: CIFDUS_clean_linker_0, # of connection points: 2
#     Edge 17, Type (0, 0), BuildingBlock: CIFDUS_clean_linker_0, # of connection points: 2
#     Edge 18, Type (0, 0), BuildingBlock: CIFDUS_clean_linker_0, # of connection points: 2
#     Edge 19, Type (0, 0), BuildingBlock: CIFDUS_clean_linker_0, # of connection points: 2
#     Edge 20, Type (0, 0), BuildingBlock: CIFDUS_clean_linker_0, # of connection points: 2
#     Edge 21, Type (0, 0), BuildingBlock: CIFDUS_clean_linker_0, # of connection points: 2
#     Edge 22, Type (0, 0), BuildingBlock: CIFDUS_clean_linker_0, # of connection points: 2
#     Edge 23, Type (0, 0), BuildingBlock: CIFDUS_clean_linker_0, # of connection points: 2
#     Edge 24, Type (0, 0), BuildingBlock: CIFDUS_clean_linker_0, # of connection points: 2
#     Edge 25, Type (0, 0), BuildingBlock: CIFDUS_clean_linker_0, # of connection points: 2
#     Edge 26, Type (0, 0), BuildingBlock: CIFDUS_clean_linker_0, # of connection points: 2
#     Edge 27, Type (0, 0), BuildingBlock: CIFDUS_clean_linker_0, # of connection points: 2
#     Edge 28, Type (0, 0), BuildingBlock: CIFDUS_clean_linker_0, # of connection points: 2
#     Edge 29, Type (0, 0), BuildingBlock: CIFDUS_clean_linker_0, # of connection points: 2
#     Edge 30, Type (0, 0), BuildingBlock: CIFDUS_clean_linker_0, # of connection points: 2
#     Edge 31, Type (0, 0), BuildingBlock: CIFDUS_clean_linker_0, # of connection points: 2
#     Edge 32, Type (0, 0), BuildingBlock: CIFDUS_clean_linker_0, # of connection points: 2
#     Edge 33, Type (0, 0), BuildingBlock: CIFDUS_clean_linker_0, # of connection points: 2
#     Edge 34, Type (0, 0), BuildingBlock: CIFDUS_clean_linker_0, # of connection points: 2
#     Edge 35, Type (0, 0), BuildingBlock: CIFDUS_clean_linker_0, # of connection points: 2
#     Edge 36, Type (0, 0), BuildingBlock: CIFDUS_clean_linker_0, # of connection points: 2
#     Edge 37, Type (0, 0), BuildingBlock: CIFDUS_clean_linker_0, # of connection points: 2
#     Edge 38, Type (0, 0), BuildingBlock: CIFDUS_clean_linker_0, # of connection points: 2
#     Edge 39, Type (0, 0), BuildingBlock: CIFDUS_clean_linker_0, # of connection points: 2
#     Edge 40, Type (0, 0), BuildingBlock: CIFDUS_clean_linker_0, # of connection points: 2
#     Edge 41, Type (0, 0), BuildingBlock: CIFDUS_clean_linker_0, # of connection points: 2
#     Edge 42, Type (0, 0), BuildingBlock: CIFDUS_clean_linker_0, # of connection points: 2
#     Edge 43, Type (0, 0), BuildingBlock: CIFDUS_clean_linker_0, # of connection points: 2
#     Edge 44, Type (0, 0), BuildingBlock: CIFDUS_clean_linker_0, # of connection points: 2
#     Edge 45, Type (0, 0), BuildingBlock: CIFDUS_clean_linker_0, # of connection points: 2
#     Edge 46, Type (0, 0), BuildingBlock: CIFDUS_clean_linker_0, # of connection points: 2
#     Edge 47, Type (0, 0), BuildingBlock: CIFDUS_clean_linker_0, # of connection points: 2
# Relax obj value: 0.118
# Max RMSD: 0.293
# Mean RMSD: 0.293
data_MOF--net-ukk--node1-CEKHIL_clean_sbu_0--edge1-CIFDUS_clean_linker_0
_symmetry_space_group_name_H-M    P1
_symmetry_Int_Tables_number       1
_symmetry_cell_setting            triclinic
loop_
_symmetry_equiv_pos_as_xyz
'x, y, z'
_cell_length_a     47.036657
_cell_length_b     47.045638
_cell_length_c     14.276824
_cell_angle_alpha  89.862218
_cell_angle_beta   89.886513
_cell_angle_gamma 90.003757
loop_
_atom_site_label
_atom_site_type_symbol
_atom_site_fract_x
_atom_site_fract_y
_atom_site_fract_z
_atom_type_partial_charge
Co0 Co 0.3523 0.11098 0.17744 0.0
O1 O 0.31157 0.11084 0.17538 0.0
O2 O 0.33897 0.11301 0.0492 0.0
C3 C 0.35721 0.07461 0.27798 0.0
O4 O 0.39526 0.11067 0.15451 0.0
Co5 Co 0.38212 0.1264 0.36246 0.0
O6 O 0.41578 0.11061 0.29695 0.0
C7 C 0.35868 0.17228 0.24644 0.0
C8 C 0.31347 0.11217 0.08498 0.0
C9 C 0.41709 0.10817 0.20821 0.0
O10 O 0.3524 0.15362 0.1844 0.0
O11 O 0.36903 0.16574 0.32656 0.0
O12 O 0.3531 0.07007 0.18955 0.0
O13 O 0.35493 0.10074 0.30547 0.0
Co14 Co 0.10794 0.64148 0.90212 0.0
O15 O 0.10538 0.6817 0.91936 0.0
O16 O 0.1172 0.65078 0.03019 0.0
C17 C 0.06706 0.63515 0.8266 0.0
O18 O 0.11163 0.59816 0.90759 0.0
Co19 Co 0.11498 0.61953 0.69962 0.0
O20 O 0.10327 0.58334 0.76015 0.0
C21 C 0.16471 0.64239 0.79583 0.0
C22 C 0.1128 0.67709 0.00545 0.0
C23 C 0.10613 0.57851 0.84751 0.0
O24 O 0.14895 0.64528 0.86836 0.0
O25 O 0.15507 0.63388 0.7169 0.0
O26 O 0.06752 0.63743 0.91713 0.0
O27 O 0.0906 0.64119 0.78335 0.0
Co28 Co 0.65106 0.88732 0.15066 0.0
O29 O 0.69133 0.89322 0.1439 0.0
O30 O 0.664 0.88334 0.0222 0.0
C31 C 0.64164 0.92514 0.24067 0.0
O32 O 0.6084 0.88046 0.13272 0.0
Co33 Co 0.62422 0.87303 0.34115 0.0
O34 O 0.58828 0.88252 0.2756 0.0
C35 C 0.65265 0.82761 0.23589 0.0
C36 C 0.68934 0.88847 0.05486 0.0
C37 C 0.58645 0.88164 0.18669 0.0
O38 O 0.65722 0.84563 0.17011 0.0
O39 O 0.64106 0.83445 0.31389 0.0
O40 O 0.64421 0.92779 0.15062 0.0
O41 O 0.64784 0.90046 0.27548 0.0
Co42 Co 0.89864 0.35419 0.84149 0.0
O43 O 0.90213 0.31365 0.84389 0.0
O44 O 0.8991 0.34047 0.97042 0.0
C45 C 0.93323 0.36227 0.73617 0.0
O46 O 0.89564 0.39729 0.86194 0.0
Co47 Co 0.8774 0.3809 0.65805 0.0
O48 O 0.89126 0.41625 0.71745 0.0
C49 C 0.83547 0.3561 0.78572 0.0
C50 C 0.90126 0.31511 0.93429 0.0
C51 C 0.89514 0.41872 0.80532 0.0
O52 O 0.85607 0.35077 0.84172 0.0
O53 O 0.83933 0.36685 0.7042 0.0
O54 O 0.93912 0.35854 0.82397 0.0
O55 O 0.90713 0.35727 0.71189 0.0
Co56 Co 0.35701 0.38898 0.08586 0.0
O57 O 0.31627 0.39163 0.08328 0.0
O58 O 0.34218 0.388 0.21218 0.0
C59 C 0.36579 0.42469 0.98518 0.0
O60 O 0.39955 0.38675 0.11442 0.0
Co61 Co 0.3878 0.37094 0.90342 0.0
O62 O 0.42224 0.38047 0.97659 0.0
C63 C 0.36029 0.32717 0.01876 0.0
C64 C 0.31716 0.39035 0.17393 0.0
C65 C 0.42233 0.38464 0.06475 0.0
O66 O 0.35476 0.34632 0.08004 0.0
O67 O 0.37141 0.33284 0.93893 0.0
O68 O 0.36046 0.42979 0.07265 0.0
O69 O 0.36226 0.39864 0.9584 0.0
Co70 Co 0.38413 0.64589 0.87324 0.0
O71 O 0.38765 0.68639 0.87307 0.0
O72 O 0.37858 0.66043 0.74736 0.0
C73 C 0.423 0.6371 0.95835 0.0
O74 O 0.37972 0.60322 0.84982 0.0
Co75 Co 0.37296 0.61624 0.06386 0.0
O76 O 0.38378 0.58204 0.99099 0.0
C77 C 0.32546 0.64357 0.96518 0.0
C78 C 0.38269 0.68546 0.78397 0.0
C79 C 0.38253 0.58097 0.90188 0.0
O80 O 0.34234 0.64914 0.89702 0.0
O81 O 0.33373 0.63222 0.0421 0.0
O82 O 0.42497 0.64159 0.86894 0.0
O83 O 0.39827 0.64132 0.99567 0.0
Co84 Co 0.64377 0.6125 0.10727 0.0
O85 O 0.68273 0.60405 0.13285 0.0
O86 O 0.65061 0.61605 0.23985 0.0
C87 C 0.6352 0.57533 0.0139 0.0
O88 O 0.60165 0.62191 0.10648 0.0
Co89 Co 0.62654 0.62855 0.9067 0.0
O90 O 0.58773 0.62109 0.95591 0.0
C91 C 0.65303 0.67196 0.0247 0.0
C92 C 0.67676 0.60928 0.21983 0.0
C93 C 0.58229 0.62186 0.04329 0.0
O94 O 0.65341 0.65367 0.09133 0.0
O95 O 0.64461 0.66593 0.94188 0.0
O96 O 0.63416 0.5727 0.10432 0.0
O97 O 0.64482 0.59932 0.98198 0.0
Co98 Co 0.60683 0.35635 0.87931 0.0
O99 O 0.6056 0.31632 0.85756 0.0
O100 O 0.604 0.34905 0.74595 0.0
C101 C 0.57443 0.35682 0.99467 0.0
O102 O 0.60655 0.39981 0.87882 0.0
Co103 Co 0.6302 0.37666 0.06814 0.0
O104 O 0.61153 0.41264 0.02975 0.0
C105 C 0.6706 0.35873 0.92385 0.0
C106 C 0.60386 0.32223 0.76918 0.0
C107 C 0.60579 0.41845 0.94467 0.0
O108 O 0.64942 0.35586 0.86829 0.0
O109 O 0.66764 0.36506 0.01051 0.0
O110 O 0.56674 0.35685 0.90758 0.0
O111 O 0.6013 0.35293 0.01054 0.0
Co112 Co 0.84913 0.60986 0.64708 0.0
O113 O 0.80941 0.60579 0.62307 0.0
O114 O 0.84238 0.61316 0.51424 0.0
C115 C 0.85353 0.57232 0.74358 0.0
O116 O 0.89209 0.61423 0.64681 0.0
Co117 Co 0.86803 0.62499 0.84685 0.0
O118 O 0.90518 0.6116 0.7979 0.0
C119 C 0.84751 0.67076 0.72444 0.0
C120 C 0.81571 0.60932 0.53537 0.0
C121 C 0.91107 0.61154 0.71072 0.0
O122 O 0.84456 0.65221 0.65941 0.0
O123 O 0.85517 0.66417 0.80777 0.0
O124 O 0.85393 0.56907 0.65347 0.0
O125 O 0.84691 0.5975 0.77337 0.0
Co126 Co 0.60447 0.14506 0.36102 0.0
O127 O 0.60089 0.18516 0.38031 0.0
O128 O 0.60358 0.1531 0.49388 0.0
C129 C 0.57036 0.14112 0.2526 0.0
O130 O 0.60724 0.10167 0.36532 0.0
Co131 Co 0.6264 0.12462 0.1705 0.0
O132 O 0.61178 0.08747 0.21552 0.0
C133 C 0.66773 0.14581 0.30613 0.0
C134 C 0.60143 0.17971 0.46925 0.0
C135 C 0.6075 0.08223 0.30195 0.0
O136 O 0.64699 0.14852 0.36375 0.0
O137 O 0.66415 0.13806 0.22106 0.0
O138 O 0.56416 0.14151 0.34107 0.0
O139 O 0.59658 0.14679 0.23077 0.0
Co140 Co 0.15198 0.39697 0.64006 0.0
O141 O 0.1926 0.3971 0.63571 0.0
O142 O 0.16485 0.39982 0.51094 0.0
C143 C 0.14785 0.42868 0.75608 0.0
O144 O 0.10879 0.39808 0.62159 0.0
Co145 Co 0.12413 0.37339 0.82101 0.0
O146 O 0.08929 0.38941 0.76347 0.0
C147 C 0.14696 0.33349 0.68276 0.0
C148 C 0.19047 0.39891 0.54555 0.0
C149 C 0.08725 0.39639 0.67743 0.0
O150 O 0.1517 0.35459 0.6281 0.0
O151 O 0.13813 0.33634 0.76714 0.0
O152 O 0.1515 0.437 0.67024 0.0
O153 O 0.15009 0.40164 0.77111 0.0
Co154 Co 0.38922 0.85537 0.33771 0.0
O155 O 0.38892 0.81462 0.33298 0.0
O156 O 0.38549 0.84007 0.46291 0.0
C157 C 0.42687 0.86211 0.24232 0.0
O158 O 0.38962 0.89787 0.36777 0.0
Co159 Co 0.37498 0.88764 0.15503 0.0
O160 O 0.38738 0.92093 0.22921 0.0
C161 C 0.32821 0.86327 0.26485 0.0
C162 C 0.38628 0.81515 0.42334 0.0
C163 C 0.39046 0.9207 0.31786 0.0
O164 O 0.34654 0.85613 0.32703 0.0
O165 O 0.33526 0.87435 0.18612 0.0
O166 O 0.43038 0.85588 0.32999 0.0
O167 O 0.40094 0.86056 0.2119 0.0
Co168 Co 0.85173 0.88804 0.5761 0.0
O169 O 0.81109 0.88963 0.58273 0.0
O170 O 0.83935 0.88532 0.70571 0.0
C171 C 0.85729 0.92514 0.47798 0.0
O172 O 0.89493 0.88664 0.5934 0.0
Co173 Co 0.87844 0.87233 0.38714 0.0
O174 O 0.91334 0.88702 0.44764 0.0
C175 C 0.85458 0.82672 0.50279 0.0
C176 C 0.81359 0.8871 0.67261 0.0
C177 C 0.91603 0.88891 0.53616 0.0
O178 O 0.84996 0.84539 0.56636 0.0
O179 O 0.86428 0.83322 0.42164 0.0
O180 O 0.85414 0.92901 0.56722 0.0
O181 O 0.85338 0.89937 0.44851 0.0
Co182 Co 0.89648 0.14578 0.38738 0.0
O183 O 0.89998 0.18644 0.38942 0.0
O184 O 0.89845 0.16055 0.26039 0.0
C185 C 0.92971 0.13631 0.49608 0.0
O186 O 0.89371 0.10294 0.36153 0.0
Co187 Co 0.87271 0.1175 0.567 0.0
O188 O 0.88262 0.08211 0.49962 0.0
C189 C 0.8328 0.14447 0.43746 0.0
C190 C 0.90021 0.18561 0.29877 0.0
C191 C 0.88923 0.08081 0.41313 0.0
O192 O 0.85388 0.14913 0.38241 0.0
O193 O 0.8358 0.13386 0.51952 0.0
O194 O 0.93681 0.14138 0.40988 0.0
O195 O 0.90325 0.14085 0.51697 0.0
Co196 Co 0.1489 0.10708 0.61938 0.0
O197 O 0.18913 0.10084 0.62301 0.0
O198 O 0.16205 0.1079 0.74789 0.0
C199 C 0.13867 0.07199 0.51995 0.0
O200 O 0.10631 0.11364 0.64053 0.0
Co201 Co 0.12197 0.12688 0.43439 0.0
O202 O 0.08635 0.11475 0.49752 0.0
C203 C 0.14991 0.16906 0.55385 0.0
C204 C 0.18733 0.1036 0.71306 0.0
C205 C 0.08443 0.11344 0.58639 0.0
O206 O 0.15519 0.14897 0.61182 0.0
O207 O 0.13779 0.16482 0.47484 0.0
O208 O 0.1418 0.06693 0.60871 0.0
O209 O 0.14512 0.09737 0.49148 0.0
Co210 Co 0.11054 0.85549 0.40369 0.0
O211 O 0.1115 0.81542 0.38338 0.0
O212 O 0.11481 0.84788 0.27105 0.0
C213 C 0.07255 0.85571 0.49916 0.0
O214 O 0.1093 0.89892 0.40175 0.0
Co215 Co 0.12354 0.87667 0.60255 0.0
O216 O 0.10528 0.91162 0.55314 0.0
C217 C 0.1712 0.85988 0.48234 0.0
C218 C 0.11426 0.82113 0.29508 0.0
C219 C 0.10409 0.9174 0.46597 0.0
O220 O 0.1531 0.85601 0.41654 0.0
O221 O 0.16379 0.86654 0.56585 0.0
O222 O 0.06952 0.85509 0.40902 0.0
O223 O 0.09833 0.85255 0.52983 0.0
H224 H 0.3487 0.95063 0.39966 0.0
H225 H 0.43739 0.95396 0.32563 0.0
H226 H 0.4363 0.00582 0.3292 0.0
H227 H 0.40697 0.04877 0.31179 0.0
H228 H 0.31759 0.04526 0.37486 0.0
H229 H 0.32194 0.99523 0.41995 0.0
C230 C 0.36808 0.96279 0.38946 0.0
C231 C 0.39305 0.9487 0.36215 0.0
C232 C 0.36691 0.99265 0.38789 0.0
C233 C 0.41796 0.96446 0.34686 0.0
C234 C 0.41725 0.99414 0.34796 0.0
C235 C 0.38885 0.03735 0.34014 0.0
C236 C 0.36208 0.05045 0.34086 0.0
C237 C 0.3914 0.00836 0.36225 0.0
C238 C 0.33847 0.03553 0.37536 0.0
C239 C 0.34091 0.00684 0.39985 0.0
H240 H 0.03559 0.65209 0.67577 0.0
H241 H 0.04399 0.58663 0.88557 0.0
H242 H 0.99739 0.56795 0.84667 0.0
H243 H 0.95072 0.57748 0.78246 0.0
H244 H 0.93881 0.64599 0.5861 0.0
H245 H 0.99001 0.65605 0.58819 0.0
C246 C 0.02746 0.63315 0.71 0.0
C247 C 0.04301 0.62056 0.78293 0.0
C248 C 0.99971 0.62351 0.69105 0.0
C249 C 0.03234 0.59635 0.82848 0.0
C250 C 0.0056 0.58584 0.80696 0.0
C251 C 0.95957 0.59395 0.73769 0.0
C252 C 0.94132 0.61129 0.68561 0.0
C253 C 0.98852 0.60028 0.74262 0.0
C254 C 0.95271 0.63243 0.62693 0.0
C255 C 0.98189 0.63838 0.62906 0.0
H256 H 0.59241 0.95351 0.24697 0.0
H257 H 0.67776 0.95347 0.35474 0.0
H258 H 0.67248 0.00311 0.40391 0.0
H259 H 0.64686 0.04871 0.38414 0.0
H260 H 0.56229 0.04828 0.26918 0.0
H261 H 0.56335 0.99666 0.25779 0.0
C262 C 0.60933 0.96413 0.28487 0.0
C263 C 0.63533 0.95017 0.29786 0.0
C264 C 0.60628 0.9927 0.31077 0.0
C265 C 0.65743 0.96392 0.34552 0.0
C266 C 0.65449 0.99235 0.37256 0.0
C267 C 0.62827 0.0371 0.36067 0.0
C268 C 0.6045 0.05213 0.32767 0.0
C269 C 0.62949 0.00735 0.35124 0.0
C270 C 0.58072 0.03711 0.29531 0.0
C271 C 0.58144 0.00757 0.288 0.0
H272 H 0.05484 0.35844 0.58538 0.0
H273 H 0.05418 0.44276 0.70182 0.0
H274 H 0.00233 0.44199 0.70918 0.0
H275 H 0.95942 0.41246 0.72108 0.0
H276 H 0.96002 0.32711 0.61441 0.0
H277 H 0.00933 0.33306 0.56218 0.0
C278 C 0.04316 0.37715 0.60754 0.0
C279 C 0.05815 0.40066 0.64276 0.0
C280 C 0.01333 0.37602 0.61506 0.0
C281 C 0.04301 0.42456 0.67372 0.0
C282 C 0.01336 0.42397 0.67893 0.0
C283 C 0.96995 0.3958 0.68189 0.0
C284 C 0.95626 0.36954 0.67076 0.0
C285 C 0.99852 0.39914 0.65538 0.0
C286 C 0.97011 0.34768 0.6221 0.0
C287 C 0.99844 0.35097 0.59358 0.0
H288 H 0.33654 0.45981 0.87072 0.0
H289 H 0.42024 0.44168 0.97594 0.0
H290 H 0.43581 0.48973 0.9368 0.0
H291 H 0.42159 0.53927 0.9112 0.0
H292 H 0.33753 0.55838 0.81046 0.0
H293 H 0.32614 0.5076 0.80616 0.0
C294 C 0.35855 0.46605 0.88026 0.0
C295 C 0.37735 0.44742 0.92585 0.0
C296 C 0.36704 0.49408 0.85989 0.0
C297 C 0.40562 0.4557 0.94017 0.0
C298 C 0.4144 0.48329 0.91871 0.0
C299 C 0.4013 0.53219 0.88393 0.0
C300 C 0.38037 0.55234 0.86152 0.0
C301 C 0.39476 0.5031 0.8841 0.0
C302 C 0.35402 0.5431 0.82712 0.0
C303 C 0.3474 0.51409 0.82601 0.0
H304 H 0.45876 0.66667 0.06841 0.0
H305 H 0.44294 0.58375 0.95328 0.0
H306 H 0.49152 0.56917 0.98847 0.0
H307 H 0.54065 0.58393 0.01792 0.0
H308 H 0.55778 0.66766 0.12467 0.0
H309 H 0.50674 0.67828 0.12767 0.0
C310 C 0.46575 0.64506 0.05524 0.0
C311 C 0.4475 0.62606 0.00957 0.0
C312 C 0.49415 0.63736 0.07187 0.0
C313 C 0.45666 0.59837 0.99008 0.0
C314 C 0.48453 0.59022 0.00898 0.0
C315 C 0.53297 0.60407 0.04493 0.0
C316 C 0.5525 0.62508 0.07063 0.0
C317 C 0.50382 0.61006 0.0448 0.0
C318 C 0.5428 0.65122 0.1052 0.0
C319 C 0.51371 0.65732 0.10616 0.0
H320 H 0.63864 0.45481 0.84468 0.0
H321 H 0.56108 0.44924 0.0046 0.0
H322 H 0.56019 0.50071 0.02268 0.0
H323 H 0.5875 0.5449 0.02558 0.0
H324 H 0.66649 0.55103 0.87426 0.0
H325 H 0.66073 0.50208 0.81814 0.0
C326 C 0.62093 0.46512 0.87959 0.0
C327 C 0.59997 0.44845 0.92355 0.0
C328 C 0.62123 0.49477 0.89292 0.0
C329 C 0.57736 0.46176 0.97024 0.0
C330 C 0.57699 0.49117 0.98129 0.0
C331 C 0.60286 0.53577 0.97737 0.0
C332 C 0.62747 0.55111 0.95458 0.0
C333 C 0.59971 0.50758 0.94792 0.0
C334 C 0.64732 0.53945 0.89214 0.0
C335 C 0.64416 0.51139 0.86106 0.0
H336 H 0.45341 0.34032 0.12354 0.0
H337 H 0.45463 0.43142 0.09558 0.0
H338 H 0.5066 0.43125 0.09783 0.0
H339 H 0.54989 0.40383 0.06277 0.0
H340 H 0.54819 0.31262 0.07888 0.0
H341 H 0.49857 0.31388 0.13016 0.0
C342 C 0.46515 0.36019 0.1231 0.0
C343 C 0.45046 0.38582 0.10893 0.0
C344 C 0.49501 0.35972 0.12093 0.0
C345 C 0.46563 0.41148 0.10664 0.0
C346 C 0.49535 0.41132 0.10699 0.0
C347 C 0.53903 0.38444 0.08271 0.0
C348 C 0.55246 0.35823 0.06746 0.0
C349 C 0.51014 0.38541 0.1076 0.0
C350 C 0.53826 0.33304 0.09157 0.0
C351 C 0.50974 0.33378 0.11929 0.0
H352 H 0.85372 0.44903 0.89003 0.0
H353 H 0.93967 0.45444 0.78736 0.0
H354 H 0.93593 0.50606 0.77725 0.0
H355 H 0.90437 0.54728 0.76015 0.0
H356 H 0.8177 0.54223 0.85559 0.0
H357 H 0.8254 0.4931 0.90759 0.0
C358 C 0.87205 0.46173 0.87038 0.0
C359 C 0.897 0.44807 0.83997 0.0
C360 C 0.86928 0.49143 0.8612 0.0
C361 C 0.92041 0.46456 0.81205 0.0
C362 C 0.91812 0.49407 0.80505 0.0
C363 C 0.88763 0.53579 0.79643 0.0
C364 C 0.8606 0.54816 0.8047 0.0
C365 C 0.89211 0.50747 0.8239 0.0
C366 C 0.83878 0.53311 0.84992 0.0
C367 C 0.84313 0.50493 0.87855 0.0
H368 H 0.5452 0.09135 0.22476 0.0
H369 H 0.54314 0.17892 0.13985 0.0
H370 H 0.49333 0.1739 0.09256 0.0
H371 H 0.44814 0.14799 0.11814 0.0
H372 H 0.45043 0.06165 0.21862 0.0
H373 H 0.50232 0.0621 0.21444 0.0
C374 C 0.53424 0.10874 0.19076 0.0
C375 C 0.54766 0.13528 0.18497 0.0
C376 C 0.50536 0.10592 0.16856 0.0
C377 C 0.53326 0.15814 0.14337 0.0
C378 C 0.50463 0.15535 0.11792 0.0
C379 C 0.4601 0.12889 0.13432 0.0
C380 C 0.44571 0.10479 0.16842 0.0
C381 C 0.49002 0.12986 0.13618 0.0
C382 C 0.4612 0.0803 0.19156 0.0
C383 C 0.49086 0.08069 0.19013 0.0
H384 H 0.14814 0.54729 0.92556 0.0
H385 H 0.06214 0.54256 0.82372 0.0
H386 H 0.0654 0.49108 0.81369 0.0
H387 H 0.09669 0.45024 0.79203 0.0
H388 H 0.18454 0.45554 0.87198 0.0
H389 H 0.17683 0.50336 0.93468 0.0
C390 C 0.12978 0.53474 0.90572 0.0
C391 C 0.10489 0.54853 0.8761 0.0
C392 C 0.13247 0.50515 0.89428 0.0
C393 C 0.08135 0.53231 0.8481 0.0
C394 C 0.08334 0.50285 0.84116 0.0
C395 C 0.11366 0.46139 0.82765 0.0
C396 C 0.14097 0.44962 0.82827 0.0
C397 C 0.10935 0.48935 0.8581 0.0
C398 C 0.1632 0.46423 0.87235 0.0
C399 C 0.15886 0.49172 0.90679 0.0
H400 H 0.46629 0.8304 0.15319 0.0
H401 H 0.44326 0.91661 0.21755 0.0
H402 H 0.49199 0.93221 0.18947 0.0
H403 H 0.54276 0.91896 0.1818 0.0
H404 H 0.56597 0.83291 0.11422 0.0
H405 H 0.51574 0.81952 0.10588 0.0
C406 C 0.47173 0.85279 0.15626 0.0
C407 C 0.45128 0.87242 0.18729 0.0
C408 C 0.50002 0.86146 0.14103 0.0
C409 C 0.45859 0.90125 0.19313 0.0
C410 C 0.48659 0.9101 0.17802 0.0
C411 C 0.53668 0.89763 0.16105 0.0
C412 C 0.55781 0.87691 0.14847 0.0
C413 C 0.50777 0.89011 0.1571 0.0
C414 C 0.54993 0.84922 0.12298 0.0
C415 C 0.52122 0.84151 0.11931 0.0
H416 H 0.90607 0.9521 0.43318 0.0
H417 H 0.81545 0.95476 0.39393 0.0
H418 H 0.81839 0.00461 0.34565 0.0
H419 H 0.84541 0.04942 0.35235 0.0
H420 H 0.93588 0.04716 0.39617 0.0
H421 H 0.93473 0.99521 0.40256 0.0
C422 C 0.88725 0.96331 0.40961 0.0
C423 C 0.86063 0.94992 0.4161 0.0
C424 C 0.88912 0.99219 0.38429 0.0
C425 C 0.83618 0.96464 0.38775 0.0
C426 C 0.83785 0.99323 0.3613 0.0
C427 C 0.86503 0.03741 0.35823 0.0
C428 C 0.89068 0.05196 0.37384 0.0
C429 C 0.864 0.00759 0.36432 0.0
C430 C 0.91593 0.03636 0.38362 0.0
C431 C 0.9152 0.00665 0.38831 0.0
H432 H 0.96531 0.16486 0.61034 0.0
H433 H 0.94317 0.08105 0.51578 0.0
H434 H 0.99052 0.06368 0.55569 0.0
H435 H 0.04102 0.07603 0.5781 0.0
H436 H 0.06344 0.15983 0.67296 0.0
H437 H 0.01325 0.17353 0.67521 0.0
C438 C 0.97043 0.14246 0.60361 0.0
C439 C 0.95094 0.12417 0.56003 0.0
C440 C 0.99802 0.13286 0.62504 0.0
C441 C 0.95787 0.09537 0.54959 0.0
C442 C 0.98509 0.08555 0.57143 0.0
C443 C 0.03469 0.09678 0.60383 0.0
C444 C 0.05567 0.11695 0.62523 0.0
C445 C 0.00584 0.10457 0.60343 0.0
C446 C 0.0475 0.14392 0.65724 0.0
C447 C 0.01883 0.15185 0.65729 0.0
H448 H 0.13655 0.95185 0.35682 0.0
H449 H 0.06096 0.95013 0.52802 0.0
H450 H 0.06085 0.00167 0.53653 0.0
H451 H 0.08925 0.04492 0.5321 0.0
H452 H 0.16764 0.04708 0.37667 0.0
H453 H 0.15968 0.99817 0.32343 0.0
C454 C 0.11941 0.96296 0.3922 0.0
C455 C 0.0988 0.94732 0.44172 0.0
C456 C 0.12046 0.99273 0.40147 0.0
C457 C 0.07692 0.96174 0.48887 0.0
C458 C 0.07703 0.99125 0.49469 0.0
C459 C 0.10385 0.03502 0.48299 0.0
C460 C 0.12894 0.04917 0.4583 0.0
C461 C 0.0997 0.0067 0.45664 0.0
C462 C 0.14802 0.03643 0.39556 0.0
C463 C 0.14364 0.00836 0.36636 0.0
H464 H 0.94796 0.85027 0.63024 0.0
H465 H 0.94971 0.93442 0.51081 0.0
H466 H 0.00155 0.93378 0.50929 0.0
H467 H 0.04437 0.90451 0.50326 0.0
H468 H 0.04381 0.81976 0.61577 0.0
H469 H 0.99356 0.82508 0.65943 0.0
C470 C 0.95984 0.86892 0.60841 0.0
C471 C 0.94523 0.8924 0.57077 0.0
C472 C 0.98977 0.8679 0.60443 0.0
C473 C 0.96063 0.91626 0.54051 0.0
C474 C 0.99025 0.91575 0.53872 0.0
C475 C 0.03371 0.88796 0.54274 0.0
C476 C 0.04773 0.86209 0.55808 0.0
C477 C 0.00487 0.89106 0.56514 0.0
C478 C 0.03348 0.84009 0.60516 0.0
C479 C 0.00466 0.84304 0.62887 0.0
H480 H 0.35683 0.30554 0.19478 0.0
H481 H 0.35474 0.28101 0.90366 0.0
H482 H 0.35179 0.23098 0.9495 0.0
H483 H 0.35286 0.1943 0.07151 0.0
H484 H 0.35826 0.21869 0.36237 0.0
H485 H 0.35675 0.26882 0.3171 0.0
C486 C 0.35533 0.2893 0.14121 0.0
C487 C 0.35593 0.29704 0.04578 0.0
C488 C 0.35444 0.26058 0.16803 0.0
C489 C 0.35438 0.27565 0.97749 0.0
C490 C 0.35272 0.24705 0.00369 0.0
C491 C 0.35337 0.21053 0.12532 0.0
C492 C 0.35564 0.20267 0.22039 0.0
C493 C 0.35319 0.23927 0.09868 0.0
C494 C 0.35659 0.22408 0.28879 0.0
C495 C 0.35573 0.25276 0.26292 0.0
H496 H 0.19218 0.65017 0.96022 0.0
H497 H 0.20697 0.64412 0.66207 0.0
H498 H 0.2583 0.64683 0.68898 0.0
H499 H 0.29861 0.64708 0.79786 0.0
H500 H 0.2833 0.64936 0.09616 0.0
H501 H 0.23211 0.65211 0.06802 0.0
C502 C 0.20648 0.64974 0.90055 0.0
C503 C 0.19564 0.64683 0.80901 0.0
C504 C 0.2358 0.65047 0.91673 0.0
C505 C 0.21468 0.64624 0.73314 0.0
C506 C 0.24402 0.64774 0.74856 0.0
C507 C 0.28412 0.6486 0.85687 0.0
C508 C 0.29475 0.64803 0.94917 0.0
C509 C 0.25477 0.64931 0.84019 0.0
C510 C 0.27566 0.64965 0.02464 0.0
C511 C 0.24643 0.6512 0.00853 0.0
H512 H 0.66445 0.80446 0.06613 0.0
H513 H 0.65289 0.78232 0.35763 0.0
H514 H 0.65566 0.73189 0.31772 0.0
H515 H 0.65627 0.69455 0.19898 0.0
H516 H 0.66379 0.71679 0.90622 0.0
H517 H 0.668 0.76699 0.94828 0.0
C518 C 0.66296 0.7887 0.1215 0.0
C519 C 0.65829 0.79726 0.21493 0.0
C520 C 0.66363 0.75981 0.09766 0.0
C521 C 0.65634 0.7764 0.28524 0.0
C522 C 0.65785 0.74756 0.26237 0.0
C523 C 0.65928 0.71026 0.14409 0.0
C524 C 0.65955 0.70186 0.04929 0.0
C525 C 0.66072 0.73906 0.16858 0.0
C526 C 0.66334 0.72263 0.97953 0.0
C527 C 0.66568 0.75133 0.00361 0.0
H528 H 0.72056 0.34745 0.01411 0.0
H529 H 0.68561 0.36475 0.74055 0.0
H530 H 0.73311 0.36406 0.67225 0.0
H531 H 0.78501 0.36109 0.69104 0.0
H532 H 0.8197 0.342 0.96402 0.0
H533 H 0.77213 0.34056 0.03048 0.0
C534 C 0.72335 0.35095 0.93953 0.0
C535 C 0.69954 0.35636 0.88297 0.0
C536 C 0.75079 0.35022 0.90011 0.0
C537 C 0.70353 0.36049 0.78606 0.0
C538 C 0.73074 0.36019 0.74672 0.0
C539 C 0.78218 0.35634 0.76484 0.0
C540 C 0.80609 0.35195 0.82211 0.0
C541 C 0.75459 0.35541 0.8032 0.0
C542 C 0.80184 0.34558 0.9177 0.0
C543 C 0.77456 0.34485 0.95625 0.0
H544 H 0.84655 0.69339 0.54897 0.0
H545 H 0.84238 0.71685 0.84094 0.0
H546 H 0.84217 0.76712 0.79701 0.0
H547 H 0.84626 0.80424 0.6767 0.0
H548 H 0.85322 0.78064 0.38536 0.0
H549 H 0.84915 0.73049 0.42844 0.0
C550 C 0.84521 0.70942 0.60324 0.0
C551 C 0.84445 0.70123 0.69837 0.0
C552 C 0.84582 0.73828 0.5776 0.0
C553 C 0.84302 0.72245 0.76734 0.0
C554 C 0.84296 0.75123 0.74222 0.0
C555 C 0.84661 0.7882 0.62226 0.0
C556 C 0.8501 0.79633 0.52768 0.0
C557 C 0.84484 0.75937 0.64768 0.0
C558 C 0.85068 0.7751 0.45858 0.0
C559 C 0.84835 0.74639 0.48321 0.0
H560 H 0.78265 0.14851 0.534 0.0
H561 H 0.8176 0.15051 0.25422 0.0
H562 H 0.76995 0.15245 0.18839 0.0
H563 H 0.71801 0.1501 0.20926 0.0
H564 H 0.68324 0.14992 0.48952 0.0
H565 H 0.73085 0.151 0.55506 0.0
C566 C 0.77985 0.14963 0.4587 0.0
C567 C 0.80376 0.14906 0.39951 0.0
C568 C 0.75228 0.15092 0.42081 0.0
C569 C 0.79967 0.15089 0.30191 0.0
C570 C 0.77235 0.15187 0.26386 0.0
C571 C 0.72084 0.15053 0.28461 0.0
C572 C 0.69693 0.14957 0.34389 0.0
C573 C 0.74845 0.15135 0.32252 0.0
C574 C 0.70112 0.15052 0.44162 0.0
C575 C 0.72843 0.15105 0.47958 0.0
H576 H 0.16018 0.2844 0.77381 0.0
H577 H 0.14026 0.31832 0.50074 0.0
H578 H 0.14136 0.27066 0.43404 0.0
H579 H 0.14472 0.21888 0.45548 0.0
H580 H 0.1669 0.18546 0.72799 0.0
H581 H 0.16858 0.23319 0.79152 0.0
C582 C 0.15624 0.28131 0.69969 0.0
C583 C 0.14985 0.30474 0.64268 0.0
C584 C 0.15732 0.25388 0.66129 0.0
C585 C 0.14522 0.30056 0.5463 0.0
C586 C 0.14577 0.2733 0.50799 0.0
C587 C 0.15029 0.22205 0.52838 0.0
C588 C 0.15525 0.19846 0.58665 0.0
C589 C 0.15137 0.24972 0.56511 0.0
C590 C 0.16276 0.20309 0.68101 0.0
C591 C 0.16363 0.23046 0.71797 0.0
H592 H 0.19451 0.85964 0.30778 0.0
H593 H 0.21708 0.85618 0.60065 0.0
H594 H 0.2675 0.85511 0.55827 0.0
H595 H 0.30507 0.85712 0.4386 0.0
H596 H 0.28237 0.86325 0.14633 0.0
H597 H 0.23197 0.86114 0.18828 0.0
C598 C 0.21038 0.85842 0.36264 0.0
C599 C 0.20188 0.85794 0.45754 0.0
C600 C 0.23931 0.85837 0.33783 0.0
C601 C 0.22291 0.85664 0.52723 0.0
C602 C 0.25176 0.85602 0.50298 0.0
C603 C 0.28915 0.85772 0.38378 0.0
C604 C 0.29759 0.86027 0.28919 0.0
C605 C 0.2602 0.85714 0.40856 0.0
C606 C 0.27655 0.86135 0.21953 0.0
C607 C 0.24772 0.86016 0.24352 0.0
H608 H 0.1916 0.11232 0.90114 0.0
H609 H 0.24162 0.09478 0.65414 0.0
H610 H 0.28513 0.09672 0.7461 0.0
H611 H 0.30926 0.10364 0.89688 0.0
H612 H 0.2592 0.12036 0.1443 0.0
H613 H 0.21568 0.1187 0.05215 0.0
C614 C 0.21201 0.10878 0.86764 0.0
C615 C 0.21331 0.1034 0.77108 0.0
C616 C 0.23706 0.10996 0.92092 0.0
C617 C 0.23996 0.09894 0.72853 0.0
C618 C 0.26492 0.10011 0.78097 0.0
C619 C 0.28883 0.10705 0.93038 0.0
C620 C 0.28749 0.11216 0.02708 0.0
C621 C 0.26377 0.10573 0.87716 0.0
C622 C 0.26084 0.11634 0.06981 0.0
C623 C 0.23589 0.11537 0.01725 0.0
H624 H 0.12129 0.76548 0.33363 0.0
H625 H 0.1113 0.82434 0.10362 0.0
H626 H 0.11093 0.78459 0.99307 0.0
H627 H 0.11124 0.7332 0.96363 0.0
H628 H 0.12132 0.67459 0.19444 0.0
H629 H 0.12392 0.71446 0.30364 0.0
C630 C 0.11913 0.76969 0.25924 0.0
C631 C 0.11607 0.79777 0.2267 0.0
C632 C 0.11884 0.74685 0.1967 0.0
C633 C 0.11362 0.80289 0.1302 0.0
C634 C 0.11333 0.78019 0.06718 0.0
C635 C 0.11408 0.72912 0.03783 0.0
C636 C 0.11583 0.70099 0.07121 0.0
C637 C 0.11556 0.75209 0.09992 0.0
C638 C 0.11981 0.69605 0.16723 0.0
C639 C 0.12127 0.71881 0.22958 0.0
H640 H 0.69266 0.88344 0.86489 0.0
H641 H 0.74419 0.893 0.1126 0.0
H642 H 0.78723 0.89265 0.01747 0.0
H643 H 0.81051 0.89018 0.86326 0.0
H644 H 0.75885 0.88181 0.61538 0.0
H645 H 0.7159 0.88106 0.71085 0.0
C646 C 0.71331 0.88543 0.89792 0.0
C647 C 0.71515 0.88829 0.99554 0.0
C648 C 0.73809 0.88542 0.84272 0.0
C649 C 0.7421 0.89088 0.03741 0.0
C650 C 0.7668 0.89064 0.98312 0.0
C651 C 0.78986 0.88811 0.83034 0.0
C652 C 0.78793 0.8861 0.73249 0.0
C653 C 0.76508 0.88799 0.88564 0.0
C654 C 0.76098 0.88352 0.69069 0.0
C655 C 0.73633 0.88306 0.74518 0.0
H656 H 0.90092 0.19159 0.10873 0.0
H657 H 0.90231 0.23976 0.36548 0.0
H658 H 0.90296 0.28409 0.27676 0.0
H659 H 0.90235 0.30954 0.12544 0.0
H660 H 0.90142 0.26097 0.86929 0.0
H661 H 0.90137 0.21684 0.9582 0.0
C662 C 0.90145 0.21178 0.1452 0.0
C663 C 0.90151 0.21228 0.24349 0.0
C664 C 0.90185 0.23731 0.09376 0.0
C665 C 0.90223 0.23868 0.28971 0.0
C666 C 0.90258 0.26413 0.23906 0.0
C667 C 0.9022 0.2893 0.08926 0.0
C668 C 0.90186 0.28867 0.9909 0.0
C669 C 0.90226 0.26375 0.14095 0.0
C670 C 0.90171 0.2622 0.94503 0.0
C671 C 0.90166 0.23684 0.99578 0.0
H672 H 0.19451 0.39632 0.35456 0.0
H673 H 0.24497 0.40116 0.60635 0.0
H674 H 0.28843 0.3987 0.51435 0.0
H675 H 0.31244 0.39441 0.36293 0.0
H676 H 0.26258 0.38988 0.11007 0.0
H677 H 0.2188 0.39287 0.20166 0.0
C678 C 0.21503 0.397 0.38904 0.0
C679 C 0.21643 0.39887 0.48708 0.0
C680 C 0.24014 0.39546 0.33561 0.0
C681 C 0.2432 0.39965 0.53089 0.0
C682 C 0.26815 0.39821 0.47841 0.0
C683 C 0.292 0.39403 0.32791 0.0
C684 C 0.29079 0.39185 0.23004 0.0
C685 C 0.2669 0.39592 0.38084 0.0
C686 C 0.26412 0.39153 0.18555 0.0
C687 C 0.23903 0.39326 0.23781 0.0
H688 H 0.38512 0.80899 0.61255 0.0
H689 H 0.38297 0.76125 0.35493 0.0
H690 H 0.38066 0.71683 0.44307 0.0
H691 H 0.38039 0.69131 0.59389 0.0
H692 H 0.38362 0.73937 0.85086 0.0
H693 H 0.38428 0.78367 0.76259 0.0
C694 C 0.38406 0.78887 0.57576 0.0
C695 C 0.38429 0.78845 0.47752 0.0
C696 C 0.38296 0.76336 0.62678 0.0
C697 C 0.38293 0.76219 0.43073 0.0
C698 C 0.38159 0.73673 0.48101 0.0
C699 C 0.38109 0.71149 0.63037 0.0
C700 C 0.38202 0.712 0.72862 0.0
C701 C 0.38175 0.73703 0.57912 0.0
C702 C 0.38301 0.73833 0.7751 0.0
C703 C 0.38338 0.76374 0.72476 0.0
H704 H 0.73332 0.60737 0.18905 0.0
H705 H 0.67062 0.61049 0.41004 0.0
H706 H 0.70847 0.61048 0.52735 0.0
H707 H 0.7591 0.60995 0.56613 0.0
H708 H 0.82184 0.60844 0.34503 0.0
H709 H 0.78398 0.60754 0.2278 0.0
C710 C 0.72791 0.60791 0.26292 0.0
C711 C 0.69927 0.60878 0.29114 0.0
C712 C 0.74969 0.60829 0.32947 0.0
C713 C 0.69255 0.60979 0.38686 0.0
C714 C 0.71415 0.60979 0.45377 0.0
C715 C 0.76453 0.60937 0.49228 0.0
C716 C 0.79318 0.60915 0.46404 0.0
C717 C 0.74275 0.60911 0.42572 0.0
C718 C 0.79991 0.60864 0.36827 0.0
C719 C 0.77831 0.60808 0.30139 0.0
H720 H 0.59884 0.23611 0.432 0.0
H721 H 0.60236 0.17585 0.66032 0.0
H722 H 0.60281 0.21496 0.77281 0.0
H723 H 0.60335 0.2659 0.80554 0.0
H724 H 0.60049 0.3264 0.57785 0.0
H725 H 0.5986 0.28729 0.46507 0.0
C726 C 0.59961 0.23149 0.50641 0.0
C727 C 0.60061 0.2031 0.53791 0.0
C728 C 0.60006 0.25403 0.57039 0.0
C729 C 0.60159 0.19749 0.63441 0.0
C730 C 0.60188 0.21983 0.69864 0.0
C731 C 0.60227 0.27063 0.73123 0.0
C732 C 0.60215 0.29903 0.69996 0.0
C733 C 0.60132 0.24814 0.66728 0.0
C734 C 0.60067 0.30472 0.60356 0.0
C735 C 0.59959 0.28238 0.53921 0.0
loop_
_geom_bond_atom_site_label_1
_geom_bond_atom_site_label_2
_geom_bond_distance
_geom_bond_site_symmetry_2
_ccdc_geom_bond_type
Co0 O1 2.216 . S
Co0 O2 2.091 1_554 S
Co0 O4 2.004 . S
Co0 O10 2.021 . S
Co0 O12 2.137 . S
Co0 O13 2.244 . S
O1 Co0 2.216 . S
O1 C8 1.247 . S
O2 Co0 2.091 1_556 S
O2 C8 1.261 1_556 S
C3 O12 1.247 . S
C3 O13 1.272 . S
O4 Co0 2.004 . S
O4 C9 1.259 . S
Co5 O6 2.061 . S
Co5 O11 2.052 . S
Co5 O13 2.135 . S
O6 Co5 2.061 . S
O6 C9 1.235 . S
C7 O10 1.238 . S
C7 O11 1.241 . S
C8 O1 1.247 . S
C8 O2 1.261 1_554 S
C9 O4 1.259 . S
C9 O6 1.235 . S
O10 Co0 2.021 . S
O10 C7 1.238 . S
O11 Co5 2.052 . S
O11 C7 1.241 . S
O12 Co0 2.137 . S
O12 C3 1.247 . S
O13 Co0 2.244 . S
O13 C3 1.272 . S
O13 Co5 2.135 . S
Co14 O15 2.216 . S
Co14 O16 2.091 1_556 S
Co14 O18 2.004 . S
Co14 O24 2.021 . S
Co14 O26 2.137 . S
Co14 O27 2.244 . S
O15 Co14 2.216 . S
O15 C22 1.247 . S
O16 Co14 2.091 1_554 S
O16 C22 1.261 1_554 S
C17 O26 1.247 . S
C17 O27 1.272 . S
O18 Co14 2.004 . S
O18 C23 1.259 . S
Co19 O20 2.061 . S
Co19 O25 2.052 . S
Co19 O27 2.135 . S
O20 Co19 2.061 . S
O20 C23 1.235 . S
C21 O24 1.238 . S
C21 O25 1.241 . S
C22 O15 1.247 . S
C22 O16 1.261 1_556 S
C23 O18 1.259 . S
C23 O20 1.235 . S
O24 Co14 2.021 . S
O24 C21 1.238 . S
O25 Co19 2.052 . S
O25 C21 1.241 . S
O26 Co14 2.137 . S
O26 C17 1.247 . S
O27 Co14 2.244 . S
O27 C17 1.272 . S
O27 Co19 2.135 . S
Co28 O29 2.216 . S
Co28 O30 2.091 1_554 S
Co28 O32 2.004 . S
Co28 O38 2.021 . S
Co28 O40 2.137 . S
Co28 O41 2.244 . S
O29 Co28 2.216 . S
O29 C36 1.247 . S
O30 Co28 2.091 1_556 S
O30 C36 1.261 1_556 S
C31 O40 1.247 . S
C31 O41 1.272 . S
O32 Co28 2.004 . S
O32 C37 1.259 . S
Co33 O34 2.061 . S
Co33 O39 2.052 . S
Co33 O41 2.135 . S
O34 Co33 2.061 . S
O34 C37 1.235 . S
C35 O38 1.238 . S
C35 O39 1.241 . S
C36 O29 1.247 . S
C36 O30 1.261 1_554 S
C37 O32 1.259 . S
C37 O34 1.235 . S
O38 Co28 2.021 . S
O38 C35 1.238 . S
O39 Co33 2.052 . S
O39 C35 1.241 . S
O40 Co28 2.137 . S
O40 C31 1.247 . S
O41 Co28 2.244 . S
O41 C31 1.272 . S
O41 Co33 2.135 . S
Co42 O43 2.216 . S
Co42 O44 2.091 1_556 S
Co42 O46 2.004 . S
Co42 O52 2.021 . S
Co42 O54 2.137 . S
Co42 O55 2.244 . S
O43 Co42 2.216 . S
O43 C50 1.247 . S
O44 Co42 2.091 1_554 S
O44 C50 1.261 1_554 S
C45 O54 1.247 . S
C45 O55 1.272 . S
O46 Co42 2.004 . S
O46 C51 1.259 . S
Co47 O48 2.061 . S
Co47 O53 2.052 . S
Co47 O55 2.135 . S
O48 Co47 2.061 . S
O48 C51 1.235 . S
C49 O52 1.238 . S
C49 O53 1.241 . S
C50 O43 1.247 . S
C50 O44 1.261 1_556 S
C51 O46 1.259 . S
C51 O48 1.235 . S
O52 Co42 2.021 . S
O52 C49 1.238 . S
O53 Co47 2.052 . S
O53 C49 1.241 . S
O54 Co42 2.137 . S
O54 C45 1.247 . S
O55 Co42 2.244 . S
O55 C45 1.272 . S
O55 Co47 2.135 . S
Co56 O57 2.216 . S
Co56 O58 2.091 . S
Co56 O60 2.004 . S
Co56 O66 2.021 . S
Co56 O68 2.137 . S
Co56 O69 2.244 1_554 S
O57 Co56 2.216 . S
O57 C64 1.247 . S
O58 Co56 2.091 . S
O58 C64 1.261 . S
C59 O68 1.247 . S
C59 O69 1.272 1_554 S
O60 Co56 2.004 . S
O60 C65 1.259 . S
Co61 O62 2.055 1_556 S
Co61 O67 2.052 . S
Co61 O69 2.135 . S
O62 Co61 2.055 1_554 S
O62 C65 1.244 . S
C63 O66 1.238 . S
C63 O67 1.241 1_554 S
C64 O57 1.247 . S
C64 O58 1.261 . S
C65 O60 1.259 . S
C65 O62 1.244 . S
O66 Co56 2.021 . S
O66 C63 1.238 . S
O67 Co61 2.052 . S
O67 C63 1.241 1_556 S
O68 Co56 2.137 . S
O68 C59 1.247 . S
O69 Co56 2.244 1_556 S
O69 C59 1.272 1_556 S
O69 Co61 2.135 . S
Co70 O71 2.216 . S
Co70 O72 2.091 . S
Co70 O74 2.004 . S
Co70 O80 2.021 . S
Co70 O82 2.137 . S
Co70 O83 2.244 1_556 S
O71 Co70 2.216 . S
O71 C78 1.247 . S
O72 Co70 2.091 . S
O72 C78 1.261 . S
C73 O82 1.247 . S
C73 O83 1.272 1_556 S
O74 Co70 2.004 . S
O74 C79 1.259 . S
Co75 O76 2.055 1_554 S
Co75 O81 2.052 . S
Co75 O83 2.135 . S
O76 Co75 2.055 1_556 S
O76 C79 1.243 . S
C77 O80 1.238 . S
C77 O81 1.241 1_556 S
C78 O71 1.247 . S
C78 O72 1.261 . S
C79 O74 1.259 . S
C79 O76 1.243 . S
O80 Co70 2.021 . S
O80 C77 1.238 . S
O81 Co75 2.052 . S
O81 C77 1.241 1_554 S
O82 Co70 2.137 . S
O82 C73 1.247 . S
O83 Co70 2.244 1_554 S
O83 C73 1.272 1_554 S
O83 Co75 2.135 . S
Co84 O85 2.216 . S
Co84 O86 2.091 . S
Co84 O88 2.004 . S
Co84 O94 2.021 . S
Co84 O96 2.137 . S
Co84 O97 2.244 1_554 S
O85 Co84 2.216 . S
O85 C92 1.247 . S
O86 Co84 2.091 . S
O86 C92 1.261 . S
C87 O96 1.247 . S
C87 O97 1.272 1_554 S
O88 Co84 2.004 . S
O88 C93 1.259 . S
Co89 O90 2.055 1_556 S
Co89 O95 2.052 . S
Co89 O97 2.135 . S
O90 Co89 2.055 1_554 S
O90 C93 1.243 . S
C91 O94 1.238 . S
C91 O95 1.241 1_554 S
C92 O85 1.247 . S
C92 O86 1.261 . S
C93 O88 1.259 . S
C93 O90 1.243 . S
O94 Co84 2.021 . S
O94 C91 1.238 . S
O95 Co89 2.052 . S
O95 C91 1.241 1_556 S
O96 Co84 2.137 . S
O96 C87 1.247 . S
O97 Co84 2.244 1_556 S
O97 C87 1.272 1_556 S
O97 Co89 2.135 . S
Co98 O99 2.216 . S
Co98 O100 2.091 . S
Co98 O102 2.004 . S
Co98 O108 2.021 . S
Co98 O110 2.137 . S
Co98 O111 2.244 1_556 S
O99 Co98 2.216 . S
O99 C106 1.247 . S
O100 Co98 2.091 . S
O100 C106 1.261 . S
C101 O110 1.247 . S
C101 O111 1.272 1_556 S
O102 Co98 2.004 . S
O102 C107 1.259 . S
Co103 O104 2.055 1_554 S
Co103 O109 2.052 . S
Co103 O111 2.135 . S
O104 Co103 2.055 1_556 S
O104 C107 1.244 . S
C105 O108 1.238 . S
C105 O109 1.241 1_556 S
C106 O99 1.247 . S
C106 O100 1.261 . S
C107 O102 1.259 . S
C107 O104 1.244 . S
O108 Co98 2.021 . S
O108 C105 1.238 . S
O109 Co103 2.052 . S
O109 C105 1.241 1_554 S
O110 Co98 2.137 . S
O110 C101 1.247 . S
O111 Co98 2.244 1_554 S
O111 C101 1.272 1_554 S
O111 Co103 2.135 . S
Co112 O113 2.216 . S
Co112 O114 2.091 . S
Co112 O116 2.004 . S
Co112 O122 2.021 . S
Co112 O124 2.137 . S
Co112 O125 2.244 . S
O113 Co112 2.216 . S
O113 C120 1.247 . S
O114 Co112 2.091 . S
O114 C120 1.261 . S
C115 O124 1.247 . S
C115 O125 1.272 . S
O116 Co112 2.004 . S
O116 C121 1.259 . S
Co117 O118 2.061 . S
Co117 O123 2.052 . S
Co117 O125 2.135 . S
O118 Co117 2.061 . S
O118 C121 1.235 . S
C119 O122 1.238 . S
C119 O123 1.241 . S
C120 O113 1.247 . S
C120 O114 1.261 . S
C121 O116 1.259 . S
C121 O118 1.235 . S
O122 Co112 2.021 . S
O122 C119 1.238 . S
O123 Co117 2.052 . S
O123 C119 1.241 . S
O124 Co112 2.137 . S
O124 C115 1.247 . S
O125 Co112 2.244 . S
O125 C115 1.272 . S
O125 Co117 2.135 . S
Co126 O127 2.216 . S
Co126 O128 2.091 . S
Co126 O130 2.004 . S
Co126 O136 2.021 . S
Co126 O138 2.137 . S
Co126 O139 2.244 . S
O127 Co126 2.216 . S
O127 C134 1.247 . S
O128 Co126 2.091 . S
O128 C134 1.261 . S
C129 O138 1.247 . S
C129 O139 1.272 . S
O130 Co126 2.004 . S
O130 C135 1.259 . S
Co131 O132 2.061 . S
Co131 O137 2.052 . S
Co131 O139 2.135 . S
O132 Co131 2.061 . S
O132 C135 1.235 . S
C133 O136 1.238 . S
C133 O137 1.241 . S
C134 O127 1.247 . S
C134 O128 1.261 . S
C135 O130 1.259 . S
C135 O132 1.235 . S
O136 Co126 2.021 . S
O136 C133 1.238 . S
O137 Co131 2.052 . S
O137 C133 1.241 . S
O138 Co126 2.137 . S
O138 C129 1.247 . S
O139 Co126 2.244 . S
O139 C129 1.272 . S
O139 Co131 2.135 . S
Co140 O141 2.216 . S
Co140 O142 2.091 . S
Co140 O144 2.004 . S
Co140 O150 2.021 . S
Co140 O152 2.137 . S
Co140 O153 2.244 . S
O141 Co140 2.216 . S
O141 C148 1.247 . S
O142 Co140 2.091 . S
O142 C148 1.261 . S
C143 O152 1.247 . S
C143 O153 1.272 . S
O144 Co140 2.004 . S
O144 C149 1.259 . S
Co145 O146 2.061 . S
Co145 O151 2.052 . S
Co145 O153 2.135 . S
O146 Co145 2.061 . S
O146 C149 1.235 . S
C147 O150 1.238 . S
C147 O151 1.241 . S
C148 O141 1.247 . S
C148 O142 1.261 . S
C149 O144 1.259 . S
C149 O146 1.235 . S
O150 Co140 2.021 . S
O150 C147 1.238 . S
O151 Co145 2.052 . S
O151 C147 1.241 . S
O152 Co140 2.137 . S
O152 C143 1.247 . S
O153 Co140 2.244 . S
O153 C143 1.272 . S
O153 Co145 2.135 . S
Co154 O155 2.216 . S
Co154 O156 2.091 . S
Co154 O158 2.004 . S
Co154 O164 2.021 . S
Co154 O166 2.137 . S
Co154 O167 2.244 . S
O155 Co154 2.216 . S
O155 C162 1.247 . S
O156 Co154 2.091 . S
O156 C162 1.261 . S
C157 O166 1.247 . S
C157 O167 1.272 . S
O158 Co154 2.004 . S
O158 C163 1.259 . S
Co159 O160 2.061 . S
Co159 O165 2.052 . S
Co159 O167 2.135 . S
O160 Co159 2.061 . S
O160 C163 1.235 . S
C161 O164 1.238 . S
C161 O165 1.241 . S
C162 O155 1.247 . S
C162 O156 1.261 . S
C163 O158 1.259 . S
C163 O160 1.235 . S
O164 Co154 2.021 . S
O164 C161 1.238 . S
O165 Co159 2.052 . S
O165 C161 1.241 . S
O166 Co154 2.137 . S
O166 C157 1.247 . S
O167 Co154 2.244 . S
O167 C157 1.272 . S
O167 Co159 2.135 . S
Co168 O169 2.216 . S
Co168 O170 2.091 . S
Co168 O172 2.004 . S
Co168 O178 2.021 . S
Co168 O180 2.137 . S
Co168 O181 2.244 . S
O169 Co168 2.216 . S
O169 C176 1.247 . S
O170 Co168 2.091 . S
O170 C176 1.261 . S
C171 O180 1.247 . S
C171 O181 1.272 . S
O172 Co168 2.004 . S
O172 C177 1.259 . S
Co173 O174 2.061 . S
Co173 O179 2.052 . S
Co173 O181 2.135 . S
O174 Co173 2.061 . S
O174 C177 1.235 . S
C175 O178 1.238 . S
C175 O179 1.241 . S
C176 O169 1.247 . S
C176 O170 1.261 . S
C177 O172 1.259 . S
C177 O174 1.235 . S
O178 Co168 2.021 . S
O178 C175 1.238 . S
O179 Co173 2.052 . S
O179 C175 1.241 . S
O180 Co168 2.137 . S
O180 C171 1.247 . S
O181 Co168 2.244 . S
O181 C171 1.272 . S
O181 Co173 2.135 . S
Co182 O183 2.216 . S
Co182 O184 2.091 . S
Co182 O186 2.004 . S
Co182 O192 2.021 . S
Co182 O194 2.137 . S
Co182 O195 2.244 . S
O183 Co182 2.216 . S
O183 C190 1.247 . S
O184 Co182 2.091 . S
O184 C190 1.261 . S
C185 O194 1.247 . S
C185 O195 1.272 . S
O186 Co182 2.004 . S
O186 C191 1.259 . S
Co187 O188 2.061 . S
Co187 O193 2.052 . S
Co187 O195 2.135 . S
O188 Co187 2.061 . S
O188 C191 1.235 . S
C189 O192 1.238 . S
C189 O193 1.241 . S
C190 O183 1.247 . S
C190 O184 1.261 . S
C191 O186 1.259 . S
C191 O188 1.235 . S
O192 Co182 2.021 . S
O192 C189 1.238 . S
O193 Co187 2.052 . S
O193 C189 1.241 . S
O194 Co182 2.137 . S
O194 C185 1.247 . S
O195 Co182 2.244 . S
O195 C185 1.272 . S
O195 Co187 2.135 . S
Co196 O197 2.216 . S
Co196 O198 2.091 . S
Co196 O200 2.004 . S
Co196 O206 2.021 . S
Co196 O208 2.137 . S
Co196 O209 2.244 . S
O197 Co196 2.216 . S
O197 C204 1.247 . S
O198 Co196 2.091 . S
O198 C204 1.261 . S
C199 O208 1.247 . S
C199 O209 1.272 . S
O200 Co196 2.004 . S
O200 C205 1.259 . S
Co201 O202 2.061 . S
Co201 O207 2.052 . S
Co201 O209 2.135 . S
O202 Co201 2.061 . S
O202 C205 1.235 . S
C203 O206 1.238 . S
C203 O207 1.241 . S
C204 O197 1.247 . S
C204 O198 1.261 . S
C205 O200 1.259 . S
C205 O202 1.235 . S
O206 Co196 2.021 . S
O206 C203 1.238 . S
O207 Co201 2.052 . S
O207 C203 1.241 . S
O208 Co196 2.137 . S
O208 C199 1.247 . S
O209 Co196 2.244 . S
O209 C199 1.272 . S
O209 Co201 2.135 . S
Co210 O211 2.216 . S
Co210 O212 2.091 . S
Co210 O214 2.004 . S
Co210 O220 2.021 . S
Co210 O222 2.137 . S
Co210 O223 2.244 . S
O211 Co210 2.216 . S
O211 C218 1.247 . S
O212 Co210 2.091 . S
O212 C218 1.261 . S
C213 O222 1.247 . S
C213 O223 1.272 . S
O214 Co210 2.004 . S
O214 C219 1.259 . S
Co215 O216 2.061 . S
Co215 O221 2.052 . S
Co215 O223 2.135 . S
O216 Co215 2.061 . S
O216 C219 1.235 . S
C217 O220 1.238 . S
C217 O221 1.241 . S
C218 O211 1.247 . S
C218 O212 1.261 . S
C219 O214 1.259 . S
C219 O216 1.235 . S
O220 Co210 2.021 . S
O220 C217 1.238 . S
O221 Co215 2.052 . S
O221 C217 1.241 . S
O222 Co210 2.137 . S
O222 C213 1.247 . S
O223 Co210 2.244 . S
O223 C213 1.272 . S
O223 Co215 2.135 . S
H224 C230 0.930 . S
H225 C233 0.930 . S
H226 C234 0.930 1_545 S
H227 C235 0.930 . S
H228 C238 0.930 . S
H229 C239 0.930 1_565 S
C230 H224 0.930 . S
C230 C231 1.355 . S
C230 C232 1.415 . S
C231 C230 1.355 . S
C231 C233 1.419 . S
C232 C230 1.415 . S
C232 C237 1.425 1_565 S
C232 C239 1.409 1_565 S
C233 H225 0.930 . S
C233 C231 1.419 . S
C233 C234 1.362 . S
C234 H226 0.930 1_565 S
C234 C233 1.362 . S
C234 C237 1.409 1_565 S
C235 H227 0.930 . S
C235 C236 1.355 . S
C235 C237 1.415 . S
C236 C235 1.355 . S
C236 C238 1.419 . S
C237 C232 1.425 1_545 S
C237 C234 1.409 1_545 S
C237 C235 1.415 . S
C238 H228 0.930 . S
C238 C236 1.419 . S
C238 C239 1.362 . S
C239 H229 0.930 1_545 S
C239 C232 1.409 1_545 S
C239 C238 1.362 . S
H240 C246 0.930 . S
H241 C249 0.930 . S
H242 C250 0.930 . S
H243 C251 0.930 . S
H244 C254 0.930 . S
H245 C255 0.930 1_455 S
C246 H240 0.930 . S
C246 C247 1.355 . S
C246 C248 1.415 . S
C247 C246 1.355 . S
C247 C249 1.419 . S
C248 C246 1.415 . S
C248 C253 1.425 1_455 S
C248 C255 1.409 1_455 S
C249 H241 0.930 . S
C249 C247 1.419 . S
C249 C250 1.362 . S
C250 H242 0.930 . S
C250 C249 1.362 . S
C250 C253 1.409 1_455 S
C251 H243 0.930 . S
C251 C252 1.355 . S
C251 C253 1.415 . S
C252 C251 1.355 . S
C252 C254 1.419 . S
C253 C248 1.425 1_655 S
C253 C250 1.409 1_655 S
C253 C251 1.415 . S
C254 H244 0.930 . S
C254 C252 1.419 . S
C254 C255 1.362 . S
C255 H245 0.930 1_655 S
C255 C248 1.409 1_655 S
C255 C254 1.362 . S
H256 C262 0.930 . S
H257 C265 0.930 . S
H258 C266 0.930 1_545 S
H259 C267 0.930 . S
H260 C270 0.930 . S
H261 C271 0.930 1_565 S
C262 H256 0.930 . S
C262 C263 1.355 . S
C262 C264 1.415 . S
C263 C262 1.355 . S
C263 C265 1.419 . S
C264 C262 1.415 . S
C264 C269 1.425 1_565 S
C264 C271 1.409 1_565 S
C265 H257 0.930 . S
C265 C263 1.419 . S
C265 C266 1.362 . S
C266 H258 0.930 1_565 S
C266 C265 1.362 . S
C266 C269 1.409 1_565 S
C267 H259 0.930 . S
C267 C268 1.355 . S
C267 C269 1.415 . S
C268 C267 1.355 . S
C268 C270 1.419 . S
C269 C264 1.425 1_545 S
C269 C266 1.409 1_545 S
C269 C267 1.415 . S
C270 H260 0.930 . S
C270 C268 1.419 . S
C270 C271 1.362 . S
C271 H261 0.930 1_545 S
C271 C264 1.409 1_545 S
C271 C270 1.362 . S
H272 C278 0.930 . S
H273 C281 0.930 . S
H274 C282 0.930 . S
H275 C283 0.930 . S
H276 C286 0.930 . S
H277 C287 0.930 . S
C278 H272 0.930 . S
C278 C279 1.355 . S
C278 C280 1.415 . S
C279 C278 1.355 . S
C279 C281 1.419 . S
C280 C278 1.415 . S
C280 C285 1.425 1_455 S
C280 C287 1.409 1_455 S
C281 H273 0.930 . S
C281 C279 1.419 . S
C281 C282 1.362 . S
C282 H274 0.930 . S
C282 C281 1.362 . S
C282 C285 1.409 1_455 S
C283 H275 0.930 . S
C283 C284 1.355 . S
C283 C285 1.415 . S
C284 C283 1.355 . S
C284 C286 1.419 . S
C285 C280 1.425 1_655 S
C285 C282 1.409 1_655 S
C285 C283 1.415 . S
C286 H276 0.930 . S
C286 C284 1.419 . S
C286 C287 1.362 . S
C287 H277 0.930 . S
C287 C280 1.409 1_655 S
C287 C286 1.362 . S
H288 C294 0.930 . S
H289 C297 0.930 . S
H290 C298 0.930 . S
H291 C299 0.930 1_554 S
H292 C302 0.930 . S
H293 C303 0.930 . S
C294 H288 0.930 . S
C294 C295 1.355 . S
C294 C296 1.415 . S
C295 C294 1.355 . S
C295 C297 1.419 1_556 S
C296 C294 1.415 . S
C296 C301 1.425 . S
C296 C303 1.409 . S
C297 H289 0.930 . S
C297 C295 1.419 1_554 S
C297 C298 1.362 . S
C298 H290 0.930 . S
C298 C297 1.362 . S
C298 C301 1.409 1_554 S
C299 H291 0.930 1_556 S
C299 C300 1.355 . S
C299 C301 1.415 . S
C300 C299 1.355 . S
C300 C302 1.419 . S
C301 C296 1.425 . S
C301 C298 1.409 1_556 S
C301 C299 1.415 . S
C302 H292 0.930 . S
C302 C300 1.419 . S
C302 C303 1.362 . S
C303 H293 0.930 . S
C303 C296 1.409 . S
C303 C302 1.362 . S
H304 C310 0.930 . S
H305 C313 0.930 . S
H306 C314 0.930 . S
H307 C315 0.930 . S
H308 C318 0.930 1_556 S
H309 C319 0.930 . S
C310 H304 0.930 . S
C310 C311 1.355 1_556 S
C310 C312 1.415 1_556 S
C311 C310 1.355 1_554 S
C311 C313 1.419 . S
C312 C310 1.415 1_554 S
C312 C317 1.425 . S
C312 C319 1.409 1_554 S
C313 H305 0.930 . S
C313 C311 1.419 . S
C313 C314 1.362 . S
C314 H306 0.930 . S
C314 C313 1.362 . S
C314 C317 1.409 . S
C315 H307 0.930 . S
C315 C316 1.355 . S
C315 C317 1.415 . S
C316 C315 1.355 . S
C316 C318 1.419 . S
C317 C312 1.425 . S
C317 C314 1.409 . S
C317 C315 1.415 . S
C318 H308 0.930 1_554 S
C318 C316 1.419 . S
C318 C319 1.362 1_554 S
C319 H309 0.930 . S
C319 C312 1.409 1_556 S
C319 C318 1.362 1_556 S
H320 C326 0.930 . S
H321 C329 0.930 1_554 S
H322 C330 0.930 . S
H323 C331 0.930 . S
H324 C334 0.930 . S
H325 C335 0.930 . S
C326 H320 0.930 . S
C326 C327 1.355 . S
C326 C328 1.415 . S
C327 C326 1.355 . S
C327 C329 1.419 . S
C328 C326 1.415 . S
C328 C333 1.425 . S
C328 C335 1.409 . S
C329 H321 0.930 1_556 S
C329 C327 1.419 . S
C329 C330 1.362 1_556 S
C330 H322 0.930 . S
C330 C329 1.362 1_554 S
C330 C333 1.409 1_554 S
C331 H323 0.930 . S
C331 C332 1.355 1_554 S
C331 C333 1.415 1_554 S
C332 C331 1.355 1_556 S
C332 C334 1.419 . S
C333 C328 1.425 . S
C333 C330 1.409 1_556 S
C333 C331 1.415 1_556 S
C334 H324 0.930 . S
C334 C332 1.419 . S
C334 C335 1.362 . S
C335 H325 0.930 . S
C335 C328 1.409 . S
C335 C334 1.362 . S
H336 C342 0.930 . S
H337 C345 0.930 . S
H338 C346 0.930 . S
H339 C347 0.930 . S
H340 C350 0.930 1_556 S
H341 C351 0.930 . S
C342 H336 0.930 . S
C342 C343 1.355 . S
C342 C344 1.415 . S
C343 C342 1.355 . S
C343 C345 1.419 . S
C344 C342 1.415 . S
C344 C349 1.425 . S
C344 C351 1.409 . S
C345 H337 0.930 . S
C345 C343 1.419 . S
C345 C346 1.362 . S
C346 H338 0.930 . S
C346 C345 1.362 . S
C346 C349 1.409 . S
C347 H339 0.930 . S
C347 C348 1.355 . S
C347 C349 1.415 . S
C348 C347 1.355 . S
C348 C350 1.419 . S
C349 C344 1.425 . S
C349 C346 1.409 . S
C349 C347 1.415 . S
C350 H340 0.930 1_554 S
C350 C348 1.419 . S
C350 C351 1.362 . S
C351 H341 0.930 . S
C351 C344 1.409 . S
C351 C350 1.362 . S
H352 C358 0.930 . S
H353 C361 0.930 . S
H354 C362 0.930 . S
H355 C363 0.930 . S
H356 C366 0.930 . S
H357 C367 0.930 . S
C358 H352 0.930 . S
C358 C359 1.355 . S
C358 C360 1.415 . S
C359 C358 1.355 . S
C359 C361 1.419 . S
C360 C358 1.415 . S
C360 C365 1.425 . S
C360 C367 1.409 . S
C361 H353 0.930 . S
C361 C359 1.419 . S
C361 C362 1.362 . S
C362 H354 0.930 . S
C362 C361 1.362 . S
C362 C365 1.409 . S
C363 H355 0.930 . S
C363 C364 1.355 . S
C363 C365 1.415 . S
C364 C363 1.355 . S
C364 C366 1.419 . S
C365 C360 1.425 . S
C365 C362 1.409 . S
C365 C363 1.415 . S
C366 H356 0.930 . S
C366 C364 1.419 . S
C366 C367 1.362 . S
C367 H357 0.930 . S
C367 C360 1.409 . S
C367 C366 1.362 . S
H368 C374 0.930 . S
H369 C377 0.930 . S
H370 C378 0.930 . S
H371 C379 0.930 . S
H372 C382 0.930 . S
H373 C383 0.930 . S
C374 H368 0.930 . S
C374 C375 1.355 . S
C374 C376 1.415 . S
C375 C374 1.355 . S
C375 C377 1.419 . S
C376 C374 1.415 . S
C376 C381 1.425 . S
C376 C383 1.409 . S
C377 H369 0.930 . S
C377 C375 1.419 . S
C377 C378 1.362 . S
C378 H370 0.930 . S
C378 C377 1.362 . S
C378 C381 1.409 . S
C379 H371 0.930 . S
C379 C380 1.355 . S
C379 C381 1.415 . S
C380 C379 1.355 . S
C380 C382 1.419 . S
C381 C376 1.425 . S
C381 C378 1.409 . S
C381 C379 1.415 . S
C382 H372 0.930 . S
C382 C380 1.419 . S
C382 C383 1.362 . S
C383 H373 0.930 . S
C383 C376 1.409 . S
C383 C382 1.362 . S
H384 C390 0.930 . S
H385 C393 0.930 . S
H386 C394 0.930 . S
H387 C395 0.930 . S
H388 C398 0.930 . S
H389 C399 0.930 . S
C390 H384 0.930 . S
C390 C391 1.355 . S
C390 C392 1.415 . S
C391 C390 1.355 . S
C391 C393 1.419 . S
C392 C390 1.415 . S
C392 C397 1.425 . S
C392 C399 1.409 . S
C393 H385 0.930 . S
C393 C391 1.419 . S
C393 C394 1.362 . S
C394 H386 0.930 . S
C394 C393 1.362 . S
C394 C397 1.409 . S
C395 H387 0.930 . S
C395 C396 1.355 . S
C395 C397 1.415 . S
C396 C395 1.355 . S
C396 C398 1.419 . S
C397 C392 1.425 . S
C397 C394 1.409 . S
C397 C395 1.415 . S
C398 H388 0.930 . S
C398 C396 1.419 . S
C398 C399 1.362 . S
C399 H389 0.930 . S
C399 C392 1.409 . S
C399 C398 1.362 . S
H400 C406 0.930 . S
H401 C409 0.930 . S
H402 C410 0.930 . S
H403 C411 0.930 . S
H404 C414 0.930 . S
H405 C415 0.930 . S
C406 H400 0.930 . S
C406 C407 1.355 . S
C406 C408 1.415 . S
C407 C406 1.355 . S
C407 C409 1.419 . S
C408 C406 1.415 . S
C408 C413 1.425 . S
C408 C415 1.409 . S
C409 H401 0.930 . S
C409 C407 1.419 . S
C409 C410 1.362 . S
C410 H402 0.930 . S
C410 C409 1.362 . S
C410 C413 1.409 . S
C411 H403 0.930 . S
C411 C412 1.355 . S
C411 C413 1.415 . S
C412 C411 1.355 . S
C412 C414 1.419 . S
C413 C408 1.425 . S
C413 C410 1.409 . S
C413 C411 1.415 . S
C414 H404 0.930 . S
C414 C412 1.419 . S
C414 C415 1.362 . S
C415 H405 0.930 . S
C415 C408 1.409 . S
C415 C414 1.362 . S
H416 C422 0.930 . S
H417 C425 0.930 . S
H418 C426 0.930 1_545 S
H419 C427 0.930 . S
H420 C430 0.930 . S
H421 C431 0.930 1_565 S
C422 H416 0.930 . S
C422 C423 1.355 . S
C422 C424 1.415 . S
C423 C422 1.355 . S
C423 C425 1.419 . S
C424 C422 1.415 . S
C424 C429 1.425 1_565 S
C424 C431 1.409 1_565 S
C425 H417 0.930 . S
C425 C423 1.419 . S
C425 C426 1.362 . S
C426 H418 0.930 1_565 S
C426 C425 1.362 . S
C426 C429 1.409 1_565 S
C427 H419 0.930 . S
C427 C428 1.355 . S
C427 C429 1.415 . S
C428 C427 1.355 . S
C428 C430 1.419 . S
C429 C424 1.425 1_545 S
C429 C426 1.409 1_545 S
C429 C427 1.415 . S
C430 H420 0.930 . S
C430 C428 1.419 . S
C430 C431 1.362 . S
C431 H421 0.930 1_545 S
C431 C424 1.409 1_545 S
C431 C430 1.362 . S
H432 C438 0.930 . S
H433 C441 0.930 . S
H434 C442 0.930 . S
H435 C443 0.930 . S
H436 C446 0.930 . S
H437 C447 0.930 . S
C438 H432 0.930 . S
C438 C439 1.355 . S
C438 C440 1.415 . S
C439 C438 1.355 . S
C439 C441 1.419 . S
C440 C438 1.415 . S
C440 C445 1.425 1_655 S
C440 C447 1.409 1_655 S
C441 H433 0.930 . S
C441 C439 1.419 . S
C441 C442 1.362 . S
C442 H434 0.930 . S
C442 C441 1.362 . S
C442 C445 1.409 1_655 S
C443 H435 0.930 . S
C443 C444 1.355 . S
C443 C445 1.415 . S
C444 C443 1.355 . S
C444 C446 1.419 . S
C445 C440 1.425 1_455 S
C445 C442 1.409 1_455 S
C445 C443 1.415 . S
C446 H436 0.930 . S
C446 C444 1.419 . S
C446 C447 1.362 . S
C447 H437 0.930 . S
C447 C440 1.409 1_455 S
C447 C446 1.362 . S
H448 C454 0.930 . S
H449 C457 0.930 . S
H450 C458 0.930 1_545 S
H451 C459 0.930 . S
H452 C462 0.930 . S
H453 C463 0.930 . S
C454 H448 0.930 . S
C454 C455 1.355 . S
C454 C456 1.415 . S
C455 C454 1.355 . S
C455 C457 1.419 . S
C456 C454 1.415 . S
C456 C461 1.425 1_565 S
C456 C463 1.409 1_565 S
C457 H449 0.930 . S
C457 C455 1.419 . S
C457 C458 1.362 . S
C458 H450 0.930 1_565 S
C458 C457 1.362 . S
C458 C461 1.409 1_565 S
C459 H451 0.930 . S
C459 C460 1.355 . S
C459 C461 1.415 . S
C460 C459 1.355 . S
C460 C462 1.419 . S
C461 C456 1.425 1_545 S
C461 C458 1.409 1_545 S
C461 C459 1.415 . S
C462 H452 0.930 . S
C462 C460 1.419 . S
C462 C463 1.362 . S
C463 H453 0.930 . S
C463 C456 1.409 1_545 S
C463 C462 1.362 . S
H464 C470 0.930 . S
H465 C473 0.930 . S
H466 C474 0.928 1_455 S
H467 C475 0.930 . S
H468 C478 0.930 . S
H469 C479 0.930 . S
C470 H464 0.930 . S
C470 C471 1.355 . S
C470 C472 1.415 . S
C471 C470 1.355 . S
C471 C473 1.419 . S
C472 C470 1.415 . S
C472 C477 1.425 1_655 S
C472 C479 1.409 1_655 S
C473 H465 0.930 . S
C473 C471 1.419 . S
C473 C474 1.362 . S
C474 H466 0.928 1_655 S
C474 C473 1.362 . S
C474 C477 1.409 1_655 S
C475 H467 0.930 . S
C475 C476 1.355 . S
C475 C477 1.415 . S
C476 C475 1.355 . S
C476 C478 1.419 . S
C477 C472 1.425 1_455 S
C477 C474 1.409 1_455 S
C477 C475 1.415 . S
C478 H468 0.930 . S
C478 C476 1.419 . S
C478 C479 1.362 . S
C479 H469 0.930 . S
C479 C472 1.409 1_455 S
C479 C478 1.362 . S
H480 C486 0.930 . S
H481 C489 0.930 . S
H482 C490 0.930 . S
H483 C491 0.930 . S
H484 C494 0.930 . S
H485 C495 0.930 . S
C486 H480 0.930 . S
C486 C487 1.355 . S
C486 C488 1.415 . S
C487 C486 1.355 . S
C487 C489 1.419 . S
C488 C486 1.415 . S
C488 C493 1.425 . S
C488 C495 1.409 . S
C489 H481 0.930 . S
C489 C487 1.419 . S
C489 C490 1.362 . S
C490 H482 0.930 . S
C490 C489 1.362 . S
C490 C493 1.409 . S
C491 H483 0.930 . S
C491 C492 1.355 . S
C491 C493 1.415 . S
C492 C491 1.355 . S
C492 C494 1.419 . S
C493 C488 1.425 . S
C493 C490 1.409 . S
C493 C491 1.415 . S
C494 H484 0.930 . S
C494 C492 1.419 . S
C494 C495 1.362 . S
C495 H485 0.930 . S
C495 C488 1.409 . S
C495 C494 1.362 . S
H496 C502 0.930 . S
H497 C505 0.930 . S
H498 C506 0.930 . S
H499 C507 0.930 . S
H500 C510 0.930 . S
H501 C511 0.930 . S
C502 H496 0.930 . S
C502 C503 1.355 . S
C502 C504 1.415 . S
C503 C502 1.355 . S
C503 C505 1.419 . S
C504 C502 1.415 . S
C504 C509 1.425 . S
C504 C511 1.409 1_556 S
C505 H497 0.930 . S
C505 C503 1.419 . S
C505 C506 1.362 . S
C506 H498 0.930 . S
C506 C505 1.362 . S
C506 C509 1.409 . S
C507 H499 0.930 . S
C507 C508 1.355 . S
C507 C509 1.415 . S
C508 C507 1.355 . S
C508 C510 1.419 1_556 S
C509 C504 1.425 . S
C509 C506 1.409 . S
C509 C507 1.415 . S
C510 H500 0.930 . S
C510 C508 1.419 1_554 S
C510 C511 1.362 . S
C511 H501 0.930 . S
C511 C504 1.409 1_554 S
C511 C510 1.362 . S
H512 C518 0.930 . S
H513 C521 0.930 . S
H514 C522 0.930 . S
H515 C523 0.930 . S
H516 C526 0.930 1_556 S
H517 C527 0.930 . S
C518 H512 0.930 . S
C518 C519 1.355 . S
C518 C520 1.415 . S
C519 C518 1.355 . S
C519 C521 1.419 . S
C520 C518 1.415 . S
C520 C525 1.425 . S
C520 C527 1.409 . S
C521 H513 0.930 . S
C521 C519 1.419 . S
C521 C522 1.362 . S
C522 H514 0.930 . S
C522 C521 1.362 . S
C522 C525 1.409 . S
C523 H515 0.930 . S
C523 C524 1.355 . S
C523 C525 1.415 . S
C524 C523 1.355 . S
C524 C526 1.419 . S
C525 C520 1.425 . S
C525 C522 1.409 . S
C525 C523 1.415 . S
C526 H516 0.930 1_554 S
C526 C524 1.419 . S
C526 C527 1.362 . S
C527 H517 0.930 . S
C527 C520 1.409 . S
C527 C526 1.362 . S
H528 C534 0.930 1_554 S
H529 C537 0.930 . S
H530 C538 0.930 . S
H531 C539 0.930 . S
H532 C542 0.930 . S
H533 C543 0.930 1_554 S
C534 H528 0.930 1_556 S
C534 C535 1.355 . S
C534 C536 1.415 . S
C535 C534 1.355 . S
C535 C537 1.419 . S
C536 C534 1.415 . S
C536 C541 1.425 . S
C536 C543 1.409 . S
C537 H529 0.930 . S
C537 C535 1.419 . S
C537 C538 1.362 . S
C538 H530 0.930 . S
C538 C537 1.362 . S
C538 C541 1.409 . S
C539 H531 0.930 . S
C539 C540 1.355 . S
C539 C541 1.415 . S
C540 C539 1.355 . S
C540 C542 1.419 . S
C541 C536 1.425 . S
C541 C538 1.409 . S
C541 C539 1.415 . S
C542 H532 0.930 . S
C542 C540 1.419 . S
C542 C543 1.362 . S
C543 H533 0.930 1_556 S
C543 C536 1.409 . S
C543 C542 1.362 . S
H544 C550 0.930 . S
H545 C553 0.930 . S
H546 C554 0.930 . S
H547 C555 0.930 . S
H548 C558 0.930 . S
H549 C559 0.930 . S
C550 H544 0.930 . S
C550 C551 1.355 . S
C550 C552 1.415 . S
C551 C550 1.355 . S
C551 C553 1.419 . S
C552 C550 1.415 . S
C552 C557 1.425 . S
C552 C559 1.409 . S
C553 H545 0.930 . S
C553 C551 1.419 . S
C553 C554 1.362 . S
C554 H546 0.930 . S
C554 C553 1.362 . S
C554 C557 1.409 . S
C555 H547 0.930 . S
C555 C556 1.355 . S
C555 C557 1.415 . S
C556 C555 1.355 . S
C556 C558 1.419 . S
C557 C552 1.425 . S
C557 C554 1.409 . S
C557 C555 1.415 . S
C558 H548 0.930 . S
C558 C556 1.419 . S
C558 C559 1.362 . S
C559 H549 0.930 . S
C559 C552 1.409 . S
C559 C558 1.362 . S
H560 C566 0.930 . S
H561 C569 0.930 . S
H562 C570 0.930 . S
H563 C571 0.930 . S
H564 C574 0.930 . S
H565 C575 0.930 . S
C566 H560 0.930 . S
C566 C567 1.355 . S
C566 C568 1.415 . S
C567 C566 1.355 . S
C567 C569 1.419 . S
C568 C566 1.415 . S
C568 C573 1.425 . S
C568 C575 1.409 . S
C569 H561 0.930 . S
C569 C567 1.419 . S
C569 C570 1.362 . S
C570 H562 0.930 . S
C570 C569 1.362 . S
C570 C573 1.409 . S
C571 H563 0.930 . S
C571 C572 1.355 . S
C571 C573 1.415 . S
C572 C571 1.355 . S
C572 C574 1.419 . S
C573 C568 1.425 . S
C573 C570 1.409 . S
C573 C571 1.415 . S
C574 H564 0.930 . S
C574 C572 1.419 . S
C574 C575 1.362 . S
C575 H565 0.930 . S
C575 C568 1.409 . S
C575 C574 1.362 . S
H576 C582 0.930 . S
H577 C585 0.930 . S
H578 C586 0.930 . S
H579 C587 0.930 . S
H580 C590 0.930 . S
H581 C591 0.930 . S
C582 H576 0.930 . S
C582 C583 1.355 . S
C582 C584 1.415 . S
C583 C582 1.355 . S
C583 C585 1.419 . S
C584 C582 1.415 . S
C584 C589 1.425 . S
C584 C591 1.409 . S
C585 H577 0.930 . S
C585 C583 1.419 . S
C585 C586 1.362 . S
C586 H578 0.930 . S
C586 C585 1.362 . S
C586 C589 1.409 . S
C587 H579 0.930 . S
C587 C588 1.355 . S
C587 C589 1.415 . S
C588 C587 1.355 . S
C588 C590 1.419 . S
C589 C584 1.425 . S
C589 C586 1.409 . S
C589 C587 1.415 . S
C590 H580 0.930 . S
C590 C588 1.419 . S
C590 C591 1.362 . S
C591 H581 0.930 . S
C591 C584 1.409 . S
C591 C590 1.362 . S
H592 C598 0.930 . S
H593 C601 0.930 . S
H594 C602 0.930 . S
H595 C603 0.930 . S
H596 C606 0.930 . S
H597 C607 0.930 . S
C598 H592 0.930 . S
C598 C599 1.355 . S
C598 C600 1.415 . S
C599 C598 1.355 . S
C599 C601 1.419 . S
C600 C598 1.415 . S
C600 C605 1.425 . S
C600 C607 1.409 . S
C601 H593 0.930 . S
C601 C599 1.419 . S
C601 C602 1.362 . S
C602 H594 0.930 . S
C602 C601 1.362 . S
C602 C605 1.409 . S
C603 H595 0.930 . S
C603 C604 1.355 . S
C603 C605 1.415 . S
C604 C603 1.355 . S
C604 C606 1.419 . S
C605 C600 1.425 . S
C605 C602 1.409 . S
C605 C603 1.415 . S
C606 H596 0.930 . S
C606 C604 1.419 . S
C606 C607 1.362 . S
C607 H597 0.930 . S
C607 C600 1.409 . S
C607 C606 1.362 . S
H608 C614 0.930 . S
H609 C617 0.930 . S
H610 C618 0.930 . S
H611 C619 0.930 . S
H612 C622 0.930 . S
H613 C623 0.930 . S
C614 H608 0.930 . S
C614 C615 1.355 . S
C614 C616 1.415 . S
C615 C614 1.355 . S
C615 C617 1.419 . S
C616 C614 1.415 . S
C616 C621 1.425 . S
C616 C623 1.409 1_556 S
C617 H609 0.930 . S
C617 C615 1.419 . S
C617 C618 1.362 . S
C618 H610 0.930 . S
C618 C617 1.362 . S
C618 C621 1.409 . S
C619 H611 0.930 . S
C619 C620 1.355 . S
C619 C621 1.415 . S
C620 C619 1.355 . S
C620 C622 1.419 1_556 S
C621 C616 1.425 . S
C621 C618 1.409 . S
C621 C619 1.415 . S
C622 H612 0.930 . S
C622 C620 1.419 1_554 S
C622 C623 1.362 . S
C623 H613 0.930 . S
C623 C616 1.409 1_554 S
C623 C622 1.362 . S
H624 C630 0.930 . S
H625 C633 0.930 . S
H626 C634 0.930 1_556 S
H627 C635 0.930 1_556 S
H628 C638 0.930 . S
H629 C639 0.930 . S
C630 H624 0.930 . S
C630 C631 1.355 . S
C630 C632 1.415 . S
C631 C630 1.355 . S
C631 C633 1.419 . S
C632 C630 1.415 . S
C632 C637 1.425 . S
C632 C639 1.409 . S
C633 H625 0.930 . S
C633 C631 1.419 . S
C633 C634 1.362 . S
C634 H626 0.930 1_554 S
C634 C633 1.362 . S
C634 C637 1.409 . S
C635 H627 0.930 1_554 S
C635 C636 1.355 . S
C635 C637 1.415 . S
C636 C635 1.355 . S
C636 C638 1.419 . S
C637 C632 1.425 . S
C637 C634 1.409 . S
C637 C635 1.415 . S
C638 H628 0.930 . S
C638 C636 1.419 . S
C638 C639 1.362 . S
C639 H629 0.930 . S
C639 C632 1.409 . S
C639 C638 1.362 . S
H640 C646 0.930 . S
H641 C649 0.930 . S
H642 C650 0.930 . S
H643 C651 0.930 . S
H644 C654 0.930 . S
H645 C655 0.930 . S
C646 H640 0.930 . S
C646 C647 1.355 . S
C646 C648 1.415 . S
C647 C646 1.355 . S
C647 C649 1.419 1_556 S
C648 C646 1.415 . S
C648 C653 1.425 . S
C648 C655 1.409 . S
C649 H641 0.930 . S
C649 C647 1.419 1_554 S
C649 C650 1.362 . S
C650 H642 0.930 . S
C650 C649 1.362 . S
C650 C653 1.409 1_554 S
C651 H643 0.930 . S
C651 C652 1.355 . S
C651 C653 1.415 . S
C652 C651 1.355 . S
C652 C654 1.419 . S
C653 C648 1.425 . S
C653 C650 1.409 1_556 S
C653 C651 1.415 . S
C654 H644 0.930 . S
C654 C652 1.419 . S
C654 C655 1.362 . S
C655 H645 0.930 . S
C655 C648 1.409 . S
C655 C654 1.362 . S
H656 C662 0.930 . S
H657 C665 0.930 . S
H658 C666 0.930 . S
H659 C667 0.930 . S
H660 C670 0.930 . S
H661 C671 0.930 . S
C662 H656 0.930 . S
C662 C663 1.355 . S
C662 C664 1.415 . S
C663 C662 1.355 . S
C663 C665 1.419 . S
C664 C662 1.415 . S
C664 C669 1.425 . S
C664 C671 1.409 1_554 S
C665 H657 0.930 . S
C665 C663 1.419 . S
C665 C666 1.362 . S
C666 H658 0.930 . S
C666 C665 1.362 . S
C666 C669 1.409 . S
C667 H659 0.930 . S
C667 C668 1.355 . S
C667 C669 1.415 . S
C668 C667 1.355 . S
C668 C670 1.419 1_554 S
C669 C664 1.425 . S
C669 C666 1.409 . S
C669 C667 1.415 . S
C670 H660 0.930 . S
C670 C668 1.419 1_556 S
C670 C671 1.362 . S
C671 H661 0.930 . S
C671 C664 1.409 1_556 S
C671 C670 1.362 . S
H672 C678 0.930 . S
H673 C681 0.930 . S
H674 C682 0.930 . S
H675 C683 0.930 . S
H676 C686 0.930 . S
H677 C687 0.930 . S
C678 H672 0.930 . S
C678 C679 1.355 . S
C678 C680 1.415 . S
C679 C678 1.355 . S
C679 C681 1.419 . S
C680 C678 1.415 . S
C680 C685 1.425 . S
C680 C687 1.409 . S
C681 H673 0.930 . S
C681 C679 1.419 . S
C681 C682 1.362 . S
C682 H674 0.930 . S
C682 C681 1.362 . S
C682 C685 1.409 . S
C683 H675 0.930 . S
C683 C684 1.355 . S
C683 C685 1.415 . S
C684 C683 1.355 . S
C684 C686 1.419 . S
C685 C680 1.425 . S
C685 C682 1.409 . S
C685 C683 1.415 . S
C686 H676 0.930 . S
C686 C684 1.419 . S
C686 C687 1.362 . S
C687 H677 0.930 . S
C687 C680 1.409 . S
C687 C686 1.362 . S
H688 C694 0.930 . S
H689 C697 0.930 . S
H690 C698 0.930 . S
H691 C699 0.930 . S
H692 C702 0.930 . S
H693 C703 0.930 . S
C694 H688 0.930 . S
C694 C695 1.355 . S
C694 C696 1.415 . S
C695 C694 1.355 . S
C695 C697 1.419 . S
C696 C694 1.415 . S
C696 C701 1.425 . S
C696 C703 1.409 . S
C697 H689 0.930 . S
C697 C695 1.419 . S
C697 C698 1.362 . S
C698 H690 0.930 . S
C698 C697 1.362 . S
C698 C701 1.409 . S
C699 H691 0.930 . S
C699 C700 1.355 . S
C699 C701 1.415 . S
C700 C699 1.355 . S
C700 C702 1.419 . S
C701 C696 1.425 . S
C701 C698 1.409 . S
C701 C699 1.415 . S
C702 H692 0.930 . S
C702 C700 1.419 . S
C702 C703 1.362 . S
C703 H693 0.930 . S
C703 C696 1.409 . S
C703 C702 1.362 . S
H704 C710 0.930 . S
H705 C713 0.930 . S
H706 C714 0.930 . S
H707 C715 0.930 . S
H708 C718 0.930 . S
H709 C719 0.930 . S
C710 H704 0.930 . S
C710 C711 1.355 . S
C710 C712 1.415 . S
C711 C710 1.355 . S
C711 C713 1.419 . S
C712 C710 1.415 . S
C712 C717 1.425 . S
C712 C719 1.409 . S
C713 H705 0.930 . S
C713 C711 1.419 . S
C713 C714 1.362 . S
C714 H706 0.930 . S
C714 C713 1.362 . S
C714 C717 1.409 . S
C715 H707 0.930 . S
C715 C716 1.355 . S
C715 C717 1.415 . S
C716 C715 1.355 . S
C716 C718 1.419 . S
C717 C712 1.425 . S
C717 C714 1.409 . S
C717 C715 1.415 . S
C718 H708 0.930 . S
C718 C716 1.419 . S
C718 C719 1.362 . S
C719 H709 0.930 . S
C719 C712 1.409 . S
C719 C718 1.362 . S
H720 C726 0.930 . S
H721 C729 0.930 . S
H722 C730 0.930 . S
H723 C731 0.930 . S
H724 C734 0.930 . S
H725 C735 0.930 . S
C726 H720 0.930 . S
C726 C727 1.355 . S
C726 C728 1.415 . S
C727 C726 1.355 . S
C727 C729 1.419 . S
C728 C726 1.415 . S
C728 C733 1.425 . S
C728 C735 1.409 . S
C729 H721 0.930 . S
C729 C727 1.419 . S
C729 C730 1.362 . S
C730 H722 0.930 . S
C730 C729 1.362 . S
C730 C733 1.409 . S
C731 H723 0.930 . S
C731 C732 1.355 . S
C731 C733 1.415 . S
C732 C731 1.355 . S
C732 C734 1.419 . S
C733 C728 1.425 . S
C733 C730 1.409 . S
C733 C731 1.415 . S
C734 H724 0.930 . S
C734 C732 1.419 . S
C734 C735 1.362 . S
C735 H725 0.930 . S
C735 C728 1.409 . S
C735 C734 1.362 . S
C231 C163 1.332 . S
C236 C3 1.330 . S
C247 C17 1.274 . S
C252 C121 1.356 . S
C263 C31 1.282 . S
C268 C135 1.357 . S
C279 C149 1.304 . S
C284 C45 1.348 . S
C295 C59 1.270 1_556 S
C300 C79 1.328 . S
C311 C73 1.299 1_554 S
C316 C93 1.298 . S
C327 C107 1.295 . S
C332 C87 1.348 1_556 S
C343 C65 1.348 . S
C348 C101 1.310 1_554 S
C359 C51 1.284 . S
C364 C115 1.331 . S
C375 C129 1.341 . S
C380 C9 1.320 . S
C391 C23 1.320 . S
C396 C143 1.341 . S
C407 C157 1.318 . S
C412 C37 1.287 . S
C423 C171 1.287 . S
C428 C191 1.356 . S
C439 C185 1.286 . S
C444 C205 1.308 . S
C455 C219 1.319 . S
C460 C199 1.342 . S
C471 C177 1.336 . S
C476 C213 1.327 . S
C487 C63 1.383 . S
C492 C7 1.332 . S
C503 C21 1.379 . S
C508 C77 1.376 . S
C519 C35 1.329 . S
C524 C91 1.381 . S
C535 C105 1.315 . S
C540 C49 1.354 . S
C551 C119 1.388 . S
C556 C175 1.355 . S
C567 C189 1.315 . S
C572 C133 1.353 . S
C583 C147 1.338 . S
C588 C203 1.318 . S
C599 C217 1.383 . S
C604 C161 1.370 . S
C615 C204 1.400 . S
C620 C8 1.400 1_556 S
C631 C218 1.445 . S
C636 C22 1.445 1_554 S
C647 C36 1.399 1_556 S
C652 C176 1.400 . S
C663 C190 1.403 . S
C668 C50 1.402 1_554 S
C679 C148 1.399 . S
C684 C64 1.399 . S
C695 C162 1.399 . S
C700 C78 1.399 . S
C711 C92 1.417 . S
C716 C120 1.416 . S
C727 C134 1.418 . S
C732 C106 1.419 . S
