# Generated by pormake.
# Topology wjd, (6)-cn, num edge types: 1
# Building blocks:
#     Node 0, Type 0, BuildingBlock: VOLQOD_clean_sbu_1, # of connection points: 6
#     Node 1, Type 0, BuildingBlock: VOLQOD_clean_sbu_1, # of connection points: 6
#     Node 2, Type 0, BuildingBlock: VOLQOD_clean_sbu_1, # of connection points: 6
#     Node 3, Type 0, BuildingBlock: VOLQOD_clean_sbu_1, # of connection points: 6
#     Node 4, Type 0, BuildingBlock: VOLQOD_clean_sbu_1, # of connection points: 6
#     Node 5, Type 0, BuildingBlock: VOLQOD_clean_sbu_1, # of connection points: 6
#     Node 6, Type 0, BuildingBlock: VOLQOD_clean_sbu_1, # of connection points: 6
#     Node 7, Type 0, BuildingBlock: VOLQOD_clean_sbu_1, # of connection points: 6
#     Node 8, Type 0, BuildingBlock: VOLQOD_clean_sbu_1, # of connection points: 6
#     Node 9, Type 0, BuildingBlock: VOLQOD_clean_sbu_1, # of connection points: 6
#     Node 10, Type 0, BuildingBlock: VOLQOD_clean_sbu_1, # of connection points: 6
#     Node 11, Type 0, BuildingBlock: VOLQOD_clean_sbu_1, # of connection points: 6
#     Edge 12, Type (0, 0), BuildingBlock: OJICUG_clean_linker_0, # of connection points: 2
#     Edge 13, Type (0, 0), BuildingBlock: OJICUG_clean_linker_0, # of connection points: 2
#     Edge 14, Type (0, 0), BuildingBlock: OJICUG_clean_linker_0, # of connection points: 2
#     Edge 15, Type (0, 0), BuildingBlock: OJICUG_clean_linker_0, # of connection points: 2
#     Edge 16, Type (0, 0), BuildingBlock: OJICUG_clean_linker_0, # of connection points: 2
#     Edge 17, Type (0, 0), BuildingBlock: OJICUG_clean_linker_0, # of connection points: 2
#     Edge 18, Type (0, 0), BuildingBlock: OJICUG_clean_linker_0, # of connection points: 2
#     Edge 19, Type (0, 0), BuildingBlock: OJICUG_clean_linker_0, # of connection points: 2
#     Edge 20, Type (0, 0), BuildingBlock: OJICUG_clean_linker_0, # of connection points: 2
#     Edge 21, Type (0, 0), BuildingBlock: OJICUG_clean_linker_0, # of connection points: 2
#     Edge 22, Type (0, 0), BuildingBlock: OJICUG_clean_linker_0, # of connection points: 2
#     Edge 23, Type (0, 0), BuildingBlock: OJICUG_clean_linker_0, # of connection points: 2
#     Edge 24, Type (0, 0), BuildingBlock: OJICUG_clean_linker_0, # of connection points: 2
#     Edge 25, Type (0, 0), BuildingBlock: OJICUG_clean_linker_0, # of connection points: 2
#     Edge 26, Type (0, 0), BuildingBlock: OJICUG_clean_linker_0, # of connection points: 2
#     Edge 27, Type (0, 0), BuildingBlock: OJICUG_clean_linker_0, # of connection points: 2
#     Edge 28, Type (0, 0), BuildingBlock: OJICUG_clean_linker_0, # of connection points: 2
#     Edge 29, Type (0, 0), BuildingBlock: OJICUG_clean_linker_0, # of connection points: 2
#     Edge 30, Type (0, 0), BuildingBlock: OJICUG_clean_linker_0, # of connection points: 2
#     Edge 31, Type (0, 0), BuildingBlock: OJICUG_clean_linker_0, # of connection points: 2
#     Edge 32, Type (0, 0), BuildingBlock: OJICUG_clean_linker_0, # of connection points: 2
#     Edge 33, Type (0, 0), BuildingBlock: OJICUG_clean_linker_0, # of connection points: 2
#     Edge 34, Type (0, 0), BuildingBlock: OJICUG_clean_linker_0, # of connection points: 2
#     Edge 35, Type (0, 0), BuildingBlock: OJICUG_clean_linker_0, # of connection points: 2
#     Edge 36, Type (0, 0), BuildingBlock: OJICUG_clean_linker_0, # of connection points: 2
#     Edge 37, Type (0, 0), BuildingBlock: OJICUG_clean_linker_0, # of connection points: 2
#     Edge 38, Type (0, 0), BuildingBlock: OJICUG_clean_linker_0, # of connection points: 2
#     Edge 39, Type (0, 0), BuildingBlock: OJICUG_clean_linker_0, # of connection points: 2
#     Edge 40, Type (0, 0), BuildingBlock: OJICUG_clean_linker_0, # of connection points: 2
#     Edge 41, Type (0, 0), BuildingBlock: OJICUG_clean_linker_0, # of connection points: 2
#     Edge 42, Type (0, 0), BuildingBlock: OJICUG_clean_linker_0, # of connection points: 2
#     Edge 43, Type (0, 0), BuildingBlock: OJICUG_clean_linker_0, # of connection points: 2
#     Edge 44, Type (0, 0), BuildingBlock: OJICUG_clean_linker_0, # of connection points: 2
#     Edge 45, Type (0, 0), BuildingBlock: OJICUG_clean_linker_0, # of connection points: 2
#     Edge 46, Type (0, 0), BuildingBlock: OJICUG_clean_linker_0, # of connection points: 2
#     Edge 47, Type (0, 0), BuildingBlock: OJICUG_clean_linker_0, # of connection points: 2
# Relax obj value: 0.309
# Max RMSD: 0.232
# Mean RMSD: 0.231
data_MOF--net-wjd--node1-VOLQOD_clean_sbu_1--edge1-OJICUG_clean_linker_0
_symmetry_space_group_name_H-M    P1
_symmetry_Int_Tables_number       1
_symmetry_cell_setting            triclinic
loop_
_symmetry_equiv_pos_as_xyz
'x, y, z'
_cell_length_a     24.621174
_cell_length_b     24.342125
_cell_length_c     48.912631
_cell_angle_alpha  90.010117
_cell_angle_beta   89.990087
_cell_angle_gamma 120.41162
loop_
_atom_site_label
_atom_site_type_symbol
_atom_site_fract_x
_atom_site_fract_y
_atom_site_fract_z
_atom_type_partial_charge
O0 O 0.35617 0.23099 0.09038 0.0
Zn1 Zn 0.28181 0.14305 0.09832 0.0
O2 O 0.30287 0.10169 0.12698 0.0
Zn3 Zn 0.30432 0.02859 0.11277 0.0
Zn4 Zn 0.37967 0.16186 0.14413 0.0
Zn5 Zn 0.24332 0.07454 0.15565 0.0
O6 O 0.22805 0.94601 0.12592 0.0
O7 O 0.17851 -0.01447 0.14973 0.0
O8 O 0.25213 0.08795 0.06372 0.0
O9 O 0.28984 0.02389 0.0729 0.0
O10 O 0.39018 0.03781 0.11835 0.0
O11 O 0.44245 0.13716 0.13475 0.0
O12 O 0.3768 0.16188 0.18542 0.0
O13 O 0.21778 0.16354 0.11296 0.0
O14 O 0.28115 0.07939 0.19202 0.0
O15 O 0.20447 0.1288 0.15589 0.0
C16 C 0.39704 0.26845 0.10761 0.0
C17 C 0.17981 0.93886 0.13884 0.0
C18 C 0.44102 0.08722 0.12598 0.0
C19 C 0.26432 0.04482 0.0566 0.0
C20 C 0.33473 0.12081 0.20113 0.0
C21 C 0.19613 0.15975 0.13701 0.0
O22 O 0.4071 0.24864 0.13004 0.0
O23 O 0.81578 0.552 0.37934 0.0
Zn24 Zn 0.8068 0.61899 0.35995 0.0
O25 O 0.76128 0.64617 0.38272 0.0
Zn26 Zn 0.68447 0.6306 0.36579 0.0
Zn27 Zn 0.74506 0.60608 0.4181 0.0
Zn28 Zn 0.80753 0.73625 0.38649 0.0
O29 O 0.67453 0.70757 0.36936 0.0
O30 O 0.7746 0.77602 0.36068 0.0
O31 O 0.76564 0.59176 0.32274 0.0
O32 O 0.68744 0.61248 0.32584 0.0
O33 O 0.61186 0.55594 0.38349 0.0
O34 O 0.65415 0.53764 0.41999 0.0
O35 O 0.75917 0.66953 0.44784 0.0
O36 O 0.89596 0.69005 0.3546 0.0
O37 O 0.79322 0.75964 0.42442 0.0
O38 O 0.89827 0.77013 0.37771 0.0
C39 C 0.81522 0.53897 0.40463 0.0
C40 C 0.71777 0.76285 0.3622 0.0
C41 C 0.6068 0.52399 0.40493 0.0
C42 C 0.7205 0.59567 0.31196 0.0
C43 C 0.77488 0.72809 0.44665 0.0
C44 C 0.92549 0.74649 0.36396 0.0
O45 O 0.79462 0.56127 0.4229 0.0
O46 O 0.72552 0.14208 0.10602 0.0
Zn47 Zn 0.81241 0.15169 0.10816 0.0
O48 O 0.86373 0.21139 0.13722 0.0
Zn49 Zn 0.94154 0.28001 0.12206 0.0
Zn50 Zn 0.81757 0.24492 0.15481 0.0
Zn51 Zn 0.88243 0.16917 0.16554 0.0
O52 O 0.01787 0.28514 0.13981 0.0
O53 O -0.02877 0.19276 0.16213 0.0
O54 O 0.85948 0.1746 0.07147 0.0
O55 O 0.95013 0.25938 0.08372 0.0
O56 O 0.94047 0.36272 0.12045 0.0
O57 O 0.84923 0.33255 0.1415 0.0
O58 O 0.82133 0.2463 0.19593 0.0
O59 O 0.79134 0.06347 0.11897 0.0
O60 O 0.87157 0.19372 0.2033 0.0
O61 O 0.82879 0.07496 0.16124 0.0
C62 C 0.69801 0.15535 0.12478 0.0
C63 C 0.02044 0.24131 0.15299 0.0
C64 C 0.89781 0.37379 0.12867 0.0
C65 C 0.91586 0.21826 0.06599 0.0
C66 C 0.84554 0.22388 0.21215 0.0
C67 C 0.79714 0.03982 0.14124 0.0
O68 O 0.72841 0.19155 0.14467 0.0
O69 O 0.37288 0.25978 0.38211 0.0
Zn70 Zn 0.30701 0.18073 0.3648 0.0
O71 O 0.28753 0.10937 0.38822 0.0
Zn72 Zn 0.3031 0.04707 0.37069 0.0
Zn73 Zn 0.33106 0.13819 0.42277 0.0
Zn74 Zn 0.20022 0.06613 0.39506 0.0
O75 O 0.22444 0.95878 0.36848 0.0
O76 O 0.15656 -0.00693 0.37033 0.0
O77 O 0.33484 0.16855 0.32798 0.0
O78 O 0.32845 0.07425 0.33165 0.0
O79 O 0.37418 0.04518 0.38997 0.0
O80 O 0.39584 0.11196 0.4248 0.0
O81 O 0.27188 0.09611 0.45445 0.0
O82 O 0.23363 0.19461 0.36009 0.0
O83 O 0.18167 0.03244 0.43306 0.0
O84 O 0.16384 0.1204 0.38803 0.0
C85 C 0.39368 0.27541 0.40636 0.0
C86 C 0.16965 0.95039 0.3644 0.0
C87 C 0.40702 0.07453 0.41091 0.0
C88 C 0.33972 0.12317 0.3177 0.0
C89 C 0.21446 0.0515 0.45475 0.0
C90 C 0.18096 0.16796 0.37238 0.0
O91 O 0.37867 0.23417 0.42528 0.0
O92 O 0.82677 0.58621 0.09093 0.0
Zn93 Zn 0.81207 0.66141 0.09304 0.0
O94 O 0.75203 0.64941 0.12205 0.0
Zn95 Zn 0.68392 0.65996 0.10902 0.0
Zn96 Zn 0.71834 0.56663 0.137 0.0
Zn97 Zn 0.79352 0.7061 0.15157 0.0
O98 O 0.68347 0.73405 0.12767 0.0
O99 O 0.77445 0.77541 0.15016 0.0
O100 O 0.78539 0.68332 0.05673 0.0
O101 O 0.70087 0.68705 0.07014 0.0
O102 O 0.601 0.57525 0.10912 0.0
O103 O 0.63731 0.50979 0.11844 0.0
O104 O 0.70488 0.56238 0.17798 0.0
O105 O 0.89904 0.73115 0.10412 0.0
O106 O 0.76321 0.66506 0.18797 0.0
O107 O 0.88616 0.74262 0.14835 0.0
C108 C 0.81758 0.54797 0.11058 0.0
C109 C 0.72744 0.77874 0.14163 0.0
C110 C 0.59394 0.51956 0.11013 0.0
C111 C 0.74049 0.69401 0.05182 0.0
C112 C 0.72764 0.6076 0.19528 0.0
C113 C 0.92169 0.75254 0.12778 0.0
O114 O 0.77963 0.53926 0.12994 0.0
O115 O 0.67262 0.11189 0.39092 0.0
Zn116 Zn 0.75232 0.12652 0.37449 0.0
O117 O 0.81843 0.17165 0.40064 0.0
Zn118 Zn 0.8868 0.24686 0.3843 0.0
Zn119 Zn 0.78953 0.19146 0.43382 0.0
Zn120 Zn 0.85011 0.11789 0.40966 0.0
O121 O -0.03126 0.24729 0.38611 0.0
O122 O 0.92415 0.1419 0.38605 0.0
O123 O 0.77088 0.17133 0.33811 0.0
O124 O 0.87067 0.24705 0.34413 0.0
O125 O 0.89045 0.32426 0.40037 0.0
O126 O 0.8154 0.28416 0.43214 0.0
O127 O 0.83197 0.17858 0.46717 0.0
O128 O 0.73825 0.03915 0.36728 0.0
O129 O 0.88192 0.13366 0.44803 0.0
O130 O 0.78678 0.02609 0.40282 0.0
C131 C 0.65487 0.11534 0.415 0.0
C132 C -0.02888 0.19707 0.38147 0.0
C133 C 0.85686 0.33123 0.41833 0.0
C134 C 0.82267 0.21653 0.32884 0.0
C135 C 0.86993 0.15742 0.4687 0.0
C136 C 0.74949 0.00381 0.38252 0.0
O137 O 0.6939 0.14112 0.43469 0.0
O138 O 0.24394 0.40979 0.63134 0.0
Zn139 Zn 0.16791 0.3427 0.65071 0.0
O140 O 0.09508 0.31572 0.62803 0.0
Zn141 Zn 0.03411 0.33182 0.6449 0.0
Zn142 Zn 0.11907 0.3554 0.59258 0.0
Zn143 Zn 0.05056 0.22558 0.62449 0.0
O144 O 0.94683 0.25512 0.64135 0.0
O145 O -0.02207 0.1865 0.65036 0.0
O146 O 0.15403 0.36991 0.68792 0.0
O147 O 0.05538 0.35008 0.68484 0.0
O148 O 0.03658 0.40649 0.62704 0.0
O149 O 0.0966 0.42375 0.59041 0.0
O150 O 0.06986 0.29161 0.56295 0.0
O151 O 0.1858 0.27148 0.65597 0.0
O152 O 0.01295 0.20192 0.58655 0.0
O153 O 0.10678 0.19121 0.63347 0.0
C154 C 0.25641 0.42282 0.60605 0.0
C155 C 0.93444 0.19983 0.64866 0.0
C156 C 0.06324 0.43789 0.60545 0.0
C157 C 0.10519 0.36649 0.6987 0.0
C158 C 0.02665 0.23319 0.56424 0.0
C159 C 0.15801 0.21473 0.64694 0.0
O160 O 0.21349 0.40037 0.58779 0.0
O161 O 0.10664 0.73053 0.91904 0.0
Zn162 Zn 0.11982 0.81827 0.91106 0.0
O163 O 0.18206 0.85975 0.88234 0.0
Zn164 Zn 0.25669 0.93284 0.89654 0.0
Zn165 Zn 0.1985 0.79956 0.86511 0.0
Zn166 Zn 0.14953 0.8869 0.85375 0.0
O167 O 0.26305 0.01543 0.88341 0.0
O168 O 0.17375 0.97588 0.85977 0.0
O169 O 0.14514 0.87346 0.94562 0.0
O170 O 0.24693 0.93764 0.93641 0.0
O171 O 0.33323 0.92344 0.89102 0.0
O172 O 0.28595 0.82417 0.87452 0.0
O173 O 0.19564 0.79974 0.82382 0.0
O174 O 0.03518 0.79745 0.89648 0.0
O175 O 0.1824 0.88216 0.81732 0.0
O176 O 0.05637 0.83255 0.8536 0.0
C177 C 0.1096 0.69298 0.90172 0.0
C178 C 0.22182 0.02256 0.87062 0.0
C179 C 0.33453 0.874 0.88336 0.0
C180 C 0.20047 0.91671 0.95272 0.0
C181 C 0.19458 0.84082 0.80815 0.0
C182 C 0.01718 0.80137 0.87249 0.0
O183 O 0.13901 0.71269 0.87918 0.0
O184 O 0.54091 0.85018 0.61936 0.0
Zn185 Zn 0.60596 0.83565 0.63588 0.0
O186 O 0.62718 0.79072 0.60975 0.0
Zn187 Zn 0.62036 0.71559 0.62604 0.0
Zn188 Zn 0.57857 0.77074 0.57655 0.0
Zn189 Zn 0.71272 0.84457 0.60082 0.0
O190 O 0.70178 0.71513 0.62401 0.0
O191 O 0.76266 0.82052 0.62447 0.0
O192 O 0.57975 0.79079 0.67229 0.0
O193 O 0.60438 0.71553 0.66623 0.0
O194 O 0.54643 0.63815 0.61011 0.0
O195 O 0.51142 0.67809 0.57833 0.0
O196 O 0.63403 0.78322 0.54328 0.0
O197 O 0.67917 0.92314 0.64309 0.0
O198 O 0.72893 0.82865 0.56247 0.0
O199 O 0.74113 0.93638 0.60766 0.0
C200 C 0.52013 0.84699 0.59521 0.0
C201 C 0.75441 0.76526 0.62879 0.0
C202 C 0.50577 0.63109 0.59218 0.0
C203 C 0.58671 0.74583 0.68155 0.0
C204 C 0.69321 0.80452 0.54181 0.0
C205 C 0.72588 0.95858 0.62791 0.0
O206 O 0.53365 0.82137 0.57554 0.0
O207 O 0.22144 0.3743 0.9196 0.0
Zn208 Zn 0.13143 0.29926 0.9174 0.0
O209 O 0.08354 0.31173 0.88848 0.0
Zn210 Zn 0.00495 0.30136 0.90152 0.0
Zn211 Zn 0.13291 0.3946 0.87364 0.0
Zn212 Zn 0.06811 0.2552 0.85888 0.0
O213 O 0.93025 0.22714 0.88298 0.0
O214 O -0.02027 0.18583 0.86038 0.0
O215 O 0.08279 0.27721 0.9537 0.0
O216 O -0.0051 0.27443 0.94042 0.0
O217 O 0.00688 0.38612 0.90125 0.0
O218 O 0.10885 0.45152 0.8922 0.0
O219 O 0.12373 0.39911 0.83268 0.0
O220 O 0.14846 0.22951 0.9061 0.0
O221 O 0.07858 0.29644 0.82256 0.0
O222 O 0.12428 0.21873 0.86186 0.0
C223 C 0.25063 0.41271 0.90002 0.0
C224 C 0.92942 0.18245 0.869 0.0
C225 C 0.05559 0.44179 0.90033 0.0
C226 C 0.02737 0.267 0.95867 0.0
C227 C 0.10082 0.354 0.81533 0.0
C228 C 0.14979 0.20848 0.88237 0.0
O229 O 0.22153 0.42172 0.8807 0.0
O230 O 0.09323 0.70215 0.62727 0.0
Zn231 Zn 0.10669 0.78132 0.64451 0.0
O232 O 0.15856 0.85254 0.62099 0.0
Zn233 Zn 0.23627 0.91512 0.63865 0.0
Zn234 Zn 0.17369 0.82352 0.58655 0.0
Zn235 Zn 0.11398 0.89506 0.61375 0.0
O236 O 0.24516 0.00301 0.64126 0.0
O237 O 0.143 0.96847 0.63819 0.0
O238 O 0.14674 0.79338 0.6813 0.0
O239 O 0.23464 0.88771 0.67763 0.0
O240 O 0.30966 0.91776 0.61938 0.0
O241 O 0.26485 0.85024 0.58475 0.0
O242 O 0.15665 0.86501 0.55461 0.0
O243 O 0.01956 0.76761 0.64936 0.0
O244 O 0.12898 0.92811 0.57567 0.0
O245 O 0.0233 0.84048 0.62082 0.0
C246 C 0.09885 0.68637 0.60311 0.0
C247 C 0.19838 0.01103 0.64481 0.0
C248 C 0.31337 0.88818 0.59857 0.0
C249 C 0.19705 0.83875 0.69157 0.0
C250 C 0.14324 0.90916 0.5541 0.0
C251 C -0.00681 0.79351 0.6368 0.0
O252 O 0.12557 0.7275 0.58419 0.0
O253 O 0.56366 0.81878 0.9042 0.0
Zn254 Zn 0.64098 0.80917 0.90225 0.0
O255 O 0.63289 0.74962 0.87316 0.0
Zn256 Zn 0.64238 0.68122 0.88832 0.0
Zn257 Zn 0.55312 0.71562 0.85556 0.0
Zn258 Zn 0.69382 0.79213 0.84485 0.0
O259 O 0.71355 0.67626 0.87046 0.0
O260 O 0.75902 0.76849 0.84804 0.0
O261 O 0.66484 0.78611 0.93899 0.0
O262 O 0.67162 0.70194 0.92665 0.0
O263 O 0.55875 0.59833 0.88999 0.0
O264 O 0.49734 0.62793 0.86888 0.0
O265 O 0.55552 0.7144 0.81444 0.0
O266 O 0.70833 0.8975 0.8916 0.0
O267 O 0.65839 0.76803 0.80707 0.0
O268 O 0.73448 0.88628 0.84932 0.0
C269 C 0.52283 0.80513 0.88543 0.0
C270 C 0.75978 0.72 0.85716 0.0
C271 C 0.50492 0.58692 0.88176 0.0
C272 C 0.67798 0.74277 0.94443 0.0
C273 C 0.60221 0.7375 0.79822 0.0
C274 C 0.73792 0.92129 0.86936 0.0
O275 O 0.51708 0.76869 0.86566 0.0
C276 C 0.11487 0.25516 0.1287 0.0
C277 C 0.07816 0.23792 0.15254 0.0
H278 H 0.18052 0.24265 0.10476 0.0
C279 C 0.0872 0.20258 0.17281 0.0
H280 H 0.10824 0.28188 0.11265 0.0
C281 C 0.12796 0.17966 0.16825 0.0
C282 C 0.15995 0.19131 0.14321 0.0
H283 H 0.05932 0.18877 0.19137 0.0
H284 H 0.13151 0.14982 0.18373 0.0
C285 C 0.1553 0.23166 0.12399 0.0
C286 C 0.10067 0.83432 0.3722 0.0
C287 C 0.11638 0.88854 0.35643 0.0
H288 H 0.02521 0.74481 0.38695 0.0
C289 C 0.07134 0.88835 0.33877 0.0
H290 H 0.13453 0.83408 0.38626 0.0
C291 C 0.00935 0.83832 0.33948 0.0
C292 C -0.00795 0.78761 0.35754 0.0
H293 H 0.08259 0.92996 0.32657 0.0
H294 H -0.02598 0.84172 0.3276 0.0
C295 C 0.03829 0.78379 0.37279 0.0
C296 C 0.78314 0.94422 0.16621 0.0
C297 C 0.7689 0.9702 0.14359 0.0
H298 H 0.77951 0.86188 0.18352 0.0
C299 C 0.73047 0.92935 0.12265 0.0
H300 H 0.81178 0.97411 0.1829 0.0
C301 C 0.71104 0.86459 0.12329 0.0
C302 C 0.7304 0.84015 0.14472 0.0
H303 H 0.71781 0.94783 0.10516 0.0
H304 H 0.68523 0.83494 0.10602 0.0
C305 C 0.76432 0.87984 0.16669 0.0
C306 C 0.07826 0.14323 0.35491 0.0
C307 C 0.1352 0.18762 0.36708 0.0
H308 H -0.01885 0.1127 0.34953 0.0
C309 C 0.14124 0.24228 0.37958 0.0
H310 H 0.07305 0.10066 0.34532 0.0
C311 C 0.0884 0.24915 0.38219 0.0
C312 C 0.02969 0.20092 0.37253 0.0
H313 H 0.18499 0.27644 0.38936 0.0
H314 H 0.09225 0.28885 0.39381 0.0
C315 C 0.02583 0.14993 0.35752 0.0
C316 C 0.09668 0.84737 0.11275 0.0
C317 C 0.1199 0.87841 0.13786 0.0
H318 H 0.01481 0.78342 0.08962 0.0
C319 C 0.07924 0.86131 0.16036 0.0
H320 H 0.12716 0.86062 0.09502 0.0
C321 C 0.01527 0.81788 0.15731 0.0
C322 C -0.00939 0.79119 0.13158 0.0
H323 H 0.09624 0.88494 0.17989 0.0
H324 H -0.01519 0.80806 0.17484 0.0
C325 C 0.03226 0.80411 0.10959 0.0
C326 C 0.73487 0.8649 0.34366 0.0
C327 C 0.70724 0.8167 0.36341 0.0
H328 H 0.76795 0.96277 0.33419 0.0
C329 C 0.68398 0.82771 0.38772 0.0
H330 H 0.75384 0.85735 0.32497 0.0
C331 C 0.69462 0.8885 0.39352 0.0
C332 C 0.7261 0.93777 0.37452 0.0
H333 H 0.66318 0.79118 0.4033 0.0
H334 H 0.68123 0.89784 0.41332 0.0
C335 C 0.7432 0.92497 0.34899 0.0
C336 C 0.24624 0.12785 0.6388 0.0
C337 C 0.20615 0.07216 0.65343 0.0
H338 H 0.26187 0.21881 0.62534 0.0
C339 C 0.1597 0.07074 0.67056 0.0
H340 H 0.28168 0.12939 0.62516 0.0
C341 C 0.14785 0.12081 0.67028 0.0
C342 C 0.18303 0.17322 0.65325 0.0
H343 H 0.1282 0.02805 0.68193 0.0
H344 H 0.10798 0.11627 0.68165 0.0
C345 C 0.23458 0.1785 0.6387 0.0
C346 C 0.9045 0.72923 0.88563 0.0
C347 C 0.94937 0.76977 0.86638 0.0
H348 H 0.80731 0.67895 0.89716 0.0
C349 C 0.92882 0.78166 0.84147 0.0
H350 H 0.9189 0.71805 0.90476 0.0
C351 C 0.86509 0.75883 0.83706 0.0
C352 C 0.82086 0.72334 0.85738 0.0
H353 H 0.96211 0.81166 0.82597 0.0
H354 H 0.85087 0.77283 0.81861 0.0
C355 C 0.84052 0.70581 0.88108 0.0
C356 C 0.78654 0.07389 0.61683 0.0
C357 C 0.76829 0.02471 0.63592 0.0
H358 H 0.85254 0.17124 0.60711 0.0
C359 C 0.7974 0.03776 0.66163 0.0
H360 H 0.76439 0.06439 0.59689 0.0
C361 C 0.84889 0.09795 0.66709 0.0
C362 C 0.86998 0.14604 0.64727 0.0
H363 H 0.78397 6e-05 0.67651 0.0
H364 H 0.87487 0.10565 0.68596 0.0
C365 C 0.8364 0.1348 0.62274 0.0
C366 C 0.209 0.15692 0.90026 0.0
C367 C 0.18005 0.1699 0.87839 0.0
H368 H 0.24765 0.1005 0.91457 0.0
C369 C 0.17786 0.14339 0.8526 0.0
H370 H 0.21237 0.17748 0.92027 0.0
C371 C 0.19847 0.10009 0.84937 0.0
C372 C 0.22228 0.08294 0.87176 0.0
H373 H 0.15705 0.15326 0.83515 0.0
H374 H 0.19171 0.07658 0.8298 0.0
C375 C 0.23025 0.1138 0.89692 0.0
C376 C 0.879 0.71966 0.62978 0.0
C377 C 0.92791 0.77405 0.64231 0.0
H378 H 0.78322 0.67349 0.61582 0.0
C379 C 0.91573 0.8184 0.65477 0.0
H380 H 0.8883 0.68555 0.61977 0.0
C381 C 0.85663 0.81191 0.65244 0.0
C382 C 0.80917 0.76117 0.63744 0.0
H383 H 0.95335 0.86078 0.66438 0.0
H384 H 0.84946 0.84912 0.66066 0.0
C385 C 0.81932 0.71299 0.62746 0.0
C386 C 0.86496 0.08143 0.84392 0.0
C387 C 0.87093 0.12102 0.86596 0.0
H388 H 0.81798 -0.01276 0.82764 0.0
C389 C 0.82733 0.09644 0.88748 0.0
H390 H 0.89797 0.0995 0.82703 0.0
C391 C 0.78198 0.03166 0.88811 0.0
C392 C 0.77936 -0.00907 0.86708 0.0
H393 H 0.83134 0.12602 0.90481 0.0
H394 H 0.751 0.01308 0.90565 0.0
C395 C 0.8194 0.01704 0.84439 0.0
C396 C 0.37953 0.18078 0.2733 0.0
C397 C 0.3497 0.12328 0.28802 0.0
H398 H 0.39954 0.22499 0.23376 0.0
C399 C 0.32189 0.06527 0.27375 0.0
H400 H 0.40145 0.22612 0.28387 0.0
C401 C 0.31946 0.06472 0.24529 0.0
C402 C 0.34628 0.12211 0.23063 0.0
H403 H 0.29832 0.02023 0.28455 0.0
H404 H 0.29475 0.01937 0.23475 0.0
C405 C 0.37857 0.18017 0.24472 0.0
C406 C 0.73089 0.55256 0.26687 0.0
C407 C 0.71183 0.58901 0.28203 0.0
H408 H 0.74872 0.52828 0.22692 0.0
C409 C 0.69078 0.62524 0.26808 0.0
H410 H 0.74729 0.52422 0.27714 0.0
C411 C 0.69315 0.62872 0.23961 0.0
C412 C 0.7146 0.59442 0.22456 0.0
H413 H 0.67623 0.65416 0.27918 0.0
H414 H 0.68029 0.65997 0.22935 0.0
C415 C 0.73142 0.55458 0.23825 0.0
C416 C 0.7848 0.21813 0.25399 0.0
C417 C 0.84155 0.23041 0.24183 0.0
H418 H 0.73377 0.20299 0.29151 0.0
C419 C 0.89326 0.24392 0.25842 0.0
H420 H 0.74424 0.20724 0.24148 0.0
C421 C 0.88793 0.24347 0.28681 0.0
C422 C 0.83015 0.22744 0.2991 0.0
H423 H 0.93747 0.2536 0.24942 0.0
H424 H 0.92813 0.25223 0.29912 0.0
C425 C 0.7788 0.21558 0.28248 0.0
C426 C 0.15894 0.40937 0.74376 0.0
C427 C 0.1033 0.37316 0.72863 0.0
H428 H 0.20126 0.43328 0.78366 0.0
C429 C 0.046 0.33706 0.74262 0.0
H430 H 0.2037 0.43761 0.73346 0.0
C431 C 0.04501 0.33342 0.77108 0.0
C432 C 0.10088 0.36742 0.78609 0.0
H433 H 0.00244 0.30833 0.73154 0.0
H434 H 0.00087 0.30224 0.78136 0.0
C435 C 0.15757 0.4072 0.77237 0.0
C436 C 0.23532 0.89703 0.764 0.0
C437 C 0.20478 0.83961 0.77864 0.0
H438 H 0.25862 0.94162 0.72476 0.0
C439 C 0.17901 0.78158 0.76452 0.0
H440 H 0.25596 0.94236 0.77456 0.0
C441 C 0.17935 0.78105 0.73594 0.0
C442 C 0.20699 0.83858 0.72124 0.0
H443 H 0.15519 0.73674 0.77546 0.0
H444 H 0.15592 0.73573 0.72535 0.0
C445 C 0.23719 0.89655 0.73554 0.0
C446 C 0.54376 0.74635 0.72797 0.0
C447 C 0.58342 0.73488 0.71128 0.0
H448 H 0.51736 0.75407 0.76902 0.0
C449 C 0.62532 0.71899 0.72349 0.0
H450 H 0.51119 0.75882 0.71901 0.0
C451 C 0.63015 0.71824 0.75187 0.0
C452 C 0.59175 0.73129 0.76854 0.0
H453 H 0.65688 0.71052 0.71112 0.0
H454 H 0.66479 0.70865 0.76081 0.0
C455 C 0.54717 0.74349 0.75646 0.0
C456 C 0.27118 0.9642 0.9924 0.0
C457 C 0.21313 0.94612 0.98002 0.0
H458 H 0.33275 0.01024 0.0261 0.0
C459 C 0.17216 0.96302 0.99245 0.0
H460 H 0.30383 0.9522 0.98312 0.0
C461 C 0.18968 -0.0018 0.01689 0.0
C462 C 0.24771 0.01552 0.02928 0.0
H463 H 0.1276 0.9505 0.98296 0.0
H464 H 0.15743 0.01036 0.02641 0.0
C465 C 0.28798 -0.00209 0.01684 0.0
C466 C 0.78105 0.74981 0.49672 0.0
C467 C 0.76204 0.75654 0.47055 0.0
H468 H 0.77553 0.76207 0.53978 0.0
C469 C 0.72352 0.78346 0.4677 0.0
H470 H 0.81019 0.72859 0.49938 0.0
C471 C 0.70156 0.80029 0.49081 0.0
C472 C 0.71988 0.79267 0.51702 0.0
H473 H 0.7076 0.78821 0.44768 0.0
H474 H 0.66971 0.81836 0.48824 0.0
C475 C 0.76117 0.76893 0.51973 0.0
C476 C 0.03698 0.26529 0.00966 0.0
C477 C -0.00086 0.24748 0.98621 0.0
H478 H 0.03996 0.27012 0.05334 0.0
C479 C 0.9331 0.21457 0.98925 0.0
H480 H 0.08784 0.29058 0.00797 0.0
C481 C 0.90551 0.20205 0.0152 0.0
C482 C 0.94348 0.22328 0.0386 0.0
H483 H 0.90263 0.19963 0.97148 0.0
H484 H 0.85471 0.17835 0.01688 0.0
C485 C 0.00943 0.25382 0.03559 0.0
C486 C 0.15357 0.94866 0.47922 0.0
C487 C 0.18812 0.01555 0.48008 0.0
H488 H 0.11313 0.86198 0.50239 0.0
C489 C 0.20244 0.04689 0.50535 0.0
H490 H 0.14255 0.92359 0.45986 0.0
C491 C 0.18388 0.0117 0.52953 0.0
C492 C 0.15281 0.94485 0.52869 0.0
H493 H 0.22917 0.09844 0.50638 0.0
H494 H 0.19701 0.03682 0.54889 0.0
C495 C 0.13698 0.91349 0.50341 0.0
C496 C 0.75191 0.69577 1.00083 0.0
C497 C 0.73175 0.71348 0.02427 0.0
H498 H 0.75028 0.69106 0.95715 0.0
C499 C 0.69856 0.74629 0.02121 0.0
H500 H 0.77754 0.67056 1.00253 0.0
C501 C 0.68355 0.75881 0.99524 0.0
C502 C 0.70045 0.7377 0.97185 0.0
H503 H 0.68293 0.76116 0.03896 0.0
H504 H 0.6564 0.78243 0.99355 0.0
C505 C 0.73592 0.70726 0.97488 0.0
C506 C 0.92015 0.17795 0.54295 0.0
C507 C -0.01437 0.20467 0.54027 0.0
H508 H 0.83177 0.14344 0.52216 0.0
C509 C 0.01173 0.21132 0.51418 0.0
H510 H 0.89921 0.17326 0.5629 0.0
C511 C -0.02693 0.19241 0.49107 0.0
C512 C 0.90803 0.16895 0.49359 0.0
H513 H 0.06213 0.2324 0.51166 0.0
H514 H -0.00542 0.19926 0.47108 0.0
C515 C 0.88171 0.16132 0.51973 0.0
C516 C 0.59951 0.12613 0.14959 0.0
C517 C 0.62909 0.12699 0.12488 0.0
H518 H 0.51553 0.11087 0.16912 0.0
C519 C 0.59256 0.10315 0.10104 0.0
H520 H 0.62586 0.14252 0.16851 0.0
C521 C 0.52836 0.08389 0.10161 0.0
C522 C 0.50076 0.08818 0.12603 0.0
H523 H 0.61414 0.10267 0.08181 0.0
H524 H 0.50163 0.07009 0.08275 0.0
C525 C 0.53615 0.1072 0.15011 0.0
C526 C 0.49406 0.45034 0.39381 0.0
C527 C 0.54635 0.46548 0.41038 0.0
H528 H 0.40376 0.37769 0.37996 0.0
C529 C 0.54242 0.42058 0.42959 0.0
H530 H 0.49504 0.48427 0.3792 0.0
C531 C 0.48962 0.35933 0.43013 0.0
C532 C 0.44056 0.3425 0.41138 0.0
H533 H 0.58174 0.43117 0.44287 0.0
H534 H 0.48955 0.32401 0.44363 0.0
C535 C 0.44172 0.3893 0.39425 0.0
C536 C 0.88927 0.44606 0.09547 0.0
C537 C 0.90064 0.43375 0.12231 0.0
H538 H 0.85328 0.49317 0.07036 0.0
C539 C 0.89545 0.468 0.14407 0.0
H540 H 0.89195 0.41892 0.07849 0.0
C541 C 0.87293 0.5092 0.13953 0.0
C542 C 0.85486 0.51652 0.11316 0.0
H543 H 0.90342 0.45859 0.16491 0.0
H544 H 0.86561 0.53209 0.15701 0.0
C545 C 0.86659 0.48778 0.09085 0.0
C546 C 0.48249 0.03819 0.39955 0.0
C547 C 0.46476 0.0725 0.41681 0.0
H548 H 0.55706 0.02451 0.38581 0.0
C549 C 0.507 0.11192 0.43718 0.0
H550 H 0.45081 0.0066 0.38397 0.0
C551 C 0.5681 0.12201 0.43829 0.0
C552 C 0.58765 0.09303 0.41898 0.0
H553 H 0.49444 0.13839 0.45106 0.0
H554 H 0.60119 0.15616 0.45281 0.0
C555 C 0.54345 0.04855 0.40057 0.0
C556 C 0.43397 0.37977 0.12071 0.0
C557 C 0.43529 0.33664 0.10203 0.0
H558 H 0.48373 0.47444 0.13713 0.0
C559 C 0.48272 0.35851 0.08221 0.0
H560 H 0.39788 0.36321 0.13635 0.0
C561 C 0.53221 0.42158 0.083 0.0
C562 C 0.53367 0.46333 0.10321 0.0
H563 H 0.48486 0.32556 0.06796 0.0
H564 H 0.57183 0.43634 0.06931 0.0
C565 C 0.4827 0.44318 0.1211 0.0
C566 C 0.87975 0.48894 0.3957 0.0
C567 C 0.8361 0.49416 0.41229 0.0
H568 H 0.92242 0.43441 0.38525 0.0
C569 C 0.80801 0.4518 0.43421 0.0
H570 H 0.90293 0.52182 0.37896 0.0
C571 C 0.81868 0.40102 0.43772 0.0
C572 C 0.85816 0.39253 0.41954 0.0
H573 H 0.77444 0.45516 0.44739 0.0
H574 H 0.793 0.36637 0.45358 0.0
C575 C 0.89115 0.43897 0.39944 0.0
C576 C 0.11108 0.60221 0.57973 0.0
C577 C 0.07859 0.61923 0.59825 0.0
H578 H 0.13152 0.53028 0.5674 0.0
C579 C 0.0327 0.5726 0.61538 0.0
H580 H 0.14653 0.63739 0.56624 0.0
C581 C 0.02401 0.5116 0.61607 0.0
C582 C 0.06138 0.49631 0.59974 0.0
H583 H 0.00615 0.58435 0.62949 0.0
H584 H -0.00914 0.47782 0.63068 0.0
C585 C 0.1026 0.54098 0.5805 0.0
C586 C 0.40937 0.85301 0.85956 0.0
C587 C 0.39317 0.87275 0.88347 0.0
H588 H 0.46343 0.81696 0.84151 0.0
C589 C 0.42505 0.87752 0.90796 0.0
H590 H 0.3851 0.84897 0.8405 0.0
C591 C 0.4698 0.85805 0.90876 0.0
C592 C 0.48231 0.83352 0.88509 0.0
H593 H 0.41225 0.89189 0.9267 0.0
H594 H 0.49188 0.85895 0.92804 0.0
C595 C 0.4536 0.83387 0.86031 0.0
C596 C 0.39763 0.56111 0.57292 0.0
C597 C 0.44572 0.56976 0.59106 0.0
H598 H 0.29921 0.50667 0.5633 0.0
C599 C 0.4324 0.5234 0.61119 0.0
H600 H 0.4065 0.5957 0.55705 0.0
C601 C 0.37107 0.4733 0.61495 0.0
C602 C 0.32209 0.46785 0.59838 0.0
H603 H 0.46833 0.5281 0.62535 0.0
H604 H 0.36149 0.44046 0.6317 0.0
C605 C 0.33622 0.51018 0.57646 0.0
C606 C 0.03587 0.58141 0.88863 0.0
C607 C 0.07983 0.62482 0.90739 0.0
H608 H -0.00872 0.48649 0.87252 0.0
C609 C 0.10484 0.60325 0.92758 0.0
H610 H 0.0167 0.5977 0.87273 0.0
C611 C 0.09125 0.54017 0.92711 0.0
C612 C 0.05143 0.4981 0.90687 0.0
H613 H 0.13952 0.6364 0.94192 0.0
H614 H 0.11575 0.52563 0.94111 0.0
C615 C 0.02112 0.51799 0.88857 0.0
C616 C 0.42498 0.92435 0.61033 0.0
C617 C 0.3733 0.89037 0.59284 0.0
H618 H 0.5128 0.93755 0.62444 0.0
C619 C 0.37646 0.8512 0.57245 0.0
H620 H 0.42463 0.95573 0.62594 0.0
C621 C 0.42736 0.84094 0.57155 0.0
C622 C 0.47545 0.86951 0.59109 0.0
H623 H 0.33772 0.825 0.5584 0.0
H624 H 0.42653 0.80696 0.557 0.0
C625 C 0.47548 0.91381 0.60951 0.0
C626 C 0.40847 0.4923 0.8665 0.0
C627 C 0.44792 0.52688 0.88821 0.0
H628 H 0.3145 0.42794 0.85363 0.0
C629 C 0.42426 0.51479 0.91507 0.0
H630 H 0.42584 0.50153 0.84566 0.0
C631 C 0.35986 0.47303 0.91972 0.0
C632 C 0.31937 0.44401 0.89744 0.0
H633 H 0.45409 0.54218 0.932 0.0
H634 H 0.34115 0.46786 0.9402 0.0
C635 C 0.34475 0.45104 0.87108 0.0
loop_
_geom_bond_atom_site_label_1
_geom_bond_atom_site_label_2
_geom_bond_distance
_geom_bond_site_symmetry_2
_ccdc_geom_bond_type
O0 Zn1 1.953 . S
O0 C16 1.225 . S
Zn1 O0 1.953 . S
Zn1 O2 1.949 . S
Zn1 O8 1.919 . S
Zn1 O13 1.924 . S
O2 Zn1 1.949 . S
O2 Zn3 1.923 . S
O2 Zn4 1.950 . S
O2 Zn5 1.945 . S
Zn3 O2 1.923 . S
Zn3 O6 1.933 1_545 S
Zn3 O9 1.941 . S
Zn3 O10 1.965 . S
Zn4 O2 1.950 . S
Zn4 O11 1.938 . S
Zn4 O12 1.906 . S
Zn4 O22 1.953 . S
Zn5 O2 1.945 . S
Zn5 O7 1.932 1_545 S
Zn5 O14 1.977 . S
Zn5 O15 1.910 . S
O6 Zn3 1.933 1_565 S
O6 C17 1.226 . S
O7 Zn5 1.932 1_565 S
O7 C17 1.307 . S
O8 Zn1 1.919 . S
O8 C19 1.253 . S
O9 Zn3 1.941 . S
O9 C19 1.283 . S
O10 Zn3 1.965 . S
O10 C18 1.303 . S
O11 Zn4 1.938 . S
O11 C18 1.247 . S
O12 Zn4 1.906 . S
O12 C20 1.304 . S
O13 Zn1 1.924 . S
O13 C21 1.311 . S
O14 Zn5 1.977 . S
O14 C20 1.272 . S
O15 Zn5 1.910 . S
O15 C21 1.231 . S
C16 O0 1.225 . S
C16 O22 1.298 . S
C17 O6 1.226 . S
C17 O7 1.307 . S
C18 O10 1.303 . S
C18 O11 1.247 . S
C19 O8 1.253 . S
C19 O9 1.283 . S
C20 O12 1.304 . S
C20 O14 1.272 . S
C21 O13 1.311 . S
C21 O15 1.231 . S
O22 Zn4 1.953 . S
O22 C16 1.298 . S
O23 Zn24 1.953 . S
O23 C39 1.225 . S
Zn24 O23 1.953 . S
Zn24 O25 1.949 . S
Zn24 O31 1.919 . S
Zn24 O36 1.924 . S
O25 Zn24 1.949 . S
O25 Zn26 1.923 . S
O25 Zn27 1.950 . S
O25 Zn28 1.945 . S
Zn26 O25 1.923 . S
Zn26 O29 1.933 . S
Zn26 O32 1.941 . S
Zn26 O33 1.965 . S
Zn27 O25 1.950 . S
Zn27 O34 1.938 . S
Zn27 O35 1.906 . S
Zn27 O45 1.953 . S
Zn28 O25 1.945 . S
Zn28 O30 1.932 . S
Zn28 O37 1.977 . S
Zn28 O38 1.910 . S
O29 Zn26 1.933 . S
O29 C40 1.226 . S
O30 Zn28 1.932 . S
O30 C40 1.307 . S
O31 Zn24 1.919 . S
O31 C42 1.253 . S
O32 Zn26 1.941 . S
O32 C42 1.283 . S
O33 Zn26 1.965 . S
O33 C41 1.303 . S
O34 Zn27 1.938 . S
O34 C41 1.247 . S
O35 Zn27 1.906 . S
O35 C43 1.304 . S
O36 Zn24 1.924 . S
O36 C44 1.311 . S
O37 Zn28 1.977 . S
O37 C43 1.272 . S
O38 Zn28 1.910 . S
O38 C44 1.231 . S
C39 O23 1.225 . S
C39 O45 1.298 . S
C40 O29 1.226 . S
C40 O30 1.307 . S
C41 O33 1.303 . S
C41 O34 1.247 . S
C42 O31 1.253 . S
C42 O32 1.283 . S
C43 O35 1.304 . S
C43 O37 1.272 . S
C44 O36 1.311 . S
C44 O38 1.231 . S
O45 Zn27 1.953 . S
O45 C39 1.298 . S
O46 Zn47 1.953 . S
O46 C62 1.225 . S
Zn47 O46 1.953 . S
Zn47 O48 1.949 . S
Zn47 O54 1.919 . S
Zn47 O59 1.924 . S
O48 Zn47 1.949 . S
O48 Zn49 1.923 . S
O48 Zn50 1.950 . S
O48 Zn51 1.945 . S
Zn49 O48 1.923 . S
Zn49 O52 1.933 1_655 S
Zn49 O55 1.941 . S
Zn49 O56 1.965 . S
Zn50 O48 1.950 . S
Zn50 O57 1.938 . S
Zn50 O58 1.906 . S
Zn50 O68 1.953 . S
Zn51 O48 1.945 . S
Zn51 O53 1.932 1_655 S
Zn51 O60 1.977 . S
Zn51 O61 1.910 . S
O52 Zn49 1.933 1_455 S
O52 C63 1.226 . S
O53 Zn51 1.932 1_455 S
O53 C63 1.307 . S
O54 Zn47 1.919 . S
O54 C65 1.253 . S
O55 Zn49 1.941 . S
O55 C65 1.283 . S
O56 Zn49 1.965 . S
O56 C64 1.303 . S
O57 Zn50 1.938 . S
O57 C64 1.247 . S
O58 Zn50 1.906 . S
O58 C66 1.304 . S
O59 Zn47 1.924 . S
O59 C67 1.311 . S
O60 Zn51 1.977 . S
O60 C66 1.272 . S
O61 Zn51 1.910 . S
O61 C67 1.231 . S
C62 O46 1.225 . S
C62 O68 1.298 . S
C63 O52 1.226 . S
C63 O53 1.307 . S
C64 O56 1.303 . S
C64 O57 1.247 . S
C65 O54 1.253 . S
C65 O55 1.283 . S
C66 O58 1.304 . S
C66 O60 1.272 . S
C67 O59 1.311 . S
C67 O61 1.231 . S
O68 Zn50 1.953 . S
O68 C62 1.298 . S
O69 Zn70 1.953 . S
O69 C85 1.225 . S
Zn70 O69 1.953 . S
Zn70 O71 1.949 . S
Zn70 O77 1.919 . S
Zn70 O82 1.924 . S
O71 Zn70 1.949 . S
O71 Zn72 1.923 . S
O71 Zn73 1.950 . S
O71 Zn74 1.945 . S
Zn72 O71 1.923 . S
Zn72 O75 1.933 1_545 S
Zn72 O78 1.941 . S
Zn72 O79 1.965 . S
Zn73 O71 1.950 . S
Zn73 O80 1.938 . S
Zn73 O81 1.906 . S
Zn73 O91 1.953 . S
Zn74 O71 1.945 . S
Zn74 O76 1.932 1_545 S
Zn74 O83 1.977 . S
Zn74 O84 1.910 . S
O75 Zn72 1.933 1_565 S
O75 C86 1.226 . S
O76 Zn74 1.932 1_565 S
O76 C86 1.307 . S
O77 Zn70 1.919 . S
O77 C88 1.253 . S
O78 Zn72 1.941 . S
O78 C88 1.283 . S
O79 Zn72 1.965 . S
O79 C87 1.303 . S
O80 Zn73 1.938 . S
O80 C87 1.247 . S
O81 Zn73 1.906 . S
O81 C89 1.304 . S
O82 Zn70 1.924 . S
O82 C90 1.311 . S
O83 Zn74 1.977 . S
O83 C89 1.272 . S
O84 Zn74 1.910 . S
O84 C90 1.231 . S
C85 O69 1.225 . S
C85 O91 1.298 . S
C86 O75 1.226 . S
C86 O76 1.307 . S
C87 O79 1.303 . S
C87 O80 1.247 . S
C88 O77 1.253 . S
C88 O78 1.283 . S
C89 O81 1.304 . S
C89 O83 1.272 . S
C90 O82 1.311 . S
C90 O84 1.231 . S
O91 Zn73 1.953 . S
O91 C85 1.298 . S
O92 Zn93 1.953 . S
O92 C108 1.225 . S
Zn93 O92 1.953 . S
Zn93 O94 1.949 . S
Zn93 O100 1.919 . S
Zn93 O105 1.924 . S
O94 Zn93 1.949 . S
O94 Zn95 1.923 . S
O94 Zn96 1.950 . S
O94 Zn97 1.945 . S
Zn95 O94 1.923 . S
Zn95 O98 1.933 . S
Zn95 O101 1.941 . S
Zn95 O102 1.965 . S
Zn96 O94 1.950 . S
Zn96 O103 1.938 . S
Zn96 O104 1.906 . S
Zn96 O114 1.953 . S
Zn97 O94 1.945 . S
Zn97 O99 1.932 . S
Zn97 O106 1.977 . S
Zn97 O107 1.910 . S
O98 Zn95 1.933 . S
O98 C109 1.226 . S
O99 Zn97 1.932 . S
O99 C109 1.307 . S
O100 Zn93 1.919 . S
O100 C111 1.253 . S
O101 Zn95 1.941 . S
O101 C111 1.283 . S
O102 Zn95 1.965 . S
O102 C110 1.303 . S
O103 Zn96 1.938 . S
O103 C110 1.247 . S
O104 Zn96 1.906 . S
O104 C112 1.304 . S
O105 Zn93 1.924 . S
O105 C113 1.311 . S
O106 Zn97 1.977 . S
O106 C112 1.272 . S
O107 Zn97 1.910 . S
O107 C113 1.231 . S
C108 O92 1.225 . S
C108 O114 1.298 . S
C109 O98 1.226 . S
C109 O99 1.307 . S
C110 O102 1.303 . S
C110 O103 1.247 . S
C111 O100 1.253 . S
C111 O101 1.283 . S
C112 O104 1.304 . S
C112 O106 1.272 . S
C113 O105 1.311 . S
C113 O107 1.231 . S
O114 Zn96 1.953 . S
O114 C108 1.298 . S
O115 Zn116 1.953 . S
O115 C131 1.225 . S
Zn116 O115 1.953 . S
Zn116 O117 1.949 . S
Zn116 O123 1.919 . S
Zn116 O128 1.924 . S
O117 Zn116 1.949 . S
O117 Zn118 1.923 . S
O117 Zn119 1.950 . S
O117 Zn120 1.945 . S
Zn118 O117 1.923 . S
Zn118 O121 1.933 1_655 S
Zn118 O124 1.941 . S
Zn118 O125 1.965 . S
Zn119 O117 1.950 . S
Zn119 O126 1.938 . S
Zn119 O127 1.906 . S
Zn119 O137 1.953 . S
Zn120 O117 1.945 . S
Zn120 O122 1.932 1_655 S
Zn120 O129 1.977 . S
Zn120 O130 1.910 . S
O121 Zn118 1.933 1_455 S
O121 C132 1.226 . S
O122 Zn120 1.932 1_455 S
O122 C132 1.307 . S
O123 Zn116 1.919 . S
O123 C134 1.253 . S
O124 Zn118 1.941 . S
O124 C134 1.283 . S
O125 Zn118 1.965 . S
O125 C133 1.303 . S
O126 Zn119 1.938 . S
O126 C133 1.247 . S
O127 Zn119 1.906 . S
O127 C135 1.304 . S
O128 Zn116 1.924 . S
O128 C136 1.311 . S
O129 Zn120 1.977 . S
O129 C135 1.272 . S
O130 Zn120 1.910 . S
O130 C136 1.231 . S
C131 O115 1.225 . S
C131 O137 1.298 . S
C132 O121 1.226 . S
C132 O122 1.307 . S
C133 O125 1.303 . S
C133 O126 1.247 . S
C134 O123 1.253 . S
C134 O124 1.283 . S
C135 O127 1.304 . S
C135 O129 1.272 . S
C136 O128 1.311 . S
C136 O130 1.231 . S
O137 Zn119 1.953 . S
O137 C131 1.298 . S
O138 Zn139 1.953 . S
O138 C154 1.225 . S
Zn139 O138 1.953 . S
Zn139 O140 1.949 . S
Zn139 O146 1.919 . S
Zn139 O151 1.924 . S
O140 Zn139 1.949 . S
O140 Zn141 1.923 . S
O140 Zn142 1.950 . S
O140 Zn143 1.945 . S
Zn141 O140 1.923 . S
Zn141 O144 1.933 1_455 S
Zn141 O147 1.941 . S
Zn141 O148 1.965 . S
Zn142 O140 1.950 . S
Zn142 O149 1.938 . S
Zn142 O150 1.906 . S
Zn142 O160 1.953 . S
Zn143 O140 1.945 . S
Zn143 O145 1.932 1_455 S
Zn143 O152 1.977 . S
Zn143 O153 1.910 . S
O144 Zn141 1.933 1_655 S
O144 C155 1.226 . S
O145 Zn143 1.932 1_655 S
O145 C155 1.307 . S
O146 Zn139 1.919 . S
O146 C157 1.253 . S
O147 Zn141 1.941 . S
O147 C157 1.283 . S
O148 Zn141 1.965 . S
O148 C156 1.303 . S
O149 Zn142 1.938 . S
O149 C156 1.247 . S
O150 Zn142 1.906 . S
O150 C158 1.304 . S
O151 Zn139 1.924 . S
O151 C159 1.311 . S
O152 Zn143 1.977 . S
O152 C158 1.272 . S
O153 Zn143 1.910 . S
O153 C159 1.231 . S
C154 O138 1.225 . S
C154 O160 1.298 . S
C155 O144 1.226 . S
C155 O145 1.307 . S
C156 O148 1.303 . S
C156 O149 1.247 . S
C157 O146 1.253 . S
C157 O147 1.283 . S
C158 O150 1.304 . S
C158 O152 1.272 . S
C159 O151 1.311 . S
C159 O153 1.231 . S
O160 Zn142 1.953 . S
O160 C154 1.298 . S
O161 Zn162 1.953 . S
O161 C177 1.225 . S
Zn162 O161 1.953 . S
Zn162 O163 1.949 . S
Zn162 O169 1.919 . S
Zn162 O174 1.924 . S
O163 Zn162 1.949 . S
O163 Zn164 1.923 . S
O163 Zn165 1.950 . S
O163 Zn166 1.945 . S
Zn164 O163 1.923 . S
Zn164 O167 1.933 1_565 S
Zn164 O170 1.941 . S
Zn164 O171 1.965 . S
Zn165 O163 1.950 . S
Zn165 O172 1.938 . S
Zn165 O173 1.906 . S
Zn165 O183 1.953 . S
Zn166 O163 1.945 . S
Zn166 O168 1.932 1_565 S
Zn166 O175 1.977 . S
Zn166 O176 1.910 . S
O167 Zn164 1.933 1_545 S
O167 C178 1.226 . S
O168 Zn166 1.932 1_545 S
O168 C178 1.307 . S
O169 Zn162 1.919 . S
O169 C180 1.253 . S
O170 Zn164 1.941 . S
O170 C180 1.283 . S
O171 Zn164 1.965 . S
O171 C179 1.303 . S
O172 Zn165 1.938 . S
O172 C179 1.247 . S
O173 Zn165 1.906 . S
O173 C181 1.304 . S
O174 Zn162 1.924 . S
O174 C182 1.311 . S
O175 Zn166 1.977 . S
O175 C181 1.272 . S
O176 Zn166 1.910 . S
O176 C182 1.231 . S
C177 O161 1.225 . S
C177 O183 1.298 . S
C178 O167 1.226 . S
C178 O168 1.307 . S
C179 O171 1.303 . S
C179 O172 1.247 . S
C180 O169 1.253 . S
C180 O170 1.283 . S
C181 O173 1.304 . S
C181 O175 1.272 . S
C182 O174 1.311 . S
C182 O176 1.231 . S
O183 Zn165 1.953 . S
O183 C177 1.298 . S
O184 Zn185 1.953 . S
O184 C200 1.225 . S
Zn185 O184 1.953 . S
Zn185 O186 1.949 . S
Zn185 O192 1.919 . S
Zn185 O197 1.924 . S
O186 Zn185 1.949 . S
O186 Zn187 1.923 . S
O186 Zn188 1.950 . S
O186 Zn189 1.945 . S
Zn187 O186 1.923 . S
Zn187 O190 1.933 . S
Zn187 O193 1.941 . S
Zn187 O194 1.965 . S
Zn188 O186 1.950 . S
Zn188 O195 1.938 . S
Zn188 O196 1.906 . S
Zn188 O206 1.953 . S
Zn189 O186 1.945 . S
Zn189 O191 1.932 . S
Zn189 O198 1.977 . S
Zn189 O199 1.910 . S
O190 Zn187 1.933 . S
O190 C201 1.226 . S
O191 Zn189 1.932 . S
O191 C201 1.307 . S
O192 Zn185 1.919 . S
O192 C203 1.253 . S
O193 Zn187 1.941 . S
O193 C203 1.283 . S
O194 Zn187 1.965 . S
O194 C202 1.303 . S
O195 Zn188 1.938 . S
O195 C202 1.247 . S
O196 Zn188 1.906 . S
O196 C204 1.304 . S
O197 Zn185 1.924 . S
O197 C205 1.311 . S
O198 Zn189 1.977 . S
O198 C204 1.272 . S
O199 Zn189 1.910 . S
O199 C205 1.231 . S
C200 O184 1.225 . S
C200 O206 1.298 . S
C201 O190 1.226 . S
C201 O191 1.307 . S
C202 O194 1.303 . S
C202 O195 1.247 . S
C203 O192 1.253 . S
C203 O193 1.283 . S
C204 O196 1.304 . S
C204 O198 1.272 . S
C205 O197 1.311 . S
C205 O199 1.231 . S
O206 Zn188 1.953 . S
O206 C200 1.298 . S
O207 Zn208 1.953 . S
O207 C223 1.225 . S
Zn208 O207 1.953 . S
Zn208 O209 1.949 . S
Zn208 O215 1.919 . S
Zn208 O220 1.924 . S
O209 Zn208 1.949 . S
O209 Zn210 1.923 . S
O209 Zn211 1.950 . S
O209 Zn212 1.945 . S
Zn210 O209 1.923 . S
Zn210 O213 1.933 1_455 S
Zn210 O216 1.941 . S
Zn210 O217 1.965 . S
Zn211 O209 1.950 . S
Zn211 O218 1.938 . S
Zn211 O219 1.906 . S
Zn211 O229 1.953 . S
Zn212 O209 1.945 . S
Zn212 O214 1.932 1_455 S
Zn212 O221 1.977 . S
Zn212 O222 1.910 . S
O213 Zn210 1.933 1_655 S
O213 C224 1.226 . S
O214 Zn212 1.932 1_655 S
O214 C224 1.307 . S
O215 Zn208 1.919 . S
O215 C226 1.253 . S
O216 Zn210 1.941 . S
O216 C226 1.283 . S
O217 Zn210 1.965 . S
O217 C225 1.303 . S
O218 Zn211 1.938 . S
O218 C225 1.247 . S
O219 Zn211 1.906 . S
O219 C227 1.304 . S
O220 Zn208 1.924 . S
O220 C228 1.311 . S
O221 Zn212 1.977 . S
O221 C227 1.272 . S
O222 Zn212 1.910 . S
O222 C228 1.231 . S
C223 O207 1.225 . S
C223 O229 1.298 . S
C224 O213 1.226 . S
C224 O214 1.307 . S
C225 O217 1.303 . S
C225 O218 1.247 . S
C226 O215 1.253 . S
C226 O216 1.283 . S
C227 O219 1.304 . S
C227 O221 1.272 . S
C228 O220 1.311 . S
C228 O222 1.231 . S
O229 Zn211 1.953 . S
O229 C223 1.298 . S
O230 Zn231 1.953 . S
O230 C246 1.225 . S
Zn231 O230 1.953 . S
Zn231 O232 1.949 . S
Zn231 O238 1.919 . S
Zn231 O243 1.924 . S
O232 Zn231 1.949 . S
O232 Zn233 1.923 . S
O232 Zn234 1.950 . S
O232 Zn235 1.945 . S
Zn233 O232 1.923 . S
Zn233 O236 1.933 1_565 S
Zn233 O239 1.941 . S
Zn233 O240 1.965 . S
Zn234 O232 1.950 . S
Zn234 O241 1.938 . S
Zn234 O242 1.906 . S
Zn234 O252 1.953 . S
Zn235 O232 1.945 . S
Zn235 O237 1.932 1_565 S
Zn235 O244 1.977 . S
Zn235 O245 1.910 . S
O236 Zn233 1.933 1_545 S
O236 C247 1.226 . S
O237 Zn235 1.932 1_545 S
O237 C247 1.307 . S
O238 Zn231 1.919 . S
O238 C249 1.253 . S
O239 Zn233 1.941 . S
O239 C249 1.283 . S
O240 Zn233 1.965 . S
O240 C248 1.303 . S
O241 Zn234 1.938 . S
O241 C248 1.247 . S
O242 Zn234 1.906 . S
O242 C250 1.304 . S
O243 Zn231 1.924 . S
O243 C251 1.311 . S
O244 Zn235 1.977 . S
O244 C250 1.272 . S
O245 Zn235 1.910 . S
O245 C251 1.231 . S
C246 O230 1.225 . S
C246 O252 1.298 . S
C247 O236 1.226 . S
C247 O237 1.307 . S
C248 O240 1.303 . S
C248 O241 1.247 . S
C249 O238 1.253 . S
C249 O239 1.283 . S
C250 O242 1.304 . S
C250 O244 1.272 . S
C251 O243 1.311 . S
C251 O245 1.231 . S
O252 Zn234 1.953 . S
O252 C246 1.298 . S
O253 Zn254 1.953 . S
O253 C269 1.225 . S
Zn254 O253 1.953 . S
Zn254 O255 1.949 . S
Zn254 O261 1.919 . S
Zn254 O266 1.924 . S
O255 Zn254 1.949 . S
O255 Zn256 1.923 . S
O255 Zn257 1.950 . S
O255 Zn258 1.945 . S
Zn256 O255 1.923 . S
Zn256 O259 1.933 . S
Zn256 O262 1.941 . S
Zn256 O263 1.965 . S
Zn257 O255 1.950 . S
Zn257 O264 1.938 . S
Zn257 O265 1.906 . S
Zn257 O275 1.953 . S
Zn258 O255 1.945 . S
Zn258 O260 1.932 . S
Zn258 O267 1.977 . S
Zn258 O268 1.910 . S
O259 Zn256 1.933 . S
O259 C270 1.226 . S
O260 Zn258 1.932 . S
O260 C270 1.307 . S
O261 Zn254 1.919 . S
O261 C272 1.253 . S
O262 Zn256 1.941 . S
O262 C272 1.283 . S
O263 Zn256 1.965 . S
O263 C271 1.303 . S
O264 Zn257 1.938 . S
O264 C271 1.247 . S
O265 Zn257 1.906 . S
O265 C273 1.304 . S
O266 Zn254 1.924 . S
O266 C274 1.311 . S
O267 Zn258 1.977 . S
O267 C273 1.272 . S
O268 Zn258 1.910 . S
O268 C274 1.231 . S
C269 O253 1.225 . S
C269 O275 1.298 . S
C270 O259 1.226 . S
C270 O260 1.307 . S
C271 O263 1.303 . S
C271 O264 1.247 . S
C272 O261 1.253 . S
C272 O262 1.283 . S
C273 O265 1.304 . S
C273 O267 1.272 . S
C274 O266 1.311 . S
C274 O268 1.231 . S
O275 Zn257 1.953 . S
O275 C269 1.298 . S
C276 C277 1.387 . S
C276 H280 0.950 . S
C276 C285 1.390 . S
C277 C276 1.387 . S
C277 C279 1.387 . S
H278 C285 0.950 . S
C279 C277 1.387 . S
C279 C281 1.390 . S
C279 H283 0.950 . S
H280 C276 0.950 . S
C281 C279 1.390 . S
C281 C282 1.387 . S
C281 H284 0.950 . S
C282 C281 1.387 . S
C282 C285 1.387 . S
H283 C279 0.950 . S
H284 C281 0.950 . S
C285 C276 1.390 . S
C285 H278 0.950 . S
C285 C282 1.387 . S
C286 C287 1.387 . S
C286 H290 0.950 . S
C286 C295 1.390 . S
C287 C286 1.387 . S
C287 C289 1.387 . S
H288 C295 0.950 . S
C289 C287 1.387 . S
C289 C291 1.390 . S
C289 H293 0.950 . S
H290 C286 0.950 . S
C291 C289 1.390 . S
C291 C292 1.387 . S
C291 H294 0.950 . S
C292 C291 1.387 . S
C292 C295 1.387 . S
H293 C289 0.950 . S
H294 C291 0.950 . S
C295 C286 1.390 . S
C295 H288 0.950 . S
C295 C292 1.387 . S
C296 C297 1.387 . S
C296 H300 0.950 . S
C296 C305 1.390 . S
C297 C296 1.387 . S
C297 C299 1.387 . S
H298 C305 0.950 . S
C299 C297 1.387 . S
C299 C301 1.390 . S
C299 H303 0.950 . S
H300 C296 0.950 . S
C301 C299 1.390 . S
C301 C302 1.387 . S
C301 H304 0.950 . S
C302 C301 1.387 . S
C302 C305 1.387 . S
H303 C299 0.950 . S
H304 C301 0.950 . S
C305 C296 1.390 . S
C305 H298 0.950 . S
C305 C302 1.387 . S
C306 C307 1.387 . S
C306 H310 0.950 . S
C306 C315 1.390 . S
C307 C306 1.387 . S
C307 C309 1.387 . S
H308 C315 0.950 . S
C309 C307 1.387 . S
C309 C311 1.390 . S
C309 H313 0.950 . S
H310 C306 0.950 . S
C311 C309 1.390 . S
C311 C312 1.387 . S
C311 H314 0.950 . S
C312 C311 1.387 . S
C312 C315 1.387 . S
H313 C309 0.950 . S
H314 C311 0.950 . S
C315 C306 1.390 . S
C315 H308 0.950 . S
C315 C312 1.387 . S
C316 C317 1.387 . S
C316 H320 0.950 . S
C316 C325 1.390 . S
C317 C316 1.387 . S
C317 C319 1.387 . S
H318 C325 0.950 . S
C319 C317 1.387 . S
C319 C321 1.390 . S
C319 H323 0.950 . S
H320 C316 0.950 . S
C321 C319 1.390 . S
C321 C322 1.387 . S
C321 H324 0.950 . S
C322 C321 1.387 . S
C322 C325 1.387 . S
H323 C319 0.950 . S
H324 C321 0.950 . S
C325 C316 1.390 . S
C325 H318 0.950 . S
C325 C322 1.387 . S
C326 C327 1.387 . S
C326 H330 0.950 . S
C326 C335 1.390 . S
C327 C326 1.387 . S
C327 C329 1.387 . S
H328 C335 0.950 . S
C329 C327 1.387 . S
C329 C331 1.390 . S
C329 H333 0.950 . S
H330 C326 0.950 . S
C331 C329 1.390 . S
C331 C332 1.387 . S
C331 H334 0.950 . S
C332 C331 1.387 . S
C332 C335 1.387 . S
H333 C329 0.950 . S
H334 C331 0.950 . S
C335 C326 1.390 . S
C335 H328 0.950 . S
C335 C332 1.387 . S
C336 C337 1.387 . S
C336 H340 0.950 . S
C336 C345 1.390 . S
C337 C336 1.387 . S
C337 C339 1.387 . S
H338 C345 0.950 . S
C339 C337 1.387 . S
C339 C341 1.390 . S
C339 H343 0.950 . S
H340 C336 0.950 . S
C341 C339 1.390 . S
C341 C342 1.387 . S
C341 H344 0.950 . S
C342 C341 1.387 . S
C342 C345 1.387 . S
H343 C339 0.950 . S
H344 C341 0.950 . S
C345 C336 1.390 . S
C345 H338 0.950 . S
C345 C342 1.387 . S
C346 C347 1.387 . S
C346 H350 0.950 . S
C346 C355 1.390 . S
C347 C346 1.387 . S
C347 C349 1.387 . S
H348 C355 0.950 . S
C349 C347 1.387 . S
C349 C351 1.390 . S
C349 H353 0.950 . S
H350 C346 0.950 . S
C351 C349 1.390 . S
C351 C352 1.387 . S
C351 H354 0.950 . S
C352 C351 1.387 . S
C352 C355 1.387 . S
H353 C349 0.950 . S
H354 C351 0.950 . S
C355 C346 1.390 . S
C355 H348 0.950 . S
C355 C352 1.387 . S
C356 C357 1.387 . S
C356 H360 0.950 . S
C356 C365 1.390 . S
C357 C356 1.387 . S
C357 C359 1.387 . S
H358 C365 0.950 . S
C359 C357 1.387 . S
C359 C361 1.390 . S
C359 H363 0.950 . S
H360 C356 0.950 . S
C361 C359 1.390 . S
C361 C362 1.387 . S
C361 H364 0.950 . S
C362 C361 1.387 . S
C362 C365 1.387 . S
H363 C359 0.950 . S
H364 C361 0.950 . S
C365 C356 1.390 . S
C365 H358 0.950 . S
C365 C362 1.387 . S
C366 C367 1.387 . S
C366 H370 0.950 . S
C366 C375 1.390 . S
C367 C366 1.387 . S
C367 C369 1.387 . S
H368 C375 0.950 . S
C369 C367 1.387 . S
C369 C371 1.390 . S
C369 H373 0.950 . S
H370 C366 0.950 . S
C371 C369 1.390 . S
C371 C372 1.387 . S
C371 H374 0.950 . S
C372 C371 1.387 . S
C372 C375 1.387 . S
H373 C369 0.950 . S
H374 C371 0.950 . S
C375 C366 1.390 . S
C375 H368 0.950 . S
C375 C372 1.387 . S
C376 C377 1.387 . S
C376 H380 0.950 . S
C376 C385 1.390 . S
C377 C376 1.387 . S
C377 C379 1.387 . S
H378 C385 0.950 . S
C379 C377 1.387 . S
C379 C381 1.390 . S
C379 H383 0.950 . S
H380 C376 0.950 . S
C381 C379 1.390 . S
C381 C382 1.387 . S
C381 H384 0.950 . S
C382 C381 1.387 . S
C382 C385 1.387 . S
H383 C379 0.950 . S
H384 C381 0.950 . S
C385 C376 1.390 . S
C385 H378 0.950 . S
C385 C382 1.387 . S
C386 C387 1.387 . S
C386 H390 0.950 . S
C386 C395 1.390 . S
C387 C386 1.387 . S
C387 C389 1.387 . S
H388 C395 0.950 . S
C389 C387 1.387 . S
C389 C391 1.390 . S
C389 H393 0.950 . S
H390 C386 0.950 . S
C391 C389 1.390 . S
C391 C392 1.387 . S
C391 H394 0.950 . S
C392 C391 1.387 . S
C392 C395 1.387 . S
H393 C389 0.950 . S
H394 C391 0.950 . S
C395 C386 1.390 . S
C395 H388 0.950 . S
C395 C392 1.387 . S
C396 C397 1.387 . S
C396 H400 0.950 . S
C396 C405 1.390 . S
C397 C396 1.387 . S
C397 C399 1.387 . S
H398 C405 0.950 . S
C399 C397 1.387 . S
C399 C401 1.390 . S
C399 H403 0.950 1_545 S
H400 C396 0.950 . S
C401 C399 1.390 . S
C401 C402 1.387 . S
C401 H404 0.950 1_545 S
C402 C401 1.387 . S
C402 C405 1.387 . S
H403 C399 0.950 1_565 S
H404 C401 0.950 1_565 S
C405 C396 1.390 . S
C405 H398 0.950 . S
C405 C402 1.387 . S
C406 C407 1.387 . S
C406 H410 0.950 . S
C406 C415 1.390 . S
C407 C406 1.387 . S
C407 C409 1.387 . S
H408 C415 0.950 . S
C409 C407 1.387 . S
C409 C411 1.390 . S
C409 H413 0.950 . S
H410 C406 0.950 . S
C411 C409 1.390 . S
C411 C412 1.387 . S
C411 H414 0.950 . S
C412 C411 1.387 . S
C412 C415 1.387 . S
H413 C409 0.950 . S
H414 C411 0.950 . S
C415 C406 1.390 . S
C415 H408 0.950 . S
C415 C412 1.387 . S
C416 C417 1.387 . S
C416 H420 0.950 . S
C416 C425 1.390 . S
C417 C416 1.387 . S
C417 C419 1.387 . S
H418 C425 0.950 . S
C419 C417 1.387 . S
C419 C421 1.390 . S
C419 H423 0.950 . S
H420 C416 0.950 . S
C421 C419 1.390 . S
C421 C422 1.387 . S
C421 H424 0.950 . S
C422 C421 1.387 . S
C422 C425 1.387 . S
H423 C419 0.950 . S
H424 C421 0.950 . S
C425 C416 1.390 . S
C425 H418 0.950 . S
C425 C422 1.387 . S
C426 C427 1.387 . S
C426 H430 0.950 . S
C426 C435 1.390 . S
C427 C426 1.387 . S
C427 C429 1.387 . S
H428 C435 0.950 . S
C429 C427 1.387 . S
C429 C431 1.390 . S
C429 H433 0.950 . S
H430 C426 0.950 . S
C431 C429 1.390 . S
C431 C432 1.387 . S
C431 H434 0.950 . S
C432 C431 1.387 . S
C432 C435 1.387 . S
H433 C429 0.950 . S
H434 C431 0.950 . S
C435 C426 1.390 . S
C435 H428 0.950 . S
C435 C432 1.387 . S
C436 C437 1.387 . S
C436 H440 0.950 1_565 S
C436 C445 1.390 . S
C437 C436 1.387 . S
C437 C439 1.387 . S
H438 C445 0.950 1_545 S
C439 C437 1.387 . S
C439 C441 1.390 . S
C439 H443 0.950 . S
H440 C436 0.950 1_545 S
C441 C439 1.390 . S
C441 C442 1.387 . S
C441 H444 0.950 . S
C442 C441 1.387 . S
C442 C445 1.387 . S
H443 C439 0.950 . S
H444 C441 0.950 . S
C445 C436 1.390 . S
C445 H438 0.950 1_565 S
C445 C442 1.387 . S
C446 C447 1.387 . S
C446 H450 0.950 . S
C446 C455 1.390 . S
C447 C446 1.387 . S
C447 C449 1.387 . S
H448 C455 0.950 . S
C449 C447 1.387 . S
C449 C451 1.390 . S
C449 H453 0.950 . S
H450 C446 0.950 . S
C451 C449 1.390 . S
C451 C452 1.387 . S
C451 H454 0.950 . S
C452 C451 1.387 . S
C452 C455 1.387 . S
H453 C449 0.950 . S
H454 C451 0.950 . S
C455 C446 1.390 . S
C455 H448 0.950 . S
C455 C452 1.387 . S
C456 C457 1.387 . S
C456 H460 0.950 . S
C456 C465 1.390 1_566 S
C457 C456 1.387 . S
C457 C459 1.387 . S
H458 C465 0.950 . S
C459 C457 1.387 . S
C459 C461 1.390 1_566 S
C459 H463 0.950 . S
H460 C456 0.950 . S
C461 C459 1.390 1_544 S
C461 C462 1.387 . S
C461 H464 0.950 . S
C462 C461 1.387 . S
C462 C465 1.387 . S
H463 C459 0.950 . S
H464 C461 0.950 . S
C465 C456 1.390 1_544 S
C465 H458 0.950 . S
C465 C462 1.387 . S
C466 C467 1.387 . S
C466 H470 0.950 . S
C466 C475 1.390 . S
C467 C466 1.387 . S
C467 C469 1.387 . S
H468 C475 0.950 . S
C469 C467 1.387 . S
C469 C471 1.390 . S
C469 H473 0.950 . S
H470 C466 0.950 . S
C471 C469 1.390 . S
C471 C472 1.387 . S
C471 H474 0.950 . S
C472 C471 1.387 . S
C472 C475 1.387 . S
H473 C469 0.950 . S
H474 C471 0.950 . S
C475 C466 1.390 . S
C475 H468 0.950 . S
C475 C472 1.387 . S
C476 C477 1.387 . S
C476 H480 0.950 . S
C476 C485 1.390 1_556 S
C477 C476 1.387 . S
C477 C479 1.387 1_455 S
H478 C485 0.950 . S
C479 C477 1.387 1_655 S
C479 C481 1.390 1_556 S
C479 H483 0.950 . S
H480 C476 0.950 . S
C481 C479 1.390 1_554 S
C481 C482 1.387 . S
C481 H484 0.950 . S
C482 C481 1.387 . S
C482 C485 1.387 1_655 S
H483 C479 0.950 . S
H484 C481 0.950 . S
C485 C476 1.390 1_554 S
C485 H478 0.950 . S
C485 C482 1.387 1_455 S
C486 C487 1.387 . S
C486 H490 0.950 . S
C486 C495 1.390 1_545 S
C487 C486 1.387 . S
C487 C489 1.387 . S
H488 C495 0.950 . S
C489 C487 1.387 . S
C489 C491 1.390 1_545 S
C489 H493 0.950 . S
H490 C486 0.950 . S
C491 C489 1.390 1_565 S
C491 C492 1.387 . S
C491 H494 0.950 . S
C492 C491 1.387 . S
C492 C495 1.387 . S
H493 C489 0.950 . S
H494 C491 0.950 . S
C495 C486 1.390 1_565 S
C495 H488 0.950 . S
C495 C492 1.387 . S
C496 C497 1.382 1_556 S
C496 H500 0.950 . S
C496 C505 1.396 . S
C497 C496 1.382 1_554 S
C497 C499 1.387 . S
H498 C505 0.950 . S
C499 C497 1.387 . S
C499 C501 1.396 . S
C499 H503 0.950 . S
H500 C496 0.950 . S
C501 C499 1.396 . S
C501 C502 1.382 1_554 S
C501 H504 0.950 . S
C502 C501 1.382 1_556 S
C502 C505 1.387 . S
H503 C499 0.950 . S
H504 C501 0.950 . S
C505 C496 1.396 . S
C505 H498 0.950 . S
C505 C502 1.387 . S
C506 C507 1.387 . S
C506 H510 0.950 . S
C506 C515 1.390 1_455 S
C507 C506 1.387 . S
C507 C509 1.387 . S
H508 C515 0.950 . S
C509 C507 1.387 . S
C509 C511 1.390 1_455 S
C509 H513 0.950 . S
H510 C506 0.950 . S
C511 C509 1.390 1_655 S
C511 C512 1.387 . S
C511 H514 0.950 . S
C512 C511 1.387 . S
C512 C515 1.387 . S
H513 C509 0.950 . S
H514 C511 0.950 . S
C515 C506 1.390 1_655 S
C515 H508 0.950 . S
C515 C512 1.387 . S
C516 C517 1.387 . S
C516 H520 0.950 . S
C516 C525 1.390 . S
C517 C516 1.387 . S
C517 C519 1.387 . S
H518 C525 0.950 . S
C519 C517 1.387 . S
C519 C521 1.390 . S
C519 H523 0.950 . S
H520 C516 0.950 . S
C521 C519 1.390 . S
C521 C522 1.387 . S
C521 H524 0.950 . S
C522 C521 1.387 . S
C522 C525 1.387 . S
H523 C519 0.950 . S
H524 C521 0.950 . S
C525 C516 1.390 . S
C525 H518 0.950 . S
C525 C522 1.387 . S
C526 C527 1.387 . S
C526 H530 0.950 . S
C526 C535 1.390 . S
C527 C526 1.387 . S
C527 C529 1.387 . S
H528 C535 0.950 . S
C529 C527 1.387 . S
C529 C531 1.390 . S
C529 H533 0.950 . S
H530 C526 0.950 . S
C531 C529 1.390 . S
C531 C532 1.387 . S
C531 H534 0.950 . S
C532 C531 1.387 . S
C532 C535 1.387 . S
H533 C529 0.950 . S
H534 C531 0.950 . S
C535 C526 1.390 . S
C535 H528 0.950 . S
C535 C532 1.387 . S
C536 C537 1.387 . S
C536 H540 0.950 . S
C536 C545 1.390 . S
C537 C536 1.387 . S
C537 C539 1.387 . S
H538 C545 0.950 . S
C539 C537 1.387 . S
C539 C541 1.390 . S
C539 H543 0.950 . S
H540 C536 0.950 . S
C541 C539 1.390 . S
C541 C542 1.387 . S
C541 H544 0.950 . S
C542 C541 1.387 . S
C542 C545 1.387 . S
H543 C539 0.950 . S
H544 C541 0.950 . S
C545 C536 1.390 . S
C545 H538 0.950 . S
C545 C542 1.387 . S
C546 C547 1.387 . S
C546 H550 0.950 . S
C546 C555 1.390 . S
C547 C546 1.387 . S
C547 C549 1.387 . S
H548 C555 0.950 . S
C549 C547 1.387 . S
C549 C551 1.390 . S
C549 H553 0.950 . S
H550 C546 0.950 . S
C551 C549 1.390 . S
C551 C552 1.387 . S
C551 H554 0.950 . S
C552 C551 1.387 . S
C552 C555 1.387 . S
H553 C549 0.950 . S
H554 C551 0.950 . S
C555 C546 1.390 . S
C555 H548 0.950 . S
C555 C552 1.387 . S
C556 C557 1.387 . S
C556 H560 0.950 . S
C556 C565 1.390 . S
C557 C556 1.387 . S
C557 C559 1.387 . S
H558 C565 0.950 . S
C559 C557 1.387 . S
C559 C561 1.390 . S
C559 H563 0.950 . S
H560 C556 0.950 . S
C561 C559 1.390 . S
C561 C562 1.387 . S
C561 H564 0.950 . S
C562 C561 1.387 . S
C562 C565 1.387 . S
H563 C559 0.950 . S
H564 C561 0.950 . S
C565 C556 1.390 . S
C565 H558 0.950 . S
C565 C562 1.387 . S
C566 C567 1.387 . S
C566 H570 0.950 . S
C566 C575 1.390 . S
C567 C566 1.387 . S
C567 C569 1.387 . S
H568 C575 0.950 . S
C569 C567 1.387 . S
C569 C571 1.390 . S
C569 H573 0.950 . S
H570 C566 0.950 . S
C571 C569 1.390 . S
C571 C572 1.387 . S
C571 H574 0.950 . S
C572 C571 1.387 . S
C572 C575 1.387 . S
H573 C569 0.950 . S
H574 C571 0.950 . S
C575 C566 1.390 . S
C575 H568 0.950 . S
C575 C572 1.387 . S
C576 C577 1.387 . S
C576 H580 0.950 . S
C576 C585 1.390 . S
C577 C576 1.387 . S
C577 C579 1.387 . S
H578 C585 0.950 . S
C579 C577 1.387 . S
C579 C581 1.390 . S
C579 H583 0.950 . S
H580 C576 0.950 . S
C581 C579 1.390 . S
C581 C582 1.387 . S
C581 H584 0.950 . S
C582 C581 1.387 . S
C582 C585 1.387 . S
H583 C579 0.950 . S
H584 C581 0.950 . S
C585 C576 1.390 . S
C585 H578 0.950 . S
C585 C582 1.387 . S
C586 C587 1.387 . S
C586 H590 0.950 . S
C586 C595 1.390 . S
C587 C586 1.387 . S
C587 C589 1.387 . S
H588 C595 0.950 . S
C589 C587 1.387 . S
C589 C591 1.390 . S
C589 H593 0.950 . S
H590 C586 0.950 . S
C591 C589 1.390 . S
C591 C592 1.387 . S
C591 H594 0.950 . S
C592 C591 1.387 . S
C592 C595 1.387 . S
H593 C589 0.950 . S
H594 C591 0.950 . S
C595 C586 1.390 . S
C595 H588 0.950 . S
C595 C592 1.387 . S
C596 C597 1.387 . S
C596 H600 0.950 . S
C596 C605 1.390 . S
C597 C596 1.387 . S
C597 C599 1.387 . S
H598 C605 0.950 . S
C599 C597 1.387 . S
C599 C601 1.390 . S
C599 H603 0.950 . S
H600 C596 0.950 . S
C601 C599 1.390 . S
C601 C602 1.387 . S
C601 H604 0.950 . S
C602 C601 1.387 . S
C602 C605 1.387 . S
H603 C599 0.950 . S
H604 C601 0.950 . S
C605 C596 1.390 . S
C605 H598 0.950 . S
C605 C602 1.387 . S
C606 C607 1.387 . S
C606 H610 0.950 . S
C606 C615 1.390 . S
C607 C606 1.387 . S
C607 C609 1.387 . S
H608 C615 0.950 . S
C609 C607 1.387 . S
C609 C611 1.390 . S
C609 H613 0.950 . S
H610 C606 0.950 . S
C611 C609 1.390 . S
C611 C612 1.387 . S
C611 H614 0.950 . S
C612 C611 1.387 . S
C612 C615 1.387 . S
H613 C609 0.950 . S
H614 C611 0.950 . S
C615 C606 1.390 . S
C615 H608 0.950 . S
C615 C612 1.387 . S
C616 C617 1.387 . S
C616 H620 0.950 . S
C616 C625 1.390 . S
C617 C616 1.387 . S
C617 C619 1.387 . S
H618 C625 0.950 . S
C619 C617 1.387 . S
C619 C621 1.390 . S
C619 H623 0.950 . S
H620 C616 0.950 . S
C621 C619 1.390 . S
C621 C622 1.387 . S
C621 H624 0.950 . S
C622 C621 1.387 . S
C622 C625 1.387 . S
H623 C619 0.950 . S
H624 C621 0.950 . S
C625 C616 1.390 . S
C625 H618 0.950 . S
C625 C622 1.387 . S
C626 C627 1.387 . S
C626 H630 0.950 . S
C626 C635 1.390 . S
C627 C626 1.387 . S
C627 C629 1.387 . S
H628 C635 0.950 . S
C629 C627 1.387 . S
C629 C631 1.390 . S
C629 H633 0.950 . S
H630 C626 0.950 . S
C631 C629 1.390 . S
C631 C632 1.387 . S
C631 H634 0.950 . S
C632 C631 1.387 . S
C632 C635 1.387 . S
H633 C629 0.950 . S
H634 C631 0.950 . S
C635 C626 1.390 . S
C635 H628 0.950 . S
C635 C632 1.387 . S
C277 C63 1.141 . S
C282 C21 1.186 . S
C287 C86 1.106 . S
C292 C44 1.128 1_455 S
C297 C67 1.184 1_565 S
C302 C109 1.144 . S
C307 C90 1.130 . S
C312 C132 1.101 . S
C317 C17 1.141 . S
C322 C113 1.186 1_455 S
C327 C40 1.102 . S
C332 C136 1.131 1_565 S
C337 C247 1.106 . S
C342 C159 1.128 . S
C347 C182 1.185 1_655 S
C352 C270 1.141 . S
C357 C205 1.128 1_545 S
C362 C155 1.106 . S
C367 C228 1.186 . S
C372 C178 1.141 . S
C377 C251 1.129 1_655 S
C382 C201 1.106 . S
C387 C224 1.145 . S
C392 C274 1.184 1_545 S
C397 C88 1.492 . S
C402 C20 1.502 . S
C407 C42 1.490 . S
C412 C112 1.502 . S
C417 C66 1.502 . S
C422 C134 1.490 . S
C427 C157 1.491 . S
C432 C227 1.502 . S
C437 C181 1.502 . S
C442 C249 1.491 . S
C447 C203 1.491 . S
C452 C273 1.503 . S
C457 C180 1.545 . S
C462 C19 1.545 . S
C467 C43 1.562 . S
C472 C204 1.562 . S
C477 C226 1.546 . S
C482 C65 1.545 . S
C487 C89 1.562 . S
C492 C250 1.562 . S
C497 C111 1.546 . S
C502 C272 1.544 . S
C507 C158 1.561 . S
C512 C135 1.561 . S
C517 C62 1.290 . S
C522 C18 1.278 . S
C527 C41 1.285 . S
C532 C85 1.308 . S
C537 C64 1.280 . S
C542 C108 1.291 . S
C547 C87 1.286 . S
C552 C131 1.309 . S
C557 C16 1.290 . S
C562 C110 1.278 . S
C567 C39 1.309 . S
C572 C133 1.286 . S
C577 C246 1.309 . S
C582 C156 1.285 . S
C587 C179 1.279 . S
C592 C269 1.290 . S
C597 C202 1.285 . S
C602 C154 1.308 . S
C607 C177 1.290 . S
C612 C225 1.278 . S
C617 C248 1.286 . S
C622 C200 1.309 . S
C627 C271 1.278 . S
C632 C223 1.290 . S
