# Generated by pormake.
# Topology ure, (4)-cn, num edge types: 1
# Building blocks:
#     Node 0, Type 0, BuildingBlock: NAHDIM_clean_sbu_0, # of connection points: 4
#     Node 1, Type 0, BuildingBlock: NAHDIM_clean_sbu_0, # of connection points: 4
#     Node 2, Type 0, BuildingBlock: NAHDIM_clean_sbu_0, # of connection points: 4
#     Node 3, Type 0, BuildingBlock: NAHDIM_clean_sbu_0, # of connection points: 4
#     Node 4, Type 0, BuildingBlock: NAHDIM_clean_sbu_0, # of connection points: 4
#     Node 5, Type 0, BuildingBlock: NAHDIM_clean_sbu_0, # of connection points: 4
#     Node 6, Type 0, BuildingBlock: NAHDIM_clean_sbu_0, # of connection points: 4
#     Node 7, Type 0, BuildingBlock: NAHDIM_clean_sbu_0, # of connection points: 4
#     Node 8, Type 0, BuildingBlock: NAHDIM_clean_sbu_0, # of connection points: 4
#     Node 9, Type 0, BuildingBlock: NAHDIM_clean_sbu_0, # of connection points: 4
#     Node 10, Type 0, BuildingBlock: NAHDIM_clean_sbu_0, # of connection points: 4
#     Node 11, Type 0, BuildingBlock: NAHDIM_clean_sbu_0, # of connection points: 4
#     Node 12, Type 0, BuildingBlock: NAHDIM_clean_sbu_0, # of connection points: 4
#     Node 13, Type 0, BuildingBlock: NAHDIM_clean_sbu_0, # of connection points: 4
#     Node 14, Type 0, BuildingBlock: NAHDIM_clean_sbu_0, # of connection points: 4
#     Node 15, Type 0, BuildingBlock: NAHDIM_clean_sbu_0, # of connection points: 4
#     Edge 16, Type (0, 0), BuildingBlock: KIFKEQ_clean_linker_1, # of connection points: 2
#     Edge 17, Type (0, 0), BuildingBlock: KIFKEQ_clean_linker_1, # of connection points: 2
#     Edge 18, Type (0, 0), BuildingBlock: KIFKEQ_clean_linker_1, # of connection points: 2
#     Edge 19, Type (0, 0), BuildingBlock: KIFKEQ_clean_linker_1, # of connection points: 2
#     Edge 20, Type (0, 0), BuildingBlock: KIFKEQ_clean_linker_1, # of connection points: 2
#     Edge 21, Type (0, 0), BuildingBlock: KIFKEQ_clean_linker_1, # of connection points: 2
#     Edge 22, Type (0, 0), BuildingBlock: KIFKEQ_clean_linker_1, # of connection points: 2
#     Edge 23, Type (0, 0), BuildingBlock: KIFKEQ_clean_linker_1, # of connection points: 2
#     Edge 24, Type (0, 0), BuildingBlock: KIFKEQ_clean_linker_1, # of connection points: 2
#     Edge 25, Type (0, 0), BuildingBlock: KIFKEQ_clean_linker_1, # of connection points: 2
#     Edge 26, Type (0, 0), BuildingBlock: KIFKEQ_clean_linker_1, # of connection points: 2
#     Edge 27, Type (0, 0), BuildingBlock: KIFKEQ_clean_linker_1, # of connection points: 2
#     Edge 28, Type (0, 0), BuildingBlock: KIFKEQ_clean_linker_1, # of connection points: 2
#     Edge 29, Type (0, 0), BuildingBlock: KIFKEQ_clean_linker_1, # of connection points: 2
#     Edge 30, Type (0, 0), BuildingBlock: KIFKEQ_clean_linker_1, # of connection points: 2
#     Edge 31, Type (0, 0), BuildingBlock: KIFKEQ_clean_linker_1, # of connection points: 2
#     Edge 32, Type (0, 0), BuildingBlock: KIFKEQ_clean_linker_1, # of connection points: 2
#     Edge 33, Type (0, 0), BuildingBlock: KIFKEQ_clean_linker_1, # of connection points: 2
#     Edge 34, Type (0, 0), BuildingBlock: KIFKEQ_clean_linker_1, # of connection points: 2
#     Edge 35, Type (0, 0), BuildingBlock: KIFKEQ_clean_linker_1, # of connection points: 2
#     Edge 36, Type (0, 0), BuildingBlock: KIFKEQ_clean_linker_1, # of connection points: 2
#     Edge 37, Type (0, 0), BuildingBlock: KIFKEQ_clean_linker_1, # of connection points: 2
#     Edge 38, Type (0, 0), BuildingBlock: KIFKEQ_clean_linker_1, # of connection points: 2
#     Edge 39, Type (0, 0), BuildingBlock: KIFKEQ_clean_linker_1, # of connection points: 2
#     Edge 40, Type (0, 0), BuildingBlock: KIFKEQ_clean_linker_1, # of connection points: 2
#     Edge 41, Type (0, 0), BuildingBlock: KIFKEQ_clean_linker_1, # of connection points: 2
#     Edge 42, Type (0, 0), BuildingBlock: KIFKEQ_clean_linker_1, # of connection points: 2
#     Edge 43, Type (0, 0), BuildingBlock: KIFKEQ_clean_linker_1, # of connection points: 2
#     Edge 44, Type (0, 0), BuildingBlock: KIFKEQ_clean_linker_1, # of connection points: 2
#     Edge 45, Type (0, 0), BuildingBlock: KIFKEQ_clean_linker_1, # of connection points: 2
#     Edge 46, Type (0, 0), BuildingBlock: KIFKEQ_clean_linker_1, # of connection points: 2
#     Edge 47, Type (0, 0), BuildingBlock: KIFKEQ_clean_linker_1, # of connection points: 2
# Relax obj value: 0.109
# Max RMSD: 0.078
# Mean RMSD: 0.069
data_MOF--net-ure--node1-NAHDIM_clean_sbu_0--edge1-KIFKEQ_clean_linker_1
_symmetry_space_group_name_H-M    P1
_symmetry_Int_Tables_number       1
_symmetry_cell_setting            triclinic
loop_
_symmetry_equiv_pos_as_xyz
'x, y, z'
_cell_length_a     31.08122
_cell_length_b     32.34382
_cell_length_c     33.188995
_cell_angle_alpha  90.506232
_cell_angle_beta   91.278579
_cell_angle_gamma 93.359304
loop_
_atom_site_label
_atom_site_type_symbol
_atom_site_fract_x
_atom_site_fract_y
_atom_site_fract_z
_atom_type_partial_charge
C0 C 0.20012 0.22388 0.18446 0.0
O1 O 0.23407 0.24363 0.16926 0.0
O2 O 0.29109 0.26218 0.24779 0.0
Zn3 Zn 0.22788 0.2708 0.25507 0.0
O4 O 0.21674 0.32902 0.23835 0.0
C5 C 0.23404 0.23664 0.33448 0.0
O6 O 0.26231 0.21423 0.31695 0.0
O7 O 0.19117 0.23036 0.22105 0.0
C8 C 0.19664 0.35356 0.26021 0.0
O9 O 0.18035 0.34013 0.29419 0.0
C10 C 0.31843 0.2928 0.25221 0.0
O11 O 0.30477 0.3295 0.26058 0.0
O12 O 0.21439 0.26278 0.31371 0.0
C13 C 0.03842 0.94145 0.45531 0.0
O14 O 0.01519 0.9242 0.4839 0.0
O15 O 0.93276 0.99895 0.45901 0.0
Zn16 Zn 0.99368 0.01188 0.47941 0.0
O17 O 0.99747 0.99686 0.53794 0.0
C18 C 0.97998 0.09742 0.48672 0.0
O19 O 0.94345 0.08149 0.50063 0.0
O20 O 0.03483 0.97954 0.4477 0.0
C21 C 0.02655 0.01303 0.5616 0.0
O22 O 0.05566 0.03979 0.54736 0.0
C23 C 0.90881 0.97061 0.47485 0.0
O24 O 0.92471 0.94844 0.50398 0.0
O25 O 0.00789 0.07316 0.47476 0.0
C26 C 0.28672 0.7956 0.70126 0.0
O27 O 0.24993 0.77795 0.68788 0.0
O28 O 0.20241 0.75641 0.76427 0.0
Zn29 Zn 0.26542 0.74499 0.76813 0.0
O30 O 0.27278 0.68822 0.74528 0.0
C31 C 0.28678 0.77777 0.84848 0.0
O32 O 0.27768 0.81339 0.83262 0.0
O33 O 0.30052 0.78671 0.73627 0.0
C34 C 0.30391 0.66701 0.7566 0.0
O35 O 0.33269 0.68321 0.78268 0.0
C36 C 0.17462 0.72698 0.77089 0.0
O37 O 0.18795 0.69046 0.78052 0.0
O38 O 0.28428 0.74538 0.82644 0.0
C39 C 0.44109 0.00502 0.90987 0.0
O40 O 0.46281 0.97594 0.89326 0.0
O41 O 0.53988 0.97662 0.96448 0.0
Zn42 Zn 0.47861 0.97391 0.9827 0.0
O43 O 0.47841 0.99322 0.04047 0.0
C44 C 0.48196 0.89044 -0.0001 0.0
O45 O 0.51566 0.90742 0.01974 0.0
O46 O 0.44252 0.00948 0.94795 0.0
C47 C 0.44809 0.9815 0.06359 0.0
O48 O 0.41563 0.95777 0.04888 0.0
C49 C 0.56146 0.00867 0.95275 0.0
O50 O 0.54318 0.04425 0.95116 0.0
O51 O 0.45786 0.91376 0.98009 0.0
C52 C 0.23836 0.77093 0.29622 0.0
O53 O 0.26123 0.74335 0.31434 0.0
O54 O 0.34129 0.74923 0.25258 0.0
Zn55 Zn 0.28124 0.7396 0.22896 0.0
O56 O 0.26072 0.67978 0.23518 0.0
C57 C 0.31127 0.73944 0.1484 0.0
O58 O 0.33877 0.71484 0.16481 0.0
O59 O 0.24144 0.77537 0.25837 0.0
C60 C 0.24091 0.65825 0.20758 0.0
O61 O 0.23229 0.67538 0.17281 0.0
C62 C 0.36288 0.72016 0.26652 0.0
O63 O 0.34537 0.6822 0.26651 0.0
O64 O 0.28279 0.75436 0.17027 0.0
C65 C 0.46968 0.97568 0.51717 0.0
O66 O 0.49632 0.00537 0.53188 0.0
O67 O 0.50677 0.06351 0.46315 0.0
Zn68 Zn 0.50714 0.00398 0.44412 0.0
O69 O 0.56764 0.98474 0.44947 0.0
C70 C 0.49264 0.02954 0.36221 0.0
O71 O 0.51202 0.06415 0.37601 0.0
O72 O 0.46834 0.96886 0.47937 0.0
C73 C 0.59084 0.97701 0.41955 0.0
O74 O 0.57468 0.9799 0.38285 0.0
C75 C 0.54156 0.0858 0.46842 0.0
O76 O 0.57853 0.06986 0.46107 0.0
O77 O 0.48631 -0.00063 0.3861 0.0
C78 C 0.276 0.20208 0.74005 0.0
O79 O 0.24739 0.188 0.71277 0.0
O80 O 0.24426 0.26376 0.65559 0.0
Zn81 Zn 0.24536 0.27967 0.71465 0.0
O82 O 0.18552 0.27704 0.73671 0.0
C83 C 0.27218 0.36327 0.69223 0.0
O84 O 0.25955 0.34994 0.65613 0.0
O85 O 0.28126 0.24092 0.74611 0.0
C86 C 0.15803 0.30197 0.72449 0.0
O87 O 0.16885 0.329 0.69663 0.0
C88 C 0.2112 0.24867 0.63611 0.0
O89 O 0.17498 0.24107 0.65505 0.0
O90 O 0.27006 0.33838 0.72167 0.0
C91 C 0.00894 0.02737 0.01162 0.0
O92 O 0.98998 0.99423 0.02753 0.0
O93 O 0.9768 0.9345 0.95766 0.0
Zn94 Zn 0.96898 0.99273 0.93859 0.0
O95 O 0.90608 0.00467 0.93907 0.0
C96 C 0.99183 0.96654 0.85863 0.0
O97 O 0.98311 0.92939 0.87308 0.0
O98 O 0.00411 0.03354 0.97405 0.0
C99 C 0.87956 0.98134 0.9183 0.0
O100 O 0.89405 0.95046 0.89763 0.0
C101 C 0.95038 0.91502 0.9804 0.0
O102 O 0.91673 0.93354 0.99333 0.0
O103 O 0.98876 0.99804 0.88137 0.0
C104 C 0.71895 0.3107 0.81095 0.0
O105 O 0.74805 0.33468 0.79294 0.0
O106 O 0.82045 0.27124 0.77751 0.0
Zn107 Zn 0.75967 0.24791 0.76649 0.0
O108 O 0.75944 0.18574 0.77043 0.0
C109 C 0.77079 0.25045 0.68266 0.0
O110 O 0.80464 0.23077 0.69434 0.0
O111 O 0.71778 0.27187 0.80442 0.0
C112 C 0.73777 0.16277 0.7944 0.0
O113 O 0.71104 0.17946 0.81905 0.0
C114 C 0.84796 0.24973 0.79524 0.0
O115 O 0.83537 0.21354 0.8099 0.0
O116 O 0.74478 0.26174 0.70909 0.0
C117 C 0.93932 0.48384 0.04987 0.0
O118 O 0.9739 0.50435 0.06478 0.0
O119 O 0.95671 0.58645 0.99336 0.0
Zn120 Zn 0.96768 0.52693 0.98059 0.0
O121 O 0.02929 0.517 0.99466 0.0
C122 C 0.97349 0.54572 0.8977 0.0
O123 O 0.99295 0.57926 0.91378 0.0
O124 O 0.92899 0.48855 0.01299 0.0
C125 C 0.04858 0.48605 0.98199 0.0
O126 O 0.02767 0.45851 0.9584 0.0
C127 C 0.98477 0.6105 0.01153 0.0
O128 O 0.02101 0.59575 0.02442 0.0
O129 O 0.9586 0.51746 0.92083 0.0
C130 C 0.81204 0.71782 0.29395 0.0
O131 O 0.79064 0.69911 0.26374 0.0
O132 O 0.77471 0.77682 0.20779 0.0
Zn133 Zn 0.7644 0.78601 0.26694 0.0
O134 O 0.70361 0.7659 0.2788 0.0
C135 C 0.74875 0.87034 0.25567 0.0
O136 O 0.72398 0.85305 0.22686 0.0
O137 O 0.80627 0.75573 0.3012 0.0
C138 C 0.6804 0.78375 0.3039 0.0
O139 O 0.69701 0.81574 0.32478 0.0
C140 C 0.74949 0.7536 0.18556 0.0
O141 O 0.71657 0.73314 0.20176 0.0
O142 O 0.77078 0.84737 0.278 0.0
C143 C 0.00675 0.55923 0.4762 0.0
O144 O 0.04148 0.57754 0.4932 0.0
O145 O 0.09623 0.50261 0.51351 0.0
Zn146 Zn 0.03319 0.49103 0.52372 0.0
O147 O 0.02165 0.50878 0.58046 0.0
C148 C 0.03762 0.40805 0.49217 0.0
O149 O 0.06431 0.42658 0.46702 0.0
O150 O 0.99668 0.52168 0.48455 0.0
C151 C 0.98774 0.49596 0.5983 0.0
O152 O 0.95889 0.47168 0.57869 0.0
C153 C 0.1228 0.49055 0.53994 0.0
O154 O 0.10787 0.47202 0.57226 0.0
O155 O 0.01974 0.42958 0.51854 0.0
C156 C 0.50724 0.43502 0.99727 0.0
O157 O 0.49436 0.41492 0.02948 0.0
O158 O 0.3927 0.47922 0.01842 0.0
Zn159 Zn 0.45478 0.49668 0.03026 0.0
O160 O 0.46978 0.48036 0.08699 0.0
C161 C 0.44276 0.57847 0.99884 0.0
O162 O 0.42183 0.55767 0.96961 0.0
O163 O 0.49405 0.4709 0.99086 0.0
C164 C 0.5015 0.49811 0.10638 0.0
O165 O 0.52599 0.52646 0.08834 0.0
C166 C 0.36617 0.4864 0.04586 0.0
O167 O 0.38088 0.50296 0.08012 0.0
O168 O 0.46034 0.55881 0.02719 0.0
C169 C 0.74513 0.70277 0.74684 0.0
O170 O 0.78472 0.69232 0.75417 0.0
O171 O 0.8336 0.75905 0.79139 0.0
Zn172 Zn 0.77147 0.77009 0.80149 0.0
O173 O 0.76173 0.83068 0.7939 0.0
C174 C 0.79044 0.76038 0.88518 0.0
O175 O 0.82926 0.77085 0.87252 0.0
O176 O 0.73195 0.73485 0.764 0.0
C177 C 0.79068 0.85824 0.80462 0.0
O178 O 0.82761 0.84683 0.81952 0.0
C179 C 0.85637 0.7741 0.76315 0.0
O180 O 0.83896 0.79839 0.73662 0.0
O181 O 0.75919 0.75705 0.85974 0.0
C182 C 0.76309 0.29116 0.22844 0.0
O183 O 0.74202 0.25798 0.2133 0.0
O184 O 0.66099 0.27242 0.28932 0.0
Zn185 Zn 0.72335 0.2619 0.3008 0.0
O186 O 0.73358 0.20195 0.28853 0.0
C187 C 0.70774 0.27321 0.38516 0.0
O188 O 0.66767 0.26603 0.37239 0.0
O189 O 0.76039 0.29917 0.26584 0.0
C190 C 0.72899 0.17442 0.31548 0.0
O191 O 0.71781 0.18535 0.35179 0.0
C192 C 0.63724 0.25036 0.26484 0.0
O193 O 0.65385 0.21983 0.2453 0.0
O194 O 0.73774 0.27391 0.35969 0.0
C195 C 0.55242 0.52298 0.55936 0.0
O196 O 0.5156 0.50681 0.57238 0.0
O197 O 0.54344 0.41501 0.49879 0.0
Zn198 Zn 0.52696 0.47341 0.48966 0.0
O199 O 0.46444 0.47676 0.50268 0.0
C200 C 0.52158 0.45522 0.40626 0.0
O201 O 0.50636 0.41996 0.42116 0.0
O202 O 0.56431 0.5134 0.52423 0.0
C203 C 0.44254 0.50662 0.49121 0.0
O204 O 0.46142 0.53697 0.47085 0.0
C205 C 0.52348 0.39037 0.52251 0.0
O206 O 0.49305 0.40423 0.54496 0.0
O207 O 0.53341 0.48476 0.43035 0.0
H208 H 0.21202 0.20021 0.10638 0.0
H209 H 0.12501 0.18215 0.20531 0.0
H210 H 0.16592 0.15264 0.06478 0.0
H211 H 0.07843 0.13544 0.16343 0.0
H212 H 0.03016 0.02031 0.09146 0.0
H213 H 0.07676 0.06738 0.13295 0.0
H214 H 0.09599 0.14799 0.03097 0.0
H215 H 0.05019 0.10036 0.98916 0.0
C216 C 0.18298 0.18623 0.11921 0.0
C217 C 0.17223 0.19494 0.15918 0.0
C218 C 0.15641 0.15915 0.09528 0.0
C219 C 0.11843 0.14026 0.11074 0.0
C220 C 0.10773 0.149 0.15074 0.0
C221 C 0.13434 0.17597 0.17469 0.0
C222 C 0.04427 0.04809 0.07787 0.0
C223 C 0.03647 0.05655 0.03698 0.0
C224 C 0.07083 0.0752 0.10174 0.0
C225 C 0.09012 0.11148 0.08531 0.0
C226 C 0.08214 0.12003 0.04444 0.0
C227 C 0.05565 0.09285 0.02053 0.0
H228 H 0.09133 0.96758 0.39466 0.0
H229 H 0.05266 0.85938 0.46352 0.0
H230 H 0.14018 0.9267 0.35657 0.0
H231 H 0.10088 0.81841 0.42491 0.0
H232 H 0.22526 0.76941 0.37731 0.0
H233 H 0.17764 0.81112 0.41586 0.0
H234 H 0.13767 0.8709 0.30647 0.0
H235 H 0.18593 0.82976 0.26796 0.0
C236 C 0.09314 0.93506 0.4016 0.0
C237 C 0.06811 0.91674 0.43214 0.0
C238 C 0.12096 0.91159 0.37961 0.0
C239 C 0.12439 0.8693 0.38769 0.0
C240 C 0.0994 0.85103 0.41829 0.0
C241 C 0.07158 0.87449 0.44027 0.0
C242 C 0.20636 0.79147 0.36146 0.0
C243 C 0.2094 0.79626 0.31956 0.0
C244 C 0.17888 0.81521 0.38355 0.0
C245 C 0.15382 0.84428 0.36423 0.0
C246 C 0.15695 0.84914 0.32233 0.0
C247 C 0.18443 0.82539 0.30023 0.0
H248 H 0.41552 0.90849 0.49747 0.0
H249 H 0.46106 0.98572 0.59835 0.0
H250 H 0.37094 0.86617 0.5425 0.0
H251 H 0.41563 0.94403 0.64321 0.0
H252 H 0.36724 0.83178 0.71679 0.0
H253 H 0.4108 0.87589 0.67241 0.0
H254 H 0.30752 0.86852 0.5828 0.0
H255 H 0.26441 0.82357 0.62672 0.0
C256 C 0.41581 0.91661 0.52921 0.0
C257 C 0.44192 0.95042 0.54433 0.0
C258 C 0.39004 0.8925 0.555 0.0
C259 C 0.38967 0.90172 0.59649 0.0
C260 C 0.4156 0.93572 0.61153 0.0
C261 C 0.44148 0.95976 0.58575 0.0
C262 C 0.35377 0.83968 0.68767 0.0
C263 C 0.31243 0.82401 0.67522 0.0
C264 C 0.37866 0.86516 0.6623 0.0
C265 C 0.36271 0.87565 0.62397 0.0
C266 C 0.32107 0.86049 0.61184 0.0
C267 C 0.29625 0.83492 0.63715 0.0
H268 H 0.39769 0.07144 0.93458 0.0
H269 H 0.42876 0.00253 0.82796 0.0
H270 H 0.35813 0.11867 0.89297 0.0
H271 H 0.38952 0.0502 0.78631 0.0
H272 H 0.27511 0.1178 0.73234 0.0
H273 H 0.31486 0.06983 0.7731 0.0
H274 H 0.37341 0.17267 0.84255 0.0
H275 H 0.33336 0.22065 0.80217 0.0
C276 C 0.3961 0.06635 0.90226 0.0
C277 C 0.4164 0.0332 0.88459 0.0
C278 C 0.37365 0.0936 0.87841 0.0
C279 C 0.37084 0.08825 0.83635 0.0
C280 C 0.3908 0.0549 0.81868 0.0
C281 C 0.41344 0.02771 0.84253 0.0
C282 C 0.29651 0.13021 0.75625 0.0
C283 C 0.30098 0.17305 0.76406 0.0
C284 C 0.31945 0.10271 0.77946 0.0
C285 C 0.34717 0.11746 0.81109 0.0
C286 C 0.35186 0.16032 0.81871 0.0
C287 C 0.32909 0.18783 0.79541 0.0
H288 H 0.71488 0.3918 0.83368 0.0
H289 H 0.65218 0.27042 0.84968 0.0
H290 H 0.66358 0.42149 0.87848 0.0
H291 H 0.60023 0.30029 0.89371 0.0
H292 H 0.54482 0.3611 0.00471 0.0
H293 H 0.59588 0.33124 0.95982 0.0
H294 H 0.58846 0.43657 0.88132 0.0
H295 H 0.53814 0.46695 0.92674 0.0
C296 C 0.69004 0.37146 0.8466 0.0
C297 C 0.68768 0.32872 0.83813 0.0
C298 C 0.66043 0.38854 0.8721 0.0
C299 C 0.62771 0.36331 0.88966 0.0
C300 C 0.62536 0.32055 0.88113 0.0
C301 C 0.65503 0.30345 0.8557 0.0
C302 C 0.55401 0.37789 0.97785 0.0
C303 C 0.53744 0.41646 0.96937 0.0
C304 C 0.58314 0.36064 0.95198 0.0
C305 C 0.59632 0.38149 0.91694 0.0
C306 C 0.57949 0.41995 0.90833 0.0
C307 C 0.55042 0.43725 0.93426 0.0
H308 H 0.95663 0.4629 0.12775 0.0
H309 H 0.86315 0.44055 0.03049 0.0
H310 H 0.91445 0.41592 0.17038 0.0
H311 H 0.82028 0.39427 0.0736 0.0
H312 H 0.77882 0.28103 0.14833 0.0
H313 H 0.82147 0.32722 0.10509 0.0
H314 H 0.84757 0.41149 0.2056 0.0
H315 H 0.80589 0.36484 0.24906 0.0
C316 C 0.92692 0.44815 0.11552 0.0
C317 C 0.91324 0.4555 0.07571 0.0
C318 C 0.90259 0.42137 0.14007 0.0
C319 C 0.86389 0.40139 0.12549 0.0
C320 C 0.85021 0.40873 0.08563 0.0
C321 C 0.87465 0.43545 0.06099 0.0
C322 C 0.79372 0.30938 0.16123 0.0
C323 C 0.78902 0.31919 0.20218 0.0
C324 C 0.81794 0.336 0.13635 0.0
C325 C 0.83795 0.3731 0.15184 0.0
C326 C 0.83314 0.3829 0.19281 0.0
C327 C 0.80904 0.35623 0.21769 0.0
H328 H 0.93084 0.53176 0.43903 0.0
H329 H 0.02036 0.63885 0.45028 0.0
H330 H 0.88467 0.57026 0.39458 0.0
H331 H 0.97464 0.67703 0.40507 0.0
H332 H 0.85789 0.74602 0.361 0.0
H333 H 0.90538 0.70757 0.40424 0.0
H334 H 0.88184 0.59941 0.32778 0.0
H335 H 0.83357 0.63756 0.28505 0.0
C336 C 0.94083 0.56343 0.43182 0.0
C337 C 0.97925 0.58226 0.44831 0.0
C338 C 0.91446 0.58544 0.40612 0.0
C339 C 0.92592 0.62676 0.39625 0.0
C340 C 0.96454 0.64545 0.4125 0.0
C341 C 0.99089 0.62347 0.43825 0.0
C342 C 0.86289 0.71406 0.35336 0.0
C343 C 0.84183 0.69484 0.31963 0.0
C344 C 0.89033 0.69207 0.37803 0.0
C345 C 0.89742 0.65038 0.36951 0.0
C346 C 0.87662 0.6313 0.33555 0.0
C347 C 0.84912 0.65326 0.31091 0.0
H348 H 0.63371 0.55602 0.54498 0.0
H349 H 0.53373 0.55359 0.63352 0.0
H350 H 0.6798 0.60086 0.58945 0.0
H351 H 0.57999 0.59806 0.67803 0.0
H352 H 0.65959 0.71153 0.72923 0.0
H353 H 0.61273 0.66962 0.68278 0.0
H354 H 0.719 0.59495 0.65457 0.0
H355 H 0.76592 0.63693 0.70059 0.0
C356 C 0.62152 0.56509 0.57387 0.0
C357 C 0.58008 0.55112 0.58573 0.0
C358 C 0.64803 0.5906 0.59943 0.0
C359 C 0.63358 0.60292 0.63729 0.0
C360 C 0.5919 0.58945 0.64888 0.0
C361 C 0.5655 0.56375 0.62345 0.0
C362 C 0.67297 0.68622 0.71307 0.0
C363 C 0.71649 0.67756 0.71867 0.0
C364 C 0.64607 0.6621 0.68661 0.0
C365 C 0.66218 0.629 0.66498 0.0
C366 C 0.70575 0.62055 0.67041 0.0
C367 C 0.73256 0.64446 0.69702 0.0
H368 H 0.17298 0.27262 0.37905 0.0
H369 H 0.28012 0.19366 0.38924 0.0
H370 H 0.16559 0.27132 0.45214 0.0
H371 H 0.27259 0.19238 0.4622 0.0
H372 H 0.2826 0.25218 0.58966 0.0
H373 H 0.2856 0.24538 0.51666 0.0
H374 H 0.14717 0.22382 0.50956 0.0
H375 H 0.14401 0.23077 0.58283 0.0
C376 C 0.19471 0.25472 0.39683 0.0
C377 C 0.22735 0.23348 0.37837 0.0
C378 C 0.1903 0.2538 0.43865 0.0
C379 C 0.21871 0.23196 0.46286 0.0
C380 C 0.25058 0.20987 0.44431 0.0
C381 C 0.25474 0.21047 0.4025 0.0
C382 C 0.2528 0.2457 0.57262 0.0
C383 C 0.21306 0.24208 0.59205 0.0
C384 C 0.25456 0.24157 0.5308 0.0
C385 C 0.21662 0.23403 0.50742 0.0
C386 C 0.17689 0.22992 0.52682 0.0
C387 C 0.17514 0.23368 0.56877 0.0
H388 H 0.99479 0.90631 0.8006 0.0
H389 H 0.0122 0.03874 0.81934 0.0
H390 H 0.00763 0.91548 0.72893 0.0
H391 H 0.02439 0.04786 0.74764 0.0
H392 H 0.07906 0.04723 0.62184 0.0
H393 H 0.07517 0.03404 0.69402 0.0
H394 H 0.96837 0.94458 0.6718 0.0
H395 H 0.97257 0.95724 0.59977 0.0
C396 C 0.00158 0.93735 0.7895 0.0
C397 C 0.00228 0.97182 0.81566 0.0
C398 C 0.00873 0.94259 0.7484 0.0
C399 C 0.01687 0.9824 0.73261 0.0
C400 C 0.01868 0.01675 0.75895 0.0
C401 C 0.01142 0.01153 0.80002 0.0
C402 C 0.05499 0.0245 0.63233 0.0
C403 C 0.026 0.00343 0.60508 0.0
C404 C 0.05264 0.01711 0.67368 0.0
C405 C 0.02139 0.98837 0.6886 0.0
C406 C 0.99313 0.96657 0.66123 0.0
C407 C 0.99536 0.97405 0.61995 0.0
H408 H 0.29039 0.83964 0.90556 0.0
H409 H 0.30554 0.70846 0.89026 0.0
H410 H 0.30114 0.83286 0.97823 0.0
H411 H 0.3153 0.70161 0.96274 0.0
H412 H 0.36368 0.70754 0.09231 0.0
H413 H 0.36262 0.7191 0.01988 0.0
H414 H 0.25991 0.80222 0.03318 0.0
H415 H 0.26102 0.79086 0.10562 0.0
C416 C 0.29618 0.80941 0.91764 0.0
C417 C 0.29666 0.77453 0.89215 0.0
C418 C 0.30206 0.80549 0.9593 0.0
C419 C 0.30855 0.76662 0.97632 0.0
C420 C 0.31059 0.73204 0.95064 0.0
C421 C 0.30475 0.73596 0.90905 0.0
C422 C 0.34107 0.72852 0.07985 0.0
C423 C 0.31225 0.74812 0.10473 0.0
C424 C 0.34045 0.73508 0.0383 0.0
C425 C 0.31129 0.76166 0.02074 0.0
C426 C 0.2832 0.78201 0.04579 0.0
C427 C 0.28361 0.77525 0.0873 0.0
H428 H 0.50245 0.0877 0.3034 0.0
H429 H 0.45766 0.96051 0.32268 0.0
H430 H 0.48802 0.07873 0.23129 0.0
H431 H 0.44403 0.95137 0.25047 0.0
H432 H 0.39124 0.9581 0.12208 0.0
H433 H 0.39826 0.97212 0.19435 0.0
H434 H 0.51901 0.04172 0.17585 0.0
H435 H 0.51166 0.02841 0.10365 0.0
C436 C 0.48938 0.05786 0.2923 0.0
C437 C 0.48138 0.02476 0.31879 0.0
C438 C 0.48133 0.05268 0.25093 0.0
C439 C 0.46508 0.01429 0.2351 0.0
C440 C 0.45608 0.98148 0.26172 0.0
C441 C 0.46413 0.98666 0.30311 0.0
C442 C 0.4191 0.97669 0.13339 0.0
C443 C 0.45095 0.99203 0.1071 0.0
C444 C 0.42324 0.98451 0.17484 0.0
C445 C 0.45925 0.00791 0.19088 0.0
C446 C 0.4906 0.02401 0.16444 0.0
C447 C 0.4865 0.01616 0.12304 0.0
H448 H 0.38399 0.35272 0.25146 0.0
H449 H 0.35865 0.2199 0.24807 0.0
H450 H 0.46115 0.34346 0.25095 0.0
H451 H 0.43593 0.21062 0.2488 0.0
H452 H 0.57704 0.20844 0.21611 0.0
H453 H 0.50031 0.21964 0.20959 0.0
H454 H 0.51589 0.32005 0.29646 0.0
H455 H 0.59262 0.30947 0.30231 0.0
C456 C 0.39488 0.32153 0.25065 0.0
C457 C 0.36518 0.28703 0.24998 0.0
C458 C 0.43915 0.31623 0.25061 0.0
C459 C 0.45478 0.27631 0.25016 0.0
C460 C 0.42502 0.24181 0.24868 0.0
C461 C 0.3807 0.24712 0.24847 0.0
C462 C 0.56413 0.23306 0.23363 0.0
C463 C 0.59095 0.258 0.25977 0.0
C464 C 0.52009 0.23932 0.23007 0.0
C465 C 0.50189 0.27066 0.25257 0.0
C466 C 0.5289 0.29598 0.27827 0.0
C467 C 0.5729 0.28973 0.28182 0.0
H468 H 0.06865 0.35299 0.43853 0.0
H469 H 0.98816 0.36001 0.54261 0.0
H470 H 0.0549 0.278 0.4362 0.0
H471 H 0.97535 0.28511 0.54092 0.0
H472 H 0.92363 0.15692 0.50152 0.0
H473 H 0.93766 0.23167 0.50163 0.0
H474 H 0.07037 0.21574 0.47173 0.0
H475 H 0.05593 0.14075 0.47049 0.0
C476 C 0.04811 0.33854 0.46097 0.0
C477 C 0.02931 0.36252 0.49061 0.0
C478 C 0.04047 0.2955 0.4598 0.0
C479 C 0.01388 0.27549 0.48828 0.0
C480 C 0.99535 0.29954 0.51807 0.0
C481 C 0.00289 0.34252 0.51917 0.0
C482 C 0.95579 0.16932 0.49488 0.0
C483 C 0.98867 0.14288 0.48603 0.0
C484 C 0.96392 0.21223 0.49519 0.0
C485 C 0.00522 0.22978 0.48694 0.0
C486 C 0.03807 0.2033 0.47778 0.0
C487 C 0.02985 0.16031 0.47724 0.0
H488 H 0.90086 0.72429 0.81288 0.0
H489 H 0.91685 0.80581 0.7111 0.0
H490 H 0.97745 0.71297 0.81329 0.0
H491 H 0.99371 0.79378 0.71108 0.0
H492 H 0.13584 0.79926 0.75552 0.0
H493 H 0.05878 0.80995 0.75199 0.0
H494 H 0.03086 0.67986 0.77466 0.0
H495 H 0.10771 0.66938 0.77911 0.0
C496 C 0.92066 0.73956 0.79034 0.0
C497 C 0.9027 0.76597 0.76193 0.0
C498 C 0.9646 0.73287 0.79046 0.0
C499 C 0.99173 0.75241 0.76218 0.0
C500 C 0.97376 0.77861 0.73354 0.0
C501 C 0.92967 0.78527 0.73338 0.0
C502 C 0.11324 0.77295 0.7597 0.0
C503 C 0.12793 0.73352 0.76781 0.0
C504 C 0.06907 0.77902 0.7574 0.0
C505 C 0.03866 0.74578 0.76311 0.0
C506 C 0.05342 0.70626 0.77072 0.0
C507 C 0.09752 0.70022 0.7731 0.0
H508 H 0.42065 0.63062 0.93816 0.0
H509 H 0.47006 0.62995 0.06086 0.0
H510 H 0.42785 0.70618 0.93847 0.0
H511 H 0.47569 0.70517 0.06176 0.0
H512 H 0.53158 0.83367 0.0348 0.0
H513 H 0.52002 0.75897 0.03409 0.0
H514 H 0.40172 0.76885 0.96485 0.0
H515 H 0.41377 0.84419 0.96493 0.0
C516 C 0.43276 0.64661 0.96528 0.0
C517 C 0.44542 0.62429 -0.00073 0.0
C518 C 0.43662 0.68994 0.96556 0.0
C519 C 0.45294 0.71183 -4e-05 0.0
C520 C 0.46415 0.68937 0.03435 0.0
C521 C 0.46072 0.64618 0.03392 0.0
C522 C 0.50292 0.82005 0.01957 0.0
C523 C 0.47356 0.84494 -0.0 0.0
C524 C 0.49612 0.77708 0.0194 0.0
C525 C 0.45961 0.75777 -0.00014 0.0
C526 C 0.43019 0.78266 0.98013 0.0
C527 C 0.43703 0.82584 0.98027 0.0
H528 H 0.6375 0.71653 0.26832 0.0
H529 H 0.61826 0.82293 0.34414 0.0
H530 H 0.56009 0.70003 0.26566 0.0
H531 H 0.54062 0.80604 0.34177 0.0
H532 H 0.4079 0.79518 0.27244 0.0
H533 H 0.48445 0.80843 0.28797 0.0
H534 H 0.49741 0.6776 0.30603 0.0
H535 H 0.42083 0.66416 0.29003 0.0
C536 C 0.61681 0.73607 0.2849 0.0
C537 C 0.63401 0.77123 0.30618 0.0
C538 C 0.57244 0.72644 0.28358 0.0
C539 C 0.54426 0.75184 0.30337 0.0
C540 C 0.56155 0.78617 0.32586 0.0
C541 C 0.60602 0.79569 0.32738 0.0
C542 C 0.42695 0.76925 0.28011 0.0
C543 C 0.40836 0.72857 0.27963 0.0
C544 C 0.47076 0.7769 0.2893 0.0
C545 C 0.49697 0.74403 0.29807 0.0
C546 C 0.47809 0.70349 0.29893 0.0
C547 C 0.4342 0.69585 0.28991 0.0
H548 H 0.60957 0.14265 0.47771 0.0
H549 H 0.47112 0.12812 0.48816 0.0
H550 H 0.60761 0.21557 0.49589 0.0
H551 H 0.46927 0.20138 0.50587 0.0
H552 H 0.48568 0.32816 0.5675 0.0
H553 H 0.49177 0.2536 0.55873 0.0
H554 H 0.58061 0.27688 0.46232 0.0
H555 H 0.57598 0.35099 0.47186 0.0
C556 C 0.57873 0.15495 0.48402 0.0
C557 C 0.54046 0.12962 0.48122 0.0
C558 C 0.57764 0.19681 0.49432 0.0
C559 C 0.53831 0.21427 0.50217 0.0
C560 C 0.50013 0.18873 0.5004 0.0
C561 C 0.50118 0.14683 0.48995 0.0
C562 C 0.50711 0.31734 0.54491 0.0
C563 C 0.53036 0.34554 0.52042 0.0
C564 C 0.51036 0.27466 0.53973 0.0
C565 C 0.53689 0.25941 0.50995 0.0
C566 C 0.56084 0.28767 0.48619 0.0
C567 C 0.55785 0.33021 0.49149 0.0
H568 H 0.08653 0.33493 0.69182 0.0
H569 H 0.12956 0.26245 0.79204 0.0
H570 H 0.01271 0.32593 0.71441 0.0
H571 H 0.05599 0.25497 0.81585 0.0
H572 H 0.91555 0.20195 0.81104 0.0
H573 H 0.99107 0.21814 0.79791 0.0
H574 H 0.96161 0.34198 0.76275 0.0
H575 H 0.88542 0.32494 0.77421 0.0
C576 C 0.08028 0.31763 0.71908 0.0
C577 C 0.11375 0.29904 0.73992 0.0
C578 C 0.03794 0.31272 0.73228 0.0
C579 C 0.02818 0.28957 0.76696 0.0
C580 C 0.06207 0.27228 0.78859 0.0
C581 C 0.10432 0.27671 0.77505 0.0
C582 C 0.92521 0.23284 0.80106 0.0
C583 C 0.89443 0.26203 0.7933 0.0
C584 C 0.96871 0.24225 0.79369 0.0
C585 C 0.98259 0.28131 0.77889 0.0
C586 C 0.95201 0.31128 0.77325 0.0
C587 C 0.90836 0.30165 0.78014 0.0
H588 H 0.89644 0.86204 0.0223 0.0
H589 H 0.01841 0.86915 0.9618 0.0
H590 H 0.90533 0.78895 0.03616 0.0
H591 H 0.02662 0.79597 0.97512 0.0
H592 H 0.0435 0.67202 0.03693 0.0
H593 H 0.03578 0.74671 0.03451 0.0
H594 H 0.90545 0.72526 0.98851 0.0
H595 H 0.91268 0.65075 0.99111 0.0
C596 C 0.92516 0.84811 0.01207 0.0
C597 C 0.95661 0.87136 0.99072 0.0
C598 C 0.93003 0.80621 0.01977 0.0
C599 C 0.96639 0.78679 0.00635 0.0
C600 C 0.99841 0.81027 0.98605 0.0
C601 C 0.99353 0.85211 0.97822 0.0
C602 C 0.01294 0.6832 0.02684 0.0
C603 C 0.97873 0.65544 0.01406 0.0
C604 C 0.00866 0.72594 0.02532 0.0
C605 C 0.96995 0.74169 0.01141 0.0
C606 C 0.93532 0.71395 -3e-05 0.0
C607 C 0.93964 0.67127 0.0012 0.0
H608 H 0.22737 0.39133 0.19237 0.0
H609 H 0.16464 0.41611 0.30427 0.0
H610 H 0.23329 0.4653 0.17849 0.0
H611 H 0.17018 0.49004 0.29009 0.0
H612 H 0.24715 0.61574 0.27788 0.0
H613 H 0.23106 0.54219 0.2886 0.0
H614 H 0.19185 0.52662 0.16342 0.0
H615 H 0.20833 0.60042 0.15249 0.0
C616 C 0.21431 0.41249 0.21374 0.0
C617 C 0.19588 0.39785 0.24961 0.0
C618 C 0.21751 0.45487 0.20566 0.0
C619 C 0.20252 0.4835 0.23336 0.0
C620 C 0.1826 0.46873 0.26847 0.0
C621 C 0.17923 0.42636 0.27647 0.0
C622 C 0.23486 0.59674 0.25265 0.0
C623 C 0.22912 0.61392 0.2143 0.0
C624 C 0.22534 0.55462 0.25889 0.0
C625 C 0.21005 0.52864 0.22689 0.0
C626 C 0.20384 0.54585 0.1886 0.0
C627 C 0.21311 0.58812 0.1824 0.0
H628 H 0.79755 0.12118 0.75399 0.0
H629 H 0.69332 0.10265 0.83727 0.0
H630 H 0.80977 0.04763 0.75607 0.0
H631 H 0.70579 0.02871 0.83926 0.0
H632 H 0.71294 0.89299 0.7967 0.0
H633 H 0.6995 0.96662 0.7944 0.0
H634 H 0.83646 0.99732 0.80477 0.0
H635 H 0.84994 0.92383 0.80674 0.0
C636 C 0.77718 0.10143 0.77273 0.0
C637 C 0.74439 0.11782 0.79544 0.0
C638 C 0.78441 0.05929 0.77411 0.0
C639 C 0.75888 0.03246 0.79799 0.0
C640 C 0.72583 0.04868 0.82045 0.0
C641 C 0.71878 0.091 0.81937 0.0
C642 C 0.74017 0.91549 0.79818 0.0
C643 C 0.78249 0.90267 0.80179 0.0
C644 C 0.73244 0.95762 0.79722 0.0
C645 C 0.76692 0.98772 0.79937 0.0
C646 C 0.80926 0.97484 0.80253 0.0
C647 C 0.81696 0.93276 0.80384 0.0
H648 H 0.30195 0.49516 0.09942 0.0
H649 H 0.32416 0.46286 0.97524 0.0
H650 H 0.22452 0.49036 0.08583 0.0
H651 H 0.24662 0.45894 0.96146 0.0
H652 H 0.10164 0.42629 0.95765 0.0
H653 H 0.17794 0.42122 0.97514 0.0
H654 H 0.17526 0.53203 0.04851 0.0
H655 H 0.09927 0.53671 0.03174 0.0
C656 C 0.29032 0.48682 0.06925 0.0
C657 C 0.31921 0.47974 0.03831 0.0
C658 C 0.24593 0.48426 0.06143 0.0
C659 C 0.22945 0.47469 0.02247 0.0
C660 C 0.25828 0.46605 0.99187 0.0
C661 C 0.30273 0.4685 -0.00027 0.0
C662 C 0.11733 0.44939 0.9777 0.0
C663 C 0.09441 0.48193 0.99323 0.0
C664 C 0.16105 0.44658 0.98756 0.0
C665 C 0.18262 0.47617 0.01326 0.0
C666 C 0.15947 0.50836 0.02914 0.0
C667 C 0.11592 0.51121 0.01925 0.0
H668 H 0.74276 0.13949 0.24178 0.0
H669 H 0.72894 0.10973 0.36775 0.0
H670 H 0.7508 0.06638 0.22625 0.0
H671 H 0.73664 0.03685 0.35203 0.0
H672 H 0.79467 0.91604 0.31369 0.0
H673 H 0.79337 0.9904 0.32672 0.0
H674 H 0.70234 0.00107 0.22776 0.0
H675 H 0.70419 0.92704 0.21405 0.0
C676 C 0.74162 0.11743 0.26616 0.0
C677 C 0.73517 0.13042 0.30599 0.0
C678 C 0.74605 0.07559 0.25722 0.0
C679 C 0.7445 0.04599 0.28797 0.0
C680 C 0.73862 0.05905 0.32783 0.0
C681 C 0.73389 0.10079 0.33674 0.0
C682 C 0.7746 0.93427 0.29453 0.0
C683 C 0.7494 0.91558 0.26291 0.0
C684 C 0.77371 0.97679 0.30215 0.0
C685 C 0.74752 0.00141 0.27845 0.0
C686 C 0.72305 0.9829 0.24635 0.0
C687 C 0.72396 0.94044 0.23867 0.0
H688 H 0.83932 0.04795 0.94775 0.0
H689 H 0.81411 0.92815 0.89072 0.0
H690 H 0.76195 0.05584 0.95192 0.0
H691 H 0.73704 0.93678 0.89314 0.0
H692 H 0.60829 0.94016 0.95605 0.0
H693 H 0.6845 0.93536 0.94422 0.0
H694 H 0.69547 0.06543 0.91488 0.0
H695 H 0.61882 0.07052 0.92776 0.0
C696 C 0.81726 0.02353 0.93567 0.0
C697 C 0.83281 0.98741 0.91893 0.0
C698 C 0.77291 0.02822 0.93768 0.0
C699 C 0.74322 0.99686 0.92304 0.0
C700 C 0.75895 0.96126 0.90532 0.0
C701 C 0.80319 0.95649 0.90354 0.0
C702 C 0.62678 0.96777 0.94685 0.0
C703 C 0.60745 0.00579 0.94304 0.0
C704 C 0.67054 0.96493 0.93975 0.0
C705 C 0.69617 -2e-05 0.92848 0.0
C706 C 0.67674 0.03794 0.92398 0.0
C707 C 0.63278 0.04081 0.93114 0.0
H708 H 0.25094 0.62532 0.70136 0.0
H709 H 0.36027 0.61006 0.78154 0.0
H710 H 0.24933 0.55209 0.68356 0.0
H711 H 0.3589 0.53669 0.76326 0.0
H712 H 0.29668 0.40174 0.7635 0.0
H713 H 0.30978 0.47579 0.77605 0.0
H714 H 0.2894 0.49935 0.64942 0.0
H715 H 0.27556 0.42523 0.6368 0.0
C716 C 0.27498 0.60646 0.71482 0.0
C717 C 0.30554 0.62346 0.74309 0.0
C718 C 0.27422 0.56452 0.7044 0.0
C719 C 0.30392 0.5386 0.72211 0.0
C720 C 0.3353 0.55583 0.74948 0.0
C721 C 0.33619 0.59788 0.75978 0.0
C722 C 0.29543 0.42264 0.73823 0.0
C723 C 0.28464 0.40763 0.69921 0.0
C724 C 0.3032 0.46507 0.7454 0.0
C725 C 0.30031 0.49339 0.71372 0.0
C726 C 0.29118 0.47825 0.67446 0.0
C727 C 0.28347 0.43582 0.66726 0.0
H728 H 0.16453 0.52194 0.4741 0.0
H729 H 0.18742 0.47088 0.59206 0.0
H730 H 0.24199 0.52731 0.46314 0.0
H731 H 0.26468 0.47705 0.58132 0.0
H732 H 0.39379 0.44684 0.52961 0.0
H733 H 0.31686 0.4448 0.54165 0.0
H734 H 0.30886 0.56392 0.48485 0.0
H735 H 0.38592 0.56551 0.47186 0.0
C736 C 0.18608 0.51222 0.49783 0.0
C737 C 0.16979 0.49579 0.53387 0.0
C738 C 0.2305 0.51552 0.49163 0.0
C739 C 0.25955 0.50252 0.52137 0.0
C740 C 0.24318 0.4868 0.55764 0.0
C741 C 0.19885 0.48344 0.56383 0.0
C742 C 0.3757 0.47268 0.51975 0.0
C743 C 0.396 0.50632 0.4997 0.0
C744 C 0.33158 0.47162 0.52688 0.0
C745 C 0.30666 0.50423 0.51426 0.0
C746 C 0.32702 0.53806 0.49449 0.0
C747 C 0.37123 0.53908 0.48728 0.0
H748 H 0.85157 0.75607 0.94451 0.0
H749 H 0.71359 0.75244 0.92445 0.0
H750 H 0.84106 0.7505 0.01674 0.0
H751 H 0.70327 0.74869 0.99719 0.0
H752 H 0.70194 0.707 0.12937 0.0
H753 H 0.71112 0.70544 0.05651 0.0
H754 H 0.8193 0.79514 0.06942 0.0
H755 H 0.81082 0.79597 0.14203 0.0
C756 C 0.81899 0.75412 0.95553 0.0
C757 C 0.78342 0.75483 0.92877 0.0
C758 C 0.81305 0.75135 0.99694 0.0
C759 C 0.7715 0.74986 0.01276 0.0
C760 C 0.73575 0.74953 0.98597 0.0
C761 C 0.74166 0.75187 0.94432 0.0
C762 C 0.72783 0.7262 0.11664 0.0
C763 C 0.75575 0.75152 0.14153 0.0
C764 C 0.73288 0.72551 0.07486 0.0
C765 C 0.76595 0.7501 0.05713 0.0
C766 C 0.79391 0.77528 0.08212 0.0
C767 C 0.78893 0.77591 0.12379 0.0
H768 H 0.5097 0.39518 0.34824 0.0
H769 H 0.53763 0.52684 0.36436 0.0
H770 H 0.50938 0.40364 0.27546 0.0
H771 H 0.53597 0.53547 0.29138 0.0
H772 H 0.56411 0.53258 0.15765 0.0
H773 H 0.573 0.5207 0.22976 0.0
H774 H 0.46313 0.43234 0.22502 0.0
H775 H 0.4548 0.44353 0.15297 0.0
C776 C 0.51569 0.42598 0.33626 0.0
C777 C 0.52342 0.46042 0.36209 0.0
C778 C 0.51527 0.43082 0.2945 0.0
C779 C 0.52224 0.47025 0.27757 0.0
C780 C 0.53094 0.50459 0.30342 0.0
C781 C 0.53165 0.4997 0.34525 0.0
C782 C 0.54208 0.51037 0.17195 0.0
C783 C 0.50866 0.48911 0.14957 0.0
C784 C 0.54701 0.50377 0.21333 0.0
C785 C 0.51867 0.47573 0.23322 0.0
C786 C 0.48586 0.4538 0.21061 0.0
C787 C 0.48093 0.4604 0.16928 0.0
H788 H 0.7869 0.287 0.42269 0.0
H789 H 0.65155 0.26534 0.44655 0.0
H790 H 0.80328 0.28661 0.49497 0.0
H791 H 0.66775 0.26455 0.51855 0.0
H792 H 0.70626 0.29328 0.64812 0.0
H793 H 0.69259 0.30458 0.5765 0.0
H794 H 0.8034 0.23608 0.5478 0.0
H795 H 0.81769 0.22578 0.61921 0.0
C796 C 0.7606 0.28245 0.44336 0.0
C797 C 0.71785 0.27615 0.42891 0.0
C798 C 0.76999 0.28199 0.48477 0.0
C799 C 0.73684 0.27524 0.51258 0.0
C800 C 0.69402 0.27023 0.49807 0.0
C801 C 0.6847 0.27059 0.45675 0.0
C802 C 0.72782 0.28085 0.62651 0.0
C803 C 0.76293 0.25847 0.63937 0.0
C804 C 0.71991 0.2872 0.58544 0.0
C805 C 0.74685 0.27118 0.55635 0.0
C806 C 0.78237 0.24941 0.56934 0.0
C807 C 0.79036 0.2432 0.61035 0.0
H808 H 0.04316 0.54225 0.64801 0.0
H809 H 0.92009 0.47264 0.64615 0.0
H810 H 0.03648 0.55563 0.71974 0.0
H811 H 0.91298 0.48685 0.71795 0.0
H812 H 0.94492 0.47671 0.8543 0.0
H813 H 0.94566 0.46678 0.7814 0.0
H814 H 0.99633 0.5931 0.76795 0.0
H815 H 0.99658 0.6027 0.84077 0.0
C816 C 0.01444 0.53016 0.66281 0.0
C817 C 0.98223 0.50623 0.64136 0.0
C818 C 0.01049 0.53806 0.70394 0.0
C819 C 0.9742 0.52228 0.72464 0.0
C820 C 0.9416 0.49899 0.70303 0.0
C821 C 0.94557 0.49106 0.66182 0.0
C822 C 0.95595 0.50242 0.83575 0.0
C823 C 0.971 0.54037 0.85337 0.0
C824 C 0.95614 0.49682 0.79393 0.0
C825 C 0.97126 0.52908 0.76883 0.0
C826 C 0.98518 0.56738 0.78644 0.0
C827 C 0.98512 0.57293 0.82822 0.0
H828 H 0.86583 0.01062 0.41541 0.0
H829 H 0.84713 0.91846 0.50794 0.0
H830 H 0.78858 0.00633 0.40052 0.0
H831 H 0.76984 0.91387 0.49248 0.0
H832 H 0.63439 0.96981 0.49133 0.0
H833 H 0.71139 0.96275 0.50209 0.0
H834 H 0.72833 0.95784 0.37348 0.0
H835 H 0.65137 0.96571 0.36242 0.0
C836 C 0.84536 0.98902 0.43217 0.0
C837 C 0.86262 0.9651 0.46307 0.0
C838 C 0.80112 0.98634 0.42339 0.0
C839 C 0.7732 0.95976 0.44532 0.0
C840 C 0.79058 0.9349 0.47535 0.0
C841 C 0.83486 0.93745 0.48406 0.0
C842 C 0.65442 0.96686 0.46529 0.0
C843 C 0.63676 0.96867 0.42602 0.0
C844 C 0.69851 0.96257 0.47148 0.0
C845 C 0.7259 0.96008 0.43857 0.0
C846 C 0.70806 0.9604 0.39933 0.0
C847 C 0.66393 0.96464 0.39307 0.0
loop_
_geom_bond_atom_site_label_1
_geom_bond_atom_site_label_2
_geom_bond_distance
_geom_bond_site_symmetry_2
_ccdc_geom_bond_type
C0 O1 1.160 . S
C0 O7 1.185 . S
O1 C0 1.160 . S
O2 Zn3 1.899 . S
O2 C10 1.284 . S
Zn3 O2 1.899 . S
Zn3 O4 2.032 . S
Zn3 O7 2.086 . S
Zn3 O12 1.977 . S
O4 Zn3 2.032 . S
O4 C8 1.278 . S
C5 O6 1.203 . S
C5 O12 1.267 . S
O6 C5 1.203 . S
O7 C0 1.185 . S
O7 Zn3 2.086 . S
C8 O4 1.278 . S
C8 O9 1.211 . S
O9 C8 1.211 . S
C10 O2 1.284 . S
C10 O11 1.273 . S
O11 C10 1.273 . S
O12 Zn3 1.977 . S
O12 C5 1.267 . S
C13 O14 1.160 1_455 S
C13 O20 1.185 . S
O14 C13 1.160 1_655 S
O15 Zn16 1.899 . S
O15 C23 1.284 . S
Zn16 O15 1.899 . S
Zn16 O17 2.032 1_545 S
Zn16 O20 2.086 1_645 S
Zn16 O25 1.977 1_655 S
O17 Zn16 2.032 1_565 S
O17 C21 1.278 1_565 S
C18 O19 1.203 . S
C18 O25 1.267 1_655 S
O19 C18 1.203 . S
O20 C13 1.185 . S
O20 Zn16 2.086 1_465 S
C21 O17 1.278 1_545 S
C21 O22 1.211 . S
O22 C21 1.211 . S
C23 O15 1.284 . S
C23 O24 1.273 . S
O24 C23 1.273 . S
O25 Zn16 1.977 1_455 S
O25 C18 1.267 1_455 S
C26 O27 1.160 . S
C26 O33 1.185 . S
O27 C26 1.160 . S
O28 Zn29 1.899 . S
O28 C36 1.284 . S
Zn29 O28 1.899 . S
Zn29 O30 2.032 . S
Zn29 O33 2.086 . S
Zn29 O38 1.977 . S
O30 Zn29 2.032 . S
O30 C34 1.278 . S
C31 O32 1.203 . S
C31 O38 1.267 . S
O32 C31 1.203 . S
O33 C26 1.185 . S
O33 Zn29 2.086 . S
C34 O30 1.278 . S
C34 O35 1.211 . S
O35 C34 1.211 . S
C36 O28 1.284 . S
C36 O37 1.273 . S
O37 C36 1.273 . S
O38 Zn29 1.977 . S
O38 C31 1.267 . S
C39 O40 1.160 . S
C39 O46 1.185 . S
O40 C39 1.160 . S
O41 Zn42 1.899 1_556 S
O41 C49 1.284 1_556 S
Zn42 O41 1.899 1_554 S
Zn42 O43 2.032 1_565 S
Zn42 O46 2.086 1_564 S
Zn42 O51 1.977 . S
O43 Zn42 2.032 1_545 S
O43 C47 1.278 1_545 S
C44 O45 1.203 . S
C44 O51 1.267 . S
O45 C44 1.203 . S
O46 C39 1.185 . S
O46 Zn42 2.086 1_546 S
C47 O43 1.278 1_565 S
C47 O48 1.211 . S
O48 C47 1.211 . S
C49 O41 1.284 1_554 S
C49 O50 1.273 . S
O50 C49 1.273 . S
O51 Zn42 1.977 . S
O51 C44 1.267 . S
C52 O53 1.160 . S
C52 O59 1.185 . S
O53 C52 1.160 . S
O54 Zn55 1.899 . S
O54 C62 1.284 . S
Zn55 O54 1.899 . S
Zn55 O56 2.032 . S
Zn55 O59 2.086 . S
Zn55 O64 1.977 . S
O56 Zn55 2.032 . S
O56 C60 1.278 . S
C57 O58 1.203 . S
C57 O64 1.267 . S
O58 C57 1.203 . S
O59 C52 1.185 . S
O59 Zn55 2.086 . S
C60 O56 1.278 . S
C60 O61 1.211 . S
O61 C60 1.211 . S
C62 O54 1.284 . S
C62 O63 1.273 . S
O63 C62 1.273 . S
O64 Zn55 1.977 . S
O64 C57 1.267 . S
C65 O66 1.160 1_565 S
C65 O72 1.185 . S
O66 C65 1.160 1_545 S
O67 Zn68 1.899 . S
O67 C75 1.284 . S
Zn68 O67 1.899 . S
Zn68 O69 2.032 . S
Zn68 O72 2.086 1_545 S
Zn68 O77 1.977 1_545 S
O69 Zn68 2.032 . S
O69 C73 1.278 . S
C70 O71 1.203 . S
C70 O77 1.267 1_545 S
O71 C70 1.203 . S
O72 C65 1.185 . S
O72 Zn68 2.086 1_565 S
C73 O69 1.278 . S
C73 O74 1.211 . S
O74 C73 1.211 . S
C75 O67 1.284 . S
C75 O76 1.273 . S
O76 C75 1.273 . S
O77 Zn68 1.977 1_565 S
O77 C70 1.267 1_565 S
C78 O79 1.160 . S
C78 O85 1.185 . S
O79 C78 1.160 . S
O80 Zn81 1.899 . S
O80 C88 1.284 . S
Zn81 O80 1.899 . S
Zn81 O82 2.032 . S
Zn81 O85 2.086 . S
Zn81 O90 1.977 . S
O82 Zn81 2.032 . S
O82 C86 1.278 . S
C83 O84 1.203 . S
C83 O90 1.267 . S
O84 C83 1.203 . S
O85 C78 1.185 . S
O85 Zn81 2.086 . S
C86 O82 1.278 . S
C86 O87 1.211 . S
O87 C86 1.211 . S
C88 O80 1.284 . S
C88 O89 1.273 . S
O89 C88 1.273 . S
O90 Zn81 1.977 . S
O90 C83 1.267 . S
C91 O92 1.160 1_545 S
C91 O98 1.185 1_554 S
O92 C91 1.160 1_565 S
O93 Zn94 1.899 1_455 S
O93 C101 1.284 1_455 S
Zn94 O93 1.899 1_655 S
Zn94 O95 2.032 . S
Zn94 O98 2.086 1_665 S
Zn94 O103 1.977 1_565 S
O95 Zn94 2.032 . S
O95 C99 1.278 . S
C96 O97 1.203 . S
C96 O103 1.267 1_565 S
O97 C96 1.203 . S
O98 C91 1.185 1_556 S
O98 Zn94 2.086 1_445 S
C99 O95 1.278 . S
C99 O100 1.211 . S
O100 C99 1.211 . S
C101 O93 1.284 1_655 S
C101 O102 1.273 . S
O102 C101 1.273 . S
O103 Zn94 1.977 1_545 S
O103 C96 1.267 1_545 S
C104 O105 1.160 . S
C104 O111 1.185 . S
O105 C104 1.160 . S
O106 Zn107 1.899 . S
O106 C114 1.284 . S
Zn107 O106 1.899 . S
Zn107 O108 2.032 . S
Zn107 O111 2.086 . S
Zn107 O116 1.977 . S
O108 Zn107 2.032 . S
O108 C112 1.278 . S
C109 O110 1.203 . S
C109 O116 1.267 . S
O110 C109 1.203 . S
O111 C104 1.185 . S
O111 Zn107 2.086 . S
C112 O108 1.278 . S
C112 O113 1.211 . S
O113 C112 1.211 . S
C114 O106 1.284 . S
C114 O115 1.273 . S
O115 C114 1.273 . S
O116 Zn107 1.977 . S
O116 C109 1.267 . S
C117 O118 1.160 . S
C117 O124 1.185 1_554 S
O118 C117 1.160 . S
O119 Zn120 1.899 1_655 S
O119 C127 1.284 1_655 S
Zn120 O119 1.899 1_455 S
Zn120 O121 2.032 . S
Zn120 O124 2.086 1_455 S
Zn120 O129 1.977 1_455 S
O121 Zn120 2.032 . S
O121 C125 1.278 . S
C122 O123 1.203 . S
C122 O129 1.267 1_455 S
O123 C122 1.203 . S
O124 C117 1.185 1_556 S
O124 Zn120 2.086 1_655 S
C125 O121 1.278 . S
C125 O126 1.211 . S
O126 C125 1.211 . S
C127 O119 1.284 1_455 S
C127 O128 1.273 . S
O128 C127 1.273 . S
O129 Zn120 1.977 1_655 S
O129 C122 1.267 1_655 S
C130 O131 1.160 . S
C130 O137 1.185 . S
O131 C130 1.160 . S
O132 Zn133 1.899 . S
O132 C140 1.284 . S
Zn133 O132 1.899 . S
Zn133 O134 2.032 . S
Zn133 O137 2.086 . S
Zn133 O142 1.977 . S
O134 Zn133 2.032 . S
O134 C138 1.278 . S
C135 O136 1.203 . S
C135 O142 1.267 . S
O136 C135 1.203 . S
O137 C130 1.185 . S
O137 Zn133 2.086 . S
C138 O134 1.278 . S
C138 O139 1.211 . S
O139 C138 1.211 . S
C140 O132 1.284 . S
C140 O141 1.273 . S
O141 C140 1.273 . S
O142 Zn133 1.977 . S
O142 C135 1.267 . S
C143 O144 1.160 1_655 S
C143 O150 1.185 . S
O144 C143 1.160 1_455 S
O145 Zn146 1.899 . S
O145 C153 1.284 . S
Zn146 O145 1.899 . S
Zn146 O147 2.032 . S
Zn146 O150 2.086 1_455 S
Zn146 O155 1.977 1_455 S
O147 Zn146 2.032 . S
O147 C151 1.278 . S
C148 O149 1.203 . S
C148 O155 1.267 1_455 S
O149 C148 1.203 . S
O150 C143 1.185 . S
O150 Zn146 2.086 1_655 S
C151 O147 1.278 . S
C151 O152 1.211 . S
O152 C151 1.211 . S
C153 O145 1.284 . S
C153 O154 1.273 . S
O154 C153 1.273 . S
O155 Zn146 1.977 1_655 S
O155 C148 1.267 1_655 S
C156 O157 1.160 . S
C156 O163 1.185 . S
O157 C156 1.160 . S
O158 Zn159 1.899 1_556 S
O158 C166 1.284 1_556 S
Zn159 O158 1.899 1_554 S
Zn159 O160 2.032 . S
Zn159 O163 2.086 1_554 S
Zn159 O168 1.977 . S
O160 Zn159 2.032 . S
O160 C164 1.278 . S
C161 O162 1.203 . S
C161 O168 1.267 . S
O162 C161 1.203 . S
O163 C156 1.185 . S
O163 Zn159 2.086 1_556 S
C164 O160 1.278 . S
C164 O165 1.211 . S
O165 C164 1.211 . S
C166 O158 1.284 1_554 S
C166 O167 1.273 . S
O167 C166 1.273 . S
O168 Zn159 1.977 . S
O168 C161 1.267 . S
C169 O170 1.160 . S
C169 O176 1.185 . S
O170 C169 1.160 . S
O171 Zn172 1.899 . S
O171 C179 1.284 . S
Zn172 O171 1.899 . S
Zn172 O173 2.032 . S
Zn172 O176 2.086 . S
Zn172 O181 1.977 . S
O173 Zn172 2.032 . S
O173 C177 1.278 . S
C174 O175 1.203 . S
C174 O181 1.267 . S
O175 C174 1.203 . S
O176 C169 1.185 . S
O176 Zn172 2.086 . S
C177 O173 1.278 . S
C177 O178 1.211 . S
O178 C177 1.211 . S
C179 O171 1.284 . S
C179 O180 1.273 . S
O180 C179 1.273 . S
O181 Zn172 1.977 . S
O181 C174 1.267 . S
C182 O183 1.160 . S
C182 O189 1.185 . S
O183 C182 1.160 . S
O184 Zn185 1.899 . S
O184 C192 1.284 . S
Zn185 O184 1.899 . S
Zn185 O186 2.032 . S
Zn185 O189 2.086 . S
Zn185 O194 1.977 . S
O186 Zn185 2.032 . S
O186 C190 1.278 . S
C187 O188 1.203 . S
C187 O194 1.267 . S
O188 C187 1.203 . S
O189 C182 1.185 . S
O189 Zn185 2.086 . S
C190 O186 1.278 . S
C190 O191 1.211 . S
O191 C190 1.211 . S
C192 O184 1.284 . S
C192 O193 1.273 . S
O193 C192 1.273 . S
O194 Zn185 1.977 . S
O194 C187 1.267 . S
C195 O196 1.160 . S
C195 O202 1.185 . S
O196 C195 1.160 . S
O197 Zn198 1.899 . S
O197 C205 1.284 . S
Zn198 O197 1.899 . S
Zn198 O199 2.032 . S
Zn198 O202 2.086 . S
Zn198 O207 1.977 . S
O199 Zn198 2.032 . S
O199 C203 1.278 . S
C200 O201 1.203 . S
C200 O207 1.267 . S
O201 C200 1.203 . S
O202 C195 1.185 . S
O202 Zn198 2.086 . S
C203 O199 1.278 . S
C203 O204 1.211 . S
O204 C203 1.211 . S
C205 O197 1.284 . S
C205 O206 1.273 . S
O206 C205 1.273 . S
O207 Zn198 1.977 . S
O207 C200 1.267 . S
H208 C216 0.950 . S
H209 C221 0.950 . S
H210 C218 0.950 . S
H211 C220 0.950 . S
H212 C222 0.950 . S
H213 C224 0.950 . S
H214 C226 0.950 . S
H215 C227 0.950 . S
C216 H208 0.950 . S
C216 C217 1.386 . S
C216 C218 1.391 . S
C217 C216 1.386 . S
C217 C221 1.393 . S
C218 H210 0.950 . S
C218 C216 1.391 . S
C218 C219 1.400 . S
C219 C218 1.400 . S
C219 C220 1.398 . S
C219 C225 1.491 . S
C220 H211 0.950 . S
C220 C219 1.398 . S
C220 C221 1.391 . S
C221 H209 0.950 . S
C221 C217 1.393 . S
C221 C220 1.391 . S
C222 H212 0.950 . S
C222 C223 1.386 . S
C222 C224 1.391 . S
C223 C222 1.386 . S
C223 C227 1.393 . S
C224 H213 0.950 . S
C224 C222 1.391 . S
C224 C225 1.400 . S
C225 C219 1.491 . S
C225 C224 1.400 . S
C225 C226 1.398 . S
C226 H214 0.950 . S
C226 C225 1.398 . S
C226 C227 1.391 . S
C227 H215 0.950 . S
C227 C223 1.393 . S
C227 C226 1.391 . S
H228 C236 0.950 . S
H229 C241 0.950 . S
H230 C238 0.950 . S
H231 C240 0.950 . S
H232 C242 0.950 . S
H233 C244 0.950 . S
H234 C246 0.950 . S
H235 C247 0.950 . S
C236 H228 0.950 . S
C236 C237 1.386 . S
C236 C238 1.391 . S
C237 C236 1.386 . S
C237 C241 1.393 . S
C238 H230 0.950 . S
C238 C236 1.391 . S
C238 C239 1.400 . S
C239 C238 1.400 . S
C239 C240 1.398 . S
C239 C245 1.491 . S
C240 H231 0.950 . S
C240 C239 1.398 . S
C240 C241 1.391 . S
C241 H229 0.950 . S
C241 C237 1.393 . S
C241 C240 1.391 . S
C242 H232 0.950 . S
C242 C243 1.386 . S
C242 C244 1.391 . S
C243 C242 1.386 . S
C243 C247 1.393 . S
C244 H233 0.950 . S
C244 C242 1.391 . S
C244 C245 1.400 . S
C245 C239 1.491 . S
C245 C244 1.400 . S
C245 C246 1.398 . S
C246 H234 0.950 . S
C246 C245 1.398 . S
C246 C247 1.391 . S
C247 H235 0.950 . S
C247 C243 1.393 . S
C247 C246 1.391 . S
H248 C256 0.950 . S
H249 C261 0.950 . S
H250 C258 0.950 . S
H251 C260 0.950 . S
H252 C262 0.950 . S
H253 C264 0.950 . S
H254 C266 0.950 . S
H255 C267 0.950 . S
C256 H248 0.950 . S
C256 C257 1.386 . S
C256 C258 1.391 . S
C257 C256 1.386 . S
C257 C261 1.393 . S
C258 H250 0.950 . S
C258 C256 1.391 . S
C258 C259 1.400 . S
C259 C258 1.400 . S
C259 C260 1.398 . S
C259 C265 1.491 . S
C260 H251 0.950 . S
C260 C259 1.398 . S
C260 C261 1.391 . S
C261 H249 0.950 . S
C261 C257 1.393 . S
C261 C260 1.391 . S
C262 H252 0.950 . S
C262 C263 1.386 . S
C262 C264 1.391 . S
C263 C262 1.386 . S
C263 C267 1.393 . S
C264 H253 0.950 . S
C264 C262 1.391 . S
C264 C265 1.400 . S
C265 C259 1.491 . S
C265 C264 1.400 . S
C265 C266 1.398 . S
C266 H254 0.950 . S
C266 C265 1.398 . S
C266 C267 1.391 . S
C267 H255 0.950 . S
C267 C263 1.393 . S
C267 C266 1.391 . S
H268 C276 0.950 . S
H269 C281 0.950 . S
H270 C278 0.950 . S
H271 C280 0.950 . S
H272 C282 0.950 . S
H273 C284 0.950 . S
H274 C286 0.950 . S
H275 C287 0.950 . S
C276 H268 0.950 . S
C276 C277 1.386 . S
C276 C278 1.391 . S
C277 C276 1.386 . S
C277 C281 1.393 . S
C278 H270 0.950 . S
C278 C276 1.391 . S
C278 C279 1.400 . S
C279 C278 1.400 . S
C279 C280 1.398 . S
C279 C285 1.491 . S
C280 H271 0.950 . S
C280 C279 1.398 . S
C280 C281 1.391 . S
C281 H269 0.950 . S
C281 C277 1.393 . S
C281 C280 1.391 . S
C282 H272 0.950 . S
C282 C283 1.386 . S
C282 C284 1.391 . S
C283 C282 1.386 . S
C283 C287 1.393 . S
C284 H273 0.950 . S
C284 C282 1.391 . S
C284 C285 1.400 . S
C285 C279 1.491 . S
C285 C284 1.400 . S
C285 C286 1.398 . S
C286 H274 0.950 . S
C286 C285 1.398 . S
C286 C287 1.391 . S
C287 H275 0.950 . S
C287 C283 1.393 . S
C287 C286 1.391 . S
H288 C296 0.950 . S
H289 C301 0.950 . S
H290 C298 0.950 . S
H291 C300 0.950 . S
H292 C302 0.950 . S
H293 C304 0.950 . S
H294 C306 0.950 . S
H295 C307 0.950 . S
C296 H288 0.950 . S
C296 C297 1.386 . S
C296 C298 1.391 . S
C297 C296 1.386 . S
C297 C301 1.393 . S
C298 H290 0.950 . S
C298 C296 1.391 . S
C298 C299 1.400 . S
C299 C298 1.400 . S
C299 C300 1.398 . S
C299 C305 1.491 . S
C300 H291 0.950 . S
C300 C299 1.398 . S
C300 C301 1.391 . S
C301 H289 0.950 . S
C301 C297 1.393 . S
C301 C300 1.391 . S
C302 H292 0.950 . S
C302 C303 1.386 . S
C302 C304 1.391 . S
C303 C302 1.386 . S
C303 C307 1.393 . S
C304 H293 0.950 . S
C304 C302 1.391 . S
C304 C305 1.400 . S
C305 C299 1.491 . S
C305 C304 1.400 . S
C305 C306 1.398 . S
C306 H294 0.950 . S
C306 C305 1.398 . S
C306 C307 1.391 . S
C307 H295 0.950 . S
C307 C303 1.393 . S
C307 C306 1.391 . S
H308 C316 0.950 . S
H309 C321 0.950 . S
H310 C318 0.950 . S
H311 C320 0.950 . S
H312 C322 0.950 . S
H313 C324 0.950 . S
H314 C326 0.950 . S
H315 C327 0.950 . S
C316 H308 0.950 . S
C316 C317 1.386 . S
C316 C318 1.391 . S
C317 C316 1.386 . S
C317 C321 1.393 . S
C318 H310 0.950 . S
C318 C316 1.391 . S
C318 C319 1.400 . S
C319 C318 1.400 . S
C319 C320 1.398 . S
C319 C325 1.491 . S
C320 H311 0.950 . S
C320 C319 1.398 . S
C320 C321 1.391 . S
C321 H309 0.950 . S
C321 C317 1.393 . S
C321 C320 1.391 . S
C322 H312 0.950 . S
C322 C323 1.386 . S
C322 C324 1.391 . S
C323 C322 1.386 . S
C323 C327 1.393 . S
C324 H313 0.950 . S
C324 C322 1.391 . S
C324 C325 1.400 . S
C325 C319 1.491 . S
C325 C324 1.400 . S
C325 C326 1.398 . S
C326 H314 0.950 . S
C326 C325 1.398 . S
C326 C327 1.391 . S
C327 H315 0.950 . S
C327 C323 1.393 . S
C327 C326 1.391 . S
H328 C336 0.950 . S
H329 C341 0.950 . S
H330 C338 0.950 . S
H331 C340 0.950 . S
H332 C342 0.950 . S
H333 C344 0.950 . S
H334 C346 0.950 . S
H335 C347 0.950 . S
C336 H328 0.950 . S
C336 C337 1.386 . S
C336 C338 1.391 . S
C337 C336 1.386 . S
C337 C341 1.393 . S
C338 H330 0.950 . S
C338 C336 1.391 . S
C338 C339 1.400 . S
C339 C338 1.400 . S
C339 C340 1.398 . S
C339 C345 1.491 . S
C340 H331 0.950 . S
C340 C339 1.398 . S
C340 C341 1.391 . S
C341 H329 0.950 . S
C341 C337 1.393 . S
C341 C340 1.391 . S
C342 H332 0.950 . S
C342 C343 1.386 . S
C342 C344 1.391 . S
C343 C342 1.386 . S
C343 C347 1.393 . S
C344 H333 0.950 . S
C344 C342 1.391 . S
C344 C345 1.400 . S
C345 C339 1.491 . S
C345 C344 1.400 . S
C345 C346 1.398 . S
C346 H334 0.950 . S
C346 C345 1.398 . S
C346 C347 1.391 . S
C347 H335 0.950 . S
C347 C343 1.393 . S
C347 C346 1.391 . S
H348 C356 0.950 . S
H349 C361 0.950 . S
H350 C358 0.950 . S
H351 C360 0.950 . S
H352 C362 0.950 . S
H353 C364 0.950 . S
H354 C366 0.950 . S
H355 C367 0.950 . S
C356 H348 0.950 . S
C356 C357 1.386 . S
C356 C358 1.391 . S
C357 C356 1.386 . S
C357 C361 1.393 . S
C358 H350 0.950 . S
C358 C356 1.391 . S
C358 C359 1.400 . S
C359 C358 1.400 . S
C359 C360 1.398 . S
C359 C365 1.491 . S
C360 H351 0.950 . S
C360 C359 1.398 . S
C360 C361 1.391 . S
C361 H349 0.950 . S
C361 C357 1.393 . S
C361 C360 1.391 . S
C362 H352 0.950 . S
C362 C363 1.386 . S
C362 C364 1.391 . S
C363 C362 1.386 . S
C363 C367 1.393 . S
C364 H353 0.950 . S
C364 C362 1.391 . S
C364 C365 1.400 . S
C365 C359 1.491 . S
C365 C364 1.400 . S
C365 C366 1.398 . S
C366 H354 0.950 . S
C366 C365 1.398 . S
C366 C367 1.391 . S
C367 H355 0.950 . S
C367 C363 1.393 . S
C367 C366 1.391 . S
H368 C376 0.950 . S
H369 C381 0.950 . S
H370 C378 0.950 . S
H371 C380 0.950 . S
H372 C382 0.950 . S
H373 C384 0.950 . S
H374 C386 0.950 . S
H375 C387 0.950 . S
C376 H368 0.950 . S
C376 C377 1.386 . S
C376 C378 1.391 . S
C377 C376 1.386 . S
C377 C381 1.393 . S
C378 H370 0.950 . S
C378 C376 1.391 . S
C378 C379 1.400 . S
C379 C378 1.400 . S
C379 C380 1.398 . S
C379 C385 1.491 . S
C380 H371 0.950 . S
C380 C379 1.398 . S
C380 C381 1.391 . S
C381 H369 0.950 . S
C381 C377 1.393 . S
C381 C380 1.391 . S
C382 H372 0.950 . S
C382 C383 1.386 . S
C382 C384 1.391 . S
C383 C382 1.386 . S
C383 C387 1.393 . S
C384 H373 0.950 . S
C384 C382 1.391 . S
C384 C385 1.400 . S
C385 C379 1.491 . S
C385 C384 1.400 . S
C385 C386 1.398 . S
C386 H374 0.950 . S
C386 C385 1.398 . S
C386 C387 1.391 . S
C387 H375 0.950 . S
C387 C383 1.393 . S
C387 C386 1.391 . S
H388 C396 0.950 . S
H389 C401 0.950 . S
H390 C398 0.950 . S
H391 C400 0.950 . S
H392 C402 0.950 . S
H393 C404 0.950 . S
H394 C406 0.950 . S
H395 C407 0.950 . S
C396 H388 0.950 . S
C396 C397 1.386 . S
C396 C398 1.391 . S
C397 C396 1.386 . S
C397 C401 1.393 1_665 S
C398 H390 0.950 . S
C398 C396 1.391 . S
C398 C399 1.400 . S
C399 C398 1.400 . S
C399 C400 1.398 1_665 S
C399 C405 1.491 . S
C400 H391 0.950 . S
C400 C399 1.398 1_445 S
C400 C401 1.391 . S
C401 H389 0.950 . S
C401 C397 1.393 1_445 S
C401 C400 1.391 . S
C402 H392 0.950 . S
C402 C403 1.386 1_445 S
C402 C404 1.391 . S
C403 C402 1.386 1_665 S
C403 C407 1.393 . S
C404 H393 0.950 . S
C404 C402 1.391 . S
C404 C405 1.400 1_445 S
C405 C399 1.491 . S
C405 C404 1.400 1_665 S
C405 C406 1.398 . S
C406 H394 0.950 . S
C406 C405 1.398 . S
C406 C407 1.391 . S
C407 H395 0.950 . S
C407 C403 1.393 . S
C407 C406 1.391 . S
H408 C416 0.950 . S
H409 C421 0.950 . S
H410 C418 0.950 . S
H411 C420 0.950 . S
H412 C422 0.950 . S
H413 C424 0.950 . S
H414 C426 0.950 . S
H415 C427 0.950 . S
C416 H408 0.950 . S
C416 C417 1.386 . S
C416 C418 1.391 . S
C417 C416 1.386 . S
C417 C421 1.393 . S
C418 H410 0.950 . S
C418 C416 1.391 . S
C418 C419 1.400 . S
C419 C418 1.400 . S
C419 C420 1.398 . S
C419 C425 1.491 1_556 S
C420 H411 0.950 . S
C420 C419 1.398 . S
C420 C421 1.391 . S
C421 H409 0.950 . S
C421 C417 1.393 . S
C421 C420 1.391 . S
C422 H412 0.950 . S
C422 C423 1.386 . S
C422 C424 1.391 . S
C423 C422 1.386 . S
C423 C427 1.393 . S
C424 H413 0.950 . S
C424 C422 1.391 . S
C424 C425 1.400 . S
C425 C419 1.491 1_554 S
C425 C424 1.400 . S
C425 C426 1.398 . S
C426 H414 0.950 . S
C426 C425 1.398 . S
C426 C427 1.391 . S
C427 H415 0.950 . S
C427 C423 1.393 . S
C427 C426 1.391 . S
H428 C436 0.950 . S
H429 C441 0.950 . S
H430 C438 0.950 . S
H431 C440 0.950 . S
H432 C442 0.950 . S
H433 C444 0.950 . S
H434 C446 0.950 . S
H435 C447 0.950 . S
C436 H428 0.950 . S
C436 C437 1.386 . S
C436 C438 1.391 . S
C437 C436 1.386 . S
C437 C441 1.393 1_545 S
C438 H430 0.950 . S
C438 C436 1.391 . S
C438 C439 1.400 . S
C439 C438 1.400 . S
C439 C440 1.398 1_545 S
C439 C445 1.491 . S
C440 H431 0.950 . S
C440 C439 1.398 1_565 S
C440 C441 1.391 . S
C441 H429 0.950 . S
C441 C437 1.393 1_565 S
C441 C440 1.391 . S
C442 H432 0.950 . S
C442 C443 1.386 1_565 S
C442 C444 1.391 . S
C443 C442 1.386 1_545 S
C443 C447 1.393 . S
C444 H433 0.950 . S
C444 C442 1.391 . S
C444 C445 1.400 1_565 S
C445 C439 1.491 . S
C445 C444 1.400 1_545 S
C445 C446 1.398 . S
C446 H434 0.950 . S
C446 C445 1.398 . S
C446 C447 1.391 . S
C447 H435 0.950 . S
C447 C443 1.393 . S
C447 C446 1.391 . S
H448 C456 0.950 . S
H449 C461 0.950 . S
H450 C458 0.950 . S
H451 C460 0.950 . S
H452 C462 0.950 . S
H453 C464 0.950 . S
H454 C466 0.950 . S
H455 C467 0.950 . S
C456 H448 0.950 . S
C456 C457 1.386 . S
C456 C458 1.391 . S
C457 C456 1.386 . S
C457 C461 1.393 . S
C458 H450 0.950 . S
C458 C456 1.391 . S
C458 C459 1.400 . S
C459 C458 1.400 . S
C459 C460 1.398 . S
C459 C465 1.491 . S
C460 H451 0.950 . S
C460 C459 1.398 . S
C460 C461 1.391 . S
C461 H449 0.950 . S
C461 C457 1.393 . S
C461 C460 1.391 . S
C462 H452 0.950 . S
C462 C463 1.386 . S
C462 C464 1.391 . S
C463 C462 1.386 . S
C463 C467 1.393 . S
C464 H453 0.950 . S
C464 C462 1.391 . S
C464 C465 1.400 . S
C465 C459 1.491 . S
C465 C464 1.400 . S
C465 C466 1.398 . S
C466 H454 0.950 . S
C466 C465 1.398 . S
C466 C467 1.391 . S
C467 H455 0.950 . S
C467 C463 1.393 . S
C467 C466 1.391 . S
H468 C476 0.950 . S
H469 C481 0.950 . S
H470 C478 0.950 . S
H471 C480 0.950 . S
H472 C482 0.950 . S
H473 C484 0.950 . S
H474 C486 0.950 . S
H475 C487 0.950 . S
C476 H468 0.950 . S
C476 C477 1.386 1_455 S
C476 C478 1.391 . S
C477 C476 1.386 1_655 S
C477 C481 1.393 . S
C478 H470 0.950 . S
C478 C476 1.391 . S
C478 C479 1.400 1_455 S
C479 C478 1.400 1_655 S
C479 C480 1.398 . S
C479 C485 1.491 . S
C480 H471 0.950 . S
C480 C479 1.398 . S
C480 C481 1.391 . S
C481 H469 0.950 . S
C481 C477 1.393 . S
C481 C480 1.391 . S
C482 H472 0.950 . S
C482 C483 1.386 . S
C482 C484 1.391 . S
C483 C482 1.386 . S
C483 C487 1.393 1_655 S
C484 H473 0.950 . S
C484 C482 1.391 . S
C484 C485 1.400 . S
C485 C479 1.491 . S
C485 C484 1.400 . S
C485 C486 1.398 1_655 S
C486 H474 0.950 . S
C486 C485 1.398 1_455 S
C486 C487 1.391 . S
C487 H475 0.950 . S
C487 C483 1.393 1_455 S
C487 C486 1.391 . S
H488 C496 0.950 . S
H489 C501 0.950 . S
H490 C498 0.950 . S
H491 C500 0.950 . S
H492 C502 0.950 . S
H493 C504 0.950 . S
H494 C506 0.950 . S
H495 C507 0.950 . S
C496 H488 0.950 . S
C496 C497 1.386 . S
C496 C498 1.391 . S
C497 C496 1.386 . S
C497 C501 1.393 . S
C498 H490 0.950 . S
C498 C496 1.391 . S
C498 C499 1.400 . S
C499 C498 1.400 . S
C499 C500 1.398 . S
C499 C505 1.491 1_655 S
C500 H491 0.950 . S
C500 C499 1.398 . S
C500 C501 1.391 . S
C501 H489 0.950 . S
C501 C497 1.393 . S
C501 C500 1.391 . S
C502 H492 0.950 . S
C502 C503 1.386 . S
C502 C504 1.391 . S
C503 C502 1.386 . S
C503 C507 1.393 . S
C504 H493 0.950 . S
C504 C502 1.391 . S
C504 C505 1.400 . S
C505 C499 1.491 1_455 S
C505 C504 1.400 . S
C505 C506 1.398 . S
C506 H494 0.950 . S
C506 C505 1.398 . S
C506 C507 1.391 . S
C507 H495 0.950 . S
C507 C503 1.393 . S
C507 C506 1.391 . S
H508 C516 0.951 . S
H509 C521 0.950 . S
H510 C518 0.950 . S
H511 C520 0.950 . S
H512 C522 0.950 . S
H513 C524 0.950 . S
H514 C526 0.950 . S
H515 C527 0.950 . S
C516 H508 0.951 . S
C516 C517 1.384 1_556 S
C516 C518 1.392 . S
C517 C516 1.384 1_554 S
C517 C521 1.393 . S
C518 H510 0.950 . S
C518 C516 1.392 . S
C518 C519 1.400 1_556 S
C519 C518 1.400 1_554 S
C519 C520 1.398 . S
C519 C525 1.491 . S
C520 H511 0.950 . S
C520 C519 1.398 . S
C520 C521 1.391 . S
C521 H509 0.950 . S
C521 C517 1.393 . S
C521 C520 1.391 . S
C522 H512 0.950 . S
C522 C523 1.386 . S
C522 C524 1.391 . S
C523 C522 1.386 . S
C523 C527 1.393 1_554 S
C524 H513 0.950 . S
C524 C522 1.391 . S
C524 C525 1.400 . S
C525 C519 1.491 . S
C525 C524 1.400 . S
C525 C526 1.398 1_554 S
C526 H514 0.950 . S
C526 C525 1.398 1_556 S
C526 C527 1.391 . S
C527 H515 0.950 . S
C527 C523 1.393 1_556 S
C527 C526 1.391 . S
H528 C536 0.950 . S
H529 C541 0.950 . S
H530 C538 0.950 . S
H531 C540 0.950 . S
H532 C542 0.950 . S
H533 C544 0.950 . S
H534 C546 0.950 . S
H535 C547 0.950 . S
C536 H528 0.950 . S
C536 C537 1.386 . S
C536 C538 1.391 . S
C537 C536 1.386 . S
C537 C541 1.393 . S
C538 H530 0.950 . S
C538 C536 1.391 . S
C538 C539 1.400 . S
C539 C538 1.400 . S
C539 C540 1.398 . S
C539 C545 1.491 . S
C540 H531 0.950 . S
C540 C539 1.398 . S
C540 C541 1.391 . S
C541 H529 0.950 . S
C541 C537 1.393 . S
C541 C540 1.391 . S
C542 H532 0.950 . S
C542 C543 1.386 . S
C542 C544 1.391 . S
C543 C542 1.386 . S
C543 C547 1.393 . S
C544 H533 0.950 . S
C544 C542 1.391 . S
C544 C545 1.400 . S
C545 C539 1.491 . S
C545 C544 1.400 . S
C545 C546 1.398 . S
C546 H534 0.950 . S
C546 C545 1.398 . S
C546 C547 1.391 . S
C547 H535 0.950 . S
C547 C543 1.393 . S
C547 C546 1.391 . S
H548 C556 0.950 . S
H549 C561 0.950 . S
H550 C558 0.950 . S
H551 C560 0.950 . S
H552 C562 0.950 . S
H553 C564 0.950 . S
H554 C566 0.950 . S
H555 C567 0.950 . S
C556 H548 0.950 . S
C556 C557 1.386 . S
C556 C558 1.391 . S
C557 C556 1.386 . S
C557 C561 1.393 . S
C558 H550 0.950 . S
C558 C556 1.391 . S
C558 C559 1.400 . S
C559 C558 1.400 . S
C559 C560 1.398 . S
C559 C565 1.491 . S
C560 H551 0.950 . S
C560 C559 1.398 . S
C560 C561 1.391 . S
C561 H549 0.950 . S
C561 C557 1.393 . S
C561 C560 1.391 . S
C562 H552 0.950 . S
C562 C563 1.386 . S
C562 C564 1.391 . S
C563 C562 1.386 . S
C563 C567 1.393 . S
C564 H553 0.950 . S
C564 C562 1.391 . S
C564 C565 1.400 . S
C565 C559 1.491 . S
C565 C564 1.400 . S
C565 C566 1.398 . S
C566 H554 0.950 . S
C566 C565 1.398 . S
C566 C567 1.391 . S
C567 H555 0.950 . S
C567 C563 1.393 . S
C567 C566 1.391 . S
H568 C576 0.950 . S
H569 C581 0.950 . S
H570 C578 0.950 . S
H571 C580 0.950 . S
H572 C582 0.950 . S
H573 C584 0.950 . S
H574 C586 0.950 . S
H575 C587 0.950 . S
C576 H568 0.950 . S
C576 C577 1.386 . S
C576 C578 1.391 . S
C577 C576 1.386 . S
C577 C581 1.393 . S
C578 H570 0.950 . S
C578 C576 1.391 . S
C578 C579 1.400 . S
C579 C578 1.400 . S
C579 C580 1.398 . S
C579 C585 1.491 1_455 S
C580 H571 0.950 . S
C580 C579 1.398 . S
C580 C581 1.391 . S
C581 H569 0.950 . S
C581 C577 1.393 . S
C581 C580 1.391 . S
C582 H572 0.950 . S
C582 C583 1.386 . S
C582 C584 1.391 . S
C583 C582 1.386 . S
C583 C587 1.393 . S
C584 H573 0.950 . S
C584 C582 1.391 . S
C584 C585 1.400 . S
C585 C579 1.491 1_655 S
C585 C584 1.400 . S
C585 C586 1.398 . S
C586 H574 0.950 . S
C586 C585 1.398 . S
C586 C587 1.391 . S
C587 H575 0.950 . S
C587 C583 1.393 . S
C587 C586 1.391 . S
H588 C596 0.950 . S
H589 C601 0.950 . S
H590 C598 0.950 . S
H591 C600 0.950 . S
H592 C602 0.950 . S
H593 C604 0.950 . S
H594 C606 0.950 . S
H595 C607 0.950 . S
C596 H588 0.950 . S
C596 C597 1.386 1_655 S
C596 C598 1.391 . S
C597 C596 1.386 1_455 S
C597 C601 1.393 . S
C598 H590 0.950 . S
C598 C596 1.391 . S
C598 C599 1.400 1_655 S
C599 C598 1.400 1_455 S
C599 C600 1.398 . S
C599 C605 1.491 1_455 S
C600 H591 0.950 . S
C600 C599 1.398 . S
C600 C601 1.391 . S
C601 H589 0.950 . S
C601 C597 1.393 . S
C601 C600 1.391 . S
C602 H592 0.950 . S
C602 C603 1.386 1_455 S
C602 C604 1.391 . S
C603 C602 1.386 1_655 S
C603 C607 1.393 . S
C604 H593 0.950 . S
C604 C602 1.391 . S
C604 C605 1.400 1_455 S
C605 C599 1.491 1_655 S
C605 C604 1.400 1_655 S
C605 C606 1.398 . S
C606 H594 0.950 . S
C606 C605 1.398 . S
C606 C607 1.391 . S
C607 H595 0.950 . S
C607 C603 1.393 . S
C607 C606 1.391 . S
H608 C616 0.950 . S
H609 C621 0.950 . S
H610 C618 0.950 . S
H611 C620 0.950 . S
H612 C622 0.950 . S
H613 C624 0.950 . S
H614 C626 0.950 . S
H615 C627 0.950 . S
C616 H608 0.950 . S
C616 C617 1.386 . S
C616 C618 1.391 . S
C617 C616 1.386 . S
C617 C621 1.393 . S
C618 H610 0.950 . S
C618 C616 1.391 . S
C618 C619 1.400 . S
C619 C618 1.400 . S
C619 C620 1.398 . S
C619 C625 1.491 . S
C620 H611 0.950 . S
C620 C619 1.398 . S
C620 C621 1.391 . S
C621 H609 0.950 . S
C621 C617 1.393 . S
C621 C620 1.391 . S
C622 H612 0.950 . S
C622 C623 1.386 . S
C622 C624 1.391 . S
C623 C622 1.386 . S
C623 C627 1.393 . S
C624 H613 0.950 . S
C624 C622 1.391 . S
C624 C625 1.400 . S
C625 C619 1.491 . S
C625 C624 1.400 . S
C625 C626 1.398 . S
C626 H614 0.950 . S
C626 C625 1.398 . S
C626 C627 1.391 . S
C627 H615 0.950 . S
C627 C623 1.393 . S
C627 C626 1.391 . S
H628 C636 0.950 . S
H629 C641 0.950 . S
H630 C638 0.950 . S
H631 C640 0.950 . S
H632 C642 0.950 . S
H633 C644 0.950 . S
H634 C646 0.950 . S
H635 C647 0.950 . S
C636 H628 0.950 . S
C636 C637 1.386 . S
C636 C638 1.391 . S
C637 C636 1.386 . S
C637 C641 1.393 . S
C638 H630 0.950 . S
C638 C636 1.391 . S
C638 C639 1.400 . S
C639 C638 1.400 . S
C639 C640 1.398 . S
C639 C645 1.491 1_545 S
C640 H631 0.950 . S
C640 C639 1.398 . S
C640 C641 1.391 . S
C641 H629 0.950 . S
C641 C637 1.393 . S
C641 C640 1.391 . S
C642 H632 0.950 . S
C642 C643 1.386 . S
C642 C644 1.391 . S
C643 C642 1.386 . S
C643 C647 1.393 . S
C644 H633 0.950 . S
C644 C642 1.391 . S
C644 C645 1.400 . S
C645 C639 1.491 1_565 S
C645 C644 1.400 . S
C645 C646 1.398 . S
C646 H634 0.950 . S
C646 C645 1.398 . S
C646 C647 1.391 . S
C647 H635 0.950 . S
C647 C643 1.393 . S
C647 C646 1.391 . S
H648 C656 0.950 . S
H649 C661 0.950 . S
H650 C658 0.950 . S
H651 C660 0.950 . S
H652 C662 0.950 . S
H653 C664 0.950 . S
H654 C666 0.950 . S
H655 C667 0.950 . S
C656 H648 0.950 . S
C656 C657 1.386 1_554 S
C656 C658 1.391 . S
C657 C656 1.386 1_556 S
C657 C661 1.393 . S
C658 H650 0.950 . S
C658 C656 1.391 . S
C658 C659 1.400 1_554 S
C659 C658 1.400 1_556 S
C659 C660 1.398 . S
C659 C665 1.491 . S
C660 H651 0.950 . S
C660 C659 1.398 . S
C660 C661 1.391 . S
C661 H649 0.950 . S
C661 C657 1.393 . S
C661 C660 1.391 . S
C662 H652 0.950 . S
C662 C663 1.386 . S
C662 C664 1.391 . S
C663 C662 1.386 . S
C663 C667 1.393 1_556 S
C664 H653 0.950 . S
C664 C662 1.391 . S
C664 C665 1.400 . S
C665 C659 1.491 . S
C665 C664 1.400 . S
C665 C666 1.398 1_556 S
C666 H654 0.950 . S
C666 C665 1.398 1_554 S
C666 C667 1.391 . S
C667 H655 0.950 . S
C667 C663 1.393 1_554 S
C667 C666 1.391 . S
H668 C676 0.950 . S
H669 C681 0.950 . S
H670 C678 0.950 . S
H671 C680 0.950 . S
H672 C682 0.950 . S
H673 C684 0.950 . S
H674 C686 0.950 . S
H675 C687 0.950 . S
C676 H668 0.950 . S
C676 C677 1.386 . S
C676 C678 1.391 . S
C677 C676 1.386 . S
C677 C681 1.393 . S
C678 H670 0.950 . S
C678 C676 1.391 . S
C678 C679 1.400 . S
C679 C678 1.400 . S
C679 C680 1.398 . S
C679 C685 1.491 1_545 S
C680 H671 0.950 . S
C680 C679 1.398 . S
C680 C681 1.391 . S
C681 H669 0.950 . S
C681 C677 1.393 . S
C681 C680 1.391 . S
C682 H672 0.950 . S
C682 C683 1.386 . S
C682 C684 1.391 . S
C683 C682 1.386 . S
C683 C687 1.393 . S
C684 H673 0.950 . S
C684 C682 1.391 . S
C684 C685 1.400 . S
C685 C679 1.491 1_565 S
C685 C684 1.400 . S
C685 C686 1.398 . S
C686 H674 0.950 . S
C686 C685 1.398 . S
C686 C687 1.391 . S
C687 H675 0.950 . S
C687 C683 1.393 . S
C687 C686 1.391 . S
H688 C696 0.950 . S
H689 C701 0.950 . S
H690 C698 0.950 . S
H691 C700 0.950 . S
H692 C702 0.950 . S
H693 C704 0.950 . S
H694 C706 0.950 . S
H695 C707 0.950 . S
C696 H688 0.950 . S
C696 C697 1.386 1_545 S
C696 C698 1.391 . S
C697 C696 1.386 1_565 S
C697 C701 1.393 . S
C698 H690 0.950 . S
C698 C696 1.391 . S
C698 C699 1.400 1_545 S
C699 C698 1.400 1_565 S
C699 C700 1.398 . S
C699 C705 1.491 . S
C700 H691 0.950 . S
C700 C699 1.398 . S
C700 C701 1.391 . S
C701 H689 0.950 . S
C701 C697 1.393 . S
C701 C700 1.391 . S
C702 H692 0.950 . S
C702 C703 1.386 . S
C702 C704 1.391 . S
C703 C702 1.386 . S
C703 C707 1.393 1_565 S
C704 H693 0.950 . S
C704 C702 1.391 . S
C704 C705 1.400 . S
C705 C699 1.491 . S
C705 C704 1.400 . S
C705 C706 1.398 1_565 S
C706 H694 0.950 . S
C706 C705 1.398 1_545 S
C706 C707 1.391 . S
C707 H695 0.950 . S
C707 C703 1.393 1_545 S
C707 C706 1.391 . S
H708 C716 0.950 . S
H709 C721 0.950 . S
H710 C718 0.950 . S
H711 C720 0.950 . S
H712 C722 0.950 . S
H713 C724 0.950 . S
H714 C726 0.950 . S
H715 C727 0.950 . S
C716 H708 0.950 . S
C716 C717 1.386 . S
C716 C718 1.391 . S
C717 C716 1.386 . S
C717 C721 1.393 . S
C718 H710 0.950 . S
C718 C716 1.391 . S
C718 C719 1.400 . S
C719 C718 1.400 . S
C719 C720 1.398 . S
C719 C725 1.491 . S
C720 H711 0.950 . S
C720 C719 1.398 . S
C720 C721 1.391 . S
C721 H709 0.950 . S
C721 C717 1.393 . S
C721 C720 1.391 . S
C722 H712 0.950 . S
C722 C723 1.386 . S
C722 C724 1.391 . S
C723 C722 1.386 . S
C723 C727 1.393 . S
C724 H713 0.950 . S
C724 C722 1.391 . S
C724 C725 1.400 . S
C725 C719 1.491 . S
C725 C724 1.400 . S
C725 C726 1.398 . S
C726 H714 0.950 . S
C726 C725 1.398 . S
C726 C727 1.391 . S
C727 H715 0.950 . S
C727 C723 1.393 . S
C727 C726 1.391 . S
H728 C736 0.950 . S
H729 C741 0.950 . S
H730 C738 0.950 . S
H731 C740 0.950 . S
H732 C742 0.950 . S
H733 C744 0.950 . S
H734 C746 0.950 . S
H735 C747 0.950 . S
C736 H728 0.950 . S
C736 C737 1.386 . S
C736 C738 1.391 . S
C737 C736 1.386 . S
C737 C741 1.393 . S
C738 H730 0.950 . S
C738 C736 1.391 . S
C738 C739 1.400 . S
C739 C738 1.400 . S
C739 C740 1.398 . S
C739 C745 1.491 . S
C740 H731 0.950 . S
C740 C739 1.398 . S
C740 C741 1.391 . S
C741 H729 0.950 . S
C741 C737 1.393 . S
C741 C740 1.391 . S
C742 H732 0.950 . S
C742 C743 1.386 . S
C742 C744 1.391 . S
C743 C742 1.386 . S
C743 C747 1.393 . S
C744 H733 0.950 . S
C744 C742 1.391 . S
C744 C745 1.400 . S
C745 C739 1.491 . S
C745 C744 1.400 . S
C745 C746 1.398 . S
C746 H734 0.950 . S
C746 C745 1.398 . S
C746 C747 1.391 . S
C747 H735 0.950 . S
C747 C743 1.393 . S
C747 C746 1.391 . S
H748 C756 0.950 . S
H749 C761 0.950 . S
H750 C758 0.950 . S
H751 C760 0.950 . S
H752 C762 0.950 . S
H753 C764 0.950 . S
H754 C766 0.950 . S
H755 C767 0.950 . S
C756 H748 0.950 . S
C756 C757 1.386 . S
C756 C758 1.391 . S
C757 C756 1.386 . S
C757 C761 1.393 . S
C758 H750 0.950 . S
C758 C756 1.391 . S
C758 C759 1.400 . S
C759 C758 1.400 . S
C759 C760 1.398 . S
C759 C765 1.491 1_556 S
C760 H751 0.950 . S
C760 C759 1.398 . S
C760 C761 1.391 . S
C761 H749 0.950 . S
C761 C757 1.393 . S
C761 C760 1.391 . S
C762 H752 0.950 . S
C762 C763 1.386 . S
C762 C764 1.391 . S
C763 C762 1.386 . S
C763 C767 1.393 . S
C764 H753 0.950 . S
C764 C762 1.391 . S
C764 C765 1.400 . S
C765 C759 1.491 1_554 S
C765 C764 1.400 . S
C765 C766 1.398 . S
C766 H754 0.950 . S
C766 C765 1.398 . S
C766 C767 1.391 . S
C767 H755 0.950 . S
C767 C763 1.393 . S
C767 C766 1.391 . S
H768 C776 0.950 . S
H769 C781 0.950 . S
H770 C778 0.950 . S
H771 C780 0.950 . S
H772 C782 0.950 . S
H773 C784 0.950 . S
H774 C786 0.950 . S
H775 C787 0.950 . S
C776 H768 0.950 . S
C776 C777 1.386 . S
C776 C778 1.391 . S
C777 C776 1.386 . S
C777 C781 1.393 . S
C778 H770 0.950 . S
C778 C776 1.391 . S
C778 C779 1.400 . S
C779 C778 1.400 . S
C779 C780 1.398 . S
C779 C785 1.491 . S
C780 H771 0.950 . S
C780 C779 1.398 . S
C780 C781 1.391 . S
C781 H769 0.950 . S
C781 C777 1.393 . S
C781 C780 1.391 . S
C782 H772 0.950 . S
C782 C783 1.386 . S
C782 C784 1.391 . S
C783 C782 1.386 . S
C783 C787 1.393 . S
C784 H773 0.950 . S
C784 C782 1.391 . S
C784 C785 1.400 . S
C785 C779 1.491 . S
C785 C784 1.400 . S
C785 C786 1.398 . S
C786 H774 0.950 . S
C786 C785 1.398 . S
C786 C787 1.391 . S
C787 H775 0.950 . S
C787 C783 1.393 . S
C787 C786 1.391 . S
H788 C796 0.950 . S
H789 C801 0.950 . S
H790 C798 0.950 . S
H791 C800 0.950 . S
H792 C802 0.950 . S
H793 C804 0.950 . S
H794 C806 0.950 . S
H795 C807 0.950 . S
C796 H788 0.950 . S
C796 C797 1.386 . S
C796 C798 1.391 . S
C797 C796 1.386 . S
C797 C801 1.393 . S
C798 H790 0.950 . S
C798 C796 1.391 . S
C798 C799 1.400 . S
C799 C798 1.400 . S
C799 C800 1.398 . S
C799 C805 1.491 . S
C800 H791 0.950 . S
C800 C799 1.398 . S
C800 C801 1.391 . S
C801 H789 0.950 . S
C801 C797 1.393 . S
C801 C800 1.391 . S
C802 H792 0.950 . S
C802 C803 1.386 . S
C802 C804 1.391 . S
C803 C802 1.386 . S
C803 C807 1.393 . S
C804 H793 0.950 . S
C804 C802 1.391 . S
C804 C805 1.400 . S
C805 C799 1.491 . S
C805 C804 1.400 . S
C805 C806 1.398 . S
C806 H794 0.950 . S
C806 C805 1.398 . S
C806 C807 1.391 . S
C807 H795 0.950 . S
C807 C803 1.393 . S
C807 C806 1.391 . S
H808 C816 0.950 . S
H809 C821 0.950 . S
H810 C818 0.950 . S
H811 C820 0.950 . S
H812 C822 0.950 . S
H813 C824 0.950 . S
H814 C826 0.950 . S
H815 C827 0.950 . S
C816 H808 0.950 . S
C816 C817 1.386 . S
C816 C818 1.391 . S
C817 C816 1.386 . S
C817 C821 1.393 1_455 S
C818 H810 0.950 . S
C818 C816 1.391 . S
C818 C819 1.400 . S
C819 C818 1.400 . S
C819 C820 1.398 1_455 S
C819 C825 1.491 . S
C820 H811 0.950 . S
C820 C819 1.398 1_655 S
C820 C821 1.391 . S
C821 H809 0.950 . S
C821 C817 1.393 1_655 S
C821 C820 1.391 . S
C822 H812 0.950 . S
C822 C823 1.386 1_655 S
C822 C824 1.391 . S
C823 C822 1.386 1_455 S
C823 C827 1.393 . S
C824 H813 0.950 . S
C824 C822 1.391 . S
C824 C825 1.400 1_655 S
C825 C819 1.491 . S
C825 C824 1.400 1_455 S
C825 C826 1.398 . S
C826 H814 0.950 . S
C826 C825 1.398 . S
C826 C827 1.391 . S
C827 H815 0.950 . S
C827 C823 1.393 . S
C827 C826 1.391 . S
H828 C836 0.950 . S
H829 C841 0.950 . S
H830 C838 0.950 . S
H831 C840 0.950 . S
H832 C842 0.950 . S
H833 C844 0.950 . S
H834 C846 0.950 . S
H835 C847 0.950 . S
C836 H828 0.950 . S
C836 C837 1.376 1_545 S
C836 C838 1.391 . S
C837 C836 1.376 1_565 S
C837 C841 1.401 . S
C838 H830 0.950 . S
C838 C836 1.391 . S
C838 C839 1.400 . S
C839 C838 1.400 . S
C839 C840 1.398 1_545 S
C839 C845 1.491 . S
C840 H831 0.950 . S
C840 C839 1.398 1_565 S
C840 C841 1.391 . S
C841 H829 0.950 . S
C841 C837 1.401 . S
C841 C840 1.391 . S
C842 H832 0.950 . S
C842 C843 1.386 1_565 S
C842 C844 1.391 . S
C843 C842 1.386 1_545 S
C843 C847 1.393 . S
C844 H833 0.950 . S
C844 C842 1.391 . S
C844 C845 1.400 1_565 S
C845 C839 1.491 . S
C845 C844 1.400 1_545 S
C845 C846 1.398 . S
C846 H834 0.950 . S
C846 C845 1.398 . S
C846 C847 1.391 . S
C847 H835 0.950 . S
C847 C843 1.393 . S
C847 C846 1.391 . S
C217 C0 1.706 . S
C223 C91 1.742 . S
C237 C13 1.693 . S
C243 C52 1.695 . S
C257 C65 1.708 . S
C263 C26 1.687 . S
C277 C39 1.675 . S
C283 C78 1.691 . S
C297 C104 1.685 . S
C303 C156 1.691 . S
C317 C117 1.700 . S
C323 C182 1.702 . S
C337 C143 1.688 . S
C343 C130 1.687 . S
C357 C195 1.745 . S
C363 C169 1.714 . S
C377 C5 1.170 . S
C383 C88 1.179 . S
C397 C96 1.121 . S
C403 C21 1.119 1_565 S
C417 C31 1.159 . S
C423 C57 1.181 . S
C437 C70 1.180 . S
C443 C47 1.177 1_545 S
C457 C10 1.245 . S
C463 C192 1.245 . S
C477 C148 1.145 1_655 S
C483 C18 1.156 . S
C497 C179 1.251 . S
C503 C36 1.250 . S
C517 C161 1.160 . S
C523 C44 1.165 . S
C537 C138 1.217 . S
C543 C62 1.235 . S
C557 C75 1.223 . S
C563 C205 1.222 . S
C577 C86 1.205 . S
C583 C114 1.231 . S
C597 C101 1.228 1_455 S
C603 C127 1.232 1_655 S
C617 C8 1.153 . S
C623 C60 1.144 . S
C637 C112 1.169 . S
C643 C177 1.168 . S
C657 C166 1.160 1_556 S
C663 C125 1.149 . S
C677 C190 1.065 . S
C683 C135 1.072 . S
C697 C99 1.188 . S
C703 C49 1.211 1_556 S
C717 C34 1.101 . S
C723 C83 1.104 . S
C737 C153 1.217 . S
C743 C203 1.192 . S
C757 C174 1.161 . S
C763 C140 1.180 . S
C777 C200 1.133 . S
C783 C164 1.127 . S
C797 C187 1.170 . S
C803 C109 1.176 . S
C817 C151 1.176 . S
C823 C122 1.179 . S
C837 C23 1.169 1_565 S
C843 C73 1.152 . S
