# Generated by pormake.
# Topology wgt, (5)-cn, num edge types: 1
# Building blocks:
#     Node 0, Type 0, BuildingBlock: BEQFEK_clean_sbu_0, # of connection points: 5
#     Node 1, Type 0, BuildingBlock: BEQFEK_clean_sbu_0, # of connection points: 5
#     Node 2, Type 0, BuildingBlock: BEQFEK_clean_sbu_0, # of connection points: 5
#     Node 3, Type 0, BuildingBlock: BEQFEK_clean_sbu_0, # of connection points: 5
#     Node 4, Type 0, BuildingBlock: BEQFEK_clean_sbu_0, # of connection points: 5
#     Node 5, Type 0, BuildingBlock: BEQFEK_clean_sbu_0, # of connection points: 5
#     Node 6, Type 0, BuildingBlock: BEQFEK_clean_sbu_0, # of connection points: 5
#     Node 7, Type 0, BuildingBlock: BEQFEK_clean_sbu_0, # of connection points: 5
#     Node 8, Type 0, BuildingBlock: BEQFEK_clean_sbu_0, # of connection points: 5
#     Node 9, Type 0, BuildingBlock: BEQFEK_clean_sbu_0, # of connection points: 5
#     Node 10, Type 0, BuildingBlock: BEQFEK_clean_sbu_0, # of connection points: 5
#     Node 11, Type 0, BuildingBlock: BEQFEK_clean_sbu_0, # of connection points: 5
#     Node 12, Type 0, BuildingBlock: BEQFEK_clean_sbu_0, # of connection points: 5
#     Node 13, Type 0, BuildingBlock: BEQFEK_clean_sbu_0, # of connection points: 5
#     Node 14, Type 0, BuildingBlock: BEQFEK_clean_sbu_0, # of connection points: 5
#     Node 15, Type 0, BuildingBlock: BEQFEK_clean_sbu_0, # of connection points: 5
#     Edge 16, Type (0, 0), BuildingBlock: OJICUG_clean_linker_0, # of connection points: 2
#     Edge 17, Type (0, 0), BuildingBlock: OJICUG_clean_linker_0, # of connection points: 2
#     Edge 18, Type (0, 0), BuildingBlock: OJICUG_clean_linker_0, # of connection points: 2
#     Edge 19, Type (0, 0), BuildingBlock: OJICUG_clean_linker_0, # of connection points: 2
#     Edge 20, Type (0, 0), BuildingBlock: OJICUG_clean_linker_0, # of connection points: 2
#     Edge 21, Type (0, 0), BuildingBlock: OJICUG_clean_linker_0, # of connection points: 2
#     Edge 22, Type (0, 0), BuildingBlock: OJICUG_clean_linker_0, # of connection points: 2
#     Edge 23, Type (0, 0), BuildingBlock: OJICUG_clean_linker_0, # of connection points: 2
#     Edge 24, Type (0, 0), BuildingBlock: OJICUG_clean_linker_0, # of connection points: 2
#     Edge 25, Type (0, 0), BuildingBlock: OJICUG_clean_linker_0, # of connection points: 2
#     Edge 26, Type (0, 0), BuildingBlock: OJICUG_clean_linker_0, # of connection points: 2
#     Edge 27, Type (0, 0), BuildingBlock: OJICUG_clean_linker_0, # of connection points: 2
#     Edge 28, Type (0, 0), BuildingBlock: OJICUG_clean_linker_0, # of connection points: 2
#     Edge 29, Type (0, 0), BuildingBlock: OJICUG_clean_linker_0, # of connection points: 2
#     Edge 30, Type (0, 0), BuildingBlock: OJICUG_clean_linker_0, # of connection points: 2
#     Edge 31, Type (0, 0), BuildingBlock: OJICUG_clean_linker_0, # of connection points: 2
#     Edge 32, Type (0, 0), BuildingBlock: OJICUG_clean_linker_0, # of connection points: 2
#     Edge 33, Type (0, 0), BuildingBlock: OJICUG_clean_linker_0, # of connection points: 2
#     Edge 34, Type (0, 0), BuildingBlock: OJICUG_clean_linker_0, # of connection points: 2
#     Edge 35, Type (0, 0), BuildingBlock: OJICUG_clean_linker_0, # of connection points: 2
#     Edge 36, Type (0, 0), BuildingBlock: OJICUG_clean_linker_0, # of connection points: 2
#     Edge 37, Type (0, 0), BuildingBlock: OJICUG_clean_linker_0, # of connection points: 2
#     Edge 38, Type (0, 0), BuildingBlock: OJICUG_clean_linker_0, # of connection points: 2
#     Edge 39, Type (0, 0), BuildingBlock: OJICUG_clean_linker_0, # of connection points: 2
#     Edge 40, Type (0, 0), BuildingBlock: OJICUG_clean_linker_0, # of connection points: 2
#     Edge 41, Type (0, 0), BuildingBlock: OJICUG_clean_linker_0, # of connection points: 2
#     Edge 42, Type (0, 0), BuildingBlock: OJICUG_clean_linker_0, # of connection points: 2
#     Edge 43, Type (0, 0), BuildingBlock: OJICUG_clean_linker_0, # of connection points: 2
#     Edge 44, Type (0, 0), BuildingBlock: OJICUG_clean_linker_0, # of connection points: 2
#     Edge 45, Type (0, 0), BuildingBlock: OJICUG_clean_linker_0, # of connection points: 2
#     Edge 46, Type (0, 0), BuildingBlock: OJICUG_clean_linker_0, # of connection points: 2
#     Edge 47, Type (0, 0), BuildingBlock: OJICUG_clean_linker_0, # of connection points: 2
#     Edge 48, Type (0, 0), BuildingBlock: OJICUG_clean_linker_0, # of connection points: 2
#     Edge 49, Type (0, 0), BuildingBlock: OJICUG_clean_linker_0, # of connection points: 2
#     Edge 50, Type (0, 0), BuildingBlock: OJICUG_clean_linker_0, # of connection points: 2
#     Edge 51, Type (0, 0), BuildingBlock: OJICUG_clean_linker_0, # of connection points: 2
#     Edge 52, Type (0, 0), BuildingBlock: OJICUG_clean_linker_0, # of connection points: 2
#     Edge 53, Type (0, 0), BuildingBlock: OJICUG_clean_linker_0, # of connection points: 2
#     Edge 54, Type (0, 0), BuildingBlock: OJICUG_clean_linker_0, # of connection points: 2
#     Edge 55, Type (0, 0), BuildingBlock: OJICUG_clean_linker_0, # of connection points: 2
# Relax obj value: 0.115
# Max RMSD: 0.178
# Mean RMSD: 0.178
data_MOF--net-wgt--node1-BEQFEK_clean_sbu_0--edge1-OJICUG_clean_linker_0
_symmetry_space_group_name_H-M    P1
_symmetry_Int_Tables_number       1
_symmetry_cell_setting            triclinic
loop_
_symmetry_equiv_pos_as_xyz
'x, y, z'
_cell_length_a     21.702607
_cell_length_b     21.67545
_cell_length_c     60.63463
_cell_angle_alpha  90.003432
_cell_angle_beta   90.074134
_cell_angle_gamma 90.027913
loop_
_atom_site_label
_atom_site_type_symbol
_atom_site_fract_x
_atom_site_fract_y
_atom_site_fract_z
_atom_type_partial_charge
Co0 Co 0.18204 0.33319 0.04073 0.0
Co1 Co 0.18123 0.31722 0.98931 0.0
C2 C 0.10913 0.23311 0.01668 0.0
O3 O 0.12729 0.26286 0.03361 0.0
O4 O 0.13076 0.24494 0.99765 0.0
C5 C 0.22119 0.2817 0.08052 0.0
O6 O 0.23073 0.23493 0.06717 0.0
C7 C 0.18398 0.27429 0.94307 0.0
C8 C 0.22016 0.35683 0.92603 0.0
C9 C 0.2 0.29702 0.92244 0.0
N10 N 0.19476 0.31858 0.95815 0.0
N11 N 0.21649 0.36769 0.94784 0.0
C12 C 0.15395 0.21389 0.94833 0.0
H13 H 0.10883 0.22277 0.95628 0.0
H14 H 0.18303 0.18816 0.96026 0.0
H15 H 0.14595 0.1854 0.93343 0.0
C16 C 0.31518 0.34186 0.03302 0.0
N17 N 0.25735 0.33365 0.0256 0.0
N18 N 0.25854 0.32075 0.00447 0.0
C19 C 0.31796 0.31641 0.998 0.0
C20 C 0.35619 0.32991 0.01596 0.0
C21 C 0.33039 0.36626 0.0555 0.0
H22 H 0.29304 0.397 0.0614 0.0
H23 H 0.33512 0.32736 0.06724 0.0
H24 H 0.37446 0.39228 0.05525 0.0
O25 O 0.13339 0.40453 0.03283 0.0
O26 O 0.12622 0.38935 0.9966 0.0
H27 H 0.34379 0.33518 0.9647 0.0
H28 H 0.38119 0.26862 0.97649 0.0
C29 C 0.33725 0.29465 0.97563 0.0
H30 H 0.30127 0.26451 0.96838 0.0
H31 H 0.22839 0.40883 0.95571 0.0
O32 O 0.19802 0.33097 0.07277 0.0
C33 C 0.11078 0.41838 0.0141 0.0
Co34 Co 0.65941 0.67032 0.29289 0.0
Co35 Co 0.67816 0.66946 0.24131 0.0
C36 C 0.76126 0.59821 0.26994 0.0
O37 O 0.73157 0.61666 0.28684 0.0
O38 O 0.74912 0.619 0.25079 0.0
C39 C 0.69317 0.67257 0.33955 0.0
O40 O 0.73889 0.63585 0.33418 0.0
C41 C 0.72607 0.68481 0.19563 0.0
C42 C 0.63929 0.67941 0.17665 0.0
C43 C 0.70253 0.68464 0.17431 0.0
N44 N 0.67871 0.67996 0.2099 0.0
N45 N 0.62704 0.67736 0.19838 0.0
C46 C 0.79259 0.68539 0.20217 0.0
H47 H 0.79824 0.67609 0.21999 0.0
H48 H 0.81251 0.73145 0.19864 0.0
H49 H 0.8185 0.65082 0.19236 0.0
C50 C 0.65094 0.80314 0.28482 0.0
N51 N 0.65934 0.7454 0.27734 0.0
N52 N 0.67224 0.74694 0.25621 0.0
C53 C 0.67563 0.80658 0.24977 0.0
C54 C 0.66212 0.84453 0.26779 0.0
C55 C 0.6286 0.81776 0.30758 0.0
H56 H 0.59304 0.78374 0.31256 0.0
H57 H 0.66772 0.81459 0.31933 0.0
H58 H 0.6083 0.86467 0.30845 0.0
O59 O 0.58974 0.61953 0.28432 0.0
O60 O 0.60654 0.61395 0.24819 0.0
H61 H 0.65603 0.82715 0.21605 0.0
H62 H 0.71771 0.87278 0.22771 0.0
C63 C 0.69633 0.82634 0.22733 0.0
H64 H 0.73034 0.79305 0.22081 0.0
H65 H 0.58339 0.67239 0.20536 0.0
O66 O 0.65486 0.68921 0.32484 0.0
C67 C 0.57711 0.59731 0.26543 0.0
Co68 Co 0.32263 0.17295 0.54056 0.0
Co69 Co 0.323 0.19351 0.48917 0.0
C70 C 0.3929 0.27693 0.51816 0.0
O71 O 0.37491 0.24595 0.53482 0.0
O72 O 0.37239 0.26543 0.4989 0.0
C73 C 0.31067 0.21034 0.5862 0.0
O74 O 0.33226 0.26378 0.57952 0.0
C75 C 0.32715 0.23701 0.44269 0.0
C76 C 0.26968 0.1662 0.42641 0.0
C77 C 0.30271 0.21975 0.42236 0.0
N78 N 0.30818 0.19614 0.458 0.0
N79 N 0.2743 0.15376 0.44807 0.0
C80 C 0.37234 0.2876 0.44727 0.0
H81 H 0.408 0.27097 0.45894 0.0
H82 H 0.34792 0.32697 0.45503 0.0
H83 H 0.39548 0.30347 0.432 0.0
C84 C 0.19008 0.16422 0.533 0.0
N85 N 0.24756 0.17295 0.52541 0.0
N86 N 0.24569 0.18745 0.50441 0.0
C87 C 0.18592 0.19235 0.49828 0.0
C88 C 0.14844 0.17716 0.51622 0.0
C89 C 0.17606 0.14019 0.5556 0.0
H90 H 0.21063 0.10488 0.56031 0.0
H91 H 0.17868 0.17863 0.56765 0.0
H92 H 0.12953 0.11906 0.55632 0.0
O93 O 0.37297 0.10439 0.53124 0.0
O94 O 0.37913 0.12089 0.4951 0.0
H95 H 0.15483 0.17922 0.46516 0.0
H96 H 0.12275 0.24582 0.47857 0.0
C97 C 0.16521 0.21788 0.47656 0.0
H98 H 0.20168 0.2472 0.46922 0.0
H99 H 0.25417 0.11631 0.45614 0.0
O100 O 0.30586 0.16617 0.57252 0.0
C101 C 0.39529 0.09141 0.51243 0.0
Co102 Co 0.83549 0.82558 0.7925 0.0
Co103 Co 0.81786 0.82913 0.74099 0.0
C104 C 0.73426 0.89918 0.76936 0.0
O105 O 0.76425 0.88076 0.78624 0.0
O106 O 0.746 0.87828 0.7502 0.0
C107 C 0.80011 0.8209 0.83894 0.0
O108 O 0.75385 0.85698 0.83357 0.0
C109 C 0.77072 0.8235 0.69529 0.0
C110 C 0.85664 0.8086 0.67651 0.0
C111 C 0.79372 0.81678 0.67405 0.0
N112 N 0.81801 0.81921 0.70961 0.0
N113 N 0.86912 0.80995 0.69826 0.0
C114 C 0.70628 0.83931 0.70198 0.0
H115 H 0.692 0.80956 0.71596 0.0
H116 H 0.67318 0.83452 0.68817 0.0
H117 H 0.70529 0.88784 0.70777 0.0
C118 C 0.84218 0.69282 0.78354 0.0
N119 N 0.83509 0.75116 0.77648 0.0
N120 N 0.82225 0.75104 0.75534 0.0
C121 C 0.81729 0.69194 0.74845 0.0
C122 C 0.82997 0.65263 0.76619 0.0
C123 C 0.86417 0.6766 0.80623 0.0
H124 H 0.9 0.70996 0.81156 0.0
H125 H 0.82502 0.67952 0.81794 0.0
H126 H 0.88397 0.62943 0.80676 0.0
O127 O 0.90642 0.87557 0.78483 0.0
O128 O 0.88957 0.88377 0.74876 0.0
H129 H 0.83578 0.66948 0.71482 0.0
H130 H 0.77017 0.62961 0.72628 0.0
C131 C 0.79543 0.67408 0.72592 0.0
H132 H 0.76455 0.71013 0.71919 0.0
H133 H 0.91273 0.80567 0.70536 0.0
O134 O 0.83892 0.80528 0.82431 0.0
C135 C 0.9193 0.89887 0.76616 0.0
Co136 Co 0.8212 0.34411 0.54371 0.0
Co137 Co 0.82102 0.32727 0.49196 0.0
C138 C 0.89348 0.24371 0.51971 0.0
O139 O 0.87566 0.27295 0.53681 0.0
O140 O 0.87139 0.25588 0.50076 0.0
C141 C 0.7837 0.29606 0.58488 0.0
O142 O 0.77401 0.24764 0.5723 0.0
C143 C 0.80909 0.27695 0.44699 0.0
C144 C 0.80048 0.36206 0.42716 0.0
C145 C 0.80365 0.29842 0.42551 0.0
N146 N 0.80888 0.32578 0.4607 0.0
N147 N 0.80327 0.37644 0.44874 0.0
C148 C 0.8201 0.21202 0.45438 0.0
H149 H 0.79504 0.20318 0.47001 0.0
H150 H 0.80589 0.178 0.44172 0.0
H151 H 0.87004 0.20591 0.45764 0.0
C152 C 0.68788 0.35476 0.53555 0.0
N153 N 0.7456 0.3448 0.52833 0.0
N154 N 0.74426 0.33235 0.50714 0.0
C155 C 0.68494 0.33027 0.50043 0.0
C156 C 0.64682 0.34486 0.51825 0.0
C157 C 0.67312 0.37872 0.5581 0.0
H158 H 0.71078 0.40912 0.56404 0.0
H159 H 0.66854 0.33949 0.56972 0.0
H160 H 0.62927 0.40505 0.55801 0.0
O161 O 0.87116 0.41448 0.53501 0.0
O162 O 0.87601 0.39935 0.49872 0.0
H163 H 0.66404 0.35021 0.46674 0.0
H164 H 0.61952 0.28752 0.47821 0.0
C165 C 0.66557 0.30967 0.4779 0.0
H166 H 0.69917 0.2761 0.47127 0.0
H167 H 0.8028 0.42096 0.4553 0.0
O168 O 0.80579 0.34464 0.57616 0.0
C169 C 0.8927 0.4282 0.5161 0.0
Co170 Co 0.65464 0.32668 0.79234 0.0
Co171 Co 0.66965 0.32697 0.74051 0.0
C172 C 0.75459 0.39905 0.76782 0.0
O173 O 0.72573 0.38095 0.78499 0.0
O174 O 0.74179 0.37758 0.74879 0.0
C175 C 0.69153 0.32537 0.83898 0.0
O176 O 0.73649 0.3628 0.83339 0.0
C177 C 0.70997 0.31936 0.69372 0.0
C178 C 0.62566 0.28261 0.67804 0.0
C179 C 0.68558 0.30071 0.67356 0.0
N180 N 0.66623 0.31276 0.7093 0.0
N181 N 0.61595 0.29102 0.69974 0.0
C182 C 0.77495 0.33809 0.69856 0.0
H183 H 0.78935 0.31969 0.71484 0.0
H184 H 0.80698 0.32107 0.68567 0.0
H185 H 0.77759 0.38918 0.69924 0.0
C186 C 0.64777 0.19347 0.78451 0.0
N187 N 0.65425 0.25142 0.77696 0.0
N188 N 0.66628 0.25009 0.75577 0.0
C189 C 0.67118 0.1906 0.74933 0.0
C190 C 0.6593 0.15236 0.76741 0.0
C191 C 0.62734 0.17837 0.80745 0.0
H192 H 0.59169 0.2118 0.8128 0.0
H193 H 0.66726 0.18209 0.81883 0.0
H194 H 0.60785 0.13112 0.80845 0.0
O195 O 0.58361 0.37661 0.78443 0.0
O196 O 0.59859 0.38228 0.74818 0.0
H197 H 0.65199 0.16526 0.71599 0.0
H198 H 0.7183 0.12714 0.72765 0.0
C199 C 0.6926 0.17131 0.72691 0.0
H200 H 0.72294 0.20718 0.71974 0.0
H201 H 0.5752 0.28105 0.70814 0.0
O202 O 0.65294 0.30806 0.82445 0.0
C203 C 0.56994 0.39876 0.76561 0.0
Co204 Co 0.68234 0.15681 0.04174 0.0
Co205 Co 0.67975 0.17305 0.98994 0.0
C206 C 0.60956 0.25771 0.01849 0.0
O207 O 0.62858 0.22929 0.03563 0.0
O208 O 0.62948 0.24397 0.99937 0.0
C209 C 0.67872 0.18469 0.08929 0.0
O210 O 0.63428 0.22371 0.08464 0.0
C211 C 0.68875 0.22416 0.94501 0.0
C212 C 0.69863 0.13936 0.92509 0.0
C213 C 0.69394 0.20292 0.9235 0.0
N214 N 0.69052 0.17526 0.95867 0.0
N215 N 0.69691 0.12481 0.94666 0.0
C216 C 0.67657 0.28878 0.9525 0.0
H217 H 0.62671 0.2936 0.95613 0.0
H218 H 0.70239 0.29824 0.96794 0.0
H219 H 0.6891 0.32314 0.93974 0.0
C220 C 0.81504 0.1491 0.03299 0.0
N221 N 0.75689 0.15665 0.02584 0.0
N222 N 0.7573 0.1686 0.00462 0.0
C223 C 0.81641 0.17253 0.99779 0.0
C224 C 0.85539 0.16 0.01561 0.0
C225 C 0.83093 0.12788 0.0558 0.0
H226 H 0.79748 0.09225 0.0612 0.0
H227 H 0.82791 0.16751 0.06734 0.0
H228 H 0.87798 0.10797 0.05652 0.0
O229 O 0.63119 0.08696 0.03305 0.0
O230 O 0.62578 0.10026 0.99669 0.0
H231 H 0.83616 0.15297 0.96401 0.0
H232 H 0.88041 0.21616 0.9753 0.0
C233 C 0.83463 0.19345 0.97519 0.0
H234 H 0.80028 0.22657 0.96872 0.0
H235 H 0.69866 0.08028 0.95318 0.0
O236 O 0.70219 0.15249 0.0739 0.0
C237 C 0.6095 0.07212 0.01425 0.0
Co238 Co 0.83496 0.17053 0.29437 0.0
Co239 Co 0.81647 0.16891 0.24264 0.0
C240 C 0.73256 0.09887 0.27091 0.0
O241 O 0.76286 0.11657 0.28783 0.0
O242 O 0.74413 0.12041 0.25182 0.0
C243 C 0.79983 0.17502 0.34109 0.0
O244 O 0.7535 0.13897 0.33573 0.0
C245 C 0.76957 0.17586 0.19678 0.0
C246 C 0.85559 0.19276 0.17828 0.0
C247 C 0.79281 0.18391 0.17561 0.0
N248 N 0.81659 0.18005 0.21124 0.0
N249 N 0.86774 0.1905 0.20004 0.0
C250 C 0.70522 0.15897 0.20325 0.0
H251 H 0.6897 0.18938 0.21688 0.0
H252 H 0.67261 0.16199 0.18923 0.0
H253 H 0.70506 0.11089 0.2095 0.0
C254 C 0.84403 0.30334 0.28575 0.0
N255 N 0.83564 0.24531 0.27853 0.0
N256 N 0.82254 0.24622 0.25739 0.0
C257 C 0.81884 0.30555 0.2507 0.0
C258 C 0.8326 0.34415 0.26852 0.0
C259 C 0.86641 0.3187 0.30846 0.0
H260 H 0.9015 0.2845 0.31371 0.0
H261 H 0.82719 0.31646 0.32016 0.0
H262 H 0.88724 0.36543 0.30909 0.0
O263 O 0.90484 0.11918 0.28618 0.0
O264 O 0.88725 0.11298 0.25007 0.0
H265 H 0.83745 0.32825 0.21709 0.0
H266 H 0.77301 0.36945 0.22876 0.0
C267 C 0.79714 0.32439 0.22825 0.0
H268 H 0.76528 0.28921 0.22147 0.0
H269 H 0.91119 0.19503 0.20726 0.0
O270 O 0.83868 0.19047 0.32641 0.0
C271 C 0.91692 0.09649 0.26732 0.0
Co272 Co 0.68092 0.84811 0.5409 0.0
Co273 Co 0.67879 0.83098 0.48928 0.0
C274 C 0.60759 0.74727 0.51786 0.0
O275 O 0.62666 0.77593 0.53494 0.0
O276 O 0.62763 0.76063 0.49873 0.0
C277 C 0.6781 0.81872 0.58813 0.0
O278 O 0.63556 0.77789 0.58315 0.0
C279 C 0.68847 0.77844 0.44476 0.0
C280 C 0.69842 0.86245 0.4244 0.0
C281 C 0.69388 0.79882 0.42318 0.0
N282 N 0.69 0.82789 0.45814 0.0
N283 N 0.69642 0.87789 0.44588 0.0
C284 C 0.67635 0.71408 0.45256 0.0
H285 H 0.62634 0.70899 0.45586 0.0
H286 H 0.70143 0.70553 0.46822 0.0
H287 H 0.68982 0.67924 0.44009 0.0
C288 C 0.81386 0.85417 0.53247 0.0
N289 N 0.75572 0.84718 0.52523 0.0
N290 N 0.75626 0.83489 0.50404 0.0
C291 C 0.8154 0.83021 0.49731 0.0
C292 C 0.85428 0.84259 0.51517 0.0
C293 C 0.82971 0.87551 0.55527 0.0
H294 H 0.79667 0.91161 0.56055 0.0
H295 H 0.82601 0.83606 0.56686 0.0
H296 H 0.87701 0.89484 0.55604 0.0
O297 O 0.63082 0.9183 0.53193 0.0
O298 O 0.62563 0.90453 0.4956 0.0
H299 H 0.8352 0.8489 0.46346 0.0
H300 H 0.8794 0.78598 0.47496 0.0
C301 C 0.83366 0.80872 0.47478 0.0
H302 H 0.7993 0.77542 0.46842 0.0
H303 H 0.69799 0.92268 0.45218 0.0
O304 O 0.70021 0.85281 0.57302 0.0
C305 C 0.60956 0.93315 0.51307 0.0
Co306 Co 0.17013 0.19197 0.78848 0.0
Co307 Co 0.16356 0.18313 0.73688 0.0
C308 C 0.26224 0.11909 0.76424 0.0
O309 O 0.2439 0.14175 0.78247 0.0
O310 O 0.23628 0.13341 0.74607 0.0
C311 C 0.19059 0.18517 0.83598 0.0
O312 O 0.21701 0.13175 0.83209 0.0
C313 C 0.20868 0.20228 0.6918 0.0
C314 C 0.12937 0.16927 0.67217 0.0
C315 C 0.18912 0.19117 0.67037 0.0
N316 N 0.16253 0.18751 0.70559 0.0
N317 N 0.11507 0.16841 0.69374 0.0
C318 C 0.27157 0.22154 0.69922 0.0
H319 H 0.2771 0.21457 0.71723 0.0
H320 H 0.27825 0.27123 0.69558 0.0
H321 H 0.30728 0.19523 0.69011 0.0
C322 C 0.17026 0.32555 0.7773 0.0
N323 N 0.16773 0.26563 0.7714 0.0
N324 N 0.15976 0.26194 0.74999 0.0
C325 C 0.15325 0.31918 0.74166 0.0
C326 C 0.16024 0.36204 0.75867 0.0
C327 C 0.18897 0.34676 0.79985 0.0
H328 H 0.21973 0.3123 0.80767 0.0
H329 H 0.2138 0.39143 0.79917 0.0
H330 H 0.14721 0.35221 0.8102 0.0
O331 O 0.09958 0.13499 0.78217 0.0
O332 O 0.09348 0.13289 0.7456 0.0
H333 H 0.11438 0.37743 0.71627 0.0
H334 H 0.17957 0.33108 0.70797 0.0
C335 C 0.13704 0.33183 0.71808 0.0
H336 H 0.10557 0.29552 0.71181 0.0
H337 H 0.07359 0.15286 0.70042 0.0
O338 O 0.16747 0.21548 0.82006 0.0
C339 C 0.07516 0.1148 0.7644 0.0
Co340 Co 0.82161 0.65772 0.04192 0.0
Co341 Co 0.82357 0.67344 0.99021 0.0
C342 C 0.89448 0.75822 0.01863 0.0
O343 O 0.87523 0.73026 0.03582 0.0
O344 O 0.87466 0.74406 0.99953 0.0
C345 C 0.8203 0.69047 0.08886 0.0
O346 O 0.85854 0.73517 0.0837 0.0
C347 C 0.80799 0.72215 0.94491 0.0
C348 C 0.81225 0.63588 0.92555 0.0
C349 C 0.80722 0.6993 0.92355 0.0
N350 N 0.81302 0.67423 0.95893 0.0
N351 N 0.81499 0.62284 0.94722 0.0
C352 C 0.8084 0.78851 0.95173 0.0
H353 H 0.81209 0.79314 0.96986 0.0
H354 H 0.76512 0.81108 0.94635 0.0
H355 H 0.8473 0.81278 0.94362 0.0
C356 C 0.68895 0.64811 0.03326 0.0
N357 N 0.74689 0.65682 0.02609 0.0
N358 N 0.74609 0.66873 0.00488 0.0
C359 C 0.68685 0.67148 0.99805 0.0
C360 C 0.64825 0.65819 0.01588 0.0
C361 C 0.67371 0.62622 0.05603 0.0
H362 H 0.70786 0.59116 0.06134 0.0
H363 H 0.67614 0.66572 0.06765 0.0
H364 H 0.62704 0.60539 0.05674 0.0
O365 O 0.87277 0.58803 0.03346 0.0
O366 O 0.87759 0.60097 0.99709 0.0
H367 H 0.66932 0.65179 0.9641 0.0
H368 H 0.62126 0.7122 0.97535 0.0
C369 C 0.66812 0.69193 0.97545 0.0
H370 H 0.70079 0.7271 0.96933 0.0
H371 H 0.81987 0.57889 0.95402 0.0
O372 O 0.80222 0.65333 0.07395 0.0
C373 C 0.89424 0.57312 0.01467 0.0
Co374 Co 0.32763 0.30972 0.28644 0.0
Co375 Co 0.33555 0.30661 0.23454 0.0
C376 C 0.23996 0.38111 0.25741 0.0
O377 O 0.25709 0.3633 0.27655 0.0
O378 O 0.26454 0.35955 0.24002 0.0
C379 C 0.32311 0.32719 0.3351 0.0
O380 O 0.33181 0.38655 0.33203 0.0
C381 C 0.30051 0.29807 0.188 0.0
C382 C 0.38693 0.26625 0.17248 0.0
C383 C 0.32635 0.28194 0.16792 0.0
N384 N 0.34394 0.29259 0.20369 0.0
N385 N 0.39553 0.27372 0.19432 0.0
C386 C 0.23437 0.31264 0.19267 0.0
H387 H 0.22048 0.29201 0.20865 0.0
H388 H 0.20369 0.29482 0.17947 0.0
H389 H 0.22877 0.36342 0.19385 0.0
C390 C 0.33798 0.17498 0.27924 0.0
N391 N 0.3343 0.23295 0.27141 0.0
N392 N 0.33106 0.23094 0.24983 0.0
C393 C 0.32814 0.17148 0.24326 0.0
C394 C 0.33284 0.13346 0.26177 0.0
C395 C 0.35012 0.16014 0.30293 0.0
H396 H 0.38175 0.1949 0.31016 0.0
H397 H 0.30589 0.16142 0.31204 0.0
H398 H 0.37115 0.11376 0.30477 0.0
O399 O 0.40018 0.36125 0.28091 0.0
O400 O 0.40599 0.35887 0.24426 0.0
H401 H 0.35822 0.14709 0.21087 0.0
H402 H 0.28888 0.10794 0.21955 0.0
C403 C 0.31435 0.15226 0.22006 0.0
H404 H 0.28589 0.18771 0.21176 0.0
H405 H 0.43641 0.26528 0.20288 0.0
O406 O 0.31965 0.29138 0.31853 0.0
C407 C 0.42468 0.37892 0.26289 0.0
Co408 Co 0.32291 0.82979 0.04087 0.0
Co409 Co 0.32274 0.81366 0.98916 0.0
C410 C 0.39436 0.72905 0.01674 0.0
O411 O 0.3762 0.75858 0.03371 0.0
O412 O 0.37327 0.74148 0.99765 0.0
C413 C 0.28343 0.78104 0.08136 0.0
O414 O 0.27033 0.7345 0.06828 0.0
C415 C 0.31165 0.76714 0.94333 0.0
C416 C 0.29135 0.85326 0.92523 0.0
C417 C 0.30044 0.79052 0.92234 0.0
N418 N 0.30889 0.81403 0.95789 0.0
N419 N 0.29645 0.86524 0.94693 0.0
C420 C 0.32969 0.70276 0.94946 0.0
H421 H 0.30003 0.68631 0.96315 0.0
H422 H 0.32659 0.67055 0.93532 0.0
H423 H 0.37793 0.70307 0.95553 0.0
C424 C 0.18971 0.83981 0.03315 0.0
N425 N 0.24737 0.83087 0.02572 0.0
N426 N 0.24578 0.81802 0.00457 0.0
C427 C 0.18624 0.81447 0.99813 0.0
C428 C 0.14836 0.82842 0.01611 0.0
C429 C 0.17506 0.86449 0.05562 0.0
H430 H 0.21299 0.8946 0.06153 0.0
H431 H 0.16969 0.8257 0.06737 0.0
H432 H 0.13147 0.89125 0.05535 0.0
O433 O 0.37255 0.90023 0.03254 0.0
O434 O 0.3783 0.88592 0.99623 0.0
H435 H 0.1627 0.8336 0.96461 0.0
H436 H 0.12131 0.76931 0.97639 0.0
C437 C 0.16651 0.79312 0.97573 0.0
H438 H 0.2011 0.76094 0.96883 0.0
H439 H 0.29224 0.90857 0.95428 0.0
O440 O 0.30835 0.82892 0.07318 0.0
C441 C 0.39453 0.91447 0.01376 0.0
Co442 Co 0.16655 0.80333 0.28705 0.0
Co443 Co 0.16089 0.81346 0.2352 0.0
C444 C 0.25674 0.87992 0.2625 0.0
O445 O 0.23771 0.85583 0.28041 0.0
O446 O 0.23343 0.86529 0.24387 0.0
C447 C 0.19534 0.80671 0.33415 0.0
O448 O 0.22923 0.85525 0.32955 0.0
C449 C 0.20303 0.80141 0.18928 0.0
C450 C 0.11456 0.79948 0.17121 0.0
C451 C 0.17777 0.79638 0.16832 0.0
N452 N 0.15678 0.80707 0.20387 0.0
N453 N 0.10407 0.80647 0.19293 0.0
C454 C 0.2695 0.79732 0.19562 0.0
H455 H 0.27408 0.77852 0.21257 0.0
H456 H 0.29524 0.76794 0.1838 0.0
H457 H 0.28982 0.8443 0.19538 0.0
C458 C 0.17059 0.67059 0.27588 0.0
N459 N 0.1662 0.73034 0.26996 0.0
N460 N 0.15914 0.734 0.2485 0.0
C461 C 0.15519 0.67645 0.24016 0.0
C462 C 0.16288 0.63385 0.25722 0.0
C463 C 0.18922 0.65013 0.29854 0.0
H464 H 0.21992 0.68495 0.3062 0.0
H465 H 0.21413 0.60551 0.29811 0.0
H466 H 0.14745 0.64512 0.30891 0.0
O467 O 0.09463 0.85798 0.281 0.0
O468 O 0.09029 0.86316 0.24443 0.0
H469 H 0.12464 0.61487 0.21418 0.0
H470 H 0.18248 0.67107 0.20633 0.0
C471 C 0.14076 0.66301 0.21649 0.0
H472 H 0.10402 0.6945 0.21068 0.0
H473 H 0.06085 0.80989 0.20035 0.0
O474 O 0.16527 0.78034 0.31881 0.0
C475 C 0.07084 0.87939 0.26333 0.0
Co476 Co 0.18103 0.66896 0.54073 0.0
Co477 Co 0.17943 0.68277 0.48894 0.0
C478 C 0.10723 0.76749 0.51654 0.0
O479 O 0.12638 0.73948 0.53371 0.0
O480 O 0.12759 0.75379 0.49749 0.0
C481 C 0.2192 0.71899 0.58131 0.0
O482 O 0.22828 0.76716 0.56856 0.0
C483 C 0.19231 0.72513 0.44221 0.0
C484 C 0.1975 0.63513 0.42523 0.0
C485 C 0.19663 0.69814 0.42145 0.0
N486 N 0.19087 0.67993 0.45751 0.0
N487 N 0.19448 0.6264 0.44717 0.0
C488 C 0.18656 0.7925 0.44724 0.0
H489 H 0.16797 0.8002 0.46395 0.0
H490 H 0.23283 0.81414 0.44645 0.0
H491 H 0.15655 0.81543 0.43487 0.0
C492 C 0.31402 0.66098 0.5327 0.0
N493 N 0.25607 0.66842 0.52531 0.0
N494 N 0.25699 0.68008 0.50407 0.0
C495 C 0.31634 0.68423 0.4975 0.0
C496 C 0.35481 0.67215 0.51552 0.0
C497 C 0.32964 0.63806 0.55534 0.0
H498 H 0.29296 0.60673 0.5614 0.0
H499 H 0.33343 0.67765 0.56683 0.0
H500 H 0.37425 0.61301 0.55529 0.0
O501 O 0.13201 0.59765 0.533 0.0
O502 O 0.12524 0.61038 0.49666 0.0
H503 H 0.33878 0.66311 0.46407 0.0
H504 H 0.38037 0.72829 0.47519 0.0
C505 C 0.33527 0.70425 0.47489 0.0
H506 H 0.30028 0.7358 0.46788 0.0
H507 H 0.19349 0.58367 0.45509 0.0
O508 O 0.19712 0.67006 0.57288 0.0
C509 C 0.1097 0.58245 0.51436 0.0
Co510 Co 0.31769 0.68655 0.78777 0.0
Co511 Co 0.33194 0.68984 0.73598 0.0
C512 C 0.23279 0.61554 0.75927 0.0
O513 O 0.2456 0.63517 0.77862 0.0
O514 O 0.26157 0.63527 0.74237 0.0
C515 C 0.29027 0.67788 0.83584 0.0
O516 O 0.25231 0.63219 0.83154 0.0
C517 C 0.29661 0.69548 0.6891 0.0
C518 C 0.38258 0.72928 0.67377 0.0
C519 C 0.32238 0.71247 0.66906 0.0
N520 N 0.33973 0.7019 0.7049 0.0
N521 N 0.39109 0.7217 0.69559 0.0
C522 C 0.23065 0.67994 0.69368 0.0
H523 H 0.22555 0.62905 0.69443 0.0
H524 H 0.21663 0.69934 0.70984 0.0
H525 H 0.1998 0.69824 0.68063 0.0
C526 C 0.3168 0.8223 0.78062 0.0
N527 N 0.32206 0.76426 0.77287 0.0
N528 N 0.32819 0.76604 0.75139 0.0
C529 C 0.3269 0.82531 0.74462 0.0
C530 C 0.32446 0.86445 0.76315 0.0
C531 C 0.29041 0.83486 0.80301 0.0
H532 H 0.26459 0.79425 0.80905 0.0
H533 H 0.25692 0.87343 0.80243 0.0
H534 H 0.3281 0.84546 0.8148 0.0
O535 O 0.38918 0.63276 0.78112 0.0
O536 O 0.40299 0.63972 0.74493 0.0
H537 H 0.35615 0.85421 0.71241 0.0
H538 H 0.27932 0.88028 0.72022 0.0
C539 C 0.31296 0.8419 0.72115 0.0
H540 H 0.29088 0.80289 0.71259 0.0
H541 H 0.43162 0.73119 0.70423 0.0
O542 O 0.32017 0.70286 0.82018 0.0
C543 C 0.41752 0.61716 0.76359 0.0
C544 C 0.17119 0.29943 0.88271 0.0
C545 C 0.19543 0.26672 0.90068 0.0
H546 H 0.14948 0.299 0.84836 0.0
C547 C 0.21767 0.20659 0.89739 0.0
H548 H 0.15412 0.34603 0.88482 0.0
C549 C 0.21535 0.17951 0.87644 0.0
C550 C 0.19087 0.21222 0.85842 0.0
H551 H 0.23815 0.18105 0.91089 0.0
H552 H 0.23341 0.13331 0.87433 0.0
C553 C 0.16846 0.27235 0.86185 0.0
C554 C 0.78489 0.72498 0.14896 0.0
C555 C 0.73594 0.68416 0.15307 0.0
H556 H 0.8501 0.75913 0.12539 0.0
C557 C 0.71667 0.64407 0.13625 0.0
H558 H 0.7997 0.7575 0.16142 0.0
C559 C 0.74549 0.64478 0.11569 0.0
C560 C 0.79361 0.68648 0.11131 0.0
H561 H 0.67905 0.61209 0.13899 0.0
H562 H 0.72906 0.6134 0.1031 0.0
C563 C 0.81338 0.72624 0.12824 0.0
C564 C 0.31586 0.23668 0.36058 0.0
C565 C 0.31859 0.30096 0.35767 0.0
H566 H 0.30956 0.1612 0.3831 0.0
C567 C 0.31685 0.33903 0.37646 0.0
H568 H 0.31712 0.20581 0.34663 0.0
C569 C 0.31218 0.31314 0.39761 0.0
C570 C 0.31001 0.24871 0.40036 0.0
H571 H 0.3183 0.38876 0.37483 0.0
H572 H 0.30884 0.34363 0.41169 0.0
C573 C 0.31152 0.21097 0.38158 0.0
C574 C 0.68062 0.7844 0.62776 0.0
C575 C 0.70448 0.82136 0.6107 0.0
H576 H 0.69046 0.75367 0.66125 0.0
C577 C 0.75618 0.85859 0.6151 0.0
H578 H 0.64107 0.75496 0.62491 0.0
C579 C 0.78438 0.85756 0.63582 0.0
C580 C 0.76086 0.8203 0.65274 0.0
H581 H 0.77585 0.88765 0.60241 0.0
H582 H 0.82487 0.88579 0.6386 0.0
C583 C 0.70856 0.78393 0.6486 0.0
C584 C 0.76347 0.21507 0.40068 0.0
C585 C 0.80524 0.26327 0.40467 0.0
H586 H 0.72891 0.14909 0.37739 0.0
C587 C 0.84663 0.28052 0.38805 0.0
H588 H 0.73027 0.20184 0.41314 0.0
C589 C 0.84635 0.25022 0.36772 0.0
C590 C 0.80361 0.20288 0.3634 0.0
H591 H 0.87913 0.31774 0.39076 0.0
H592 H 0.87875 0.26502 0.35524 0.0
C593 C 0.76253 0.18521 0.38019 0.0
C594 C 0.77601 0.3455 0.62237 0.0
C595 C 0.76263 0.29595 0.60815 0.0
H596 H 0.76216 0.38602 0.65429 0.0
C597 C 0.72612 0.24715 0.61604 0.0
H598 H 0.80375 0.38395 0.61676 0.0
C599 C 0.70223 0.24854 0.63741 0.0
C600 C 0.71509 0.29818 0.65156 0.0
H601 H 0.71464 0.20838 0.60554 0.0
H602 H 0.67327 0.21077 0.64285 0.0
C603 C 0.75262 0.34649 0.64391 0.0
C604 C 0.73109 0.28712 0.89849 0.0
C605 C 0.69057 0.23804 0.9027 0.0
H606 H 0.76327 0.35355 0.87495 0.0
C607 C 0.6488 0.21978 0.88631 0.0
H608 H 0.76451 0.30118 0.91078 0.0
C609 C 0.64758 0.24985 0.86596 0.0
C610 C 0.68918 0.29797 0.86137 0.0
H611 H 0.61722 0.18191 0.88921 0.0
H612 H 0.61494 0.23422 0.85366 0.0
C613 C 0.73054 0.31678 0.87795 0.0
C614 C 0.70719 0.21617 0.15018 0.0
C615 C 0.76045 0.18109 0.15415 0.0
H616 H 0.63933 0.2448 0.12657 0.0
C617 C 0.78546 0.14597 0.13691 0.0
H618 H 0.68791 0.24489 0.16306 0.0
C619 C 0.75777 0.14569 0.11609 0.0
C620 C 0.70501 0.18155 0.1119 0.0
H621 H 0.82672 0.11879 0.13953 0.0
H622 H 0.77857 0.11823 0.10319 0.0
C623 C 0.67971 0.21643 0.12925 0.0
C624 C 0.64769 0.74819 0.36609 0.0
C625 C 0.69009 0.70061 0.36179 0.0
H626 H 0.61646 0.81685 0.38891 0.0
C627 C 0.73182 0.6833 0.37844 0.0
H628 H 0.6147 0.76261 0.35373 0.0
C629 C 0.73206 0.71403 0.39875 0.0
C630 C 0.69086 0.76269 0.40264 0.0
H631 H 0.76514 0.64696 0.37564 0.0
H632 H 0.76576 0.70117 0.41111 0.0
C633 C 0.64861 0.77936 0.38622 0.0
C634 C 0.24899 0.15141 0.61383 0.0
C635 C 0.28463 0.20354 0.60859 0.0
H636 H 0.1906 0.10727 0.63744 0.0
C637 C 0.29136 0.25053 0.62441 0.0
H638 H 0.24278 0.11433 0.60206 0.0
C639 C 0.26178 0.24603 0.64485 0.0
C640 C 0.22462 0.19477 0.64969 0.0
H641 H 0.31837 0.29134 0.62084 0.0
H642 H 0.26606 0.28372 0.65646 0.0
C643 C 0.21884 0.1474 0.63406 0.0
C644 C 0.76404 0.78056 0.89844 0.0
C645 C 0.80717 0.73368 0.90256 0.0
H646 H 0.72785 0.84517 0.87501 0.0
C647 C 0.84915 0.7174 0.88601 0.0
H648 H 0.73005 0.7928 0.91072 0.0
C649 C 0.8481 0.74729 0.86565 0.0
C650 C 0.80417 0.79337 0.86124 0.0
H651 H 0.88283 0.68134 0.88881 0.0
H652 H 0.88099 0.73321 0.85322 0.0
C653 C 0.76245 0.81011 0.87792 0.0
C654 C 0.30983 0.23239 0.13129 0.0
C655 C 0.29694 0.28069 0.14597 0.0
H656 H 0.29487 0.1941 0.09923 0.0
C657 C 0.25773 0.32863 0.13923 0.0
H658 H 0.34015 0.19504 0.13611 0.0
C659 C 0.23195 0.32835 0.11811 0.0
C660 C 0.24483 0.28002 0.10337 0.0
H661 H 0.24825 0.36718 0.15006 0.0
H662 H 0.20265 0.36643 0.11324 0.0
C663 C 0.28361 0.23176 0.11025 0.0
C664 C 0.26353 0.67737 0.87631 0.0
C665 C 0.29531 0.70387 0.85844 0.0
H666 H 0.23987 0.68423 0.91063 0.0
C667 C 0.33039 0.75751 0.86214 0.0
H668 H 0.23581 0.6363 0.87402 0.0
C669 C 0.33256 0.78474 0.883 0.0
C670 C 0.30066 0.75851 0.90078 0.0
H671 H 0.35547 0.77931 0.84882 0.0
H672 H 0.35915 0.82661 0.88523 0.0
C673 C 0.26621 0.70446 0.8973 0.0
C674 C 0.21197 0.74243 0.11047 0.0
C675 C 0.26073 0.78145 0.10434 0.0
H676 H 0.14723 0.71732 0.13556 0.0
C677 C 0.28455 0.82322 0.11991 0.0
H678 H 0.19228 0.71011 0.0988 0.0
C679 C 0.25933 0.8265 0.14113 0.0
C680 C 0.2092 0.78889 0.14692 0.0
H681 H 0.32202 0.85394 0.1156 0.0
H682 H 0.27737 0.86013 0.15266 0.0
C683 C 0.18598 0.74668 0.13146 0.0
C684 C 0.16362 0.69898 0.38204 0.0
C685 C 0.19551 0.72768 0.3994 0.0
H686 H 0.13772 0.70167 0.34805 0.0
C687 C 0.2272 0.783 0.39521 0.0
H688 H 0.13888 0.65621 0.38475 0.0
C689 C 0.22665 0.8092 0.3741 0.0
C690 C 0.19448 0.78052 0.35675 0.0
H691 H 0.2538 0.80529 0.40803 0.0
H692 H 0.25199 0.85155 0.37133 0.0
C693 C 0.16279 0.72521 0.36101 0.0
C694 C 0.30606 0.76472 0.63292 0.0
C695 C 0.29299 0.71529 0.6471 0.0
H696 H 0.29194 0.80536 0.60118 0.0
C697 C 0.25394 0.66784 0.63979 0.0
H698 H 0.33618 0.80182 0.63817 0.0
C699 C 0.22881 0.66957 0.61855 0.0
C700 C 0.24207 0.71898 0.60429 0.0
H701 H 0.2442 0.62852 0.65024 0.0
H702 H 0.19972 0.63179 0.6132 0.0
C703 C 0.28044 0.76686 0.61179 0.0
C704 C 0.03126 0.48042 0.03358 0.0
C705 C 0.05771 0.46121 0.01358 0.0
H706 H 0.95836 0.52815 0.04959 0.0
C707 C 0.02839 0.47719 0.99367 0.0
H708 H 0.05189 0.46846 0.04928 0.0
C709 C 0.97393 0.51195 0.99386 0.0
C710 C 0.94741 0.53049 0.01397 0.0
H711 H 0.04717 0.46247 0.97799 0.0
H712 H 0.95287 0.52457 0.9783 0.0
C713 C 0.97674 0.51402 0.03378 0.0
C714 C 0.49116 0.45738 0.24384 0.0
C715 C 0.46749 0.43207 0.26346 0.0
H716 H 0.54317 0.53028 0.22893 0.0
C717 C 0.47832 0.46304 0.28345 0.0
H718 H 0.48302 0.43516 0.22811 0.0
C719 C 0.51141 0.51811 0.28385 0.0
C720 C 0.53521 0.54351 0.26429 0.0
H721 H 0.46017 0.4455 0.29886 0.0
H722 H 0.51908 0.54021 0.29964 0.0
C723 C 0.52481 0.51246 0.24426 0.0
C724 C 0.53105 0.99601 0.4921 0.0
C725 C 0.55729 0.97695 0.51224 0.0
H726 H 0.45857 0.04695 0.4762 0.0
C727 C 0.52849 0.99424 0.53201 0.0
H728 H 0.55177 0.98285 0.47656 0.0
C729 C 0.47467 0.02885 0.53178 0.0
C730 C 0.44832 0.04844 0.51178 0.0
H731 H 0.54663 0.97987 0.54785 0.0
H732 H 0.4544 0.04112 0.5475 0.0
C733 C 0.47726 0.03196 0.49188 0.0
C734 C 0.00566 0.03911 0.74562 0.0
C735 C 0.03201 0.06201 0.76521 0.0
H736 H 0.95092 0.96896 0.7304 0.0
C737 C 0.02294 0.02929 0.78492 0.0
H738 H 0.0122 0.06281 0.73007 0.0
C739 C 0.98857 0.97481 0.78503 0.0
C740 C 0.9622 0.95192 0.76543 0.0
H741 H 0.04336 0.04503 0.80023 0.0
H742 H 0.98204 0.95113 0.80058 0.0
C743 C 0.97119 0.98473 0.74573 0.0
C744 C 0.97248 0.4881 0.49484 0.0
C745 C 0.94608 0.47059 0.51509 0.0
H746 H 0.04573 0.53667 0.47859 0.0
C747 C 0.9757 0.48781 0.53476 0.0
H748 H 0.9512 0.47486 0.47938 0.0
C749 C 0.03036 0.52122 0.53429 0.0
C750 C 0.05665 0.5395 0.51415 0.0
H751 H 0.95745 0.47444 0.55067 0.0
H752 H 0.05121 0.53381 0.5499 0.0
C753 C 0.02708 0.52268 0.49438 0.0
C754 C 0.51956 0.4854 0.74496 0.0
C755 C 0.52778 0.45239 0.7647 0.0
H756 H 0.47995 0.56424 0.7292 0.0
C757 C 0.50167 0.47575 0.78421 0.0
H758 H 0.53972 0.46927 0.72968 0.0
C759 C 0.46837 0.53079 0.78402 0.0
C760 C 0.46003 0.5638 0.7643 0.0
H761 H 0.5076 0.452 0.79979 0.0
H762 H 0.44828 0.54683 0.79933 0.0
C763 C 0.48609 0.54047 0.74476 0.0
C764 C 0.52824 0.01131 0.03336 0.0
C765 C 0.55676 0.02878 0.01353 0.0
H766 H 0.45421 0.96419 0.04892 0.0
C767 C 0.52994 0.01027 0.99344 0.0
H768 H 0.54685 0.02531 0.04917 0.0
C769 C 0.47596 0.97461 0.99328 0.0
C770 C 0.44741 0.95769 0.01321 0.0
H771 H 0.55037 0.0236 0.97786 0.0
H772 H 0.45691 0.96003 0.97761 0.0
C773 C 0.47422 0.97682 0.03319 0.0
C774 C 0.01778 0.96255 0.28474 0.0
C775 C 0.02761 0.93205 0.2646 0.0
H776 H 0.97697 0.03924 0.30131 0.0
C777 C 0.00235 0.95738 0.24523 0.0
H778 H 0.0373 0.94493 0.29993 0.0
C779 C 0.96838 0.01204 0.24596 0.0
C780 C 0.95888 0.04276 0.26608 0.0
H781 H 0.00951 0.93546 0.22938 0.0
H782 H 0.94906 0.02982 0.23075 0.0
C783 C 0.98399 0.01731 0.28546 0.0
C784 C 0.52677 0.32384 0.00156 0.0
C785 C 0.55088 0.2925 0.02 0.0
H786 H 0.44642 0.36211 0.98602 0.0
C787 C 0.51196 0.28157 0.03809 0.0
H788 H 0.55548 0.33309 0.98734 0.0
C789 C 0.44939 0.29533 0.03685 0.0
C790 C 0.42421 0.32283 0.01789 0.0
H791 H 0.52835 0.25696 0.05249 0.0
H792 H 0.4203 0.2804 0.05028 0.0
C793 C 0.46408 0.33944 1.00062 0.0
C794 C 0.69829 0.93714 0.28864 0.0
C795 C 0.66927 0.91258 0.26987 0.0
H796 H 0.73702 0.01581 0.30436 0.0
C797 C 0.65083 0.9531 0.25301 0.0
H798 H 0.71444 0.90746 0.30176 0.0
C799 C 0.66595 0.016 0.25412 0.0
C800 C 0.69856 0.03961 0.27237 0.0
H801 H 0.62704 0.93581 0.23857 0.0
H802 H 0.65521 0.04532 0.24018 0.0
C803 C 0.71145 -0.00014 0.2901 0.0
C804 C 0.9923 0.22157 0.53892 0.0
C805 C 0.95312 0.21043 0.52087 0.0
H806 H 0.08434 0.22417 0.55094 0.0
C807 C 0.97751 0.18062 0.50218 0.0
H808 H 0.9757 0.24499 0.55354 0.0
C809 C 0.04054 0.16668 0.50101 0.0
C810 C 0.08042 0.18328 0.5183 0.0
H811 H 0.94869 0.17133 0.48797 0.0
H812 H 0.05837 0.14517 0.48622 0.0
C813 C 0.05516 0.2094 0.53746 0.0
C814 C 0.77834 0.49687 0.78742 0.0
C815 C 0.78904 0.45808 0.76924 0.0
H816 H 0.77822 0.58835 0.79994 0.0
C817 C 0.8205 0.48231 0.75088 0.0
H818 H 0.75364 0.48047 0.80178 0.0
C819 C 0.83715 0.5449 0.75024 0.0
C820 C 0.82119 0.5846 0.76767 0.0
H821 H 0.82935 0.45377 0.73656 0.0
H822 H 0.86029 0.56263 0.73576 0.0
C823 C 0.79284 0.55935 0.78642 0.0
C824 C 0.54014 0.3581 0.50205 0.0
C825 C 0.57847 0.34056 0.5197 0.0
H826 H 0.44986 0.35258 0.48766 0.0
C827 C 0.55134 0.31399 0.53844 0.0
H828 H 0.55927 0.38052 0.48765 0.0
C829 C 0.48851 0.30126 0.53898 0.0
C830 C 0.45134 0.31198 0.52035 0.0
H831 H 0.57906 0.29869 0.55221 0.0
H832 H 0.47065 0.27726 0.55328 0.0
C833 C 0.47722 0.34317 0.50223 0.0
C834 C 0.64998 0.04415 0.75224 0.0
C835 C 0.66782 0.08445 0.76926 0.0
H836 H 0.65591 0.95251 0.73898 0.0
C837 C 0.69775 0.05989 0.78784 0.0
H838 H 0.62561 0.06141 0.73793 0.0
C839 C 0.71231 0.99741 0.78896 0.0
C840 C 0.69975 0.95802 0.77109 0.0
H841 H 0.71355 0.08946 0.80106 0.0
H842 H 0.7385 0.98146 0.80307 0.0
C843 C 0.66638 0.98157 0.75302 0.0
C844 C 0.02549 0.16649 1.00027 0.0
C845 C 0.04998 0.19909 0.01835 0.0
H846 H 0.94485 0.12626 0.98551 0.0
C847 C 0.01146 0.21119 0.03647 0.0
H848 H 0.05387 0.15634 0.98605 0.0
C849 C 0.94896 0.19713 0.03561 0.0
C850 C 0.92342 0.16786 0.01708 0.0
H851 H 0.02811 0.23667 0.05065 0.0
H852 H 0.92018 0.21284 0.04903 0.0
C853 C 0.96285 0.15026 0.99979 0.0
C854 C 0.79757 0.43799 0.2889 0.0
C855 C 0.82559 0.4123 0.27017 0.0
H856 H 0.75929 0.51749 0.30416 0.0
C857 C 0.84273 0.45176 0.25281 0.0
H858 H 0.78228 0.40917 0.30239 0.0
C859 C 0.8272 0.51458 0.25344 0.0
C860 C 0.79557 0.53923 0.27169 0.0
H861 H 0.86573 0.43364 0.23837 0.0
H862 H 0.83675 0.54295 0.23913 0.0
C863 C 0.78408 0.5007 0.28987 0.0
C864 C 0.00968 0.79024 0.53625 0.0
C865 C 0.04839 0.8019 0.51816 0.0
H866 H 0.91828 0.78951 0.54874 0.0
C867 C 0.02432 0.83447 0.5 0.0
H868 H 0.02605 0.76465 0.55045 0.0
C869 C 0.96189 0.8513 0.49947 0.0
C870 C 0.9222 0.83419 0.51674 0.0
H871 H 0.05288 0.8441 0.48577 0.0
H872 H 0.94421 0.87531 0.48514 0.0
C873 C 0.94732 0.80485 0.53533 0.0
C874 C 0.19678 0.45641 0.73882 0.0
C875 C 0.166 0.43036 0.75689 0.0
H876 H 0.23843 0.53596 0.72481 0.0
C877 C 0.14645 0.46959 0.77403 0.0
H878 H 0.21375 0.42797 0.7255 0.0
C879 C 0.1635 0.53205 0.77422 0.0
C880 C 0.19827 0.55683 0.7568 0.0
H881 H 0.12084 0.45137 0.78788 0.0
H882 H 0.15236 0.55996 0.78849 0.0
C883 C 0.21141 0.51896 0.73854 0.0
C884 C 0.55426 0.69338 0.03594 0.0
C885 C 0.58011 0.66473 0.01737 0.0
H886 H 0.4748 0.73192 0.05096 0.0
C887 C 0.54081 0.64677 1.00004 0.0
H888 H 0.58286 0.70927 0.04941 0.0
C889 C 0.47808 0.66258 1.00044 0.0
C890 C 0.45334 0.69484 0.01853 0.0
H891 H 0.55902 0.62305 0.98576 0.0
H892 H 0.44985 0.65254 0.98614 0.0
C893 C 0.49165 0.70678 0.03676 0.0
C894 C 0.28868 0.04128 0.28079 0.0
C895 C 0.32312 0.06549 0.26323 0.0
H896 H 0.24454 0.96327 0.29492 0.0
C897 C 0.34379 0.02486 0.24666 0.0
H898 H 0.26971 0.07083 0.29341 0.0
C899 C 0.32595 0.96252 0.24684 0.0
C900 C 0.28986 0.93932 0.26418 0.0
H901 H 0.37162 0.04165 0.23314 0.0
H902 H 0.33844 0.93313 0.2331 0.0
C903 C 0.27378 0.97897 0.28157 0.0
C904 C 0.99222 0.78176 0.03827 0.0
C905 C 0.95333 0.79279 0.02015 0.0
H906 H 0.08393 0.77987 0.05048 0.0
C907 C 0.97759 0.82385 0.00169 0.0
H908 H 0.9757 0.75737 0.05269 0.0
C909 C 0.0404 0.83908 1.00079 0.0
C910 C 0.08024 0.82217 0.01806 0.0
H911 H 0.9489 0.83307 0.98744 0.0
H912 H 0.05816 0.86158 0.98618 0.0
C913 C 0.05491 0.79502 0.03703 0.0
C914 C 0.15142 0.52574 0.27234 0.0
C915 C 0.1713 0.56583 0.25549 0.0
H916 H 0.15798 0.43494 0.28649 0.0
C917 C 0.2046 0.54113 0.23777 0.0
H918 H 0.12428 0.54303 0.28597 0.0
C919 C 0.22036 0.4789 0.23739 0.0
C920 C 0.20592 0.44004 0.25525 0.0
H921 H 0.2222 0.57044 0.22479 0.0
H922 H 0.24892 0.46284 0.22391 0.0
C923 C 0.16976 0.46364 0.27249 0.0
C924 C 0.50967 0.72429 0.53734 0.0
C925 C 0.549 0.71235 0.51946 0.0
H926 H 0.41783 0.72536 0.54934 0.0
C927 C 0.52551 0.67943 0.50126 0.0
H928 H 0.52557 0.75017 0.55154 0.0
C929 C 0.46301 0.66293 0.50038 0.0
C930 C 0.42271 0.68037 0.51741 0.0
H931 H 0.55457 0.66944 0.48721 0.0
H932 H 0.44582 0.63886 0.48599 0.0
C933 C 0.44729 0.70972 0.53612 0.0
C934 C 0.30892 0.03011 0.78447 0.0
C935 C 0.30078 0.06268 0.76468 0.0
H936 H 0.32904 0.94494 0.79977 0.0
C937 C 0.31749 0.03358 0.74493 0.0
H938 H 0.30013 0.0519 0.80023 0.0
C939 C 0.3317 0.97068 0.7447 0.0
C940 C 0.32601 0.93443 0.76396 0.0
H941 H 0.31573 0.05834 0.72942 0.0
H942 H 0.3457 0.95161 0.72916 0.0
C943 C 0.32266 0.96708 0.78409 0.0
loop_
_geom_bond_atom_site_label_1
_geom_bond_atom_site_label_2
_geom_bond_distance
_geom_bond_site_symmetry_2
_ccdc_geom_bond_type
Co0 O3 1.970 . S
Co0 N17 1.989 . S
Co0 O25 1.967 . S
Co0 O32 1.920 . S
Co1 O4 1.966 . S
Co1 N10 2.022 . S
Co1 N18 1.993 1_556 S
Co1 O26 1.941 . S
C2 O3 1.258 . S
C2 O4 1.263 1_554 S
O3 Co0 1.970 . S
O3 C2 1.258 . S
O4 Co1 1.966 . S
O4 C2 1.263 1_556 S
C5 O6 1.235 . S
C5 O32 1.289 . S
O6 C5 1.235 . S
C7 C9 1.400 . S
C7 N10 1.351 . S
C7 C12 1.501 . S
C8 C9 1.387 . S
C8 N11 1.341 . S
C9 C7 1.400 . S
C9 C8 1.387 . S
N10 Co1 2.022 . S
N10 C7 1.351 . S
N10 N11 1.365 . S
N11 C8 1.341 . S
N11 N10 1.365 . S
N11 H31 0.862 . S
C12 C7 1.501 . S
C12 H13 0.961 . S
C12 H14 0.961 . S
C12 H15 0.960 . S
H13 C12 0.961 . S
H14 C12 0.961 . S
H15 C12 0.960 . S
C16 N17 1.342 . S
C16 C20 1.401 . S
C16 C21 1.499 . S
N17 Co0 1.989 . S
N17 C16 1.342 . S
N17 N18 1.388 . S
N18 Co1 1.993 1_554 S
N18 N17 1.388 . S
N18 C19 1.346 1_554 S
C19 N18 1.346 1_556 S
C19 C20 1.396 1_556 S
C19 C29 1.510 . S
C20 C16 1.401 . S
C20 C19 1.396 1_554 S
C21 C16 1.499 . S
C21 H22 0.959 . S
C21 H23 0.960 . S
C21 H24 0.961 . S
H22 C21 0.959 . S
H23 C21 0.960 . S
H24 C21 0.961 . S
O25 Co0 1.967 . S
O25 C33 1.258 . S
O26 Co1 1.941 . S
O26 C33 1.266 1_556 S
H27 C29 0.959 . S
H28 C29 0.961 . S
C29 C19 1.510 . S
C29 H27 0.959 . S
C29 H28 0.961 . S
C29 H30 0.960 . S
H30 C29 0.960 . S
H31 N11 0.862 . S
O32 Co0 1.920 . S
O32 C5 1.289 . S
C33 O25 1.258 . S
C33 O26 1.266 1_554 S
Co34 O37 1.970 . S
Co34 N51 1.989 . S
Co34 O59 1.967 . S
Co34 O66 1.920 . S
Co35 O38 1.966 . S
Co35 N44 2.022 . S
Co35 N52 1.993 . S
Co35 O60 1.941 . S
C36 O37 1.258 . S
C36 O38 1.263 . S
O37 Co34 1.970 . S
O37 C36 1.258 . S
O38 Co35 1.966 . S
O38 C36 1.263 . S
C39 O40 1.235 . S
C39 O66 1.289 . S
O40 C39 1.235 . S
C41 C43 1.400 . S
C41 N44 1.351 . S
C41 C46 1.501 . S
C42 C43 1.387 . S
C42 N45 1.341 . S
C43 C41 1.400 . S
C43 C42 1.387 . S
N44 Co35 2.022 . S
N44 C41 1.351 . S
N44 N45 1.365 . S
N45 C42 1.341 . S
N45 N44 1.365 . S
N45 H65 0.862 . S
C46 C41 1.501 . S
C46 H47 0.961 . S
C46 H48 0.961 . S
C46 H49 0.960 . S
H47 C46 0.961 . S
H48 C46 0.961 . S
H49 C46 0.960 . S
C50 N51 1.342 . S
C50 C54 1.401 . S
C50 C55 1.499 . S
N51 Co34 1.989 . S
N51 C50 1.342 . S
N51 N52 1.388 . S
N52 Co35 1.993 . S
N52 N51 1.388 . S
N52 C53 1.346 . S
C53 N52 1.346 . S
C53 C54 1.396 . S
C53 C63 1.510 . S
C54 C50 1.401 . S
C54 C53 1.396 . S
C55 C50 1.499 . S
C55 H56 0.959 . S
C55 H57 0.960 . S
C55 H58 0.961 . S
H56 C55 0.959 . S
H57 C55 0.960 . S
H58 C55 0.961 . S
O59 Co34 1.967 . S
O59 C67 1.258 . S
O60 Co35 1.941 . S
O60 C67 1.266 . S
H61 C63 0.959 . S
H62 C63 0.961 . S
C63 C53 1.510 . S
C63 H61 0.959 . S
C63 H62 0.961 . S
C63 H64 0.960 . S
H64 C63 0.960 . S
H65 N45 0.862 . S
O66 Co34 1.920 . S
O66 C39 1.289 . S
C67 O59 1.258 . S
C67 O60 1.266 . S
Co68 O71 1.970 . S
Co68 N85 1.989 . S
Co68 O93 1.967 . S
Co68 O100 1.920 . S
Co69 O72 1.966 . S
Co69 N78 2.022 . S
Co69 N86 1.993 . S
Co69 O94 1.941 . S
C70 O71 1.258 . S
C70 O72 1.263 . S
O71 Co68 1.970 . S
O71 C70 1.258 . S
O72 Co69 1.966 . S
O72 C70 1.263 . S
C73 O74 1.235 . S
C73 O100 1.289 . S
O74 C73 1.235 . S
C75 C77 1.400 . S
C75 N78 1.351 . S
C75 C80 1.501 . S
C76 C77 1.387 . S
C76 N79 1.341 . S
C77 C75 1.400 . S
C77 C76 1.387 . S
N78 Co69 2.022 . S
N78 C75 1.351 . S
N78 N79 1.365 . S
N79 C76 1.341 . S
N79 N78 1.365 . S
N79 H99 0.862 . S
C80 C75 1.501 . S
C80 H81 0.961 . S
C80 H82 0.961 . S
C80 H83 0.960 . S
H81 C80 0.961 . S
H82 C80 0.961 . S
H83 C80 0.960 . S
C84 N85 1.342 . S
C84 C88 1.401 . S
C84 C89 1.499 . S
N85 Co68 1.989 . S
N85 C84 1.342 . S
N85 N86 1.388 . S
N86 Co69 1.993 . S
N86 N85 1.388 . S
N86 C87 1.346 . S
C87 N86 1.346 . S
C87 C88 1.396 . S
C87 C97 1.510 . S
C88 C84 1.401 . S
C88 C87 1.396 . S
C89 C84 1.499 . S
C89 H90 0.959 . S
C89 H91 0.960 . S
C89 H92 0.961 . S
H90 C89 0.959 . S
H91 C89 0.960 . S
H92 C89 0.961 . S
O93 Co68 1.967 . S
O93 C101 1.258 . S
O94 Co69 1.941 . S
O94 C101 1.266 . S
H95 C97 0.959 . S
H96 C97 0.961 . S
C97 C87 1.510 . S
C97 H95 0.959 . S
C97 H96 0.961 . S
C97 H98 0.960 . S
H98 C97 0.960 . S
H99 N79 0.862 . S
O100 Co68 1.920 . S
O100 C73 1.289 . S
C101 O93 1.258 . S
C101 O94 1.266 . S
Co102 O105 1.970 . S
Co102 N119 1.989 . S
Co102 O127 1.967 . S
Co102 O134 1.920 . S
Co103 O106 1.966 . S
Co103 N112 2.022 . S
Co103 N120 1.993 . S
Co103 O128 1.941 . S
C104 O105 1.258 . S
C104 O106 1.263 . S
O105 Co102 1.970 . S
O105 C104 1.258 . S
O106 Co103 1.966 . S
O106 C104 1.263 . S
C107 O108 1.235 . S
C107 O134 1.289 . S
O108 C107 1.235 . S
C109 C111 1.400 . S
C109 N112 1.351 . S
C109 C114 1.501 . S
C110 C111 1.387 . S
C110 N113 1.341 . S
C111 C109 1.400 . S
C111 C110 1.387 . S
N112 Co103 2.022 . S
N112 C109 1.351 . S
N112 N113 1.365 . S
N113 C110 1.341 . S
N113 N112 1.365 . S
N113 H133 0.862 . S
C114 C109 1.501 . S
C114 H115 0.961 . S
C114 H116 0.961 . S
C114 H117 0.960 . S
H115 C114 0.961 . S
H116 C114 0.961 . S
H117 C114 0.960 . S
C118 N119 1.342 . S
C118 C122 1.401 . S
C118 C123 1.499 . S
N119 Co102 1.989 . S
N119 C118 1.342 . S
N119 N120 1.388 . S
N120 Co103 1.993 . S
N120 N119 1.388 . S
N120 C121 1.346 . S
C121 N120 1.346 . S
C121 C122 1.396 . S
C121 C131 1.510 . S
C122 C118 1.401 . S
C122 C121 1.396 . S
C123 C118 1.499 . S
C123 H124 0.959 . S
C123 H125 0.960 . S
C123 H126 0.961 . S
H124 C123 0.959 . S
H125 C123 0.960 . S
H126 C123 0.961 . S
O127 Co102 1.967 . S
O127 C135 1.258 . S
O128 Co103 1.941 . S
O128 C135 1.266 . S
H129 C131 0.959 . S
H130 C131 0.961 . S
C131 C121 1.510 . S
C131 H129 0.959 . S
C131 H130 0.961 . S
C131 H132 0.960 . S
H132 C131 0.960 . S
H133 N113 0.862 . S
O134 Co102 1.920 . S
O134 C107 1.289 . S
C135 O127 1.258 . S
C135 O128 1.266 . S
Co136 O139 1.970 . S
Co136 N153 1.989 . S
Co136 O161 1.967 . S
Co136 O168 1.920 . S
Co137 O140 1.966 . S
Co137 N146 2.022 . S
Co137 N154 1.993 . S
Co137 O162 1.941 . S
C138 O139 1.258 . S
C138 O140 1.263 . S
O139 Co136 1.970 . S
O139 C138 1.258 . S
O140 Co137 1.966 . S
O140 C138 1.263 . S
C141 O142 1.235 . S
C141 O168 1.289 . S
O142 C141 1.235 . S
C143 C145 1.400 . S
C143 N146 1.351 . S
C143 C148 1.501 . S
C144 C145 1.387 . S
C144 N147 1.341 . S
C145 C143 1.400 . S
C145 C144 1.387 . S
N146 Co137 2.022 . S
N146 C143 1.351 . S
N146 N147 1.365 . S
N147 C144 1.341 . S
N147 N146 1.365 . S
N147 H167 0.862 . S
C148 C143 1.501 . S
C148 H149 0.961 . S
C148 H150 0.961 . S
C148 H151 0.960 . S
H149 C148 0.961 . S
H150 C148 0.961 . S
H151 C148 0.960 . S
C152 N153 1.342 . S
C152 C156 1.401 . S
C152 C157 1.499 . S
N153 Co136 1.989 . S
N153 C152 1.342 . S
N153 N154 1.388 . S
N154 Co137 1.993 . S
N154 N153 1.388 . S
N154 C155 1.346 . S
C155 N154 1.346 . S
C155 C156 1.396 . S
C155 C165 1.510 . S
C156 C152 1.401 . S
C156 C155 1.396 . S
C157 C152 1.499 . S
C157 H158 0.959 . S
C157 H159 0.960 . S
C157 H160 0.961 . S
H158 C157 0.959 . S
H159 C157 0.960 . S
H160 C157 0.961 . S
O161 Co136 1.967 . S
O161 C169 1.258 . S
O162 Co137 1.941 . S
O162 C169 1.266 . S
H163 C165 0.959 . S
H164 C165 0.961 . S
C165 C155 1.510 . S
C165 H163 0.959 . S
C165 H164 0.961 . S
C165 H166 0.960 . S
H166 C165 0.960 . S
H167 N147 0.862 . S
O168 Co136 1.920 . S
O168 C141 1.289 . S
C169 O161 1.258 . S
C169 O162 1.266 . S
Co170 O173 1.970 . S
Co170 N187 1.989 . S
Co170 O195 1.967 . S
Co170 O202 1.920 . S
Co171 O174 1.966 . S
Co171 N180 2.022 . S
Co171 N188 1.993 . S
Co171 O196 1.941 . S
C172 O173 1.258 . S
C172 O174 1.263 . S
O173 Co170 1.970 . S
O173 C172 1.258 . S
O174 Co171 1.966 . S
O174 C172 1.263 . S
C175 O176 1.235 . S
C175 O202 1.289 . S
O176 C175 1.235 . S
C177 C179 1.400 . S
C177 N180 1.351 . S
C177 C182 1.501 . S
C178 C179 1.387 . S
C178 N181 1.341 . S
C179 C177 1.400 . S
C179 C178 1.387 . S
N180 Co171 2.022 . S
N180 C177 1.351 . S
N180 N181 1.365 . S
N181 C178 1.341 . S
N181 N180 1.365 . S
N181 H201 0.862 . S
C182 C177 1.501 . S
C182 H183 0.961 . S
C182 H184 0.961 . S
C182 H185 0.960 . S
H183 C182 0.961 . S
H184 C182 0.961 . S
H185 C182 0.960 . S
C186 N187 1.342 . S
C186 C190 1.401 . S
C186 C191 1.499 . S
N187 Co170 1.989 . S
N187 C186 1.342 . S
N187 N188 1.388 . S
N188 Co171 1.993 . S
N188 N187 1.388 . S
N188 C189 1.346 . S
C189 N188 1.346 . S
C189 C190 1.396 . S
C189 C199 1.510 . S
C190 C186 1.401 . S
C190 C189 1.396 . S
C191 C186 1.499 . S
C191 H192 0.959 . S
C191 H193 0.960 . S
C191 H194 0.961 . S
H192 C191 0.959 . S
H193 C191 0.960 . S
H194 C191 0.961 . S
O195 Co170 1.967 . S
O195 C203 1.258 . S
O196 Co171 1.941 . S
O196 C203 1.266 . S
H197 C199 0.959 . S
H198 C199 0.961 . S
C199 C189 1.510 . S
C199 H197 0.959 . S
C199 H198 0.961 . S
C199 H200 0.960 . S
H200 C199 0.960 . S
H201 N181 0.862 . S
O202 Co170 1.920 . S
O202 C175 1.289 . S
C203 O195 1.258 . S
C203 O196 1.266 . S
Co204 O207 1.970 . S
Co204 N221 1.989 . S
Co204 O229 1.967 . S
Co204 O236 1.920 . S
Co205 O208 1.966 . S
Co205 N214 2.022 . S
Co205 N222 1.993 1_556 S
Co205 O230 1.941 . S
C206 O207 1.258 . S
C206 O208 1.263 1_554 S
O207 Co204 1.970 . S
O207 C206 1.258 . S
O208 Co205 1.966 . S
O208 C206 1.263 1_556 S
C209 O210 1.235 . S
C209 O236 1.289 . S
O210 C209 1.235 . S
C211 C213 1.400 . S
C211 N214 1.351 . S
C211 C216 1.501 . S
C212 C213 1.387 . S
C212 N215 1.341 . S
C213 C211 1.400 . S
C213 C212 1.387 . S
N214 Co205 2.022 . S
N214 C211 1.351 . S
N214 N215 1.365 . S
N215 C212 1.341 . S
N215 N214 1.365 . S
N215 H235 0.862 . S
C216 C211 1.501 . S
C216 H217 0.961 . S
C216 H218 0.961 . S
C216 H219 0.960 . S
H217 C216 0.961 . S
H218 C216 0.961 . S
H219 C216 0.960 . S
C220 N221 1.342 . S
C220 C224 1.401 . S
C220 C225 1.499 . S
N221 Co204 1.989 . S
N221 C220 1.342 . S
N221 N222 1.388 . S
N222 Co205 1.993 1_554 S
N222 N221 1.388 . S
N222 C223 1.346 1_554 S
C223 N222 1.346 1_556 S
C223 C224 1.396 1_556 S
C223 C233 1.510 . S
C224 C220 1.401 . S
C224 C223 1.396 1_554 S
C225 C220 1.499 . S
C225 H226 0.959 . S
C225 H227 0.960 . S
C225 H228 0.961 . S
H226 C225 0.959 . S
H227 C225 0.960 . S
H228 C225 0.961 . S
O229 Co204 1.967 . S
O229 C237 1.258 . S
O230 Co205 1.941 . S
O230 C237 1.266 1_556 S
H231 C233 0.959 . S
H232 C233 0.961 . S
C233 C223 1.510 . S
C233 H231 0.959 . S
C233 H232 0.961 . S
C233 H234 0.960 . S
H234 C233 0.960 . S
H235 N215 0.862 . S
O236 Co204 1.920 . S
O236 C209 1.289 . S
C237 O229 1.258 . S
C237 O230 1.266 1_554 S
Co238 O241 1.970 . S
Co238 N255 1.989 . S
Co238 O263 1.967 . S
Co238 O270 1.920 . S
Co239 O242 1.966 . S
Co239 N248 2.022 . S
Co239 N256 1.993 . S
Co239 O264 1.941 . S
C240 O241 1.258 . S
C240 O242 1.263 . S
O241 Co238 1.970 . S
O241 C240 1.258 . S
O242 Co239 1.966 . S
O242 C240 1.263 . S
C243 O244 1.235 . S
C243 O270 1.289 . S
O244 C243 1.235 . S
C245 C247 1.400 . S
C245 N248 1.351 . S
C245 C250 1.501 . S
C246 C247 1.387 . S
C246 N249 1.341 . S
C247 C245 1.400 . S
C247 C246 1.387 . S
N248 Co239 2.022 . S
N248 C245 1.351 . S
N248 N249 1.365 . S
N249 C246 1.341 . S
N249 N248 1.365 . S
N249 H269 0.862 . S
C250 C245 1.501 . S
C250 H251 0.961 . S
C250 H252 0.961 . S
C250 H253 0.960 . S
H251 C250 0.961 . S
H252 C250 0.961 . S
H253 C250 0.960 . S
C254 N255 1.342 . S
C254 C258 1.401 . S
C254 C259 1.499 . S
N255 Co238 1.989 . S
N255 C254 1.342 . S
N255 N256 1.388 . S
N256 Co239 1.993 . S
N256 N255 1.388 . S
N256 C257 1.346 . S
C257 N256 1.346 . S
C257 C258 1.396 . S
C257 C267 1.510 . S
C258 C254 1.401 . S
C258 C257 1.396 . S
C259 C254 1.499 . S
C259 H260 0.959 . S
C259 H261 0.960 . S
C259 H262 0.961 . S
H260 C259 0.959 . S
H261 C259 0.960 . S
H262 C259 0.961 . S
O263 Co238 1.967 . S
O263 C271 1.258 . S
O264 Co239 1.941 . S
O264 C271 1.266 . S
H265 C267 0.959 . S
H266 C267 0.961 . S
C267 C257 1.510 . S
C267 H265 0.959 . S
C267 H266 0.961 . S
C267 H268 0.960 . S
H268 C267 0.960 . S
H269 N249 0.862 . S
O270 Co238 1.920 . S
O270 C243 1.289 . S
C271 O263 1.258 . S
C271 O264 1.266 . S
Co272 O275 1.970 . S
Co272 N289 1.989 . S
Co272 O297 1.967 . S
Co272 O304 1.920 . S
Co273 O276 1.966 . S
Co273 N282 2.022 . S
Co273 N290 1.993 . S
Co273 O298 1.941 . S
C274 O275 1.258 . S
C274 O276 1.263 . S
O275 Co272 1.970 . S
O275 C274 1.258 . S
O276 Co273 1.966 . S
O276 C274 1.263 . S
C277 O278 1.235 . S
C277 O304 1.289 . S
O278 C277 1.235 . S
C279 C281 1.400 . S
C279 N282 1.351 . S
C279 C284 1.501 . S
C280 C281 1.387 . S
C280 N283 1.341 . S
C281 C279 1.400 . S
C281 C280 1.387 . S
N282 Co273 2.022 . S
N282 C279 1.351 . S
N282 N283 1.365 . S
N283 C280 1.341 . S
N283 N282 1.365 . S
N283 H303 0.862 . S
C284 C279 1.501 . S
C284 H285 0.961 . S
C284 H286 0.961 . S
C284 H287 0.960 . S
H285 C284 0.961 . S
H286 C284 0.961 . S
H287 C284 0.960 . S
C288 N289 1.342 . S
C288 C292 1.401 . S
C288 C293 1.499 . S
N289 Co272 1.989 . S
N289 C288 1.342 . S
N289 N290 1.388 . S
N290 Co273 1.993 . S
N290 N289 1.388 . S
N290 C291 1.346 . S
C291 N290 1.346 . S
C291 C292 1.396 . S
C291 C301 1.510 . S
C292 C288 1.401 . S
C292 C291 1.396 . S
C293 C288 1.499 . S
C293 H294 0.959 . S
C293 H295 0.960 . S
C293 H296 0.961 . S
H294 C293 0.959 . S
H295 C293 0.960 . S
H296 C293 0.961 . S
O297 Co272 1.967 . S
O297 C305 1.258 . S
O298 Co273 1.941 . S
O298 C305 1.266 . S
H299 C301 0.959 . S
H300 C301 0.961 . S
C301 C291 1.510 . S
C301 H299 0.959 . S
C301 H300 0.961 . S
C301 H302 0.960 . S
H302 C301 0.960 . S
H303 N283 0.862 . S
O304 Co272 1.920 . S
O304 C277 1.289 . S
C305 O297 1.258 . S
C305 O298 1.266 . S
Co306 O309 1.970 . S
Co306 N323 1.989 . S
Co306 O331 1.967 . S
Co306 O338 1.920 . S
Co307 O310 1.966 . S
Co307 N316 2.022 . S
Co307 N324 1.993 . S
Co307 O332 1.941 . S
C308 O309 1.258 . S
C308 O310 1.263 . S
O309 Co306 1.970 . S
O309 C308 1.258 . S
O310 Co307 1.966 . S
O310 C308 1.263 . S
C311 O312 1.235 . S
C311 O338 1.289 . S
O312 C311 1.235 . S
C313 C315 1.400 . S
C313 N316 1.351 . S
C313 C318 1.501 . S
C314 C315 1.387 . S
C314 N317 1.341 . S
C315 C313 1.400 . S
C315 C314 1.387 . S
N316 Co307 2.022 . S
N316 C313 1.351 . S
N316 N317 1.365 . S
N317 C314 1.341 . S
N317 N316 1.365 . S
N317 H337 0.862 . S
C318 C313 1.501 . S
C318 H319 0.961 . S
C318 H320 0.961 . S
C318 H321 0.960 . S
H319 C318 0.961 . S
H320 C318 0.961 . S
H321 C318 0.960 . S
C322 N323 1.342 . S
C322 C326 1.401 . S
C322 C327 1.499 . S
N323 Co306 1.989 . S
N323 C322 1.342 . S
N323 N324 1.388 . S
N324 Co307 1.993 . S
N324 N323 1.388 . S
N324 C325 1.346 . S
C325 N324 1.346 . S
C325 C326 1.396 . S
C325 C335 1.510 . S
C326 C322 1.401 . S
C326 C325 1.396 . S
C327 C322 1.499 . S
C327 H328 0.959 . S
C327 H329 0.960 . S
C327 H330 0.961 . S
H328 C327 0.959 . S
H329 C327 0.960 . S
H330 C327 0.961 . S
O331 Co306 1.967 . S
O331 C339 1.258 . S
O332 Co307 1.941 . S
O332 C339 1.266 . S
H333 C335 0.959 . S
H334 C335 0.961 . S
C335 C325 1.510 . S
C335 H333 0.959 . S
C335 H334 0.961 . S
C335 H336 0.960 . S
H336 C335 0.960 . S
H337 N317 0.862 . S
O338 Co306 1.920 . S
O338 C311 1.289 . S
C339 O331 1.258 . S
C339 O332 1.266 . S
Co340 O343 1.970 . S
Co340 N357 1.989 . S
Co340 O365 1.967 . S
Co340 O372 1.920 . S
Co341 O344 1.966 . S
Co341 N350 2.022 . S
Co341 N358 1.993 1_556 S
Co341 O366 1.941 . S
C342 O343 1.258 . S
C342 O344 1.263 1_554 S
O343 Co340 1.970 . S
O343 C342 1.258 . S
O344 Co341 1.966 . S
O344 C342 1.263 1_556 S
C345 O346 1.235 . S
C345 O372 1.289 . S
O346 C345 1.235 . S
C347 C349 1.400 . S
C347 N350 1.351 . S
C347 C352 1.501 . S
C348 C349 1.387 . S
C348 N351 1.341 . S
C349 C347 1.400 . S
C349 C348 1.387 . S
N350 Co341 2.022 . S
N350 C347 1.351 . S
N350 N351 1.365 . S
N351 C348 1.341 . S
N351 N350 1.365 . S
N351 H371 0.862 . S
C352 C347 1.501 . S
C352 H353 0.961 . S
C352 H354 0.961 . S
C352 H355 0.960 . S
H353 C352 0.961 . S
H354 C352 0.961 . S
H355 C352 0.960 . S
C356 N357 1.342 . S
C356 C360 1.401 . S
C356 C361 1.499 . S
N357 Co340 1.989 . S
N357 C356 1.342 . S
N357 N358 1.388 . S
N358 Co341 1.993 1_554 S
N358 N357 1.388 . S
N358 C359 1.346 1_554 S
C359 N358 1.346 1_556 S
C359 C360 1.396 1_556 S
C359 C369 1.510 . S
C360 C356 1.401 . S
C360 C359 1.396 1_554 S
C361 C356 1.499 . S
C361 H362 0.959 . S
C361 H363 0.960 . S
C361 H364 0.961 . S
H362 C361 0.959 . S
H363 C361 0.960 . S
H364 C361 0.961 . S
O365 Co340 1.967 . S
O365 C373 1.258 . S
O366 Co341 1.941 . S
O366 C373 1.266 1_556 S
H367 C369 0.959 . S
H368 C369 0.961 . S
C369 C359 1.510 . S
C369 H367 0.959 . S
C369 H368 0.961 . S
C369 H370 0.960 . S
H370 C369 0.960 . S
H371 N351 0.862 . S
O372 Co340 1.920 . S
O372 C345 1.289 . S
C373 O365 1.258 . S
C373 O366 1.266 1_554 S
Co374 O377 1.970 . S
Co374 N391 1.989 . S
Co374 O399 1.967 . S
Co374 O406 1.920 . S
Co375 O378 1.966 . S
Co375 N384 2.022 . S
Co375 N392 1.993 . S
Co375 O400 1.941 . S
C376 O377 1.258 . S
C376 O378 1.263 . S
O377 Co374 1.970 . S
O377 C376 1.258 . S
O378 Co375 1.966 . S
O378 C376 1.263 . S
C379 O380 1.235 . S
C379 O406 1.289 . S
O380 C379 1.235 . S
C381 C383 1.400 . S
C381 N384 1.351 . S
C381 C386 1.501 . S
C382 C383 1.387 . S
C382 N385 1.341 . S
C383 C381 1.400 . S
C383 C382 1.387 . S
N384 Co375 2.022 . S
N384 C381 1.351 . S
N384 N385 1.365 . S
N385 C382 1.341 . S
N385 N384 1.365 . S
N385 H405 0.862 . S
C386 C381 1.501 . S
C386 H387 0.961 . S
C386 H388 0.961 . S
C386 H389 0.960 . S
H387 C386 0.961 . S
H388 C386 0.961 . S
H389 C386 0.960 . S
C390 N391 1.342 . S
C390 C394 1.401 . S
C390 C395 1.499 . S
N391 Co374 1.989 . S
N391 C390 1.342 . S
N391 N392 1.388 . S
N392 Co375 1.993 . S
N392 N391 1.388 . S
N392 C393 1.346 . S
C393 N392 1.346 . S
C393 C394 1.396 . S
C393 C403 1.510 . S
C394 C390 1.401 . S
C394 C393 1.396 . S
C395 C390 1.499 . S
C395 H396 0.959 . S
C395 H397 0.960 . S
C395 H398 0.961 . S
H396 C395 0.959 . S
H397 C395 0.960 . S
H398 C395 0.961 . S
O399 Co374 1.967 . S
O399 C407 1.258 . S
O400 Co375 1.941 . S
O400 C407 1.266 . S
H401 C403 0.959 . S
H402 C403 0.961 . S
C403 C393 1.510 . S
C403 H401 0.959 . S
C403 H402 0.961 . S
C403 H404 0.960 . S
H404 C403 0.960 . S
H405 N385 0.862 . S
O406 Co374 1.920 . S
O406 C379 1.289 . S
C407 O399 1.258 . S
C407 O400 1.266 . S
Co408 O411 1.970 . S
Co408 N425 1.989 . S
Co408 O433 1.967 . S
Co408 O440 1.920 . S
Co409 O412 1.966 . S
Co409 N418 2.022 . S
Co409 N426 1.993 1_556 S
Co409 O434 1.941 . S
C410 O411 1.258 . S
C410 O412 1.263 1_554 S
O411 Co408 1.970 . S
O411 C410 1.258 . S
O412 Co409 1.966 . S
O412 C410 1.263 1_556 S
C413 O414 1.235 . S
C413 O440 1.289 . S
O414 C413 1.235 . S
C415 C417 1.400 . S
C415 N418 1.351 . S
C415 C420 1.501 . S
C416 C417 1.387 . S
C416 N419 1.341 . S
C417 C415 1.400 . S
C417 C416 1.387 . S
N418 Co409 2.022 . S
N418 C415 1.351 . S
N418 N419 1.365 . S
N419 C416 1.341 . S
N419 N418 1.365 . S
N419 H439 0.862 . S
C420 C415 1.501 . S
C420 H421 0.961 . S
C420 H422 0.961 . S
C420 H423 0.960 . S
H421 C420 0.961 . S
H422 C420 0.961 . S
H423 C420 0.960 . S
C424 N425 1.342 . S
C424 C428 1.401 . S
C424 C429 1.499 . S
N425 Co408 1.989 . S
N425 C424 1.342 . S
N425 N426 1.388 . S
N426 Co409 1.993 1_554 S
N426 N425 1.388 . S
N426 C427 1.346 1_554 S
C427 N426 1.346 1_556 S
C427 C428 1.396 1_556 S
C427 C437 1.510 . S
C428 C424 1.401 . S
C428 C427 1.396 1_554 S
C429 C424 1.499 . S
C429 H430 0.959 . S
C429 H431 0.960 . S
C429 H432 0.961 . S
H430 C429 0.959 . S
H431 C429 0.960 . S
H432 C429 0.961 . S
O433 Co408 1.967 . S
O433 C441 1.258 . S
O434 Co409 1.941 . S
O434 C441 1.266 1_556 S
H435 C437 0.959 . S
H436 C437 0.961 . S
C437 C427 1.510 . S
C437 H435 0.959 . S
C437 H436 0.961 . S
C437 H438 0.960 . S
H438 C437 0.960 . S
H439 N419 0.862 . S
O440 Co408 1.920 . S
O440 C413 1.289 . S
C441 O433 1.258 . S
C441 O434 1.266 1_554 S
Co442 O445 1.970 . S
Co442 N459 1.989 . S
Co442 O467 1.967 . S
Co442 O474 1.920 . S
Co443 O446 1.966 . S
Co443 N452 2.022 . S
Co443 N460 1.993 . S
Co443 O468 1.941 . S
C444 O445 1.258 . S
C444 O446 1.263 . S
O445 Co442 1.970 . S
O445 C444 1.258 . S
O446 Co443 1.966 . S
O446 C444 1.263 . S
C447 O448 1.235 . S
C447 O474 1.289 . S
O448 C447 1.235 . S
C449 C451 1.400 . S
C449 N452 1.351 . S
C449 C454 1.501 . S
C450 C451 1.387 . S
C450 N453 1.341 . S
C451 C449 1.400 . S
C451 C450 1.387 . S
N452 Co443 2.022 . S
N452 C449 1.351 . S
N452 N453 1.365 . S
N453 C450 1.341 . S
N453 N452 1.365 . S
N453 H473 0.862 . S
C454 C449 1.501 . S
C454 H455 0.961 . S
C454 H456 0.961 . S
C454 H457 0.960 . S
H455 C454 0.961 . S
H456 C454 0.961 . S
H457 C454 0.960 . S
C458 N459 1.342 . S
C458 C462 1.401 . S
C458 C463 1.499 . S
N459 Co442 1.989 . S
N459 C458 1.342 . S
N459 N460 1.388 . S
N460 Co443 1.993 . S
N460 N459 1.388 . S
N460 C461 1.346 . S
C461 N460 1.346 . S
C461 C462 1.396 . S
C461 C471 1.510 . S
C462 C458 1.401 . S
C462 C461 1.396 . S
C463 C458 1.499 . S
C463 H464 0.959 . S
C463 H465 0.960 . S
C463 H466 0.961 . S
H464 C463 0.959 . S
H465 C463 0.960 . S
H466 C463 0.961 . S
O467 Co442 1.967 . S
O467 C475 1.258 . S
O468 Co443 1.941 . S
O468 C475 1.266 . S
H469 C471 0.959 . S
H470 C471 0.961 . S
C471 C461 1.510 . S
C471 H469 0.959 . S
C471 H470 0.961 . S
C471 H472 0.960 . S
H472 C471 0.960 . S
H473 N453 0.862 . S
O474 Co442 1.920 . S
O474 C447 1.289 . S
C475 O467 1.258 . S
C475 O468 1.266 . S
Co476 O479 1.970 . S
Co476 N493 1.989 . S
Co476 O501 1.967 . S
Co476 O508 1.920 . S
Co477 O480 1.966 . S
Co477 N486 2.022 . S
Co477 N494 1.993 . S
Co477 O502 1.941 . S
C478 O479 1.258 . S
C478 O480 1.263 . S
O479 Co476 1.970 . S
O479 C478 1.258 . S
O480 Co477 1.966 . S
O480 C478 1.263 . S
C481 O482 1.235 . S
C481 O508 1.289 . S
O482 C481 1.235 . S
C483 C485 1.400 . S
C483 N486 1.351 . S
C483 C488 1.501 . S
C484 C485 1.387 . S
C484 N487 1.341 . S
C485 C483 1.400 . S
C485 C484 1.387 . S
N486 Co477 2.022 . S
N486 C483 1.351 . S
N486 N487 1.365 . S
N487 C484 1.341 . S
N487 N486 1.365 . S
N487 H507 0.862 . S
C488 C483 1.501 . S
C488 H489 0.961 . S
C488 H490 0.961 . S
C488 H491 0.960 . S
H489 C488 0.961 . S
H490 C488 0.961 . S
H491 C488 0.960 . S
C492 N493 1.342 . S
C492 C496 1.401 . S
C492 C497 1.499 . S
N493 Co476 1.989 . S
N493 C492 1.342 . S
N493 N494 1.388 . S
N494 Co477 1.993 . S
N494 N493 1.388 . S
N494 C495 1.346 . S
C495 N494 1.346 . S
C495 C496 1.396 . S
C495 C505 1.510 . S
C496 C492 1.401 . S
C496 C495 1.396 . S
C497 C492 1.499 . S
C497 H498 0.959 . S
C497 H499 0.960 . S
C497 H500 0.961 . S
H498 C497 0.959 . S
H499 C497 0.960 . S
H500 C497 0.961 . S
O501 Co476 1.967 . S
O501 C509 1.258 . S
O502 Co477 1.941 . S
O502 C509 1.266 . S
H503 C505 0.959 . S
H504 C505 0.961 . S
C505 C495 1.510 . S
C505 H503 0.959 . S
C505 H504 0.961 . S
C505 H506 0.960 . S
H506 C505 0.960 . S
H507 N487 0.862 . S
O508 Co476 1.920 . S
O508 C481 1.289 . S
C509 O501 1.258 . S
C509 O502 1.266 . S
Co510 O513 1.970 . S
Co510 N527 1.989 . S
Co510 O535 1.967 . S
Co510 O542 1.920 . S
Co511 O514 1.966 . S
Co511 N520 2.022 . S
Co511 N528 1.993 . S
Co511 O536 1.941 . S
C512 O513 1.258 . S
C512 O514 1.263 . S
O513 Co510 1.970 . S
O513 C512 1.258 . S
O514 Co511 1.966 . S
O514 C512 1.263 . S
C515 O516 1.235 . S
C515 O542 1.289 . S
O516 C515 1.235 . S
C517 C519 1.400 . S
C517 N520 1.351 . S
C517 C522 1.501 . S
C518 C519 1.387 . S
C518 N521 1.341 . S
C519 C517 1.400 . S
C519 C518 1.387 . S
N520 Co511 2.022 . S
N520 C517 1.351 . S
N520 N521 1.365 . S
N521 C518 1.341 . S
N521 N520 1.365 . S
N521 H541 0.862 . S
C522 C517 1.501 . S
C522 H523 0.961 . S
C522 H524 0.961 . S
C522 H525 0.960 . S
H523 C522 0.961 . S
H524 C522 0.961 . S
H525 C522 0.960 . S
C526 N527 1.342 . S
C526 C530 1.401 . S
C526 C531 1.499 . S
N527 Co510 1.989 . S
N527 C526 1.342 . S
N527 N528 1.388 . S
N528 Co511 1.993 . S
N528 N527 1.388 . S
N528 C529 1.346 . S
C529 N528 1.346 . S
C529 C530 1.396 . S
C529 C539 1.510 . S
C530 C526 1.401 . S
C530 C529 1.396 . S
C531 C526 1.499 . S
C531 H532 0.959 . S
C531 H533 0.960 . S
C531 H534 0.961 . S
H532 C531 0.959 . S
H533 C531 0.960 . S
H534 C531 0.961 . S
O535 Co510 1.967 . S
O535 C543 1.258 . S
O536 Co511 1.941 . S
O536 C543 1.266 . S
H537 C539 0.959 . S
H538 C539 0.961 . S
C539 C529 1.510 . S
C539 H537 0.959 . S
C539 H538 0.961 . S
C539 H540 0.960 . S
H540 C539 0.960 . S
H541 N521 0.862 . S
O542 Co510 1.920 . S
O542 C515 1.289 . S
C543 O535 1.258 . S
C543 O536 1.266 . S
C544 C545 1.387 . S
C544 H548 0.950 . S
C544 C553 1.390 . S
C545 C544 1.387 . S
C545 C547 1.387 . S
H546 C553 0.950 . S
C547 C545 1.387 . S
C547 C549 1.390 . S
C547 H551 0.950 . S
H548 C544 0.950 . S
C549 C547 1.390 . S
C549 C550 1.387 . S
C549 H552 0.950 . S
C550 C549 1.387 . S
C550 C553 1.387 . S
H551 C547 0.950 . S
H552 C549 0.950 . S
C553 C544 1.390 . S
C553 H546 0.950 . S
C553 C550 1.387 . S
C554 C555 1.387 . S
C554 H558 0.950 . S
C554 C563 1.390 . S
C555 C554 1.387 . S
C555 C557 1.387 . S
H556 C563 0.950 . S
C557 C555 1.387 . S
C557 C559 1.390 . S
C557 H561 0.950 . S
H558 C554 0.950 . S
C559 C557 1.390 . S
C559 C560 1.387 . S
C559 H562 0.950 . S
C560 C559 1.387 . S
C560 C563 1.387 . S
H561 C557 0.950 . S
H562 C559 0.950 . S
C563 C554 1.390 . S
C563 H556 0.950 . S
C563 C560 1.387 . S
C564 C565 1.387 . S
C564 H568 0.950 . S
C564 C573 1.390 . S
C565 C564 1.387 . S
C565 C567 1.387 . S
H566 C573 0.950 . S
C567 C565 1.387 . S
C567 C569 1.390 . S
C567 H571 0.950 . S
H568 C564 0.950 . S
C569 C567 1.390 . S
C569 C570 1.387 . S
C569 H572 0.950 . S
C570 C569 1.387 . S
C570 C573 1.387 . S
H571 C567 0.950 . S
H572 C569 0.950 . S
C573 C564 1.390 . S
C573 H566 0.950 . S
C573 C570 1.387 . S
C574 C575 1.387 . S
C574 H578 0.950 . S
C574 C583 1.390 . S
C575 C574 1.387 . S
C575 C577 1.387 . S
H576 C583 0.950 . S
C577 C575 1.387 . S
C577 C579 1.390 . S
C577 H581 0.950 . S
H578 C574 0.950 . S
C579 C577 1.390 . S
C579 C580 1.387 . S
C579 H582 0.950 . S
C580 C579 1.387 . S
C580 C583 1.387 . S
H581 C577 0.950 . S
H582 C579 0.950 . S
C583 C574 1.390 . S
C583 H576 0.950 . S
C583 C580 1.387 . S
C584 C585 1.387 . S
C584 H588 0.950 . S
C584 C593 1.390 . S
C585 C584 1.387 . S
C585 C587 1.387 . S
H586 C593 0.950 . S
C587 C585 1.387 . S
C587 C589 1.390 . S
C587 H591 0.950 . S
H588 C584 0.950 . S
C589 C587 1.390 . S
C589 C590 1.387 . S
C589 H592 0.950 . S
C590 C589 1.387 . S
C590 C593 1.387 . S
H591 C587 0.950 . S
H592 C589 0.950 . S
C593 C584 1.390 . S
C593 H586 0.950 . S
C593 C590 1.387 . S
C594 C595 1.387 . S
C594 H598 0.950 . S
C594 C603 1.390 . S
C595 C594 1.387 . S
C595 C597 1.387 . S
H596 C603 0.950 . S
C597 C595 1.387 . S
C597 C599 1.390 . S
C597 H601 0.950 . S
H598 C594 0.950 . S
C599 C597 1.390 . S
C599 C600 1.387 . S
C599 H602 0.950 . S
C600 C599 1.387 . S
C600 C603 1.387 . S
H601 C597 0.950 . S
H602 C599 0.950 . S
C603 C594 1.390 . S
C603 H596 0.950 . S
C603 C600 1.387 . S
C604 C605 1.387 . S
C604 H608 0.950 . S
C604 C613 1.390 . S
C605 C604 1.387 . S
C605 C607 1.387 . S
H606 C613 0.950 . S
C607 C605 1.387 . S
C607 C609 1.390 . S
C607 H611 0.950 . S
H608 C604 0.950 . S
C609 C607 1.390 . S
C609 C610 1.387 . S
C609 H612 0.950 . S
C610 C609 1.387 . S
C610 C613 1.387 . S
H611 C607 0.950 . S
H612 C609 0.950 . S
C613 C604 1.390 . S
C613 H606 0.950 . S
C613 C610 1.387 . S
C614 C615 1.387 . S
C614 H618 0.950 . S
C614 C623 1.390 . S
C615 C614 1.387 . S
C615 C617 1.387 . S
H616 C623 0.950 . S
C617 C615 1.387 . S
C617 C619 1.390 . S
C617 H621 0.950 . S
H618 C614 0.950 . S
C619 C617 1.390 . S
C619 C620 1.387 . S
C619 H622 0.950 . S
C620 C619 1.387 . S
C620 C623 1.387 . S
H621 C617 0.950 . S
H622 C619 0.950 . S
C623 C614 1.390 . S
C623 H616 0.950 . S
C623 C620 1.387 . S
C624 C625 1.387 . S
C624 H628 0.950 . S
C624 C633 1.390 . S
C625 C624 1.387 . S
C625 C627 1.387 . S
H626 C633 0.950 . S
C627 C625 1.387 . S
C627 C629 1.390 . S
C627 H631 0.950 . S
H628 C624 0.950 . S
C629 C627 1.390 . S
C629 C630 1.387 . S
C629 H632 0.950 . S
C630 C629 1.387 . S
C630 C633 1.387 . S
H631 C627 0.950 . S
H632 C629 0.950 . S
C633 C624 1.390 . S
C633 H626 0.950 . S
C633 C630 1.387 . S
C634 C635 1.387 . S
C634 H638 0.950 . S
C634 C643 1.390 . S
C635 C634 1.387 . S
C635 C637 1.387 . S
H636 C643 0.950 . S
C637 C635 1.387 . S
C637 C639 1.390 . S
C637 H641 0.950 . S
H638 C634 0.950 . S
C639 C637 1.390 . S
C639 C640 1.387 . S
C639 H642 0.950 . S
C640 C639 1.387 . S
C640 C643 1.387 . S
H641 C637 0.950 . S
H642 C639 0.950 . S
C643 C634 1.390 . S
C643 H636 0.950 . S
C643 C640 1.387 . S
C644 C645 1.387 . S
C644 H648 0.950 . S
C644 C653 1.390 . S
C645 C644 1.387 . S
C645 C647 1.387 . S
H646 C653 0.950 . S
C647 C645 1.387 . S
C647 C649 1.390 . S
C647 H651 0.950 . S
H648 C644 0.950 . S
C649 C647 1.390 . S
C649 C650 1.387 . S
C649 H652 0.950 . S
C650 C649 1.387 . S
C650 C653 1.387 . S
H651 C647 0.950 . S
H652 C649 0.950 . S
C653 C644 1.390 . S
C653 H646 0.950 . S
C653 C650 1.387 . S
C654 C655 1.387 . S
C654 H658 0.950 . S
C654 C663 1.390 . S
C655 C654 1.387 . S
C655 C657 1.387 . S
H656 C663 0.950 . S
C657 C655 1.387 . S
C657 C659 1.390 . S
C657 H661 0.950 . S
H658 C654 0.950 . S
C659 C657 1.390 . S
C659 C660 1.387 . S
C659 H662 0.950 . S
C660 C659 1.387 . S
C660 C663 1.387 . S
H661 C657 0.950 . S
H662 C659 0.950 . S
C663 C654 1.390 . S
C663 H656 0.950 . S
C663 C660 1.387 . S
C664 C665 1.387 . S
C664 H668 0.950 . S
C664 C673 1.390 . S
C665 C664 1.387 . S
C665 C667 1.387 . S
H666 C673 0.950 . S
C667 C665 1.387 . S
C667 C669 1.390 . S
C667 H671 0.950 . S
H668 C664 0.950 . S
C669 C667 1.390 . S
C669 C670 1.387 . S
C669 H672 0.950 . S
C670 C669 1.387 . S
C670 C673 1.387 . S
H671 C667 0.950 . S
H672 C669 0.950 . S
C673 C664 1.390 . S
C673 H666 0.950 . S
C673 C670 1.387 . S
C674 C675 1.387 . S
C674 H678 0.950 . S
C674 C683 1.390 . S
C675 C674 1.387 . S
C675 C677 1.387 . S
H676 C683 0.950 . S
C677 C675 1.387 . S
C677 C679 1.390 . S
C677 H681 0.950 . S
H678 C674 0.950 . S
C679 C677 1.390 . S
C679 C680 1.387 . S
C679 H682 0.950 . S
C680 C679 1.387 . S
C680 C683 1.387 . S
H681 C677 0.950 . S
H682 C679 0.950 . S
C683 C674 1.390 . S
C683 H676 0.950 . S
C683 C680 1.387 . S
C684 C685 1.387 . S
C684 H688 0.950 . S
C684 C693 1.390 . S
C685 C684 1.387 . S
C685 C687 1.387 . S
H686 C693 0.950 . S
C687 C685 1.387 . S
C687 C689 1.390 . S
C687 H691 0.950 . S
H688 C684 0.950 . S
C689 C687 1.390 . S
C689 C690 1.387 . S
C689 H692 0.950 . S
C690 C689 1.387 . S
C690 C693 1.387 . S
H691 C687 0.950 . S
H692 C689 0.950 . S
C693 C684 1.390 . S
C693 H686 0.950 . S
C693 C690 1.387 . S
C694 C695 1.387 . S
C694 H698 0.950 . S
C694 C703 1.390 . S
C695 C694 1.387 . S
C695 C697 1.387 . S
H696 C703 0.950 . S
C697 C695 1.387 . S
C697 C699 1.390 . S
C697 H701 0.950 . S
H698 C694 0.950 . S
C699 C697 1.390 . S
C699 C700 1.387 . S
C699 H702 0.950 . S
C700 C699 1.387 . S
C700 C703 1.387 . S
H701 C697 0.950 . S
H702 C699 0.950 . S
C703 C694 1.390 . S
C703 H696 0.950 . S
C703 C700 1.387 . S
C704 C705 1.387 . S
C704 H708 0.950 . S
C704 C713 1.390 1_455 S
C705 C704 1.387 . S
C705 C707 1.387 1_554 S
H706 C713 0.950 . S
C707 C705 1.387 1_556 S
C707 C709 1.390 1_455 S
C707 H711 0.950 . S
H708 C704 0.950 . S
C709 C707 1.390 1_655 S
C709 C710 1.387 1_556 S
C709 H712 0.950 . S
C710 C709 1.387 1_554 S
C710 C713 1.387 . S
H711 C707 0.950 . S
H712 C709 0.950 . S
C713 C704 1.390 1_655 S
C713 H706 0.950 . S
C713 C710 1.387 . S
C714 C715 1.387 . S
C714 H718 0.950 . S
C714 C723 1.390 . S
C715 C714 1.387 . S
C715 C717 1.387 . S
H716 C723 0.950 . S
C717 C715 1.387 . S
C717 C719 1.390 . S
C717 H721 0.950 . S
H718 C714 0.950 . S
C719 C717 1.390 . S
C719 C720 1.387 . S
C719 H722 0.950 . S
C720 C719 1.387 . S
C720 C723 1.387 . S
H721 C717 0.950 . S
H722 C719 0.950 . S
C723 C714 1.390 . S
C723 H716 0.950 . S
C723 C720 1.387 . S
C724 C725 1.387 . S
C724 H728 0.950 . S
C724 C733 1.390 1_565 S
C725 C724 1.387 . S
C725 C727 1.387 . S
H726 C733 0.950 . S
C727 C725 1.387 . S
C727 C729 1.390 1_565 S
C727 H731 0.950 . S
H728 C724 0.950 . S
C729 C727 1.390 1_545 S
C729 C730 1.387 . S
C729 H732 0.950 . S
C730 C729 1.387 . S
C730 C733 1.387 . S
H731 C727 0.950 . S
H732 C729 0.950 . S
C733 C724 1.390 1_545 S
C733 H726 0.950 . S
C733 C730 1.387 . S
C734 C735 1.387 . S
C734 H738 0.950 . S
C734 C743 1.390 1_445 S
C735 C734 1.387 . S
C735 C737 1.387 . S
H736 C743 0.950 . S
C737 C735 1.387 . S
C737 C739 1.390 1_445 S
C737 H741 0.950 . S
H738 C734 0.950 . S
C739 C737 1.390 1_665 S
C739 C740 1.387 . S
C739 H742 0.950 . S
C740 C739 1.387 . S
C740 C743 1.387 . S
H741 C737 0.950 . S
H742 C739 0.950 . S
C743 C734 1.390 1_665 S
C743 H736 0.950 . S
C743 C740 1.387 . S
C744 C745 1.387 . S
C744 H748 0.950 . S
C744 C753 1.390 1_655 S
C745 C744 1.387 . S
C745 C747 1.387 . S
H746 C753 0.950 . S
C747 C745 1.387 . S
C747 C749 1.390 1_655 S
C747 H751 0.950 . S
H748 C744 0.950 . S
C749 C747 1.390 1_455 S
C749 C750 1.387 . S
C749 H752 0.950 . S
C750 C749 1.387 . S
C750 C753 1.387 . S
H751 C747 0.950 . S
H752 C749 0.950 . S
C753 C744 1.390 1_455 S
C753 H746 0.950 . S
C753 C750 1.387 . S
C754 C755 1.387 . S
C754 H758 0.950 . S
C754 C763 1.390 . S
C755 C754 1.387 . S
C755 C757 1.387 . S
H756 C763 0.950 . S
C757 C755 1.387 . S
C757 C759 1.390 . S
C757 H761 0.950 . S
H758 C754 0.950 . S
C759 C757 1.390 . S
C759 C760 1.387 . S
C759 H762 0.950 . S
C760 C759 1.387 . S
C760 C763 1.387 . S
H761 C757 0.950 . S
H762 C759 0.950 . S
C763 C754 1.390 . S
C763 H756 0.950 . S
C763 C760 1.387 . S
C764 C765 1.387 . S
C764 H768 0.950 . S
C764 C773 1.390 1_545 S
C765 C764 1.387 . S
C765 C767 1.387 1_554 S
H766 C773 0.950 . S
C767 C765 1.387 1_556 S
C767 C769 1.390 1_545 S
C767 H771 0.950 . S
H768 C764 0.950 . S
C769 C767 1.390 1_565 S
C769 C770 1.387 1_556 S
C769 H772 0.950 . S
C770 C769 1.387 1_554 S
C770 C773 1.387 . S
H771 C767 0.950 . S
H772 C769 0.950 . S
C773 C764 1.390 1_565 S
C773 H766 0.950 . S
C773 C770 1.387 . S
C774 C775 1.387 . S
C774 H778 0.950 . S
C774 C783 1.390 1_465 S
C775 C774 1.387 . S
C775 C777 1.387 . S
H776 C783 0.950 . S
C777 C775 1.387 . S
C777 C779 1.390 1_465 S
C777 H781 0.950 . S
H778 C774 0.950 . S
C779 C777 1.390 1_645 S
C779 C780 1.387 . S
C779 H782 0.950 . S
C780 C779 1.387 . S
C780 C783 1.387 . S
H781 C777 0.950 . S
H782 C779 0.950 . S
C783 C774 1.390 1_645 S
C783 H776 0.950 . S
C783 C780 1.387 . S
C784 C785 1.387 1_556 S
C784 H788 0.950 . S
C784 C793 1.390 . S
C785 C784 1.387 1_554 S
C785 C787 1.387 . S
H786 C793 0.950 . S
C787 C785 1.387 . S
C787 C789 1.390 . S
C787 H791 0.950 . S
H788 C784 0.950 . S
C789 C787 1.390 . S
C789 C790 1.387 . S
C789 H792 0.950 . S
C790 C789 1.387 . S
C790 C793 1.387 1_554 S
H791 C787 0.950 . S
H792 C789 0.950 . S
C793 C784 1.390 . S
C793 H786 0.950 . S
C793 C790 1.387 1_556 S
C794 C795 1.387 . S
C794 H798 0.950 . S
C794 C803 1.390 . S
C795 C794 1.387 . S
C795 C797 1.387 . S
H796 C803 0.950 . S
C797 C795 1.387 . S
C797 C799 1.390 . S
C797 H801 0.950 . S
H798 C794 0.950 . S
C799 C797 1.390 . S
C799 C800 1.387 . S
C799 H802 0.950 . S
C800 C799 1.387 . S
C800 C803 1.387 . S
H801 C797 0.950 . S
H802 C799 0.950 . S
C803 C794 1.390 . S
C803 H796 0.950 . S
C803 C800 1.387 . S
C804 C805 1.387 . S
C804 H808 0.950 . S
C804 C813 1.390 . S
C805 C804 1.387 . S
C805 C807 1.387 . S
H806 C813 0.950 . S
C807 C805 1.387 . S
C807 C809 1.390 . S
C807 H811 0.950 . S
H808 C804 0.950 . S
C809 C807 1.390 . S
C809 C810 1.387 . S
C809 H812 0.950 . S
C810 C809 1.387 . S
C810 C813 1.387 . S
H811 C807 0.950 . S
H812 C809 0.950 . S
C813 C804 1.390 . S
C813 H806 0.950 . S
C813 C810 1.387 . S
C814 C815 1.387 . S
C814 H818 0.950 . S
C814 C823 1.390 . S
C815 C814 1.387 . S
C815 C817 1.387 . S
H816 C823 0.950 . S
C817 C815 1.387 . S
C817 C819 1.390 . S
C817 H821 0.950 . S
H818 C814 0.950 . S
C819 C817 1.390 . S
C819 C820 1.387 . S
C819 H822 0.950 . S
C820 C819 1.387 . S
C820 C823 1.387 . S
H821 C817 0.950 . S
H822 C819 0.950 . S
C823 C814 1.390 . S
C823 H816 0.950 . S
C823 C820 1.387 . S
C824 C825 1.387 . S
C824 H828 0.950 . S
C824 C833 1.390 . S
C825 C824 1.387 . S
C825 C827 1.387 . S
H826 C833 0.950 . S
C827 C825 1.387 . S
C827 C829 1.390 . S
C827 H831 0.950 . S
H828 C824 0.950 . S
C829 C827 1.390 . S
C829 C830 1.387 . S
C829 H832 0.950 . S
C830 C829 1.387 . S
C830 C833 1.387 . S
H831 C827 0.950 . S
H832 C829 0.950 . S
C833 C824 1.390 . S
C833 H826 0.950 . S
C833 C830 1.387 . S
C834 C835 1.387 . S
C834 H838 0.950 . S
C834 C843 1.390 . S
C835 C834 1.387 . S
C835 C837 1.387 . S
H836 C843 0.950 . S
C837 C835 1.387 . S
C837 C839 1.390 . S
C837 H841 0.950 . S
H838 C834 0.950 . S
C839 C837 1.390 . S
C839 C840 1.387 . S
C839 H842 0.950 . S
C840 C839 1.387 . S
C840 C843 1.387 . S
H841 C837 0.950 . S
H842 C839 0.950 . S
C843 C834 1.390 . S
C843 H836 0.950 . S
C843 C840 1.387 . S
C844 C845 1.387 1_556 S
C844 H848 0.950 . S
C844 C853 1.390 . S
C845 C844 1.387 1_554 S
C845 C847 1.387 . S
H846 C853 0.950 . S
C847 C845 1.387 . S
C847 C849 1.390 . S
C847 H851 0.950 . S
H848 C844 0.950 . S
C849 C847 1.390 . S
C849 C850 1.387 . S
C849 H852 0.950 . S
C850 C849 1.387 . S
C850 C853 1.387 1_554 S
H851 C847 0.950 . S
H852 C849 0.950 . S
C853 C844 1.390 . S
C853 H846 0.950 . S
C853 C850 1.387 1_556 S
C854 C855 1.387 . S
C854 H858 0.950 . S
C854 C863 1.390 . S
C855 C854 1.387 . S
C855 C857 1.387 . S
H856 C863 0.950 . S
C857 C855 1.387 . S
C857 C859 1.390 . S
C857 H861 0.950 . S
H858 C854 0.950 . S
C859 C857 1.390 . S
C859 C860 1.387 . S
C859 H862 0.950 . S
C860 C859 1.387 . S
C860 C863 1.387 . S
H861 C857 0.950 . S
H862 C859 0.950 . S
C863 C854 1.390 . S
C863 H856 0.950 . S
C863 C860 1.387 . S
C864 C865 1.387 . S
C864 H868 0.950 . S
C864 C873 1.390 . S
C865 C864 1.387 . S
C865 C867 1.387 . S
H866 C873 0.950 . S
C867 C865 1.387 . S
C867 C869 1.390 . S
C867 H871 0.950 . S
H868 C864 0.950 . S
C869 C867 1.390 . S
C869 C870 1.387 . S
C869 H872 0.950 . S
C870 C869 1.387 . S
C870 C873 1.387 . S
H871 C867 0.950 . S
H872 C869 0.950 . S
C873 C864 1.390 . S
C873 H866 0.950 . S
C873 C870 1.387 . S
C874 C875 1.387 . S
C874 H878 0.950 . S
C874 C883 1.390 . S
C875 C874 1.387 . S
C875 C877 1.387 . S
H876 C883 0.950 . S
C877 C875 1.387 . S
C877 C879 1.390 . S
C877 H881 0.950 . S
H878 C874 0.950 . S
C879 C877 1.390 . S
C879 C880 1.387 . S
C879 H882 0.950 . S
C880 C879 1.387 . S
C880 C883 1.387 . S
H881 C877 0.950 . S
H882 C879 0.950 . S
C883 C874 1.390 . S
C883 H876 0.950 . S
C883 C880 1.387 . S
C884 C885 1.387 . S
C884 H888 0.950 . S
C884 C893 1.390 . S
C885 C884 1.387 . S
C885 C887 1.387 1_554 S
H886 C893 0.950 . S
C887 C885 1.387 1_556 S
C887 C889 1.390 . S
C887 H891 0.950 . S
H888 C884 0.950 . S
C889 C887 1.390 . S
C889 C890 1.387 1_556 S
C889 H892 0.950 . S
C890 C889 1.387 1_554 S
C890 C893 1.387 . S
H891 C887 0.950 . S
H892 C889 0.950 . S
C893 C884 1.390 . S
C893 H886 0.950 . S
C893 C890 1.387 . S
C894 C895 1.387 . S
C894 H898 0.950 . S
C894 C903 1.390 . S
C895 C894 1.387 . S
C895 C897 1.387 . S
H896 C903 0.950 . S
C897 C895 1.387 . S
C897 C899 1.390 . S
C897 H901 0.950 . S
H898 C894 0.950 . S
C899 C897 1.390 . S
C899 C900 1.387 . S
C899 H902 0.950 . S
C900 C899 1.387 . S
C900 C903 1.387 . S
H901 C897 0.950 . S
H902 C899 0.950 . S
C903 C894 1.390 . S
C903 H896 0.950 . S
C903 C900 1.387 . S
C904 C905 1.387 . S
C904 H908 0.950 . S
C904 C913 1.390 . S
C905 C904 1.387 . S
C905 C907 1.387 1_554 S
H906 C913 0.950 . S
C907 C905 1.387 1_556 S
C907 C909 1.390 . S
C907 H911 0.950 . S
H908 C904 0.950 . S
C909 C907 1.390 . S
C909 C910 1.387 1_556 S
C909 H912 0.950 . S
C910 C909 1.387 1_554 S
C910 C913 1.387 . S
H911 C907 0.950 . S
H912 C909 0.950 . S
C913 C904 1.390 . S
C913 H906 0.950 . S
C913 C910 1.387 . S
C914 C915 1.387 . S
C914 H918 0.950 . S
C914 C923 1.390 . S
C915 C914 1.387 . S
C915 C917 1.387 . S
H916 C923 0.950 . S
C917 C915 1.387 . S
C917 C919 1.390 . S
C917 H921 0.950 . S
H918 C914 0.950 . S
C919 C917 1.390 . S
C919 C920 1.387 . S
C919 H922 0.950 . S
C920 C919 1.387 . S
C920 C923 1.387 . S
H921 C917 0.950 . S
H922 C919 0.950 . S
C923 C914 1.390 . S
C923 H916 0.950 . S
C923 C920 1.387 . S
C924 C925 1.387 . S
C924 H928 0.950 . S
C924 C933 1.390 . S
C925 C924 1.387 . S
C925 C927 1.387 . S
H926 C933 0.950 . S
C927 C925 1.387 . S
C927 C929 1.390 . S
C927 H931 0.950 . S
H928 C924 0.950 . S
C929 C927 1.390 . S
C929 C930 1.387 . S
C929 H932 0.950 . S
C930 C929 1.387 . S
C930 C933 1.387 . S
H931 C927 0.950 . S
H932 C929 0.950 . S
C933 C924 1.390 . S
C933 H926 0.950 . S
C933 C930 1.387 . S
C934 C935 1.387 . S
C934 H938 0.950 . S
C934 C943 1.390 . S
C935 C934 1.387 . S
C935 C937 1.387 . S
H936 C943 0.950 . S
C937 C935 1.387 . S
C937 C939 1.390 . S
C937 H941 0.950 . S
H938 C934 0.950 . S
C939 C937 1.390 . S
C939 C940 1.387 . S
C939 H942 0.950 . S
C940 C939 1.387 . S
C940 C943 1.387 . S
H941 C937 0.950 . S
H942 C939 0.950 . S
C943 C934 1.390 . S
C943 H936 0.950 . S
C943 C940 1.387 . S
C545 C9 1.619 . S
C550 C311 1.690 . S
C555 C43 1.616 . S
C560 C345 1.690 . S
C565 C379 1.690 . S
C570 C77 1.619 . S
C575 C277 1.690 . S
C580 C111 1.616 . S
C585 C145 1.619 . S
C590 C243 1.689 . S
C595 C141 1.691 . S
C600 C179 1.618 . S
C605 C213 1.619 . S
C610 C175 1.690 . S
C615 C247 1.619 . S
C620 C209 1.690 . S
C625 C39 1.691 . S
C630 C281 1.619 . S
C635 C73 1.689 . S
C640 C315 1.619 . S
C645 C349 1.616 . S
C650 C107 1.690 . S
C655 C383 1.618 . S
C660 C5 1.691 . S
C665 C515 1.689 . S
C670 C417 1.619 . S
C675 C413 1.689 . S
C680 C451 1.618 . S
C685 C485 1.616 . S
C690 C447 1.691 . S
C695 C519 1.619 . S
C700 C481 1.689 . S
C705 C33 1.402 . S
C710 C373 1.402 . S
C715 C407 1.406 . S
C720 C67 1.406 . S
C725 C305 1.406 . S
C730 C101 1.406 . S
C735 C339 1.406 . S
C740 C135 1.406 . S
C745 C169 1.402 . S
C750 C509 1.402 . S
C755 C203 1.402 . S
C760 C543 1.402 . S
C765 C237 1.406 . S
C770 C441 1.406 . S
C775 C475 1.406 . S
C780 C271 1.406 . S
C785 C206 1.138 . S
C790 C20 1.185 . S
C795 C54 1.183 . S
C800 C240 1.133 1_565 S
C805 C138 1.133 1_455 S
C810 C88 1.183 . S
C815 C172 1.133 . S
C820 C122 1.183 . S
C825 C156 1.183 . S
C830 C70 1.133 . S
C835 C190 1.183 . S
C840 C104 1.133 1_545 S
C845 C2 1.133 1_655 S
C850 C224 1.183 . S
C855 C258 1.185 . S
C860 C36 1.138 . S
C865 C478 1.133 1_655 S
C870 C292 1.183 . S
C875 C326 1.185 . S
C880 C512 1.138 . S
C885 C360 1.183 . S
C890 C410 1.133 . S
C895 C394 1.183 . S
C900 C444 1.133 1_545 S
C905 C342 1.138 1_455 S
C910 C428 1.185 . S
C915 C462 1.185 . S
C920 C376 1.138 . S
C925 C274 1.138 . S
C930 C496 1.185 . S
C935 C308 1.138 1_565 S
C940 C530 1.185 . S
