# Generated by pormake.
# Topology uod, (4)-cn, num edge types: 1
# Building blocks:
#     Node 0, Type 0, BuildingBlock: CEKHIL_clean_sbu_0, # of connection points: 4
#     Node 1, Type 0, BuildingBlock: CEKHIL_clean_sbu_0, # of connection points: 4
#     Node 2, Type 0, BuildingBlock: CEKHIL_clean_sbu_0, # of connection points: 4
#     Node 3, Type 0, BuildingBlock: CEKHIL_clean_sbu_0, # of connection points: 4
#     Node 4, Type 0, BuildingBlock: CEKHIL_clean_sbu_0, # of connection points: 4
#     Node 5, Type 0, BuildingBlock: CEKHIL_clean_sbu_0, # of connection points: 4
#     Node 6, Type 0, BuildingBlock: CEKHIL_clean_sbu_0, # of connection points: 4
#     Node 7, Type 0, BuildingBlock: CEKHIL_clean_sbu_0, # of connection points: 4
#     Node 8, Type 0, BuildingBlock: CEKHIL_clean_sbu_0, # of connection points: 4
#     Node 9, Type 0, BuildingBlock: CEKHIL_clean_sbu_0, # of connection points: 4
#     Node 10, Type 0, BuildingBlock: CEKHIL_clean_sbu_0, # of connection points: 4
#     Node 11, Type 0, BuildingBlock: CEKHIL_clean_sbu_0, # of connection points: 4
#     Node 12, Type 0, BuildingBlock: CEKHIL_clean_sbu_0, # of connection points: 4
#     Node 13, Type 0, BuildingBlock: CEKHIL_clean_sbu_0, # of connection points: 4
#     Node 14, Type 0, BuildingBlock: CEKHIL_clean_sbu_0, # of connection points: 4
#     Node 15, Type 0, BuildingBlock: CEKHIL_clean_sbu_0, # of connection points: 4
#     Node 16, Type 0, BuildingBlock: CEKHIL_clean_sbu_0, # of connection points: 4
#     Node 17, Type 0, BuildingBlock: CEKHIL_clean_sbu_0, # of connection points: 4
#     Node 18, Type 0, BuildingBlock: CEKHIL_clean_sbu_0, # of connection points: 4
#     Node 19, Type 0, BuildingBlock: CEKHIL_clean_sbu_0, # of connection points: 4
#     Node 20, Type 0, BuildingBlock: CEKHIL_clean_sbu_0, # of connection points: 4
#     Node 21, Type 0, BuildingBlock: CEKHIL_clean_sbu_0, # of connection points: 4
#     Node 22, Type 0, BuildingBlock: CEKHIL_clean_sbu_0, # of connection points: 4
#     Node 23, Type 0, BuildingBlock: CEKHIL_clean_sbu_0, # of connection points: 4
#     Node 24, Type 0, BuildingBlock: CEKHIL_clean_sbu_0, # of connection points: 4
#     Node 25, Type 0, BuildingBlock: CEKHIL_clean_sbu_0, # of connection points: 4
#     Node 26, Type 0, BuildingBlock: CEKHIL_clean_sbu_0, # of connection points: 4
#     Node 27, Type 0, BuildingBlock: CEKHIL_clean_sbu_0, # of connection points: 4
#     Node 28, Type 0, BuildingBlock: CEKHIL_clean_sbu_0, # of connection points: 4
#     Node 29, Type 0, BuildingBlock: CEKHIL_clean_sbu_0, # of connection points: 4
#     Node 30, Type 0, BuildingBlock: CEKHIL_clean_sbu_0, # of connection points: 4
#     Node 31, Type 0, BuildingBlock: CEKHIL_clean_sbu_0, # of connection points: 4
#     Edge 32, Type (0, 0), BuildingBlock: TEMPAE_clean_linker_10, # of connection points: 2
#     Edge 33, Type (0, 0), BuildingBlock: TEMPAE_clean_linker_10, # of connection points: 2
#     Edge 34, Type (0, 0), BuildingBlock: TEMPAE_clean_linker_10, # of connection points: 2
#     Edge 35, Type (0, 0), BuildingBlock: TEMPAE_clean_linker_10, # of connection points: 2
#     Edge 36, Type (0, 0), BuildingBlock: TEMPAE_clean_linker_10, # of connection points: 2
#     Edge 37, Type (0, 0), BuildingBlock: TEMPAE_clean_linker_10, # of connection points: 2
#     Edge 38, Type (0, 0), BuildingBlock: TEMPAE_clean_linker_10, # of connection points: 2
#     Edge 39, Type (0, 0), BuildingBlock: TEMPAE_clean_linker_10, # of connection points: 2
#     Edge 40, Type (0, 0), BuildingBlock: TEMPAE_clean_linker_10, # of connection points: 2
#     Edge 41, Type (0, 0), BuildingBlock: TEMPAE_clean_linker_10, # of connection points: 2
#     Edge 42, Type (0, 0), BuildingBlock: TEMPAE_clean_linker_10, # of connection points: 2
#     Edge 43, Type (0, 0), BuildingBlock: TEMPAE_clean_linker_10, # of connection points: 2
#     Edge 44, Type (0, 0), BuildingBlock: TEMPAE_clean_linker_10, # of connection points: 2
#     Edge 45, Type (0, 0), BuildingBlock: TEMPAE_clean_linker_10, # of connection points: 2
#     Edge 46, Type (0, 0), BuildingBlock: TEMPAE_clean_linker_10, # of connection points: 2
#     Edge 47, Type (0, 0), BuildingBlock: TEMPAE_clean_linker_10, # of connection points: 2
#     Edge 48, Type (0, 0), BuildingBlock: TEMPAE_clean_linker_10, # of connection points: 2
#     Edge 49, Type (0, 0), BuildingBlock: TEMPAE_clean_linker_10, # of connection points: 2
#     Edge 50, Type (0, 0), BuildingBlock: TEMPAE_clean_linker_10, # of connection points: 2
#     Edge 51, Type (0, 0), BuildingBlock: TEMPAE_clean_linker_10, # of connection points: 2
#     Edge 52, Type (0, 0), BuildingBlock: TEMPAE_clean_linker_10, # of connection points: 2
#     Edge 53, Type (0, 0), BuildingBlock: TEMPAE_clean_linker_10, # of connection points: 2
#     Edge 54, Type (0, 0), BuildingBlock: TEMPAE_clean_linker_10, # of connection points: 2
#     Edge 55, Type (0, 0), BuildingBlock: TEMPAE_clean_linker_10, # of connection points: 2
#     Edge 56, Type (0, 0), BuildingBlock: TEMPAE_clean_linker_10, # of connection points: 2
#     Edge 57, Type (0, 0), BuildingBlock: TEMPAE_clean_linker_10, # of connection points: 2
#     Edge 58, Type (0, 0), BuildingBlock: TEMPAE_clean_linker_10, # of connection points: 2
#     Edge 59, Type (0, 0), BuildingBlock: TEMPAE_clean_linker_10, # of connection points: 2
#     Edge 60, Type (0, 0), BuildingBlock: TEMPAE_clean_linker_10, # of connection points: 2
#     Edge 61, Type (0, 0), BuildingBlock: TEMPAE_clean_linker_10, # of connection points: 2
#     Edge 62, Type (0, 0), BuildingBlock: TEMPAE_clean_linker_10, # of connection points: 2
#     Edge 63, Type (0, 0), BuildingBlock: TEMPAE_clean_linker_10, # of connection points: 2
#     Edge 64, Type (0, 0), BuildingBlock: TEMPAE_clean_linker_10, # of connection points: 2
#     Edge 65, Type (0, 0), BuildingBlock: TEMPAE_clean_linker_10, # of connection points: 2
#     Edge 66, Type (0, 0), BuildingBlock: TEMPAE_clean_linker_10, # of connection points: 2
#     Edge 67, Type (0, 0), BuildingBlock: TEMPAE_clean_linker_10, # of connection points: 2
#     Edge 68, Type (0, 0), BuildingBlock: TEMPAE_clean_linker_10, # of connection points: 2
#     Edge 69, Type (0, 0), BuildingBlock: TEMPAE_clean_linker_10, # of connection points: 2
#     Edge 70, Type (0, 0), BuildingBlock: TEMPAE_clean_linker_10, # of connection points: 2
#     Edge 71, Type (0, 0), BuildingBlock: TEMPAE_clean_linker_10, # of connection points: 2
#     Edge 72, Type (0, 0), BuildingBlock: TEMPAE_clean_linker_10, # of connection points: 2
#     Edge 73, Type (0, 0), BuildingBlock: TEMPAE_clean_linker_10, # of connection points: 2
#     Edge 74, Type (0, 0), BuildingBlock: TEMPAE_clean_linker_10, # of connection points: 2
#     Edge 75, Type (0, 0), BuildingBlock: TEMPAE_clean_linker_10, # of connection points: 2
#     Edge 76, Type (0, 0), BuildingBlock: TEMPAE_clean_linker_10, # of connection points: 2
#     Edge 77, Type (0, 0), BuildingBlock: TEMPAE_clean_linker_10, # of connection points: 2
#     Edge 78, Type (0, 0), BuildingBlock: TEMPAE_clean_linker_10, # of connection points: 2
#     Edge 79, Type (0, 0), BuildingBlock: TEMPAE_clean_linker_10, # of connection points: 2
#     Edge 80, Type (0, 0), BuildingBlock: TEMPAE_clean_linker_10, # of connection points: 2
#     Edge 81, Type (0, 0), BuildingBlock: TEMPAE_clean_linker_10, # of connection points: 2
#     Edge 82, Type (0, 0), BuildingBlock: TEMPAE_clean_linker_10, # of connection points: 2
#     Edge 83, Type (0, 0), BuildingBlock: TEMPAE_clean_linker_10, # of connection points: 2
#     Edge 84, Type (0, 0), BuildingBlock: TEMPAE_clean_linker_10, # of connection points: 2
#     Edge 85, Type (0, 0), BuildingBlock: TEMPAE_clean_linker_10, # of connection points: 2
#     Edge 86, Type (0, 0), BuildingBlock: TEMPAE_clean_linker_10, # of connection points: 2
#     Edge 87, Type (0, 0), BuildingBlock: TEMPAE_clean_linker_10, # of connection points: 2
#     Edge 88, Type (0, 0), BuildingBlock: TEMPAE_clean_linker_10, # of connection points: 2
#     Edge 89, Type (0, 0), BuildingBlock: TEMPAE_clean_linker_10, # of connection points: 2
#     Edge 90, Type (0, 0), BuildingBlock: TEMPAE_clean_linker_10, # of connection points: 2
#     Edge 91, Type (0, 0), BuildingBlock: TEMPAE_clean_linker_10, # of connection points: 2
#     Edge 92, Type (0, 0), BuildingBlock: TEMPAE_clean_linker_10, # of connection points: 2
#     Edge 93, Type (0, 0), BuildingBlock: TEMPAE_clean_linker_10, # of connection points: 2
#     Edge 94, Type (0, 0), BuildingBlock: TEMPAE_clean_linker_10, # of connection points: 2
#     Edge 95, Type (0, 0), BuildingBlock: TEMPAE_clean_linker_10, # of connection points: 2
# Relax obj value: 0.167
# Max RMSD: 0.163
# Mean RMSD: 0.163
data_MOF--net-uod--node1-CEKHIL_clean_sbu_0--edge1-TEMPAE_clean_linker_10
_symmetry_space_group_name_H-M    P1
_symmetry_Int_Tables_number       1
_symmetry_cell_setting            triclinic
loop_
_symmetry_equiv_pos_as_xyz
'x, y, z'
_cell_length_a     93.084687
_cell_length_b     26.58015
_cell_length_c     60.699744
_cell_angle_alpha  90.021092
_cell_angle_beta   89.993401
_cell_angle_gamma 89.941815
loop_
_atom_site_label
_atom_site_type_symbol
_atom_site_fract_x
_atom_site_fract_y
_atom_site_fract_z
_atom_type_partial_charge
Co0 Co 0.05219 0.36787 0.08059 0.0
O1 O 0.03606 0.36957 0.06065 0.0
O2 O 0.05667 0.40904 0.05503 0.0
C3 C 0.05157 0.28558 0.08848 0.0
O4 O 0.07126 0.37281 0.09748 0.0
Co5 Co 0.04663 0.34015 0.12966 0.0
O6 O 0.06801 0.33754 0.13085 0.0
C7 C 0.0375 0.4381 0.11315 0.0
C8 C 0.04356 0.40003 0.04861 0.0
C9 C 0.07614 0.35656 0.11611 0.0
O10 O 0.04469 0.42952 0.09552 0.0
O11 O 0.03564 0.40521 0.12826 0.0
O12 O 0.05792 0.30064 0.07052 0.0
O13 O 0.0446 0.31947 0.09922 0.0
Co14 Co 0.21239 0.86115 0.08675 0.0
O15 O 0.22958 0.85569 0.06911 0.0
O16 O 0.20985 0.81106 0.06363 0.0
C17 C 0.21213 0.94528 0.08858 0.0
O18 O 0.19237 0.85865 0.10132 0.0
Co19 Co 0.21397 0.90905 0.13363 0.0
O20 O 0.19273 0.91062 0.13064 0.0
C21 C 0.22496 0.80715 0.12647 0.0
C22 C 0.22308 0.8208 0.05806 0.0
C23 C 0.18595 0.8829 0.11699 0.0
O24 O 0.21985 0.80749 0.10683 0.0
O25 O 0.22441 0.84452 0.13971 0.0
O26 O 0.20665 0.92304 0.07139 0.0
O27 O 0.21842 0.91664 0.10265 0.0
Co28 Co 0.05242 0.8708 0.17573 0.0
O29 O 0.03512 0.87429 0.19324 0.0
O30 O 0.05509 0.83591 0.20365 0.0
C31 C 0.05278 0.95082 0.16374 0.0
O32 O 0.07245 0.86169 0.16167 0.0
Co33 Co 0.04916 0.88522 0.12506 0.0
O34 O 0.07051 0.8859 0.12618 0.0
C35 C 0.03805 0.79473 0.14576 0.0
C36 C 0.04164 0.84638 0.20762 0.0
C37 C 0.07807 0.87212 0.14268 0.0
O38 O 0.04549 0.80585 0.16287 0.0
O39 O 0.03672 0.82437 0.1293 0.0
O40 O 0.05766 0.94041 0.18335 0.0
O41 O 0.04631 0.91441 0.15393 0.0
Co42 Co 0.21186 0.36555 0.16815 0.0
O43 O 0.23047 0.36424 0.18198 0.0
O44 O 0.21098 0.39608 0.1974 0.0
C45 C 0.21175 0.28685 0.15474 0.0
O46 O 0.19075 0.37199 0.15807 0.0
Co47 Co 0.21091 0.35517 0.11683 0.0
O48 O 0.19014 0.34551 0.12272 0.0
C49 C 0.22198 0.44707 0.1369 0.0
C50 C 0.22482 0.38859 0.19833 0.0
C51 C 0.18383 0.35849 0.14051 0.0
O52 O 0.21692 0.43271 0.15552 0.0
O53 O 0.22159 0.42029 0.1194 0.0
O54 O 0.2083 0.29465 0.17527 0.0
O55 O 0.21682 0.32526 0.14443 0.0
Co56 Co 0.96576 0.61184 0.91343 0.0
O57 O 0.98416 0.61843 0.9277 0.0
O58 O 0.96567 0.57726 0.94169 0.0
C59 C 0.96314 0.69144 0.90198 0.0
O60 O 0.94504 0.59853 0.90325 0.0
Co61 Co 0.96425 0.62755 0.86249 0.0
O62 O 0.94333 0.61755 0.86704 0.0
C63 C 0.97877 0.53955 0.88042 0.0
C64 C 0.97918 0.58975 0.94322 0.0
C65 C 0.93775 0.60383 0.88525 0.0
O66 O 0.97301 0.54896 0.89917 0.0
O67 O 0.97754 0.56824 0.86362 0.0
O68 O 0.95988 0.67969 0.92222 0.0
O69 O 0.9694 0.65668 0.89072 0.0
Co70 Co 0.79965 0.12065 0.91504 0.0
O71 O 0.78214 0.11848 0.93209 0.0
O72 O 0.80099 0.16544 0.94034 0.0
C73 C 0.8016 0.03776 0.90908 0.0
O74 O 0.81979 0.13047 0.90151 0.0
Co75 Co 0.79908 0.08583 0.86602 0.0
O76 O 0.8203 0.08775 0.86947 0.0
C77 C 0.78553 0.18078 0.87841 0.0
C78 C 0.78779 0.15247 0.94472 0.0
C79 C 0.82665 0.11184 0.88483 0.0
O80 O 0.79136 0.17728 0.8975 0.0
O81 O 0.78658 0.14704 0.86347 0.0
O82 O 0.80627 0.0566 0.92758 0.0
O83 O 0.79486 0.06839 0.89634 0.0
Co84 Co 0.96251 0.12669 0.84121 0.0
O85 O 0.98018 0.12672 0.82455 0.0
O86 O 0.96109 0.17254 0.81626 0.0
C87 C 0.96124 0.04328 0.84627 0.0
O88 O 0.94218 0.13405 0.85447 0.0
Co89 Co 0.9631 0.08916 0.88992 0.0
O90 O 0.94189 0.09143 0.88654 0.0
C91 C 0.97608 0.18549 0.87857 0.0
C92 C 0.9744 0.16059 0.81202 0.0
C93 C 0.93543 0.11526 0.87121 0.0
O94 O 0.97015 0.18315 0.85953 0.0
O95 O 0.97544 0.15054 0.89298 0.0
O96 O 0.95654 0.06261 0.82789 0.0
O97 O 0.96755 0.07398 0.85946 0.0
Co98 Co 0.80261 0.60817 0.83921 0.0
O99 O 0.78448 0.61334 0.82381 0.0
O100 O 0.80343 0.57158 0.81154 0.0
C101 C 0.80457 0.68859 0.85004 0.0
O102 O 0.82321 0.59636 0.85035 0.0
Co103 Co 0.80341 0.62702 0.89002 0.0
O104 O 0.82442 0.61789 0.88632 0.0
C105 C 0.78999 0.53624 0.87276 0.0
C106 C 0.78997 0.58377 0.80901 0.0
C107 C 0.83027 0.60312 0.86845 0.0
O108 O 0.79543 0.54561 0.85381 0.0
O109 O 0.79101 0.56554 0.88937 0.0
O110 O 0.80831 0.6761 0.83006 0.0
O111 O 0.79835 0.65387 0.86132 0.0
Co112 Co 0.05504 0.86684 0.5784 0.0
O113 O 0.03678 0.86877 0.5637 0.0
O114 O 0.05669 0.90099 0.54989 0.0
C115 C 0.05405 0.78658 0.58979 0.0
O116 O 0.07581 0.87007 0.59018 0.0
Co117 Co 0.0538 0.84927 0.62943 0.0
O118 O 0.07489 0.84151 0.62527 0.0
C119 C 0.04335 0.9429 0.61031 0.0
C120 C 0.04283 0.89454 0.5482 0.0
C121 C 0.08194 0.85552 0.60828 0.0
O122 O 0.05027 0.93262 0.59259 0.0
O123 O 0.04192 0.91194 0.62628 0.0
O124 O 0.0583 0.79629 0.56979 0.0
O125 O 0.04906 0.82439 0.60052 0.0
Co126 Co 0.21078 0.35984 0.57839 0.0
O127 O 0.22814 0.35923 0.56113 0.0
O128 O 0.20771 0.3246 0.5505 0.0
C129 C 0.21173 0.44029 0.58951 0.0
O130 O 0.19074 0.35482 0.59289 0.0
Co131 Co 0.2147 0.37734 0.62893 0.0
O132 O 0.19337 0.38159 0.62799 0.0
C133 C 0.22525 0.28548 0.60833 0.0
C134 C 0.22134 0.33235 0.54675 0.0
C135 C 0.18548 0.36773 0.61187 0.0
O136 O 0.21701 0.29488 0.5919 0.0
O137 O 0.22714 0.3165 0.62418 0.0
O138 O 0.20644 0.42986 0.57016 0.0
O139 O 0.21766 0.40318 0.59957 0.0
Co140 Co 0.05187 0.3708 0.67489 0.0
O141 O 0.0341 0.37213 0.69094 0.0
O142 O 0.05379 0.33472 0.70293 0.0
C143 C 0.05186 0.4516 0.66449 0.0
O144 O 0.07222 0.36361 0.66158 0.0
Co145 Co 0.04957 0.39114 0.62431 0.0
O146 O 0.07084 0.39437 0.62694 0.0
C147 C 0.03846 0.29761 0.6428 0.0
C148 C 0.04013 0.3441 0.7057 0.0
C149 C 0.07812 0.37784 0.64325 0.0
O150 O 0.04544 0.30706 0.66056 0.0
O151 O 0.03748 0.32886 0.62685 0.0
O152 O 0.05673 0.43972 0.68393 0.0
O153 O 0.04587 0.41576 0.65367 0.0
Co154 Co 0.21423 0.85866 0.67261 0.0
O155 O 0.23144 0.86049 0.69007 0.0
O156 O 0.21098 0.89645 0.69984 0.0
C157 C 0.21502 0.77713 0.66325 0.0
O158 O 0.19435 0.86304 0.65771 0.0
Co159 Co 0.21848 0.83521 0.62256 0.0
O160 O 0.19712 0.83321 0.62313 0.0
C161 C 0.22791 0.93129 0.64048 0.0
C162 C 0.22458 0.88874 0.70389 0.0
C163 C 0.18919 0.84928 0.63881 0.0
O164 O 0.22054 0.9221 0.65788 0.0
O165 O 0.22989 0.899 0.62514 0.0
O166 O 0.20958 0.78999 0.68222 0.0
O167 O 0.2212 0.81266 0.65248 0.0
Co168 Co 0.96596 0.11172 0.41219 0.0
O169 O 0.98333 0.11495 0.42956 0.0
O170 O 0.96429 0.06911 0.43807 0.0
C171 C 0.96402 0.19393 0.40456 0.0
O172 O 0.94594 0.101 0.39845 0.0
Co173 Co 0.96705 0.1411 0.36253 0.0
O174 O 0.94578 0.14166 0.36588 0.0
C175 C 0.98079 0.04845 0.37738 0.0
C176 C 0.9775 0.08186 0.44246 0.0
C177 C 0.93927 0.1191 0.38151 0.0
O178 O 0.9743 0.0534 0.39589 0.0
O179 O 0.98007 0.08079 0.36182 0.0
O180 O 0.95934 0.17706 0.42341 0.0
O181 O 0.97089 0.16198 0.39259 0.0
Co182 Co 0.79866 0.62332 0.41619 0.0
O183 O 0.78119 0.61772 0.43325 0.0
O184 O 0.80019 0.66228 0.44316 0.0
C185 C 0.80082 0.54242 0.40627 0.0
O186 O 0.81868 0.63613 0.40297 0.0
Co187 Co 0.79778 0.60117 0.36576 0.0
O188 O 0.81906 0.60108 0.36909 0.0
C189 C 0.78397 0.69154 0.38312 0.0
C190 C 0.78694 0.64919 0.44702 0.0
C191 C 0.82538 0.62137 0.38546 0.0
O192 O 0.79042 0.68387 0.40147 0.0
O193 O 0.78468 0.66132 0.36674 0.0
O194 O 0.80526 0.5566 0.42569 0.0
O195 O 0.79391 0.57582 0.39515 0.0
Co196 Co 0.96107 0.62765 0.33812 0.0
O197 O 0.97962 0.62749 0.32409 0.0
O198 O 0.96053 0.66647 0.31076 0.0
C199 C 0.96031 0.54572 0.3471 0.0
O200 O 0.94016 0.6348 0.34894 0.0
Co201 Co 0.96064 0.60263 0.38853 0.0
O202 O 0.93955 0.60874 0.38437 0.0
C203 C 0.97342 0.69575 0.37286 0.0
C204 C 0.97427 0.65723 0.30932 0.0
C205 C 0.93331 0.62489 0.36701 0.0
O206 O 0.96701 0.6896 0.35438 0.0
O207 O 0.97344 0.66329 0.38837 0.0
O208 O 0.95655 0.55968 0.32734 0.0
O209 O 0.96576 0.58039 0.35925 0.0
Co210 Co 0.80309 0.1103 0.33909 0.0
O211 O 0.78505 0.11031 0.32341 0.0
O212 O 0.80429 0.06797 0.31286 0.0
C213 C 0.8038 0.19318 0.3462 0.0
O214 O 0.82369 0.1035 0.35125 0.0
Co215 Co 0.80287 0.14189 0.38871 0.0
O216 O 0.82407 0.13962 0.38486 0.0
C217 C 0.79047 0.04605 0.37532 0.0
C218 C 0.79078 0.07884 0.30967 0.0
C219 C 0.83049 0.11913 0.36857 0.0
O220 O 0.79646 0.05065 0.35639 0.0
O221 O 0.7906 0.08003 0.3902 0.0
O222 O 0.80821 0.17673 0.32712 0.0
O223 O 0.79799 0.16017 0.35881 0.0
Co224 Co 0.55412 0.37342 0.58322 0.0
O225 O 0.53553 0.37438 0.56946 0.0
O226 O 0.55481 0.40921 0.55495 0.0
C227 C 0.55373 0.29239 0.59377 0.0
O228 O 0.57513 0.37768 0.59394 0.0
Co229 Co 0.55414 0.35283 0.63411 0.0
O230 O 0.57517 0.3471 0.62873 0.0
C231 C 0.54268 0.44655 0.61654 0.0
C232 C 0.54099 0.40126 0.5538 0.0
C233 C 0.58175 0.36263 0.61155 0.0
O234 O 0.54927 0.438 0.59837 0.0
O235 O 0.5418 0.41474 0.63227 0.0
O236 O 0.55759 0.30353 0.57372 0.0
O237 O 0.54888 0.32934 0.60518 0.0
Co238 Co 0.70857 0.86501 0.58171 0.0
O239 O 0.7269 0.86244 0.56718 0.0
O240 O 0.70698 0.82999 0.55342 0.0
C241 C 0.70949 0.94571 0.59273 0.0
O242 O 0.68777 0.86201 0.59331 0.0
Co243 Co 0.70976 0.88328 0.63265 0.0
O244 O 0.68859 0.88835 0.62872 0.0
C245 C 0.72062 0.79032 0.61367 0.0
C246 C 0.72086 0.83615 0.55182 0.0
C247 C 0.68158 0.875 0.61158 0.0
O248 O 0.71328 0.7996 0.59627 0.0
O249 O 0.72217 0.82181 0.62941 0.0
O250 O 0.70538 0.93537 0.57271 0.0
O251 O 0.71443 0.90818 0.60369 0.0
Co252 Co 0.54847 0.86862 0.67058 0.0
O253 O 0.53136 0.86871 0.68831 0.0
O254 O 0.55142 0.82911 0.69733 0.0
C255 C 0.54874 0.95037 0.66181 0.0
O256 O 0.56825 0.86171 0.6556 0.0
Co257 Co 0.54476 0.894 0.62072 0.0
O258 O 0.56612 0.89558 0.62166 0.0
C259 C 0.53327 0.80032 0.63832 0.0
C260 C 0.53795 0.83847 0.70166 0.0
C261 C 0.57374 0.87722 0.63721 0.0
O262 O 0.54106 0.80716 0.6555 0.0
O263 O 0.5322 0.83276 0.62284 0.0
O264 O 0.55408 0.93595 0.68063 0.0
O265 O 0.54206 0.91635 0.65078 0.0
Co266 Co 0.71436 0.3671 0.67228 0.0
O267 O 0.73134 0.36716 0.69033 0.0
O268 O 0.71118 0.40658 0.69901 0.0
C269 C 0.71429 0.28536 0.66351 0.0
O270 O 0.6947 0.37385 0.6569 0.0
Co271 Co 0.71866 0.34221 0.62257 0.0
O272 O 0.69729 0.3423 0.62262 0.0
C273 C 0.72954 0.43654 0.64034 0.0
C274 C 0.72462 0.39723 0.70359 0.0
C275 C 0.68945 0.35988 0.6381 0.0
O276 O 0.72175 0.42887 0.65744 0.0
O277 O 0.73095 0.40413 0.62491 0.0
O278 O 0.70872 0.29974 0.68218 0.0
O279 O 0.72106 0.3194 0.65261 0.0
Co280 Co 0.45888 0.60642 0.42119 0.0
O281 O 0.47725 0.6082 0.43603 0.0
O282 O 0.45802 0.56883 0.44869 0.0
C283 C 0.45812 0.68756 0.41112 0.0
O284 O 0.43798 0.59849 0.41022 0.0
Co285 Co 0.45771 0.62899 0.37061 0.0
O286 O 0.43686 0.63541 0.37678 0.0
C287 C 0.47011 0.53471 0.38649 0.0
C288 C 0.47162 0.57937 0.4509 0.0
C289 C 0.43081 0.61608 0.39362 0.0
O290 O 0.46515 0.54369 0.4058 0.0
O291 O 0.46907 0.56498 0.37021 0.0
O292 O 0.45423 0.67507 0.43102 0.0
O293 O 0.46359 0.65201 0.39947 0.0
Co294 Co 0.30162 0.12688 0.41173 0.0
O295 O 0.28329 0.12316 0.42651 0.0
O296 O 0.30226 0.16262 0.43981 0.0
C297 C 0.30293 0.04638 0.40071 0.0
O298 O 0.32248 0.13632 0.40076 0.0
Co299 Co 0.30234 0.10862 0.36087 0.0
O300 O 0.32329 0.10356 0.36648 0.0
C301 C 0.28977 0.20091 0.37831 0.0
C302 C 0.28867 0.15151 0.44179 0.0
C303 C 0.32951 0.12085 0.38361 0.0
O304 O 0.29503 0.19044 0.39728 0.0
O305 O 0.2907 0.17203 0.36153 0.0
O306 O 0.30663 0.05815 0.42077 0.0
O307 O 0.29711 0.08203 0.38947 0.0
Co308 Co 0.46543 0.11417 0.34033 0.0
O309 O 0.48336 0.11321 0.3245 0.0
O310 O 0.46419 0.156 0.31393 0.0
C311 C 0.46407 0.0317 0.34738 0.0
O312 O 0.44497 0.12269 0.35301 0.0
Co313 Co 0.46577 0.08207 0.38991 0.0
O314 O 0.4446 0.08464 0.38621 0.0
C315 C 0.47836 0.17801 0.37666 0.0
C316 C 0.47769 0.14484 0.31079 0.0
C317 C 0.4382 0.10647 0.37026 0.0
O318 O 0.47274 0.17304 0.35747 0.0
O319 O 0.47765 0.14467 0.39179 0.0
O320 O 0.45966 0.04858 0.3284 0.0
O321 O 0.47038 0.06383 0.3599 0.0
Co322 Co 0.29787 0.61401 0.33677 0.0
O323 O 0.28136 0.61402 0.31749 0.0
O324 O 0.3006 0.56637 0.31277 0.0
C325 C 0.29953 0.69755 0.34112 0.0
O326 O 0.3172 0.60573 0.35298 0.0
Co327 Co 0.29469 0.65465 0.38473 0.0
O328 O 0.31594 0.64833 0.385 0.0
C329 C 0.28241 0.55717 0.37326 0.0
C330 C 0.2877 0.57874 0.30639 0.0
C331 C 0.32305 0.62332 0.37073 0.0
O332 O 0.28876 0.55927 0.35452 0.0
O333 O 0.28271 0.59241 0.38758 0.0
O334 O 0.30516 0.6766 0.32371 0.0
O335 O 0.29211 0.66844 0.35363 0.0
Co336 Co 0.55291 0.86954 0.08236 0.0
O337 O 0.53426 0.86557 0.06874 0.0
O338 O 0.5532 0.90088 0.05322 0.0
C339 C 0.55395 0.79062 0.09547 0.0
O340 O 0.57392 0.8793 0.09241 0.0
Co341 Co 0.55401 0.85856 0.13361 0.0
O342 O 0.57506 0.85544 0.12816 0.0
C343 C 0.54024 0.94578 0.11329 0.0
C344 C 0.53946 0.89129 0.05247 0.0
C345 C 0.58103 0.86892 0.1102 0.0
O346 O 0.54697 0.93535 0.09541 0.0
O347 O 0.54055 0.91725 0.13027 0.0
O348 O 0.55736 0.79918 0.07499 0.0
O349 O 0.54854 0.82827 0.10589 0.0
Co350 Co 0.70935 0.36749 0.07976 0.0
O351 O 0.7277 0.36463 0.06533 0.0
O352 O 0.70784 0.33176 0.05161 0.0
C353 C 0.71038 0.4485 0.09017 0.0
O354 O 0.6885 0.36488 0.09119 0.0
Co355 Co 0.71012 0.38851 0.13054 0.0
O356 O 0.68903 0.39488 0.12605 0.0
C357 C 0.72095 0.29394 0.11274 0.0
C358 C 0.7217 0.33818 0.04999 0.0
C359 C 0.68216 0.3799 0.10904 0.0
O360 O 0.71406 0.30266 0.09483 0.0
O361 O 0.72223 0.3261 0.12829 0.0
O362 O 0.70614 0.43748 0.07029 0.0
O363 O 0.71523 0.41135 0.10146 0.0
Co364 Co 0.54992 0.36851 0.17117 0.0
O365 O 0.53323 0.36515 0.18994 0.0
O366 O 0.55347 0.32393 0.19614 0.0
C367 C 0.54967 0.45181 0.16564 0.0
O368 O 0.56942 0.36533 0.15521 0.0
Co369 Co 0.54535 0.40437 0.12268 0.0
O370 O 0.56674 0.40499 0.12263 0.0
C371 C 0.53633 0.30373 0.13547 0.0
C372 C 0.54026 0.3334 0.202 0.0
C373 C 0.57461 0.38362 0.13712 0.0
O374 O 0.54285 0.30943 0.15392 0.0
O375 O 0.53475 0.33874 0.12125 0.0
O376 O 0.55551 0.4339 0.1835 0.0
O377 O 0.54293 0.41984 0.15357 0.0
Co378 Co 0.71347 0.86783 0.17309 0.0
O379 O 0.73086 0.86526 0.19015 0.0
O380 O 0.71102 0.90376 0.20098 0.0
C381 C 0.71309 0.78728 0.16213 0.0
O382 O 0.6935 0.8768 0.15876 0.0
Co383 Co 0.71708 0.84953 0.12259 0.0
O384 O 0.69576 0.85373 0.1231 0.0
C385 C 0.72848 0.94062 0.1426 0.0
C386 C 0.72455 0.89375 0.2045 0.0
C387 C 0.68811 0.86811 0.13942 0.0
O388 O 0.7206 0.93147 0.15947 0.0
O389 O 0.72986 0.90968 0.12659 0.0
O390 O 0.70801 0.79902 0.18147 0.0
O391 O 0.71963 0.82289 0.15192 0.0
Co392 Co 0.46132 0.11072 0.91831 0.0
O393 O 0.47885 0.10855 0.93528 0.0
O394 O 0.45928 0.06541 0.94341 0.0
C395 C 0.4609 0.19428 0.91302 0.0
O396 O 0.44111 0.1059 0.90457 0.0
Co397 Co 0.46311 0.14771 0.86953 0.0
O398 O 0.44181 0.14478 0.87158 0.0
C399 C 0.47478 0.04983 0.88151 0.0
C400 C 0.47266 0.07575 0.94786 0.0
C401 C 0.43488 0.12296 0.88701 0.0
O402 O 0.46836 0.05285 0.90017 0.0
O403 O 0.47519 0.0854 0.86738 0.0
O404 O 0.4559 0.1758 0.93136 0.0
O405 O 0.46708 0.16262 0.90011 0.0
Co406 Co 0.30332 0.62046 0.923 0.0
O407 O 0.28462 0.61347 0.93626 0.0
O408 O 0.3032 0.64917 0.95256 0.0
C409 C 0.3052 0.54281 0.90861 0.0
O410 O 0.32435 0.63304 0.91394 0.0
Co411 Co 0.30533 0.61393 0.87161 0.0
O412 O 0.32621 0.62088 0.87717 0.0
C413 C 0.29229 0.70194 0.89232 0.0
C414 C 0.28956 0.63807 0.95308 0.0
C415 C 0.33174 0.63062 0.8959 0.0
O416 O 0.29709 0.6872 0.91105 0.0
O417 O 0.29345 0.67638 0.87456 0.0
O418 O 0.30825 0.55015 0.92932 0.0
O419 O 0.29957 0.58062 0.89855 0.0
Co420 Co 0.46492 0.62343 0.84206 0.0
O421 O 0.48211 0.61753 0.82433 0.0
O422 O 0.46273 0.66071 0.81482 0.0
C423 C 0.46294 0.54326 0.85301 0.0
O424 O 0.44506 0.63611 0.85577 0.0
Co425 Co 0.46688 0.60532 0.89267 0.0
O426 O 0.44571 0.61472 0.89176 0.0
C427 C 0.48021 0.69403 0.87354 0.0
C428 C 0.47596 0.64798 0.81052 0.0
C429 C 0.43895 0.62941 0.87466 0.0
O430 O 0.47318 0.68535 0.85577 0.0
O431 O 0.48014 0.66448 0.89015 0.0
O432 O 0.45835 0.55617 0.83352 0.0
O433 O 0.47007 0.57719 0.8635 0.0
Co434 Co 0.29879 0.11677 0.84107 0.0
O435 O 0.28093 0.1144 0.82493 0.0
O436 O 0.3 0.06819 0.81707 0.0
C437 C 0.29999 0.20071 0.84388 0.0
O438 O 0.31931 0.11109 0.85375 0.0
Co439 Co 0.29944 0.16152 0.88855 0.0
O440 O 0.32049 0.16223 0.8833 0.0
C441 C 0.28734 0.06123 0.88123 0.0
C442 C 0.28667 0.07962 0.8128 0.0
C443 C 0.32651 0.13449 0.86884 0.0
O444 O 0.29154 0.0626 0.86109 0.0
O445 O 0.28887 0.09747 0.89489 0.0
O446 O 0.30454 0.17889 0.82597 0.0
O447 O 0.2939 0.17199 0.85814 0.0
C448 C 0.03746 0.70577 0.15823 0.0
C449 C 0.03215 0.74338 0.14423 0.0
C450 C 0.03433 0.65516 0.15437 0.0
C451 C 0.02539 0.64215 0.13642 0.0
C452 C 0.01843 0.68026 0.12416 0.0
C453 C 0.02211 0.73069 0.12793 0.0
C454 C 0.04186 0.61561 0.16804 0.0
C455 C 0.00799 0.6676 0.10598 0.0
C456 C 0.03982 0.52946 0.1064 0.0
C457 C 0.03258 0.49004 0.11691 0.0
C458 C 0.03696 0.57944 0.11181 0.0
C459 C 0.0262 0.59038 0.12759 0.0
C460 C 0.01792 0.551 0.13679 0.0
C461 C 0.02142 0.50095 0.13168 0.0
C462 C 0.04625 0.62016 0.10181 0.0
C463 C 1.00584 0.56111 0.15278 0.0
H464 H 0.04495 0.71536 0.17124 0.0
H465 H 0.01756 0.75981 0.11755 0.0
H466 H 0.03403 0.5876 0.17421 0.0
H467 H 0.04979 0.59529 0.15765 0.0
H468 H 0.0476 0.63206 0.18238 0.0
H469 H 1.00093 0.70006 0.10201 0.0
H470 H 0.01401 0.65729 0.09086 0.0
H471 H 1.00122 0.63494 0.11064 0.0
H472 H 0.04841 0.52125 0.09486 0.0
H473 H 0.01559 0.47051 0.13949 0.0
H474 H 0.05229 0.63992 0.11499 0.0
H475 H 0.03948 0.64846 0.09333 0.0
H476 H 0.0541 0.60502 0.08971 0.0
H477 H 0.01 0.55857 0.16987 0.0
H478 H 0.99724 0.53243 0.15101 0.0
H479 H 1.00107 0.599 0.15039 0.0
C480 C 0.22068 0.73073 0.14787 0.0
C481 C 0.22996 0.75888 0.13473 0.0
C482 C 0.22276 0.67899 0.15035 0.0
C483 C 0.23467 0.6558 0.13988 0.0
C484 C 0.24502 0.68549 0.12884 0.0
C485 C 0.24232 0.73688 0.12585 0.0
C486 C 0.21133 0.64858 0.16196 0.0
C487 C 0.25823 0.66253 0.11853 0.0
C488 C 0.23554 0.51778 0.15348 0.0
C489 C 0.22775 0.49816 0.13569 0.0
C490 C 0.2393 0.56872 0.15408 0.0
C491 C 0.23455 0.60066 0.13695 0.0
C492 C 0.22751 0.5802 0.11826 0.0
C493 C 0.2244 0.52876 0.11772 0.0
C494 C 0.24753 0.58859 0.17366 0.0
C495 C 0.22212 0.61317 0.09971 0.0
H496 H 0.21106 0.74828 0.15443 0.0
H497 H 0.24943 0.75918 0.11561 0.0
H498 H 0.20566 0.62452 0.1498 0.0
H499 H 0.21625 0.62338 0.17439 0.0
H500 H 0.20327 0.67279 0.17032 0.0
H501 H 0.26698 0.6907 0.11701 0.0
H502 H 0.2622 0.63007 0.1283 0.0
H503 H 0.25561 0.6489 0.10173 0.0
H504 H 0.23837 0.49354 0.16719 0.0
H505 H 0.21841 0.51324 0.10399 0.0
H506 H 0.2399 0.60392 0.18599 0.0
H507 H 0.25492 0.61935 0.16874 0.0
H508 H 0.25386 0.55832 0.18177 0.0
H509 H 0.21376 0.63921 0.10605 0.0
H510 H 0.21745 0.59093 0.08598 0.0
H511 H 0.23098 0.63647 0.09305 0.0
C512 C 0.97483 0.26757 0.89667 0.0
C513 C 0.98275 0.23308 0.88437 0.0
C514 C 0.97862 0.3184 0.89674 0.0
C515 C 0.99085 0.33423 0.88462 0.0
C516 C 0.99981 0.29824 0.87431 0.0
C517 C 0.99542 0.24788 0.87383 0.0
C518 C 0.96866 0.35558 0.90782 0.0
C519 C 0.01337 0.31292 0.86231 0.0
C520 C 0.98222 0.45976 0.86024 0.0
C521 C 0.98583 0.49075 0.87797 0.0
C522 C 0.98527 0.40826 0.86102 0.0
C523 C 0.99244 0.38835 0.87971 0.0
C524 C 0.99803 0.42106 0.89593 0.0
C525 C 0.99432 0.47203 0.89517 0.0
C526 C 0.97933 0.37459 0.84315 0.0
C527 C 1.0067 0.40179 0.91515 0.0
H528 H 0.96495 0.25554 0.90455 0.0
H529 H 1.00147 0.22065 0.86426 0.0
H530 H 0.97469 0.37908 0.91972 0.0
H531 H 0.96393 0.38114 0.8953 0.0
H532 H 0.95975 0.33675 0.91678 0.0
H533 H 0.02164 0.28302 0.86402 0.0
H534 H 0.01103 0.317 0.84447 0.0
H535 H 0.01786 0.3489 0.8685 0.0
H536 H 0.97575 0.47471 0.84689 0.0
H537 H 0.99739 0.49664 0.90864 0.0
H538 H 0.97078 0.3502 0.8501 0.0
H539 H 0.98787 0.34968 0.83661 0.0
H540 H 0.97471 0.39638 0.82922 0.0
H541 H 0.99937 0.3914 0.92882 0.0
H542 H 0.01412 0.43126 0.92137 0.0
H543 H 0.01304 0.36798 0.91054 0.0
C544 C 0.77173 0.47244 0.86314 0.0
C545 C 0.78361 0.4868 0.87578 0.0
C546 C 0.76717 0.42225 0.86284 0.0
C547 C 0.77524 0.38584 0.87451 0.0
C548 C 0.78693 0.40096 0.888 0.0
C549 C 0.79077 0.4517 0.8888 0.0
C550 C 0.75423 0.4086 0.84912 0.0
C551 C 0.79614 0.36327 0.90026 0.0
C552 C 0.76963 0.2512 0.88887 0.0
C553 C 0.77858 0.22856 0.87319 0.0
C554 C 0.7664 0.30248 0.88753 0.0
C555 C 0.77295 0.33151 0.87083 0.0
C556 C 0.78049 0.30746 0.85347 0.0
C557 C 0.78306 0.25567 0.85474 0.0
C558 C 0.75731 0.32635 0.90527 0.0
C559 C 0.7874 0.33716 0.8351 0.0
H560 H 0.76627 0.50017 0.85304 0.0
H561 H 0.80006 0.46339 0.89829 0.0
H562 H 0.75736 0.40709 0.83149 0.0
H563 H 0.74953 0.37182 0.85388 0.0
H564 H 0.74582 0.43807 0.85069 0.0
H565 H 0.80521 0.38138 0.90912 0.0
H566 H 0.78956 0.34257 0.91247 0.0
H567 H 0.80063 0.33524 0.88856 0.0
H568 H 0.76595 0.22958 0.90294 0.0
H569 H 0.78989 0.23764 0.84259 0.0
H570 H 0.75094 0.35819 0.89854 0.0
H571 H 0.76433 0.34121 0.91851 0.0
H572 H 0.74988 0.29852 0.9128 0.0
H573 H 0.77935 0.36182 0.82709 0.0
H574 H 0.79224 0.31243 0.82233 0.0
H575 H 0.79596 0.36166 0.84195 0.0
C576 C 0.02519 0.00391 0.62437 0.0
C577 C 0.03804 -0.00567 0.61312 0.0
C578 C 0.02074 0.05345 0.62841 0.0
C579 C 0.02975 0.09361 0.62191 0.0
C580 C 0.04243 0.08389 0.60968 0.0
C581 C 0.04626 0.03426 0.6051 0.0
C582 C 1.00678 0.06219 0.64047 0.0
C583 C 0.05253 0.12557 0.60278 0.0
C584 C 0.02479 0.23327 0.62116 0.0
C585 C 0.03273 0.24634 0.63996 0.0
C586 C 0.02188 0.18269 0.61642 0.0
C587 C 0.02745 0.14498 0.63044 0.0
C588 C 0.03391 0.15831 0.65069 0.0
C589 C 0.03631 0.20901 0.65532 0.0
C590 C 0.01397 0.16949 0.59551 0.0
C591 C 0.03977 0.11908 0.66631 0.0
H592 H 0.01869 0.97275 0.63015 0.0
H593 H 0.05618 0.0266 0.59632 0.0
H594 H 0.00866 0.05915 0.65847 0.0
H595 H 1.00219 0.09987 0.63693 0.0
H596 H 0.99876 0.03306 0.63594 0.0
H597 H 0.06186 0.11134 0.59321 0.0
H598 H 0.04676 0.15359 0.59255 0.0
H599 H 0.05664 0.14541 0.61759 0.0
H600 H 0.02148 0.26211 0.6096 0.0
H601 H 0.04202 0.21888 0.67028 0.0
H602 H 1.00696 0.13623 0.59807 0.0
H603 H 0.02183 0.15991 0.58242 0.0
H604 H 0.00732 0.20146 0.58959 0.0
H605 H 0.03145 0.09049 0.67 0.0
H606 H 0.04348 0.13572 0.6821 0.0
H607 H 0.04897 0.09941 0.65848 0.0
C608 C 0.22563 0.02242 0.64774 0.0
C609 C 0.23289 0.98318 0.63713 0.0
C610 C 0.22846 0.07243 0.64243 0.0
C611 C 0.2392 0.08346 0.62662 0.0
C612 C 0.24758 0.04424 0.61747 0.0
C613 C 0.24412 -0.0058 0.62252 0.0
C614 C 0.2191 0.11304 0.65242 0.0
C615 C 0.25965 0.05444 0.60149 0.0
C616 C 0.22668 0.1966 0.59589 0.0
C617 C 0.23166 0.23489 0.60981 0.0
C618 C 0.23048 0.14653 0.59962 0.0
C619 C 0.23968 0.13485 0.61744 0.0
C620 C 0.24636 0.17386 0.62947 0.0
C621 C 0.24207 0.2237 0.62579 0.0
C622 C 0.22336 0.10595 0.58604 0.0
C623 C 0.2571 0.16264 0.64743 0.0
H624 H 0.21701 0.01408 0.65919 0.0
H625 H 0.25 0.96384 0.61468 0.0
H626 H 0.22583 0.14176 0.6607 0.0
H627 H 0.21291 0.13228 0.63926 0.0
H628 H 0.21138 0.09787 0.66469 0.0
H629 H 0.26846 0.02672 0.60376 0.0
H630 H 0.25562 0.05017 0.5844 0.0
H631 H 0.26409 0.09293 0.60339 0.0
H632 H 0.21898 0.20513 0.58302 0.0
H633 H 0.24642 0.25345 0.63602 0.0
H634 H 0.21574 0.0845 0.59651 0.0
H635 H 0.2315 0.07911 0.57975 0.0
H636 H 0.21735 0.12156 0.57178 0.0
H637 H 0.25133 0.15246 0.66278 0.0
H638 H 0.26397 0.19581 0.65098 0.0
H639 H 0.26405 0.13036 0.64279 0.0
C640 C 0.98615 0.97414 0.35413 0.0
C641 C 0.98824 0.00064 0.37375 0.0
C642 C 0.98868 0.92221 0.35341 0.0
C643 C 0.9935 0.89738 0.37271 0.0
C644 C 0.99801 0.92573 0.39113 0.0
C645 C 0.9951 0.97729 0.39158 0.0
C646 C 0.98412 0.8932 0.3332 0.0
C647 C 1.00398 0.90079 0.4115 0.0
C648 C 0.97117 0.78296 0.38509 0.0
C649 C 0.97983 0.7447 0.37678 0.0
C650 C 0.97585 0.83278 0.38467 0.0
C651 C 0.98962 0.84403 0.37592 0.0
C652 C 0.99879 0.80477 0.36881 0.0
C653 C 0.99364 0.75522 0.36899 0.0
C654 C 0.96567 0.87353 0.3924 0.0
C655 C 0.01366 0.81489 0.35999 0.0
H656 H 0.98104 0.99261 0.34026 0.0
H657 H 0.99707 -0.00156 0.40657 0.0
H658 H 0.99208 0.86357 0.32916 0.0
H659 H 0.97369 0.8744 0.33649 0.0
H660 H 0.98281 0.91813 0.31865 0.0
H661 H 0.99502 0.88532 0.42145 0.0
H662 H 0.01119 0.86911 0.40701 0.0
H663 H 0.00999 0.92795 0.42193 0.0
H664 H 0.96041 0.77413 0.39079 0.0
H665 H 1.00019 0.72505 0.36232 0.0
H666 H 0.9633 0.8998 0.37866 0.0
H667 H 0.97067 0.89566 0.40585 0.0
H668 H 0.95533 0.85806 0.39856 0.0
H669 H 0.01301 0.8224 0.34204 0.0
H670 H 0.02079 0.78178 0.36236 0.0
H671 H 0.01863 0.8481 0.36802 0.0
C672 C 0.77103 0.76383 0.39943 0.0
C673 C 0.77666 0.74013 0.38067 0.0
C674 C 0.7682 0.81545 0.39937 0.0
C675 C 0.77141 0.84353 0.38025 0.0
C676 C 0.77494 0.81842 0.36037 0.0
C677 C 0.7775 0.76651 0.3608 0.0
C678 C 0.76369 0.84061 0.42057 0.0
C679 C 0.77802 0.84716 0.33945 0.0
C680 C 0.77028 0.98554 0.37586 0.0
C681 C 0.78461 -0.00306 0.38066 0.0
C682 C 0.76538 0.93573 0.37702 0.0
C683 C 0.77524 0.89718 0.38255 0.0
C684 C 0.78956 0.90941 0.38849 0.0
C685 C 0.79405 0.95939 0.38748 0.0
C686 C 0.74998 0.9245 0.37111 0.0
C687 C 0.80043 0.86947 0.39463 0.0
H688 H 0.76994 0.74285 0.41468 0.0
H689 H 0.78161 0.74788 0.3462 0.0
H690 H 0.77334 0.85504 0.42922 0.0
H691 H 0.75646 0.87299 0.41727 0.0
H692 H 0.75815 0.81378 0.43174 0.0
H693 H 0.77832 0.82204 0.32482 0.0
H694 H 0.7698 0.8767 0.33671 0.0
H695 H 0.78861 0.86607 0.34093 0.0
H696 H 0.76311 0.01515 0.37036 0.0
H697 H 0.80515 0.9689 0.39094 0.0
H698 H 0.74588 0.89099 0.38001 0.0
H699 H 0.74923 0.91697 0.35317 0.0
H700 H 0.74292 0.95713 0.37485 0.0
H701 H 0.79645 0.84692 0.40872 0.0
H702 H 0.81101 0.88575 0.39921 0.0
H703 H 0.80208 0.84343 0.38055 0.0
C704 C 0.52287 0.73221 0.61483 0.0
C705 C 0.52661 0.75048 0.63571 0.0
C706 C 0.52048 0.68066 0.61166 0.0
C707 C 0.52216 0.64749 0.6297 0.0
C708 C 0.52355 0.66693 0.65127 0.0
C709 C 0.52572 0.71848 0.65402 0.0
C710 C 0.51805 0.66114 0.58863 0.0
C711 C 0.52493 0.63295 0.67109 0.0
C712 C 0.52254 0.50532 0.62431 0.0
C713 C 0.53712 0.49713 0.62005 0.0
C714 C 0.51723 0.55442 0.62682 0.0
C715 C 0.52691 0.59534 0.62556 0.0
C716 C 0.5417 0.58669 0.62136 0.0
C717 C 0.54656 0.53758 0.61829 0.0
C718 C 0.50132 0.56234 0.63017 0.0
C719 C 0.5525 0.62914 0.62041 0.0
H720 H 0.52304 0.75712 0.6007 0.0
H721 H 0.52798 0.73289 0.67037 0.0
H722 H 0.52846 0.64879 0.58152 0.0
H723 H 0.51073 0.62822 0.58878 0.0
H724 H 0.51348 0.69069 0.57774 0.0
H725 H 0.52295 0.65367 0.68671 0.0
H726 H 0.51733 0.60096 0.67008 0.0
H727 H 0.53598 0.61726 0.67164 0.0
H728 H 0.51528 0.47348 0.62516 0.0
H729 H 0.55783 0.53058 0.6149 0.0
H730 H 0.49645 0.57429 0.61433 0.0
H731 H 0.49916 0.59243 0.64239 0.0
H732 H 0.49589 0.52728 0.63561 0.0
H733 H 0.54979 0.65506 0.60671 0.0
H734 H 0.56365 0.61539 0.61788 0.0
H735 H 0.55219 0.65116 0.63593 0.0
C736 C 0.7403 0.73147 0.62411 0.0
C737 C 0.72632 0.73948 0.61635 0.0
C738 C 0.74552 0.68241 0.62713 0.0
C739 C 0.7363 0.64122 0.62298 0.0
C740 C 0.72227 0.64953 0.61462 0.0
C741 C 0.71757 0.69866 0.61104 0.0
C742 C 0.76083 0.67469 0.63464 0.0
C743 C 0.71191 0.60675 0.61044 0.0
C744 C 0.74163 0.50276 0.61753 0.0
C745 C 0.73573 0.48724 0.63767 0.0
C746 C 0.74412 0.55394 0.61345 0.0
C747 C 0.74026 0.58966 0.62968 0.0
C748 C 0.73634 0.5735 0.65103 0.0
C749 C 0.73423 0.52229 0.65481 0.0
C750 C 0.74931 0.57001 0.59099 0.0
C751 C 0.73235 0.61031 0.669 0.0
H752 H 0.74713 0.76349 0.62762 0.0
H753 H 0.70678 0.7053 0.60495 0.0
H754 H 0.76138 0.64768 0.64853 0.0
H755 H 0.76715 0.65835 0.62089 0.0
H756 H 0.76598 0.71052 0.63976 0.0
H757 H 0.70132 0.6201 0.60433 0.0
H758 H 0.71645 0.58048 0.59806 0.0
H759 H 0.71014 0.58518 0.62585 0.0
H760 H 0.74333 0.47566 0.60444 0.0
H761 H 0.73022 0.5104 0.67074 0.0
H762 H 0.7562 0.60395 0.59218 0.0
H763 H 0.73995 0.57951 0.58048 0.0
H764 H 0.75544 0.53944 0.58275 0.0
H765 H 0.74018 0.64162 0.66988 0.0
H766 H 0.7318 0.59191 0.68542 0.0
H767 H 0.72166 0.6268 0.6653 0.0
C768 C 0.4885 0.47088 0.3953 0.0
C769 C 0.47653 0.48554 0.38291 0.0
C770 C 0.49333 0.421 0.39475 0.0
C771 C 0.48554 0.38532 0.38231 0.0
C772 C 0.47378 0.40079 0.36906 0.0
C773 C 0.46958 0.45124 0.36924 0.0
C774 C 0.50641 0.40618 0.40796 0.0
C775 C 0.46491 0.36358 0.35602 0.0
C776 C 0.49303 0.25201 0.36677 0.0
C777 C 0.48427 0.22725 0.38204 0.0
C778 C 0.49539 0.3038 0.3685 0.0
C779 C 0.48817 0.33101 0.38519 0.0
C780 C 0.48057 0.30511 0.40194 0.0
C781 C 0.47893 0.253 0.40034 0.0
C782 C 0.50428 0.32984 0.35113 0.0
C783 C 0.47246 0.33277 0.4198 0.0
H784 H 0.49382 0.49817 0.40578 0.0
H785 H 0.46025 0.46319 0.35991 0.0
H786 H 0.50378 0.37544 0.41963 0.0
H787 H 0.51481 0.39156 0.39667 0.0
H788 H 0.51091 0.4383 0.41743 0.0
H789 H 0.45604 0.38202 0.34679 0.0
H790 H 0.47179 0.34322 0.34407 0.0
H791 H 0.46018 0.33519 0.36728 0.0
H792 H 0.4973 0.23146 0.35277 0.0
H793 H 0.47214 0.23341 0.41205 0.0
H794 H 0.51014 0.36243 0.35818 0.0
H795 H 0.49714 0.34408 0.33789 0.0
H796 H 0.51214 0.30358 0.34351 0.0
H797 H 0.4791 0.36309 0.42706 0.0
H798 H 0.46896 0.30714 0.43322 0.0
H799 H 0.46277 0.35061 0.41253 0.0
C800 C 0.28283 0.48111 0.39603 0.0
C801 C 0.27626 0.50875 0.37928 0.0
C802 C 0.28108 0.42893 0.39702 0.0
C803 C 0.27212 0.40488 0.38134 0.0
C804 C 0.2638 0.43396 0.36659 0.0
C805 C 0.26631 0.48577 0.36526 0.0
C806 C 0.29018 0.39925 0.41302 0.0
C807 C 0.2533 0.41005 0.35082 0.0
C808 C 0.28856 0.28435 0.36076 0.0
C809 C 0.283 0.25007 0.37588 0.0
C810 C 0.28443 0.33491 0.36156 0.0
C811 C 0.27406 0.35049 0.37732 0.0
C812 C 0.26736 0.31462 0.3911 0.0
C813 C 0.27223 0.2648 0.39063 0.0
C814 C 0.29208 0.37213 0.34682 0.0
C815 C 0.2557 0.32879 0.40723 0.0
H816 H 0.29056 0.4994 0.40673 0.0
H817 H 0.26119 0.5077 0.35239 0.0
H818 H 0.28336 0.37366 0.4229 0.0
H819 H 0.29799 0.37568 0.40379 0.0
H820 H 0.29625 0.42393 0.42449 0.0
H821 H 0.24468 0.43695 0.34616 0.0
H822 H 0.25898 0.39882 0.33553 0.0
H823 H 0.24833 0.37595 0.35811 0.0
H824 H 0.29695 0.27242 0.3495 0.0
H825 H 0.2679 0.23767 0.40221 0.0
H826 H 0.29767 0.40079 0.357 0.0
H827 H 0.28423 0.39217 0.33627 0.0
H828 H 0.30013 0.35374 0.33595 0.0
H829 H 0.26052 0.33552 0.42368 0.0
H830 H 0.24786 0.29757 0.40909 0.0
H831 H 0.24984 0.36323 0.40209 0.0
C832 C 0.54425 0.21766 0.12859 0.0
C833 C 0.53298 0.25224 0.12907 0.0
C834 C 0.5417 0.1671 0.12412 0.0
C835 C 0.52741 0.15066 0.12053 0.0
C836 C 0.51596 0.1858 0.12048 0.0
C837 C 0.51892 0.23677 0.12463 0.0
C838 C 0.55432 0.13118 0.12381 0.0
C839 C 0.50059 0.16957 0.11707 0.0
C840 C 0.53095 0.02365 0.09548 0.0
C841 C 0.53287 -0.00519 0.11463 0.0
C842 C 0.52696 0.07426 0.09684 0.0
C843 C 0.52491 0.09614 0.11783 0.0
C844 C 0.5247 0.06537 0.13684 0.0
C845 C 0.52877 0.01482 0.13505 0.0
C846 C 0.52679 0.1055 0.07609 0.0
C847 C 0.52197 0.0872 0.15942 0.0
H848 H 0.55512 0.23031 0.13191 0.0
H849 H 0.51026 0.26403 0.12521 0.0
H850 H 0.55325 0.10348 0.13738 0.0
H851 H 0.55455 0.10996 0.10808 0.0
H852 H 0.56477 0.15085 0.12576 0.0
H853 H 0.49374 0.20147 0.11162 0.0
H854 H 0.49979 0.13875 0.1048 0.0
H855 H 0.49624 0.15529 0.13289 0.0
H856 H 0.5335 0.00774 0.07949 0.0
H857 H 0.52977 0.99227 0.14985 0.0
H858 H 0.53727 0.12503 0.07436 0.0
H859 H 0.51826 0.13463 0.07676 0.0
H860 H 0.52511 0.08181 0.06122 0.0
H861 H 0.53182 0.1065 0.16528 0.0
H862 H 0.51912 0.05755 0.17155 0.0
H863 H 0.51319 0.11544 0.15885 0.0
C864 C 0.73189 0.02709 0.1572 0.0
C865 C 0.73464 0.99153 0.14064 0.0
C866 C 0.73408 0.07827 0.15336 0.0
C867 C 0.73944 0.09377 0.13267 0.0
C868 C 0.74455 0.05762 0.11748 0.0
C869 C 0.74188 0.00656 0.12147 0.0
C870 C 0.72897 0.11576 0.17035 0.0
C871 C 0.75148 0.07314 0.09608 0.0
C872 C 0.71837 0.20205 0.10933 0.0
C873 C 0.72657 0.24314 0.11617 0.0
C874 C 0.72279 0.15305 0.11397 0.0
C875 C 0.73605 0.14511 0.12497 0.0
C876 C 0.74487 0.18653 0.13054 0.0
C877 C 0.73983 0.23541 0.12652 0.0
C878 C 0.71286 0.11004 0.10814 0.0
C879 C 0.75935 0.17997 0.14132 0.0
H880 H 0.7269 0.01557 0.17253 0.0
H881 H 0.74461 0.97905 0.10897 0.0
H882 H 0.73732 0.14467 0.17332 0.0
H883 H 0.71923 0.1353 0.16416 0.0
H884 H 0.72631 0.09755 0.18631 0.0
H885 H 0.75807 0.04219 0.08903 0.0
H886 H 0.74304 0.08311 0.08395 0.0
H887 H 0.75839 0.10674 0.09851 0.0
H888 H 0.70813 0.20835 0.10128 0.0
H889 H 0.74628 0.2675 0.13141 0.0
H890 H 0.70995 0.08874 0.12322 0.0
H891 H 0.71833 0.08361 0.09676 0.0
H892 H 0.70279 0.12312 0.10013 0.0
H893 H 0.75828 0.18615 0.15932 0.0
H894 H 0.76704 0.20849 0.13503 0.0
H895 H 0.76394 0.14196 0.13852 0.0
C896 C 0.49259 0.76617 0.85613 0.0
C897 C 0.48732 0.74307 0.87525 0.0
C898 C 0.49553 0.81772 0.85585 0.0
C899 C 0.49269 0.84643 0.87495 0.0
C900 C 0.48934 0.82201 0.89505 0.0
C901 C 0.48676 0.77013 0.89499 0.0
C902 C 0.4999 0.84214 0.83444 0.0
C903 C 0.48652 0.85142 0.91591 0.0
C904 C 0.49473 0.98825 0.8796 0.0
C905 C 0.4804 0.00075 0.87541 0.0
C906 C 0.49934 0.93811 0.87802 0.0
C907 C 0.48921 0.90039 0.87263 0.0
C908 C 0.4749 0.91382 0.86713 0.0
C909 C 0.47069 0.96406 0.86861 0.0
C910 C 0.51475 0.92557 0.88346 0.0
C911 C 0.46373 0.87483 0.86115 0.0
H912 H 0.49343 0.74469 0.84098 0.0
H913 H 0.48288 0.75198 0.90984 0.0
H914 H 0.49022 0.85723 0.82606 0.0
H915 H 0.50736 0.87399 0.83741 0.0
H916 H 0.50513 0.8147 0.82318 0.0
H917 H 0.48614 0.82667 0.93065 0.0
H918 H 0.49494 0.88033 0.91847 0.0
H919 H 0.47606 0.8712 0.91448 0.0
H920 H 0.50213 0.01716 0.88509 0.0
H921 H 0.45958 0.97442 0.86559 0.0
H922 H 0.51855 0.892 0.87427 0.0
H923 H 0.51565 0.91749 0.90133 0.0
H924 H 0.52194 0.95776 0.8797 0.0
H925 H 0.46746 0.85204 0.84695 0.0
H926 H 0.45323 0.89202 0.85679 0.0
H927 H 0.46205 0.84886 0.87522 0.0
C928 C 0.27744 0.77088 0.90795 0.0
C929 C 0.28634 0.75279 0.8911 0.0
C930 C 0.27335 0.82159 0.90856 0.0
C931 C 0.27897 0.85492 0.89257 0.0
C932 C 0.28745 0.8361 0.87497 0.0
C933 C 0.29078 0.78486 0.87423 0.0
C934 C 0.26367 0.8393 0.92695 0.0
C935 C 0.29396 0.87051 0.85782 0.0
C936 C 0.27074 0.98895 0.87862 0.0
C937 C 0.28212 0.013 0.88935 0.0
C938 C 0.26818 0.93767 0.88206 0.0
C939 C 0.27779 0.90999 0.89541 0.0
C940 C 0.28843 0.93535 0.90787 0.0
C941 C 0.29031 0.9871 0.90492 0.0
C942 C 0.25603 0.9124 0.8699 0.0
C943 C 0.29892 0.90712 0.92229 0.0
H944 H 0.27389 0.74557 0.92087 0.0
H945 H 0.29772 0.77054 0.86131 0.0
H946 H 0.27021 0.84664 0.94189 0.0
H947 H 0.2578 0.87425 0.92257 0.0
H948 H 0.25574 0.80971 0.93127 0.0
H949 H 0.30052 0.8497 0.84553 0.0
H950 H 0.2854 0.8911 0.84891 0.0
H951 H 0.30092 0.89891 0.86594 0.0
H952 H 0.26435 0.00959 0.86671 0.0
H953 H 0.29911 0.0062 0.91309 0.0
H954 H 0.25119 0.88212 0.88008 0.0
H955 H 0.26017 0.89505 0.85454 0.0
H956 H 0.24753 0.93983 0.86532 0.0
H957 H 0.29307 0.883 0.93416 0.0
H958 H 0.30607 0.93281 0.93167 0.0
H959 H 0.3057 0.88215 0.91192 0.0
C960 C 0.98373 0.54034 0.97801 0.0
C961 C 0.98903 0.56672 0.95973 0.0
C962 C 0.9931 0.5149 0.9925 0.0
C963 C 0.00811 0.51478 0.98834 0.0
C964 C 0.01349 0.54162 0.96997 0.0
C965 C 1.00394 0.5676 0.95608 0.0
C966 C 0.98692 0.4876 0.01212 0.0
C967 C 0.02933 0.54165 0.96457 0.0
C968 C 0.0342 0.48167 0.03475 0.0
C969 C 0.03635 0.43007 0.03135 0.0
C970 C 0.02502 0.50967 0.02097 0.0
C971 C 0.01816 0.48579 0.00291 0.0
C972 C 0.0208 0.43397 0.99894 0.0
C973 C 0.02959 0.40648 0.01352 0.0
C974 C 0.0222 0.56427 0.0263 0.0
C975 C 0.01415 0.40738 0.97947 0.0
H976 H 0.97225 0.53926 0.98091 0.0
H977 H 0.00815 0.58726 0.94185 0.0
H978 H 0.98892 0.44662 0.01049 0.0
H979 H 0.99231 0.50029 0.02745 0.0
H980 H 0.97517 0.4938 0.01384 0.0
H981 H 0.03183 0.5649 0.94985 0.0
H982 H 0.03559 0.5562 0.97874 0.0
H983 H 0.03301 0.50257 0.96145 0.0
H984 H 0.03911 0.49955 0.04894 0.0
H985 H 0.03107 0.36638 0.01114 0.0
H986 H 0.01057 0.56992 0.02954 0.0
H987 H 0.02507 0.5883 0.01203 0.0
H988 H 0.02835 0.57725 0.04092 0.0
H989 H 1.00229 0.407 0.98116 0.0
H990 H 0.018 0.36797 0.97785 0.0
H991 H 0.01672 0.42793 0.96407 0.0
C992 C 0.26467 0.657 0.9664 0.0
C993 C 0.27957 0.65844 0.97011 0.0
C994 C 0.25496 0.68111 0.98069 0.0
C995 C 0.26017 0.70671 0.99952 0.0
C996 C 0.27516 0.70673 0.00384 0.0
C997 C 0.28469 0.68309 0.98899 0.0
C998 C 0.23915 0.68084 0.97513 0.0
C999 C 0.28117 0.73272 0.02393 0.0
C1000 C 0.23826 0.81443 0.02425 0.0
C1001 C 0.23113 0.79062 0.04168 0.0
C1002 C 0.2474 0.78727 0.01007 0.0
C1003 C 0.24999 0.73544 0.01402 0.0
C1004 C 0.24281 0.71131 0.03173 0.0
C1005 C 0.2333 0.73905 0.04514 0.0
C1006 C 0.2544 0.81422 0.99099 0.0
C1007 C 0.24556 0.65666 0.037 0.0
H1008 H 0.26056 0.63851 0.95179 0.0
H1009 H 0.29616 0.68455 0.99199 0.0
H1010 H 0.23284 0.66586 0.98917 0.0
H1011 H 0.23542 0.71992 0.97214 0.0
H1012 H 0.23675 0.65787 0.96029 0.0
H1013 H 0.29287 0.72588 0.02595 0.0
H1014 H 0.27935 0.77387 0.02263 0.0
H1015 H 0.27552 0.71958 0.03896 0.0
H1016 H 0.23671 0.85447 0.02177 0.0
H1017 H 0.22808 0.72095 0.059 0.0
H1018 H 0.2521 0.79405 0.97537 0.0
H1019 H 0.26622 0.81449 0.99316 0.0
H1020 H 0.25061 0.8537 0.98937 0.0
H1021 H 0.24335 0.6329 0.02237 0.0
H1022 H 0.23888 0.6431 0.05095 0.0
H1023 H 0.25705 0.65138 0.04132 0.0
C1024 C 0.02197 0.84629 0.23581 0.0
C1025 C 0.03322 0.82091 0.22515 0.0
C1026 C 0.01248 0.82075 0.25003 0.0
C1027 C 0.01384 0.76801 0.25292 0.0
C1028 C 0.02525 0.74228 0.24222 0.0
C1029 C 0.03493 0.76916 0.22878 0.0
C1030 C 1.00087 0.85014 0.26171 0.0
C1031 C 0.02693 0.686 0.24431 0.0
C1032 C 0.99713 0.70326 0.30281 0.0
C1033 C 0.98403 0.68551 0.29442 0.0
C1034 C 1.00672 0.73094 0.28968 0.0
C1035 C 1.00343 0.73984 0.26724 0.0
C1036 C 0.99022 0.72164 0.25859 0.0
C1037 C 0.98054 0.69555 0.27241 0.0
C1038 C 0.02031 0.75126 0.29995 0.0
C1039 C 0.98643 0.72908 0.23465 0.0
H1040 H 0.02052 0.8862 0.23285 0.0
H1041 H 0.04337 0.74914 0.22012 0.0
H1042 H 0.99016 0.8378 0.25584 0.0
H1043 H 1.00131 0.84276 0.2797 0.0
H1044 H 1.00186 0.89131 0.25894 0.0
H1045 H 0.03614 0.67141 0.23458 0.0
H1046 H 0.02852 0.67555 0.26183 0.0
H1047 H 0.01698 0.66704 0.23861 0.0
H1048 H 0.99977 0.69638 0.31995 0.0
H1049 H 0.97042 0.68193 0.26588 0.0
H1050 H 0.02053 0.79285 0.2984 0.0
H1051 H 0.02985 0.73643 0.29114 0.0
H1052 H 0.02125 0.74127 0.31767 0.0
H1053 H 0.9858 0.76982 0.23083 0.0
H1054 H 0.97602 0.7113 0.23026 0.0
H1055 H 0.99498 0.71284 0.22406 0.0
C1056 C 0.24833 0.42595 0.20927 0.0
C1057 C 0.2342 0.413 0.21507 0.0
C1058 C 0.25731 0.45244 0.22382 0.0
C1059 C 0.25226 0.46518 0.24511 0.0
C1060 C 0.2381 0.45114 0.25131 0.0
C1061 C 0.22915 0.42602 0.23607 0.0
C1062 C 0.27209 0.46801 0.21615 0.0
C1063 C 0.2324 0.46291 0.274 0.0
C1064 C 0.28072 0.4976 0.28834 0.0
C1065 C 0.2797 0.55018 0.28933 0.0
C1066 C 0.27168 0.46939 0.27439 0.0
C1067 C 0.2617 0.49444 0.26053 0.0
C1068 C 0.26097 0.54773 0.26104 0.0
C1069 C 0.26976 0.57481 0.27573 0.0
C1070 C 0.27257 0.4127 0.27489 0.0
C1071 C 0.25085 0.5762 0.24609 0.0
H1072 H 0.25226 0.41687 0.19293 0.0
H1073 H 0.21824 0.41625 0.24063 0.0
H1074 H 0.27306 0.5096 0.21676 0.0
H1075 H 0.2804 0.4523 0.22729 0.0
H1076 H 0.2744 0.45531 0.19907 0.0
H1077 H 0.22154 0.44675 0.27677 0.0
H1078 H 0.23982 0.44796 0.28673 0.0
H1079 H 0.2318 0.50424 0.27634 0.0
H1080 H 0.28815 0.47833 0.29922 0.0
H1081 H 0.26886 0.61544 0.27659 0.0
H1082 H 0.27554 0.3982 0.25837 0.0
H1083 H 0.2619 0.39672 0.27909 0.0
H1084 H 0.28056 0.39888 0.28707 0.0
H1085 H 0.25287 0.56577 0.22866 0.0
H1086 H 0.25201 0.61761 0.2478 0.0
H1087 H 0.23958 0.56589 0.24989 0.0
C1088 C 0.78024 0.23111 0.96441 0.0
C1089 C 0.7788 0.17911 0.96124 0.0
C1090 C 0.77052 0.25795 0.97781 0.0
C1091 C 0.75933 0.23197 0.9889 0.0
C1092 C 0.75806 0.1792 0.98609 0.0
C1093 C 0.76763 0.15365 0.972 0.0
C1094 C 0.77206 0.31429 0.97981 0.0
C1095 C 0.74663 0.14963 0.99805 0.0
C1096 C 0.74431 0.29293 0.04084 0.0
C1097 C 0.73088 0.31096 0.03384 0.0
C1098 C 0.75349 0.26668 0.02651 0.0
C1099 C 0.74942 0.25946 0.00427 0.0
C1100 C 0.7359 0.27801 0.99698 0.0
C1101 C 0.72665 0.30275 0.01198 0.0
C1102 C 0.76751 0.24623 0.0353 0.0
C1103 C 0.73132 0.27229 0.97327 0.0
H1104 H 0.78863 0.25117 0.95569 0.0
H1105 H 0.7664 0.11351 0.96944 0.0
H1106 H 0.76186 0.33294 0.97499 0.0
H1107 H 0.77426 0.32469 0.99718 0.0
H1108 H 0.78086 0.32921 0.96933 0.0
H1109 H 0.74724 0.1087 0.99445 0.0
H1110 H 0.74773 0.15519 0.01609 0.0
H1111 H 0.73582 0.16345 0.9933 0.0
H1112 H 0.74755 0.2985 0.05782 0.0
H1113 H 0.71631 0.31673 0.00649 0.0
H1114 H 0.77665 0.2637 0.02646 0.0
H1115 H 0.76811 0.20506 0.03238 0.0
H1116 H 0.76883 0.25334 0.05323 0.0
H1117 H 0.73948 0.28941 0.96225 0.0
H1118 H 0.72075 0.29025 0.96999 0.0
H1119 H 0.73061 0.23185 0.96892 0.0
C1120 C 0.9936 0.16155 0.78322 0.0
C1121 C 0.98331 0.18773 0.79561 0.0
C1122 C 1.00314 0.18705 0.76911 0.0
C1123 C 1.00281 0.24033 0.76799 0.0
C1124 C 0.99255 0.26699 0.7808 0.0
C1125 C 0.98278 0.24033 0.79417 0.0
C1126 C 0.01349 0.15686 0.75522 0.0
C1127 C 0.99209 0.32375 0.78073 0.0
C1128 C 0.03592 0.30577 0.74343 0.0
C1129 C 0.031 0.31809 0.72228 0.0
C1130 C 0.02677 0.28161 0.75875 0.0
C1131 C 0.0126 0.2678 0.75246 0.0
C1132 C 0.00778 0.27934 0.73093 0.0
C1133 C 0.01691 0.3049 0.71634 0.0
C1134 C 0.03221 0.27126 0.78172 0.0
C1135 C 0.993 0.26403 0.72314 0.0
H1136 H 0.99413 0.1209 0.7845 0.0
H1137 H 0.97511 0.26078 0.80421 0.0
H1138 H 0.01182 0.16561 0.73753 0.0
H1139 H 0.0247 0.16726 0.75933 0.0
H1140 H 0.01219 0.11569 0.75764 0.0
H1141 H 0.98356 0.33889 0.79169 0.0
H1142 H 1.00261 0.33884 0.78621 0.0
H1143 H 0.99019 0.33784 0.76378 0.0
H1144 H 0.04677 0.31592 0.74812 0.0
H1145 H 0.01309 0.31357 0.6999 0.0
H1146 H 0.03236 0.23016 0.78482 0.0
H1147 H 0.02484 0.28834 0.79402 0.0
H1148 H 0.04319 0.28634 0.7844 0.0
H1149 H 0.99165 0.22274 0.72488 0.0
H1150 H 0.99104 0.27442 0.70567 0.0
H1151 H 0.98466 0.28224 0.73349 0.0
C1152 C 0.74481 0.45489 0.71156 0.0
C1153 C 0.73301 0.42762 0.71948 0.0
C1154 C 0.75366 0.48266 0.72579 0.0
C1155 C 0.75103 0.48171 0.74876 0.0
C1156 C 0.73905 0.45425 0.7569 0.0
C1157 C 0.73001 0.42814 0.74208 0.0
C1158 C 0.76596 0.51253 0.7162 0.0
C1159 C 0.73605 0.45125 0.78129 0.0
C1160 C 0.78347 0.51008 0.78529 0.0
C1161 C 0.78065 0.55946 0.79221 0.0
C1162 C 0.77376 0.48401 0.77164 0.0
C1163 C 0.7611 0.50834 0.76413 0.0
C1164 C 0.7584 0.55869 0.77066 0.0
C1165 C 0.76807 0.5833 0.7849 0.0
C1166 C 0.77693 0.43004 0.76557 0.0
C1167 C 0.7453 0.58665 0.76255 0.0
H1168 H 0.74712 0.45458 0.69405 0.0
H1169 H 0.72095 0.40673 0.74821 0.0
H1170 H 0.76554 0.55197 0.72217 0.0
H1171 H 0.77632 0.49626 0.72172 0.0
H1172 H 0.76579 0.51284 0.69789 0.0
H1173 H 0.72625 0.42897 0.785 0.0
H1174 H 0.74533 0.43371 0.78984 0.0
H1175 H 0.73471 0.48957 0.78823 0.0
H1176 H 0.79301 0.49105 0.79126 0.0
H1177 H 0.76579 0.62134 0.79032 0.0
H1178 H 0.77811 0.42653 0.74746 0.0
H1179 H 0.76782 0.40565 0.77056 0.0
H1180 H 0.78688 0.41581 0.77352 0.0
H1181 H 0.7452 0.58726 0.74427 0.0
H1182 H 0.74492 0.62602 0.76868 0.0
H1183 H 0.73542 0.56697 0.76797 0.0
C1184 C 0.98559 0.00225 0.46058 0.0
C1185 C 0.98638 0.05478 0.45893 0.0
C1186 C 0.99527 0.97514 0.47392 0.0
C1187 C 1.00573 0.00128 0.48649 0.0
C1188 C 1.00635 0.05452 0.48516 0.0
C1189 C 0.99688 0.08047 0.47107 0.0
C1190 C 0.99449 0.91843 0.47423 0.0
C1191 C 0.01696 0.08414 0.49877 0.0
C1192 C 0.01978 0.93583 0.53798 0.0
C1193 C 0.0337 0.92111 0.53176 0.0
C1194 C 0.01073 0.9623 0.52355 0.0
C1195 C 0.01547 0.97327 0.50193 0.0
C1196 C 0.02946 0.9579 0.49535 0.0
C1197 C 0.03853 0.9328 0.51049 0.0
C1198 C 0.99614 0.97911 0.53161 0.0
C1199 C 0.03478 0.96758 0.47226 0.0
H1200 H 0.97777 0.98213 0.45071 0.0
H1201 H 0.99762 0.12103 0.4696 0.0
H1202 H 0.99235 0.90494 0.4912 0.0
H1203 H 0.98596 0.90369 0.46317 0.0
H1204 H 1.00496 0.90234 0.46904 0.0
H1205 H 0.0159 0.12536 0.49619 0.0
H1206 H 0.01534 0.07592 0.51653 0.0
H1207 H 0.02809 0.07272 0.49456 0.0
H1208 H 0.01602 0.92767 0.55451 0.0
H1209 H 0.04925 0.92149 0.50558 0.0
H1210 H 0.98759 0.96155 0.52148 0.0
H1211 H 0.99506 0.02049 0.52978 0.0
H1212 H 0.99426 0.96915 0.54914 0.0
H1213 H 0.02723 0.95087 0.46014 0.0
H1214 H 0.04566 0.95167 0.46942 0.0
H1215 H 0.03512 0.00863 0.46905 0.0
C1216 C 0.28318 0.21858 0.46999 0.0
C1217 C 0.27912 0.17472 0.45873 0.0
C1218 C 0.27345 0.24409 0.48392 0.0
C1219 C 0.25934 0.22504 0.48694 0.0
C1220 C 0.25532 0.18011 0.47601 0.0
C1221 C 0.26519 0.15581 0.46199 0.0
C1222 C 0.27818 0.29201 0.49509 0.0
C1223 C 0.24053 0.15789 0.47896 0.0
C1224 C 0.2391 0.26548 0.53869 0.0
C1225 C 0.22973 0.30247 0.53064 0.0
C1226 C 0.24853 0.23945 0.52464 0.0
C1227 C 0.24889 0.25137 0.5019 0.0
C1228 C 0.2393 0.2885 0.4936 0.0
C1229 C 0.22976 0.31349 0.50809 0.0
C1230 C 0.25831 0.19977 0.53427 0.0
C1231 C 0.23939 0.30273 0.46954 0.0
H1232 H 0.29383 0.23393 0.46736 0.0
H1233 H 0.2619 0.12205 0.45333 0.0
H1234 H 0.27108 0.32351 0.49003 0.0
H1235 H 0.27719 0.28807 0.51322 0.0
H1236 H 0.28946 0.30203 0.49105 0.0
H1237 H 0.23914 0.12224 0.46964 0.0
H1238 H 0.23848 0.1504 0.49666 0.0
H1239 H 0.23227 0.18514 0.47334 0.0
H1240 H 0.23917 0.25735 0.5562 0.0
H1241 H 0.22268 0.34268 0.50192 0.0
H1242 H 0.26967 0.21153 0.53239 0.0
H1243 H 0.257 0.16377 0.52525 0.0
H1244 H 0.25614 0.193 0.55203 0.0
H1245 H 0.25006 0.31829 0.46505 0.0
H1246 H 0.23102 0.33109 0.46551 0.0
H1247 H 0.23764 0.26891 0.45917 0.0
C1248 C 0.24546 0.94187 0.71381 0.0
C1249 C 0.2328 0.91775 0.72052 0.0
C1250 C 0.254 0.96887 0.72877 0.0
C1251 C 0.2501 0.97054 0.7513 0.0
C1252 C 0.2373 0.94604 0.75823 0.0
C1253 C 0.22864 0.92064 0.74266 0.0
C1254 C 0.2672 -0.00421 0.72037 0.0
C1255 C 0.23293 0.94584 0.78217 0.0
C1256 C 0.28066 0.00166 0.79121 0.0
C1257 C 0.27786 0.05221 0.79626 0.0
C1258 C 0.27148 0.97422 0.77715 0.0
C1259 C 0.25944 -0.00175 0.76738 0.0
C1260 C 0.25676 0.0496 0.77215 0.0
C1261 C 0.26585 0.07564 0.78675 0.0
C1262 C 0.2746 0.91932 0.77293 0.0
C1263 C 0.24436 0.07729 0.76163 0.0
H1264 H 0.24862 0.94013 0.69662 0.0
H1265 H 0.2189 0.90178 0.74788 0.0
H1266 H 0.26672 0.03617 0.72496 0.0
H1267 H 0.27696 0.97972 0.72813 0.0
H1268 H 0.26833 0.99294 0.70219 0.0
H1269 H 0.22286 0.92441 0.785 0.0
H1270 H 0.24161 0.92894 0.79228 0.0
H1271 H 0.23136 0.98495 0.78808 0.0
H1272 H 0.28977 0.98308 0.7988 0.0
H1273 H 0.26361 0.11469 0.79062 0.0
H1274 H 0.27695 0.91335 0.75521 0.0
H1275 H 0.26501 0.89634 0.77702 0.0
H1276 H 0.28386 0.90541 0.78273 0.0
H1277 H 0.24538 0.07591 0.74343 0.0
H1278 H 0.24381 0.1173 0.76686 0.0
H1279 H 0.23407 0.05875 0.76597 0.0
C1280 C 0.76661 0.64943 0.47413 0.0
C1281 C 0.77792 0.67496 0.46376 0.0
C1282 C 0.75702 0.6748 0.48827 0.0
C1283 C 0.75839 0.72745 0.49145 0.0
C1284 C 0.76972 0.75346 0.48074 0.0
C1285 C 0.77947 0.7268 0.46734 0.0
C1286 C 0.74544 0.64519 0.49986 0.0
C1287 C 0.77139 0.80969 0.48311 0.0
C1288 C 0.72588 0.8001 0.51395 0.0
C1289 C 0.72999 0.80817 0.53587 0.0
C1290 C 0.73508 0.77449 0.49916 0.0
C1291 C 0.74841 0.75492 0.50672 0.0
C1292 C 0.75233 0.76185 0.52905 0.0
C1293 C 0.74321 0.78897 0.54316 0.0
C1294 C 0.73066 0.76912 0.47536 0.0
C1295 C 0.76614 0.74036 0.53812 0.0
H1296 H 0.76529 0.60946 0.47121 0.0
H1297 H 0.78795 0.74696 0.45888 0.0
H1298 H 0.74638 0.65032 0.51795 0.0
H1299 H 0.7347 0.65936 0.49494 0.0
H1300 H 0.74602 0.60434 0.49608 0.0
H1301 H 0.78031 0.82468 0.47288 0.0
H1302 H 0.76127 0.82881 0.47821 0.0
H1303 H 0.77347 0.81948 0.50058 0.0
H1304 H 0.71568 0.8149 0.50825 0.0
H1305 H 0.74635 0.79436 0.56021 0.0
H1306 H 0.73002 0.72876 0.47084 0.0
H1307 H 0.73889 0.78655 0.46456 0.0
H1308 H 0.72011 0.78705 0.47195 0.0
H1309 H 0.76662 0.69927 0.53495 0.0
H1310 H 0.76726 0.7468 0.55613 0.0
H1311 H 0.77547 0.75769 0.52968 0.0
C1312 C 0.73081 0.92158 0.2432 0.0
C1313 C 0.73346 0.92217 0.22049 0.0
C1314 C 0.7402 0.94633 0.25798 0.0
C1315 C 0.75221 0.9735 0.24973 0.0
C1316 C 0.75457 0.97523 0.22669 0.0
C1317 C 0.74533 0.94897 0.21248 0.0
C1318 C 0.73744 0.94267 0.28241 0.0
C1319 C 0.76687 0.00487 0.21699 0.0
C1320 C 0.769 0.07619 0.28546 0.0
C1321 C 0.78167 0.05312 0.29294 0.0
C1322 C 0.7594 0.05091 0.27137 0.0
C1323 C 0.76228 0.00061 0.26499 0.0
C1324 C 0.77507 0.97705 0.27253 0.0
C1325 C 0.78469 0.00377 0.28617 0.0
C1326 C 0.74617 0.07812 0.26331 0.0
C1327 C 0.77845 0.92324 0.26651 0.0
H1328 H 0.7217 0.90059 0.24942 0.0
H1329 H 0.74732 0.94977 0.19487 0.0
H1330 H 0.74691 0.92579 0.29073 0.0
H1331 H 0.7359 0.98079 0.28947 0.0
H1332 H 0.72782 0.91957 0.28624 0.0
H1333 H 0.76681 0.00439 0.19869 0.0
H1334 H 0.76633 0.04456 0.22262 0.0
H1335 H 0.77724 0.98919 0.22281 0.0
H1336 H 0.76657 0.11426 0.2907 0.0
H1337 H 0.7943 0.98535 0.2922 0.0
H1338 H 0.73638 0.05796 0.26881 0.0
H1339 H 0.74601 0.07862 0.24503 0.0
H1340 H 0.74562 0.1175 0.26938 0.0
H1341 H 0.76953 0.89835 0.27184 0.0
H1342 H 0.78858 0.90978 0.2742 0.0
H1343 H 0.77942 0.9195 0.24837 0.0
C1344 C 0.48457 0.50228 0.46299 0.0
C1345 C 0.48101 0.55278 0.46678 0.0
C1346 C 0.4949 0.47746 0.47602 0.0
C1347 C 0.50167 0.50347 0.49359 0.0
C1348 C 0.49794 0.5545 0.49759 0.0
C1349 C 0.48785 0.57879 0.48387 0.0
C1350 C 0.49875 0.42362 0.47073 0.0
C1351 C 0.50456 0.58335 0.51645 0.0
C1352 C 0.51635 0.42435 0.54088 0.0
C1353 C 0.53129 0.42572 0.53736 0.0
C1354 C 0.50672 0.4496 0.5269 0.0
C1355 C 0.51201 0.47649 0.50849 0.0
C1356 C 0.52705 0.47736 0.50452 0.0
C1357 C 0.53653 0.45242 0.51912 0.0
C1358 C 0.49085 0.44804 0.53206 0.0
C1359 C 0.53312 0.50476 0.48486 0.0
H1360 H 0.47959 0.48262 0.44932 0.0
H1361 H 0.48529 0.61813 0.48651 0.0
H1362 H 0.51031 0.42112 0.4664 0.0
H1363 H 0.49699 0.39936 0.48534 0.0
H1364 H 0.49234 0.40848 0.4568 0.0
H1365 H 0.50044 0.62252 0.51752 0.0
H1366 H 0.50226 0.56392 0.53224 0.0
H1367 H 0.5164 0.58459 0.51454 0.0
H1368 H 0.51211 0.40429 0.55498 0.0
H1369 H 0.54801 0.45388 0.51627 0.0
H1370 H 0.4849 0.43081 0.51814 0.0
H1371 H 0.48667 0.48686 0.53418 0.0
H1372 H 0.48848 0.42627 0.54725 0.0
H1373 H 0.52815 0.49029 0.4695 0.0
H1374 H 0.54497 0.50059 0.48359 0.0
H1375 H 0.53049 0.54539 0.48597 0.0
C1376 C 0.51608 0.7904 0.71171 0.0
C1377 C 0.52954 0.80926 0.718 0.0
C1378 C 0.50762 0.76204 0.72627 0.0
C1379 C 0.51244 0.7538 0.74809 0.0
C1380 C 0.52604 0.77297 0.75462 0.0
C1381 C 0.53458 0.79962 0.73932 0.0
C1382 C 0.49351 0.74086 0.71823 0.0
C1383 C 0.5314 0.76628 0.77789 0.0
C1384 C 0.48292 0.72559 0.79 0.0
C1385 C 0.4845 0.67366 0.79323 0.0
C1386 C 0.49218 0.75226 0.77588 0.0
C1387 C 0.50301 0.72614 0.76406 0.0
C1388 C 0.50442 0.67337 0.76688 0.0
C1389 C 0.49536 0.64799 0.78179 0.0
C1390 C 0.49054 0.80859 0.77393 0.0
C1391 C 0.51544 0.6437 0.75406 0.0
H1392 H 0.51224 0.79709 0.69509 0.0
H1393 H 0.54498 0.81415 0.74421 0.0
H1394 H 0.49311 0.69973 0.72131 0.0
H1395 H 0.4845 0.75821 0.72747 0.0
H1396 H 0.4918 0.74761 0.70036 0.0
H1397 H 0.54212 0.78364 0.78044 0.0
H1398 H 0.52368 0.78351 0.78961 0.0
H1399 H 0.5321 0.72569 0.78198 0.0
H1400 H 0.4748 0.74581 0.79927 0.0
H1401 H 0.4967 0.60792 0.78445 0.0
H1402 H 0.48777 0.81885 0.75674 0.0
H1403 H 0.50086 0.82731 0.77795 0.0
H1404 H 0.48207 0.82361 0.78505 0.0
H1405 H 0.51387 0.64967 0.73612 0.0
H1406 H 0.51484 0.60273 0.75754 0.0
H1407 H 0.5264 0.6571 0.75817 0.0
C1408 C 0.48197 0.18504 0.27366 0.0
C1409 C 0.48692 0.1717 0.29466 0.0
C1410 C 0.49106 0.21009 0.25859 0.0
C1411 C 0.50519 0.22393 0.26501 0.0
C1412 C 0.51004 0.21151 0.28644 0.0
C1413 C 0.50097 0.1848 0.30078 0.0
C1414 C 0.48557 0.22138 0.23573 0.0
C1415 C 0.52473 0.22725 0.29443 0.0
C1416 C 0.53389 0.25361 0.22172 0.0
C1417 C 0.53274 0.30602 0.21991 0.0
C1418 C 0.5249 0.22633 0.23611 0.0
C1419 C 0.51485 0.25225 0.24957 0.0
C1420 C 0.51411 0.30546 0.2484 0.0
C1421 C 0.52282 0.3315 0.23327 0.0
C1422 C 0.5258 0.16964 0.23632 0.0
C1423 C 0.50399 0.33493 0.26296 0.0
H1424 H 0.47114 0.17494 0.26888 0.0
H1425 H 0.50477 0.17525 0.31714 0.0
H1426 H 0.48523 0.26263 0.23306 0.0
H1427 H 0.49299 0.20534 0.22326 0.0
H1428 H 0.47464 0.20589 0.23289 0.0
H1429 H 0.52669 0.21618 0.31182 0.0
H1430 H 0.53316 0.21001 0.28396 0.0
H1431 H 0.52589 0.26868 0.29305 0.0
H1432 H 0.54131 0.23369 0.21104 0.0
H1433 H 0.52183 0.37201 0.23177 0.0
H1434 H 0.51519 0.15343 0.23191 0.0
H1435 H 0.52848 0.15614 0.25311 0.0
H1436 H 0.53398 0.15506 0.22463 0.0
H1437 H 0.49271 0.32539 0.25885 0.0
H1438 H 0.50541 0.37621 0.26114 0.0
H1439 H 0.50572 0.32471 0.28049 0.0
C1440 C 0.47998 -0.00426 0.96673 0.0
C1441 C 0.4812 0.04809 0.96462 0.0
C1442 C 0.48957 0.96822 0.98012 0.0
C1443 C 0.50034 -0.00618 0.99231 0.0
C1444 C 0.50128 0.04694 0.9907 0.0
C1445 C 0.49192 0.0732 0.97656 0.0
C1446 C 0.48842 0.91161 0.98078 0.0
C1447 C 0.51222 0.07611 0.00389 0.0
C1448 C 0.51577 0.92967 0.04331 0.0
C1449 C 0.52956 0.91531 0.03631 0.0
C1450 C 0.50625 0.95522 0.02923 0.0
C1451 C 0.51036 0.96545 0.00723 0.0
C1452 C 0.52418 0.95004 0.99987 0.0
C1453 C 0.53373 0.92604 0.01463 0.0
C1454 C 0.49192 0.97245 0.03814 0.0
C1455 C 0.52887 0.959 0.97641 0.0
H1456 H 0.47195 0.97604 0.9571 0.0
H1457 H 0.49297 0.11363 0.97482 0.0
H1458 H 0.49876 0.89451 0.97558 0.0
H1459 H 0.48627 0.89886 0.99786 0.0
H1460 H 0.47975 0.89722 0.96989 0.0
H1461 H 0.51121 0.11738 1.00145 0.0
H1462 H 0.51096 0.06773 0.0217 0.0
H1463 H 0.52323 0.06445 0.99912 0.0
H1464 H 0.51256 0.92239 0.06018 0.0
H1465 H 0.54437 0.91512 0.00914 0.0
H1466 H 0.48306 0.95585 0.02833 0.0
H1467 H 0.49102 0.01395 0.03669 0.0
H1468 H 0.49038 0.9619 0.05569 0.0
H1469 H 0.52083 0.94315 0.96483 0.0
H1470 H 0.53951 0.94188 0.97282 0.0
H1471 H 0.52951 -1e-05 0.97315 0.0
C1472 C 0.16085 0.32432 0.12572 0.0
C1473 C 0.16785 0.35796 0.13999 0.0
C1474 C 0.14591 0.32553 0.1228 0.0
C1475 C 0.13761 0.36169 0.13425 0.0
C1476 C 0.14452 0.39517 0.14908 0.0
C1477 C 0.15957 0.39267 0.15192 0.0
C1478 C 0.13904 0.28842 0.10716 0.0
C1479 C 0.13606 0.43443 0.16151 0.0
C1480 C 0.10107 0.38959 0.10824 0.0
C1481 C 0.09184 0.3597 0.121 0.0
C1482 C 0.11589 0.39221 0.11291 0.0
C1483 C 0.1217 0.36377 0.13058 0.0
C1484 C 0.11242 0.33397 0.14362 0.0
C1485 C 0.09766 0.33248 0.13876 0.0
C1486 C 0.12539 0.42471 0.09867 0.0
C1487 C 0.11813 0.30236 0.16235 0.0
H1488 H 0.16714 0.297 0.11659 0.0
H1489 H 0.1649 0.41901 0.16283 0.0
H1490 H 0.13061 0.26657 0.11584 0.0
H1491 H 0.13374 0.30886 0.09346 0.0
H1492 H 0.14696 0.26166 0.10005 0.0
H1493 H 0.14293 0.45688 0.17278 0.0
H1494 H 0.13078 0.46033 0.14968 0.0
H1495 H 0.12744 0.41627 0.17128 0.0
H1496 H 0.09672 0.41105 0.09461 0.0
H1497 H 0.0907 0.30902 0.14872 0.0
H1498 H 0.13306 0.40067 0.08943 0.0
H1499 H 0.13182 0.45054 0.1091 0.0
H1500 H 0.11913 0.44739 0.08667 0.0
H1501 H 0.12552 0.2732 0.15579 0.0
H1502 H 0.10942 0.28336 0.17168 0.0
H1503 H 0.1244 0.32605 0.17392 0.0
C1504 C 0.1033 0.85003 0.15545 0.0
C1505 C 0.09399 0.86907 0.13926 0.0
C1506 C 0.11831 0.84839 0.15197 0.0
C1507 C 0.12421 0.86663 0.13192 0.0
C1508 C 0.11485 0.8853 0.11548 0.0
C1509 C 0.09997 0.88613 0.1193 0.0
C1510 C 0.1279 0.82782 0.16987 0.0
C1511 C 0.12057 0.90572 0.09398 0.0
C1512 C 0.16255 0.91683 0.13095 0.0
C1513 C 0.1701 0.8783 0.12009 0.0
C1514 C 0.14773 0.91316 0.13507 0.0
C1515 C 0.14016 0.86947 0.12852 0.0
C1516 C 0.1477 0.83021 0.11763 0.0
C1517 C 0.16255 0.83529 0.11335 0.0
C1518 C 0.14014 0.9565 0.14621 0.0
C1519 C 0.14009 0.7828 0.11056 0.0
H1520 H 0.09888 0.83654 0.17087 0.0
H1521 H 0.09301 0.90108 0.10657 0.0
H1522 H 0.13497 0.79793 0.1631 0.0
H1523 H 0.13496 0.85813 0.17621 0.0
H1524 H 0.12166 0.81207 0.18386 0.0
H1525 H 0.11186 0.91726 0.08254 0.0
H1526 H 0.12751 0.93882 0.09722 0.0
H1527 H 0.12731 0.877 0.08566 0.0
H1528 H 0.16824 0.95042 0.13609 0.0
H1529 H 0.1683 0.80514 0.10516 0.0
H1530 H 0.13478 0.94331 0.16147 0.0
H1531 H 0.13166 0.97164 0.13521 0.0
H1532 H 0.1476 0.98758 0.15055 0.0
H1533 H 0.13466 0.76532 0.12492 0.0
H1534 H 0.14755 0.75487 0.10316 0.0
H1535 H 0.13164 0.792 0.09832 0.0
C1536 C 0.8519 0.56433 0.88564 0.0
C1537 C 0.84596 0.59454 0.86904 0.0
C1538 C 0.86685 0.56082 0.88854 0.0
C1539 C 0.8761 0.58982 0.87506 0.0
C1540 C 0.87013 0.61984 0.85801 0.0
C1541 C 0.85512 0.62124 0.85499 0.0
C1542 C 0.87272 0.52695 0.90636 0.0
C1543 C 0.87955 0.65225 0.84359 0.0
C1544 C 0.91297 0.62568 0.89777 0.0
C1545 C 0.92208 0.59511 0.88521 0.0
C1546 C 0.89797 0.62408 0.89476 0.0
C1547 C 0.89195 0.5901 0.87925 0.0
C1548 C 0.90114 0.55743 0.86734 0.0
C1549 C 0.9161 0.56106 0.87015 0.0
C1550 C 0.88862 0.66038 0.90744 0.0
C1551 C 0.89521 0.51948 0.85124 0.0
H1552 H 0.84478 0.54383 0.89657 0.0
H1553 H 0.85051 0.64529 0.84241 0.0
H1554 H 0.88115 0.50186 0.8995 0.0
H1555 H 0.87782 0.54998 0.91943 0.0
H1556 H 0.86422 0.50339 0.914 0.0
H1557 H 0.87328 0.67296 0.83092 0.0
H1558 H 0.88539 0.67995 0.85393 0.0
H1559 H 0.88773 0.6288 0.83517 0.0
H1560 H 0.91763 0.65273 0.90907 0.0
H1561 H 0.92319 0.53772 0.8603 0.0
H1562 H 0.88037 0.63957 0.91694 0.0
H1563 H 0.88285 0.68541 0.89577 0.0
H1564 H 0.89492 0.68404 0.91902 0.0
H1565 H 0.88668 0.4967 0.85919 0.0
H1566 H 0.90366 0.49372 0.84488 0.0
H1567 H 0.89025 0.53925 0.83706 0.0
C1568 C 0.9121 0.09346 0.88965 0.0
C1569 C 0.91946 0.12051 0.87322 0.0
C1570 C 0.8971 0.0962 0.89189 0.0
C1571 C 0.88904 0.12709 0.87748 0.0
C1572 C 0.89635 0.15546 0.86114 0.0
C1573 C 0.91144 0.15164 0.85911 0.0
C1574 C 0.88984 0.0647 0.90936 0.0
C1575 C 0.88819 0.18919 0.84556 0.0
C1576 C 0.85027 0.08637 0.86837 0.0
C1577 C 0.84258 0.11756 0.88294 0.0
C1578 C 0.86526 0.09001 0.86613 0.0
C1579 C 0.87293 0.12616 0.87855 0.0
C1580 C 0.86526 0.15847 0.89302 0.0
C1581 C 0.85021 0.15354 0.89519 0.0
C1582 C 0.87292 0.05407 0.85082 0.0
C1583 C 0.873 0.19787 0.90641 0.0
H1584 H 0.91805 0.06911 0.90069 0.0
H1585 H 0.91694 0.17296 0.84646 0.0
H1586 H 0.88304 0.08879 0.92005 0.0
H1587 H 0.88266 0.03671 0.90143 0.0
H1588 H 0.89766 0.04428 0.9199 0.0
H1589 H 0.89546 0.21172 0.83492 0.0
H1590 H 0.88113 0.16613 0.83485 0.0
H1591 H 0.88116 0.2152 0.85497 0.0
H1592 H 0.84459 0.05813 0.85889 0.0
H1593 H 0.84442 0.17805 0.90637 0.0
H1594 H 0.88042 0.03006 0.86039 0.0
H1595 H 0.87943 0.0753 0.83867 0.0
H1596 H 0.86536 0.02927 0.84173 0.0
H1597 H 0.88036 0.1794 0.91829 0.0
H1598 H 0.86545 0.22237 0.9157 0.0
H1599 H 0.87968 0.22176 0.89547 0.0
C1600 C 0.16393 0.87812 0.64829 0.0
C1601 C 0.17341 0.85221 0.6343 0.0
C1602 C 0.14913 0.88146 0.64338 0.0
C1603 C 0.1436 0.85799 0.62414 0.0
C1604 C 0.15312 0.83192 0.61 0.0
C1605 C 0.1678 0.82946 0.61519 0.0
C1606 C 0.13935 0.9098 0.65886 0.0
C1607 C 0.14775 0.80567 0.58951 0.0
C1608 C 0.10433 0.818 0.62369 0.0
C1609 C 0.09786 0.85484 0.61039 0.0
C1610 C 0.11913 0.81861 0.62816 0.0
C1611 C 0.12778 0.85758 0.61945 0.0
C1612 C 0.12137 0.89467 0.60576 0.0
C1613 C 0.1065 0.8926 0.6012 0.0
C1614 C 0.12548 0.77751 0.64234 0.0
C1615 C 0.13019 0.93706 0.59629 0.0
H1616 H 0.16809 0.8961 0.66299 0.0
H1617 H 0.1749 0.80906 0.60421 0.0
H1618 H 0.13328 0.93897 0.64967 0.0
H1619 H 0.13137 0.88364 0.66612 0.0
H1620 H 0.14536 0.92823 0.67246 0.0
H1621 H 0.1566 0.78839 0.57982 0.0
H1622 H 0.14002 0.77571 0.59413 0.0
H1623 H 0.14194 0.83269 0.57881 0.0
H1624 H 0.09774 0.7885 0.63076 0.0
H1625 H 0.10154 0.9215 0.59115 0.0
H1626 H 0.13046 0.79411 0.65727 0.0
H1627 H 0.13409 0.75759 0.63318 0.0
H1628 H 0.11732 0.74949 0.64758 0.0
H1629 H 0.13524 0.95882 0.60983 0.0
H1630 H 0.12363 0.96309 0.58608 0.0
H1631 H 0.13901 0.92168 0.58599 0.0
C1632 C 0.10254 0.33905 0.65074 0.0
C1633 C 0.09401 0.37513 0.64006 0.0
C1634 C 0.11736 0.33451 0.64594 0.0
C1635 C 0.12386 0.36733 0.63039 0.0
C1636 C 0.11531 0.40434 0.61993 0.0
C1637 C 0.10058 0.40755 0.62477 0.0
C1638 C 0.12605 0.29432 0.65736 0.0
C1639 C 0.12173 0.44098 0.60366 0.0
C1640 C 0.16397 0.39483 0.63372 0.0
C1641 C 0.16962 0.36714 0.61594 0.0
C1642 C 0.14924 0.39445 0.63873 0.0
C1643 C 0.13971 0.36528 0.62583 0.0
C1644 C 0.14528 0.33696 0.60789 0.0
C1645 C 0.16014 0.3385 0.60305 0.0
C1646 C 0.14384 0.4261 0.65769 0.0
C1647 C 0.13552 0.30511 0.5938 0.0
H1648 H 0.09757 0.31356 0.66239 0.0
H1649 H 0.09415 0.43589 0.61653 0.0
H1650 H 0.13124 0.26962 0.64495 0.0
H1651 H 0.13475 0.31189 0.66718 0.0
H1652 H 0.11938 0.27075 0.66848 0.0
H1653 H 0.11361 0.46733 0.59682 0.0
H1654 H 0.1303 0.4633 0.61177 0.0
H1655 H 0.12679 0.42023 0.58982 0.0
H1656 H 0.17109 0.41753 0.64374 0.0
H1657 H 0.16435 0.31672 0.5894 0.0
H1658 H 0.13802 0.40218 0.6697 0.0
H1659 H 0.13611 0.45464 0.65154 0.0
H1660 H 0.15267 0.44584 0.66645 0.0
H1661 H 0.12944 0.27842 0.6043 0.0
H1662 H 0.14155 0.2834 0.58117 0.0
H1663 H 0.12755 0.32939 0.58534 0.0
C1664 C 0.85371 0.13262 0.38882 0.0
C1665 C 0.84648 0.11374 0.3702 0.0
C1666 C 0.86872 0.12978 0.39082 0.0
C1667 C 0.87692 0.10722 0.37386 0.0
C1668 C 0.86975 0.08699 0.35521 0.0
C1669 C 0.85464 0.09061 0.35356 0.0
C1670 C 0.87583 0.15231 0.4109 0.0
C1671 C 0.87808 0.06227 0.33683 0.0
C1672 C 0.91561 0.15227 0.36847 0.0
C1673 C 0.92334 0.11494 0.37979 0.0
C1674 C 0.90061 0.14978 0.36623 0.0
C1675 C 0.89302 0.10831 0.3751 0.0
C1676 C 0.90076 0.06998 0.38627 0.0
C1677 C 0.91581 0.07407 0.38875 0.0
C1678 C 0.89284 0.19226 0.35476 0.0
C1679 C 0.89314 0.02472 0.39564 0.0
H1680 H 0.84765 0.15051 0.40191 0.0
H1681 H 0.84925 0.07566 0.33916 0.0
H1682 H 0.88268 0.12383 0.41915 0.0
H1683 H 0.88293 0.18379 0.40585 0.0
H1684 H 0.86791 0.1668 0.42304 0.0
H1685 H 0.87092 0.04513 0.32426 0.0
H1686 H 0.88502 0.09051 0.32861 0.0
H1687 H 0.88523 0.03264 0.34358 0.0
H1688 H 0.92131 0.18424 0.36166 0.0
H1689 H 0.9217 0.04487 0.39734 0.0
H1690 H 0.88518 0.21035 0.36634 0.0
H1691 H 0.88648 0.17744 0.34073 0.0
H1692 H 0.90032 0.22146 0.34847 0.0
H1693 H 0.8856 0.03675 0.40878 0.0
H1694 H 0.90075 -0.00324 0.40267 0.0
H1695 H 0.88667 0.00615 0.38262 0.0
C1696 C 0.90849 0.62904 0.34998 0.0
C1697 C 0.91745 0.63226 0.36852 0.0
C1698 C 0.89338 0.6308 0.3522 0.0
C1699 C 0.8871 0.63641 0.3734 0.0
C1700 C 0.89615 0.6419 0.39196 0.0
C1701 C 0.91112 0.63962 0.38931 0.0
C1702 C 0.88413 0.62489 0.33197 0.0
C1703 C 0.89002 0.64836 0.41484 0.0
C1704 C 0.84762 0.67328 0.38062 0.0
C1705 C 0.84117 0.62634 0.38405 0.0
C1706 C 0.86251 0.67719 0.37667 0.0
C1707 C 0.87116 0.63316 0.37654 0.0
C1708 C 0.86462 0.58578 0.38039 0.0
C1709 C 0.8497 0.58294 0.38379 0.0
C1710 C 0.86897 0.72828 0.37235 0.0
C1711 C 0.8734 0.538 0.38094 0.0
H1712 H 0.91325 0.62328 0.33388 0.0
H1713 H 0.91791 0.6429 0.40375 0.0
H1714 H 0.87807 0.58904 0.33298 0.0
H1715 H 0.87613 0.6558 0.33108 0.0
H1716 H 0.89057 0.62474 0.31656 0.0
H1717 H 0.89849 0.65529 0.42737 0.0
H1718 H 0.88233 0.68024 0.41518 0.0
H1719 H 0.884 0.61402 0.41958 0.0
H1720 H 0.84094 0.70672 0.38039 0.0
H1721 H 0.84465 0.54661 0.38622 0.0
H1722 H 0.87434 0.72845 0.35602 0.0
H1723 H 0.87731 0.73672 0.38486 0.0
H1724 H 0.86079 0.75873 0.37267 0.0
H1725 H 0.87905 0.53278 0.36501 0.0
H1726 H 0.86671 0.50422 0.38419 0.0
H1727 H 0.88174 0.54069 0.39396 0.0
C1728 C 0.6047 0.3265 0.62567 0.0
C1729 C 0.59772 0.3631 0.61284 0.0
C1730 C 0.61958 0.32805 0.62938 0.0
C1731 C 0.62783 0.36772 0.62035 0.0
C1732 C 0.62091 0.40456 0.6071 0.0
C1733 C 0.60595 0.40156 0.60332 0.0
C1734 C 0.62646 0.28722 0.64312 0.0
C1735 C 0.62928 0.44767 0.59731 0.0
C1736 C 0.66432 0.38937 0.64796 0.0
C1737 C 0.67367 0.36378 0.63366 0.0
C1738 C 0.64945 0.39255 0.64347 0.0
C1739 C 0.64373 0.36922 0.62434 0.0
C1740 C 0.65313 0.34383 0.60978 0.0
C1741 C 0.66789 0.34157 0.61455 0.0
C1742 C 0.63982 0.42026 0.65937 0.0
C1743 C 0.64756 0.31775 0.58938 0.0
H1744 H 0.59844 0.29643 0.63299 0.0
H1745 H 0.60062 0.43027 0.59362 0.0
H1746 H 0.635 0.26809 0.6335 0.0
H1747 H 0.63162 0.30397 0.65787 0.0
H1748 H 0.61858 0.25851 0.64866 0.0
H1749 H 0.62238 0.47323 0.58742 0.0
H1750 H 0.63443 0.46976 0.61067 0.0
H1751 H 0.63801 0.43306 0.58663 0.0
H1752 H 0.6686 0.40693 0.66268 0.0
H1753 H 0.67489 0.32149 0.60331 0.0
H1754 H 0.63219 0.39348 0.66707 0.0
H1755 H 0.63334 0.4488 0.65044 0.0
H1756 H 0.64598 0.43932 0.67263 0.0
H1757 H 0.64018 0.2869 0.59418 0.0
H1758 H 0.65634 0.30163 0.57918 0.0
H1759 H 0.64132 0.3445 0.57913 0.0
C1760 C 0.59585 0.90494 0.61709 0.0
C1761 C 0.58956 0.87441 0.63336 0.0
C1762 C 0.61065 0.90313 0.61264 0.0
C1763 C 0.61953 0.86949 0.62452 0.0
C1764 C 0.61327 0.83807 0.64082 0.0
C1765 C 0.59839 0.84119 0.64519 0.0
C1766 C 0.61683 0.93814 0.59548 0.0
C1767 C 0.62233 0.80139 0.65375 0.0
C1768 C 0.65696 0.84269 0.60083 0.0
C1769 C 0.66561 0.87445 0.61367 0.0
C1770 C 0.64197 0.8399 0.60439 0.0
C1771 C 0.63546 0.87011 0.62092 0.0
C1772 C 0.64414 0.90285 0.63358 0.0
C1773 C 0.65902 0.90441 0.62989 0.0
C1774 C 0.63312 0.80427 0.59062 0.0
C1775 C 0.63771 0.93656 0.65105 0.0
H1776 H 0.58921 0.93111 0.60793 0.0
H1777 H 0.59366 0.8172 0.65766 0.0
H1778 H 0.62467 0.96402 0.6033 0.0
H1779 H 0.62271 0.9163 0.58278 0.0
H1780 H 0.60842 0.96101 0.5872 0.0
H1781 H 0.61577 0.77747 0.66487 0.0
H1782 H 0.62842 0.7767 0.64233 0.0
H1783 H 0.63031 0.82218 0.66381 0.0
H1784 H 0.66194 0.81913 0.58841 0.0
H1785 H 0.66554 0.92946 0.63981 0.0
H1786 H 0.62487 0.82557 0.58128 0.0
H1787 H 0.62734 0.77748 0.60148 0.0
H1788 H 0.63979 0.78256 0.57877 0.0
H1789 H 0.6296 0.96194 0.64353 0.0
H1790 H 0.64593 0.95992 0.65948 0.0
H1791 H 0.63208 0.91354 0.6636 0.0
C1792 C 0.40721 0.5716 0.40012 0.0
C1793 C 0.41484 0.61427 0.39325 0.0
C1794 C 0.3922 0.56821 0.39692 0.0
C1795 C 0.38464 0.60887 0.38708 0.0
C1796 C 0.39231 0.65261 0.38086 0.0
C1797 C 0.40726 0.6545 0.3838 0.0
C1798 C 0.38447 0.5207 0.40355 0.0
C1799 C 0.38474 0.69744 0.37088 0.0
C1800 C 0.34798 0.59524 0.35915 0.0
C1801 C 0.3387 0.61511 0.37519 0.0
C1802 C 0.36288 0.59092 0.36311 0.0
C1803 C 0.36869 0.60678 0.38359 0.0
C1804 C 0.35931 0.62512 0.40008 0.0
C1805 C 0.34452 0.62903 0.39571 0.0
C1806 C 0.37248 0.57094 0.34508 0.0
C1807 C 0.36495 0.6426 0.42212 0.0
H1808 H 0.41304 0.54015 0.40716 0.0
H1809 H 0.4131 0.68769 0.37855 0.0
H1810 H 0.37569 0.5296 0.41527 0.0
H1811 H 0.37947 0.50322 0.38883 0.0
H1812 H 0.39179 0.49285 0.41132 0.0
H1813 H 0.3922 0.72905 0.36742 0.0
H1814 H 0.37943 0.68632 0.35526 0.0
H1815 H 0.37621 0.71107 0.38219 0.0
H1816 H 0.34367 0.58418 0.34329 0.0
H1817 H 0.33754 0.64399 0.40842 0.0
H1818 H 0.37951 0.54067 0.35159 0.0
H1819 H 0.37957 0.60149 0.33903 0.0
H1820 H 0.36625 0.55593 0.33092 0.0
H1821 H 0.37177 0.61304 0.42969 0.0
H1822 H 0.35618 0.65224 0.4338 0.0
H1823 H 0.37179 0.67635 0.41979 0.0
C1824 C 0.4144 0.14392 0.35802 0.0
C1825 C 0.42228 0.11305 0.37238 0.0
C1826 C 0.39939 0.14978 0.36046 0.0
C1827 C 0.39204 0.12381 0.37752 0.0
C1828 C 0.39998 0.09309 0.39214 0.0
C1829 C 0.4149 0.08823 0.38945 0.0
C1830 C 0.39134 0.18314 0.34458 0.0
C1831 C 0.39265 0.06402 0.41034 0.0
C1832 C 0.35358 0.1573 0.39498 0.0
C1833 C 0.34553 0.12199 0.38303 0.0
C1834 C 0.3687 0.15939 0.39296 0.0
C1835 C 0.37595 0.12479 0.37899 0.0
C1836 C 0.36786 0.08871 0.3672 0.0
C1837 C 0.35284 0.08798 0.36925 0.0
C1838 C 0.37692 0.19869 0.40569 0.0
C1839 C 0.37506 0.05027 0.35253 0.0
H1840 H 0.41993 0.16356 0.34488 0.0
H1841 H 0.42075 0.06409 0.40069 0.0
H1842 H 0.38389 0.16006 0.33452 0.0
H1843 H 0.38473 0.21084 0.35377 0.0
H1844 H 0.39867 0.20375 0.33332 0.0
H1845 H 0.40043 0.04379 0.42104 0.0
H1846 H 0.38618 0.08977 0.42076 0.0
H1847 H 0.38516 0.03608 0.4031 0.0
H1848 H 0.34804 0.18393 0.40552 0.0
H1849 H 0.34678 0.06015 0.36009 0.0
H1850 H 0.38346 0.22175 0.39422 0.0
H1851 H 0.38447 0.18022 0.41729 0.0
H1852 H 0.36972 0.224 0.4152 0.0
H1853 H 0.38154 0.06946 0.33972 0.0
H1854 H 0.36721 0.02511 0.34425 0.0
H1855 H 0.38252 0.02677 0.3624 0.0
C1856 C 0.66736 0.87639 0.1133 0.0
C1857 C 0.67237 0.87448 0.13517 0.0
C1858 C 0.65263 0.87868 0.10835 0.0
C1859 C 0.64244 0.87903 0.12563 0.0
C1860 C 0.64736 0.87863 0.14779 0.0
C1861 C 0.66225 0.8765 0.15231 0.0
C1862 C 0.64797 0.87925 0.08451 0.0
C1863 C 0.63687 0.87912 0.16672 0.0
C1864 C 0.60382 0.91866 0.11216 0.0
C1865 C 0.5969 0.87201 0.1106 0.0
C1866 C 0.61862 0.92167 0.1171 0.0
C1867 C 0.62669 0.87693 0.12036 0.0
C1868 C 0.61974 0.82974 0.11813 0.0
C1869 C 0.60493 0.82792 0.11358 0.0
C1870 C 0.62552 0.97272 0.11951 0.0
C1871 C 0.6279 0.78105 0.121 0.0
H1872 H 0.67499 0.87551 0.09982 0.0
H1873 H 0.66594 0.87505 0.16923 0.0
H1874 H 0.64177 0.84464 0.08077 0.0
H1875 H 0.64078 0.91176 0.08136 0.0
H1876 H 0.65722 0.88141 0.07298 0.0
H1877 H 0.64234 0.88183 0.18294 0.0
H1878 H 0.62934 0.91126 0.16502 0.0
H1879 H 0.63035 0.84421 0.16645 0.0
H1880 H 0.59753 0.95279 0.11049 0.0
H1881 H 0.5995 0.79187 0.11282 0.0
H1882 H 0.63484 0.97601 0.10821 0.0
H1883 H 0.62965 0.9773 0.13653 0.0
H1884 H 0.61789 0.00386 0.11597 0.0
H1885 H 0.63709 0.77965 0.10938 0.0
H1886 H 0.62102 0.74753 0.11815 0.0
H1887 H 0.63237 0.77892 0.13792 0.0
C1888 C 0.65946 0.41431 0.125 0.0
C1889 C 0.66619 0.37979 0.1108 0.0
C1890 C 0.64459 0.41302 0.1288 0.0
C1891 C 0.63609 0.37581 0.11841 0.0
C1892 C 0.64275 0.34112 0.10381 0.0
C1893 C 0.65771 0.34378 0.10002 0.0
C1894 C 0.63798 0.4515 0.14409 0.0
C1895 C 0.6341 0.30067 0.09251 0.0
C1896 C 0.59962 0.35101 0.14548 0.0
C1897 C 0.59035 0.37997 0.13235 0.0
C1898 C 0.61445 0.34787 0.14072 0.0
C1899 C 0.6202 0.3746 0.12251 0.0
C1900 C 0.61088 0.4034 0.1091 0.0
C1901 C 0.59615 0.40563 0.11412 0.0
C1902 C 0.624 0.31653 0.15539 0.0
C1903 C 0.6165 0.43303 0.0897 0.0
H1904 H 0.66589 0.44257 0.13328 0.0
H1905 H 0.66283 0.31669 0.08921 0.0
H1906 H 0.62955 0.4731 0.13529 0.0
H1907 H 0.63273 0.43231 0.15817 0.0
H1908 H 0.64605 0.4784 0.15065 0.0
H1909 H 0.64082 0.27657 0.08167 0.0
H1910 H 0.62883 0.27651 0.10503 0.0
H1911 H 0.62545 0.31795 0.08246 0.0
H1912 H 0.59531 0.33077 0.15949 0.0
H1913 H 0.5892 0.42828 0.10379 0.0
H1914 H 0.63182 0.34119 0.16396 0.0
H1915 H 0.63026 0.28939 0.14534 0.0
H1916 H 0.61779 0.29538 0.16797 0.0
H1917 H 0.62408 0.46233 0.09556 0.0
H1918 H 0.60777 0.45168 0.08027 0.0
H1919 H 0.62255 0.40799 0.07839 0.0
C1920 C 0.41003 0.10012 0.90103 0.0
C1921 C 0.41896 0.11795 0.8841 0.0
C1922 C 0.39495 0.0983 0.89838 0.0
C1923 C 0.38861 0.11472 0.87835 0.0
C1924 C 0.39761 0.13128 0.86103 0.0
C1925 C 0.41256 0.13264 0.86409 0.0
C1926 C 0.38577 0.08012 0.91724 0.0
C1927 C 0.39141 0.14931 0.83943 0.0
C1928 C 0.34947 0.08482 0.86366 0.0
C1929 C 0.34243 0.12906 0.87024 0.0
C1930 C 0.36443 0.07899 0.86664 0.0
C1931 C 0.3726 0.1187 0.876 0.0
C1932 C 0.36554 0.1637 0.88228 0.0
C1933 C 0.35061 0.16812 0.8795 0.0
C1934 C 0.3715 0.03021 0.85994 0.0
C1935 C 0.37378 0.20754 0.89181 0.0
H1936 H 0.41477 0.0885 0.91652 0.0
H1937 H 0.41925 0.14612 0.85072 0.0
H1938 H 0.37919 0.11173 0.92365 0.0
H1939 H 0.37824 0.05061 0.91146 0.0
H1940 H 0.39231 0.06469 0.93099 0.0
H1941 H 0.39986 0.15815 0.82711 0.0
H1942 H 0.38416 0.12038 0.83238 0.0
H1943 H 0.38488 0.18367 0.84225 0.0
H1944 H 0.34323 0.0543 0.8567 0.0
H1945 H 0.3453 0.20264 0.88448 0.0
H1946 H 0.37711 0.01339 0.87429 0.0
H1947 H 0.37973 0.03741 0.84712 0.0
H1948 H 0.36364 0.00249 0.85344 0.0
H1949 H 0.37951 0.19564 0.90696 0.0
H1950 H 0.3667 0.23986 0.89593 0.0
H1951 H 0.38202 0.22044 0.87987 0.0
C1952 C 0.41371 0.60789 0.86448 0.0
C1953 C 0.42328 0.63696 0.87689 0.0
C1954 C 0.39884 0.60924 0.86874 0.0
C1955 C 0.39339 0.64167 0.88535 0.0
C1956 C 0.40302 0.67257 0.89731 0.0
C1957 C 0.41788 0.66904 0.89325 0.0
C1958 C 0.38902 0.57479 0.85594 0.0
C1959 C 0.39766 0.70903 0.91453 0.0
C1960 C 0.35351 0.67138 0.88033 0.0
C1961 C 0.34745 0.63926 0.89612 0.0
C1962 C 0.36846 0.67435 0.87741 0.0
C1963 C 0.3776 0.64315 0.8901 0.0
C1964 C 0.37154 0.61164 0.90655 0.0
C1965 C 0.35652 0.61054 0.90955 0.0
C1966 C 0.37441 0.70961 0.86019 0.0
C1967 C 0.38086 0.57709 0.92016 0.0
H1968 H 0.41794 0.58238 0.85212 0.0
H1969 H 0.42532 0.69131 0.90294 0.0
H1970 H 0.38313 0.54981 0.86746 0.0
H1971 H 0.38089 0.5972 0.84687 0.0
H1972 H 0.39497 0.55106 0.84393 0.0
H1973 H 0.40644 0.73265 0.92136 0.0
H1974 H 0.38935 0.73408 0.90733 0.0
H1975 H 0.39255 0.68814 0.92825 0.0
H1976 H 0.34648 0.6935 0.86987 0.0
H1977 H 0.35182 0.58506 0.92149 0.0
H1978 H 0.37905 0.68755 0.8464 0.0
H1979 H 0.38319 0.73276 0.86727 0.0
H1980 H 0.36604 0.73512 0.85343 0.0
H1981 H 0.38614 0.54917 0.90922 0.0
H1982 H 0.37461 0.55657 0.93289 0.0
H1983 H 0.38949 0.59877 0.92842 0.0
C1984 C 0.05998 0.04186 0.1639 0.0
C1985 C 0.05527 -0.00075 0.15242 0.0
C1986 C 0.06124 0.08857 0.15317 0.0
C1987 C 0.05782 0.09229 0.13046 0.0
C1988 C 0.05384 0.04872 0.1186 0.0
C1989 C 0.05251 0.00292 0.12975 0.0
C1990 C 0.06554 0.13433 0.16632 0.0
C1991 C 0.0502 0.05092 0.09436 0.0
C1992 C 0.04181 0.2142 0.10969 0.0
C1993 C 0.05322 0.23485 0.09775 0.0
C1994 C 0.04323 0.16791 0.12041 0.0
C1995 C 0.05655 0.14225 0.11966 0.0
C1996 C 0.06821 0.16317 0.10774 0.0
C1997 C 0.06634 0.20917 0.09664 0.0
C1998 C 0.03043 0.14637 0.13246 0.0
C1999 C 0.08264 0.1373 0.10698 0.0
H2000 H 0.0622 0.03912 0.18139 0.0
H2001 H 0.04901 0.97011 0.12066 0.0
H2002 H 0.07403 0.15571 0.15757 0.0
H2003 H 0.05614 0.15971 0.16816 0.0
H2004 H 0.0695 0.12425 0.18301 0.0
H2005 H 0.04877 0.01289 0.08709 0.0
H2006 H 0.0401 0.07246 0.09203 0.0
H2007 H 0.05876 0.07077 0.08511 0.0
H2008 H 0.03168 0.23436 0.11058 0.0
H2009 H 0.07525 0.22587 0.08776 0.0
H2010 H 0.03313 0.14029 0.15005 0.0
H2011 H 0.02756 0.10923 0.12536 0.0
H2012 H 0.02086 0.17128 0.1315 0.0
H2013 H 0.08677 0.13188 0.12396 0.0
H2014 H 0.09068 0.15904 0.09739 0.0
H2015 H 0.08152 0.09943 0.0995 0.0
C2016 C 0.22227 0.02336 0.10346 0.0
C2017 C 0.21071 -0.00088 0.09329 0.0
C2018 C 0.22084 0.07199 0.11186 0.0
C2019 C 0.20741 0.09669 0.11037 0.0
C2020 C 0.19578 0.07306 0.0994 0.0
C2021 C 0.1976 0.02428 0.0908 0.0
C2022 C 0.2336 0.09615 0.12305 0.0
C2023 C 0.18129 0.09823 0.09766 0.0
C2024 C 0.20416 0.19649 0.15453 0.0
C2025 C 0.20897 0.23904 0.14313 0.0
C2026 C 0.20254 0.15022 0.14364 0.0
C2027 C 0.20577 0.14677 0.12086 0.0
C2028 C 0.20974 0.19037 0.10904 0.0
C2029 C 0.21138 0.2359 0.12035 0.0
C2030 C 0.19821 0.10444 0.15675 0.0
C2031 C 0.21316 0.18834 0.08474 0.0
H2032 H 0.23239 0.00357 0.10536 0.0
H2033 H 0.18862 0.0049 0.08326 0.0
H2034 H 0.23593 0.13321 0.11545 0.0
H2035 H 0.23113 0.10283 0.14069 0.0
H2036 H 0.24343 0.07251 0.12199 0.0
H2037 H 0.17393 0.07759 0.08644 0.0
H2038 H 0.17627 0.10005 0.11422 0.0
H2039 H 0.18245 0.13745 0.09167 0.0
H2040 H 0.20213 0.19891 0.17209 0.0
H2041 H 0.21493 0.26877 0.11134 0.0
H2042 H 0.2076 0.07899 0.15854 0.0
H2043 H 0.18969 0.08317 0.14802 0.0
H2044 H 0.19428 0.11448 0.17347 0.0
H2045 H 0.22355 0.16859 0.08227 0.0
H2046 H 0.214 0.22648 0.07737 0.0
H2047 H 0.20482 0.16683 0.07571 0.0
C2048 C 0.95115 0.77581 0.90301 0.0
C2049 C 0.95973 0.74056 0.89199 0.0
C2050 C 0.94884 0.82383 0.89402 0.0
C2051 C 0.9555 0.83681 0.87381 0.0
C2052 C 0.96349 0.80031 0.86209 0.0
C2053 C 0.96543 0.75253 0.87127 0.0
C2054 C 0.93999 0.86153 0.90675 0.0
C2055 C 0.97094 0.8128 0.84066 0.0
C2056 C 0.94834 0.96054 0.84416 0.0
C2057 C 0.95949 0.9902 0.85253 0.0
C2058 C 0.94653 0.91063 0.8514 0.0
C2059 C 0.95633 0.89022 0.86689 0.0
C2060 C 0.96765 0.92021 0.87518 0.0
C2061 C 0.96899 0.96987 0.86805 0.0
C2062 C 0.93417 0.87989 0.84263 0.0
C2063 C 0.97851 0.89967 0.89139 0.0
H2064 H 0.94652 0.76633 0.91886 0.0
H2065 H 0.97196 0.7252 0.86256 0.0
H2066 H 0.94721 0.88952 0.91455 0.0
H2067 H 0.93265 0.8823 0.89557 0.0
H2068 H 0.93353 0.84329 0.9199 0.0
H2069 H 0.97526 0.77875 0.83235 0.0
H2070 H 0.96348 0.83217 0.82923 0.0
H2071 H 0.98 0.83885 0.84396 0.0
H2072 H 0.94089 0.97659 0.83236 0.0
H2073 H 0.97766 0.99279 0.8745 0.0
H2074 H 0.92755 0.86572 0.8565 0.0
H2075 H 0.93831 0.84657 0.83364 0.0
H2076 H 0.92719 0.90192 0.83135 0.0
H2077 H 0.973 0.88662 0.90654 0.0
H2078 H 0.9867 0.92808 0.89612 0.0
H2079 H 0.98412 0.86674 0.88413 0.0
C2080 C 0.81622 0.95843 0.90882 0.0
C2081 C 0.80412 0.98561 0.902 0.0
C2082 C 0.81881 0.90974 0.9006 0.0
C2083 C 0.80886 0.88788 0.88573 0.0
C2084 C 0.79662 0.91539 0.87898 0.0
C2085 C 0.7945 0.96403 0.88702 0.0
C2086 C 0.83214 0.88177 0.90771 0.0
C2087 C 0.78556 0.89314 0.86355 0.0
C2088 C 0.81486 0.77576 0.84834 0.0
C2089 C 0.80745 0.7383 0.85991 0.0
C2090 C 0.8165 0.82411 0.85738 0.0
C2091 C 0.81043 0.83503 0.87826 0.0
C2092 C 0.80368 0.79644 0.89046 0.0
C2093 C 0.80233 0.74856 0.88117 0.0
C2094 C 0.82402 0.86419 0.84409 0.0
C2095 C 0.7969 0.80656 0.91266 0.0
H2096 H 0.82378 0.9756 0.92013 0.0
H2097 H 0.78513 0.98512 0.88176 0.0
H2098 H 0.8291 0.84719 0.9168 0.0
H2099 H 0.83837 0.86978 0.89303 0.0
H2100 H 0.83916 0.90502 0.91844 0.0
H2101 H 0.7767 0.91983 0.85983 0.0
H2102 H 0.79071 0.88194 0.84782 0.0
H2103 H 0.78086 0.85873 0.87098 0.0
H2104 H 0.81902 0.76773 0.83203 0.0
H2105 H 0.79672 0.71963 0.89034 0.0
H2106 H 0.83138 0.88636 0.85468 0.0
H2107 H 0.81594 0.89061 0.83724 0.0
H2108 H 0.83025 0.84792 0.83018 0.0
H2109 H 0.80447 0.82703 0.92354 0.0
H2110 H 0.79354 0.77138 0.92107 0.0
H2111 H 0.78729 0.83078 0.91046 0.0
C2112 C 0.05017 0.73089 0.62193 0.0
C2113 C 0.05582 0.73743 0.6007 0.0
C2114 C 0.05128 0.68482 0.63285 0.0
C2115 C 0.05825 0.64416 0.62232 0.0
C2116 C 0.06448 0.6509 0.60121 0.0
C2117 C 0.06312 0.69761 0.59054 0.0
C2118 C 0.04436 0.67907 0.65524 0.0
C2119 C 0.07214 0.60836 0.58966 0.0
C2120 C 0.06555 0.53169 0.65927 0.0
C2121 C 0.05373 0.50123 0.65429 0.0
C2122 C 0.0676 0.5776 0.64822 0.0
C2123 C 0.05737 0.59348 0.63238 0.0
C2124 C 0.04544 0.56263 0.6274 0.0
C2125 C 0.04387 0.51664 0.63825 0.0
C2126 C 0.08061 0.6092 0.65354 0.0
C2127 C 0.03409 0.57875 0.61104 0.0
H2128 H 0.04456 0.7616 0.62995 0.0
H2129 H 0.06765 0.70279 0.57425 0.0
H2130 H 0.03525 0.65231 0.65411 0.0
H2131 H 0.05215 0.66331 0.66721 0.0
H2132 H 0.04026 0.71537 0.6618 0.0
H2133 H 0.07787 0.62128 0.57464 0.0
H2134 H 0.08 0.59034 0.60093 0.0
H2135 H 0.06426 0.57912 0.5848 0.0
H2136 H 0.07331 0.51915 0.67141 0.0
H2137 H 0.03473 0.4929 0.63439 0.0
H2138 H 0.07719 0.64515 0.66121 0.0
H2139 H 0.08647 0.61876 0.63818 0.0
H2140 H 0.0881 0.58973 0.66496 0.0
H2141 H 0.02885 0.61388 0.6168 0.0
H2142 H 0.02567 0.54966 0.60866 0.0
H2143 H 0.03909 0.58693 0.59484 0.0
C2144 C 0.2174 0.49748 0.62054 0.0
C2145 C 0.21031 0.4896 0.60044 0.0
C2146 C 0.21662 0.54374 0.6314 0.0
C2147 C 0.20848 0.58318 0.62202 0.0
C2148 C 0.20086 0.57507 0.60211 0.0
C2149 C 0.20193 0.52824 0.59143 0.0
C2150 C 0.22503 0.55099 0.65247 0.0
C2151 C 0.19193 0.61624 0.59182 0.0
C2152 C 0.20209 0.69487 0.65988 0.0
C2153 C 0.21312 0.72721 0.65319 0.0
C2154 C 0.19999 0.64846 0.64924 0.0
C2155 C 0.20934 0.6341 0.63191 0.0
C2156 C 0.22045 0.66687 0.62513 0.0
C2157 C 0.22212 0.71314 0.63575 0.0
C2158 C 0.18789 0.61466 0.65661 0.0
C2159 C 0.23083 0.65254 0.60703 0.0
H2160 H 0.22385 0.46768 0.62766 0.0
H2161 H 0.19631 0.52202 0.57604 0.0
H2162 H 0.23362 0.57927 0.64979 0.0
H2163 H 0.21793 0.5656 0.66568 0.0
H2164 H 0.23008 0.51554 0.6583 0.0
H2165 H 0.18545 0.60234 0.57771 0.0
H2166 H 0.18459 0.63292 0.60425 0.0
H2167 H 0.19906 0.64678 0.58588 0.0
H2168 H 0.19498 0.70615 0.67315 0.0
H2169 H 0.23066 0.73819 0.63053 0.0
H2170 H 0.19234 0.5795 0.66372 0.0
H2171 H 0.18117 0.60381 0.64229 0.0
H2172 H 0.18093 0.63293 0.66916 0.0
H2173 H 0.23696 0.61852 0.61194 0.0
H2174 H 0.23859 0.68309 0.60327 0.0
H2175 H 0.22488 0.64315 0.59175 0.0
C2176 C 0.94896 0.46015 0.34594 0.0
C2177 C 0.95847 0.49433 0.35572 0.0
C2178 C 0.9475 0.41115 0.3544 0.0
C2179 C 0.95602 0.39607 0.3726 0.0
C2180 C 0.96537 0.43097 0.38274 0.0
C2181 C 0.96636 0.47975 0.3743 0.0
C2182 C 0.93716 0.37518 0.34354 0.0
C2183 C 0.9749 0.41615 0.40184 0.0
C2184 C 0.95088 0.27645 0.40593 0.0
C2185 C 0.96116 0.24502 0.39619 0.0
C2186 C 0.94841 0.3251 0.39762 0.0
C2187 C 0.95662 0.34258 0.3795 0.0
C2188 C 0.96674 0.31036 0.36936 0.0
C2189 C 0.96881 0.26196 0.37773 0.0
C2190 C 0.93731 0.3582 0.40851 0.0
C2191 C 0.9759 0.32772 0.35025 0.0
H2192 H 0.94269 0.47168 0.33176 0.0
H2193 H 0.97371 0.50615 0.38193 0.0
H2194 H 0.94324 0.34563 0.33461 0.0
H2195 H 0.93048 0.35602 0.35614 0.0
H2196 H 0.92997 0.39451 0.33163 0.0
H2197 H 0.98103 0.44856 0.40855 0.0
H2198 H 0.96838 0.39965 0.41531 0.0
H2199 H 0.98266 0.38697 0.3964 0.0
H2200 H 0.9448 0.26311 0.41999 0.0
H2201 H 0.97674 0.2377 0.37007 0.0
H2202 H 0.93019 0.37543 0.39592 0.0
H2203 H 0.94272 0.38935 0.41738 0.0
H2204 H 0.9306 0.33703 0.42047 0.0
H2205 H 0.96903 0.34231 0.33677 0.0
H2206 H 0.98277 0.29711 0.34355 0.0
H2207 H 0.98297 0.35899 0.35567 0.0
C2208 C 0.81618 0.27708 0.34562 0.0
C2209 C 0.80543 0.24542 0.35385 0.0
C2210 C 0.81782 0.32617 0.35397 0.0
C2211 C 0.80825 0.34384 0.37043 0.0
C2212 C 0.79742 0.31172 0.37871 0.0
C2213 C 0.79625 0.26285 0.37047 0.0
C2214 C 0.82968 0.35918 0.34516 0.0
C2215 C 0.78677 0.32935 0.39587 0.0
C2216 C 0.81316 0.45833 0.40694 0.0
C2217 C 0.80407 0.49288 0.39647 0.0
C2218 C 0.81556 0.41046 0.39776 0.0
C2219 C 0.80853 0.397 0.37789 0.0
C2220 C 0.7999 0.4327 0.3668 0.0
C2221 C 0.79783 0.48019 0.37618 0.0
C2222 C 0.82505 0.37356 0.4098 0.0
C2223 C 0.79207 0.41976 0.34574 0.0
H2224 H 0.82341 0.26327 0.33299 0.0
H2225 H 0.78791 0.23838 0.37683 0.0
H2226 H 0.825 0.39193 0.3364 0.0
H2227 H 0.83621 0.37417 0.35896 0.0
H2228 H 0.83685 0.33863 0.33361 0.0
H2229 H 0.77916 0.29923 0.40083 0.0
H2230 H 0.79251 0.34268 0.41077 0.0
H2231 H 0.78047 0.36154 0.38935 0.0
H2232 H 0.81818 0.46832 0.42244 0.0
H2233 H 0.79089 0.50688 0.36787 0.0
H2234 H 0.83246 0.35452 0.39814 0.0
H2235 H 0.81831 0.34405 0.41754 0.0
H2236 H 0.83148 0.3921 0.42291 0.0
H2237 H 0.79953 0.40266 0.33363 0.0
H2238 H 0.78695 0.45322 0.33808 0.0
H2239 H 0.78358 0.39162 0.3493 0.0
C2240 C 0.54196 0.0173 0.63553 0.0
C2241 C 0.55116 0.00047 0.65223 0.0
C2242 C 0.544 0.06408 0.62553 0.0
C2243 C 0.55571 0.09443 0.63211 0.0
C2244 C 0.56532 0.07705 0.64856 0.0
C2245 C 0.56282 0.03028 0.65866 0.0
C2246 C 0.53333 0.08168 0.6084 0.0
C2247 C 0.57808 0.1081 0.65562 0.0
C2248 C 0.56287 0.20346 0.59323 0.0
C2249 C 0.55523 0.24208 0.60371 0.0
C2250 C 0.56387 0.15551 0.60291 0.0
C2251 C 0.55687 0.14623 0.62325 0.0
C2252 C 0.54952 0.18561 0.63411 0.0
C2253 C 0.54886 0.23303 0.62426 0.0
C2254 C 0.57204 0.11448 0.59112 0.0
C2255 C 0.54173 0.17713 0.65565 0.0
H2256 H 0.53295 -0.00586 0.63051 0.0
H2257 H 0.57008 0.01678 0.67131 0.0
H2258 H 0.52776 0.11603 0.61436 0.0
H2259 H 0.53898 0.09172 0.59293 0.0
H2260 H 0.52511 0.05268 0.6046 0.0
H2261 H 0.58525 0.08722 0.66704 0.0
H2262 H 0.58438 0.11994 0.64101 0.0
H2263 H 0.57433 0.14281 0.664 0.0
H2264 H 0.56796 0.21059 0.57748 0.0
H2265 H 0.54298 0.26282 0.6325 0.0
H2266 H 0.56439 0.08585 0.58486 0.0
H2267 H 0.57945 0.09514 0.60267 0.0
H2268 H 0.57833 0.12925 0.57699 0.0
H2269 H 0.53277 0.15024 0.65308 0.0
H2270 H 0.53725 0.21251 0.66257 0.0
H2271 H 0.54908 0.16029 0.66798 0.0
C2272 C 0.72286 0.21508 0.64037 0.0
C2273 C 0.71219 0.23505 0.65406 0.0
C2274 C 0.72104 0.16841 0.63012 0.0
C2275 C 0.70804 0.14175 0.63316 0.0
C2276 C 0.69707 0.16225 0.64665 0.0
C2277 C 0.69937 0.20858 0.65725 0.0
C2278 C 0.73316 0.14726 0.61635 0.0
C2279 C 0.68295 0.13531 0.64981 0.0
C2280 C 0.70254 0.03698 0.59146 0.0
C2281 C 0.70792 -0.00439 0.60314 0.0
C2282 C 0.70178 0.08471 0.6014 0.0
C2283 C 0.70655 0.09083 0.62342 0.0
C2284 C 0.71144 0.04872 0.63548 0.0
C2285 C 0.71207 0.00172 0.62519 0.0
C2286 C 0.69637 0.12885 0.58814 0.0
C2287 C 0.71668 0.05365 0.65895 0.0
H2288 H 0.73276 0.23581 0.6379 0.0
H2289 H 0.69102 0.22471 0.66752 0.0
H2290 H 0.73684 0.11099 0.62344 0.0
H2291 H 0.72935 0.13953 0.59937 0.0
H2292 H 0.74249 0.17318 0.61544 0.0
H2293 H 0.67523 0.15771 0.65975 0.0
H2294 H 0.67803 0.12698 0.63357 0.0
H2295 H 0.68479 0.09877 0.65818 0.0
H2296 H 0.69921 0.03229 0.57447 0.0
H2297 H 0.71616 0.96989 0.6344 0.0
H2298 H 0.70541 0.15477 0.58456 0.0
H2299 H 0.68827 0.15037 0.59769 0.0
H2300 H 0.69151 0.11692 0.57226 0.0
H2301 H 0.72658 0.07686 0.65931 0.0
H2302 H 0.71911 0.01658 0.66655 0.0
H2303 H 0.70853 0.07307 0.66922 0.0
C2304 C 0.46088 0.74664 0.37992 0.0
C2305 C 0.45583 0.7377 0.40134 0.0
C2306 C 0.45993 0.79425 0.37035 0.0
C2307 C 0.45368 0.83406 0.38244 0.0
C2308 C 0.44775 0.82476 0.40357 0.0
C2309 C 0.44898 0.7765 0.41289 0.0
C2310 C 0.46654 0.80259 0.34789 0.0
C2311 C 0.44077 0.86629 0.41672 0.0
C2312 C 0.47071 0.95987 0.37087 0.0
C2313 C 0.4612 0.98076 0.35555 0.0
C2314 C 0.46814 0.91269 0.38014 0.0
C2315 C 0.45553 0.88618 0.3743 0.0
C2316 C 0.44566 0.90759 0.3592 0.0
C2317 C 0.44871 0.95465 0.34971 0.0
C2318 C 0.47914 0.89069 0.39573 0.0
C2319 C 0.43196 0.88072 0.35305 0.0
H2320 H 0.4661 0.71674 0.37077 0.0
H2321 H 0.44487 0.76951 0.42932 0.0
H2322 H 0.45894 0.8227 0.33693 0.0
H2323 H 0.47626 0.82646 0.34957 0.0
H2324 H 0.46971 0.76673 0.33982 0.0
H2325 H 0.43462 0.85142 0.43099 0.0
H2326 H 0.44916 0.8922 0.42302 0.0
H2327 H 0.43343 0.88868 0.40616 0.0
H2328 H 0.48035 0.98032 0.37541 0.0
H2329 H 0.44122 0.97149 0.3382 0.0
H2330 H 0.48356 0.85533 0.38873 0.0
H2331 H 0.47403 0.88113 0.41169 0.0
H2332 H 0.4882 0.91686 0.39892 0.0
H2333 H 0.43452 0.8455 0.34407 0.0
H2334 H 0.42488 0.90423 0.3425 0.0
H2335 H 0.42597 0.86997 0.36814 0.0
C2336 C 0.31455 0.77585 0.34213 0.0
C2337 C 0.3019 0.75022 0.34756 0.0
C2338 C 0.31706 0.82466 0.35027 0.0
C2339 C 0.30653 0.84815 0.36366 0.0
C2340 C 0.29365 0.82245 0.36877 0.0
C2341 C 0.29158 0.77372 0.36082 0.0
C2342 C 0.331 0.85078 0.34484 0.0
C2343 C 0.282 0.84647 0.38259 0.0
C2344 C 0.31205 0.95764 0.40265 0.0
C2345 C 0.30569 -0.00325 0.39064 0.0
C2346 C 0.31351 0.90944 0.39337 0.0
C2347 C 0.30839 0.90043 0.37174 0.0
C2348 C 0.30279 0.94062 0.35915 0.0
C2349 C 0.30152 0.98824 0.36875 0.0
C2350 C 0.31973 0.86753 0.40717 0.0
C2351 C 0.29713 0.93263 0.33608 0.0
H2352 H 0.32261 0.75725 0.33213 0.0
H2353 H 0.28177 0.75387 0.36497 0.0
H2354 H 0.32883 0.88704 0.33643 0.0
H2355 H 0.33688 0.8596 0.36027 0.0
H2356 H 0.33804 0.8275 0.33413 0.0
H2357 H 0.2726 0.82131 0.38491 0.0
H2358 H 0.2863 0.8566 0.39904 0.0
H2359 H 0.27825 0.88173 0.37466 0.0
H2360 H 0.31548 0.96424 0.41947 0.0
H2361 H 0.29674 0.01845 0.35925 0.0
H2362 H 0.32744 0.84483 0.39738 0.0
H2363 H 0.31098 0.84202 0.41254 0.0
H2364 H 0.32529 0.88204 0.42207 0.0
H2365 H 0.30491 0.91077 0.32607 0.0
H2366 H 0.29487 0.96874 0.32754 0.0
H2367 H 0.28702 0.91058 0.33684 0.0
C2368 C 0.56486 0.52856 0.16095 0.0
C2369 C 0.5518 0.5035 0.15781 0.0
C2370 C 0.56733 0.57555 0.151 0.0
C2371 C 0.55634 0.59795 0.13816 0.0
C2372 C 0.54304 0.57299 0.13544 0.0
C2373 C 0.54101 0.52581 0.14508 0.0
C2374 C 0.58174 0.60071 0.15384 0.0
C2375 C 0.53091 0.59609 0.12231 0.0
C2376 C 0.55298 0.73773 0.12915 0.0
C2377 C 0.55637 0.74211 0.10671 0.0
C2378 C 0.55388 0.69145 0.14001 0.0
C2379 C 0.55829 0.64838 0.12813 0.0
C2380 C 0.56256 0.65301 0.10581 0.0
C2381 C 0.56152 0.7 0.0953 0.0
C2382 C 0.5492 0.68814 0.1638 0.0
C2383 C 0.56748 0.60788 0.09273 0.0
H2384 H 0.57329 0.51063 0.17045 0.0
H2385 H 0.53093 0.50614 0.14264 0.0
H2386 H 0.58688 0.60596 0.13751 0.0
H2387 H 0.58034 0.63862 0.16118 0.0
H2388 H 0.5891 0.5785 0.16447 0.0
H2389 H 0.52118 0.57189 0.12205 0.0
H2390 H 0.52794 0.63314 0.12942 0.0
H2391 H 0.53441 0.60267 0.10509 0.0
H2392 H 0.54914 0.77024 0.13818 0.0
H2393 H 0.56431 0.70336 0.07802 0.0
H2394 H 0.55722 0.66708 0.17367 0.0
H2395 H 0.5389 0.66728 0.16483 0.0
H2396 H 0.54765 0.72585 0.17134 0.0
H2397 H 0.57542 0.58563 0.10226 0.0
H2398 H 0.57236 0.61884 0.07673 0.0
H2399 H 0.55817 0.58302 0.08937 0.0
C2400 C 0.70035 0.53617 0.09095 0.0
C2401 C 0.70903 0.49872 0.10024 0.0
C2402 C 0.69909 0.58354 0.10111 0.0
C2403 C 0.70689 0.5935 0.12068 0.0
C2404 C 0.71548 0.55541 0.13021 0.0
C2405 C 0.71636 0.50847 0.11995 0.0
C2406 C 0.68963 0.62315 0.09075 0.0
C2407 C 0.72417 0.56472 0.15085 0.0
C2408 C 0.71964 0.725 0.13352 0.0
C2409 C 0.71097 0.73803 0.15152 0.0
C2410 C 0.71805 0.67871 0.12288 0.0
C2411 C 0.70735 0.64488 0.13018 0.0
C2412 C 0.69821 0.65844 0.14789 0.0
C2413 C 0.70024 0.70485 0.15857 0.0
C2414 C 0.72822 0.66527 0.10437 0.0
C2415 C 0.68652 0.62355 0.1558 0.0
H2416 H 0.69452 0.52841 0.07587 0.0
H2417 H 0.72307 0.47954 0.12722 0.0
H2418 H 0.68222 0.63918 0.10323 0.0
H2419 H 0.69636 0.65447 0.0845 0.0
H2420 H 0.6832 0.60795 0.07684 0.0
H2421 H 0.72983 0.53035 0.15664 0.0
H2422 H 0.73229 0.59438 0.14767 0.0
H2423 H 0.71711 0.57844 0.1643 0.0
H2424 H 0.72794 0.75067 0.12801 0.0
H2425 H 0.69339 0.71528 0.17227 0.0
H2426 H 0.7221 0.65441 0.08944 0.0
H2427 H 0.73486 0.63239 0.10923 0.0
H2428 H 0.73552 0.6968 0.10005 0.0
H2429 H 0.6799 0.61062 0.14169 0.0
H2430 H 0.67938 0.6418 0.16812 0.0
H2431 H 0.69139 0.58966 0.16341 0.0
C2432 C 0.44799 0.27723 0.91355 0.0
C2433 C 0.45944 0.24723 0.90634 0.0
C2434 C 0.44632 0.32661 0.90555 0.0
C2435 C 0.45651 0.34618 0.89047 0.0
C2436 C 0.46816 0.31596 0.88346 0.0
C2437 C 0.46939 0.2668 0.89132 0.0
C2438 C 0.43363 0.35761 0.91302 0.0
C2439 C 0.47946 0.33566 0.86778 0.0
C2440 C 0.45156 0.45777 0.85244 0.0
C2441 C 0.45971 0.49433 0.86338 0.0
C2442 C 0.44941 0.41011 0.8619 0.0
C2443 C 0.45568 0.39897 0.88262 0.0
C2444 C 0.46321 0.43678 0.89422 0.0
C2445 C 0.46511 0.48397 0.88447 0.0
C2446 C 0.44114 0.37085 0.8492 0.0
C2447 C 0.47014 0.42641 0.91627 0.0
H2448 H 0.44019 0.26172 0.92493 0.0
H2449 H 0.47827 0.2436 0.88579 0.0
H2450 H 0.4374 0.39243 0.92126 0.0
H2451 H 0.42718 0.36932 0.89853 0.0
H2452 H 0.42658 0.33666 0.92458 0.0
H2453 H 0.48785 0.30717 0.86401 0.0
H2454 H 0.47438 0.34751 0.85208 0.0
H2455 H 0.48475 0.36924 0.87497 0.0
H2456 H 0.44719 0.46588 0.83628 0.0
H2457 H 0.47129 0.51226 0.89316 0.0
H2458 H 0.43351 0.35089 0.86017 0.0
H2459 H 0.44872 0.3424 0.84254 0.0
H2460 H 0.43508 0.38748 0.83521 0.0
H2461 H 0.46246 0.40757 0.92752 0.0
H2462 H 0.47407 0.46133 0.92431 0.0
H2463 H 0.47939 0.4006 0.91395 0.0
C2464 C 0.29168 0.27932 0.86098 0.0
C2465 C 0.30232 0.25396 0.84909 0.0
C2466 C 0.29402 0.32778 0.86909 0.0
C2467 C 0.30749 0.35109 0.86562 0.0
C2468 C 0.31824 0.32603 0.85319 0.0
C2469 C 0.31546 0.27757 0.84486 0.0
C2470 C 0.28214 0.3535 0.88185 0.0
C2471 C 0.33279 0.34947 0.84949 0.0
C2472 C 0.30476 0.49105 0.87446 0.0
C2473 C 0.30799 0.495 0.89697 0.0
C2474 C 0.30573 0.44487 0.86347 0.0
C2475 C 0.31003 0.40159 0.87529 0.0
C2476 C 0.31434 0.40605 0.8976 0.0
C2477 C 0.31323 0.45284 0.90824 0.0
C2478 C 0.30109 0.44178 0.83966 0.0
C2479 C 0.31917 0.36076 0.91065 0.0
H2480 H 0.28152 0.26075 0.86424 0.0
H2481 H 0.32377 0.2573 0.83601 0.0
H2482 H 0.28569 0.36051 0.89902 0.0
H2483 H 0.27963 0.39052 0.87433 0.0
H2484 H 0.27214 0.33079 0.88233 0.0
H2485 H 0.33941 0.32747 0.83768 0.0
H2486 H 0.33164 0.38847 0.84323 0.0
H2487 H 0.33863 0.35162 0.8654 0.0
H2488 H 0.3009 0.52369 0.86555 0.0
H2489 H 0.31593 0.45589 0.92555 0.0
H2490 H 0.29049 0.42283 0.83867 0.0
H2491 H 0.30882 0.41905 0.82993 0.0
H2492 H 0.30012 0.47956 0.83198 0.0
H2493 H 0.30976 0.33652 0.91425 0.0
H2494 H 0.32424 0.37162 0.92652 0.0
H2495 H 0.32692 0.33795 0.90099 0.0
loop_
_geom_bond_atom_site_label_1
_geom_bond_atom_site_label_2
_geom_bond_distance
_geom_bond_site_symmetry_2
_ccdc_geom_bond_type
Co0 O1 2.216 . S
Co0 O2 2.091 . S
Co0 O4 2.004 . S
Co0 O10 2.021 . S
Co0 O12 2.137 . S
Co0 O13 2.244 . S
O1 Co0 2.216 . S
O1 C8 1.247 . S
O2 Co0 2.091 . S
O2 C8 1.261 . S
C3 O12 1.247 . S
C3 O13 1.272 . S
O4 Co0 2.004 . S
O4 C9 1.259 . S
Co5 O6 2.061 . S
Co5 O11 2.052 . S
Co5 O13 2.135 . S
O6 Co5 2.061 . S
O6 C9 1.235 . S
C7 O10 1.238 . S
C7 O11 1.241 . S
C8 O1 1.247 . S
C8 O2 1.261 . S
C9 O4 1.259 . S
C9 O6 1.235 . S
O10 Co0 2.021 . S
O10 C7 1.238 . S
O11 Co5 2.052 . S
O11 C7 1.241 . S
O12 Co0 2.137 . S
O12 C3 1.247 . S
O13 Co0 2.244 . S
O13 C3 1.272 . S
O13 Co5 2.135 . S
Co14 O15 2.216 . S
Co14 O16 2.091 . S
Co14 O18 2.004 . S
Co14 O24 2.021 . S
Co14 O26 2.137 . S
Co14 O27 2.244 . S
O15 Co14 2.216 . S
O15 C22 1.247 . S
O16 Co14 2.091 . S
O16 C22 1.261 . S
C17 O26 1.247 . S
C17 O27 1.272 . S
O18 Co14 2.004 . S
O18 C23 1.259 . S
Co19 O20 2.061 . S
Co19 O25 2.052 . S
Co19 O27 2.135 . S
O20 Co19 2.061 . S
O20 C23 1.235 . S
C21 O24 1.238 . S
C21 O25 1.241 . S
C22 O15 1.247 . S
C22 O16 1.261 . S
C23 O18 1.259 . S
C23 O20 1.235 . S
O24 Co14 2.021 . S
O24 C21 1.238 . S
O25 Co19 2.052 . S
O25 C21 1.241 . S
O26 Co14 2.137 . S
O26 C17 1.247 . S
O27 Co14 2.244 . S
O27 C17 1.272 . S
O27 Co19 2.135 . S
Co28 O29 2.216 . S
Co28 O30 2.091 . S
Co28 O32 2.004 . S
Co28 O38 2.021 . S
Co28 O40 2.137 . S
Co28 O41 2.244 . S
O29 Co28 2.216 . S
O29 C36 1.247 . S
O30 Co28 2.091 . S
O30 C36 1.261 . S
C31 O40 1.247 . S
C31 O41 1.272 . S
O32 Co28 2.004 . S
O32 C37 1.259 . S
Co33 O34 2.061 . S
Co33 O39 2.052 . S
Co33 O41 2.135 . S
O34 Co33 2.061 . S
O34 C37 1.235 . S
C35 O38 1.238 . S
C35 O39 1.241 . S
C36 O29 1.247 . S
C36 O30 1.261 . S
C37 O32 1.259 . S
C37 O34 1.235 . S
O38 Co28 2.021 . S
O38 C35 1.238 . S
O39 Co33 2.052 . S
O39 C35 1.241 . S
O40 Co28 2.137 . S
O40 C31 1.247 . S
O41 Co28 2.244 . S
O41 C31 1.272 . S
O41 Co33 2.135 . S
Co42 O43 2.216 . S
Co42 O44 2.091 . S
Co42 O46 2.004 . S
Co42 O52 2.021 . S
Co42 O54 2.137 . S
Co42 O55 2.244 . S
O43 Co42 2.216 . S
O43 C50 1.247 . S
O44 Co42 2.091 . S
O44 C50 1.261 . S
C45 O54 1.247 . S
C45 O55 1.272 . S
O46 Co42 2.004 . S
O46 C51 1.259 . S
Co47 O48 2.061 . S
Co47 O53 2.052 . S
Co47 O55 2.135 . S
O48 Co47 2.061 . S
O48 C51 1.235 . S
C49 O52 1.238 . S
C49 O53 1.241 . S
C50 O43 1.247 . S
C50 O44 1.261 . S
C51 O46 1.259 . S
C51 O48 1.235 . S
O52 Co42 2.021 . S
O52 C49 1.238 . S
O53 Co47 2.052 . S
O53 C49 1.241 . S
O54 Co42 2.137 . S
O54 C45 1.247 . S
O55 Co42 2.244 . S
O55 C45 1.272 . S
O55 Co47 2.135 . S
Co56 O57 2.216 . S
Co56 O58 2.091 . S
Co56 O60 2.004 . S
Co56 O66 2.021 . S
Co56 O68 2.137 . S
Co56 O69 2.244 . S
O57 Co56 2.216 . S
O57 C64 1.247 . S
O58 Co56 2.091 . S
O58 C64 1.261 . S
C59 O68 1.247 . S
C59 O69 1.272 . S
O60 Co56 2.004 . S
O60 C65 1.259 . S
Co61 O62 2.061 . S
Co61 O67 2.052 . S
Co61 O69 2.135 . S
O62 Co61 2.061 . S
O62 C65 1.235 . S
C63 O66 1.238 . S
C63 O67 1.241 . S
C64 O57 1.247 . S
C64 O58 1.261 . S
C65 O60 1.259 . S
C65 O62 1.235 . S
O66 Co56 2.021 . S
O66 C63 1.238 . S
O67 Co61 2.052 . S
O67 C63 1.241 . S
O68 Co56 2.137 . S
O68 C59 1.247 . S
O69 Co56 2.244 . S
O69 C59 1.272 . S
O69 Co61 2.135 . S
Co70 O71 2.216 . S
Co70 O72 2.091 . S
Co70 O74 2.004 . S
Co70 O80 2.021 . S
Co70 O82 2.137 . S
Co70 O83 2.244 . S
O71 Co70 2.216 . S
O71 C78 1.247 . S
O72 Co70 2.091 . S
O72 C78 1.261 . S
C73 O82 1.247 . S
C73 O83 1.272 . S
O74 Co70 2.004 . S
O74 C79 1.259 . S
Co75 O76 2.061 . S
Co75 O81 2.052 . S
Co75 O83 2.135 . S
O76 Co75 2.061 . S
O76 C79 1.235 . S
C77 O80 1.238 . S
C77 O81 1.241 . S
C78 O71 1.247 . S
C78 O72 1.261 . S
C79 O74 1.259 . S
C79 O76 1.235 . S
O80 Co70 2.021 . S
O80 C77 1.238 . S
O81 Co75 2.052 . S
O81 C77 1.241 . S
O82 Co70 2.137 . S
O82 C73 1.247 . S
O83 Co70 2.244 . S
O83 C73 1.272 . S
O83 Co75 2.135 . S
Co84 O85 2.216 . S
Co84 O86 2.091 . S
Co84 O88 2.004 . S
Co84 O94 2.021 . S
Co84 O96 2.137 . S
Co84 O97 2.244 . S
O85 Co84 2.216 . S
O85 C92 1.247 . S
O86 Co84 2.091 . S
O86 C92 1.261 . S
C87 O96 1.247 . S
C87 O97 1.272 . S
O88 Co84 2.004 . S
O88 C93 1.259 . S
Co89 O90 2.061 . S
Co89 O95 2.052 . S
Co89 O97 2.135 . S
O90 Co89 2.061 . S
O90 C93 1.235 . S
C91 O94 1.238 . S
C91 O95 1.241 . S
C92 O85 1.247 . S
C92 O86 1.261 . S
C93 O88 1.259 . S
C93 O90 1.235 . S
O94 Co84 2.021 . S
O94 C91 1.238 . S
O95 Co89 2.052 . S
O95 C91 1.241 . S
O96 Co84 2.137 . S
O96 C87 1.247 . S
O97 Co84 2.244 . S
O97 C87 1.272 . S
O97 Co89 2.135 . S
Co98 O99 2.216 . S
Co98 O100 2.091 . S
Co98 O102 2.004 . S
Co98 O108 2.021 . S
Co98 O110 2.137 . S
Co98 O111 2.244 . S
O99 Co98 2.216 . S
O99 C106 1.247 . S
O100 Co98 2.091 . S
O100 C106 1.261 . S
C101 O110 1.247 . S
C101 O111 1.272 . S
O102 Co98 2.004 . S
O102 C107 1.259 . S
Co103 O104 2.061 . S
Co103 O109 2.052 . S
Co103 O111 2.135 . S
O104 Co103 2.061 . S
O104 C107 1.235 . S
C105 O108 1.238 . S
C105 O109 1.241 . S
C106 O99 1.247 . S
C106 O100 1.261 . S
C107 O102 1.259 . S
C107 O104 1.235 . S
O108 Co98 2.021 . S
O108 C105 1.238 . S
O109 Co103 2.052 . S
O109 C105 1.241 . S
O110 Co98 2.137 . S
O110 C101 1.247 . S
O111 Co98 2.244 . S
O111 C101 1.272 . S
O111 Co103 2.135 . S
Co112 O113 2.216 . S
Co112 O114 2.091 . S
Co112 O116 2.004 . S
Co112 O122 2.021 . S
Co112 O124 2.137 . S
Co112 O125 2.244 . S
O113 Co112 2.216 . S
O113 C120 1.247 . S
O114 Co112 2.091 . S
O114 C120 1.261 . S
C115 O124 1.247 . S
C115 O125 1.272 . S
O116 Co112 2.004 . S
O116 C121 1.259 . S
Co117 O118 2.061 . S
Co117 O123 2.052 . S
Co117 O125 2.135 . S
O118 Co117 2.061 . S
O118 C121 1.235 . S
C119 O122 1.238 . S
C119 O123 1.241 . S
C120 O113 1.247 . S
C120 O114 1.261 . S
C121 O116 1.259 . S
C121 O118 1.235 . S
O122 Co112 2.021 . S
O122 C119 1.238 . S
O123 Co117 2.052 . S
O123 C119 1.241 . S
O124 Co112 2.137 . S
O124 C115 1.247 . S
O125 Co112 2.244 . S
O125 C115 1.272 . S
O125 Co117 2.135 . S
Co126 O127 2.216 . S
Co126 O128 2.091 . S
Co126 O130 2.004 . S
Co126 O136 2.021 . S
Co126 O138 2.137 . S
Co126 O139 2.244 . S
O127 Co126 2.216 . S
O127 C134 1.247 . S
O128 Co126 2.091 . S
O128 C134 1.261 . S
C129 O138 1.247 . S
C129 O139 1.272 . S
O130 Co126 2.004 . S
O130 C135 1.259 . S
Co131 O132 2.061 . S
Co131 O137 2.052 . S
Co131 O139 2.135 . S
O132 Co131 2.061 . S
O132 C135 1.235 . S
C133 O136 1.238 . S
C133 O137 1.241 . S
C134 O127 1.247 . S
C134 O128 1.261 . S
C135 O130 1.259 . S
C135 O132 1.235 . S
O136 Co126 2.021 . S
O136 C133 1.238 . S
O137 Co131 2.052 . S
O137 C133 1.241 . S
O138 Co126 2.137 . S
O138 C129 1.247 . S
O139 Co126 2.244 . S
O139 C129 1.272 . S
O139 Co131 2.135 . S
Co140 O141 2.216 . S
Co140 O142 2.091 . S
Co140 O144 2.004 . S
Co140 O150 2.021 . S
Co140 O152 2.137 . S
Co140 O153 2.244 . S
O141 Co140 2.216 . S
O141 C148 1.247 . S
O142 Co140 2.091 . S
O142 C148 1.261 . S
C143 O152 1.247 . S
C143 O153 1.272 . S
O144 Co140 2.004 . S
O144 C149 1.259 . S
Co145 O146 2.061 . S
Co145 O151 2.052 . S
Co145 O153 2.135 . S
O146 Co145 2.061 . S
O146 C149 1.235 . S
C147 O150 1.238 . S
C147 O151 1.241 . S
C148 O141 1.247 . S
C148 O142 1.261 . S
C149 O144 1.259 . S
C149 O146 1.235 . S
O150 Co140 2.021 . S
O150 C147 1.238 . S
O151 Co145 2.052 . S
O151 C147 1.241 . S
O152 Co140 2.137 . S
O152 C143 1.247 . S
O153 Co140 2.244 . S
O153 C143 1.272 . S
O153 Co145 2.135 . S
Co154 O155 2.216 . S
Co154 O156 2.091 . S
Co154 O158 2.004 . S
Co154 O164 2.021 . S
Co154 O166 2.137 . S
Co154 O167 2.244 . S
O155 Co154 2.216 . S
O155 C162 1.247 . S
O156 Co154 2.091 . S
O156 C162 1.261 . S
C157 O166 1.247 . S
C157 O167 1.272 . S
O158 Co154 2.004 . S
O158 C163 1.259 . S
Co159 O160 2.061 . S
Co159 O165 2.052 . S
Co159 O167 2.135 . S
O160 Co159 2.061 . S
O160 C163 1.235 . S
C161 O164 1.238 . S
C161 O165 1.241 . S
C162 O155 1.247 . S
C162 O156 1.261 . S
C163 O158 1.259 . S
C163 O160 1.235 . S
O164 Co154 2.021 . S
O164 C161 1.238 . S
O165 Co159 2.052 . S
O165 C161 1.241 . S
O166 Co154 2.137 . S
O166 C157 1.247 . S
O167 Co154 2.244 . S
O167 C157 1.272 . S
O167 Co159 2.135 . S
Co168 O169 2.216 . S
Co168 O170 2.091 . S
Co168 O172 2.004 . S
Co168 O178 2.021 . S
Co168 O180 2.137 . S
Co168 O181 2.244 . S
O169 Co168 2.216 . S
O169 C176 1.247 . S
O170 Co168 2.091 . S
O170 C176 1.261 . S
C171 O180 1.247 . S
C171 O181 1.272 . S
O172 Co168 2.004 . S
O172 C177 1.259 . S
Co173 O174 2.061 . S
Co173 O179 2.052 . S
Co173 O181 2.135 . S
O174 Co173 2.061 . S
O174 C177 1.235 . S
C175 O178 1.238 . S
C175 O179 1.241 . S
C176 O169 1.247 . S
C176 O170 1.261 . S
C177 O172 1.259 . S
C177 O174 1.235 . S
O178 Co168 2.021 . S
O178 C175 1.238 . S
O179 Co173 2.052 . S
O179 C175 1.241 . S
O180 Co168 2.137 . S
O180 C171 1.247 . S
O181 Co168 2.244 . S
O181 C171 1.272 . S
O181 Co173 2.135 . S
Co182 O183 2.216 . S
Co182 O184 2.091 . S
Co182 O186 2.004 . S
Co182 O192 2.021 . S
Co182 O194 2.137 . S
Co182 O195 2.244 . S
O183 Co182 2.216 . S
O183 C190 1.247 . S
O184 Co182 2.091 . S
O184 C190 1.261 . S
C185 O194 1.247 . S
C185 O195 1.272 . S
O186 Co182 2.004 . S
O186 C191 1.259 . S
Co187 O188 2.061 . S
Co187 O193 2.052 . S
Co187 O195 2.135 . S
O188 Co187 2.061 . S
O188 C191 1.235 . S
C189 O192 1.238 . S
C189 O193 1.241 . S
C190 O183 1.247 . S
C190 O184 1.261 . S
C191 O186 1.259 . S
C191 O188 1.235 . S
O192 Co182 2.021 . S
O192 C189 1.238 . S
O193 Co187 2.052 . S
O193 C189 1.241 . S
O194 Co182 2.137 . S
O194 C185 1.247 . S
O195 Co182 2.244 . S
O195 C185 1.272 . S
O195 Co187 2.135 . S
Co196 O197 2.216 . S
Co196 O198 2.091 . S
Co196 O200 2.004 . S
Co196 O206 2.021 . S
Co196 O208 2.137 . S
Co196 O209 2.244 . S
O197 Co196 2.216 . S
O197 C204 1.247 . S
O198 Co196 2.091 . S
O198 C204 1.261 . S
C199 O208 1.247 . S
C199 O209 1.272 . S
O200 Co196 2.004 . S
O200 C205 1.259 . S
Co201 O202 2.061 . S
Co201 O207 2.052 . S
Co201 O209 2.135 . S
O202 Co201 2.061 . S
O202 C205 1.235 . S
C203 O206 1.238 . S
C203 O207 1.241 . S
C204 O197 1.247 . S
C204 O198 1.261 . S
C205 O200 1.259 . S
C205 O202 1.235 . S
O206 Co196 2.021 . S
O206 C203 1.238 . S
O207 Co201 2.052 . S
O207 C203 1.241 . S
O208 Co196 2.137 . S
O208 C199 1.247 . S
O209 Co196 2.244 . S
O209 C199 1.272 . S
O209 Co201 2.135 . S
Co210 O211 2.216 . S
Co210 O212 2.091 . S
Co210 O214 2.004 . S
Co210 O220 2.021 . S
Co210 O222 2.137 . S
Co210 O223 2.244 . S
O211 Co210 2.216 . S
O211 C218 1.247 . S
O212 Co210 2.091 . S
O212 C218 1.261 . S
C213 O222 1.247 . S
C213 O223 1.272 . S
O214 Co210 2.004 . S
O214 C219 1.259 . S
Co215 O216 2.061 . S
Co215 O221 2.052 . S
Co215 O223 2.135 . S
O216 Co215 2.061 . S
O216 C219 1.235 . S
C217 O220 1.238 . S
C217 O221 1.241 . S
C218 O211 1.247 . S
C218 O212 1.261 . S
C219 O214 1.259 . S
C219 O216 1.235 . S
O220 Co210 2.021 . S
O220 C217 1.238 . S
O221 Co215 2.052 . S
O221 C217 1.241 . S
O222 Co210 2.137 . S
O222 C213 1.247 . S
O223 Co210 2.244 . S
O223 C213 1.272 . S
O223 Co215 2.135 . S
Co224 O225 2.216 . S
Co224 O226 2.091 . S
Co224 O228 2.004 . S
Co224 O234 2.021 . S
Co224 O236 2.137 . S
Co224 O237 2.244 . S
O225 Co224 2.216 . S
O225 C232 1.247 . S
O226 Co224 2.091 . S
O226 C232 1.261 . S
C227 O236 1.247 . S
C227 O237 1.272 . S
O228 Co224 2.004 . S
O228 C233 1.259 . S
Co229 O230 2.061 . S
Co229 O235 2.052 . S
Co229 O237 2.135 . S
O230 Co229 2.061 . S
O230 C233 1.235 . S
C231 O234 1.238 . S
C231 O235 1.241 . S
C232 O225 1.247 . S
C232 O226 1.261 . S
C233 O228 1.259 . S
C233 O230 1.235 . S
O234 Co224 2.021 . S
O234 C231 1.238 . S
O235 Co229 2.052 . S
O235 C231 1.241 . S
O236 Co224 2.137 . S
O236 C227 1.247 . S
O237 Co224 2.244 . S
O237 C227 1.272 . S
O237 Co229 2.135 . S
Co238 O239 2.216 . S
Co238 O240 2.091 . S
Co238 O242 2.004 . S
Co238 O248 2.021 . S
Co238 O250 2.137 . S
Co238 O251 2.244 . S
O239 Co238 2.216 . S
O239 C246 1.247 . S
O240 Co238 2.091 . S
O240 C246 1.261 . S
C241 O250 1.247 . S
C241 O251 1.272 . S
O242 Co238 2.004 . S
O242 C247 1.259 . S
Co243 O244 2.061 . S
Co243 O249 2.052 . S
Co243 O251 2.135 . S
O244 Co243 2.061 . S
O244 C247 1.235 . S
C245 O248 1.238 . S
C245 O249 1.241 . S
C246 O239 1.247 . S
C246 O240 1.261 . S
C247 O242 1.259 . S
C247 O244 1.235 . S
O248 Co238 2.021 . S
O248 C245 1.238 . S
O249 Co243 2.052 . S
O249 C245 1.241 . S
O250 Co238 2.137 . S
O250 C241 1.247 . S
O251 Co238 2.244 . S
O251 C241 1.272 . S
O251 Co243 2.135 . S
Co252 O253 2.216 . S
Co252 O254 2.091 . S
Co252 O256 2.004 . S
Co252 O262 2.021 . S
Co252 O264 2.137 . S
Co252 O265 2.244 . S
O253 Co252 2.216 . S
O253 C260 1.247 . S
O254 Co252 2.091 . S
O254 C260 1.261 . S
C255 O264 1.247 . S
C255 O265 1.272 . S
O256 Co252 2.004 . S
O256 C261 1.259 . S
Co257 O258 2.061 . S
Co257 O263 2.052 . S
Co257 O265 2.135 . S
O258 Co257 2.061 . S
O258 C261 1.235 . S
C259 O262 1.238 . S
C259 O263 1.241 . S
C260 O253 1.247 . S
C260 O254 1.261 . S
C261 O256 1.259 . S
C261 O258 1.235 . S
O262 Co252 2.021 . S
O262 C259 1.238 . S
O263 Co257 2.052 . S
O263 C259 1.241 . S
O264 Co252 2.137 . S
O264 C255 1.247 . S
O265 Co252 2.244 . S
O265 C255 1.272 . S
O265 Co257 2.135 . S
Co266 O267 2.216 . S
Co266 O268 2.091 . S
Co266 O270 2.004 . S
Co266 O276 2.021 . S
Co266 O278 2.137 . S
Co266 O279 2.244 . S
O267 Co266 2.216 . S
O267 C274 1.247 . S
O268 Co266 2.091 . S
O268 C274 1.261 . S
C269 O278 1.247 . S
C269 O279 1.272 . S
O270 Co266 2.004 . S
O270 C275 1.259 . S
Co271 O272 2.061 . S
Co271 O277 2.052 . S
Co271 O279 2.135 . S
O272 Co271 2.061 . S
O272 C275 1.235 . S
C273 O276 1.238 . S
C273 O277 1.241 . S
C274 O267 1.247 . S
C274 O268 1.261 . S
C275 O270 1.259 . S
C275 O272 1.235 . S
O276 Co266 2.021 . S
O276 C273 1.238 . S
O277 Co271 2.052 . S
O277 C273 1.241 . S
O278 Co266 2.137 . S
O278 C269 1.247 . S
O279 Co266 2.244 . S
O279 C269 1.272 . S
O279 Co271 2.135 . S
Co280 O281 2.216 . S
Co280 O282 2.091 . S
Co280 O284 2.004 . S
Co280 O290 2.021 . S
Co280 O292 2.137 . S
Co280 O293 2.244 . S
O281 Co280 2.216 . S
O281 C288 1.247 . S
O282 Co280 2.091 . S
O282 C288 1.261 . S
C283 O292 1.247 . S
C283 O293 1.272 . S
O284 Co280 2.004 . S
O284 C289 1.259 . S
Co285 O286 2.061 . S
Co285 O291 2.052 . S
Co285 O293 2.135 . S
O286 Co285 2.061 . S
O286 C289 1.235 . S
C287 O290 1.238 . S
C287 O291 1.241 . S
C288 O281 1.247 . S
C288 O282 1.261 . S
C289 O284 1.259 . S
C289 O286 1.235 . S
O290 Co280 2.021 . S
O290 C287 1.238 . S
O291 Co285 2.052 . S
O291 C287 1.241 . S
O292 Co280 2.137 . S
O292 C283 1.247 . S
O293 Co280 2.244 . S
O293 C283 1.272 . S
O293 Co285 2.135 . S
Co294 O295 2.216 . S
Co294 O296 2.091 . S
Co294 O298 2.004 . S
Co294 O304 2.021 . S
Co294 O306 2.137 . S
Co294 O307 2.244 . S
O295 Co294 2.216 . S
O295 C302 1.247 . S
O296 Co294 2.091 . S
O296 C302 1.261 . S
C297 O306 1.247 . S
C297 O307 1.272 . S
O298 Co294 2.004 . S
O298 C303 1.259 . S
Co299 O300 2.061 . S
Co299 O305 2.052 . S
Co299 O307 2.135 . S
O300 Co299 2.061 . S
O300 C303 1.235 . S
C301 O304 1.238 . S
C301 O305 1.241 . S
C302 O295 1.247 . S
C302 O296 1.261 . S
C303 O298 1.259 . S
C303 O300 1.235 . S
O304 Co294 2.021 . S
O304 C301 1.238 . S
O305 Co299 2.052 . S
O305 C301 1.241 . S
O306 Co294 2.137 . S
O306 C297 1.247 . S
O307 Co294 2.244 . S
O307 C297 1.272 . S
O307 Co299 2.135 . S
Co308 O309 2.216 . S
Co308 O310 2.091 . S
Co308 O312 2.004 . S
Co308 O318 2.021 . S
Co308 O320 2.137 . S
Co308 O321 2.244 . S
O309 Co308 2.216 . S
O309 C316 1.247 . S
O310 Co308 2.091 . S
O310 C316 1.261 . S
C311 O320 1.247 . S
C311 O321 1.272 . S
O312 Co308 2.004 . S
O312 C317 1.259 . S
Co313 O314 2.061 . S
Co313 O319 2.052 . S
Co313 O321 2.135 . S
O314 Co313 2.061 . S
O314 C317 1.235 . S
C315 O318 1.238 . S
C315 O319 1.241 . S
C316 O309 1.247 . S
C316 O310 1.261 . S
C317 O312 1.259 . S
C317 O314 1.235 . S
O318 Co308 2.021 . S
O318 C315 1.238 . S
O319 Co313 2.052 . S
O319 C315 1.241 . S
O320 Co308 2.137 . S
O320 C311 1.247 . S
O321 Co308 2.244 . S
O321 C311 1.272 . S
O321 Co313 2.135 . S
Co322 O323 2.216 . S
Co322 O324 2.091 . S
Co322 O326 2.004 . S
Co322 O332 2.021 . S
Co322 O334 2.137 . S
Co322 O335 2.244 . S
O323 Co322 2.216 . S
O323 C330 1.247 . S
O324 Co322 2.091 . S
O324 C330 1.261 . S
C325 O334 1.247 . S
C325 O335 1.272 . S
O326 Co322 2.004 . S
O326 C331 1.259 . S
Co327 O328 2.061 . S
Co327 O333 2.052 . S
Co327 O335 2.135 . S
O328 Co327 2.061 . S
O328 C331 1.235 . S
C329 O332 1.238 . S
C329 O333 1.241 . S
C330 O323 1.247 . S
C330 O324 1.261 . S
C331 O326 1.259 . S
C331 O328 1.235 . S
O332 Co322 2.021 . S
O332 C329 1.238 . S
O333 Co327 2.052 . S
O333 C329 1.241 . S
O334 Co322 2.137 . S
O334 C325 1.247 . S
O335 Co322 2.244 . S
O335 C325 1.272 . S
O335 Co327 2.135 . S
Co336 O337 2.216 . S
Co336 O338 2.091 . S
Co336 O340 2.004 . S
Co336 O346 2.021 . S
Co336 O348 2.137 . S
Co336 O349 2.244 . S
O337 Co336 2.216 . S
O337 C344 1.247 . S
O338 Co336 2.091 . S
O338 C344 1.261 . S
C339 O348 1.247 . S
C339 O349 1.272 . S
O340 Co336 2.004 . S
O340 C345 1.259 . S
Co341 O342 2.061 . S
Co341 O347 2.052 . S
Co341 O349 2.135 . S
O342 Co341 2.061 . S
O342 C345 1.235 . S
C343 O346 1.238 . S
C343 O347 1.241 . S
C344 O337 1.247 . S
C344 O338 1.261 . S
C345 O340 1.259 . S
C345 O342 1.235 . S
O346 Co336 2.021 . S
O346 C343 1.238 . S
O347 Co341 2.052 . S
O347 C343 1.241 . S
O348 Co336 2.137 . S
O348 C339 1.247 . S
O349 Co336 2.244 . S
O349 C339 1.272 . S
O349 Co341 2.135 . S
Co350 O351 2.216 . S
Co350 O352 2.091 . S
Co350 O354 2.004 . S
Co350 O360 2.021 . S
Co350 O362 2.137 . S
Co350 O363 2.244 . S
O351 Co350 2.216 . S
O351 C358 1.247 . S
O352 Co350 2.091 . S
O352 C358 1.261 . S
C353 O362 1.247 . S
C353 O363 1.272 . S
O354 Co350 2.004 . S
O354 C359 1.259 . S
Co355 O356 2.061 . S
Co355 O361 2.052 . S
Co355 O363 2.135 . S
O356 Co355 2.061 . S
O356 C359 1.235 . S
C357 O360 1.238 . S
C357 O361 1.241 . S
C358 O351 1.247 . S
C358 O352 1.261 . S
C359 O354 1.259 . S
C359 O356 1.235 . S
O360 Co350 2.021 . S
O360 C357 1.238 . S
O361 Co355 2.052 . S
O361 C357 1.241 . S
O362 Co350 2.137 . S
O362 C353 1.247 . S
O363 Co350 2.244 . S
O363 C353 1.272 . S
O363 Co355 2.135 . S
Co364 O365 2.216 . S
Co364 O366 2.091 . S
Co364 O368 2.004 . S
Co364 O374 2.021 . S
Co364 O376 2.137 . S
Co364 O377 2.244 . S
O365 Co364 2.216 . S
O365 C372 1.247 . S
O366 Co364 2.091 . S
O366 C372 1.261 . S
C367 O376 1.247 . S
C367 O377 1.272 . S
O368 Co364 2.004 . S
O368 C373 1.259 . S
Co369 O370 2.061 . S
Co369 O375 2.052 . S
Co369 O377 2.135 . S
O370 Co369 2.061 . S
O370 C373 1.235 . S
C371 O374 1.238 . S
C371 O375 1.241 . S
C372 O365 1.247 . S
C372 O366 1.261 . S
C373 O368 1.259 . S
C373 O370 1.235 . S
O374 Co364 2.021 . S
O374 C371 1.238 . S
O375 Co369 2.052 . S
O375 C371 1.241 . S
O376 Co364 2.137 . S
O376 C367 1.247 . S
O377 Co364 2.244 . S
O377 C367 1.272 . S
O377 Co369 2.135 . S
Co378 O379 2.216 . S
Co378 O380 2.091 . S
Co378 O382 2.004 . S
Co378 O388 2.021 . S
Co378 O390 2.137 . S
Co378 O391 2.244 . S
O379 Co378 2.216 . S
O379 C386 1.247 . S
O380 Co378 2.091 . S
O380 C386 1.261 . S
C381 O390 1.247 . S
C381 O391 1.272 . S
O382 Co378 2.004 . S
O382 C387 1.259 . S
Co383 O384 2.061 . S
Co383 O389 2.052 . S
Co383 O391 2.135 . S
O384 Co383 2.061 . S
O384 C387 1.235 . S
C385 O388 1.238 . S
C385 O389 1.241 . S
C386 O379 1.247 . S
C386 O380 1.261 . S
C387 O382 1.259 . S
C387 O384 1.235 . S
O388 Co378 2.021 . S
O388 C385 1.238 . S
O389 Co383 2.052 . S
O389 C385 1.241 . S
O390 Co378 2.137 . S
O390 C381 1.247 . S
O391 Co378 2.244 . S
O391 C381 1.272 . S
O391 Co383 2.135 . S
Co392 O393 2.216 . S
Co392 O394 2.091 . S
Co392 O396 2.004 . S
Co392 O402 2.021 . S
Co392 O404 2.137 . S
Co392 O405 2.244 . S
O393 Co392 2.216 . S
O393 C400 1.247 . S
O394 Co392 2.091 . S
O394 C400 1.261 . S
C395 O404 1.247 . S
C395 O405 1.272 . S
O396 Co392 2.004 . S
O396 C401 1.259 . S
Co397 O398 2.061 . S
Co397 O403 2.052 . S
Co397 O405 2.135 . S
O398 Co397 2.061 . S
O398 C401 1.235 . S
C399 O402 1.238 . S
C399 O403 1.241 . S
C400 O393 1.247 . S
C400 O394 1.261 . S
C401 O396 1.259 . S
C401 O398 1.235 . S
O402 Co392 2.021 . S
O402 C399 1.238 . S
O403 Co397 2.052 . S
O403 C399 1.241 . S
O404 Co392 2.137 . S
O404 C395 1.247 . S
O405 Co392 2.244 . S
O405 C395 1.272 . S
O405 Co397 2.135 . S
Co406 O407 2.216 . S
Co406 O408 2.091 . S
Co406 O410 2.004 . S
Co406 O416 2.021 . S
Co406 O418 2.137 . S
Co406 O419 2.244 . S
O407 Co406 2.216 . S
O407 C414 1.247 . S
O408 Co406 2.091 . S
O408 C414 1.261 . S
C409 O418 1.247 . S
C409 O419 1.272 . S
O410 Co406 2.004 . S
O410 C415 1.259 . S
Co411 O412 2.061 . S
Co411 O417 2.052 . S
Co411 O419 2.135 . S
O412 Co411 2.061 . S
O412 C415 1.235 . S
C413 O416 1.238 . S
C413 O417 1.241 . S
C414 O407 1.247 . S
C414 O408 1.261 . S
C415 O410 1.259 . S
C415 O412 1.235 . S
O416 Co406 2.021 . S
O416 C413 1.238 . S
O417 Co411 2.052 . S
O417 C413 1.241 . S
O418 Co406 2.137 . S
O418 C409 1.247 . S
O419 Co406 2.244 . S
O419 C409 1.272 . S
O419 Co411 2.135 . S
Co420 O421 2.216 . S
Co420 O422 2.091 . S
Co420 O424 2.004 . S
Co420 O430 2.021 . S
Co420 O432 2.137 . S
Co420 O433 2.244 . S
O421 Co420 2.216 . S
O421 C428 1.247 . S
O422 Co420 2.091 . S
O422 C428 1.261 . S
C423 O432 1.247 . S
C423 O433 1.272 . S
O424 Co420 2.004 . S
O424 C429 1.259 . S
Co425 O426 2.061 . S
Co425 O431 2.052 . S
Co425 O433 2.135 . S
O426 Co425 2.061 . S
O426 C429 1.235 . S
C427 O430 1.238 . S
C427 O431 1.241 . S
C428 O421 1.247 . S
C428 O422 1.261 . S
C429 O424 1.259 . S
C429 O426 1.235 . S
O430 Co420 2.021 . S
O430 C427 1.238 . S
O431 Co425 2.052 . S
O431 C427 1.241 . S
O432 Co420 2.137 . S
O432 C423 1.247 . S
O433 Co420 2.244 . S
O433 C423 1.272 . S
O433 Co425 2.135 . S
Co434 O435 2.216 . S
Co434 O436 2.091 . S
Co434 O438 2.004 . S
Co434 O444 2.021 . S
Co434 O446 2.137 . S
Co434 O447 2.244 . S
O435 Co434 2.216 . S
O435 C442 1.247 . S
O436 Co434 2.091 . S
O436 C442 1.261 . S
C437 O446 1.247 . S
C437 O447 1.272 . S
O438 Co434 2.004 . S
O438 C443 1.259 . S
Co439 O440 2.061 . S
Co439 O445 2.052 . S
Co439 O447 2.135 . S
O440 Co439 2.061 . S
O440 C443 1.235 . S
C441 O444 1.238 . S
C441 O445 1.241 . S
C442 O435 1.247 . S
C442 O436 1.261 . S
C443 O438 1.259 . S
C443 O440 1.235 . S
O444 Co434 2.021 . S
O444 C441 1.238 . S
O445 Co439 2.052 . S
O445 C441 1.241 . S
O446 Co434 2.137 . S
O446 C437 1.247 . S
O447 Co434 2.244 . S
O447 C437 1.272 . S
O447 Co439 2.135 . S
C448 C449 1.391 . S
C448 C450 1.394 . S
C448 H464 0.931 . S
C449 C448 1.391 . S
C449 C453 1.376 . S
C450 C448 1.394 . S
C450 C451 1.369 . S
C450 C454 1.531 . S
C451 C450 1.369 . S
C451 C452 1.410 . S
C451 C459 1.503 . S
C452 C451 1.410 . S
C452 C453 1.392 . S
C452 C455 1.511 . S
C453 C449 1.376 . S
C453 C452 1.392 . S
C453 H465 0.929 . S
C454 C450 1.531 . S
C454 H466 0.960 . S
C454 H467 0.962 . S
C454 H468 0.960 . S
C455 C452 1.511 . S
C455 H469 0.961 . S
C455 H470 0.961 . S
C455 H471 0.961 . S
C456 C457 1.370 . S
C456 C458 1.363 . S
C456 H472 0.931 . S
C457 C456 1.370 . S
C457 C461 1.408 . S
C458 C456 1.363 . S
C458 C459 1.370 . S
C458 C462 1.524 . S
C459 C451 1.503 . S
C459 C458 1.370 . S
C459 C460 1.403 . S
C460 C459 1.403 . S
C460 C461 1.404 . S
C460 C463 1.539 . S
C461 C457 1.408 . S
C461 C460 1.404 . S
C461 H473 0.930 . S
C462 C458 1.524 . S
C462 H474 0.956 . S
C462 H475 0.961 . S
C462 H476 0.961 . S
C463 C460 1.539 . S
C463 H477 0.958 . S
C463 H478 0.961 . S
C463 H479 0.960 . S
H464 C448 0.931 . S
H465 C453 0.929 . S
H466 C454 0.960 . S
H467 C454 0.962 . S
H468 C454 0.960 . S
H469 C455 0.961 . S
H470 C455 0.961 . S
H471 C455 0.961 . S
H472 C456 0.931 . S
H473 C461 0.930 . S
H474 C462 0.956 . S
H475 C462 0.961 . S
H476 C462 0.961 . S
H477 C463 0.958 . S
H478 C463 0.961 . S
H479 C463 0.960 . S
C480 C481 1.391 . S
C480 C482 1.394 . S
C480 H496 0.931 . S
C481 C480 1.391 . S
C481 C485 1.376 . S
C482 C480 1.394 . S
C482 C483 1.369 . S
C482 C486 1.531 . S
C483 C482 1.369 . S
C483 C484 1.410 . S
C483 C491 1.503 . S
C484 C483 1.410 . S
C484 C485 1.392 . S
C484 C487 1.511 . S
C485 C481 1.376 . S
C485 C484 1.392 . S
C485 H497 0.929 . S
C486 C482 1.531 . S
C486 H498 0.960 . S
C486 H499 0.962 . S
C486 H500 0.960 . S
C487 C484 1.511 . S
C487 H501 0.961 . S
C487 H502 0.961 . S
C487 H503 0.961 . S
C488 C489 1.370 . S
C488 C490 1.363 . S
C488 H504 0.931 . S
C489 C488 1.370 . S
C489 C493 1.408 . S
C490 C488 1.363 . S
C490 C491 1.370 . S
C490 C494 1.524 . S
C491 C483 1.503 . S
C491 C490 1.370 . S
C491 C492 1.403 . S
C492 C491 1.403 . S
C492 C493 1.404 . S
C492 C495 1.539 . S
C493 C489 1.408 . S
C493 C492 1.404 . S
C493 H505 0.930 . S
C494 C490 1.524 . S
C494 H506 0.956 . S
C494 H507 0.961 . S
C494 H508 0.961 . S
C495 C492 1.539 . S
C495 H509 0.958 . S
C495 H510 0.961 . S
C495 H511 0.960 . S
H496 C480 0.931 . S
H497 C485 0.929 . S
H498 C486 0.960 . S
H499 C486 0.962 . S
H500 C486 0.960 . S
H501 C487 0.961 . S
H502 C487 0.961 . S
H503 C487 0.961 . S
H504 C488 0.931 . S
H505 C493 0.930 . S
H506 C494 0.956 . S
H507 C494 0.961 . S
H508 C494 0.961 . S
H509 C495 0.958 . S
H510 C495 0.961 . S
H511 C495 0.960 . S
C512 C513 1.391 . S
C512 C514 1.394 . S
C512 H528 0.931 . S
C513 C512 1.391 . S
C513 C517 1.376 . S
C514 C512 1.394 . S
C514 C515 1.369 . S
C514 C518 1.531 . S
C515 C514 1.369 . S
C515 C516 1.410 . S
C515 C523 1.503 . S
C516 C515 1.410 . S
C516 C517 1.392 . S
C516 C519 1.511 . S
C517 C513 1.376 . S
C517 C516 1.392 . S
C517 H529 0.929 . S
C518 C514 1.531 . S
C518 H530 0.960 . S
C518 H531 0.962 . S
C518 H532 0.960 . S
C519 C516 1.511 . S
C519 H533 0.961 . S
C519 H534 0.961 . S
C519 H535 0.961 . S
C520 C521 1.370 . S
C520 C522 1.363 . S
C520 H536 0.931 . S
C521 C520 1.370 . S
C521 C525 1.408 . S
C522 C520 1.363 . S
C522 C523 1.370 . S
C522 C526 1.524 . S
C523 C515 1.503 . S
C523 C522 1.370 . S
C523 C524 1.403 . S
C524 C523 1.403 . S
C524 C525 1.404 . S
C524 C527 1.539 . S
C525 C521 1.408 . S
C525 C524 1.404 . S
C525 H537 0.930 . S
C526 C522 1.524 . S
C526 H538 0.956 . S
C526 H539 0.961 . S
C526 H540 0.961 . S
C527 C524 1.539 . S
C527 H541 0.958 . S
C527 H542 0.961 . S
C527 H543 0.960 . S
H528 C512 0.931 . S
H529 C517 0.929 . S
H530 C518 0.960 . S
H531 C518 0.962 . S
H532 C518 0.960 . S
H533 C519 0.961 . S
H534 C519 0.961 . S
H535 C519 0.961 . S
H536 C520 0.931 . S
H537 C525 0.930 . S
H538 C526 0.956 . S
H539 C526 0.961 . S
H540 C526 0.961 . S
H541 C527 0.958 . S
H542 C527 0.961 . S
H543 C527 0.960 . S
C544 C545 1.391 . S
C544 C546 1.394 . S
C544 H560 0.931 . S
C545 C544 1.391 . S
C545 C549 1.376 . S
C546 C544 1.394 . S
C546 C547 1.369 . S
C546 C550 1.531 . S
C547 C546 1.369 . S
C547 C548 1.410 . S
C547 C555 1.503 . S
C548 C547 1.410 . S
C548 C549 1.392 . S
C548 C551 1.511 . S
C549 C545 1.376 . S
C549 C548 1.392 . S
C549 H561 0.929 . S
C550 C546 1.531 . S
C550 H562 0.960 . S
C550 H563 0.962 . S
C550 H564 0.960 . S
C551 C548 1.511 . S
C551 H565 0.961 . S
C551 H566 0.961 . S
C551 H567 0.961 . S
C552 C553 1.370 . S
C552 C554 1.363 . S
C552 H568 0.931 . S
C553 C552 1.370 . S
C553 C557 1.408 . S
C554 C552 1.363 . S
C554 C555 1.370 . S
C554 C558 1.524 . S
C555 C547 1.503 . S
C555 C554 1.370 . S
C555 C556 1.403 . S
C556 C555 1.403 . S
C556 C557 1.404 . S
C556 C559 1.539 . S
C557 C553 1.408 . S
C557 C556 1.404 . S
C557 H569 0.930 . S
C558 C554 1.524 . S
C558 H570 0.956 . S
C558 H571 0.961 . S
C558 H572 0.961 . S
C559 C556 1.539 . S
C559 H573 0.958 . S
C559 H574 0.961 . S
C559 H575 0.960 . S
H560 C544 0.931 . S
H561 C549 0.929 . S
H562 C550 0.960 . S
H563 C550 0.962 . S
H564 C550 0.960 . S
H565 C551 0.961 . S
H566 C551 0.961 . S
H567 C551 0.961 . S
H568 C552 0.931 . S
H569 C557 0.930 . S
H570 C558 0.956 . S
H571 C558 0.961 . S
H572 C558 0.961 . S
H573 C559 0.958 . S
H574 C559 0.961 . S
H575 C559 0.960 . S
C576 C577 1.391 1_545 S
C576 C578 1.394 . S
C576 H592 0.931 1_545 S
C577 C576 1.391 1_565 S
C577 C581 1.376 1_565 S
C578 C576 1.394 . S
C578 C579 1.369 . S
C578 C582 1.531 . S
C579 C578 1.369 . S
C579 C580 1.410 . S
C579 C587 1.503 . S
C580 C579 1.410 . S
C580 C581 1.392 . S
C580 C583 1.511 . S
C581 C577 1.376 1_545 S
C581 C580 1.392 . S
C581 H593 0.928 1_545 S
C582 C578 1.531 . S
C582 H594 0.960 . S
C582 H595 0.962 . S
C582 H596 0.960 . S
C583 C580 1.511 . S
C583 H597 0.961 . S
C583 H598 0.961 . S
C583 H599 0.961 . S
C584 C585 1.370 . S
C584 C586 1.363 . S
C584 H600 0.931 . S
C585 C584 1.370 . S
C585 C589 1.408 . S
C586 C584 1.363 . S
C586 C587 1.370 . S
C586 C590 1.524 . S
C587 C579 1.503 . S
C587 C586 1.370 . S
C587 C588 1.403 . S
C588 C587 1.403 . S
C588 C589 1.404 . S
C588 C591 1.539 . S
C589 C585 1.408 . S
C589 C588 1.404 . S
C589 H601 0.930 . S
C590 C586 1.524 . S
C590 H602 0.956 . S
C590 H603 0.961 . S
C590 H604 0.961 . S
C591 C588 1.539 . S
C591 H605 0.958 . S
C591 H606 0.961 . S
C591 H607 0.960 . S
H592 C576 0.931 1_565 S
H593 C581 0.928 1_565 S
H594 C582 0.960 . S
H595 C582 0.962 . S
H596 C582 0.960 . S
H597 C583 0.961 . S
H598 C583 0.961 . S
H599 C583 0.961 . S
H600 C584 0.931 . S
H601 C589 0.930 . S
H602 C590 0.956 . S
H603 C590 0.961 . S
H604 C590 0.961 . S
H605 C591 0.958 . S
H606 C591 0.961 . S
H607 C591 0.960 . S
C608 C609 1.391 1_545 S
C608 C610 1.394 . S
C608 H624 0.928 1_545 S
C609 C608 1.391 1_565 S
C609 C613 1.376 1_565 S
C610 C608 1.394 . S
C610 C611 1.369 . S
C610 C614 1.531 . S
C611 C610 1.369 . S
C611 C612 1.410 . S
C611 C619 1.503 . S
C612 C611 1.410 . S
C612 C613 1.392 . S
C612 C615 1.511 . S
C613 C609 1.376 1_545 S
C613 C612 1.392 . S
C613 H625 0.929 1_545 S
C614 C610 1.531 . S
C614 H626 0.960 . S
C614 H627 0.962 . S
C614 H628 0.960 . S
C615 C612 1.511 . S
C615 H629 0.961 . S
C615 H630 0.961 . S
C615 H631 0.961 . S
C616 C617 1.370 . S
C616 C618 1.363 . S
C616 H632 0.931 . S
C617 C616 1.370 . S
C617 C621 1.408 . S
C618 C616 1.363 . S
C618 C619 1.370 . S
C618 C622 1.524 . S
C619 C611 1.503 . S
C619 C618 1.370 . S
C619 C620 1.403 . S
C620 C619 1.403 . S
C620 C621 1.404 . S
C620 C623 1.539 . S
C621 C617 1.408 . S
C621 C620 1.404 . S
C621 H633 0.930 . S
C622 C618 1.524 . S
C622 H634 0.956 . S
C622 H635 0.961 . S
C622 H636 0.961 . S
C623 C620 1.539 . S
C623 H637 0.958 . S
C623 H638 0.961 . S
C623 H639 0.960 . S
H624 C608 0.928 1_565 S
H625 C613 0.929 1_565 S
H626 C614 0.960 . S
H627 C614 0.962 . S
H628 C614 0.960 . S
H629 C615 0.961 . S
H630 C615 0.961 . S
H631 C615 0.961 . S
H632 C616 0.931 . S
H633 C621 0.930 . S
H634 C622 0.956 . S
H635 C622 0.961 . S
H636 C622 0.961 . S
H637 C623 0.958 . S
H638 C623 0.961 . S
H639 C623 0.960 . S
C640 C641 1.391 1_565 S
C640 C642 1.394 . S
C640 H656 0.931 1_565 S
C641 C640 1.391 1_545 S
C641 C645 1.376 1_545 S
C642 C640 1.394 . S
C642 C643 1.369 . S
C642 C646 1.531 . S
C643 C642 1.369 . S
C643 C644 1.410 . S
C643 C651 1.503 . S
C644 C643 1.410 . S
C644 C645 1.392 . S
C644 C647 1.511 . S
C645 C641 1.376 1_565 S
C645 C644 1.392 . S
C645 H657 0.937 . S
C646 C642 1.531 . S
C646 H658 0.960 . S
C646 H659 0.962 . S
C646 H660 0.960 . S
C647 C644 1.511 . S
C647 H661 0.961 . S
C647 H662 0.961 . S
C647 H663 0.961 . S
C648 C649 1.370 . S
C648 C650 1.363 . S
C648 H664 0.931 . S
C649 C648 1.370 . S
C649 C653 1.408 . S
C650 C648 1.363 . S
C650 C651 1.370 . S
C650 C654 1.524 . S
C651 C643 1.503 . S
C651 C650 1.370 . S
C651 C652 1.403 . S
C652 C651 1.403 . S
C652 C653 1.404 . S
C652 C655 1.539 . S
C653 C649 1.408 . S
C653 C652 1.404 . S
C653 H665 0.930 . S
C654 C650 1.524 . S
C654 H666 0.956 . S
C654 H667 0.961 . S
C654 H668 0.961 . S
C655 C652 1.539 . S
C655 H669 0.958 . S
C655 H670 0.961 . S
C655 H671 0.960 . S
H656 C640 0.931 1_545 S
H657 C645 0.937 . S
H658 C646 0.960 . S
H659 C646 0.962 . S
H660 C646 0.960 . S
H661 C647 0.961 . S
H662 C647 0.961 . S
H663 C647 0.961 . S
H664 C648 0.931 . S
H665 C653 0.930 . S
H666 C654 0.956 . S
H667 C654 0.961 . S
H668 C654 0.961 . S
H669 C655 0.958 . S
H670 C655 0.961 . S
H671 C655 0.960 . S
C672 C673 1.391 . S
C672 C674 1.394 . S
C672 H688 0.931 . S
C673 C672 1.391 . S
C673 C677 1.376 . S
C674 C672 1.394 . S
C674 C675 1.369 . S
C674 C678 1.531 . S
C675 C674 1.369 . S
C675 C676 1.410 . S
C675 C683 1.503 . S
C676 C675 1.410 . S
C676 C677 1.392 . S
C676 C679 1.511 . S
C677 C673 1.376 . S
C677 C676 1.392 . S
C677 H689 0.929 . S
C678 C674 1.531 . S
C678 H690 0.960 . S
C678 H691 0.962 . S
C678 H692 0.960 . S
C679 C676 1.511 . S
C679 H693 0.961 . S
C679 H694 0.961 . S
C679 H695 0.961 . S
C680 C681 1.370 1_565 S
C680 C682 1.363 . S
C680 H696 0.931 . S
C681 C680 1.370 1_545 S
C681 C685 1.408 1_545 S
C682 C680 1.363 . S
C682 C683 1.370 . S
C682 C686 1.524 . S
C683 C675 1.503 . S
C683 C682 1.370 . S
C683 C684 1.403 . S
C684 C683 1.403 . S
C684 C685 1.404 . S
C684 C687 1.539 . S
C685 C681 1.408 1_565 S
C685 C684 1.404 . S
C685 H697 0.930 1_565 S
C686 C682 1.524 . S
C686 H698 0.956 . S
C686 H699 0.961 . S
C686 H700 0.961 . S
C687 C684 1.539 . S
C687 H701 0.958 . S
C687 H702 0.961 . S
C687 H703 0.960 . S
H688 C672 0.931 . S
H689 C677 0.929 . S
H690 C678 0.960 . S
H691 C678 0.962 . S
H692 C678 0.960 . S
H693 C679 0.961 . S
H694 C679 0.961 . S
H695 C679 0.961 . S
H696 C680 0.931 . S
H697 C685 0.930 1_545 S
H698 C686 0.956 . S
H699 C686 0.961 . S
H700 C686 0.961 . S
H701 C687 0.958 . S
H702 C687 0.961 . S
H703 C687 0.960 . S
C704 C705 1.391 . S
C704 C706 1.394 . S
C704 H720 0.931 . S
C705 C704 1.391 . S
C705 C709 1.376 . S
C706 C704 1.394 . S
C706 C707 1.369 . S
C706 C710 1.531 . S
C707 C706 1.369 . S
C707 C708 1.410 . S
C707 C715 1.503 . S
C708 C707 1.410 . S
C708 C709 1.392 . S
C708 C711 1.511 . S
C709 C705 1.376 . S
C709 C708 1.392 . S
C709 H721 0.929 . S
C710 C706 1.531 . S
C710 H722 0.960 . S
C710 H723 0.962 . S
C710 H724 0.960 . S
C711 C708 1.511 . S
C711 H725 0.961 . S
C711 H726 0.961 . S
C711 H727 0.961 . S
C712 C713 1.370 . S
C712 C714 1.363 . S
C712 H728 0.931 . S
C713 C712 1.370 . S
C713 C717 1.408 . S
C714 C712 1.363 . S
C714 C715 1.370 . S
C714 C718 1.524 . S
C715 C707 1.503 . S
C715 C714 1.370 . S
C715 C716 1.403 . S
C716 C715 1.403 . S
C716 C717 1.404 . S
C716 C719 1.539 . S
C717 C713 1.408 . S
C717 C716 1.404 . S
C717 H729 0.930 . S
C718 C714 1.524 . S
C718 H730 0.956 . S
C718 H731 0.961 . S
C718 H732 0.961 . S
C719 C716 1.539 . S
C719 H733 0.958 . S
C719 H734 0.961 . S
C719 H735 0.960 . S
H720 C704 0.931 . S
H721 C709 0.929 . S
H722 C710 0.960 . S
H723 C710 0.962 . S
H724 C710 0.960 . S
H725 C711 0.961 . S
H726 C711 0.961 . S
H727 C711 0.961 . S
H728 C712 0.931 . S
H729 C717 0.930 . S
H730 C718 0.956 . S
H731 C718 0.961 . S
H732 C718 0.961 . S
H733 C719 0.958 . S
H734 C719 0.961 . S
H735 C719 0.960 . S
C736 C737 1.391 . S
C736 C738 1.394 . S
C736 H752 0.931 . S
C737 C736 1.391 . S
C737 C741 1.376 . S
C738 C736 1.394 . S
C738 C739 1.369 . S
C738 C742 1.531 . S
C739 C738 1.369 . S
C739 C740 1.410 . S
C739 C747 1.503 . S
C740 C739 1.410 . S
C740 C741 1.392 . S
C740 C743 1.511 . S
C741 C737 1.376 . S
C741 C740 1.392 . S
C741 H753 0.929 . S
C742 C738 1.531 . S
C742 H754 0.960 . S
C742 H755 0.962 . S
C742 H756 0.960 . S
C743 C740 1.511 . S
C743 H757 0.961 . S
C743 H758 0.961 . S
C743 H759 0.961 . S
C744 C745 1.370 . S
C744 C746 1.363 . S
C744 H760 0.931 . S
C745 C744 1.370 . S
C745 C749 1.408 . S
C746 C744 1.363 . S
C746 C747 1.370 . S
C746 C750 1.524 . S
C747 C739 1.503 . S
C747 C746 1.370 . S
C747 C748 1.403 . S
C748 C747 1.403 . S
C748 C749 1.404 . S
C748 C751 1.539 . S
C749 C745 1.408 . S
C749 C748 1.404 . S
C749 H761 0.930 . S
C750 C746 1.524 . S
C750 H762 0.956 . S
C750 H763 0.961 . S
C750 H764 0.961 . S
C751 C748 1.539 . S
C751 H765 0.958 . S
C751 H766 0.961 . S
C751 H767 0.960 . S
H752 C736 0.931 . S
H753 C741 0.929 . S
H754 C742 0.960 . S
H755 C742 0.962 . S
H756 C742 0.960 . S
H757 C743 0.961 . S
H758 C743 0.961 . S
H759 C743 0.961 . S
H760 C744 0.931 . S
H761 C749 0.930 . S
H762 C750 0.956 . S
H763 C750 0.961 . S
H764 C750 0.961 . S
H765 C751 0.958 . S
H766 C751 0.961 . S
H767 C751 0.960 . S
C768 C769 1.391 . S
C768 C770 1.394 . S
C768 H784 0.931 . S
C769 C768 1.391 . S
C769 C773 1.376 . S
C770 C768 1.394 . S
C770 C771 1.369 . S
C770 C774 1.531 . S
C771 C770 1.369 . S
C771 C772 1.410 . S
C771 C779 1.503 . S
C772 C771 1.410 . S
C772 C773 1.392 . S
C772 C775 1.511 . S
C773 C769 1.376 . S
C773 C772 1.392 . S
C773 H785 0.929 . S
C774 C770 1.531 . S
C774 H786 0.960 . S
C774 H787 0.962 . S
C774 H788 0.960 . S
C775 C772 1.511 . S
C775 H789 0.961 . S
C775 H790 0.961 . S
C775 H791 0.961 . S
C776 C777 1.370 . S
C776 C778 1.363 . S
C776 H792 0.931 . S
C777 C776 1.370 . S
C777 C781 1.408 . S
C778 C776 1.363 . S
C778 C779 1.370 . S
C778 C782 1.524 . S
C779 C771 1.503 . S
C779 C778 1.370 . S
C779 C780 1.403 . S
C780 C779 1.403 . S
C780 C781 1.404 . S
C780 C783 1.539 . S
C781 C777 1.408 . S
C781 C780 1.404 . S
C781 H793 0.930 . S
C782 C778 1.524 . S
C782 H794 0.956 . S
C782 H795 0.961 . S
C782 H796 0.961 . S
C783 C780 1.539 . S
C783 H797 0.958 . S
C783 H798 0.961 . S
C783 H799 0.960 . S
H784 C768 0.931 . S
H785 C773 0.929 . S
H786 C774 0.960 . S
H787 C774 0.962 . S
H788 C774 0.960 . S
H789 C775 0.961 . S
H790 C775 0.961 . S
H791 C775 0.961 . S
H792 C776 0.931 . S
H793 C781 0.930 . S
H794 C782 0.956 . S
H795 C782 0.961 . S
H796 C782 0.961 . S
H797 C783 0.958 . S
H798 C783 0.961 . S
H799 C783 0.960 . S
C800 C801 1.391 . S
C800 C802 1.394 . S
C800 H816 0.931 . S
C801 C800 1.391 . S
C801 C805 1.376 . S
C802 C800 1.394 . S
C802 C803 1.369 . S
C802 C806 1.531 . S
C803 C802 1.369 . S
C803 C804 1.410 . S
C803 C811 1.503 . S
C804 C803 1.410 . S
C804 C805 1.392 . S
C804 C807 1.511 . S
C805 C801 1.376 . S
C805 C804 1.392 . S
C805 H817 0.929 . S
C806 C802 1.531 . S
C806 H818 0.960 . S
C806 H819 0.962 . S
C806 H820 0.960 . S
C807 C804 1.511 . S
C807 H821 0.961 . S
C807 H822 0.961 . S
C807 H823 0.961 . S
C808 C809 1.370 . S
C808 C810 1.363 . S
C808 H824 0.931 . S
C809 C808 1.370 . S
C809 C813 1.408 . S
C810 C808 1.363 . S
C810 C811 1.370 . S
C810 C814 1.524 . S
C811 C803 1.503 . S
C811 C810 1.370 . S
C811 C812 1.403 . S
C812 C811 1.403 . S
C812 C813 1.404 . S
C812 C815 1.539 . S
C813 C809 1.408 . S
C813 C812 1.404 . S
C813 H825 0.930 . S
C814 C810 1.524 . S
C814 H826 0.956 . S
C814 H827 0.961 . S
C814 H828 0.961 . S
C815 C812 1.539 . S
C815 H829 0.958 . S
C815 H830 0.961 . S
C815 H831 0.960 . S
H816 C800 0.931 . S
H817 C805 0.929 . S
H818 C806 0.960 . S
H819 C806 0.962 . S
H820 C806 0.960 . S
H821 C807 0.961 . S
H822 C807 0.961 . S
H823 C807 0.961 . S
H824 C808 0.931 . S
H825 C813 0.930 . S
H826 C814 0.956 . S
H827 C814 0.961 . S
H828 C814 0.961 . S
H829 C815 0.958 . S
H830 C815 0.961 . S
H831 C815 0.960 . S
C832 C833 1.391 . S
C832 C834 1.394 . S
C832 H848 0.931 . S
C833 C832 1.391 . S
C833 C837 1.376 . S
C834 C832 1.394 . S
C834 C835 1.369 . S
C834 C838 1.531 . S
C835 C834 1.369 . S
C835 C836 1.410 . S
C835 C843 1.503 . S
C836 C835 1.410 . S
C836 C837 1.392 . S
C836 C839 1.511 . S
C837 C833 1.376 . S
C837 C836 1.392 . S
C837 H849 0.929 . S
C838 C834 1.531 . S
C838 H850 0.960 . S
C838 H851 0.962 . S
C838 H852 0.960 . S
C839 C836 1.511 . S
C839 H853 0.961 . S
C839 H854 0.961 . S
C839 H855 0.961 . S
C840 C841 1.370 1_545 S
C840 C842 1.363 . S
C840 H856 0.931 . S
C841 C840 1.370 1_565 S
C841 C845 1.408 1_565 S
C842 C840 1.363 . S
C842 C843 1.370 . S
C842 C846 1.524 . S
C843 C835 1.503 . S
C843 C842 1.370 . S
C843 C844 1.403 . S
C844 C843 1.403 . S
C844 C845 1.404 . S
C844 C847 1.539 . S
C845 C841 1.408 1_545 S
C845 C844 1.404 . S
C845 H857 0.930 1_545 S
C846 C842 1.524 . S
C846 H858 0.956 . S
C846 H859 0.961 . S
C846 H860 0.961 . S
C847 C844 1.539 . S
C847 H861 0.958 . S
C847 H862 0.961 . S
C847 H863 0.960 . S
H848 C832 0.931 . S
H849 C837 0.929 . S
H850 C838 0.960 . S
H851 C838 0.962 . S
H852 C838 0.960 . S
H853 C839 0.961 . S
H854 C839 0.961 . S
H855 C839 0.961 . S
H856 C840 0.931 . S
H857 C845 0.930 1_565 S
H858 C846 0.956 . S
H859 C846 0.961 . S
H860 C846 0.961 . S
H861 C847 0.958 . S
H862 C847 0.961 . S
H863 C847 0.960 . S
C864 C865 1.391 1_545 S
C864 C866 1.394 . S
C864 H880 0.932 . S
C865 C864 1.391 1_565 S
C865 C869 1.376 1_565 S
C866 C864 1.394 . S
C866 C867 1.369 . S
C866 C870 1.531 . S
C867 C866 1.369 . S
C867 C868 1.410 . S
C867 C875 1.503 . S
C868 C867 1.410 . S
C868 C869 1.392 . S
C868 C871 1.511 . S
C869 C865 1.376 1_545 S
C869 C868 1.392 . S
C869 H881 0.929 1_545 S
C870 C866 1.531 . S
C870 H882 0.960 . S
C870 H883 0.962 . S
C870 H884 0.960 . S
C871 C868 1.511 . S
C871 H885 0.961 . S
C871 H886 0.961 . S
C871 H887 0.961 . S
C872 C873 1.370 . S
C872 C874 1.363 . S
C872 H888 0.931 . S
C873 C872 1.370 . S
C873 C877 1.408 . S
C874 C872 1.363 . S
C874 C875 1.370 . S
C874 C878 1.524 . S
C875 C867 1.503 . S
C875 C874 1.370 . S
C875 C876 1.403 . S
C876 C875 1.403 . S
C876 C877 1.404 . S
C876 C879 1.539 . S
C877 C873 1.408 . S
C877 C876 1.404 . S
C877 H889 0.930 . S
C878 C874 1.524 . S
C878 H890 0.956 . S
C878 H891 0.961 . S
C878 H892 0.961 . S
C879 C876 1.539 . S
C879 H893 0.958 . S
C879 H894 0.961 . S
C879 H895 0.960 . S
H880 C864 0.932 . S
H881 C869 0.929 1_565 S
H882 C870 0.960 . S
H883 C870 0.962 . S
H884 C870 0.960 . S
H885 C871 0.961 . S
H886 C871 0.961 . S
H887 C871 0.961 . S
H888 C872 0.931 . S
H889 C877 0.930 . S
H890 C878 0.956 . S
H891 C878 0.961 . S
H892 C878 0.961 . S
H893 C879 0.958 . S
H894 C879 0.961 . S
H895 C879 0.960 . S
C896 C897 1.391 . S
C896 C898 1.394 . S
C896 H912 0.931 . S
C897 C896 1.391 . S
C897 C901 1.376 . S
C898 C896 1.394 . S
C898 C899 1.369 . S
C898 C902 1.531 . S
C899 C898 1.369 . S
C899 C900 1.410 . S
C899 C907 1.503 . S
C900 C899 1.410 . S
C900 C901 1.392 . S
C900 C903 1.511 . S
C901 C897 1.376 . S
C901 C900 1.392 . S
C901 H913 0.929 . S
C902 C898 1.531 . S
C902 H914 0.960 . S
C902 H915 0.962 . S
C902 H916 0.960 . S
C903 C900 1.511 . S
C903 H917 0.961 . S
C903 H918 0.961 . S
C903 H919 0.961 . S
C904 C905 1.370 1_565 S
C904 C906 1.363 . S
C904 H920 0.931 . S
C905 C904 1.370 1_545 S
C905 C909 1.408 1_545 S
C906 C904 1.363 . S
C906 C907 1.370 . S
C906 C910 1.524 . S
C907 C899 1.503 . S
C907 C906 1.370 . S
C907 C908 1.403 . S
C908 C907 1.403 . S
C908 C909 1.404 . S
C908 C911 1.539 . S
C909 C905 1.408 1_565 S
C909 C908 1.404 . S
C909 H921 0.930 1_565 S
C910 C906 1.524 . S
C910 H922 0.956 . S
C910 H923 0.961 . S
C910 H924 0.961 . S
C911 C908 1.539 . S
C911 H925 0.958 . S
C911 H926 0.961 . S
C911 H927 0.960 . S
H912 C896 0.931 . S
H913 C901 0.929 . S
H914 C902 0.960 . S
H915 C902 0.962 . S
H916 C902 0.960 . S
H917 C903 0.961 . S
H918 C903 0.961 . S
H919 C903 0.961 . S
H920 C904 0.931 . S
H921 C909 0.930 1_545 S
H922 C910 0.956 . S
H923 C910 0.961 . S
H924 C910 0.961 . S
H925 C911 0.958 . S
H926 C911 0.961 . S
H927 C911 0.960 . S
C928 C929 1.391 . S
C928 C930 1.394 . S
C928 H944 0.931 . S
C929 C928 1.391 . S
C929 C933 1.376 . S
C930 C928 1.394 . S
C930 C931 1.369 . S
C930 C934 1.531 . S
C931 C930 1.369 . S
C931 C932 1.410 . S
C931 C939 1.503 . S
C932 C931 1.410 . S
C932 C933 1.392 . S
C932 C935 1.511 . S
C933 C929 1.376 . S
C933 C932 1.392 . S
C933 H945 0.929 . S
C934 C930 1.531 . S
C934 H946 0.960 . S
C934 H947 0.962 . S
C934 H948 0.960 . S
C935 C932 1.511 . S
C935 H949 0.961 . S
C935 H950 0.961 . S
C935 H951 0.961 . S
C936 C937 1.370 1_565 S
C936 C938 1.363 . S
C936 H952 0.931 . S
C937 C936 1.370 1_545 S
C937 C941 1.408 1_545 S
C938 C936 1.363 . S
C938 C939 1.370 . S
C938 C942 1.524 . S
C939 C931 1.503 . S
C939 C938 1.370 . S
C939 C940 1.403 . S
C940 C939 1.403 . S
C940 C941 1.404 . S
C940 C943 1.539 . S
C941 C937 1.408 1_565 S
C941 C940 1.404 . S
C941 H953 0.930 1_565 S
C942 C938 1.524 . S
C942 H954 0.956 . S
C942 H955 0.961 . S
C942 H956 0.961 . S
C943 C940 1.539 . S
C943 H957 0.958 . S
C943 H958 0.961 . S
C943 H959 0.960 . S
H944 C928 0.931 . S
H945 C933 0.929 . S
H946 C934 0.960 . S
H947 C934 0.962 . S
H948 C934 0.960 . S
H949 C935 0.961 . S
H950 C935 0.961 . S
H951 C935 0.961 . S
H952 C936 0.931 . S
H953 C941 0.930 1_545 S
H954 C942 0.956 . S
H955 C942 0.961 . S
H956 C942 0.961 . S
H957 C943 0.958 . S
H958 C943 0.961 . S
H959 C943 0.960 . S
C960 C961 1.391 . S
C960 C962 1.394 . S
C960 H976 0.931 . S
C961 C960 1.391 . S
C961 C965 1.376 . S
C962 C960 1.394 . S
C962 C963 1.369 . S
C962 C966 1.530 1_556 S
C963 C962 1.369 . S
C963 C964 1.410 1_655 S
C963 C971 1.503 1_656 S
C964 C963 1.410 1_455 S
C964 C965 1.392 1_455 S
C964 C967 1.511 . S
C965 C961 1.376 . S
C965 C964 1.392 1_655 S
C965 H977 0.911 1_655 S
C966 C962 1.530 1_554 S
C966 H978 0.960 . S
C966 H979 0.963 . S
C966 H980 0.960 1_554 S
C967 C964 1.511 . S
C967 H981 0.961 . S
C967 H982 0.961 . S
C967 H983 0.961 . S
C968 C969 1.370 . S
C968 C970 1.363 . S
C968 H984 0.931 . S
C969 C968 1.370 . S
C969 C973 1.408 . S
C970 C968 1.363 . S
C970 C971 1.370 . S
C970 C974 1.524 1_455 S
C971 C963 1.503 1_454 S
C971 C970 1.370 . S
C971 C972 1.403 . S
C972 C971 1.403 . S
C972 C973 1.404 . S
C972 C975 1.539 1_554 S
C973 C969 1.408 . S
C973 C972 1.404 . S
C973 H985 0.930 . S
C974 C970 1.524 1_655 S
C974 H986 0.956 . S
C974 H987 0.961 1_655 S
C974 H988 0.944 1_655 S
C975 C972 1.539 1_556 S
C975 H989 0.958 . S
C975 H990 0.961 . S
C975 H991 0.960 . S
H976 C960 0.931 . S
H977 C965 0.911 1_455 S
H978 C966 0.960 . S
H979 C966 0.963 . S
H980 C966 0.960 1_556 S
H981 C967 0.961 . S
H982 C967 0.961 . S
H983 C967 0.961 . S
H984 C968 0.931 . S
H985 C973 0.930 . S
H986 C974 0.956 . S
H987 C974 0.961 1_455 S
H988 C974 0.944 1_455 S
H989 C975 0.958 . S
H990 C975 0.961 . S
H991 C975 0.960 . S
C992 C993 1.391 . S
C992 C994 1.394 . S
C992 H1008 0.931 . S
C993 C992 1.391 . S
C993 C997 1.376 . S
C994 C992 1.394 . S
C994 C995 1.369 . S
C994 C998 1.531 . S
C995 C994 1.369 . S
C995 C996 1.410 . S
C995 C1003 1.503 1_556 S
C996 C995 1.410 . S
C996 C997 1.392 . S
C996 C999 1.511 1_556 S
C997 C993 1.376 . S
C997 C996 1.392 . S
C997 H1009 0.929 . S
C998 C994 1.531 . S
C998 H1010 0.960 . S
C998 H1011 0.962 . S
C998 H1012 0.960 . S
C999 C996 1.511 1_554 S
C999 H1013 0.961 . S
C999 H1014 0.961 . S
C999 H1015 0.961 . S
C1000 C1001 1.370 . S
C1000 C1002 1.363 . S
C1000 H1016 0.931 . S
C1001 C1000 1.370 . S
C1001 C1005 1.408 . S
C1002 C1000 1.363 . S
C1002 C1003 1.370 . S
C1002 C1006 1.524 1_554 S
C1003 C995 1.503 1_554 S
C1003 C1002 1.370 . S
C1003 C1004 1.403 . S
C1004 C1003 1.403 . S
C1004 C1005 1.404 . S
C1004 C1007 1.539 . S
C1005 C1001 1.408 . S
C1005 C1004 1.404 . S
C1005 H1017 0.930 . S
C1006 C1002 1.524 1_556 S
C1006 H1018 0.956 . S
C1006 H1019 0.961 . S
C1006 H1020 0.961 . S
C1007 C1004 1.539 . S
C1007 H1021 0.958 . S
C1007 H1022 0.961 . S
C1007 H1023 0.960 . S
H1008 C992 0.931 . S
H1009 C997 0.929 . S
H1010 C998 0.960 . S
H1011 C998 0.962 . S
H1012 C998 0.960 . S
H1013 C999 0.961 . S
H1014 C999 0.961 . S
H1015 C999 0.961 . S
H1016 C1000 0.931 . S
H1017 C1005 0.930 . S
H1018 C1006 0.956 . S
H1019 C1006 0.961 . S
H1020 C1006 0.961 . S
H1021 C1007 0.958 . S
H1022 C1007 0.961 . S
H1023 C1007 0.960 . S
C1024 C1025 1.391 . S
C1024 C1026 1.381 1_455 S
C1024 H1040 0.931 . S
C1025 C1024 1.391 . S
C1025 C1029 1.376 . S
C1026 C1024 1.381 1_655 S
C1026 C1027 1.366 1_655 S
C1026 C1030 1.547 . S
C1027 C1026 1.366 1_455 S
C1027 C1028 1.410 . S
C1027 C1035 1.503 1_455 S
C1028 C1027 1.410 . S
C1028 C1029 1.392 . S
C1028 C1031 1.511 . S
C1029 C1025 1.376 . S
C1029 C1028 1.392 . S
C1029 H1041 0.929 . S
C1030 C1026 1.547 . S
C1030 H1042 0.960 . S
C1030 H1043 0.962 . S
C1030 H1044 0.960 . S
C1031 C1028 1.511 . S
C1031 H1045 0.961 . S
C1031 H1046 0.961 . S
C1031 H1047 0.961 . S
C1032 C1033 1.370 . S
C1032 C1034 1.352 1_655 S
C1032 H1048 0.931 . S
C1033 C1032 1.370 . S
C1033 C1037 1.408 . S
C1034 C1032 1.352 1_455 S
C1034 C1035 1.360 1_455 S
C1034 C1038 1.546 . S
C1035 C1027 1.503 1_655 S
C1035 C1034 1.360 1_655 S
C1035 C1036 1.403 . S
C1036 C1035 1.403 . S
C1036 C1037 1.404 . S
C1036 C1039 1.539 . S
C1037 C1033 1.408 . S
C1037 C1036 1.404 . S
C1037 H1049 0.930 . S
C1038 C1034 1.546 . S
C1038 H1050 0.956 . S
C1038 H1051 0.961 . S
C1038 H1052 0.961 . S
C1039 C1036 1.539 . S
C1039 H1053 0.958 . S
C1039 H1054 0.961 . S
C1039 H1055 0.960 . S
H1040 C1024 0.931 . S
H1041 C1029 0.929 . S
H1042 C1030 0.960 . S
H1043 C1030 0.962 . S
H1044 C1030 0.960 . S
H1045 C1031 0.961 . S
H1046 C1031 0.961 . S
H1047 C1031 0.961 . S
H1048 C1032 0.931 . S
H1049 C1037 0.930 . S
H1050 C1038 0.956 . S
H1051 C1038 0.961 . S
H1052 C1038 0.961 . S
H1053 C1039 0.958 . S
H1054 C1039 0.961 . S
H1055 C1039 0.960 . S
C1056 C1057 1.391 . S
C1056 C1058 1.394 . S
C1056 H1072 0.931 . S
C1057 C1056 1.391 . S
C1057 C1061 1.376 . S
C1058 C1056 1.394 . S
C1058 C1059 1.369 . S
C1058 C1062 1.531 . S
C1059 C1058 1.369 . S
C1059 C1060 1.410 . S
C1059 C1067 1.503 . S
C1060 C1059 1.410 . S
C1060 C1061 1.392 . S
C1060 C1063 1.511 . S
C1061 C1057 1.376 . S
C1061 C1060 1.392 . S
C1061 H1073 0.929 . S
C1062 C1058 1.531 . S
C1062 H1074 0.960 . S
C1062 H1075 0.962 . S
C1062 H1076 0.960 . S
C1063 C1060 1.511 . S
C1063 H1077 0.961 . S
C1063 H1078 0.961 . S
C1063 H1079 0.961 . S
C1064 C1065 1.370 . S
C1064 C1066 1.363 . S
C1064 H1080 0.931 . S
C1065 C1064 1.370 . S
C1065 C1069 1.408 . S
C1066 C1064 1.363 . S
C1066 C1067 1.370 . S
C1066 C1070 1.524 . S
C1067 C1059 1.503 . S
C1067 C1066 1.370 . S
C1067 C1068 1.403 . S
C1068 C1067 1.403 . S
C1068 C1069 1.404 . S
C1068 C1071 1.539 . S
C1069 C1065 1.408 . S
C1069 C1068 1.404 . S
C1069 H1081 0.930 . S
C1070 C1066 1.524 . S
C1070 H1082 0.956 . S
C1070 H1083 0.961 . S
C1070 H1084 0.961 . S
C1071 C1068 1.539 . S
C1071 H1085 0.958 . S
C1071 H1086 0.961 . S
C1071 H1087 0.960 . S
H1072 C1056 0.931 . S
H1073 C1061 0.929 . S
H1074 C1062 0.960 . S
H1075 C1062 0.962 . S
H1076 C1062 0.960 . S
H1077 C1063 0.961 . S
H1078 C1063 0.961 . S
H1079 C1063 0.961 . S
H1080 C1064 0.931 . S
H1081 C1069 0.930 . S
H1082 C1070 0.956 . S
H1083 C1070 0.961 . S
H1084 C1070 0.961 . S
H1085 C1071 0.958 . S
H1086 C1071 0.961 . S
H1087 C1071 0.960 . S
C1088 C1089 1.391 . S
C1088 C1090 1.394 . S
C1088 H1104 0.931 . S
C1089 C1088 1.391 . S
C1089 C1093 1.376 . S
C1090 C1088 1.394 . S
C1090 C1091 1.369 . S
C1090 C1094 1.531 . S
C1091 C1090 1.369 . S
C1091 C1092 1.410 . S
C1091 C1099 1.503 1_556 S
C1092 C1091 1.410 . S
C1092 C1093 1.392 . S
C1092 C1095 1.511 . S
C1093 C1089 1.376 . S
C1093 C1092 1.392 . S
C1093 H1105 0.929 . S
C1094 C1090 1.531 . S
C1094 H1106 0.960 . S
C1094 H1107 0.962 1_556 S
C1094 H1108 0.960 . S
C1095 C1092 1.511 . S
C1095 H1109 0.961 . S
C1095 H1110 0.941 1_556 S
C1095 H1111 0.961 . S
C1096 C1097 1.370 . S
C1096 C1098 1.363 . S
C1096 H1112 0.931 . S
C1097 C1096 1.370 . S
C1097 C1101 1.408 . S
C1098 C1096 1.363 . S
C1098 C1099 1.370 . S
C1098 C1102 1.524 . S
C1099 C1091 1.503 1_554 S
C1099 C1098 1.370 . S
C1099 C1100 1.403 . S
C1100 C1099 1.403 . S
C1100 C1101 1.404 . S
C1100 C1103 1.539 1_554 S
C1101 C1097 1.408 . S
C1101 C1100 1.404 . S
C1101 H1113 0.930 . S
C1102 C1098 1.524 . S
C1102 H1114 0.956 . S
C1102 H1115 0.961 . S
C1102 H1116 0.961 . S
C1103 C1100 1.539 1_556 S
C1103 H1117 0.958 . S
C1103 H1118 0.961 . S
C1103 H1119 0.960 . S
H1104 C1088 0.931 . S
H1105 C1093 0.929 . S
H1106 C1094 0.960 . S
H1107 C1094 0.962 1_554 S
H1108 C1094 0.960 . S
H1109 C1095 0.961 . S
H1110 C1095 0.941 1_554 S
H1111 C1095 0.961 . S
H1112 C1096 0.931 . S
H1113 C1101 0.930 . S
H1114 C1102 0.956 . S
H1115 C1102 0.961 . S
H1116 C1102 0.961 . S
H1117 C1103 0.958 . S
H1118 C1103 0.961 . S
H1119 C1103 0.960 . S
C1120 C1121 1.391 . S
C1120 C1122 1.394 . S
C1120 H1136 0.931 . S
C1121 C1120 1.391 . S
C1121 C1125 1.376 . S
C1122 C1120 1.394 . S
C1122 C1123 1.369 . S
C1122 C1126 1.531 1_655 S
C1123 C1122 1.369 . S
C1123 C1124 1.410 . S
C1123 C1131 1.503 1_655 S
C1124 C1123 1.410 . S
C1124 C1125 1.392 . S
C1124 C1127 1.511 . S
C1125 C1121 1.376 . S
C1125 C1124 1.392 . S
C1125 H1137 0.929 . S
C1126 C1122 1.531 1_455 S
C1126 H1138 0.960 . S
C1126 H1139 0.962 . S
C1126 H1140 0.960 1_455 S
C1127 C1124 1.511 . S
C1127 H1141 0.961 . S
C1127 H1142 0.961 . S
C1127 H1143 0.961 . S
C1128 C1129 1.370 . S
C1128 C1130 1.363 . S
C1128 H1144 0.931 . S
C1129 C1128 1.370 . S
C1129 C1133 1.408 . S
C1130 C1128 1.363 . S
C1130 C1131 1.370 . S
C1130 C1134 1.524 . S
C1131 C1123 1.503 1_455 S
C1131 C1130 1.370 . S
C1131 C1132 1.403 1_455 S
C1132 C1131 1.403 1_655 S
C1132 C1133 1.404 1_655 S
C1132 C1135 1.539 . S
C1133 C1129 1.408 . S
C1133 C1132 1.404 1_455 S
C1133 H1145 0.940 . S
C1134 C1130 1.524 . S
C1134 H1146 0.956 . S
C1134 H1147 0.961 . S
C1134 H1148 0.961 . S
C1135 C1132 1.539 . S
C1135 H1149 0.958 . S
C1135 H1150 0.961 . S
C1135 H1151 0.960 . S
H1136 C1120 0.931 . S
H1137 C1125 0.929 . S
H1138 C1126 0.960 . S
H1139 C1126 0.962 . S
H1140 C1126 0.960 1_655 S
H1141 C1127 0.961 . S
H1142 C1127 0.961 . S
H1143 C1127 0.961 . S
H1144 C1128 0.931 . S
H1145 C1133 0.940 . S
H1146 C1134 0.956 . S
H1147 C1134 0.961 . S
H1148 C1134 0.961 . S
H1149 C1135 0.958 . S
H1150 C1135 0.961 . S
H1151 C1135 0.960 . S
C1152 C1153 1.391 . S
C1152 C1154 1.394 . S
C1152 H1168 0.931 . S
C1153 C1152 1.391 . S
C1153 C1157 1.376 . S
C1154 C1152 1.394 . S
C1154 C1155 1.369 . S
C1154 C1158 1.531 . S
C1155 C1154 1.369 . S
C1155 C1156 1.410 . S
C1155 C1163 1.503 . S
C1156 C1155 1.410 . S
C1156 C1157 1.392 . S
C1156 C1159 1.511 . S
C1157 C1153 1.376 . S
C1157 C1156 1.392 . S
C1157 H1169 0.929 . S
C1158 C1154 1.531 . S
C1158 H1170 0.960 . S
C1158 H1171 0.962 . S
C1158 H1172 0.960 . S
C1159 C1156 1.511 . S
C1159 H1173 0.961 . S
C1159 H1174 0.961 . S
C1159 H1175 0.961 . S
C1160 C1161 1.370 . S
C1160 C1162 1.363 . S
C1160 H1176 0.931 . S
C1161 C1160 1.370 . S
C1161 C1165 1.408 . S
C1162 C1160 1.363 . S
C1162 C1163 1.370 . S
C1162 C1166 1.524 . S
C1163 C1155 1.503 . S
C1163 C1162 1.370 . S
C1163 C1164 1.403 . S
C1164 C1163 1.403 . S
C1164 C1165 1.404 . S
C1164 C1167 1.539 . S
C1165 C1161 1.408 . S
C1165 C1164 1.404 . S
C1165 H1177 0.930 . S
C1166 C1162 1.524 . S
C1166 H1178 0.956 . S
C1166 H1179 0.961 . S
C1166 H1180 0.961 . S
C1167 C1164 1.539 . S
C1167 H1181 0.958 . S
C1167 H1182 0.961 . S
C1167 H1183 0.960 . S
H1168 C1152 0.931 . S
H1169 C1157 0.929 . S
H1170 C1158 0.960 . S
H1171 C1158 0.962 . S
H1172 C1158 0.960 . S
H1173 C1159 0.961 . S
H1174 C1159 0.961 . S
H1175 C1159 0.961 . S
H1176 C1160 0.931 . S
H1177 C1165 0.930 . S
H1178 C1166 0.956 . S
H1179 C1166 0.961 . S
H1180 C1166 0.961 . S
H1181 C1167 0.958 . S
H1182 C1167 0.961 . S
H1183 C1167 0.960 . S
C1184 C1185 1.391 . S
C1184 C1186 1.394 1_545 S
C1184 H1200 0.931 1_545 S
C1185 C1184 1.391 . S
C1185 C1189 1.376 . S
C1186 C1184 1.394 1_565 S
C1186 C1187 1.369 1_565 S
C1186 C1190 1.549 . S
C1187 C1186 1.369 1_545 S
C1187 C1188 1.410 . S
C1187 C1195 1.503 1_645 S
C1188 C1187 1.410 . S
C1188 C1189 1.392 . S
C1188 C1191 1.514 . S
C1189 C1185 1.376 . S
C1189 C1188 1.392 . S
C1189 H1201 0.929 . S
C1190 C1186 1.549 . S
C1190 H1202 0.905 1_655 S
C1190 H1203 1.006 . S
C1190 H1204 0.957 1_655 S
C1191 C1188 1.514 . S
C1191 H1205 0.967 . S
C1191 H1206 0.960 1_655 S
C1191 H1207 0.952 1_655 S
C1192 C1193 1.370 . S
C1192 C1194 1.363 1_455 S
C1192 H1208 0.897 1_455 S
C1193 C1192 1.370 . S
C1193 C1197 1.408 . S
C1194 C1192 1.363 1_655 S
C1194 C1195 1.370 1_655 S
C1194 C1198 1.524 . S
C1195 C1187 1.503 1_465 S
C1195 C1194 1.370 1_455 S
C1195 C1196 1.403 . S
C1196 C1195 1.403 . S
C1196 C1197 1.404 . S
C1196 C1199 1.539 1_565 S
C1197 C1193 1.408 . S
C1197 C1196 1.404 . S
C1197 H1209 0.930 . S
C1198 C1194 1.524 . S
C1198 H1210 0.956 . S
C1198 H1211 0.961 1_565 S
C1198 H1212 0.961 . S
C1199 C1196 1.539 1_545 S
C1199 H1213 0.958 1_545 S
C1199 H1214 0.961 . S
C1199 H1215 0.960 . S
H1200 C1184 0.931 1_565 S
H1201 C1189 0.929 . S
H1202 C1190 0.905 1_455 S
H1203 C1190 1.006 . S
H1204 C1190 0.957 1_455 S
H1205 C1191 0.967 . S
H1206 C1191 0.960 1_455 S
H1207 C1191 0.952 1_455 S
H1208 C1192 0.897 1_655 S
H1209 C1197 0.930 . S
H1210 C1198 0.956 . S
H1211 C1198 0.961 1_545 S
H1212 C1198 0.961 . S
H1213 C1199 0.958 1_565 S
H1214 C1199 0.961 . S
H1215 C1199 0.960 . S
C1216 C1217 1.391 . S
C1216 C1218 1.394 . S
C1216 H1232 0.931 . S
C1217 C1216 1.391 . S
C1217 C1221 1.376 . S
C1218 C1216 1.394 . S
C1218 C1219 1.369 . S
C1218 C1222 1.531 . S
C1219 C1218 1.369 . S
C1219 C1220 1.410 . S
C1219 C1227 1.503 . S
C1220 C1219 1.410 . S
C1220 C1221 1.392 . S
C1220 C1223 1.511 . S
C1221 C1217 1.376 . S
C1221 C1220 1.392 . S
C1221 H1233 0.929 . S
C1222 C1218 1.531 . S
C1222 H1234 0.960 . S
C1222 H1235 0.962 . S
C1222 H1236 0.960 . S
C1223 C1220 1.511 . S
C1223 H1237 0.961 . S
C1223 H1238 0.961 . S
C1223 H1239 0.961 . S
C1224 C1225 1.370 . S
C1224 C1226 1.363 . S
C1224 H1240 0.931 . S
C1225 C1224 1.370 . S
C1225 C1229 1.408 . S
C1226 C1224 1.363 . S
C1226 C1227 1.370 . S
C1226 C1230 1.524 . S
C1227 C1219 1.503 . S
C1227 C1226 1.370 . S
C1227 C1228 1.403 . S
C1228 C1227 1.403 . S
C1228 C1229 1.404 . S
C1228 C1231 1.539 . S
C1229 C1225 1.408 . S
C1229 C1228 1.404 . S
C1229 H1241 0.930 . S
C1230 C1226 1.524 . S
C1230 H1242 0.956 . S
C1230 H1243 0.961 . S
C1230 H1244 0.961 . S
C1231 C1228 1.539 . S
C1231 H1245 0.958 . S
C1231 H1246 0.961 . S
C1231 H1247 0.960 . S
H1232 C1216 0.931 . S
H1233 C1221 0.929 . S
H1234 C1222 0.960 . S
H1235 C1222 0.962 . S
H1236 C1222 0.960 . S
H1237 C1223 0.961 . S
H1238 C1223 0.961 . S
H1239 C1223 0.961 . S
H1240 C1224 0.931 . S
H1241 C1229 0.930 . S
H1242 C1230 0.956 . S
H1243 C1230 0.961 . S
H1244 C1230 0.961 . S
H1245 C1231 0.958 . S
H1246 C1231 0.961 . S
H1247 C1231 0.960 . S
C1248 C1249 1.391 . S
C1248 C1250 1.394 . S
C1248 H1264 0.931 . S
C1249 C1248 1.391 . S
C1249 C1253 1.376 . S
C1250 C1248 1.394 . S
C1250 C1251 1.369 . S
C1250 C1254 1.531 1_565 S
C1251 C1250 1.369 . S
C1251 C1252 1.410 . S
C1251 C1259 1.503 1_565 S
C1252 C1251 1.410 . S
C1252 C1253 1.392 . S
C1252 C1255 1.511 . S
C1253 C1249 1.376 . S
C1253 C1252 1.392 . S
C1253 H1265 0.929 . S
C1254 C1250 1.531 1_545 S
C1254 H1266 0.960 . S
C1254 H1267 0.962 . S
C1254 H1268 0.960 . S
C1255 C1252 1.511 . S
C1255 H1269 0.961 . S
C1255 H1270 0.961 . S
C1255 H1271 0.961 . S
C1256 C1257 1.370 . S
C1256 C1258 1.363 1_545 S
C1256 H1272 0.925 1_545 S
C1257 C1256 1.370 . S
C1257 C1261 1.408 . S
C1258 C1256 1.363 1_565 S
C1258 C1259 1.370 1_565 S
C1258 C1262 1.524 . S
C1259 C1251 1.503 1_545 S
C1259 C1258 1.370 1_545 S
C1259 C1260 1.403 . S
C1260 C1259 1.403 . S
C1260 C1261 1.404 . S
C1260 C1263 1.539 . S
C1261 C1257 1.408 . S
C1261 C1260 1.404 . S
C1261 H1273 0.930 . S
C1262 C1258 1.524 . S
C1262 H1274 0.956 . S
C1262 H1275 0.961 . S
C1262 H1276 0.961 . S
C1263 C1260 1.539 . S
C1263 H1277 0.958 . S
C1263 H1278 0.961 . S
C1263 H1279 0.960 . S
H1264 C1248 0.931 . S
H1265 C1253 0.929 . S
H1266 C1254 0.960 . S
H1267 C1254 0.962 . S
H1268 C1254 0.960 . S
H1269 C1255 0.961 . S
H1270 C1255 0.961 . S
H1271 C1255 0.961 . S
H1272 C1256 0.925 1_565 S
H1273 C1261 0.930 . S
H1274 C1262 0.956 . S
H1275 C1262 0.961 . S
H1276 C1262 0.961 . S
H1277 C1263 0.958 . S
H1278 C1263 0.961 . S
H1279 C1263 0.960 . S
C1280 C1281 1.391 . S
C1280 C1282 1.394 . S
C1280 H1296 0.931 . S
C1281 C1280 1.391 . S
C1281 C1285 1.376 . S
C1282 C1280 1.394 . S
C1282 C1283 1.369 . S
C1282 C1286 1.531 . S
C1283 C1282 1.369 . S
C1283 C1284 1.410 . S
C1283 C1291 1.503 . S
C1284 C1283 1.410 . S
C1284 C1285 1.392 . S
C1284 C1287 1.511 . S
C1285 C1281 1.376 . S
C1285 C1284 1.392 . S
C1285 H1297 0.929 . S
C1286 C1282 1.531 . S
C1286 H1298 0.960 . S
C1286 H1299 0.962 . S
C1286 H1300 0.960 . S
C1287 C1284 1.511 . S
C1287 H1301 0.961 . S
C1287 H1302 0.961 . S
C1287 H1303 0.961 . S
C1288 C1289 1.370 . S
C1288 C1290 1.363 . S
C1288 H1304 0.931 . S
C1289 C1288 1.370 . S
C1289 C1293 1.408 . S
C1290 C1288 1.363 . S
C1290 C1291 1.370 . S
C1290 C1294 1.524 . S
C1291 C1283 1.503 . S
C1291 C1290 1.370 . S
C1291 C1292 1.403 . S
C1292 C1291 1.403 . S
C1292 C1293 1.404 . S
C1292 C1295 1.539 . S
C1293 C1289 1.408 . S
C1293 C1292 1.404 . S
C1293 H1305 0.930 . S
C1294 C1290 1.524 . S
C1294 H1306 0.956 . S
C1294 H1307 0.961 . S
C1294 H1308 0.961 . S
C1295 C1292 1.539 . S
C1295 H1309 0.958 . S
C1295 H1310 0.961 . S
C1295 H1311 0.960 . S
H1296 C1280 0.931 . S
H1297 C1285 0.929 . S
H1298 C1286 0.960 . S
H1299 C1286 0.962 . S
H1300 C1286 0.960 . S
H1301 C1287 0.961 . S
H1302 C1287 0.961 . S
H1303 C1287 0.961 . S
H1304 C1288 0.931 . S
H1305 C1293 0.930 . S
H1306 C1294 0.956 . S
H1307 C1294 0.961 . S
H1308 C1294 0.961 . S
H1309 C1295 0.958 . S
H1310 C1295 0.961 . S
H1311 C1295 0.960 . S
C1312 C1313 1.391 . S
C1312 C1314 1.394 . S
C1312 H1328 0.931 . S
C1313 C1312 1.391 . S
C1313 C1317 1.376 . S
C1314 C1312 1.394 . S
C1314 C1315 1.369 . S
C1314 C1318 1.531 . S
C1315 C1314 1.369 . S
C1315 C1316 1.410 . S
C1315 C1323 1.503 1_565 S
C1316 C1315 1.410 . S
C1316 C1317 1.392 . S
C1316 C1319 1.511 1_565 S
C1317 C1313 1.376 . S
C1317 C1316 1.392 . S
C1317 H1329 0.929 . S
C1318 C1314 1.531 . S
C1318 H1330 0.960 . S
C1318 H1331 0.962 . S
C1318 H1332 0.960 . S
C1319 C1316 1.511 1_545 S
C1319 H1333 0.961 . S
C1319 H1334 0.961 . S
C1319 H1335 0.961 . S
C1320 C1321 1.370 . S
C1320 C1322 1.363 . S
C1320 H1336 0.931 . S
C1321 C1320 1.370 . S
C1321 C1325 1.408 . S
C1322 C1320 1.363 . S
C1322 C1323 1.370 . S
C1322 C1326 1.524 . S
C1323 C1315 1.503 1_545 S
C1323 C1322 1.370 . S
C1323 C1324 1.403 1_545 S
C1324 C1323 1.403 1_565 S
C1324 C1325 1.404 1_565 S
C1324 C1327 1.539 . S
C1325 C1321 1.408 . S
C1325 C1324 1.404 1_545 S
C1325 H1337 0.930 . S
C1326 C1322 1.524 . S
C1326 H1338 0.956 . S
C1326 H1339 0.961 . S
C1326 H1340 0.961 . S
C1327 C1324 1.539 . S
C1327 H1341 0.958 . S
C1327 H1342 0.961 . S
C1327 H1343 0.960 . S
H1328 C1312 0.931 . S
H1329 C1317 0.929 . S
H1330 C1318 0.960 . S
H1331 C1318 0.962 . S
H1332 C1318 0.960 . S
H1333 C1319 0.961 . S
H1334 C1319 0.961 . S
H1335 C1319 0.961 . S
H1336 C1320 0.931 . S
H1337 C1325 0.930 . S
H1338 C1326 0.956 . S
H1339 C1326 0.961 . S
H1340 C1326 0.961 . S
H1341 C1327 0.958 . S
H1342 C1327 0.961 . S
H1343 C1327 0.960 . S
C1344 C1345 1.391 . S
C1344 C1346 1.394 . S
C1344 H1360 0.931 . S
C1345 C1344 1.391 . S
C1345 C1349 1.376 . S
C1346 C1344 1.394 . S
C1346 C1347 1.369 . S
C1346 C1350 1.531 . S
C1347 C1346 1.369 . S
C1347 C1348 1.410 . S
C1347 C1355 1.503 . S
C1348 C1347 1.410 . S
C1348 C1349 1.392 . S
C1348 C1351 1.511 . S
C1349 C1345 1.376 . S
C1349 C1348 1.392 . S
C1349 H1361 0.929 . S
C1350 C1346 1.531 . S
C1350 H1362 0.960 . S
C1350 H1363 0.962 . S
C1350 H1364 0.960 . S
C1351 C1348 1.511 . S
C1351 H1365 0.961 . S
C1351 H1366 0.961 . S
C1351 H1367 0.961 . S
C1352 C1353 1.370 . S
C1352 C1354 1.363 . S
C1352 H1368 0.931 . S
C1353 C1352 1.370 . S
C1353 C1357 1.408 . S
C1354 C1352 1.363 . S
C1354 C1355 1.370 . S
C1354 C1358 1.524 . S
C1355 C1347 1.503 . S
C1355 C1354 1.370 . S
C1355 C1356 1.403 . S
C1356 C1355 1.403 . S
C1356 C1357 1.404 . S
C1356 C1359 1.539 . S
C1357 C1353 1.408 . S
C1357 C1356 1.404 . S
C1357 H1369 0.930 . S
C1358 C1354 1.524 . S
C1358 H1370 0.956 . S
C1358 H1371 0.961 . S
C1358 H1372 0.961 . S
C1359 C1356 1.539 . S
C1359 H1373 0.958 . S
C1359 H1374 0.961 . S
C1359 H1375 0.960 . S
H1360 C1344 0.931 . S
H1361 C1349 0.929 . S
H1362 C1350 0.960 . S
H1363 C1350 0.962 . S
H1364 C1350 0.960 . S
H1365 C1351 0.961 . S
H1366 C1351 0.961 . S
H1367 C1351 0.961 . S
H1368 C1352 0.931 . S
H1369 C1357 0.930 . S
H1370 C1358 0.956 . S
H1371 C1358 0.961 . S
H1372 C1358 0.961 . S
H1373 C1359 0.958 . S
H1374 C1359 0.961 . S
H1375 C1359 0.960 . S
C1376 C1377 1.391 . S
C1376 C1378 1.394 . S
C1376 H1392 0.931 . S
C1377 C1376 1.391 . S
C1377 C1381 1.376 . S
C1378 C1376 1.394 . S
C1378 C1379 1.369 . S
C1378 C1382 1.531 . S
C1379 C1378 1.369 . S
C1379 C1380 1.410 . S
C1379 C1387 1.503 . S
C1380 C1379 1.410 . S
C1380 C1381 1.392 . S
C1380 C1383 1.511 . S
C1381 C1377 1.376 . S
C1381 C1380 1.392 . S
C1381 H1393 0.929 . S
C1382 C1378 1.531 . S
C1382 H1394 0.960 . S
C1382 H1395 0.962 . S
C1382 H1396 0.960 . S
C1383 C1380 1.511 . S
C1383 H1397 0.961 . S
C1383 H1398 0.961 . S
C1383 H1399 0.961 . S
C1384 C1385 1.370 . S
C1384 C1386 1.363 . S
C1384 H1400 0.931 . S
C1385 C1384 1.370 . S
C1385 C1389 1.408 . S
C1386 C1384 1.363 . S
C1386 C1387 1.370 . S
C1386 C1390 1.524 . S
C1387 C1379 1.503 . S
C1387 C1386 1.370 . S
C1387 C1388 1.403 . S
C1388 C1387 1.403 . S
C1388 C1389 1.404 . S
C1388 C1391 1.539 . S
C1389 C1385 1.408 . S
C1389 C1388 1.404 . S
C1389 H1401 0.930 . S
C1390 C1386 1.524 . S
C1390 H1402 0.956 . S
C1390 H1403 0.961 . S
C1390 H1404 0.961 . S
C1391 C1388 1.539 . S
C1391 H1405 0.958 . S
C1391 H1406 0.961 . S
C1391 H1407 0.960 . S
H1392 C1376 0.931 . S
H1393 C1381 0.929 . S
H1394 C1382 0.960 . S
H1395 C1382 0.962 . S
H1396 C1382 0.960 . S
H1397 C1383 0.961 . S
H1398 C1383 0.961 . S
H1399 C1383 0.961 . S
H1400 C1384 0.931 . S
H1401 C1389 0.930 . S
H1402 C1390 0.956 . S
H1403 C1390 0.961 . S
H1404 C1390 0.961 . S
H1405 C1391 0.958 . S
H1406 C1391 0.961 . S
H1407 C1391 0.960 . S
C1408 C1409 1.391 . S
C1408 C1410 1.394 . S
C1408 H1424 0.931 . S
C1409 C1408 1.391 . S
C1409 C1413 1.376 . S
C1410 C1408 1.394 . S
C1410 C1411 1.369 . S
C1410 C1414 1.531 . S
C1411 C1410 1.369 . S
C1411 C1412 1.410 . S
C1411 C1419 1.503 . S
C1412 C1411 1.410 . S
C1412 C1413 1.392 . S
C1412 C1415 1.511 . S
C1413 C1409 1.376 . S
C1413 C1412 1.392 . S
C1413 H1425 0.929 . S
C1414 C1410 1.531 . S
C1414 H1426 0.960 . S
C1414 H1427 0.962 . S
C1414 H1428 0.960 . S
C1415 C1412 1.511 . S
C1415 H1429 0.961 . S
C1415 H1430 0.961 . S
C1415 H1431 0.961 . S
C1416 C1417 1.370 . S
C1416 C1418 1.363 . S
C1416 H1432 0.931 . S
C1417 C1416 1.370 . S
C1417 C1421 1.408 . S
C1418 C1416 1.363 . S
C1418 C1419 1.370 . S
C1418 C1422 1.524 . S
C1419 C1411 1.503 . S
C1419 C1418 1.370 . S
C1419 C1420 1.403 . S
C1420 C1419 1.403 . S
C1420 C1421 1.404 . S
C1420 C1423 1.539 . S
C1421 C1417 1.408 . S
C1421 C1420 1.404 . S
C1421 H1433 0.930 . S
C1422 C1418 1.524 . S
C1422 H1434 0.956 . S
C1422 H1435 0.961 . S
C1422 H1436 0.961 . S
C1423 C1420 1.539 . S
C1423 H1437 0.958 . S
C1423 H1438 0.961 . S
C1423 H1439 0.960 . S
H1424 C1408 0.931 . S
H1425 C1413 0.929 . S
H1426 C1414 0.960 . S
H1427 C1414 0.962 . S
H1428 C1414 0.960 . S
H1429 C1415 0.961 . S
H1430 C1415 0.961 . S
H1431 C1415 0.961 . S
H1432 C1416 0.931 . S
H1433 C1421 0.930 . S
H1434 C1422 0.956 . S
H1435 C1422 0.961 . S
H1436 C1422 0.961 . S
H1437 C1423 0.958 . S
H1438 C1423 0.961 . S
H1439 C1423 0.960 . S
C1440 C1441 1.391 . S
C1440 C1442 1.394 1_545 S
C1440 H1456 0.931 . S
C1441 C1440 1.391 . S
C1441 C1445 1.376 . S
C1442 C1440 1.394 1_565 S
C1442 C1443 1.369 1_565 S
C1442 C1446 1.531 . S
C1443 C1442 1.369 1_545 S
C1443 C1444 1.410 . S
C1443 C1451 1.503 1_546 S
C1444 C1443 1.410 . S
C1444 C1445 1.392 . S
C1444 C1447 1.511 . S
C1445 C1441 1.376 . S
C1445 C1444 1.392 . S
C1445 H1457 0.929 . S
C1446 C1442 1.531 . S
C1446 H1458 0.960 . S
C1446 H1459 0.951 1_556 S
C1446 H1460 0.960 . S
C1447 C1444 1.511 . S
C1447 H1461 0.961 . S
C1447 H1462 0.961 1_556 S
C1447 H1463 0.961 . S
C1448 C1449 1.370 . S
C1448 C1450 1.363 . S
C1448 H1464 0.931 . S
C1449 C1448 1.370 . S
C1449 C1453 1.408 . S
C1450 C1448 1.363 . S
C1450 C1451 1.370 . S
C1450 C1454 1.524 1_565 S
C1451 C1443 1.503 1_564 S
C1451 C1450 1.370 . S
C1451 C1452 1.403 . S
C1452 C1451 1.403 . S
C1452 C1453 1.404 . S
C1452 C1455 1.539 1_554 S
C1453 C1449 1.408 . S
C1453 C1452 1.404 . S
C1453 H1465 0.930 . S
C1454 C1450 1.524 1_545 S
C1454 H1466 0.956 . S
C1454 H1467 0.961 . S
C1454 H1468 0.961 . S
C1455 C1452 1.539 1_556 S
C1455 H1469 0.958 . S
C1455 H1470 0.961 . S
C1455 H1471 0.960 . S
H1456 C1440 0.931 . S
H1457 C1445 0.929 . S
H1458 C1446 0.960 . S
H1459 C1446 0.951 1_554 S
H1460 C1446 0.960 . S
H1461 C1447 0.961 . S
H1462 C1447 0.961 1_554 S
H1463 C1447 0.961 . S
H1464 C1448 0.931 . S
H1465 C1453 0.930 . S
H1466 C1454 0.956 . S
H1467 C1454 0.961 . S
H1468 C1454 0.961 . S
H1469 C1455 0.958 . S
H1470 C1455 0.961 . S
H1471 C1455 0.960 . S
C1472 C1473 1.391 . S
C1472 C1474 1.394 . S
C1472 H1488 0.931 . S
C1473 C1472 1.391 . S
C1473 C1477 1.376 . S
C1474 C1472 1.394 . S
C1474 C1475 1.369 . S
C1474 C1478 1.531 . S
C1475 C1474 1.369 . S
C1475 C1476 1.410 . S
C1475 C1483 1.503 . S
C1476 C1475 1.410 . S
C1476 C1477 1.392 . S
C1476 C1479 1.511 . S
C1477 C1473 1.376 . S
C1477 C1476 1.392 . S
C1477 H1489 0.929 . S
C1478 C1474 1.531 . S
C1478 H1490 0.960 . S
C1478 H1491 0.962 . S
C1478 H1492 0.960 . S
C1479 C1476 1.511 . S
C1479 H1493 0.961 . S
C1479 H1494 0.961 . S
C1479 H1495 0.961 . S
C1480 C1481 1.370 . S
C1480 C1482 1.363 . S
C1480 H1496 0.931 . S
C1481 C1480 1.370 . S
C1481 C1485 1.408 . S
C1482 C1480 1.363 . S
C1482 C1483 1.370 . S
C1482 C1486 1.524 . S
C1483 C1475 1.503 . S
C1483 C1482 1.370 . S
C1483 C1484 1.403 . S
C1484 C1483 1.403 . S
C1484 C1485 1.404 . S
C1484 C1487 1.539 . S
C1485 C1481 1.408 . S
C1485 C1484 1.404 . S
C1485 H1497 0.930 . S
C1486 C1482 1.524 . S
C1486 H1498 0.956 . S
C1486 H1499 0.961 . S
C1486 H1500 0.961 . S
C1487 C1484 1.539 . S
C1487 H1501 0.958 . S
C1487 H1502 0.961 . S
C1487 H1503 0.960 . S
H1488 C1472 0.931 . S
H1489 C1477 0.929 . S
H1490 C1478 0.960 . S
H1491 C1478 0.962 . S
H1492 C1478 0.960 . S
H1493 C1479 0.961 . S
H1494 C1479 0.961 . S
H1495 C1479 0.961 . S
H1496 C1480 0.931 . S
H1497 C1485 0.930 . S
H1498 C1486 0.956 . S
H1499 C1486 0.961 . S
H1500 C1486 0.961 . S
H1501 C1487 0.958 . S
H1502 C1487 0.961 . S
H1503 C1487 0.960 . S
C1504 C1505 1.391 . S
C1504 C1506 1.394 . S
C1504 H1520 0.931 . S
C1505 C1504 1.391 . S
C1505 C1509 1.376 . S
C1506 C1504 1.394 . S
C1506 C1507 1.369 . S
C1506 C1510 1.531 . S
C1507 C1506 1.369 . S
C1507 C1508 1.410 . S
C1507 C1515 1.503 . S
C1508 C1507 1.410 . S
C1508 C1509 1.392 . S
C1508 C1511 1.511 . S
C1509 C1505 1.376 . S
C1509 C1508 1.392 . S
C1509 H1521 0.929 . S
C1510 C1506 1.531 . S
C1510 H1522 0.960 . S
C1510 H1523 0.962 . S
C1510 H1524 0.960 . S
C1511 C1508 1.511 . S
C1511 H1525 0.961 . S
C1511 H1526 0.961 . S
C1511 H1527 0.961 . S
C1512 C1513 1.370 . S
C1512 C1514 1.363 . S
C1512 H1528 0.931 . S
C1513 C1512 1.370 . S
C1513 C1517 1.408 . S
C1514 C1512 1.363 . S
C1514 C1515 1.370 . S
C1514 C1518 1.524 . S
C1515 C1507 1.503 . S
C1515 C1514 1.370 . S
C1515 C1516 1.403 . S
C1516 C1515 1.403 . S
C1516 C1517 1.404 . S
C1516 C1519 1.539 . S
C1517 C1513 1.408 . S
C1517 C1516 1.404 . S
C1517 H1529 0.930 . S
C1518 C1514 1.524 . S
C1518 H1530 0.956 . S
C1518 H1531 0.961 . S
C1518 H1532 0.961 . S
C1519 C1516 1.539 . S
C1519 H1533 0.958 . S
C1519 H1534 0.961 . S
C1519 H1535 0.960 . S
H1520 C1504 0.931 . S
H1521 C1509 0.929 . S
H1522 C1510 0.960 . S
H1523 C1510 0.962 . S
H1524 C1510 0.960 . S
H1525 C1511 0.961 . S
H1526 C1511 0.961 . S
H1527 C1511 0.961 . S
H1528 C1512 0.931 . S
H1529 C1517 0.930 . S
H1530 C1518 0.956 . S
H1531 C1518 0.961 . S
H1532 C1518 0.961 . S
H1533 C1519 0.958 . S
H1534 C1519 0.961 . S
H1535 C1519 0.960 . S
C1536 C1537 1.391 . S
C1536 C1538 1.394 . S
C1536 H1552 0.931 . S
C1537 C1536 1.391 . S
C1537 C1541 1.376 . S
C1538 C1536 1.394 . S
C1538 C1539 1.369 . S
C1538 C1542 1.531 . S
C1539 C1538 1.369 . S
C1539 C1540 1.410 . S
C1539 C1547 1.503 . S
C1540 C1539 1.410 . S
C1540 C1541 1.392 . S
C1540 C1543 1.511 . S
C1541 C1537 1.376 . S
C1541 C1540 1.392 . S
C1541 H1553 0.929 . S
C1542 C1538 1.531 . S
C1542 H1554 0.960 . S
C1542 H1555 0.962 . S
C1542 H1556 0.960 . S
C1543 C1540 1.511 . S
C1543 H1557 0.961 . S
C1543 H1558 0.961 . S
C1543 H1559 0.961 . S
C1544 C1545 1.370 . S
C1544 C1546 1.363 . S
C1544 H1560 0.931 . S
C1545 C1544 1.370 . S
C1545 C1549 1.408 . S
C1546 C1544 1.363 . S
C1546 C1547 1.370 . S
C1546 C1550 1.524 . S
C1547 C1539 1.503 . S
C1547 C1546 1.370 . S
C1547 C1548 1.403 . S
C1548 C1547 1.403 . S
C1548 C1549 1.404 . S
C1548 C1551 1.539 . S
C1549 C1545 1.408 . S
C1549 C1548 1.404 . S
C1549 H1561 0.930 . S
C1550 C1546 1.524 . S
C1550 H1562 0.956 . S
C1550 H1563 0.961 . S
C1550 H1564 0.961 . S
C1551 C1548 1.539 . S
C1551 H1565 0.958 . S
C1551 H1566 0.961 . S
C1551 H1567 0.960 . S
H1552 C1536 0.931 . S
H1553 C1541 0.929 . S
H1554 C1542 0.960 . S
H1555 C1542 0.962 . S
H1556 C1542 0.960 . S
H1557 C1543 0.961 . S
H1558 C1543 0.961 . S
H1559 C1543 0.961 . S
H1560 C1544 0.931 . S
H1561 C1549 0.930 . S
H1562 C1550 0.956 . S
H1563 C1550 0.961 . S
H1564 C1550 0.961 . S
H1565 C1551 0.958 . S
H1566 C1551 0.961 . S
H1567 C1551 0.960 . S
C1568 C1569 1.391 . S
C1568 C1570 1.394 . S
C1568 H1584 0.931 . S
C1569 C1568 1.391 . S
C1569 C1573 1.376 . S
C1570 C1568 1.394 . S
C1570 C1571 1.369 . S
C1570 C1574 1.531 . S
C1571 C1570 1.369 . S
C1571 C1572 1.410 . S
C1571 C1579 1.503 . S
C1572 C1571 1.410 . S
C1572 C1573 1.392 . S
C1572 C1575 1.511 . S
C1573 C1569 1.376 . S
C1573 C1572 1.392 . S
C1573 H1585 0.929 . S
C1574 C1570 1.531 . S
C1574 H1586 0.960 . S
C1574 H1587 0.962 . S
C1574 H1588 0.960 . S
C1575 C1572 1.511 . S
C1575 H1589 0.961 . S
C1575 H1590 0.961 . S
C1575 H1591 0.961 . S
C1576 C1577 1.370 . S
C1576 C1578 1.363 . S
C1576 H1592 0.931 . S
C1577 C1576 1.370 . S
C1577 C1581 1.408 . S
C1578 C1576 1.363 . S
C1578 C1579 1.370 . S
C1578 C1582 1.524 . S
C1579 C1571 1.503 . S
C1579 C1578 1.370 . S
C1579 C1580 1.403 . S
C1580 C1579 1.403 . S
C1580 C1581 1.404 . S
C1580 C1583 1.539 . S
C1581 C1577 1.408 . S
C1581 C1580 1.404 . S
C1581 H1593 0.930 . S
C1582 C1578 1.524 . S
C1582 H1594 0.956 . S
C1582 H1595 0.961 . S
C1582 H1596 0.961 . S
C1583 C1580 1.539 . S
C1583 H1597 0.958 . S
C1583 H1598 0.961 . S
C1583 H1599 0.960 . S
H1584 C1568 0.931 . S
H1585 C1573 0.929 . S
H1586 C1574 0.960 . S
H1587 C1574 0.962 . S
H1588 C1574 0.960 . S
H1589 C1575 0.961 . S
H1590 C1575 0.961 . S
H1591 C1575 0.961 . S
H1592 C1576 0.931 . S
H1593 C1581 0.930 . S
H1594 C1582 0.956 . S
H1595 C1582 0.961 . S
H1596 C1582 0.961 . S
H1597 C1583 0.958 . S
H1598 C1583 0.961 . S
H1599 C1583 0.960 . S
C1600 C1601 1.391 . S
C1600 C1602 1.394 . S
C1600 H1616 0.931 . S
C1601 C1600 1.391 . S
C1601 C1605 1.376 . S
C1602 C1600 1.394 . S
C1602 C1603 1.369 . S
C1602 C1606 1.531 . S
C1603 C1602 1.369 . S
C1603 C1604 1.410 . S
C1603 C1611 1.503 . S
C1604 C1603 1.410 . S
C1604 C1605 1.392 . S
C1604 C1607 1.511 . S
C1605 C1601 1.376 . S
C1605 C1604 1.392 . S
C1605 H1617 0.929 . S
C1606 C1602 1.531 . S
C1606 H1618 0.960 . S
C1606 H1619 0.962 . S
C1606 H1620 0.960 . S
C1607 C1604 1.511 . S
C1607 H1621 0.961 . S
C1607 H1622 0.961 . S
C1607 H1623 0.961 . S
C1608 C1609 1.370 . S
C1608 C1610 1.363 . S
C1608 H1624 0.931 . S
C1609 C1608 1.370 . S
C1609 C1613 1.408 . S
C1610 C1608 1.363 . S
C1610 C1611 1.370 . S
C1610 C1614 1.524 . S
C1611 C1603 1.503 . S
C1611 C1610 1.370 . S
C1611 C1612 1.403 . S
C1612 C1611 1.403 . S
C1612 C1613 1.404 . S
C1612 C1615 1.538 1_565 S
C1613 C1609 1.408 . S
C1613 C1612 1.404 . S
C1613 H1625 0.930 . S
C1614 C1610 1.524 . S
C1614 H1626 0.956 . S
C1614 H1627 0.961 . S
C1614 H1628 0.961 . S
C1615 C1612 1.538 1_545 S
C1615 H1629 0.958 . S
C1615 H1630 0.962 . S
C1615 H1631 0.959 1_545 S
H1616 C1600 0.931 . S
H1617 C1605 0.929 . S
H1618 C1606 0.960 . S
H1619 C1606 0.962 . S
H1620 C1606 0.960 . S
H1621 C1607 0.961 . S
H1622 C1607 0.961 . S
H1623 C1607 0.961 . S
H1624 C1608 0.931 . S
H1625 C1613 0.930 . S
H1626 C1614 0.956 . S
H1627 C1614 0.961 . S
H1628 C1614 0.961 . S
H1629 C1615 0.958 . S
H1630 C1615 0.962 . S
H1631 C1615 0.959 1_565 S
C1632 C1633 1.391 . S
C1632 C1634 1.394 . S
C1632 H1648 0.931 . S
C1633 C1632 1.391 . S
C1633 C1637 1.376 . S
C1634 C1632 1.394 . S
C1634 C1635 1.369 . S
C1634 C1638 1.531 . S
C1635 C1634 1.369 . S
C1635 C1636 1.410 . S
C1635 C1643 1.503 . S
C1636 C1635 1.410 . S
C1636 C1637 1.392 . S
C1636 C1639 1.511 . S
C1637 C1633 1.376 . S
C1637 C1636 1.392 . S
C1637 H1649 0.929 . S
C1638 C1634 1.531 . S
C1638 H1650 0.960 . S
C1638 H1651 0.962 . S
C1638 H1652 0.960 . S
C1639 C1636 1.511 . S
C1639 H1653 0.961 . S
C1639 H1654 0.961 . S
C1639 H1655 0.961 . S
C1640 C1641 1.370 . S
C1640 C1642 1.363 . S
C1640 H1656 0.931 . S
C1641 C1640 1.370 . S
C1641 C1645 1.408 . S
C1642 C1640 1.363 . S
C1642 C1643 1.370 . S
C1642 C1646 1.524 . S
C1643 C1635 1.503 . S
C1643 C1642 1.370 . S
C1643 C1644 1.403 . S
C1644 C1643 1.403 . S
C1644 C1645 1.404 . S
C1644 C1647 1.539 . S
C1645 C1641 1.408 . S
C1645 C1644 1.404 . S
C1645 H1657 0.930 . S
C1646 C1642 1.524 . S
C1646 H1658 0.956 . S
C1646 H1659 0.961 . S
C1646 H1660 0.961 . S
C1647 C1644 1.539 . S
C1647 H1661 0.958 . S
C1647 H1662 0.961 . S
C1647 H1663 0.960 . S
H1648 C1632 0.931 . S
H1649 C1637 0.929 . S
H1650 C1638 0.960 . S
H1651 C1638 0.962 . S
H1652 C1638 0.960 . S
H1653 C1639 0.961 . S
H1654 C1639 0.961 . S
H1655 C1639 0.961 . S
H1656 C1640 0.931 . S
H1657 C1645 0.930 . S
H1658 C1646 0.956 . S
H1659 C1646 0.961 . S
H1660 C1646 0.961 . S
H1661 C1647 0.958 . S
H1662 C1647 0.961 . S
H1663 C1647 0.960 . S
C1664 C1665 1.391 . S
C1664 C1666 1.394 . S
C1664 H1680 0.931 . S
C1665 C1664 1.391 . S
C1665 C1669 1.376 . S
C1666 C1664 1.394 . S
C1666 C1667 1.369 . S
C1666 C1670 1.531 . S
C1667 C1666 1.369 . S
C1667 C1668 1.410 . S
C1667 C1675 1.503 . S
C1668 C1667 1.410 . S
C1668 C1669 1.392 . S
C1668 C1671 1.511 . S
C1669 C1665 1.376 . S
C1669 C1668 1.392 . S
C1669 H1681 0.929 . S
C1670 C1666 1.531 . S
C1670 H1682 0.960 . S
C1670 H1683 0.962 . S
C1670 H1684 0.960 . S
C1671 C1668 1.511 . S
C1671 H1685 0.961 . S
C1671 H1686 0.961 . S
C1671 H1687 0.961 . S
C1672 C1673 1.370 . S
C1672 C1674 1.363 . S
C1672 H1688 0.931 . S
C1673 C1672 1.370 . S
C1673 C1677 1.408 . S
C1674 C1672 1.363 . S
C1674 C1675 1.370 . S
C1674 C1678 1.524 . S
C1675 C1667 1.503 . S
C1675 C1674 1.370 . S
C1675 C1676 1.403 . S
C1676 C1675 1.403 . S
C1676 C1677 1.404 . S
C1676 C1679 1.539 . S
C1677 C1673 1.408 . S
C1677 C1676 1.404 . S
C1677 H1689 0.930 . S
C1678 C1674 1.524 . S
C1678 H1690 0.956 . S
C1678 H1691 0.961 . S
C1678 H1692 0.961 . S
C1679 C1676 1.539 . S
C1679 H1693 0.958 1_545 S
C1679 H1694 0.961 1_545 S
C1679 H1695 0.960 . S
H1680 C1664 0.931 . S
H1681 C1669 0.929 . S
H1682 C1670 0.960 . S
H1683 C1670 0.962 . S
H1684 C1670 0.960 . S
H1685 C1671 0.961 . S
H1686 C1671 0.961 . S
H1687 C1671 0.961 . S
H1688 C1672 0.931 . S
H1689 C1677 0.930 . S
H1690 C1678 0.956 . S
H1691 C1678 0.961 . S
H1692 C1678 0.961 . S
H1693 C1679 0.958 1_565 S
H1694 C1679 0.961 1_565 S
H1695 C1679 0.960 . S
C1696 C1697 1.391 . S
C1696 C1698 1.394 . S
C1696 H1712 0.931 . S
C1697 C1696 1.391 . S
C1697 C1701 1.376 . S
C1698 C1696 1.394 . S
C1698 C1699 1.369 . S
C1698 C1702 1.531 . S
C1699 C1698 1.369 . S
C1699 C1700 1.410 . S
C1699 C1707 1.503 . S
C1700 C1699 1.410 . S
C1700 C1701 1.392 . S
C1700 C1703 1.511 . S
C1701 C1697 1.376 . S
C1701 C1700 1.392 . S
C1701 H1713 0.929 . S
C1702 C1698 1.531 . S
C1702 H1714 0.960 . S
C1702 H1715 0.962 . S
C1702 H1716 0.960 . S
C1703 C1700 1.511 . S
C1703 H1717 0.961 . S
C1703 H1718 0.961 . S
C1703 H1719 0.961 . S
C1704 C1705 1.370 . S
C1704 C1706 1.363 . S
C1704 H1720 0.931 . S
C1705 C1704 1.370 . S
C1705 C1709 1.408 . S
C1706 C1704 1.363 . S
C1706 C1707 1.370 . S
C1706 C1710 1.524 . S
C1707 C1699 1.503 . S
C1707 C1706 1.370 . S
C1707 C1708 1.403 . S
C1708 C1707 1.403 . S
C1708 C1709 1.404 . S
C1708 C1711 1.539 . S
C1709 C1705 1.408 . S
C1709 C1708 1.404 . S
C1709 H1721 0.930 . S
C1710 C1706 1.524 . S
C1710 H1722 0.956 . S
C1710 H1723 0.961 . S
C1710 H1724 0.961 . S
C1711 C1708 1.539 . S
C1711 H1725 0.958 . S
C1711 H1726 0.961 . S
C1711 H1727 0.960 . S
H1712 C1696 0.931 . S
H1713 C1701 0.929 . S
H1714 C1702 0.960 . S
H1715 C1702 0.962 . S
H1716 C1702 0.960 . S
H1717 C1703 0.961 . S
H1718 C1703 0.961 . S
H1719 C1703 0.961 . S
H1720 C1704 0.931 . S
H1721 C1709 0.930 . S
H1722 C1710 0.956 . S
H1723 C1710 0.961 . S
H1724 C1710 0.961 . S
H1725 C1711 0.958 . S
H1726 C1711 0.961 . S
H1727 C1711 0.960 . S
C1728 C1729 1.391 . S
C1728 C1730 1.394 . S
C1728 H1744 0.931 . S
C1729 C1728 1.391 . S
C1729 C1733 1.376 . S
C1730 C1728 1.394 . S
C1730 C1731 1.369 . S
C1730 C1734 1.531 . S
C1731 C1730 1.369 . S
C1731 C1732 1.410 . S
C1731 C1739 1.503 . S
C1732 C1731 1.410 . S
C1732 C1733 1.392 . S
C1732 C1735 1.511 . S
C1733 C1729 1.376 . S
C1733 C1732 1.392 . S
C1733 H1745 0.929 . S
C1734 C1730 1.531 . S
C1734 H1746 0.960 . S
C1734 H1747 0.962 . S
C1734 H1748 0.960 . S
C1735 C1732 1.511 . S
C1735 H1749 0.961 . S
C1735 H1750 0.961 . S
C1735 H1751 0.961 . S
C1736 C1737 1.370 . S
C1736 C1738 1.363 . S
C1736 H1752 0.931 . S
C1737 C1736 1.370 . S
C1737 C1741 1.408 . S
C1738 C1736 1.363 . S
C1738 C1739 1.370 . S
C1738 C1742 1.524 . S
C1739 C1731 1.503 . S
C1739 C1738 1.370 . S
C1739 C1740 1.403 . S
C1740 C1739 1.403 . S
C1740 C1741 1.404 . S
C1740 C1743 1.539 . S
C1741 C1737 1.408 . S
C1741 C1740 1.404 . S
C1741 H1753 0.930 . S
C1742 C1738 1.524 . S
C1742 H1754 0.956 . S
C1742 H1755 0.961 . S
C1742 H1756 0.961 . S
C1743 C1740 1.539 . S
C1743 H1757 0.958 . S
C1743 H1758 0.961 . S
C1743 H1759 0.960 . S
H1744 C1728 0.931 . S
H1745 C1733 0.929 . S
H1746 C1734 0.960 . S
H1747 C1734 0.962 . S
H1748 C1734 0.960 . S
H1749 C1735 0.961 . S
H1750 C1735 0.961 . S
H1751 C1735 0.961 . S
H1752 C1736 0.931 . S
H1753 C1741 0.930 . S
H1754 C1742 0.956 . S
H1755 C1742 0.961 . S
H1756 C1742 0.961 . S
H1757 C1743 0.958 . S
H1758 C1743 0.961 . S
H1759 C1743 0.960 . S
C1760 C1761 1.391 . S
C1760 C1762 1.394 . S
C1760 H1776 0.931 . S
C1761 C1760 1.391 . S
C1761 C1765 1.376 . S
C1762 C1760 1.394 . S
C1762 C1763 1.369 . S
C1762 C1766 1.531 . S
C1763 C1762 1.369 . S
C1763 C1764 1.410 . S
C1763 C1771 1.503 . S
C1764 C1763 1.410 . S
C1764 C1765 1.392 . S
C1764 C1767 1.511 . S
C1765 C1761 1.376 . S
C1765 C1764 1.392 . S
C1765 H1777 0.929 . S
C1766 C1762 1.531 . S
C1766 H1778 0.960 . S
C1766 H1779 0.962 . S
C1766 H1780 0.960 . S
C1767 C1764 1.511 . S
C1767 H1781 0.961 . S
C1767 H1782 0.961 . S
C1767 H1783 0.961 . S
C1768 C1769 1.370 . S
C1768 C1770 1.363 . S
C1768 H1784 0.931 . S
C1769 C1768 1.370 . S
C1769 C1773 1.408 . S
C1770 C1768 1.363 . S
C1770 C1771 1.370 . S
C1770 C1774 1.524 . S
C1771 C1763 1.503 . S
C1771 C1770 1.370 . S
C1771 C1772 1.403 . S
C1772 C1771 1.403 . S
C1772 C1773 1.404 . S
C1772 C1775 1.539 . S
C1773 C1769 1.408 . S
C1773 C1772 1.404 . S
C1773 H1785 0.930 . S
C1774 C1770 1.524 . S
C1774 H1786 0.956 . S
C1774 H1787 0.961 . S
C1774 H1788 0.961 . S
C1775 C1772 1.539 . S
C1775 H1789 0.958 . S
C1775 H1790 0.961 . S
C1775 H1791 0.960 . S
H1776 C1760 0.931 . S
H1777 C1765 0.929 . S
H1778 C1766 0.960 . S
H1779 C1766 0.962 . S
H1780 C1766 0.960 . S
H1781 C1767 0.961 . S
H1782 C1767 0.961 . S
H1783 C1767 0.961 . S
H1784 C1768 0.931 . S
H1785 C1773 0.930 . S
H1786 C1774 0.956 . S
H1787 C1774 0.961 . S
H1788 C1774 0.961 . S
H1789 C1775 0.958 . S
H1790 C1775 0.961 . S
H1791 C1775 0.960 . S
C1792 C1793 1.391 . S
C1792 C1794 1.394 . S
C1792 H1808 0.931 . S
C1793 C1792 1.391 . S
C1793 C1797 1.376 . S
C1794 C1792 1.394 . S
C1794 C1795 1.369 . S
C1794 C1798 1.531 . S
C1795 C1794 1.369 . S
C1795 C1796 1.410 . S
C1795 C1803 1.503 . S
C1796 C1795 1.410 . S
C1796 C1797 1.392 . S
C1796 C1799 1.511 . S
C1797 C1793 1.376 . S
C1797 C1796 1.392 . S
C1797 H1809 0.929 . S
C1798 C1794 1.531 . S
C1798 H1810 0.960 . S
C1798 H1811 0.962 . S
C1798 H1812 0.960 . S
C1799 C1796 1.511 . S
C1799 H1813 0.961 . S
C1799 H1814 0.961 . S
C1799 H1815 0.961 . S
C1800 C1801 1.370 . S
C1800 C1802 1.363 . S
C1800 H1816 0.931 . S
C1801 C1800 1.370 . S
C1801 C1805 1.408 . S
C1802 C1800 1.363 . S
C1802 C1803 1.370 . S
C1802 C1806 1.524 . S
C1803 C1795 1.503 . S
C1803 C1802 1.370 . S
C1803 C1804 1.403 . S
C1804 C1803 1.403 . S
C1804 C1805 1.404 . S
C1804 C1807 1.539 . S
C1805 C1801 1.408 . S
C1805 C1804 1.404 . S
C1805 H1817 0.930 . S
C1806 C1802 1.524 . S
C1806 H1818 0.956 . S
C1806 H1819 0.961 . S
C1806 H1820 0.961 . S
C1807 C1804 1.539 . S
C1807 H1821 0.958 . S
C1807 H1822 0.961 . S
C1807 H1823 0.960 . S
H1808 C1792 0.931 . S
H1809 C1797 0.929 . S
H1810 C1798 0.960 . S
H1811 C1798 0.962 . S
H1812 C1798 0.960 . S
H1813 C1799 0.961 . S
H1814 C1799 0.961 . S
H1815 C1799 0.961 . S
H1816 C1800 0.931 . S
H1817 C1805 0.930 . S
H1818 C1806 0.956 . S
H1819 C1806 0.961 . S
H1820 C1806 0.961 . S
H1821 C1807 0.958 . S
H1822 C1807 0.961 . S
H1823 C1807 0.960 . S
C1824 C1825 1.391 . S
C1824 C1826 1.394 . S
C1824 H1840 0.931 . S
C1825 C1824 1.391 . S
C1825 C1829 1.376 . S
C1826 C1824 1.394 . S
C1826 C1827 1.369 . S
C1826 C1830 1.531 . S
C1827 C1826 1.369 . S
C1827 C1828 1.410 . S
C1827 C1835 1.503 . S
C1828 C1827 1.410 . S
C1828 C1829 1.392 . S
C1828 C1831 1.511 . S
C1829 C1825 1.376 . S
C1829 C1828 1.392 . S
C1829 H1841 0.929 . S
C1830 C1826 1.531 . S
C1830 H1842 0.960 . S
C1830 H1843 0.962 . S
C1830 H1844 0.960 . S
C1831 C1828 1.511 . S
C1831 H1845 0.961 . S
C1831 H1846 0.961 . S
C1831 H1847 0.961 . S
C1832 C1833 1.370 . S
C1832 C1834 1.363 . S
C1832 H1848 0.931 . S
C1833 C1832 1.370 . S
C1833 C1837 1.408 . S
C1834 C1832 1.363 . S
C1834 C1835 1.370 . S
C1834 C1838 1.524 . S
C1835 C1827 1.503 . S
C1835 C1834 1.370 . S
C1835 C1836 1.403 . S
C1836 C1835 1.403 . S
C1836 C1837 1.404 . S
C1836 C1839 1.539 . S
C1837 C1833 1.408 . S
C1837 C1836 1.404 . S
C1837 H1849 0.930 . S
C1838 C1834 1.524 . S
C1838 H1850 0.956 . S
C1838 H1851 0.961 . S
C1838 H1852 0.961 . S
C1839 C1836 1.539 . S
C1839 H1853 0.958 . S
C1839 H1854 0.961 . S
C1839 H1855 0.960 . S
H1840 C1824 0.931 . S
H1841 C1829 0.929 . S
H1842 C1830 0.960 . S
H1843 C1830 0.962 . S
H1844 C1830 0.960 . S
H1845 C1831 0.961 . S
H1846 C1831 0.961 . S
H1847 C1831 0.961 . S
H1848 C1832 0.931 . S
H1849 C1837 0.930 . S
H1850 C1838 0.956 . S
H1851 C1838 0.961 . S
H1852 C1838 0.961 . S
H1853 C1839 0.958 . S
H1854 C1839 0.961 . S
H1855 C1839 0.960 . S
C1856 C1857 1.391 . S
C1856 C1858 1.394 . S
C1856 H1872 0.931 . S
C1857 C1856 1.391 . S
C1857 C1861 1.376 . S
C1858 C1856 1.394 . S
C1858 C1859 1.369 . S
C1858 C1862 1.531 . S
C1859 C1858 1.369 . S
C1859 C1860 1.410 . S
C1859 C1867 1.503 . S
C1860 C1859 1.410 . S
C1860 C1861 1.392 . S
C1860 C1863 1.511 . S
C1861 C1857 1.376 . S
C1861 C1860 1.392 . S
C1861 H1873 0.929 . S
C1862 C1858 1.531 . S
C1862 H1874 0.960 . S
C1862 H1875 0.962 . S
C1862 H1876 0.960 . S
C1863 C1860 1.511 . S
C1863 H1877 0.961 . S
C1863 H1878 0.961 . S
C1863 H1879 0.961 . S
C1864 C1865 1.370 . S
C1864 C1866 1.363 . S
C1864 H1880 0.931 . S
C1865 C1864 1.370 . S
C1865 C1869 1.408 . S
C1866 C1864 1.363 . S
C1866 C1867 1.370 . S
C1866 C1870 1.524 . S
C1867 C1859 1.503 . S
C1867 C1866 1.370 . S
C1867 C1868 1.403 . S
C1868 C1867 1.403 . S
C1868 C1869 1.404 . S
C1868 C1871 1.539 . S
C1869 C1865 1.408 . S
C1869 C1868 1.404 . S
C1869 H1881 0.930 . S
C1870 C1866 1.524 . S
C1870 H1882 0.956 . S
C1870 H1883 0.961 . S
C1870 H1884 0.961 . S
C1871 C1868 1.539 . S
C1871 H1885 0.958 . S
C1871 H1886 0.961 . S
C1871 H1887 0.960 . S
H1872 C1856 0.931 . S
H1873 C1861 0.929 . S
H1874 C1862 0.960 . S
H1875 C1862 0.962 . S
H1876 C1862 0.960 . S
H1877 C1863 0.961 . S
H1878 C1863 0.961 . S
H1879 C1863 0.961 . S
H1880 C1864 0.931 . S
H1881 C1869 0.930 . S
H1882 C1870 0.956 . S
H1883 C1870 0.961 . S
H1884 C1870 0.961 . S
H1885 C1871 0.958 . S
H1886 C1871 0.961 . S
H1887 C1871 0.960 . S
C1888 C1889 1.391 . S
C1888 C1890 1.394 . S
C1888 H1904 0.931 . S
C1889 C1888 1.391 . S
C1889 C1893 1.376 . S
C1890 C1888 1.394 . S
C1890 C1891 1.369 . S
C1890 C1894 1.531 . S
C1891 C1890 1.369 . S
C1891 C1892 1.410 . S
C1891 C1899 1.503 . S
C1892 C1891 1.410 . S
C1892 C1893 1.392 . S
C1892 C1895 1.511 . S
C1893 C1889 1.376 . S
C1893 C1892 1.392 . S
C1893 H1905 0.929 . S
C1894 C1890 1.531 . S
C1894 H1906 0.960 . S
C1894 H1907 0.962 . S
C1894 H1908 0.960 . S
C1895 C1892 1.511 . S
C1895 H1909 0.961 . S
C1895 H1910 0.961 . S
C1895 H1911 0.961 . S
C1896 C1897 1.370 . S
C1896 C1898 1.363 . S
C1896 H1912 0.931 . S
C1897 C1896 1.370 . S
C1897 C1901 1.408 . S
C1898 C1896 1.363 . S
C1898 C1899 1.370 . S
C1898 C1902 1.524 . S
C1899 C1891 1.503 . S
C1899 C1898 1.370 . S
C1899 C1900 1.403 . S
C1900 C1899 1.403 . S
C1900 C1901 1.404 . S
C1900 C1903 1.539 . S
C1901 C1897 1.408 . S
C1901 C1900 1.404 . S
C1901 H1913 0.930 . S
C1902 C1898 1.524 . S
C1902 H1914 0.956 . S
C1902 H1915 0.961 . S
C1902 H1916 0.961 . S
C1903 C1900 1.539 . S
C1903 H1917 0.958 . S
C1903 H1918 0.961 . S
C1903 H1919 0.960 . S
H1904 C1888 0.931 . S
H1905 C1893 0.929 . S
H1906 C1894 0.960 . S
H1907 C1894 0.962 . S
H1908 C1894 0.960 . S
H1909 C1895 0.961 . S
H1910 C1895 0.961 . S
H1911 C1895 0.961 . S
H1912 C1896 0.931 . S
H1913 C1901 0.930 . S
H1914 C1902 0.956 . S
H1915 C1902 0.961 . S
H1916 C1902 0.961 . S
H1917 C1903 0.958 . S
H1918 C1903 0.961 . S
H1919 C1903 0.960 . S
C1920 C1921 1.391 . S
C1920 C1922 1.394 . S
C1920 H1936 0.931 . S
C1921 C1920 1.391 . S
C1921 C1925 1.376 . S
C1922 C1920 1.394 . S
C1922 C1923 1.369 . S
C1922 C1926 1.531 . S
C1923 C1922 1.369 . S
C1923 C1924 1.410 . S
C1923 C1931 1.503 . S
C1924 C1923 1.410 . S
C1924 C1925 1.392 . S
C1924 C1927 1.511 . S
C1925 C1921 1.376 . S
C1925 C1924 1.392 . S
C1925 H1937 0.929 . S
C1926 C1922 1.531 . S
C1926 H1938 0.960 . S
C1926 H1939 0.962 . S
C1926 H1940 0.960 . S
C1927 C1924 1.511 . S
C1927 H1941 0.961 . S
C1927 H1942 0.961 . S
C1927 H1943 0.961 . S
C1928 C1929 1.370 . S
C1928 C1930 1.363 . S
C1928 H1944 0.931 . S
C1929 C1928 1.370 . S
C1929 C1933 1.408 . S
C1930 C1928 1.363 . S
C1930 C1931 1.370 . S
C1930 C1934 1.524 . S
C1931 C1923 1.503 . S
C1931 C1930 1.370 . S
C1931 C1932 1.403 . S
C1932 C1931 1.403 . S
C1932 C1933 1.404 . S
C1932 C1935 1.539 . S
C1933 C1929 1.408 . S
C1933 C1932 1.404 . S
C1933 H1945 0.930 . S
C1934 C1930 1.524 . S
C1934 H1946 0.956 . S
C1934 H1947 0.961 . S
C1934 H1948 0.961 . S
C1935 C1932 1.539 . S
C1935 H1949 0.958 . S
C1935 H1950 0.961 . S
C1935 H1951 0.960 . S
H1936 C1920 0.931 . S
H1937 C1925 0.929 . S
H1938 C1926 0.960 . S
H1939 C1926 0.962 . S
H1940 C1926 0.960 . S
H1941 C1927 0.961 . S
H1942 C1927 0.961 . S
H1943 C1927 0.961 . S
H1944 C1928 0.931 . S
H1945 C1933 0.930 . S
H1946 C1934 0.956 . S
H1947 C1934 0.961 . S
H1948 C1934 0.961 . S
H1949 C1935 0.958 . S
H1950 C1935 0.961 . S
H1951 C1935 0.960 . S
C1952 C1953 1.391 . S
C1952 C1954 1.394 . S
C1952 H1968 0.931 . S
C1953 C1952 1.391 . S
C1953 C1957 1.376 . S
C1954 C1952 1.394 . S
C1954 C1955 1.369 . S
C1954 C1958 1.531 . S
C1955 C1954 1.369 . S
C1955 C1956 1.410 . S
C1955 C1963 1.503 . S
C1956 C1955 1.410 . S
C1956 C1957 1.392 . S
C1956 C1959 1.511 . S
C1957 C1953 1.376 . S
C1957 C1956 1.392 . S
C1957 H1969 0.929 . S
C1958 C1954 1.531 . S
C1958 H1970 0.960 . S
C1958 H1971 0.962 . S
C1958 H1972 0.960 . S
C1959 C1956 1.511 . S
C1959 H1973 0.961 . S
C1959 H1974 0.961 . S
C1959 H1975 0.961 . S
C1960 C1961 1.370 . S
C1960 C1962 1.363 . S
C1960 H1976 0.931 . S
C1961 C1960 1.370 . S
C1961 C1965 1.408 . S
C1962 C1960 1.363 . S
C1962 C1963 1.370 . S
C1962 C1966 1.524 . S
C1963 C1955 1.503 . S
C1963 C1962 1.370 . S
C1963 C1964 1.403 . S
C1964 C1963 1.403 . S
C1964 C1965 1.404 . S
C1964 C1967 1.539 . S
C1965 C1961 1.408 . S
C1965 C1964 1.404 . S
C1965 H1977 0.930 . S
C1966 C1962 1.524 . S
C1966 H1978 0.956 . S
C1966 H1979 0.961 . S
C1966 H1980 0.961 . S
C1967 C1964 1.539 . S
C1967 H1981 0.958 . S
C1967 H1982 0.961 . S
C1967 H1983 0.960 . S
H1968 C1952 0.931 . S
H1969 C1957 0.929 . S
H1970 C1958 0.960 . S
H1971 C1958 0.962 . S
H1972 C1958 0.960 . S
H1973 C1959 0.961 . S
H1974 C1959 0.961 . S
H1975 C1959 0.961 . S
H1976 C1960 0.931 . S
H1977 C1965 0.930 . S
H1978 C1966 0.956 . S
H1979 C1966 0.961 . S
H1980 C1966 0.961 . S
H1981 C1967 0.958 . S
H1982 C1967 0.961 . S
H1983 C1967 0.960 . S
C1984 C1985 1.391 1_545 S
C1984 C1986 1.394 . S
C1984 H2000 0.931 . S
C1985 C1984 1.391 1_565 S
C1985 C1989 1.376 1_565 S
C1986 C1984 1.394 . S
C1986 C1987 1.369 . S
C1986 C1990 1.531 . S
C1987 C1986 1.369 . S
C1987 C1988 1.410 . S
C1987 C1995 1.503 . S
C1988 C1987 1.410 . S
C1988 C1989 1.392 . S
C1988 C1991 1.511 . S
C1989 C1985 1.376 1_545 S
C1989 C1988 1.392 . S
C1989 H2001 0.929 1_545 S
C1990 C1986 1.531 . S
C1990 H2002 0.960 . S
C1990 H2003 0.962 . S
C1990 H2004 0.960 . S
C1991 C1988 1.511 . S
C1991 H2005 0.961 . S
C1991 H2006 0.961 . S
C1991 H2007 0.961 . S
C1992 C1993 1.370 . S
C1992 C1994 1.363 . S
C1992 H2008 0.931 . S
C1993 C1992 1.370 . S
C1993 C1997 1.408 . S
C1994 C1992 1.363 . S
C1994 C1995 1.370 . S
C1994 C1998 1.524 . S
C1995 C1987 1.503 . S
C1995 C1994 1.370 . S
C1995 C1996 1.403 . S
C1996 C1995 1.403 . S
C1996 C1997 1.404 . S
C1996 C1999 1.539 . S
C1997 C1993 1.408 . S
C1997 C1996 1.404 . S
C1997 H2009 0.930 . S
C1998 C1994 1.524 . S
C1998 H2010 0.956 . S
C1998 H2011 0.961 . S
C1998 H2012 0.961 . S
C1999 C1996 1.539 . S
C1999 H2013 0.958 . S
C1999 H2014 0.961 . S
C1999 H2015 0.960 . S
H2000 C1984 0.931 . S
H2001 C1989 0.929 1_565 S
H2002 C1990 0.960 . S
H2003 C1990 0.962 . S
H2004 C1990 0.960 . S
H2005 C1991 0.961 . S
H2006 C1991 0.961 . S
H2007 C1991 0.961 . S
H2008 C1992 0.931 . S
H2009 C1997 0.930 . S
H2010 C1998 0.956 . S
H2011 C1998 0.961 . S
H2012 C1998 0.961 . S
H2013 C1999 0.958 . S
H2014 C1999 0.961 . S
H2015 C1999 0.960 . S
C2016 C2017 1.391 1_545 S
C2016 C2018 1.394 . S
C2016 H2032 0.931 . S
C2017 C2016 1.391 1_565 S
C2017 C2021 1.376 1_565 S
C2018 C2016 1.394 . S
C2018 C2019 1.369 . S
C2018 C2022 1.531 . S
C2019 C2018 1.369 . S
C2019 C2020 1.410 . S
C2019 C2027 1.503 . S
C2020 C2019 1.410 . S
C2020 C2021 1.392 . S
C2020 C2023 1.511 . S
C2021 C2017 1.376 1_545 S
C2021 C2020 1.392 . S
C2021 H2033 0.929 1_545 S
C2022 C2018 1.531 . S
C2022 H2034 0.960 . S
C2022 H2035 0.962 . S
C2022 H2036 0.960 . S
C2023 C2020 1.511 . S
C2023 H2037 0.961 . S
C2023 H2038 0.961 . S
C2023 H2039 0.961 . S
C2024 C2025 1.370 . S
C2024 C2026 1.363 . S
C2024 H2040 0.931 . S
C2025 C2024 1.370 . S
C2025 C2029 1.408 . S
C2026 C2024 1.363 . S
C2026 C2027 1.370 . S
C2026 C2030 1.524 . S
C2027 C2019 1.503 . S
C2027 C2026 1.370 . S
C2027 C2028 1.403 . S
C2028 C2027 1.403 . S
C2028 C2029 1.404 . S
C2028 C2031 1.539 . S
C2029 C2025 1.408 . S
C2029 C2028 1.404 . S
C2029 H2041 0.930 . S
C2030 C2026 1.524 . S
C2030 H2042 0.956 . S
C2030 H2043 0.961 . S
C2030 H2044 0.961 . S
C2031 C2028 1.539 . S
C2031 H2045 0.958 . S
C2031 H2046 0.961 . S
C2031 H2047 0.960 . S
H2032 C2016 0.931 . S
H2033 C2021 0.929 1_565 S
H2034 C2022 0.960 . S
H2035 C2022 0.962 . S
H2036 C2022 0.960 . S
H2037 C2023 0.961 . S
H2038 C2023 0.961 . S
H2039 C2023 0.961 . S
H2040 C2024 0.931 . S
H2041 C2029 0.930 . S
H2042 C2030 0.956 . S
H2043 C2030 0.961 . S
H2044 C2030 0.961 . S
H2045 C2031 0.958 . S
H2046 C2031 0.961 . S
H2047 C2031 0.960 . S
C2048 C2049 1.391 . S
C2048 C2050 1.394 . S
C2048 H2064 0.931 . S
C2049 C2048 1.391 . S
C2049 C2053 1.376 . S
C2050 C2048 1.394 . S
C2050 C2051 1.369 . S
C2050 C2054 1.531 . S
C2051 C2050 1.369 . S
C2051 C2052 1.410 . S
C2051 C2059 1.503 . S
C2052 C2051 1.410 . S
C2052 C2053 1.392 . S
C2052 C2055 1.511 . S
C2053 C2049 1.376 . S
C2053 C2052 1.392 . S
C2053 H2065 0.929 . S
C2054 C2050 1.531 . S
C2054 H2066 0.960 . S
C2054 H2067 0.962 . S
C2054 H2068 0.960 . S
C2055 C2052 1.511 . S
C2055 H2069 0.961 . S
C2055 H2070 0.961 . S
C2055 H2071 0.961 . S
C2056 C2057 1.370 1_565 S
C2056 C2058 1.363 . S
C2056 H2072 0.931 . S
C2057 C2056 1.370 1_545 S
C2057 C2061 1.408 1_545 S
C2058 C2056 1.363 . S
C2058 C2059 1.370 . S
C2058 C2062 1.524 . S
C2059 C2051 1.503 . S
C2059 C2058 1.370 . S
C2059 C2060 1.403 . S
C2060 C2059 1.403 . S
C2060 C2061 1.404 . S
C2060 C2063 1.539 . S
C2061 C2057 1.408 1_565 S
C2061 C2060 1.404 . S
C2061 H2073 0.930 1_565 S
C2062 C2058 1.524 . S
C2062 H2074 0.956 . S
C2062 H2075 0.961 . S
C2062 H2076 0.961 . S
C2063 C2060 1.539 . S
C2063 H2077 0.958 . S
C2063 H2078 0.961 . S
C2063 H2079 0.960 . S
H2064 C2048 0.931 . S
H2065 C2053 0.929 . S
H2066 C2054 0.960 . S
H2067 C2054 0.962 . S
H2068 C2054 0.960 . S
H2069 C2055 0.961 . S
H2070 C2055 0.961 . S
H2071 C2055 0.961 . S
H2072 C2056 0.931 . S
H2073 C2061 0.930 1_545 S
H2074 C2062 0.956 . S
H2075 C2062 0.961 . S
H2076 C2062 0.961 . S
H2077 C2063 0.958 . S
H2078 C2063 0.961 . S
H2079 C2063 0.960 . S
C2080 C2081 1.391 1_565 S
C2080 C2082 1.394 . S
C2080 H2096 0.931 . S
C2081 C2080 1.391 1_545 S
C2081 C2085 1.376 1_545 S
C2082 C2080 1.394 . S
C2082 C2083 1.369 . S
C2082 C2086 1.531 . S
C2083 C2082 1.369 . S
C2083 C2084 1.410 . S
C2083 C2091 1.503 . S
C2084 C2083 1.410 . S
C2084 C2085 1.392 . S
C2084 C2087 1.511 . S
C2085 C2081 1.376 1_565 S
C2085 C2084 1.392 . S
C2085 H2097 0.917 1_565 S
C2086 C2082 1.531 . S
C2086 H2098 0.960 . S
C2086 H2099 0.962 . S
C2086 H2100 0.960 . S
C2087 C2084 1.511 . S
C2087 H2101 0.961 . S
C2087 H2102 0.961 . S
C2087 H2103 0.961 . S
C2088 C2089 1.370 . S
C2088 C2090 1.363 . S
C2088 H2104 0.931 . S
C2089 C2088 1.370 . S
C2089 C2093 1.408 . S
C2090 C2088 1.363 . S
C2090 C2091 1.370 . S
C2090 C2094 1.524 . S
C2091 C2083 1.503 . S
C2091 C2090 1.370 . S
C2091 C2092 1.403 . S
C2092 C2091 1.403 . S
C2092 C2093 1.404 . S
C2092 C2095 1.539 . S
C2093 C2089 1.408 . S
C2093 C2092 1.404 . S
C2093 H2105 0.930 . S
C2094 C2090 1.524 . S
C2094 H2106 0.956 . S
C2094 H2107 0.961 . S
C2094 H2108 0.961 . S
C2095 C2092 1.539 . S
C2095 H2109 0.958 . S
C2095 H2110 0.961 . S
C2095 H2111 0.960 . S
H2096 C2080 0.931 . S
H2097 C2085 0.917 1_545 S
H2098 C2086 0.960 . S
H2099 C2086 0.962 . S
H2100 C2086 0.960 . S
H2101 C2087 0.961 . S
H2102 C2087 0.961 . S
H2103 C2087 0.961 . S
H2104 C2088 0.931 . S
H2105 C2093 0.930 . S
H2106 C2094 0.956 . S
H2107 C2094 0.961 . S
H2108 C2094 0.961 . S
H2109 C2095 0.958 . S
H2110 C2095 0.961 . S
H2111 C2095 0.960 . S
C2112 C2113 1.391 . S
C2112 C2114 1.394 . S
C2112 H2128 0.931 . S
C2113 C2112 1.391 . S
C2113 C2117 1.376 . S
C2114 C2112 1.394 . S
C2114 C2115 1.369 . S
C2114 C2118 1.531 . S
C2115 C2114 1.369 . S
C2115 C2116 1.410 . S
C2115 C2123 1.503 . S
C2116 C2115 1.410 . S
C2116 C2117 1.392 . S
C2116 C2119 1.511 . S
C2117 C2113 1.376 . S
C2117 C2116 1.392 . S
C2117 H2129 0.929 . S
C2118 C2114 1.531 . S
C2118 H2130 0.960 . S
C2118 H2131 0.962 . S
C2118 H2132 0.960 . S
C2119 C2116 1.511 . S
C2119 H2133 0.961 . S
C2119 H2134 0.961 . S
C2119 H2135 0.961 . S
C2120 C2121 1.370 . S
C2120 C2122 1.363 . S
C2120 H2136 0.931 . S
C2121 C2120 1.370 . S
C2121 C2125 1.408 . S
C2122 C2120 1.363 . S
C2122 C2123 1.370 . S
C2122 C2126 1.524 . S
C2123 C2115 1.503 . S
C2123 C2122 1.370 . S
C2123 C2124 1.403 . S
C2124 C2123 1.403 . S
C2124 C2125 1.404 . S
C2124 C2127 1.539 . S
C2125 C2121 1.408 . S
C2125 C2124 1.404 . S
C2125 H2137 0.930 . S
C2126 C2122 1.524 . S
C2126 H2138 0.956 . S
C2126 H2139 0.961 . S
C2126 H2140 0.961 . S
C2127 C2124 1.539 . S
C2127 H2141 0.958 . S
C2127 H2142 0.961 . S
C2127 H2143 0.960 . S
H2128 C2112 0.931 . S
H2129 C2117 0.929 . S
H2130 C2118 0.960 . S
H2131 C2118 0.962 . S
H2132 C2118 0.960 . S
H2133 C2119 0.961 . S
H2134 C2119 0.961 . S
H2135 C2119 0.961 . S
H2136 C2120 0.931 . S
H2137 C2125 0.930 . S
H2138 C2126 0.956 . S
H2139 C2126 0.961 . S
H2140 C2126 0.961 . S
H2141 C2127 0.958 . S
H2142 C2127 0.961 . S
H2143 C2127 0.960 . S
C2144 C2145 1.391 . S
C2144 C2146 1.394 . S
C2144 H2160 0.931 . S
C2145 C2144 1.391 . S
C2145 C2149 1.376 . S
C2146 C2144 1.394 . S
C2146 C2147 1.369 . S
C2146 C2150 1.531 . S
C2147 C2146 1.369 . S
C2147 C2148 1.410 . S
C2147 C2155 1.503 . S
C2148 C2147 1.410 . S
C2148 C2149 1.392 . S
C2148 C2151 1.511 . S
C2149 C2145 1.376 . S
C2149 C2148 1.392 . S
C2149 H2161 0.929 . S
C2150 C2146 1.531 . S
C2150 H2162 0.960 . S
C2150 H2163 0.962 . S
C2150 H2164 0.960 . S
C2151 C2148 1.511 . S
C2151 H2165 0.961 . S
C2151 H2166 0.961 . S
C2151 H2167 0.961 . S
C2152 C2153 1.370 . S
C2152 C2154 1.363 . S
C2152 H2168 0.931 . S
C2153 C2152 1.370 . S
C2153 C2157 1.408 . S
C2154 C2152 1.363 . S
C2154 C2155 1.370 . S
C2154 C2158 1.524 . S
C2155 C2147 1.503 . S
C2155 C2154 1.370 . S
C2155 C2156 1.403 . S
C2156 C2155 1.403 . S
C2156 C2157 1.404 . S
C2156 C2159 1.539 . S
C2157 C2153 1.408 . S
C2157 C2156 1.404 . S
C2157 H2169 0.930 . S
C2158 C2154 1.524 . S
C2158 H2170 0.956 . S
C2158 H2171 0.961 . S
C2158 H2172 0.961 . S
C2159 C2156 1.539 . S
C2159 H2173 0.958 . S
C2159 H2174 0.961 . S
C2159 H2175 0.960 . S
H2160 C2144 0.931 . S
H2161 C2149 0.929 . S
H2162 C2150 0.960 . S
H2163 C2150 0.962 . S
H2164 C2150 0.960 . S
H2165 C2151 0.961 . S
H2166 C2151 0.961 . S
H2167 C2151 0.961 . S
H2168 C2152 0.931 . S
H2169 C2157 0.930 . S
H2170 C2158 0.956 . S
H2171 C2158 0.961 . S
H2172 C2158 0.961 . S
H2173 C2159 0.958 . S
H2174 C2159 0.961 . S
H2175 C2159 0.960 . S
C2176 C2177 1.391 . S
C2176 C2178 1.394 . S
C2176 H2192 0.931 . S
C2177 C2176 1.391 . S
C2177 C2181 1.376 . S
C2178 C2176 1.394 . S
C2178 C2179 1.369 . S
C2178 C2182 1.531 . S
C2179 C2178 1.369 . S
C2179 C2180 1.410 . S
C2179 C2187 1.503 . S
C2180 C2179 1.410 . S
C2180 C2181 1.392 . S
C2180 C2183 1.511 . S
C2181 C2177 1.376 . S
C2181 C2180 1.392 . S
C2181 H2193 0.929 . S
C2182 C2178 1.531 . S
C2182 H2194 0.960 . S
C2182 H2195 0.962 . S
C2182 H2196 0.960 . S
C2183 C2180 1.511 . S
C2183 H2197 0.961 . S
C2183 H2198 0.961 . S
C2183 H2199 0.961 . S
C2184 C2185 1.370 . S
C2184 C2186 1.363 . S
C2184 H2200 0.931 . S
C2185 C2184 1.370 . S
C2185 C2189 1.408 . S
C2186 C2184 1.363 . S
C2186 C2187 1.370 . S
C2186 C2190 1.524 . S
C2187 C2179 1.503 . S
C2187 C2186 1.370 . S
C2187 C2188 1.403 . S
C2188 C2187 1.403 . S
C2188 C2189 1.404 . S
C2188 C2191 1.539 . S
C2189 C2185 1.408 . S
C2189 C2188 1.404 . S
C2189 H2201 0.930 . S
C2190 C2186 1.524 . S
C2190 H2202 0.956 . S
C2190 H2203 0.961 . S
C2190 H2204 0.961 . S
C2191 C2188 1.539 . S
C2191 H2205 0.958 . S
C2191 H2206 0.961 . S
C2191 H2207 0.960 . S
H2192 C2176 0.931 . S
H2193 C2181 0.929 . S
H2194 C2182 0.960 . S
H2195 C2182 0.962 . S
H2196 C2182 0.960 . S
H2197 C2183 0.961 . S
H2198 C2183 0.961 . S
H2199 C2183 0.961 . S
H2200 C2184 0.931 . S
H2201 C2189 0.930 . S
H2202 C2190 0.956 . S
H2203 C2190 0.961 . S
H2204 C2190 0.961 . S
H2205 C2191 0.958 . S
H2206 C2191 0.961 . S
H2207 C2191 0.960 . S
C2208 C2209 1.391 . S
C2208 C2210 1.394 . S
C2208 H2224 0.931 . S
C2209 C2208 1.391 . S
C2209 C2213 1.376 . S
C2210 C2208 1.394 . S
C2210 C2211 1.369 . S
C2210 C2214 1.531 . S
C2211 C2210 1.369 . S
C2211 C2212 1.410 . S
C2211 C2219 1.503 . S
C2212 C2211 1.410 . S
C2212 C2213 1.392 . S
C2212 C2215 1.511 . S
C2213 C2209 1.376 . S
C2213 C2212 1.392 . S
C2213 H2225 0.929 . S
C2214 C2210 1.531 . S
C2214 H2226 0.960 . S
C2214 H2227 0.962 . S
C2214 H2228 0.960 . S
C2215 C2212 1.511 . S
C2215 H2229 0.961 . S
C2215 H2230 0.961 . S
C2215 H2231 0.961 . S
C2216 C2217 1.370 . S
C2216 C2218 1.363 . S
C2216 H2232 0.931 . S
C2217 C2216 1.370 . S
C2217 C2221 1.408 . S
C2218 C2216 1.363 . S
C2218 C2219 1.370 . S
C2218 C2222 1.524 . S
C2219 C2211 1.503 . S
C2219 C2218 1.370 . S
C2219 C2220 1.403 . S
C2220 C2219 1.403 . S
C2220 C2221 1.404 . S
C2220 C2223 1.539 . S
C2221 C2217 1.408 . S
C2221 C2220 1.404 . S
C2221 H2233 0.930 . S
C2222 C2218 1.524 . S
C2222 H2234 0.956 . S
C2222 H2235 0.961 . S
C2222 H2236 0.961 . S
C2223 C2220 1.539 . S
C2223 H2237 0.958 . S
C2223 H2238 0.961 . S
C2223 H2239 0.960 . S
H2224 C2208 0.931 . S
H2225 C2213 0.929 . S
H2226 C2214 0.960 . S
H2227 C2214 0.962 . S
H2228 C2214 0.960 . S
H2229 C2215 0.961 . S
H2230 C2215 0.961 . S
H2231 C2215 0.961 . S
H2232 C2216 0.931 . S
H2233 C2221 0.930 . S
H2234 C2222 0.956 . S
H2235 C2222 0.961 . S
H2236 C2222 0.961 . S
H2237 C2223 0.958 . S
H2238 C2223 0.961 . S
H2239 C2223 0.960 . S
C2240 C2241 1.391 1_545 S
C2240 C2242 1.394 . S
C2240 H2256 0.931 1_545 S
C2241 C2240 1.391 1_565 S
C2241 C2245 1.376 1_565 S
C2242 C2240 1.394 . S
C2242 C2243 1.369 . S
C2242 C2246 1.531 . S
C2243 C2242 1.369 . S
C2243 C2244 1.410 . S
C2243 C2251 1.503 . S
C2244 C2243 1.410 . S
C2244 C2245 1.392 . S
C2244 C2247 1.511 . S
C2245 C2241 1.376 1_545 S
C2245 C2244 1.392 . S
C2245 H2257 0.929 . S
C2246 C2242 1.531 . S
C2246 H2258 0.960 . S
C2246 H2259 0.962 . S
C2246 H2260 0.960 . S
C2247 C2244 1.511 . S
C2247 H2261 0.961 . S
C2247 H2262 0.961 . S
C2247 H2263 0.961 . S
C2248 C2249 1.370 . S
C2248 C2250 1.363 . S
C2248 H2264 0.931 . S
C2249 C2248 1.370 . S
C2249 C2253 1.408 . S
C2250 C2248 1.363 . S
C2250 C2251 1.370 . S
C2250 C2254 1.524 . S
C2251 C2243 1.503 . S
C2251 C2250 1.370 . S
C2251 C2252 1.403 . S
C2252 C2251 1.403 . S
C2252 C2253 1.404 . S
C2252 C2255 1.539 . S
C2253 C2249 1.408 . S
C2253 C2252 1.404 . S
C2253 H2265 0.930 . S
C2254 C2250 1.524 . S
C2254 H2266 0.956 . S
C2254 H2267 0.961 . S
C2254 H2268 0.961 . S
C2255 C2252 1.539 . S
C2255 H2269 0.958 . S
C2255 H2270 0.961 . S
C2255 H2271 0.960 . S
H2256 C2240 0.931 1_565 S
H2257 C2245 0.929 . S
H2258 C2246 0.960 . S
H2259 C2246 0.962 . S
H2260 C2246 0.960 . S
H2261 C2247 0.961 . S
H2262 C2247 0.961 . S
H2263 C2247 0.961 . S
H2264 C2248 0.931 . S
H2265 C2253 0.930 . S
H2266 C2254 0.956 . S
H2267 C2254 0.961 . S
H2268 C2254 0.961 . S
H2269 C2255 0.958 . S
H2270 C2255 0.961 . S
H2271 C2255 0.960 . S
C2272 C2273 1.391 . S
C2272 C2274 1.394 . S
C2272 H2288 0.931 . S
C2273 C2272 1.391 . S
C2273 C2277 1.376 . S
C2274 C2272 1.394 . S
C2274 C2275 1.369 . S
C2274 C2278 1.531 . S
C2275 C2274 1.369 . S
C2275 C2276 1.410 . S
C2275 C2283 1.503 . S
C2276 C2275 1.410 . S
C2276 C2277 1.392 . S
C2276 C2279 1.511 . S
C2277 C2273 1.376 . S
C2277 C2276 1.392 . S
C2277 H2289 0.929 . S
C2278 C2274 1.531 . S
C2278 H2290 0.960 . S
C2278 H2291 0.962 . S
C2278 H2292 0.960 . S
C2279 C2276 1.511 . S
C2279 H2293 0.961 . S
C2279 H2294 0.961 . S
C2279 H2295 0.961 . S
C2280 C2281 1.370 1_545 S
C2280 C2282 1.363 . S
C2280 H2296 0.931 . S
C2281 C2280 1.370 1_565 S
C2281 C2285 1.408 1_565 S
C2282 C2280 1.363 . S
C2282 C2283 1.370 . S
C2282 C2286 1.524 . S
C2283 C2275 1.503 . S
C2283 C2282 1.370 . S
C2283 C2284 1.403 . S
C2284 C2283 1.403 . S
C2284 C2285 1.404 . S
C2284 C2287 1.539 . S
C2285 C2281 1.408 1_545 S
C2285 C2284 1.404 . S
C2285 H2297 0.930 1_545 S
C2286 C2282 1.524 . S
C2286 H2298 0.956 . S
C2286 H2299 0.961 . S
C2286 H2300 0.961 . S
C2287 C2284 1.539 . S
C2287 H2301 0.958 . S
C2287 H2302 0.961 . S
C2287 H2303 0.960 . S
H2288 C2272 0.931 . S
H2289 C2277 0.929 . S
H2290 C2278 0.960 . S
H2291 C2278 0.962 . S
H2292 C2278 0.960 . S
H2293 C2279 0.961 . S
H2294 C2279 0.961 . S
H2295 C2279 0.961 . S
H2296 C2280 0.931 . S
H2297 C2285 0.930 1_565 S
H2298 C2286 0.956 . S
H2299 C2286 0.961 . S
H2300 C2286 0.961 . S
H2301 C2287 0.958 . S
H2302 C2287 0.961 . S
H2303 C2287 0.960 . S
C2304 C2305 1.391 . S
C2304 C2306 1.394 . S
C2304 H2320 0.931 . S
C2305 C2304 1.391 . S
C2305 C2309 1.376 . S
C2306 C2304 1.394 . S
C2306 C2307 1.369 . S
C2306 C2310 1.531 . S
C2307 C2306 1.369 . S
C2307 C2308 1.410 . S
C2307 C2315 1.503 . S
C2308 C2307 1.410 . S
C2308 C2309 1.392 . S
C2308 C2311 1.511 . S
C2309 C2305 1.376 . S
C2309 C2308 1.392 . S
C2309 H2321 0.929 . S
C2310 C2306 1.531 . S
C2310 H2322 0.960 . S
C2310 H2323 0.962 . S
C2310 H2324 0.960 . S
C2311 C2308 1.511 . S
C2311 H2325 0.961 . S
C2311 H2326 0.961 . S
C2311 H2327 0.961 . S
C2312 C2313 1.370 1_565 S
C2312 C2314 1.363 . S
C2312 H2328 0.931 . S
C2313 C2312 1.370 1_545 S
C2313 C2317 1.408 1_545 S
C2314 C2312 1.363 . S
C2314 C2315 1.370 . S
C2314 C2318 1.524 . S
C2315 C2307 1.503 . S
C2315 C2314 1.370 . S
C2315 C2316 1.403 . S
C2316 C2315 1.403 . S
C2316 C2317 1.404 . S
C2316 C2319 1.539 . S
C2317 C2313 1.408 1_565 S
C2317 C2316 1.404 . S
C2317 H2329 0.930 1_565 S
C2318 C2314 1.524 . S
C2318 H2330 0.956 . S
C2318 H2331 0.961 . S
C2318 H2332 0.961 . S
C2319 C2316 1.539 . S
C2319 H2333 0.958 . S
C2319 H2334 0.961 . S
C2319 H2335 0.960 . S
H2320 C2304 0.931 . S
H2321 C2309 0.929 . S
H2322 C2310 0.960 . S
H2323 C2310 0.962 . S
H2324 C2310 0.960 . S
H2325 C2311 0.961 . S
H2326 C2311 0.961 . S
H2327 C2311 0.961 . S
H2328 C2312 0.931 . S
H2329 C2317 0.930 1_545 S
H2330 C2318 0.956 . S
H2331 C2318 0.961 . S
H2332 C2318 0.961 . S
H2333 C2319 0.958 . S
H2334 C2319 0.961 . S
H2335 C2319 0.960 . S
C2336 C2337 1.391 . S
C2336 C2338 1.394 . S
C2336 H2352 0.931 . S
C2337 C2336 1.391 . S
C2337 C2341 1.376 . S
C2338 C2336 1.394 . S
C2338 C2339 1.369 . S
C2338 C2342 1.531 . S
C2339 C2338 1.369 . S
C2339 C2340 1.410 . S
C2339 C2347 1.503 . S
C2340 C2339 1.410 . S
C2340 C2341 1.392 . S
C2340 C2343 1.511 . S
C2341 C2337 1.376 . S
C2341 C2340 1.392 . S
C2341 H2353 0.929 . S
C2342 C2338 1.531 . S
C2342 H2354 0.960 . S
C2342 H2355 0.962 . S
C2342 H2356 0.960 . S
C2343 C2340 1.511 . S
C2343 H2357 0.961 . S
C2343 H2358 0.961 . S
C2343 H2359 0.961 . S
C2344 C2345 1.370 1_565 S
C2344 C2346 1.363 . S
C2344 H2360 0.931 . S
C2345 C2344 1.370 1_545 S
C2345 C2349 1.408 1_545 S
C2346 C2344 1.363 . S
C2346 C2347 1.370 . S
C2346 C2350 1.524 . S
C2347 C2339 1.503 . S
C2347 C2346 1.370 . S
C2347 C2348 1.403 . S
C2348 C2347 1.403 . S
C2348 C2349 1.404 . S
C2348 C2351 1.539 . S
C2349 C2345 1.408 1_565 S
C2349 C2348 1.404 . S
C2349 H2361 0.930 1_565 S
C2350 C2346 1.524 . S
C2350 H2362 0.956 . S
C2350 H2363 0.961 . S
C2350 H2364 0.961 . S
C2351 C2348 1.539 . S
C2351 H2365 0.958 . S
C2351 H2366 0.961 . S
C2351 H2367 0.960 . S
H2352 C2336 0.931 . S
H2353 C2341 0.929 . S
H2354 C2342 0.960 . S
H2355 C2342 0.962 . S
H2356 C2342 0.960 . S
H2357 C2343 0.961 . S
H2358 C2343 0.961 . S
H2359 C2343 0.961 . S
H2360 C2344 0.931 . S
H2361 C2349 0.930 1_545 S
H2362 C2350 0.956 . S
H2363 C2350 0.961 . S
H2364 C2350 0.961 . S
H2365 C2351 0.958 . S
H2366 C2351 0.961 . S
H2367 C2351 0.960 . S
C2368 C2369 1.391 . S
C2368 C2370 1.394 . S
C2368 H2384 0.931 . S
C2369 C2368 1.391 . S
C2369 C2373 1.376 . S
C2370 C2368 1.394 . S
C2370 C2371 1.369 . S
C2370 C2374 1.531 . S
C2371 C2370 1.369 . S
C2371 C2372 1.410 . S
C2371 C2379 1.503 . S
C2372 C2371 1.410 . S
C2372 C2373 1.392 . S
C2372 C2375 1.511 . S
C2373 C2369 1.376 . S
C2373 C2372 1.392 . S
C2373 H2385 0.929 . S
C2374 C2370 1.531 . S
C2374 H2386 0.960 . S
C2374 H2387 0.962 . S
C2374 H2388 0.960 . S
C2375 C2372 1.511 . S
C2375 H2389 0.961 . S
C2375 H2390 0.961 . S
C2375 H2391 0.961 . S
C2376 C2377 1.370 . S
C2376 C2378 1.363 . S
C2376 H2392 0.931 . S
C2377 C2376 1.370 . S
C2377 C2381 1.408 . S
C2378 C2376 1.363 . S
C2378 C2379 1.370 . S
C2378 C2382 1.524 . S
C2379 C2371 1.503 . S
C2379 C2378 1.370 . S
C2379 C2380 1.403 . S
C2380 C2379 1.403 . S
C2380 C2381 1.404 . S
C2380 C2383 1.539 . S
C2381 C2377 1.408 . S
C2381 C2380 1.404 . S
C2381 H2393 0.930 . S
C2382 C2378 1.524 . S
C2382 H2394 0.956 . S
C2382 H2395 0.961 . S
C2382 H2396 0.961 . S
C2383 C2380 1.539 . S
C2383 H2397 0.958 . S
C2383 H2398 0.961 . S
C2383 H2399 0.960 . S
H2384 C2368 0.931 . S
H2385 C2373 0.929 . S
H2386 C2374 0.960 . S
H2387 C2374 0.962 . S
H2388 C2374 0.960 . S
H2389 C2375 0.961 . S
H2390 C2375 0.961 . S
H2391 C2375 0.961 . S
H2392 C2376 0.931 . S
H2393 C2381 0.930 . S
H2394 C2382 0.956 . S
H2395 C2382 0.961 . S
H2396 C2382 0.961 . S
H2397 C2383 0.958 . S
H2398 C2383 0.961 . S
H2399 C2383 0.960 . S
C2400 C2401 1.391 . S
C2400 C2402 1.394 . S
C2400 H2416 0.931 . S
C2401 C2400 1.391 . S
C2401 C2405 1.376 . S
C2402 C2400 1.394 . S
C2402 C2403 1.369 . S
C2402 C2406 1.531 . S
C2403 C2402 1.369 . S
C2403 C2404 1.410 . S
C2403 C2411 1.503 . S
C2404 C2403 1.410 . S
C2404 C2405 1.392 . S
C2404 C2407 1.511 . S
C2405 C2401 1.376 . S
C2405 C2404 1.392 . S
C2405 H2417 0.929 . S
C2406 C2402 1.531 . S
C2406 H2418 0.960 . S
C2406 H2419 0.962 . S
C2406 H2420 0.960 . S
C2407 C2404 1.511 . S
C2407 H2421 0.961 . S
C2407 H2422 0.961 . S
C2407 H2423 0.961 . S
C2408 C2409 1.370 . S
C2408 C2410 1.363 . S
C2408 H2424 0.931 . S
C2409 C2408 1.370 . S
C2409 C2413 1.408 . S
C2410 C2408 1.363 . S
C2410 C2411 1.370 . S
C2410 C2414 1.524 . S
C2411 C2403 1.503 . S
C2411 C2410 1.370 . S
C2411 C2412 1.403 . S
C2412 C2411 1.403 . S
C2412 C2413 1.404 . S
C2412 C2415 1.539 . S
C2413 C2409 1.408 . S
C2413 C2412 1.404 . S
C2413 H2425 0.930 . S
C2414 C2410 1.524 . S
C2414 H2426 0.956 . S
C2414 H2427 0.961 . S
C2414 H2428 0.961 . S
C2415 C2412 1.539 . S
C2415 H2429 0.958 . S
C2415 H2430 0.961 . S
C2415 H2431 0.960 . S
H2416 C2400 0.931 . S
H2417 C2405 0.929 . S
H2418 C2406 0.960 . S
H2419 C2406 0.962 . S
H2420 C2406 0.960 . S
H2421 C2407 0.961 . S
H2422 C2407 0.961 . S
H2423 C2407 0.961 . S
H2424 C2408 0.931 . S
H2425 C2413 0.930 . S
H2426 C2414 0.956 . S
H2427 C2414 0.961 . S
H2428 C2414 0.961 . S
H2429 C2415 0.958 . S
H2430 C2415 0.961 . S
H2431 C2415 0.960 . S
C2432 C2433 1.391 . S
C2432 C2434 1.394 . S
C2432 H2448 0.931 . S
C2433 C2432 1.391 . S
C2433 C2437 1.376 . S
C2434 C2432 1.394 . S
C2434 C2435 1.369 . S
C2434 C2438 1.531 . S
C2435 C2434 1.369 . S
C2435 C2436 1.410 . S
C2435 C2443 1.503 . S
C2436 C2435 1.410 . S
C2436 C2437 1.392 . S
C2436 C2439 1.511 . S
C2437 C2433 1.376 . S
C2437 C2436 1.392 . S
C2437 H2449 0.929 . S
C2438 C2434 1.531 . S
C2438 H2450 0.960 . S
C2438 H2451 0.962 . S
C2438 H2452 0.960 . S
C2439 C2436 1.511 . S
C2439 H2453 0.961 . S
C2439 H2454 0.961 . S
C2439 H2455 0.961 . S
C2440 C2441 1.370 . S
C2440 C2442 1.363 . S
C2440 H2456 0.931 . S
C2441 C2440 1.370 . S
C2441 C2445 1.408 . S
C2442 C2440 1.363 . S
C2442 C2443 1.370 . S
C2442 C2446 1.524 . S
C2443 C2435 1.503 . S
C2443 C2442 1.370 . S
C2443 C2444 1.403 . S
C2444 C2443 1.403 . S
C2444 C2445 1.404 . S
C2444 C2447 1.539 . S
C2445 C2441 1.408 . S
C2445 C2444 1.404 . S
C2445 H2457 0.930 . S
C2446 C2442 1.524 . S
C2446 H2458 0.956 . S
C2446 H2459 0.961 . S
C2446 H2460 0.961 . S
C2447 C2444 1.539 . S
C2447 H2461 0.958 . S
C2447 H2462 0.961 . S
C2447 H2463 0.960 . S
H2448 C2432 0.931 . S
H2449 C2437 0.929 . S
H2450 C2438 0.960 . S
H2451 C2438 0.962 . S
H2452 C2438 0.960 . S
H2453 C2439 0.961 . S
H2454 C2439 0.961 . S
H2455 C2439 0.961 . S
H2456 C2440 0.931 . S
H2457 C2445 0.930 . S
H2458 C2446 0.956 . S
H2459 C2446 0.961 . S
H2460 C2446 0.961 . S
H2461 C2447 0.958 . S
H2462 C2447 0.961 . S
H2463 C2447 0.960 . S
C2464 C2465 1.391 . S
C2464 C2466 1.394 . S
C2464 H2480 0.931 . S
C2465 C2464 1.391 . S
C2465 C2469 1.376 . S
C2466 C2464 1.394 . S
C2466 C2467 1.369 . S
C2466 C2470 1.531 . S
C2467 C2466 1.369 . S
C2467 C2468 1.410 . S
C2467 C2475 1.503 . S
C2468 C2467 1.410 . S
C2468 C2469 1.392 . S
C2468 C2471 1.511 . S
C2469 C2465 1.376 . S
C2469 C2468 1.392 . S
C2469 H2481 0.929 . S
C2470 C2466 1.531 . S
C2470 H2482 0.960 . S
C2470 H2483 0.962 . S
C2470 H2484 0.960 . S
C2471 C2468 1.511 . S
C2471 H2485 0.961 . S
C2471 H2486 0.961 . S
C2471 H2487 0.961 . S
C2472 C2473 1.370 . S
C2472 C2474 1.363 . S
C2472 H2488 0.931 . S
C2473 C2472 1.370 . S
C2473 C2477 1.408 . S
C2474 C2472 1.363 . S
C2474 C2475 1.370 . S
C2474 C2478 1.524 . S
C2475 C2467 1.503 . S
C2475 C2474 1.370 . S
C2475 C2476 1.403 . S
C2476 C2475 1.403 . S
C2476 C2477 1.404 . S
C2476 C2479 1.539 . S
C2477 C2473 1.408 . S
C2477 C2476 1.404 . S
C2477 H2489 0.930 . S
C2478 C2474 1.524 . S
C2478 H2490 0.956 . S
C2478 H2491 0.961 . S
C2478 H2492 0.961 . S
C2479 C2476 1.539 . S
C2479 H2493 0.958 . S
C2479 H2494 0.961 . S
C2479 H2495 0.960 . S
H2480 C2464 0.931 . S
H2481 C2469 0.929 . S
H2482 C2470 0.960 . S
H2483 C2470 0.962 . S
H2484 C2470 0.960 . S
H2485 C2471 0.961 . S
H2486 C2471 0.961 . S
H2487 C2471 0.961 . S
H2488 C2472 0.931 . S
H2489 C2477 0.930 . S
H2490 C2478 0.956 . S
H2491 C2478 0.961 . S
H2492 C2478 0.961 . S
H2493 C2479 0.958 . S
H2494 C2479 0.961 . S
H2495 C2479 0.960 . S
C449 C35 0.431 . S
C457 C7 0.415 . S
C481 C21 0.367 . S
C489 C49 0.398 . S
C513 C91 0.434 . S
C521 C63 0.388 . S
C545 C105 0.364 . S
C553 C77 0.387 . S
C577 C119 0.379 . S
C585 C147 0.355 . S
C609 C161 0.406 . S
C617 C133 0.410 . S
C641 C175 0.462 . S
C649 C203 0.415 . S
C673 C189 0.307 . S
C681 C217 0.352 . S
C705 C259 0.314 . S
C713 C231 0.352 . S
C737 C245 0.388 . S
C745 C273 0.358 . S
C769 C287 0.341 . S
C777 C315 0.377 . S
C801 C329 0.453 . S
C809 C301 0.400 . S
C833 C371 0.380 . S
C841 C343 0.403 . S
C865 C385 0.438 . S
C873 C357 0.415 . S
C897 C427 0.307 . S
C905 C399 0.353 . S
C929 C413 0.311 . S
C937 C441 0.359 . S
C961 C64 1.589 . S
C969 C8 1.611 . S
C993 C414 1.616 . S
C1001 C22 1.602 . S
C1025 C36 1.601 . S
C1033 C204 1.608 . S
C1057 C50 1.585 . S
C1065 C330 1.613 . S
C1089 C78 1.595 . S
C1097 C358 1.609 . S
C1121 C92 1.600 . S
C1129 C148 1.609 . S
C1153 C274 1.586 . S
C1161 C106 1.612 . S
C1185 C176 1.610 . S
C1193 C120 1.602 . S
C1217 C302 1.592 . S
C1225 C134 1.610 . S
C1249 C162 1.585 . S
C1257 C442 1.613 . S
C1281 C190 1.606 . S
C1289 C246 1.607 . S
C1313 C386 1.618 . S
C1321 C218 1.600 . S
C1345 C288 1.612 . S
C1353 C232 1.601 . S
C1377 C260 1.585 . S
C1385 C428 1.614 . S
C1409 C316 1.586 . S
C1417 C372 1.614 . S
C1441 C400 1.595 . S
C1449 C344 1.608 . S
C1473 C51 1.496 . S
C1481 C9 1.479 . S
C1505 C37 1.483 . S
C1513 C23 1.490 . S
C1537 C107 1.498 . S
C1545 C65 1.479 . S
C1569 C93 1.474 . S
C1577 C79 1.491 . S
C1601 C163 1.483 . S
C1609 C121 1.489 . S
C1633 C149 1.465 . S
C1641 C135 1.496 . S
C1665 C219 1.493 . S
C1673 C177 1.482 . S
C1697 C205 1.471 . S
C1705 C191 1.493 . S
C1729 C233 1.505 . S
C1737 C275 1.477 . S
C1761 C261 1.501 . S
C1769 C247 1.478 . S
C1793 C289 1.503 . S
C1801 C331 1.478 . S
C1825 C317 1.490 . S
C1833 C303 1.485 . S
C1857 C387 1.473 . S
C1865 C345 1.488 . S
C1889 C359 1.505 . S
C1897 C373 1.478 . S
C1921 C401 1.469 . S
C1929 C443 1.492 . S
C1953 C429 1.463 . S
C1961 C415 1.496 . S
C1985 C31 1.471 . S
C1993 C3 1.493 . S
C2017 C17 1.471 . S
C2025 C45 1.494 . S
C2049 C59 1.492 . S
C2057 C87 1.503 . S
C2081 C73 1.481 . S
C2089 C101 1.503 . S
C2113 C115 1.510 . S
C2121 C143 1.500 . S
C2145 C129 1.506 . S
C2153 C157 1.502 . S
C2177 C199 1.483 . S
C2185 C171 1.503 . S
C2209 C213 1.489 . S
C2217 C185 1.503 . S
C2241 C255 1.481 . S
C2249 C227 1.501 . S
C2273 C269 1.471 . S
C2281 C241 1.494 . S
C2305 C283 1.478 . S
C2313 C311 1.489 . S
C2337 C325 1.477 . S
C2345 C297 1.502 . S
C2369 C367 1.511 . S
C2377 C339 1.496 . S
C2401 C353 1.479 . S
C2409 C381 1.487 . S
C2433 C395 1.483 . S
C2441 C423 1.503 . S
C2465 C437 1.505 . S
C2473 C409 1.488 . S
