# Generated by pormake.
# Topology umj, (4)-cn, num edge types: 1
# Building blocks:
#     Node 0, Type 0, BuildingBlock: QUQFOY_clean_sbu_1, # of connection points: 4
#     Node 1, Type 0, BuildingBlock: QUQFOY_clean_sbu_1, # of connection points: 4
#     Node 2, Type 0, BuildingBlock: QUQFOY_clean_sbu_1, # of connection points: 4
#     Node 3, Type 0, BuildingBlock: QUQFOY_clean_sbu_1, # of connection points: 4
#     Node 4, Type 0, BuildingBlock: QUQFOY_clean_sbu_1, # of connection points: 4
#     Node 5, Type 0, BuildingBlock: QUQFOY_clean_sbu_1, # of connection points: 4
#     Node 6, Type 0, BuildingBlock: QUQFOY_clean_sbu_1, # of connection points: 4
#     Node 7, Type 0, BuildingBlock: QUQFOY_clean_sbu_1, # of connection points: 4
#     Node 8, Type 0, BuildingBlock: QUQFOY_clean_sbu_1, # of connection points: 4
#     Node 9, Type 0, BuildingBlock: QUQFOY_clean_sbu_1, # of connection points: 4
#     Node 10, Type 0, BuildingBlock: QUQFOY_clean_sbu_1, # of connection points: 4
#     Node 11, Type 0, BuildingBlock: QUQFOY_clean_sbu_1, # of connection points: 4
#     Edge 12, Type (0, 0), BuildingBlock: TEMPAE_clean_linker_10, # of connection points: 2
#     Edge 13, Type (0, 0), BuildingBlock: TEMPAE_clean_linker_10, # of connection points: 2
#     Edge 14, Type (0, 0), BuildingBlock: TEMPAE_clean_linker_10, # of connection points: 2
#     Edge 15, Type (0, 0), BuildingBlock: TEMPAE_clean_linker_10, # of connection points: 2
#     Edge 16, Type (0, 0), BuildingBlock: TEMPAE_clean_linker_10, # of connection points: 2
#     Edge 17, Type (0, 0), BuildingBlock: TEMPAE_clean_linker_10, # of connection points: 2
#     Edge 18, Type (0, 0), BuildingBlock: TEMPAE_clean_linker_10, # of connection points: 2
#     Edge 19, Type (0, 0), BuildingBlock: TEMPAE_clean_linker_10, # of connection points: 2
#     Edge 20, Type (0, 0), BuildingBlock: TEMPAE_clean_linker_10, # of connection points: 2
#     Edge 21, Type (0, 0), BuildingBlock: TEMPAE_clean_linker_10, # of connection points: 2
#     Edge 22, Type (0, 0), BuildingBlock: TEMPAE_clean_linker_10, # of connection points: 2
#     Edge 23, Type (0, 0), BuildingBlock: TEMPAE_clean_linker_10, # of connection points: 2
#     Edge 24, Type (0, 0), BuildingBlock: TEMPAE_clean_linker_10, # of connection points: 2
#     Edge 25, Type (0, 0), BuildingBlock: TEMPAE_clean_linker_10, # of connection points: 2
#     Edge 26, Type (0, 0), BuildingBlock: TEMPAE_clean_linker_10, # of connection points: 2
#     Edge 27, Type (0, 0), BuildingBlock: TEMPAE_clean_linker_10, # of connection points: 2
#     Edge 28, Type (0, 0), BuildingBlock: TEMPAE_clean_linker_10, # of connection points: 2
#     Edge 29, Type (0, 0), BuildingBlock: TEMPAE_clean_linker_10, # of connection points: 2
#     Edge 30, Type (0, 0), BuildingBlock: TEMPAE_clean_linker_10, # of connection points: 2
#     Edge 31, Type (0, 0), BuildingBlock: TEMPAE_clean_linker_10, # of connection points: 2
#     Edge 32, Type (0, 0), BuildingBlock: TEMPAE_clean_linker_10, # of connection points: 2
#     Edge 33, Type (0, 0), BuildingBlock: TEMPAE_clean_linker_10, # of connection points: 2
#     Edge 34, Type (0, 0), BuildingBlock: TEMPAE_clean_linker_10, # of connection points: 2
#     Edge 35, Type (0, 0), BuildingBlock: TEMPAE_clean_linker_10, # of connection points: 2
# Relax obj value: 0.075
# Max RMSD: 0.416
# Mean RMSD: 0.259
data_MOF--net-umj--node1-QUQFOY_clean_sbu_1--edge1-TEMPAE_clean_linker_10
_symmetry_space_group_name_H-M    P1
_symmetry_Int_Tables_number       1
_symmetry_cell_setting            triclinic
loop_
_symmetry_equiv_pos_as_xyz
'x, y, z'
_cell_length_a     29.707859
_cell_length_b     29.823085
_cell_length_c     84.818973
_cell_angle_alpha  91.517161
_cell_angle_beta   85.147635
_cell_angle_gamma 119.87914
loop_
_atom_site_label
_atom_site_type_symbol
_atom_site_fract_x
_atom_site_fract_y
_atom_site_fract_z
_atom_type_partial_charge
O0 O 0.98532 0.23389 0.1092 0.0
Cd1 Cd 0.9738 0.22426 0.08549 0.0
Cd2 Cd 0.08224 0.26357 0.08552 0.0
O3 O 0.07115 0.28249 0.109 0.0
O4 O 0.91873 0.24376 0.08157 0.0
O5 O 1.00131 0.28841 0.07262 0.0
C6 C 0.95633 0.28476 0.07443 0.0
C7 C 0.13784 0.3169 0.06424 0.0
C8 C 0.026 0.2604 0.11651 0.0
C9 C 1.00955 0.14943 0.07737 0.0
O10 O 0.05274 0.18554 0.08169 0.0
O11 O 0.97162 0.15757 0.07609 0.0
O12 O 0.15547 0.29876 0.07426 0.0
O13 O 0.09114 0.3083 0.06712 0.0
O14 O 0.71925 0.96805 0.4528 0.0
Cd15 Cd 0.7281 0.97593 0.42906 0.0
Cd16 Cd 0.79384 0.07298 0.43189 0.0
O17 O 0.74902 0.05227 0.45426 0.0
O18 O 0.66141 0.93236 0.41816 0.0
O19 O 0.69103 0.0144 0.42431 0.0
C20 C 0.65624 0.97297 0.4182 0.0
C21 C 0.79083 0.10484 0.40689 0.0
C22 C 0.72707 1.0073 0.4609 0.0
C23 C 0.84579 0.01761 0.42324 0.0
O24 O 0.85154 0.05625 0.43137 0.0
O25 O 0.8007 0.98486 0.41881 0.0
O26 O 0.80827 0.1361 0.41859 0.0
O27 O 0.77409 0.05675 0.40962 0.0
O28 O 0.71543 0.74087 0.78005 0.0
Cd29 Cd 0.72349 0.74724 0.75549 0.0
Cd30 Cd 0.71424 0.83569 0.76611 0.0
O31 O 0.69524 0.80039 0.78831 0.0
O32 O 0.69926 0.67325 0.74794 0.0
O33 O 0.65784 0.71533 0.74413 0.0
C34 C 0.65906 0.67303 0.7431 0.0
C35 C 0.66261 0.83953 0.74759 0.0
C36 C 0.70281 0.76296 0.79122 0.0
C37 C 0.81698 0.85478 0.74981 0.0
O38 O 0.79168 0.87064 0.75884 0.0
O39 O 0.79602 0.80761 0.74542 0.0
O40 O 0.6832 0.87674 0.75752 0.0
O41 O 0.66826 0.80011 0.74932 0.0
O42 O 0.99765 0.70959 0.11087 0.0
Cd43 Cd 0.99406 0.70924 0.08729 0.0
Cd44 Cd 0.89763 0.68327 0.09211 0.0
O45 O 0.91243 0.65646 0.11312 0.0
O46 O 0.03721 0.68036 0.07588 0.0
O47 O 0.9525 0.63337 0.08228 0.0
C48 C 0.99483 0.63588 0.07624 0.0
C49 C 0.86929 0.64957 0.06689 0.0
C50 C 0.95655 0.67823 0.11913 0.0
C51 C 0.9593 0.78959 0.08439 0.0
O52 O 0.91911 0.75879 0.09317 0.0
O53 O 0.99071 0.77455 0.0784 0.0
O54 O 0.83569 0.63775 0.07904 0.0
O55 O 0.91756 0.67806 0.06925 0.0
O56 O 0.26142 0.99115 0.44355 0.0
Cd57 Cd 0.26453 0.99363 0.41969 0.0
Cd58 Cd 0.19568 0.89477 0.42257 0.0
O59 O 0.23254 0.90699 0.44391 0.0
O60 O 0.33831 0.04617 0.41131 0.0
O61 O 0.30671 0.96152 0.41129 0.0
C62 C 0.34558 1.00723 0.40857 0.0
C63 C 0.20049 0.86122 0.39736 0.0
C64 C 0.25192 0.95052 0.45091 0.0
C65 C 0.15156 0.95847 0.41634 0.0
O66 O 0.14258 0.91834 0.42397 0.0
O67 O 0.19818 0.99082 0.41087 0.0
O68 O 0.17523 0.83 0.40929 0.0
O69 O 0.22466 0.90988 0.4001 0.0
O70 O 0.25048 0.26077 0.77456 0.0
Cd71 Cd 0.24166 0.27573 0.752 0.0
Cd72 Cd 0.28666 0.21241 0.74546 0.0
O73 O 0.3069 0.2331 0.7689 0.0
O74 O 0.26511 0.35254 0.74955 0.0
O75 O 0.30925 0.31559 0.73958 0.0
C76 C 0.30721 0.35711 0.74218 0.0
C77 C 0.34085 0.21838 0.72261 0.0
C78 C 0.28249 0.24796 0.77891 0.0
C79 C 0.17112 0.17049 0.74047 0.0
O80 O 0.20869 0.16282 0.7426 0.0
O81 O 0.17692 0.21584 0.74188 0.0
O82 O 0.32409 0.18015 0.73253 0.0
O83 O 0.33033 0.25431 0.72627 0.0
O84 O 0.70965 0.99537 0.58477 0.0
Cd85 Cd 0.72307 0.01878 0.60768 0.0
Cd86 Cd 0.7041 0.91618 0.60983 0.0
O87 O 0.68346 0.91167 0.58653 0.0
O88 O 0.69813 0.071 0.61068 0.0
O89 O 0.65875 0.9941 0.62233 0.0
C90 C 0.65833 0.03573 0.61911 0.0
C91 C 0.65524 0.87082 0.63294 0.0
C92 C 0.69211 0.95124 0.57849 0.0
C93 C 0.81257 1.00457 0.61514 0.0
O94 O 0.78228 0.95689 0.61276 0.0
O95 O 0.79677 0.03733 0.6147 0.0
O96 O 0.67583 0.85073 0.62316 0.0
O97 O 0.65818 0.91331 0.62872 0.0
O98 O 0.75562 0.73695 0.90984 0.0
Cd99 Cd 0.75703 0.73172 0.93328 0.0
Cd100 Cd 0.82161 0.69891 0.92867 0.0
O101 O 0.78104 0.67863 0.90755 0.0
O102 O 0.68481 0.70353 0.94489 0.0
O103 O 0.71911 0.6546 0.93743 0.0
C104 C 0.6803 0.65807 0.94388 0.0
C105 C 0.81045 0.66057 0.954 0.0
C106 C 0.7624 0.70445 0.90158 0.0
C107 C 0.87385 0.80455 0.93631 0.0
O108 O 0.88071 0.77241 0.92778 0.0
O109 O 0.82765 0.79261 0.94202 0.0
O110 O 0.83038 0.64723 0.94186 0.0
O111 O 0.79563 0.69334 0.95159 0.0
O112 O 0.98791 0.69733 0.24135 0.0
Cd113 Cd 0.98826 0.70152 0.26513 0.0
Cd114 Cd 0.085 0.77247 0.26062 0.0
O115 O 0.07348 0.7311 0.23914 0.0
O116 O 0.94192 0.63038 0.27544 0.0
O117 O 0.02756 0.66685 0.27125 0.0
C118 C 0.98385 0.62765 0.27618 0.0
C119 C 0.11744 0.77344 0.28522 0.0
C120 C 0.02962 0.70791 0.23302 0.0
C121 C 0.0192 0.81477 0.26871 0.0
O122 O 0.06014 0.82399 0.2601 0.0
O123 O 0.98849 0.76908 0.27449 0.0
O124 O 0.14942 0.79486 0.27282 0.0
O125 O 0.0685 0.75005 0.28336 0.0
O126 O 0.26399 0.0134 0.57527 0.0
Cd127 Cd 0.24778 1.00772 0.59961 0.0
Cd128 Cd 0.27706 0.11392 0.59245 0.0
O129 O 0.28869 0.09488 0.56921 0.0
O130 O 0.26907 0.95722 0.60742 0.0
O131 O 0.30737 0.03981 0.61317 0.0
C132 C 0.30663 0.99653 0.61374 0.0
C133 C 0.33742 0.17445 0.60881 0.0
C134 C 0.2796 0.0498 0.56506 0.0
C135 C 0.16661 0.03874 0.6075 0.0
O136 O 0.20085 0.0829 0.60181 0.0
O137 O 0.17648 1.00173 0.60813 0.0
O138 O 0.31339 0.18837 0.59979 0.0
O139 O 0.33117 0.1289 0.60711 0.0
O140 O 0.29182 0.26059 0.90537 0.0
Cd141 Cd 0.29066 0.24902 0.92937 0.0
Cd142 Cd 0.21421 0.27831 0.92757 0.0
O143 O 0.24503 0.29931 0.90416 0.0
O144 O 0.36516 0.26991 0.93378 0.0
O145 O 0.32454 0.31154 0.9426 0.0
C146 C 0.36659 0.30916 0.94108 0.0
C147 C 0.20801 0.32743 0.94883 0.0
C148 C 0.2738 0.28269 0.89732 0.0
C149 C 0.18102 0.16645 0.93659 0.0
O150 O 0.1706 0.19981 0.93159 0.0
O151 O 0.22799 0.17884 0.9386 0.0
O152 O 0.17238 0.30857 0.93893 0.0
O153 O 0.2481 0.32218 0.94572 0.0
O154 O 0.01253 0.23099 0.24245 0.0
Cd155 Cd 1.00962 0.23502 0.2662 0.0
Cd156 Cd 0.91146 0.1762 0.26624 0.0
O157 O 0.93211 0.2173 0.24405 0.0
O158 O 0.05885 0.30672 0.27434 0.0
O159 O 0.97523 0.27736 0.27183 0.0
C160 C 0.01935 0.31421 0.27561 0.0
C161 C 0.87974 0.18487 0.29209 0.0
C162 C 0.97483 0.22879 0.23579 0.0
C163 C 0.96309 0.12092 0.2728 0.0
O164 O 0.92537 0.11627 0.26548 0.0
O165 O 0.99775 0.16588 0.27701 0.0
O166 O 0.84823 0.16509 0.28101 0.0
O167 O 0.92826 0.2013 0.2883 0.0
C168 C 0.95686 0.25987 0.21092 0.0
C169 C 0.98128 0.23737 0.2184 0.0
C170 C 0.96558 0.26946 0.19442 0.0
C171 C 0.99812 0.25471 0.1852 0.0
C172 C 0.02239 0.23163 0.19276 0.0
C173 C 0.01422 0.22393 0.20922 0.0
C174 C 0.93996 0.29524 0.18684 0.0
C175 C 0.05594 0.21364 0.18343 0.0
C176 C 0.97546 0.22007 0.14211 0.0
C177 C 0.01925 0.26142 0.13406 0.0
C178 C 0.96764 0.21816 0.15866 0.0
C179 C 1.0038 0.25927 0.16754 0.0
C180 C 0.04738 0.30201 0.15952 0.0
C181 C 0.05506 0.30223 0.14286 0.0
C182 C 0.9216 0.17102 0.16665 0.0
C183 C 0.08618 0.34713 0.16855 0.0
H184 H 0.93185 0.27084 0.21798 0.0
H185 H 0.03298 0.20619 0.21491 0.0
H186 H 0.96958 0.32918 0.17958 0.0
H187 H 0.91141 0.268 0.17877 0.0
H188 H 0.91941 0.30822 0.19574 0.0
H189 H 0.07245 0.19687 0.19113 0.0
H190 H 0.03253 0.18393 0.17488 0.0
H191 H 0.08853 0.24639 0.17649 0.0
H192 H 0.94774 0.18809 0.13544 0.0
H193 H 0.08869 0.33447 0.13672 0.0
H194 H 0.89771 0.1826 0.17461 0.0
H195 H 0.93559 0.15111 0.17408 0.0
H196 H 0.89627 0.14302 0.15802 0.0
H197 H 0.06562 0.3614 0.17696 0.0
H198 H 0.11476 0.3796 0.16058 0.0
H199 H 0.10777 0.33453 0.17563 0.0
C200 C 0.74643 0.03633 0.48875 0.0
C201 C 0.71365 1.0 0.47824 0.0
C202 C 0.7389 0.02536 0.50512 0.0
C203 C 0.69672 0.97753 0.51115 0.0
C204 C 0.66197 0.94195 0.50063 0.0
C205 C 0.67132 0.95327 0.4843 0.0
C206 C 0.77734 0.06407 0.5159 0.0
C207 C 0.61557 0.89139 0.50656 0.0
C208 C 0.70929 0.92892 0.55085 0.0
C209 C 0.68472 0.94845 0.5614 0.0
C210 C 0.71263 0.93718 0.5344 0.0
C211 C 0.68967 0.96445 0.52842 0.0
C212 C 0.66195 0.98124 0.53905 0.0
C213 C 0.66061 0.97384 0.55541 0.0
C214 C 0.74326 0.91936 0.52351 0.0
C215 C 0.63542 1.00887 0.53322 0.0
H216 H 0.7796 0.07213 0.48409 0.0
H217 H 0.6458 0.92509 0.4762 0.0
H218 H 0.7568 0.07541 0.52528 0.0
H219 H 0.79657 0.0462 0.52185 0.0
H220 H 0.80784 0.09952 0.5094 0.0
H221 H 0.58997 0.86989 0.49703 0.0
H222 H 0.62901 0.86657 0.51161 0.0
H223 H 0.59222 0.89845 0.51618 0.0
H224 H 0.72882 0.91021 0.55549 0.0
H225 H 0.64186 0.98924 0.5636 0.0
H226 H 0.77765 0.95344 0.51763 0.0
H227 H 0.71919 0.89495 0.51407 0.0
H228 H 0.75697 0.89698 0.52992 0.0
H229 H 0.66515 0.04745 0.52827 0.0
H230 H 0.61077 0.01429 0.54281 0.0
H231 H 0.61071 0.98691 0.52357 0.0
C232 C 0.69562 0.69841 0.81104 0.0
C233 C 0.70222 0.74739 0.80778 0.0
C234 C 0.7017 0.6851 0.82618 0.0
C235 C 0.71584 0.72199 0.83833 0.0
C236 C 0.72123 0.77104 0.83524 0.0
C237 C 0.71382 0.78294 0.82006 0.0
C238 C 0.69416 0.63196 0.82905 0.0
C239 C 0.73676 0.81171 0.84782 0.0
C240 C 0.69803 0.68576 0.882 0.0
C241 C 0.74853 0.69815 0.88506 0.0
C242 C 0.68612 0.69051 0.86667 0.0
C243 C 0.72619 0.70995 0.85419 0.0
C244 C 0.77695 0.72076 0.85714 0.0
C245 C 0.78739 0.71421 0.87255 0.0
C246 C 0.6312 0.67703 0.86401 0.0
C247 C 0.821 0.74231 0.84425 0.0
H248 H 0.68643 0.67059 0.80163 0.0
H249 H 0.71952 0.821 0.81762 0.0
H250 H 0.73171 0.63525 0.83159 0.0
H251 H 0.66634 0.61328 0.83957 0.0
H252 H 0.67941 0.60644 0.81874 0.0
H253 H 0.73878 0.84768 0.84361 0.0
H254 H 0.70851 0.79657 0.8584 0.0
H255 H 0.77544 0.82154 0.85161 0.0
H256 H 0.66816 0.67393 0.89177 0.0
H257 H 0.82671 0.72493 0.87501 0.0
H258 H 0.61777 0.65218 0.85351 0.0
H259 H 0.63015 0.71287 0.86161 0.0
H260 H 0.60344 0.65666 0.87442 0.0
H261 H 0.81003 0.71717 0.83376 0.0
H262 H 0.85741 0.74606 0.84822 0.0
H263 H 0.82894 0.78105 0.84041 0.0
C264 C 1.00022 0.65899 0.13954 0.0
C265 C 0.96125 0.66948 0.13582 0.0
C266 C 0.01208 0.65955 0.15526 0.0
C267 C 0.98578 0.67306 0.16751 0.0
C268 C 0.94535 0.68236 0.16383 0.0
C269 C 0.93303 0.67967 0.14803 0.0
C270 C 0.05394 0.64739 0.15869 0.0
C271 C 0.91706 0.69795 0.17645 0.0
C272 C 0.98706 0.64795 0.2112 0.0
C273 C 0.026 0.69625 0.21598 0.0
C274 C 0.97552 0.63894 0.1953 0.0
C275 C 1.00209 0.67991 0.18401 0.0
C276 C 0.04264 0.72837 0.18873 0.0
C277 C 0.05463 0.73571 0.20463 0.0
C278 C 0.93351 0.58616 0.19072 0.0
C279 C 0.07124 0.77343 0.17718 0.0
H280 H 0.02225 0.65138 0.13005 0.0
H281 H 0.90361 0.68876 0.1451 0.0
H282 H 0.08856 0.683 0.16235 0.0
H283 H 0.03998 0.61888 0.16862 0.0
H284 H 0.06622 0.63171 0.14821 0.0
H285 H 0.88597 0.70283 0.17173 0.0
H286 H 0.89929 0.66852 0.18615 0.0
H287 H 0.9452 0.73499 0.18167 0.0
H288 H 0.96466 0.61752 0.22002 0.0
H289 H 0.08398 0.77336 0.2084 0.0
H290 H 0.9473 0.5728 0.18001 0.0
H291 H 0.89892 0.58826 0.18779 0.0
H292 H 0.92126 0.55695 0.20038 0.0
H293 H 0.08861 0.76262 0.16673 0.0
H294 H 0.10268 0.80805 0.18257 0.0
H295 H 0.04337 0.78388 0.17285 0.0
C296 C 0.27161 0.06088 0.53638 0.0
C297 C 0.28365 0.03729 0.54812 0.0
C298 C 0.26835 0.04393 0.52064 0.0
C299 C 0.27872 1.00335 0.51647 0.0
C300 C 0.29311 0.98101 0.52817 0.0
C301 C 0.2947 0.99774 0.54387 0.0
C302 C 0.25215 0.06833 0.50858 0.0
C303 C 0.30609 0.93889 0.52417 0.0
C304 C 0.22071 0.92827 0.47939 0.0
C305 C 0.26167 0.95543 0.46782 0.0
C306 C 0.2261 0.94251 0.49539 0.0
C307 C 0.27398 0.98409 0.49989 0.0
C308 C 0.31648 1.00917 0.48832 0.0
C309 C 0.30951 0.99512 0.4724 0.0
C310 C 0.17956 0.91527 0.50728 0.0
C311 C 0.36863 0.05252 0.49262 0.0
H312 H 0.26244 0.091 0.53963 0.0
H313 H 0.30425 0.97949 0.55289 0.0
H314 H 0.28267 0.08526 0.4986 0.0
H315 H 0.21596 0.03833 0.50362 0.0
H316 H 0.24514 0.09919 0.51371 0.0
H317 H 0.31977 0.92785 0.53439 0.0
H318 H 0.27121 0.90404 0.52027 0.0
H319 H 0.33678 0.95175 0.5142 0.0
H320 H 0.18338 0.89838 0.47578 0.0
H321 H 0.34104 0.01647 0.4634 0.0
H322 H 0.16699 0.94292 0.51179 0.0
H323 H 0.19003 0.90124 0.51758 0.0
H324 H 0.14615 0.88191 0.50211 0.0
H325 H 0.36523 0.08698 0.49598 0.0
H326 H 0.39922 0.06369 0.48265 0.0
H327 H 0.38134 0.04109 0.50298 0.0
C328 C 0.24784 0.21682 0.80643 0.0
C329 C 0.28969 0.25041 0.79595 0.0
C330 C 0.24904 0.22421 0.82284 0.0
C331 C 0.29268 0.26714 0.82891 0.0
C332 C 0.33556 0.30073 0.81834 0.0
C333 C 0.33363 0.2918 0.80195 0.0
C334 C 0.20292 0.18683 0.83365 0.0
C335 C 0.38248 0.34725 0.82429 0.0
C336 C 0.26498 0.30796 0.87 0.0
C337 C 0.28333 0.28427 0.87974 0.0
C338 C 0.26986 0.30471 0.85338 0.0
C339 C 0.29293 0.27649 0.84633 0.0
C340 C 0.31293 0.25394 0.85607 0.0
C341 C 0.30825 0.2584 0.87256 0.0
C342 C 0.24883 0.3301 0.84339 0.0
C343 C 0.33722 0.223 0.84912 0.0
H344 H 0.21344 0.18547 0.80171 0.0
H345 H 0.36531 0.3186 0.79376 0.0
H346 H 0.21597 0.17108 0.84285 0.0
H347 H 0.1842 0.20732 0.83984 0.0
H348 H 0.17326 0.15403 0.82713 0.0
H349 H 0.41343 0.36836 0.81464 0.0
H350 H 0.37058 0.37419 0.82989 0.0
H351 H 0.399 0.33529 0.83348 0.0
H352 H 0.24589 0.32818 0.87536 0.0
H353 H 0.3227 0.23987 0.87988 0.0
H354 H 0.21474 0.29999 0.83757 0.0
H355 H 0.27871 0.35439 0.83389 0.0
H356 H 0.23656 0.35459 0.85049 0.0
H357 H 0.30736 0.188 0.84344 0.0
H358 H 0.35382 0.21059 0.8582 0.0
H359 H 0.36858 0.24599 0.8398 0.0
C360 C 0.18864 0.3138 0.03981 0.0
C361 C 0.16494 0.33812 0.04851 0.0
C362 C 0.19967 0.3215 0.02333 0.0
C363 C 0.18831 0.35572 0.01548 0.0
C364 C 0.16911 0.38417 0.0245 0.0
C365 C 0.15664 0.37422 0.04087 0.0
C366 C 0.21916 0.28954 0.01418 0.0
C367 C 0.15858 0.42266 0.01678 0.0
C368 C 0.24325 0.38139 0.97247 0.0
C369 C 0.20004 0.34536 0.96469 0.0
C370 C 0.23915 0.38839 0.98888 0.0
C371 C 0.19118 0.35707 0.9978 0.0
C372 C 0.14671 0.32285 0.98983 0.0
C373 C 0.15153 0.31809 0.97332 0.0
C374 C 0.28698 0.42693 0.99674 0.0
C375 C 0.095 0.28791 0.99887 0.0
H376 H 0.1942 0.28519 0.04563 0.0
H377 H 0.13802 0.39291 0.04757 0.0
H378 H 0.18893 0.26236 1.00651 0.0
H379 H 0.25445 0.31472 1.00635 0.0
H380 H 0.22861 0.26678 0.02208 0.0
H381 H 0.15352 0.44837 0.02559 0.0
H382 H 0.19086 0.44682 1.00783 0.0
H383 H 0.12244 0.40176 1.01057 0.0
H384 H 0.28094 0.40238 0.96582 0.0
H385 H 0.1183 0.28954 0.96739 0.0
H386 H 0.30325 0.40622 1.00274 0.0
H387 H 0.277 0.44861 1.00588 0.0
H388 H 0.31773 0.45494 0.98804 0.0
H389 H 0.09891 0.26045 1.00644 0.0
H390 H 0.06369 0.26533 0.99089 0.0
H391 H 0.08289 0.31085 1.00678 0.0
C392 C 0.78242 0.08657 0.3782 0.0
C393 C 0.79295 0.12223 0.39045 0.0
C394 C 0.79081 0.10201 0.36229 0.0
C395 C 0.80877 0.15438 0.35837 0.0
C396 C 0.81532 0.18986 0.37066 0.0
C397 C 0.80817 0.17357 0.3866 0.0
C398 C 0.78426 0.06284 0.34969 0.0
C399 C 0.83217 0.24549 0.36698 0.0
C400 C 0.89707 0.19545 0.32051 0.0
C401 C 0.86192 0.18499 0.309 0.0
C402 C 0.88078 0.18865 0.33667 0.0
C403 C 0.82814 0.17245 0.34163 0.0
C404 C 0.79333 0.16606 0.33017 0.0
C405 C 0.81039 0.17151 0.31393 0.0
C406 C 0.91919 0.19483 0.34834 0.0
C407 C 0.7375 0.15107 0.335 0.0
H408 H 0.77011 0.04662 0.38098 0.0
H409 H 0.81562 0.20122 0.39598 0.0
H410 H 0.75839 0.06202 0.34088 0.0
H411 H 0.82266 0.07401 0.3433 0.0
H412 H 0.76768 0.02315 0.3547 0.0
H413 H 0.82334 0.26437 0.3773 0.0
H414 H 0.8748 0.26727 0.36381 0.0
H415 H 0.81273 0.24832 0.35675 0.0
H416 H 0.93712 0.20626 0.31689 0.0
H417 H 0.78315 0.16407 0.30513 0.0
H418 H 0.90678 0.15677 0.35394 0.0
H419 H 0.92017 0.22128 0.3579 0.0
H420 H 0.95932 0.21022 0.34264 0.0
H421 H 0.71448 0.10895 0.33767 0.0
H422 H 0.71952 0.15982 0.32544 0.0
H423 H 0.73483 0.17155 0.34585 0.0
C424 C 0.66911 0.89023 0.72387 0.0
C425 C 0.64189 0.84438 0.73289 0.0
C426 C 0.66196 0.89071 0.7077 0.0
C427 C 0.62553 0.84456 0.70055 0.0
C428 C 0.59415 0.79958 0.71007 0.0
C429 C 0.60342 0.79976 0.72605 0.0
C430 C 0.69695 0.93935 0.69798 0.0
C431 C 0.55351 0.75005 0.70319 0.0
C432 C 0.60327 0.86453 0.65839 0.0
C433 C 0.63768 0.85222 0.64955 0.0
C434 C 0.59594 0.85874 0.67497 0.0
C435 C 0.62515 0.84205 0.68293 0.0
C436 C 0.65778 0.82691 0.67398 0.0
C437 C 0.663 0.83144 0.65738 0.0
C438 C 0.55897 0.87299 0.68398 0.0
C439 C 0.6902 0.80952 0.68196 0.0
H440 H 0.69954 0.92447 0.72904 0.0
H441 H 0.58252 0.76408 0.73299 0.0
H442 H 0.72401 0.93278 0.68969 0.0
H443 H 0.67368 0.94931 0.69075 0.0
H444 H 0.72037 0.97287 0.70546 0.0
H445 H 0.52447 0.7236 0.71254 0.0
H446 H 0.5328 0.75799 0.69433 0.0
H447 H 0.57267 0.72979 0.69712 0.0
H448 H 0.58361 0.88066 0.65237 0.0
H449 H 0.69017 0.82256 0.65063 0.0
H450 H 0.58148 0.91003 0.69011 0.0
H451 H 0.53414 0.84308 0.69318 0.0
H452 H 0.5335 0.87751 0.67606 0.0
H453 H 0.71824 0.84152 0.68908 0.0
H454 H 0.71237 0.79762 0.67332 0.0
H455 H 0.665 0.77654 0.69018 0.0
C456 C 0.80358 0.60017 0.0469 0.0
C457 C 0.85467 0.63539 0.05041 0.0
C458 C 0.79026 0.59156 0.03108 0.0
C459 C 0.82853 0.62015 0.01861 0.0
C460 C 0.88054 0.65387 0.02213 0.0
C461 C 0.89298 0.66042 0.03788 0.0
C462 C 0.73485 0.55363 0.02778 0.0
C463 C 0.92256 0.68618 1.00937 0.0
C464 C 0.8196 0.60473 0.97404 0.0
C465 C 0.80763 0.64308 0.97048 0.0
C466 C 0.82194 0.59316 0.98988 0.0
C467 C 0.81379 0.62178 1.00232 0.0
C468 C 0.79914 0.65858 0.99876 0.0
C469 C 0.79554 0.66814 0.98299 0.0
C470 C 0.83549 0.55206 0.99323 0.0
C471 C 0.79116 0.69096 0.0115 0.0
H472 H 0.77389 0.58012 0.05648 0.0
H473 H 0.93272 0.68753 0.04039 0.0
H474 H 0.71411 0.57493 0.02566 0.0
H475 H 0.73375 0.53127 0.017 0.0
H476 H 0.71345 0.52625 0.03789 0.0
H477 H 0.96158 0.70865 0.01398 0.0
H478 H 0.92477 0.66125 0.99976 0.0
H479 H 0.91298 0.71371 1.00406 0.0
H480 H 0.82825 0.58463 0.96448 0.0
H481 H 0.78579 0.69758 0.98045 0.0
H482 H 0.81221 0.52886 1.00394 0.0
H483 H 0.87719 0.57061 0.9955 0.0
H484 H 0.82876 0.5257 0.98309 0.0
H485 H 0.7626 0.66587 0.02112 0.0
H486 H 0.77714 0.71593 1.00687 0.0
H487 H 0.8285 0.71614 0.0168 0.0
C488 C 0.09903 0.77264 0.31435 0.0
C489 C 0.13452 0.77859 0.30144 0.0
C490 C 0.11394 0.78149 0.32986 0.0
C491 C 0.16544 0.79516 0.33273 0.0
C492 C 0.2008 0.79835 0.31987 0.0
C493 C 0.18522 0.79097 0.30429 0.0
C494 C 0.07524 0.77914 0.34306 0.0
C495 C 0.25545 0.81098 0.3225 0.0
C496 C 0.21184 0.88009 0.36846 0.0
C497 C 0.19817 0.84373 0.38073 0.0
C498 C 0.20386 0.86501 0.3527 0.0
C499 C 0.18313 0.81223 0.34889 0.0
C500 C 0.17279 0.7757 0.36104 0.0
C501 C 0.17954 0.79172 0.3769 0.0
C502 C 0.21406 0.90523 0.34031 0.0
C503 C 0.15256 0.7194 0.35739 0.0
H504 H 0.05977 0.76325 0.31229 0.0
H505 H 0.21266 0.79508 0.29439 0.0
H506 H 0.07071 0.7521 0.35258 0.0
H507 H 0.08981 0.81791 0.34834 0.0
H508 H 0.03626 0.76646 0.33889 0.0
H509 H 0.27466 0.80267 0.31192 0.0
H510 H 0.27918 0.85258 0.32519 0.0
H511 H 0.25516 0.78855 0.33278 0.0
H512 H 0.22628 0.92044 0.37125 0.0
H513 H 0.16942 0.76348 0.38627 0.0
H514 H 0.1767 0.89673 0.33576 0.0
H515 H 0.23942 0.90409 0.33013 0.0
H516 H 0.23285 0.94504 0.34504 0.0
H517 H 0.11082 0.70081 0.35516 0.0
H518 H 0.15629 0.69824 0.36732 0.0
H519 H 0.17383 0.71536 0.34654 0.0
C520 C 0.33268 0.22135 0.63284 0.0
C521 C 0.36024 0.20277 0.62321 0.0
C522 C 0.34071 0.23019 0.64898 0.0
C523 C 0.37869 0.22217 0.65546 0.0
C524 C 0.41084 0.2094 0.64532 0.0
C525 C 0.40046 0.19867 0.62937 0.0
C526 C 0.3049 0.24297 0.65936 0.0
C527 C 0.45395 0.20391 0.65156 0.0
C528 C 0.39633 0.26444 0.69819 0.0
C529 C 0.36257 0.21765 0.70634 0.0
C530 C 0.40592 0.26607 0.68165 0.0
C531 C 0.37937 0.22012 0.67301 0.0
C532 C 0.348 0.17228 0.68131 0.0
C533 C 0.34072 0.17158 0.69791 0.0
C534 C 0.44156 0.31756 0.67343 0.0
C535 C 0.31831 0.12235 0.67261 0.0
H536 H 0.301 0.2237 0.62819 0.0
H537 H 0.42175 0.18414 0.62194 0.0
H538 H 0.27974 0.21006 0.66765 0.0
H539 H 0.32775 0.27725 0.6666 0.0
H540 H 0.27949 0.25084 0.65238 0.0
H541 H 0.47812 0.19796 0.64193 0.0
H542 H 0.47943 0.23899 0.65815 0.0
H543 H 0.43725 0.17067 0.66 0.0
H544 H 0.41325 0.30022 0.7047 0.0
H545 H 0.31403 0.13549 0.70415 0.0
H546 H 0.418 0.33371 0.66931 0.0
H547 H 0.46403 0.31336 0.66293 0.0
H548 H 0.46923 0.34583 0.68154 0.0
H549 H 0.28929 0.12452 0.66571 0.0
H550 H 0.29749 0.08827 0.68078 0.0
H551 H 0.34508 0.11619 0.66409 0.0
C552 C 0.95249 0.55059 0.06309 0.0
C553 C 0.99388 0.58755 0.0713 0.0
C554 C 0.94453 0.50029 0.06099 0.0
C555 C 0.97741 0.48595 0.06789 0.0
C556 C 0.0204 0.52381 0.07574 0.0
C557 C 0.0286 0.57445 0.07712 0.0
C558 C 0.89962 0.46198 0.05197 0.0
C559 C 0.05577 0.51002 0.08359 0.0
C560 C 0.92384 0.34612 0.08123 0.0
C561 C 0.95175 0.33039 0.07059 0.0
C562 C 0.93064 0.39619 0.0802 0.0
C563 C 0.96496 0.43076 0.06793 0.0
C564 C 0.98998 0.41342 0.05642 0.0
C565 C 0.98383 0.36383 0.05806 0.0
C566 C 0.904 0.41331 0.09292 0.0
C567 C 0.0253 0.44808 0.04282 0.0
H568 H 0.92544 0.56071 0.05865 0.0
H569 H 0.05997 0.60274 0.08374 0.0
H570 H 0.91249 0.44099 0.04342 0.0
H571 H 0.86861 0.43282 0.06032 0.0
H572 H 0.88261 0.48102 0.04545 0.0
H573 H 0.08835 0.54418 0.08878 0.0
H574 H 0.03294 0.48083 0.09315 0.0
H575 H 0.07231 0.49246 0.07494 0.0
H576 H 0.89985 0.32078 0.0911 0.0
H577 H 1.00574 0.35188 0.04986 0.0
H578 H 0.8817 0.42884 0.08755 0.0
H579 H 0.93376 0.44496 0.09973 0.0
H580 H 0.877 0.38129 0.10128 0.0
H581 H 1.00641 0.46679 0.03712 0.0
H582 H 0.0357 0.42651 0.03373 0.0
H583 H 0.06177 0.47927 0.04728 0.0
C584 C 0.61979 0.01191 0.4014 0.0
C585 C 0.61131 0.97308 0.41216 0.0
C586 C 0.57879 0.01959 0.3978 0.0
C587 C 0.52873 0.98924 0.40573 0.0
C588 C 0.51976 0.94882 0.41625 0.0
C589 C 0.56111 0.94072 0.41914 0.0
C590 C 0.58963 0.06158 0.38603 0.0
C591 C 0.46734 0.91628 0.42523 0.0
C592 C 0.43802 0.04414 0.41417 0.0
C593 C 0.39759 0.0131 0.40472 0.0
C594 C 0.4822 0.03835 0.41413 0.0
C595 C 0.48661 1.00181 0.40401 0.0
C596 C 0.44793 0.97387 0.39341 0.0
C597 C 0.4033 0.97902 0.39414 0.0
C598 C 0.5219 0.06816 0.42587 0.0
C599 C 0.45206 0.93618 0.38198 0.0
H600 H 0.65891 0.03718 0.39611 0.0
H601 H 0.555 0.91143 0.4277 0.0
H602 H 0.55876 0.04714 0.37766 0.0
H603 H 0.58949 0.09455 0.39236 0.0
H604 H 0.628 0.07609 0.37917 0.0
H605 H 0.46646 0.88575 0.4327 0.0
H606 H 0.45759 0.94136 0.43298 0.0
H607 H 0.43652 0.89755 0.4169 0.0
H608 H 0.43305 0.06966 0.42259 0.0
H609 H 0.37174 0.9547 0.38692 0.0
H610 H 0.56172 0.08827 0.41982 0.0
H611 H 0.52091 0.04088 0.43473 0.0
H612 H 0.51453 0.09725 0.43221 0.0
H613 H 0.49205 0.95324 0.37608 0.0
H614 H 0.42393 0.92457 0.37278 0.0
H615 H 0.44396 0.90088 0.38852 0.0
C616 C 0.3924 0.41137 0.72664 0.0
C617 C 0.35491 0.40776 0.73858 0.0
C618 C 0.44253 0.45509 0.72507 0.0
C619 C 0.45613 0.49577 0.73597 0.0
C620 C 0.41765 0.49337 0.7476 0.0
C621 C 0.36731 0.44962 0.74865 0.0
C622 C 0.48158 0.45667 0.71217 0.0
C623 C 0.43053 0.53561 0.75954 0.0
C624 C 0.59749 0.57763 0.74586 0.0
C625 C 0.61204 0.62521 0.73867 0.0
C626 C 0.5473 0.53478 0.74473 0.0
C627 C 0.51121 0.53926 0.73587 0.0
C628 C 0.52714 0.58623 0.72767 0.0
C629 C 0.57699 0.62878 0.72936 0.0
C630 C 0.53187 0.48565 0.7538 0.0
C631 C 0.49077 0.59252 0.71773 0.0
H632 H 0.38303 0.37907 0.71881 0.0
H633 H 0.3388 0.44674 0.75803 0.0
H634 H 0.50039 0.49414 0.70557 0.0
H635 H 0.51274 0.45349 0.71749 0.0
H636 H 0.46339 0.42477 0.70366 0.0
H637 H 0.39586 0.52906 0.76741 0.0
H638 H 0.46052 0.5377 0.76697 0.0
H639 H 0.4471 0.57365 0.75344 0.0
H640 H 0.62406 0.57485 0.75326 0.0
H641 H 0.58794 0.66554 0.72379 0.0
H642 H 0.51664 0.45216 0.74579 0.0
H643 H 0.50012 0.47834 0.76305 0.0
H644 H 0.56496 0.48756 0.75958 0.0
H645 H 0.47001 0.55815 0.71028 0.0
H646 H 0.51179 0.62749 0.70992 0.0
H647 H 0.46097 0.59613 0.72558 0.0
C648 C 0.36912 0.96305 0.61198 0.0
C649 C 0.35221 0.99544 0.61922 0.0
C650 C 0.41893 0.97055 0.61407 0.0
C651 C 0.45211 0.01058 0.62396 0.0
C652 C 0.43343 0.04064 0.63228 0.0
C653 C 0.38414 0.03331 0.62961 0.0
C654 C 0.43733 0.93785 0.60486 0.0
C655 C 0.46641 0.08262 0.64333 0.0
C656 C 0.57122 1.00386 0.63405 0.0
C657 C 0.60966 0.03794 0.6227 0.0
C658 C 0.52052 0.99668 0.63522 0.0
C659 C 0.50747 0.02331 0.62455 0.0
C660 C 0.5469 0.05992 0.61366 0.0
C661 C 0.59762 0.06714 0.61297 0.0
C662 C 0.48035 0.95893 0.64743 0.0
C663 C 0.53479 0.08926 0.60208 0.0
H664 H 0.34499 0.93423 0.60378 0.0
H665 H 0.37139 0.05864 0.63523 0.0
H666 H 0.47024 0.96268 0.59617 0.0
H667 H 0.4519 0.92013 0.6129 0.0
H668 H 0.406 0.90657 0.59836 0.0
H669 H 0.44204 0.09185 0.65195 0.0
H670 H 0.49 0.07137 0.64996 0.0
H671 H 0.49359 0.11825 0.63633 0.0
H672 H 0.58024 0.98122 0.64166 0.0
H673 H 0.62688 0.09316 0.60408 0.0
H674 H 0.4507 0.92461 0.64146 0.0
H675 H 0.45979 0.9769 0.65411 0.0
H676 H 0.49794 0.9457 0.65595 0.0
H677 H 0.50606 0.06167 0.5941 0.0
H678 H 0.57005 0.11761 0.59475 0.0
H679 H 0.51695 0.1102 0.6085 0.0
C680 C 0.46148 0.37196 0.93568 0.0
C681 C 0.41557 0.3543 0.94561 0.0
C682 C 0.50445 0.4216 0.93746 0.0
C683 C 0.50196 0.45366 0.94978 0.0
C684 C 0.45703 0.43425 0.96057 0.0
C685 C 0.41406 0.38522 0.95818 0.0
C686 C 0.55109 0.44104 0.92549 0.0
C687 C 0.45334 0.46616 0.9742 0.0
C688 C 0.6331 0.57104 0.95685 0.0
C689 C 0.6314 0.60998 0.94847 0.0
C690 C 0.58993 0.52074 0.95832 0.0
C691 C 0.54482 0.50855 0.95061 0.0
C692 C 0.54233 0.54841 0.94262 0.0
C693 C 0.58545 0.59891 0.94186 0.0
C694 C 0.59361 0.48014 0.96748 0.0
C695 C 0.49558 0.53701 0.93391 0.0
H696 H 0.46244 0.34858 0.92579 0.0
H697 H 0.37848 0.37174 0.96585 0.0
H698 H 0.55522 0.47452 0.91878 0.0
H699 H 0.58723 0.45472 0.93155 0.0
H700 H 0.54777 0.41082 0.91696 0.0
H701 H 0.41901 0.44303 0.98269 0.0
H702 H 0.48911 0.48292 0.98064 0.0
H703 H 0.45003 0.49882 0.96964 0.0
H704 H 0.66893 0.57959 0.96184 0.0
H705 H 0.58462 0.62877 0.93508 0.0
H706 H 0.59747 0.45273 0.95915 0.0
H707 H 0.55766 0.45752 0.9754 0.0
H708 H 0.62767 0.49742 0.97472 0.0
H709 H 0.49149 0.51007 0.92414 0.0
H710 H 0.49878 0.57255 0.92884 0.0
H711 H 0.45948 0.51768 0.94196 0.0
C712 C 0.02204 0.58338 0.28991 0.0
C713 C 0.98304 0.57998 0.2809 0.0
C714 C 0.02915 0.54069 0.2918 0.0
C715 C 0.99797 0.49423 0.28389 0.0
C716 C 0.95719 0.4901 0.27526 0.0
C717 C 0.94967 0.53286 0.2741 0.0
C718 C 0.07154 0.54614 0.30165 0.0
C719 C 0.92377 0.44174 0.26635 0.0
C720 C 0.05362 0.40764 0.27033 0.0
C721 C 0.02339 0.36402 0.28011 0.0
C722 C 0.04695 0.45112 0.27178 0.0
C723 C 0.01023 0.45133 0.28359 0.0
C724 C 0.98256 0.40869 0.29427 0.0
C725 C 0.98861 0.36503 0.29216 0.0
C726 C 0.07641 0.49518 0.25992 0.0
C727 C 0.94465 0.40803 0.3074 0.0
H728 H 0.04804 0.62002 0.29512 0.0
H729 H 0.92019 0.53059 0.26688 0.0
H730 H 0.0568 0.51199 0.30965 0.0
H731 H 0.10429 0.54808 0.2938 0.0
H732 H 0.08684 0.5816 0.30888 0.0
H733 H 0.89268 0.44407 0.26063 0.0
H734 H 0.94851 0.43534 0.25705 0.0
H735 H 0.90531 0.40752 0.27444 0.0
H736 H 0.07953 0.4062 0.26078 0.0
H737 H 0.96474 0.33085 0.29958 0.0
H738 H 0.09744 0.53239 0.26608 0.0
H739 H 0.04852 0.49802 0.25265 0.0
H740 H 0.105 0.49007 0.25188 0.0
H741 H 0.96208 0.44526 0.31374 0.0
H742 H 0.93262 0.376 0.31608 0.0
H743 H 0.90928 0.40315 0.30234 0.0
C744 C 0.96003 0.056 0.06888 0.0
C745 C 1.0036 0.09692 0.07529 0.0
C746 C 0.95354 1.00575 0.06818 0.0
C747 C 0.99082 0.99594 0.07436 0.0
C748 C 0.03548 0.03742 0.08041 0.0
C749 C 0.04152 0.08717 0.08064 0.0
C750 C 0.90595 0.96282 0.0613 0.0
C751 C 0.07567 0.02884 0.08748 0.0
C752 C 0.94648 0.86371 0.09247 0.0
C753 C 0.96828 0.84249 0.08142 0.0
C754 C 0.95282 0.91299 0.09014 0.0
C755 C 0.98085 0.94186 0.07621 0.0
C756 C 1.00226 0.92039 0.06482 0.0
C757 C 0.9963 0.87118 0.06765 0.0
C758 C 0.93049 0.93464 0.10282 0.0
C759 C 0.03151 0.94947 0.04968 0.0
H760 H 0.9307 0.06304 0.06461 0.0
H761 H 0.0754 0.11821 0.08566 0.0
H762 H 0.91715 0.9403 0.05285 0.0
H763 H 0.87926 0.93579 0.0709 0.0
H764 H 0.88445 0.97773 0.0551 0.0
H765 H 0.10973 0.06562 0.09083 0.0
H766 H 0.0577 1.00368 0.09821 0.0
H767 H 0.08975 1.00871 0.079 0.0
H768 H 0.92496 0.84198 0.10319 0.0
H769 H 0.01272 0.85481 0.05898 0.0
H770 H 0.90348 0.94487 0.09777 0.0
H771 H 0.96232 0.97064 0.10747 0.0
H772 H 0.9091 0.90696 0.11287 0.0
H773 H 1.00744 0.96134 0.04355 0.0
H774 H 0.04235 0.92603 0.04151 0.0
H775 H 0.06756 0.98529 0.0524 0.0
C776 C 0.89167 0.97598 0.40799 0.0
C777 C 0.89185 0.01099 0.4194 0.0
C778 C 0.93514 0.96897 0.40497 0.0
C779 C 0.97921 0.99683 0.41378 0.0
C780 C 0.97996 0.03312 0.42499 0.0
C781 C 0.93661 0.04 0.42755 0.0
C782 C 0.93329 0.93063 0.3927 0.0
C783 C 0.02554 0.0629 0.4349 0.0
C784 C 0.05983 0.93684 0.42364 0.0
C785 C 0.10711 0.96715 0.41454 0.0
C786 C 0.0175 0.94497 0.42302 0.0
C787 C 0.02188 0.98399 0.41285 0.0
C788 C 0.06868 0.01352 0.40313 0.0
C789 C 0.11104 1.0051 0.40419 0.0
C790 C 0.96881 0.91317 0.43382 0.0
C791 C 0.0744 0.0548 0.39191 0.0
H792 H 0.85752 0.95383 0.40152 0.0
H793 H 0.93729 0.06718 0.4364 0.0
H794 H 0.96978 0.94795 0.38477 0.0
H795 H 0.93009 0.89635 0.39864 0.0
H796 H 0.89967 0.91742 0.38542 0.0
H797 H 0.02144 0.09196 0.44241 0.0
H798 H 0.02894 0.03567 0.44273 0.0
H799 H 0.0624 0.0831 0.42722 0.0
H800 H 0.05616 0.90738 0.4317 0.0
H801 H 0.14718 0.02834 0.39701 0.0
H802 H 0.93416 0.89437 0.42689 0.0
H803 H 0.96289 0.93877 0.44245 0.0
H804 H 0.97076 0.88271 0.44049 0.0
H805 H 0.04041 0.03931 0.38471 0.0
H806 H 0.11056 0.06998 0.38385 0.0
H807 H 0.07539 0.08745 0.39876 0.0
C808 C 0.1167 0.07683 0.73401 0.0
C809 C 0.11969 0.12454 0.73758 0.0
C810 C 0.06856 0.03094 0.73361 0.0
C811 C 0.02178 0.03233 0.73686 0.0
C812 C 0.02437 0.08076 0.73949 0.0
C813 C 0.07324 0.12628 0.73981 0.0
C814 C 0.06792 0.98047 0.73068 0.0
C815 C 0.97546 0.08414 0.74286 0.0
C816 C 0.88983 0.91322 0.73009 0.0
C817 C 0.87236 0.89275 0.74551 0.0
C818 C 0.93887 0.95814 0.72694 0.0
C819 C 0.97094 0.98284 0.73951 0.0
C820 C 0.95405 0.96065 0.75494 0.0
C821 C 0.90493 0.91631 0.75775 0.0
C822 C 0.95521 0.98053 0.71034 0.0
C823 C 0.98698 0.98492 0.76869 0.0
H824 H 0.15221 0.07488 0.73206 0.0
H825 H 0.07495 0.16278 0.74254 0.0
H826 H 0.05466 0.95714 0.74182 0.0
H827 H 0.04009 0.95755 0.72182 0.0
H828 H 0.107 0.98647 0.72645 0.0
H829 H 0.98359 0.12475 0.74279 0.0
H830 H 0.94724 0.06216 0.734 0.0
H831 H 0.95661 0.06644 0.75465 0.0
H832 H 0.86405 0.89586 0.7207 0.0
H833 H 0.89097 0.90098 0.76972 0.0
H834 H 0.99529 0.98854 0.70664 0.0
H835 H 0.95567 0.01792 0.71 0.0
H836 H 0.92848 0.95432 0.70165 0.0
H837 H 0.02628 0.98957 0.76593 0.0
H838 H 0.96931 0.96156 0.77979 0.0
H839 H 0.99216 0.02405 0.77076 0.0
C840 C 0.90675 0.04942 0.60564 0.0
C841 C 0.8673 0.0205 0.61744 0.0
C842 C 0.95597 0.05309 0.60543 0.0
C843 C 0.96627 0.02816 0.61751 0.0
C844 C 0.9274 1.00168 0.63 0.0
C845 C 0.8781 0.99731 0.62963 0.0
C846 C 0.99582 0.08095 0.59174 0.0
C847 C 0.93706 0.97604 0.6434 0.0
C848 C 0.06936 0.98862 0.60718 0.0
C849 C 0.1141 0.0312 0.61238 0.0
C850 C 0.0208 0.98671 0.609 0.0
C851 C 0.01664 0.02765 0.61662 0.0
C852 C 0.06125 0.06914 0.62273 0.0
C853 C 0.10951 0.07085 0.62029 0.0
C854 C 0.97453 0.94219 0.60204 0.0
C855 C 0.05842 0.11262 0.63142 0.0
H856 H 0.89795 0.06616 0.59598 0.0
H857 H 0.84726 0.97418 0.63862 0.0
H858 H 0.0331 0.11081 0.59615 0.0
H859 H 1.0038 0.05305 0.58491 0.0
H860 H 0.98259 0.09985 0.58361 0.0
H861 H 0.90545 0.96267 0.65312 0.0
H862 H 0.93982 0.94213 0.63893 0.0
H863 H 0.97461 1.00315 0.64828 0.0
H864 H 0.07294 0.95837 0.60083 0.0
H865 H 0.14411 0.10392 0.6243 0.0
H866 H 0.96109 0.95696 0.59268 0.0
H867 H 0.94168 0.92299 0.61126 0.0
H868 H 0.98377 0.91287 0.59682 0.0
H869 H 0.05075 0.1356 0.62308 0.0
H870 H 0.09509 0.13895 0.63691 0.0
H871 H 0.02575 0.09684 0.6408 0.0
C872 C 0.91708 0.89096 0.94987 0.0
C873 C 0.92008 0.85582 0.9391 0.0
C874 C 0.96072 0.94029 0.95173 0.0
C875 C 1.00815 0.95515 0.9424 0.0
C876 C 0.01173 0.91918 0.93191 0.0
C877 C 0.96799 0.8701 0.93048 0.0
C878 C 0.95556 0.97719 0.96325 0.0
C879 C 0.06099 0.93343 0.9215 0.0
C880 C 0.0941 0.09604 0.92987 0.0
C881 C 0.13732 0.11231 0.93874 0.0
C882 C 0.05181 0.04549 0.9312 0.0
C883 C 0.05174 0.01 0.94195 0.0
C884 C 0.0947 0.02625 0.95123 0.0
C885 C 0.13744 0.07711 0.94936 0.0
C886 C 1.00778 0.02975 0.92071 0.0
C887 C 0.09556 0.98984 0.96305 0.0
H888 H 0.88053 0.88022 0.9567 0.0
H889 H 0.97107 0.84341 0.92214 0.0
H890 H 0.98914 0.99505 0.97065 0.0
H891 H 0.95579 1.00892 0.95664 0.0
H892 H 0.91895 0.95773 0.97112 0.0
H893 H 0.05883 0.89985 0.91489 0.0
H894 H 0.0681 0.96395 0.91283 0.0
H895 H 0.09502 0.94941 0.92868 0.0
H896 H 0.09378 0.12272 0.9215 0.0
H897 H 0.17047 0.0895 0.95633 0.0
H898 H 0.97028 0.01513 0.92802 0.0
H899 H 1.00443 0.99783 0.91296 0.0
H900 H 0.01349 0.06223 0.9131 0.0
H901 H 0.05945 0.9731 0.97115 0.0
H902 H 0.12973 1.00937 0.9702 0.0
H903 H 0.09664 0.95721 0.9568 0.0
C904 C 0.97508 0.85749 0.28443 0.0
C905 C 1.00819 0.8579 0.27155 0.0
C906 C 0.96642 0.89965 0.28701 0.0
C907 C 0.99058 0.94251 0.27628 0.0
C908 C 0.02389 0.94284 0.26328 0.0
C909 C 0.03253 0.90092 0.26117 0.0
C910 C 0.93132 0.8983 0.30115 0.0
C911 C 0.04967 0.98707 0.25134 0.0
C912 C 0.93197 0.02681 0.26899 0.0
C913 C 0.96715 0.074 0.27557 0.0
C914 C 0.93751 0.98295 0.26991 0.0
C915 C 0.97894 0.98579 0.2778 0.0
C916 C 0.01287 0.03235 0.28527 0.0
C917 C 1.00683 0.07606 0.28397 0.0
C918 C 0.90085 0.9345 0.26157 0.0
C919 C 0.05699 0.03669 0.29402 0.0
H920 H 0.95652 0.82463 0.29257 0.0
H921 H 0.05795 0.90156 0.25111 0.0
H922 H 0.95195 0.93371 0.30819 0.0
H923 H 0.89651 0.89783 0.29713 0.0
H924 H 0.91819 0.86389 0.30892 0.0
H925 H 0.07508 0.98172 0.24201 0.0
H926 H 0.01952 0.99081 0.24556 0.0
H927 H 0.07359 0.024 0.25735 0.0
H928 H 0.90093 0.02446 0.26253 0.0
H929 H 0.03391 0.1121 0.28923 0.0
H930 H 0.88486 0.90027 0.26959 0.0
H931 H 0.92253 0.928 0.2513 0.0
H932 H 0.86788 0.93695 0.25722 0.0
H933 H 0.04304 1.00271 0.30204 0.0
H934 H 0.07498 0.07246 0.30108 0.0
H935 H 0.08751 0.03718 0.28541 0.0
loop_
_geom_bond_atom_site_label_1
_geom_bond_atom_site_label_2
_geom_bond_distance
_geom_bond_site_symmetry_2
_ccdc_geom_bond_type
O0 Cd1 2.223 . S
O0 C8 1.315 1_655 S
Cd1 O0 2.223 . S
Cd1 O4 2.297 . S
Cd1 O5 2.439 . S
Cd1 O11 2.240 . S
Cd2 O3 2.240 . S
Cd2 O10 2.223 . S
Cd2 O12 2.297 . S
Cd2 O13 2.439 . S
O3 Cd2 2.240 . S
O3 C8 1.279 . S
O4 Cd1 2.297 . S
O4 C6 1.247 . S
O5 Cd1 2.439 . S
O5 C6 1.208 . S
C6 O4 1.247 . S
C6 O5 1.208 . S
C7 O12 1.247 . S
C7 O13 1.208 . S
C8 O0 1.315 1_455 S
C8 O3 1.279 . S
C9 O10 1.315 1_655 S
C9 O11 1.279 . S
O10 Cd2 2.223 . S
O10 C9 1.315 1_455 S
O11 Cd1 2.240 . S
O11 C9 1.279 . S
O12 Cd2 2.297 . S
O12 C7 1.247 . S
O13 Cd2 2.439 . S
O13 C7 1.208 . S
O14 Cd15 2.223 . S
O14 C22 1.315 1_565 S
Cd15 O14 2.223 . S
Cd15 O18 2.297 . S
Cd15 O19 2.439 . S
Cd15 O25 2.240 . S
Cd16 O17 2.240 . S
Cd16 O24 2.223 . S
Cd16 O26 2.297 . S
Cd16 O27 2.439 . S
O17 Cd16 2.240 . S
O17 C22 1.279 . S
O18 Cd15 2.297 . S
O18 C20 1.247 . S
O19 Cd15 2.439 . S
O19 C20 1.208 . S
C20 O18 1.247 . S
C20 O19 1.208 . S
C21 O26 1.247 . S
C21 O27 1.208 . S
C22 O14 1.315 1_545 S
C22 O17 1.279 . S
C23 O24 1.315 1_565 S
C23 O25 1.279 . S
O24 Cd16 2.223 . S
O24 C23 1.315 1_545 S
O25 Cd15 2.240 . S
O25 C23 1.279 . S
O26 Cd16 2.297 . S
O26 C21 1.247 . S
O27 Cd16 2.439 . S
O27 C21 1.208 . S
O28 Cd29 2.223 . S
O28 C36 1.315 . S
Cd29 O28 2.223 . S
Cd29 O32 2.297 . S
Cd29 O33 2.439 . S
Cd29 O39 2.240 . S
Cd30 O31 2.240 . S
Cd30 O38 2.223 . S
Cd30 O40 2.297 . S
Cd30 O41 2.439 . S
O31 Cd30 2.240 . S
O31 C36 1.279 . S
O32 Cd29 2.297 . S
O32 C34 1.247 . S
O33 Cd29 2.439 . S
O33 C34 1.208 . S
C34 O32 1.247 . S
C34 O33 1.208 . S
C35 O40 1.247 . S
C35 O41 1.208 . S
C36 O28 1.315 . S
C36 O31 1.279 . S
C37 O38 1.315 . S
C37 O39 1.279 . S
O38 Cd30 2.223 . S
O38 C37 1.315 . S
O39 Cd29 2.240 . S
O39 C37 1.279 . S
O40 Cd30 2.297 . S
O40 C35 1.247 . S
O41 Cd30 2.439 . S
O41 C35 1.208 . S
O42 Cd43 2.223 . S
O42 C50 1.315 . S
Cd43 O42 2.223 . S
Cd43 O46 2.297 . S
Cd43 O47 2.439 . S
Cd43 O53 2.240 . S
Cd44 O45 2.240 . S
Cd44 O52 2.223 . S
Cd44 O54 2.297 . S
Cd44 O55 2.439 . S
O45 Cd44 2.240 . S
O45 C50 1.279 . S
O46 Cd43 2.297 . S
O46 C48 1.247 . S
O47 Cd43 2.439 . S
O47 C48 1.208 . S
C48 O46 1.247 . S
C48 O47 1.208 . S
C49 O54 1.247 . S
C49 O55 1.208 . S
C50 O42 1.315 . S
C50 O45 1.279 . S
C51 O52 1.315 . S
C51 O53 1.279 . S
O52 Cd44 2.223 . S
O52 C51 1.315 . S
O53 Cd43 2.240 . S
O53 C51 1.279 . S
O54 Cd44 2.297 . S
O54 C49 1.247 . S
O55 Cd44 2.439 . S
O55 C49 1.208 . S
O56 Cd57 2.223 . S
O56 C64 1.315 . S
Cd57 O56 2.223 . S
Cd57 O60 2.297 . S
Cd57 O61 2.439 . S
Cd57 O67 2.240 . S
Cd58 O59 2.240 . S
Cd58 O66 2.223 . S
Cd58 O68 2.297 . S
Cd58 O69 2.439 . S
O59 Cd58 2.240 . S
O59 C64 1.279 . S
O60 Cd57 2.297 . S
O60 C62 1.247 . S
O61 Cd57 2.439 . S
O61 C62 1.208 . S
C62 O60 1.247 . S
C62 O61 1.208 . S
C63 O68 1.247 . S
C63 O69 1.208 . S
C64 O56 1.315 . S
C64 O59 1.279 . S
C65 O66 1.315 . S
C65 O67 1.279 . S
O66 Cd58 2.223 . S
O66 C65 1.315 . S
O67 Cd57 2.240 . S
O67 C65 1.279 . S
O68 Cd58 2.297 . S
O68 C63 1.247 . S
O69 Cd58 2.439 . S
O69 C63 1.208 . S
O70 Cd71 2.223 . S
O70 C78 1.315 . S
Cd71 O70 2.223 . S
Cd71 O74 2.297 . S
Cd71 O75 2.439 . S
Cd71 O81 2.240 . S
Cd72 O73 2.240 . S
Cd72 O80 2.223 . S
Cd72 O82 2.297 . S
Cd72 O83 2.439 . S
O73 Cd72 2.240 . S
O73 C78 1.279 . S
O74 Cd71 2.297 . S
O74 C76 1.247 . S
O75 Cd71 2.439 . S
O75 C76 1.208 . S
C76 O74 1.247 . S
C76 O75 1.208 . S
C77 O82 1.247 . S
C77 O83 1.208 . S
C78 O70 1.315 . S
C78 O73 1.279 . S
C79 O80 1.315 . S
C79 O81 1.279 . S
O80 Cd72 2.223 . S
O80 C79 1.315 . S
O81 Cd71 2.240 . S
O81 C79 1.279 . S
O82 Cd72 2.297 . S
O82 C77 1.247 . S
O83 Cd72 2.439 . S
O83 C77 1.208 . S
O84 Cd85 2.223 . S
O84 C92 1.315 1_545 S
Cd85 O84 2.223 . S
Cd85 O88 2.297 . S
Cd85 O89 2.439 . S
Cd85 O95 2.240 . S
Cd86 O87 2.240 . S
Cd86 O94 2.223 . S
Cd86 O96 2.297 . S
Cd86 O97 2.439 . S
O87 Cd86 2.240 . S
O87 C92 1.279 . S
O88 Cd85 2.297 . S
O88 C90 1.247 . S
O89 Cd85 2.439 . S
O89 C90 1.208 . S
C90 O88 1.247 . S
C90 O89 1.208 . S
C91 O96 1.247 . S
C91 O97 1.208 . S
C92 O84 1.315 1_565 S
C92 O87 1.279 . S
C93 O94 1.315 1_545 S
C93 O95 1.279 . S
O94 Cd86 2.223 . S
O94 C93 1.315 1_565 S
O95 Cd85 2.240 . S
O95 C93 1.279 . S
O96 Cd86 2.297 . S
O96 C91 1.247 . S
O97 Cd86 2.439 . S
O97 C91 1.208 . S
O98 Cd99 2.223 . S
O98 C106 1.315 . S
Cd99 O98 2.223 . S
Cd99 O102 2.297 . S
Cd99 O103 2.439 . S
Cd99 O109 2.240 . S
Cd100 O101 2.240 . S
Cd100 O108 2.223 . S
Cd100 O110 2.297 . S
Cd100 O111 2.439 . S
O101 Cd100 2.240 . S
O101 C106 1.279 . S
O102 Cd99 2.297 . S
O102 C104 1.247 . S
O103 Cd99 2.439 . S
O103 C104 1.208 . S
C104 O102 1.247 . S
C104 O103 1.208 . S
C105 O110 1.247 . S
C105 O111 1.208 . S
C106 O98 1.315 . S
C106 O101 1.279 . S
C107 O108 1.315 . S
C107 O109 1.279 . S
O108 Cd100 2.223 . S
O108 C107 1.315 . S
O109 Cd99 2.240 . S
O109 C107 1.279 . S
O110 Cd100 2.297 . S
O110 C105 1.247 . S
O111 Cd100 2.439 . S
O111 C105 1.208 . S
O112 Cd113 2.223 . S
O112 C120 1.315 . S
Cd113 O112 2.223 . S
Cd113 O116 2.297 . S
Cd113 O117 2.439 . S
Cd113 O123 2.240 . S
Cd114 O115 2.240 . S
Cd114 O122 2.223 . S
Cd114 O124 2.297 . S
Cd114 O125 2.439 . S
O115 Cd114 2.240 . S
O115 C120 1.279 . S
O116 Cd113 2.297 . S
O116 C118 1.247 . S
O117 Cd113 2.439 . S
O117 C118 1.208 . S
C118 O116 1.247 . S
C118 O117 1.208 . S
C119 O124 1.247 . S
C119 O125 1.208 . S
C120 O112 1.315 . S
C120 O115 1.279 . S
C121 O122 1.315 . S
C121 O123 1.279 . S
O122 Cd114 2.223 . S
O122 C121 1.315 . S
O123 Cd113 2.240 . S
O123 C121 1.279 . S
O124 Cd114 2.297 . S
O124 C119 1.247 . S
O125 Cd114 2.439 . S
O125 C119 1.208 . S
O126 Cd127 2.223 . S
O126 C134 1.315 . S
Cd127 O126 2.223 . S
Cd127 O130 2.297 . S
Cd127 O131 2.439 . S
Cd127 O137 2.240 . S
Cd128 O129 2.240 . S
Cd128 O136 2.223 . S
Cd128 O138 2.297 . S
Cd128 O139 2.439 . S
O129 Cd128 2.240 . S
O129 C134 1.279 . S
O130 Cd127 2.297 . S
O130 C132 1.247 . S
O131 Cd127 2.439 . S
O131 C132 1.208 . S
C132 O130 1.247 . S
C132 O131 1.208 . S
C133 O138 1.247 . S
C133 O139 1.208 . S
C134 O126 1.315 . S
C134 O129 1.279 . S
C135 O136 1.315 . S
C135 O137 1.279 . S
O136 Cd128 2.223 . S
O136 C135 1.315 . S
O137 Cd127 2.240 . S
O137 C135 1.279 . S
O138 Cd128 2.297 . S
O138 C133 1.247 . S
O139 Cd128 2.439 . S
O139 C133 1.208 . S
O140 Cd141 2.223 . S
O140 C148 1.315 . S
Cd141 O140 2.223 . S
Cd141 O144 2.297 . S
Cd141 O145 2.439 . S
Cd141 O151 2.240 . S
Cd142 O143 2.240 . S
Cd142 O150 2.223 . S
Cd142 O152 2.297 . S
Cd142 O153 2.439 . S
O143 Cd142 2.240 . S
O143 C148 1.279 . S
O144 Cd141 2.297 . S
O144 C146 1.247 . S
O145 Cd141 2.439 . S
O145 C146 1.208 . S
C146 O144 1.247 . S
C146 O145 1.208 . S
C147 O152 1.247 . S
C147 O153 1.208 . S
C148 O140 1.315 . S
C148 O143 1.279 . S
C149 O150 1.315 . S
C149 O151 1.279 . S
O150 Cd142 2.223 . S
O150 C149 1.315 . S
O151 Cd141 2.240 . S
O151 C149 1.279 . S
O152 Cd142 2.297 . S
O152 C147 1.247 . S
O153 Cd142 2.439 . S
O153 C147 1.208 . S
O154 Cd155 2.223 . S
O154 C162 1.315 1_455 S
Cd155 O154 2.223 . S
Cd155 O158 2.297 . S
Cd155 O159 2.439 . S
Cd155 O165 2.240 . S
Cd156 O157 2.240 . S
Cd156 O164 2.223 . S
Cd156 O166 2.297 . S
Cd156 O167 2.439 . S
O157 Cd156 2.240 . S
O157 C162 1.279 . S
O158 Cd155 2.297 . S
O158 C160 1.247 . S
O159 Cd155 2.439 . S
O159 C160 1.208 . S
C160 O158 1.247 . S
C160 O159 1.208 . S
C161 O166 1.247 . S
C161 O167 1.208 . S
C162 O154 1.315 1_655 S
C162 O157 1.279 . S
C163 O164 1.315 1_455 S
C163 O165 1.279 . S
O164 Cd156 2.223 . S
O164 C163 1.315 1_655 S
O165 Cd155 2.240 . S
O165 C163 1.279 . S
O166 Cd156 2.297 . S
O166 C161 1.247 . S
O167 Cd156 2.439 . S
O167 C161 1.208 . S
C168 C169 1.391 . S
C168 C170 1.394 . S
C168 H184 0.931 . S
C169 C168 1.391 . S
C169 C173 1.376 1_655 S
C170 C168 1.394 . S
C170 C171 1.369 1_655 S
C170 C174 1.531 . S
C171 C170 1.369 1_455 S
C171 C172 1.410 . S
C171 C179 1.503 . S
C172 C171 1.410 . S
C172 C173 1.392 . S
C172 C175 1.511 . S
C173 C169 1.376 1_455 S
C173 C172 1.392 . S
C173 H185 0.929 . S
C174 C170 1.531 . S
C174 H186 0.960 . S
C174 H187 0.962 . S
C174 H188 0.960 . S
C175 C172 1.511 . S
C175 H189 0.961 . S
C175 H190 0.961 . S
C175 H191 0.961 . S
C176 C177 1.370 1_655 S
C176 C178 1.363 . S
C176 H192 0.931 . S
C177 C176 1.370 1_455 S
C177 C181 1.408 . S
C178 C176 1.363 . S
C178 C179 1.370 1_655 S
C178 C182 1.524 . S
C179 C171 1.503 . S
C179 C178 1.370 1_455 S
C179 C180 1.403 . S
C180 C179 1.403 . S
C180 C181 1.404 . S
C180 C183 1.539 . S
C181 C177 1.408 . S
C181 C180 1.404 . S
C181 H193 0.930 . S
C182 C178 1.524 . S
C182 H194 0.956 . S
C182 H195 0.961 . S
C182 H196 0.961 . S
C183 C180 1.539 . S
C183 H197 0.958 . S
C183 H198 0.961 . S
C183 H199 0.960 . S
H184 C168 0.931 . S
H185 C173 0.929 . S
H186 C174 0.960 . S
H187 C174 0.962 . S
H188 C174 0.960 . S
H189 C175 0.961 . S
H190 C175 0.961 . S
H191 C175 0.961 . S
H192 C176 0.931 . S
H193 C181 0.930 . S
H194 C182 0.956 . S
H195 C182 0.961 . S
H196 C182 0.961 . S
H197 C183 0.958 . S
H198 C183 0.961 . S
H199 C183 0.960 . S
C200 C201 1.391 . S
C200 C202 1.394 . S
C200 H216 0.931 . S
C201 C200 1.391 . S
C201 C205 1.376 1_545 S
C202 C200 1.394 . S
C202 C203 1.369 . S
C202 C206 1.531 . S
C203 C202 1.369 . S
C203 C204 1.410 1_545 S
C203 C211 1.503 1_545 S
C204 C203 1.410 1_565 S
C204 C205 1.392 . S
C204 C207 1.511 . S
C205 C201 1.376 1_565 S
C205 C204 1.392 . S
C205 H217 0.929 . S
C206 C202 1.531 . S
C206 H218 0.960 . S
C206 H219 0.962 . S
C206 H220 0.960 . S
C207 C204 1.511 . S
C207 H221 0.961 . S
C207 H222 0.961 . S
C207 H223 0.961 . S
C208 C209 1.370 . S
C208 C210 1.363 . S
C208 H224 0.931 . S
C209 C208 1.370 . S
C209 C213 1.408 1_565 S
C210 C208 1.363 . S
C210 C211 1.370 . S
C210 C214 1.524 . S
C211 C203 1.503 1_565 S
C211 C210 1.370 . S
C211 C212 1.403 1_565 S
C212 C211 1.403 1_545 S
C212 C213 1.404 . S
C212 C215 1.539 . S
C213 C209 1.408 1_545 S
C213 C212 1.404 . S
C213 H225 0.930 . S
C214 C210 1.524 . S
C214 H226 0.956 . S
C214 H227 0.961 . S
C214 H228 0.961 . S
C215 C212 1.539 . S
C215 H229 0.958 . S
C215 H230 0.961 . S
C215 H231 0.960 . S
H216 C200 0.931 . S
H217 C205 0.929 . S
H218 C206 0.960 . S
H219 C206 0.962 . S
H220 C206 0.960 . S
H221 C207 0.961 . S
H222 C207 0.961 . S
H223 C207 0.961 . S
H224 C208 0.931 . S
H225 C213 0.930 . S
H226 C214 0.956 . S
H227 C214 0.961 . S
H228 C214 0.961 . S
H229 C215 0.958 . S
H230 C215 0.961 . S
H231 C215 0.960 . S
C232 C233 1.391 . S
C232 C234 1.394 . S
C232 H248 0.931 . S
C233 C232 1.391 . S
C233 C237 1.376 . S
C234 C232 1.394 . S
C234 C235 1.369 . S
C234 C238 1.531 . S
C235 C234 1.369 . S
C235 C236 1.410 . S
C235 C243 1.503 . S
C236 C235 1.410 . S
C236 C237 1.392 . S
C236 C239 1.511 . S
C237 C233 1.376 . S
C237 C236 1.392 . S
C237 H249 0.929 . S
C238 C234 1.531 . S
C238 H250 0.960 . S
C238 H251 0.962 . S
C238 H252 0.960 . S
C239 C236 1.511 . S
C239 H253 0.961 . S
C239 H254 0.961 . S
C239 H255 0.961 . S
C240 C241 1.370 . S
C240 C242 1.363 . S
C240 H256 0.931 . S
C241 C240 1.370 . S
C241 C245 1.408 . S
C242 C240 1.363 . S
C242 C243 1.370 . S
C242 C246 1.524 . S
C243 C235 1.503 . S
C243 C242 1.370 . S
C243 C244 1.403 . S
C244 C243 1.403 . S
C244 C245 1.404 . S
C244 C247 1.539 . S
C245 C241 1.408 . S
C245 C244 1.404 . S
C245 H257 0.930 . S
C246 C242 1.524 . S
C246 H258 0.956 . S
C246 H259 0.961 . S
C246 H260 0.961 . S
C247 C244 1.539 . S
C247 H261 0.958 . S
C247 H262 0.961 . S
C247 H263 0.960 . S
H248 C232 0.931 . S
H249 C237 0.929 . S
H250 C238 0.960 . S
H251 C238 0.962 . S
H252 C238 0.960 . S
H253 C239 0.961 . S
H254 C239 0.961 . S
H255 C239 0.961 . S
H256 C240 0.931 . S
H257 C245 0.930 . S
H258 C246 0.956 . S
H259 C246 0.961 . S
H260 C246 0.961 . S
H261 C247 0.958 . S
H262 C247 0.961 . S
H263 C247 0.960 . S
C264 C265 1.391 . S
C264 C266 1.394 . S
C264 H280 0.931 . S
C265 C264 1.391 . S
C265 C269 1.376 . S
C266 C264 1.394 . S
C266 C267 1.369 . S
C266 C270 1.531 1_655 S
C267 C266 1.369 . S
C267 C268 1.410 . S
C267 C275 1.503 1_655 S
C268 C267 1.410 . S
C268 C269 1.392 . S
C268 C271 1.511 . S
C269 C265 1.376 . S
C269 C268 1.392 . S
C269 H281 0.929 . S
C270 C266 1.531 1_455 S
C270 H282 0.960 . S
C270 H283 0.962 . S
C270 H284 0.960 . S
C271 C268 1.511 . S
C271 H285 0.961 . S
C271 H286 0.961 . S
C271 H287 0.961 . S
C272 C273 1.370 . S
C272 C274 1.363 . S
C272 H288 0.931 . S
C273 C272 1.370 . S
C273 C277 1.408 . S
C274 C272 1.363 . S
C274 C275 1.370 . S
C274 C278 1.524 1_455 S
C275 C267 1.503 1_455 S
C275 C274 1.370 . S
C275 C276 1.403 . S
C276 C275 1.403 . S
C276 C277 1.404 . S
C276 C279 1.539 . S
C277 C273 1.408 . S
C277 C276 1.404 . S
C277 H289 0.930 . S
C278 C274 1.524 1_655 S
C278 H290 0.956 . S
C278 H291 0.961 . S
C278 H292 0.961 . S
C279 C276 1.539 . S
C279 H293 0.958 . S
C279 H294 0.961 . S
C279 H295 0.960 . S
H280 C264 0.931 . S
H281 C269 0.929 . S
H282 C270 0.960 . S
H283 C270 0.962 . S
H284 C270 0.960 . S
H285 C271 0.961 . S
H286 C271 0.961 . S
H287 C271 0.961 . S
H288 C272 0.931 . S
H289 C277 0.930 . S
H290 C278 0.956 . S
H291 C278 0.961 . S
H292 C278 0.961 . S
H293 C279 0.958 . S
H294 C279 0.961 . S
H295 C279 0.960 . S
C296 C297 1.391 . S
C296 C298 1.394 . S
C296 H312 0.931 . S
C297 C296 1.391 . S
C297 C301 1.376 . S
C298 C296 1.394 . S
C298 C299 1.369 . S
C298 C302 1.531 . S
C299 C298 1.369 . S
C299 C300 1.410 . S
C299 C307 1.503 1_545 S
C300 C299 1.410 . S
C300 C301 1.392 . S
C300 C303 1.511 1_545 S
C301 C297 1.376 . S
C301 C300 1.392 . S
C301 H313 0.929 . S
C302 C298 1.531 . S
C302 H314 0.960 . S
C302 H315 0.962 . S
C302 H316 0.960 . S
C303 C300 1.511 1_565 S
C303 H317 0.961 . S
C303 H318 0.961 . S
C303 H319 0.961 . S
C304 C305 1.370 . S
C304 C306 1.363 . S
C304 H320 0.931 . S
C305 C304 1.370 . S
C305 C309 1.408 . S
C306 C304 1.363 . S
C306 C307 1.370 . S
C306 C310 1.524 . S
C307 C299 1.503 1_565 S
C307 C306 1.370 . S
C307 C308 1.403 . S
C308 C307 1.403 . S
C308 C309 1.404 . S
C308 C311 1.539 1_565 S
C309 C305 1.408 . S
C309 C308 1.404 . S
C309 H321 0.930 . S
C310 C306 1.524 . S
C310 H322 0.956 . S
C310 H323 0.961 . S
C310 H324 0.961 . S
C311 C308 1.539 1_545 S
C311 H325 0.958 . S
C311 H326 0.961 1_545 S
C311 H327 0.960 . S
H312 C296 0.931 . S
H313 C301 0.929 . S
H314 C302 0.960 . S
H315 C302 0.962 . S
H316 C302 0.960 . S
H317 C303 0.961 . S
H318 C303 0.961 . S
H319 C303 0.961 . S
H320 C304 0.931 . S
H321 C309 0.930 . S
H322 C310 0.956 . S
H323 C310 0.961 . S
H324 C310 0.961 . S
H325 C311 0.958 . S
H326 C311 0.961 1_565 S
H327 C311 0.960 . S
C328 C329 1.391 . S
C328 C330 1.394 . S
C328 H344 0.931 . S
C329 C328 1.391 . S
C329 C333 1.376 . S
C330 C328 1.394 . S
C330 C331 1.369 . S
C330 C334 1.531 . S
C331 C330 1.369 . S
C331 C332 1.410 . S
C331 C339 1.503 . S
C332 C331 1.410 . S
C332 C333 1.392 . S
C332 C335 1.511 . S
C333 C329 1.376 . S
C333 C332 1.392 . S
C333 H345 0.929 . S
C334 C330 1.531 . S
C334 H346 0.960 . S
C334 H347 0.962 . S
C334 H348 0.960 . S
C335 C332 1.511 . S
C335 H349 0.961 . S
C335 H350 0.961 . S
C335 H351 0.961 . S
C336 C337 1.370 . S
C336 C338 1.363 . S
C336 H352 0.931 . S
C337 C336 1.370 . S
C337 C341 1.408 . S
C338 C336 1.363 . S
C338 C339 1.370 . S
C338 C342 1.524 . S
C339 C331 1.503 . S
C339 C338 1.370 . S
C339 C340 1.403 . S
C340 C339 1.403 . S
C340 C341 1.404 . S
C340 C343 1.539 . S
C341 C337 1.408 . S
C341 C340 1.404 . S
C341 H353 0.930 . S
C342 C338 1.524 . S
C342 H354 0.956 . S
C342 H355 0.961 . S
C342 H356 0.961 . S
C343 C340 1.539 . S
C343 H357 0.958 . S
C343 H358 0.961 . S
C343 H359 0.960 . S
H344 C328 0.931 . S
H345 C333 0.929 . S
H346 C334 0.960 . S
H347 C334 0.962 . S
H348 C334 0.960 . S
H349 C335 0.961 . S
H350 C335 0.961 . S
H351 C335 0.961 . S
H352 C336 0.931 . S
H353 C341 0.930 . S
H354 C342 0.956 . S
H355 C342 0.961 . S
H356 C342 0.961 . S
H357 C343 0.958 . S
H358 C343 0.961 . S
H359 C343 0.960 . S
C360 C361 1.391 . S
C360 C362 1.394 . S
C360 H376 0.931 . S
C361 C360 1.391 . S
C361 C365 1.376 . S
C362 C360 1.394 . S
C362 C363 1.369 . S
C362 C366 1.531 . S
C363 C362 1.369 . S
C363 C364 1.410 . S
C363 C371 1.503 1_554 S
C364 C363 1.410 . S
C364 C365 1.392 . S
C364 C367 1.511 1_554 S
C365 C361 1.376 . S
C365 C364 1.392 . S
C365 H377 0.929 . S
C366 C362 1.531 . S
C366 H378 0.960 . S
C366 H379 0.962 . S
C366 H380 0.960 . S
C367 C364 1.511 1_556 S
C367 H381 0.961 1_556 S
C367 H382 0.961 . S
C367 H383 0.961 . S
C368 C369 1.370 . S
C368 C370 1.363 . S
C368 H384 0.931 . S
C369 C368 1.370 . S
C369 C373 1.408 . S
C370 C368 1.363 . S
C370 C371 1.370 . S
C370 C374 1.524 . S
C371 C363 1.503 1_556 S
C371 C370 1.370 . S
C371 C372 1.403 . S
C372 C371 1.403 . S
C372 C373 1.404 . S
C372 C375 1.539 . S
C373 C369 1.408 . S
C373 C372 1.404 . S
C373 H385 0.930 . S
C374 C370 1.524 . S
C374 H386 1.001 . S
C374 H387 0.961 . S
C374 H388 0.961 . S
C375 C372 1.539 . S
C375 H389 0.958 . S
C375 H390 0.961 . S
C375 H391 0.960 . S
H376 C360 0.931 . S
H377 C365 0.929 . S
H378 C366 0.960 . S
H379 C366 0.962 . S
H380 C366 0.960 . S
H381 C367 0.961 1_554 S
H382 C367 0.961 . S
H383 C367 0.961 . S
H384 C368 0.931 . S
H385 C373 0.930 . S
H386 C374 1.001 . S
H387 C374 0.961 . S
H388 C374 0.961 . S
H389 C375 0.958 . S
H390 C375 0.961 . S
H391 C375 0.960 . S
C392 C393 1.391 . S
C392 C394 1.394 . S
C392 H408 0.931 . S
C393 C392 1.391 . S
C393 C397 1.376 . S
C394 C392 1.394 . S
C394 C395 1.369 . S
C394 C398 1.531 . S
C395 C394 1.369 . S
C395 C396 1.410 . S
C395 C403 1.503 . S
C396 C395 1.410 . S
C396 C397 1.392 . S
C396 C399 1.511 . S
C397 C393 1.376 . S
C397 C396 1.392 . S
C397 H409 0.929 . S
C398 C394 1.531 . S
C398 H410 0.960 . S
C398 H411 0.962 1_545 S
C398 H412 0.960 1_545 S
C399 C396 1.511 . S
C399 H413 0.961 . S
C399 H414 0.961 . S
C399 H415 0.961 . S
C400 C401 1.370 . S
C400 C402 1.363 . S
C400 H416 0.931 . S
C401 C400 1.370 . S
C401 C405 1.408 . S
C402 C400 1.363 . S
C402 C403 1.370 . S
C402 C406 1.524 . S
C403 C395 1.503 . S
C403 C402 1.370 . S
C403 C404 1.403 . S
C404 C403 1.403 . S
C404 C405 1.404 . S
C404 C407 1.539 . S
C405 C401 1.408 . S
C405 C404 1.404 . S
C405 H417 0.930 . S
C406 C402 1.524 . S
C406 H418 0.956 . S
C406 H419 0.961 . S
C406 H420 0.948 1_655 S
C407 C404 1.539 . S
C407 H421 0.958 . S
C407 H422 0.961 . S
C407 H423 0.960 . S
H408 C392 0.931 . S
H409 C397 0.929 . S
H410 C398 0.960 . S
H411 C398 0.962 1_565 S
H412 C398 0.960 1_565 S
H413 C399 0.961 . S
H414 C399 0.961 . S
H415 C399 0.961 . S
H416 C400 0.931 . S
H417 C405 0.930 . S
H418 C406 0.956 . S
H419 C406 0.961 . S
H420 C406 0.948 1_455 S
H421 C407 0.958 . S
H422 C407 0.961 . S
H423 C407 0.960 . S
C424 C425 1.391 . S
C424 C426 1.394 . S
C424 H440 0.931 1_565 S
C425 C424 1.391 . S
C425 C429 1.376 . S
C426 C424 1.394 . S
C426 C427 1.369 . S
C426 C430 1.531 1_565 S
C427 C426 1.369 . S
C427 C428 1.410 . S
C427 C435 1.503 . S
C428 C427 1.410 . S
C428 C429 1.392 . S
C428 C431 1.511 . S
C429 C425 1.376 . S
C429 C428 1.392 . S
C429 H441 0.929 . S
C430 C426 1.531 1_545 S
C430 H442 0.960 . S
C430 H443 0.962 . S
C430 H444 0.960 . S
C431 C428 1.511 . S
C431 H445 0.961 . S
C431 H446 0.961 . S
C431 H447 0.961 . S
C432 C433 1.370 . S
C432 C434 1.363 . S
C432 H448 0.931 . S
C433 C432 1.370 . S
C433 C437 1.408 . S
C434 C432 1.363 . S
C434 C435 1.370 . S
C434 C438 1.524 . S
C435 C427 1.503 . S
C435 C434 1.370 . S
C435 C436 1.403 . S
C436 C435 1.403 . S
C436 C437 1.404 . S
C436 C439 1.539 . S
C437 C433 1.408 . S
C437 C436 1.404 . S
C437 H449 0.930 . S
C438 C434 1.524 . S
C438 H450 0.956 . S
C438 H451 0.961 . S
C438 H452 0.961 . S
C439 C436 1.539 . S
C439 H453 0.958 . S
C439 H454 0.961 . S
C439 H455 0.960 . S
H440 C424 0.931 1_545 S
H441 C429 0.929 . S
H442 C430 0.960 . S
H443 C430 0.962 . S
H444 C430 0.960 . S
H445 C431 0.961 . S
H446 C431 0.961 . S
H447 C431 0.961 . S
H448 C432 0.931 . S
H449 C437 0.930 . S
H450 C438 0.956 . S
H451 C438 0.961 . S
H452 C438 0.961 . S
H453 C439 0.958 . S
H454 C439 0.961 . S
H455 C439 0.960 . S
C456 C457 1.391 . S
C456 C458 1.394 . S
C456 H472 0.931 . S
C457 C456 1.391 . S
C457 C461 1.376 . S
C458 C456 1.394 . S
C458 C459 1.369 . S
C458 C462 1.535 . S
C459 C458 1.369 . S
C459 C460 1.410 . S
C459 C467 1.503 1_554 S
C460 C459 1.410 . S
C460 C461 1.392 . S
C460 C463 1.511 . S
C461 C457 1.376 . S
C461 C460 1.392 . S
C461 H473 0.929 . S
C462 C458 1.535 . S
C462 H474 0.954 1_554 S
C462 H475 0.962 1_554 S
C462 H476 0.963 . S
C463 C460 1.511 . S
C463 H477 0.961 . S
C463 H478 0.961 1_554 S
C463 H479 0.961 . S
C464 C465 1.370 . S
C464 C466 1.363 . S
C464 H480 0.931 . S
C465 C464 1.370 . S
C465 C469 1.408 . S
C466 C464 1.363 . S
C466 C467 1.370 . S
C466 C470 1.524 . S
C467 C459 1.503 1_556 S
C467 C466 1.370 . S
C467 C468 1.403 . S
C468 C467 1.403 . S
C468 C469 1.404 . S
C468 C471 1.539 . S
C469 C465 1.408 . S
C469 C468 1.404 . S
C469 H481 0.930 . S
C470 C466 1.524 . S
C470 H482 0.985 . S
C470 H483 0.961 1_556 S
C470 H484 0.961 . S
C471 C468 1.539 . S
C471 H485 0.958 . S
C471 H486 0.961 . S
C471 H487 0.960 . S
H472 C456 0.931 . S
H473 C461 0.929 . S
H474 C462 0.954 1_556 S
H475 C462 0.962 1_556 S
H476 C462 0.963 . S
H477 C463 0.961 . S
H478 C463 0.961 1_556 S
H479 C463 0.961 . S
H480 C464 0.931 . S
H481 C469 0.930 . S
H482 C470 0.985 . S
H483 C470 0.961 1_554 S
H484 C470 0.961 . S
H485 C471 0.958 . S
H486 C471 0.961 . S
H487 C471 0.960 . S
C488 C489 1.391 . S
C488 C490 1.394 . S
C488 H504 0.931 . S
C489 C488 1.391 . S
C489 C493 1.376 . S
C490 C488 1.394 . S
C490 C491 1.369 . S
C490 C494 1.531 . S
C491 C490 1.369 . S
C491 C492 1.410 . S
C491 C499 1.503 . S
C492 C491 1.410 . S
C492 C493 1.392 . S
C492 C495 1.511 . S
C493 C489 1.376 . S
C493 C492 1.392 . S
C493 H505 0.929 . S
C494 C490 1.531 . S
C494 H506 0.960 . S
C494 H507 0.962 . S
C494 H508 0.960 . S
C495 C492 1.511 . S
C495 H509 0.961 . S
C495 H510 0.961 . S
C495 H511 0.961 . S
C496 C497 1.370 . S
C496 C498 1.363 . S
C496 H512 0.931 . S
C497 C496 1.370 . S
C497 C501 1.408 . S
C498 C496 1.363 . S
C498 C499 1.370 . S
C498 C502 1.524 . S
C499 C491 1.503 . S
C499 C498 1.370 . S
C499 C500 1.403 . S
C500 C499 1.403 . S
C500 C501 1.404 . S
C500 C503 1.539 . S
C501 C497 1.408 . S
C501 C500 1.404 . S
C501 H513 0.930 . S
C502 C498 1.524 . S
C502 H514 0.956 . S
C502 H515 0.961 . S
C502 H516 0.961 . S
C503 C500 1.539 . S
C503 H517 0.958 . S
C503 H518 0.961 . S
C503 H519 0.960 . S
H504 C488 0.931 . S
H505 C493 0.929 . S
H506 C494 0.960 . S
H507 C494 0.962 . S
H508 C494 0.960 . S
H509 C495 0.961 . S
H510 C495 0.961 . S
H511 C495 0.961 . S
H512 C496 0.931 . S
H513 C501 0.930 . S
H514 C502 0.956 . S
H515 C502 0.961 . S
H516 C502 0.961 . S
H517 C503 0.958 . S
H518 C503 0.961 . S
H519 C503 0.960 . S
C520 C521 1.391 . S
C520 C522 1.394 . S
C520 H536 0.931 . S
C521 C520 1.391 . S
C521 C525 1.376 . S
C522 C520 1.394 . S
C522 C523 1.369 . S
C522 C526 1.531 . S
C523 C522 1.369 . S
C523 C524 1.410 . S
C523 C531 1.503 . S
C524 C523 1.410 . S
C524 C525 1.392 . S
C524 C527 1.511 . S
C525 C521 1.376 . S
C525 C524 1.392 . S
C525 H537 0.929 . S
C526 C522 1.531 . S
C526 H538 0.960 . S
C526 H539 0.962 . S
C526 H540 0.960 . S
C527 C524 1.511 . S
C527 H541 0.961 . S
C527 H542 0.961 . S
C527 H543 0.961 . S
C528 C529 1.370 . S
C528 C530 1.363 . S
C528 H544 0.931 . S
C529 C528 1.370 . S
C529 C533 1.408 . S
C530 C528 1.363 . S
C530 C531 1.370 . S
C530 C534 1.524 . S
C531 C523 1.503 . S
C531 C530 1.370 . S
C531 C532 1.403 . S
C532 C531 1.403 . S
C532 C533 1.404 . S
C532 C535 1.539 . S
C533 C529 1.408 . S
C533 C532 1.404 . S
C533 H545 0.930 . S
C534 C530 1.524 . S
C534 H546 0.956 . S
C534 H547 0.961 . S
C534 H548 0.961 . S
C535 C532 1.539 . S
C535 H549 0.958 . S
C535 H550 0.961 . S
C535 H551 0.960 . S
H536 C520 0.931 . S
H537 C525 0.929 . S
H538 C526 0.960 . S
H539 C526 0.962 . S
H540 C526 0.960 . S
H541 C527 0.961 . S
H542 C527 0.961 . S
H543 C527 0.961 . S
H544 C528 0.931 . S
H545 C533 0.930 . S
H546 C534 0.956 . S
H547 C534 0.961 . S
H548 C534 0.961 . S
H549 C535 0.958 . S
H550 C535 0.961 . S
H551 C535 0.960 . S
C552 C553 1.391 . S
C552 C554 1.394 . S
C552 H568 0.931 . S
C553 C552 1.391 . S
C553 C557 1.376 . S
C554 C552 1.394 . S
C554 C555 1.369 . S
C554 C558 1.531 . S
C555 C554 1.369 . S
C555 C556 1.410 . S
C555 C563 1.503 . S
C556 C555 1.410 . S
C556 C557 1.392 . S
C556 C559 1.511 1_655 S
C557 C553 1.376 . S
C557 C556 1.392 . S
C557 H569 0.930 1_655 S
C558 C554 1.531 . S
C558 H570 0.960 . S
C558 H571 0.962 . S
C558 H572 0.960 . S
C559 C556 1.511 1_455 S
C559 H573 0.961 . S
C559 H574 0.961 . S
C559 H575 0.961 . S
C560 C561 1.370 . S
C560 C562 1.363 . S
C560 H576 0.931 . S
C561 C560 1.370 . S
C561 C565 1.408 . S
C562 C560 1.363 . S
C562 C563 1.370 . S
C562 C566 1.524 . S
C563 C555 1.503 . S
C563 C562 1.370 . S
C563 C564 1.403 . S
C564 C563 1.403 . S
C564 C565 1.404 . S
C564 C567 1.539 . S
C565 C561 1.408 . S
C565 C564 1.404 . S
C565 H577 0.930 . S
C566 C562 1.524 . S
C566 H578 0.956 . S
C566 H579 0.961 . S
C566 H580 0.961 . S
C567 C564 1.539 . S
C567 H581 0.958 . S
C567 H582 0.961 1_655 S
C567 H583 0.961 1_655 S
H568 C552 0.931 . S
H569 C557 0.930 1_455 S
H570 C558 0.960 . S
H571 C558 0.962 . S
H572 C558 0.960 . S
H573 C559 0.961 . S
H574 C559 0.961 . S
H575 C559 0.961 . S
H576 C560 0.931 . S
H577 C565 0.930 . S
H578 C566 0.956 . S
H579 C566 0.961 . S
H580 C566 0.961 . S
H581 C567 0.958 . S
H582 C567 0.961 1_455 S
H583 C567 0.961 1_455 S
C584 C585 1.391 . S
C584 C586 1.394 . S
C584 H600 0.931 . S
C585 C584 1.391 . S
C585 C589 1.376 . S
C586 C584 1.394 . S
C586 C587 1.369 . S
C586 C590 1.531 1_565 S
C587 C586 1.369 . S
C587 C588 1.410 . S
C587 C595 1.503 . S
C588 C587 1.410 . S
C588 C589 1.392 . S
C588 C591 1.511 . S
C589 C585 1.376 . S
C589 C588 1.392 . S
C589 H601 0.929 . S
C590 C586 1.531 1_545 S
C590 H602 0.960 1_545 S
C590 H603 0.962 . S
C590 H604 0.960 . S
C591 C588 1.511 . S
C591 H605 0.961 . S
C591 H606 0.961 . S
C591 H607 0.961 . S
C592 C593 1.370 . S
C592 C594 1.363 . S
C592 H608 0.931 . S
C593 C592 1.370 . S
C593 C597 1.408 . S
C594 C592 1.363 . S
C594 C595 1.370 . S
C594 C598 1.524 . S
C595 C587 1.503 . S
C595 C594 1.370 . S
C595 C596 1.403 . S
C596 C595 1.403 . S
C596 C597 1.404 . S
C596 C599 1.539 . S
C597 C593 1.408 . S
C597 C596 1.404 . S
C597 H609 0.930 . S
C598 C594 1.524 . S
C598 H610 0.956 1_565 S
C598 H611 0.961 . S
C598 H612 0.961 1_565 S
C599 C596 1.539 . S
C599 H613 0.958 . S
C599 H614 0.961 . S
C599 H615 0.960 . S
H600 C584 0.931 . S
H601 C589 0.929 . S
H602 C590 0.960 1_565 S
H603 C590 0.962 . S
H604 C590 0.960 . S
H605 C591 0.961 . S
H606 C591 0.961 . S
H607 C591 0.961 . S
H608 C592 0.931 . S
H609 C597 0.930 . S
H610 C598 0.956 1_545 S
H611 C598 0.961 . S
H612 C598 0.961 1_545 S
H613 C599 0.958 . S
H614 C599 0.961 . S
H615 C599 0.960 . S
C616 C617 1.391 . S
C616 C618 1.394 . S
C616 H632 0.931 . S
C617 C616 1.391 . S
C617 C621 1.376 . S
C618 C616 1.394 . S
C618 C619 1.369 . S
C618 C622 1.531 . S
C619 C618 1.369 . S
C619 C620 1.410 . S
C619 C627 1.503 . S
C620 C619 1.410 . S
C620 C621 1.392 . S
C620 C623 1.511 . S
C621 C617 1.376 . S
C621 C620 1.392 . S
C621 H633 0.929 . S
C622 C618 1.531 . S
C622 H634 0.960 . S
C622 H635 0.962 . S
C622 H636 0.960 . S
C623 C620 1.511 . S
C623 H637 0.961 . S
C623 H638 0.961 . S
C623 H639 0.961 . S
C624 C625 1.370 . S
C624 C626 1.363 . S
C624 H640 0.931 . S
C625 C624 1.370 . S
C625 C629 1.408 . S
C626 C624 1.363 . S
C626 C627 1.370 . S
C626 C630 1.524 . S
C627 C619 1.503 . S
C627 C626 1.370 . S
C627 C628 1.403 . S
C628 C627 1.403 . S
C628 C629 1.404 . S
C628 C631 1.539 . S
C629 C625 1.408 . S
C629 C628 1.404 . S
C629 H641 0.930 . S
C630 C626 1.524 . S
C630 H642 0.956 . S
C630 H643 0.961 . S
C630 H644 0.961 . S
C631 C628 1.539 . S
C631 H645 0.958 . S
C631 H646 0.961 . S
C631 H647 0.960 . S
H632 C616 0.931 . S
H633 C621 0.929 . S
H634 C622 0.960 . S
H635 C622 0.962 . S
H636 C622 0.960 . S
H637 C623 0.961 . S
H638 C623 0.961 . S
H639 C623 0.961 . S
H640 C624 0.931 . S
H641 C629 0.930 . S
H642 C630 0.956 . S
H643 C630 0.961 . S
H644 C630 0.961 . S
H645 C631 0.958 . S
H646 C631 0.961 . S
H647 C631 0.960 . S
C648 C649 1.391 . S
C648 C650 1.394 . S
C648 H664 0.931 . S
C649 C648 1.391 . S
C649 C653 1.376 . S
C650 C648 1.394 . S
C650 C651 1.369 . S
C650 C654 1.531 1_545 S
C651 C650 1.369 . S
C651 C652 1.410 . S
C651 C659 1.503 . S
C652 C651 1.410 . S
C652 C653 1.392 . S
C652 C655 1.511 . S
C653 C649 1.376 . S
C653 C652 1.392 . S
C653 H665 0.929 . S
C654 C650 1.531 1_565 S
C654 H666 0.960 . S
C654 H667 0.962 . S
C654 H668 0.960 . S
C655 C652 1.511 . S
C655 H669 0.961 . S
C655 H670 0.961 . S
C655 H671 0.961 . S
C656 C657 1.370 . S
C656 C658 1.363 . S
C656 H672 0.931 . S
C657 C656 1.370 . S
C657 C661 1.408 . S
C658 C656 1.363 . S
C658 C659 1.370 . S
C658 C662 1.524 . S
C659 C651 1.503 . S
C659 C658 1.370 . S
C659 C660 1.403 . S
C660 C659 1.403 . S
C660 C661 1.404 . S
C660 C663 1.539 . S
C661 C657 1.408 . S
C661 C660 1.404 . S
C661 H673 0.930 . S
C662 C658 1.524 . S
C662 H674 0.956 . S
C662 H675 0.961 . S
C662 H676 0.961 . S
C663 C660 1.539 . S
C663 H677 0.958 1_545 S
C663 H678 0.961 . S
C663 H679 0.960 . S
H664 C648 0.931 . S
H665 C653 0.929 . S
H666 C654 0.960 . S
H667 C654 0.962 . S
H668 C654 0.960 . S
H669 C655 0.961 . S
H670 C655 0.961 . S
H671 C655 0.961 . S
H672 C656 0.931 . S
H673 C661 0.930 . S
H674 C662 0.956 . S
H675 C662 0.961 . S
H676 C662 0.961 . S
H677 C663 0.958 1_565 S
H678 C663 0.961 . S
H679 C663 0.960 . S
C680 C681 1.391 . S
C680 C682 1.394 . S
C680 H696 0.931 . S
C681 C680 1.391 . S
C681 C685 1.376 . S
C682 C680 1.394 . S
C682 C683 1.369 . S
C682 C686 1.531 . S
C683 C682 1.369 . S
C683 C684 1.410 . S
C683 C691 1.503 . S
C684 C683 1.410 . S
C684 C685 1.392 . S
C684 C687 1.511 . S
C685 C681 1.376 . S
C685 C684 1.392 . S
C685 H697 0.929 . S
C686 C682 1.531 . S
C686 H698 0.960 . S
C686 H699 0.962 . S
C686 H700 0.960 . S
C687 C684 1.511 . S
C687 H701 0.961 . S
C687 H702 0.961 . S
C687 H703 0.961 . S
C688 C689 1.370 . S
C688 C690 1.363 . S
C688 H704 0.931 . S
C689 C688 1.370 . S
C689 C693 1.408 . S
C690 C688 1.363 . S
C690 C691 1.370 . S
C690 C694 1.524 . S
C691 C683 1.503 . S
C691 C690 1.370 . S
C691 C692 1.403 . S
C692 C691 1.403 . S
C692 C693 1.404 . S
C692 C695 1.539 . S
C693 C689 1.408 . S
C693 C692 1.404 . S
C693 H705 0.930 . S
C694 C690 1.524 . S
C694 H706 0.956 . S
C694 H707 0.961 . S
C694 H708 0.961 . S
C695 C692 1.539 . S
C695 H709 0.958 . S
C695 H710 0.961 . S
C695 H711 0.960 . S
H696 C680 0.931 . S
H697 C685 0.929 . S
H698 C686 0.960 . S
H699 C686 0.962 . S
H700 C686 0.960 . S
H701 C687 0.961 . S
H702 C687 0.961 . S
H703 C687 0.961 . S
H704 C688 0.931 . S
H705 C693 0.930 . S
H706 C694 0.956 . S
H707 C694 0.961 . S
H708 C694 0.961 . S
H709 C695 0.958 . S
H710 C695 0.961 . S
H711 C695 0.960 . S
C712 C713 1.391 . S
C712 C714 1.394 . S
C712 H728 0.931 . S
C713 C712 1.391 . S
C713 C717 1.376 . S
C714 C712 1.394 . S
C714 C715 1.369 . S
C714 C718 1.531 . S
C715 C714 1.369 . S
C715 C716 1.410 . S
C715 C723 1.503 . S
C716 C715 1.410 . S
C716 C717 1.392 . S
C716 C719 1.511 . S
C717 C713 1.376 . S
C717 C716 1.392 . S
C717 H729 0.929 . S
C718 C714 1.531 . S
C718 H730 0.960 . S
C718 H731 0.962 . S
C718 H732 0.960 . S
C719 C716 1.511 . S
C719 H733 0.961 . S
C719 H734 0.961 . S
C719 H735 0.961 1_455 S
C720 C721 1.370 . S
C720 C722 1.363 . S
C720 H736 0.931 . S
C721 C720 1.370 . S
C721 C725 1.408 . S
C722 C720 1.363 . S
C722 C723 1.370 . S
C722 C726 1.524 . S
C723 C715 1.503 . S
C723 C722 1.370 . S
C723 C724 1.403 . S
C724 C723 1.403 . S
C724 C725 1.404 . S
C724 C727 1.539 1_455 S
C725 C721 1.408 . S
C725 C724 1.404 . S
C725 H737 0.930 1_455 S
C726 C722 1.524 . S
C726 H738 0.956 . S
C726 H739 0.961 . S
C726 H740 0.961 . S
C727 C724 1.539 1_655 S
C727 H741 0.958 . S
C727 H742 0.961 . S
C727 H743 0.960 . S
H728 C712 0.931 . S
H729 C717 0.929 . S
H730 C718 0.960 . S
H731 C718 0.962 . S
H732 C718 0.960 . S
H733 C719 0.961 . S
H734 C719 0.961 . S
H735 C719 0.961 1_655 S
H736 C720 0.931 . S
H737 C725 0.930 1_655 S
H738 C726 0.956 . S
H739 C726 0.961 . S
H740 C726 0.961 . S
H741 C727 0.958 . S
H742 C727 0.961 . S
H743 C727 0.960 . S
C744 C745 1.391 . S
C744 C746 1.394 1_545 S
C744 H760 0.931 . S
C745 C744 1.391 . S
C745 C749 1.376 . S
C746 C744 1.394 1_565 S
C746 C747 1.369 . S
C746 C750 1.531 . S
C747 C746 1.369 . S
C747 C748 1.410 . S
C747 C755 1.503 . S
C748 C747 1.410 . S
C748 C749 1.392 1_565 S
C748 C751 1.511 . S
C749 C745 1.376 . S
C749 C748 1.392 1_545 S
C749 H761 0.929 . S
C750 C746 1.531 . S
C750 H762 0.960 . S
C750 H763 0.962 . S
C750 H764 0.960 . S
C751 C748 1.511 . S
C751 H765 0.961 . S
C751 H766 0.961 . S
C751 H767 0.961 1_655 S
C752 C753 1.370 . S
C752 C754 1.363 . S
C752 H768 0.931 . S
C753 C752 1.370 . S
C753 C757 1.408 . S
C754 C752 1.363 . S
C754 C755 1.370 . S
C754 C758 1.524 . S
C755 C747 1.503 . S
C755 C754 1.370 . S
C755 C756 1.403 . S
C756 C755 1.403 . S
C756 C757 1.404 . S
C756 C759 1.539 1_655 S
C757 C753 1.408 . S
C757 C756 1.404 . S
C757 H769 0.930 . S
C758 C754 1.524 . S
C758 H770 0.956 . S
C758 H771 0.961 . S
C758 H772 0.961 . S
C759 C756 1.539 1_455 S
C759 H773 0.958 . S
C759 H774 0.961 . S
C759 H775 0.960 . S
H760 C744 0.931 . S
H761 C749 0.929 . S
H762 C750 0.960 . S
H763 C750 0.962 . S
H764 C750 0.960 . S
H765 C751 0.961 . S
H766 C751 0.961 . S
H767 C751 0.961 1_455 S
H768 C752 0.931 . S
H769 C757 0.930 . S
H770 C758 0.956 . S
H771 C758 0.961 . S
H772 C758 0.961 . S
H773 C759 0.958 . S
H774 C759 0.961 . S
H775 C759 0.960 . S
C776 C777 1.391 . S
C776 C778 1.394 . S
C776 H792 0.931 . S
C777 C776 1.391 . S
C777 C781 1.376 . S
C778 C776 1.394 . S
C778 C779 1.369 . S
C778 C782 1.531 . S
C779 C778 1.369 . S
C779 C780 1.410 . S
C779 C787 1.503 . S
C780 C779 1.410 . S
C780 C781 1.392 . S
C780 C783 1.511 1_665 S
C781 C777 1.376 . S
C781 C780 1.392 . S
C781 H793 0.929 1_565 S
C782 C778 1.531 . S
C782 H794 0.960 . S
C782 H795 0.962 . S
C782 H796 0.960 . S
C783 C780 1.511 1_445 S
C783 H797 0.961 . S
C783 H798 0.961 . S
C783 H799 0.961 . S
C784 C785 1.370 . S
C784 C786 1.363 . S
C784 H800 0.931 . S
C785 C784 1.370 . S
C785 C789 1.408 . S
C786 C784 1.363 . S
C786 C787 1.370 1_455 S
C786 C790 1.524 1_455 S
C787 C779 1.503 . S
C787 C786 1.370 1_655 S
C787 C788 1.403 1_655 S
C788 C787 1.403 1_455 S
C788 C789 1.404 . S
C788 C791 1.539 1_455 S
C789 C785 1.408 . S
C789 C788 1.404 . S
C789 H801 0.930 . S
C790 C786 1.524 1_655 S
C790 H802 0.956 . S
C790 H803 0.961 . S
C790 H804 0.961 1_655 S
C791 C788 1.539 1_655 S
C791 H805 0.958 . S
C791 H806 0.961 1_655 S
C791 H807 0.960 . S
H792 C776 0.931 . S
H793 C781 0.929 1_545 S
H794 C782 0.960 . S
H795 C782 0.962 . S
H796 C782 0.960 . S
H797 C783 0.961 . S
H798 C783 0.961 . S
H799 C783 0.961 . S
H800 C784 0.931 . S
H801 C789 0.930 . S
H802 C790 0.956 . S
H803 C790 0.961 . S
H804 C790 0.961 1_455 S
H805 C791 0.958 . S
H806 C791 0.961 1_455 S
H807 C791 0.960 . S
C808 C809 1.391 . S
C808 C810 1.394 1_455 S
C808 H824 0.931 . S
C809 C808 1.391 . S
C809 C813 1.376 . S
C810 C808 1.394 1_655 S
C810 C811 1.369 . S
C810 C814 1.531 . S
C811 C810 1.369 . S
C811 C812 1.410 . S
C811 C819 1.503 . S
C812 C811 1.410 . S
C812 C813 1.392 1_655 S
C812 C815 1.511 . S
C813 C809 1.376 . S
C813 C812 1.392 1_455 S
C813 H825 0.929 . S
C814 C810 1.531 . S
C814 H826 0.960 . S
C814 H827 0.962 . S
C814 H828 0.960 1_655 S
C815 C812 1.511 . S
C815 H829 0.961 . S
C815 H830 0.961 . S
C815 H831 0.961 . S
C816 C817 1.370 . S
C816 C818 1.363 1_565 S
C816 H832 0.931 . S
C817 C816 1.370 . S
C817 C821 1.408 . S
C818 C816 1.363 1_545 S
C818 C819 1.370 . S
C818 C822 1.524 . S
C819 C811 1.503 . S
C819 C818 1.370 . S
C819 C820 1.403 1_545 S
C820 C819 1.403 1_565 S
C820 C821 1.404 . S
C820 C823 1.539 . S
C821 C817 1.408 . S
C821 C820 1.404 . S
C821 H833 0.930 . S
C822 C818 1.524 . S
C822 H834 0.956 . S
C822 H835 0.961 . S
C822 H836 0.961 . S
C823 C820 1.539 . S
C823 H837 0.958 . S
C823 H838 0.961 . S
C823 H839 0.960 1_565 S
H824 C808 0.931 . S
H825 C813 0.929 . S
H826 C814 0.960 . S
H827 C814 0.962 . S
H828 C814 0.960 1_455 S
H829 C815 0.961 . S
H830 C815 0.961 . S
H831 C815 0.961 . S
H832 C816 0.931 . S
H833 C821 0.930 . S
H834 C822 0.956 . S
H835 C822 0.961 . S
H836 C822 0.961 . S
H837 C823 0.958 . S
H838 C823 0.961 . S
H839 C823 0.960 1_545 S
C840 C841 1.391 . S
C840 C842 1.394 . S
C840 H856 0.931 . S
C841 C840 1.391 . S
C841 C845 1.376 . S
C842 C840 1.394 . S
C842 C843 1.369 . S
C842 C846 1.531 . S
C843 C842 1.369 . S
C843 C844 1.410 . S
C843 C851 1.503 1_655 S
C844 C843 1.410 . S
C844 C845 1.392 . S
C844 C847 1.511 . S
C845 C841 1.376 . S
C845 C844 1.392 . S
C845 H857 0.929 . S
C846 C842 1.531 . S
C846 H858 0.960 1_655 S
C846 H859 0.962 . S
C846 H860 0.960 . S
C847 C844 1.511 . S
C847 H861 0.961 . S
C847 H862 0.961 . S
C847 H863 0.961 . S
C848 C849 1.370 . S
C848 C850 1.363 . S
C848 H864 0.931 . S
C849 C848 1.370 . S
C849 C853 1.408 . S
C850 C848 1.363 . S
C850 C851 1.370 . S
C850 C854 1.524 1_445 S
C851 C843 1.503 1_455 S
C851 C850 1.370 . S
C851 C852 1.403 . S
C852 C851 1.403 . S
C852 C853 1.404 . S
C852 C855 1.539 . S
C853 C849 1.408 . S
C853 C852 1.404 . S
C853 H865 0.930 . S
C854 C850 1.524 1_665 S
C854 H866 0.956 . S
C854 H867 0.961 . S
C854 H868 0.961 . S
C855 C852 1.539 . S
C855 H869 0.958 . S
C855 H870 0.961 . S
C855 H871 0.960 . S
H856 C840 0.931 . S
H857 C845 0.929 . S
H858 C846 0.960 1_455 S
H859 C846 0.962 . S
H860 C846 0.960 . S
H861 C847 0.961 . S
H862 C847 0.961 . S
H863 C847 0.961 . S
H864 C848 0.931 . S
H865 C853 0.930 . S
H866 C854 0.956 . S
H867 C854 0.961 . S
H868 C854 0.961 . S
H869 C855 0.958 . S
H870 C855 0.961 . S
H871 C855 0.960 . S
C872 C873 1.391 . S
C872 C874 1.394 . S
C872 H888 0.931 . S
C873 C872 1.391 . S
C873 C877 1.376 . S
C874 C872 1.394 . S
C874 C875 1.369 1_655 S
C874 C878 1.531 . S
C875 C874 1.369 1_455 S
C875 C876 1.410 . S
C875 C883 1.503 . S
C876 C875 1.410 . S
C876 C877 1.392 1_455 S
C876 C879 1.511 . S
C877 C873 1.376 . S
C877 C876 1.392 1_655 S
C877 H889 0.929 . S
C878 C874 1.531 . S
C878 H890 0.960 . S
C878 H891 0.962 . S
C878 H892 0.960 . S
C879 C876 1.511 . S
C879 H893 0.961 . S
C879 H894 0.961 . S
C879 H895 0.961 . S
C880 C881 1.370 . S
C880 C882 1.363 1_545 S
C880 H896 0.931 . S
C881 C880 1.370 . S
C881 C885 1.408 . S
C882 C880 1.363 1_565 S
C882 C883 1.370 . S
C882 C886 1.524 . S
C883 C875 1.503 . S
C883 C882 1.370 . S
C883 C884 1.403 . S
C884 C883 1.403 . S
C884 C885 1.404 1_565 S
C884 C887 1.539 . S
C885 C881 1.408 . S
C885 C884 1.404 1_545 S
C885 H897 0.930 . S
C886 C882 1.524 . S
C886 H898 0.956 . S
C886 H899 0.961 . S
C886 H900 0.961 . S
C887 C884 1.539 . S
C887 H901 0.958 . S
C887 H902 0.961 . S
C887 H903 0.960 . S
H888 C872 0.931 . S
H889 C877 0.929 . S
H890 C878 0.960 . S
H891 C878 0.962 . S
H892 C878 0.960 . S
H893 C879 0.961 . S
H894 C879 0.961 . S
H895 C879 0.961 . S
H896 C880 0.931 . S
H897 C885 0.930 . S
H898 C886 0.956 . S
H899 C886 0.961 . S
H900 C886 0.961 . S
H901 C887 0.958 . S
H902 C887 0.961 . S
H903 C887 0.960 . S
C904 C905 1.391 . S
C904 C906 1.394 . S
C904 H920 0.931 . S
C905 C904 1.391 . S
C905 C909 1.376 . S
C906 C904 1.394 . S
C906 C907 1.369 . S
C906 C910 1.531 . S
C907 C906 1.369 . S
C907 C908 1.410 . S
C907 C915 1.503 1_565 S
C908 C907 1.410 . S
C908 C909 1.392 . S
C908 C911 1.511 . S
C909 C905 1.376 . S
C909 C908 1.392 . S
C909 H921 0.929 . S
C910 C906 1.531 . S
C910 H922 0.960 . S
C910 H923 0.962 . S
C910 H924 0.960 . S
C911 C908 1.511 . S
C911 H925 0.961 . S
C911 H926 0.961 1_565 S
C911 H927 0.961 1_565 S
C912 C913 1.370 . S
C912 C914 1.363 . S
C912 H928 0.931 1_455 S
C913 C912 1.370 . S
C913 C917 1.408 . S
C914 C912 1.363 . S
C914 C915 1.370 . S
C914 C918 1.524 1_445 S
C915 C907 1.503 1_545 S
C915 C914 1.370 . S
C915 C916 1.403 . S
C916 C915 1.403 . S
C916 C917 1.404 . S
C916 C919 1.539 . S
C917 C913 1.408 . S
C917 C916 1.404 . S
C917 H929 0.930 . S
C918 C914 1.524 1_665 S
C918 H930 0.956 . S
C918 H931 0.961 . S
C918 H932 0.961 . S
C919 C916 1.539 . S
C919 H933 0.958 . S
C919 H934 0.961 . S
C919 H935 0.960 . S
H920 C904 0.931 . S
H921 C909 0.929 . S
H922 C910 0.960 . S
H923 C910 0.962 . S
H924 C910 0.960 . S
H925 C911 0.961 . S
H926 C911 0.961 1_545 S
H927 C911 0.961 1_545 S
H928 C912 0.931 1_655 S
H929 C917 0.930 . S
H930 C918 0.956 . S
H931 C918 0.961 . S
H932 C918 0.961 . S
H933 C919 0.958 . S
H934 C919 0.961 . S
H935 C919 0.960 . S
C169 C162 0.916 . S
C177 C8 0.982 . S
C201 C22 1.071 . S
C209 C92 1.014 . S
C233 C36 2.073 . S
C241 C106 2.062 . S
C265 C50 1.830 . S
C273 C120 1.853 . S
C297 C134 1.743 . S
C305 C64 1.688 . S
C329 C78 1.128 . S
C337 C148 1.107 . S
C361 C7 1.300 . S
C369 C147 1.309 . S
C393 C21 1.346 . S
C401 C161 1.344 . S
C425 C35 1.860 . S
C433 C91 1.959 . S
C457 C49 2.404 . S
C465 C105 2.364 . S
C489 C119 2.228 . S
C497 C63 2.226 . S
C521 C133 1.622 . S
C529 C77 1.696 . S
C553 C48 1.466 . S
C561 C6 1.469 . S
C585 C20 1.413 . S
C593 C62 1.415 . S
C617 C76 1.464 . S
C625 C34 1.466 . S
C649 C132 1.441 . S
C657 C90 1.445 . S
C681 C146 1.457 . S
C689 C104 1.473 . S
C713 C118 1.432 . S
C721 C160 1.430 . S
C745 C9 1.207 . S
C753 C51 1.271 . S
C777 C23 1.235 . S
C785 C65 1.250 . S
C809 C79 1.278 . S
C817 C37 1.321 . S
C841 C93 1.324 . S
C849 C135 1.271 . S
C873 C107 1.249 . S
C881 C149 1.274 . S
C905 C121 1.219 . S
C913 C163 1.288 . S
