# Generated by pormake.
# Topology whw, (6)-cn, num edge types: 1
# Building blocks:
#     Node 0, Type 0, BuildingBlock: CUKXOW_clean_sbu_0, # of connection points: 6
#     Node 1, Type 0, BuildingBlock: CUKXOW_clean_sbu_0, # of connection points: 6
#     Node 2, Type 0, BuildingBlock: CUKXOW_clean_sbu_0, # of connection points: 6
#     Node 3, Type 0, BuildingBlock: CUKXOW_clean_sbu_0, # of connection points: 6
#     Node 4, Type 0, BuildingBlock: CUKXOW_clean_sbu_0, # of connection points: 6
#     Node 5, Type 0, BuildingBlock: CUKXOW_clean_sbu_0, # of connection points: 6
#     Node 6, Type 0, BuildingBlock: CUKXOW_clean_sbu_0, # of connection points: 6
#     Node 7, Type 0, BuildingBlock: CUKXOW_clean_sbu_0, # of connection points: 6
#     Node 8, Type 0, BuildingBlock: CUKXOW_clean_sbu_0, # of connection points: 6
#     Node 9, Type 0, BuildingBlock: CUKXOW_clean_sbu_0, # of connection points: 6
#     Node 10, Type 0, BuildingBlock: CUKXOW_clean_sbu_0, # of connection points: 6
#     Node 11, Type 0, BuildingBlock: CUKXOW_clean_sbu_0, # of connection points: 6
#     Node 12, Type 0, BuildingBlock: CUKXOW_clean_sbu_0, # of connection points: 6
#     Node 13, Type 0, BuildingBlock: CUKXOW_clean_sbu_0, # of connection points: 6
#     Node 14, Type 0, BuildingBlock: CUKXOW_clean_sbu_0, # of connection points: 6
#     Node 15, Type 0, BuildingBlock: CUKXOW_clean_sbu_0, # of connection points: 6
#     Edge 16, Type (0, 0), BuildingBlock: XUDNAN_clean_linker_2, # of connection points: 2
#     Edge 17, Type (0, 0), BuildingBlock: XUDNAN_clean_linker_2, # of connection points: 2
#     Edge 18, Type (0, 0), BuildingBlock: XUDNAN_clean_linker_2, # of connection points: 2
#     Edge 19, Type (0, 0), BuildingBlock: XUDNAN_clean_linker_2, # of connection points: 2
#     Edge 20, Type (0, 0), BuildingBlock: XUDNAN_clean_linker_2, # of connection points: 2
#     Edge 21, Type (0, 0), BuildingBlock: XUDNAN_clean_linker_2, # of connection points: 2
#     Edge 22, Type (0, 0), BuildingBlock: XUDNAN_clean_linker_2, # of connection points: 2
#     Edge 23, Type (0, 0), BuildingBlock: XUDNAN_clean_linker_2, # of connection points: 2
#     Edge 24, Type (0, 0), BuildingBlock: XUDNAN_clean_linker_2, # of connection points: 2
#     Edge 25, Type (0, 0), BuildingBlock: XUDNAN_clean_linker_2, # of connection points: 2
#     Edge 26, Type (0, 0), BuildingBlock: XUDNAN_clean_linker_2, # of connection points: 2
#     Edge 27, Type (0, 0), BuildingBlock: XUDNAN_clean_linker_2, # of connection points: 2
#     Edge 28, Type (0, 0), BuildingBlock: XUDNAN_clean_linker_2, # of connection points: 2
#     Edge 29, Type (0, 0), BuildingBlock: XUDNAN_clean_linker_2, # of connection points: 2
#     Edge 30, Type (0, 0), BuildingBlock: XUDNAN_clean_linker_2, # of connection points: 2
#     Edge 31, Type (0, 0), BuildingBlock: XUDNAN_clean_linker_2, # of connection points: 2
#     Edge 32, Type (0, 0), BuildingBlock: XUDNAN_clean_linker_2, # of connection points: 2
#     Edge 33, Type (0, 0), BuildingBlock: XUDNAN_clean_linker_2, # of connection points: 2
#     Edge 34, Type (0, 0), BuildingBlock: XUDNAN_clean_linker_2, # of connection points: 2
#     Edge 35, Type (0, 0), BuildingBlock: XUDNAN_clean_linker_2, # of connection points: 2
#     Edge 36, Type (0, 0), BuildingBlock: XUDNAN_clean_linker_2, # of connection points: 2
#     Edge 37, Type (0, 0), BuildingBlock: XUDNAN_clean_linker_2, # of connection points: 2
#     Edge 38, Type (0, 0), BuildingBlock: XUDNAN_clean_linker_2, # of connection points: 2
#     Edge 39, Type (0, 0), BuildingBlock: XUDNAN_clean_linker_2, # of connection points: 2
#     Edge 40, Type (0, 0), BuildingBlock: XUDNAN_clean_linker_2, # of connection points: 2
#     Edge 41, Type (0, 0), BuildingBlock: XUDNAN_clean_linker_2, # of connection points: 2
#     Edge 42, Type (0, 0), BuildingBlock: XUDNAN_clean_linker_2, # of connection points: 2
#     Edge 43, Type (0, 0), BuildingBlock: XUDNAN_clean_linker_2, # of connection points: 2
#     Edge 44, Type (0, 0), BuildingBlock: XUDNAN_clean_linker_2, # of connection points: 2
#     Edge 45, Type (0, 0), BuildingBlock: XUDNAN_clean_linker_2, # of connection points: 2
#     Edge 46, Type (0, 0), BuildingBlock: XUDNAN_clean_linker_2, # of connection points: 2
#     Edge 47, Type (0, 0), BuildingBlock: XUDNAN_clean_linker_2, # of connection points: 2
#     Edge 48, Type (0, 0), BuildingBlock: XUDNAN_clean_linker_2, # of connection points: 2
#     Edge 49, Type (0, 0), BuildingBlock: XUDNAN_clean_linker_2, # of connection points: 2
#     Edge 50, Type (0, 0), BuildingBlock: XUDNAN_clean_linker_2, # of connection points: 2
#     Edge 51, Type (0, 0), BuildingBlock: XUDNAN_clean_linker_2, # of connection points: 2
#     Edge 52, Type (0, 0), BuildingBlock: XUDNAN_clean_linker_2, # of connection points: 2
#     Edge 53, Type (0, 0), BuildingBlock: XUDNAN_clean_linker_2, # of connection points: 2
#     Edge 54, Type (0, 0), BuildingBlock: XUDNAN_clean_linker_2, # of connection points: 2
#     Edge 55, Type (0, 0), BuildingBlock: XUDNAN_clean_linker_2, # of connection points: 2
#     Edge 56, Type (0, 0), BuildingBlock: XUDNAN_clean_linker_2, # of connection points: 2
#     Edge 57, Type (0, 0), BuildingBlock: XUDNAN_clean_linker_2, # of connection points: 2
#     Edge 58, Type (0, 0), BuildingBlock: XUDNAN_clean_linker_2, # of connection points: 2
#     Edge 59, Type (0, 0), BuildingBlock: XUDNAN_clean_linker_2, # of connection points: 2
#     Edge 60, Type (0, 0), BuildingBlock: XUDNAN_clean_linker_2, # of connection points: 2
#     Edge 61, Type (0, 0), BuildingBlock: XUDNAN_clean_linker_2, # of connection points: 2
#     Edge 62, Type (0, 0), BuildingBlock: XUDNAN_clean_linker_2, # of connection points: 2
#     Edge 63, Type (0, 0), BuildingBlock: XUDNAN_clean_linker_2, # of connection points: 2
# Relax obj value: 0.278
# Max RMSD: 0.179
# Mean RMSD: 0.173
data_MOF--net-whw--node1-CUKXOW_clean_sbu_0--edge1-XUDNAN_clean_linker_2
_symmetry_space_group_name_H-M    P1
_symmetry_Int_Tables_number       1
_symmetry_cell_setting            triclinic
loop_
_symmetry_equiv_pos_as_xyz
'x, y, z'
_cell_length_a     47.672864
_cell_length_b     47.785619
_cell_length_c     26.596725
_cell_angle_alpha  92.995228
_cell_angle_beta   90.086398
_cell_angle_gamma 90.073229
loop_
_atom_site_label
_atom_site_type_symbol
_atom_site_fract_x
_atom_site_fract_y
_atom_site_fract_z
_atom_type_partial_charge
Tb0 Tb 0.02053 0.11545 0.21823 0.0
C1 C 0.04502 0.05798 0.17153 0.0
Tb2 Tb 0.07757 0.11425 0.16297 0.0
O3 O -0.00817 0.12358 0.15585 0.0
O4 O 0.03416 0.12003 0.14285 0.0
O5 O 0.02466 0.07103 0.19714 0.0
C6 C 0.11027 0.12012 0.08345 0.0
O7 O 0.06872 0.07019 0.15897 0.0
C8 C 0.0867 0.12017 0.26316 0.0
C9 C 0.05338 0.16952 0.20412 0.0
O10 O 0.08827 0.10423 0.08436 0.0
O11 O 0.11495 0.13051 0.12874 0.0
O12 O 0.10613 0.11691 0.22885 0.0
O13 O 0.06363 0.1165 0.23912 0.0
O14 O 0.06573 0.15745 0.16446 0.0
O15 O 0.04127 0.15449 0.23829 0.0
C16 C 0.98021 0.11213 0.28554 0.0
O17 O 0.98612 0.13421 0.26099 0.0
O18 O -0.00203 0.09223 0.27417 0.0
C19 C 0.01065 0.12379 0.12082 0.0
Tb20 Tb 0.13163 0.68442 0.42757 0.0
C21 C 0.1756 0.71949 0.37327 0.0
Tb22 Tb 0.10979 0.73212 0.37591 0.0
O23 O 0.11377 0.65345 0.37209 0.0
O24 O 0.12514 0.69259 0.34914 0.0
O25 O 0.17199 0.69703 0.39936 0.0
C26 C 0.09837 0.76878 0.30682 0.0
O27 O 0.15457 0.73586 0.36135 0.0
C28 C 0.10992 0.75047 0.47114 0.0
C29 C 0.06875 0.69203 0.42767 0.0
O30 O 0.11513 0.7731 0.34451 0.0
O31 O 0.08821 0.74368 0.30741 0.0
O32 O 0.10015 0.76372 0.43395 0.0
O33 O 0.118 0.7259 0.45497 0.0
O34 O 0.07241 0.70725 0.38775 0.0
O35 O 0.08992 0.68612 0.45656 0.0
C36 C 0.14951 0.65493 0.50425 0.0
O37 O 0.13172 0.64634 0.46984 0.0
O38 O 0.15939 0.67886 0.49143 0.0
C39 C 0.11217 0.67018 0.33521 0.0
Tb40 Tb 0.50542 0.85398 0.66907 0.0
C41 C 0.47958 0.90662 0.61813 0.0
Tb42 Tb 0.45241 0.84785 0.60295 0.0
O43 O 0.5382 0.84414 0.61098 0.0
O44 O 0.49647 0.84444 0.59261 0.0
O45 O 0.5016 0.89606 0.64117 0.0
C46 C 0.42274 0.84515 0.51884 0.0
O47 O 0.4562 0.89258 0.60827 0.0
C48 C 0.44083 0.84173 0.7 0.0
C49 C 0.47943 0.79597 0.64102 0.0
O50 O 0.41484 0.83505 0.56091 0.0
O51 O 0.44671 0.85754 0.52518 0.0
O52 O 0.42439 0.83503 0.6621 0.0
O53 O 0.46093 0.85606 0.68157 0.0
O54 O 0.46864 0.80586 0.59999 0.0
O55 O 0.48932 0.81265 0.67834 0.0
C56 C 0.53672 0.86384 0.75149 0.0
O57 O 0.53922 0.8426 0.7193 0.0
O58 O 0.51589 0.87912 0.73765 0.0
C59 C 0.52071 0.84033 0.57357 0.0
Tb60 Tb 0.4001 0.29892 0.86938 0.0
C61 C 0.45014 0.2878 0.93634 0.0
Tb62 Tb 0.39317 0.25867 0.96457 0.0
O63 O 0.38716 0.33639 0.91818 0.0
O64 O 0.40029 0.30043 0.94829 0.0
O65 O 0.44144 0.28559 0.88936 0.0
C66 C 0.39495 0.22772 0.04846 0.0
O67 O 0.434 0.27983 0.97382 0.0
C68 C 0.40843 0.23545 0.87755 0.0
C69 C 0.3398 0.2799 0.90172 0.0
O70 O 0.40199 0.21987 1.00282 0.0
O71 O 0.38511 0.25324 0.0468 0.0
O72 O 0.41435 0.22559 0.92058 0.0
O73 O 0.39226 0.25602 0.88408 0.0
O74 O 0.34906 0.26713 0.94267 0.0
O75 O 0.35582 0.29095 0.86667 0.0
C76 C 0.42136 0.31733 0.78065 0.0
O77 O 0.40619 0.29488 0.78569 0.0
O78 O 0.42317 0.32979 0.82532 0.0
C79 C 0.38984 0.32367 0.96036 0.0
Tb80 Tb 0.01747 0.86509 0.84139 0.0
C81 C 0.04117 0.91806 0.90079 0.0
Tb82 Tb 0.07165 0.85908 0.90305 0.0
O83 O 0.98606 0.86061 0.90184 0.0
O84 O 0.02797 0.85938 0.91716 0.0
O85 O 0.02295 0.90864 0.8663 0.0
C86 C 0.1006 0.85086 0.98622 0.0
O87 O 0.06161 0.90272 0.91886 0.0
C88 C 0.08058 0.85265 0.80462 0.0
C89 C 0.04607 0.80672 0.84849 0.0
O90 O 0.10385 0.87236 0.95854 0.0
O91 O 0.08166 0.83434 0.96639 0.0
O92 O 0.09808 0.84505 0.839 0.0
O93 O 0.06181 0.8681 0.82667 0.0
O94 O 0.05912 0.81647 0.88955 0.0
O95 O 0.0313 0.8231 0.8198 0.0
C96 C 0.9785 0.87001 0.77197 0.0
O97 O 0.98367 0.84756 0.79566 0.0
O98 O -0.00387 0.88971 0.78569 0.0
C99 C 0.00406 0.85902 0.93801 0.0
Tb100 Tb 0.3975 0.67537 0.20188 0.0
C101 C 0.45039 0.67528 0.13093 0.0
Tb102 Tb 0.40094 0.71856 0.10827 0.0
O103 O 0.39017 0.63734 0.15213 0.0
O104 O 0.39318 0.67663 0.12439 0.0
O105 O 0.44025 0.67126 0.1764 0.0
C106 C 0.40044 0.74794 1.02189 0.0
O107 O 0.43796 0.69151 0.09801 0.0
C108 C 0.41417 0.73725 0.20094 0.0
C109 C 0.34305 0.70829 0.16972 0.0
O110 O 0.41548 0.75349 0.06199 0.0
O111 O 0.3853 0.72592 1.03105 0.0
O112 O 0.4227 0.74899 0.16072 0.0
O113 O 0.39769 0.71828 0.1868 0.0
O114 O 0.35604 0.72062 0.13152 0.0
O115 O 0.35532 0.69158 0.20205 0.0
C116 C 0.41133 0.66089 0.2959 0.0
O117 O 0.39369 0.64756 0.26539 0.0
O118 O 0.42026 0.68292 0.27381 0.0
C119 C 0.39035 0.65122 0.11099 0.0
Tb120 Tb 0.50469 0.13891 0.4151 0.0
C121 C 0.48188 0.08294 0.45534 0.0
Tb122 Tb 0.45254 0.14105 0.47703 0.0
O123 O 0.53843 0.14253 0.47178 0.0
O124 O 0.49643 0.1426 0.49353 0.0
O125 O 0.50187 0.09482 0.42953 0.0
C126 C 0.41493 0.13941 0.5505 0.0
O127 O 0.46024 0.09655 0.47554 0.0
C128 C 0.44341 0.15021 0.38026 0.0
C129 C 0.48148 0.19455 0.46231 0.0
O130 O 0.43116 0.11901 0.53515 0.0
O131 O 0.41878 0.16002 0.5216 0.0
O132 O 0.4279 0.15967 0.41714 0.0
O133 O 0.46106 0.13352 0.39833 0.0
O134 O 0.47139 0.18051 0.49912 0.0
O135 O 0.48976 0.18155 0.41957 0.0
C136 C 0.5334 0.13411 0.3301 0.0
O137 O 0.5368 0.15428 0.36425 0.0
O138 O 0.51437 0.11693 0.34419 0.0
C139 C 0.52152 0.144 0.51018 0.0
Tb140 Tb 0.12629 0.29845 0.63731 0.0
C141 C 0.18281 0.27482 0.67827 0.0
Tb142 Tb 0.12442 0.24532 0.69121 0.0
O143 O 0.10967 0.32565 0.70029 0.0
O144 O 0.12982 0.28831 0.71377 0.0
O145 O 0.17018 0.29637 0.65846 0.0
C146 C 0.12741 0.21106 0.76638 0.0
O147 O 0.16946 0.25131 0.68718 0.0
C148 C 0.11865 0.22952 0.59366 0.0
C149 C 0.06949 0.27756 0.67298 0.0
O150 O 0.14666 0.22856 0.75438 0.0
O151 O 0.10632 0.2132 0.73626 0.0
O152 O 0.12017 0.21291 0.63052 0.0
O153 O 0.12147 0.25465 0.61292 0.0
O154 O 0.08347 0.2628 0.70526 0.0
O155 O 0.08235 0.28875 0.63488 0.0
C156 C 0.13042 0.32864 0.55569 0.0
O157 O 0.11763 0.33622 0.59723 0.0
O158 O 0.14267 0.30495 0.56267 0.0
C159 C 0.11519 0.30802 0.7348 0.0
Tb160 Tb 0.90038 0.18009 0.70088 0.0
C161 C 0.9491 0.18557 0.62742 0.0
Tb162 Tb 0.89314 0.22165 0.60534 0.0
O163 O 0.89956 0.14149 0.65026 0.0
O164 O 0.88874 0.17952 0.62415 0.0
O165 O 0.94109 0.17845 0.67204 0.0
C166 C 0.89619 0.24866 0.51671 0.0
O167 O 0.93514 0.20281 0.59837 0.0
C168 C 0.89638 0.24463 0.6963 0.0
C169 C 0.84069 0.20315 0.67083 0.0
O170 O 0.90862 0.2561 0.55896 0.0
O171 O 0.88196 0.22584 0.52474 0.0
O172 O 0.88526 0.25726 0.65902 0.0
O173 O 0.90744 0.22205 0.68029 0.0
O174 O 0.84924 0.21227 0.6263 0.0
O175 O 0.85738 0.1939 0.70654 0.0
C176 C 0.9194 0.16426 0.79276 0.0
O177 O 0.89808 0.15348 0.7672 0.0
O178 O 0.92929 0.18446 0.76695 0.0
C179 C 0.89331 0.15447 0.60962 0.0
Tb180 Tb 0.628 0.793 0.14179 0.0
C181 C 0.68101 0.76359 0.18139 0.0
Tb182 Tb 0.619 0.74539 0.1981 0.0
O183 O 0.6108 0.82367 0.19719 0.0
O184 O 0.62915 0.78737 0.22164 0.0
O185 O 0.67154 0.78739 0.16481 0.0
C186 C 0.62225 0.71535 0.27867 0.0
O187 O 0.664 0.74251 0.18881 0.0
C188 C 0.6119 0.72383 0.10485 0.0
C189 C 0.56806 0.7822 0.17566 0.0
O190 O 0.64235 0.72972 0.2603 0.0
O191 O 0.5998 0.71743 0.25135 0.0
O192 O 0.60998 0.71074 0.14608 0.0
O193 O 0.61783 0.74985 0.11617 0.0
O194 O 0.57948 0.76626 0.20914 0.0
O195 O 0.58277 0.7899 0.13684 0.0
C196 C 0.63457 0.82331 0.05961 0.0
O197 O 0.62623 0.83244 0.10381 0.0
O198 O 0.64228 0.79761 0.06469 0.0
C199 C 0.61465 0.80882 0.2362 0.0
Tb200 Tb 0.63065 0.18478 0.9386 0.0
C201 C 0.68565 0.21039 0.89736 0.0
Tb202 Tb 0.62519 0.23546 0.87779 0.0
O203 O 0.61428 0.15519 0.88134 0.0
O204 O 0.633 0.19198 0.85947 0.0
O205 O 0.67478 0.18986 0.92262 0.0
C206 C 0.62945 0.2682 0.8012 0.0
O207 O 0.67043 0.23116 0.88103 0.0
C208 C 0.61728 0.25293 0.97442 0.0
C209 C 0.57242 0.20276 0.90092 0.0
O210 O 0.65033 0.2574 0.82428 0.0
O211 O 0.60604 0.26064 0.8212 0.0
O212 O 0.61618 0.2688 0.93643 0.0
O213 O 0.62265 0.22828 0.95614 0.0
O214 O 0.58565 0.215 0.86441 0.0
O215 O 0.58637 0.19403 0.94026 0.0
C216 C 0.63174 0.15194 1.01632 0.0
O217 O 0.62483 0.14431 0.9706 0.0
O218 O 0.63972 0.17792 1.01753 0.0
C219 C 0.61859 0.17065 0.84338 0.0
Tb220 Tb 0.90173 0.80677 0.36199 0.0
C221 C 0.95283 0.81166 0.43386 0.0
Tb222 Tb 0.90251 0.76761 0.45834 0.0
O223 O 0.89411 0.84555 0.41046 0.0
O224 O 0.8883 0.80651 0.43707 0.0
O225 O 0.94102 0.82006 0.39266 0.0
C226 C 0.90892 0.73989 0.54601 0.0
O227 O 0.94191 0.79231 0.46288 0.0
C228 C 0.90577 0.74169 0.37004 0.0
C229 C 0.8475 0.77344 0.38898 0.0
O230 O 0.92638 0.73972 0.50837 0.0
O231 O 0.88818 0.75637 0.53441 0.0
O232 O 0.89727 0.73044 0.4106 0.0
O233 O 0.91588 0.76581 0.38151 0.0
O234 O 0.85774 0.76731 0.43438 0.0
O235 O 0.8619 0.78582 0.35349 0.0
C236 C 0.92018 0.81974 0.2697 0.0
O237 O 0.89633 0.82809 0.28994 0.0
O238 O 0.93272 0.80407 0.3012 0.0
C239 C 0.88912 0.83193 0.45093 0.0
Tb240 Tb 0.51425 0.61536 0.71784 0.0
C241 C 0.53949 0.55754 0.674 0.0
Tb242 Tb 0.56907 0.61418 0.66333 0.0
O243 O 0.48359 0.62068 0.6572 0.0
O244 O 0.52608 0.61802 0.64138 0.0
O245 O 0.51788 0.5711 0.6949 0.0
C246 C 0.60484 0.61699 0.58714 0.0
O247 O 0.56377 0.56973 0.66553 0.0
C248 C 0.57497 0.62758 0.76197 0.0
C249 C 0.54581 0.66834 0.6943 0.0
O250 O 0.5822 0.602 0.58695 0.0
O251 O 0.60836 0.62867 0.63179 0.0
O252 O 0.59214 0.63481 0.72707 0.0
O253 O 0.55722 0.61032 0.7412 0.0
O254 O 0.55059 0.65363 0.65261 0.0
O255 O 0.53097 0.65738 0.7302 0.0
C256 C 0.47605 0.6103 0.78815 0.0
O257 O 0.48122 0.63303 0.76514 0.0
O258 O 0.49304 0.59056 0.7729 0.0
C259 C 0.50194 0.62041 0.62135 0.0
Tb260 Tb 0.00868 0.3679 0.1637 0.0
C261 C 0.97049 0.41183 0.11079 0.0
Tb262 Tb 0.95675 0.34741 0.10316 0.0
O263 O 0.04037 0.36483 0.10184 0.0
O264 O -0.00054 0.3547 0.08876 0.0
O265 O -0.00791 0.40816 0.1416 0.0
C266 C 0.92627 0.32479 1.02973 0.0
O267 O 0.95398 0.39134 0.09333 0.0
C268 C 0.94238 0.34753 0.20045 0.0
C269 C -0.00811 0.30578 0.15145 0.0
O270 O 0.93682 0.34985 1.03003 0.0
O271 O 0.93253 0.31288 0.0708 0.0
O272 O 0.92571 0.34367 0.16212 0.0
O273 O 0.96589 0.35556 0.18189 0.0
O274 O 0.984 0.3122 0.1064 0.0
O275 O 0.00213 0.32528 0.18311 0.0
C276 C 0.04287 0.3786 0.24193 0.0
O277 O 0.04787 0.36193 0.20296 0.0
O278 O 0.01869 0.39041 0.23514 0.0
C279 C 0.02305 0.35569 0.06694 0.0
Tb280 Tb 0.51454 0.36371 0.34733 0.0
C281 C 0.53972 0.42021 0.39897 0.0
Tb282 Tb 0.56854 0.36212 0.40256 0.0
O283 O 0.49373 0.3399 0.4058 0.0
O284 O 0.52548 0.36767 0.42555 0.0
O285 O 0.51874 0.40799 0.373 0.0
C286 C 0.5956 0.34978 0.4844 0.0
O287 O 0.56233 0.40645 0.41226 0.0
C288 C 0.58148 0.3601 0.30394 0.0
C289 C 0.55105 0.30961 0.33719 0.0
O290 O 0.60589 0.36552 0.4504 0.0
O291 O 0.57083 0.34088 0.4719 0.0
O292 O 0.59941 0.36143 0.34116 0.0
O293 O 0.55749 0.36308 0.32533 0.0
O294 O 0.56273 0.31838 0.3802 0.0
O295 O 0.53264 0.3252 0.31393 0.0
C296 C 0.47152 0.37319 0.28626 0.0
O297 O 0.49364 0.3889 0.29146 0.0
O298 O 0.47406 0.35217 0.31475 0.0
C299 C 0.50874 0.34989 0.44327 0.0
Tb300 Tb 0.01294 0.63775 0.89365 0.0
C301 C -0.0066 0.57755 0.93002 0.0
Tb302 Tb 0.95892 0.63055 0.96196 0.0
O303 O 0.04468 0.64187 0.95506 0.0
O304 O 0.00321 0.63607 0.97087 0.0
O305 O 0.00975 0.59179 0.89937 0.0
C306 C 0.92784 0.64101 0.04321 0.0
O307 O 0.97311 0.5884 0.95869 0.0
C308 C 0.94562 0.63691 0.86308 0.0
C309 C 0.97529 0.68562 0.93816 0.0
O310 O 0.94065 0.61738 1.03217 0.0
O311 O 0.93095 0.65755 1.00666 0.0
O312 O 0.92786 0.63369 0.89968 0.0
O313 O 0.96913 0.63368 0.88433 0.0
O314 O 0.9759 0.67068 0.97731 0.0
O315 O 0.98806 0.67659 0.89595 0.0
C316 C 0.04709 0.64339 0.81572 0.0
O317 O 0.04443 0.66123 0.85401 0.0
O318 O 0.03011 0.62237 0.82082 0.0
C319 C 0.02708 0.63927 0.99176 0.0
H320 H 0.10825 0.10262 0.98291 0.0
H321 H 0.12385 0.17458 0.08606 0.0
H322 H 0.1254 0.20517 1.01541 0.0
H323 H 0.15694 0.12573 0.88829 0.0
H324 H 0.1362 0.11278 0.83532 0.0
H325 H 0.13438 0.09577 0.89412 0.0
H326 H 0.08053 0.10267 0.89595 0.0
H327 H 0.08226 0.11969 0.83711 0.0
H328 H 0.06637 0.13736 0.89129 0.0
H329 H 0.12829 0.22776 0.93785 0.0
H330 H 0.13387 0.24225 0.85133 0.0
H331 H 0.11542 0.15759 0.79357 0.0
C332 C 0.11256 0.12473 0.99014 0.0
C333 C 0.1166 0.1362 0.03968 0.0
C334 C 0.1216 0.16523 0.04828 0.0
C335 C 0.12206 0.1829 1.0085 0.0
C336 C 0.11803 0.17115 0.96029 0.0
C337 C 0.11378 0.14279 0.95037 0.0
C338 C 0.11216 0.13589 0.89404 0.0
C339 C 0.13636 0.11639 0.87694 0.0
C340 C 0.08362 0.12313 0.8787 0.0
C341 C 0.11588 0.16495 0.87453 0.0
C342 C 0.11926 0.18476 0.91385 0.0
C343 C 0.12538 0.21265 0.90654 0.0
C344 C 0.12859 0.22064 0.85746 0.0
C345 C 0.12487 0.20098 0.81662 0.0
C346 C 0.11805 0.17287 0.82476 0.0
H347 H 0.12361 0.75922 0.21729 0.0
H348 H 0.07135 0.81854 0.3025 0.0
H349 H 0.07225 0.85031 0.23145 0.0
H350 H 0.16676 0.8129 0.15866 0.0
H351 H 0.17013 0.79221 0.10037 0.0
H352 H 0.16658 0.77519 0.15897 0.0
H353 H 0.12381 0.74754 0.12333 0.0
H354 H 0.12692 0.7642 0.06467 0.0
H355 H 0.09428 0.76614 0.09884 0.0
H356 H 0.07799 0.87448 0.1503 0.0
H357 H 0.08261 0.88642 0.06131 0.0
H358 H 0.13048 0.81069 1.02956 0.0
C359 C 0.11232 0.7789 0.22058 0.0
C360 C 0.09713 0.78666 0.26433 0.0
C361 C 0.0829 0.81253 0.26858 0.0
C362 C 0.08356 0.83067 0.22882 0.0
C363 C 0.09916 0.8227 0.18609 0.0
C364 C 0.1132 0.79737 0.18173 0.0
C365 C 0.12759 0.79323 0.13131 0.0
C366 C 0.15966 0.79339 0.13773 0.0
C367 C 0.11749 0.7662 0.10285 0.0
C368 C 0.11784 0.81928 0.10655 0.0
C369 C 0.10239 0.83654 0.13941 0.0
C370 C 0.09046 0.86141 0.12452 0.0
C371 C 0.09348 0.86821 0.07416 0.0
C372 C 0.10762 0.84981 0.03947 0.0
C373 C 0.1205 0.82548 0.05607 0.0
H374 H 0.45299 0.7688 0.25456 0.0
H375 H 0.36671 0.73971 0.2564 0.0
H376 H 0.35846 0.76682 0.33587 0.0
H377 H 0.46169 0.76505 0.39159 0.0
H378 H 0.48468 0.79504 0.3964 0.0
H379 H 0.48385 0.77301 0.33938 0.0
H380 H 0.47279 0.81645 0.2883 0.0
H381 H 0.47328 0.83845 0.34534 0.0
H382 H 0.44278 0.83791 0.30511 0.0
H383 H 0.35927 0.79658 0.41497 0.0
H384 H 0.37077 0.82539 0.49256 0.0
H385 H 0.45565 0.83602 0.43795 0.0
C386 C 0.43247 0.76823 0.27194 0.0
C387 C 0.41052 0.75235 0.24964 0.0
C388 C 0.38391 0.75163 0.2733 0.0
C389 C 0.37891 0.76706 0.31828 0.0
C390 C 0.40085 0.78277 0.33927 0.0
C391 C 0.42724 0.78315 0.31751 0.0
C392 C 0.44743 0.80077 0.34942 0.0
C393 C 0.47077 0.78238 0.37045 0.0
C394 C 0.45977 0.82483 0.32026 0.0
C395 C 0.42777 0.81145 0.39058 0.0
C396 C 0.40114 0.80043 0.38462 0.0
C397 C 0.37993 0.80572 0.41993 0.0
C398 C 0.38647 0.82222 0.4634 0.0
C399 C 0.41369 0.83344 0.46998 0.0
C400 C 0.43433 0.82852 0.43272 0.0
H401 H 0.38407 0.24263 0.78529 0.0
H402 H 0.44494 0.19315 0.86367 0.0
H403 H 0.44931 0.16099 0.78898 0.0
H404 H 0.34908 0.18776 0.71887 0.0
H405 H 0.34551 0.20493 0.66046 0.0
H406 H 0.34755 0.22547 0.7191 0.0
H407 H 0.38938 0.25291 0.68553 0.0
H408 H 0.38806 0.23275 0.6265 0.0
H409 H 0.42013 0.23443 0.66256 0.0
H410 H 0.4426 0.13118 0.71319 0.0
H411 H 0.436 0.11117 0.62723 0.0
H412 H 0.3831 0.18167 0.59276 0.0
C413 C 0.39882 0.22545 0.78603 0.0
C414 C 0.41404 0.22004 0.82996 0.0
C415 C 0.43295 0.19731 0.83024 0.0
C416 C 0.43548 0.17891 0.78825 0.0
C417 C 0.4192 0.18386 0.74638 0.0
C418 C 0.40199 0.20701 0.74394 0.0
C419 C 0.38764 0.20758 0.69315 0.0
C420 C 0.35554 0.20636 0.69826 0.0
C421 C 0.39689 0.23343 0.66524 0.0
C422 C 0.39901 0.18068 0.66841 0.0
C423 C 0.41667 0.16719 0.70041 0.0
C424 C 0.42909 0.14157 0.68731 0.0
C425 C 0.42475 0.13013 0.63871 0.0
C426 C 0.40894 0.1449 0.60372 0.0
C427 C 0.39494 0.16986 0.61925 0.0
H428 H 0.9038 0.81822 0.16833 0.0
H429 H 0.97062 0.8454 0.27005 0.0
H430 H -0.00124 0.86026 0.19808 0.0
H431 H 0.95082 0.78995 0.07266 0.0
H432 H 0.92953 0.79927 1.0201 0.0
H433 H 0.91334 0.79248 0.07946 0.0
H434 H 0.8897 0.84111 0.08302 0.0
H435 H 0.9051 0.8481 1.02316 0.0
H436 H 0.9108 0.87208 0.07684 0.0
H437 H 0.02199 0.86835 0.11297 0.0
H438 H 0.03605 0.87187 1.02344 0.0
H439 H 0.95361 0.84252 0.97654 0.0
C440 C 0.92405 0.82794 0.1754 0.0
C441 C 0.93478 0.83111 0.22517 0.0
C442 C 0.96184 0.84298 0.23247 0.0
C443 C 0.97806 0.85145 0.19168 0.0
C444 C 0.96726 0.84766 0.14301 0.0
C445 C 0.9408 0.83627 0.13467 0.0
C446 C 0.93486 0.83309 0.07836 0.0
C447 C 0.93195 0.80187 0.06164 0.0
C448 C 0.90856 0.8496 0.06454 0.0
C449 C 0.96144 0.84562 0.05662 0.0
C450 C 0.98026 0.85314 0.09444 0.0
C451 C 0.00721 0.86283 0.08316 0.0
C452 C 0.01515 0.86474 1.03216 0.0
C453 C -0.00391 0.85766 0.99271 0.0
C454 C 0.96863 0.84861 1.0057 0.0
H455 H 0.96049 0.18884 0.85737 0.0
H456 H 0.90667 0.11585 0.83835 0.0
H457 H 0.92743 0.0967 0.91451 0.0
H458 H 0.02095 0.15341 0.90334 0.0
H459 H 0.03145 0.17986 0.95057 0.0
H460 H 0.01287 0.18964 0.895 0.0
H461 H 0.97366 0.21352 0.9473 0.0
H462 H -0.00781 0.20569 1.00397 0.0
H463 H 0.95625 0.19467 0.99527 0.0
H464 H 0.95437 0.08465 0.99292 0.0
H465 H 0.98107 0.08299 0.07215 0.0
H466 H 0.01752 0.16402 0.04584 0.0
C467 C 0.953 0.16885 0.86937 0.0
C468 C 0.93174 0.15386 0.84108 0.0
C469 C 0.92272 0.12785 0.85871 0.0
C470 C 0.93456 0.11671 0.90211 0.0
C471 C 0.95551 0.13176 0.92876 0.0
C472 C 0.96439 0.15753 0.9136 0.0
C473 C 0.98663 0.16966 0.95048 0.0
C474 C 0.01467 0.17341 0.92328 0.0
C475 C 0.97658 0.19754 0.97576 0.0
C476 C -0.01118 0.14674 0.98871 0.0
C477 C 0.97082 0.12498 0.97475 0.0
C478 C 0.9686 0.10157 1.00381 0.0
C479 C 0.98425 0.10064 0.04878 0.0
C480 C 0.00236 0.12281 0.06557 0.0
C481 C 0.00476 0.14617 1.03425 0.0
H482 H 0.61414 0.20158 0.7533 0.0
H483 H 0.58789 0.12483 0.82059 0.0
H484 H 0.55926 0.11223 0.7469 0.0
H485 H 0.54717 0.21464 0.68981 0.0
H486 H 0.56269 0.22649 0.63293 0.0
H487 H 0.58115 0.23125 0.692 0.0
H488 H 0.6239 0.20486 0.65388 0.0
H489 H 0.60577 0.2001 0.59455 0.0
H490 H 0.61938 0.17014 0.62505 0.0
H491 H 0.53065 0.10778 0.66913 0.0
H492 H 0.50968 0.10867 0.58412 0.0
H493 H 0.55654 0.1842 0.55735 0.0
C494 C 0.60251 0.18209 0.75227 0.0
C495 C 0.60344 0.16441 0.79391 0.0
C496 C 0.58771 0.13908 0.79024 0.0
C497 C 0.5711 0.1316 0.74823 0.0
C498 C 0.57016 0.14933 0.70857 0.0
C499 C 0.58575 0.17383 0.70934 0.0
C500 C 0.58132 0.18809 0.65962 0.0
C501 C 0.56726 0.21682 0.66917 0.0
C502 C 0.60926 0.19095 0.6316 0.0
C503 C 0.56142 0.16741 0.63121 0.0
C504 C 0.55474 0.14569 0.66118 0.0
C505 C 0.53587 0.1246 0.64509 0.0
C506 C 0.52383 0.12532 0.59678 0.0
C507 C 0.53115 0.14647 0.56402 0.0
C508 C 0.55032 0.16782 0.58165 0.0
H509 H 0.55109 0.79645 0.52314 0.0
H510 H 0.51239 0.87658 0.50033 0.0
H511 H 0.53183 0.87611 0.41456 0.0
H512 H 0.6144 0.80576 0.45567 0.0
H513 H 0.61605 0.77125 0.42496 0.0
H514 H 0.59801 0.77647 0.48419 0.0
H515 H 0.55302 0.75465 0.44439 0.0
H516 H 0.57119 0.74914 0.38528 0.0
H517 H 0.53884 0.76863 0.38808 0.0
H518 H 0.55867 0.86985 0.33486 0.0
H519 H 0.58649 0.85618 0.26048 0.0
H520 H 0.60769 0.77742 0.32556 0.0
C521 C 0.54616 0.81354 0.49949 0.0
C522 C 0.52925 0.83649 0.51868 0.0
C523 C 0.52405 0.8585 0.48652 0.0
C524 C 0.53547 0.85849 0.43767 0.0
C525 C 0.55203 0.83594 0.42008 0.0
C526 C 0.55693 0.81341 0.4493 0.0
C527 C 0.57518 0.79168 0.41954 0.0
C528 C 0.60254 0.78596 0.4478 0.0
C529 C 0.55857 0.7644 0.40869 0.0
C530 C 0.58099 0.80635 0.37046 0.0
C531 C 0.56713 0.8318 0.37221 0.0
C532 C 0.56927 0.84981 0.33293 0.0
C533 C 0.58541 0.84175 0.29049 0.0
C534 C 0.59968 0.81566 0.28601 0.0
C535 C 0.59738 0.79761 0.32721 0.0
H536 H 0.58916 0.67348 0.31361 0.0
H537 H 0.66078 0.72692 0.35042 0.0
H538 H 0.66593 0.70515 0.43167 0.0
H539 H 0.56036 0.67378 0.43746 0.0
H540 H 0.54983 0.63749 0.43331 0.0
H541 H 0.55173 0.65691 0.37722 0.0
H542 H 0.58559 0.61994 0.33668 0.0
H543 H 0.58385 0.60026 0.39257 0.0
H544 H 0.61736 0.61132 0.36931 0.0
H545 H 0.6623 0.67985 0.50955 0.0
H546 H 0.64995 0.65141 0.58123 0.0
H547 H 0.58276 0.61201 0.49275 0.0
C548 C 0.60588 0.68041 0.33893 0.0
C549 C 0.62462 0.7017 0.32622 0.0
C550 C 0.64637 0.71041 0.3597 0.0
C551 C 0.64947 0.69823 0.40585 0.0
C552 C 0.63093 0.67708 0.41735 0.0
C553 C 0.60964 0.66806 0.38496 0.0
C554 C 0.59266 0.64492 0.40701 0.0
C555 C 0.56184 0.65381 0.41421 0.0
C556 C 0.59502 0.61749 0.37443 0.0
C557 C 0.60763 0.6427 0.45692 0.0
C558 C 0.62959 0.66149 0.46202 0.0
C559 C 0.64556 0.66456 0.50584 0.0
C560 C 0.63861 0.6482 0.54608 0.0
C561 C 0.61607 0.62899 0.5418 0.0
C562 C 0.60075 0.62585 0.49635 0.0
H563 H 0.5917 0.30404 0.76313 0.0
H564 H 0.67265 0.26524 0.73561 0.0
H565 H 0.67524 0.28677 0.65328 0.0
H566 H 0.56501 0.29173 0.64279 0.0
H567 H 0.54627 0.32442 0.64078 0.0
H568 H 0.55266 0.30929 0.70018 0.0
H569 H 0.57694 0.35503 0.7337 0.0
H570 H 0.57052 0.37043 0.67433 0.0
H571 H 0.6057 0.36913 0.69902 0.0
H572 H 0.66754 0.3097 0.57255 0.0
H573 H 0.6486 0.33036 0.49585 0.0
H574 H 0.57156 0.35135 0.57535 0.0
C575 C 0.60996 0.30025 0.73994 0.0
C576 C 0.63199 0.28318 0.75523 0.0
C577 C 0.65585 0.27881 0.72442 0.0
C578 C 0.65744 0.29084 0.67776 0.0
C579 C 0.63509 0.30731 0.66326 0.0
C580 C 0.61178 0.31204 0.69341 0.0
C581 C 0.5897 0.32881 0.66766 0.0
C582 C 0.56179 0.31257 0.6625 0.0
C583 C 0.58549 0.35756 0.69533 0.0
C584 C 0.60384 0.33173 0.61747 0.0
C585 C 0.63028 0.31986 0.6161 0.0
C586 C 0.64709 0.3195 0.57322 0.0
C587 C 0.63637 0.33136 0.53019 0.0
C588 C 0.60906 0.3426 0.5308 0.0
C589 C 0.59274 0.3431 0.57481 0.0
H590 H 0.91621 0.34543 0.93833 0.0
H591 H 0.91167 0.27021 1.02288 0.0
H592 H 0.89787 0.24282 0.94604 0.0
H593 H 0.85718 0.3271 0.8506 0.0
H594 H 0.87477 0.34171 0.79802 0.0
H595 H 0.88067 0.35643 0.86099 0.0
H596 H 0.93424 0.34902 0.85004 0.0
H597 H 0.92854 0.3344 0.7872 0.0
H598 H 0.94733 0.31454 0.83216 0.0
H599 H 0.88843 0.22333 0.8627 0.0
H600 H 0.88642 0.21104 0.773 0.0
H601 H 0.89859 0.2978 0.73885 0.0
C602 C 0.91137 0.32339 0.94071 0.0
C603 C 0.91425 0.30987 0.98613 0.0
C604 C 0.9088 0.2809 0.98829 0.0
C605 C 0.90098 0.26522 0.94503 0.0
C606 C 0.89847 0.27907 0.9006 0.0
C607 C 0.90351 0.30741 0.89783 0.0
C608 C 0.90179 0.31639 0.84422 0.0
C609 C 0.87713 0.33661 0.83809 0.0
C610 C 0.92964 0.32932 0.82745 0.0
C611 C 0.89621 0.28832 0.8172 0.0
C612 C 0.89382 0.26738 0.85092 0.0
C613 C 0.8901 0.23949 0.83582 0.0
C614 C 0.88944 0.2326 0.78459 0.0
C615 C 0.89316 0.25325 0.74925 0.0
C616 C 0.89565 0.28165 0.76547 0.0
H617 H 0.90931 0.75641 0.27009 0.0
H618 H 0.91415 0.68641 0.36762 0.0
H619 H 0.91918 0.65385 0.29438 0.0
H620 H 0.86939 0.72195 0.17294 0.0
H621 H 0.88767 0.73674 0.12127 0.0
H622 H 0.88611 0.75574 0.18148 0.0
H623 H 0.94013 0.75892 0.18402 0.0
H624 H 0.94201 0.74009 0.12364 0.0
H625 H 0.96075 0.72736 0.17675 0.0
H626 H 0.92127 0.62821 0.21392 0.0
H627 H 0.9242 0.61027 0.12554 0.0
H628 H 0.91841 0.69541 0.07663 0.0
C629 C 0.91207 0.73435 0.27575 0.0
C630 C 0.91138 0.72394 0.32444 0.0
C631 C 0.91439 0.69483 0.33059 0.0
C632 C 0.91735 0.67609 0.28926 0.0
C633 C 0.91729 0.68669 0.24181 0.0
C634 C 0.91509 0.71505 0.23438 0.0
C635 C 0.91525 0.72026 0.17855 0.0
C636 C 0.88797 0.7345 0.16265 0.0
C637 C 0.94108 0.73767 0.16494 0.0
C638 C 0.91715 0.69026 0.1565 0.0
C639 C 0.91839 0.67142 0.19399 0.0
C640 C 0.9203 0.6426 0.18388 0.0
C641 C 0.92166 0.63256 0.13373 0.0
C642 C 0.92098 0.65132 0.09457 0.0
C643 C 0.91833 0.68054 0.10601 0.0
H644 H 0.47249 0.31212 0.48695 0.0
H645 H 0.52338 0.38545 0.52472 0.0
H646 H 0.5066 0.38529 0.61294 0.0
H647 H 0.41306 0.3297 0.56698 0.0
H648 H 0.40736 0.29435 0.58532 0.0
H649 H 0.42312 0.30045 0.52532 0.0
H650 H 0.4657 0.27007 0.5484 0.0
H651 H 0.45001 0.264 0.60844 0.0
H652 H 0.48482 0.27859 0.6057 0.0
H653 H 0.48262 0.37765 0.69882 0.0
H654 H 0.45632 0.36235 0.77261 0.0
H655 H 0.42167 0.29278 0.68172 0.0
C656 C 0.4802 0.32814 0.51378 0.0
C657 C 0.49949 0.34886 0.49805 0.0
C658 C 0.50888 0.36926 0.53506 0.0
C659 C 0.49928 0.36937 0.58556 0.0
C660 C 0.48026 0.34878 0.59962 0.0
C661 C 0.471 0.32836 0.56474 0.0
C662 C 0.45115 0.3081 0.58994 0.0
C663 C 0.42194 0.30816 0.5654 0.0
C664 C 0.46366 0.27843 0.588 0.0
C665 C 0.45007 0.32056 0.64409 0.0
C666 C 0.46707 0.34405 0.64883 0.0
C667 C 0.46936 0.35926 0.69507 0.0
C668 C 0.45415 0.35039 0.73709 0.0
C669 C 0.43652 0.32636 0.73374 0.0
C670 C 0.43468 0.31129 0.6861 0.0
H671 H 0.49249 0.66662 0.5648 0.0
H672 H 0.4895 0.57596 0.55718 0.0
H673 H 0.46525 0.57649 0.47474 0.0
H674 H 0.42525 0.67732 0.51055 0.0
H675 H 0.43529 0.70694 0.47534 0.0
H676 H 0.45372 0.69969 0.53238 0.0
H677 H 0.50113 0.69767 0.48407 0.0
H678 H 0.48248 0.70602 0.4278 0.0
H679 H 0.50409 0.67513 0.4278 0.0
H680 H 0.43686 0.58719 0.39627 0.0
H681 H 0.41323 0.60659 0.32288 0.0
H682 H 0.43716 0.69046 0.37647 0.0
C683 C 0.48768 0.64688 0.54478 0.0
C684 C 0.49394 0.62113 0.56683 0.0
C685 C 0.48594 0.59585 0.54044 0.0
C686 C 0.4718 0.596 0.49375 0.0
C687 C 0.46561 0.62168 0.47334 0.0
C688 C 0.47379 0.64669 0.49755 0.0
C689 C 0.46422 0.67141 0.4676 0.0
C690 C 0.44339 0.68993 0.49832 0.0
C691 C 0.48949 0.68857 0.45084 0.0
C692 C 0.44967 0.65644 0.42263 0.0
C693 C 0.45019 0.62776 0.42733 0.0
C694 C 0.43678 0.60959 0.39203 0.0
C695 C 0.42319 0.62084 0.35047 0.0
C696 C 0.42337 0.65003 0.34341 0.0
C697 C 0.43678 0.66802 0.38039 0.0
H698 H 0.085 0.70134 0.26151 0.0
H699 H 0.11312 0.61767 0.28989 0.0
H700 H 0.09301 0.6005 0.20824 0.0
H701 H 0.01862 0.67973 0.20474 0.0
H702 H 0.01843 0.70653 0.15952 0.0
H703 H 0.03595 0.71274 0.21918 0.0
H704 H 0.08188 0.72422 0.1735 0.0
H705 H 0.06464 0.71831 0.11358 0.0
H706 H 0.09614 0.69927 0.12719 0.0
H707 H 0.06985 0.59224 0.12136 0.0
H708 H 0.04672 0.59399 0.03828 0.0
H709 H 0.031 0.68256 0.06624 0.0
C710 C 0.08741 0.67964 0.25067 0.0
C711 C 0.10136 0.6612 0.28291 0.0
C712 C 0.10293 0.6325 0.26645 0.0
C713 C 0.0914 0.62247 0.21988 0.0
C714 C 0.07754 0.64115 0.18959 0.0
C715 C 0.07537 0.66918 0.20447 0.0
C716 C 0.05859 0.68472 0.16548 0.0
C717 C 0.03129 0.69664 0.18863 0.0
C718 C 0.07638 0.708 0.14363 0.0
C719 C 0.05231 0.66125 0.12572 0.0
C720 C 0.0633 0.63622 0.14071 0.0
C721 C 0.06081 0.61169 0.10996 0.0
C722 C 0.04721 0.61275 0.06283 0.0
C723 C 0.03568 0.63799 0.04623 0.0
C724 C 0.03846 0.66262 0.07845 0.0
H725 H 0.09888 0.35493 0.79347 0.0
H726 H 0.10107 0.26446 0.795 0.0
H727 H 0.07495 0.26654 0.87538 0.0
H728 H 0.11165 0.36571 0.92882 0.0
H729 H 0.09009 0.39666 0.93522 0.0
H730 H 0.10737 0.38774 0.87637 0.0
H731 H 0.05965 0.38865 0.83015 0.0
H732 H 0.04216 0.39737 0.8889 0.0
H733 H 0.03127 0.36704 0.85061 0.0
H734 H 0.0451 0.27912 0.95556 0.0
H735 H 0.02309 0.3004 1.03285 0.0
H736 H 0.04554 0.38294 0.98628 0.0
C737 C 0.09399 0.33552 0.81082 0.0
C738 C 0.10194 0.30937 0.7868 0.0
C739 C 0.09531 0.28469 0.81172 0.0
C740 C 0.08022 0.28573 0.85764 0.0
C741 C 0.0724 0.31178 0.87986 0.0
C742 C 0.0798 0.33629 0.85781 0.0
C743 C 0.07077 0.36167 0.89124 0.0
C744 C 0.0965 0.37897 0.90897 0.0
C745 C 0.04972 0.37975 0.86356 0.0
C746 C 0.05675 0.34776 0.93519 0.0
C747 C 0.05738 0.31893 0.92736 0.0
C748 C 0.04479 0.30167 0.9619 0.0
C749 C 0.03196 0.314 1.0057 0.0
C750 C 0.03196 0.34344 1.01579 0.0
C751 C 0.04471 0.3604 0.97967 0.0
H752 H -0.00825 0.29384 0.24883 0.0
H753 H 0.95554 0.26813 0.105 0.0
H754 H 0.93792 0.22576 0.1407 0.0
H755 H 0.0283 0.26678 0.28089 0.0
H756 H 0.02494 0.24751 0.3367 0.0
H757 H 0.00271 0.27696 0.32861 0.0
H758 H 0.96222 0.24151 0.34668 0.0
H759 H 0.98681 0.21282 0.34643 0.0
H760 H 0.95695 0.21104 0.305 0.0
H761 H 0.98193 0.20104 0.12497 0.0
H762 H 0.03059 0.18635 0.11907 0.0
H763 H 0.0441 0.21153 0.27479 0.0
C764 C 0.98032 0.27863 0.22529 0.0
C765 C 0.97772 0.28241 0.1734 0.0
C766 C 0.95987 0.26467 0.14412 0.0
C767 C 0.94898 0.24099 0.16496 0.0
C768 C 0.96155 0.23289 0.20929 0.0
C769 C 0.97204 0.25317 0.24462 0.0
C770 C -0.00928 0.23941 0.28221 0.0
C771 C 0.01304 0.25884 0.30835 0.0
C772 C 0.9731 0.22535 0.32231 0.0
C773 C 0.00259 0.21774 0.2458 0.0
C774 C 0.98455 0.21303 0.205 0.0
C775 C -0.00512 0.20244 0.15848 0.0
C776 C 0.02302 0.19562 0.1544 0.0
C777 C 0.03967 0.1957 0.19787 0.0
C778 C 0.03053 0.20971 0.24227 0.0
H779 H 0.98782 0.79964 0.35859 0.0
H780 H -0.00953 0.83167 0.51167 0.0
H781 H 0.01473 0.78823 0.53709 0.0
H782 H 0.96023 0.73609 0.39005 0.0
H783 H 0.97605 0.71747 0.33694 0.0
H784 H 0.96813 0.75416 0.33344 0.0
H785 H 0.02054 0.76115 0.31093 0.0
H786 H 0.02919 0.72507 0.31967 0.0
H787 H 0.04671 0.75288 0.35652 0.0
H788 H 0.02909 0.73698 0.5449 0.0
H789 H 0.05107 0.69082 0.52732 0.0
H790 H 0.01957 0.68836 0.37574 0.0
C791 C -0.00517 0.7981 0.39718 0.0
C792 C 0.98319 0.81545 0.43582 0.0
C793 C -0.00443 0.81528 0.48387 0.0
C794 C 0.00888 0.79079 0.49828 0.0
C795 C 0.01079 0.76878 0.46191 0.0
C796 C 0.00459 0.77245 0.41179 0.0
C797 C 0.00431 0.74519 0.38084 0.0
C798 C 0.9754 0.73792 0.35884 0.0
C799 C 0.02652 0.74597 0.33936 0.0
C800 C 0.01155 0.72551 0.42115 0.0
C801 C 0.01539 0.73951 0.46769 0.0
C802 C 0.02643 0.7261 0.50854 0.0
C803 C 0.038 0.69944 0.49858 0.0
C804 C 0.0403 0.6894 0.4477 0.0
C805 C 0.02 0.69783 0.41367 0.0
H806 H 0.5485 0.70024 0.78018 0.0
H807 H 0.58886 0.68837 0.63678 0.0
H808 H 0.59662 0.73853 0.63448 0.0
H809 H 0.50256 0.71828 0.76859 0.0
H810 H 0.49172 0.75092 0.79905 0.0
H811 H 0.5197 0.73166 0.82579 0.0
H812 H 0.54849 0.77782 0.82368 0.0
H813 H 0.51984 0.79399 0.7916 0.0
H814 H 0.55452 0.79388 0.76489 0.0
H815 H 0.55523 0.75565 0.59334 0.0
H816 H 0.50743 0.76683 0.56529 0.0
H817 H 0.47716 0.76062 0.71662 0.0
C818 C 0.55929 0.70912 0.74903 0.0
C819 C 0.56422 0.69213 0.70582 0.0
C820 C 0.58207 0.70186 0.66846 0.0
C821 C 0.58662 0.73052 0.66732 0.0
C822 C 0.56853 0.74745 0.69684 0.0
C823 C 0.55835 0.73796 0.74305 0.0
C824 C 0.53183 0.75355 0.75829 0.0
C825 C 0.51021 0.73752 0.78962 0.0
C826 C 0.53925 0.7815 0.78621 0.0
C827 C 0.52168 0.75854 0.70646 0.0
C828 C 0.54371 0.75825 0.67259 0.0
C829 C 0.53851 0.75833 0.62063 0.0
C830 C 0.51103 0.76262 0.60442 0.0
C831 C 0.48984 0.76766 0.64057 0.0
C832 C 0.49409 0.75911 0.68953 0.0
H833 H 0.5337 0.22325 0.83219 0.0
H834 H 0.53761 0.1986 0.98438 0.0
H835 H 0.53316 0.24744 1.01556 0.0
H836 H 0.56952 0.2971 0.86166 0.0
H837 H 0.54667 0.31399 0.81858 0.0
H838 H 0.55838 0.27879 0.80355 0.0
H839 H 0.51084 0.2597 0.79098 0.0
H840 H 0.49639 0.29388 0.80163 0.0
H841 H 0.48433 0.26527 0.83821 0.0
H842 H 0.52482 0.29381 1.0308 0.0
H843 H 0.47501 0.29994 1.0266 0.0
H844 H 0.48043 0.3179 0.8717 0.0
C845 C 0.53331 0.22861 0.87227 0.0
C846 C 0.5426 0.20927 0.90673 0.0
C847 C 0.53543 0.21473 0.95749 0.0
C848 C 0.53475 0.24264 0.97549 0.0
C849 C 0.536 0.26365 0.94046 0.0
C850 C 0.53341 0.25674 0.88943 0.0
C851 C 0.52604 0.28188 0.86066 0.0
C852 C 0.55181 0.29363 0.83478 0.0
C853 C 0.50294 0.27483 0.82079 0.0
C854 C 0.51759 0.30166 0.90464 0.0
C855 C 0.52887 0.29278 0.95025 0.0
C856 C 0.51594 0.30039 0.996 0.0
C857 C 0.4872 0.30435 0.99426 0.0
C858 C 0.47446 0.30558 0.94729 0.0
C859 C 0.49077 0.31322 0.90651 0.0
H860 H 0.05753 0.76636 0.91494 0.0
H861 H 0.02334 0.77352 0.76724 0.0
H862 H 0.97632 0.76189 0.79784 0.0
H863 H 0.02166 0.71903 0.96986 0.0
H864 H 0.01509 0.73854 1.02884 0.0
H865 H 0.04462 0.74695 0.99149 0.0
H866 H 0.02878 0.79754 0.99045 0.0
H867 H -0.00232 0.79036 1.02658 0.0
H868 H -0.00535 0.80507 0.9657 0.0
H869 H 0.93665 0.74676 0.84256 0.0
H870 H 0.93334 0.6993 0.87042 0.0
H871 H 0.97033 0.72496 1.01153 0.0
C872 C 0.04001 0.76468 0.88894 0.0
C873 C 0.04171 0.77639 0.84193 0.0
C874 C 0.02087 0.76861 0.80614 0.0
C875 C -0.0062 0.7638 0.82379 0.0
C876 C -0.00985 0.76379 0.87601 0.0
C877 C 0.013 0.76272 0.90787 0.0
C878 C 0.0043 0.76136 0.9615 0.0
C879 C 0.02236 0.74012 0.98942 0.0
C880 C 0.0066 0.79035 0.98801 0.0
C881 C 0.97355 0.7538 0.95329 0.0
C882 C 0.96484 0.75897 0.90365 0.0
C883 C 0.94388 0.74254 0.88002 0.0
C884 C 0.94145 0.71545 0.89608 0.0
C885 C 0.95562 0.70885 0.94007 0.0
C886 C 0.96253 0.7304 0.97505 0.0
H887 H 0.52897 0.78815 0.097 0.0
H888 H 0.52909 0.78348 0.25686 0.0
H889 H 0.51756 0.73276 0.24897 0.0
H890 H 0.46685 0.73937 0.08991 0.0
H891 H 0.47603 0.72829 1.0261 0.0
H892 H 0.48436 0.76304 0.04989 0.0
H893 H 0.53454 0.75264 1.02163 0.0
H894 H 0.52902 0.71577 1.00632 0.0
H895 H 0.55455 0.72713 0.05303 0.0
H896 H 0.51984 0.68151 0.22121 0.0
H897 H 0.487 0.64505 0.19025 0.0
H898 H 0.48332 0.68157 0.04724 0.0
C899 C 0.52598 0.77635 0.13026 0.0
C900 C 0.53742 0.78549 0.17687 0.0
C901 C 0.52567 0.7736 0.21975 0.0
C902 C 0.52053 0.74464 0.21583 0.0
C903 C 0.521 0.73186 0.16735 0.0
C904 C 0.5198 0.74781 0.12537 0.0
C905 C 0.51157 0.73055 0.07893 0.0
C906 C 0.48299 0.74082 0.0601 0.0
C907 C 0.53373 0.73156 0.03738 0.0
C908 C 0.51005 0.7019 0.10101 0.0
C909 C 0.5177 0.70306 0.15159 0.0
C910 C 0.5131 0.68072 0.18227 0.0
C911 C 0.4948 0.65975 0.16391 0.0
C912 C 0.47922 0.66524 0.12032 0.0
C913 C 0.49299 0.67991 0.08326 0.0
H914 H 0.4597 0.23898 0.41588 0.0
H915 H 0.52304 0.21986 0.52306 0.0
H916 H 0.56007 0.22579 0.4592 0.0
H917 H 0.49844 0.19563 0.31443 0.0
H918 H 0.48386 0.21654 0.26631 0.0
H919 H 0.46426 0.21097 0.32278 0.0
H920 H 0.4577 0.26347 0.34042 0.0
H921 H 0.47648 0.26977 0.28409 0.0
H922 H 0.48797 0.28599 0.3436 0.0
H923 H 0.58824 0.2337 0.38617 0.0
H924 H 0.59905 0.27882 0.35395 0.0
H925 H 0.52294 0.27713 0.26803 0.0
C926 C 0.48161 0.23738 0.42617 0.0
C927 C 0.4891 0.22383 0.46966 0.0
C928 C 0.51722 0.2261 0.4859 0.0
C929 C 0.53819 0.228 0.44931 0.0
C930 C 0.52954 0.23097 0.39952 0.0
C931 C 0.50197 0.2372 0.38851 0.0
C932 C 0.49795 0.24103 0.33353 0.0
C933 C 0.48546 0.2144 0.30761 0.0
C934 C 0.47902 0.26663 0.32493 0.0
C935 C 0.52839 0.244 0.31832 0.0
C936 C 0.54637 0.23358 0.35502 0.0
C937 C 0.57428 0.24216 0.35865 0.0
C938 C 0.58068 0.26783 0.33927 0.0
C939 C 0.55922 0.28218 0.31478 0.0
C940 C 0.53762 0.26661 0.29169 0.0
H941 H 0.03064 0.25486 0.74189 0.0
H942 H 0.03046 0.28882 0.59719 0.0
H943 H 0.0291 0.24177 0.5563 0.0
H944 H 0.06879 0.18199 0.70263 0.0
H945 H 0.04569 0.16494 0.74453 0.0
H946 H 0.05747 0.19995 0.7612 0.0
H947 H 0.00668 0.21521 0.77238 0.0
H948 H -0.00519 0.18064 0.75519 0.0
H949 H 0.98218 0.21 0.72131 0.0
H950 H 0.02535 0.19601 0.5324 0.0
H951 H 0.975 0.1934 0.54034 0.0
H952 H 0.98548 0.15562 0.68175 0.0
C953 C 0.03051 0.2517 0.70127 0.0
C954 C 0.03903 0.27329 0.67064 0.0
C955 C 0.03017 0.27082 0.62034 0.0
C956 C 0.03124 0.24409 0.59678 0.0
C957 C 0.03474 0.22099 0.62715 0.0
C958 C 0.03207 0.22453 0.67899 0.0
C959 C 0.02559 0.19728 0.70222 0.0
C960 C 0.05103 0.18548 0.7292 0.0
C961 C 0.00078 0.20095 0.73972 0.0
C962 C 0.0196 0.17928 0.65438 0.0
C963 C 0.02991 0.19204 0.61144 0.0
C964 C 0.01682 0.18689 0.56502 0.0
C965 C 0.98801 0.18378 0.56757 0.0
C966 C 0.97635 0.17492 0.61189 0.0
C967 C -0.00576 0.16494 0.64903 0.0
H968 H 0.08194 0.02311 0.1226 0.0
H969 H -0.00674 0.03372 0.15506 0.0
H970 H 0.98179 0.00074 0.0834 0.0
H971 H 0.07481 0.0274 0.99556 0.0
H972 H 0.10185 0.00246 0.97794 0.0
H973 H 0.10382 0.02204 0.03751 0.0
H974 H 0.10607 0.97626 0.0861 0.0
H975 H 0.10594 0.95661 1.0265 0.0
H976 H 0.08008 0.94934 0.07344 0.0
H977 H 0.98036 0.97075 1.00118 0.0
H978 H -0.0103 0.93911 0.92647 0.0
H979 H 0.07899 0.95332 0.94545 0.0
C980 C 0.06012 0.01771 0.11606 0.0
C981 C 0.03855 0.03109 0.14434 0.0
C982 C 0.01023 0.02353 0.13422 0.0
C983 C 0.00347 0.00516 0.09304 0.0
C984 C 0.02529 -0.00537 0.06283 0.0
C985 C 0.05306 0.00013 0.07471 0.0
C986 C 0.07266 0.98813 1.03475 0.0
C987 C 0.08926 0.0114 1.01001 0.0
C988 C 0.09233 0.96628 0.05649 0.0
C989 C 0.05169 0.97477 0.99854 0.0
C990 C 0.02442 0.97881 1.01496 0.0
C991 C 0.00163 0.9675 0.98797 0.0
C992 C 0.00709 0.95003 0.94501 0.0
C993 C 0.03508 0.94414 0.93009 0.0
C994 C 0.05742 0.95786 0.9557 0.0
H995 H 0.21255 0.67985 0.33779 0.0
H996 H 0.19813 0.76952 0.34933 0.0
H997 H 0.23726 0.77656 0.29026 0.0
H998 H 0.28931 0.68238 0.32553 0.0
H999 H 0.28944 0.65246 0.28138 0.0
H1000 H 0.2625 0.65587 0.32859 0.0
H1001 H 0.22527 0.65085 0.25748 0.0
H1002 H 0.25213 0.64905 0.20987 0.0
H1003 H 0.22515 0.67539 0.20826 0.0
H1004 H 0.27713 0.77333 0.22705 0.0
H1005 H 0.31876 0.76034 0.17504 0.0
H1006 H 0.30355 0.67279 0.20024 0.0
C1007 C 0.21821 0.70102 0.32913 0.0
C1008 C 0.20259 0.72419 0.34831 0.0
C1009 C 0.21006 0.75154 0.33508 0.0
C1010 C 0.23205 0.7557 0.30128 0.0
C1011 C 0.24604 0.73225 0.2807 0.0
C1012 C 0.23971 0.70549 0.29479 0.0
C1013 C 0.25729 0.68372 0.26629 0.0
C1014 C 0.27573 0.66768 0.30261 0.0
C1015 C 0.23885 0.66357 0.23353 0.0
C1016 C 0.27466 0.70241 0.23428 0.0
C1017 C 0.26786 0.73033 0.24281 0.0
C1018 C 0.2825 0.7515 0.21968 0.0
C1019 C 0.3058 0.74397 0.18953 0.0
C1020 C 0.31399 0.71559 0.18321 0.0
C1021 C 0.29735 0.69461 0.20383 0.0
H1022 H 0.48686 0.06576 0.54896 0.0
H1023 H 0.48525 0.03612 0.39223 0.0
H1024 H 0.48843 0.98703 0.41824 0.0
H1025 H 0.53757 0.01282 0.59017 0.0
H1026 H 0.52065 0.01055 0.65041 0.0
H1027 H 0.51998 0.043 0.61873 0.0
H1028 H 0.46568 0.04352 0.62371 0.0
H1029 H 0.46613 0.01107 0.6551 0.0
H1030 H 0.44614 0.01376 0.59798 0.0
H1031 H 0.48302 0.94297 0.46152 0.0
H1032 H 0.47642 0.90484 0.51854 0.0
H1033 H 0.48953 0.96219 0.64794 0.0
C1034 C 0.48766 0.04884 0.52028 0.0
C1035 C 0.4857 0.05415 0.46886 0.0
C1036 C 0.48677 0.03199 0.43181 0.0
C1037 C 0.4886 0.00428 0.44627 0.0
C1038 C 0.49019 -0.00034 0.4976 0.0
C1039 C 0.49036 0.02131 0.534 0.0
C1040 C 0.49164 0.01069 0.58657 0.0
C1041 C 0.5191 0.0198 0.61303 0.0
C1042 C 0.46586 0.02033 0.61764 0.0
C1043 C 0.49104 0.97947 0.57427 0.0
C1044 C 0.48996 0.97374 0.52262 0.0
C1045 C 0.48519 0.94698 0.50177 0.0
C1046 C 0.48164 0.92546 0.53442 0.0
C1047 C 0.48396 0.93052 0.58713 0.0
C1048 C 0.48886 0.9578 0.6076 0.0
H1049 H 0.30288 0.23867 0.872 0.0
H1050 H 0.31177 0.32822 0.90125 0.0
H1051 H 0.27302 0.33653 0.84263 0.0
H1052 H 0.29263 0.23787 0.74913 0.0
H1053 H 0.26544 0.21169 0.74213 0.0
H1054 H 0.28927 0.21138 0.7946 0.0
H1055 H 0.24818 0.21433 0.85849 0.0
H1056 H 0.2241 0.21282 0.80611 0.0
H1057 H 0.22193 0.24116 0.85335 0.0
H1058 H 0.24253 0.33544 0.76707 0.0
H1059 H 0.20852 0.32524 0.69898 0.0
H1060 H 0.21678 0.23614 0.72112 0.0
C1061 C 0.29522 0.25983 0.86878 0.0
C1062 C 0.30985 0.28282 0.89155 0.0
C1063 C 0.30024 0.31039 0.88492 0.0
C1064 C 0.27862 0.31533 0.851 0.0
C1065 C 0.26635 0.29235 0.82534 0.0
C1066 C 0.27315 0.2651 0.83567 0.0
C1067 C 0.25728 0.24433 0.80117 0.0
C1068 C 0.27737 0.2252 0.76993 0.0
C1069 C 0.23664 0.22715 0.83159 0.0
C1070 C 0.24186 0.26423 0.76827 0.0
C1071 C 0.24766 0.2918 0.7826 0.0
C1072 C 0.23707 0.31395 0.75643 0.0
C1073 C 0.21812 0.30788 0.71712 0.0
C1074 C 0.20963 0.2799 0.70505 0.0
C1075 C 0.22272 0.25777 0.72952 0.0
H1076 H 0.71729 0.24909 0.8498 0.0
H1077 H 0.7158 0.16186 0.88851 0.0
H1078 H 0.75073 0.15062 0.82259 0.0
H1079 H 0.72182 0.2373 0.72058 0.0
H1080 H 0.74607 0.26512 0.7086 0.0
H1081 H 0.72302 0.26831 0.76218 0.0
H1082 H 0.76447 0.27577 0.82405 0.0
H1083 H 0.7877 0.27489 0.77072 0.0
H1084 H 0.79352 0.2516 0.82088 0.0
H1085 H 0.7788 0.14725 0.7441 0.0
H1086 H 0.81472 0.15438 0.67978 0.0
H1087 H 0.80221 0.24416 0.6963 0.0
C1088 C 0.72504 0.2278 0.84568 0.0
C1089 C 0.71342 0.20626 0.87381 0.0
C1090 C 0.72424 0.17872 0.8674 0.0
C1091 C 0.74372 0.17201 0.82939 0.0
C1092 C 0.75257 0.19321 0.79907 0.0
C1093 C 0.7448 0.22078 0.80838 0.0
C1094 C 0.75829 0.23963 0.77108 0.0
C1095 C 0.73596 0.25339 0.7387 0.0
C1096 C 0.77713 0.26176 0.79831 0.0
C1097 C 0.77523 0.21829 0.7398 0.0
C1098 C 0.7705 0.19153 0.75542 0.0
C1099 C 0.78301 0.16811 0.73195 0.0
C1100 C 0.80292 0.17234 0.69463 0.0
C1101 C 0.81099 0.19978 0.68291 0.0
C1102 C 0.7959 0.22299 0.70364 0.0
H1103 H 0.80403 0.80801 0.37191 0.0
H1104 H 0.82945 0.72098 0.36396 0.0
H1105 H 0.79041 0.70956 0.30493 0.0
H1106 H 0.72566 0.79371 0.36001 0.0
H1107 H 0.72099 0.82425 0.32391 0.0
H1108 H 0.74789 0.82392 0.37151 0.0
H1109 H 0.78425 0.83667 0.30423 0.0
H1110 H 0.75781 0.8355 0.25579 0.0
H1111 H 0.78866 0.81386 0.24864 0.0
H1112 H 0.75337 0.70905 0.23809 0.0
H1113 H 0.71332 0.71694 0.18171 0.0
H1114 H 0.71158 0.80461 0.23273 0.0
C1115 C 0.80028 0.78631 0.35991 0.0
C1116 C 0.81906 0.76513 0.3735 0.0
C1117 C 0.81455 0.73718 0.3554 0.0
C1118 C 0.79278 0.73067 0.32116 0.0
C1119 C 0.77564 0.75236 0.30603 0.0
C1120 C 0.77845 0.77946 0.32617 0.0
C1121 C 0.75782 0.79902 0.30233 0.0
C1122 C 0.73684 0.81092 0.34178 0.0
C1123 C 0.77306 0.82265 0.27619 0.0
C1124 C 0.74362 0.77887 0.26437 0.0
C1125 C 0.75434 0.75211 0.2671 0.0
C1126 C 0.74458 0.72983 0.23606 0.0
C1127 C 0.72207 0.73458 0.2037 0.0
C1128 C 0.70956 0.76141 0.20244 0.0
C1129 C 0.72116 0.78405 0.23193 0.0
H1130 H 0.57778 0.52177 0.62939 0.0
H1131 H 0.48827 0.53467 0.65008 0.0
H1132 H 0.4789 0.50427 0.5745 0.0
H1133 H 0.57933 0.5267 0.5031 0.0
H1134 H 0.60455 0.49938 0.48868 0.0
H1135 H 0.60501 0.5178 0.54944 0.0
H1136 H 0.59964 0.47155 0.59531 0.0
H1137 H 0.60121 0.45277 0.53491 0.0
H1138 H 0.57207 0.44736 0.57639 0.0
H1139 H 0.47955 0.47855 0.48996 0.0
H1140 H 0.48946 0.44686 0.41598 0.0
H1141 H 0.57859 0.453 0.44899 0.0
C1142 C 0.55615 0.51728 0.61934 0.0
C1143 C 0.53383 0.53097 0.64522 0.0
C1144 C 0.5058 0.52447 0.63091 0.0
C1145 C 0.50023 0.50757 0.58746 0.0
C1146 C 0.52289 0.49694 0.5597 0.0
C1147 C 0.55023 0.50052 0.57615 0.0
C1148 C 0.57084 0.48724 0.539 0.0
C1149 C 0.59111 0.5091 0.51888 0.0
C1150 C 0.58687 0.4633 0.56281 0.0
C1151 C 0.55079 0.47624 0.49851 0.0
C1152 C 0.52326 0.48221 0.51096 0.0
C1153 C 0.501 0.4734 0.48002 0.0
C1154 C 0.50688 0.4558 0.43753 0.0
C1155 C 0.53476 0.44714 0.42708 0.0
C1156 C 0.55703 0.45917 0.456 0.0
H1157 H 0.02355 0.55454 1.00245 0.0
H1158 H 0.96751 0.53554 0.87713 0.0
H1159 H 0.95295 0.49201 0.91587 0.0
H1160 H 0.04405 0.48092 1.02863 0.0
H1161 H 0.04357 0.48887 0.09565 0.0
H1162 H 0.05264 0.51573 0.05349 0.0
H1163 H 0.01356 0.54697 0.09435 0.0
H1164 H 0.00345 0.51956 0.13468 0.0
H1165 H 0.9779 0.53435 0.09377 0.0
H1166 H 0.93691 0.45799 0.97577 0.0
H1167 H 0.93216 0.42294 0.03852 0.0
H1168 H 0.00169 0.46083 0.1239 0.0
C1169 C 0.00979 0.54016 0.98155 0.0
C1170 C -0.00269 0.54773 0.93603 0.0
C1171 C 0.97804 0.5294 0.91096 0.0
C1172 C 0.96916 0.50508 0.93337 0.0
C1173 C 0.98004 0.49954 0.98044 0.0
C1174 C 0.00077 0.51581 1.00348 0.0
C1175 C 0.00787 0.50575 0.05521 0.0
C1176 C 0.03888 0.49729 0.05839 0.0
C1177 C 0.00025 0.52799 0.09693 0.0
C1178 C 0.98852 0.48067 0.0567 0.0
C1179 C 0.97181 0.47848 1.01415 0.0
C1180 C 0.95059 0.45875 1.00832 0.0
C1181 C 0.948 0.43902 0.04472 0.0
C1182 C 0.9674 0.43836 0.08531 0.0
C1183 C 0.98697 0.46039 0.09282 0.0
H1184 H 0.05665 0.16146 0.32609 0.0
H1185 H 0.13292 0.11203 0.3187 0.0
H1186 H 0.1498 0.13682 0.39646 0.0
H1187 H 0.09527 0.22664 0.37372 0.0
H1188 H 0.06556 0.23914 0.41025 0.0
H1189 H 0.06036 0.21729 0.35375 0.0
H1190 H 0.03179 0.18086 0.40372 0.0
H1191 H 0.03593 0.20588 0.4555 0.0
H1192 H 0.04662 0.1697 0.46176 0.0
H1193 H 0.15991 0.16786 0.47448 0.0
H1194 H 0.16031 0.19886 0.55142 0.0
H1195 H 0.07788 0.22985 0.51395 0.0
C1196 C 0.0767 0.1554 0.34087 0.0
C1197 C 0.09306 0.1338 0.31545 0.0
C1198 C 0.11952 0.12776 0.33697 0.0
C1199 C 0.1295 0.14205 0.38131 0.0
C1200 C 0.11327 0.16326 0.40472 0.0
C1201 C 0.08746 0.17008 0.38527 0.0
C1202 C 0.07498 0.19467 0.4175 0.0
C1203 C 0.07399 0.22105 0.38703 0.0
C1204 C 0.04562 0.18724 0.43598 0.0
C1205 C 0.09648 0.1988 0.46061 0.0
C1206 C 0.11898 0.18114 0.45065 0.0
C1207 C 0.14233 0.1817 0.48245 0.0
C1208 C 0.14254 0.19982 0.52612 0.0
C1209 C 0.11968 0.21775 0.53917 0.0
C1210 C 0.09623 0.21724 0.50512 0.0
H1211 H 0.08849 0.73731 0.5672 0.0
H1212 H 0.13441 0.80026 0.48935 0.0
H1213 H 0.12937 0.83343 0.56268 0.0
H1214 H 0.0399 0.78449 0.62667 0.0
H1215 H 0.03816 0.7681 0.68591 0.0
H1216 H 0.04676 0.74749 0.62976 0.0
H1217 H 0.09292 0.73087 0.66852 0.0
H1218 H 0.08417 0.75028 0.72624 0.0
H1219 H 0.11722 0.75635 0.69573 0.0
H1220 H 0.11576 0.86226 0.64194 0.0
H1221 H 0.10169 0.8812 0.72674 0.0
H1222 H 0.06869 0.79959 0.75877 0.0
C1223 C 0.09854 0.75761 0.56648 0.0
C1224 C 0.1127 0.76565 0.52227 0.0
C1225 C 0.12414 0.79313 0.52268 0.0
C1226 C 0.12109 0.81239 0.56419 0.0
C1227 C 0.10647 0.8043 0.60635 0.0
C1228 C 0.09598 0.77733 0.60856 0.0
C1229 C 0.0809 0.77451 0.6588 0.0
C1230 C 0.04958 0.7683 0.64972 0.0
C1231 C 0.09463 0.75165 0.68912 0.0
C1232 C 0.08513 0.80378 0.68441 0.0
C1233 C 0.09926 0.82083 0.65276 0.0
C1234 C 0.10477 0.84896 0.66709 0.0
C1235 C 0.09641 0.85974 0.71534 0.0
C1236 C 0.08298 0.84257 0.74979 0.0
C1237 C 0.07759 0.81403 0.73357 0.0
H1238 H 0.42763 0.79836 0.99571 0.0
H1239 H 0.37719 0.7296 0.93268 0.0
H1240 H 0.3887 0.74324 0.84727 0.0
H1241 H 0.3972 0.84559 0.89795 0.0
H1242 H 0.42821 0.86711 0.89619 0.0
H1243 H 0.41878 0.85076 0.95338 0.0
H1244 H 0.46757 0.82727 0.95566 0.0
H1245 H 0.47675 0.8439 0.89877 0.0
H1246 H 0.47927 0.80621 0.90146 0.0
H1247 H 0.40991 0.76026 0.7693 0.0
H1248 H 0.42447 0.78825 0.69985 0.0
H1249 H 0.45224 0.85484 0.806 0.0
C1250 C 0.41895 0.78625 0.96385 0.0
C1251 C 0.40329 0.76118 0.97137 0.0
C1252 C 0.39097 0.74734 0.92848 0.0
C1253 C 0.39718 0.75518 0.87949 0.0
C1254 C 0.41387 0.77873 0.87316 0.0
C1255 C 0.42302 0.79528 0.91393 0.0
C1256 C 0.43663 0.82203 0.89506 0.0
C1257 C 0.41917 0.84791 0.91165 0.0
C1258 C 0.46691 0.82502 0.91387 0.0
C1259 C 0.43547 0.81679 0.83746 0.0
C1260 C 0.42251 0.79127 0.82661 0.0
C1261 C 0.41934 0.78062 0.77735 0.0
C1262 C 0.42793 0.79688 0.73783 0.0
C1263 C 0.43944 0.8242 0.74624 0.0
C1264 C 0.44385 0.83408 0.79747 0.0
H1265 H 0.41014 0.19148 0.34296 0.0
H1266 H 0.46539 0.12355 0.29396 0.0
H1267 H 0.45714 0.13476 0.20507 0.0
H1268 H 0.36007 0.18698 0.24144 0.0
H1269 H 0.35686 0.22433 0.23672 0.0
H1270 H 0.36591 0.21021 0.29611 0.0
H1271 H 0.41169 0.2403 0.3017 0.0
H1272 H 0.40079 0.25529 0.24417 0.0
H1273 H 0.43494 0.23945 0.24821 0.0
H1274 H 0.44128 0.15304 0.12025 0.0
H1275 H 0.42464 0.17928 0.04871 0.0
H1276 H 0.38238 0.23847 0.15185 0.0
C1277 C 0.42029 0.17872 0.3135 0.0
C1278 C 0.43845 0.15643 0.32589 0.0
C1279 C 0.45164 0.14075 0.28593 0.0
C1280 C 0.44693 0.14699 0.23514 0.0
C1281 C 0.42925 0.16935 0.2244 0.0
C1282 C 0.41654 0.18529 0.26264 0.0
C1283 C 0.40014 0.20947 0.24128 0.0
C1284 C 0.36888 0.20762 0.25469 0.0
C1285 C 0.41266 0.2378 0.25997 0.0
C1286 C 0.4048 0.20427 0.18481 0.0
C1287 C 0.42153 0.18085 0.17603 0.0
C1288 C 0.42847 0.17153 0.12707 0.0
C1289 C 0.41874 0.18666 0.0864 0.0
C1290 C 0.40231 0.21134 0.09393 0.0
C1291 C 0.39507 0.21999 0.14427 0.0
H1292 H 0.90948 0.80339 0.5286 0.0
H1293 H 0.88017 0.88535 0.49123 0.0
H1294 H 0.89404 0.90411 0.57675 0.0
H1295 H 0.89795 0.80298 0.66031 0.0
H1296 H 0.93187 0.78833 0.67413 0.0
H1297 H 0.9156 0.78054 0.61439 0.0
H1298 H 0.95906 0.79936 0.56549 0.0
H1299 H 0.97513 0.80346 0.62661 0.0
H1300 H 0.97316 0.83302 0.5881 0.0
H1301 H 0.91751 0.91452 0.66364 0.0
H1302 H 0.94864 0.91514 0.73919 0.0
H1303 H 0.96437 0.82648 0.71164 0.0
C1304 C 0.9058 0.82517 0.53802 0.0
C1305 C 0.89394 0.8429 0.50315 0.0
C1306 C 0.88933 0.87143 0.51756 0.0
C1307 C 0.89714 0.88219 0.56592 0.0
C1308 C 0.91025 0.86423 0.59843 0.0
C1309 C 0.9149 0.83636 0.58447 0.0
C1310 C 0.93318 0.82225 0.62197 0.0
C1311 C 0.91872 0.79707 0.64418 0.0
C1312 C 0.96179 0.81398 0.59898 0.0
C1313 C 0.93668 0.84584 0.66062 0.0
C1314 C 0.92384 0.87018 0.6467 0.0
C1315 C 0.9274 0.89545 0.67486 0.0
C1316 C 0.94513 0.8957 0.7173 0.0
C1317 C 0.9585 0.87076 0.73069 0.0
C1318 C 0.95372 0.84564 0.7027 0.0
H1319 H 0.91506 0.18203 0.52846 0.0
H1320 H 0.88502 0.10116 0.57148 0.0
H1321 H 0.89898 0.08069 0.48743 0.0
H1322 H 0.90729 0.18488 0.407 0.0
H1323 H 0.94199 0.19592 0.3902 0.0
H1324 H 0.9294 0.20386 0.45271 0.0
H1325 H 0.97807 0.18548 0.46173 0.0
H1326 H 0.98729 0.1553 0.42581 0.0
H1327 H 0.97644 0.15079 0.48816 0.0
H1328 H 0.92299 0.0683 0.40091 0.0
H1329 H 0.95183 0.06704 0.32265 0.0
H1330 H 0.96443 0.15655 0.34154 0.0
C1331 C 0.91247 0.15989 0.52203 0.0
C1332 C 0.89942 0.1432 0.5576 0.0
C1333 C 0.89495 0.1144 0.54484 0.0
C1334 C 0.90309 0.10254 0.49749 0.0
C1335 C 0.91718 0.11944 0.46452 0.0
C1336 C 0.92293 0.14724 0.47739 0.0
C1337 C 0.94104 0.16015 0.43786 0.0
C1338 C 0.92911 0.18787 0.42089 0.0
C1339 C 0.97214 0.1632 0.45487 0.0
C1340 C 0.93964 0.1374 0.39721 0.0
C1341 C 0.92819 0.11307 0.41423 0.0
C1342 C 0.93143 0.08746 0.38703 0.0
C1343 C 0.94779 0.08688 0.34285 0.0
C1344 C 0.95965 0.11192 0.32615 0.0
C1345 C 0.95435 0.13741 0.35232 0.0
H1346 H 0.64449 0.16271 0.11553 0.0
H1347 H 0.58915 0.1146 1.01406 0.0
H1348 H 0.55902 0.10366 0.08522 0.0
H1349 H 0.63482 0.11396 0.22305 0.0
H1350 H 0.63741 0.14276 0.26935 0.0
H1351 H 0.65668 0.14367 0.21114 0.0
H1352 H 0.63355 0.19136 0.19414 0.0
H1353 H 0.61377 0.19032 0.25153 0.0
H1354 H 0.59583 0.19393 0.19249 0.0
H1355 H 0.53204 0.10298 0.16294 0.0
H1356 H 0.51147 0.10784 0.24763 0.0
H1357 H 0.584 0.15575 0.30114 0.0
C1358 C 0.62668 0.1489 0.10888 0.0
C1359 C 0.61929 0.13915 0.05973 0.0
C1360 C 0.59551 0.12171 0.05171 0.0
C1361 C 0.57812 0.11558 0.09179 0.0
C1362 C 0.58533 0.1264 0.13957 0.0
C1363 C 0.60937 0.14204 0.14873 0.0
C1364 C 0.61166 0.1516 0.20379 0.0
C1365 C 0.63662 0.13715 0.2283 0.0
C1366 C 0.61381 0.18371 0.21084 0.0
C1367 C 0.58407 0.14071 0.2231 0.0
C1368 C 0.56958 0.1258 0.1854 0.0
C1369 C 0.54337 0.11406 0.19314 0.0
C1370 C 0.53187 0.117 0.24121 0.0
C1371 C 0.54636 0.13196 0.28046 0.0
C1372 C 0.57266 0.14421 0.27143 0.0
H1373 H 0.58436 0.88517 0.79961 0.0
H1374 H 0.50778 0.83833 0.82054 0.0
H1375 H 0.5257 0.82304 0.90185 0.0
H1376 H 0.63277 0.8437 0.85385 0.0
H1377 H 0.65206 0.87032 0.88995 0.0
H1378 H 0.63346 0.87924 0.83409 0.0
H1379 H 0.60583 0.91767 0.88513 0.0
H1380 H 0.62467 0.90922 0.94121 0.0
H1381 H 0.58688 0.90865 0.94059 0.0
H1382 H 0.55298 0.80709 0.97059 0.0
H1383 H 0.58629 0.79796 0.03808 0.0
H1384 H 0.64278 0.86123 0.98475 0.0
C1385 C 0.57107 0.87255 0.82243 0.0
C1386 C 0.54512 0.86204 0.80395 0.0
C1387 C 0.52797 0.84587 0.83424 0.0
C1388 C 0.53773 0.83735 0.88037 0.0
C1389 C 0.56373 0.84698 0.89706 0.0
C1390 C 0.57972 0.86526 0.87055 0.0
C1391 C 0.60652 0.87293 0.89918 0.0
C1392 C 0.63275 0.86612 0.86733 0.0
C1393 C 0.60595 0.90396 0.91762 0.0
C1394 C 0.60405 0.85398 0.94313 0.0
C1395 C 0.57898 0.83939 0.94074 0.0
C1396 C 0.57227 0.81901 0.97405 0.0
C1397 C 0.59139 0.81386 1.01197 0.0
C1398 C 0.61677 0.82914 1.0166 0.0
C1399 C 0.62334 0.84952 0.98193 0.0
H1400 H 0.59722 0.67882 0.80062 0.0
H1401 H 0.55658 0.60343 0.84788 0.0
H1402 H 0.56243 0.62048 0.93688 0.0
H1403 H 0.64551 0.69307 0.89715 0.0
H1404 H 0.63936 0.7302 0.90679 0.0
H1405 H 0.63216 0.71285 0.84639 0.0
H1406 H 0.58149 0.73113 0.84978 0.0
H1407 H 0.58818 0.74867 0.91024 0.0
H1408 H 0.5596 0.7241 0.90282 0.0
H1409 H 0.57686 0.64303 1.02032 0.0
H1410 H 0.59094 0.67174 0.09418 0.0
H1411 H 0.61645 0.73859 0.99911 0.0
C1412 C 0.58882 0.66619 0.82962 0.0
C1413 C 0.57624 0.63944 0.81638 0.0
C1414 C 0.56615 0.62371 0.85616 0.0
C1415 C 0.56946 0.63336 0.90709 0.0
C1416 C 0.58188 0.65958 0.91861 0.0
C1417 C 0.59043 0.67639 0.88102 0.0
C1418 C 0.60124 0.70464 0.90459 0.0
C1419 C 0.63137 0.71052 0.88772 0.0
C1420 C 0.58146 0.72855 0.89103 0.0
C1421 C 0.5998 0.70005 0.96143 0.0
C1422 C 0.58829 0.67382 0.96781 0.0
C1423 C 0.58536 0.66373 1.01556 0.0
C1424 C 0.59377 0.68054 0.05784 0.0
C1425 C 0.60503 0.70804 0.05428 0.0
C1426 C 0.60803 0.71791 1.00441 0.0
H1427 H 0.56697 0.36446 0.20043 0.0
H1428 H 0.61371 0.31362 0.30109 0.0
H1429 H 0.62258 0.27858 0.23194 0.0
H1430 H 0.53919 0.31347 0.10929 0.0
H1431 H 0.54915 0.33433 0.05691 0.0
H1432 H 0.5427 0.35092 0.11771 0.0
H1433 H 0.59211 0.37326 0.11042 0.0
H1434 H 0.59851 0.35405 0.05143 0.0
H1435 H 0.62237 0.35083 0.10342 0.0
H1436 H 0.62464 0.24698 0.15089 0.0
H1437 H 0.63018 0.22772 0.06314 0.0
H1438 H 0.5911 0.30235 1.00915 0.0
C1439 C 0.57871 0.34576 0.20795 0.0
C1440 C 0.58784 0.34104 0.25774 0.0
C1441 C 0.60496 0.31717 0.26444 0.0
C1442 C 0.6103 0.29703 0.22504 0.0
C1443 C 0.60036 0.30172 0.17694 0.0
C1444 C 0.58624 0.32623 0.16771 0.0
C1445 C 0.58258 0.32839 0.11102 0.0
C1446 C 0.55151 0.33185 0.09791 0.0
C1447 C 0.59992 0.3531 0.09301 0.0
C1448 C 0.59473 0.30029 0.09019 0.0
C1449 C 0.60481 0.28523 0.12924 0.0
C1450 C 0.61716 0.25883 0.11999 0.0
C1451 C 0.62014 0.24785 0.06976 0.0
C1452 C 0.61136 0.26325 1.0285 0.0
C1453 C 0.59819 0.28984 0.03947 0.0
H1454 H 0.94923 0.35943 0.30833 0.0
H1455 H 0.91806 0.29712 0.19734 0.0
H1456 H 0.9041 0.26696 0.26394 0.0
H1457 H 0.97287 0.31627 0.40722 0.0
H1458 H 0.9563 0.33619 0.45847 0.0
H1459 H 0.96603 0.35315 0.40213 0.0
H1460 H 0.91497 0.37018 0.39232 0.0
H1461 H 0.90502 0.35302 0.44848 0.0
H1462 H 0.88682 0.34498 0.39012 0.0
H1463 H 0.89171 0.24264 0.3406 0.0
H1464 H 0.88126 0.2262 0.42476 0.0
H1465 H 0.91864 0.30168 0.49318 0.0
C1466 C 0.94025 0.33912 0.29813 0.0
C1467 C 0.9366 0.33031 0.24621 0.0
C1468 C 0.92244 0.30437 0.2358 0.0
C1469 C 0.9141 0.28685 0.27374 0.0
C1470 C 0.9184 0.29562 0.32371 0.0
C1471 C 0.93047 0.32137 0.33653 0.0
C1472 C 0.92883 0.32647 0.39405 0.0
C1473 C 0.95776 0.33341 0.41681 0.0
C1474 C 0.9077 0.35008 0.40705 0.0
C1475 C 0.91737 0.29831 0.41109 0.0
C1476 C 0.91043 0.28149 0.3692 0.0
C1477 C 0.89744 0.25552 0.37371 0.0
C1478 C 0.89173 0.24616 0.42198 0.0
C1479 C 0.9001 0.26172 0.46621 0.0
C1480 C 0.91271 0.28863 0.4604 0.0
H1481 H 0.97792 0.65033 0.77459 0.0
H1482 H 0.89438 0.65514 0.83951 0.0
H1483 H 0.87815 0.68171 0.76914 0.0
H1484 H 0.97982 0.71749 0.7176 0.0
H1485 H -0.00481 0.70531 0.65854 0.0
H1486 H 0.00192 0.68685 0.7147 0.0
H1487 H 0.98384 0.64098 0.67066 0.0
H1488 H 0.97716 0.6592 0.61417 0.0
H1489 H 0.94935 0.64002 0.64275 0.0
H1490 H 0.8702 0.71087 0.6965 0.0
H1491 H 0.86901 0.73511 0.61728 0.0
H1492 H 0.95485 0.70947 0.58653 0.0
C1493 C 0.95619 0.65683 0.77377 0.0
C1494 C 0.93768 0.65069 0.81433 0.0
C1495 C 0.90931 0.65938 0.81021 0.0
C1496 C 0.89974 0.6748 0.77008 0.0
C1497 C 0.91822 0.68098 0.73174 0.0
C1498 C 0.94568 0.67168 0.73196 0.0
C1499 C 0.95995 0.6799 0.68278 0.0
C1500 C 0.98575 0.6985 0.6941 0.0
C1501 C 0.96807 0.65346 0.65068 0.0
C1502 C 0.93654 0.69623 0.65676 0.0
C1503 C 0.91281 0.69644 0.68643 0.0
C1504 C 0.88853 0.71045 0.67254 0.0
C1505 C 0.88804 0.72429 0.62709 0.0
C1506 C 0.9115 0.72426 0.59449 0.0
C1507 C 0.93629 0.70986 0.60992 0.0
H1508 H 0.45576 0.32783 0.23227 0.0
H1509 H 0.44613 0.41794 0.24196 0.0
H1510 H 0.41831 0.41512 0.16227 0.0
H1511 H 0.47022 0.32572 0.10124 0.0
H1512 H 0.45624 0.29009 0.09781 0.0
H1513 H 0.47123 0.30445 0.15488 0.0
H1514 H 0.42346 0.28956 0.19375 0.0
H1515 H 0.40896 0.27988 0.1329 0.0
H1516 H 0.39129 0.30553 0.17365 0.0
H1517 H 0.39437 0.40111 0.07642 0.0
H1518 H 0.38054 0.37879 0.99334 0.0
H1519 H 0.40885 0.29886 0.04385 0.0
C1520 C 0.44702 0.34692 0.21849 0.0
C1521 C 0.45238 0.37295 0.24321 0.0
C1522 C 0.44183 0.39771 0.22325 0.0
C1523 C 0.42607 0.39625 0.17824 0.0
C1524 C 0.42191 0.36998 0.15364 0.0
C1525 C 0.43241 0.34589 0.17333 0.0
C1526 C 0.42932 0.32076 0.13755 0.0
C1527 C 0.45848 0.3097 0.12167 0.0
C1528 C 0.41214 0.29761 0.16094 0.0
C1529 C 0.41392 0.33394 0.095 0.0
C1530 C 0.40992 0.36235 0.10444 0.0
C1531 C 0.39732 0.37885 0.06879 0.0
C1532 C 0.38934 0.36604 1.02189 0.0
C1533 C 0.39371 0.33705 1.01156 0.0
C1534 C 0.40537 0.32097 0.04955 0.0
H1535 H 0.4073 0.67854 1.02939 0.0
H1536 H 0.38668 0.59603 0.07845 0.0
H1537 H 0.40294 0.57513 0.99608 0.0
H1538 H 0.393 0.67246 0.90293 0.0
H1539 H 0.42436 0.6903 0.88337 0.0
H1540 H 0.41035 0.69758 0.94538 0.0
H1541 H 0.45643 0.68879 0.98231 0.0
H1542 H 0.47262 0.67789 0.92393 0.0
H1543 H 0.47269 0.65443 0.97468 0.0
H1544 H 0.42645 0.56371 0.90994 0.0
H1545 H 0.45358 0.56368 0.82992 0.0
H1546 H 0.45794 0.65429 0.8434 0.0
C1547 C 0.40624 0.65614 1.02329 0.0
C1548 C 0.39587 0.63891 0.06025 0.0
C1549 C 0.39445 0.60958 0.05019 0.0
C1550 C 0.40384 0.59757 1.00387 0.0
C1551 C 0.41517 0.61526 0.96907 0.0
C1552 C 0.41682 0.64388 0.97892 0.0
C1553 C 0.4318 0.65829 0.9377 0.0
C1554 C 0.41368 0.68095 0.91563 0.0
C1555 C 0.46012 0.67048 0.95589 0.0
C1556 C 0.43625 0.63389 0.90133 0.0
C1557 C 0.42755 0.60892 0.92018 0.0
C1558 C 0.43296 0.58324 0.89469 0.0
C1559 C 0.44828 0.58338 0.84955 0.0
C1560 C 0.45729 0.60908 0.83089 0.0
C1561 C 0.45055 0.63445 0.85636 0.0
H1562 H 0.11542 0.61515 0.54391 0.0
H1563 H 0.17281 0.68321 0.58473 0.0
H1564 H 0.15408 0.68552 0.67087 0.0
H1565 H 0.05823 0.63973 0.60744 0.0
H1566 H 0.04593 0.60711 0.6305 0.0
H1567 H 0.06659 0.607 0.57398 0.0
H1568 H 0.1026 0.5736 0.61211 0.0
H1569 H 0.08178 0.57311 0.66861 0.0
H1570 H 0.11827 0.58292 0.6724 0.0
H1571 H 0.12349 0.6873 0.74535 0.0
H1572 H 0.08822 0.68229 0.81188 0.0
H1573 H 0.05201 0.61094 0.72732 0.0
C1574 C 0.12501 0.62953 0.57171 0.0
C1575 C 0.14572 0.64892 0.55769 0.0
C1576 C 0.15724 0.66794 0.59473 0.0
C1577 C 0.14656 0.66958 0.64373 0.0
C1578 C 0.12497 0.65145 0.65555 0.0
C1579 C 0.1149 0.63111 0.62131 0.0
C1580 C 0.09069 0.61514 0.64358 0.0
C1581 C 0.06379 0.61741 0.61197 0.0
C1582 C 0.09882 0.58436 0.64954 0.0
C1583 C 0.08784 0.63081 0.69445 0.0
C1584 C 0.1079 0.65164 0.70036 0.0
C1585 C 0.10824 0.67052 0.74201 0.0
C1586 C 0.08798 0.66765 0.77939 0.0
C1587 C 0.06768 0.64606 0.77494 0.0
C1588 C 0.0676 0.62738 0.73192 0.0
H1589 H 0.07746 0.4058 0.31261 0.0
H1590 H 0.0273 0.33112 0.28072 0.0
H1591 H 0.04432 0.31109 0.35833 0.0
H1592 H 0.13652 0.37217 0.36202 0.0
H1593 H 0.14371 0.39811 0.41203 0.0
H1594 H 0.12642 0.40815 0.35548 0.0
H1595 H 0.08496 0.42879 0.40819 0.0
H1596 H 0.10228 0.41914 0.46503 0.0
H1597 H 0.06708 0.40711 0.45149 0.0
H1598 H 0.06972 0.29674 0.43113 0.0
H1599 H 0.09822 0.29083 0.50683 0.0
H1600 H 0.13051 0.37546 0.49865 0.0
C1601 C 0.06981 0.38553 0.32285 0.0
C1602 C 0.05125 0.36979 0.29128 0.0
C1603 C 0.04163 0.34325 0.30488 0.0
C1604 C 0.05114 0.33173 0.34867 0.0
C1605 C 0.07005 0.34722 0.37853 0.0
C1606 C 0.07896 0.37371 0.36716 0.0
C1607 C 0.09964 0.38535 0.40637 0.0
C1608 C 0.12826 0.39129 0.38253 0.0
C1609 C 0.08778 0.41166 0.43444 0.0
C1610 C 0.10135 0.36093 0.44045 0.0
C1611 C 0.08418 0.33917 0.42303 0.0
C1612 C 0.08299 0.31369 0.44571 0.0
C1613 C 0.09945 0.31045 0.48822 0.0
C1614 C 0.11658 0.33265 0.50774 0.0
C1615 C 0.11759 0.35827 0.48391 0.0
loop_
_geom_bond_atom_site_label_1
_geom_bond_atom_site_label_2
_geom_bond_distance
_geom_bond_site_symmetry_2
_ccdc_geom_bond_type
Tb0 O3 2.453 1_455 S
Tb0 O4 2.596 . S
Tb0 O5 2.374 . S
Tb0 O13 2.343 . S
Tb0 O15 2.353 . S
Tb0 O17 2.427 1_455 S
Tb0 O18 2.513 . S
C1 O5 1.251 . S
C1 O7 1.263 . S
Tb2 O4 2.343 . S
Tb2 O7 2.353 . S
Tb2 O10 2.427 . S
Tb2 O11 2.513 . S
Tb2 O12 2.453 . S
Tb2 O13 2.596 . S
Tb2 O14 2.374 . S
O3 Tb0 2.453 1_655 S
O3 C19 1.245 1_655 S
O4 Tb0 2.596 . S
O4 Tb2 2.343 . S
O4 C19 1.259 . S
O5 Tb0 2.374 . S
O5 C1 1.251 . S
C6 O10 1.275 . S
C6 O11 1.246 . S
O7 C1 1.263 . S
O7 Tb2 2.353 . S
C8 O12 1.245 . S
C8 O13 1.259 . S
C9 O14 1.250 . S
C9 O15 1.263 . S
O10 Tb2 2.427 . S
O10 C6 1.275 . S
O11 Tb2 2.513 . S
O11 C6 1.246 . S
O12 Tb2 2.453 . S
O12 C8 1.245 . S
O13 Tb0 2.343 . S
O13 Tb2 2.596 . S
O13 C8 1.259 . S
O14 Tb2 2.374 . S
O14 C9 1.250 . S
O15 Tb0 2.353 . S
O15 C9 1.263 . S
C16 O17 1.275 . S
C16 O18 1.246 1_655 S
O17 Tb0 2.427 1_655 S
O17 C16 1.275 . S
O18 Tb0 2.513 . S
O18 C16 1.246 1_455 S
C19 O3 1.245 1_455 S
C19 O4 1.259 . S
Tb20 O23 2.453 . S
Tb20 O24 2.596 . S
Tb20 O25 2.374 . S
Tb20 O33 2.343 . S
Tb20 O35 2.353 . S
Tb20 O37 2.427 . S
Tb20 O38 2.513 . S
C21 O25 1.251 . S
C21 O27 1.263 . S
Tb22 O24 2.343 . S
Tb22 O27 2.353 . S
Tb22 O30 2.427 . S
Tb22 O31 2.513 . S
Tb22 O32 2.453 . S
Tb22 O33 2.596 . S
Tb22 O34 2.374 . S
O23 Tb20 2.453 . S
O23 C39 1.245 . S
O24 Tb20 2.596 . S
O24 Tb22 2.343 . S
O24 C39 1.259 . S
O25 Tb20 2.374 . S
O25 C21 1.251 . S
C26 O30 1.275 . S
C26 O31 1.246 . S
O27 C21 1.263 . S
O27 Tb22 2.353 . S
C28 O32 1.245 . S
C28 O33 1.259 . S
C29 O34 1.250 . S
C29 O35 1.263 . S
O30 Tb22 2.427 . S
O30 C26 1.275 . S
O31 Tb22 2.513 . S
O31 C26 1.246 . S
O32 Tb22 2.453 . S
O32 C28 1.245 . S
O33 Tb20 2.343 . S
O33 Tb22 2.596 . S
O33 C28 1.259 . S
O34 Tb22 2.374 . S
O34 C29 1.250 . S
O35 Tb20 2.353 . S
O35 C29 1.263 . S
C36 O37 1.275 . S
C36 O38 1.246 . S
O37 Tb20 2.427 . S
O37 C36 1.275 . S
O38 Tb20 2.513 . S
O38 C36 1.246 . S
C39 O23 1.245 . S
C39 O24 1.259 . S
Tb40 O43 2.453 . S
Tb40 O44 2.596 . S
Tb40 O45 2.374 . S
Tb40 O53 2.343 . S
Tb40 O55 2.353 . S
Tb40 O57 2.427 . S
Tb40 O58 2.513 . S
C41 O45 1.251 . S
C41 O47 1.263 . S
Tb42 O44 2.343 . S
Tb42 O47 2.353 . S
Tb42 O50 2.427 . S
Tb42 O51 2.513 . S
Tb42 O52 2.453 . S
Tb42 O53 2.596 . S
Tb42 O54 2.374 . S
O43 Tb40 2.453 . S
O43 C59 1.245 . S
O44 Tb40 2.596 . S
O44 Tb42 2.343 . S
O44 C59 1.259 . S
O45 Tb40 2.374 . S
O45 C41 1.251 . S
C46 O50 1.275 . S
C46 O51 1.246 . S
O47 C41 1.263 . S
O47 Tb42 2.353 . S
C48 O52 1.245 . S
C48 O53 1.259 . S
C49 O54 1.250 . S
C49 O55 1.263 . S
O50 Tb42 2.427 . S
O50 C46 1.275 . S
O51 Tb42 2.513 . S
O51 C46 1.246 . S
O52 Tb42 2.453 . S
O52 C48 1.245 . S
O53 Tb40 2.343 . S
O53 Tb42 2.596 . S
O53 C48 1.259 . S
O54 Tb42 2.374 . S
O54 C49 1.250 . S
O55 Tb40 2.353 . S
O55 C49 1.263 . S
C56 O57 1.275 . S
C56 O58 1.246 . S
O57 Tb40 2.427 . S
O57 C56 1.275 . S
O58 Tb40 2.513 . S
O58 C56 1.246 . S
C59 O43 1.245 . S
C59 O44 1.259 . S
Tb60 O63 2.453 . S
Tb60 O64 2.596 . S
Tb60 O65 2.374 . S
Tb60 O73 2.343 . S
Tb60 O75 2.353 . S
Tb60 O77 2.427 . S
Tb60 O78 2.513 . S
C61 O65 1.251 . S
C61 O67 1.263 . S
Tb62 O64 2.343 . S
Tb62 O67 2.353 . S
Tb62 O70 2.427 . S
Tb62 O71 2.513 . S
Tb62 O72 2.453 . S
Tb62 O73 2.596 . S
Tb62 O74 2.374 . S
O63 Tb60 2.453 . S
O63 C79 1.245 . S
O64 Tb60 2.596 . S
O64 Tb62 2.343 . S
O64 C79 1.259 . S
O65 Tb60 2.374 . S
O65 C61 1.251 . S
C66 O70 1.275 . S
C66 O71 1.246 . S
O67 C61 1.263 . S
O67 Tb62 2.353 . S
C68 O72 1.245 . S
C68 O73 1.259 . S
C69 O74 1.250 . S
C69 O75 1.263 . S
O70 Tb62 2.427 . S
O70 C66 1.275 . S
O71 Tb62 2.513 . S
O71 C66 1.246 . S
O72 Tb62 2.453 . S
O72 C68 1.245 . S
O73 Tb60 2.343 . S
O73 Tb62 2.596 . S
O73 C68 1.259 . S
O74 Tb62 2.374 . S
O74 C69 1.250 . S
O75 Tb60 2.353 . S
O75 C69 1.263 . S
C76 O77 1.275 . S
C76 O78 1.246 . S
O77 Tb60 2.427 . S
O77 C76 1.275 . S
O78 Tb60 2.513 . S
O78 C76 1.246 . S
C79 O63 1.245 . S
C79 O64 1.259 . S
Tb80 O83 2.453 1_455 S
Tb80 O84 2.596 . S
Tb80 O85 2.374 . S
Tb80 O93 2.343 . S
Tb80 O95 2.353 . S
Tb80 O97 2.427 1_455 S
Tb80 O98 2.513 . S
C81 O85 1.251 . S
C81 O87 1.263 . S
Tb82 O84 2.343 . S
Tb82 O87 2.353 . S
Tb82 O90 2.427 . S
Tb82 O91 2.513 . S
Tb82 O92 2.453 . S
Tb82 O93 2.596 . S
Tb82 O94 2.374 . S
O83 Tb80 2.453 1_655 S
O83 C99 1.245 1_655 S
O84 Tb80 2.596 . S
O84 Tb82 2.343 . S
O84 C99 1.259 . S
O85 Tb80 2.374 . S
O85 C81 1.251 . S
C86 O90 1.275 . S
C86 O91 1.246 . S
O87 C81 1.263 . S
O87 Tb82 2.353 . S
C88 O92 1.245 . S
C88 O93 1.259 . S
C89 O94 1.250 . S
C89 O95 1.263 . S
O90 Tb82 2.427 . S
O90 C86 1.275 . S
O91 Tb82 2.513 . S
O91 C86 1.246 . S
O92 Tb82 2.453 . S
O92 C88 1.245 . S
O93 Tb80 2.343 . S
O93 Tb82 2.596 . S
O93 C88 1.259 . S
O94 Tb82 2.374 . S
O94 C89 1.250 . S
O95 Tb80 2.353 . S
O95 C89 1.263 . S
C96 O97 1.275 . S
C96 O98 1.246 1_655 S
O97 Tb80 2.427 1_655 S
O97 C96 1.275 . S
O98 Tb80 2.513 . S
O98 C96 1.246 1_455 S
C99 O83 1.245 1_455 S
C99 O84 1.259 . S
Tb100 O103 2.453 . S
Tb100 O104 2.596 . S
Tb100 O105 2.374 . S
Tb100 O113 2.343 . S
Tb100 O115 2.353 . S
Tb100 O117 2.427 . S
Tb100 O118 2.513 . S
C101 O105 1.251 . S
C101 O107 1.263 . S
Tb102 O104 2.343 . S
Tb102 O107 2.353 . S
Tb102 O110 2.427 . S
Tb102 O111 2.513 . S
Tb102 O112 2.453 . S
Tb102 O113 2.596 . S
Tb102 O114 2.374 . S
O103 Tb100 2.453 . S
O103 C119 1.245 . S
O104 Tb100 2.596 . S
O104 Tb102 2.343 . S
O104 C119 1.259 . S
O105 Tb100 2.374 . S
O105 C101 1.251 . S
C106 O110 1.275 . S
C106 O111 1.246 . S
O107 C101 1.263 . S
O107 Tb102 2.353 . S
C108 O112 1.245 . S
C108 O113 1.259 . S
C109 O114 1.250 . S
C109 O115 1.263 . S
O110 Tb102 2.427 . S
O110 C106 1.275 . S
O111 Tb102 2.513 . S
O111 C106 1.246 . S
O112 Tb102 2.453 . S
O112 C108 1.245 . S
O113 Tb100 2.343 . S
O113 Tb102 2.596 . S
O113 C108 1.259 . S
O114 Tb102 2.374 . S
O114 C109 1.250 . S
O115 Tb100 2.353 . S
O115 C109 1.263 . S
C116 O117 1.275 . S
C116 O118 1.246 . S
O117 Tb100 2.427 . S
O117 C116 1.275 . S
O118 Tb100 2.513 . S
O118 C116 1.246 . S
C119 O103 1.245 . S
C119 O104 1.259 . S
Tb120 O123 2.453 . S
Tb120 O124 2.596 . S
Tb120 O125 2.374 . S
Tb120 O133 2.343 . S
Tb120 O135 2.353 . S
Tb120 O137 2.427 . S
Tb120 O138 2.513 . S
C121 O125 1.251 . S
C121 O127 1.263 . S
Tb122 O124 2.343 . S
Tb122 O127 2.353 . S
Tb122 O130 2.427 . S
Tb122 O131 2.513 . S
Tb122 O132 2.453 . S
Tb122 O133 2.596 . S
Tb122 O134 2.374 . S
O123 Tb120 2.453 . S
O123 C139 1.245 . S
O124 Tb120 2.596 . S
O124 Tb122 2.343 . S
O124 C139 1.259 . S
O125 Tb120 2.374 . S
O125 C121 1.251 . S
C126 O130 1.275 . S
C126 O131 1.246 . S
O127 C121 1.263 . S
O127 Tb122 2.353 . S
C128 O132 1.245 . S
C128 O133 1.259 . S
C129 O134 1.250 . S
C129 O135 1.263 . S
O130 Tb122 2.427 . S
O130 C126 1.275 . S
O131 Tb122 2.513 . S
O131 C126 1.246 . S
O132 Tb122 2.453 . S
O132 C128 1.245 . S
O133 Tb120 2.343 . S
O133 Tb122 2.596 . S
O133 C128 1.259 . S
O134 Tb122 2.374 . S
O134 C129 1.250 . S
O135 Tb120 2.353 . S
O135 C129 1.263 . S
C136 O137 1.275 . S
C136 O138 1.246 . S
O137 Tb120 2.427 . S
O137 C136 1.275 . S
O138 Tb120 2.513 . S
O138 C136 1.246 . S
C139 O123 1.245 . S
C139 O124 1.259 . S
Tb140 O143 2.453 . S
Tb140 O144 2.596 . S
Tb140 O145 2.374 . S
Tb140 O153 2.343 . S
Tb140 O155 2.353 . S
Tb140 O157 2.427 . S
Tb140 O158 2.513 . S
C141 O145 1.251 . S
C141 O147 1.263 . S
Tb142 O144 2.343 . S
Tb142 O147 2.353 . S
Tb142 O150 2.427 . S
Tb142 O151 2.513 . S
Tb142 O152 2.453 . S
Tb142 O153 2.596 . S
Tb142 O154 2.374 . S
O143 Tb140 2.453 . S
O143 C159 1.245 . S
O144 Tb140 2.596 . S
O144 Tb142 2.343 . S
O144 C159 1.259 . S
O145 Tb140 2.374 . S
O145 C141 1.251 . S
C146 O150 1.275 . S
C146 O151 1.246 . S
O147 C141 1.263 . S
O147 Tb142 2.353 . S
C148 O152 1.245 . S
C148 O153 1.259 . S
C149 O154 1.250 . S
C149 O155 1.263 . S
O150 Tb142 2.427 . S
O150 C146 1.275 . S
O151 Tb142 2.513 . S
O151 C146 1.246 . S
O152 Tb142 2.453 . S
O152 C148 1.245 . S
O153 Tb140 2.343 . S
O153 Tb142 2.596 . S
O153 C148 1.259 . S
O154 Tb142 2.374 . S
O154 C149 1.250 . S
O155 Tb140 2.353 . S
O155 C149 1.263 . S
C156 O157 1.275 . S
C156 O158 1.246 . S
O157 Tb140 2.427 . S
O157 C156 1.275 . S
O158 Tb140 2.513 . S
O158 C156 1.246 . S
C159 O143 1.245 . S
C159 O144 1.259 . S
Tb160 O163 2.453 . S
Tb160 O164 2.596 . S
Tb160 O165 2.374 . S
Tb160 O173 2.343 . S
Tb160 O175 2.353 . S
Tb160 O177 2.427 . S
Tb160 O178 2.513 . S
C161 O165 1.251 . S
C161 O167 1.263 . S
Tb162 O164 2.343 . S
Tb162 O167 2.353 . S
Tb162 O170 2.427 . S
Tb162 O171 2.513 . S
Tb162 O172 2.453 . S
Tb162 O173 2.596 . S
Tb162 O174 2.374 . S
O163 Tb160 2.453 . S
O163 C179 1.245 . S
O164 Tb160 2.596 . S
O164 Tb162 2.343 . S
O164 C179 1.259 . S
O165 Tb160 2.374 . S
O165 C161 1.251 . S
C166 O170 1.275 . S
C166 O171 1.246 . S
O167 C161 1.263 . S
O167 Tb162 2.353 . S
C168 O172 1.245 . S
C168 O173 1.259 . S
C169 O174 1.250 . S
C169 O175 1.263 . S
O170 Tb162 2.427 . S
O170 C166 1.275 . S
O171 Tb162 2.513 . S
O171 C166 1.246 . S
O172 Tb162 2.453 . S
O172 C168 1.245 . S
O173 Tb160 2.343 . S
O173 Tb162 2.596 . S
O173 C168 1.259 . S
O174 Tb162 2.374 . S
O174 C169 1.250 . S
O175 Tb160 2.353 . S
O175 C169 1.263 . S
C176 O177 1.275 . S
C176 O178 1.246 . S
O177 Tb160 2.427 . S
O177 C176 1.275 . S
O178 Tb160 2.513 . S
O178 C176 1.246 . S
C179 O163 1.245 . S
C179 O164 1.259 . S
Tb180 O183 2.453 . S
Tb180 O184 2.596 . S
Tb180 O185 2.374 . S
Tb180 O193 2.343 . S
Tb180 O195 2.353 . S
Tb180 O197 2.427 . S
Tb180 O198 2.513 . S
C181 O185 1.251 . S
C181 O187 1.263 . S
Tb182 O184 2.343 . S
Tb182 O187 2.353 . S
Tb182 O190 2.427 . S
Tb182 O191 2.513 . S
Tb182 O192 2.453 . S
Tb182 O193 2.596 . S
Tb182 O194 2.374 . S
O183 Tb180 2.453 . S
O183 C199 1.245 . S
O184 Tb180 2.596 . S
O184 Tb182 2.343 . S
O184 C199 1.259 . S
O185 Tb180 2.374 . S
O185 C181 1.251 . S
C186 O190 1.275 . S
C186 O191 1.246 . S
O187 C181 1.263 . S
O187 Tb182 2.353 . S
C188 O192 1.245 . S
C188 O193 1.259 . S
C189 O194 1.250 . S
C189 O195 1.263 . S
O190 Tb182 2.427 . S
O190 C186 1.275 . S
O191 Tb182 2.513 . S
O191 C186 1.246 . S
O192 Tb182 2.453 . S
O192 C188 1.245 . S
O193 Tb180 2.343 . S
O193 Tb182 2.596 . S
O193 C188 1.259 . S
O194 Tb182 2.374 . S
O194 C189 1.250 . S
O195 Tb180 2.353 . S
O195 C189 1.263 . S
C196 O197 1.275 . S
C196 O198 1.246 . S
O197 Tb180 2.427 . S
O197 C196 1.275 . S
O198 Tb180 2.513 . S
O198 C196 1.246 . S
C199 O183 1.245 . S
C199 O184 1.259 . S
Tb200 O203 2.453 . S
Tb200 O204 2.596 . S
Tb200 O205 2.374 . S
Tb200 O213 2.343 . S
Tb200 O215 2.353 . S
Tb200 O217 2.427 . S
Tb200 O218 2.513 . S
C201 O205 1.251 . S
C201 O207 1.263 . S
Tb202 O204 2.343 . S
Tb202 O207 2.353 . S
Tb202 O210 2.427 . S
Tb202 O211 2.513 . S
Tb202 O212 2.453 . S
Tb202 O213 2.596 . S
Tb202 O214 2.374 . S
O203 Tb200 2.453 . S
O203 C219 1.245 . S
O204 Tb200 2.596 . S
O204 Tb202 2.343 . S
O204 C219 1.259 . S
O205 Tb200 2.374 . S
O205 C201 1.251 . S
C206 O210 1.275 . S
C206 O211 1.246 . S
O207 C201 1.263 . S
O207 Tb202 2.353 . S
C208 O212 1.245 . S
C208 O213 1.259 . S
C209 O214 1.250 . S
C209 O215 1.263 . S
O210 Tb202 2.427 . S
O210 C206 1.275 . S
O211 Tb202 2.513 . S
O211 C206 1.246 . S
O212 Tb202 2.453 . S
O212 C208 1.245 . S
O213 Tb200 2.343 . S
O213 Tb202 2.596 . S
O213 C208 1.259 . S
O214 Tb202 2.374 . S
O214 C209 1.250 . S
O215 Tb200 2.353 . S
O215 C209 1.263 . S
C216 O217 1.275 . S
C216 O218 1.246 . S
O217 Tb200 2.427 . S
O217 C216 1.275 . S
O218 Tb200 2.513 . S
O218 C216 1.246 . S
C219 O203 1.245 . S
C219 O204 1.259 . S
Tb220 O223 2.453 . S
Tb220 O224 2.596 . S
Tb220 O225 2.374 . S
Tb220 O233 2.343 . S
Tb220 O235 2.353 . S
Tb220 O237 2.427 . S
Tb220 O238 2.513 . S
C221 O225 1.251 . S
C221 O227 1.263 . S
Tb222 O224 2.343 . S
Tb222 O227 2.353 . S
Tb222 O230 2.427 . S
Tb222 O231 2.513 . S
Tb222 O232 2.453 . S
Tb222 O233 2.596 . S
Tb222 O234 2.374 . S
O223 Tb220 2.453 . S
O223 C239 1.245 . S
O224 Tb220 2.596 . S
O224 Tb222 2.343 . S
O224 C239 1.259 . S
O225 Tb220 2.374 . S
O225 C221 1.251 . S
C226 O230 1.275 . S
C226 O231 1.246 . S
O227 C221 1.263 . S
O227 Tb222 2.353 . S
C228 O232 1.245 . S
C228 O233 1.259 . S
C229 O234 1.250 . S
C229 O235 1.263 . S
O230 Tb222 2.427 . S
O230 C226 1.275 . S
O231 Tb222 2.513 . S
O231 C226 1.246 . S
O232 Tb222 2.453 . S
O232 C228 1.245 . S
O233 Tb220 2.343 . S
O233 Tb222 2.596 . S
O233 C228 1.259 . S
O234 Tb222 2.374 . S
O234 C229 1.250 . S
O235 Tb220 2.353 . S
O235 C229 1.263 . S
C236 O237 1.275 . S
C236 O238 1.246 . S
O237 Tb220 2.427 . S
O237 C236 1.275 . S
O238 Tb220 2.513 . S
O238 C236 1.246 . S
C239 O223 1.245 . S
C239 O224 1.259 . S
Tb240 O243 2.453 . S
Tb240 O244 2.596 . S
Tb240 O245 2.374 . S
Tb240 O253 2.343 . S
Tb240 O255 2.353 . S
Tb240 O257 2.427 . S
Tb240 O258 2.513 . S
C241 O245 1.251 . S
C241 O247 1.263 . S
Tb242 O244 2.343 . S
Tb242 O247 2.353 . S
Tb242 O250 2.427 . S
Tb242 O251 2.513 . S
Tb242 O252 2.453 . S
Tb242 O253 2.596 . S
Tb242 O254 2.374 . S
O243 Tb240 2.453 . S
O243 C259 1.245 . S
O244 Tb240 2.596 . S
O244 Tb242 2.343 . S
O244 C259 1.259 . S
O245 Tb240 2.374 . S
O245 C241 1.251 . S
C246 O250 1.275 . S
C246 O251 1.246 . S
O247 C241 1.263 . S
O247 Tb242 2.353 . S
C248 O252 1.245 . S
C248 O253 1.259 . S
C249 O254 1.250 . S
C249 O255 1.263 . S
O250 Tb242 2.427 . S
O250 C246 1.275 . S
O251 Tb242 2.513 . S
O251 C246 1.246 . S
O252 Tb242 2.453 . S
O252 C248 1.245 . S
O253 Tb240 2.343 . S
O253 Tb242 2.596 . S
O253 C248 1.259 . S
O254 Tb242 2.374 . S
O254 C249 1.250 . S
O255 Tb240 2.353 . S
O255 C249 1.263 . S
C256 O257 1.275 . S
C256 O258 1.246 . S
O257 Tb240 2.427 . S
O257 C256 1.275 . S
O258 Tb240 2.513 . S
O258 C256 1.246 . S
C259 O243 1.245 . S
C259 O244 1.259 . S
Tb260 O263 2.453 . S
Tb260 O264 2.596 . S
Tb260 O265 2.374 . S
Tb260 O273 2.343 1_455 S
Tb260 O275 2.353 . S
Tb260 O277 2.427 . S
Tb260 O278 2.513 . S
C261 O265 1.251 1_655 S
C261 O267 1.263 . S
Tb262 O264 2.343 1_655 S
Tb262 O267 2.353 . S
Tb262 O270 2.427 . S
Tb262 O271 2.513 . S
Tb262 O272 2.453 . S
Tb262 O273 2.596 . S
Tb262 O274 2.374 . S
O263 Tb260 2.453 . S
O263 C279 1.245 . S
O264 Tb260 2.596 . S
O264 Tb262 2.343 1_455 S
O264 C279 1.259 . S
O265 Tb260 2.374 . S
O265 C261 1.251 1_455 S
C266 O270 1.275 1_556 S
C266 O271 1.246 1_556 S
O267 C261 1.263 . S
O267 Tb262 2.353 . S
C268 O272 1.245 . S
C268 O273 1.259 . S
C269 O274 1.250 1_455 S
C269 O275 1.263 . S
O270 Tb262 2.427 . S
O270 C266 1.275 1_554 S
O271 Tb262 2.513 . S
O271 C266 1.246 1_554 S
O272 Tb262 2.453 . S
O272 C268 1.245 . S
O273 Tb260 2.343 1_655 S
O273 Tb262 2.596 . S
O273 C268 1.259 . S
O274 Tb262 2.374 . S
O274 C269 1.250 1_655 S
O275 Tb260 2.353 . S
O275 C269 1.263 . S
C276 O277 1.275 . S
C276 O278 1.246 . S
O277 Tb260 2.427 . S
O277 C276 1.275 . S
O278 Tb260 2.513 . S
O278 C276 1.246 . S
C279 O263 1.245 . S
C279 O264 1.259 . S
Tb280 O283 2.453 . S
Tb280 O284 2.596 . S
Tb280 O285 2.374 . S
Tb280 O293 2.343 . S
Tb280 O295 2.353 . S
Tb280 O297 2.427 . S
Tb280 O298 2.513 . S
C281 O285 1.251 . S
C281 O287 1.263 . S
Tb282 O284 2.343 . S
Tb282 O287 2.353 . S
Tb282 O290 2.427 . S
Tb282 O291 2.513 . S
Tb282 O292 2.453 . S
Tb282 O293 2.596 . S
Tb282 O294 2.374 . S
O283 Tb280 2.453 . S
O283 C299 1.245 . S
O284 Tb280 2.596 . S
O284 Tb282 2.343 . S
O284 C299 1.259 . S
O285 Tb280 2.374 . S
O285 C281 1.251 . S
C286 O290 1.275 . S
C286 O291 1.246 . S
O287 C281 1.263 . S
O287 Tb282 2.353 . S
C288 O292 1.245 . S
C288 O293 1.259 . S
C289 O294 1.250 . S
C289 O295 1.263 . S
O290 Tb282 2.427 . S
O290 C286 1.275 . S
O291 Tb282 2.513 . S
O291 C286 1.246 . S
O292 Tb282 2.453 . S
O292 C288 1.245 . S
O293 Tb280 2.343 . S
O293 Tb282 2.596 . S
O293 C288 1.259 . S
O294 Tb282 2.374 . S
O294 C289 1.250 . S
O295 Tb280 2.353 . S
O295 C289 1.263 . S
C296 O297 1.275 . S
C296 O298 1.246 . S
O297 Tb280 2.427 . S
O297 C296 1.275 . S
O298 Tb280 2.513 . S
O298 C296 1.246 . S
C299 O283 1.245 . S
C299 O284 1.259 . S
Tb300 O303 2.453 . S
Tb300 O304 2.596 . S
Tb300 O305 2.374 . S
Tb300 O313 2.343 1_455 S
Tb300 O315 2.353 . S
Tb300 O317 2.427 . S
Tb300 O318 2.513 . S
C301 O305 1.251 1_655 S
C301 O307 1.263 . S
Tb302 O304 2.343 1_655 S
Tb302 O307 2.353 . S
Tb302 O310 2.427 . S
Tb302 O311 2.513 . S
Tb302 O312 2.453 . S
Tb302 O313 2.596 . S
Tb302 O314 2.374 . S
O303 Tb300 2.453 . S
O303 C319 1.245 . S
O304 Tb300 2.596 . S
O304 Tb302 2.343 1_455 S
O304 C319 1.259 . S
O305 Tb300 2.374 . S
O305 C301 1.251 1_455 S
C306 O310 1.275 1_554 S
C306 O311 1.246 1_554 S
O307 C301 1.263 . S
O307 Tb302 2.353 . S
C308 O312 1.245 . S
C308 O313 1.259 . S
C309 O314 1.250 1_455 S
C309 O315 1.263 . S
O310 Tb302 2.427 . S
O310 C306 1.275 1_556 S
O311 Tb302 2.513 . S
O311 C306 1.246 1_556 S
O312 Tb302 2.453 . S
O312 C308 1.245 . S
O313 Tb300 2.343 1_655 S
O313 Tb302 2.596 . S
O313 C308 1.259 . S
O314 Tb302 2.374 . S
O314 C309 1.250 1_655 S
O315 Tb300 2.353 . S
O315 C309 1.263 . S
C316 O317 1.275 . S
C316 O318 1.246 . S
O317 Tb300 2.427 . S
O317 C316 1.275 . S
O318 Tb300 2.513 . S
O318 C316 1.246 . S
C319 O303 1.245 . S
C319 O304 1.259 . S
H320 C332 0.930 . S
H321 C334 0.930 1_554 S
H322 C335 0.930 . S
H323 C339 0.959 . S
H324 C339 0.959 . S
H325 C339 0.961 . S
H326 C340 0.960 . S
H327 C340 0.961 . S
H328 C340 0.959 . S
H329 C343 0.929 . S
H330 C344 0.931 . S
H331 C346 0.930 . S
C332 H320 0.930 . S
C332 C333 1.399 . S
C332 C337 1.399 . S
C333 C332 1.399 . S
C333 C334 1.376 . S
C334 H321 0.930 1_556 S
C334 C333 1.376 . S
C334 C335 1.388 . S
C335 H322 0.930 . S
C335 C334 1.388 . S
C335 C336 1.390 . S
C336 C335 1.390 . S
C336 C337 1.394 . S
C336 C342 1.465 . S
C337 C332 1.399 . S
C337 C336 1.394 . S
C337 C338 1.516 . S
C338 C337 1.516 . S
C338 C339 1.502 . S
C338 C340 1.561 . S
C338 C341 1.526 . S
C339 H323 0.959 . S
C339 H324 0.959 . S
C339 H325 0.961 . S
C339 C338 1.502 . S
C340 H326 0.960 . S
C340 H327 0.961 . S
C340 H328 0.959 . S
C340 C338 1.561 . S
C341 C338 1.526 . S
C341 C342 1.396 . S
C341 C346 1.390 . S
C342 C336 1.465 . S
C342 C341 1.396 . S
C342 C343 1.399 . S
C343 H329 0.929 . S
C343 C342 1.399 . S
C343 C344 1.385 . S
C344 H330 0.931 . S
C344 C343 1.385 . S
C344 C345 1.389 . S
C345 C344 1.389 . S
C345 C346 1.387 . S
C346 H331 0.930 . S
C346 C341 1.390 . S
C346 C345 1.387 . S
H347 C359 0.930 . S
H348 C361 0.930 . S
H349 C362 0.930 . S
H350 C366 0.959 . S
H351 C366 0.959 . S
H352 C366 0.961 . S
H353 C367 0.960 . S
H354 C367 0.961 . S
H355 C367 0.959 . S
H356 C370 0.929 . S
H357 C371 0.931 . S
H358 C373 0.930 . S
C359 H347 0.930 . S
C359 C360 1.399 . S
C359 C364 1.399 . S
C360 C359 1.399 . S
C360 C361 1.376 . S
C361 H348 0.930 . S
C361 C360 1.376 . S
C361 C362 1.388 . S
C362 H349 0.930 . S
C362 C361 1.388 . S
C362 C363 1.390 . S
C363 C362 1.390 . S
C363 C364 1.394 . S
C363 C369 1.465 . S
C364 C359 1.399 . S
C364 C363 1.394 . S
C364 C365 1.516 . S
C365 C364 1.516 . S
C365 C366 1.502 . S
C365 C367 1.561 . S
C365 C368 1.526 . S
C366 H350 0.959 . S
C366 H351 0.959 . S
C366 H352 0.961 . S
C366 C365 1.502 . S
C367 H353 0.960 . S
C367 H354 0.961 . S
C367 H355 0.959 . S
C367 C365 1.561 . S
C368 C365 1.526 . S
C368 C369 1.396 . S
C368 C373 1.390 . S
C369 C363 1.465 . S
C369 C368 1.396 . S
C369 C370 1.399 . S
C370 H356 0.929 . S
C370 C369 1.399 . S
C370 C371 1.385 . S
C371 H357 0.931 . S
C371 C370 1.385 . S
C371 C372 1.389 . S
C372 C371 1.389 . S
C372 C373 1.387 . S
C373 H358 0.930 . S
C373 C368 1.390 . S
C373 C372 1.387 . S
H374 C386 0.930 . S
H375 C388 0.930 . S
H376 C389 0.930 . S
H377 C393 0.959 . S
H378 C393 0.959 . S
H379 C393 0.961 . S
H380 C394 0.960 . S
H381 C394 0.961 . S
H382 C394 0.959 . S
H383 C397 0.929 . S
H384 C398 0.931 . S
H385 C400 0.930 . S
C386 H374 0.930 . S
C386 C387 1.399 . S
C386 C391 1.399 . S
C387 C386 1.399 . S
C387 C388 1.376 . S
C388 H375 0.930 . S
C388 C387 1.376 . S
C388 C389 1.388 . S
C389 H376 0.930 . S
C389 C388 1.388 . S
C389 C390 1.390 . S
C390 C389 1.390 . S
C390 C391 1.394 . S
C390 C396 1.465 . S
C391 C386 1.399 . S
C391 C390 1.394 . S
C391 C392 1.516 . S
C392 C391 1.516 . S
C392 C393 1.502 . S
C392 C394 1.561 . S
C392 C395 1.526 . S
C393 H377 0.959 . S
C393 H378 0.959 . S
C393 H379 0.961 . S
C393 C392 1.502 . S
C394 H380 0.960 . S
C394 H381 0.961 . S
C394 H382 0.959 . S
C394 C392 1.561 . S
C395 C392 1.526 . S
C395 C396 1.396 . S
C395 C400 1.390 . S
C396 C390 1.465 . S
C396 C395 1.396 . S
C396 C397 1.399 . S
C397 H383 0.929 . S
C397 C396 1.399 . S
C397 C398 1.385 . S
C398 H384 0.931 . S
C398 C397 1.385 . S
C398 C399 1.389 . S
C399 C398 1.389 . S
C399 C400 1.387 . S
C400 H385 0.930 . S
C400 C395 1.390 . S
C400 C399 1.387 . S
H401 C413 0.930 . S
H402 C415 0.930 . S
H403 C416 0.930 . S
H404 C420 0.959 . S
H405 C420 0.959 . S
H406 C420 0.961 . S
H407 C421 0.960 . S
H408 C421 0.961 . S
H409 C421 0.959 . S
H410 C424 0.929 . S
H411 C425 0.931 . S
H412 C427 0.930 . S
C413 H401 0.930 . S
C413 C414 1.399 . S
C413 C418 1.399 . S
C414 C413 1.399 . S
C414 C415 1.376 . S
C415 H402 0.930 . S
C415 C414 1.376 . S
C415 C416 1.388 . S
C416 H403 0.930 . S
C416 C415 1.388 . S
C416 C417 1.390 . S
C417 C416 1.390 . S
C417 C418 1.394 . S
C417 C423 1.465 . S
C418 C413 1.399 . S
C418 C417 1.394 . S
C418 C419 1.516 . S
C419 C418 1.516 . S
C419 C420 1.502 . S
C419 C421 1.561 . S
C419 C422 1.526 . S
C420 H404 0.959 . S
C420 H405 0.959 . S
C420 H406 0.961 . S
C420 C419 1.502 . S
C421 H407 0.960 . S
C421 H408 0.961 . S
C421 H409 0.959 . S
C421 C419 1.561 . S
C422 C419 1.526 . S
C422 C423 1.396 . S
C422 C427 1.390 . S
C423 C417 1.465 . S
C423 C422 1.396 . S
C423 C424 1.399 . S
C424 H410 0.929 . S
C424 C423 1.399 . S
C424 C425 1.385 . S
C425 H411 0.931 . S
C425 C424 1.385 . S
C425 C426 1.389 . S
C426 C425 1.389 . S
C426 C427 1.387 . S
C427 H412 0.930 . S
C427 C422 1.390 . S
C427 C426 1.387 . S
H428 C440 0.930 . S
H429 C442 0.930 . S
H430 C443 0.930 . S
H431 C447 0.959 . S
H432 C447 0.959 . S
H433 C447 0.961 . S
H434 C448 0.960 . S
H435 C448 0.961 . S
H436 C448 0.959 . S
H437 C451 0.929 . S
H438 C452 0.931 . S
H439 C454 0.930 1_556 S
C440 H428 0.930 . S
C440 C441 1.399 . S
C440 C445 1.399 . S
C441 C440 1.399 . S
C441 C442 1.376 . S
C442 H429 0.930 . S
C442 C441 1.376 . S
C442 C443 1.388 . S
C443 H430 0.930 . S
C443 C442 1.388 . S
C443 C444 1.390 . S
C444 C443 1.390 . S
C444 C445 1.394 . S
C444 C450 1.465 . S
C445 C440 1.399 . S
C445 C444 1.394 . S
C445 C446 1.516 . S
C446 C445 1.516 . S
C446 C447 1.502 . S
C446 C448 1.561 . S
C446 C449 1.526 . S
C447 H431 0.959 . S
C447 H432 0.959 . S
C447 H433 0.961 . S
C447 C446 1.502 . S
C448 H434 0.960 . S
C448 H435 0.961 . S
C448 H436 0.959 . S
C448 C446 1.561 . S
C449 C446 1.526 . S
C449 C450 1.396 . S
C449 C454 1.390 . S
C450 C444 1.465 . S
C450 C449 1.396 . S
C450 C451 1.399 1_655 S
C451 H437 0.929 . S
C451 C450 1.399 1_455 S
C451 C452 1.385 . S
C452 H438 0.931 . S
C452 C451 1.385 . S
C452 C453 1.389 1_554 S
C453 C452 1.389 1_556 S
C453 C454 1.387 1_456 S
C454 H439 0.930 1_554 S
C454 C449 1.390 . S
C454 C453 1.387 1_654 S
H455 C467 0.930 . S
H456 C469 0.930 . S
H457 C470 0.930 . S
H458 C474 0.959 . S
H459 C474 0.959 . S
H460 C474 0.961 . S
H461 C475 0.960 . S
H462 C475 0.961 . S
H463 C475 0.959 . S
H464 C478 0.929 . S
H465 C479 0.931 1_554 S
H466 C481 0.930 . S
C467 H455 0.930 . S
C467 C468 1.399 . S
C467 C472 1.399 . S
C468 C467 1.399 . S
C468 C469 1.376 . S
C469 H456 0.930 . S
C469 C468 1.376 . S
C469 C470 1.388 . S
C470 H457 0.930 . S
C470 C469 1.388 . S
C470 C471 1.390 . S
C471 C470 1.390 . S
C471 C472 1.394 . S
C471 C477 1.465 . S
C472 C467 1.399 . S
C472 C471 1.394 . S
C472 C473 1.516 . S
C473 C472 1.516 . S
C473 C474 1.502 1_655 S
C473 C475 1.561 . S
C473 C476 1.526 . S
C474 H458 0.959 . S
C474 H459 0.959 . S
C474 H460 0.961 . S
C474 C473 1.502 1_455 S
C475 H461 0.960 . S
C475 H462 0.961 . S
C475 H463 0.959 . S
C475 C473 1.561 . S
C476 C473 1.526 . S
C476 C477 1.396 . S
C476 C481 1.390 1_655 S
C477 C471 1.465 . S
C477 C476 1.396 . S
C477 C478 1.399 . S
C478 H464 0.929 . S
C478 C477 1.399 . S
C478 C479 1.385 . S
C479 H465 0.931 1_556 S
C479 C478 1.385 . S
C479 C480 1.389 1_656 S
C480 C479 1.389 1_454 S
C480 C481 1.387 1_554 S
C481 H466 0.930 . S
C481 C476 1.390 1_455 S
C481 C480 1.387 1_556 S
H482 C494 0.930 . S
H483 C496 0.930 . S
H484 C497 0.930 . S
H485 C501 0.959 . S
H486 C501 0.959 . S
H487 C501 0.961 . S
H488 C502 0.960 . S
H489 C502 0.961 . S
H490 C502 0.959 . S
H491 C505 0.929 . S
H492 C506 0.931 . S
H493 C508 0.930 . S
C494 H482 0.930 . S
C494 C495 1.399 . S
C494 C499 1.399 . S
C495 C494 1.399 . S
C495 C496 1.376 . S
C496 H483 0.930 . S
C496 C495 1.376 . S
C496 C497 1.388 . S
C497 H484 0.930 . S
C497 C496 1.388 . S
C497 C498 1.390 . S
C498 C497 1.390 . S
C498 C499 1.394 . S
C498 C504 1.465 . S
C499 C494 1.399 . S
C499 C498 1.394 . S
C499 C500 1.516 . S
C500 C499 1.516 . S
C500 C501 1.502 . S
C500 C502 1.561 . S
C500 C503 1.526 . S
C501 H485 0.959 . S
C501 H486 0.959 . S
C501 H487 0.961 . S
C501 C500 1.502 . S
C502 H488 0.960 . S
C502 H489 0.961 . S
C502 H490 0.959 . S
C502 C500 1.561 . S
C503 C500 1.526 . S
C503 C504 1.396 . S
C503 C508 1.390 . S
C504 C498 1.465 . S
C504 C503 1.396 . S
C504 C505 1.399 . S
C505 H491 0.929 . S
C505 C504 1.399 . S
C505 C506 1.385 . S
C506 H492 0.931 . S
C506 C505 1.385 . S
C506 C507 1.389 . S
C507 C506 1.389 . S
C507 C508 1.387 . S
C508 H493 0.930 . S
C508 C503 1.390 . S
C508 C507 1.387 . S
H509 C521 0.930 . S
H510 C523 0.930 . S
H511 C524 0.930 . S
H512 C528 0.959 . S
H513 C528 0.959 . S
H514 C528 0.961 . S
H515 C529 0.960 . S
H516 C529 0.961 . S
H517 C529 0.959 . S
H518 C532 0.929 . S
H519 C533 0.931 . S
H520 C535 0.930 . S
C521 H509 0.930 . S
C521 C522 1.399 . S
C521 C526 1.399 . S
C522 C521 1.399 . S
C522 C523 1.376 . S
C523 H510 0.930 . S
C523 C522 1.376 . S
C523 C524 1.388 . S
C524 H511 0.930 . S
C524 C523 1.388 . S
C524 C525 1.390 . S
C525 C524 1.390 . S
C525 C526 1.394 . S
C525 C531 1.465 . S
C526 C521 1.399 . S
C526 C525 1.394 . S
C526 C527 1.516 . S
C527 C526 1.516 . S
C527 C528 1.502 . S
C527 C529 1.561 . S
C527 C530 1.526 . S
C528 H512 0.959 . S
C528 H513 0.959 . S
C528 H514 0.961 . S
C528 C527 1.502 . S
C529 H515 0.960 . S
C529 H516 0.961 . S
C529 H517 0.959 . S
C529 C527 1.561 . S
C530 C527 1.526 . S
C530 C531 1.396 . S
C530 C535 1.390 . S
C531 C525 1.465 . S
C531 C530 1.396 . S
C531 C532 1.399 . S
C532 H518 0.929 . S
C532 C531 1.399 . S
C532 C533 1.385 . S
C533 H519 0.931 . S
C533 C532 1.385 . S
C533 C534 1.389 . S
C534 C533 1.389 . S
C534 C535 1.387 . S
C535 H520 0.930 . S
C535 C530 1.390 . S
C535 C534 1.387 . S
H536 C548 0.930 . S
H537 C550 0.930 . S
H538 C551 0.930 . S
H539 C555 0.959 . S
H540 C555 0.959 . S
H541 C555 0.961 . S
H542 C556 0.960 . S
H543 C556 0.961 . S
H544 C556 0.959 . S
H545 C559 0.929 . S
H546 C560 0.931 . S
H547 C562 0.930 . S
C548 H536 0.930 . S
C548 C549 1.399 . S
C548 C553 1.399 . S
C549 C548 1.399 . S
C549 C550 1.376 . S
C550 H537 0.930 . S
C550 C549 1.376 . S
C550 C551 1.388 . S
C551 H538 0.930 . S
C551 C550 1.388 . S
C551 C552 1.390 . S
C552 C551 1.390 . S
C552 C553 1.394 . S
C552 C558 1.465 . S
C553 C548 1.399 . S
C553 C552 1.394 . S
C553 C554 1.516 . S
C554 C553 1.516 . S
C554 C555 1.502 . S
C554 C556 1.561 . S
C554 C557 1.526 . S
C555 H539 0.959 . S
C555 H540 0.959 . S
C555 H541 0.961 . S
C555 C554 1.502 . S
C556 H542 0.960 . S
C556 H543 0.961 . S
C556 H544 0.959 . S
C556 C554 1.561 . S
C557 C554 1.526 . S
C557 C558 1.396 . S
C557 C562 1.390 . S
C558 C552 1.465 . S
C558 C557 1.396 . S
C558 C559 1.399 . S
C559 H545 0.929 . S
C559 C558 1.399 . S
C559 C560 1.385 . S
C560 H546 0.931 . S
C560 C559 1.385 . S
C560 C561 1.389 . S
C561 C560 1.389 . S
C561 C562 1.387 . S
C562 H547 0.930 . S
C562 C557 1.390 . S
C562 C561 1.387 . S
H563 C575 0.930 . S
H564 C577 0.930 . S
H565 C578 0.930 . S
H566 C582 0.959 . S
H567 C582 0.959 . S
H568 C582 0.961 . S
H569 C583 0.960 . S
H570 C583 0.961 . S
H571 C583 0.959 . S
H572 C586 0.929 . S
H573 C587 0.931 . S
H574 C589 0.930 . S
C575 H563 0.930 . S
C575 C576 1.399 . S
C575 C580 1.399 . S
C576 C575 1.399 . S
C576 C577 1.376 . S
C577 H564 0.930 . S
C577 C576 1.376 . S
C577 C578 1.388 . S
C578 H565 0.930 . S
C578 C577 1.388 . S
C578 C579 1.390 . S
C579 C578 1.390 . S
C579 C580 1.394 . S
C579 C585 1.465 . S
C580 C575 1.399 . S
C580 C579 1.394 . S
C580 C581 1.516 . S
C581 C580 1.516 . S
C581 C582 1.502 . S
C581 C583 1.561 . S
C581 C584 1.526 . S
C582 H566 0.959 . S
C582 H567 0.959 . S
C582 H568 0.961 . S
C582 C581 1.502 . S
C583 H569 0.960 . S
C583 H570 0.961 . S
C583 H571 0.959 . S
C583 C581 1.561 . S
C584 C581 1.526 . S
C584 C585 1.396 . S
C584 C589 1.390 . S
C585 C579 1.465 . S
C585 C584 1.396 . S
C585 C586 1.399 . S
C586 H572 0.929 . S
C586 C585 1.399 . S
C586 C587 1.385 . S
C587 H573 0.931 . S
C587 C586 1.385 . S
C587 C588 1.389 . S
C588 C587 1.389 . S
C588 C589 1.387 . S
C589 H574 0.930 . S
C589 C584 1.390 . S
C589 C588 1.387 . S
H590 C602 0.930 . S
H591 C604 0.930 . S
H592 C605 0.930 . S
H593 C609 0.959 . S
H594 C609 0.959 . S
H595 C609 0.961 . S
H596 C610 0.960 . S
H597 C610 0.961 . S
H598 C610 0.959 . S
H599 C613 0.929 . S
H600 C614 0.931 . S
H601 C616 0.930 . S
C602 H590 0.930 . S
C602 C603 1.399 . S
C602 C607 1.399 . S
C603 C602 1.399 . S
C603 C604 1.376 . S
C604 H591 0.930 . S
C604 C603 1.376 . S
C604 C605 1.388 . S
C605 H592 0.930 . S
C605 C604 1.388 . S
C605 C606 1.390 . S
C606 C605 1.390 . S
C606 C607 1.394 . S
C606 C612 1.465 . S
C607 C602 1.399 . S
C607 C606 1.394 . S
C607 C608 1.516 . S
C608 C607 1.516 . S
C608 C609 1.502 . S
C608 C610 1.561 . S
C608 C611 1.526 . S
C609 H593 0.959 . S
C609 H594 0.959 . S
C609 H595 0.961 . S
C609 C608 1.502 . S
C610 H596 0.960 . S
C610 H597 0.961 . S
C610 H598 0.959 . S
C610 C608 1.561 . S
C611 C608 1.526 . S
C611 C612 1.396 . S
C611 C616 1.390 . S
C612 C606 1.465 . S
C612 C611 1.396 . S
C612 C613 1.399 . S
C613 H599 0.929 . S
C613 C612 1.399 . S
C613 C614 1.385 . S
C614 H600 0.931 . S
C614 C613 1.385 . S
C614 C615 1.389 . S
C615 C614 1.389 . S
C615 C616 1.387 . S
C616 H601 0.930 . S
C616 C611 1.390 . S
C616 C615 1.387 . S
H617 C629 0.930 . S
H618 C631 0.930 . S
H619 C632 0.930 . S
H620 C636 0.959 . S
H621 C636 0.959 . S
H622 C636 0.961 . S
H623 C637 0.960 . S
H624 C637 0.961 . S
H625 C637 0.959 . S
H626 C640 0.929 . S
H627 C641 0.931 . S
H628 C643 0.930 . S
C629 H617 0.930 . S
C629 C630 1.399 . S
C629 C634 1.399 . S
C630 C629 1.399 . S
C630 C631 1.376 . S
C631 H618 0.930 . S
C631 C630 1.376 . S
C631 C632 1.388 . S
C632 H619 0.930 . S
C632 C631 1.388 . S
C632 C633 1.390 . S
C633 C632 1.390 . S
C633 C634 1.394 . S
C633 C639 1.465 . S
C634 C629 1.399 . S
C634 C633 1.394 . S
C634 C635 1.516 . S
C635 C634 1.516 . S
C635 C636 1.502 . S
C635 C637 1.561 . S
C635 C638 1.526 . S
C636 H620 0.959 . S
C636 H621 0.959 . S
C636 H622 0.961 . S
C636 C635 1.502 . S
C637 H623 0.960 . S
C637 H624 0.961 . S
C637 H625 0.959 . S
C637 C635 1.561 . S
C638 C635 1.526 . S
C638 C639 1.396 . S
C638 C643 1.390 . S
C639 C633 1.465 . S
C639 C638 1.396 . S
C639 C640 1.399 . S
C640 H626 0.929 . S
C640 C639 1.399 . S
C640 C641 1.385 . S
C641 H627 0.931 . S
C641 C640 1.385 . S
C641 C642 1.389 . S
C642 C641 1.389 . S
C642 C643 1.387 . S
C643 H628 0.930 . S
C643 C638 1.390 . S
C643 C642 1.387 . S
H644 C656 0.930 . S
H645 C658 0.930 . S
H646 C659 0.930 . S
H647 C663 0.959 . S
H648 C663 0.959 . S
H649 C663 0.961 . S
H650 C664 0.960 . S
H651 C664 0.961 . S
H652 C664 0.959 . S
H653 C667 0.929 . S
H654 C668 0.931 . S
H655 C670 0.930 . S
C656 H644 0.930 . S
C656 C657 1.399 . S
C656 C661 1.399 . S
C657 C656 1.399 . S
C657 C658 1.376 . S
C658 H645 0.930 . S
C658 C657 1.376 . S
C658 C659 1.388 . S
C659 H646 0.930 . S
C659 C658 1.388 . S
C659 C660 1.390 . S
C660 C659 1.390 . S
C660 C661 1.394 . S
C660 C666 1.465 . S
C661 C656 1.399 . S
C661 C660 1.394 . S
C661 C662 1.516 . S
C662 C661 1.516 . S
C662 C663 1.502 . S
C662 C664 1.561 . S
C662 C665 1.526 . S
C663 H647 0.959 . S
C663 H648 0.959 . S
C663 H649 0.961 . S
C663 C662 1.502 . S
C664 H650 0.960 . S
C664 H651 0.961 . S
C664 H652 0.959 . S
C664 C662 1.561 . S
C665 C662 1.526 . S
C665 C666 1.396 . S
C665 C670 1.390 . S
C666 C660 1.465 . S
C666 C665 1.396 . S
C666 C667 1.399 . S
C667 H653 0.929 . S
C667 C666 1.399 . S
C667 C668 1.385 . S
C668 H654 0.931 . S
C668 C667 1.385 . S
C668 C669 1.389 . S
C669 C668 1.389 . S
C669 C670 1.387 . S
C670 H655 0.930 . S
C670 C665 1.390 . S
C670 C669 1.387 . S
H671 C683 0.930 . S
H672 C685 0.930 . S
H673 C686 0.930 . S
H674 C690 0.959 . S
H675 C690 0.959 . S
H676 C690 0.961 . S
H677 C691 0.960 . S
H678 C691 0.961 . S
H679 C691 0.959 . S
H680 C694 0.929 . S
H681 C695 0.931 . S
H682 C697 0.930 . S
C683 H671 0.930 . S
C683 C684 1.399 . S
C683 C688 1.399 . S
C684 C683 1.399 . S
C684 C685 1.376 . S
C685 H672 0.930 . S
C685 C684 1.376 . S
C685 C686 1.388 . S
C686 H673 0.930 . S
C686 C685 1.388 . S
C686 C687 1.390 . S
C687 C686 1.390 . S
C687 C688 1.394 . S
C687 C693 1.465 . S
C688 C683 1.399 . S
C688 C687 1.394 . S
C688 C689 1.516 . S
C689 C688 1.516 . S
C689 C690 1.502 . S
C689 C691 1.561 . S
C689 C692 1.526 . S
C690 H674 0.959 . S
C690 H675 0.959 . S
C690 H676 0.961 . S
C690 C689 1.502 . S
C691 H677 0.960 . S
C691 H678 0.961 . S
C691 H679 0.959 . S
C691 C689 1.561 . S
C692 C689 1.526 . S
C692 C693 1.396 . S
C692 C697 1.390 . S
C693 C687 1.465 . S
C693 C692 1.396 . S
C693 C694 1.399 . S
C694 H680 0.929 . S
C694 C693 1.399 . S
C694 C695 1.385 . S
C695 H681 0.931 . S
C695 C694 1.385 . S
C695 C696 1.389 . S
C696 C695 1.389 . S
C696 C697 1.387 . S
C697 H682 0.930 . S
C697 C692 1.390 . S
C697 C696 1.387 . S
H698 C710 0.930 . S
H699 C712 0.930 . S
H700 C713 0.930 . S
H701 C717 0.959 . S
H702 C717 0.959 . S
H703 C717 0.961 . S
H704 C718 0.960 . S
H705 C718 0.961 . S
H706 C718 0.959 . S
H707 C721 0.929 . S
H708 C722 0.931 . S
H709 C724 0.930 . S
C710 H698 0.930 . S
C710 C711 1.399 . S
C710 C715 1.399 . S
C711 C710 1.399 . S
C711 C712 1.376 . S
C712 H699 0.930 . S
C712 C711 1.376 . S
C712 C713 1.388 . S
C713 H700 0.930 . S
C713 C712 1.388 . S
C713 C714 1.390 . S
C714 C713 1.390 . S
C714 C715 1.394 . S
C714 C720 1.465 . S
C715 C710 1.399 . S
C715 C714 1.394 . S
C715 C716 1.516 . S
C716 C715 1.516 . S
C716 C717 1.502 . S
C716 C718 1.561 . S
C716 C719 1.526 . S
C717 H701 0.959 . S
C717 H702 0.959 . S
C717 H703 0.961 . S
C717 C716 1.502 . S
C718 H704 0.960 . S
C718 H705 0.961 . S
C718 H706 0.959 . S
C718 C716 1.561 . S
C719 C716 1.526 . S
C719 C720 1.396 . S
C719 C724 1.390 . S
C720 C714 1.465 . S
C720 C719 1.396 . S
C720 C721 1.399 . S
C721 H707 0.929 . S
C721 C720 1.399 . S
C721 C722 1.385 . S
C722 H708 0.931 . S
C722 C721 1.385 . S
C722 C723 1.389 . S
C723 C722 1.389 . S
C723 C724 1.387 . S
C724 H709 0.930 . S
C724 C719 1.390 . S
C724 C723 1.387 . S
H725 C737 0.930 . S
H726 C739 0.930 . S
H727 C740 0.930 . S
H728 C744 0.959 . S
H729 C744 0.959 . S
H730 C744 0.961 . S
H731 C745 0.960 . S
H732 C745 0.961 . S
H733 C745 0.959 . S
H734 C748 0.929 . S
H735 C749 0.931 . S
H736 C751 0.930 . S
C737 H725 0.930 . S
C737 C738 1.399 . S
C737 C742 1.399 . S
C738 C737 1.399 . S
C738 C739 1.376 . S
C739 H726 0.930 . S
C739 C738 1.376 . S
C739 C740 1.388 . S
C740 H727 0.930 . S
C740 C739 1.388 . S
C740 C741 1.390 . S
C741 C740 1.390 . S
C741 C742 1.394 . S
C741 C747 1.465 . S
C742 C737 1.399 . S
C742 C741 1.394 . S
C742 C743 1.516 . S
C743 C742 1.516 . S
C743 C744 1.502 . S
C743 C745 1.561 . S
C743 C746 1.526 . S
C744 H728 0.959 . S
C744 H729 0.959 . S
C744 H730 0.961 . S
C744 C743 1.502 . S
C745 H731 0.960 . S
C745 H732 0.961 . S
C745 H733 0.959 . S
C745 C743 1.561 . S
C746 C743 1.526 . S
C746 C747 1.396 . S
C746 C751 1.390 . S
C747 C741 1.465 . S
C747 C746 1.396 . S
C747 C748 1.399 . S
C748 H734 0.929 . S
C748 C747 1.399 . S
C748 C749 1.385 . S
C749 H735 0.931 . S
C749 C748 1.385 . S
C749 C750 1.389 . S
C750 C749 1.389 . S
C750 C751 1.387 . S
C751 H736 0.930 . S
C751 C746 1.390 . S
C751 C750 1.387 . S
H752 C764 0.930 . S
H753 C766 0.930 . S
H754 C767 0.930 . S
H755 C771 0.959 . S
H756 C771 0.959 . S
H757 C771 0.961 . S
H758 C772 0.965 . S
H759 C772 0.961 . S
H760 C772 0.959 1_655 S
H761 C775 0.929 . S
H762 C776 0.931 . S
H763 C778 0.930 . S
C764 H752 0.930 . S
C764 C765 1.399 1_455 S
C764 C769 1.399 . S
C765 C764 1.399 1_655 S
C765 C766 1.376 . S
C766 H753 0.930 . S
C766 C765 1.376 . S
C766 C767 1.388 . S
C767 H754 0.930 . S
C767 C766 1.388 . S
C767 C768 1.390 1_655 S
C768 C767 1.390 1_455 S
C768 C769 1.394 . S
C768 C774 1.465 . S
C769 C764 1.399 . S
C769 C768 1.394 . S
C769 C770 1.516 . S
C770 C769 1.516 . S
C770 C771 1.502 . S
C770 C772 1.561 . S
C770 C773 1.526 . S
C771 H755 0.959 . S
C771 H756 0.959 . S
C771 H757 0.961 . S
C771 C770 1.502 . S
C772 H758 0.965 . S
C772 H759 0.961 . S
C772 H760 0.959 1_455 S
C772 C770 1.561 . S
C773 C770 1.526 . S
C773 C774 1.396 . S
C773 C778 1.390 . S
C774 C768 1.465 . S
C774 C773 1.396 . S
C774 C775 1.399 . S
C775 H761 0.929 . S
C775 C774 1.399 . S
C775 C776 1.385 . S
C776 H762 0.931 . S
C776 C775 1.385 . S
C776 C777 1.389 . S
C777 C776 1.389 . S
C777 C778 1.387 . S
C778 H763 0.930 . S
C778 C773 1.390 . S
C778 C777 1.387 . S
H779 C791 0.930 . S
H780 C793 0.930 . S
H781 C794 0.930 . S
H782 C798 0.959 . S
H783 C798 0.959 . S
H784 C798 0.961 1_655 S
H785 C799 0.960 . S
H786 C799 0.961 . S
H787 C799 0.959 . S
H788 C802 0.929 . S
H789 C803 0.931 . S
H790 C805 0.930 . S
C791 H779 0.930 . S
C791 C792 1.399 . S
C791 C796 1.408 . S
C792 C791 1.399 . S
C792 C793 1.376 . S
C793 H780 0.930 . S
C793 C792 1.376 . S
C793 C794 1.388 1_655 S
C794 H781 0.930 . S
C794 C793 1.388 1_455 S
C794 C795 1.390 . S
C795 C794 1.390 . S
C795 C796 1.389 1_455 S
C795 C801 1.465 . S
C796 C791 1.408 . S
C796 C795 1.389 1_655 S
C796 C797 1.511 1_655 S
C797 C796 1.511 1_455 S
C797 C798 1.502 . S
C797 C799 1.561 . S
C797 C800 1.526 . S
C798 H782 0.959 . S
C798 H783 0.959 . S
C798 H784 0.961 1_455 S
C798 C797 1.502 . S
C799 H785 0.960 . S
C799 H786 0.961 . S
C799 H787 0.959 . S
C799 C797 1.561 . S
C800 C797 1.526 . S
C800 C801 1.396 . S
C800 C805 1.390 . S
C801 C795 1.465 . S
C801 C800 1.396 . S
C801 C802 1.399 . S
C802 H788 0.929 . S
C802 C801 1.399 . S
C802 C803 1.385 . S
C803 H789 0.931 . S
C803 C802 1.385 . S
C803 C804 1.389 . S
C804 C803 1.389 . S
C804 C805 1.387 . S
C805 H790 0.930 . S
C805 C800 1.390 . S
C805 C804 1.387 . S
H806 C818 0.930 . S
H807 C820 0.930 . S
H808 C821 0.930 . S
H809 C825 0.959 . S
H810 C825 0.959 . S
H811 C825 0.961 . S
H812 C826 0.960 . S
H813 C826 0.961 . S
H814 C826 0.959 . S
H815 C829 0.929 . S
H816 C830 0.931 . S
H817 C832 0.930 . S
C818 H806 0.930 . S
C818 C819 1.399 . S
C818 C823 1.399 . S
C819 C818 1.399 . S
C819 C820 1.376 . S
C820 H807 0.930 . S
C820 C819 1.376 . S
C820 C821 1.388 . S
C821 H808 0.930 . S
C821 C820 1.388 . S
C821 C822 1.390 . S
C822 C821 1.390 . S
C822 C823 1.394 . S
C822 C828 1.465 . S
C823 C818 1.399 . S
C823 C822 1.394 . S
C823 C824 1.516 . S
C824 C823 1.516 . S
C824 C825 1.502 . S
C824 C826 1.561 . S
C824 C827 1.526 . S
C825 H809 0.959 . S
C825 H810 0.959 . S
C825 H811 0.961 . S
C825 C824 1.502 . S
C826 H812 0.960 . S
C826 H813 0.961 . S
C826 H814 0.959 . S
C826 C824 1.561 . S
C827 C824 1.526 . S
C827 C828 1.396 . S
C827 C832 1.390 . S
C828 C822 1.465 . S
C828 C827 1.396 . S
C828 C829 1.399 . S
C829 H815 0.929 . S
C829 C828 1.399 . S
C829 C830 1.385 . S
C830 H816 0.931 . S
C830 C829 1.385 . S
C830 C831 1.389 . S
C831 C830 1.389 . S
C831 C832 1.387 . S
C832 H817 0.930 . S
C832 C827 1.390 . S
C832 C831 1.387 . S
H833 C845 0.930 . S
H834 C847 0.930 . S
H835 C848 0.930 . S
H836 C852 0.959 . S
H837 C852 0.959 . S
H838 C852 0.961 . S
H839 C853 0.960 . S
H840 C853 0.961 . S
H841 C853 0.959 . S
H842 C856 0.929 . S
H843 C857 0.931 . S
H844 C859 0.930 . S
C845 H833 0.930 . S
C845 C846 1.399 . S
C845 C850 1.399 . S
C846 C845 1.399 . S
C846 C847 1.376 . S
C847 H834 0.930 . S
C847 C846 1.376 . S
C847 C848 1.388 . S
C848 H835 0.930 . S
C848 C847 1.388 . S
C848 C849 1.390 . S
C849 C848 1.390 . S
C849 C850 1.394 . S
C849 C855 1.465 . S
C850 C845 1.399 . S
C850 C849 1.394 . S
C850 C851 1.516 . S
C851 C850 1.516 . S
C851 C852 1.502 . S
C851 C853 1.561 . S
C851 C854 1.526 . S
C852 H836 0.959 . S
C852 H837 0.959 . S
C852 H838 0.961 . S
C852 C851 1.502 . S
C853 H839 0.960 . S
C853 H840 0.961 . S
C853 H841 0.959 . S
C853 C851 1.561 . S
C854 C851 1.526 . S
C854 C855 1.396 . S
C854 C859 1.390 . S
C855 C849 1.465 . S
C855 C854 1.396 . S
C855 C856 1.399 . S
C856 H842 0.929 . S
C856 C855 1.399 . S
C856 C857 1.385 . S
C857 H843 0.931 . S
C857 C856 1.385 . S
C857 C858 1.389 . S
C858 C857 1.389 . S
C858 C859 1.387 . S
C859 H844 0.930 . S
C859 C854 1.390 . S
C859 C858 1.387 . S
H860 C872 0.930 . S
H861 C874 0.930 . S
H862 C875 0.930 . S
H863 C879 0.959 . S
H864 C879 0.959 . S
H865 C879 0.961 . S
H866 C880 0.960 . S
H867 C880 0.961 . S
H868 C880 0.959 1_655 S
H869 C883 0.929 . S
H870 C884 0.931 . S
H871 C886 0.930 . S
C872 H860 0.930 . S
C872 C873 1.399 . S
C872 C877 1.399 . S
C873 C872 1.399 . S
C873 C874 1.376 . S
C874 H861 0.930 . S
C874 C873 1.376 . S
C874 C875 1.388 . S
C875 H862 0.930 . S
C875 C874 1.388 . S
C875 C876 1.390 . S
C876 C875 1.390 . S
C876 C877 1.394 . S
C876 C882 1.465 . S
C877 C872 1.399 . S
C877 C876 1.394 . S
C877 C878 1.516 . S
C878 C877 1.516 . S
C878 C879 1.502 . S
C878 C880 1.561 . S
C878 C881 1.526 . S
C879 H863 0.959 . S
C879 H864 0.959 . S
C879 H865 0.961 . S
C879 C878 1.502 . S
C880 H866 0.960 . S
C880 H867 0.961 . S
C880 H868 0.959 1_455 S
C880 C878 1.561 . S
C881 C878 1.526 . S
C881 C882 1.396 . S
C881 C886 1.390 . S
C882 C876 1.465 . S
C882 C881 1.396 . S
C882 C883 1.399 1_455 S
C883 H869 0.929 . S
C883 C882 1.399 1_655 S
C883 C884 1.385 . S
C884 H870 0.931 . S
C884 C883 1.385 . S
C884 C885 1.389 . S
C885 C884 1.389 . S
C885 C886 1.387 1_655 S
C886 H871 0.930 . S
C886 C881 1.390 . S
C886 C885 1.387 1_455 S
H887 C899 0.930 . S
H888 C901 0.930 . S
H889 C902 0.930 . S
H890 C906 0.959 . S
H891 C906 0.959 . S
H892 C906 0.961 . S
H893 C907 0.960 1_556 S
H894 C907 0.961 1_556 S
H895 C907 0.959 . S
H896 C910 0.929 . S
H897 C911 0.931 . S
H898 C913 0.930 . S
C899 H887 0.930 . S
C899 C900 1.399 . S
C899 C904 1.399 . S
C900 C899 1.399 . S
C900 C901 1.376 . S
C901 H888 0.930 . S
C901 C900 1.376 . S
C901 C902 1.388 . S
C902 H889 0.930 . S
C902 C901 1.388 . S
C902 C903 1.390 . S
C903 C902 1.390 . S
C903 C904 1.394 . S
C903 C909 1.465 . S
C904 C899 1.399 . S
C904 C903 1.394 . S
C904 C905 1.516 . S
C905 C904 1.516 . S
C905 C906 1.502 . S
C905 C907 1.561 . S
C905 C908 1.526 . S
C906 H890 0.959 . S
C906 H891 0.959 . S
C906 H892 0.961 . S
C906 C905 1.502 . S
C907 H893 0.960 1_554 S
C907 H894 0.961 1_554 S
C907 H895 0.959 . S
C907 C905 1.561 . S
C908 C905 1.526 . S
C908 C909 1.396 . S
C908 C913 1.390 . S
C909 C903 1.465 . S
C909 C908 1.396 . S
C909 C910 1.399 . S
C910 H896 0.929 . S
C910 C909 1.399 . S
C910 C911 1.385 . S
C911 H897 0.931 . S
C911 C910 1.385 . S
C911 C912 1.389 . S
C912 C911 1.389 . S
C912 C913 1.387 . S
C913 H898 0.930 . S
C913 C908 1.390 . S
C913 C912 1.387 . S
H914 C926 0.930 . S
H915 C928 0.930 . S
H916 C929 0.930 . S
H917 C933 0.959 . S
H918 C933 0.959 . S
H919 C933 0.961 . S
H920 C934 0.960 . S
H921 C934 0.961 . S
H922 C934 0.959 . S
H923 C937 0.929 . S
H924 C938 0.931 . S
H925 C940 0.930 . S
C926 H914 0.930 . S
C926 C927 1.399 . S
C926 C931 1.399 . S
C927 C926 1.399 . S
C927 C928 1.376 . S
C928 H915 0.930 . S
C928 C927 1.376 . S
C928 C929 1.388 . S
C929 H916 0.930 . S
C929 C928 1.388 . S
C929 C930 1.390 . S
C930 C929 1.390 . S
C930 C931 1.394 . S
C930 C936 1.465 . S
C931 C926 1.399 . S
C931 C930 1.394 . S
C931 C932 1.516 . S
C932 C931 1.516 . S
C932 C933 1.502 . S
C932 C934 1.561 . S
C932 C935 1.526 . S
C933 H917 0.959 . S
C933 H918 0.959 . S
C933 H919 0.961 . S
C933 C932 1.502 . S
C934 H920 0.960 . S
C934 H921 0.961 . S
C934 H922 0.959 . S
C934 C932 1.561 . S
C935 C932 1.526 . S
C935 C936 1.396 . S
C935 C940 1.390 . S
C936 C930 1.465 . S
C936 C935 1.396 . S
C936 C937 1.399 . S
C937 H923 0.929 . S
C937 C936 1.399 . S
C937 C938 1.385 . S
C938 H924 0.931 . S
C938 C937 1.385 . S
C938 C939 1.389 . S
C939 C938 1.389 . S
C939 C940 1.387 . S
C940 H925 0.930 . S
C940 C935 1.390 . S
C940 C939 1.387 . S
H941 C953 0.930 . S
H942 C955 0.930 . S
H943 C956 0.930 . S
H944 C960 0.959 . S
H945 C960 0.959 . S
H946 C960 0.961 . S
H947 C961 0.960 . S
H948 C961 0.961 . S
H949 C961 0.959 . S
H950 C964 0.929 . S
H951 C965 0.931 . S
H952 C967 0.930 . S
C953 H941 0.930 . S
C953 C954 1.399 . S
C953 C958 1.399 . S
C954 C953 1.399 . S
C954 C955 1.376 . S
C955 H942 0.930 . S
C955 C954 1.376 . S
C955 C956 1.388 . S
C956 H943 0.930 . S
C956 C955 1.388 . S
C956 C957 1.390 . S
C957 C956 1.390 . S
C957 C958 1.394 . S
C957 C963 1.465 . S
C958 C953 1.399 . S
C958 C957 1.394 . S
C958 C959 1.516 . S
C959 C958 1.516 . S
C959 C960 1.502 . S
C959 C961 1.561 . S
C959 C962 1.526 . S
C960 H944 0.959 . S
C960 H945 0.959 . S
C960 H946 0.961 . S
C960 C959 1.502 . S
C961 H947 0.960 . S
C961 H948 0.961 . S
C961 H949 0.959 . S
C961 C959 1.561 . S
C962 C959 1.526 . S
C962 C963 1.396 . S
C962 C967 1.390 1_455 S
C963 C957 1.465 . S
C963 C962 1.396 . S
C963 C964 1.399 1_455 S
C964 H950 0.929 . S
C964 C963 1.399 1_655 S
C964 C965 1.385 . S
C965 H951 0.931 . S
C965 C964 1.385 . S
C965 C966 1.389 . S
C966 C965 1.389 . S
C966 C967 1.387 . S
C967 H952 0.930 . S
C967 C962 1.390 1_655 S
C967 C966 1.387 . S
H968 C980 0.930 . S
H969 C982 0.930 . S
H970 C983 0.930 1_655 S
H971 C987 0.959 . S
H972 C987 0.959 . S
H973 C987 0.961 . S
H974 C988 0.960 . S
H975 C988 0.961 . S
H976 C988 0.959 . S
H977 C991 0.929 1_655 S
H978 C992 0.931 . S
H979 C994 0.930 . S
C980 H968 0.930 . S
C980 C981 1.399 . S
C980 C985 1.399 . S
C981 C980 1.399 . S
C981 C982 1.376 . S
C982 H969 0.930 . S
C982 C981 1.376 . S
C982 C983 1.388 . S
C983 H970 0.930 1_455 S
C983 C982 1.388 . S
C983 C984 1.390 . S
C984 C983 1.390 . S
C984 C985 1.394 . S
C984 C990 1.465 1_544 S
C985 C980 1.399 . S
C985 C984 1.394 . S
C985 C986 1.516 1_554 S
C986 C985 1.516 1_556 S
C986 C987 1.502 . S
C986 C988 1.561 1_546 S
C986 C989 1.526 1_545 S
C987 H971 0.959 . S
C987 H972 0.959 . S
C987 H973 0.961 . S
C987 C986 1.502 . S
C988 H974 0.960 . S
C988 H975 0.961 . S
C988 H976 0.959 . S
C988 C986 1.561 1_564 S
C989 C986 1.526 1_565 S
C989 C990 1.396 . S
C989 C994 1.390 . S
C990 C984 1.465 1_566 S
C990 C989 1.396 . S
C990 C991 1.399 . S
C991 H977 0.929 1_455 S
C991 C990 1.399 . S
C991 C992 1.385 . S
C992 H978 0.931 . S
C992 C991 1.385 . S
C992 C993 1.389 . S
C993 C992 1.389 . S
C993 C994 1.387 . S
C994 H979 0.930 . S
C994 C989 1.390 . S
C994 C993 1.387 . S
H995 C1007 0.930 . S
H996 C1009 0.930 . S
H997 C1010 0.930 . S
H998 C1014 0.959 . S
H999 C1014 0.959 . S
H1000 C1014 0.961 . S
H1001 C1015 0.960 . S
H1002 C1015 0.961 . S
H1003 C1015 0.959 . S
H1004 C1018 0.929 . S
H1005 C1019 0.931 . S
H1006 C1021 0.930 . S
C1007 H995 0.930 . S
C1007 C1008 1.399 . S
C1007 C1012 1.399 . S
C1008 C1007 1.399 . S
C1008 C1009 1.376 . S
C1009 H996 0.930 . S
C1009 C1008 1.376 . S
C1009 C1010 1.388 . S
C1010 H997 0.930 . S
C1010 C1009 1.388 . S
C1010 C1011 1.390 . S
C1011 C1010 1.390 . S
C1011 C1012 1.394 . S
C1011 C1017 1.465 . S
C1012 C1007 1.399 . S
C1012 C1011 1.394 . S
C1012 C1013 1.516 . S
C1013 C1012 1.516 . S
C1013 C1014 1.502 . S
C1013 C1015 1.561 . S
C1013 C1016 1.526 . S
C1014 H998 0.959 . S
C1014 H999 0.959 . S
C1014 H1000 0.961 . S
C1014 C1013 1.502 . S
C1015 H1001 0.960 . S
C1015 H1002 0.961 . S
C1015 H1003 0.959 . S
C1015 C1013 1.561 . S
C1016 C1013 1.526 . S
C1016 C1017 1.396 . S
C1016 C1021 1.390 . S
C1017 C1011 1.465 . S
C1017 C1016 1.396 . S
C1017 C1018 1.399 . S
C1018 H1004 0.929 . S
C1018 C1017 1.399 . S
C1018 C1019 1.385 . S
C1019 H1005 0.931 . S
C1019 C1018 1.385 . S
C1019 C1020 1.389 . S
C1020 C1019 1.389 . S
C1020 C1021 1.387 . S
C1021 H1006 0.930 . S
C1021 C1016 1.390 . S
C1021 C1020 1.387 . S
H1022 C1034 0.930 . S
H1023 C1036 0.930 . S
H1024 C1037 0.930 1_565 S
H1025 C1041 0.959 . S
H1026 C1041 0.959 . S
H1027 C1041 0.961 . S
H1028 C1042 0.960 . S
H1029 C1042 0.961 . S
H1030 C1042 0.959 . S
H1031 C1045 0.929 . S
H1032 C1046 0.931 . S
H1033 C1048 0.930 . S
C1034 H1022 0.930 . S
C1034 C1035 1.399 . S
C1034 C1039 1.399 . S
C1035 C1034 1.399 . S
C1035 C1036 1.376 . S
C1036 H1023 0.930 . S
C1036 C1035 1.376 . S
C1036 C1037 1.388 . S
C1037 H1024 0.930 1_545 S
C1037 C1036 1.388 . S
C1037 C1038 1.390 . S
C1038 C1037 1.390 . S
C1038 C1039 1.394 . S
C1038 C1044 1.465 1_545 S
C1039 C1034 1.399 . S
C1039 C1038 1.394 . S
C1039 C1040 1.516 . S
C1040 C1039 1.516 . S
C1040 C1041 1.502 . S
C1040 C1042 1.561 . S
C1040 C1043 1.526 1_545 S
C1041 H1025 0.959 . S
C1041 H1026 0.959 . S
C1041 H1027 0.961 . S
C1041 C1040 1.502 . S
C1042 H1028 0.960 . S
C1042 H1029 0.961 . S
C1042 H1030 0.959 . S
C1042 C1040 1.561 . S
C1043 C1040 1.526 1_565 S
C1043 C1044 1.396 . S
C1043 C1048 1.390 . S
C1044 C1038 1.465 1_565 S
C1044 C1043 1.396 . S
C1044 C1045 1.399 . S
C1045 H1031 0.929 . S
C1045 C1044 1.399 . S
C1045 C1046 1.385 . S
C1046 H1032 0.931 . S
C1046 C1045 1.385 . S
C1046 C1047 1.389 . S
C1047 C1046 1.389 . S
C1047 C1048 1.387 . S
C1048 H1033 0.930 . S
C1048 C1043 1.390 . S
C1048 C1047 1.387 . S
H1049 C1061 0.930 . S
H1050 C1063 0.930 . S
H1051 C1064 0.930 . S
H1052 C1068 0.959 . S
H1053 C1068 0.959 . S
H1054 C1068 0.961 . S
H1055 C1069 0.960 . S
H1056 C1069 0.961 . S
H1057 C1069 0.959 . S
H1058 C1072 0.929 . S
H1059 C1073 0.931 . S
H1060 C1075 0.930 . S
C1061 H1049 0.930 . S
C1061 C1062 1.399 . S
C1061 C1066 1.399 . S
C1062 C1061 1.399 . S
C1062 C1063 1.376 . S
C1063 H1050 0.930 . S
C1063 C1062 1.376 . S
C1063 C1064 1.388 . S
C1064 H1051 0.930 . S
C1064 C1063 1.388 . S
C1064 C1065 1.390 . S
C1065 C1064 1.390 . S
C1065 C1066 1.394 . S
C1065 C1071 1.465 . S
C1066 C1061 1.399 . S
C1066 C1065 1.394 . S
C1066 C1067 1.516 . S
C1067 C1066 1.516 . S
C1067 C1068 1.502 . S
C1067 C1069 1.561 . S
C1067 C1070 1.526 . S
C1068 H1052 0.959 . S
C1068 H1053 0.959 . S
C1068 H1054 0.961 . S
C1068 C1067 1.502 . S
C1069 H1055 0.960 . S
C1069 H1056 0.961 . S
C1069 H1057 0.959 . S
C1069 C1067 1.561 . S
C1070 C1067 1.526 . S
C1070 C1071 1.396 . S
C1070 C1075 1.390 . S
C1071 C1065 1.465 . S
C1071 C1070 1.396 . S
C1071 C1072 1.399 . S
C1072 H1058 0.929 . S
C1072 C1071 1.399 . S
C1072 C1073 1.385 . S
C1073 H1059 0.931 . S
C1073 C1072 1.385 . S
C1073 C1074 1.389 . S
C1074 C1073 1.389 . S
C1074 C1075 1.387 . S
C1075 H1060 0.930 . S
C1075 C1070 1.390 . S
C1075 C1074 1.387 . S
H1076 C1088 0.930 . S
H1077 C1090 0.930 . S
H1078 C1091 0.930 . S
H1079 C1095 0.959 . S
H1080 C1095 0.959 . S
H1081 C1095 0.961 . S
H1082 C1096 0.960 . S
H1083 C1096 0.961 . S
H1084 C1096 0.959 . S
H1085 C1099 0.929 . S
H1086 C1100 0.931 . S
H1087 C1102 0.930 . S
C1088 H1076 0.930 . S
C1088 C1089 1.399 . S
C1088 C1093 1.399 . S
C1089 C1088 1.399 . S
C1089 C1090 1.376 . S
C1090 H1077 0.930 . S
C1090 C1089 1.376 . S
C1090 C1091 1.388 . S
C1091 H1078 0.930 . S
C1091 C1090 1.388 . S
C1091 C1092 1.390 . S
C1092 C1091 1.390 . S
C1092 C1093 1.394 . S
C1092 C1098 1.465 . S
C1093 C1088 1.399 . S
C1093 C1092 1.394 . S
C1093 C1094 1.516 . S
C1094 C1093 1.516 . S
C1094 C1095 1.502 . S
C1094 C1096 1.561 . S
C1094 C1097 1.526 . S
C1095 H1079 0.959 . S
C1095 H1080 0.959 . S
C1095 H1081 0.961 . S
C1095 C1094 1.502 . S
C1096 H1082 0.960 . S
C1096 H1083 0.961 . S
C1096 H1084 0.959 . S
C1096 C1094 1.561 . S
C1097 C1094 1.526 . S
C1097 C1098 1.396 . S
C1097 C1102 1.390 . S
C1098 C1092 1.465 . S
C1098 C1097 1.396 . S
C1098 C1099 1.399 . S
C1099 H1085 0.929 . S
C1099 C1098 1.399 . S
C1099 C1100 1.385 . S
C1100 H1086 0.931 . S
C1100 C1099 1.385 . S
C1100 C1101 1.389 . S
C1101 C1100 1.389 . S
C1101 C1102 1.387 . S
C1102 H1087 0.930 . S
C1102 C1097 1.390 . S
C1102 C1101 1.387 . S
H1103 C1115 0.930 . S
H1104 C1117 0.930 . S
H1105 C1118 0.930 . S
H1106 C1122 0.959 . S
H1107 C1122 0.959 . S
H1108 C1122 0.961 . S
H1109 C1123 0.960 . S
H1110 C1123 0.961 . S
H1111 C1123 0.959 . S
H1112 C1126 0.929 . S
H1113 C1127 0.931 . S
H1114 C1129 0.930 . S
C1115 H1103 0.930 . S
C1115 C1116 1.399 . S
C1115 C1120 1.399 . S
C1116 C1115 1.399 . S
C1116 C1117 1.376 . S
C1117 H1104 0.930 . S
C1117 C1116 1.376 . S
C1117 C1118 1.388 . S
C1118 H1105 0.930 . S
C1118 C1117 1.388 . S
C1118 C1119 1.390 . S
C1119 C1118 1.390 . S
C1119 C1120 1.394 . S
C1119 C1125 1.465 . S
C1120 C1115 1.399 . S
C1120 C1119 1.394 . S
C1120 C1121 1.516 . S
C1121 C1120 1.516 . S
C1121 C1122 1.502 . S
C1121 C1123 1.561 . S
C1121 C1124 1.526 . S
C1122 H1106 0.959 . S
C1122 H1107 0.959 . S
C1122 H1108 0.961 . S
C1122 C1121 1.502 . S
C1123 H1109 0.960 . S
C1123 H1110 0.961 . S
C1123 H1111 0.959 . S
C1123 C1121 1.561 . S
C1124 C1121 1.526 . S
C1124 C1125 1.396 . S
C1124 C1129 1.390 . S
C1125 C1119 1.465 . S
C1125 C1124 1.396 . S
C1125 C1126 1.399 . S
C1126 H1112 0.929 . S
C1126 C1125 1.399 . S
C1126 C1127 1.385 . S
C1127 H1113 0.931 . S
C1127 C1126 1.385 . S
C1127 C1128 1.389 . S
C1128 C1127 1.389 . S
C1128 C1129 1.387 . S
C1129 H1114 0.930 . S
C1129 C1124 1.390 . S
C1129 C1128 1.387 . S
H1130 C1142 0.930 . S
H1131 C1144 0.930 . S
H1132 C1145 0.930 . S
H1133 C1149 0.959 . S
H1134 C1149 0.959 . S
H1135 C1149 0.961 . S
H1136 C1150 0.960 . S
H1137 C1150 0.961 . S
H1138 C1150 0.959 . S
H1139 C1153 0.929 . S
H1140 C1154 0.931 . S
H1141 C1156 0.930 . S
C1142 H1130 0.930 . S
C1142 C1143 1.399 . S
C1142 C1147 1.399 . S
C1143 C1142 1.399 . S
C1143 C1144 1.376 . S
C1144 H1131 0.930 . S
C1144 C1143 1.376 . S
C1144 C1145 1.388 . S
C1145 H1132 0.930 . S
C1145 C1144 1.388 . S
C1145 C1146 1.390 . S
C1146 C1145 1.390 . S
C1146 C1147 1.394 . S
C1146 C1152 1.465 . S
C1147 C1142 1.399 . S
C1147 C1146 1.394 . S
C1147 C1148 1.516 . S
C1148 C1147 1.516 . S
C1148 C1149 1.502 . S
C1148 C1150 1.561 . S
C1148 C1151 1.526 . S
C1149 H1133 0.959 . S
C1149 H1134 0.959 . S
C1149 H1135 0.961 . S
C1149 C1148 1.502 . S
C1150 H1136 0.960 . S
C1150 H1137 0.961 . S
C1150 H1138 0.959 . S
C1150 C1148 1.561 . S
C1151 C1148 1.526 . S
C1151 C1152 1.396 . S
C1151 C1156 1.390 . S
C1152 C1146 1.465 . S
C1152 C1151 1.396 . S
C1152 C1153 1.399 . S
C1153 H1139 0.929 . S
C1153 C1152 1.399 . S
C1153 C1154 1.385 . S
C1154 H1140 0.931 . S
C1154 C1153 1.385 . S
C1154 C1155 1.389 . S
C1155 C1154 1.389 . S
C1155 C1156 1.387 . S
C1156 H1141 0.930 . S
C1156 C1151 1.390 . S
C1156 C1155 1.387 . S
H1157 C1169 0.930 . S
H1158 C1171 0.930 . S
H1159 C1172 0.930 . S
H1160 C1176 0.959 . S
H1161 C1176 0.959 . S
H1162 C1176 0.961 . S
H1163 C1177 0.960 . S
H1164 C1177 0.960 . S
H1165 C1177 0.961 1_655 S
H1166 C1180 0.929 . S
H1167 C1181 0.931 . S
H1168 C1183 0.930 . S
C1169 H1157 0.930 . S
C1169 C1170 1.399 1_455 S
C1169 C1174 1.399 . S
C1170 C1169 1.399 1_655 S
C1170 C1171 1.376 . S
C1171 H1158 0.930 . S
C1171 C1170 1.376 . S
C1171 C1172 1.388 . S
C1172 H1159 0.930 . S
C1172 C1171 1.388 . S
C1172 C1173 1.390 . S
C1173 C1172 1.390 . S
C1173 C1174 1.394 1_655 S
C1173 C1179 1.456 1_556 S
C1174 C1169 1.399 . S
C1174 C1173 1.394 1_455 S
C1174 C1175 1.516 1_556 S
C1175 C1174 1.516 1_554 S
C1175 C1176 1.502 . S
C1175 C1177 1.560 . S
C1175 C1178 1.526 . S
C1176 H1160 0.959 . S
C1176 H1161 0.959 . S
C1176 H1162 0.961 . S
C1176 C1175 1.502 . S
C1177 H1163 0.960 . S
C1177 H1164 0.960 . S
C1177 H1165 0.961 1_455 S
C1177 C1175 1.560 . S
C1178 C1175 1.526 . S
C1178 C1179 1.409 1_455 S
C1178 C1183 1.390 . S
C1179 C1173 1.456 1_554 S
C1179 C1178 1.409 1_655 S
C1179 C1180 1.397 1_554 S
C1180 H1166 0.929 . S
C1180 C1179 1.397 1_556 S
C1180 C1181 1.385 1_556 S
C1181 H1167 0.931 . S
C1181 C1180 1.385 1_554 S
C1181 C1182 1.389 . S
C1182 C1181 1.389 . S
C1182 C1183 1.387 1_655 S
C1183 H1168 0.930 . S
C1183 C1178 1.390 . S
C1183 C1182 1.387 1_455 S
H1184 C1196 0.930 . S
H1185 C1198 0.930 . S
H1186 C1199 0.930 . S
H1187 C1203 0.959 . S
H1188 C1203 0.959 . S
H1189 C1203 0.961 . S
H1190 C1204 0.960 . S
H1191 C1204 0.961 . S
H1192 C1204 0.959 . S
H1193 C1207 0.929 . S
H1194 C1208 0.931 . S
H1195 C1210 0.930 . S
C1196 H1184 0.930 . S
C1196 C1197 1.399 . S
C1196 C1201 1.399 . S
C1197 C1196 1.399 . S
C1197 C1198 1.376 . S
C1198 H1185 0.930 . S
C1198 C1197 1.376 . S
C1198 C1199 1.388 . S
C1199 H1186 0.930 . S
C1199 C1198 1.388 . S
C1199 C1200 1.390 . S
C1200 C1199 1.390 . S
C1200 C1201 1.394 . S
C1200 C1206 1.465 . S
C1201 C1196 1.399 . S
C1201 C1200 1.394 . S
C1201 C1202 1.516 . S
C1202 C1201 1.516 . S
C1202 C1203 1.502 . S
C1202 C1204 1.561 . S
C1202 C1205 1.526 . S
C1203 H1187 0.959 . S
C1203 H1188 0.959 . S
C1203 H1189 0.961 . S
C1203 C1202 1.502 . S
C1204 H1190 0.960 . S
C1204 H1191 0.961 . S
C1204 H1192 0.959 . S
C1204 C1202 1.561 . S
C1205 C1202 1.526 . S
C1205 C1206 1.396 . S
C1205 C1210 1.390 . S
C1206 C1200 1.465 . S
C1206 C1205 1.396 . S
C1206 C1207 1.399 . S
C1207 H1193 0.929 . S
C1207 C1206 1.399 . S
C1207 C1208 1.385 . S
C1208 H1194 0.931 . S
C1208 C1207 1.385 . S
C1208 C1209 1.389 . S
C1209 C1208 1.389 . S
C1209 C1210 1.387 . S
C1210 H1195 0.930 . S
C1210 C1205 1.390 . S
C1210 C1209 1.387 . S
H1211 C1223 0.930 . S
H1212 C1225 0.930 . S
H1213 C1226 0.930 . S
H1214 C1230 0.959 . S
H1215 C1230 0.959 . S
H1216 C1230 0.961 . S
H1217 C1231 0.960 . S
H1218 C1231 0.961 . S
H1219 C1231 0.959 . S
H1220 C1234 0.929 . S
H1221 C1235 0.931 . S
H1222 C1237 0.930 . S
C1223 H1211 0.930 . S
C1223 C1224 1.399 . S
C1223 C1228 1.399 . S
C1224 C1223 1.399 . S
C1224 C1225 1.376 . S
C1225 H1212 0.930 . S
C1225 C1224 1.376 . S
C1225 C1226 1.388 . S
C1226 H1213 0.930 . S
C1226 C1225 1.388 . S
C1226 C1227 1.390 . S
C1227 C1226 1.390 . S
C1227 C1228 1.394 . S
C1227 C1233 1.465 . S
C1228 C1223 1.399 . S
C1228 C1227 1.394 . S
C1228 C1229 1.516 . S
C1229 C1228 1.516 . S
C1229 C1230 1.502 . S
C1229 C1231 1.561 . S
C1229 C1232 1.526 . S
C1230 H1214 0.959 . S
C1230 H1215 0.959 . S
C1230 H1216 0.961 . S
C1230 C1229 1.502 . S
C1231 H1217 0.960 . S
C1231 H1218 0.961 . S
C1231 H1219 0.959 . S
C1231 C1229 1.561 . S
C1232 C1229 1.526 . S
C1232 C1233 1.396 . S
C1232 C1237 1.390 . S
C1233 C1227 1.465 . S
C1233 C1232 1.396 . S
C1233 C1234 1.399 . S
C1234 H1220 0.929 . S
C1234 C1233 1.399 . S
C1234 C1235 1.385 . S
C1235 H1221 0.931 . S
C1235 C1234 1.385 . S
C1235 C1236 1.389 . S
C1236 C1235 1.389 . S
C1236 C1237 1.387 . S
C1237 H1222 0.930 . S
C1237 C1232 1.390 . S
C1237 C1236 1.387 . S
H1238 C1250 0.930 . S
H1239 C1252 0.930 . S
H1240 C1253 0.930 . S
H1241 C1257 0.959 . S
H1242 C1257 0.959 . S
H1243 C1257 0.961 . S
H1244 C1258 0.960 . S
H1245 C1258 0.961 . S
H1246 C1258 0.959 . S
H1247 C1261 0.929 . S
H1248 C1262 0.931 . S
H1249 C1264 0.930 . S
C1250 H1238 0.930 . S
C1250 C1251 1.399 . S
C1250 C1255 1.399 . S
C1251 C1250 1.399 . S
C1251 C1252 1.376 . S
C1252 H1239 0.930 . S
C1252 C1251 1.376 . S
C1252 C1253 1.388 . S
C1253 H1240 0.930 . S
C1253 C1252 1.388 . S
C1253 C1254 1.390 . S
C1254 C1253 1.390 . S
C1254 C1255 1.394 . S
C1254 C1260 1.465 . S
C1255 C1250 1.399 . S
C1255 C1254 1.394 . S
C1255 C1256 1.516 . S
C1256 C1255 1.516 . S
C1256 C1257 1.502 . S
C1256 C1258 1.561 . S
C1256 C1259 1.526 . S
C1257 H1241 0.959 . S
C1257 H1242 0.959 . S
C1257 H1243 0.961 . S
C1257 C1256 1.502 . S
C1258 H1244 0.960 . S
C1258 H1245 0.961 . S
C1258 H1246 0.959 . S
C1258 C1256 1.561 . S
C1259 C1256 1.526 . S
C1259 C1260 1.396 . S
C1259 C1264 1.390 . S
C1260 C1254 1.465 . S
C1260 C1259 1.396 . S
C1260 C1261 1.399 . S
C1261 H1247 0.929 . S
C1261 C1260 1.399 . S
C1261 C1262 1.385 . S
C1262 H1248 0.931 . S
C1262 C1261 1.385 . S
C1262 C1263 1.389 . S
C1263 C1262 1.389 . S
C1263 C1264 1.387 . S
C1264 H1249 0.930 . S
C1264 C1259 1.390 . S
C1264 C1263 1.387 . S
H1265 C1277 0.930 . S
H1266 C1279 0.930 . S
H1267 C1280 0.930 . S
H1268 C1284 0.959 . S
H1269 C1284 0.959 . S
H1270 C1284 0.961 . S
H1271 C1285 0.960 . S
H1272 C1285 0.961 . S
H1273 C1285 0.959 . S
H1274 C1288 0.929 . S
H1275 C1289 0.931 . S
H1276 C1291 0.930 . S
C1277 H1265 0.930 . S
C1277 C1278 1.399 . S
C1277 C1282 1.399 . S
C1278 C1277 1.399 . S
C1278 C1279 1.376 . S
C1279 H1266 0.930 . S
C1279 C1278 1.376 . S
C1279 C1280 1.388 . S
C1280 H1267 0.930 . S
C1280 C1279 1.388 . S
C1280 C1281 1.390 . S
C1281 C1280 1.390 . S
C1281 C1282 1.394 . S
C1281 C1287 1.465 . S
C1282 C1277 1.399 . S
C1282 C1281 1.394 . S
C1282 C1283 1.516 . S
C1283 C1282 1.516 . S
C1283 C1284 1.502 . S
C1283 C1285 1.561 . S
C1283 C1286 1.526 . S
C1284 H1268 0.959 . S
C1284 H1269 0.959 . S
C1284 H1270 0.961 . S
C1284 C1283 1.502 . S
C1285 H1271 0.960 . S
C1285 H1272 0.961 . S
C1285 H1273 0.959 . S
C1285 C1283 1.561 . S
C1286 C1283 1.526 . S
C1286 C1287 1.396 . S
C1286 C1291 1.390 . S
C1287 C1281 1.465 . S
C1287 C1286 1.396 . S
C1287 C1288 1.399 . S
C1288 H1274 0.929 . S
C1288 C1287 1.399 . S
C1288 C1289 1.385 . S
C1289 H1275 0.931 . S
C1289 C1288 1.385 . S
C1289 C1290 1.389 . S
C1290 C1289 1.389 . S
C1290 C1291 1.387 . S
C1291 H1276 0.930 . S
C1291 C1286 1.390 . S
C1291 C1290 1.387 . S
H1292 C1304 0.930 . S
H1293 C1306 0.930 . S
H1294 C1307 0.930 . S
H1295 C1311 0.959 . S
H1296 C1311 0.959 1_455 S
H1297 C1311 0.961 . S
H1298 C1312 0.960 . S
H1299 C1312 0.961 . S
H1300 C1312 0.959 . S
H1301 C1315 0.929 . S
H1302 C1316 0.931 . S
H1303 C1318 0.930 1_455 S
C1304 H1292 0.930 . S
C1304 C1305 1.399 . S
C1304 C1309 1.399 . S
C1305 C1304 1.399 . S
C1305 C1306 1.376 . S
C1306 H1293 0.930 . S
C1306 C1305 1.376 . S
C1306 C1307 1.388 . S
C1307 H1294 0.930 . S
C1307 C1306 1.388 . S
C1307 C1308 1.390 . S
C1308 C1307 1.390 . S
C1308 C1309 1.394 . S
C1308 C1314 1.465 . S
C1309 C1304 1.399 . S
C1309 C1308 1.394 . S
C1309 C1310 1.516 . S
C1310 C1309 1.516 . S
C1310 C1311 1.502 . S
C1310 C1312 1.561 1_655 S
C1310 C1313 1.526 . S
C1311 H1295 0.959 . S
C1311 H1296 0.959 1_655 S
C1311 H1297 0.961 . S
C1311 C1310 1.502 . S
C1312 H1298 0.960 . S
C1312 H1299 0.961 . S
C1312 H1300 0.959 . S
C1312 C1310 1.561 1_455 S
C1313 C1310 1.526 . S
C1313 C1314 1.396 . S
C1313 C1318 1.390 . S
C1314 C1308 1.465 . S
C1314 C1313 1.396 . S
C1314 C1315 1.399 . S
C1315 H1301 0.929 . S
C1315 C1314 1.399 . S
C1315 C1316 1.385 . S
C1316 H1302 0.931 . S
C1316 C1315 1.385 . S
C1316 C1317 1.389 . S
C1317 C1316 1.389 . S
C1317 C1318 1.387 . S
C1318 H1303 0.930 1_655 S
C1318 C1313 1.390 . S
C1318 C1317 1.387 . S
H1319 C1331 0.930 . S
H1320 C1333 0.930 . S
H1321 C1334 0.930 . S
H1322 C1338 0.959 . S
H1323 C1338 0.959 . S
H1324 C1338 0.961 . S
H1325 C1339 0.960 . S
H1326 C1339 0.961 . S
H1327 C1339 0.959 . S
H1328 C1342 0.929 . S
H1329 C1343 0.931 . S
H1330 C1345 0.930 1_455 S
C1331 H1319 0.930 . S
C1331 C1332 1.399 . S
C1331 C1336 1.399 . S
C1332 C1331 1.399 . S
C1332 C1333 1.376 . S
C1333 H1320 0.930 . S
C1333 C1332 1.376 . S
C1333 C1334 1.388 . S
C1334 H1321 0.930 . S
C1334 C1333 1.388 . S
C1334 C1335 1.390 . S
C1335 C1334 1.390 . S
C1335 C1336 1.394 . S
C1335 C1341 1.465 . S
C1336 C1331 1.399 . S
C1336 C1335 1.394 . S
C1336 C1337 1.516 . S
C1337 C1336 1.516 . S
C1337 C1338 1.502 . S
C1337 C1339 1.561 1_655 S
C1337 C1340 1.526 . S
C1338 H1322 0.959 . S
C1338 H1323 0.959 . S
C1338 H1324 0.961 . S
C1338 C1337 1.502 . S
C1339 H1325 0.960 . S
C1339 H1326 0.961 . S
C1339 H1327 0.959 . S
C1339 C1337 1.561 1_455 S
C1340 C1337 1.526 . S
C1340 C1341 1.396 . S
C1340 C1345 1.390 . S
C1341 C1335 1.465 . S
C1341 C1340 1.396 . S
C1341 C1342 1.399 . S
C1342 H1328 0.929 . S
C1342 C1341 1.399 . S
C1342 C1343 1.385 . S
C1343 H1329 0.931 . S
C1343 C1342 1.385 . S
C1343 C1344 1.389 . S
C1344 C1343 1.389 . S
C1344 C1345 1.387 . S
C1345 H1330 0.930 1_655 S
C1345 C1340 1.390 . S
C1345 C1344 1.387 . S
H1346 C1358 0.930 . S
H1347 C1360 0.930 1_556 S
H1348 C1361 0.930 . S
H1349 C1365 0.959 . S
H1350 C1365 0.959 . S
H1351 C1365 0.961 . S
H1352 C1366 0.960 . S
H1353 C1366 0.961 . S
H1354 C1366 0.959 . S
H1355 C1369 0.929 . S
H1356 C1370 0.931 . S
H1357 C1372 0.930 . S
C1358 H1346 0.930 . S
C1358 C1359 1.399 . S
C1358 C1363 1.399 . S
C1359 C1358 1.399 . S
C1359 C1360 1.376 . S
C1360 H1347 0.930 1_554 S
C1360 C1359 1.376 . S
C1360 C1361 1.388 . S
C1361 H1348 0.930 . S
C1361 C1360 1.388 . S
C1361 C1362 1.390 . S
C1362 C1361 1.390 . S
C1362 C1363 1.394 . S
C1362 C1368 1.465 . S
C1363 C1358 1.399 . S
C1363 C1362 1.394 . S
C1363 C1364 1.516 . S
C1364 C1363 1.516 . S
C1364 C1365 1.502 . S
C1364 C1366 1.561 . S
C1364 C1367 1.526 . S
C1365 H1349 0.959 . S
C1365 H1350 0.959 . S
C1365 H1351 0.961 . S
C1365 C1364 1.502 . S
C1366 H1352 0.960 . S
C1366 H1353 0.961 . S
C1366 H1354 0.959 . S
C1366 C1364 1.561 . S
C1367 C1364 1.526 . S
C1367 C1368 1.396 . S
C1367 C1372 1.390 . S
C1368 C1362 1.465 . S
C1368 C1367 1.396 . S
C1368 C1369 1.399 . S
C1369 H1355 0.929 . S
C1369 C1368 1.399 . S
C1369 C1370 1.385 . S
C1370 H1356 0.931 . S
C1370 C1369 1.385 . S
C1370 C1371 1.389 . S
C1371 C1370 1.389 . S
C1371 C1372 1.387 . S
C1372 H1357 0.930 . S
C1372 C1367 1.390 . S
C1372 C1371 1.387 . S
H1373 C1385 0.930 . S
H1374 C1387 0.930 . S
H1375 C1388 0.930 . S
H1376 C1392 0.959 . S
H1377 C1392 0.959 . S
H1378 C1392 0.961 . S
H1379 C1393 0.960 . S
H1380 C1393 0.961 . S
H1381 C1393 0.959 . S
H1382 C1396 0.929 . S
H1383 C1397 0.931 . S
H1384 C1399 0.930 . S
C1385 H1373 0.930 . S
C1385 C1386 1.399 . S
C1385 C1390 1.399 . S
C1386 C1385 1.399 . S
C1386 C1387 1.376 . S
C1387 H1374 0.930 . S
C1387 C1386 1.376 . S
C1387 C1388 1.388 . S
C1388 H1375 0.930 . S
C1388 C1387 1.388 . S
C1388 C1389 1.390 . S
C1389 C1388 1.390 . S
C1389 C1390 1.394 . S
C1389 C1395 1.465 . S
C1390 C1385 1.399 . S
C1390 C1389 1.394 . S
C1390 C1391 1.516 . S
C1391 C1390 1.516 . S
C1391 C1392 1.502 . S
C1391 C1393 1.561 . S
C1391 C1394 1.526 . S
C1392 H1376 0.959 . S
C1392 H1377 0.959 . S
C1392 H1378 0.961 . S
C1392 C1391 1.502 . S
C1393 H1379 0.960 . S
C1393 H1380 0.961 . S
C1393 H1381 0.959 . S
C1393 C1391 1.561 . S
C1394 C1391 1.526 . S
C1394 C1395 1.396 . S
C1394 C1399 1.390 . S
C1395 C1389 1.465 . S
C1395 C1394 1.396 . S
C1395 C1396 1.399 . S
C1396 H1382 0.929 . S
C1396 C1395 1.399 . S
C1396 C1397 1.385 . S
C1397 H1383 0.931 . S
C1397 C1396 1.385 . S
C1397 C1398 1.389 . S
C1398 C1397 1.389 . S
C1398 C1399 1.387 . S
C1399 H1384 0.930 . S
C1399 C1394 1.390 . S
C1399 C1398 1.387 . S
H1400 C1412 0.930 . S
H1401 C1414 0.930 . S
H1402 C1415 0.930 . S
H1403 C1419 0.959 . S
H1404 C1419 0.959 . S
H1405 C1419 0.961 . S
H1406 C1420 0.960 . S
H1407 C1420 0.961 . S
H1408 C1420 0.959 . S
H1409 C1423 0.929 . S
H1410 C1424 0.931 1_554 S
H1411 C1426 0.930 . S
C1412 H1400 0.930 . S
C1412 C1413 1.399 . S
C1412 C1417 1.399 . S
C1413 C1412 1.399 . S
C1413 C1414 1.376 . S
C1414 H1401 0.930 . S
C1414 C1413 1.376 . S
C1414 C1415 1.388 . S
C1415 H1402 0.930 . S
C1415 C1414 1.388 . S
C1415 C1416 1.390 . S
C1416 C1415 1.390 . S
C1416 C1417 1.394 . S
C1416 C1422 1.465 . S
C1417 C1412 1.399 . S
C1417 C1416 1.394 . S
C1417 C1418 1.516 . S
C1418 C1417 1.516 . S
C1418 C1419 1.502 . S
C1418 C1420 1.561 . S
C1418 C1421 1.526 . S
C1419 H1403 0.959 . S
C1419 H1404 0.959 . S
C1419 H1405 0.961 . S
C1419 C1418 1.502 . S
C1420 H1406 0.960 . S
C1420 H1407 0.961 . S
C1420 H1408 0.959 . S
C1420 C1418 1.561 . S
C1421 C1418 1.526 . S
C1421 C1422 1.396 . S
C1421 C1426 1.390 . S
C1422 C1416 1.465 . S
C1422 C1421 1.396 . S
C1422 C1423 1.399 . S
C1423 H1409 0.929 . S
C1423 C1422 1.399 . S
C1423 C1424 1.385 . S
C1424 H1410 0.931 1_556 S
C1424 C1423 1.385 . S
C1424 C1425 1.389 . S
C1425 C1424 1.389 . S
C1425 C1426 1.387 . S
C1426 H1411 0.930 . S
C1426 C1421 1.390 . S
C1426 C1425 1.387 . S
H1427 C1439 0.930 . S
H1428 C1441 0.930 . S
H1429 C1442 0.930 . S
H1430 C1446 0.959 . S
H1431 C1446 0.959 . S
H1432 C1446 0.961 . S
H1433 C1447 0.960 . S
H1434 C1447 0.961 . S
H1435 C1447 0.959 . S
H1436 C1450 0.929 . S
H1437 C1451 0.931 . S
H1438 C1453 0.930 . S
C1439 H1427 0.930 . S
C1439 C1440 1.399 . S
C1439 C1444 1.399 . S
C1440 C1439 1.399 . S
C1440 C1441 1.376 . S
C1441 H1428 0.930 . S
C1441 C1440 1.376 . S
C1441 C1442 1.388 . S
C1442 H1429 0.930 . S
C1442 C1441 1.388 . S
C1442 C1443 1.390 . S
C1443 C1442 1.390 . S
C1443 C1444 1.394 . S
C1443 C1449 1.465 . S
C1444 C1439 1.399 . S
C1444 C1443 1.394 . S
C1444 C1445 1.516 . S
C1445 C1444 1.516 . S
C1445 C1446 1.502 . S
C1445 C1447 1.561 . S
C1445 C1448 1.526 . S
C1446 H1430 0.959 . S
C1446 H1431 0.959 . S
C1446 H1432 0.961 . S
C1446 C1445 1.502 . S
C1447 H1433 0.960 . S
C1447 H1434 0.961 . S
C1447 H1435 0.959 . S
C1447 C1445 1.561 . S
C1448 C1445 1.526 . S
C1448 C1449 1.396 . S
C1448 C1453 1.390 . S
C1449 C1443 1.465 . S
C1449 C1448 1.396 . S
C1449 C1450 1.399 . S
C1450 H1436 0.929 . S
C1450 C1449 1.399 . S
C1450 C1451 1.385 . S
C1451 H1437 0.931 . S
C1451 C1450 1.385 . S
C1451 C1452 1.389 . S
C1452 C1451 1.389 . S
C1452 C1453 1.387 . S
C1453 H1438 0.930 . S
C1453 C1448 1.390 . S
C1453 C1452 1.387 . S
H1454 C1466 0.930 . S
H1455 C1468 0.930 . S
H1456 C1469 0.930 . S
H1457 C1473 0.959 . S
H1458 C1473 0.959 . S
H1459 C1473 0.961 . S
H1460 C1474 0.960 . S
H1461 C1474 0.961 . S
H1462 C1474 0.959 . S
H1463 C1477 0.929 . S
H1464 C1478 0.931 . S
H1465 C1480 0.930 . S
C1466 H1454 0.930 . S
C1466 C1467 1.399 . S
C1466 C1471 1.399 . S
C1467 C1466 1.399 . S
C1467 C1468 1.376 . S
C1468 H1455 0.930 . S
C1468 C1467 1.376 . S
C1468 C1469 1.388 . S
C1469 H1456 0.930 . S
C1469 C1468 1.388 . S
C1469 C1470 1.390 . S
C1470 C1469 1.390 . S
C1470 C1471 1.394 . S
C1470 C1476 1.465 . S
C1471 C1466 1.399 . S
C1471 C1470 1.394 . S
C1471 C1472 1.516 . S
C1472 C1471 1.516 . S
C1472 C1473 1.502 . S
C1472 C1474 1.561 . S
C1472 C1475 1.526 . S
C1473 H1457 0.959 . S
C1473 H1458 0.959 . S
C1473 H1459 0.961 . S
C1473 C1472 1.502 . S
C1474 H1460 0.960 . S
C1474 H1461 0.961 . S
C1474 H1462 0.959 . S
C1474 C1472 1.561 . S
C1475 C1472 1.526 . S
C1475 C1476 1.396 . S
C1475 C1480 1.390 . S
C1476 C1470 1.465 . S
C1476 C1475 1.396 . S
C1476 C1477 1.399 . S
C1477 H1463 0.929 . S
C1477 C1476 1.399 . S
C1477 C1478 1.385 . S
C1478 H1464 0.931 . S
C1478 C1477 1.385 . S
C1478 C1479 1.389 . S
C1479 C1478 1.389 . S
C1479 C1480 1.387 . S
C1480 H1465 0.930 . S
C1480 C1475 1.390 . S
C1480 C1479 1.387 . S
H1481 C1493 0.930 . S
H1482 C1495 0.930 . S
H1483 C1496 0.930 . S
H1484 C1500 0.959 . S
H1485 C1500 0.959 . S
H1486 C1500 0.961 1_455 S
H1487 C1501 0.960 . S
H1488 C1501 0.961 . S
H1489 C1501 0.959 . S
H1490 C1504 0.929 . S
H1491 C1505 0.931 . S
H1492 C1507 0.930 . S
C1493 H1481 0.930 . S
C1493 C1494 1.399 . S
C1493 C1498 1.399 . S
C1494 C1493 1.399 . S
C1494 C1495 1.376 . S
C1495 H1482 0.930 . S
C1495 C1494 1.376 . S
C1495 C1496 1.388 . S
C1496 H1483 0.930 . S
C1496 C1495 1.388 . S
C1496 C1497 1.390 . S
C1497 C1496 1.390 . S
C1497 C1498 1.394 . S
C1497 C1503 1.465 . S
C1498 C1493 1.399 . S
C1498 C1497 1.394 . S
C1498 C1499 1.516 . S
C1499 C1498 1.516 . S
C1499 C1500 1.502 . S
C1499 C1501 1.561 . S
C1499 C1502 1.526 . S
C1500 H1484 0.959 . S
C1500 H1485 0.959 . S
C1500 H1486 0.961 1_655 S
C1500 C1499 1.502 . S
C1501 H1487 0.960 . S
C1501 H1488 0.961 . S
C1501 H1489 0.959 . S
C1501 C1499 1.561 . S
C1502 C1499 1.526 . S
C1502 C1503 1.396 . S
C1502 C1507 1.390 . S
C1503 C1497 1.465 . S
C1503 C1502 1.396 . S
C1503 C1504 1.399 . S
C1504 H1490 0.929 . S
C1504 C1503 1.399 . S
C1504 C1505 1.385 . S
C1505 H1491 0.931 . S
C1505 C1504 1.385 . S
C1505 C1506 1.389 . S
C1506 C1505 1.389 . S
C1506 C1507 1.387 . S
C1507 H1492 0.930 . S
C1507 C1502 1.390 . S
C1507 C1506 1.387 . S
H1508 C1520 0.930 . S
H1509 C1522 0.930 . S
H1510 C1523 0.930 . S
H1511 C1527 0.959 . S
H1512 C1527 0.959 . S
H1513 C1527 0.961 . S
H1514 C1528 0.960 . S
H1515 C1528 0.961 . S
H1516 C1528 0.959 . S
H1517 C1531 0.929 . S
H1518 C1532 0.931 1_556 S
H1519 C1534 0.930 . S
C1520 H1508 0.930 . S
C1520 C1521 1.399 . S
C1520 C1525 1.399 . S
C1521 C1520 1.399 . S
C1521 C1522 1.376 . S
C1522 H1509 0.930 . S
C1522 C1521 1.376 . S
C1522 C1523 1.388 . S
C1523 H1510 0.930 . S
C1523 C1522 1.388 . S
C1523 C1524 1.390 . S
C1524 C1523 1.390 . S
C1524 C1525 1.394 . S
C1524 C1530 1.465 . S
C1525 C1520 1.399 . S
C1525 C1524 1.394 . S
C1525 C1526 1.516 . S
C1526 C1525 1.516 . S
C1526 C1527 1.502 . S
C1526 C1528 1.561 . S
C1526 C1529 1.526 . S
C1527 H1511 0.959 . S
C1527 H1512 0.959 . S
C1527 H1513 0.961 . S
C1527 C1526 1.502 . S
C1528 H1514 0.960 . S
C1528 H1515 0.961 . S
C1528 H1516 0.959 . S
C1528 C1526 1.561 . S
C1529 C1526 1.526 . S
C1529 C1530 1.396 . S
C1529 C1534 1.390 . S
C1530 C1524 1.465 . S
C1530 C1529 1.396 . S
C1530 C1531 1.399 . S
C1531 H1517 0.929 . S
C1531 C1530 1.399 . S
C1531 C1532 1.385 . S
C1532 H1518 0.931 1_554 S
C1532 C1531 1.385 . S
C1532 C1533 1.389 1_554 S
C1533 C1532 1.389 1_556 S
C1533 C1534 1.387 1_556 S
C1534 H1519 0.930 . S
C1534 C1529 1.390 . S
C1534 C1533 1.387 1_554 S
H1535 C1547 0.930 . S
H1536 C1549 0.936 . S
H1537 C1550 0.930 . S
H1538 C1554 0.959 . S
H1539 C1554 0.959 . S
H1540 C1554 0.961 . S
H1541 C1555 0.960 . S
H1542 C1555 0.961 . S
H1543 C1555 0.959 . S
H1544 C1558 0.929 . S
H1545 C1559 0.931 . S
H1546 C1561 0.930 . S
C1547 H1535 0.930 . S
C1547 C1548 1.399 1_556 S
C1547 C1552 1.399 . S
C1548 C1547 1.399 1_554 S
C1548 C1549 1.378 . S
C1549 H1536 0.936 . S
C1549 C1548 1.378 . S
C1549 C1550 1.382 1_554 S
C1550 H1537 0.930 . S
C1550 C1549 1.382 1_556 S
C1550 C1551 1.390 . S
C1551 C1550 1.390 . S
C1551 C1552 1.394 . S
C1551 C1557 1.465 . S
C1552 C1547 1.399 . S
C1552 C1551 1.394 . S
C1552 C1553 1.516 . S
C1553 C1552 1.516 . S
C1553 C1554 1.502 . S
C1553 C1555 1.561 . S
C1553 C1556 1.526 . S
C1554 H1538 0.959 . S
C1554 H1539 0.959 . S
C1554 H1540 0.961 . S
C1554 C1553 1.502 . S
C1555 H1541 0.960 . S
C1555 H1542 0.961 . S
C1555 H1543 0.959 . S
C1555 C1553 1.561 . S
C1556 C1553 1.526 . S
C1556 C1557 1.396 . S
C1556 C1561 1.390 . S
C1557 C1551 1.465 . S
C1557 C1556 1.396 . S
C1557 C1558 1.399 . S
C1558 H1544 0.929 . S
C1558 C1557 1.399 . S
C1558 C1559 1.385 . S
C1559 H1545 0.931 . S
C1559 C1558 1.385 . S
C1559 C1560 1.389 . S
C1560 C1559 1.389 . S
C1560 C1561 1.387 . S
C1561 H1546 0.930 . S
C1561 C1556 1.390 . S
C1561 C1560 1.387 . S
H1562 C1574 0.930 . S
H1563 C1576 0.930 . S
H1564 C1577 0.930 . S
H1565 C1581 0.959 . S
H1566 C1581 0.959 . S
H1567 C1581 0.961 . S
H1568 C1582 0.960 . S
H1569 C1582 0.961 . S
H1570 C1582 0.959 . S
H1571 C1585 0.929 . S
H1572 C1586 0.931 . S
H1573 C1588 0.930 . S
C1574 H1562 0.930 . S
C1574 C1575 1.399 . S
C1574 C1579 1.399 . S
C1575 C1574 1.399 . S
C1575 C1576 1.376 . S
C1576 H1563 0.930 . S
C1576 C1575 1.376 . S
C1576 C1577 1.388 . S
C1577 H1564 0.930 . S
C1577 C1576 1.388 . S
C1577 C1578 1.390 . S
C1578 C1577 1.390 . S
C1578 C1579 1.394 . S
C1578 C1584 1.465 . S
C1579 C1574 1.399 . S
C1579 C1578 1.394 . S
C1579 C1580 1.516 . S
C1580 C1579 1.516 . S
C1580 C1581 1.502 . S
C1580 C1582 1.561 . S
C1580 C1583 1.526 . S
C1581 H1565 0.959 . S
C1581 H1566 0.959 . S
C1581 H1567 0.961 . S
C1581 C1580 1.502 . S
C1582 H1568 0.960 . S
C1582 H1569 0.961 . S
C1582 H1570 0.959 . S
C1582 C1580 1.561 . S
C1583 C1580 1.526 . S
C1583 C1584 1.396 . S
C1583 C1588 1.390 . S
C1584 C1578 1.465 . S
C1584 C1583 1.396 . S
C1584 C1585 1.399 . S
C1585 H1571 0.929 . S
C1585 C1584 1.399 . S
C1585 C1586 1.385 . S
C1586 H1572 0.931 . S
C1586 C1585 1.385 . S
C1586 C1587 1.389 . S
C1587 C1586 1.389 . S
C1587 C1588 1.387 . S
C1588 H1573 0.930 . S
C1588 C1583 1.390 . S
C1588 C1587 1.387 . S
H1589 C1601 0.930 . S
H1590 C1603 0.930 . S
H1591 C1604 0.930 . S
H1592 C1608 0.959 . S
H1593 C1608 0.959 . S
H1594 C1608 0.961 . S
H1595 C1609 0.960 . S
H1596 C1609 0.961 . S
H1597 C1609 0.959 . S
H1598 C1612 0.929 . S
H1599 C1613 0.931 . S
H1600 C1615 0.930 . S
C1601 H1589 0.930 . S
C1601 C1602 1.399 . S
C1601 C1606 1.399 . S
C1602 C1601 1.399 . S
C1602 C1603 1.376 . S
C1603 H1590 0.930 . S
C1603 C1602 1.376 . S
C1603 C1604 1.388 . S
C1604 H1591 0.930 . S
C1604 C1603 1.388 . S
C1604 C1605 1.390 . S
C1605 C1604 1.390 . S
C1605 C1606 1.394 . S
C1605 C1611 1.465 . S
C1606 C1601 1.399 . S
C1606 C1605 1.394 . S
C1606 C1607 1.516 . S
C1607 C1606 1.516 . S
C1607 C1608 1.502 . S
C1607 C1609 1.561 . S
C1607 C1610 1.526 . S
C1608 H1592 0.959 . S
C1608 H1593 0.959 . S
C1608 H1594 0.961 . S
C1608 C1607 1.502 . S
C1609 H1595 0.960 . S
C1609 H1596 0.961 . S
C1609 H1597 0.959 . S
C1609 C1607 1.561 . S
C1610 C1607 1.526 . S
C1610 C1611 1.396 . S
C1610 C1615 1.390 . S
C1611 C1605 1.465 . S
C1611 C1610 1.396 . S
C1611 C1612 1.399 . S
C1612 H1598 0.929 . S
C1612 C1611 1.399 . S
C1612 C1613 1.385 . S
C1613 H1599 0.931 . S
C1613 C1612 1.385 . S
C1613 C1614 1.389 . S
C1614 C1613 1.389 . S
C1614 C1615 1.387 . S
C1615 H1600 0.930 . S
C1615 C1610 1.390 . S
C1615 C1614 1.387 . S
C333 C6 0.884 1_556 S
C345 C146 0.950 . S
C360 C26 0.876 . S
C372 C86 0.960 1_554 S
C387 C108 1.280 . S
C399 C46 1.307 . S
C414 C68 1.202 . S
C426 C126 1.357 . S
C441 C236 1.585 . S
C453 C99 1.586 . S
C468 C176 1.623 . S
C480 C19 1.540 . S
C495 C219 1.888 . S
C507 C139 1.934 . S
C522 C59 1.944 . S
C534 C199 1.867 . S
C549 C186 0.960 . S
C561 C246 0.873 . S
C576 C206 0.961 . S
C588 C286 0.872 . S
C603 C266 1.297 . S
C615 C168 1.290 . S
C630 C228 1.192 . S
C642 C306 1.364 . S
C657 C299 1.587 . S
C669 C76 1.580 . S
C684 C259 1.579 . S
C696 C116 1.596 . S
C711 C39 1.911 . S
C723 C319 1.915 1_554 S
C738 C159 1.897 . S
C750 C279 1.883 1_556 S
C765 C269 0.799 1_655 S
C777 C9 0.987 . S
C792 C221 1.020 . S
C804 C29 0.890 . S
C819 C249 1.021 . S
C831 C49 0.750 . S
C846 C209 0.904 . S
C858 C61 0.977 . S
C873 C89 1.097 . S
C885 C309 0.832 1_655 S
C900 C189 0.801 . S
C912 C101 0.931 . S
C927 C129 0.742 . S
C939 C289 1.044 . S
C954 C149 0.905 . S
C966 C161 0.979 . S
C981 C1 1.420 . S
C993 C81 1.397 . S
C1008 C21 1.428 . S
C1020 C109 1.462 . S
C1035 C121 1.497 . S
C1047 C41 1.477 . S
C1062 C69 1.467 . S
C1074 C141 1.468 . S
C1089 C201 1.475 . S
C1101 C169 1.453 . S
C1116 C229 1.447 . S
C1128 C181 1.443 . S
C1143 C241 1.414 . S
C1155 C281 1.405 . S
C1170 C301 1.492 . S
C1182 C261 1.479 . S
C1197 C8 2.116 . S
C1209 C148 2.103 . S
C1224 C28 2.104 . S
C1236 C88 2.116 . S
C1251 C106 2.072 1_556 S
C1263 C48 2.047 . S
C1278 C128 2.091 . S
C1290 C66 2.032 1_554 S
C1305 C239 1.269 . S
C1317 C96 1.287 . S
C1332 C179 1.257 . S
C1344 C16 1.301 . S
C1359 C216 1.201 1_554 S
C1371 C136 1.270 . S
C1386 C56 1.248 . S
C1398 C196 1.223 1_556 S
C1413 C248 2.140 . S
C1425 C188 2.090 1_556 S
C1440 C288 2.094 . S
C1452 C208 2.137 1_554 S
C1467 C268 2.049 . S
C1479 C166 2.069 . S
C1494 C308 2.041 . S
C1506 C226 2.084 . S
C1521 C296 1.272 . S
C1533 C79 1.283 . S
C1548 C119 1.254 . S
C1560 C256 1.306 . S
C1575 C36 1.283 . S
C1587 C316 1.192 . S
C1602 C276 1.240 . S
C1614 C156 1.232 . S
