# Generated by pormake.
# Topology sgn, (3)-cn, num edge types: 1
# Building blocks:
#     Node 0, Type 0, BuildingBlock: OLANEW_clean_sbu_2, # of connection points: 3
#     Node 1, Type 0, BuildingBlock: OLANEW_clean_sbu_2, # of connection points: 3
#     Node 2, Type 0, BuildingBlock: OLANEW_clean_sbu_2, # of connection points: 3
#     Node 3, Type 0, BuildingBlock: OLANEW_clean_sbu_2, # of connection points: 3
#     Node 4, Type 0, BuildingBlock: OLANEW_clean_sbu_2, # of connection points: 3
#     Node 5, Type 0, BuildingBlock: OLANEW_clean_sbu_2, # of connection points: 3
#     Node 6, Type 0, BuildingBlock: OLANEW_clean_sbu_2, # of connection points: 3
#     Node 7, Type 0, BuildingBlock: OLANEW_clean_sbu_2, # of connection points: 3
#     Node 8, Type 0, BuildingBlock: OLANEW_clean_sbu_2, # of connection points: 3
#     Node 9, Type 0, BuildingBlock: OLANEW_clean_sbu_2, # of connection points: 3
#     Node 10, Type 0, BuildingBlock: OLANEW_clean_sbu_2, # of connection points: 3
#     Node 11, Type 0, BuildingBlock: OLANEW_clean_sbu_2, # of connection points: 3
#     Node 12, Type 0, BuildingBlock: OLANEW_clean_sbu_2, # of connection points: 3
#     Node 13, Type 0, BuildingBlock: OLANEW_clean_sbu_2, # of connection points: 3
#     Node 14, Type 0, BuildingBlock: OLANEW_clean_sbu_2, # of connection points: 3
#     Node 15, Type 0, BuildingBlock: OLANEW_clean_sbu_2, # of connection points: 3
#     Node 16, Type 0, BuildingBlock: OLANEW_clean_sbu_2, # of connection points: 3
#     Node 17, Type 0, BuildingBlock: OLANEW_clean_sbu_2, # of connection points: 3
#     Node 18, Type 0, BuildingBlock: OLANEW_clean_sbu_2, # of connection points: 3
#     Node 19, Type 0, BuildingBlock: OLANEW_clean_sbu_2, # of connection points: 3
#     Node 20, Type 0, BuildingBlock: OLANEW_clean_sbu_2, # of connection points: 3
#     Node 21, Type 0, BuildingBlock: OLANEW_clean_sbu_2, # of connection points: 3
#     Node 22, Type 0, BuildingBlock: OLANEW_clean_sbu_2, # of connection points: 3
#     Node 23, Type 0, BuildingBlock: OLANEW_clean_sbu_2, # of connection points: 3
#     Edge 24, Type (0, 0), BuildingBlock: AJUNOK_clean_linker_0, # of connection points: 2
#     Edge 25, Type (0, 0), BuildingBlock: AJUNOK_clean_linker_0, # of connection points: 2
#     Edge 26, Type (0, 0), BuildingBlock: AJUNOK_clean_linker_0, # of connection points: 2
#     Edge 27, Type (0, 0), BuildingBlock: AJUNOK_clean_linker_0, # of connection points: 2
#     Edge 28, Type (0, 0), BuildingBlock: AJUNOK_clean_linker_0, # of connection points: 2
#     Edge 29, Type (0, 0), BuildingBlock: AJUNOK_clean_linker_0, # of connection points: 2
#     Edge 30, Type (0, 0), BuildingBlock: AJUNOK_clean_linker_0, # of connection points: 2
#     Edge 31, Type (0, 0), BuildingBlock: AJUNOK_clean_linker_0, # of connection points: 2
#     Edge 32, Type (0, 0), BuildingBlock: AJUNOK_clean_linker_0, # of connection points: 2
#     Edge 33, Type (0, 0), BuildingBlock: AJUNOK_clean_linker_0, # of connection points: 2
#     Edge 34, Type (0, 0), BuildingBlock: AJUNOK_clean_linker_0, # of connection points: 2
#     Edge 35, Type (0, 0), BuildingBlock: AJUNOK_clean_linker_0, # of connection points: 2
#     Edge 36, Type (0, 0), BuildingBlock: AJUNOK_clean_linker_0, # of connection points: 2
#     Edge 37, Type (0, 0), BuildingBlock: AJUNOK_clean_linker_0, # of connection points: 2
#     Edge 38, Type (0, 0), BuildingBlock: AJUNOK_clean_linker_0, # of connection points: 2
#     Edge 39, Type (0, 0), BuildingBlock: AJUNOK_clean_linker_0, # of connection points: 2
#     Edge 40, Type (0, 0), BuildingBlock: AJUNOK_clean_linker_0, # of connection points: 2
#     Edge 41, Type (0, 0), BuildingBlock: AJUNOK_clean_linker_0, # of connection points: 2
#     Edge 42, Type (0, 0), BuildingBlock: AJUNOK_clean_linker_0, # of connection points: 2
#     Edge 43, Type (0, 0), BuildingBlock: AJUNOK_clean_linker_0, # of connection points: 2
#     Edge 44, Type (0, 0), BuildingBlock: AJUNOK_clean_linker_0, # of connection points: 2
#     Edge 45, Type (0, 0), BuildingBlock: AJUNOK_clean_linker_0, # of connection points: 2
#     Edge 46, Type (0, 0), BuildingBlock: AJUNOK_clean_linker_0, # of connection points: 2
#     Edge 47, Type (0, 0), BuildingBlock: AJUNOK_clean_linker_0, # of connection points: 2
#     Edge 48, Type (0, 0), BuildingBlock: AJUNOK_clean_linker_0, # of connection points: 2
#     Edge 49, Type (0, 0), BuildingBlock: AJUNOK_clean_linker_0, # of connection points: 2
#     Edge 50, Type (0, 0), BuildingBlock: AJUNOK_clean_linker_0, # of connection points: 2
#     Edge 51, Type (0, 0), BuildingBlock: AJUNOK_clean_linker_0, # of connection points: 2
#     Edge 52, Type (0, 0), BuildingBlock: AJUNOK_clean_linker_0, # of connection points: 2
#     Edge 53, Type (0, 0), BuildingBlock: AJUNOK_clean_linker_0, # of connection points: 2
#     Edge 54, Type (0, 0), BuildingBlock: AJUNOK_clean_linker_0, # of connection points: 2
#     Edge 55, Type (0, 0), BuildingBlock: AJUNOK_clean_linker_0, # of connection points: 2
#     Edge 56, Type (0, 0), BuildingBlock: AJUNOK_clean_linker_0, # of connection points: 2
#     Edge 57, Type (0, 0), BuildingBlock: AJUNOK_clean_linker_0, # of connection points: 2
#     Edge 58, Type (0, 0), BuildingBlock: AJUNOK_clean_linker_0, # of connection points: 2
#     Edge 59, Type (0, 0), BuildingBlock: AJUNOK_clean_linker_0, # of connection points: 2
# Relax obj value: 0.098
# Max RMSD: 0.301
# Mean RMSD: 0.084
data_MOF--net-sgn--node1-OLANEW_clean_sbu_2--edge1-AJUNOK_clean_linker_0
_symmetry_space_group_name_H-M    P1
_symmetry_Int_Tables_number       1
_symmetry_cell_setting            triclinic
loop_
_symmetry_equiv_pos_as_xyz
'x, y, z'
_cell_length_a     27.396867
_cell_length_b     58.723831
_cell_length_c     26.009642
_cell_angle_alpha  88.626412
_cell_angle_beta   102.75104
_cell_angle_gamma 88.967231
loop_
_atom_site_label
_atom_site_type_symbol
_atom_site_fract_x
_atom_site_fract_y
_atom_site_fract_z
_atom_type_partial_charge
O0 O 0.21795 0.20528 0.04626 0.0
Cd1 Cd 0.27405 0.21814 0.99049 0.0
O2 O 0.17716 0.2381 0.03041 0.0
Cd3 Cd 0.12119 0.26452 0.03778 0.0
O4 O 0.06892 0.29365 0.03468 0.0
C5 C 0.08509 0.31373 0.03231 0.0
O6 O 0.13269 0.31622 0.03249 0.0
C7 C 0.18225 0.21833 0.05243 0.0
C8 C 0.29464 0.18521 0.92166 0.0
O9 O 0.32391 0.18757 0.9669 0.0
O10 O 0.25556 0.19824 0.90924 0.0
O11 O 0.19996 0.71101 0.2403 0.0
Cd12 Cd 0.23559 0.72141 0.16442 0.0
O13 O 0.12709 0.72455 0.19646 0.0
Cd14 Cd 0.04697 0.73054 0.18997 0.0
O15 O 0.97309 0.73955 0.20333 0.0
C16 C 0.94607 0.72715 0.22609 0.0
O17 O 0.9046 0.73604 0.23533 0.0
C18 C 0.15395 0.71535 0.2382 0.0
C19 C 0.26811 0.76638 0.16678 0.0
O20 O 0.22329 0.76152 0.14381 0.0
O21 O 0.29738 0.74995 0.18863 0.0
O22 O 0.49796 0.65554 0.65534 0.0
Cd23 Cd 0.53148 0.64549 0.74872 0.0
O24 O 0.42793 0.67046 0.66913 0.0
Cd25 Cd 0.4468 0.66895 0.75523 0.0
O26 O 0.43732 0.68662 0.82561 0.0
C27 C 0.43971 0.70821 0.8229 0.0
O28 O 0.44973 0.71768 0.78024 0.0
C29 C 0.45509 0.66483 0.63744 0.0
C30 C 0.53936 0.59818 0.76523 0.0
O31 O 0.49986 0.60941 0.76911 0.0
O32 O 0.57548 0.6094 0.75391 0.0
O33 O 0.30012 0.18911 0.65566 0.0
Cd34 Cd 0.2088 0.18671 0.62463 0.0
O35 O 0.28689 0.21512 0.71046 0.0
Cd36 Cd 0.30709 0.24039 0.77194 0.0
O37 O 0.32887 0.253 0.85198 0.0
C38 C 0.32784 0.27378 0.86434 0.0
O39 O 0.31299 0.28942 0.82691 0.0
C40 C 0.31741 0.20264 0.69245 0.0
C41 C 0.17246 0.14243 0.612 0.0
O42 O 0.17662 0.1546 0.5717 0.0
O43 O 0.18575 0.15103 0.65758 0.0
O44 O 0.01561 0.69453 0.40812 0.0
Cd45 Cd 0.96704 0.68139 0.47114 0.0
O46 O 0.08691 0.67873 0.45097 0.0
Cd47 Cd 0.0593 0.67771 0.52373 0.0
O48 O 0.04804 0.6961 0.59273 0.0
C49 C 0.08643 0.7019 0.62665 0.0
O50 O 0.13085 0.69542 0.62042 0.0
C51 C 0.06111 0.68905 0.41017 0.0
C52 C 0.91468 0.6418 0.43794 0.0
O53 O 0.8959 0.66162 0.42273 0.0
O54 O 0.95817 0.64069 0.46889 0.0
O55 O 0.4115 0.69415 0.38372 0.0
Cd56 Cd 0.38577 0.71027 0.29372 0.0
O57 O 0.34961 0.71114 0.41027 0.0
Cd58 Cd 0.32621 0.73432 0.34199 0.0
O59 O 0.31281 0.77034 0.31906 0.0
C60 C 0.26927 0.77907 0.30217 0.0
O61 O 0.23053 0.76571 0.29375 0.0
C62 C 0.38715 0.6974 0.41936 0.0
C63 C 0.41437 0.68118 0.22126 0.0
O64 O 0.44244 0.69738 0.24142 0.0
O65 O 0.37251 0.67894 0.23494 0.0
O66 O 0.56159 0.20366 0.73286 0.0
Cd67 Cd 0.65343 0.20198 0.75389 0.0
O68 O 0.55475 0.20496 0.81534 0.0
Cd69 Cd 0.63398 0.19746 0.84849 0.0
O70 O 0.68706 0.17118 0.88909 0.0
C71 C 0.68228 0.16387 0.9341 0.0
O72 O 0.6489 0.17391 0.95576 0.0
C73 C 0.53431 0.2053 0.76642 0.0
C74 C 0.69381 0.24306 0.72837 0.0
O75 O 0.68071 0.22789 0.69369 0.0
O76 O 0.68782 0.23879 0.77511 0.0
O77 O 0.0668 0.1755 0.22659 0.0
Cd78 Cd 0.01815 0.16131 0.28911 0.0
O79 O 0.00128 0.18535 0.16374 0.0
Cd80 Cd 0.9409 0.17373 0.19952 0.0
O81 O 0.85947 0.17231 0.18787 0.0
C82 C 0.83505 0.18068 0.14395 0.0
O83 O 0.86018 0.18899 0.11046 0.0
C84 C 0.04845 0.18426 0.181 0.0
C85 C 0.07264 0.13082 0.36633 0.0
O86 O 0.04383 0.12364 0.32443 0.0
O87 O 0.07611 0.15241 0.37161 0.0
O88 O 0.22006 0.97682 0.50217 0.0
Cd89 Cd 0.17441 -0.00734 0.56462 0.0
O90 O 0.28816 -0.00443 0.53457 0.0
Cd91 Cd 0.24181 0.02122 0.56176 0.0
O92 O 0.18625 0.04718 0.52438 0.0
C93 C 0.19862 0.06759 0.51745 0.0
O94 O 0.24457 0.0736 0.53828 0.0
C95 C 0.26631 0.98021 0.5049 0.0
C96 C 0.18513 0.96218 0.65107 0.0
O97 O 0.1471 0.96152 0.61229 0.0
O98 O 0.21728 0.97761 0.64948 0.0
O99 O 0.02524 0.87027 0.91758 0.0
Cd100 Cd 0.94258 0.888 0.88428 0.0
O101 O 0.00697 0.84375 0.85888 0.0
Cd102 Cd 0.02028 0.81225 0.8198 0.0
O103 O 0.02789 0.78328 0.77042 0.0
C104 C 0.06668 0.77032 0.7803 0.0
O105 O 0.10236 0.77427 0.82173 0.0
C106 C 0.03823 0.85259 0.89622 0.0
C107 C 0.94101 0.91312 0.79138 0.0
O108 O 0.95124 0.92261 0.83625 0.0
O109 O 0.93092 0.89189 0.79066 0.0
O110 O 0.16145 0.93806 0.32276 0.0
Cd111 Cd 0.21597 0.92458 0.26647 0.0
O112 O 0.14304 0.97091 0.27984 0.0
Cd113 Cd 0.21367 0.97036 0.25455 0.0
O114 O 0.2759 -0.01234 0.3049 0.0
C115 C 0.26189 0.00242 0.33401 0.0
O116 O 0.21366 0.00651 0.32843 0.0
C117 C 0.13551 0.95649 0.31431 0.0
C118 C 0.23401 0.87745 0.27866 0.0
O119 O 0.2626 0.89152 0.30708 0.0
O120 O 0.19636 0.88566 0.24449 0.0
O121 O 0.59776 0.02652 0.99208 0.0
Cd122 Cd 0.65226 0.02382 0.08014 0.0
O123 O 0.65238 0.01615 0.94632 0.0
Cd124 Cd 0.71187 0.02383 0.01394 0.0
O125 O 0.72716 0.05977 0.02741 0.0
C126 C 0.74387 0.07046 0.99211 0.0
O127 O 0.75734 0.05867 0.95501 0.0
C128 C 0.60756 0.02131 0.94822 0.0
C129 C 0.60565 -0.0033 0.14388 0.0
O130 O 0.59515 0.01805 0.13672 0.0
O131 O 0.63927 -0.01175 0.12211 0.0
O132 O 0.41156 0.92487 0.37542 0.0
Cd133 Cd 0.4504 0.90531 0.31227 0.0
O134 O 0.33847 0.92495 0.31962 0.0
Cd135 Cd 0.36018 0.90104 0.26485 0.0
O136 O 0.35708 0.86711 0.23131 0.0
C137 C 0.31977 0.86164 0.19563 0.0
O138 O 0.28554 0.87736 0.17602 0.0
C139 C 0.3655 0.93082 0.36341 0.0
C140 C 0.50067 0.93595 0.26 0.0
O141 O 0.45326 0.93362 0.24534 0.0
O142 O 0.52458 0.92363 0.29915 0.0
O143 O 0.25126 0.80356 0.01258 0.0
Cd144 Cd 0.33705 0.79018 0.05062 0.0
O145 O 0.2768 0.82743 0.95813 0.0
Cd146 Cd 0.26301 0.85566 0.89914 0.0
O147 O 0.25325 0.88399 0.84079 0.0
C148 C 0.21022 0.89208 0.81842 0.0
O149 O 0.17042 0.88327 0.83073 0.0
C150 C 0.24137 0.81858 0.97552 0.0
C151 C 0.37555 0.76391 0.97982 0.0
O152 O 0.35252 0.75463 0.01248 0.0
O153 O 0.38043 0.78557 0.981 0.0
O154 O 0.05856 -0.01015 0.51671 0.0
Cd155 Cd 0.03504 0.01113 0.58717 0.0
O156 O -0.01251 -0.00225 0.46024 0.0
Cd157 Cd 0.95392 0.00437 0.52718 0.0
O158 O 0.94262 -0.01207 0.5998 0.0
C159 C 0.94844 0.96637 0.60113 0.0
O160 O 0.9595 0.95664 0.56005 0.0
C161 C 0.03205 -0.01033 0.46997 0.0
C162 C 0.0814 0.05333 0.59441 0.0
O163 O 0.03853 0.05086 0.56347 0.0
O164 O 0.10188 0.03589 0.62189 0.0
O165 O 0.43373 0.06353 0.76114 0.0
Cd166 Cd 0.37771 0.09106 0.70452 0.0
O167 O 0.46884 0.04163 0.71059 0.0
Cd168 Cd 0.42168 0.05219 0.63391 0.0
O169 O 0.37682 0.04703 0.55416 0.0
C170 C 0.39576 0.03639 0.52088 0.0
O171 O 0.44287 0.02957 0.5346 0.0
C172 C 0.46441 0.04768 0.75603 0.0
C173 C 0.34731 0.1225 0.77148 0.0
O174 O 0.38915 0.12449 0.75767 0.0
O175 O 0.31939 0.10605 0.75287 0.0
O176 O 0.49442 0.22542 0.1317 0.0
Cd177 Cd 0.51406 0.19914 0.06752 0.0
O178 O 0.51294 0.25499 0.0869 0.0
Cd179 Cd 0.51277 0.23914 0.01198 0.0
O180 O 0.48647 0.2571 0.93603 0.0
C181 C 0.4764 0.27798 0.94184 0.0
O182 O 0.48315 0.28551 0.99002 0.0
C183 C 0.50141 0.24668 0.12803 0.0
C184 C 0.61742 0.19087 0.09107 0.0
O185 O 0.59723 0.20651 0.0575 0.0
O186 O 0.58851 0.17875 0.11252 0.0
O187 O 0.78761 0.49583 0.30016 0.0
Cd188 Cd 0.75212 0.51777 0.36286 0.0
O189 O 0.73965 0.46627 0.30132 0.0
Cd190 Cd 0.70177 0.47563 0.36326 0.0
O191 O 0.64511 0.45612 0.39089 0.0
C192 C 0.65885 0.43628 0.40978 0.0
O193 O 0.7061 0.43005 0.4157 0.0
C194 C 0.77287 0.47648 0.28296 0.0
C195 C 0.80208 0.55889 0.38503 0.0
O196 O 0.81334 0.54122 0.41546 0.0
O197 O 0.76603 0.55734 0.34455 0.0
O198 O 0.61506 0.57439 0.09007 0.0
Cd199 Cd 0.53639 0.58697 0.03105 0.0
O200 O 0.65932 0.59528 0.04686 0.0
Cd201 Cd 0.60115 0.59239 0.97488 0.0
O202 O 0.59225 0.56111 0.9302 0.0
C203 C 0.62524 0.55624 0.90442 0.0
O204 O 0.65778 0.57181 0.89914 0.0
C205 C 0.65657 0.5831 0.08719 0.0
C206 C 0.48912 0.61813 0.08504 0.0
O207 O 0.52112 0.62466 0.05885 0.0
O208 O 0.47866 0.59695 0.08467 0.0
O209 O 0.86254 0.44293 0.0794 0.0
Cd210 Cd 0.87556 0.42828 -0.00421 0.0
O211 O 0.78358 0.43304 0.06168 0.0
Cd212 Cd 0.77667 0.4324 0.97635 0.0
O213 O 0.7393 0.4595 0.92156 0.0
C214 C 0.69256 0.46274 0.91772 0.0
O215 O 0.66865 0.44779 0.94073 0.0
C216 C 0.82148 0.44047 0.09384 0.0
C217 C 0.94511 0.39167 0.0103 0.0
O218 O 0.95887 0.41233 0.00781 0.0
O219 O 0.89832 0.38829 0.00616 0.0
O220 O 0.45836 0.39137 0.66341 0.0
Cd221 Cd 0.38294 0.37761 0.68856 0.0
O222 O 0.46432 0.4203 0.7162 0.0
Cd223 Cd 0.49764 0.45183 0.74927 0.0
O224 O 0.50592 0.48787 0.76755 0.0
C225 C 0.54472 0.49897 0.76497 0.0
O226 O 0.58284 0.48823 0.75258 0.0
C227 C 0.48136 0.40887 0.68286 0.0
C228 C 0.40811 0.34385 0.76822 0.0
O229 O 0.3986 0.33864 0.71951 0.0
O230 O 0.40511 0.36496 0.77894 0.0
O231 O 0.46688 0.30349 0.33258 0.0
Cd232 Cd 0.44551 0.32999 0.39565 0.0
O233 O 0.4227 0.32414 0.26614 0.0
Cd234 Cd 0.3931 0.32808 0.18067 0.0
O235 O 0.37613 0.32084 0.0964 0.0
C236 C 0.37407 0.29994 0.08464 0.0
O237 O 0.38018 0.28451 0.12306 0.0
C238 C 0.4517 0.30715 0.28326 0.0
C239 C 0.51309 0.36553 0.40925 0.0
O240 O 0.52209 0.34722 0.43783 0.0
O241 O 0.47157 0.36718 0.37495 0.0
O242 O 0.84935 0.54711 0.27263 0.0
Cd243 Cd 0.92332 0.53334 0.33822 0.0
O244 O 0.86568 0.58354 0.26412 0.0
Cd245 Cd 0.93538 0.58832 0.3217 0.0
O246 O 0.96208 0.62323 0.32392 0.0
C247 C 0.97211 0.63083 0.28132 0.0
O248 O 0.97139 0.61662 0.24293 0.0
C249 C 0.83753 0.56671 0.25112 0.0
C250 C 0.89481 0.4983 0.3999 0.0
O251 O 0.90067 0.51866 0.4164 0.0
O252 O 0.9046 0.49425 0.35503 0.0
O253 O 0.6891 0.40922 0.59734 0.0
Cd254 Cd 0.77388 0.39944 0.58684 0.0
O255 O 0.71157 0.40353 0.68322 0.0
Cd256 Cd 0.77683 0.38223 0.68053 0.0
O257 O 0.78158 0.34567 0.69959 0.0
C258 C 0.75218 0.33298 0.66865 0.0
O259 O 0.72516 0.34203 0.62456 0.0
C260 C 0.67899 0.41026 0.6427 0.0
C261 C 0.81255 0.43088 0.52425 0.0
O262 O 0.81574 0.434 0.57348 0.0
O263 O 0.79062 0.41299 0.50449 0.0
C264 C 0.13415 0.19002 0.16363 0.0
C265 C 0.08187 0.19338 0.14772 0.0
C266 C 0.16633 0.1982 0.1326 0.0
C267 C 0.14761 0.21038 0.08491 0.0
H268 H 0.15047 0.18082 0.20016 0.0
H269 H 0.20626 0.19511 0.14624 0.0
S270 S 0.01413 0.22295 0.02361 0.0
N271 N 0.01306 0.20938 0.07965 0.0
N272 N 0.07378 0.2244 0.02162 0.0
C273 C 0.09566 0.21377 0.06821 0.0
C274 C 0.06275 0.20537 0.09952 0.0
C275 C 0.11853 0.68113 0.34963 0.0
C276 C 0.08468 0.69593 0.36653 0.0
C277 C 0.14139 0.68763 0.30839 0.0
C278 C 0.1315 0.70921 0.28319 0.0
H279 H 0.12676 0.6643 0.36784 0.0
H280 H 0.16632 0.67557 0.29558 0.0
S281 S 0.05234 0.75548 0.31896 0.0
N282 N 0.04573 0.73372 0.35807 0.0
N283 N 0.09082 0.74634 0.28277 0.0
C284 C 0.09954 0.72449 0.30144 0.0
C285 C 0.0755 0.71773 0.34251 0.0
C286 C 0.37383 0.68927 0.50995 0.0
C287 C 0.40373 0.68653 0.47284 0.0
C288 C 0.39016 0.68147 0.56228 0.0
C289 C 0.43728 0.67057 0.58018 0.0
H290 H 0.33773 0.69801 0.49897 0.0
H291 H 0.36587 0.68459 0.58918 0.0
S292 S 0.52857 0.65736 0.49792 0.0
N293 N 0.48169 0.67076 0.4569 0.0
N294 N 0.51247 0.6561 0.55545 0.0
C295 C 0.46682 0.6668 0.54303 0.0
C296 C 0.45005 0.67475 0.48941 0.0
C297 C 0.45627 0.2042 0.69466 0.0
C298 C 0.47874 0.20597 0.74861 0.0
C299 C 0.40415 0.20315 0.67708 0.0
C300 C 0.37225 0.20403 0.71257 0.0
H301 H 0.47908 0.20328 0.66562 0.0
H302 H 0.38867 0.20172 0.63522 0.0
S303 S 0.4116 0.20832 0.85787 0.0
N304 N 0.46441 0.20871 0.8374 0.0
N305 N 0.36683 0.2058 0.80439 0.0
C306 C 0.39398 0.2057 0.76657 0.0
C307 C 0.44707 0.20692 0.78454 0.0
C308 C 0.26576 0.95776 0.42473 0.0
C309 C 0.29322 0.96737 0.47086 0.0
C310 C 0.28963 0.94624 0.39039 0.0
C311 C 0.3421 0.94362 0.40076 0.0
H312 H 0.22538 0.95957 0.41432 0.0
H313 H 0.26649 0.93932 0.35533 0.0
S314 S 0.4314 0.96504 0.51751 0.0
N315 N 0.37581 0.97329 0.52587 0.0
N316 N 0.42091 0.9513 0.46162 0.0
C317 C 0.37016 0.95294 0.44721 0.0
C318 C 0.34571 0.96492 0.48207 0.0
C319 C 0.15884 0.83248 0.98903 0.0
C320 C 0.18918 0.82627 0.95436 0.0
C321 C 0.10978 0.84084 0.96975 0.0
C322 C 0.08907 0.84267 0.91524 0.0
H323 H 0.17355 0.8314 0.03128 0.0
H324 H 0.08785 0.8459 -0.0023 0.0
S325 S 0.15277 0.82767 0.80832 0.0
N326 N 0.19484 0.82168 0.86326 0.0
N327 N 0.10274 0.83759 0.82693 0.0
C328 C 0.11878 0.83607 0.88022 0.0
C329 C 0.16887 0.82781 0.89985 0.0
C330 C 0.11429 0.95398 0.40252 0.0
C331 C 0.10313 0.96294 0.35048 0.0
C332 C 0.09048 0.96256 0.44058 0.0
C333 C 0.05355 0.97996 0.42777 0.0
H334 H 0.14338 0.94099 0.41477 0.0
H335 H 0.10161 0.95568 0.48059 0.0
S336 S 0.00707 0.00772 0.29604 0.0
N337 N 0.05072 -0.01065 0.28737 0.0
N338 N 0.00443 0.00482 0.35868 0.0
C339 C 0.03995 -0.0118 0.37528 0.0
C340 C 0.06512 0.97986 0.3367 0.0
C341 C 0.54629 0.02967 0.8028 0.0
C342 C 0.49774 0.03748 0.80404 0.0
C343 C 0.58092 0.02321 0.84941 0.0
C344 C 0.56812 0.02415 0.89892 0.0
H345 H 0.55853 0.02967 0.76594 0.0
H346 H 0.61863 0.01846 0.84668 0.0
S347 S 0.44261 0.0395 0.92203 0.0
N348 N 0.43658 0.04309 0.8578 0.0
N349 N 0.50106 0.03071 0.94516 0.0
C350 C 0.51838 0.03027 0.90005 0.0
C351 C 0.48339 0.03703 0.85271 0.0
C352 C 0.47506 0.25356 0.21308 0.0
C353 C 0.49297 0.26215 0.16979 0.0
C354 C 0.46296 0.26815 0.25063 0.0
C355 C 0.4678 0.29182 0.24582 0.0
H356 H 0.4693 0.23549 0.2175 0.0
H357 H 0.44828 0.26094 0.2827 0.0
S358 S 0.51795 0.32294 0.14391 0.0
N359 N 0.51845 0.29602 0.12719 0.0
N360 N 0.49582 0.32314 0.19798 0.0
C361 C 0.48754 0.30059 0.20431 0.0
C362 C 0.50009 0.28583 0.16622 0.0
C363 C 0.76793 0.44664 0.21513 0.0
C364 C 0.79109 0.46622 0.23869 0.0
C365 C 0.7796 0.43792 0.16959 0.0
C366 C 0.8156 0.44808 0.1461 0.0
H367 H 0.73907 0.43836 0.23075 0.0
H368 H 0.75933 0.42335 0.15192 0.0
S369 S 0.88994 0.49863 0.19386 0.0
N370 N 0.85373 0.49485 0.23621 0.0
N371 N 0.87637 0.4781 0.15109 0.0
C372 C 0.841 0.46695 0.17055 0.0
C373 C 0.82856 0.4761 0.21666 0.0
C374 C 0.74129 0.59397 0.13733 0.0
C375 C 0.70172 0.57863 0.12982 0.0
C376 C 0.78468 0.59001 0.17686 0.0
C377 C 0.79073 0.57032 0.20995 0.0
H378 H 0.73864 0.60929 0.11273 0.0
H379 H 0.81395 0.60244 0.18105 0.0
S380 S 0.69828 0.52457 0.20579 0.0
N381 N 0.67126 0.54291 0.15855 0.0
N382 N 0.7531 0.53529 0.23221 0.0
C383 C 0.75149 0.55477 0.20262 0.0
C384 C 0.70693 0.55898 0.16282 0.0
C385 C 0.61914 0.41984 0.69937 0.0
C386 C 0.6274 0.41561 0.64878 0.0
C387 C 0.57092 0.41944 0.70936 0.0
C388 C 0.5293 0.41458 0.66924 0.0
H389 H 0.65045 0.42221 0.73227 0.0
H390 H 0.5668 0.42129 0.74954 0.0
S391 S 0.52886 0.40633 0.5285 0.0
N392 N 0.58844 0.40959 0.55664 0.0
N393 N 0.49802 0.40843 0.57603 0.0
C394 C 0.53632 0.41216 0.6178 0.0
C395 C 0.58531 0.41288 0.60735 0.0
C396 C 0.35647 0.16101 0.88816 0.0
C397 C 0.30663 0.16847 0.88417 0.0
C398 C 0.36941 0.14661 0.85075 0.0
C399 C 0.33267 0.13823 0.80941 0.0
H400 H 0.38603 0.16687 0.91958 0.0
H401 H 0.40841 0.1417 0.85477 0.0
S402 S 0.1961 0.15051 0.78474 0.0
N403 N 0.22004 0.16547 0.83685 0.0
N404 N 0.24403 0.13729 0.76858 0.0
C405 C 0.28246 0.14472 0.8063 0.0
C406 C 0.2695 0.16006 0.84323 0.0
C407 C 0.25112 0.80807 0.14619 0.0
C408 C 0.28465 0.7904 0.16972 0.0
C409 C 0.26382 0.83101 0.15257 0.0
C410 C 0.31053 0.8373 0.18294 0.0
H411 H 0.21405 0.80424 0.12386 0.0
H412 H 0.23584 0.84389 0.13517 0.0
S413 S 0.41401 0.7976 0.24808 0.0
N414 N 0.36838 0.7808 0.22095 0.0
N415 N 0.39215 0.82385 0.23302 0.0
C416 C 0.34545 0.8198 0.20435 0.0
C417 C 0.33255 0.7964 0.19775 0.0
C418 C 0.38918 0.72623 0.94114 0.0
C419 C 0.3949 0.75002 0.94124 0.0
C420 C 0.40502 0.71278 0.90374 0.0
C421 C 0.42705 0.72256 0.86468 0.0
H422 H 0.3717 0.71786 0.96976 0.0
H423 H 0.39886 0.69463 0.90485 0.0
S424 S 0.45361 0.7839 0.84961 0.0
N425 N 0.42646 0.78265 0.90023 0.0
N426 N 0.45609 0.75746 0.83011 0.0
C427 C 0.43423 0.74626 0.86516 0.0
C428 C 0.41821 0.75995 0.90333 0.0
C429 C 0.08618 0.09391 0.5634 0.0
C430 C 0.10621 0.07573 0.59857 0.0
C431 C 0.10868 0.11529 0.56694 0.0
C432 C 0.15145 0.11939 0.60636 0.0
H433 H 0.05297 0.09163 0.53267 0.0
H434 H 0.09187 0.12882 0.53929 0.0
S435 S 0.21972 0.07762 0.70697 0.0
N436 N 0.17263 0.0633 0.67308 0.0
N437 N 0.21394 0.10356 0.68007 0.0
C438 C 0.17208 0.10143 0.64141 0.0
C439 C 0.14974 0.07958 0.63741 0.0
C440 C 0.03588 0.72966 0.66652 0.0
C441 C 0.08147 0.71778 0.66902 0.0
C442 C 0.03135 0.74628 0.70311 0.0
C443 C 0.07208 0.75165 0.7441 0.0
H444 H 0.00362 0.72658 0.63518 0.0
H445 H -0.00436 0.7552 0.69868 0.0
S446 S 0.19883 0.72427 0.77061 0.0
N447 N 0.16759 0.71171 0.71766 0.0
N448 N 0.15903 0.74283 0.78647 0.0
C449 C 0.11746 0.73935 0.74819 0.0
C450 C 0.12216 0.72248 0.71068 0.0
C451 C 0.21617 0.81353 0.26643 0.0
C452 C 0.26192 0.80419 0.29547 0.0
C453 C 0.20764 0.83719 0.26088 0.0
C454 C 0.24421 0.85248 0.28485 0.0
H455 H 0.18669 0.8025 0.24749 0.0
H456 H 0.17185 0.8435 0.23793 0.0
S457 S 0.37075 0.83681 0.36475 0.0
N458 N 0.34469 0.81219 0.34791 0.0
N459 N 0.32833 0.85651 0.33832 0.0
C460 C 0.29018 0.84337 0.31402 0.0
C461 C 0.29913 0.81929 0.31904 0.0
C462 C 0.75037 0.1067 0.94187 0.0
C463 C 0.7376 0.09565 0.98556 0.0
C464 C 0.73526 0.12932 0.92762 0.0
C465 C 0.70663 0.14186 0.95638 0.0
H466 H 0.76994 0.09749 0.91663 0.0
H467 H 0.74389 0.13656 0.89207 0.0
S468 S 0.67115 0.12219 0.07971 0.0
N469 N 0.70072 0.10004 0.06184 0.0
N470 N 0.67197 0.14246 0.03486 0.0
C471 C 0.6974 0.13168 0.00283 0.0
C472 C 0.71299 0.10862 0.01748 0.0
C473 C 0.14669 0.1218 0.44012 0.0
C474 C 0.10223 0.11471 0.40674 0.0
C475 C 0.17704 0.10657 0.47641 0.0
C476 C 0.16376 0.0837 0.48148 0.0
H477 H 0.1589 0.13914 0.43732 0.0
H478 H 0.21139 0.1128 0.50039 0.0
S479 S 0.04824 0.0572 0.40696 0.0
N480 N 0.0447 0.08367 0.38337 0.0
N481 N 0.10107 0.05514 0.45205 0.0
C482 C 0.11832 0.07661 0.4497 0.0
C483 C 0.08776 0.09208 0.41226 0.0
C484 C 0.60185 0.96176 0.19969 0.0
C485 C 0.57888 0.98204 0.17517 0.0
C486 C 0.57669 0.94721 0.22814 0.0
C487 C 0.52719 0.95211 0.23192 0.0
H488 H 0.63963 0.9571 0.19703 0.0
H489 H 0.59576 0.93174 0.24623 0.0
S490 S 0.45044 0.00317 0.17562 0.0
N491 N 0.50411 0.00652 0.15767 0.0
N492 N 0.45646 0.97885 0.2099 0.0
C493 C 0.50384 0.97236 0.20783 0.0
C494 C 0.5298 -0.01258 0.17982 0.0
C495 C 0.43495 0.33301 0.8639 0.0
C496 C 0.4235 0.32628 0.81115 0.0
C497 C 0.45163 0.31721 0.90543 0.0
C498 C 0.45778 0.29392 0.89623 0.0
H499 H 0.43148 0.35073 0.87345 0.0
H500 H 0.46008 0.32347 0.94518 0.0
S501 S 0.42982 0.26704 0.76556 0.0
N502 N 0.41724 0.29441 0.75203 0.0
N503 N 0.4489 0.26469 0.8303 0.0
C504 C 0.44559 0.28679 0.84376 0.0
C505 C 0.42834 0.30294 0.80124 0.0
C506 C 0.57123 0.42227 0.3881 0.0
C507 C 0.62123 0.41917 0.41588 0.0
C508 C 0.53644 0.40498 0.38701 0.0
C509 C 0.55004 0.384 0.41418 0.0
H510 H 0.55919 0.43782 0.36521 0.0
H511 H 0.49875 0.40802 0.36391 0.0
S512 S 0.675 0.36837 0.49793 0.0
N513 N 0.68168 0.39424 0.47461 0.0
N514 N 0.61631 0.36182 0.47314 0.0
C515 C 0.59937 0.38109 0.44421 0.0
C516 C 0.63491 0.39866 0.44495 0.0
C517 C 0.68184 0.52582 0.88264 0.0
C518 C 0.63546 0.53207 0.89376 0.0
C519 C 0.69839 0.503 0.88594 0.0
C520 C 0.66906 0.48547 0.90006 0.0
H521 H 0.7073 0.53872 0.87502 0.0
H522 H 0.73588 0.49932 0.8808 0.0
S523 S 0.53898 0.49225 0.91858 0.0
N524 N 0.55655 0.5185 0.90954 0.0
N525 N 0.58702 0.47558 0.91438 0.0
C526 C 0.62008 0.49123 0.90474 0.0
C527 C 0.60346 0.51453 0.902 0.0
C528 C 0.94534 0.96307 0.69669 0.0
C529 C 0.94479 0.95249 0.64859 0.0
C530 C 0.94397 0.95023 0.74252 0.0
C531 C 0.94145 0.9263 0.74202 0.0
H532 H 0.94763 0.98142 0.69929 0.0
H533 H 0.94492 0.95918 0.77864 0.0
S534 S 0.9378 0.89029 0.62581 0.0
N535 N 0.94071 0.91659 0.6031 0.0
N536 N 0.93786 0.89255 0.68893 0.0
C537 C 0.94019 0.91552 0.694 0.0
C538 C 0.94196 0.92857 0.64743 0.0
C539 C 0.47202 0.67056 0.16271 0.0
C540 C 0.43058 0.66532 0.18422 0.0
C541 C 0.48968 0.6555 0.12952 0.0
C542 C 0.46703 0.63442 0.11693 0.0
H543 H 0.49137 0.68638 0.17183 0.0
H544 H 0.52217 0.66023 0.11469 0.0
S545 S 0.35593 0.61287 0.16099 0.0
N546 N 0.36611 0.63783 0.1888 0.0
N547 N 0.39964 0.60946 0.12697 0.0
C548 C 0.42495 0.62912 0.1373 0.0
C549 C 0.40663 0.64458 0.17072 0.0
C550 C 0.71761 0.29442 0.64659 0.0
C551 C 0.74309 0.30924 0.6846 0.0
C552 C 0.70335 0.27278 0.66097 0.0
C553 C 0.71327 0.26521 0.71408 0.0
H554 H 0.70769 0.2997 0.60534 0.0
H555 H 0.68291 0.26223 0.63028 0.0
S556 S 0.78195 0.29678 0.82873 0.0
N557 N 0.78021 0.31422 0.77759 0.0
N558 N 0.75273 0.27372 0.80461 0.0
C559 C 0.7401 0.27954 0.75239 0.0
C560 C 0.75525 0.30148 0.73766 0.0
C561 C 0.75444 0.19504 0.08628 0.0
C562 C 0.77945 0.18215 0.13102 0.0
C563 C 0.70222 0.19764 0.07374 0.0
C564 C 0.6726 0.18728 0.10504 0.0
H565 H 0.77531 0.20352 0.06087 0.0
H566 H 0.68501 0.2079 0.03909 0.0
S567 S 0.71922 0.15093 0.22537 0.0
N568 N 0.77032 0.15833 0.206 0.0
N569 N 0.6721 0.16317 0.18236 0.0
C570 C 0.69694 0.17401 0.14946 0.0
C571 C 0.7503 0.17145 0.16243 0.0
C572 C 0.8721 0.5806 0.43929 0.0
C573 C 0.83048 0.58024 0.39643 0.0
C574 C 0.89955 0.60042 0.45164 0.0
C575 C 0.8864 0.62081 0.42192 0.0
H576 H 0.88364 0.56545 0.46387 0.0
H577 H 0.93081 0.59981 0.48545 0.0
S578 S 0.78307 0.62868 0.3032 0.0
N579 N 0.77903 0.60193 0.32251 0.0
N580 N 0.83073 0.63911 0.3457 0.0
C581 C 0.8456 0.62063 0.37821 0.0
C582 C 0.81766 0.60039 0.36548 0.0
C583 C 0.34673 0.30918 0.98764 0.0
C584 C 0.36424 0.29303 0.02876 0.0
C585 C 0.33556 0.30286 0.93469 0.0
C586 C 0.34169 0.28015 0.92062 0.0
H587 H 0.34083 0.32683 -0.00364 0.0
H588 H 0.32162 0.31591 0.90465 0.0
S589 S 0.39191 0.23176 0.01303 0.0
N590 N 0.39048 0.25359 0.05145 0.0
N591 N 0.37008 0.24176 0.95233 0.0
C592 C 0.36067 0.26395 0.96131 0.0
C593 C 0.37179 0.27038 0.01519 0.0
C594 C -0.00105 0.33097 0.0239 0.0
C595 C 0.05056 0.33395 0.02801 0.0
C596 C 0.96539 0.34967 0.01854 0.0
C597 C 0.98189 0.37221 0.01711 0.0
H598 H 0.9841 0.31402 0.02441 0.0
H599 H 0.92607 0.34635 0.0152 0.0
S600 S 0.11347 0.38951 0.02773 0.0
N601 N 0.11665 0.36141 0.03126 0.0
N602 N 0.05374 0.39643 0.02123 0.0
C603 C 0.03348 0.37548 0.02172 0.0
C604 C 0.0677 0.35642 0.02715 0.0
C605 C 0.94885 0.69437 0.28942 0.0
C606 C 0.96026 0.70322 0.24287 0.0
C607 C 0.95596 0.67115 0.30343 0.0
C608 C 0.97417 0.65577 0.27103 0.0
H609 H 0.93313 0.70542 0.31471 0.0
H610 H 0.94485 0.66509 0.33869 0.0
S611 S 0.01121 0.67048 0.14551 0.0
N612 N -0.00873 0.69487 0.16465 0.0
N613 N 0.00625 0.6514 0.19161 0.0
C614 C -0.01222 0.6646 0.22545 0.0
C615 C 0.98039 0.68827 0.21117 0.0
C616 C 0.58359 0.53687 0.7573 0.0
C617 C 0.5449 0.52411 0.77055 0.0
C618 C 0.5823 0.56076 0.75738 0.0
C619 C 0.54229 0.5729 0.77078 0.0
H620 H 0.61461 0.52842 0.74539 0.0
H621 H 0.61232 0.56975 0.74541 0.0
S622 S 0.43501 0.54754 0.81551 0.0
N623 N 0.46767 0.52544 0.80221 0.0
N624 N 0.46549 0.57022 0.80273 0.0
C625 C 0.50468 0.56033 0.78678 0.0
C626 C 0.50589 0.536 0.78653 0.0
C627 C 0.8681 0.4852 0.48165 0.0
C628 C 0.87538 0.48039 0.43105 0.0
C629 C 0.84805 0.46907 0.51135 0.0
C630 C 0.83376 0.44752 0.49155 0.0
H631 H 0.87785 0.50162 0.49862 0.0
H632 H 0.84326 0.4737 0.55003 0.0
S633 S 0.84538 0.42619 0.36136 0.0
N634 N 0.86747 0.45218 0.36281 0.0
N635 N 0.82871 0.42213 0.41806 0.0
C636 C 0.84076 0.44243 0.44097 0.0
C637 C 0.86186 0.45877 0.41094 0.0
C638 C 0.15207 0.93157 0.70208 0.0
C639 C 0.19217 0.94517 0.69554 0.0
C640 C 0.15809 0.91477 0.74242 0.0
C641 C 0.20465 0.91064 0.7775 0.0
H642 H 0.11561 0.93384 0.67573 0.0
H643 H 0.12608 0.90467 0.74543 0.0
S644 S 0.32144 0.94192 0.77831 0.0
N645 N 0.27996 0.9537 0.72856 0.0
N646 N 0.29136 0.92202 0.80385 0.0
C647 C 0.24499 0.92428 0.77179 0.0
C648 C 0.23872 0.94156 0.73104 0.0
C649 C 0.31171 0.0341 0.45953 0.0
C650 C 0.36366 0.02973 0.46972 0.0
C651 C 0.27958 0.02586 0.41467 0.0
C652 C 0.29791 0.01292 0.37778 0.0
H653 H 0.29527 0.04326 0.48737 0.0
H654 H 0.23977 0.02909 0.41 0.0
S655 S 0.43156 -0.00075 0.38196 0.0
N656 N 0.43255 0.01347 0.43617 0.0
N657 N 0.37199 -0.00209 0.35194 0.0
C658 C 0.35002 0.00942 0.38588 0.0
C659 C 0.38289 0.01786 0.43172 0.0
loop_
_geom_bond_atom_site_label_1
_geom_bond_atom_site_label_2
_geom_bond_distance
_geom_bond_site_symmetry_2
_ccdc_geom_bond_type
O0 Cd1 2.300 . S
O0 C7 1.275 . S
Cd1 O0 2.300 . S
Cd1 O9 2.381 . S
Cd1 O10 2.378 1_554 S
O2 Cd3 2.385 . S
O2 C7 1.255 . S
Cd3 O2 2.385 . S
Cd3 O4 2.317 . S
O4 Cd3 2.317 . S
O4 C5 1.232 . S
C5 O4 1.232 . S
C5 O6 1.218 . S
O6 C5 1.218 . S
C7 O0 1.275 . S
C7 O2 1.255 . S
C8 O9 1.258 1_556 S
C8 O10 1.256 . S
O9 Cd1 2.381 . S
O9 C8 1.258 1_554 S
O10 Cd1 2.378 1_556 S
O10 C8 1.256 . S
O11 Cd12 2.300 1_655 S
O11 C18 1.275 . S
Cd12 O11 2.300 1_455 S
Cd12 O20 2.381 . S
Cd12 O21 2.378 . S
O13 Cd14 2.385 . S
O13 C18 1.255 1_455 S
Cd14 O13 2.385 . S
Cd14 O15 2.317 1_455 S
O15 Cd14 2.317 1_655 S
O15 C16 1.232 . S
C16 O15 1.232 . S
C16 O17 1.218 . S
O17 C16 1.218 . S
C18 O11 1.275 . S
C18 O13 1.255 1_655 S
C19 O20 1.258 . S
C19 O21 1.256 . S
O20 Cd12 2.381 . S
O20 C19 1.258 . S
O21 Cd12 2.378 . S
O21 C19 1.256 . S
O22 Cd23 2.300 . S
O22 C29 1.275 . S
Cd23 O22 2.300 . S
Cd23 O31 2.381 . S
Cd23 O32 2.378 . S
O24 Cd25 2.385 . S
O24 C29 1.255 . S
Cd25 O24 2.385 . S
Cd25 O26 2.317 . S
O26 Cd25 2.317 . S
O26 C27 1.232 . S
C27 O26 1.232 . S
C27 O28 1.218 . S
O28 C27 1.218 . S
C29 O22 1.275 . S
C29 O24 1.255 . S
C30 O31 1.258 . S
C30 O32 1.256 . S
O31 Cd23 2.381 . S
O31 C30 1.258 . S
O32 Cd23 2.378 . S
O32 C30 1.256 . S
O33 Cd34 2.300 . S
O33 C40 1.275 . S
Cd34 O33 2.300 . S
Cd34 O42 2.381 . S
Cd34 O43 2.378 . S
O35 Cd36 2.385 . S
O35 C40 1.255 . S
Cd36 O35 2.385 . S
Cd36 O37 2.317 . S
O37 Cd36 2.317 . S
O37 C38 1.232 . S
C38 O37 1.232 . S
C38 O39 1.218 . S
O39 C38 1.218 . S
C40 O33 1.275 . S
C40 O35 1.255 . S
C41 O42 1.258 . S
C41 O43 1.256 . S
O42 Cd34 2.381 . S
O42 C41 1.258 . S
O43 Cd34 2.378 . S
O43 C41 1.256 . S
O44 Cd45 2.300 1_655 S
O44 C51 1.275 1_655 S
Cd45 O44 2.300 1_455 S
Cd45 O53 2.381 1_455 S
Cd45 O54 2.378 1_455 S
O46 Cd47 2.385 . S
O46 C51 1.255 . S
Cd47 O46 2.385 . S
Cd47 O48 2.317 . S
O48 Cd47 2.317 . S
O48 C49 1.232 . S
C49 O48 1.232 . S
C49 O50 1.218 . S
O50 C49 1.218 . S
C51 O44 1.275 1_455 S
C51 O46 1.255 . S
C52 O53 1.258 . S
C52 O54 1.256 . S
O53 Cd45 2.381 1_655 S
O53 C52 1.258 . S
O54 Cd45 2.378 1_655 S
O54 C52 1.256 . S
O55 Cd56 2.300 . S
O55 C62 1.275 . S
Cd56 O55 2.300 . S
Cd56 O64 2.381 . S
Cd56 O65 2.378 . S
O57 Cd58 2.385 . S
O57 C62 1.255 . S
Cd58 O57 2.385 . S
Cd58 O59 2.317 . S
O59 Cd58 2.317 . S
O59 C60 1.232 . S
C60 O59 1.232 . S
C60 O61 1.218 . S
O61 C60 1.218 . S
C62 O55 1.275 . S
C62 O57 1.255 . S
C63 O64 1.258 . S
C63 O65 1.256 . S
O64 Cd56 2.381 . S
O64 C63 1.258 . S
O65 Cd56 2.378 . S
O65 C63 1.256 . S
O66 Cd67 2.300 . S
O66 C73 1.275 . S
Cd67 O66 2.300 . S
Cd67 O75 2.381 . S
Cd67 O76 2.378 . S
O68 Cd69 2.385 . S
O68 C73 1.255 . S
Cd69 O68 2.385 . S
Cd69 O70 2.317 . S
O70 Cd69 2.317 . S
O70 C71 1.232 . S
C71 O70 1.232 . S
C71 O72 1.218 . S
O72 C71 1.218 . S
C73 O66 1.275 . S
C73 O68 1.255 . S
C74 O75 1.258 . S
C74 O76 1.256 . S
O75 Cd67 2.381 . S
O75 C74 1.258 . S
O76 Cd67 2.378 . S
O76 C74 1.256 . S
O77 Cd78 2.300 . S
O77 C84 1.275 . S
Cd78 O77 2.300 . S
Cd78 O86 2.381 . S
Cd78 O87 2.378 . S
O79 Cd80 2.385 1_455 S
O79 C84 1.255 . S
Cd80 O79 2.385 1_655 S
Cd80 O81 2.317 . S
O81 Cd80 2.317 . S
O81 C82 1.232 . S
C82 O81 1.232 . S
C82 O83 1.218 . S
O83 C82 1.218 . S
C84 O77 1.275 . S
C84 O79 1.255 . S
C85 O86 1.258 . S
C85 O87 1.256 . S
O86 Cd78 2.381 . S
O86 C85 1.258 . S
O87 Cd78 2.378 . S
O87 C85 1.256 . S
O88 Cd89 2.300 1_565 S
O88 C95 1.275 1_565 S
Cd89 O88 2.300 1_545 S
Cd89 O97 2.381 1_545 S
Cd89 O98 2.378 . S
O90 Cd91 2.385 . S
O90 C95 1.255 . S
Cd91 O90 2.385 . S
Cd91 O92 2.317 . S
O92 Cd91 2.317 . S
O92 C93 1.232 . S
C93 O92 1.232 . S
C93 O94 1.218 . S
O94 C93 1.218 . S
C95 O88 1.275 1_545 S
C95 O90 1.255 . S
C96 O97 1.258 . S
C96 O98 1.256 1_565 S
O97 Cd89 2.381 1_565 S
O97 C96 1.258 . S
O98 Cd89 2.378 . S
O98 C96 1.256 1_545 S
O99 Cd100 2.300 . S
O99 C106 1.275 . S
Cd100 O99 2.300 . S
Cd100 O108 2.381 1_455 S
Cd100 O109 2.378 1_455 S
O101 Cd102 2.385 . S
O101 C106 1.255 . S
Cd102 O101 2.385 . S
Cd102 O103 2.317 1_455 S
O103 Cd102 2.317 1_655 S
O103 C104 1.232 . S
C104 O103 1.232 . S
C104 O105 1.218 1_655 S
O105 C104 1.218 1_455 S
C106 O99 1.275 . S
C106 O101 1.255 . S
C107 O108 1.258 . S
C107 O109 1.256 . S
O108 Cd100 2.381 1_655 S
O108 C107 1.258 . S
O109 Cd100 2.378 1_655 S
O109 C107 1.256 . S
O110 Cd111 2.300 . S
O110 C117 1.275 . S
Cd111 O110 2.300 . S
Cd111 O119 2.381 . S
Cd111 O120 2.378 . S
O112 Cd113 2.385 1_565 S
O112 C117 1.255 . S
Cd113 O112 2.385 1_545 S
Cd113 O114 2.317 . S
O114 Cd113 2.317 . S
O114 C115 1.232 . S
C115 O114 1.232 . S
C115 O116 1.218 . S
O116 C115 1.218 . S
C117 O110 1.275 . S
C117 O112 1.255 . S
C118 O119 1.258 . S
C118 O120 1.256 . S
O119 Cd111 2.381 . S
O119 C118 1.258 . S
O120 Cd111 2.378 . S
O120 C118 1.256 . S
O121 Cd122 2.300 1_556 S
O121 C128 1.275 . S
Cd122 O121 2.300 1_554 S
Cd122 O130 2.381 . S
Cd122 O131 2.379 . S
O123 Cd124 2.385 . S
O123 C128 1.255 . S
Cd124 O123 2.385 . S
Cd124 O125 2.317 . S
O125 Cd124 2.317 . S
O125 C126 1.232 . S
C126 O125 1.232 . S
C126 O127 1.218 . S
O127 C126 1.218 . S
C128 O121 1.275 . S
C128 O123 1.255 . S
C129 O130 1.258 . S
C129 O131 1.256 . S
O130 Cd122 2.381 . S
O130 C129 1.258 . S
O131 Cd122 2.379 . S
O131 C129 1.256 . S
O132 Cd133 2.300 . S
O132 C139 1.275 . S
Cd133 O132 2.300 . S
Cd133 O141 2.381 . S
Cd133 O142 2.378 . S
O134 Cd135 2.385 . S
O134 C139 1.255 . S
Cd135 O134 2.385 . S
Cd135 O136 2.317 . S
O136 Cd135 2.317 . S
O136 C137 1.232 . S
C137 O136 1.232 . S
C137 O138 1.218 . S
O138 C137 1.218 . S
C139 O132 1.275 . S
C139 O134 1.255 . S
C140 O141 1.258 . S
C140 O142 1.256 . S
O141 Cd133 2.381 . S
O141 C140 1.258 . S
O142 Cd133 2.378 . S
O142 C140 1.256 . S
O143 Cd144 2.300 . S
O143 C150 1.275 . S
Cd144 O143 2.300 . S
Cd144 O152 2.381 . S
Cd144 O153 2.378 . S
O145 Cd146 2.385 . S
O145 C150 1.255 . S
Cd146 O145 2.385 . S
Cd146 O147 2.317 . S
O147 Cd146 2.317 . S
O147 C148 1.232 . S
C148 O147 1.232 . S
C148 O149 1.218 . S
O149 C148 1.218 . S
C150 O143 1.275 . S
C150 O145 1.255 . S
C151 O152 1.258 . S
C151 O153 1.256 . S
O152 Cd144 2.381 . S
O152 C151 1.258 . S
O153 Cd144 2.378 . S
O153 C151 1.256 . S
O154 Cd155 2.300 1_455 S
O154 C161 1.275 . S
Cd155 O154 2.300 1_655 S
Cd155 O163 2.381 1_655 S
Cd155 O164 2.378 . S
O156 Cd157 2.385 . S
O156 C161 1.255 1_655 S
Cd157 O156 2.385 . S
Cd157 O158 2.317 . S
O158 Cd157 2.317 . S
O158 C159 1.232 1_545 S
C159 O158 1.232 1_565 S
C159 O160 1.218 . S
O160 C159 1.218 . S
C161 O154 1.275 . S
C161 O156 1.255 1_455 S
C162 O163 1.258 . S
C162 O164 1.256 1_455 S
O163 Cd155 2.381 1_455 S
O163 C162 1.258 . S
O164 Cd155 2.378 . S
O164 C162 1.256 1_655 S
O165 Cd166 2.300 . S
O165 C172 1.275 . S
Cd166 O165 2.300 . S
Cd166 O174 2.381 . S
Cd166 O175 2.378 . S
O167 Cd168 2.385 . S
O167 C172 1.255 . S
Cd168 O167 2.385 . S
Cd168 O169 2.317 . S
O169 Cd168 2.317 . S
O169 C170 1.232 . S
C170 O169 1.232 . S
C170 O171 1.218 . S
O171 C170 1.218 . S
C172 O165 1.275 . S
C172 O167 1.255 . S
C173 O174 1.258 . S
C173 O175 1.256 . S
O174 Cd166 2.381 . S
O174 C173 1.258 . S
O175 Cd166 2.378 . S
O175 C173 1.256 . S
O176 Cd177 2.300 . S
O176 C183 1.275 . S
Cd177 O176 2.300 . S
Cd177 O185 2.381 . S
Cd177 O186 2.378 . S
O178 Cd179 2.385 . S
O178 C183 1.255 1_556 S
Cd179 O178 2.385 . S
Cd179 O180 2.317 . S
O180 Cd179 2.317 . S
O180 C181 1.232 . S
C181 O180 1.232 . S
C181 O182 1.218 . S
O182 C181 1.218 . S
C183 O176 1.275 . S
C183 O178 1.255 1_554 S
C184 O185 1.258 . S
C184 O186 1.256 . S
O185 Cd177 2.381 . S
O185 C184 1.258 . S
O186 Cd177 2.378 . S
O186 C184 1.256 . S
O187 Cd188 2.300 . S
O187 C194 1.275 . S
Cd188 O187 2.300 . S
Cd188 O196 2.381 . S
Cd188 O197 2.378 . S
O189 Cd190 2.385 . S
O189 C194 1.255 . S
Cd190 O189 2.385 . S
Cd190 O191 2.317 . S
O191 Cd190 2.317 . S
O191 C192 1.232 . S
C192 O191 1.232 . S
C192 O193 1.218 . S
O193 C192 1.218 . S
C194 O187 1.275 . S
C194 O189 1.255 . S
C195 O196 1.258 . S
C195 O197 1.256 . S
O196 Cd188 2.381 . S
O196 C195 1.258 . S
O197 Cd188 2.378 . S
O197 C195 1.256 . S
O198 Cd199 2.300 1_554 S
O198 C205 1.275 . S
Cd199 O198 2.300 1_556 S
Cd199 O207 2.381 1_556 S
Cd199 O208 2.378 . S
O200 Cd201 2.385 . S
O200 C205 1.255 1_556 S
Cd201 O200 2.385 . S
Cd201 O202 2.317 . S
O202 Cd201 2.317 . S
O202 C203 1.232 . S
C203 O202 1.232 . S
C203 O204 1.218 . S
O204 C203 1.218 . S
C205 O198 1.275 . S
C205 O200 1.255 1_554 S
C206 O207 1.258 . S
C206 O208 1.256 1_554 S
O207 Cd199 2.381 1_554 S
O207 C206 1.258 . S
O208 Cd199 2.378 . S
O208 C206 1.256 1_556 S
O209 Cd210 2.300 . S
O209 C216 1.275 . S
Cd210 O209 2.300 . S
Cd210 O218 2.381 . S
Cd210 O219 2.378 1_554 S
O211 Cd212 2.385 . S
O211 C216 1.255 . S
Cd212 O211 2.385 . S
Cd212 O213 2.317 1_554 S
O213 Cd212 2.317 1_556 S
O213 C214 1.232 . S
C214 O213 1.232 . S
C214 O215 1.218 1_556 S
O215 C214 1.218 1_554 S
C216 O209 1.275 . S
C216 O211 1.255 . S
C217 O218 1.258 . S
C217 O219 1.256 1_554 S
O218 Cd210 2.381 . S
O218 C217 1.258 . S
O219 Cd210 2.378 1_556 S
O219 C217 1.256 1_556 S
O220 Cd221 2.300 . S
O220 C227 1.275 . S
Cd221 O220 2.300 . S
Cd221 O229 2.381 . S
Cd221 O230 2.378 . S
O222 Cd223 2.385 . S
O222 C227 1.255 . S
Cd223 O222 2.385 . S
Cd223 O224 2.317 . S
O224 Cd223 2.317 . S
O224 C225 1.232 . S
C225 O224 1.232 . S
C225 O226 1.218 . S
O226 C225 1.218 . S
C227 O220 1.275 . S
C227 O222 1.255 . S
C228 O229 1.258 . S
C228 O230 1.256 . S
O229 Cd221 2.381 . S
O229 C228 1.258 . S
O230 Cd221 2.378 . S
O230 C228 1.256 . S
O231 Cd232 2.300 . S
O231 C238 1.275 . S
Cd232 O231 2.300 . S
Cd232 O240 2.381 . S
Cd232 O241 2.378 . S
O233 Cd234 2.385 . S
O233 C238 1.255 . S
Cd234 O233 2.385 . S
Cd234 O235 2.317 . S
O235 Cd234 2.317 . S
O235 C236 1.232 . S
C236 O235 1.232 . S
C236 O237 1.218 . S
O237 C236 1.218 . S
C238 O231 1.275 . S
C238 O233 1.255 . S
C239 O240 1.258 . S
C239 O241 1.256 . S
O240 Cd232 2.381 . S
O240 C239 1.258 . S
O241 Cd232 2.378 . S
O241 C239 1.256 . S
O242 Cd243 2.300 . S
O242 C249 1.275 . S
Cd243 O242 2.300 . S
Cd243 O251 2.381 . S
Cd243 O252 2.378 . S
O244 Cd245 2.385 1_655 S
O244 C249 1.255 . S
Cd245 O244 2.385 1_455 S
Cd245 O246 2.317 . S
O246 Cd245 2.317 . S
O246 C247 1.230 1_455 S
C247 O246 1.230 1_655 S
C247 O248 1.216 . S
O248 C247 1.216 . S
C249 O242 1.275 . S
C249 O244 1.255 . S
C250 O251 1.258 . S
C250 O252 1.256 . S
O251 Cd243 2.381 . S
O251 C250 1.258 . S
O252 Cd243 2.378 . S
O252 C250 1.256 . S
O253 Cd254 2.300 . S
O253 C260 1.275 . S
Cd254 O253 2.300 . S
Cd254 O262 2.381 . S
Cd254 O263 2.378 . S
O255 Cd256 2.385 . S
O255 C260 1.255 . S
Cd256 O255 2.385 . S
Cd256 O257 2.317 . S
O257 Cd256 2.317 . S
O257 C258 1.232 . S
C258 O257 1.232 . S
C258 O259 1.218 . S
O259 C258 1.218 . S
C260 O253 1.275 . S
C260 O255 1.255 . S
C261 O262 1.258 . S
C261 O263 1.256 . S
O262 Cd254 2.381 . S
O262 C261 1.258 . S
O263 Cd254 2.378 . S
O263 C261 1.256 . S
C264 C265 1.369 . S
C264 C266 1.419 . S
C264 H268 0.930 . S
C265 C264 1.369 . S
C265 C274 1.429 . S
C266 C264 1.419 . S
C266 C267 1.363 . S
C266 H269 0.929 . S
C267 C266 1.363 . S
C267 C273 1.428 . S
H268 C264 0.930 . S
H269 C266 0.929 . S
S270 N271 1.613 . S
S270 N272 1.610 1_655 S
N271 S270 1.613 . S
N271 C274 1.350 1_655 S
N272 S270 1.610 1_455 S
N272 C273 1.351 . S
C273 C267 1.428 . S
C273 N272 1.351 . S
C273 C274 1.434 . S
C274 C265 1.429 . S
C274 N271 1.350 1_455 S
C274 C273 1.434 . S
C275 C276 1.369 . S
C275 C277 1.419 . S
C275 H279 0.930 . S
C276 C275 1.369 . S
C276 C285 1.429 1_455 S
C277 C275 1.419 . S
C277 C278 1.363 1_455 S
C277 H280 0.929 . S
C278 C277 1.363 1_655 S
C278 C284 1.428 . S
H279 C275 0.930 . S
H280 C277 0.929 . S
S281 N282 1.613 . S
S281 N283 1.610 . S
N282 S281 1.613 . S
N282 C285 1.350 . S
N283 S281 1.610 . S
N283 C284 1.351 . S
C284 C278 1.428 . S
C284 N283 1.351 . S
C284 C285 1.434 . S
C285 C276 1.429 1_655 S
C285 N282 1.350 . S
C285 C284 1.434 . S
C286 C287 1.369 . S
C286 C288 1.419 . S
C286 H290 0.930 . S
C287 C286 1.369 . S
C287 C296 1.429 . S
C288 C286 1.419 . S
C288 C289 1.363 . S
C288 H291 0.929 . S
C289 C288 1.363 . S
C289 C295 1.428 . S
H290 C286 0.930 . S
H291 C288 0.929 . S
S292 N293 1.613 . S
S292 N294 1.610 . S
N293 S292 1.613 . S
N293 C296 1.350 . S
N294 S292 1.610 . S
N294 C295 1.351 . S
C295 C289 1.428 . S
C295 N294 1.351 . S
C295 C296 1.434 . S
C296 C287 1.429 . S
C296 N293 1.350 . S
C296 C295 1.434 . S
C297 C298 1.369 . S
C297 C299 1.419 . S
C297 H301 0.930 . S
C298 C297 1.369 . S
C298 C307 1.429 . S
C299 C297 1.419 . S
C299 C300 1.363 . S
C299 H302 0.929 . S
C300 C299 1.363 . S
C300 C306 1.428 . S
H301 C297 0.930 . S
H302 C299 0.929 . S
S303 N304 1.613 . S
S303 N305 1.610 . S
N304 S303 1.613 . S
N304 C307 1.350 . S
N305 S303 1.610 . S
N305 C306 1.351 . S
C306 C300 1.428 . S
C306 N305 1.351 . S
C306 C307 1.434 . S
C307 C298 1.429 . S
C307 N304 1.350 . S
C307 C306 1.434 . S
C308 C309 1.369 . S
C308 C310 1.419 . S
C308 H312 0.930 . S
C309 C308 1.369 . S
C309 C318 1.429 . S
C310 C308 1.419 . S
C310 C311 1.363 . S
C310 H313 0.929 . S
C311 C310 1.363 . S
C311 C317 1.428 . S
H312 C308 0.930 . S
H313 C310 0.929 . S
S314 N315 1.611 . S
S314 N316 1.610 . S
N315 S314 1.611 . S
N315 C318 1.348 . S
N316 S314 1.610 . S
N316 C317 1.351 . S
C317 C311 1.428 . S
C317 N316 1.351 . S
C317 C318 1.434 . S
C318 C309 1.429 . S
C318 N315 1.348 . S
C318 C317 1.434 . S
C319 C320 1.369 . S
C319 C321 1.419 . S
C319 H323 0.930 1_556 S
C320 C319 1.369 . S
C320 C329 1.429 . S
C321 C319 1.419 . S
C321 C322 1.363 . S
C321 H324 0.929 . S
C322 C321 1.363 . S
C322 C328 1.428 . S
H323 C319 0.930 1_554 S
H324 C321 0.929 . S
S325 N326 1.613 . S
S325 N327 1.610 . S
N326 S325 1.613 . S
N326 C329 1.350 . S
N327 S325 1.610 . S
N327 C328 1.351 . S
C328 C322 1.428 . S
C328 N327 1.351 . S
C328 C329 1.434 . S
C329 C320 1.429 . S
C329 N326 1.350 . S
C329 C328 1.434 . S
C330 C331 1.368 1_545 S
C330 C332 1.420 . S
C330 H334 0.930 1_545 S
C331 C330 1.368 1_565 S
C331 C340 1.429 . S
C332 C330 1.420 . S
C332 C333 1.363 . S
C332 H335 0.929 . S
C333 C332 1.363 . S
C333 C339 1.428 . S
H334 C330 0.930 1_565 S
H335 C332 0.929 . S
S336 N337 1.613 . S
S336 N338 1.610 1_565 S
N337 S336 1.613 . S
N337 C340 1.350 . S
N338 S336 1.610 1_545 S
N338 C339 1.351 . S
C339 C333 1.428 . S
C339 N338 1.351 . S
C339 C340 1.434 1_545 S
C340 C331 1.429 . S
C340 N337 1.350 . S
C340 C339 1.434 1_565 S
C341 C342 1.369 . S
C341 C343 1.419 . S
C341 H345 0.930 . S
C342 C341 1.369 . S
C342 C351 1.429 . S
C343 C341 1.419 . S
C343 C344 1.363 . S
C343 H346 0.929 . S
C344 C343 1.363 . S
C344 C350 1.428 . S
H345 C341 0.930 . S
H346 C343 0.929 . S
S347 N348 1.613 . S
S347 N349 1.610 . S
N348 S347 1.613 . S
N348 C351 1.350 . S
N349 S347 1.610 . S
N349 C350 1.351 . S
C350 C344 1.428 . S
C350 N349 1.351 . S
C350 C351 1.434 . S
C351 C342 1.429 . S
C351 N348 1.350 . S
C351 C350 1.434 . S
C352 C353 1.369 . S
C352 C354 1.419 . S
C352 H356 0.930 . S
C353 C352 1.369 . S
C353 C362 1.429 . S
C354 C352 1.419 . S
C354 C355 1.363 . S
C354 H357 0.929 . S
C355 C354 1.363 . S
C355 C361 1.428 . S
H356 C352 0.930 . S
H357 C354 0.929 . S
S358 N359 1.613 . S
S358 N360 1.610 . S
N359 S358 1.613 . S
N359 C362 1.350 . S
N360 S358 1.610 . S
N360 C361 1.351 . S
C361 C355 1.428 . S
C361 N360 1.351 . S
C361 C362 1.434 . S
C362 C353 1.429 . S
C362 N359 1.350 . S
C362 C361 1.434 . S
C363 C364 1.369 . S
C363 C365 1.419 . S
C363 H367 0.930 . S
C364 C363 1.369 . S
C364 C373 1.429 . S
C365 C363 1.419 . S
C365 C366 1.363 . S
C365 H368 0.929 . S
C366 C365 1.363 . S
C366 C372 1.428 . S
H367 C363 0.930 . S
H368 C365 0.929 . S
S369 N370 1.613 . S
S369 N371 1.610 . S
N370 S369 1.613 . S
N370 C373 1.350 . S
N371 S369 1.610 . S
N371 C372 1.351 . S
C372 C366 1.428 . S
C372 N371 1.351 . S
C372 C373 1.434 . S
C373 C364 1.429 . S
C373 N370 1.350 . S
C373 C372 1.434 . S
C374 C375 1.369 . S
C374 C376 1.419 . S
C374 H378 0.930 1_554 S
C375 C374 1.369 . S
C375 C384 1.429 . S
C376 C374 1.419 . S
C376 C377 1.363 . S
C376 H379 0.929 . S
C377 C376 1.363 . S
C377 C383 1.428 . S
H378 C374 0.930 1_556 S
H379 C376 0.929 . S
S380 N381 1.613 . S
S380 N382 1.610 . S
N381 S380 1.613 . S
N381 C384 1.350 . S
N382 S380 1.610 . S
N382 C383 1.351 . S
C383 C377 1.428 . S
C383 N382 1.351 . S
C383 C384 1.434 . S
C384 C375 1.429 . S
C384 N381 1.350 . S
C384 C383 1.434 . S
C385 C386 1.369 . S
C385 C387 1.419 . S
C385 H389 0.930 . S
C386 C385 1.369 . S
C386 C395 1.429 . S
C387 C385 1.419 . S
C387 C388 1.363 . S
C387 H390 0.929 . S
C388 C387 1.363 . S
C388 C394 1.428 . S
H389 C385 0.930 . S
H390 C387 0.929 . S
S391 N392 1.613 . S
S391 N393 1.610 . S
N392 S391 1.613 . S
N392 C395 1.350 . S
N393 S391 1.610 . S
N393 C394 1.351 . S
C394 C388 1.428 . S
C394 N393 1.351 . S
C394 C395 1.434 . S
C395 C386 1.429 . S
C395 N392 1.350 . S
C395 C394 1.434 . S
C396 C397 1.369 . S
C396 C398 1.419 . S
C396 H400 0.930 . S
C397 C396 1.369 . S
C397 C406 1.429 . S
C398 C396 1.419 . S
C398 C399 1.363 . S
C398 H401 0.929 . S
C399 C398 1.363 . S
C399 C405 1.428 . S
H400 C396 0.930 . S
H401 C398 0.929 . S
S402 N403 1.613 . S
S402 N404 1.610 . S
N403 S402 1.613 . S
N403 C406 1.350 . S
N404 S402 1.610 . S
N404 C405 1.351 . S
C405 C399 1.428 . S
C405 N404 1.351 . S
C405 C406 1.434 . S
C406 C397 1.429 . S
C406 N403 1.350 . S
C406 C405 1.434 . S
C407 C408 1.369 . S
C407 C409 1.419 . S
C407 H411 0.930 . S
C408 C407 1.369 . S
C408 C417 1.429 . S
C409 C407 1.419 . S
C409 C410 1.363 . S
C409 H412 0.929 . S
C410 C409 1.363 . S
C410 C416 1.428 . S
H411 C407 0.930 . S
H412 C409 0.929 . S
S413 N414 1.613 . S
S413 N415 1.610 . S
N414 S413 1.613 . S
N414 C417 1.350 . S
N415 S413 1.610 . S
N415 C416 1.351 . S
C416 C410 1.428 . S
C416 N415 1.351 . S
C416 C417 1.434 . S
C417 C408 1.429 . S
C417 N414 1.350 . S
C417 C416 1.434 . S
C418 C419 1.369 . S
C418 C420 1.419 . S
C418 H422 0.930 . S
C419 C418 1.369 . S
C419 C428 1.429 . S
C420 C418 1.419 . S
C420 C421 1.363 . S
C420 H423 0.929 . S
C421 C420 1.363 . S
C421 C427 1.428 . S
H422 C418 0.930 . S
H423 C420 0.929 . S
S424 N425 1.613 . S
S424 N426 1.610 . S
N425 S424 1.613 . S
N425 C428 1.350 . S
N426 S424 1.610 . S
N426 C427 1.351 . S
C427 C421 1.428 . S
C427 N426 1.351 . S
C427 C428 1.434 . S
C428 C419 1.429 . S
C428 N425 1.350 . S
C428 C427 1.434 . S
C429 C430 1.369 . S
C429 C431 1.419 . S
C429 H433 0.930 . S
C430 C429 1.369 . S
C430 C439 1.429 . S
C431 C429 1.419 . S
C431 C432 1.363 . S
C431 H434 0.929 . S
C432 C431 1.363 . S
C432 C438 1.428 . S
H433 C429 0.930 . S
H434 C431 0.929 . S
S435 N436 1.613 . S
S435 N437 1.610 . S
N436 S435 1.613 . S
N436 C439 1.350 . S
N437 S435 1.610 . S
N437 C438 1.351 . S
C438 C432 1.428 . S
C438 N437 1.351 . S
C438 C439 1.434 . S
C439 C430 1.429 . S
C439 N436 1.350 . S
C439 C438 1.434 . S
C440 C441 1.369 1_655 S
C440 C442 1.419 . S
C440 H444 0.930 . S
C441 C440 1.369 1_455 S
C441 C450 1.429 . S
C442 C440 1.419 . S
C442 C443 1.363 . S
C442 H445 0.929 . S
C443 C442 1.363 . S
C443 C449 1.428 1_655 S
H444 C440 0.930 . S
H445 C442 0.929 . S
S446 N447 1.613 . S
S446 N448 1.610 . S
N447 S446 1.613 . S
N447 C450 1.350 . S
N448 S446 1.610 . S
N448 C449 1.351 . S
C449 C443 1.428 1_455 S
C449 N448 1.351 . S
C449 C450 1.434 . S
C450 C441 1.429 . S
C450 N447 1.350 . S
C450 C449 1.434 . S
C451 C452 1.369 . S
C451 C453 1.419 . S
C451 H455 0.930 . S
C452 C451 1.369 . S
C452 C461 1.429 . S
C453 C451 1.419 . S
C453 C454 1.363 . S
C453 H456 0.929 . S
C454 C453 1.363 . S
C454 C460 1.428 . S
H455 C451 0.930 . S
H456 C453 0.929 . S
S457 N458 1.613 . S
S457 N459 1.610 . S
N458 S457 1.613 . S
N458 C461 1.350 . S
N459 S457 1.610 . S
N459 C460 1.351 . S
C460 C454 1.428 . S
C460 N459 1.351 . S
C460 C461 1.434 . S
C461 C452 1.429 . S
C461 N458 1.350 . S
C461 C460 1.434 . S
C462 C463 1.369 . S
C462 C464 1.419 . S
C462 H466 0.930 . S
C463 C462 1.369 . S
C463 C472 1.429 . S
C464 C462 1.419 . S
C464 C465 1.363 . S
C464 H467 0.929 . S
C465 C464 1.363 . S
C465 C471 1.428 . S
H466 C462 0.930 . S
H467 C464 0.929 . S
S468 N469 1.613 . S
S468 N470 1.610 . S
N469 S468 1.613 . S
N469 C472 1.350 . S
N470 S468 1.610 . S
N470 C471 1.351 . S
C471 C465 1.428 . S
C471 N470 1.351 . S
C471 C472 1.434 . S
C472 C463 1.429 . S
C472 N469 1.350 . S
C472 C471 1.434 . S
C473 C474 1.369 . S
C473 C475 1.419 . S
C473 H477 0.930 . S
C474 C473 1.369 . S
C474 C483 1.429 . S
C475 C473 1.419 . S
C475 C476 1.363 . S
C475 H478 0.929 . S
C476 C475 1.363 . S
C476 C482 1.428 . S
H477 C473 0.930 . S
H478 C475 0.929 . S
S479 N480 1.613 . S
S479 N481 1.610 . S
N480 S479 1.613 . S
N480 C483 1.350 . S
N481 S479 1.610 . S
N481 C482 1.351 . S
C482 C476 1.428 . S
C482 N481 1.351 . S
C482 C483 1.434 . S
C483 C474 1.429 . S
C483 N480 1.350 . S
C483 C482 1.434 . S
C484 C485 1.369 . S
C484 C486 1.419 . S
C484 H488 0.930 . S
C485 C484 1.369 . S
C485 C494 1.429 . S
C486 C484 1.419 . S
C486 C487 1.363 . S
C486 H489 0.929 . S
C487 C486 1.363 . S
C487 C493 1.428 . S
H488 C484 0.930 . S
H489 C486 0.929 . S
S490 N491 1.613 . S
S490 N492 1.610 . S
N491 S490 1.613 . S
N491 C494 1.350 1_545 S
N492 S490 1.610 . S
N492 C493 1.351 1_545 S
C493 C487 1.428 . S
C493 N492 1.351 1_565 S
C493 C494 1.434 . S
C494 C485 1.429 . S
C494 N491 1.350 1_565 S
C494 C493 1.434 . S
C495 C496 1.369 . S
C495 C497 1.419 . S
C495 H499 0.930 . S
C496 C495 1.369 . S
C496 C505 1.429 . S
C497 C495 1.419 . S
C497 C498 1.363 . S
C497 H500 0.929 . S
C498 C497 1.363 . S
C498 C504 1.428 . S
H499 C495 0.930 . S
H500 C497 0.929 . S
S501 N502 1.613 . S
S501 N503 1.610 . S
N502 S501 1.613 . S
N502 C505 1.350 . S
N503 S501 1.610 . S
N503 C504 1.351 . S
C504 C498 1.428 . S
C504 N503 1.351 . S
C504 C505 1.434 . S
C505 C496 1.429 . S
C505 N502 1.350 . S
C505 C504 1.434 . S
C506 C507 1.369 . S
C506 C508 1.419 . S
C506 H510 0.930 . S
C507 C506 1.369 . S
C507 C516 1.429 . S
C508 C506 1.419 . S
C508 C509 1.363 . S
C508 H511 0.929 . S
C509 C508 1.363 . S
C509 C515 1.428 . S
H510 C506 0.930 . S
H511 C508 0.929 . S
S512 N513 1.613 . S
S512 N514 1.610 . S
N513 S512 1.613 . S
N513 C516 1.350 . S
N514 S512 1.610 . S
N514 C515 1.351 . S
C515 C509 1.428 . S
C515 N514 1.351 . S
C515 C516 1.434 . S
C516 C507 1.429 . S
C516 N513 1.350 . S
C516 C515 1.434 . S
C517 C518 1.369 . S
C517 C519 1.419 . S
C517 H521 0.930 . S
C518 C517 1.369 . S
C518 C527 1.429 . S
C519 C517 1.419 . S
C519 C520 1.363 . S
C519 H522 0.929 . S
C520 C519 1.363 . S
C520 C526 1.428 . S
H521 C517 0.930 . S
H522 C519 0.929 . S
S523 N524 1.613 . S
S523 N525 1.610 . S
N524 S523 1.613 . S
N524 C527 1.350 1_554 S
N525 S523 1.610 . S
N525 C526 1.351 1_554 S
C526 C520 1.428 . S
C526 N525 1.351 1_556 S
C526 C527 1.434 . S
C527 C518 1.429 . S
C527 N524 1.350 1_556 S
C527 C526 1.434 . S
C528 C529 1.369 . S
C528 C530 1.419 . S
C528 H532 0.930 . S
C529 C528 1.369 . S
C529 C538 1.429 . S
C530 C528 1.419 . S
C530 C531 1.363 . S
C530 H533 0.929 . S
C531 C530 1.363 . S
C531 C537 1.428 . S
H532 C528 0.930 . S
H533 C530 0.929 . S
S534 N535 1.613 1_455 S
S534 N536 1.610 1_455 S
N535 S534 1.613 1_655 S
N535 C538 1.350 . S
N536 S534 1.610 1_655 S
N536 C537 1.351 . S
C537 C531 1.428 . S
C537 N536 1.351 . S
C537 C538 1.434 . S
C538 C529 1.429 . S
C538 N535 1.350 . S
C538 C537 1.434 . S
C539 C540 1.369 . S
C539 C541 1.419 . S
C539 H543 0.930 . S
C540 C539 1.369 . S
C540 C549 1.429 . S
C541 C539 1.419 . S
C541 C542 1.363 . S
C541 H544 0.929 . S
C542 C541 1.363 . S
C542 C548 1.428 . S
H543 C539 0.930 . S
H544 C541 0.929 . S
S545 N546 1.613 . S
S545 N547 1.610 . S
N546 S545 1.613 . S
N546 C549 1.350 . S
N547 S545 1.610 . S
N547 C548 1.351 . S
C548 C542 1.428 . S
C548 N547 1.351 . S
C548 C549 1.434 . S
C549 C540 1.429 . S
C549 N546 1.350 . S
C549 C548 1.434 . S
C550 C551 1.369 . S
C550 C552 1.419 . S
C550 H554 0.930 . S
C551 C550 1.369 . S
C551 C560 1.429 . S
C552 C550 1.419 . S
C552 C553 1.363 . S
C552 H555 0.929 . S
C553 C552 1.363 . S
C553 C559 1.428 . S
H554 C550 0.930 . S
H555 C552 0.929 . S
S556 N557 1.613 . S
S556 N558 1.610 . S
N557 S556 1.613 . S
N557 C560 1.350 . S
N558 S556 1.610 . S
N558 C559 1.351 . S
C559 C553 1.428 . S
C559 N558 1.351 . S
C559 C560 1.434 . S
C560 C551 1.429 . S
C560 N557 1.350 . S
C560 C559 1.434 . S
C561 C562 1.369 . S
C561 C563 1.419 . S
C561 H565 0.930 . S
C562 C561 1.369 . S
C562 C571 1.429 . S
C563 C561 1.419 . S
C563 C564 1.363 . S
C563 H566 0.929 . S
C564 C563 1.363 . S
C564 C570 1.428 . S
H565 C561 0.930 . S
H566 C563 0.929 . S
S567 N568 1.613 . S
S567 N569 1.610 . S
N568 S567 1.613 . S
N568 C571 1.350 . S
N569 S567 1.610 . S
N569 C570 1.351 . S
C570 C564 1.428 . S
C570 N569 1.351 . S
C570 C571 1.434 . S
C571 C562 1.429 . S
C571 N568 1.350 . S
C571 C570 1.434 . S
C572 C573 1.369 . S
C572 C574 1.419 . S
C572 H576 0.930 . S
C573 C572 1.369 . S
C573 C582 1.429 . S
C574 C572 1.419 . S
C574 C575 1.363 . S
C574 H577 0.929 . S
C575 C574 1.363 . S
C575 C581 1.428 . S
H576 C572 0.930 . S
H577 C574 0.929 . S
S578 N579 1.613 . S
S578 N580 1.610 . S
N579 S578 1.613 . S
N579 C582 1.350 . S
N580 S578 1.610 . S
N580 C581 1.351 . S
C581 C575 1.428 . S
C581 N580 1.351 . S
C581 C582 1.434 . S
C582 C573 1.429 . S
C582 N579 1.350 . S
C582 C581 1.434 . S
C583 C584 1.369 1_556 S
C583 C585 1.419 . S
C583 H587 0.930 . S
C584 C583 1.369 1_554 S
C584 C593 1.429 . S
C585 C583 1.419 . S
C585 C586 1.363 . S
C585 H588 0.929 . S
C586 C585 1.363 . S
C586 C592 1.428 . S
H587 C583 0.930 . S
H588 C585 0.929 . S
S589 N590 1.613 . S
S589 N591 1.610 1_554 S
N590 S589 1.613 . S
N590 C593 1.350 . S
N591 S589 1.610 1_556 S
N591 C592 1.351 . S
C592 C586 1.428 . S
C592 N591 1.351 . S
C592 C593 1.434 1_556 S
C593 C584 1.429 . S
C593 N590 1.350 . S
C593 C592 1.434 1_554 S
C594 C595 1.369 . S
C594 C596 1.419 1_454 S
C594 H598 0.930 1_554 S
C595 C594 1.369 . S
C595 C604 1.429 . S
C596 C594 1.419 1_656 S
C596 C597 1.363 1_556 S
C596 H599 0.929 . S
C597 C596 1.363 1_554 S
C597 C603 1.428 1_655 S
H598 C594 0.930 1_556 S
H599 C596 0.929 . S
S600 N601 1.613 . S
S600 N602 1.610 . S
N601 S600 1.613 . S
N601 C604 1.350 . S
N602 S600 1.610 . S
N602 C603 1.351 . S
C603 C597 1.428 1_455 S
C603 N602 1.351 . S
C603 C604 1.434 . S
C604 C595 1.429 . S
C604 N601 1.350 . S
C604 C603 1.434 . S
C605 C606 1.369 . S
C605 C607 1.419 . S
C605 H609 0.930 . S
C606 C605 1.369 . S
C606 C615 1.429 1_655 S
C607 C605 1.419 . S
C607 C608 1.363 . S
C607 H610 0.929 . S
C608 C607 1.363 . S
C608 C614 1.428 1_655 S
H609 C605 0.930 . S
H610 C607 0.929 . S
S611 N612 1.613 . S
S611 N613 1.610 . S
N612 S611 1.613 . S
N612 C615 1.350 . S
N613 S611 1.610 . S
N613 C614 1.351 . S
C614 C608 1.428 1_455 S
C614 N613 1.351 . S
C614 C615 1.434 . S
C615 C606 1.429 1_455 S
C615 N612 1.350 . S
C615 C614 1.434 . S
C616 C617 1.369 . S
C616 C618 1.419 . S
C616 H620 0.930 . S
C617 C616 1.369 . S
C617 C626 1.429 . S
C618 C616 1.419 . S
C618 C619 1.363 . S
C618 H621 0.929 . S
C619 C618 1.363 . S
C619 C625 1.428 . S
H620 C616 0.930 . S
H621 C618 0.929 . S
S622 N623 1.613 . S
S622 N624 1.610 . S
N623 S622 1.613 . S
N623 C626 1.350 . S
N624 S622 1.610 . S
N624 C625 1.351 . S
C625 C619 1.428 . S
C625 N624 1.351 . S
C625 C626 1.434 . S
C626 C617 1.429 . S
C626 N623 1.350 . S
C626 C625 1.434 . S
C627 C628 1.369 . S
C627 C629 1.419 . S
C627 H631 0.930 . S
C628 C627 1.369 . S
C628 C637 1.429 . S
C629 C627 1.419 . S
C629 C630 1.363 . S
C629 H632 0.929 . S
C630 C629 1.363 . S
C630 C636 1.428 . S
H631 C627 0.930 . S
H632 C629 0.929 . S
S633 N634 1.613 . S
S633 N635 1.610 1_455 S
N634 S633 1.613 . S
N634 C637 1.350 1_455 S
N635 S633 1.610 1_655 S
N635 C636 1.351 . S
C636 C630 1.428 . S
C636 N635 1.351 . S
C636 C637 1.434 . S
C637 C628 1.429 . S
C637 N634 1.350 1_655 S
C637 C636 1.434 . S
C638 C639 1.369 . S
C638 C640 1.419 . S
C638 H642 0.930 . S
C639 C638 1.369 . S
C639 C648 1.429 . S
C640 C638 1.419 . S
C640 C641 1.363 . S
C640 H643 0.929 . S
C641 C640 1.363 . S
C641 C647 1.428 . S
H642 C638 0.930 . S
H643 C640 0.929 . S
S644 N645 1.613 . S
S644 N646 1.610 . S
N645 S644 1.613 . S
N645 C648 1.350 . S
N646 S644 1.610 . S
N646 C647 1.351 . S
C647 C641 1.428 . S
C647 N646 1.351 . S
C647 C648 1.434 . S
C648 C639 1.429 . S
C648 N645 1.350 . S
C648 C647 1.434 . S
C649 C650 1.369 . S
C649 C651 1.419 . S
C649 H653 0.930 . S
C650 C649 1.369 . S
C650 C659 1.429 . S
C651 C649 1.419 . S
C651 C652 1.363 . S
C651 H654 0.929 . S
C652 C651 1.363 . S
C652 C658 1.428 . S
H653 C649 0.930 . S
H654 C651 0.929 . S
S655 N656 1.613 . S
S655 N657 1.610 . S
N656 S655 1.613 . S
N656 C659 1.350 . S
N657 S655 1.610 . S
N657 C658 1.351 . S
C658 C652 1.428 . S
C658 N657 1.351 . S
C658 C659 1.434 . S
C659 C650 1.429 . S
C659 N656 1.350 . S
C659 C658 1.434 . S
C265 C84 1.566 . S
C267 C7 1.501 . S
C276 C51 1.787 . S
C278 C18 1.561 . S
C287 C62 1.846 . S
C289 C29 1.906 . S
C298 C73 1.953 . S
C300 C40 1.832 . S
C309 C95 1.576 1_565 S
C311 C139 1.575 . S
C320 C150 1.345 . S
C322 C106 1.339 . S
C331 C117 1.625 . S
C333 C161 1.605 . S
C342 C172 1.209 . S
C344 C128 1.216 . S
C353 C183 1.352 . S
C355 C238 1.274 . S
C364 C194 1.492 . S
C366 C216 1.578 . S
C375 C205 1.384 . S
C377 C249 1.418 . S
C386 C260 1.411 . S
C388 C227 1.224 . S
C397 C8 1.634 . S
C399 C173 1.664 . S
C408 C19 1.821 . S
C410 C137 1.875 . S
C419 C151 1.520 . S
C421 C27 1.513 . S
C430 C162 1.883 . S
C432 C41 1.852 . S
C441 C49 1.663 . S
C443 C104 1.117 . S
C452 C60 1.701 . S
C454 C118 1.807 . S
C463 C126 1.741 . S
C465 C71 1.769 . S
C474 C85 1.606 . S
C476 C93 1.555 . S
C485 C129 1.744 1_565 S
C487 C140 1.787 . S
C496 C228 1.682 . S
C498 C181 1.631 . S
C507 C192 1.382 . S
C509 C239 1.694 . S
C518 C203 1.565 . S
C520 C214 1.428 . S
C529 C159 1.809 . S
C531 C107 1.727 . S
C540 C63 1.895 . S
C542 C206 1.855 . S
C551 C258 1.343 . S
C553 C74 1.603 . S
C562 C82 1.666 . S
C564 C184 1.741 . S
C573 C195 1.682 . S
C575 C52 1.748 . S
C584 C236 1.248 . S
C586 C38 1.678 . S
C595 C5 1.236 . S
C597 C217 1.630 . S
C606 C16 1.104 . S
C608 C247 1.697 . S
C617 C225 1.223 . S
C619 C30 1.685 . S
C628 C250 1.740 . S
C630 C261 1.738 . S
C639 C96 1.714 . S
C641 C148 1.311 . S
C650 C170 1.457 . S
C652 C115 1.382 . S
