# Generated by pormake.
# Topology fne, (5)-cn, num edge types: 1
# Building blocks:
#     Node 0, Type 0, BuildingBlock: BEQFEK_clean_sbu_0, # of connection points: 5
#     Node 1, Type 0, BuildingBlock: BEQFEK_clean_sbu_0, # of connection points: 5
#     Node 2, Type 0, BuildingBlock: BEQFEK_clean_sbu_0, # of connection points: 5
#     Node 3, Type 0, BuildingBlock: BEQFEK_clean_sbu_0, # of connection points: 5
#     Node 4, Type 0, BuildingBlock: BEQFEK_clean_sbu_0, # of connection points: 5
#     Node 5, Type 0, BuildingBlock: BEQFEK_clean_sbu_0, # of connection points: 5
#     Edge 6, Type (0, 0), BuildingBlock: UVAHIK_clean_linker_0, # of connection points: 2
#     Edge 7, Type (0, 0), BuildingBlock: UVAHIK_clean_linker_0, # of connection points: 2
#     Edge 8, Type (0, 0), BuildingBlock: UVAHIK_clean_linker_0, # of connection points: 2
#     Edge 9, Type (0, 0), BuildingBlock: UVAHIK_clean_linker_0, # of connection points: 2
#     Edge 10, Type (0, 0), BuildingBlock: UVAHIK_clean_linker_0, # of connection points: 2
#     Edge 11, Type (0, 0), BuildingBlock: UVAHIK_clean_linker_0, # of connection points: 2
#     Edge 12, Type (0, 0), BuildingBlock: UVAHIK_clean_linker_0, # of connection points: 2
#     Edge 13, Type (0, 0), BuildingBlock: UVAHIK_clean_linker_0, # of connection points: 2
#     Edge 14, Type (0, 0), BuildingBlock: UVAHIK_clean_linker_0, # of connection points: 2
#     Edge 15, Type (0, 0), BuildingBlock: UVAHIK_clean_linker_0, # of connection points: 2
#     Edge 16, Type (0, 0), BuildingBlock: UVAHIK_clean_linker_0, # of connection points: 2
#     Edge 17, Type (0, 0), BuildingBlock: UVAHIK_clean_linker_0, # of connection points: 2
#     Edge 18, Type (0, 0), BuildingBlock: UVAHIK_clean_linker_0, # of connection points: 2
#     Edge 19, Type (0, 0), BuildingBlock: UVAHIK_clean_linker_0, # of connection points: 2
#     Edge 20, Type (0, 0), BuildingBlock: UVAHIK_clean_linker_0, # of connection points: 2
# Relax obj value: 0.201
# Max RMSD: 0.174
# Mean RMSD: 0.174
data_MOF--net-fne--node1-BEQFEK_clean_sbu_0--edge1-UVAHIK_clean_linker_0
_symmetry_space_group_name_H-M    P1
_symmetry_Int_Tables_number       1
_symmetry_cell_setting            triclinic
loop_
_symmetry_equiv_pos_as_xyz
'x, y, z'
_cell_length_a     56.477732
_cell_length_b     56.478105
_cell_length_c     22.827537
_cell_angle_alpha  90.005313
_cell_angle_beta   90.019591
_cell_angle_gamma 120.01006
loop_
_atom_site_label
_atom_site_type_symbol
_atom_site_fract_x
_atom_site_fract_y
_atom_site_fract_z
_atom_type_partial_charge
Co0 Co 0.55749 0.30577 0.97535 0.0
Co1 Co 0.53891 0.2796 0.09948 0.0
C2 C 0.58959 0.28607 0.04067 0.0
O3 O 0.58643 0.29733 -0.0046 0.0
O4 O 0.57284 0.27861 0.08323 0.0
C5 C 0.58917 0.33501 0.87439 0.0
O6 O 0.60971 0.33556 0.90263 0.0
C7 C 0.54857 0.28306 0.22387 0.0
C8 C 0.50795 0.2545 0.2609 0.0
C9 C 0.53462 0.27346 0.27631 0.0
N10 N 0.53097 0.27052 0.17975 0.0
N11 N 0.5068 0.2531 0.20196 0.0
C12 C 0.57721 0.30609 0.21508 0.0
H13 H 0.57983 0.31472 0.17035 0.0
H14 H 0.5824 0.32245 0.24795 0.0
H15 H 0.5916 0.29826 0.22043 0.0
C16 C 0.55515 0.35139 0.03415 0.0
N17 N 0.55282 0.32646 0.03435 0.0
N18 N 0.54347 0.31483 0.08554 0.0
C19 C 0.53882 0.33171 0.1191 0.0
C20 C 0.54646 0.35559 0.08806 0.0
C21 C 0.56579 0.3707 0.98341 0.0
H22 H 0.54965 0.3638 0.94934 0.0
H23 H 0.58366 0.37046 0.964 0.0
H24 H 0.57185 0.39186 -0.00312 0.0
O25 O 0.52301 0.27076 0.9628 0.0
O26 O 0.50919 0.2518 0.05052 0.0
H27 H 0.51373 0.33561 0.18568 0.0
H28 H 0.53949 0.32852 0.21239 0.0
C29 C 0.52438 0.32395 0.17695 0.0
H30 H 0.50907 0.30186 0.17761 0.0
H31 H 0.48932 0.24116 0.17696 0.0
O32 O 0.56592 0.32464 0.89903 0.0
C33 C 0.50599 0.2513 -0.00479 0.0
Co34 Co 0.4893 0.60969 0.3038 0.0
Co35 Co 0.49764 0.59453 0.43058 0.0
C36 C 0.54022 0.64534 0.36913 0.0
O37 O 0.52582 0.64051 0.32314 0.0
O38 O 0.53144 0.62931 0.41292 0.0
C39 C 0.48831 0.6406 0.20519 0.0
O40 O 0.50523 0.66193 0.23655 0.0
C41 C 0.50208 0.60632 0.55409 0.0
C42 C 0.49483 0.56787 0.59538 0.0
C43 C 0.49931 0.59382 0.60776 0.0
N44 N 0.49879 0.58842 0.51185 0.0
N45 N 0.4948 0.56555 0.53659 0.0
C46 C 0.50855 0.63506 0.54228 0.0
H47 H 0.52772 0.64575 0.5166 0.0
H48 H 0.49212 0.63484 0.51525 0.0
H49 H 0.51133 0.64678 0.58312 0.0
C50 C 0.43882 0.60346 0.35724 0.0
N51 N 0.46293 0.6041 0.36086 0.0
N52 N 0.46547 0.596 0.41333 0.0
C53 C 0.44258 0.58911 0.44429 0.0
C54 C 0.42516 0.59389 0.40993 0.0
C55 C 0.42828 0.60978 0.30282 0.0
H56 H 0.42653 0.59546 0.26756 0.0
H57 H 0.4431 0.63081 0.28809 0.0
H58 H 0.40802 0.60799 0.31003 0.0
O59 O 0.49214 0.57625 0.29508 0.0
O60 O 0.49823 0.56512 0.38501 0.0
H61 H 0.44446 0.56252 0.50903 0.0
H62 H 0.41491 0.56671 0.51551 0.0
C63 C 0.43699 0.57723 0.50477 0.0
H64 H 0.44782 0.59388 0.53708 0.0
H65 H 0.4914 0.5482 0.51344 0.0
O66 O 0.47857 0.61677 0.22668 0.0
C67 C 0.49582 0.56075 0.32997 0.0
Co68 Co 0.11825 0.54513 0.64056 0.0
Co69 Co 0.14415 0.55054 0.76404 0.0
C70 C 0.13716 0.5955 0.71161 0.0
O71 O 0.12613 0.58185 0.66531 0.0
O72 O 0.14477 0.58565 0.75283 0.0
C73 C 0.09239 0.55092 0.53673 0.0
O74 O 0.09709 0.57416 0.55993 0.0
C75 C 0.14336 0.5552 0.88973 0.0
C76 C 0.16936 0.5386 0.91986 0.0
C77 C 0.1526 0.54836 0.93956 0.0
N78 N 0.15397 0.54955 0.84285 0.0
N79 N 0.16994 0.54015 0.86096 0.0
C80 C 0.12194 0.56338 0.88587 0.0
H81 H 0.11196 0.55814 0.84222 0.0
H82 H 0.10624 0.55311 0.92045 0.0
H83 H 0.13173 0.58581 0.89221 0.0
C84 C 0.07382 0.49474 0.69373 0.0
N85 N 0.09792 0.51824 0.69706 0.0
N86 N 0.10914 0.51981 0.74849 0.0
C87 C 0.09269 0.49701 0.77923 0.0
C88 C 0.06979 0.48049 0.74561 0.0
C89 C 0.05635 0.48525 0.63995 0.0
H90 H 0.06797 0.48256 0.6039 0.0
H91 H 0.05144 0.50114 0.62607 0.0
H92 H 0.03714 0.46565 0.64744 0.0
O93 O 0.15339 0.54638 0.62507 0.0
O94 O 0.17196 0.55 0.71268 0.0
H95 H 0.12001 0.49412 0.84014 0.0
H96 H 0.0844 0.46963 0.85308 0.0
C97 C 0.09896 0.49085 0.83919 0.0
H98 H 0.09761 0.50484 0.8712 0.0
H99 H 0.18015 0.53357 0.83311 0.0
O100 O 0.09881 0.53559 0.56506 0.0
C101 C 0.17276 0.54839 0.65717 0.0
Co102 Co 0.81411 0.17125 0.97109 0.0
Co103 Co 0.83213 0.19741 0.09523 0.0
C104 C 0.78062 0.18906 0.03564 0.0
O105 O 0.78389 0.1778 0.99057 0.0
O106 O 0.79772 0.19728 0.07759 0.0
C107 C 0.78311 0.14051 0.87109 0.0
O108 O 0.762 0.13811 0.90036 0.0
C109 C 0.82158 0.1894 0.21907 0.0
C110 C 0.85831 0.22364 0.25947 0.0
C111 C 0.83373 0.20029 0.27249 0.0
N112 N 0.83841 0.20515 0.17638 0.0
N113 N 0.86026 0.22577 0.20062 0.0
C114 C 0.79403 0.16479 0.20838 0.0
H115 H 0.78594 0.16604 0.16504 0.0
H116 H 0.79576 0.14609 0.2087 0.0
H117 H 0.77946 0.16281 0.24325 0.0
C118 C 0.8194 0.12703 0.02879 0.0
N119 N 0.81987 0.15111 0.02963 0.0
N120 N 0.82958 0.16319 0.08027 0.0
C121 C 0.83669 0.14774 0.11244 0.0
C122 C 0.82994 0.12404 0.0815 0.0
C123 C 0.80916 0.10755 0.97829 0.0
H124 H 0.82518 0.11491 0.9439 0.0
H125 H 0.79076 0.10685 0.95927 0.0
H126 H 0.80405 0.08667 0.99197 0.0
O127 O 0.84782 0.20731 0.95989 0.0
O128 O 0.86159 0.22619 0.04786 0.0
H129 H 0.86738 0.1486 0.17023 0.0
H130 H 0.84015 0.15048 0.20607 0.0
C131 C 0.85365 0.15733 0.16712 0.0
H132 H 0.8663 0.17992 0.16756 0.0
H133 H 0.87666 0.24097 0.17707 0.0
O134 O 0.80665 0.15267 0.89463 0.0
C135 C 0.86456 0.22696 0.99243 0.0
Co136 Co 0.88075 0.86687 0.3036 0.0
Co137 Co 0.87344 0.88482 0.42859 0.0
C138 C 0.82861 0.83519 0.36838 0.0
O139 O 0.84294 0.83846 0.32292 0.0
O140 O 0.83819 0.85147 0.41167 0.0
C141 C 0.87798 0.83481 0.20314 0.0
O142 O 0.85821 0.81435 0.23199 0.0
C143 C 0.86718 0.87463 0.55279 0.0
C144 C 0.87966 0.9152 0.59073 0.0
C145 C 0.87169 0.8884 0.60554 0.0
N146 N 0.8724 0.89245 0.50908 0.0
N147 N 0.8794 0.91659 0.53184 0.0
C148 C 0.86122 0.84592 0.5433 0.0
H149 H 0.86703 0.84336 0.49833 0.0
H150 H 0.87236 0.84047 0.57572 0.0
H151 H 0.83897 0.83169 0.54884 0.0
C152 C 0.92837 0.86811 0.36174 0.0
N153 N 0.90583 0.87055 0.36251 0.0
N154 N 0.90366 0.87965 0.41411 0.0
C155 C 0.92518 0.88402 0.44738 0.0
C156 C 0.94132 0.87645 0.41571 0.0
C157 C 0.9371 0.85797 0.31022 0.0
H158 H 0.94596 0.87427 0.27645 0.0
H159 H 0.91905 0.84001 0.2908 0.0
H160 H 0.9525 0.85217 0.32282 0.0
O161 O 0.88145 0.90205 0.29213 0.0
O162 O 0.87612 0.91508 0.38063 0.0
H163 H 0.92547 0.91381 0.5064 0.0
H164 H 0.95441 0.9089 0.51391 0.0
C165 C 0.93209 0.89838 0.50537 0.0
H166 H 0.92153 0.88324 0.54073 0.0
H167 H 0.8851 0.9342 0.50723 0.0
O168 O 0.89082 0.85822 0.22712 0.0
C169 C 0.87926 0.91893 0.32553 0.0
Co170 Co 0.25138 0.93393 0.64171 0.0
Co171 Co 0.22737 0.92767 0.76757 0.0
C172 C 0.23475 0.88363 0.71134 0.0
O173 O 0.24464 0.89734 0.66461 0.0
O174 O 0.22764 0.89322 0.75393 0.0
C175 C 0.28118 0.93155 0.54164 0.0
O176 O 0.283 0.91259 0.57125 0.0
C177 C 0.23158 0.92245 0.89196 0.0
C178 C 0.20405 0.93579 0.92922 0.0
C179 C 0.22249 0.92738 0.94444 0.0
N180 N 0.21922 0.9278 0.84797 0.0
N181 N 0.20244 0.93535 0.8703 0.0
C182 C 0.25412 0.91614 0.88292 0.0
H183 H 0.24566 0.89375 0.88679 0.0
H184 H 0.26316 0.92265 0.83863 0.0
H185 H 0.27034 0.92651 0.91646 0.0
C186 C 0.29589 0.98481 0.69348 0.0
N187 N 0.2722 0.96093 0.69773 0.0
N188 N 0.2616 0.95903 0.75001 0.0
C189 C 0.278 0.98198 0.78041 0.0
C190 C 0.30026 -0.00105 0.74567 0.0
C191 C 0.31262 0.9947 0.63878 0.0
H192 H 0.3001 0.99642 0.60338 0.0
H193 H 0.3184 0.97948 0.62458 0.0
H194 H 0.33134 0.01485 0.64529 0.0
O195 O 0.21563 0.93187 0.63023 0.0
O196 O 0.19805 0.92716 0.71941 0.0
H197 H 0.25074 0.98318 0.84411 0.0
H198 H 0.28605 0.00932 0.85422 0.0
C199 C 0.27222 0.9878 0.84114 0.0
H200 H 0.27521 0.97458 0.87254 0.0
H201 H 0.19071 0.94119 0.84537 0.0
O202 O 0.26952 0.94351 0.56477 0.0
C203 C 0.19644 0.92902 0.66409 0.0
C204 C 0.61908 0.272 0.09474 0.0
C205 C 0.61165 0.27927 0.04188 0.0
C206 C 0.63782 0.26273 0.09502 0.0
C207 C 0.68961 0.25783 0.00274 0.0
H208 H 0.67513 0.1984 0.10883 0.0
C209 C 0.74523 0.19603 0.98539 0.0
C210 C 0.75795 0.19496 0.03745 0.0
C211 C 0.72635 0.20513 0.98622 0.0
C212 C 0.67941 0.21504 0.07915 0.0
H213 H 0.6185 0.28315 0.94801 0.0
H214 H 0.65047 0.26621 0.94817 0.0
H215 H 0.64539 0.21819 0.10998 0.0
H216 H 0.75977 0.20109 0.13156 0.0
H217 H 0.72629 0.21643 0.133 0.0
H218 H 0.72324 0.25403 0.97103 0.0
C219 C 0.64239 0.26822 0.98969 0.0
C220 C 0.66255 0.22656 0.08003 0.0
C221 C 0.62395 0.27787 0.98953 0.0
C222 C 0.7504 0.20183 0.0907 0.0
C223 C 0.7312 0.21052 0.09161 0.0
C224 C 0.7062 0.24603 0.00132 0.0
C225 C 0.64925 0.26013 0.04233 0.0
C226 C 0.66749 0.24818 0.04197 0.0
C227 C 0.71951 0.21285 0.03922 0.0
C228 C 0.70128 0.2246 0.03959 0.0
H229 H 0.61012 0.27311 0.13589 0.0
H230 H 0.64313 0.25734 0.13655 0.0
H231 H 0.69435 0.27473 0.97352 0.0
H232 H 0.75066 0.19091 0.94367 0.0
H233 H 0.71737 0.20652 0.94534 0.0
C234 C 0.78488 0.80605 0.42211 0.0
C235 C 0.79955 0.81356 0.36922 0.0
C236 C 0.75675 0.78779 0.42227 0.0
C237 C 0.6995 0.73703 0.32985 0.0
H238 H 0.65549 0.75189 0.4379 0.0
C239 C 0.58194 0.68081 0.31706 0.0
C240 C 0.56865 0.6684 0.36977 0.0
C241 C 0.60987 0.69993 0.3167 0.0
C242 C 0.66758 0.74751 0.40764 0.0
H243 H 0.79638 0.80731 0.27515 0.0
H244 H 0.74725 0.77609 0.27516 0.0
H245 H 0.70508 0.78132 0.4379 0.0
H246 H 0.57391 0.66743 0.46378 0.0
H247 H 0.62257 0.70127 0.46309 0.0
H248 H 0.66177 0.70352 0.29892 0.0
C249 C 0.75747 0.7838 0.31674 0.0
C250 C 0.69599 0.7642 0.40786 0.0
C251 C 0.78567 0.80179 0.31668 0.0
C252 C 0.58355 0.67656 0.42244 0.0
C253 C 0.61138 0.69597 0.42212 0.0
C254 C 0.67107 0.72058 0.32914 0.0
C255 C 0.74258 0.7769 0.36946 0.0
C256 C 0.71234 0.75907 0.36921 0.0
C257 C 0.62491 0.70731 0.3691 0.0
C258 C 0.65489 0.7256 0.36821 0.0
H259 H 0.79507 0.81459 0.4634 0.0
H260 H 0.7461 0.78241 0.46384 0.0
H261 H 0.71141 0.73218 0.30013 0.0
H262 H 0.57106 0.67496 0.27573 0.0
H263 H 0.61983 0.70864 0.27532 0.0
C264 C 0.14415 0.63843 0.66434 0.0
C265 C 0.14362 0.62425 0.71531 0.0
C266 C 0.15347 0.66642 0.66637 0.0
C267 C 0.19595 0.7276 0.75784 0.0
H268 H 0.16712 0.76115 0.65318 0.0
C269 C 0.22249 0.84109 0.76805 0.0
C270 C 0.22873 0.85502 0.71418 0.0
C271 C 0.21338 0.8131 0.76987 0.0
C272 C 0.17547 0.75202 0.68232 0.0
H273 H 0.15106 0.62798 0.80898 0.0
H274 H 0.16632 0.67665 0.81299 0.0
H275 H 0.14618 0.71155 0.65525 0.0
H276 H 0.23125 0.85073 0.62024 0.0
H277 H 0.21493 0.80173 0.62357 0.0
H278 H 0.22478 0.76831 0.78584 0.0
C279 C 0.16043 0.66636 0.77102 0.0
C280 C 0.16354 0.72362 0.68348 0.0
C281 C 0.15146 0.6384 0.76885 0.0
C282 C 0.22665 0.84061 0.66243 0.0
C283 C 0.21713 0.81256 0.66422 0.0
C284 C 0.20761 0.75601 0.75728 0.0
C285 C 0.16211 0.68086 0.71959 0.0
C286 C 0.1738 0.71102 0.72081 0.0
C287 C 0.20997 0.7985 0.71782 0.0
C288 C 0.19764 0.76845 0.71906 0.0
H289 H 0.13845 0.62817 0.6223 0.0
H290 H 0.15482 0.67689 0.6257 0.0
H291 H 0.20474 0.71872 0.7864 0.0
H292 H 0.22398 0.85167 0.80868 0.0
H293 H 0.20794 0.80267 0.81172 0.0
C294 C 0.57102 0.29125 0.35364 0.0
C295 C 0.54446 0.28406 0.3358 0.0
C296 C 0.58057 0.3026 0.40897 0.0
C297 C 0.56722 0.33762 0.53048 0.0
H298 H 0.60439 0.30926 0.6254 0.0
C299 C 0.56901 0.33999 0.78115 0.0
C300 C 0.59133 0.34121 0.81111 0.0
C301 C 0.5685 0.34015 0.72009 0.0
C302 C 0.59464 0.31793 0.59909 0.0
H303 H 0.50678 0.28235 0.36211 0.0
H304 H 0.52324 0.30171 0.45919 0.0
H305 H 0.59274 0.29423 0.52434 0.0
H306 H 0.63174 0.34614 0.8007 0.0
H307 H 0.63092 0.34664 0.6938 0.0
H308 H 0.56838 0.36069 0.60595 0.0
C309 C 0.53693 0.29919 0.42997 0.0
C310 C 0.58786 0.30921 0.54119 0.0
C311 C 0.52738 0.28779 0.37475 0.0
C312 C 0.61412 0.34491 0.77887 0.0
C313 C 0.6136 0.34502 0.71766 0.0
C314 C 0.57404 0.34639 0.5884 0.0
C315 C 0.56368 0.30688 0.44754 0.0
C316 C 0.57347 0.31842 0.50676 0.0
C317 C 0.59033 0.34158 0.68768 0.0
C318 C 0.5872 0.33609 0.62378 0.0
H319 H 0.58439 0.28797 0.32505 0.0
H320 H 0.60125 0.30824 0.42135 0.0
H321 H 0.55661 0.34549 0.50456 0.0
H322 H 0.55122 0.33738 0.80474 0.0
H323 H 0.5502 0.33732 0.69844 0.0
C324 C 0.5124 0.60148 0.71312 0.0
C325 C 0.49802 0.6042 0.66607 0.0
C326 C 0.51082 0.61095 0.76866 0.0
C327 C 0.5151 0.64607 0.87324 0.0
H328 H 0.44305 0.62359 0.9359 0.0
C329 C 0.50225 0.66758 0.11218 0.0
C330 C 0.48423 0.64353 0.14239 0.0
C331 C 0.50188 0.66823 0.05101 0.0
C332 C 0.46331 0.63025 0.91875 0.0
H333 H 0.46963 0.61754 0.64007 0.0
H334 H 0.467 0.63432 0.73714 0.0
H335 H 0.44779 0.61347 0.83396 0.0
H336 H 0.44997 0.6023 0.13291 0.0
H337 H 0.44935 0.60343 0.02651 0.0
H338 H 0.53052 0.66169 0.9586 0.0
C339 C 0.4798 0.62527 0.73103 0.0
C340 C 0.46604 0.62459 0.8604 0.0
C341 C 0.48153 0.61594 0.67549 0.0
C342 C 0.46431 0.62102 0.11074 0.0
C343 C 0.46382 0.62174 0.04975 0.0
C344 C 0.51238 0.65185 0.93143 0.0
C345 C 0.49447 0.62291 0.77814 0.0
C346 C 0.4919 0.63177 0.83762 0.0
C347 C 0.4833 0.64496 0.01922 0.0
C348 C 0.48638 0.64332 0.95521 0.0
H349 H 0.52495 0.59215 0.70685 0.0
H350 H 0.52193 0.60839 0.80447 0.0
H351 H 0.5353 0.65217 0.85651 0.0
H352 H 0.51773 0.68531 0.13544 0.0
H353 H 0.51689 0.68651 0.02849 0.0
C354 C 0.13581 0.52341 0.03382 0.0
C355 C 0.14283 0.54673 1e-05 0.0
C356 C 0.12497 0.52088 0.08986 0.0
C357 C 0.09255 0.54906 0.18759 0.0
H358 H 0.11769 0.51913 0.30956 0.0
C359 C 0.08871 0.56623 0.43607 0.0
C360 C 0.08554 0.54526 0.47404 0.0
C361 C 0.08888 0.56287 0.37546 0.0
C362 C 0.11 0.52702 0.27582 0.0
H363 H 0.14518 0.58619 -0.00142 0.0
H364 H 0.12682 0.58216 0.09721 0.0
H365 H 0.13325 0.52114 0.20975 0.0
H366 H 0.0767 0.50323 0.47855 0.0
H367 H 0.07672 0.49732 0.37287 0.0
H368 H 0.07012 0.55588 0.25488 0.0
C369 C 0.12879 0.56538 0.07981 0.0
C370 C 0.11898 0.52822 0.21853 0.0
C371 C 0.13942 0.56778 0.02352 0.0
C372 C 0.07972 0.51994 0.45035 0.0
C373 C 0.07981 0.51657 0.38989 0.0
C374 C 0.08368 0.54802 0.2452 0.0
C375 C 0.12132 0.54184 0.11351 0.0
C376 C 0.11058 0.53948 0.17381 0.0
C377 C 0.08576 0.53845 0.35204 0.0
C378 C 0.09251 0.53717 0.28992 0.0
H379 H 0.13803 0.50679 0.01635 0.0
H380 H 0.11912 0.50234 0.11433 0.0
H381 H 0.08538 0.55747 0.15392 0.0
H382 H 0.09308 0.58592 0.45305 0.0
H383 H 0.09351 0.58009 0.34731 0.0
C384 C 0.75745 0.12926 0.77636 0.0
C385 C 0.78077 0.13401 0.808 0.0
C386 C 0.75762 0.12891 0.71516 0.0
C387 C 0.79667 0.12825 0.58482 0.0
H388 H 0.77651 0.17954 0.52184 0.0
C389 C 0.82662 0.20619 0.37805 0.0
C390 C 0.82382 0.18888 0.33132 0.0
C391 C 0.81729 0.19541 0.43384 0.0
C392 C 0.78218 0.16514 0.53879 0.0
H393 H 0.82149 0.1394 0.80075 0.0
H394 H 0.82182 0.13892 0.69433 0.0
H395 H 0.7661 0.16496 0.62358 0.0
H396 H 0.81058 0.14697 0.30672 0.0
H397 H 0.79386 0.12808 0.4038 0.0
H398 H 0.81388 0.12945 0.50062 0.0
C399 C 0.80342 0.13552 0.7165 0.0
C400 C 0.77587 0.15648 0.59679 0.0
C401 C 0.8033 0.13599 0.77755 0.0
C402 C 0.81212 0.16069 0.34149 0.0
C403 C 0.80291 0.14991 0.39726 0.0
C404 C 0.8029 0.13685 0.52669 0.0
C405 C 0.78102 0.13309 0.68468 0.0
C406 C 0.78364 0.13846 0.62082 0.0
C407 C 0.80533 0.16715 0.44397 0.0
C408 C 0.79631 0.15591 0.50359 0.0
H409 H 0.73968 0.12746 0.79861 0.0
H410 H 0.73991 0.12658 0.69167 0.0
H411 H 0.80274 0.11422 0.60211 0.0
H412 H 0.83583 0.22803 0.37133 0.0
H413 H 0.8199 0.20926 0.4693 0.0
C414 C 0.85287 0.85173 0.68223 0.0
C415 C 0.8724 0.87829 0.66476 0.0
C416 C 0.85456 0.84197 0.73739 0.0
C417 C 0.90272 0.85476 0.85917 0.0
H418 H 0.83709 0.81833 0.9539 0.0
C419 C 0.90313 0.85432 0.10966 0.0
C420 C 0.88196 0.83225 0.14 0.0
C421 C 0.90383 0.85442 0.04861 0.0
C422 C 0.85553 0.82786 0.92765 0.0
H423 H 0.90856 0.91574 0.69148 0.0
H424 H 0.91128 0.89892 0.78822 0.0
H425 H 0.83389 0.8298 0.85261 0.0
H426 H 0.84634 0.79186 0.13039 0.0
H427 H 0.84769 0.79198 0.02349 0.0
H428 H 0.92446 0.85361 0.93495 0.0
C429 C 0.89503 0.88538 0.75887 0.0
C430 C 0.85369 0.83453 0.86961 0.0
C431 C 0.89328 0.89514 0.70384 0.0
C432 C 0.86278 0.80929 0.10824 0.0
C433 C 0.86345 0.80941 0.04703 0.0
C434 C 0.90455 0.84805 0.91722 0.0
C435 C 0.87578 0.85864 0.77612 0.0
C436 C 0.87735 0.84871 0.83528 0.0
C437 C 0.88338 0.83243 0.0166 0.0
C438 C 0.88107 0.8352 0.95256 0.0
H439 H 0.83617 0.83854 0.65354 0.0
H440 H 0.83939 0.82131 0.74955 0.0
H441 H 0.92123 0.8652 0.83332 0.0
H442 H 0.91837 0.87222 0.1329 0.0
H443 H 0.91938 0.87255 0.02659 0.0
C444 C 0.29167 0.91644 0.4469 0.0
C445 C 0.28791 0.93562 0.47866 0.0
C446 C 0.29236 0.91724 0.3857 0.0
C447 C 0.29546 0.95869 0.25613 0.0
H448 H 0.24201 0.88844 0.1915 0.0
C449 C 0.23747 0.94878 0.04287 0.0
C450 C 0.233 0.92776 0.0038 0.0
C451 C 0.24884 0.95023 0.09795 0.0
C452 C 0.25737 0.90811 0.2085 0.0
H453 H 0.28465 0.9722 0.47176 0.0
H454 H 0.28566 0.97347 0.36545 0.0
H455 H 0.25675 0.89129 0.29266 0.0
H456 H 0.23549 0.89096 0.99262 0.0
H457 H 0.25573 0.89367 0.08863 0.0
H458 H 0.29526 0.97562 0.17238 0.0
C459 C 0.28806 0.9578 0.38743 0.0
C460 C 0.26592 0.90974 0.26644 0.0
C461 C 0.28725 0.95695 0.44844 0.0
C462 C 0.23937 0.90777 0.02134 0.0
C463 C 0.2507 0.90917 0.07649 0.0
C464 C 0.2869 0.95706 0.19816 0.0
C465 C 0.28951 0.93734 0.35537 0.0
C466 C 0.28449 0.93515 0.29135 0.0
C467 C 0.25575 0.93055 0.11519 0.0
C468 C 0.26721 0.93186 0.17427 0.0
H469 H 0.29243 0.89987 0.46901 0.0
H470 H 0.29393 0.90144 0.36207 0.0
H471 H 0.31007 0.97849 0.27394 0.0
H472 H 0.23265 0.9644 0.03045 0.0
H473 H 0.25194 0.96661 0.1273 0.0
C474 C 0.53112 0.38982 0.07379 0.0
C475 C 0.54429 0.37927 0.1082 0.0
C476 C 0.52654 0.41025 0.09605 0.0
C477 C 0.51722 0.43611 0.23581 0.0
H478 H 0.52992 0.49982 0.14665 0.0
C479 C 0.50936 0.52494 0.3398 0.0
C480 C 0.4989 0.53822 0.30534 0.0
C481 C 0.51434 0.50521 0.31516 0.0
C482 C 0.52586 0.48192 0.17183 0.0
H483 H 0.5642 0.38248 0.19128 0.0
H484 H 0.55602 0.418 0.23048 0.0
H485 H 0.54075 0.46686 0.1033 0.0
H486 H 0.4845 0.54047 0.21848 0.0
H487 H 0.49246 0.50555 0.17599 0.0
H488 H 0.50194 0.45076 0.30398 0.0
C489 C 0.54894 0.41031 0.18668 0.0
C490 C 0.53218 0.46314 0.14703 0.0
C491 C 0.55368 0.39009 0.16427 0.0
C492 C 0.49278 0.53077 0.24615 0.0
C493 C 0.49754 0.51089 0.22165 0.0
C494 C 0.51069 0.45473 0.26042 0.0
C495 C 0.5349 0.42025 0.15321 0.0
C496 C 0.52808 0.44016 0.17895 0.0
C497 C 0.50873 0.49813 0.25564 0.0
C498 C 0.51505 0.47795 0.22887 0.0
H499 H 0.52342 0.38154 0.03066 0.0
H500 H 0.51553 0.41746 0.06947 0.0
H501 H 0.51342 0.41829 0.26101 0.0
H502 H 0.51445 0.53031 0.38546 0.0
H503 H 0.52329 0.49605 0.34246 0.0
C504 C 0.39297 0.61047 0.43373 0.0
C505 C 0.39769 0.5886 0.42548 0.0
C506 C 0.36763 0.60564 0.45416 0.0
C507 C 0.32076 0.59013 0.53922 0.0
H508 H 0.25189 0.53011 0.48347 0.0
C509 C 0.21992 0.55481 0.66304 0.0
C510 C 0.19726 0.55027 0.62908 0.0
C511 C 0.24376 0.55854 0.6362 0.0
C512 C 0.27096 0.54702 0.49926 0.0
H513 H 0.37991 0.54468 0.42899 0.0
H514 H 0.33541 0.53607 0.46475 0.0
H515 H 0.29463 0.53942 0.4366 0.0
H516 H 0.18163 0.54529 0.54028 0.0
H517 H 0.22329 0.55186 0.49362 0.0
H518 H 0.2972 0.59783 0.60169 0.0
C519 C 0.35114 0.55691 0.45551 0.0
C520 C 0.2954 0.55223 0.47273 0.0
C521 C 0.37654 0.56178 0.43542 0.0
C522 C 0.19871 0.54878 0.56778 0.0
C523 C 0.22253 0.55242 0.54099 0.0
C524 C 0.29638 0.58483 0.56594 0.0
C525 C 0.34661 0.57883 0.46615 0.0
C526 C 0.32054 0.57383 0.49251 0.0
C527 C 0.24542 0.55772 0.57489 0.0
C528 C 0.27124 0.56318 0.54638 0.0
H529 H 0.40914 0.63129 0.42604 0.0
H530 H 0.36457 0.62289 0.46126 0.0
H531 H 0.33985 0.60671 0.55587 0.0
H532 H 0.21947 0.55596 0.71036 0.0
H533 H 0.26096 0.56218 0.66348 0.0
C534 C 0.8906 0.25284 0.90351 0.0
C535 C 0.88693 0.25174 0.96461 0.0
C536 C 0.91034 0.27685 0.87657 0.0
C537 C 0.94937 0.35115 0.89904 0.0
H538 H 0.9948 0.34989 0.77308 0.0
C539 C 0.05318 0.43185 0.77089 0.0
C540 C 0.04746 0.45293 0.76037 0.0
C541 C 0.03265 0.40643 0.79071 0.0
C542 C 0.98227 0.35055 0.80825 0.0
H543 H 0.90171 0.27485 0.04542 0.0
H544 H 0.93632 0.31669 -0.00172 0.0
H545 H 0.96194 0.30719 0.82063 0.0
H546 H 0.01603 0.46412 0.75944 0.0
H547 H 0.97977 0.4194 0.79385 0.0
H548 H 0.97005 0.39453 0.88756 0.0
C549 C 0.92362 0.29905 0.97125 0.0
C550 C 0.96334 0.3261 0.83517 0.0
C551 C 0.90392 0.27501 -0.00173 0.0
C552 C 0.02075 0.44803 0.76757 0.0
C553 C 0.00018 0.4226 0.78759 0.0
C554 C 0.96821 0.37556 0.872 0.0
C555 C 0.92682 0.3003 0.91006 0.0
C556 C 0.94682 0.32618 0.88113 0.0
C557 C 0.00605 0.40169 0.80035 0.0
C558 C 0.98498 0.37555 0.82656 0.0
H559 H 0.87788 0.23531 0.87621 0.0
H560 H 0.91218 0.27725 0.8293 0.0
H561 H 0.93666 0.35182 0.93381 0.0
H562 H 0.07373 0.43533 0.76528 0.0
H563 H 0.03787 0.39083 0.80058 0.0
C564 C 0.84728 0.09147 0.06451 0.0
C565 C 0.83436 0.10162 0.10094 0.0
C566 C 0.85358 0.07203 0.08577 0.0
C567 C 0.86793 0.04846 0.22334 0.0
H568 H 0.85049 0.98225 0.13843 0.0
C569 C 0.87063 0.95819 0.33266 0.0
C570 C 0.87863 0.94252 0.29914 0.0
C571 C 0.86766 0.97891 0.30657 0.0
C572 C 0.85597 0.00087 0.16227 0.0
H573 H 0.81685 0.09878 0.18682 0.0
H574 H 0.82814 0.06516 0.2242 0.0
H575 H 0.83994 0.01539 0.0949 0.0
H576 H 0.8909 0.93709 0.21236 0.0
H577 H 0.88635 0.97368 0.16719 0.0
H578 H 0.8841 0.03424 0.29054 0.0
C579 C 0.83368 0.07238 0.17958 0.0
C580 C 0.84981 0.01976 0.13737 0.0
C581 C 0.82718 0.09154 0.15822 0.0
C582 C 0.88449 0.94864 0.23936 0.0
C583 C 0.88171 0.96951 0.21335 0.0
C584 C 0.87431 0.02974 0.24798 0.0
C585 C 0.84729 0.06274 0.14389 0.0
C586 C 0.85532 0.04349 0.16815 0.0
C587 C 0.87285 0.9846 0.24645 0.0
C588 C 0.86801 0.0055 0.2182 0.0
H589 H 0.85334 0.09923 0.02042 0.0
H590 H 0.86417 0.06496 0.05748 0.0
H591 H 0.87284 0.06687 0.24753 0.0
H592 H 0.86582 0.95395 0.37875 0.0
H593 H 0.86042 0.98985 0.33325 0.0
C594 C 0.1704 0.93208 0.57847 0.0
C595 C 0.17119 0.9262 0.63804 0.0
C596 C 0.14604 0.92751 0.5527 0.0
C597 C 0.0765 0.91485 0.58823 0.0
H598 H 0.05939 0.88396 0.43167 0.0
C599 C 0.96893 0.86927 0.49104 0.0
C600 C 0.96731 0.87876 0.43524 0.0
C601 C 0.99406 0.87452 0.51347 0.0
C602 C 0.06403 0.89275 0.47523 0.0
H603 H 0.14709 0.91128 0.71749 0.0
H604 H 0.10451 0.9027 0.67233 0.0
H605 H 0.10311 0.89534 0.4764 0.0
H606 H 0.99029 0.90024 0.35803 0.0
H607 H 0.03442 0.90893 0.39681 0.0
H608 H 0.03712 0.91164 0.58739 0.0
C609 C 0.1228 0.91137 0.64567 0.0
C610 C 0.08909 0.89941 0.50081 0.0
C611 C 0.14722 0.91619 0.67157 0.0
C612 C 0.99102 0.89244 0.40094 0.0
C613 C 0.01621 0.8975 0.42319 0.0
C614 C 0.05138 0.90793 0.56289 0.0
C615 C 0.12185 0.91672 0.58578 0.0
C616 C 0.09558 0.91044 0.55775 0.0
C617 C 0.01801 0.88916 0.48023 0.0
C618 C 0.04485 0.8967 0.50632 0.0
H619 H 0.18857 0.94002 0.55149 0.0
H620 H 0.14618 0.93238 0.50678 0.0
H621 H 0.08102 0.92381 0.63161 0.0
H622 H 0.95081 0.85838 0.51797 0.0
H623 H 0.99483 0.86746 0.55718 0.0
C624 C 0.31641 0.0474 0.77204 0.0
C625 C 0.32243 0.02664 0.76012 0.0
C626 C 0.33684 0.07286 0.792 0.0
C627 C 0.40164 0.10383 0.87185 0.0
H628 H 0.40699 0.17226 0.82417 0.0
C629 C 0.46615 0.20353 0.0006 0.0
C630 C 0.48313 0.22692 0.96731 0.0
C631 C 0.44618 0.17971 0.97329 0.0
C632 C 0.40582 0.15332 0.8377 0.0
H633 H 0.35429 0.01608 0.75668 0.0
H634 H 0.39036 0.06085 0.79137 0.0
H635 H 0.37417 0.12975 0.77571 0.0
H636 H 0.49176 0.24389 0.87938 0.0
H637 H 0.45695 0.20234 0.83197 0.0
H638 H 0.43335 0.12734 0.93356 0.0
C639 C 0.36981 0.05737 0.78609 0.0
C640 C 0.38694 0.12899 0.81024 0.0
C641 C 0.34933 0.03192 0.7659 0.0
C642 C 0.47907 0.22623 0.90638 0.0
C643 C 0.45904 0.20246 0.87916 0.0
C644 C 0.42042 0.12811 0.89944 0.0
C645 C 0.36363 0.07793 0.8004 0.0
C646 C 0.3846 0.10398 0.82718 0.0
C647 C 0.44268 0.17883 0.91221 0.0
C648 C 0.42263 0.15309 0.88286 0.0
H649 H 0.2957 0.04362 0.76752 0.0
H650 H 0.3314 0.08818 0.80305 0.0
H651 H 0.40008 0.08484 0.88637 0.0
H652 H 0.46865 0.20336 0.04761 0.0
H653 H 0.43356 0.16192 -1e-05 0.0
loop_
_geom_bond_atom_site_label_1
_geom_bond_atom_site_label_2
_geom_bond_distance
_geom_bond_site_symmetry_2
_ccdc_geom_bond_type
Co0 O3 1.970 . S
Co0 N17 1.989 1_556 S
Co0 O25 1.967 . S
Co0 O32 1.920 . S
Co1 O4 1.966 . S
Co1 N10 2.022 . S
Co1 N18 1.993 . S
Co1 O26 1.941 . S
C2 O3 1.258 1_554 S
C2 O4 1.263 . S
O3 Co0 1.970 . S
O3 C2 1.258 1_556 S
O4 Co1 1.966 . S
O4 C2 1.263 . S
C5 O6 1.235 . S
C5 O32 1.289 . S
O6 C5 1.235 . S
C7 C9 1.400 . S
C7 N10 1.351 . S
C7 C12 1.501 . S
C8 C9 1.387 . S
C8 N11 1.341 . S
C9 C7 1.400 . S
C9 C8 1.387 . S
N10 Co1 2.022 . S
N10 C7 1.351 . S
N10 N11 1.365 . S
N11 C8 1.341 . S
N11 N10 1.365 . S
N11 H31 0.862 . S
C12 C7 1.501 . S
C12 H13 0.961 . S
C12 H14 0.961 . S
C12 H15 0.960 . S
H13 C12 0.961 . S
H14 C12 0.961 . S
H15 C12 0.960 . S
C16 N17 1.342 . S
C16 C20 1.401 . S
C16 C21 1.499 1_554 S
N17 Co0 1.989 1_554 S
N17 C16 1.342 . S
N17 N18 1.388 . S
N18 Co1 1.993 . S
N18 N17 1.388 . S
N18 C19 1.346 . S
C19 N18 1.346 . S
C19 C20 1.396 . S
C19 C29 1.510 . S
C20 C16 1.401 . S
C20 C19 1.396 . S
C21 C16 1.499 1_556 S
C21 H22 0.959 . S
C21 H23 0.960 . S
C21 H24 0.961 . S
H22 C21 0.959 . S
H23 C21 0.960 . S
H24 C21 0.961 . S
O25 Co0 1.967 . S
O25 C33 1.258 1_556 S
O26 Co1 1.941 . S
O26 C33 1.266 . S
H27 C29 0.959 . S
H28 C29 0.961 . S
C29 C19 1.510 . S
C29 H27 0.959 . S
C29 H28 0.961 . S
C29 H30 0.960 . S
H30 C29 0.960 . S
H31 N11 0.862 . S
O32 Co0 1.920 . S
O32 C5 1.289 . S
C33 O25 1.258 1_554 S
C33 O26 1.266 . S
Co34 O37 1.970 . S
Co34 N51 1.989 . S
Co34 O59 1.967 . S
Co34 O66 1.920 . S
Co35 O38 1.966 . S
Co35 N44 2.022 . S
Co35 N52 1.993 . S
Co35 O60 1.941 . S
C36 O37 1.258 . S
C36 O38 1.263 . S
O37 Co34 1.970 . S
O37 C36 1.258 . S
O38 Co35 1.966 . S
O38 C36 1.263 . S
C39 O40 1.235 . S
C39 O66 1.289 . S
O40 C39 1.235 . S
C41 C43 1.400 . S
C41 N44 1.351 . S
C41 C46 1.501 . S
C42 C43 1.387 . S
C42 N45 1.341 . S
C43 C41 1.400 . S
C43 C42 1.387 . S
N44 Co35 2.022 . S
N44 C41 1.351 . S
N44 N45 1.365 . S
N45 C42 1.341 . S
N45 N44 1.365 . S
N45 H65 0.862 . S
C46 C41 1.501 . S
C46 H47 0.961 . S
C46 H48 0.961 . S
C46 H49 0.960 . S
H47 C46 0.961 . S
H48 C46 0.961 . S
H49 C46 0.960 . S
C50 N51 1.342 . S
C50 C54 1.401 . S
C50 C55 1.499 . S
N51 Co34 1.989 . S
N51 C50 1.342 . S
N51 N52 1.388 . S
N52 Co35 1.993 . S
N52 N51 1.388 . S
N52 C53 1.346 . S
C53 N52 1.346 . S
C53 C54 1.396 . S
C53 C63 1.510 . S
C54 C50 1.401 . S
C54 C53 1.396 . S
C55 C50 1.499 . S
C55 H56 0.959 . S
C55 H57 0.960 . S
C55 H58 0.961 . S
H56 C55 0.959 . S
H57 C55 0.960 . S
H58 C55 0.961 . S
O59 Co34 1.967 . S
O59 C67 1.258 . S
O60 Co35 1.941 . S
O60 C67 1.266 . S
H61 C63 0.959 . S
H62 C63 0.961 . S
C63 C53 1.510 . S
C63 H61 0.959 . S
C63 H62 0.961 . S
C63 H64 0.960 . S
H64 C63 0.960 . S
H65 N45 0.862 . S
O66 Co34 1.920 . S
O66 C39 1.289 . S
C67 O59 1.258 . S
C67 O60 1.266 . S
Co68 O71 1.970 . S
Co68 N85 1.989 . S
Co68 O93 1.967 . S
Co68 O100 1.920 . S
Co69 O72 1.966 . S
Co69 N78 2.022 . S
Co69 N86 1.993 . S
Co69 O94 1.941 . S
C70 O71 1.258 . S
C70 O72 1.263 . S
O71 Co68 1.970 . S
O71 C70 1.258 . S
O72 Co69 1.966 . S
O72 C70 1.263 . S
C73 O74 1.235 . S
C73 O100 1.289 . S
O74 C73 1.235 . S
C75 C77 1.400 . S
C75 N78 1.351 . S
C75 C80 1.501 . S
C76 C77 1.387 . S
C76 N79 1.341 . S
C77 C75 1.400 . S
C77 C76 1.387 . S
N78 Co69 2.022 . S
N78 C75 1.351 . S
N78 N79 1.365 . S
N79 C76 1.341 . S
N79 N78 1.365 . S
N79 H99 0.862 . S
C80 C75 1.501 . S
C80 H81 0.961 . S
C80 H82 0.961 . S
C80 H83 0.960 . S
H81 C80 0.961 . S
H82 C80 0.961 . S
H83 C80 0.960 . S
C84 N85 1.342 . S
C84 C88 1.401 . S
C84 C89 1.499 . S
N85 Co68 1.989 . S
N85 C84 1.342 . S
N85 N86 1.388 . S
N86 Co69 1.993 . S
N86 N85 1.388 . S
N86 C87 1.346 . S
C87 N86 1.346 . S
C87 C88 1.396 . S
C87 C97 1.510 . S
C88 C84 1.401 . S
C88 C87 1.396 . S
C89 C84 1.499 . S
C89 H90 0.959 . S
C89 H91 0.960 . S
C89 H92 0.961 . S
H90 C89 0.959 . S
H91 C89 0.960 . S
H92 C89 0.961 . S
O93 Co68 1.967 . S
O93 C101 1.258 . S
O94 Co69 1.941 . S
O94 C101 1.266 . S
H95 C97 0.959 . S
H96 C97 0.961 . S
C97 C87 1.510 . S
C97 H95 0.959 . S
C97 H96 0.961 . S
C97 H98 0.960 . S
H98 C97 0.960 . S
H99 N79 0.862 . S
O100 Co68 1.920 . S
O100 C73 1.289 . S
C101 O93 1.258 . S
C101 O94 1.266 . S
Co102 O105 1.970 . S
Co102 N119 1.989 1_556 S
Co102 O127 1.967 . S
Co102 O134 1.920 . S
Co103 O106 1.966 . S
Co103 N112 2.022 . S
Co103 N120 1.993 . S
Co103 O128 1.941 . S
C104 O105 1.258 1_554 S
C104 O106 1.263 . S
O105 Co102 1.970 . S
O105 C104 1.258 1_556 S
O106 Co103 1.966 . S
O106 C104 1.263 . S
C107 O108 1.235 . S
C107 O134 1.289 . S
O108 C107 1.235 . S
C109 C111 1.400 . S
C109 N112 1.351 . S
C109 C114 1.501 . S
C110 C111 1.387 . S
C110 N113 1.341 . S
C111 C109 1.400 . S
C111 C110 1.387 . S
N112 Co103 2.022 . S
N112 C109 1.351 . S
N112 N113 1.365 . S
N113 C110 1.341 . S
N113 N112 1.365 . S
N113 H133 0.862 . S
C114 C109 1.501 . S
C114 H115 0.961 . S
C114 H116 0.961 . S
C114 H117 0.960 . S
H115 C114 0.961 . S
H116 C114 0.961 . S
H117 C114 0.960 . S
C118 N119 1.342 . S
C118 C122 1.401 . S
C118 C123 1.499 1_554 S
N119 Co102 1.989 1_554 S
N119 C118 1.342 . S
N119 N120 1.388 . S
N120 Co103 1.993 . S
N120 N119 1.388 . S
N120 C121 1.346 . S
C121 N120 1.346 . S
C121 C122 1.396 . S
C121 C131 1.510 . S
C122 C118 1.401 . S
C122 C121 1.396 . S
C123 C118 1.499 1_556 S
C123 H124 0.959 . S
C123 H125 0.960 . S
C123 H126 0.961 . S
H124 C123 0.959 . S
H125 C123 0.960 . S
H126 C123 0.961 . S
O127 Co102 1.967 . S
O127 C135 1.258 1_556 S
O128 Co103 1.941 . S
O128 C135 1.266 . S
H129 C131 0.959 . S
H130 C131 0.961 . S
C131 C121 1.510 . S
C131 H129 0.959 . S
C131 H130 0.961 . S
C131 H132 0.960 . S
H132 C131 0.960 . S
H133 N113 0.862 . S
O134 Co102 1.920 . S
O134 C107 1.289 . S
C135 O127 1.258 1_554 S
C135 O128 1.266 . S
Co136 O139 1.970 . S
Co136 N153 1.989 . S
Co136 O161 1.967 . S
Co136 O168 1.920 . S
Co137 O140 1.966 . S
Co137 N146 2.022 . S
Co137 N154 1.993 . S
Co137 O162 1.941 . S
C138 O139 1.258 . S
C138 O140 1.263 . S
O139 Co136 1.970 . S
O139 C138 1.258 . S
O140 Co137 1.966 . S
O140 C138 1.263 . S
C141 O142 1.235 . S
C141 O168 1.289 . S
O142 C141 1.235 . S
C143 C145 1.400 . S
C143 N146 1.351 . S
C143 C148 1.501 . S
C144 C145 1.387 . S
C144 N147 1.341 . S
C145 C143 1.400 . S
C145 C144 1.387 . S
N146 Co137 2.022 . S
N146 C143 1.351 . S
N146 N147 1.365 . S
N147 C144 1.341 . S
N147 N146 1.365 . S
N147 H167 0.862 . S
C148 C143 1.501 . S
C148 H149 0.961 . S
C148 H150 0.961 . S
C148 H151 0.960 . S
H149 C148 0.961 . S
H150 C148 0.961 . S
H151 C148 0.960 . S
C152 N153 1.342 . S
C152 C156 1.401 . S
C152 C157 1.499 . S
N153 Co136 1.989 . S
N153 C152 1.342 . S
N153 N154 1.388 . S
N154 Co137 1.993 . S
N154 N153 1.388 . S
N154 C155 1.346 . S
C155 N154 1.346 . S
C155 C156 1.396 . S
C155 C165 1.510 . S
C156 C152 1.401 . S
C156 C155 1.396 . S
C157 C152 1.499 . S
C157 H158 0.959 . S
C157 H159 0.960 . S
C157 H160 0.961 . S
H158 C157 0.959 . S
H159 C157 0.960 . S
H160 C157 0.961 . S
O161 Co136 1.967 . S
O161 C169 1.258 . S
O162 Co137 1.941 . S
O162 C169 1.266 . S
H163 C165 0.959 . S
H164 C165 0.961 . S
C165 C155 1.510 . S
C165 H163 0.959 . S
C165 H164 0.961 . S
C165 H166 0.960 . S
H166 C165 0.960 . S
H167 N147 0.862 . S
O168 Co136 1.920 . S
O168 C141 1.289 . S
C169 O161 1.258 . S
C169 O162 1.266 . S
Co170 O173 1.970 . S
Co170 N187 1.989 . S
Co170 O195 1.967 . S
Co170 O202 1.920 . S
Co171 O174 1.966 . S
Co171 N180 2.022 . S
Co171 N188 1.993 . S
Co171 O196 1.941 . S
C172 O173 1.258 . S
C172 O174 1.263 . S
O173 Co170 1.970 . S
O173 C172 1.258 . S
O174 Co171 1.966 . S
O174 C172 1.263 . S
C175 O176 1.235 . S
C175 O202 1.289 . S
O176 C175 1.235 . S
C177 C179 1.400 . S
C177 N180 1.351 . S
C177 C182 1.501 . S
C178 C179 1.387 . S
C178 N181 1.341 . S
C179 C177 1.400 . S
C179 C178 1.387 . S
N180 Co171 2.022 . S
N180 C177 1.351 . S
N180 N181 1.365 . S
N181 C178 1.341 . S
N181 N180 1.365 . S
N181 H201 0.862 . S
C182 C177 1.501 . S
C182 H183 0.961 . S
C182 H184 0.961 . S
C182 H185 0.960 . S
H183 C182 0.961 . S
H184 C182 0.961 . S
H185 C182 0.960 . S
C186 N187 1.342 . S
C186 C190 1.401 1_565 S
C186 C191 1.499 1_565 S
N187 Co170 1.989 . S
N187 C186 1.342 . S
N187 N188 1.388 . S
N188 Co171 1.993 . S
N188 N187 1.388 . S
N188 C189 1.346 . S
C189 N188 1.346 . S
C189 C190 1.396 1_565 S
C189 C199 1.510 . S
C190 C186 1.401 1_545 S
C190 C189 1.396 1_545 S
C191 C186 1.499 1_545 S
C191 H192 0.959 1_545 S
C191 H193 0.960 . S
C191 H194 0.961 . S
H192 C191 0.959 1_565 S
H193 C191 0.960 . S
H194 C191 0.961 . S
O195 Co170 1.967 . S
O195 C203 1.258 . S
O196 Co171 1.941 . S
O196 C203 1.266 . S
H197 C199 0.959 1_545 S
H198 C199 0.961 . S
C199 C189 1.510 . S
C199 H197 0.959 1_565 S
C199 H198 0.961 . S
C199 H200 0.960 . S
H200 C199 0.960 . S
H201 N181 0.862 . S
O202 Co170 1.920 . S
O202 C175 1.289 . S
C203 O195 1.258 . S
C203 O196 1.266 . S
C204 C205 1.349 . S
C204 C206 1.327 . S
C204 H229 0.950 . S
C205 C204 1.349 . S
C205 C221 1.349 1_554 S
C206 C204 1.327 . S
C206 C225 1.429 . S
C206 H230 0.950 . S
C207 C224 1.574 . S
C207 C226 1.368 1_556 S
C207 H231 0.949 . S
H208 C212 0.949 . S
C209 C210 1.349 1_556 S
C209 C211 1.327 . S
C209 H232 0.950 . S
C210 C209 1.349 1_554 S
C210 C222 1.349 . S
C211 C209 1.327 . S
C211 C227 1.429 1_556 S
C211 H233 0.950 . S
C212 H208 0.949 . S
C212 C220 1.574 . S
C212 C228 1.368 . S
H213 C221 0.950 . S
H214 C219 0.950 . S
H215 C220 0.949 . S
H216 C222 0.950 . S
H217 C223 0.950 . S
H218 C224 0.949 . S
C219 H214 0.950 . S
C219 C221 1.327 . S
C219 C225 1.429 1_556 S
C220 C212 1.574 . S
C220 H215 0.949 . S
C220 C226 1.368 . S
C221 C205 1.349 1_556 S
C221 H213 0.950 . S
C221 C219 1.327 . S
C222 C210 1.349 . S
C222 H216 0.950 . S
C222 C223 1.327 . S
C223 H217 0.950 . S
C223 C222 1.327 . S
C223 C227 1.429 . S
C224 C207 1.574 . S
C224 H218 0.949 . S
C224 C228 1.368 1_556 S
C225 C206 1.429 . S
C225 C219 1.429 1_554 S
C225 C226 1.523 . S
C226 C207 1.368 1_554 S
C226 C220 1.368 . S
C226 C225 1.523 . S
C227 C211 1.429 1_554 S
C227 C223 1.429 . S
C227 C228 1.523 . S
C228 C212 1.368 . S
C228 C224 1.368 1_554 S
C228 C227 1.523 . S
H229 C204 0.950 . S
H230 C206 0.950 . S
H231 C207 0.949 . S
H232 C209 0.950 . S
H233 C211 0.950 . S
C234 C235 1.349 . S
C234 C236 1.327 . S
C234 H259 0.950 . S
C235 C234 1.349 . S
C235 C251 1.349 . S
C236 C234 1.327 . S
C236 C255 1.429 . S
C236 H260 0.950 . S
C237 C254 1.574 . S
C237 C256 1.368 . S
C237 H261 0.949 . S
H238 C242 0.949 . S
C239 C240 1.349 . S
C239 C241 1.327 . S
C239 H262 0.950 . S
C240 C239 1.349 . S
C240 C252 1.349 . S
C241 C239 1.327 . S
C241 C257 1.429 . S
C241 H263 0.950 . S
C242 H238 0.949 . S
C242 C250 1.574 . S
C242 C258 1.368 . S
H243 C251 0.950 . S
H244 C249 0.950 . S
H245 C250 0.949 . S
H246 C252 0.950 . S
H247 C253 0.950 . S
H248 C254 0.949 . S
C249 H244 0.950 . S
C249 C251 1.327 . S
C249 C255 1.429 . S
C250 C242 1.574 . S
C250 H245 0.949 . S
C250 C256 1.368 . S
C251 C235 1.349 . S
C251 H243 0.950 . S
C251 C249 1.327 . S
C252 C240 1.349 . S
C252 H246 0.950 . S
C252 C253 1.327 . S
C253 H247 0.950 . S
C253 C252 1.327 . S
C253 C257 1.429 . S
C254 C237 1.574 . S
C254 H248 0.949 . S
C254 C258 1.368 . S
C255 C236 1.429 . S
C255 C249 1.429 . S
C255 C256 1.523 . S
C256 C237 1.368 . S
C256 C250 1.368 . S
C256 C255 1.523 . S
C257 C241 1.429 . S
C257 C253 1.429 . S
C257 C258 1.523 . S
C258 C242 1.368 . S
C258 C254 1.368 . S
C258 C257 1.523 . S
H259 C234 0.950 . S
H260 C236 0.950 . S
H261 C237 0.949 . S
H262 C239 0.950 . S
H263 C241 0.950 . S
C264 C265 1.349 . S
C264 C266 1.327 . S
C264 H289 0.950 . S
C265 C264 1.349 . S
C265 C281 1.349 . S
C266 C264 1.327 . S
C266 C285 1.429 . S
C266 H290 0.950 . S
C267 C284 1.574 . S
C267 C286 1.368 . S
C267 H291 0.949 . S
H268 C272 0.949 . S
C269 C270 1.349 . S
C269 C271 1.327 . S
C269 H292 0.950 . S
C270 C269 1.349 . S
C270 C282 1.349 . S
C271 C269 1.327 . S
C271 C287 1.429 . S
C271 H293 0.950 . S
C272 H268 0.949 . S
C272 C280 1.574 . S
C272 C288 1.368 . S
H273 C281 0.950 . S
H274 C279 0.950 . S
H275 C280 0.949 . S
H276 C282 0.950 . S
H277 C283 0.950 . S
H278 C284 0.949 . S
C279 H274 0.950 . S
C279 C281 1.327 . S
C279 C285 1.429 . S
C280 C272 1.574 . S
C280 H275 0.949 . S
C280 C286 1.368 . S
C281 C265 1.349 . S
C281 H273 0.950 . S
C281 C279 1.327 . S
C282 C270 1.349 . S
C282 H276 0.950 . S
C282 C283 1.327 . S
C283 H277 0.950 . S
C283 C282 1.327 . S
C283 C287 1.429 . S
C284 C267 1.574 . S
C284 H278 0.949 . S
C284 C288 1.368 . S
C285 C266 1.429 . S
C285 C279 1.429 . S
C285 C286 1.523 . S
C286 C267 1.368 . S
C286 C280 1.368 . S
C286 C285 1.523 . S
C287 C271 1.429 . S
C287 C283 1.429 . S
C287 C288 1.523 . S
C288 C272 1.368 . S
C288 C284 1.368 . S
C288 C287 1.523 . S
H289 C264 0.950 . S
H290 C266 0.950 . S
H291 C267 0.949 . S
H292 C269 0.950 . S
H293 C271 0.950 . S
C294 C295 1.349 . S
C294 C296 1.327 . S
C294 H319 0.950 . S
C295 C294 1.349 . S
C295 C311 1.349 . S
C296 C294 1.327 . S
C296 C315 1.429 . S
C296 H320 0.950 . S
C297 C314 1.574 . S
C297 C316 1.368 . S
C297 H321 0.949 . S
H298 C302 0.949 . S
C299 C300 1.349 . S
C299 C301 1.327 . S
C299 H322 0.950 . S
C300 C299 1.349 . S
C300 C312 1.349 . S
C301 C299 1.327 . S
C301 C317 1.429 . S
C301 H323 0.950 . S
C302 H298 0.949 . S
C302 C310 1.574 . S
C302 C318 1.368 . S
H303 C311 0.950 . S
H304 C309 0.950 . S
H305 C310 0.949 . S
H306 C312 0.950 . S
H307 C313 0.950 . S
H308 C314 0.949 . S
C309 H304 0.950 . S
C309 C311 1.327 . S
C309 C315 1.429 . S
C310 C302 1.574 . S
C310 H305 0.949 . S
C310 C316 1.368 . S
C311 C295 1.349 . S
C311 H303 0.950 . S
C311 C309 1.327 . S
C312 C300 1.349 . S
C312 H306 0.950 . S
C312 C313 1.327 . S
C313 H307 0.950 . S
C313 C312 1.327 . S
C313 C317 1.429 . S
C314 C297 1.574 . S
C314 H308 0.949 . S
C314 C318 1.368 . S
C315 C296 1.429 . S
C315 C309 1.429 . S
C315 C316 1.523 . S
C316 C297 1.368 . S
C316 C310 1.368 . S
C316 C315 1.523 . S
C317 C301 1.429 . S
C317 C313 1.429 . S
C317 C318 1.523 . S
C318 C302 1.368 . S
C318 C314 1.368 . S
C318 C317 1.523 . S
H319 C294 0.950 . S
H320 C296 0.950 . S
H321 C297 0.949 . S
H322 C299 0.950 . S
H323 C301 0.950 . S
C324 C325 1.349 . S
C324 C326 1.327 . S
C324 H349 0.950 . S
C325 C324 1.349 . S
C325 C341 1.349 . S
C326 C324 1.327 . S
C326 C345 1.429 . S
C326 H350 0.950 . S
C327 C344 1.574 . S
C327 C346 1.368 . S
C327 H351 0.949 . S
H328 C332 0.949 . S
C329 C330 1.349 . S
C329 C331 1.327 . S
C329 H352 0.950 . S
C330 C329 1.349 . S
C330 C342 1.349 . S
C331 C329 1.327 . S
C331 C347 1.429 . S
C331 H353 0.950 . S
C332 H328 0.949 . S
C332 C340 1.574 . S
C332 C348 1.368 . S
H333 C341 0.950 . S
H334 C339 0.950 . S
H335 C340 0.949 . S
H336 C342 0.950 . S
H337 C343 0.950 . S
H338 C344 0.949 . S
C339 H334 0.950 . S
C339 C341 1.327 . S
C339 C345 1.429 . S
C340 C332 1.574 . S
C340 H335 0.949 . S
C340 C346 1.368 . S
C341 C325 1.349 . S
C341 H333 0.950 . S
C341 C339 1.327 . S
C342 C330 1.349 . S
C342 H336 0.950 . S
C342 C343 1.327 . S
C343 H337 0.950 . S
C343 C342 1.327 . S
C343 C347 1.429 . S
C344 C327 1.574 . S
C344 H338 0.949 . S
C344 C348 1.368 . S
C345 C326 1.429 . S
C345 C339 1.429 . S
C345 C346 1.523 . S
C346 C327 1.368 . S
C346 C340 1.368 . S
C346 C345 1.523 . S
C347 C331 1.429 . S
C347 C343 1.429 . S
C347 C348 1.523 1_554 S
C348 C332 1.368 . S
C348 C344 1.368 . S
C348 C347 1.523 1_556 S
H349 C324 0.950 . S
H350 C326 0.950 . S
H351 C327 0.949 . S
H352 C329 0.950 . S
H353 C331 0.950 . S
C354 C355 1.349 1_554 S
C354 C356 1.327 . S
C354 H379 0.950 . S
C355 C354 1.349 1_556 S
C355 C371 1.349 1_556 S
C356 C354 1.327 . S
C356 C375 1.429 . S
C356 H380 0.950 . S
C357 C374 1.574 . S
C357 C376 1.368 . S
C357 H381 0.949 . S
H358 C362 0.949 . S
C359 C360 1.349 . S
C359 C361 1.327 . S
C359 H382 0.950 . S
C360 C359 1.349 . S
C360 C372 1.349 . S
C361 C359 1.327 . S
C361 C377 1.429 . S
C361 H383 0.950 . S
C362 H358 0.949 . S
C362 C370 1.574 . S
C362 C378 1.368 . S
H363 C371 0.950 . S
H364 C369 0.950 . S
H365 C370 0.949 . S
H366 C372 0.950 . S
H367 C373 0.950 . S
H368 C374 0.949 . S
C369 H364 0.950 . S
C369 C371 1.327 . S
C369 C375 1.429 . S
C370 C362 1.574 . S
C370 H365 0.949 . S
C370 C376 1.368 . S
C371 C355 1.349 1_554 S
C371 H363 0.950 . S
C371 C369 1.327 . S
C372 C360 1.349 . S
C372 H366 0.950 . S
C372 C373 1.327 . S
C373 H367 0.950 . S
C373 C372 1.327 . S
C373 C377 1.429 . S
C374 C357 1.574 . S
C374 H368 0.949 . S
C374 C378 1.368 . S
C375 C356 1.429 . S
C375 C369 1.429 . S
C375 C376 1.523 . S
C376 C357 1.368 . S
C376 C370 1.368 . S
C376 C375 1.523 . S
C377 C361 1.429 . S
C377 C373 1.429 . S
C377 C378 1.523 . S
C378 C362 1.368 . S
C378 C374 1.368 . S
C378 C377 1.523 . S
H379 C354 0.950 . S
H380 C356 0.950 . S
H381 C357 0.949 . S
H382 C359 0.950 . S
H383 C361 0.950 . S
C384 C385 1.349 . S
C384 C386 1.327 . S
C384 H409 0.950 . S
C385 C384 1.349 . S
C385 C401 1.349 . S
C386 C384 1.327 . S
C386 C405 1.429 . S
C386 H410 0.950 . S
C387 C404 1.574 . S
C387 C406 1.368 . S
C387 H411 0.949 . S
H388 C392 0.949 . S
C389 C390 1.349 . S
C389 C391 1.327 . S
C389 H412 0.950 . S
C390 C389 1.349 . S
C390 C402 1.349 . S
C391 C389 1.327 . S
C391 C407 1.429 . S
C391 H413 0.950 . S
C392 H388 0.949 . S
C392 C400 1.574 . S
C392 C408 1.368 . S
H393 C401 0.950 . S
H394 C399 0.950 . S
H395 C400 0.949 . S
H396 C402 0.950 . S
H397 C403 0.950 . S
H398 C404 0.949 . S
C399 H394 0.950 . S
C399 C401 1.327 . S
C399 C405 1.429 . S
C400 C392 1.574 . S
C400 H395 0.949 . S
C400 C406 1.368 . S
C401 C385 1.349 . S
C401 H393 0.950 . S
C401 C399 1.327 . S
C402 C390 1.349 . S
C402 H396 0.950 . S
C402 C403 1.327 . S
C403 H397 0.950 . S
C403 C402 1.327 . S
C403 C407 1.429 . S
C404 C387 1.574 . S
C404 H398 0.949 . S
C404 C408 1.368 . S
C405 C386 1.429 . S
C405 C399 1.429 . S
C405 C406 1.523 . S
C406 C387 1.368 . S
C406 C400 1.368 . S
C406 C405 1.523 . S
C407 C391 1.429 . S
C407 C403 1.429 . S
C407 C408 1.523 . S
C408 C392 1.368 . S
C408 C404 1.368 . S
C408 C407 1.523 . S
H409 C384 0.950 . S
H410 C386 0.950 . S
H411 C387 0.949 . S
H412 C389 0.950 . S
H413 C391 0.950 . S
C414 C415 1.349 . S
C414 C416 1.327 . S
C414 H439 0.950 . S
C415 C414 1.349 . S
C415 C431 1.349 . S
C416 C414 1.327 . S
C416 C435 1.429 . S
C416 H440 0.950 . S
C417 C434 1.574 . S
C417 C436 1.368 . S
C417 H441 0.949 . S
H418 C422 0.949 . S
C419 C420 1.349 . S
C419 C421 1.327 . S
C419 H442 0.950 . S
C420 C419 1.349 . S
C420 C432 1.349 . S
C421 C419 1.327 . S
C421 C437 1.429 . S
C421 H443 0.950 . S
C422 H418 0.949 . S
C422 C430 1.574 . S
C422 C438 1.368 . S
H423 C431 0.950 . S
H424 C429 0.950 . S
H425 C430 0.949 . S
H426 C432 0.950 . S
H427 C433 0.950 . S
H428 C434 0.949 . S
C429 H424 0.950 . S
C429 C431 1.327 . S
C429 C435 1.429 . S
C430 C422 1.574 . S
C430 H425 0.949 . S
C430 C436 1.368 . S
C431 C415 1.349 . S
C431 H423 0.950 . S
C431 C429 1.327 . S
C432 C420 1.349 . S
C432 H426 0.950 . S
C432 C433 1.327 . S
C433 H427 0.950 . S
C433 C432 1.327 . S
C433 C437 1.429 . S
C434 C417 1.574 . S
C434 H428 0.949 . S
C434 C438 1.368 . S
C435 C416 1.429 . S
C435 C429 1.429 . S
C435 C436 1.523 . S
C436 C417 1.368 . S
C436 C430 1.368 . S
C436 C435 1.523 . S
C437 C421 1.429 . S
C437 C433 1.429 . S
C437 C438 1.523 1_554 S
C438 C422 1.368 . S
C438 C434 1.368 . S
C438 C437 1.523 1_556 S
H439 C414 0.950 . S
H440 C416 0.950 . S
H441 C417 0.949 . S
H442 C419 0.950 . S
H443 C421 0.950 . S
C444 C445 1.349 . S
C444 C446 1.327 . S
C444 H469 0.950 . S
C445 C444 1.349 . S
C445 C461 1.349 . S
C446 C444 1.327 . S
C446 C465 1.429 . S
C446 H470 0.950 . S
C447 C464 1.574 . S
C447 C466 1.368 . S
C447 H471 0.949 . S
H448 C452 0.949 . S
C449 C450 1.349 1_554 S
C449 C451 1.327 . S
C449 H472 0.950 1_554 S
C450 C449 1.349 1_556 S
C450 C462 1.349 1_556 S
C451 C449 1.327 . S
C451 C467 1.429 . S
C451 H473 0.950 . S
C452 H448 0.949 . S
C452 C460 1.574 . S
C452 C468 1.368 . S
H453 C461 0.950 . S
H454 C459 0.950 . S
H455 C460 0.949 . S
H456 C462 0.950 . S
H457 C463 0.950 . S
H458 C464 0.949 . S
C459 H454 0.950 . S
C459 C461 1.327 . S
C459 C465 1.429 . S
C460 C452 1.574 . S
C460 H455 0.949 . S
C460 C466 1.368 . S
C461 C445 1.349 . S
C461 H453 0.950 . S
C461 C459 1.327 . S
C462 C450 1.349 1_554 S
C462 H456 0.950 . S
C462 C463 1.327 . S
C463 H457 0.950 . S
C463 C462 1.327 . S
C463 C467 1.429 . S
C464 C447 1.574 . S
C464 H458 0.949 . S
C464 C468 1.368 . S
C465 C446 1.429 . S
C465 C459 1.429 . S
C465 C466 1.523 . S
C466 C447 1.368 . S
C466 C460 1.368 . S
C466 C465 1.523 . S
C467 C451 1.429 . S
C467 C463 1.429 . S
C467 C468 1.523 . S
C468 C452 1.368 . S
C468 C464 1.368 . S
C468 C467 1.523 . S
H469 C444 0.950 . S
H470 C446 0.950 . S
H471 C447 0.949 . S
H472 C449 0.950 1_556 S
H473 C451 0.950 . S
C474 C475 1.349 . S
C474 C476 1.327 . S
C474 H499 0.950 . S
C475 C474 1.349 . S
C475 C491 1.349 . S
C476 C474 1.327 . S
C476 C495 1.429 . S
C476 H500 0.950 . S
C477 C494 1.574 . S
C477 C496 1.368 . S
C477 H501 0.949 . S
H478 C482 0.949 . S
C479 C480 1.349 . S
C479 C481 1.327 . S
C479 H502 0.950 . S
C480 C479 1.349 . S
C480 C492 1.349 . S
C481 C479 1.327 . S
C481 C497 1.429 . S
C481 H503 0.950 . S
C482 H478 0.949 . S
C482 C490 1.574 . S
C482 C498 1.368 . S
H483 C491 0.950 . S
H484 C489 0.950 . S
H485 C490 0.949 . S
H486 C492 0.950 . S
H487 C493 0.950 . S
H488 C494 0.949 . S
C489 H484 0.950 . S
C489 C491 1.327 . S
C489 C495 1.429 . S
C490 C482 1.574 . S
C490 H485 0.949 . S
C490 C496 1.368 . S
C491 C475 1.349 . S
C491 H483 0.950 . S
C491 C489 1.327 . S
C492 C480 1.349 . S
C492 H486 0.950 . S
C492 C493 1.327 . S
C493 H487 0.950 . S
C493 C492 1.327 . S
C493 C497 1.429 . S
C494 C477 1.574 . S
C494 H488 0.949 . S
C494 C498 1.368 . S
C495 C476 1.429 . S
C495 C489 1.429 . S
C495 C496 1.523 . S
C496 C477 1.368 . S
C496 C490 1.368 . S
C496 C495 1.523 . S
C497 C481 1.429 . S
C497 C493 1.429 . S
C497 C498 1.523 . S
C498 C482 1.368 . S
C498 C494 1.368 . S
C498 C497 1.523 . S
H499 C474 0.950 . S
H500 C476 0.950 . S
H501 C477 0.949 . S
H502 C479 0.950 . S
H503 C481 0.950 . S
C504 C505 1.349 . S
C504 C506 1.327 . S
C504 H529 0.950 . S
C505 C504 1.349 . S
C505 C521 1.349 . S
C506 C504 1.327 . S
C506 C525 1.429 . S
C506 H530 0.950 . S
C507 C524 1.574 . S
C507 C526 1.368 . S
C507 H531 0.949 . S
H508 C512 0.949 . S
C509 C510 1.349 . S
C509 C511 1.327 . S
C509 H532 0.950 . S
C510 C509 1.349 . S
C510 C522 1.349 . S
C511 C509 1.327 . S
C511 C527 1.429 . S
C511 H533 0.950 . S
C512 H508 0.949 . S
C512 C520 1.574 . S
C512 C528 1.368 . S
H513 C521 0.950 . S
H514 C519 0.950 . S
H515 C520 0.949 . S
H516 C522 0.950 . S
H517 C523 0.950 . S
H518 C524 0.949 . S
C519 H514 0.950 . S
C519 C521 1.327 . S
C519 C525 1.429 . S
C520 C512 1.574 . S
C520 H515 0.949 . S
C520 C526 1.368 . S
C521 C505 1.349 . S
C521 H513 0.950 . S
C521 C519 1.327 . S
C522 C510 1.349 . S
C522 H516 0.950 . S
C522 C523 1.327 . S
C523 H517 0.950 . S
C523 C522 1.327 . S
C523 C527 1.429 . S
C524 C507 1.574 . S
C524 H518 0.949 . S
C524 C528 1.368 . S
C525 C506 1.429 . S
C525 C519 1.429 . S
C525 C526 1.523 . S
C526 C507 1.368 . S
C526 C520 1.368 . S
C526 C525 1.523 . S
C527 C511 1.429 . S
C527 C523 1.429 . S
C527 C528 1.523 . S
C528 C512 1.368 . S
C528 C524 1.368 . S
C528 C527 1.523 . S
H529 C504 0.950 . S
H530 C506 0.950 . S
H531 C507 0.949 . S
H532 C509 0.950 . S
H533 C511 0.950 . S
C534 C535 1.349 . S
C534 C536 1.327 . S
C534 H559 0.950 . S
C535 C534 1.349 . S
C535 C551 1.349 1_556 S
C536 C534 1.327 . S
C536 C555 1.429 . S
C536 H560 0.950 . S
C537 C554 1.574 . S
C537 C556 1.368 . S
C537 H561 0.949 . S
H538 C542 0.949 . S
C539 C540 1.349 . S
C539 C541 1.327 . S
C539 H562 0.950 . S
C540 C539 1.349 . S
C540 C552 1.349 . S
C541 C539 1.327 . S
C541 C557 1.429 . S
C541 H563 0.950 . S
C542 H538 0.949 . S
C542 C550 1.574 . S
C542 C558 1.368 . S
H543 C551 0.950 . S
H544 C549 0.950 1_554 S
H545 C550 0.949 . S
H546 C552 0.950 . S
H547 C553 0.950 1_655 S
H548 C554 0.949 1_455 S
C549 H544 0.950 1_556 S
C549 C551 1.327 1_556 S
C549 C555 1.429 . S
C550 C542 1.574 . S
C550 H545 0.949 . S
C550 C556 1.368 . S
C551 C535 1.349 1_554 S
C551 H543 0.950 . S
C551 C549 1.327 1_554 S
C552 C540 1.349 . S
C552 H546 0.950 . S
C552 C553 1.327 . S
C553 H547 0.950 1_455 S
C553 C552 1.327 . S
C553 C557 1.429 . S
C554 C537 1.574 . S
C554 H548 0.949 1_655 S
C554 C558 1.368 . S
C555 C536 1.429 . S
C555 C549 1.429 . S
C555 C556 1.523 . S
C556 C537 1.368 . S
C556 C550 1.368 . S
C556 C555 1.523 . S
C557 C541 1.429 . S
C557 C553 1.429 . S
C557 C558 1.523 1_455 S
C558 C542 1.368 . S
C558 C554 1.368 . S
C558 C557 1.523 1_655 S
H559 C534 0.950 . S
H560 C536 0.950 . S
H561 C537 0.949 . S
H562 C539 0.950 . S
H563 C541 0.950 . S
C564 C565 1.349 . S
C564 C566 1.327 . S
C564 H589 0.950 . S
C565 C564 1.349 . S
C565 C581 1.349 . S
C566 C564 1.327 . S
C566 C585 1.429 . S
C566 H590 0.950 . S
C567 C584 1.574 . S
C567 C586 1.368 . S
C567 H591 0.949 . S
H568 C572 0.949 1_565 S
C569 C570 1.349 . S
C569 C571 1.327 . S
C569 H592 0.950 . S
C570 C569 1.349 . S
C570 C582 1.349 . S
C571 C569 1.327 . S
C571 C587 1.429 . S
C571 H593 0.950 . S
C572 H568 0.949 1_545 S
C572 C580 1.574 . S
C572 C588 1.368 . S
H573 C581 0.950 . S
H574 C579 0.950 . S
H575 C580 0.949 . S
H576 C582 0.950 . S
H577 C583 0.950 . S
H578 C584 0.949 . S
C579 H574 0.950 . S
C579 C581 1.327 . S
C579 C585 1.429 . S
C580 C572 1.574 . S
C580 H575 0.949 . S
C580 C586 1.368 . S
C581 C565 1.349 . S
C581 H573 0.950 . S
C581 C579 1.327 . S
C582 C570 1.349 . S
C582 H576 0.950 . S
C582 C583 1.327 . S
C583 H577 0.950 . S
C583 C582 1.327 . S
C583 C587 1.429 . S
C584 C567 1.574 . S
C584 H578 0.949 . S
C584 C588 1.368 . S
C585 C566 1.429 . S
C585 C579 1.429 . S
C585 C586 1.523 . S
C586 C567 1.368 . S
C586 C580 1.368 . S
C586 C585 1.523 . S
C587 C571 1.429 . S
C587 C583 1.429 . S
C587 C588 1.523 1_565 S
C588 C572 1.368 . S
C588 C584 1.368 . S
C588 C587 1.523 1_545 S
H589 C564 0.950 . S
H590 C566 0.950 . S
H591 C567 0.949 . S
H592 C569 0.950 . S
H593 C571 0.950 . S
C594 C595 1.349 . S
C594 C596 1.327 . S
C594 H619 0.950 . S
C595 C594 1.349 . S
C595 C611 1.349 . S
C596 C594 1.327 . S
C596 C615 1.429 . S
C596 H620 0.950 . S
C597 C614 1.574 . S
C597 C616 1.368 . S
C597 H621 0.949 . S
H598 C602 0.949 . S
C599 C600 1.349 . S
C599 C601 1.327 1_655 S
C599 H622 0.950 . S
C600 C599 1.349 . S
C600 C612 1.349 1_655 S
C601 C599 1.327 1_455 S
C601 C617 1.429 . S
C601 H623 0.940 . S
C602 H598 0.949 . S
C602 C610 1.574 . S
C602 C618 1.368 . S
H603 C611 0.950 . S
H604 C609 0.950 . S
H605 C610 0.949 . S
H606 C612 0.950 . S
H607 C613 0.950 . S
H608 C614 0.949 . S
C609 H604 0.950 . S
C609 C611 1.327 . S
C609 C615 1.429 . S
C610 C602 1.574 . S
C610 H605 0.949 . S
C610 C616 1.368 . S
C611 C595 1.349 . S
C611 H603 0.950 . S
C611 C609 1.327 . S
C612 C600 1.349 1_455 S
C612 H606 0.950 . S
C612 C613 1.327 . S
C613 H607 0.950 . S
C613 C612 1.327 . S
C613 C617 1.429 . S
C614 C597 1.574 . S
C614 H608 0.949 . S
C614 C618 1.368 . S
C615 C596 1.429 . S
C615 C609 1.429 . S
C615 C616 1.523 . S
C616 C597 1.368 . S
C616 C610 1.368 . S
C616 C615 1.523 . S
C617 C601 1.429 . S
C617 C613 1.429 . S
C617 C618 1.523 . S
C618 C602 1.368 . S
C618 C614 1.368 . S
C618 C617 1.523 . S
H619 C594 0.950 . S
H620 C596 0.950 . S
H621 C597 0.949 . S
H622 C599 0.950 . S
H623 C601 0.940 . S
C624 C625 1.349 . S
C624 C626 1.327 . S
C624 H649 0.950 . S
C625 C624 1.349 . S
C625 C641 1.349 . S
C626 C624 1.327 . S
C626 C645 1.429 . S
C626 H650 0.950 . S
C627 C644 1.574 . S
C627 C646 1.368 . S
C627 H651 0.949 . S
H628 C632 0.949 . S
C629 C630 1.349 . S
C629 C631 1.327 . S
C629 H652 0.950 1_556 S
C630 C629 1.349 . S
C630 C642 1.349 . S
C631 C629 1.327 . S
C631 C647 1.429 . S
C631 H653 0.950 . S
C632 H628 0.949 . S
C632 C640 1.574 . S
C632 C648 1.368 . S
H633 C641 0.950 . S
H634 C639 0.950 . S
H635 C640 0.949 . S
H636 C642 0.950 . S
H637 C643 0.950 . S
H638 C644 0.949 . S
C639 H634 0.950 . S
C639 C641 1.327 . S
C639 C645 1.429 . S
C640 C632 1.574 . S
C640 H635 0.949 . S
C640 C646 1.368 . S
C641 C625 1.349 . S
C641 H633 0.950 . S
C641 C639 1.327 . S
C642 C630 1.349 . S
C642 H636 0.950 . S
C642 C643 1.327 . S
C643 H637 0.950 . S
C643 C642 1.327 . S
C643 C647 1.429 . S
C644 C627 1.574 . S
C644 H638 0.949 . S
C644 C648 1.368 . S
C645 C626 1.429 . S
C645 C639 1.429 . S
C645 C646 1.523 . S
C646 C627 1.368 . S
C646 C640 1.368 . S
C646 C645 1.523 . S
C647 C631 1.429 . S
C647 C643 1.429 . S
C647 C648 1.523 . S
C648 C632 1.368 . S
C648 C644 1.368 . S
C648 C647 1.523 . S
H649 C624 0.950 . S
H650 C626 0.950 . S
H651 C627 0.949 . S
H652 C629 0.950 1_554 S
H653 C631 0.950 . S
C205 C2 1.615 . S
C210 C104 1.615 . S
C235 C138 1.615 . S
C240 C36 1.615 . S
C265 C70 1.615 . S
C270 C172 1.615 . S
C295 C9 0.899 . S
C300 C5 0.915 . S
C325 C43 0.899 . S
C330 C39 0.915 . S
C355 C77 0.899 . S
C360 C73 0.915 . S
C385 C107 0.915 . S
C390 C111 0.899 . S
C415 C145 0.899 . S
C420 C141 0.915 . S
C445 C175 0.915 . S
C450 C179 0.899 . S
C475 C20 1.557 . S
C480 C67 1.569 . S
C505 C54 1.557 . S
C510 C101 1.569 . S
C535 C135 1.569 1_556 S
C540 C88 1.558 . S
C565 C122 1.557 . S
C570 C169 1.569 . S
C595 C203 1.569 . S
C600 C156 1.557 . S
C625 C190 1.558 . S
C630 C33 1.569 1_556 S
