# Generated by pormake.
# Topology ukd, (4)-cn, num edge types: 1
# Building blocks:
#     Node 0, Type 0, BuildingBlock: AZAVOO_clean_sbu_0, # of connection points: 4
#     Node 1, Type 0, BuildingBlock: AZAVOO_clean_sbu_0, # of connection points: 4
#     Node 2, Type 0, BuildingBlock: AZAVOO_clean_sbu_0, # of connection points: 4
#     Node 3, Type 0, BuildingBlock: AZAVOO_clean_sbu_0, # of connection points: 4
#     Node 4, Type 0, BuildingBlock: AZAVOO_clean_sbu_0, # of connection points: 4
#     Node 5, Type 0, BuildingBlock: AZAVOO_clean_sbu_0, # of connection points: 4
#     Node 6, Type 0, BuildingBlock: AZAVOO_clean_sbu_0, # of connection points: 4
#     Node 7, Type 0, BuildingBlock: AZAVOO_clean_sbu_0, # of connection points: 4
#     Node 8, Type 0, BuildingBlock: AZAVOO_clean_sbu_0, # of connection points: 4
#     Node 9, Type 0, BuildingBlock: AZAVOO_clean_sbu_0, # of connection points: 4
#     Node 10, Type 0, BuildingBlock: AZAVOO_clean_sbu_0, # of connection points: 4
#     Node 11, Type 0, BuildingBlock: AZAVOO_clean_sbu_0, # of connection points: 4
#     Node 12, Type 0, BuildingBlock: AZAVOO_clean_sbu_0, # of connection points: 4
#     Node 13, Type 0, BuildingBlock: AZAVOO_clean_sbu_0, # of connection points: 4
#     Node 14, Type 0, BuildingBlock: AZAVOO_clean_sbu_0, # of connection points: 4
#     Node 15, Type 0, BuildingBlock: AZAVOO_clean_sbu_0, # of connection points: 4
#     Node 16, Type 0, BuildingBlock: AZAVOO_clean_sbu_0, # of connection points: 4
#     Node 17, Type 0, BuildingBlock: AZAVOO_clean_sbu_0, # of connection points: 4
#     Node 18, Type 0, BuildingBlock: AZAVOO_clean_sbu_0, # of connection points: 4
#     Node 19, Type 0, BuildingBlock: AZAVOO_clean_sbu_0, # of connection points: 4
#     Node 20, Type 0, BuildingBlock: AZAVOO_clean_sbu_0, # of connection points: 4
#     Node 21, Type 0, BuildingBlock: AZAVOO_clean_sbu_0, # of connection points: 4
#     Node 22, Type 0, BuildingBlock: AZAVOO_clean_sbu_0, # of connection points: 4
#     Node 23, Type 0, BuildingBlock: AZAVOO_clean_sbu_0, # of connection points: 4
#     Node 24, Type 0, BuildingBlock: AZAVOO_clean_sbu_0, # of connection points: 4
#     Node 25, Type 0, BuildingBlock: AZAVOO_clean_sbu_0, # of connection points: 4
#     Node 26, Type 0, BuildingBlock: AZAVOO_clean_sbu_0, # of connection points: 4
#     Node 27, Type 0, BuildingBlock: AZAVOO_clean_sbu_0, # of connection points: 4
#     Node 28, Type 0, BuildingBlock: AZAVOO_clean_sbu_0, # of connection points: 4
#     Node 29, Type 0, BuildingBlock: AZAVOO_clean_sbu_0, # of connection points: 4
#     Node 30, Type 0, BuildingBlock: AZAVOO_clean_sbu_0, # of connection points: 4
#     Node 31, Type 0, BuildingBlock: AZAVOO_clean_sbu_0, # of connection points: 4
#     Edge 32, Type (0, 0), BuildingBlock: UVAHIK_clean_linker_0, # of connection points: 2
#     Edge 33, Type (0, 0), BuildingBlock: UVAHIK_clean_linker_0, # of connection points: 2
#     Edge 34, Type (0, 0), BuildingBlock: UVAHIK_clean_linker_0, # of connection points: 2
#     Edge 35, Type (0, 0), BuildingBlock: UVAHIK_clean_linker_0, # of connection points: 2
#     Edge 36, Type (0, 0), BuildingBlock: UVAHIK_clean_linker_0, # of connection points: 2
#     Edge 37, Type (0, 0), BuildingBlock: UVAHIK_clean_linker_0, # of connection points: 2
#     Edge 38, Type (0, 0), BuildingBlock: UVAHIK_clean_linker_0, # of connection points: 2
#     Edge 39, Type (0, 0), BuildingBlock: UVAHIK_clean_linker_0, # of connection points: 2
#     Edge 40, Type (0, 0), BuildingBlock: UVAHIK_clean_linker_0, # of connection points: 2
#     Edge 41, Type (0, 0), BuildingBlock: UVAHIK_clean_linker_0, # of connection points: 2
#     Edge 42, Type (0, 0), BuildingBlock: UVAHIK_clean_linker_0, # of connection points: 2
#     Edge 43, Type (0, 0), BuildingBlock: UVAHIK_clean_linker_0, # of connection points: 2
#     Edge 44, Type (0, 0), BuildingBlock: UVAHIK_clean_linker_0, # of connection points: 2
#     Edge 45, Type (0, 0), BuildingBlock: UVAHIK_clean_linker_0, # of connection points: 2
#     Edge 46, Type (0, 0), BuildingBlock: UVAHIK_clean_linker_0, # of connection points: 2
#     Edge 47, Type (0, 0), BuildingBlock: UVAHIK_clean_linker_0, # of connection points: 2
#     Edge 48, Type (0, 0), BuildingBlock: UVAHIK_clean_linker_0, # of connection points: 2
#     Edge 49, Type (0, 0), BuildingBlock: UVAHIK_clean_linker_0, # of connection points: 2
#     Edge 50, Type (0, 0), BuildingBlock: UVAHIK_clean_linker_0, # of connection points: 2
#     Edge 51, Type (0, 0), BuildingBlock: UVAHIK_clean_linker_0, # of connection points: 2
#     Edge 52, Type (0, 0), BuildingBlock: UVAHIK_clean_linker_0, # of connection points: 2
#     Edge 53, Type (0, 0), BuildingBlock: UVAHIK_clean_linker_0, # of connection points: 2
#     Edge 54, Type (0, 0), BuildingBlock: UVAHIK_clean_linker_0, # of connection points: 2
#     Edge 55, Type (0, 0), BuildingBlock: UVAHIK_clean_linker_0, # of connection points: 2
#     Edge 56, Type (0, 0), BuildingBlock: UVAHIK_clean_linker_0, # of connection points: 2
#     Edge 57, Type (0, 0), BuildingBlock: UVAHIK_clean_linker_0, # of connection points: 2
#     Edge 58, Type (0, 0), BuildingBlock: UVAHIK_clean_linker_0, # of connection points: 2
#     Edge 59, Type (0, 0), BuildingBlock: UVAHIK_clean_linker_0, # of connection points: 2
#     Edge 60, Type (0, 0), BuildingBlock: UVAHIK_clean_linker_0, # of connection points: 2
#     Edge 61, Type (0, 0), BuildingBlock: UVAHIK_clean_linker_0, # of connection points: 2
#     Edge 62, Type (0, 0), BuildingBlock: UVAHIK_clean_linker_0, # of connection points: 2
#     Edge 63, Type (0, 0), BuildingBlock: UVAHIK_clean_linker_0, # of connection points: 2
#     Edge 64, Type (0, 0), BuildingBlock: UVAHIK_clean_linker_0, # of connection points: 2
#     Edge 65, Type (0, 0), BuildingBlock: UVAHIK_clean_linker_0, # of connection points: 2
#     Edge 66, Type (0, 0), BuildingBlock: UVAHIK_clean_linker_0, # of connection points: 2
#     Edge 67, Type (0, 0), BuildingBlock: UVAHIK_clean_linker_0, # of connection points: 2
#     Edge 68, Type (0, 0), BuildingBlock: UVAHIK_clean_linker_0, # of connection points: 2
#     Edge 69, Type (0, 0), BuildingBlock: UVAHIK_clean_linker_0, # of connection points: 2
#     Edge 70, Type (0, 0), BuildingBlock: UVAHIK_clean_linker_0, # of connection points: 2
#     Edge 71, Type (0, 0), BuildingBlock: UVAHIK_clean_linker_0, # of connection points: 2
#     Edge 72, Type (0, 0), BuildingBlock: UVAHIK_clean_linker_0, # of connection points: 2
#     Edge 73, Type (0, 0), BuildingBlock: UVAHIK_clean_linker_0, # of connection points: 2
#     Edge 74, Type (0, 0), BuildingBlock: UVAHIK_clean_linker_0, # of connection points: 2
#     Edge 75, Type (0, 0), BuildingBlock: UVAHIK_clean_linker_0, # of connection points: 2
#     Edge 76, Type (0, 0), BuildingBlock: UVAHIK_clean_linker_0, # of connection points: 2
#     Edge 77, Type (0, 0), BuildingBlock: UVAHIK_clean_linker_0, # of connection points: 2
#     Edge 78, Type (0, 0), BuildingBlock: UVAHIK_clean_linker_0, # of connection points: 2
#     Edge 79, Type (0, 0), BuildingBlock: UVAHIK_clean_linker_0, # of connection points: 2
#     Edge 80, Type (0, 0), BuildingBlock: UVAHIK_clean_linker_0, # of connection points: 2
#     Edge 81, Type (0, 0), BuildingBlock: UVAHIK_clean_linker_0, # of connection points: 2
#     Edge 82, Type (0, 0), BuildingBlock: UVAHIK_clean_linker_0, # of connection points: 2
#     Edge 83, Type (0, 0), BuildingBlock: UVAHIK_clean_linker_0, # of connection points: 2
#     Edge 84, Type (0, 0), BuildingBlock: UVAHIK_clean_linker_0, # of connection points: 2
#     Edge 85, Type (0, 0), BuildingBlock: UVAHIK_clean_linker_0, # of connection points: 2
#     Edge 86, Type (0, 0), BuildingBlock: UVAHIK_clean_linker_0, # of connection points: 2
#     Edge 87, Type (0, 0), BuildingBlock: UVAHIK_clean_linker_0, # of connection points: 2
#     Edge 88, Type (0, 0), BuildingBlock: UVAHIK_clean_linker_0, # of connection points: 2
#     Edge 89, Type (0, 0), BuildingBlock: UVAHIK_clean_linker_0, # of connection points: 2
#     Edge 90, Type (0, 0), BuildingBlock: UVAHIK_clean_linker_0, # of connection points: 2
#     Edge 91, Type (0, 0), BuildingBlock: UVAHIK_clean_linker_0, # of connection points: 2
#     Edge 92, Type (0, 0), BuildingBlock: UVAHIK_clean_linker_0, # of connection points: 2
#     Edge 93, Type (0, 0), BuildingBlock: UVAHIK_clean_linker_0, # of connection points: 2
#     Edge 94, Type (0, 0), BuildingBlock: UVAHIK_clean_linker_0, # of connection points: 2
#     Edge 95, Type (0, 0), BuildingBlock: UVAHIK_clean_linker_0, # of connection points: 2
# Relax obj value: 0.163
# Max RMSD: 0.194
# Mean RMSD: 0.194
data_MOF--net-ukd--node1-AZAVOO_clean_sbu_0--edge1-UVAHIK_clean_linker_0
_symmetry_space_group_name_H-M    P1
_symmetry_Int_Tables_number       1
_symmetry_cell_setting            triclinic
loop_
_symmetry_equiv_pos_as_xyz
'x, y, z'
_cell_length_a     53.020338
_cell_length_b     53.011825
_cell_length_c     102.16896
_cell_angle_alpha  89.990371
_cell_angle_beta   89.993895
_cell_angle_gamma 89.979571
loop_
_atom_site_label
_atom_site_type_symbol
_atom_site_fract_x
_atom_site_fract_y
_atom_site_fract_z
_atom_type_partial_charge
Mg0 Mg 0.24928 0.26314 0.34997 0.0
O1 O 0.21528 0.23665 0.35028 0.0
O2 O 0.18055 0.25815 0.34487 0.0
Mg3 Mg 0.19265 0.29893 0.34082 0.0
C4 C 0.19156 0.23769 0.34819 0.0
C5 C 0.2749 0.2145 0.36129 0.0
O6 O 0.25749 0.2183 0.37024 0.0
O7 O 0.24913 0.26165 0.32754 0.0
O8 O 0.21487 0.28477 0.3231 0.0
O9 O 0.24063 0.27422 0.37075 0.0
O10 O 0.22592 0.29388 0.35327 0.0
C11 C 0.23393 0.27187 0.31938 0.0
C12 C 0.22623 0.29146 0.36577 0.0
O13 O 0.27605 0.22935 0.35153 0.0
Mg14 Mg 0.99072 0.99552 0.59883 0.0
O15 O 0.01731 0.96155 0.59912 0.0
O16 O 0.99613 0.92709 0.59298 0.0
Mg17 Mg 0.95545 0.93922 0.58869 0.0
C18 C 0.01641 0.93795 0.59669 0.0
C19 C 0.03822 0.02138 0.61123 0.0
O20 O 0.03369 0.00412 0.62016 0.0
O21 O 0.99323 0.99623 0.57638 0.0
O22 O 0.97032 0.96211 0.57141 0.0
O23 O 0.97828 0.986 0.61939 0.0
O24 O 0.95982 0.97221 0.60136 0.0
C25 C 0.98333 0.98128 0.56799 0.0
C26 C 0.96119 0.97215 0.61389 0.0
O27 O 0.02428 0.02229 0.60111 0.0
Mg28 Mg 0.24978 0.73834 0.84877 0.0
O29 O 0.28423 0.76417 0.84942 0.0
O30 O 0.31868 0.74245 0.84377 0.0
Mg31 Mg 0.30593 0.70207 0.83922 0.0
C32 C 0.30793 0.7629 0.84733 0.0
C33 C 0.22246 0.78417 0.86171 0.0
O34 O 0.23647 0.77626 0.87149 0.0
O35 O 0.25004 0.74089 0.82634 0.0
O36 O 0.28402 0.71752 0.82169 0.0
O37 O 0.25823 0.72609 0.86939 0.0
O38 O 0.27267 0.70699 0.8517 0.0
C39 C 0.2652 0.73086 0.81809 0.0
C40 C 0.27242 0.7089 0.86423 0.0
O41 O 0.22387 0.77278 0.85077 0.0
Mg42 Mg 0.51098 0.01265 0.09748 0.0
O43 O 0.48034 0.0432 0.09711 0.0
O44 O 0.49735 0.07916 0.08978 0.0
Mg45 Mg 0.53925 0.07194 0.08582 0.0
C46 C 0.47851 0.06646 0.09395 0.0
C47 C 0.46612 0.98299 0.10995 0.0
O48 O 0.46808 0.00199 0.11814 0.0
O49 O 0.50871 0.00981 0.07505 0.0
O50 O 0.52798 0.04559 0.06928 0.0
O51 O 0.5221 0.02413 0.11797 0.0
O52 O 0.53778 0.04083 0.09992 0.0
C53 C 0.5173 0.02481 0.06632 0.0
C54 C 0.53607 0.0411 0.11247 0.0
O55 O 0.481 0.98195 0.10019 0.0
Mg56 Mg 0.25634 0.74099 0.1485 0.0
O57 O 0.22126 0.76601 0.14941 0.0
O58 O 0.18816 0.74294 0.15572 0.0
Mg59 Mg 0.20248 0.70274 0.15937 0.0
C60 C 0.19787 0.76391 0.15219 0.0
C61 C 0.2953 0.77686 0.13589 0.0
O62 O 0.29508 0.7577 0.12773 0.0
O63 O 0.25898 0.74251 0.17096 0.0
O64 O 0.22619 0.71798 0.17622 0.0
O65 O 0.2452 0.72949 0.12804 0.0
O66 O 0.23405 0.70918 0.146 0.0
C67 C 0.24505 0.73158 0.17948 0.0
C68 C 0.23243 0.71159 0.13353 0.0
O69 O 0.28111 0.77606 0.14592 0.0
Mg70 Mg 0.5091 0.99315 0.39501 0.0
O71 O 0.48318 0.95875 0.396 0.0
O72 O 0.50554 0.92496 0.40205 0.0
Mg73 Mg 0.54635 0.93801 0.40509 0.0
C74 C 0.48473 0.9353 0.39876 0.0
C75 C 0.4739 0.03333 0.38305 0.0
O76 O 0.49255 0.03233 0.37459 0.0
O77 O 0.50862 0.99507 0.41745 0.0
O78 O 0.53257 0.96162 0.42238 0.0
O79 O 0.51941 0.98263 0.37434 0.0
O80 O 0.54011 0.97 0.39192 0.0
C81 C 0.51949 0.98074 0.42582 0.0
C82 C 0.53719 0.96912 0.37946 0.0
O83 O 0.47472 0.01911 0.39307 0.0
Mg84 Mg 0.24905 0.26071 0.65185 0.0
O85 O 0.28406 0.2356 0.6516 0.0
O86 O 0.31762 0.25783 0.65803 0.0
Mg87 Mg 0.30362 0.29762 0.66301 0.0
C88 C 0.30759 0.23729 0.65408 0.0
C89 C 0.2116 0.22461 0.63812 0.0
O90 O 0.21339 0.24319 0.62966 0.0
O91 O 0.24757 0.25685 0.67425 0.0
O92 O 0.2808 0.2806 0.67974 0.0
O93 O 0.25918 0.27431 0.63159 0.0
O94 O 0.27131 0.29274 0.64992 0.0
C95 C 0.26204 0.26674 0.68287 0.0
C96 C 0.27226 0.29162 0.63739 0.0
O97 O 0.22417 0.22589 0.6487 0.0
Mg98 Mg 0.98968 0.00534 0.89709 0.0
O99 O 0.01481 0.04035 0.898 0.0
O100 O 0.99178 0.07351 0.90432 0.0
Mg101 Mg 0.9514 0.05951 0.90766 0.0
C102 C 0.01275 0.06372 0.90084 0.0
C103 C 0.03186 0.97405 0.88338 0.0
O104 O 0.01939 0.98302 0.8733 0.0
O105 O 0.99094 0.00324 0.91953 0.0
O106 O 0.96638 0.03608 0.92474 0.0
O107 O 0.97834 0.01593 0.87655 0.0
O108 O 0.958 0.02786 0.89435 0.0
C109 C 0.98003 0.01725 0.92802 0.0
C110 C 0.9605 0.02904 0.88187 0.0
O111 O 0.02468 0.98007 0.89486 0.0
Mg112 Mg 0.74855 0.73931 0.64681 0.0
O113 O 0.78368 0.76429 0.64686 0.0
O114 O 0.81725 0.74162 0.65292 0.0
Mg115 Mg 0.80314 0.70165 0.65734 0.0
C116 C 0.80723 0.76238 0.64927 0.0
C117 C 0.70868 0.77441 0.63438 0.0
O118 O 0.70847 0.75478 0.62653 0.0
O119 O 0.74721 0.74193 0.66927 0.0
O120 O 0.7805 0.71789 0.67434 0.0
O121 O 0.75859 0.72685 0.62634 0.0
O122 O 0.77076 0.7074 0.64439 0.0
C123 C 0.76178 0.7316 0.67771 0.0
C124 C 0.77169 0.70923 0.63188 0.0
O125 O 0.72354 0.77425 0.64415 0.0
Mg126 Mg 0.01235 0.00124 0.39851 0.0
O127 O 0.98634 0.03556 0.3979 0.0
O128 O 0.00756 0.07003 0.40394 0.0
Mg129 Mg 0.04783 0.05732 0.40884 0.0
C130 C 0.98733 0.05922 0.40014 0.0
C131 C 0.96469 0.97657 0.38567 0.0
O132 O 0.97007 0.99375 0.37683 0.0
O133 O 0.00894 0.00077 0.42092 0.0
O134 O 0.03181 0.03486 0.426 0.0
O135 O 0.02558 0.01052 0.37808 0.0
O136 O 0.04368 0.02417 0.39622 0.0
C137 C 0.01851 0.01584 0.42936 0.0
C138 C 0.04262 0.02426 0.38368 0.0
O139 O 0.97827 0.97514 0.39592 0.0
Mg140 Mg 0.75621 0.26295 0.14972 0.0
O141 O 0.72107 0.23801 0.15017 0.0
O142 O 0.68783 0.26095 0.15644 0.0
Mg143 Mg 0.70208 0.30099 0.16056 0.0
C144 C 0.69762 0.24008 0.1528 0.0
C145 C 0.79403 0.22657 0.13651 0.0
O146 O 0.79258 0.24516 0.12804 0.0
O147 O 0.75818 0.26055 0.17219 0.0
O148 O 0.72524 0.28496 0.1774 0.0
O149 O 0.74551 0.27524 0.1293 0.0
O150 O 0.734 0.29493 0.14737 0.0
C151 C 0.74395 0.27118 0.18069 0.0
C152 C 0.73263 0.29296 0.13488 0.0
O153 O 0.78103 0.22789 0.14696 0.0
Mg154 Mg 0.48868 0.99843 0.89736 0.0
O155 O 0.51419 0.96377 0.89643 0.0
O156 O 0.49271 0.92954 0.90261 0.0
Mg157 Mg 0.45276 0.9427 0.90786 0.0
C158 C 0.51295 0.94011 0.89864 0.0
C159 C 0.53279 0.02698 0.88336 0.0
O160 O 0.52301 0.01471 0.87341 0.0
O161 O 0.49271 0.99855 0.91973 0.0
O162 O 0.46958 0.96472 0.92496 0.0
O163 O 0.4747 0.98948 0.87702 0.0
O164 O 0.45696 0.97592 0.89527 0.0
C165 C 0.48325 0.98353 0.92822 0.0
C166 C 0.45768 0.97588 0.88273 0.0
O167 O 0.52317 0.02403 0.89467 0.0
Mg168 Mg 0.75212 0.26307 0.85141 0.0
O169 O 0.7872 0.238 0.85087 0.0
O170 O 0.82067 0.26119 0.8452 0.0
Mg171 Mg 0.80678 0.30167 0.84196 0.0
C172 C 0.81071 0.24014 0.8484 0.0
C173 C 0.7224 0.21846 0.8641 0.0
O174 O 0.73283 0.22872 0.87447 0.0
O175 O 0.7512 0.26262 0.82894 0.0
O176 O 0.78425 0.28737 0.82442 0.0
O177 O 0.76158 0.27371 0.8722 0.0
O178 O 0.77441 0.29468 0.85477 0.0
C179 C 0.76561 0.27387 0.82074 0.0
C180 C 0.77495 0.29172 0.86723 0.0
O181 O 0.72694 0.22793 0.85289 0.0
Mg182 Mg 0.49217 0.00966 0.59528 0.0
O183 O 0.52262 0.04036 0.59506 0.0
O184 O 0.50554 0.07609 0.58746 0.0
Mg185 Mg 0.46381 0.06858 0.58318 0.0
C186 C 0.52435 0.0636 0.59184 0.0
C187 C 0.53725 0.98015 0.6079 0.0
O188 O 0.53562 0.99936 0.61597 0.0
O189 O 0.49503 0.00655 0.57288 0.0
O190 O 0.47554 0.04203 0.5668 0.0
O191 O 0.48054 0.02127 0.61566 0.0
O192 O 0.46515 0.03779 0.5975 0.0
C193 C 0.48647 0.02128 0.56401 0.0
C194 C 0.46661 0.03817 0.61006 0.0
O195 O 0.52217 0.97901 0.59822 0.0
Mg196 Mg 0.74893 0.7401 0.3476 0.0
O197 O 0.71317 0.76417 0.34685 0.0
O198 O 0.68056 0.74032 0.34062 0.0
Mg199 Mg 0.69585 0.70045 0.33701 0.0
C200 C 0.68982 0.76151 0.34414 0.0
C201 C 0.7857 0.7778 0.36056 0.0
O202 O 0.78437 0.75961 0.36926 0.0
O203 O 0.75103 0.74174 0.32512 0.0
O204 O 0.71879 0.71635 0.32003 0.0
O205 O 0.73851 0.72822 0.36812 0.0
O206 O 0.7275 0.70773 0.3502 0.0
C207 C 0.7372 0.73047 0.31667 0.0
C208 C 0.72612 0.71 0.36268 0.0
O209 O 0.77296 0.77577 0.35006 0.0
Mg210 Mg 0.01019 0.99109 0.09739 0.0
O211 O 0.97985 0.96032 0.09672 0.0
O212 O 0.99735 0.92471 0.08924 0.0
Mg213 Mg 0.03928 0.93233 0.08554 0.0
C214 C 0.9783 0.93713 0.09339 0.0
C215 C 0.96559 0.02096 0.11011 0.0
O216 O 0.96815 0.00243 0.11855 0.0
O217 O 0.00815 0.9943 0.07496 0.0
O218 O 0.0281 0.95893 0.06907 0.0
O219 O 0.02116 0.9793 0.11788 0.0
O220 O 0.03722 0.96309 0.09981 0.0
C221 C 0.01717 0.97964 0.06618 0.0
C222 C 0.03536 0.96256 0.11235 0.0
O223 O 0.97993 0.02156 0.10012 0.0
Mg224 Mg 0.74941 0.76289 0.84718 0.0
O225 O 0.71486 0.73715 0.84817 0.0
O226 O 0.68051 0.75904 0.84252 0.0
Mg227 Mg 0.69335 0.79921 0.83758 0.0
C228 C 0.69112 0.73859 0.84619 0.0
C229 C 0.77441 0.7146 0.85939 0.0
O230 O 0.75715 0.71919 0.86831 0.0
O231 O 0.74888 0.75978 0.82474 0.0
O232 O 0.71493 0.78322 0.82013 0.0
O233 O 0.74109 0.77583 0.86777 0.0
O234 O 0.72686 0.79436 0.84985 0.0
C235 C 0.73362 0.76972 0.81651 0.0
C236 C 0.7272 0.79303 0.86238 0.0
O237 O 0.77559 0.72875 0.84935 0.0
Mg238 Mg 0.48766 0.49187 0.0994 0.0
O239 O 0.51447 0.45819 0.10049 0.0
O240 O 0.49422 0.42316 0.0944 0.0
Mg241 Mg 0.45372 0.43466 0.08924 0.0
C242 C 0.51408 0.43447 0.09834 0.0
C243 C 0.52941 0.52357 0.11338 0.0
O244 O 0.51856 0.51262 0.12344 0.0
O245 O 0.49139 0.49184 0.07701 0.0
O246 O 0.46928 0.45723 0.07198 0.0
O247 O 0.47409 0.48298 0.1198 0.0
O248 O 0.45676 0.46815 0.10174 0.0
C249 C 0.4822 0.47649 0.0686 0.0
C250 C 0.45754 0.46855 0.11429 0.0
O251 O 0.52128 0.51876 0.10193 0.0
Mg252 Mg 0.74976 0.23526 0.34994 0.0
O253 O 0.78487 0.26016 0.35066 0.0
O254 O 0.81876 0.23749 0.34511 0.0
Mg255 Mg 0.80498 0.19747 0.3405 0.0
C256 C 0.80855 0.25823 0.34864 0.0
C257 C 0.72375 0.2822 0.36273 0.0
O258 O 0.73815 0.27468 0.37244 0.0
O259 O 0.75029 0.23788 0.32748 0.0
O260 O 0.78366 0.21353 0.32298 0.0
O261 O 0.75803 0.22258 0.37059 0.0
O262 O 0.77163 0.20329 0.35277 0.0
C263 C 0.76527 0.22738 0.3193 0.0
C264 C 0.7715 0.20497 0.36529 0.0
O265 O 0.72459 0.27025 0.35193 0.0
Mg266 Mg 0.01369 0.50704 0.59763 0.0
O267 O 0.9876 0.5413 0.59825 0.0
O268 O 0.00857 0.57571 0.59187 0.0
Mg269 Mg 0.04881 0.56305 0.58684 0.0
C270 C 0.98847 0.56492 0.59587 0.0
C271 C 0.9805 0.46619 0.61051 0.0
O272 O 0.00056 0.46649 0.61807 0.0
O273 O 0.00984 0.50609 0.57521 0.0
O274 O 0.03272 0.54005 0.56992 0.0
O275 O 0.02729 0.51679 0.61793 0.0
O276 O 0.04504 0.5301 0.59962 0.0
C277 C 0.01942 0.52097 0.56668 0.0
C278 C 0.04422 0.53042 0.61217 0.0
O279 O 0.97972 0.48102 0.60073 0.0
Mg280 Mg 0.75325 0.24259 0.65104 0.0
O281 O 0.71774 0.26712 0.65038 0.0
O282 O 0.68452 0.24413 0.65663 0.0
Mg283 Mg 0.69896 0.20438 0.66131 0.0
C284 C 0.69421 0.2649 0.65277 0.0
C285 C 0.79435 0.27623 0.63916 0.0
O286 O 0.79601 0.25526 0.63235 0.0
O287 O 0.75345 0.24611 0.67347 0.0
O288 O 0.7207 0.2213 0.67848 0.0
O289 O 0.74488 0.22902 0.63061 0.0
O290 O 0.73176 0.21024 0.64867 0.0
C291 C 0.73894 0.23561 0.68188 0.0
C292 C 0.73182 0.21134 0.63612 0.0
O293 O 0.77796 0.27759 0.64822 0.0
Mg294 Mg 0.01007 0.49722 0.89724 0.0
O295 O 0.98462 0.46245 0.89836 0.0
O296 O 0.00739 0.42912 0.90468 0.0
Mg297 Mg 0.0479 0.44288 0.9079 0.0
C298 C 0.98648 0.43908 0.90124 0.0
C299 C 0.9746 0.5365 0.88474 0.0
O300 O 0.99349 0.53546 0.87642 0.0
O301 O 0.00917 0.49984 0.91967 0.0
O302 O 0.03338 0.46677 0.92492 0.0
O303 O 0.02089 0.4862 0.8767 0.0
O304 O 0.04148 0.47442 0.89447 0.0
C305 C 0.02003 0.48583 0.92818 0.0
C306 C 0.03876 0.47308 0.88201 0.0
O307 O 0.97535 0.52264 0.8949 0.0
Mg308 Mg 0.74482 0.76165 0.14717 0.0
O309 O 0.78073 0.73779 0.14633 0.0
O310 O 0.81378 0.7616 0.15196 0.0
Mg311 Mg 0.79883 0.80129 0.15638 0.0
C312 C 0.80432 0.74052 0.14842 0.0
C313 C 0.71851 0.71513 0.13424 0.0
O314 O 0.73098 0.72426 0.12419 0.0
O315 O 0.74578 0.75916 0.16963 0.0
O316 O 0.77822 0.78478 0.17403 0.0
O317 O 0.75215 0.77465 0.12648 0.0
O318 O 0.76556 0.79431 0.14422 0.0
C319 C 0.76039 0.77028 0.17777 0.0
C320 C 0.76509 0.79274 0.1317 0.0
O321 O 0.72069 0.72591 0.14531 0.0
Mg322 Mg 0.49062 0.50193 0.40018 0.0
O323 O 0.51618 0.53659 0.39937 0.0
O324 O 0.49469 0.57073 0.40571 0.0
Mg325 Mg 0.45482 0.55757 0.41105 0.0
C326 C 0.51491 0.56023 0.40165 0.0
C327 C 0.53052 0.46889 0.38565 0.0
O328 O 0.51639 0.47646 0.37584 0.0
O329 O 0.49476 0.50115 0.42259 0.0
O330 O 0.47171 0.53499 0.42791 0.0
O331 O 0.47646 0.51156 0.37993 0.0
O332 O 0.45884 0.52462 0.39829 0.0
C333 C 0.48528 0.51607 0.43113 0.0
C334 C 0.45949 0.52504 0.38575 0.0
O335 O 0.5251 0.47629 0.39716 0.0
Mg336 Mg 0.24395 0.24019 0.14979 0.0
O337 O 0.27941 0.26476 0.1492 0.0
O338 O 0.31269 0.24156 0.15518 0.0
Mg339 Mg 0.29834 0.20168 0.15961 0.0
C340 C 0.30297 0.26245 0.15151 0.0
C341 C 0.22036 0.28887 0.13739 0.0
O342 O 0.23706 0.28321 0.12835 0.0
O343 O 0.24403 0.24295 0.17222 0.0
O344 O 0.27685 0.21806 0.17701 0.0
O345 O 0.25212 0.22725 0.1292 0.0
O346 O 0.26544 0.20797 0.14708 0.0
C347 C 0.25861 0.23226 0.18054 0.0
C348 C 0.26529 0.20945 0.13455 0.0
O349 O 0.21904 0.27523 0.14761 0.0
Mg350 Mg 0.50805 0.50515 0.89915 0.0
O351 O 0.48254 0.5399 0.89932 0.0
O352 O 0.5044 0.57351 0.90604 0.0
Mg353 Mg 0.54455 0.55988 0.91048 0.0
C354 C 0.48395 0.56334 0.90207 0.0
C355 C 0.47158 0.46774 0.88544 0.0
O356 O 0.48947 0.47023 0.87664 0.0
O357 O 0.50494 0.503 0.92157 0.0
O358 O 0.52837 0.53637 0.9272 0.0
O359 O 0.52119 0.51588 0.87888 0.0
O360 O 0.53974 0.5278 0.89721 0.0
C361 C 0.51484 0.51733 0.93025 0.0
C362 C 0.53853 0.5289 0.88469 0.0
O363 O 0.47344 0.47987 0.89614 0.0
Mg364 Mg 0.25376 0.76542 0.64867 0.0
O365 O 0.21914 0.7398 0.6478 0.0
O366 O 0.18485 0.76162 0.65362 0.0
Mg367 Mg 0.19782 0.80176 0.65852 0.0
C368 C 0.19544 0.74121 0.64989 0.0
C369 C 0.28079 0.71964 0.63543 0.0
O370 O 0.26663 0.72769 0.62574 0.0
O371 O 0.25349 0.76219 0.67108 0.0
O372 O 0.21963 0.78561 0.6759 0.0
O373 O 0.2453 0.77831 0.62814 0.0
O374 O 0.23102 0.79698 0.64599 0.0
C375 C 0.23837 0.77205 0.6794 0.0
C376 C 0.23118 0.7954 0.63345 0.0
O377 O 0.27955 0.73091 0.64641 0.0
Mg378 Mg 0.99046 0.49504 0.39729 0.0
O379 O 0.01576 0.46019 0.39818 0.0
O380 O 0.99335 0.42696 0.40494 0.0
Mg381 Mg 0.95304 0.44092 0.40868 0.0
C382 C 0.01407 0.43686 0.40115 0.0
C383 C 0.03021 0.52842 0.38304 0.0
O384 O 0.01533 0.52199 0.37332 0.0
O385 O 0.9925 0.49797 0.41974 0.0
O386 O 0.96842 0.46503 0.42534 0.0
O387 O 0.97815 0.48351 0.37697 0.0
O388 O 0.95873 0.47249 0.3952 0.0
C389 C 0.98194 0.48407 0.42841 0.0
C390 C 0.96048 0.47085 0.38272 0.0
O391 O 0.02534 0.52016 0.39446 0.0
Mg392 Mg 0.25096 0.76119 0.34879 0.0
O393 O 0.28557 0.73563 0.35005 0.0
O394 O 0.32013 0.7577 0.34502 0.0
Mg395 Mg 0.30734 0.79806 0.34037 0.0
C396 C 0.30937 0.73714 0.34837 0.0
C397 C 0.22454 0.71408 0.36091 0.0
O398 O 0.23938 0.72087 0.37059 0.0
O399 O 0.25279 0.75887 0.32637 0.0
O400 O 0.28671 0.78279 0.32241 0.0
O401 O 0.25789 0.7733 0.36959 0.0
O402 O 0.27328 0.7927 0.3522 0.0
C403 C 0.2683 0.76928 0.31843 0.0
C404 C 0.27221 0.79068 0.3647 0.0
O405 O 0.22518 0.7266 0.35029 0.0
Mg406 Mg 0.99015 0.51057 0.09744 0.0
O407 O 0.01661 0.54455 0.09817 0.0
O408 O 0.99596 0.57919 0.09182 0.0
Mg409 Mg 0.95563 0.56703 0.08671 0.0
C410 C 0.01595 0.5682 0.09584 0.0
C411 C 0.02486 0.47141 0.11095 0.0
O412 O 0.00656 0.47402 0.11952 0.0
O413 O 0.99402 0.50976 0.07506 0.0
O414 O 0.97155 0.54398 0.06972 0.0
O415 O 0.97671 0.52018 0.11776 0.0
O416 O 0.95904 0.5341 0.09957 0.0
C417 C 0.98469 0.52475 0.06651 0.0
C418 C 0.95999 0.53426 0.11212 0.0
O419 O 0.02392 0.48409 0.10039 0.0
Mg420 Mg 0.24727 0.23857 0.85199 0.0
O421 O 0.21233 0.2639 0.85144 0.0
O422 O 0.17873 0.24064 0.84605 0.0
Mg423 Mg 0.19238 0.20004 0.84302 0.0
C424 C 0.18877 0.26175 0.84908 0.0
C425 C 0.27212 0.28776 0.86305 0.0
O426 O 0.25561 0.28312 0.87233 0.0
O427 O 0.2478 0.2385 0.82954 0.0
O428 O 0.21459 0.21382 0.82523 0.0
O429 O 0.23828 0.22859 0.87289 0.0
O430 O 0.22494 0.20728 0.85565 0.0
C431 C 0.23325 0.2272 0.82144 0.0
C432 C 0.22471 0.21053 0.8681 0.0
O433 O 0.2729 0.27327 0.85312 0.0
Mg434 Mg 0.51215 0.49598 0.60059 0.0
O435 O 0.48566 0.46204 0.60154 0.0
O436 O 0.5065 0.42718 0.59568 0.0
Mg437 Mg 0.54698 0.43905 0.59075 0.0
C438 C 0.4864 0.43831 0.59945 0.0
C439 C 0.47121 0.52928 0.61426 0.0
O440 O 0.48342 0.52037 0.62444 0.0
O441 O 0.50902 0.49581 0.57816 0.0
O442 O 0.53159 0.46135 0.57337 0.0
O443 O 0.52519 0.48717 0.6211 0.0
O444 O 0.54322 0.47253 0.60318 0.0
C445 C 0.51857 0.48046 0.56985 0.0
C446 C 0.542 0.47285 0.61572 0.0
O447 O 0.4782 0.52263 0.60285 0.0
C448 C 0.05878 0.43023 0.39411 0.0
C449 C 0.03702 0.42099 0.40032 0.0
C450 C 0.08055 0.41552 0.39335 0.0
C451 C 0.10268 0.34948 0.39501 0.0
H452 H 0.16817 0.38206 0.39523 0.0
C453 C 0.19631 0.29599 0.38466 0.0
C454 C 0.20859 0.30641 0.37374 0.0
C455 C 0.17693 0.30939 0.39089 0.0
C456 C 0.15002 0.37269 0.39528 0.0
H457 H 0.02124 0.38904 0.41077 0.0
H458 H 0.05947 0.36349 0.40965 0.0
H459 H 0.13056 0.4065 0.40055 0.0
H460 H 0.21137 0.33922 0.36118 0.0
H461 H 0.17828 0.36285 0.37229 0.0
H462 H 0.12236 0.31573 0.38956 0.0
C463 C 0.05953 0.38199 0.40516 0.0
C464 C 0.12844 0.38669 0.39821 0.0
C465 C 0.03762 0.39668 0.40583 0.0
C466 C 0.20217 0.33081 0.36959 0.0
C467 C 0.18333 0.34436 0.37598 0.0
C468 C 0.12435 0.3354 0.39224 0.0
C469 C 0.08127 0.39124 0.3989 0.0
C470 C 0.10441 0.37549 0.39766 0.0
C471 C 0.17014 0.3336 0.38649 0.0
C472 C 0.14809 0.34709 0.39194 0.0
H473 H 0.05897 0.4488 0.38967 0.0
H474 H 0.09668 0.42307 0.38816 0.0
H475 H 0.08451 0.34024 0.3944 0.0
H476 H 0.20083 0.27709 0.38795 0.0
H477 H 0.16695 0.30073 0.39898 0.0
C478 C 0.95458 0.93862 0.63085 0.0
C479 C 0.94484 0.95488 0.62126 0.0
C480 C 0.93974 0.91876 0.63567 0.0
C481 C 0.88539 0.88047 0.62479 0.0
H482 H 0.88615 0.85328 0.66002 0.0
C483 C 0.81372 0.80658 0.64138 0.0
C484 C 0.82337 0.78496 0.64758 0.0
C485 C 0.829 0.82763 0.63934 0.0
C486 C 0.88593 0.86066 0.65013 0.0
H487 H 0.91178 0.96475 0.60995 0.0
H488 H 0.88558 0.93124 0.61879 0.0
H489 H 0.91165 0.8906 0.65481 0.0
H490 H 0.8565 0.76886 0.65688 0.0
H491 H 0.88319 0.80592 0.65333 0.0
H492 H 0.85954 0.85092 0.62012 0.0
C493 C 0.90482 0.93288 0.62224 0.0
C494 C 0.90052 0.88195 0.64714 0.0
C495 C 0.91971 0.95225 0.61728 0.0
C496 C 0.84852 0.78515 0.652 0.0
C497 C 0.86377 0.80639 0.65006 0.0
C498 C 0.87072 0.85948 0.6278 0.0
C499 C 0.91495 0.91519 0.63105 0.0
C500 C 0.90014 0.89229 0.63446 0.0
C501 C 0.85421 0.82767 0.64354 0.0
C502 C 0.87062 0.8495 0.6405 0.0
H503 H 0.97405 0.94022 0.63395 0.0
H504 H 0.94813 0.90546 0.64244 0.0
H505 H 0.88525 0.88734 0.61481 0.0
H506 H 0.79444 0.80717 0.6379 0.0
H507 H 0.82109 0.8439 0.63441 0.0
C508 C 0.4597 0.60326 0.90631 0.0
C509 C 0.46098 0.57904 0.90074 0.0
C510 C 0.43775 0.61777 0.90518 0.0
C511 C 0.36956 0.61261 0.89652 0.0
H512 H 0.37566 0.68402 0.8889 0.0
C513 C 0.29703 0.66965 0.8675 0.0
C514 C 0.29006 0.69363 0.87205 0.0
C515 C 0.31574 0.65588 0.87387 0.0
C516 C 0.37365 0.6642 0.89127 0.0
H517 H 0.44027 0.55123 0.88946 0.0
H518 H 0.40253 0.57669 0.88712 0.0
H519 H 0.41332 0.6596 0.89424 0.0
H520 H 0.29675 0.72197 0.88692 0.0
H521 H 0.33036 0.69798 0.89793 0.0
H522 H 0.33005 0.61706 0.89275 0.0
C523 C 0.4181 0.58429 0.89272 0.0
C524 C 0.39521 0.65017 0.89434 0.0
C525 C 0.43989 0.56972 0.89396 0.0
C526 C 0.30169 0.7034 0.88331 0.0
C527 C 0.32093 0.6898 0.88954 0.0
C528 C 0.34811 0.62656 0.89329 0.0
C529 C 0.41667 0.60846 0.89835 0.0
C530 C 0.39351 0.62404 0.89666 0.0
C531 C 0.32824 0.66601 0.88477 0.0
C532 C 0.35006 0.65234 0.89034 0.0
H533 H 0.47555 0.61093 0.91168 0.0
H534 H 0.43725 0.63619 0.90975 0.0
H535 H 0.36741 0.5927 0.8986 0.0
H536 H 0.28833 0.66172 0.85883 0.0
H537 H 0.32121 0.63771 0.86992 0.0
C538 C 0.56174 0.05577 0.13163 0.0
C539 C 0.54852 0.06119 0.12005 0.0
C540 C 0.57702 0.07428 0.13743 0.0
C541 C 0.6153 0.1267 0.12714 0.0
H542 H 0.61527 0.15104 0.16293 0.0
C543 C 0.69067 0.1956 0.14537 0.0
C544 C 0.68128 0.21758 0.15134 0.0
C545 C 0.67501 0.17483 0.14332 0.0
C546 C 0.61548 0.14429 0.15293 0.0
H547 H 0.53822 0.09082 0.10647 0.0
H548 H 0.56526 0.12264 0.11627 0.0
H549 H 0.58536 0.11789 0.15632 0.0
H550 H 0.64826 0.23448 0.16036 0.0
H551 H 0.6209 0.19804 0.15675 0.0
H552 H 0.64506 0.15297 0.1236 0.0
C553 C 0.5644 0.10407 0.12069 0.0
C554 C 0.59854 0.12531 0.1492 0.0
C555 C 0.54916 0.08576 0.11499 0.0
C556 C 0.65606 0.21793 0.15565 0.0
C557 C 0.64044 0.19701 0.15369 0.0
C558 C 0.63238 0.14528 0.13089 0.0
C559 C 0.57912 0.09827 0.13167 0.0
C560 C 0.59807 0.11674 0.1362 0.0
C561 C 0.64966 0.17545 0.14728 0.0
C562 C 0.63246 0.15451 0.14377 0.0
H563 H 0.56138 0.03695 0.13576 0.0
H564 H 0.58817 0.06947 0.14596 0.0
H565 H 0.61538 0.12024 0.11708 0.0
H566 H 0.71001 0.19459 0.14199 0.0
H567 H 0.68264 0.15836 0.13844 0.0
C568 C 0.19876 0.70634 0.11648 0.0
C569 C 0.21401 0.69608 0.12637 0.0
C570 C 0.17819 0.69257 0.11162 0.0
C571 C 0.13612 0.64085 0.12238 0.0
H572 H 0.11136 0.64199 0.08669 0.0
C573 C 0.05963 0.57269 0.10479 0.0
C574 C 0.0391 0.58326 0.09803 0.0
C575 C 0.08123 0.58694 0.10725 0.0
C576 C 0.11804 0.64169 0.0967 0.0
H577 H 0.22122 0.66297 0.1382 0.0
H578 H 0.1864 0.6386 0.12935 0.0
H579 H 0.14963 0.66555 0.09236 0.0
H580 H 0.02553 0.61694 0.0882 0.0
H581 H 0.06356 0.64181 0.09245 0.0
H582 H 0.1049 0.61677 0.12671 0.0
C583 C 0.18941 0.65753 0.12569 0.0
C584 C 0.13989 0.65518 0.09996 0.0
C585 C 0.20953 0.67137 0.13067 0.0
C586 C 0.04094 0.60828 0.09351 0.0
C587 C 0.06275 0.62247 0.09585 0.0
C588 C 0.11456 0.62725 0.11911 0.0
C589 C 0.17284 0.66829 0.1165 0.0
C590 C 0.14935 0.65465 0.11283 0.0
C591 C 0.08294 0.61201 0.1029 0.0
C592 C 0.10542 0.62731 0.10623 0.0
H593 H 0.20178 0.72547 0.1131 0.0
H594 H 0.1658 0.70144 0.10457 0.0
H595 H 0.14233 0.64063 0.13248 0.0
H596 H 0.05893 0.55348 0.10839 0.0
H597 H 0.09665 0.57833 0.11259 0.0
C598 C 0.54235 0.93851 0.3609 0.0
C599 C 0.55245 0.95135 0.37172 0.0
C600 C 0.55629 0.91939 0.35475 0.0
C601 C 0.62036 0.89483 0.35017 0.0
H602 H 0.59066 0.82805 0.35144 0.0
C603 C 0.64862 0.78339 0.33969 0.0
C604 C 0.6731 0.78385 0.34499 0.0
C605 C 0.63308 0.8047 0.34042 0.0
C606 C 0.59913 0.84658 0.35071 0.0
H607 H 0.58521 0.95531 0.38423 0.0
H608 H 0.60973 0.92267 0.37328 0.0
H609 H 0.56473 0.86492 0.35636 0.0
H610 H 0.70031 0.80703 0.35534 0.0
H611 H 0.67312 0.84368 0.35697 0.0
H612 H 0.65478 0.87674 0.34469 0.0
C613 C 0.59107 0.92709 0.36961 0.0
C614 C 0.58423 0.86768 0.35354 0.0
C615 C 0.57701 0.94566 0.3759 0.0
C616 C 0.68164 0.80604 0.35106 0.0
C617 C 0.66608 0.8272 0.35189 0.0
C618 C 0.63515 0.87382 0.34719 0.0
C619 C 0.5807 0.91343 0.35915 0.0
C620 C 0.59495 0.89188 0.3537 0.0
C621 C 0.64162 0.82687 0.34655 0.0
C622 C 0.62496 0.84935 0.34788 0.0
H623 H 0.52336 0.94247 0.35757 0.0
H624 H 0.54792 0.90904 0.34671 0.0
H625 H 0.62897 0.91336 0.35012 0.0
H626 H 0.64151 0.76665 0.33487 0.0
H627 H 0.61446 0.80383 0.3361 0.0
C628 C 0.30499 0.29863 0.62004 0.0
C629 C 0.29022 0.30789 0.63038 0.0
C630 C 0.32515 0.313 0.61519 0.0
C631 C 0.36716 0.36463 0.62629 0.0
H632 H 0.39041 0.36533 0.59031 0.0
C633 C 0.44284 0.43376 0.60856 0.0
C634 C 0.46324 0.42328 0.60165 0.0
C635 C 0.42127 0.41948 0.61106 0.0
C636 C 0.38414 0.36514 0.6004 0.0
H637 H 0.28342 0.33986 0.64308 0.0
H638 H 0.31744 0.36535 0.63423 0.0
H639 H 0.35253 0.34128 0.59612 0.0
H640 H 0.47661 0.38978 0.59159 0.0
H641 H 0.43861 0.36489 0.59589 0.0
H642 H 0.3984 0.38876 0.63054 0.0
C643 C 0.31443 0.3467 0.6302 0.0
C644 C 0.36252 0.35136 0.60374 0.0
C645 C 0.29475 0.33223 0.63518 0.0
C646 C 0.46129 0.39836 0.59702 0.0
C647 C 0.43951 0.38416 0.59938 0.0
C648 C 0.38847 0.37857 0.62293 0.0
C649 C 0.33054 0.33693 0.62051 0.0
C650 C 0.35364 0.35114 0.61672 0.0
C651 C 0.41946 0.39451 0.60658 0.0
C652 C 0.39708 0.37912 0.60996 0.0
H653 H 0.30193 0.27979 0.61627 0.0
H654 H 0.33719 0.30484 0.60775 0.0
H655 H 0.36145 0.36429 0.63646 0.0
H656 H 0.44366 0.45289 0.61226 0.0
H657 H 0.40597 0.42797 0.61654 0.0
C658 C 0.9548 0.05991 0.86349 0.0
C659 C 0.945 0.04697 0.87436 0.0
C660 C 0.94082 0.07928 0.8576 0.0
C661 C 0.87693 0.10501 0.85396 0.0
H662 H 0.90819 0.17109 0.85498 0.0
C663 C 0.81774 0.19535 0.85522 0.0
C664 C 0.82679 0.21733 0.84915 0.0
C665 C 0.83276 0.17378 0.85597 0.0
C666 C 0.89926 0.15277 0.85433 0.0
H667 H 0.9127 0.04304 0.88719 0.0
H668 H 0.88808 0.07618 0.87669 0.0
H669 H 0.93346 0.13364 0.85954 0.0
H670 H 0.85865 0.23373 0.83889 0.0
H671 H 0.88469 0.19585 0.83993 0.0
H672 H 0.84271 0.1239 0.84888 0.0
C673 C 0.90654 0.07163 0.87278 0.0
C674 C 0.91378 0.13133 0.85695 0.0
C675 C 0.92066 0.05278 0.87882 0.0
C676 C 0.85118 0.21717 0.84373 0.0
C677 C 0.86614 0.19545 0.84436 0.0
C678 C 0.86249 0.12637 0.85117 0.0
C679 C 0.91666 0.08543 0.86231 0.0
C680 C 0.90255 0.10736 0.85717 0.0
C681 C 0.85714 0.17349 0.85052 0.0
C682 C 0.87327 0.15061 0.85175 0.0
H683 H 0.97362 0.05586 0.85995 0.0
H684 H 0.94899 0.08973 0.84954 0.0
H685 H 0.86792 0.08668 0.85397 0.0
H686 H 0.79912 0.19486 0.85958 0.0
H687 H 0.82537 0.15747 0.86106 0.0
C688 C 0.96371 0.60514 0.59334 0.0
C689 C 0.96537 0.58016 0.59793 0.0
C690 C 0.94188 0.61943 0.59549 0.0
C691 C 0.8893 0.6245 0.6183 0.0
H692 H 0.8551 0.66253 0.59114 0.0
C693 C 0.79404 0.66874 0.62898 0.0
C694 C 0.78984 0.69349 0.62468 0.0
C695 C 0.8142 0.65477 0.62412 0.0
C696 C 0.86459 0.65223 0.59885 0.0
H697 H 0.9452 0.55057 0.60826 0.0
H698 H 0.90745 0.57557 0.61212 0.0
H699 H 0.89361 0.63895 0.58588 0.0
H700 H 0.80256 0.72283 0.61152 0.0
H701 H 0.83858 0.69857 0.60318 0.0
H702 H 0.86103 0.63795 0.63137 0.0
C703 C 0.92302 0.58408 0.60686 0.0
C704 C 0.88659 0.63873 0.59583 0.0
C705 C 0.94465 0.56975 0.60461 0.0
C706 C 0.80535 0.70365 0.61488 0.0
C707 C 0.82595 0.68976 0.61014 0.0
C708 C 0.86759 0.63809 0.62134 0.0
C709 C 0.92147 0.6091 0.60242 0.0
C710 C 0.8989 0.62446 0.60551 0.0
C711 C 0.83107 0.66545 0.61506 0.0
C712 C 0.85467 0.65178 0.61162 0.0
H713 H 0.97928 0.61369 0.5881 0.0
H714 H 0.9412 0.63873 0.59202 0.0
H715 H 0.89871 0.6141 0.62602 0.0
H716 H 0.78217 0.66044 0.63647 0.0
H717 H 0.81704 0.63583 0.62781 0.0
C718 C 0.15122 0.21328 0.34556 0.0
C719 C 0.1764 0.21445 0.34988 0.0
C720 C 0.13686 0.19145 0.34752 0.0
C721 C 0.13205 0.13809 0.36973 0.0
H722 H 0.09165 0.10599 0.34281 0.0
C723 C 0.08394 0.04481 0.38062 0.0
C724 C 0.05899 0.04169 0.37641 0.0
C725 C 0.09871 0.06429 0.37567 0.0
C726 C 0.10263 0.11489 0.35046 0.0
H727 H 0.20633 0.19336 0.35944 0.0
H728 H 0.18117 0.15557 0.36297 0.0
H729 H 0.11622 0.14385 0.33754 0.0
H730 H 0.03001 0.05565 0.36338 0.0
H731 H 0.05564 0.09061 0.35494 0.0
H732 H 0.11818 0.11002 0.38278 0.0
C733 C 0.17257 0.17154 0.35808 0.0
C734 C 0.1167 0.1365 0.34743 0.0
C735 C 0.18699 0.19319 0.35601 0.0
C736 C 0.04934 0.05762 0.36665 0.0
C737 C 0.06403 0.0776 0.36185 0.0
C738 C 0.11786 0.1168 0.37278 0.0
C739 C 0.14732 0.17053 0.35396 0.0
C740 C 0.13177 0.14809 0.35702 0.0
C741 C 0.08863 0.08163 0.36665 0.0
C742 C 0.10324 0.10465 0.36317 0.0
H743 H 0.14254 0.22927 0.34074 0.0
H744 H 0.11739 0.19119 0.34432 0.0
H745 H 0.14307 0.14696 0.37738 0.0
H746 H 0.0918 0.03258 0.38808 0.0
H747 H 0.11782 0.06626 0.37926 0.0
C748 C 0.55786 0.43063 0.10728 0.0
C749 C 0.53745 0.41974 0.10055 0.0
C750 C 0.57974 0.41674 0.10965 0.0
C751 C 0.61729 0.36267 0.09877 0.0
H752 H 0.64248 0.36386 0.13438 0.0
C753 C 0.69887 0.29844 0.11792 0.0
C754 C 0.71422 0.3086 0.12779 0.0
C755 C 0.67818 0.31221 0.11319 0.0
C756 C 0.63603 0.36362 0.12432 0.0
H757 H 0.52436 0.38587 0.09074 0.0
H758 H 0.56287 0.36165 0.09484 0.0
H759 H 0.60462 0.38731 0.12889 0.0
H760 H 0.72146 0.34154 0.13972 0.0
H761 H 0.68644 0.36595 0.13109 0.0
H762 H 0.64905 0.33918 0.09418 0.0
C763 C 0.56175 0.38095 0.09827 0.0
C764 C 0.61422 0.37699 0.12121 0.0
C765 C 0.53967 0.39477 0.09602 0.0
C766 C 0.70972 0.33323 0.13219 0.0
C767 C 0.68947 0.34708 0.12733 0.0
C768 C 0.63939 0.34942 0.10186 0.0
C769 C 0.58186 0.39173 0.10524 0.0
C770 C 0.60471 0.37683 0.10841 0.0
C771 C 0.6728 0.33641 0.11818 0.0
C772 C 0.64916 0.34997 0.11466 0.0
H773 H 0.55685 0.44981 0.11088 0.0
H774 H 0.59507 0.4256 0.11494 0.0
H775 H 0.61035 0.36231 0.0888 0.0
H776 H 0.70189 0.27935 0.11447 0.0
H777 H 0.66571 0.30339 0.10616 0.0
C778 C 0.4164 0.95507 0.88002 0.0
C779 C 0.44114 0.95847 0.87556 0.0
C780 C 0.40159 0.93555 0.87514 0.0
C781 C 0.39703 0.88544 0.84973 0.0
H782 H 0.35802 0.85248 0.87694 0.0
C783 C 0.3484 0.78709 0.84469 0.0
C784 C 0.32335 0.7859 0.84921 0.0
C785 C 0.36291 0.8088 0.8467 0.0
C786 C 0.36865 0.86159 0.86921 0.0
H787 H 0.4697 0.94499 0.86214 0.0
H788 H 0.44401 0.90999 0.85381 0.0
H789 H 0.38291 0.88947 0.88226 0.0
H790 H 0.29385 0.80676 0.85924 0.0
H791 H 0.31928 0.84433 0.86289 0.0
H792 H 0.38303 0.8567 0.8368 0.0
C793 C 0.4358 0.9228 0.86088 0.0
C794 C 0.38283 0.88292 0.87222 0.0
C795 C 0.45052 0.94281 0.86561 0.0
C796 C 0.31307 0.80697 0.85565 0.0
C797 C 0.32765 0.82848 0.85778 0.0
C798 C 0.38297 0.86381 0.84674 0.0
C799 C 0.41145 0.91847 0.86594 0.0
C800 C 0.39691 0.89539 0.8625 0.0
C801 C 0.35274 0.82955 0.85342 0.0
C802 C 0.36841 0.85191 0.85644 0.0
H803 H 0.40874 0.96709 0.88763 0.0
H804 H 0.38265 0.93335 0.87894 0.0
H805 H 0.40759 0.8946 0.842 0.0
H806 H 0.35683 0.77124 0.83963 0.0
H807 H 0.38227 0.80912 0.84331 0.0
C808 C 0.94147 0.43236 0.89472 0.0
C809 C 0.96354 0.42316 0.90065 0.0
C810 C 0.9198 0.41749 0.8941 0.0
C811 C 0.89851 0.35116 0.8956 0.0
H812 H 0.83261 0.3829 0.89647 0.0
C813 C 0.80553 0.29642 0.88581 0.0
C814 C 0.7926 0.30685 0.8751 0.0
C815 C 0.82487 0.31006 0.89192 0.0
C816 C 0.85089 0.37376 0.89634 0.0
H817 H 0.97995 0.39116 0.91081 0.0
H818 H 0.94191 0.36535 0.90995 0.0
H819 H 0.87004 0.40774 0.9016 0.0
H820 H 0.78865 0.33991 0.8628 0.0
H821 H 0.82172 0.36391 0.87369 0.0
H822 H 0.87913 0.31724 0.89017 0.0
C823 C 0.94152 0.38393 0.90556 0.0
C824 C 0.87236 0.388 0.89915 0.0
C825 C 0.96333 0.39877 0.90607 0.0
C826 C 0.79835 0.33147 0.87104 0.0
C827 C 0.81718 0.34524 0.87731 0.0
C828 C 0.87696 0.33685 0.89295 0.0
C829 C 0.91949 0.39309 0.89953 0.0
C830 C 0.89652 0.3771 0.89838 0.0
C831 C 0.83101 0.33449 0.8876 0.0
C832 C 0.85305 0.34823 0.89289 0.0
H833 H 0.94099 0.45099 0.89036 0.0
H834 H 0.90342 0.425 0.88911 0.0
H835 H 0.91678 0.34215 0.89481 0.0
H836 H 0.80153 0.27737 0.88903 0.0
H837 H 0.83534 0.30139 0.89984 0.0
C838 C 0.31381 0.19311 0.64603 0.0
C839 C 0.32371 0.21478 0.65208 0.0
C840 C 0.32919 0.17231 0.64349 0.0
C841 C 0.38917 0.1411 0.65181 0.0
H842 H 0.38636 0.11764 0.61588 0.0
C843 C 0.44177 0.05298 0.62952 0.0
C844 C 0.45389 0.05821 0.61759 0.0
C845 C 0.42668 0.07141 0.63552 0.0
C846 C 0.38727 0.12394 0.62596 0.0
H847 H 0.35739 0.23109 0.6607 0.0
H848 H 0.38427 0.19462 0.65623 0.0
H849 H 0.35746 0.1505 0.62315 0.0
H850 H 0.46239 0.08761 0.60355 0.0
H851 H 0.43566 0.11923 0.61368 0.0
H852 H 0.41935 0.11445 0.65446 0.0
C853 C 0.36454 0.19384 0.65349 0.0
C854 C 0.37063 0.14259 0.63014 0.0
C855 C 0.34919 0.21478 0.65595 0.0
C856 C 0.45225 0.08258 0.61232 0.0
C857 C 0.43718 0.10081 0.61821 0.0
C858 C 0.40569 0.12207 0.64764 0.0
C859 C 0.35478 0.17259 0.64703 0.0
C860 C 0.37158 0.15161 0.64305 0.0
C861 C 0.42363 0.09518 0.62962 0.0
C862 C 0.40512 0.1137 0.63461 0.0
H863 H 0.29426 0.19234 0.64298 0.0
H864 H 0.32113 0.15608 0.6386 0.0
H865 H 0.39018 0.14766 0.66184 0.0
H866 H 0.44295 0.03435 0.63384 0.0
H867 H 0.41647 0.06672 0.64438 0.0
C868 C 0.69311 0.70358 0.37996 0.0
C869 C 0.70838 0.69388 0.36993 0.0
C870 C 0.67312 0.68915 0.38495 0.0
C871 C 0.63241 0.6362 0.37441 0.0
H872 H 0.60854 0.63646 0.41028 0.0
C873 C 0.55828 0.56588 0.39246 0.0
C874 C 0.53762 0.57589 0.39934 0.0
C875 C 0.57944 0.58069 0.38988 0.0
C876 C 0.61497 0.6364 0.40022 0.0
H877 H 0.71629 0.6611 0.35798 0.0
H878 H 0.68251 0.63558 0.36705 0.0
H879 H 0.64596 0.66116 0.40437 0.0
H880 H 0.52335 0.6092 0.40925 0.0
H881 H 0.56061 0.63507 0.40478 0.0
H882 H 0.60179 0.61124 0.37027 0.0
C883 C 0.68503 0.65458 0.37073 0.0
C884 C 0.63633 0.65054 0.39683 0.0
C885 C 0.70456 0.66908 0.36562 0.0
C886 C 0.53889 0.60095 0.40385 0.0
C887 C 0.56025 0.61572 0.40139 0.0
C888 C 0.61134 0.62196 0.37782 0.0
C889 C 0.6684 0.66474 0.38006 0.0
C890 C 0.64546 0.65035 0.38389 0.0
C891 C 0.58056 0.6058 0.39423 0.0
C892 C 0.60253 0.62171 0.39076 0.0
H893 H 0.69563 0.72277 0.38336 0.0
H894 H 0.66066 0.69757 0.39212 0.0
H895 H 0.63835 0.63622 0.36427 0.0
H896 H 0.55801 0.54666 0.38886 0.0
H897 H 0.59496 0.57251 0.38445 0.0
C898 C 0.15623 0.78587 0.15517 0.0
C899 C 0.18148 0.78644 0.15093 0.0
C900 C 0.1405 0.80677 0.15331 0.0
C901 C 0.13244 0.85891 0.13075 0.0
H902 H 0.08463 0.88535 0.15605 0.0
C903 C 0.04896 0.91798 0.11467 0.0
C904 C 0.04792 0.94244 0.11987 0.0
C905 C 0.06429 0.89971 0.12035 0.0
C906 C 0.09802 0.87819 0.14896 0.0
H907 H 0.21018 0.80982 0.14183 0.0
H908 H 0.18265 0.84601 0.13846 0.0
H909 H 0.11472 0.85233 0.16266 0.0
H910 H 0.06014 0.96644 0.1358 0.0
H911 H 0.08708 0.93399 0.14597 0.0
H912 H 0.11548 0.88408 0.11697 0.0
C913 C 0.17506 0.82938 0.1432 0.0
C914 C 0.11507 0.85929 0.15269 0.0
C915 C 0.19082 0.80863 0.14515 0.0
C916 C 0.06082 0.94773 0.13156 0.0
C917 C 0.07618 0.92925 0.13735 0.0
C918 C 0.11526 0.87742 0.127 0.0
C919 C 0.14966 0.82852 0.14706 0.0
C920 C 0.13235 0.84941 0.14357 0.0
C921 C 0.07869 0.90541 0.13147 0.0
C922 C 0.09774 0.88704 0.13601 0.0
H923 H 0.14846 0.76915 0.15974 0.0
H924 H 0.12093 0.80554 0.15629 0.0
H925 H 0.14534 0.85148 0.12348 0.0
H926 H 0.03827 0.913 0.10606 0.0
H927 H 0.06545 0.88126 0.11583 0.0
C928 C 0.69391 0.79889 0.87951 0.0
C929 C 0.70979 0.80904 0.86987 0.0
C930 C 0.67365 0.81314 0.88435 0.0
C931 C 0.63348 0.86604 0.87339 0.0
H932 H 0.6064 0.86448 0.90862 0.0
C933 C 0.5568 0.9349 0.89002 0.0
C934 C 0.53583 0.92459 0.89652 0.0
C935 C 0.5783 0.92036 0.8878 0.0
C936 C 0.61372 0.8649 0.89873 0.0
H937 H 0.71853 0.84231 0.85848 0.0
H938 H 0.68429 0.86756 0.86735 0.0
H939 H 0.64466 0.84042 0.90346 0.0
H940 H 0.52131 0.89101 0.90607 0.0
H941 H 0.55914 0.86559 0.90219 0.0
H942 H 0.60288 0.89065 0.86866 0.0
C943 C 0.68658 0.8484 0.87084 0.0
C944 C 0.63558 0.85115 0.89577 0.0
C945 C 0.70638 0.83408 0.86586 0.0
C946 C 0.53708 0.89948 0.90096 0.0
C947 C 0.55877 0.88498 0.89884 0.0
C948 C 0.61191 0.87988 0.87636 0.0
C949 C 0.66927 0.83778 0.87969 0.0
C950 C 0.64587 0.85183 0.88308 0.0
C951 C 0.57946 0.89522 0.8921 0.0
C952 C 0.60192 0.87967 0.88907 0.0
H953 H 0.69609 0.77947 0.88262 0.0
H954 H 0.66066 0.80438 0.89115 0.0
H955 H 0.64033 0.86638 0.8634 0.0
H956 H 0.55657 0.95417 0.8865 0.0
H957 H 0.59409 0.9288 0.88269 0.0
C958 C 0.41769 0.44461 0.11669 0.0
C959 C 0.44136 0.45121 0.12179 0.0
C960 C 0.40292 0.42643 0.12286 0.0
C961 C 0.40792 0.36889 0.14078 0.0
H962 H 0.33634 0.37791 0.14705 0.0
C963 C 0.34359 0.28542 0.15568 0.0
C964 C 0.3194 0.28486 0.15005 0.0
C965 C 0.35884 0.30682 0.15448 0.0
C966 C 0.35625 0.37497 0.14525 0.0
H967 H 0.46814 0.44437 0.1374 0.0
H968 H 0.44241 0.41159 0.14805 0.0
H969 H 0.36233 0.4142 0.14128 0.0
H970 H 0.29241 0.30624 0.13858 0.0
H971 H 0.31921 0.34304 0.13605 0.0
H972 H 0.40176 0.32949 0.1439 0.0
C973 C 0.43525 0.42094 0.13939 0.0
C974 C 0.37113 0.39582 0.14208 0.0
C975 C 0.44984 0.43969 0.13336 0.0
C976 C 0.31087 0.3061 0.14313 0.0
C977 C 0.3262 0.32734 0.14178 0.0
C978 C 0.39296 0.34792 0.14375 0.0
C979 C 0.41174 0.41407 0.13411 0.0
C980 C 0.39697 0.39287 0.13955 0.0
C981 C 0.35037 0.32806 0.14748 0.0
C982 C 0.36681 0.35061 0.14572 0.0
H983 H 0.41074 0.45325 0.10778 0.0
H984 H 0.385 0.42128 0.11852 0.0
H985 H 0.42777 0.36612 0.13872 0.0
H986 H 0.35065 0.26943 0.16118 0.0
H987 H 0.37718 0.30677 0.15914 0.0
C988 C 0.96291 0.09967 0.40252 0.0
C989 C 0.96417 0.07445 0.39825 0.0
C990 C 0.94098 0.11391 0.40059 0.0
C991 C 0.88657 0.11779 0.37883 0.0
H992 H 0.85538 0.15849 0.40593 0.0
C993 C 0.79187 0.16378 0.36907 0.0
C994 C 0.7889 0.18902 0.37282 0.0
C995 C 0.81173 0.14946 0.37398 0.0
C996 C 0.86401 0.1474 0.39824 0.0
H997 H 0.9432 0.0444 0.38875 0.0
H998 H 0.90525 0.0693 0.38529 0.0
H999 H 0.89391 0.13463 0.4108 0.0
H1000 H 0.80347 0.21898 0.38505 0.0
H1001 H 0.83899 0.19407 0.39345 0.0
H1002 H 0.85743 0.13075 0.36615 0.0
C1003 C 0.92122 0.07805 0.3901 0.0
C1004 C 0.88602 0.13376 0.40103 0.0
C1005 C 0.94297 0.06377 0.39213 0.0
C1006 C 0.80529 0.1994 0.38216 0.0
C1007 C 0.82561 0.18514 0.38692 0.0
C1008 C 0.86483 0.1315 0.37603 0.0
C1009 C 0.92004 0.10329 0.39423 0.0
C1010 C 0.8973 0.11859 0.39137 0.0
C1011 C 0.82955 0.16027 0.38249 0.0
C1012 C 0.85302 0.14619 0.38572 0.0
H1013 H 0.97886 0.10843 0.40733 0.0
H1014 H 0.94061 0.13339 0.40379 0.0
H1015 H 0.89517 0.1067 0.37112 0.0
H1016 H 0.77933 0.15538 0.36192 0.0
H1017 H 0.81369 0.13014 0.37069 0.0
C1018 C 0.15485 0.7172 0.65241 0.0
C1019 C 0.17981 0.71844 0.64776 0.0
C1020 C 0.14008 0.69578 0.65011 0.0
C1021 C 0.13312 0.6448 0.62667 0.0
H1022 H 0.09513 0.60978 0.65356 0.0
C1023 C 0.08521 0.55197 0.61457 0.0
C1024 C 0.06072 0.54799 0.61928 0.0
C1025 C 0.10001 0.57136 0.61959 0.0
C1026 C 0.1054 0.61952 0.64592 0.0
H1027 H 0.20889 0.69797 0.6372 0.0
H1028 H 0.18298 0.66091 0.63304 0.0
H1029 H 0.12004 0.64716 0.6593 0.0
H1030 H 0.03264 0.56029 0.63326 0.0
H1031 H 0.0583 0.59509 0.64184 0.0
H1032 H 0.11822 0.61804 0.61318 0.0
C1033 C 0.1749 0.67649 0.63848 0.0
C1034 C 0.11967 0.64085 0.64922 0.0
C1035 C 0.18974 0.6977 0.64091 0.0
C1036 C 0.05161 0.56295 0.62957 0.0
C1037 C 0.06631 0.58284 0.63445 0.0
C1038 C 0.11871 0.6238 0.62335 0.0
C1039 C 0.1499 0.67539 0.64297 0.0
C1040 C 0.13392 0.65343 0.63963 0.0
C1041 C 0.0904 0.58773 0.6292 0.0
C1042 C 0.10499 0.61059 0.63295 0.0
H1043 H 0.14669 0.7328 0.65779 0.0
H1044 H 0.1208 0.69542 0.65361 0.0
H1045 H 0.14351 0.65447 0.61904 0.0
H1046 H 0.0927 0.54047 0.60671 0.0
H1047 H 0.11877 0.57398 0.61562 0.0
C1048 C 0.56789 0.06556 0.60129 0.0
C1049 C 0.54865 0.07681 0.59383 0.0
C1050 C 0.58994 0.07884 0.60414 0.0
C1051 C 0.62978 0.13254 0.59474 0.0
H1052 H 0.64608 0.1344 0.6317 0.0
C1053 C 0.70227 0.2024 0.61752 0.0
C1054 C 0.71539 0.19422 0.62866 0.0
C1055 C 0.68378 0.18696 0.61186 0.0
C1056 C 0.64222 0.13374 0.6213 0.0
H1057 H 0.53808 0.11041 0.58297 0.0
H1058 H 0.57679 0.13351 0.58793 0.0
H1059 H 0.61088 0.10903 0.62422 0.0
H1060 H 0.72111 0.16307 0.64205 0.0
H1061 H 0.69008 0.13574 0.63186 0.0
H1062 H 0.66136 0.15715 0.59182 0.0
C1063 C 0.57467 0.11443 0.59157 0.0
C1064 C 0.62193 0.11924 0.61703 0.0
C1065 C 0.55245 0.10125 0.58882 0.0
C1066 C 0.71097 0.16991 0.63355 0.0
C1067 C 0.693 0.15436 0.62777 0.0
C1068 C 0.6504 0.14687 0.599 0.0
C1069 C 0.59335 0.10354 0.59949 0.0
C1070 C 0.61548 0.11848 0.60373 0.0
C1071 C 0.67847 0.16299 0.61716 0.0
C1072 C 0.65689 0.1476 0.61235 0.0
H1073 H 0.56565 0.04675 0.60527 0.0
H1074 H 0.60419 0.06994 0.61018 0.0
H1075 H 0.62517 0.13221 0.58441 0.0
H1076 H 0.70531 0.22117 0.61363 0.0
H1077 H 0.6729 0.19429 0.60374 0.0
C1078 C 0.14822 0.28458 0.84447 0.0
C1079 C 0.17271 0.28458 0.84976 0.0
C1080 C 0.13321 0.30627 0.84505 0.0
C1081 C 0.13672 0.3755 0.85146 0.0
H1082 H 0.06591 0.3681 0.86018 0.0
C1083 C 0.07867 0.44953 0.87886 0.0
C1084 C 0.05418 0.45507 0.87451 0.0
C1085 C 0.09277 0.4306 0.87287 0.0
C1086 C 0.08554 0.37044 0.85749 0.0
H1087 H 0.20055 0.30735 0.85988 0.0
H1088 H 0.17423 0.34472 0.86129 0.0
H1089 H 0.09129 0.33067 0.85575 0.0
H1090 H 0.02529 0.44561 0.86035 0.0
H1091 H 0.04991 0.41162 0.85003 0.0
H1092 H 0.13115 0.41523 0.85402 0.0
C1093 C 0.16677 0.32828 0.85633 0.0
C1094 C 0.10013 0.34901 0.85494 0.0
C1095 C 0.18184 0.30672 0.85563 0.0
C1096 C 0.04423 0.44178 0.8638 0.0
C1097 C 0.0582 0.42233 0.85796 0.0
C1098 C 0.12222 0.39686 0.85417 0.0
C1099 C 0.14227 0.32838 0.85103 0.0
C1100 C 0.12607 0.35123 0.85223 0.0
C1101 C 0.08251 0.41646 0.86256 0.0
C1102 C 0.09665 0.39447 0.8575 0.0
H1103 H 0.14068 0.2679 0.83977 0.0
H1104 H 0.11458 0.30572 0.84073 0.0
H1105 H 0.15645 0.37801 0.84906 0.0
H1106 H 0.08675 0.45953 0.8871 0.0
H1107 H 0.11134 0.42628 0.8767 0.0
C1108 C 0.93349 0.93585 0.10117 0.0
C1109 C 0.95377 0.92401 0.09476 0.0
C1110 C 0.91089 0.92294 0.10321 0.0
C1111 C 0.87253 0.86859 0.09281 0.0
H1112 H 0.8482 0.8708 0.12856 0.0
C1113 C 0.79656 0.80035 0.11385 0.0
C1114 C 0.78131 0.8096 0.12399 0.0
C1115 C 0.81558 0.81559 0.10851 0.0
C1116 C 0.85432 0.87033 0.11845 0.0
H1117 H 0.96574 0.88964 0.085 0.0
H1118 H 0.92616 0.86716 0.08861 0.0
H1119 H 0.88501 0.89524 0.12249 0.0
H1120 H 0.77226 0.84227 0.13578 0.0
H1121 H 0.80425 0.86923 0.12605 0.0
H1122 H 0.84168 0.84359 0.0888 0.0
C1123 C 0.92785 0.88644 0.09201 0.0
C1124 C 0.87554 0.88431 0.115 0.0
C1125 C 0.95057 0.89928 0.09004 0.0
C1126 C 0.78401 0.8347 0.12804 0.0
C1127 C 0.80252 0.85002 0.12255 0.0
C1128 C 0.85103 0.85472 0.09624 0.0
C1129 C 0.90797 0.89799 0.09883 0.0
C1130 C 0.8849 0.88359 0.10217 0.0
C1131 C 0.81929 0.84037 0.11314 0.0
C1132 C 0.84166 0.85546 0.10913 0.0
H1133 H 0.93522 0.95491 0.10488 0.0
H1134 H 0.89575 0.9324 0.10838 0.0
H1135 H 0.87935 0.86778 0.08283 0.0
H1136 H 0.79491 0.78093 0.11067 0.0
H1137 H 0.82819 0.80749 0.10131 0.0
C1138 C 0.4521 0.55776 0.36844 0.0
C1139 C 0.44299 0.54274 0.37872 0.0
C1140 C 0.43748 0.57779 0.36364 0.0
C1141 C 0.38517 0.6189 0.37485 0.0
H1142 H 0.3844 0.64285 0.339 0.0
C1143 C 0.31473 0.69348 0.35723 0.0
C1144 C 0.32491 0.71431 0.35055 0.0
C1145 C 0.32943 0.67217 0.35966 0.0
C1146 C 0.38461 0.63637 0.34905 0.0
H1147 H 0.41107 0.53532 0.39134 0.0
H1148 H 0.38511 0.56907 0.38256 0.0
H1149 H 0.409 0.60521 0.34465 0.0
H1150 H 0.35834 0.72873 0.34083 0.0
H1151 H 0.38399 0.69114 0.34501 0.0
H1152 H 0.36048 0.64967 0.37921 0.0
C1153 C 0.40383 0.56638 0.37854 0.0
C1154 C 0.39871 0.6149 0.35231 0.0
C1155 C 0.41856 0.54685 0.38349 0.0
C1156 C 0.34999 0.71306 0.34608 0.0
C1157 C 0.36462 0.69153 0.34838 0.0
C1158 C 0.37091 0.64005 0.37157 0.0
C1159 C 0.41344 0.58278 0.36894 0.0
C1160 C 0.39894 0.60576 0.36524 0.0
C1161 C 0.35454 0.67104 0.35534 0.0
C1162 C 0.37033 0.6489 0.35865 0.0
H1163 H 0.47103 0.55502 0.3647 0.0
H1164 H 0.44552 0.59005 0.35626 0.0
H1165 H 0.38551 0.613 0.385 0.0
H1166 H 0.29548 0.69377 0.36079 0.0
H1167 H 0.32116 0.65652 0.36497 0.0
C1168 C 0.43418 0.06752 0.10243 0.0
C1169 C 0.45393 0.07936 0.09561 0.0
C1170 C 0.41163 0.08032 0.10482 0.0
C1171 C 0.37202 0.13395 0.09479 0.0
H1172 H 0.35072 0.13305 0.13107 0.0
C1173 C 0.29628 0.20178 0.11645 0.0
C1174 C 0.28192 0.19272 0.12698 0.0
C1175 C 0.31536 0.18675 0.11101 0.0
C1176 C 0.35599 0.13315 0.12083 0.0
H1177 H 0.46497 0.11358 0.08543 0.0
H1178 H 0.42545 0.13586 0.08959 0.0
H1179 H 0.38727 0.10872 0.12446 0.0
H1180 H 0.27456 0.16049 0.13941 0.0
H1181 H 0.30666 0.13387 0.12956 0.0
H1182 H 0.34053 0.15839 0.09118 0.0
C1183 C 0.42753 0.11668 0.09308 0.0
C1184 C 0.37706 0.11924 0.11707 0.0
C1185 C 0.45021 0.10396 0.09079 0.0
C1186 C 0.28563 0.16796 0.13138 0.0
C1187 C 0.30421 0.15283 0.12581 0.0
C1188 C 0.35065 0.14773 0.09854 0.0
C1189 C 0.40823 0.10515 0.10034 0.0
C1190 C 0.38532 0.11948 0.10403 0.0
C1191 C 0.32004 0.16234 0.11593 0.0
C1192 C 0.34236 0.14745 0.11162 0.0
H1193 H 0.43633 0.04856 0.10624 0.0
H1194 H 0.39694 0.0709 0.11033 0.0
H1195 H 0.378 0.13439 0.08465 0.0
H1196 H 0.29382 0.22093 0.11297 0.0
H1197 H 0.32724 0.19473 0.10346 0.0
C1198 C 0.57955 0.55057 0.88247 0.0
C1199 C 0.55509 0.54661 0.87769 0.0
C1200 C 0.59449 0.56985 0.87744 0.0
C1201 C 0.60039 0.61749 0.85085 0.0
H1202 H 0.63908 0.65245 0.87749 0.0
C1203 C 0.65045 0.71469 0.84384 0.0
C1204 C 0.67546 0.71587 0.84842 0.0
C1205 C 0.6356 0.69336 0.84626 0.0
C1206 C 0.62853 0.64276 0.86992 0.0
H1207 H 0.52725 0.55892 0.86358 0.0
H1208 H 0.55315 0.59352 0.85499 0.0
H1209 H 0.61343 0.6164 0.88356 0.0
H1210 H 0.70456 0.6954 0.85896 0.0
H1211 H 0.67851 0.65851 0.86334 0.0
H1212 H 0.61521 0.64476 0.83731 0.0
C1213 C 0.56101 0.58133 0.86245 0.0
C1214 C 0.61391 0.62198 0.87337 0.0
C1215 C 0.54616 0.56156 0.86734 0.0
C1216 C 0.68537 0.69516 0.85531 0.0
C1217 C 0.67045 0.67405 0.85786 0.0
C1218 C 0.61486 0.6386 0.84742 0.0
C1219 C 0.5851 0.58614 0.86773 0.0
C1220 C 0.59995 0.60878 0.86386 0.0
C1221 C 0.64539 0.67302 0.85345 0.0
C1222 C 0.62931 0.65119 0.85693 0.0
H1223 H 0.58693 0.53907 0.89036 0.0
H1224 H 0.61323 0.57238 0.88144 0.0
H1225 H 0.58997 0.60774 0.84327 0.0
H1226 H 0.64229 0.73026 0.83844 0.0
H1227 H 0.61628 0.69306 0.84282 0.0
C1228 C 0.20152 0.80113 0.61456 0.0
C1229 C 0.21336 0.81077 0.62578 0.0
C1230 C 0.18198 0.81469 0.60855 0.0
C1231 C 0.15374 0.87768 0.60547 0.0
H1232 H 0.0892 0.84337 0.60447 0.0
C1233 C 0.06065 0.93273 0.6048 0.0
C1234 C 0.03978 0.92285 0.59806 0.0
C1235 C 0.08278 0.91866 0.60607 0.0
C1236 C 0.10711 0.85318 0.60439 0.0
H1237 H 0.21517 0.84243 0.63916 0.0
H1238 H 0.18176 0.86636 0.62846 0.0
H1239 H 0.12736 0.81959 0.60953 0.0
H1240 H 0.02596 0.89056 0.58717 0.0
H1241 H 0.06481 0.86624 0.58912 0.0
H1242 H 0.13373 0.91128 0.60041 0.0
C1243 C 0.18729 0.84834 0.62436 0.0
C1244 C 0.12896 0.8395 0.6073 0.0
C1245 C 0.20632 0.83461 0.6305 0.0
C1246 C 0.04163 0.89864 0.59253 0.0
C1247 C 0.0639 0.88466 0.59368 0.0
C1248 C 0.13198 0.89129 0.60238 0.0
C1249 C 0.17455 0.83829 0.61351 0.0
C1250 C 0.15234 0.85178 0.60822 0.0
C1251 C 0.08477 0.89447 0.60049 0.0
C1252 C 0.10826 0.87938 0.6022 0.0
H1253 H 0.2065 0.78267 0.61081 0.0
H1254 H 0.17238 0.80658 0.60019 0.0
H1255 H 0.17162 0.88751 0.60601 0.0
H1256 H 0.05983 0.95125 0.60926 0.0
H1257 H 0.09818 0.92666 0.61166 0.0
C1258 C 0.91934 0.44967 0.38013 0.0
C1259 C 0.94421 0.45283 0.37578 0.0
C1260 C 0.90466 0.42988 0.37545 0.0
C1261 C 0.90028 0.37881 0.35063 0.0
H1262 H 0.86061 0.34721 0.37802 0.0
C1263 C 0.84967 0.28134 0.34606 0.0
C1264 C 0.82456 0.28083 0.35053 0.0
C1265 C 0.8647 0.30271 0.34803 0.0
C1266 C 0.87144 0.35593 0.37025 0.0
H1267 H 0.97306 0.43861 0.36274 0.0
H1268 H 0.94753 0.40317 0.35476 0.0
H1269 H 0.88592 0.38405 0.38309 0.0
H1270 H 0.79552 0.30253 0.36044 0.0
H1271 H 0.82183 0.33951 0.364 0.0
H1272 H 0.88597 0.34989 0.33791 0.0
C1273 C 0.93919 0.41635 0.3616 0.0
C1274 C 0.88587 0.37715 0.37311 0.0
C1275 C 0.95381 0.43661 0.36614 0.0
C1276 C 0.81478 0.30221 0.35689 0.0
C1277 C 0.82985 0.32339 0.35897 0.0
C1278 C 0.88595 0.35727 0.34779 0.0
C1279 C 0.91471 0.41233 0.36656 0.0
C1280 C 0.90015 0.38917 0.36331 0.0
C1281 C 0.85499 0.3238 0.35464 0.0
C1282 C 0.87113 0.34589 0.35755 0.0
H1283 H 0.91147 0.46213 0.38748 0.0
H1284 H 0.88562 0.4279 0.37915 0.0
H1285 H 0.91101 0.38761 0.34286 0.0
H1286 H 0.85774 0.26523 0.34106 0.0
H1287 H 0.88407 0.30252 0.34466 0.0
C1288 C 0.29546 0.83043 0.36868 0.0
C1289 C 0.28928 0.80597 0.37282 0.0
C1290 C 0.31416 0.84413 0.37509 0.0
C1291 C 0.37329 0.83503 0.39114 0.0
H1292 H 0.36768 0.90627 0.39925 0.0
C1293 C 0.46084 0.89555 0.40383 0.0
C1294 C 0.46151 0.9198 0.39825 0.0
C1295 C 0.43873 0.88116 0.40343 0.0
C1296 C 0.36963 0.88642 0.39696 0.0
H1297 H 0.29721 0.77672 0.38704 0.0
H1298 H 0.3308 0.80062 0.39811 0.0
H1299 H 0.32981 0.88203 0.39419 0.0
H1300 H 0.43949 0.94785 0.38782 0.0
H1301 H 0.40141 0.92258 0.38675 0.0
H1302 H 0.41318 0.83961 0.39305 0.0
C1303 C 0.32076 0.80923 0.39003 0.0
C1304 C 0.34791 0.87254 0.39419 0.0
C1305 C 0.30153 0.79568 0.38377 0.0
C1306 C 0.43961 0.92931 0.39228 0.0
C1307 C 0.41764 0.91487 0.39178 0.0
C1308 C 0.39509 0.84899 0.39374 0.0
C1309 C 0.32743 0.83345 0.3856 0.0
C1310 C 0.34961 0.84688 0.39093 0.0
C1311 C 0.41687 0.89061 0.39736 0.0
C1312 C 0.39359 0.87504 0.39631 0.0
H1313 H 0.28628 0.83872 0.36024 0.0
H1314 H 0.31912 0.86263 0.37139 0.0
H1315 H 0.37511 0.81532 0.3885 0.0
H1316 H 0.47732 0.88774 0.4086 0.0
H1317 H 0.43876 0.86268 0.40795 0.0
C1318 C 0.95237 0.56384 0.13089 0.0
C1319 C 0.94382 0.55185 0.11947 0.0
C1320 C 0.93777 0.58276 0.13677 0.0
C1321 C 0.87358 0.60763 0.13946 0.0
H1322 H 0.90377 0.67419 0.14058 0.0
C1323 C 0.81263 0.69689 0.14013 0.0
C1324 C 0.82105 0.71834 0.14691 0.0
C1325 C 0.82816 0.67578 0.13882 0.0
C1326 C 0.89511 0.65571 0.14063 0.0
H1327 H 0.91307 0.5492 0.10557 0.0
H1328 H 0.88731 0.58148 0.11606 0.0
H1329 H 0.92996 0.63756 0.13559 0.0
H1330 H 0.85235 0.73431 0.15778 0.0
H1331 H 0.87926 0.69719 0.15578 0.0
H1332 H 0.83876 0.62548 0.14444 0.0
C1333 C 0.9053 0.57656 0.12039 0.0
C1334 C 0.91015 0.63474 0.13776 0.0
C1335 C 0.92007 0.5582 0.11437 0.0
C1336 C 0.84537 0.71815 0.1524 0.0
C1337 C 0.86083 0.69688 0.15122 0.0
C1338 C 0.85861 0.62849 0.14252 0.0
C1339 C 0.91419 0.58936 0.13149 0.0
C1340 C 0.89935 0.61066 0.13679 0.0
C1341 C 0.85243 0.6754 0.1444 0.0
C1342 C 0.869 0.65292 0.14273 0.0
H1343 H 0.97073 0.55936 0.13493 0.0
H1344 H 0.94498 0.59245 0.14532 0.0
H1345 H 0.86489 0.58917 0.13886 0.0
H1346 H 0.79407 0.69647 0.13569 0.0
H1347 H 0.82122 0.6599 0.13321 0.0
C1348 C 0.19391 0.20638 0.88661 0.0
C1349 C 0.20724 0.19555 0.87614 0.0
C1350 C 0.17449 0.19287 0.89274 0.0
C1351 C 0.14838 0.12916 0.89746 0.0
H1352 H 0.08261 0.16074 0.89479 0.0
C1353 C 0.05791 0.07058 0.89465 0.0
C1354 C 0.0356 0.07977 0.90034 0.0
C1355 C 0.07959 0.08548 0.89427 0.0
C1356 C 0.10083 0.15175 0.8959 0.0
H1357 H 0.21192 0.16194 0.86433 0.0
H1358 H 0.17873 0.13818 0.87525 0.0
H1359 H 0.12049 0.18555 0.89056 0.0
H1360 H 0.01872 0.11181 0.91026 0.0
H1361 H 0.05675 0.13768 0.90977 0.0
H1362 H 0.12891 0.09527 0.90258 0.0
C1363 C 0.183 0.15704 0.87868 0.0
C1364 C 0.12252 0.16601 0.89348 0.0
C1365 C 0.2019 0.17067 0.87239 0.0
C1366 C 0.03554 0.10421 0.90571 0.0
C1367 C 0.05734 0.11907 0.90541 0.0
C1368 C 0.12675 0.11498 0.90001 0.0
C1369 C 0.16869 0.16819 0.88868 0.0
C1370 C 0.14642 0.15461 0.89383 0.0
C1371 C 0.07964 0.10989 0.89967 0.0
C1372 C 0.10266 0.12586 0.89881 0.0
H1373 H 0.19759 0.22565 0.88957 0.0
H1374 H 0.16366 0.20184 0.90043 0.0
H1375 H 0.16664 0.12001 0.8979 0.0
H1376 H 0.05862 0.05192 0.89036 0.0
H1377 H 0.09621 0.07797 0.88949 0.0
C1378 C 0.54883 0.44353 0.63468 0.0
C1379 C 0.55787 0.4554 0.62332 0.0
C1380 C 0.56309 0.42453 0.64073 0.0
C1381 C 0.62703 0.39886 0.64381 0.0
H1382 H 0.5958 0.33277 0.64492 0.0
C1383 C 0.6865 0.30863 0.64444 0.0
C1384 C 0.6778 0.28735 0.65127 0.0
C1385 C 0.6713 0.32998 0.64313 0.0
C1386 C 0.60474 0.35113 0.64497 0.0
H1387 H 0.58913 0.45778 0.60972 0.0
H1388 H 0.61428 0.42537 0.62048 0.0
H1389 H 0.57023 0.36979 0.63983 0.0
H1390 H 0.64634 0.27195 0.66224 0.0
H1391 H 0.62 0.30947 0.66024 0.0
H1392 H 0.66154 0.38046 0.64885 0.0
C1393 C 0.59619 0.43045 0.62465 0.0
C1394 C 0.59005 0.37232 0.64205 0.0
C1395 C 0.58176 0.4489 0.61847 0.0
C1396 C 0.65354 0.28796 0.65682 0.0
C1397 C 0.6384 0.30947 0.65564 0.0
C1398 C 0.64164 0.37777 0.64691 0.0
C1399 C 0.58681 0.41773 0.63567 0.0
C1400 C 0.60123 0.39623 0.64108 0.0
C1401 C 0.64709 0.33077 0.64877 0.0
C1402 C 0.63087 0.35351 0.64711 0.0
H1403 H 0.53035 0.44812 0.63853 0.0
H1404 H 0.55549 0.41491 0.64921 0.0
H1405 H 0.63602 0.41717 0.64322 0.0
H1406 H 0.70502 0.30875 0.63995 0.0
H1407 H 0.67844 0.34573 0.6375 0.0
C1408 C 0.27075 0.22396 0.20376 0.0
C1409 C 0.25501 0.23646 0.19476 0.0
C1410 C 0.26817 0.22797 0.21716 0.0
C1411 C 0.24409 0.27334 0.24124 0.0
H1412 H 0.24987 0.21663 0.26508 0.0
C1413 C 0.222 0.2813 0.29623 0.0
C1414 C 0.23777 0.26854 0.30512 0.0
C1415 C 0.22465 0.27777 0.28279 0.0
C1416 C 0.24855 0.23269 0.25856 0.0
H1417 H 0.22404 0.26297 0.19288 0.0
H1418 H 0.21938 0.26985 0.21645 0.0
H1419 H 0.25201 0.20948 0.24154 0.0
H1420 H 0.26899 0.24227 0.30677 0.0
H1421 H 0.27372 0.2362 0.28316 0.0
H1422 H 0.24059 0.29654 0.25828 0.0
C1423 C 0.2339 0.25709 0.21302 0.0
C1424 C 0.24969 0.2286 0.24508 0.0
C1425 C 0.23647 0.25304 0.19953 0.0
C1426 C 0.25652 0.25236 0.3002 0.0
C1427 C 0.25913 0.24877 0.28669 0.0
C1428 C 0.24293 0.27743 0.25474 0.0
C1429 C 0.24976 0.24456 0.22196 0.0
C1430 C 0.24754 0.24888 0.23626 0.0
C1431 C 0.24312 0.26138 0.27786 0.0
C1432 C 0.24516 0.25715 0.26354 0.0
H1433 H 0.28532 0.21109 0.20048 0.0
H1434 H 0.28095 0.21834 0.22375 0.0
H1435 H 0.24277 0.28939 0.23472 0.0
H1436 H 0.20733 0.29392 0.29963 0.0
H1437 H 0.21181 0.2875 0.27627 0.0
C1438 C 0.97578 0.96908 0.54471 0.0
C1439 C 0.98697 0.98563 0.55378 0.0
C1440 C 0.97914 0.97251 0.53131 0.0
C1441 C 0.99569 0.01989 0.50657 0.0
H1442 H 0.00809 0.96126 0.48475 0.0
C1443 C 0.02503 0.02846 0.45266 0.0
C1444 C 0.01424 0.01175 0.44354 0.0
C1445 C 0.02122 0.02516 0.46603 0.0
C1446 C 0.00431 0.97776 0.49069 0.0
H1447 H 0.01041 0.01893 0.5558 0.0
H1448 H 0.01641 0.02487 0.53224 0.0
H1449 H 0.00329 0.95609 0.50834 0.0
H1450 H 0.99093 0.97838 0.4414 0.0
H1451 H 0.98413 0.97269 0.46492 0.0
H1452 H 0.99672 0.04156 0.48892 0.0
C1453 C 0.00486 0.00932 0.5356 0.0
C1454 C 0.00163 0.97483 0.5042 0.0
C1455 C 0.00151 0.00586 0.54909 0.0
C1456 C 0.99954 0.99156 0.44816 0.0
C1457 C 0.99574 0.98824 0.46162 0.0
C1458 C 0.99836 0.02282 0.49306 0.0
C1459 C 0.99379 0.99257 0.52659 0.0
C1460 C 0.99728 0.99586 0.51229 0.0
C1461 C 0.0065 0.00509 0.47068 0.0
C1462 C 0.00276 0.00179 0.48497 0.0
H1463 H 0.96433 0.95333 0.54792 0.0
H1464 H 0.97 0.95955 0.52463 0.0
H1465 H 0.99194 0.03639 0.51251 0.0
H1466 H 0.03656 0.04419 0.44951 0.0
H1467 H 0.03014 0.0382 0.47276 0.0
C1468 C 0.22553 0.77908 0.70265 0.0
C1469 C 0.24195 0.76759 0.69361 0.0
C1470 C 0.22813 0.77478 0.71603 0.0
C1471 C 0.27338 0.75428 0.74108 0.0
H1472 H 0.2131 0.74405 0.76198 0.0
C1473 C 0.27795 0.72316 0.79489 0.0
C1474 C 0.26155 0.73488 0.80386 0.0
C1475 C 0.27531 0.72711 0.78148 0.0
C1476 C 0.23007 0.74718 0.7563 0.0
H1477 H 0.27417 0.74265 0.69164 0.0
H1478 H 0.27865 0.73501 0.71515 0.0
H1479 H 0.20938 0.75029 0.73841 0.0
H1480 H 0.2293 0.75983 0.80567 0.0
H1481 H 0.22477 0.76686 0.78212 0.0
H1482 H 0.29407 0.75119 0.75898 0.0
C1483 C 0.26385 0.74753 0.71179 0.0
C1484 C 0.22796 0.7507 0.7428 0.0
C1485 C 0.26124 0.75182 0.69833 0.0
C1486 C 0.24222 0.75049 0.79904 0.0
C1487 C 0.23957 0.75444 0.78555 0.0
C1488 C 0.27548 0.75076 0.75459 0.0
C1489 C 0.2472 0.75887 0.72076 0.0
C1490 C 0.24959 0.75435 0.73504 0.0
C1491 C 0.25622 0.74289 0.77665 0.0
C1492 C 0.25385 0.74716 0.76234 0.0
H1493 H 0.21052 0.79147 0.69942 0.0
H1494 H 0.2153 0.78418 0.72268 0.0
H1495 H 0.29034 0.75744 0.73541 0.0
H1496 H 0.29298 0.71087 0.79819 0.0
H1497 H 0.28814 0.71757 0.77488 0.0
C1498 C 0.52625 0.03444 0.04288 0.0
C1499 C 0.51473 0.01871 0.05223 0.0
C1500 C 0.52336 0.02984 0.02956 0.0
C1501 C 0.50699 0.98113 0.0055 0.0
H1502 H 0.49406 0.0388 0.98306 0.0
C1503 C 0.47759 0.97078 0.95158 0.0
C1504 C 0.488 0.98755 0.94236 0.0
C1505 C 0.48161 0.97424 0.96493 0.0
C1506 C 0.498 0.02256 0.98916 0.0
H1507 H 0.49151 0.98541 0.05483 0.0
H1508 H 0.48631 0.97741 0.03136 0.0
H1509 H 0.49886 0.04494 0.00656 0.0
H1510 H 0.51102 0.02107 0.94002 0.0
H1511 H 0.51819 0.02705 0.96347 0.0
H1512 H 0.50608 0.95875 0.98808 0.0
C1513 C 0.49771 0.99326 0.03447 0.0
C1514 C 0.50068 0.02604 0.00263 0.0
C1515 C 0.50061 0.99788 0.04789 0.0
C1516 C 0.50267 0.00786 0.94685 0.0
C1517 C 0.50668 0.01133 0.96027 0.0
C1518 C 0.50432 0.97764 0.99202 0.0
C1519 C 0.50884 0.00941 0.02518 0.0
C1520 C 0.50527 0.00539 0.01094 0.0
C1521 C 0.49616 0.99454 0.96944 0.0
C1522 C 0.49979 0.99833 0.9837 0.0
H1523 H 0.5375 0.05052 0.04581 0.0
H1524 H 0.53261 0.04231 0.02266 0.0
H1525 H 0.51085 0.96492 0.01163 0.0
H1526 H 0.46613 0.95493 0.94853 0.0
H1527 H 0.47291 0.96121 0.97173 0.0
C1528 C 0.28129 0.77899 0.29547 0.0
C1529 C 0.26557 0.76558 0.30413 0.0
C1530 C 0.27961 0.7753 0.282 0.0
C1531 C 0.25914 0.72937 0.25738 0.0
H1532 H 0.26204 0.78666 0.23378 0.0
C1533 C 0.23571 0.72099 0.20277 0.0
C1534 C 0.25001 0.73483 0.19365 0.0
C1535 C 0.23908 0.72445 0.21616 0.0
C1536 C 0.26161 0.77045 0.24023 0.0
H1537 H 0.23555 0.73789 0.30532 0.0
H1538 H 0.23255 0.7315 0.28165 0.0
H1539 H 0.26363 0.79355 0.25738 0.0
H1540 H 0.27946 0.76291 0.19154 0.0
H1541 H 0.28554 0.76884 0.21512 0.0
H1542 H 0.25709 0.70627 0.24026 0.0
C1543 C 0.24633 0.74474 0.2854 0.0
C1544 C 0.26241 0.77439 0.25374 0.0
C1545 C 0.24793 0.74851 0.29894 0.0
C1546 C 0.26814 0.75197 0.1983 0.0
C1547 C 0.2715 0.75547 0.21178 0.0
C1548 C 0.2584 0.72543 0.24388 0.0
C1549 C 0.26222 0.75807 0.2768 0.0
C1550 C 0.26105 0.7539 0.26246 0.0
C1551 C 0.25689 0.7418 0.22084 0.0
C1552 C 0.25944 0.74593 0.23515 0.0
H1553 H 0.29511 0.79232 0.29908 0.0
H1554 H 0.29233 0.78562 0.27566 0.0
H1555 H 0.25855 0.71318 0.26384 0.0
H1556 H 0.22156 0.70758 0.19961 0.0
H1557 H 0.22724 0.7139 0.22285 0.0
C1558 C 0.52963 0.97041 0.44909 0.0
C1559 C 0.51657 0.98556 0.44002 0.0
C1560 C 0.52641 0.97386 0.4625 0.0
C1561 C 0.48199 0.99949 0.48666 0.0
H1562 H 0.53944 0.99552 0.5101 0.0
C1563 C 0.47657 0.02939 0.54052 0.0
C1564 C 0.48924 0.01482 0.54998 0.0
C1565 C 0.47953 0.02444 0.52724 0.0
C1566 C 0.52318 0.99629 0.5037 0.0
H1567 H 0.4901 0.01653 0.43803 0.0
H1568 H 0.48463 0.02273 0.46159 0.0
H1569 H 0.54578 0.99111 0.48656 0.0
H1570 H 0.51473 0.9833 0.55282 0.0
H1571 H 0.5199 0.97456 0.52942 0.0
H1572 H 0.45942 0.00485 0.50379 0.0
C1573 C 0.49716 0.00796 0.45822 0.0
C1574 C 0.5268 0.99387 0.49021 0.0
C1575 C 0.50042 0.00453 0.44474 0.0
C1576 C 0.50472 0.99487 0.5458 0.0
C1577 C 0.50779 0.98996 0.53241 0.0
C1578 C 0.47837 0.00193 0.50013 0.0
C1579 C 0.51006 0.99256 0.46723 0.0
C1580 C 0.50625 0.99555 0.48154 0.0
C1581 C 0.49526 0.0048 0.52301 0.0
C1582 C 0.49894 1.00052 0.50879 0.0
H1583 H 0.54224 0.95559 0.44586 0.0
H1584 H 0.53635 0.96146 0.46917 0.0
H1585 H 0.46572 1.00038 0.48026 0.0
H1586 H 0.46441 0.04489 0.54335 0.0
H1587 H 0.4699 0.03643 0.52026 0.0
C1588 C 0.25598 0.24605 0.80213 0.0
C1589 C 0.23728 0.22995 0.80716 0.0
C1590 C 0.25874 0.24911 0.7886 0.0
C1591 C 0.22351 0.24212 0.75764 0.0
H1592 H 0.28983 0.24484 0.74175 0.0
C1593 C 0.2392 0.24502 0.70137 0.0
C1594 C 0.25781 0.26192 0.69698 0.0
C1595 C 0.23631 0.24019 0.71477 0.0
C1596 C 0.27117 0.24431 0.74606 0.0
H1597 H 0.20719 0.20404 0.80184 0.0
H1598 H 0.21223 0.20924 0.77841 0.0
H1599 H 0.28604 0.23861 0.76531 0.0
H1600 H 0.28755 0.2874 0.70333 0.0
H1601 H 0.28227 0.27918 0.72645 0.0
H1602 H 0.20866 0.24798 0.73838 0.0
C1603 C 0.22446 0.21982 0.78489 0.0
C1604 C 0.26902 0.24079 0.75955 0.0
C1605 C 0.22171 0.21674 0.79836 0.0
C1606 C 0.27313 0.27409 0.70629 0.0
C1607 C 0.27025 0.26927 0.71959 0.0
C1608 C 0.22566 0.24565 0.74413 0.0
C1609 C 0.24285 0.23617 0.77985 0.0
C1610 C 0.24518 0.23978 0.7655 0.0
C1611 C 0.252 0.25213 0.724 0.0
C1612 C 0.24953 0.24699 0.73822 0.0
H1613 H 0.26824 0.25653 0.80863 0.0
H1614 H 0.27297 0.26201 0.785 0.0
H1615 H 0.20486 0.24172 0.76196 0.0
H1616 H 0.22712 0.23532 0.69447 0.0
H1617 H 0.22212 0.22679 0.7179 0.0
C1618 C 0.00072 0.99419 0.94672 0.0
C1619 C 0.98366 0.0125 0.94219 0.0
C1620 C 0.00466 0.99091 0.96017 0.0
C1621 C 0.99762 0.02424 0.99176 0.0
H1622 H 0.00265 0.95721 0.00666 0.0
C1623 C 0.99797 0.00476 0.04775 0.0
C1624 C 0.01457 0.98588 0.05212 0.0
C1625 C 0.99454 0.00889 0.03431 0.0
C1626 C 0.00155 0.97608 0.00263 0.0
H1627 H 0.95693 0.04132 0.9483 0.0
H1628 H 0.96362 0.03537 0.97155 0.0
H1629 H 0.99634 0.96207 0.98317 0.0
H1630 H 0.04146 0.95739 0.04581 0.0
H1631 H 0.03569 0.96482 0.02262 0.0
H1632 H 0.00281 0.03823 0.01125 0.0
C1633 C 0.97432 0.02387 0.96477 0.0
C1634 C 0.99797 0.97884 0.98917 0.0
C1635 C 0.97038 0.02714 0.9514 0.0
C1636 C 0.02822 0.97186 0.04282 0.0
C1637 C 0.02484 0.97601 0.02948 0.0
C1638 C 0.00121 0.02148 0.00523 0.0
C1639 C 0.99164 0.0059 0.96932 0.0
C1640 C 0.99596 0.00294 0.98358 0.0
C1641 C 0.00767 0.99423 0.02506 0.0
C1642 C 0.00328 0.99737 0.01081 0.0
H1643 H 0.0113 0.98265 0.93991 0.0
H1644 H 0.01827 0.97699 0.9634 0.0
H1645 H 0.99647 0.0431 0.98772 0.0
H1646 H 0.98718 0.01587 0.05466 0.0
H1647 H 0.98109 0.02304 0.03118 0.0
C1648 C 0.73838 0.75144 0.69659 0.0
C1649 C 0.75769 0.73567 0.6919 0.0
C1650 C 0.73545 0.7554 0.71007 0.0
C1651 C 0.77081 0.75149 0.74118 0.0
H1652 H 0.7046 0.75006 0.75723 0.0
C1653 C 0.75646 0.75021 0.79738 0.0
C1654 C 0.73707 0.76564 0.80227 0.0
C1655 C 0.75906 0.74646 0.78388 0.0
C1656 C 0.72321 0.75075 0.75287 0.0
H1657 H 0.7888 0.7114 0.69779 0.0
H1658 H 0.7835 0.71816 0.72104 0.0
H1659 H 0.70853 0.74466 0.7336 0.0
H1660 H 0.70538 0.78942 0.79673 0.0
H1661 H 0.71015 0.78309 0.7734 0.0
H1662 H 0.7855 0.7576 0.76043 0.0
C1663 C 0.77088 0.7278 0.71436 0.0
C1664 C 0.72543 0.74772 0.73934 0.0
C1665 C 0.77378 0.72382 0.70098 0.0
C1666 C 0.72049 0.77728 0.79337 0.0
C1667 C 0.72308 0.77354 0.77995 0.0
C1668 C 0.76859 0.75455 0.75471 0.0
C1669 C 0.75183 0.74374 0.71907 0.0
C1670 C 0.74926 0.74796 0.73336 0.0
C1671 C 0.7423 0.75803 0.77503 0.0
C1672 C 0.74477 0.7542 0.7607 0.0
H1673 H 0.72569 0.76087 0.68988 0.0
H1674 H 0.72065 0.76791 0.71343 0.0
H1675 H 0.78943 0.75213 0.73683 0.0
H1676 H 0.76952 0.74093 0.80396 0.0
H1677 H 0.77397 0.73422 0.78037 0.0
C1678 C 0.76563 0.24928 0.19951 0.0
C1679 C 0.74819 0.26714 0.19487 0.0
C1680 C 0.76799 0.24478 0.21297 0.0
C1681 C 0.73225 0.25145 0.24379 0.0
H1682 H 0.79746 0.24423 0.2605 0.0
C1683 C 0.74451 0.24891 0.30012 0.0
C1684 C 0.76207 0.23147 0.30505 0.0
C1685 C 0.74265 0.25315 0.28662 0.0
C1686 C 0.77908 0.24595 0.25595 0.0
H1687 H 0.72024 0.29492 0.20083 0.0
H1688 H 0.72456 0.2872 0.22406 0.0
H1689 H 0.79521 0.25127 0.23692 0.0
H1690 H 0.791 0.20435 0.29958 0.0
H1691 H 0.78748 0.21152 0.27625 0.0
H1692 H 0.7161 0.24611 0.26279 0.0
C1693 C 0.73603 0.2763 0.21735 0.0
C1694 C 0.77783 0.24994 0.24245 0.0
C1695 C 0.73369 0.28079 0.20398 0.0
C1696 C 0.77739 0.21811 0.29618 0.0
C1697 C 0.77551 0.22231 0.28277 0.0
C1698 C 0.7335 0.24743 0.25728 0.0
C1699 C 0.75292 0.25803 0.222 0.0
C1700 C 0.7544 0.25285 0.23624 0.0
C1701 C 0.75832 0.24002 0.27782 0.0
C1702 C 0.75693 0.24467 0.26352 0.0
H1703 H 0.77706 0.23843 0.19276 0.0
H1704 H 0.78114 0.23051 0.2163 0.0
H1705 H 0.71388 0.25324 0.23925 0.0
H1706 H 0.73248 0.25955 0.30668 0.0
H1707 H 0.72931 0.26705 0.2831 0.0
C1708 C 0.74308 0.25441 0.80151 0.0
C1709 C 0.76147 0.27093 0.80648 0.0
C1710 C 0.74034 0.25116 0.78798 0.0
C1711 C 0.77551 0.2587 0.75701 0.0
H1712 H 0.7094 0.25497 0.74096 0.0
C1713 C 0.76082 0.25716 0.70073 0.0
C1714 C 0.74257 0.24016 0.69607 0.0
C1715 C 0.7633 0.26158 0.71419 0.0
C1716 C 0.72801 0.25576 0.74531 0.0
H1717 H 0.79095 0.29746 0.80104 0.0
H1718 H 0.78594 0.29195 0.77765 0.0
H1719 H 0.71288 0.26087 0.76457 0.0
H1720 H 0.71295 0.21416 0.70199 0.0
H1721 H 0.71753 0.22167 0.72522 0.0
H1722 H 0.79064 0.25348 0.73777 0.0
C1723 C 0.77396 0.28116 0.78416 0.0
C1724 C 0.72998 0.25909 0.75884 0.0
C1725 C 0.7767 0.2844 0.79761 0.0
C1726 C 0.72712 0.22753 0.70516 0.0
C1727 C 0.7296 0.23195 0.71853 0.0
C1728 C 0.77354 0.25536 0.74349 0.0
C1729 C 0.75595 0.26435 0.77918 0.0
C1730 C 0.75375 0.26056 0.76483 0.0
C1731 C 0.74757 0.24912 0.72322 0.0
C1732 C 0.74977 0.25374 0.7375 0.0
H1733 H 0.73108 0.24371 0.80805 0.0
H1734 H 0.72637 0.23794 0.78441 0.0
H1735 H 0.79412 0.25942 0.76137 0.0
H1736 H 0.77298 0.26722 0.69401 0.0
H1737 H 0.77725 0.27505 0.71752 0.0
C1738 C 0.75903 0.75187 0.29774 0.0
C1739 C 0.74159 0.7341 0.30247 0.0
C1740 C 0.76166 0.75586 0.28425 0.0
C1741 C 0.72667 0.74781 0.25328 0.0
H1742 H 0.79222 0.75475 0.2369 0.0
C1743 C 0.73989 0.74875 0.19702 0.0
C1744 C 0.75735 0.76623 0.19203 0.0
C1745 C 0.73796 0.74478 0.21054 0.0
C1746 C 0.77376 0.7531 0.24136 0.0
H1747 H 0.71388 0.706 0.29665 0.0
H1748 H 0.71867 0.71284 0.27337 0.0
H1749 H 0.78946 0.74857 0.26053 0.0
H1750 H 0.78613 0.79356 0.19742 0.0
H1751 H 0.78247 0.78682 0.22079 0.0
H1752 H 0.71093 0.75238 0.23414 0.0
C1753 C 0.72994 0.72405 0.28003 0.0
C1754 C 0.77221 0.7496 0.25489 0.0
C1755 C 0.72734 0.72005 0.29342 0.0
C1756 C 0.77257 0.77979 0.20086 0.0
C1757 C 0.77062 0.77584 0.2143 0.0
C1758 C 0.72822 0.75133 0.23977 0.0
C1759 C 0.74685 0.74219 0.27527 0.0
C1760 C 0.74865 0.74681 0.26099 0.0
C1761 C 0.75344 0.75819 0.21931 0.0
C1762 C 0.75177 0.75399 0.23365 0.0
H1763 H 0.77028 0.763 0.30444 0.0
H1764 H 0.77481 0.77005 0.28085 0.0
H1765 H 0.70821 0.7461 0.25774 0.0
H1766 H 0.72794 0.73796 0.19051 0.0
H1767 H 0.72465 0.73089 0.21411 0.0
C1768 C 0.47628 0.46355 0.04529 0.0
C1769 C 0.48623 0.48076 0.05441 0.0
C1770 C 0.47945 0.46733 0.0319 0.0
C1771 C 0.49241 0.51654 0.0075 0.0
H1772 H 0.50753 0.45963 0.98493 0.0
C1773 C 0.52079 0.52904 0.95371 0.0
C1774 C 0.51067 0.51237 0.94437 0.0
C1775 C 0.51721 0.52489 0.96704 0.0
C1776 C 0.50297 0.47563 0.99108 0.0
H1777 H 0.50752 0.51545 0.05654 0.0
H1778 H 0.51325 0.52199 0.03302 0.0
H1779 H 0.50364 0.45321 0.00849 0.0
H1780 H 0.48879 0.47816 0.94179 0.0
H1781 H 0.48244 0.47093 0.96524 0.0
H1782 H 0.49183 0.53898 0.9901 0.0
C1783 C 0.50274 0.50566 0.03632 0.0
C1784 C 0.50082 0.47199 0.00458 0.0
C1785 C 0.49958 0.50186 0.04979 0.0
C1786 C 0.49685 0.49135 0.94872 0.0
C1787 C 0.49331 0.48715 0.96214 0.0
C1788 C 0.49459 0.52018 0.99401 0.0
C1789 C 0.49267 0.48842 0.02724 0.0
C1790 C 0.49555 0.49242 0.01294 0.0
C1791 C 0.50342 0.50397 0.97142 0.0
C1792 C 0.49999 0.49979 0.98566 0.0
H1793 H 0.46582 0.44709 0.04844 0.0
H1794 H 0.47112 0.45391 0.02517 0.0
H1795 H 0.48788 0.53257 0.01365 0.0
H1796 H 0.53161 0.54542 0.95078 0.0
H1797 H 0.5256 0.53796 0.97393 0.0
C1798 C 0.00133 0.50885 0.44693 0.0
C1799 C 0.98542 0.48941 0.44253 0.0
C1800 C 0.00477 0.51294 0.46036 0.0
C1801 C 0.97577 0.49939 0.49263 0.0
H1802 H 0.04315 0.51127 0.50597 0.0
C1803 C 0.99949 0.49709 0.548 0.0
C1804 C 0.01527 0.51653 0.55252 0.0
C1805 C 0.99571 0.4936 0.53455 0.0
C1806 C 0.02418 0.50816 0.50238 0.0
H1807 H 0.96053 0.45917 0.44889 0.0
H1808 H 0.96676 0.46615 0.47204 0.0
H1809 H 0.03658 0.50702 0.48245 0.0
H1810 H 0.03949 0.54747 0.54637 0.0
H1811 H 0.03273 0.54144 0.52316 0.0
H1812 H 0.96341 0.50044 0.51257 0.0
C1813 C 0.97632 0.47847 0.46519 0.0
C1814 C 0.02042 0.50584 0.48891 0.0
C1815 C 0.97291 0.47438 0.45185 0.0
C1816 C 0.02722 0.53225 0.5433 0.0
C1817 C 0.02351 0.52872 0.52994 0.0
C1818 C 0.97955 0.50168 0.5061 0.0
C1819 C 0.9923 0.49773 0.46962 0.0
C1820 C 0.99618 0.50137 0.48388 0.0
C1821 C 0.00774 0.50939 0.52539 0.0
C1822 C 0.00379 0.50611 0.51112 0.0
H1823 H 0.01122 0.52078 0.44002 0.0
H1824 H 0.01706 0.52809 0.4635 0.0
H1825 H 0.9568 0.49628 0.48905 0.0
H1826 H 0.99002 0.48466 0.55482 0.0
H1827 H 0.98358 0.4784 0.5313 0.0
C1828 C 0.00434 0.50035 0.04794 0.0
C1829 C 0.98901 0.52024 0.05237 0.0
C1830 C 0.00827 0.4967 0.03451 0.0
C1831 C 0.00441 0.53014 0.00273 0.0
H1832 H 0.00266 0.46273 0.98809 0.0
C1833 C 0.00154 0.51075 0.94688 0.0
C1834 C 0.01693 0.491 0.94235 0.0
C1835 C 0.99834 0.51471 0.96034 0.0
C1836 C 0.00343 0.48166 0.99205 0.0
H1837 H 0.96558 0.55167 0.04608 0.0
H1838 H 0.97219 0.54506 0.0229 0.0
H1839 H 0.99746 0.4685 0.01162 0.0
H1840 H 0.04137 0.46022 0.94848 0.0
H1841 H 0.03592 0.46729 0.97172 0.0
H1842 H 0.01025 0.5433 0.98314 0.0
C1843 C 0.98156 0.53257 0.02974 0.0
C1844 C 0.00052 0.48495 0.00553 0.0
C1845 C 0.97765 0.53623 0.04308 0.0
C1846 C 0.02923 0.47554 0.95156 0.0
C1847 C 0.026 0.47947 0.96493 0.0
C1848 C 0.00727 0.52686 0.98925 0.0
C1849 C 0.99697 0.51286 0.02528 0.0
C1850 C 0.00092 0.50923 0.01102 0.0
C1851 C 0.01041 0.49895 0.96949 0.0
C1852 C 0.00683 0.50258 0.98377 0.0
H1853 H 0.0134 0.48772 0.05482 0.0
H1854 H 0.02043 0.48143 0.03137 0.0
H1855 H 0.00517 0.54908 0.00668 0.0
H1856 H 0.99177 0.52298 0.94007 0.0
H1857 H 0.98607 0.52981 0.96358 0.0
C1858 C 0.47976 0.52895 0.45446 0.0
C1859 C 0.48967 0.51178 0.44529 0.0
C1860 C 0.48308 0.52516 0.46783 0.0
C1861 C 0.52277 0.49277 0.49197 0.0
H1862 H 0.46613 0.50551 0.51513 0.0
C1863 C 0.52514 0.4672 0.54663 0.0
C1864 C 0.5148 0.48447 0.55562 0.0
C1865 C 0.52208 0.47063 0.53321 0.0
C1866 C 0.4822 0.50219 0.50881 0.0
H1867 H 0.51117 0.47722 0.44308 0.0
H1868 H 0.5169 0.47052 0.46662 0.0
H1869 H 0.46087 0.5103 0.49155 0.0
H1870 H 0.49303 0.51893 0.55746 0.0
H1871 H 0.48781 0.52503 0.53387 0.0
H1872 H 0.54411 0.4847 0.50924 0.0
C1873 C 0.50665 0.48702 0.46333 0.0
C1874 C 0.47918 0.50485 0.4953 0.0
C1875 C 0.50329 0.4908 0.44987 0.0
C1876 C 0.5012 0.50527 0.55082 0.0
C1877 C 0.49812 0.50869 0.53732 0.0
C1878 C 0.52579 0.49011 0.50549 0.0
C1879 C 0.49639 0.5041 0.47244 0.0
C1880 C 0.49945 0.50027 0.48674 0.0
C1881 C 0.50863 0.49142 0.52838 0.0
C1882 C 0.50554 0.49481 0.51405 0.0
H1883 H 0.46931 0.54545 0.45135 0.0
H1884 H 0.47537 0.53894 0.47456 0.0
H1885 H 0.53882 0.48947 0.48565 0.0
H1886 H 0.53564 0.45086 0.54993 0.0
H1887 H 0.53003 0.45675 0.52661 0.0
C1888 C 0.31331 0.19078 0.35383 0.0
C1889 C 0.29388 0.19419 0.36302 0.0
C1890 C 0.332 0.17256 0.35586 0.0
C1891 C 0.347 0.11473 0.3748 0.0
H1892 H 0.41613 0.13338 0.36709 0.0
C1893 C 0.43271 0.05296 0.38993 0.0
C1894 C 0.45254 0.05092 0.38085 0.0
C1895 C 0.41285 0.06992 0.3878 0.0
C1896 C 0.39691 0.12773 0.36916 0.0
H1897 H 0.2786 0.18069 0.38144 0.0
H1898 H 0.31129 0.1491 0.38502 0.0
H1899 H 0.38233 0.16347 0.36305 0.0
H1900 H 0.46678 0.06489 0.3623 0.0
H1901 H 0.43219 0.0941 0.35854 0.0
H1902 H 0.36168 0.07896 0.38094 0.0
C1903 C 0.31197 0.16035 0.37618 0.0
C1904 C 0.3775 0.145 0.36683 0.0
C1905 C 0.29329 0.17858 0.37415 0.0
C1906 C 0.45193 0.06605 0.36955 0.0
C1907 C 0.43213 0.08295 0.36742 0.0
C1908 C 0.36645 0.09742 0.37714 0.0
C1909 C 0.33172 0.15729 0.36713 0.0
C1910 C 0.35229 0.13872 0.36958 0.0
C1911 C 0.4124 0.08522 0.37654 0.0
C1912 C 0.39164 0.10368 0.3743 0.0
H1913 H 0.31429 0.20238 0.34512 0.0
H1914 H 0.3467 0.17043 0.34858 0.0
H1915 H 0.32777 0.10917 0.3769 0.0
H1916 H 0.43261 0.04159 0.39874 0.0
H1917 H 0.39808 0.07135 0.39508 0.0
C1918 C 0.0724 0.04057 0.62499 0.0
C1919 C 0.05809 0.04062 0.6134 0.0
C1920 C 0.09006 0.05961 0.62743 0.0
C1921 C 0.10513 0.12519 0.61812 0.0
H1922 H 0.16949 0.11118 0.63461 0.0
C1923 C 0.1816 0.20163 0.62343 0.0
C1924 C 0.19499 0.20276 0.63529 0.0
C1925 C 0.16561 0.18136 0.62072 0.0
C1926 C 0.15148 0.11544 0.63013 0.0
H1927 H 0.05169 0.0604 0.59511 0.0
H1928 H 0.08265 0.09342 0.5993 0.0
H1929 H 0.1407 0.07649 0.62972 0.0
H1930 H 0.20221 0.18326 0.65358 0.0
H1931 H 0.17404 0.14791 0.64889 0.0
H1932 H 0.11578 0.16409 0.61857 0.0
C1933 C 0.07992 0.07888 0.60662 0.0
C1934 C 0.13498 0.09555 0.62731 0.0
C1935 C 0.06228 0.05984 0.60417 0.0
C1936 C 0.19218 0.18297 0.64434 0.0
C1937 C 0.17614 0.16264 0.64162 0.0
C1938 C 0.12159 0.14504 0.62093 0.0
C1939 C 0.09382 0.07917 0.61835 0.0
C1940 C 0.11161 0.10019 0.62124 0.0
C1941 C 0.16255 0.16167 0.6298 0.0
C1942 C 0.145 0.14043 0.62695 0.0
H1943 H 0.06966 0.02606 0.63232 0.0
H1944 H 0.10025 0.05936 0.63662 0.0
H1945 H 0.08708 0.12953 0.61368 0.0
H1946 H 0.18341 0.21645 0.6162 0.0
H1947 H 0.15578 0.18103 0.61143 0.0
C1948 C 0.2007 0.81548 0.87623 0.0
C1949 C 0.20447 0.80528 0.86367 0.0
C1950 C 0.18302 0.83466 0.87827 0.0
C1951 C 0.12614 0.86338 0.86333 0.0
H1952 H 0.13873 0.9169 0.88837 0.0
C1953 C 0.05949 0.94864 0.86852 0.0
C1954 C 0.05309 0.95626 0.88128 0.0
C1955 C 0.07867 0.93104 0.8664 0.0
C1956 C 0.13486 0.90195 0.88143 0.0
H1957 H 0.19298 0.80771 0.84335 0.0
H1958 H 0.16251 0.84153 0.84684 0.0
H1959 H 0.1711 0.88506 0.88437 0.0
H1960 H 0.06228 0.95168 0.90183 0.0
H1961 H 0.09589 0.92086 0.89811 0.0
H1962 H 0.08997 0.88037 0.86034 0.0
C1963 C 0.17284 0.83433 0.85518 0.0
C1964 C 0.15339 0.88366 0.87914 0.0
C1965 C 0.19044 0.81503 0.85316 0.0
C1966 C 0.06672 0.94621 0.89188 0.0
C1967 C 0.08605 0.92864 0.88974 0.0
C1968 C 0.10769 0.88172 0.86557 0.0
C1969 C 0.16873 0.84425 0.86779 0.0
C1970 C 0.14926 0.8641 0.87006 0.0
C1971 C 0.09205 0.92066 0.87698 0.0
C1972 C 0.1118 0.90122 0.87466 0.0
H1973 H 0.21111 0.80836 0.88457 0.0
H1974 H 0.18016 0.84154 0.88813 0.0
H1975 H 0.12204 0.84836 0.85647 0.0
H1976 H 0.04949 0.95606 0.86011 0.0
H1977 H 0.08308 0.9256 0.85644 0.0
C1978 C 0.31264 0.81948 0.14197 0.0
C1979 C 0.31186 0.79887 0.13332 0.0
C1980 C 0.32843 0.84009 0.13945 0.0
C1981 C 0.36378 0.87156 0.11268 0.0
H1982 H 0.40189 0.90158 0.14106 0.0
C1983 C 0.44524 0.94212 0.10374 0.0
C1984 C 0.44734 0.96274 0.11233 0.0
C1985 C 0.42795 0.92277 0.10624 0.0
C1986 C 0.39116 0.89363 0.13304 0.0
H1987 H 0.32712 0.78384 0.11521 0.0
H1988 H 0.35471 0.81952 0.11091 0.0
H1989 H 0.37303 0.86686 0.14561 0.0
H1990 H 0.43262 0.97928 0.13019 0.0
H1991 H 0.40239 0.94567 0.13446 0.0
H1992 H 0.38202 0.89822 0.10009 0.0
C1993 C 0.3429 0.81997 0.11956 0.0
C1994 C 0.37458 0.87372 0.13566 0.0
C1995 C 0.32717 0.7994 0.12208 0.0
C1996 C 0.43158 0.96365 0.12339 0.0
C1997 C 0.41434 0.94428 0.12589 0.0
C1998 C 0.38036 0.89145 0.11006 0.0
C1999 C 0.34376 0.84059 0.1282 0.0
C2000 C 0.36079 0.86234 0.1255 0.0
C2001 C 0.41236 0.92354 0.11738 0.0
C2002 C 0.39434 0.90267 0.1202 0.0
H2003 H 0.30104 0.81971 0.1507 0.0
H2004 H 0.32843 0.85577 0.14624 0.0
H2005 H 0.35314 0.86353 0.10465 0.0
H2006 H 0.45711 0.9408 0.09514 0.0
H2007 H 0.42713 0.90694 0.09955 0.0
C2008 C 0.69122 0.81718 0.64016 0.0
C2009 C 0.69172 0.79613 0.63179 0.0
C2010 C 0.67495 0.83745 0.63764 0.0
C2011 C 0.61655 0.85376 0.61954 0.0
H2012 H 0.63912 0.9227 0.6243 0.0
C2013 C 0.55723 0.93868 0.60199 0.0
C2014 C 0.55582 0.95972 0.61033 0.0
C2015 C 0.57421 0.91908 0.60456 0.0
C2016 C 0.63243 0.90355 0.62304 0.0
H2017 H 0.67565 0.78007 0.61412 0.0
H2018 H 0.64762 0.81536 0.60969 0.0
H2019 H 0.66784 0.8879 0.62907 0.0
H2020 H 0.57143 0.97672 0.62786 0.0
H2021 H 0.60084 0.94249 0.6324 0.0
H2022 H 0.58117 0.86934 0.61353 0.0
C2023 C 0.65947 0.81611 0.61832 0.0
C2024 C 0.6489 0.88359 0.6258 0.0
C2025 C 0.67569 0.7959 0.62082 0.0
C2026 C 0.57202 0.96082 0.62121 0.0
C2027 C 0.58901 0.94124 0.62378 0.0
C2028 C 0.60011 0.87369 0.61679 0.0
C2029 C 0.65879 0.83711 0.62671 0.0
C2030 C 0.64119 0.85843 0.62404 0.0
C2031 C 0.59023 0.92004 0.61553 0.0
C2032 C 0.60784 0.89885 0.61847 0.0
H2033 H 0.7033 0.81796 0.6487 0.0
H2034 H 0.67475 0.85322 0.64438 0.0
H2035 H 0.60982 0.83462 0.6183 0.0
H2036 H 0.5451 0.93725 0.59349 0.0
H2037 H 0.5749 0.90322 0.59789 0.0
C2038 C 0.93 0.95903 0.37167 0.0
C2039 C 0.94399 0.95827 0.38336 0.0
C2040 C 0.91128 0.94106 0.36917 0.0
C2041 C 0.87045 0.89356 0.38531 0.0
H2042 H 0.86737 0.86378 0.35068 0.0
C2043 C 0.81545 0.80201 0.37484 0.0
C2044 C 0.8021 0.79999 0.363 0.0
C2045 C 0.83129 0.82256 0.37721 0.0
C2046 C 0.86771 0.87214 0.36035 0.0
H2047 H 0.94891 0.93824 0.4017 0.0
H2048 H 0.91639 0.90685 0.39731 0.0
H2049 H 0.89757 0.89739 0.35512 0.0
H2050 H 0.79481 0.81821 0.34437 0.0
H2051 H 0.82245 0.85425 0.34854 0.0
H2052 H 0.84077 0.86815 0.39058 0.0
C2053 C 0.91973 0.92147 0.39011 0.0
C2054 C 0.88505 0.89143 0.3629 0.0
C2055 C 0.93849 0.9394 0.3926 0.0
C2056 C 0.80486 0.81915 0.35359 0.0
C2057 C 0.8208 0.83974 0.35595 0.0
C2058 C 0.85312 0.8743 0.38276 0.0
C2059 C 0.90604 0.92194 0.37831 0.0
C2060 C 0.8868 0.90221 0.37545 0.0
C2061 C 0.83424 0.84167 0.36779 0.0
C2062 C 0.8517 0.86316 0.37028 0.0
H2063 H 0.93366 0.97335 0.36435 0.0
H2064 H 0.90087 0.9422 0.36007 0.0
H2065 H 0.87098 0.90174 0.39502 0.0
H2066 H 0.81382 0.7876 0.38231 0.0
H2067 H 0.84162 0.82321 0.38635 0.0
C2068 C 0.82465 0.20363 0.12214 0.0
C2069 C 0.81078 0.20472 0.13386 0.0
C2070 C 0.84078 0.18337 0.11958 0.0
C2071 C 0.85442 0.11737 0.129 0.0
H2072 H 0.91945 0.13126 0.1132 0.0
C2073 C 0.93224 0.04129 0.12398 0.0
C2074 C 0.94687 0.04127 0.1125 0.0
C2075 C 0.91515 0.06081 0.12649 0.0
C2076 C 0.90124 0.12698 0.11746 0.0
H2077 H 0.80289 0.18518 0.15205 0.0
H2078 H 0.83128 0.14984 0.14762 0.0
H2079 H 0.89074 0.16594 0.11792 0.0
H2080 H 0.95462 0.06162 0.09452 0.0
H2081 H 0.92459 0.09549 0.09882 0.0
H2082 H 0.86496 0.07838 0.12853 0.0
C2083 C 0.82945 0.16459 0.14035 0.0
C2084 C 0.88477 0.1469 0.12018 0.0
C2085 C 0.81328 0.18491 0.14292 0.0
C2086 C 0.94376 0.06109 0.1035 0.0
C2087 C 0.92663 0.08061 0.106 0.0
C2088 C 0.8709 0.09742 0.12626 0.0
C2089 C 0.84351 0.16365 0.12867 0.0
C2090 C 0.86112 0.14236 0.12596 0.0
C2091 C 0.91222 0.08081 0.11757 0.0
C2092 C 0.89452 0.10197 0.12043 0.0
H2093 H 0.8231 0.21845 0.11489 0.0
H2094 H 0.85097 0.18307 0.1104 0.0
H2095 H 0.83622 0.11316 0.13329 0.0
H2096 H 0.93418 0.02636 0.13115 0.0
H2097 H 0.90462 0.06048 0.13557 0.0
C2098 C 0.56537 0.0573 0.89185 0.0
C2099 C 0.55396 0.04482 0.88125 0.0
C2100 C 0.58478 0.07473 0.88974 0.0
C2101 C 0.61067 0.11709 0.86449 0.0
H2102 H 0.66951 0.11886 0.88699 0.0
C2103 C 0.69388 0.18516 0.85466 0.0
C2104 C 0.70475 0.19694 0.86562 0.0
C2105 C 0.67656 0.16544 0.85625 0.0
C2106 C 0.65309 0.11881 0.88069 0.0
H2107 H 0.55431 0.04067 0.86012 0.0
H2108 H 0.58809 0.07103 0.85647 0.0
H2109 H 0.6372 0.08683 0.89051 0.0
H2110 H 0.70605 0.19704 0.88685 0.0
H2111 H 0.67566 0.16315 0.88961 0.0
H2112 H 0.62623 0.14931 0.85481 0.0
C2113 C 0.58189 0.0675 0.8664 0.0
C2114 C 0.63458 0.10042 0.88271 0.0
C2115 C 0.56261 0.04997 0.86851 0.0
C2116 C 0.69813 0.18835 0.87818 0.0
C2117 C 0.68078 0.16876 0.87977 0.0
C2118 C 0.6291 0.13557 0.86251 0.0
C2119 C 0.59312 0.08019 0.87698 0.0
C2120 C 0.6131 0.0994 0.87467 0.0
C2121 C 0.66965 0.1571 0.86884 0.0
C2122 C 0.65051 0.13677 0.87062 0.0
H2123 H 0.55917 0.05378 0.90179 0.0
H2124 H 0.59288 0.08436 0.89809 0.0
H2125 H 0.59418 0.11704 0.85823 0.0
H2126 H 0.69865 0.19122 0.84485 0.0
H2127 H 0.66867 0.15668 0.8476 0.0
C2128 C 0.81296 0.69053 0.85244 0.0
C2129 C 0.79336 0.69439 0.86149 0.0
C2130 C 0.83173 0.67256 0.85485 0.0
C2131 C 0.84691 0.61602 0.87474 0.0
H2132 H 0.916 0.63508 0.86722 0.0
C2133 C 0.93299 0.55588 0.89114 0.0
C2134 C 0.95307 0.55373 0.88221 0.0
C2135 C 0.91297 0.5725 0.88868 0.0
C2136 C 0.8968 0.6293 0.86924 0.0
H2137 H 0.77784 0.68188 0.88004 0.0
H2138 H 0.81064 0.65067 0.88426 0.0
H2139 H 0.88197 0.66454 0.86254 0.0
H2140 H 0.96759 0.56711 0.8636 0.0
H2141 H 0.93274 0.5957 0.85929 0.0
H2142 H 0.86185 0.58073 0.88146 0.0
C2143 C 0.8114 0.66141 0.87525 0.0
C2144 C 0.87726 0.64621 0.86655 0.0
C2145 C 0.79265 0.67942 0.87285 0.0
C2146 C 0.95255 0.56838 0.87075 0.0
C2147 C 0.93259 0.58493 0.8683 0.0
C2148 C 0.8665 0.59905 0.87743 0.0
C2149 C 0.83135 0.65797 0.86635 0.0
C2150 C 0.85206 0.63978 0.86921 0.0
C2151 C 0.91261 0.58734 0.87726 0.0
C2152 C 0.89169 0.60545 0.87467 0.0
H2153 H 0.81404 0.70164 0.84356 0.0
H2154 H 0.84658 0.67012 0.84768 0.0
H2155 H 0.8277 0.61035 0.8768 0.0
H2156 H 0.93281 0.54488 0.90007 0.0
H2157 H 0.89801 0.57404 0.89585 0.0
C2158 C 0.68798 0.68313 0.14313 0.0
C2159 C 0.70097 0.6936 0.13244 0.0
C2160 C 0.67055 0.66364 0.14125 0.0
C2161 C 0.64984 0.61517 0.11712 0.0
H2162 H 0.58769 0.61706 0.13709 0.0
C2163 C 0.56298 0.55286 0.10486 0.0
C2164 C 0.5502 0.54186 0.11549 0.0
C2165 C 0.58216 0.57056 0.10699 0.0
C2166 C 0.60506 0.6161 0.13153 0.0
H2167 H 0.70603 0.69149 0.11139 0.0
H2168 H 0.67541 0.65795 0.1081 0.0
H2169 H 0.61981 0.64909 0.14082 0.0
H2170 H 0.5478 0.5407 0.13669 0.0
H2171 H 0.58113 0.57148 0.14035 0.0
H2172 H 0.63478 0.58234 0.10769 0.0
C2173 C 0.67893 0.66445 0.11798 0.0
C2174 C 0.62354 0.63444 0.13369 0.0
C2175 C 0.69643 0.68383 0.11987 0.0
C2176 C 0.55718 0.54882 0.12827 0.0
C2177 C 0.57621 0.56659 0.13038 0.0
C2178 C 0.63128 0.59689 0.11491 0.0
C2179 C 0.6656 0.65421 0.12863 0.0
C2180 C 0.64618 0.63425 0.12652 0.0
C2181 C 0.58886 0.57777 0.11978 0.0
C2182 C 0.60867 0.59714 0.12209 0.0
H2183 H 0.69113 0.69011 0.15296 0.0
H2184 H 0.66097 0.65594 0.14972 0.0
H2185 H 0.66718 0.61417 0.11155 0.0
H2186 H 0.55808 0.54792 0.0949 0.0
H2187 H 0.59141 0.57898 0.0986 0.0
C2188 C 0.69052 0.31189 0.3543 0.0
C2189 C 0.70572 0.3033 0.36465 0.0
C2190 C 0.67267 0.33095 0.35634 0.0
C2191 C 0.65414 0.38182 0.37958 0.0
H2192 H 0.58885 0.37464 0.36292 0.0
C2193 C 0.56722 0.44286 0.39356 0.0
C2194 C 0.55182 0.45131 0.38325 0.0
C2195 C 0.58679 0.42568 0.39121 0.0
C2196 C 0.60707 0.37709 0.36753 0.0
H2197 H 0.7143 0.30836 0.38525 0.0
H2198 H 0.68298 0.3412 0.38885 0.0
H2199 H 0.62157 0.3434 0.35883 0.0
H2200 H 0.54527 0.44862 0.36232 0.0
H2201 H 0.57932 0.41886 0.35825 0.0
H2202 H 0.63939 0.4154 0.38842 0.0
C2203 C 0.68506 0.33352 0.37909 0.0
C2204 C 0.62589 0.35919 0.36516 0.0
C2205 C 0.70296 0.31454 0.37704 0.0
C2206 C 0.55665 0.44244 0.37052 0.0
C2207 C 0.57611 0.42524 0.36818 0.0
C2208 C 0.63526 0.3997 0.38199 0.0
C2209 C 0.66952 0.34184 0.3688 0.0
C2210 C 0.64968 0.36129 0.37115 0.0
C2211 C 0.59132 0.4165 0.3785 0.0
C2212 C 0.6115 0.39755 0.37599 0.0
H2213 H 0.69225 0.30375 0.34461 0.0
H2214 H 0.66135 0.33716 0.34813 0.0
H2215 H 0.67234 0.38426 0.38422 0.0
H2216 H 0.56402 0.44932 0.40348 0.0
H2217 H 0.59803 0.41917 0.39939 0.0
C2218 C 0.96083 0.43238 0.62424 0.0
C2219 C 0.95936 0.44875 0.61344 0.0
C2220 C 0.94118 0.41568 0.62705 0.0
C2221 C 0.88717 0.38321 0.61177 0.0
H2222 H 0.86911 0.36881 0.64779 0.0
C2223 C 0.8294 0.29552 0.62616 0.0
C2224 C 0.81139 0.29768 0.6362 0.0
C2225 C 0.8457 0.31546 0.6233 0.0
C2226 C 0.87368 0.37279 0.63767 0.0
H2227 H 0.93587 0.46056 0.59718 0.0
H2228 H 0.90141 0.43147 0.60214 0.0
H2229 H 0.90024 0.40138 0.64305 0.0
H2230 H 0.79629 0.32268 0.65106 0.0
H2231 H 0.82471 0.35767 0.646 0.0
H2232 H 0.86049 0.35475 0.60639 0.0
C2233 C 0.91794 0.43138 0.60836 0.0
C2234 C 0.89178 0.39127 0.63496 0.0
C2235 C 0.93765 0.44814 0.60555 0.0
C2236 C 0.80999 0.32037 0.64329 0.0
C2237 C 0.82636 0.34038 0.64043 0.0
C2238 C 0.86909 0.36473 0.61449 0.0
C2239 C 0.9195 0.41491 0.61914 0.0
C2240 C 0.899 0.39648 0.62198 0.0
C2241 C 0.84443 0.33815 0.6304 0.0
C2242 C 0.86237 0.35904 0.62748 0.0
H2243 H 0.97728 0.43228 0.63053 0.0
H2244 H 0.94323 0.403 0.63529 0.0
H2245 H 0.89238 0.38658 0.60167 0.0
H2246 H 0.83107 0.27831 0.62052 0.0
H2247 H 0.85964 0.31289 0.61567 0.0
C2248 C 0.06535 0.44992 0.10446 0.0
C2249 C 0.046 0.45381 0.11366 0.0
C2250 C 0.08498 0.43295 0.10709 0.0
C2251 C 0.10062 0.37792 0.12792 0.0
H2252 H 0.16971 0.39351 0.1185 0.0
C2253 C 0.18336 0.31505 0.14455 0.0
C2254 C 0.20209 0.30967 0.13521 0.0
C2255 C 0.16513 0.33354 0.1421 0.0
C2256 C 0.15048 0.38877 0.12109 0.0
H2257 H 0.03238 0.44315 0.13291 0.0
H2258 H 0.06658 0.41392 0.13751 0.0
H2259 H 0.13628 0.42383 0.11366 0.0
H2260 H 0.21667 0.32001 0.11611 0.0
H2261 H 0.18477 0.35208 0.11181 0.0
H2262 H 0.1147 0.34289 0.13531 0.0
C2263 C 0.06643 0.42362 0.12818 0.0
C2264 C 0.13131 0.40614 0.1183 0.0
C2265 C 0.04686 0.44053 0.12556 0.0
C2266 C 0.20252 0.32366 0.12352 0.0
C2267 C 0.18429 0.34216 0.12107 0.0
C2268 C 0.11974 0.3606 0.13071 0.0
C2269 C 0.08567 0.41948 0.11896 0.0
C2270 C 0.10614 0.40096 0.12172 0.0
C2271 C 0.16517 0.34711 0.13026 0.0
C2272 C 0.14493 0.3658 0.12737 0.0
H2273 H 0.06525 0.45984 0.09519 0.0
H2274 H 0.09937 0.43004 0.09971 0.0
H2275 H 0.08139 0.37308 0.13048 0.0
H2276 H 0.18253 0.30474 0.15369 0.0
H2277 H 0.15093 0.33716 0.14949 0.0
C2278 C 0.44823 0.43755 0.871 0.0
C2279 C 0.44992 0.45069 0.88292 0.0
C2280 C 0.42822 0.42103 0.86861 0.0
C2281 C 0.36358 0.40462 0.87934 0.0
H2282 H 0.37847 0.34075 0.86253 0.0
C2283 C 0.29116 0.32303 0.8761 0.0
C2284 C 0.29077 0.3084 0.86462 0.0
C2285 C 0.30973 0.3414 0.878 0.0
C2286 C 0.37389 0.35864 0.86706 0.0
H2287 H 0.43165 0.45694 0.90164 0.0
H2288 H 0.39678 0.42788 0.8975 0.0
H2289 H 0.41239 0.37064 0.86663 0.0
H2290 H 0.30921 0.30221 0.84594 0.0
H2291 H 0.34139 0.33447 0.84917 0.0
H2292 H 0.32504 0.39251 0.8798 0.0
C2293 C 0.41086 0.43057 0.88995 0.0
C2294 C 0.39337 0.37579 0.86943 0.0
C2295 C 0.43092 0.44713 0.89235 0.0
C2296 C 0.30903 0.31303 0.85493 0.0
C2297 C 0.32759 0.33142 0.85682 0.0
C2298 C 0.34405 0.38745 0.87695 0.0
C2299 C 0.40936 0.41719 0.87807 0.0
C2300 C 0.38849 0.399 0.87559 0.0
C2301 C 0.32837 0.34564 0.86845 0.0
C2302 C 0.34897 0.36423 0.87078 0.0
H2303 H 0.46243 0.43993 0.86348 0.0
H2304 H 0.42746 0.41137 0.85928 0.0
H2305 H 0.3591 0.42247 0.88394 0.0
H2306 H 0.2774 0.31996 0.88378 0.0
H2307 H 0.30989 0.35179 0.88712 0.0
C2308 C 0.43637 0.55674 0.60544 0.0
C2309 C 0.45016 0.54739 0.61615 0.0
C2310 C 0.41693 0.57428 0.60734 0.0
C2311 C 0.37462 0.60075 0.63302 0.0
H2312 H 0.3678 0.65636 0.60862 0.0
C2313 C 0.31321 0.68888 0.64371 0.0
C2314 C 0.29873 0.69853 0.63332 0.0
C2315 C 0.33071 0.66953 0.64153 0.0
C2316 C 0.36927 0.64079 0.61545 0.0
H2317 H 0.45419 0.54911 0.63727 0.0
H2318 H 0.42077 0.57985 0.64054 0.0
H2319 H 0.39994 0.62428 0.60487 0.0
H2320 H 0.29112 0.69515 0.61252 0.0
H2321 H 0.32159 0.6615 0.60877 0.0
H2322 H 0.34417 0.61757 0.6437 0.0
C2323 C 0.42459 0.57338 0.63068 0.0
C2324 C 0.38767 0.62234 0.61328 0.0
C2325 C 0.44392 0.55582 0.62879 0.0
C2326 C 0.30198 0.68822 0.62075 0.0
C2327 C 0.31957 0.66901 0.61857 0.0
C2328 C 0.3563 0.61928 0.63522 0.0
C2329 C 0.41087 0.58292 0.61999 0.0
C2330 C 0.39068 0.60212 0.62207 0.0
C2331 C 0.33425 0.65952 0.62891 0.0
C2332 C 0.35345 0.63956 0.62648 0.0
H2333 H 0.4406 0.55056 0.59558 0.0
H2334 H 0.40655 0.58093 0.5989 0.0
H2335 H 0.37606 0.58524 0.63987 0.0
H2336 H 0.31119 0.69639 0.65351 0.0
H2337 H 0.34188 0.66279 0.64969 0.0
C2338 C 0.05634 0.55505 0.36801 0.0
C2339 C 0.05172 0.54573 0.38067 0.0
C2340 C 0.07595 0.57208 0.36572 0.0
C2341 C 0.13563 0.59656 0.37942 0.0
H2342 H 0.12185 0.65383 0.3569 0.0
C2343 C 0.20375 0.6814 0.37499 0.0
C2344 C 0.20636 0.69309 0.36271 0.0
C2345 C 0.18576 0.66248 0.37694 0.0
C2346 C 0.12619 0.63777 0.36305 0.0
H2347 H 0.06447 0.54675 0.40084 0.0
H2348 H 0.09871 0.57665 0.39683 0.0
H2349 H 0.08901 0.62268 0.36086 0.0
H2350 H 0.19252 0.69355 0.34274 0.0
H2351 H 0.16145 0.66022 0.34606 0.0
H2352 H 0.17285 0.61165 0.3816 0.0
C2353 C 0.0872 0.57059 0.38866 0.0
C2354 C 0.1073 0.61991 0.36535 0.0
C2355 C 0.0675 0.55355 0.39096 0.0
C2356 C 0.1909 0.68505 0.35234 0.0
C2357 C 0.17297 0.66604 0.35428 0.0
C2358 C 0.15458 0.61439 0.37708 0.0
C2359 C 0.0915 0.58024 0.37602 0.0
C2360 C 0.11177 0.59911 0.37357 0.0
C2361 C 0.16999 0.65467 0.36664 0.0
C2362 C 0.15009 0.63527 0.36889 0.0
H2363 H 0.04469 0.54933 0.35983 0.0
H2364 H 0.07899 0.57881 0.35583 0.0
H2365 H 0.13979 0.58058 0.38567 0.0
H2366 H 0.21528 0.68717 0.3832 0.0
H2367 H 0.18381 0.65443 0.38663 0.0
loop_
_geom_bond_atom_site_label_1
_geom_bond_atom_site_label_2
_geom_bond_distance
_geom_bond_site_symmetry_2
_ccdc_geom_bond_type
Mg0 O1 2.028 . S
Mg0 O7 1.986 . S
Mg0 O9 2.114 . S
Mg0 O10 2.251 . S
Mg0 O13 2.010 . S
O1 Mg0 2.028 . S
O1 C4 1.250 . S
O2 Mg3 2.028 . S
O2 C4 1.248 . S
Mg3 O2 2.028 . S
Mg3 O8 2.032 . S
Mg3 O10 2.079 . S
C4 O1 1.250 . S
C4 O2 1.248 . S
C5 O6 1.264 . S
C5 O13 1.249 . S
O6 C5 1.264 . S
O7 Mg0 1.986 . S
O7 C11 1.246 . S
O8 Mg3 2.032 . S
O8 C11 1.259 . S
O9 Mg0 2.114 . S
O9 C12 1.252 . S
O10 Mg0 2.251 . S
O10 Mg3 2.079 . S
O10 C12 1.273 . S
C11 O7 1.246 . S
C11 O8 1.259 . S
C12 O9 1.252 . S
C12 O10 1.273 . S
O13 Mg0 2.010 . S
O13 C5 1.249 . S
Mg14 O15 2.028 . S
Mg14 O21 1.986 . S
Mg14 O23 2.114 . S
Mg14 O24 2.251 1_455 S
Mg14 O27 2.010 1_565 S
O15 Mg14 2.028 . S
O15 C18 1.250 . S
O16 Mg17 2.028 . S
O16 C18 1.248 . S
Mg17 O16 2.028 . S
Mg17 O22 2.032 . S
Mg17 O24 2.079 1_455 S
C18 O15 1.250 . S
C18 O16 1.248 . S
C19 O20 1.264 . S
C19 O27 1.249 . S
O20 C19 1.264 . S
O21 Mg14 1.986 . S
O21 C25 1.246 . S
O22 Mg17 2.032 . S
O22 C25 1.259 . S
O23 Mg14 2.114 . S
O23 C26 1.252 1_455 S
O24 Mg14 2.251 1_655 S
O24 Mg17 2.079 1_655 S
O24 C26 1.273 . S
C25 O21 1.246 . S
C25 O22 1.259 . S
C26 O23 1.252 1_655 S
C26 O24 1.273 . S
O27 Mg14 2.010 1_545 S
O27 C19 1.249 . S
Mg28 O29 2.028 . S
Mg28 O35 1.986 . S
Mg28 O37 2.114 . S
Mg28 O38 2.251 . S
Mg28 O41 2.010 . S
O29 Mg28 2.028 . S
O29 C32 1.250 . S
O30 Mg31 2.028 . S
O30 C32 1.248 . S
Mg31 O30 2.028 . S
Mg31 O36 2.032 . S
Mg31 O38 2.079 . S
C32 O29 1.250 . S
C32 O30 1.248 . S
C33 O34 1.264 . S
C33 O41 1.249 . S
O34 C33 1.264 . S
O35 Mg28 1.986 . S
O35 C39 1.246 . S
O36 Mg31 2.032 . S
O36 C39 1.259 . S
O37 Mg28 2.114 . S
O37 C40 1.252 . S
O38 Mg28 2.251 . S
O38 Mg31 2.079 . S
O38 C40 1.273 . S
C39 O35 1.246 . S
C39 O36 1.259 . S
C40 O37 1.252 . S
C40 O38 1.273 . S
O41 Mg28 2.010 . S
O41 C33 1.249 . S
Mg42 O43 2.028 . S
Mg42 O49 1.986 . S
Mg42 O51 2.114 . S
Mg42 O52 2.251 . S
Mg42 O55 2.010 1_545 S
O43 Mg42 2.028 . S
O43 C46 1.250 . S
O44 Mg45 2.028 . S
O44 C46 1.248 . S
Mg45 O44 2.028 . S
Mg45 O50 2.032 . S
Mg45 O52 2.079 . S
C46 O43 1.250 . S
C46 O44 1.248 . S
C47 O48 1.264 . S
C47 O55 1.249 . S
O48 C47 1.264 . S
O49 Mg42 1.986 . S
O49 C53 1.246 . S
O50 Mg45 2.032 . S
O50 C53 1.259 . S
O51 Mg42 2.114 . S
O51 C54 1.252 . S
O52 Mg42 2.251 . S
O52 Mg45 2.079 . S
O52 C54 1.273 . S
C53 O49 1.246 . S
C53 O50 1.259 . S
C54 O51 1.252 . S
C54 O52 1.273 . S
O55 Mg42 2.010 1_565 S
O55 C47 1.249 . S
Mg56 O57 2.028 . S
Mg56 O63 1.986 . S
Mg56 O65 2.114 . S
Mg56 O66 2.251 . S
Mg56 O69 2.010 . S
O57 Mg56 2.028 . S
O57 C60 1.250 . S
O58 Mg59 2.028 . S
O58 C60 1.248 . S
Mg59 O58 2.028 . S
Mg59 O64 2.032 . S
Mg59 O66 2.079 . S
C60 O57 1.250 . S
C60 O58 1.248 . S
C61 O62 1.264 . S
C61 O69 1.249 . S
O62 C61 1.264 . S
O63 Mg56 1.986 . S
O63 C67 1.246 . S
O64 Mg59 2.032 . S
O64 C67 1.259 . S
O65 Mg56 2.114 . S
O65 C68 1.252 . S
O66 Mg56 2.251 . S
O66 Mg59 2.079 . S
O66 C68 1.273 . S
C67 O63 1.246 . S
C67 O64 1.259 . S
C68 O65 1.252 . S
C68 O66 1.273 . S
O69 Mg56 2.010 . S
O69 C61 1.249 . S
Mg70 O71 2.028 . S
Mg70 O77 1.986 . S
Mg70 O79 2.114 . S
Mg70 O80 2.251 . S
Mg70 O83 2.010 1_565 S
O71 Mg70 2.028 . S
O71 C74 1.250 . S
O72 Mg73 2.028 . S
O72 C74 1.248 . S
Mg73 O72 2.028 . S
Mg73 O78 2.032 . S
Mg73 O80 2.079 . S
C74 O71 1.250 . S
C74 O72 1.248 . S
C75 O76 1.264 . S
C75 O83 1.249 . S
O76 C75 1.264 . S
O77 Mg70 1.986 . S
O77 C81 1.246 . S
O78 Mg73 2.032 . S
O78 C81 1.259 . S
O79 Mg70 2.114 . S
O79 C82 1.252 . S
O80 Mg70 2.251 . S
O80 Mg73 2.079 . S
O80 C82 1.273 . S
C81 O77 1.246 . S
C81 O78 1.259 . S
C82 O79 1.252 . S
C82 O80 1.273 . S
O83 Mg70 2.010 1_545 S
O83 C75 1.249 . S
Mg84 O85 2.028 . S
Mg84 O91 1.986 . S
Mg84 O93 2.114 . S
Mg84 O94 2.251 . S
Mg84 O97 2.010 . S
O85 Mg84 2.028 . S
O85 C88 1.250 . S
O86 Mg87 2.028 . S
O86 C88 1.248 . S
Mg87 O86 2.028 . S
Mg87 O92 2.032 . S
Mg87 O94 2.079 . S
C88 O85 1.250 . S
C88 O86 1.248 . S
C89 O90 1.264 . S
C89 O97 1.249 . S
O90 C89 1.264 . S
O91 Mg84 1.986 . S
O91 C95 1.246 . S
O92 Mg87 2.032 . S
O92 C95 1.259 . S
O93 Mg84 2.114 . S
O93 C96 1.252 . S
O94 Mg84 2.251 . S
O94 Mg87 2.079 . S
O94 C96 1.273 . S
C95 O91 1.246 . S
C95 O92 1.259 . S
C96 O93 1.252 . S
C96 O94 1.273 . S
O97 Mg84 2.010 . S
O97 C89 1.249 . S
Mg98 O99 2.028 . S
Mg98 O105 1.986 . S
Mg98 O107 2.114 . S
Mg98 O108 2.251 1_455 S
Mg98 O111 2.010 1_545 S
O99 Mg98 2.028 . S
O99 C102 1.250 . S
O100 Mg101 2.028 . S
O100 C102 1.248 . S
Mg101 O100 2.028 . S
Mg101 O106 2.032 . S
Mg101 O108 2.079 1_455 S
C102 O99 1.250 . S
C102 O100 1.248 . S
C103 O104 1.264 . S
C103 O111 1.249 . S
O104 C103 1.264 . S
O105 Mg98 1.986 . S
O105 C109 1.246 . S
O106 Mg101 2.032 . S
O106 C109 1.259 . S
O107 Mg98 2.114 . S
O107 C110 1.252 1_455 S
O108 Mg98 2.251 1_655 S
O108 Mg101 2.079 1_655 S
O108 C110 1.273 . S
C109 O105 1.246 . S
C109 O106 1.259 . S
C110 O107 1.252 1_655 S
C110 O108 1.273 . S
O111 Mg98 2.010 1_565 S
O111 C103 1.249 . S
Mg112 O113 2.028 . S
Mg112 O119 1.986 . S
Mg112 O121 2.114 . S
Mg112 O122 2.251 . S
Mg112 O125 2.010 . S
O113 Mg112 2.028 . S
O113 C116 1.250 . S
O114 Mg115 2.028 . S
O114 C116 1.248 . S
Mg115 O114 2.028 . S
Mg115 O120 2.032 . S
Mg115 O122 2.079 . S
C116 O113 1.250 . S
C116 O114 1.248 . S
C117 O118 1.264 . S
C117 O125 1.249 . S
O118 C117 1.264 . S
O119 Mg112 1.986 . S
O119 C123 1.246 . S
O120 Mg115 2.032 . S
O120 C123 1.259 . S
O121 Mg112 2.114 . S
O121 C124 1.252 . S
O122 Mg112 2.251 . S
O122 Mg115 2.079 . S
O122 C124 1.273 . S
C123 O119 1.246 . S
C123 O120 1.259 . S
C124 O121 1.252 . S
C124 O122 1.273 . S
O125 Mg112 2.010 . S
O125 C117 1.249 . S
Mg126 O127 2.028 . S
Mg126 O133 1.986 . S
Mg126 O135 2.114 . S
Mg126 O136 2.251 1_655 S
Mg126 O139 2.010 1_545 S
O127 Mg126 2.028 . S
O127 C130 1.250 . S
O128 Mg129 2.028 . S
O128 C130 1.248 . S
Mg129 O128 2.028 . S
Mg129 O134 2.032 . S
Mg129 O136 2.079 1_655 S
C130 O127 1.250 . S
C130 O128 1.248 . S
C131 O132 1.264 . S
C131 O139 1.249 . S
O132 C131 1.264 . S
O133 Mg126 1.986 . S
O133 C137 1.246 . S
O134 Mg129 2.032 . S
O134 C137 1.259 . S
O135 Mg126 2.114 . S
O135 C138 1.252 1_655 S
O136 Mg126 2.251 1_455 S
O136 Mg129 2.079 1_455 S
O136 C138 1.273 . S
C137 O133 1.246 . S
C137 O134 1.259 . S
C138 O135 1.252 1_455 S
C138 O136 1.273 . S
O139 Mg126 2.010 1_565 S
O139 C131 1.249 . S
Mg140 O141 2.028 . S
Mg140 O147 1.986 . S
Mg140 O149 2.114 . S
Mg140 O150 2.251 . S
Mg140 O153 2.010 . S
O141 Mg140 2.028 . S
O141 C144 1.250 . S
O142 Mg143 2.028 . S
O142 C144 1.248 . S
Mg143 O142 2.028 . S
Mg143 O148 2.032 . S
Mg143 O150 2.079 . S
C144 O141 1.250 . S
C144 O142 1.248 . S
C145 O146 1.264 . S
C145 O153 1.249 . S
O146 C145 1.264 . S
O147 Mg140 1.986 . S
O147 C151 1.246 . S
O148 Mg143 2.032 . S
O148 C151 1.259 . S
O149 Mg140 2.114 . S
O149 C152 1.252 . S
O150 Mg140 2.251 . S
O150 Mg143 2.079 . S
O150 C152 1.273 . S
C151 O147 1.246 . S
C151 O148 1.259 . S
C152 O149 1.252 . S
C152 O150 1.273 . S
O153 Mg140 2.010 . S
O153 C145 1.249 . S
Mg154 O155 2.028 . S
Mg154 O161 1.986 . S
Mg154 O163 2.114 . S
Mg154 O164 2.251 . S
Mg154 O167 2.010 1_565 S
O155 Mg154 2.028 . S
O155 C158 1.250 . S
O156 Mg157 2.028 . S
O156 C158 1.248 . S
Mg157 O156 2.028 . S
Mg157 O162 2.032 . S
Mg157 O164 2.079 . S
C158 O155 1.250 . S
C158 O156 1.248 . S
C159 O160 1.264 . S
C159 O167 1.249 . S
O160 C159 1.264 . S
O161 Mg154 1.986 . S
O161 C165 1.246 . S
O162 Mg157 2.032 . S
O162 C165 1.259 . S
O163 Mg154 2.114 . S
O163 C166 1.252 . S
O164 Mg154 2.251 . S
O164 Mg157 2.079 . S
O164 C166 1.273 . S
C165 O161 1.246 . S
C165 O162 1.259 . S
C166 O163 1.252 . S
C166 O164 1.273 . S
O167 Mg154 2.010 1_545 S
O167 C159 1.249 . S
Mg168 O169 2.028 . S
Mg168 O175 1.986 . S
Mg168 O177 2.114 . S
Mg168 O178 2.251 . S
Mg168 O181 2.010 . S
O169 Mg168 2.028 . S
O169 C172 1.250 . S
O170 Mg171 2.028 . S
O170 C172 1.248 . S
Mg171 O170 2.028 . S
Mg171 O176 2.032 . S
Mg171 O178 2.079 . S
C172 O169 1.250 . S
C172 O170 1.248 . S
C173 O174 1.264 . S
C173 O181 1.249 . S
O174 C173 1.264 . S
O175 Mg168 1.986 . S
O175 C179 1.246 . S
O176 Mg171 2.032 . S
O176 C179 1.259 . S
O177 Mg168 2.114 . S
O177 C180 1.252 . S
O178 Mg168 2.251 . S
O178 Mg171 2.079 . S
O178 C180 1.273 . S
C179 O175 1.246 . S
C179 O176 1.259 . S
C180 O177 1.252 . S
C180 O178 1.273 . S
O181 Mg168 2.010 . S
O181 C173 1.249 . S
Mg182 O183 2.028 . S
Mg182 O189 1.986 . S
Mg182 O191 2.114 . S
Mg182 O192 2.251 . S
Mg182 O195 2.010 1_545 S
O183 Mg182 2.028 . S
O183 C186 1.250 . S
O184 Mg185 2.028 . S
O184 C186 1.248 . S
Mg185 O184 2.028 . S
Mg185 O190 2.032 . S
Mg185 O192 2.079 . S
C186 O183 1.250 . S
C186 O184 1.248 . S
C187 O188 1.264 . S
C187 O195 1.249 . S
O188 C187 1.264 . S
O189 Mg182 1.986 . S
O189 C193 1.246 . S
O190 Mg185 2.032 . S
O190 C193 1.259 . S
O191 Mg182 2.114 . S
O191 C194 1.252 . S
O192 Mg182 2.251 . S
O192 Mg185 2.079 . S
O192 C194 1.273 . S
C193 O189 1.246 . S
C193 O190 1.259 . S
C194 O191 1.252 . S
C194 O192 1.273 . S
O195 Mg182 2.010 1_565 S
O195 C187 1.249 . S
Mg196 O197 2.028 . S
Mg196 O203 1.986 . S
Mg196 O205 2.114 . S
Mg196 O206 2.251 . S
Mg196 O209 2.010 . S
O197 Mg196 2.028 . S
O197 C200 1.250 . S
O198 Mg199 2.028 . S
O198 C200 1.248 . S
Mg199 O198 2.028 . S
Mg199 O204 2.032 . S
Mg199 O206 2.079 . S
C200 O197 1.250 . S
C200 O198 1.248 . S
C201 O202 1.264 . S
C201 O209 1.249 . S
O202 C201 1.264 . S
O203 Mg196 1.986 . S
O203 C207 1.246 . S
O204 Mg199 2.032 . S
O204 C207 1.259 . S
O205 Mg196 2.114 . S
O205 C208 1.252 . S
O206 Mg196 2.251 . S
O206 Mg199 2.079 . S
O206 C208 1.273 . S
C207 O203 1.246 . S
C207 O204 1.259 . S
C208 O205 1.252 . S
C208 O206 1.273 . S
O209 Mg196 2.010 . S
O209 C201 1.249 . S
Mg210 O211 2.028 . S
Mg210 O217 1.986 . S
Mg210 O219 2.114 . S
Mg210 O220 2.251 1_655 S
Mg210 O223 2.010 1_565 S
O211 Mg210 2.028 . S
O211 C214 1.250 . S
O212 Mg213 2.028 . S
O212 C214 1.248 . S
Mg213 O212 2.028 . S
Mg213 O218 2.032 . S
Mg213 O220 2.079 1_655 S
C214 O211 1.250 . S
C214 O212 1.248 . S
C215 O216 1.264 . S
C215 O223 1.249 . S
O216 C215 1.264 . S
O217 Mg210 1.986 . S
O217 C221 1.246 . S
O218 Mg213 2.032 . S
O218 C221 1.259 . S
O219 Mg210 2.114 . S
O219 C222 1.252 1_655 S
O220 Mg210 2.251 1_455 S
O220 Mg213 2.079 1_455 S
O220 C222 1.273 . S
C221 O217 1.246 . S
C221 O218 1.259 . S
C222 O219 1.252 1_455 S
C222 O220 1.273 . S
O223 Mg210 2.010 1_545 S
O223 C215 1.249 . S
Mg224 O225 2.028 . S
Mg224 O231 1.986 . S
Mg224 O233 2.114 . S
Mg224 O234 2.251 . S
Mg224 O237 2.010 . S
O225 Mg224 2.028 . S
O225 C228 1.250 . S
O226 Mg227 2.028 . S
O226 C228 1.248 . S
Mg227 O226 2.028 . S
Mg227 O232 2.032 . S
Mg227 O234 2.079 . S
C228 O225 1.250 . S
C228 O226 1.248 . S
C229 O230 1.264 . S
C229 O237 1.249 . S
O230 C229 1.264 . S
O231 Mg224 1.986 . S
O231 C235 1.246 . S
O232 Mg227 2.032 . S
O232 C235 1.259 . S
O233 Mg224 2.114 . S
O233 C236 1.252 . S
O234 Mg224 2.251 . S
O234 Mg227 2.079 . S
O234 C236 1.273 . S
C235 O231 1.246 . S
C235 O232 1.259 . S
C236 O233 1.252 . S
C236 O234 1.273 . S
O237 Mg224 2.010 . S
O237 C229 1.249 . S
Mg238 O239 2.028 . S
Mg238 O245 1.986 . S
Mg238 O247 2.114 . S
Mg238 O248 2.251 . S
Mg238 O251 2.010 . S
O239 Mg238 2.028 . S
O239 C242 1.250 . S
O240 Mg241 2.028 . S
O240 C242 1.248 . S
Mg241 O240 2.028 . S
Mg241 O246 2.032 . S
Mg241 O248 2.079 . S
C242 O239 1.250 . S
C242 O240 1.248 . S
C243 O244 1.264 . S
C243 O251 1.249 . S
O244 C243 1.264 . S
O245 Mg238 1.986 . S
O245 C249 1.246 . S
O246 Mg241 2.032 . S
O246 C249 1.259 . S
O247 Mg238 2.114 . S
O247 C250 1.252 . S
O248 Mg238 2.251 . S
O248 Mg241 2.079 . S
O248 C250 1.273 . S
C249 O245 1.246 . S
C249 O246 1.259 . S
C250 O247 1.252 . S
C250 O248 1.273 . S
O251 Mg238 2.010 . S
O251 C243 1.249 . S
Mg252 O253 2.028 . S
Mg252 O259 1.986 . S
Mg252 O261 2.114 . S
Mg252 O262 2.251 . S
Mg252 O265 2.010 . S
O253 Mg252 2.028 . S
O253 C256 1.250 . S
O254 Mg255 2.028 . S
O254 C256 1.248 . S
Mg255 O254 2.028 . S
Mg255 O260 2.032 . S
Mg255 O262 2.079 . S
C256 O253 1.250 . S
C256 O254 1.248 . S
C257 O258 1.264 . S
C257 O265 1.249 . S
O258 C257 1.264 . S
O259 Mg252 1.986 . S
O259 C263 1.246 . S
O260 Mg255 2.032 . S
O260 C263 1.259 . S
O261 Mg252 2.114 . S
O261 C264 1.252 . S
O262 Mg252 2.251 . S
O262 Mg255 2.079 . S
O262 C264 1.273 . S
C263 O259 1.246 . S
C263 O260 1.259 . S
C264 O261 1.252 . S
C264 O262 1.273 . S
O265 Mg252 2.010 . S
O265 C257 1.249 . S
Mg266 O267 2.028 . S
Mg266 O273 1.986 . S
Mg266 O275 2.114 . S
Mg266 O276 2.251 1_655 S
Mg266 O279 2.010 . S
O267 Mg266 2.028 . S
O267 C270 1.250 . S
O268 Mg269 2.028 . S
O268 C270 1.248 . S
Mg269 O268 2.028 . S
Mg269 O274 2.032 . S
Mg269 O276 2.079 1_655 S
C270 O267 1.250 . S
C270 O268 1.248 . S
C271 O272 1.264 . S
C271 O279 1.249 . S
O272 C271 1.264 . S
O273 Mg266 1.986 . S
O273 C277 1.246 . S
O274 Mg269 2.032 . S
O274 C277 1.259 . S
O275 Mg266 2.114 . S
O275 C278 1.252 1_655 S
O276 Mg266 2.251 1_455 S
O276 Mg269 2.079 1_455 S
O276 C278 1.273 . S
C277 O273 1.246 . S
C277 O274 1.259 . S
C278 O275 1.252 1_455 S
C278 O276 1.273 . S
O279 Mg266 2.010 . S
O279 C271 1.249 . S
Mg280 O281 2.028 . S
Mg280 O287 1.986 . S
Mg280 O289 2.114 . S
Mg280 O290 2.251 . S
Mg280 O293 2.010 . S
O281 Mg280 2.028 . S
O281 C284 1.250 . S
O282 Mg283 2.028 . S
O282 C284 1.248 . S
Mg283 O282 2.028 . S
Mg283 O288 2.032 . S
Mg283 O290 2.079 . S
C284 O281 1.250 . S
C284 O282 1.248 . S
C285 O286 1.264 . S
C285 O293 1.249 . S
O286 C285 1.264 . S
O287 Mg280 1.986 . S
O287 C291 1.246 . S
O288 Mg283 2.032 . S
O288 C291 1.259 . S
O289 Mg280 2.114 . S
O289 C292 1.252 . S
O290 Mg280 2.251 . S
O290 Mg283 2.079 . S
O290 C292 1.273 . S
C291 O287 1.246 . S
C291 O288 1.259 . S
C292 O289 1.252 . S
C292 O290 1.273 . S
O293 Mg280 2.010 . S
O293 C285 1.249 . S
Mg294 O295 2.028 . S
Mg294 O301 1.986 . S
Mg294 O303 2.114 . S
Mg294 O304 2.251 1_655 S
Mg294 O307 2.010 . S
O295 Mg294 2.028 . S
O295 C298 1.250 . S
O296 Mg297 2.028 . S
O296 C298 1.248 . S
Mg297 O296 2.028 . S
Mg297 O302 2.032 . S
Mg297 O304 2.079 1_655 S
C298 O295 1.250 . S
C298 O296 1.248 . S
C299 O300 1.264 . S
C299 O307 1.249 . S
O300 C299 1.264 . S
O301 Mg294 1.986 . S
O301 C305 1.246 . S
O302 Mg297 2.032 . S
O302 C305 1.259 . S
O303 Mg294 2.114 . S
O303 C306 1.252 1_655 S
O304 Mg294 2.251 1_455 S
O304 Mg297 2.079 1_455 S
O304 C306 1.273 . S
C305 O301 1.246 . S
C305 O302 1.259 . S
C306 O303 1.252 1_455 S
C306 O304 1.273 . S
O307 Mg294 2.010 . S
O307 C299 1.249 . S
Mg308 O309 2.028 . S
Mg308 O315 1.986 . S
Mg308 O317 2.114 . S
Mg308 O318 2.251 . S
Mg308 O321 2.010 . S
O309 Mg308 2.028 . S
O309 C312 1.250 . S
O310 Mg311 2.028 . S
O310 C312 1.248 . S
Mg311 O310 2.028 . S
Mg311 O316 2.032 . S
Mg311 O318 2.079 . S
C312 O309 1.250 . S
C312 O310 1.248 . S
C313 O314 1.264 . S
C313 O321 1.249 . S
O314 C313 1.264 . S
O315 Mg308 1.986 . S
O315 C319 1.246 . S
O316 Mg311 2.032 . S
O316 C319 1.259 . S
O317 Mg308 2.114 . S
O317 C320 1.252 . S
O318 Mg308 2.251 . S
O318 Mg311 2.079 . S
O318 C320 1.273 . S
C319 O315 1.246 . S
C319 O316 1.259 . S
C320 O317 1.252 . S
C320 O318 1.273 . S
O321 Mg308 2.010 . S
O321 C313 1.249 . S
Mg322 O323 2.028 . S
Mg322 O329 1.986 . S
Mg322 O331 2.114 . S
Mg322 O332 2.251 . S
Mg322 O335 2.010 . S
O323 Mg322 2.028 . S
O323 C326 1.250 . S
O324 Mg325 2.028 . S
O324 C326 1.248 . S
Mg325 O324 2.028 . S
Mg325 O330 2.032 . S
Mg325 O332 2.079 . S
C326 O323 1.250 . S
C326 O324 1.248 . S
C327 O328 1.264 . S
C327 O335 1.249 . S
O328 C327 1.264 . S
O329 Mg322 1.986 . S
O329 C333 1.246 . S
O330 Mg325 2.032 . S
O330 C333 1.259 . S
O331 Mg322 2.114 . S
O331 C334 1.252 . S
O332 Mg322 2.251 . S
O332 Mg325 2.079 . S
O332 C334 1.273 . S
C333 O329 1.246 . S
C333 O330 1.259 . S
C334 O331 1.252 . S
C334 O332 1.273 . S
O335 Mg322 2.010 . S
O335 C327 1.249 . S
Mg336 O337 2.028 . S
Mg336 O343 1.986 . S
Mg336 O345 2.114 . S
Mg336 O346 2.251 . S
Mg336 O349 2.010 . S
O337 Mg336 2.028 . S
O337 C340 1.250 . S
O338 Mg339 2.028 . S
O338 C340 1.248 . S
Mg339 O338 2.028 . S
Mg339 O344 2.032 . S
Mg339 O346 2.079 . S
C340 O337 1.250 . S
C340 O338 1.248 . S
C341 O342 1.264 . S
C341 O349 1.249 . S
O342 C341 1.264 . S
O343 Mg336 1.986 . S
O343 C347 1.246 . S
O344 Mg339 2.032 . S
O344 C347 1.259 . S
O345 Mg336 2.114 . S
O345 C348 1.252 . S
O346 Mg336 2.251 . S
O346 Mg339 2.079 . S
O346 C348 1.273 . S
C347 O343 1.246 . S
C347 O344 1.259 . S
C348 O345 1.252 . S
C348 O346 1.273 . S
O349 Mg336 2.010 . S
O349 C341 1.249 . S
Mg350 O351 2.028 . S
Mg350 O357 1.986 . S
Mg350 O359 2.114 . S
Mg350 O360 2.251 . S
Mg350 O363 2.010 . S
O351 Mg350 2.028 . S
O351 C354 1.250 . S
O352 Mg353 2.028 . S
O352 C354 1.248 . S
Mg353 O352 2.028 . S
Mg353 O358 2.032 . S
Mg353 O360 2.079 . S
C354 O351 1.250 . S
C354 O352 1.248 . S
C355 O356 1.264 . S
C355 O363 1.249 . S
O356 C355 1.264 . S
O357 Mg350 1.986 . S
O357 C361 1.246 . S
O358 Mg353 2.032 . S
O358 C361 1.259 . S
O359 Mg350 2.114 . S
O359 C362 1.252 . S
O360 Mg350 2.251 . S
O360 Mg353 2.079 . S
O360 C362 1.273 . S
C361 O357 1.246 . S
C361 O358 1.259 . S
C362 O359 1.252 . S
C362 O360 1.273 . S
O363 Mg350 2.010 . S
O363 C355 1.249 . S
Mg364 O365 2.028 . S
Mg364 O371 1.986 . S
Mg364 O373 2.114 . S
Mg364 O374 2.251 . S
Mg364 O377 2.010 . S
O365 Mg364 2.028 . S
O365 C368 1.250 . S
O366 Mg367 2.028 . S
O366 C368 1.248 . S
Mg367 O366 2.028 . S
Mg367 O372 2.032 . S
Mg367 O374 2.079 . S
C368 O365 1.250 . S
C368 O366 1.248 . S
C369 O370 1.264 . S
C369 O377 1.249 . S
O370 C369 1.264 . S
O371 Mg364 1.986 . S
O371 C375 1.246 . S
O372 Mg367 2.032 . S
O372 C375 1.259 . S
O373 Mg364 2.114 . S
O373 C376 1.252 . S
O374 Mg364 2.251 . S
O374 Mg367 2.079 . S
O374 C376 1.273 . S
C375 O371 1.246 . S
C375 O372 1.259 . S
C376 O373 1.252 . S
C376 O374 1.273 . S
O377 Mg364 2.010 . S
O377 C369 1.249 . S
Mg378 O379 2.028 . S
Mg378 O385 1.986 . S
Mg378 O387 2.114 . S
Mg378 O388 2.251 1_455 S
Mg378 O391 2.010 . S
O379 Mg378 2.028 . S
O379 C382 1.250 . S
O380 Mg381 2.028 . S
O380 C382 1.248 . S
Mg381 O380 2.028 . S
Mg381 O386 2.032 . S
Mg381 O388 2.079 1_455 S
C382 O379 1.250 . S
C382 O380 1.248 . S
C383 O384 1.264 . S
C383 O391 1.249 . S
O384 C383 1.264 . S
O385 Mg378 1.986 . S
O385 C389 1.246 . S
O386 Mg381 2.032 . S
O386 C389 1.259 . S
O387 Mg378 2.114 . S
O387 C390 1.252 1_455 S
O388 Mg378 2.251 1_655 S
O388 Mg381 2.079 1_655 S
O388 C390 1.273 . S
C389 O385 1.246 . S
C389 O386 1.259 . S
C390 O387 1.252 1_655 S
C390 O388 1.273 . S
O391 Mg378 2.010 . S
O391 C383 1.249 . S
Mg392 O393 2.028 . S
Mg392 O399 1.986 . S
Mg392 O401 2.114 . S
Mg392 O402 2.251 . S
Mg392 O405 2.010 . S
O393 Mg392 2.028 . S
O393 C396 1.250 . S
O394 Mg395 2.028 . S
O394 C396 1.248 . S
Mg395 O394 2.028 . S
Mg395 O400 2.032 . S
Mg395 O402 2.079 . S
C396 O393 1.250 . S
C396 O394 1.248 . S
C397 O398 1.264 . S
C397 O405 1.249 . S
O398 C397 1.264 . S
O399 Mg392 1.986 . S
O399 C403 1.246 . S
O400 Mg395 2.032 . S
O400 C403 1.259 . S
O401 Mg392 2.114 . S
O401 C404 1.252 . S
O402 Mg392 2.251 . S
O402 Mg395 2.079 . S
O402 C404 1.273 . S
C403 O399 1.246 . S
C403 O400 1.259 . S
C404 O401 1.252 . S
C404 O402 1.273 . S
O405 Mg392 2.010 . S
O405 C397 1.249 . S
Mg406 O407 2.028 . S
Mg406 O413 1.986 . S
Mg406 O415 2.114 . S
Mg406 O416 2.251 1_455 S
Mg406 O419 2.010 . S
O407 Mg406 2.028 . S
O407 C410 1.250 . S
O408 Mg409 2.028 . S
O408 C410 1.248 . S
Mg409 O408 2.028 . S
Mg409 O414 2.032 . S
Mg409 O416 2.079 1_455 S
C410 O407 1.250 . S
C410 O408 1.248 . S
C411 O412 1.264 . S
C411 O419 1.249 . S
O412 C411 1.264 . S
O413 Mg406 1.986 . S
O413 C417 1.246 . S
O414 Mg409 2.032 . S
O414 C417 1.259 . S
O415 Mg406 2.114 . S
O415 C418 1.252 1_455 S
O416 Mg406 2.251 1_655 S
O416 Mg409 2.079 1_655 S
O416 C418 1.273 . S
C417 O413 1.246 . S
C417 O414 1.259 . S
C418 O415 1.252 1_655 S
C418 O416 1.273 . S
O419 Mg406 2.010 . S
O419 C411 1.249 . S
Mg420 O421 2.028 . S
Mg420 O427 1.986 . S
Mg420 O429 2.114 . S
Mg420 O430 2.251 . S
Mg420 O433 2.010 . S
O421 Mg420 2.028 . S
O421 C424 1.250 . S
O422 Mg423 2.028 . S
O422 C424 1.248 . S
Mg423 O422 2.028 . S
Mg423 O428 2.032 . S
Mg423 O430 2.079 . S
C424 O421 1.250 . S
C424 O422 1.248 . S
C425 O426 1.264 . S
C425 O433 1.249 . S
O426 C425 1.264 . S
O427 Mg420 1.986 . S
O427 C431 1.246 . S
O428 Mg423 2.032 . S
O428 C431 1.259 . S
O429 Mg420 2.114 . S
O429 C432 1.252 . S
O430 Mg420 2.251 . S
O430 Mg423 2.079 . S
O430 C432 1.273 . S
C431 O427 1.246 . S
C431 O428 1.259 . S
C432 O429 1.252 . S
C432 O430 1.273 . S
O433 Mg420 2.010 . S
O433 C425 1.249 . S
Mg434 O435 2.028 . S
Mg434 O441 1.986 . S
Mg434 O443 2.114 . S
Mg434 O444 2.251 . S
Mg434 O447 2.010 . S
O435 Mg434 2.028 . S
O435 C438 1.250 . S
O436 Mg437 2.028 . S
O436 C438 1.248 . S
Mg437 O436 2.028 . S
Mg437 O442 2.032 . S
Mg437 O444 2.079 . S
C438 O435 1.250 . S
C438 O436 1.248 . S
C439 O440 1.264 . S
C439 O447 1.249 . S
O440 C439 1.264 . S
O441 Mg434 1.986 . S
O441 C445 1.246 . S
O442 Mg437 2.032 . S
O442 C445 1.259 . S
O443 Mg434 2.114 . S
O443 C446 1.252 . S
O444 Mg434 2.251 . S
O444 Mg437 2.079 . S
O444 C446 1.273 . S
C445 O441 1.246 . S
C445 O442 1.259 . S
C446 O443 1.252 . S
C446 O444 1.273 . S
O447 Mg434 2.010 . S
O447 C439 1.249 . S
C448 C449 1.349 . S
C448 C450 1.327 . S
C448 H473 0.950 . S
C449 C448 1.349 . S
C449 C465 1.349 . S
C450 C448 1.327 . S
C450 C469 1.429 . S
C450 H474 0.950 . S
C451 C468 1.574 . S
C451 C470 1.368 . S
C451 H475 0.949 . S
H452 C456 0.949 . S
C453 C454 1.349 . S
C453 C455 1.327 . S
C453 H476 0.950 . S
C454 C453 1.349 . S
C454 C466 1.349 . S
C455 C453 1.327 . S
C455 C471 1.429 . S
C455 H477 0.950 . S
C456 H452 0.949 . S
C456 C464 1.574 . S
C456 C472 1.368 . S
H457 C465 0.950 . S
H458 C463 0.950 . S
H459 C464 0.949 . S
H460 C466 0.950 . S
H461 C467 0.950 . S
H462 C468 0.949 . S
C463 H458 0.950 . S
C463 C465 1.327 . S
C463 C469 1.429 . S
C464 C456 1.574 . S
C464 H459 0.949 . S
C464 C470 1.368 . S
C465 C449 1.349 . S
C465 H457 0.950 . S
C465 C463 1.327 . S
C466 C454 1.349 . S
C466 H460 0.950 . S
C466 C467 1.327 . S
C467 H461 0.950 . S
C467 C466 1.327 . S
C467 C471 1.429 . S
C468 C451 1.574 . S
C468 H462 0.949 . S
C468 C472 1.368 . S
C469 C450 1.429 . S
C469 C463 1.429 . S
C469 C470 1.523 . S
C470 C451 1.368 . S
C470 C464 1.368 . S
C470 C469 1.523 . S
C471 C455 1.429 . S
C471 C467 1.429 . S
C471 C472 1.523 . S
C472 C456 1.368 . S
C472 C468 1.368 . S
C472 C471 1.523 . S
H473 C448 0.950 . S
H474 C450 0.950 . S
H475 C451 0.949 . S
H476 C453 0.950 . S
H477 C455 0.950 . S
C478 C479 1.349 . S
C478 C480 1.327 . S
C478 H503 0.950 . S
C479 C478 1.349 . S
C479 C495 1.349 . S
C480 C478 1.327 . S
C480 C499 1.429 . S
C480 H504 0.950 . S
C481 C498 1.574 . S
C481 C500 1.368 . S
C481 H505 0.949 . S
H482 C486 0.949 . S
C483 C484 1.349 . S
C483 C485 1.327 . S
C483 H506 0.950 . S
C484 C483 1.349 . S
C484 C496 1.349 . S
C485 C483 1.327 . S
C485 C501 1.429 . S
C485 H507 0.950 . S
C486 H482 0.949 . S
C486 C494 1.574 . S
C486 C502 1.368 . S
H487 C495 0.950 . S
H488 C493 0.950 . S
H489 C494 0.949 . S
H490 C496 0.950 . S
H491 C497 0.950 . S
H492 C498 0.949 . S
C493 H488 0.950 . S
C493 C495 1.327 . S
C493 C499 1.429 . S
C494 C486 1.574 . S
C494 H489 0.949 . S
C494 C500 1.368 . S
C495 C479 1.349 . S
C495 H487 0.950 . S
C495 C493 1.327 . S
C496 C484 1.349 . S
C496 H490 0.950 . S
C496 C497 1.327 . S
C497 H491 0.950 . S
C497 C496 1.327 . S
C497 C501 1.429 . S
C498 C481 1.574 . S
C498 H492 0.949 . S
C498 C502 1.368 . S
C499 C480 1.429 . S
C499 C493 1.429 . S
C499 C500 1.523 . S
C500 C481 1.368 . S
C500 C494 1.368 . S
C500 C499 1.523 . S
C501 C485 1.429 . S
C501 C497 1.429 . S
C501 C502 1.523 . S
C502 C486 1.368 . S
C502 C498 1.368 . S
C502 C501 1.523 . S
H503 C478 0.950 . S
H504 C480 0.950 . S
H505 C481 0.949 . S
H506 C483 0.950 . S
H507 C485 0.950 . S
C508 C509 1.349 . S
C508 C510 1.327 . S
C508 H533 0.950 . S
C509 C508 1.349 . S
C509 C525 1.349 . S
C510 C508 1.327 . S
C510 C529 1.429 . S
C510 H534 0.950 . S
C511 C528 1.574 . S
C511 C530 1.368 . S
C511 H535 0.949 . S
H512 C516 0.949 . S
C513 C514 1.349 . S
C513 C515 1.327 . S
C513 H536 0.950 . S
C514 C513 1.349 . S
C514 C526 1.349 . S
C515 C513 1.327 . S
C515 C531 1.429 . S
C515 H537 0.950 . S
C516 H512 0.949 . S
C516 C524 1.574 . S
C516 C532 1.368 . S
H517 C525 0.950 . S
H518 C523 0.950 . S
H519 C524 0.949 . S
H520 C526 0.950 . S
H521 C527 0.950 . S
H522 C528 0.949 . S
C523 H518 0.950 . S
C523 C525 1.327 . S
C523 C529 1.429 . S
C524 C516 1.574 . S
C524 H519 0.949 . S
C524 C530 1.368 . S
C525 C509 1.349 . S
C525 H517 0.950 . S
C525 C523 1.327 . S
C526 C514 1.349 . S
C526 H520 0.950 . S
C526 C527 1.327 . S
C527 H521 0.950 . S
C527 C526 1.327 . S
C527 C531 1.429 . S
C528 C511 1.574 . S
C528 H522 0.949 . S
C528 C532 1.368 . S
C529 C510 1.429 . S
C529 C523 1.429 . S
C529 C530 1.523 . S
C530 C511 1.368 . S
C530 C524 1.368 . S
C530 C529 1.523 . S
C531 C515 1.429 . S
C531 C527 1.429 . S
C531 C532 1.523 . S
C532 C516 1.368 . S
C532 C528 1.368 . S
C532 C531 1.523 . S
H533 C508 0.950 . S
H534 C510 0.950 . S
H535 C511 0.949 . S
H536 C513 0.950 . S
H537 C515 0.950 . S
C538 C539 1.349 . S
C538 C540 1.327 . S
C538 H563 0.950 . S
C539 C538 1.349 . S
C539 C555 1.349 . S
C540 C538 1.327 . S
C540 C559 1.429 . S
C540 H564 0.950 . S
C541 C558 1.574 . S
C541 C560 1.368 . S
C541 H565 0.949 . S
H542 C546 0.949 . S
C543 C544 1.349 . S
C543 C545 1.327 . S
C543 H566 0.950 . S
C544 C543 1.349 . S
C544 C556 1.349 . S
C545 C543 1.327 . S
C545 C561 1.429 . S
C545 H567 0.950 . S
C546 H542 0.949 . S
C546 C554 1.574 . S
C546 C562 1.368 . S
H547 C555 0.950 . S
H548 C553 0.950 . S
H549 C554 0.949 . S
H550 C556 0.950 . S
H551 C557 0.950 . S
H552 C558 0.949 . S
C553 H548 0.950 . S
C553 C555 1.327 . S
C553 C559 1.429 . S
C554 C546 1.574 . S
C554 H549 0.949 . S
C554 C560 1.368 . S
C555 C539 1.349 . S
C555 H547 0.950 . S
C555 C553 1.327 . S
C556 C544 1.349 . S
C556 H550 0.950 . S
C556 C557 1.327 . S
C557 H551 0.950 . S
C557 C556 1.327 . S
C557 C561 1.429 . S
C558 C541 1.574 . S
C558 H552 0.949 . S
C558 C562 1.368 . S
C559 C540 1.429 . S
C559 C553 1.429 . S
C559 C560 1.523 . S
C560 C541 1.368 . S
C560 C554 1.368 . S
C560 C559 1.523 . S
C561 C545 1.429 . S
C561 C557 1.429 . S
C561 C562 1.523 . S
C562 C546 1.368 . S
C562 C558 1.368 . S
C562 C561 1.523 . S
H563 C538 0.950 . S
H564 C540 0.950 . S
H565 C541 0.949 . S
H566 C543 0.950 . S
H567 C545 0.950 . S
C568 C569 1.349 . S
C568 C570 1.327 . S
C568 H593 0.950 . S
C569 C568 1.349 . S
C569 C585 1.349 . S
C570 C568 1.327 . S
C570 C589 1.429 . S
C570 H594 0.950 . S
C571 C588 1.574 . S
C571 C590 1.368 . S
C571 H595 0.949 . S
H572 C576 0.949 . S
C573 C574 1.349 . S
C573 C575 1.327 . S
C573 H596 0.950 . S
C574 C573 1.349 . S
C574 C586 1.349 . S
C575 C573 1.327 . S
C575 C591 1.429 . S
C575 H597 0.950 . S
C576 H572 0.949 . S
C576 C584 1.574 . S
C576 C592 1.368 . S
H577 C585 0.950 . S
H578 C583 0.950 . S
H579 C584 0.949 . S
H580 C586 0.950 . S
H581 C587 0.950 . S
H582 C588 0.949 . S
C583 H578 0.950 . S
C583 C585 1.327 . S
C583 C589 1.429 . S
C584 C576 1.574 . S
C584 H579 0.949 . S
C584 C590 1.368 . S
C585 C569 1.349 . S
C585 H577 0.950 . S
C585 C583 1.327 . S
C586 C574 1.349 . S
C586 H580 0.950 . S
C586 C587 1.327 . S
C587 H581 0.950 . S
C587 C586 1.327 . S
C587 C591 1.429 . S
C588 C571 1.574 . S
C588 H582 0.949 . S
C588 C592 1.368 . S
C589 C570 1.429 . S
C589 C583 1.429 . S
C589 C590 1.523 . S
C590 C571 1.368 . S
C590 C584 1.368 . S
C590 C589 1.523 . S
C591 C575 1.429 . S
C591 C587 1.429 . S
C591 C592 1.523 . S
C592 C576 1.368 . S
C592 C588 1.368 . S
C592 C591 1.523 . S
H593 C568 0.950 . S
H594 C570 0.950 . S
H595 C571 0.949 . S
H596 C573 0.950 . S
H597 C575 0.950 . S
C598 C599 1.349 . S
C598 C600 1.327 . S
C598 H623 0.950 . S
C599 C598 1.349 . S
C599 C615 1.349 . S
C600 C598 1.327 . S
C600 C619 1.429 . S
C600 H624 0.950 . S
C601 C618 1.574 . S
C601 C620 1.368 . S
C601 H625 0.949 . S
H602 C606 0.949 . S
C603 C604 1.349 . S
C603 C605 1.327 . S
C603 H626 0.950 . S
C604 C603 1.349 . S
C604 C616 1.349 . S
C605 C603 1.327 . S
C605 C621 1.429 . S
C605 H627 0.950 . S
C606 H602 0.949 . S
C606 C614 1.574 . S
C606 C622 1.368 . S
H607 C615 0.950 . S
H608 C613 0.950 . S
H609 C614 0.949 . S
H610 C616 0.950 . S
H611 C617 0.950 . S
H612 C618 0.949 . S
C613 H608 0.950 . S
C613 C615 1.327 . S
C613 C619 1.429 . S
C614 C606 1.574 . S
C614 H609 0.949 . S
C614 C620 1.368 . S
C615 C599 1.349 . S
C615 H607 0.950 . S
C615 C613 1.327 . S
C616 C604 1.349 . S
C616 H610 0.950 . S
C616 C617 1.327 . S
C617 H611 0.950 . S
C617 C616 1.327 . S
C617 C621 1.429 . S
C618 C601 1.574 . S
C618 H612 0.949 . S
C618 C622 1.368 . S
C619 C600 1.429 . S
C619 C613 1.429 . S
C619 C620 1.523 . S
C620 C601 1.368 . S
C620 C614 1.368 . S
C620 C619 1.523 . S
C621 C605 1.429 . S
C621 C617 1.429 . S
C621 C622 1.523 . S
C622 C606 1.368 . S
C622 C618 1.368 . S
C622 C621 1.523 . S
H623 C598 0.950 . S
H624 C600 0.950 . S
H625 C601 0.949 . S
H626 C603 0.950 . S
H627 C605 0.950 . S
C628 C629 1.349 . S
C628 C630 1.327 . S
C628 H653 0.950 . S
C629 C628 1.349 . S
C629 C645 1.349 . S
C630 C628 1.327 . S
C630 C649 1.429 . S
C630 H654 0.950 . S
C631 C648 1.574 . S
C631 C650 1.368 . S
C631 H655 0.949 . S
H632 C636 0.949 . S
C633 C634 1.349 . S
C633 C635 1.327 . S
C633 H656 0.950 . S
C634 C633 1.349 . S
C634 C646 1.349 . S
C635 C633 1.327 . S
C635 C651 1.429 . S
C635 H657 0.950 . S
C636 H632 0.949 . S
C636 C644 1.574 . S
C636 C652 1.368 . S
H637 C645 0.950 . S
H638 C643 0.950 . S
H639 C644 0.949 . S
H640 C646 0.950 . S
H641 C647 0.950 . S
H642 C648 0.949 . S
C643 H638 0.950 . S
C643 C645 1.327 . S
C643 C649 1.429 . S
C644 C636 1.574 . S
C644 H639 0.949 . S
C644 C650 1.368 . S
C645 C629 1.349 . S
C645 H637 0.950 . S
C645 C643 1.327 . S
C646 C634 1.349 . S
C646 H640 0.950 . S
C646 C647 1.327 . S
C647 H641 0.950 . S
C647 C646 1.327 . S
C647 C651 1.429 . S
C648 C631 1.574 . S
C648 H642 0.949 . S
C648 C652 1.368 . S
C649 C630 1.429 . S
C649 C643 1.429 . S
C649 C650 1.523 . S
C650 C631 1.368 . S
C650 C644 1.368 . S
C650 C649 1.523 . S
C651 C635 1.429 . S
C651 C647 1.429 . S
C651 C652 1.523 . S
C652 C636 1.368 . S
C652 C648 1.368 . S
C652 C651 1.523 . S
H653 C628 0.950 . S
H654 C630 0.950 . S
H655 C631 0.949 . S
H656 C633 0.950 . S
H657 C635 0.950 . S
C658 C659 1.349 . S
C658 C660 1.327 . S
C658 H683 0.950 . S
C659 C658 1.349 . S
C659 C675 1.349 . S
C660 C658 1.327 . S
C660 C679 1.429 . S
C660 H684 0.950 . S
C661 C678 1.574 . S
C661 C680 1.368 . S
C661 H685 0.949 . S
H662 C666 0.949 . S
C663 C664 1.349 . S
C663 C665 1.327 . S
C663 H686 0.950 . S
C664 C663 1.349 . S
C664 C676 1.349 . S
C665 C663 1.327 . S
C665 C681 1.429 . S
C665 H687 0.950 . S
C666 H662 0.949 . S
C666 C674 1.574 . S
C666 C682 1.368 . S
H667 C675 0.950 . S
H668 C673 0.950 . S
H669 C674 0.949 . S
H670 C676 0.950 . S
H671 C677 0.950 . S
H672 C678 0.949 . S
C673 H668 0.950 . S
C673 C675 1.327 . S
C673 C679 1.429 . S
C674 C666 1.574 . S
C674 H669 0.949 . S
C674 C680 1.368 . S
C675 C659 1.349 . S
C675 H667 0.950 . S
C675 C673 1.327 . S
C676 C664 1.349 . S
C676 H670 0.950 . S
C676 C677 1.327 . S
C677 H671 0.950 . S
C677 C676 1.327 . S
C677 C681 1.429 . S
C678 C661 1.574 . S
C678 H672 0.949 . S
C678 C682 1.368 . S
C679 C660 1.429 . S
C679 C673 1.429 . S
C679 C680 1.523 . S
C680 C661 1.368 . S
C680 C674 1.368 . S
C680 C679 1.523 . S
C681 C665 1.429 . S
C681 C677 1.429 . S
C681 C682 1.523 . S
C682 C666 1.368 . S
C682 C678 1.368 . S
C682 C681 1.523 . S
H683 C658 0.950 . S
H684 C660 0.950 . S
H685 C661 0.949 . S
H686 C663 0.950 . S
H687 C665 0.950 . S
C688 C689 1.349 . S
C688 C690 1.327 . S
C688 H713 0.950 . S
C689 C688 1.349 . S
C689 C705 1.349 . S
C690 C688 1.327 . S
C690 C709 1.429 . S
C690 H714 0.950 . S
C691 C708 1.574 . S
C691 C710 1.368 . S
C691 H715 0.949 . S
H692 C696 0.949 . S
C693 C694 1.349 . S
C693 C695 1.327 . S
C693 H716 0.950 . S
C694 C693 1.349 . S
C694 C706 1.349 . S
C695 C693 1.327 . S
C695 C711 1.429 . S
C695 H717 0.950 . S
C696 H692 0.949 . S
C696 C704 1.574 . S
C696 C712 1.368 . S
H697 C705 0.950 . S
H698 C703 0.950 . S
H699 C704 0.949 . S
H700 C706 0.950 . S
H701 C707 0.950 . S
H702 C708 0.949 . S
C703 H698 0.950 . S
C703 C705 1.327 . S
C703 C709 1.429 . S
C704 C696 1.574 . S
C704 H699 0.949 . S
C704 C710 1.368 . S
C705 C689 1.349 . S
C705 H697 0.950 . S
C705 C703 1.327 . S
C706 C694 1.349 . S
C706 H700 0.950 . S
C706 C707 1.327 . S
C707 H701 0.950 . S
C707 C706 1.327 . S
C707 C711 1.429 . S
C708 C691 1.574 . S
C708 H702 0.949 . S
C708 C712 1.368 . S
C709 C690 1.429 . S
C709 C703 1.429 . S
C709 C710 1.523 . S
C710 C691 1.368 . S
C710 C704 1.368 . S
C710 C709 1.523 . S
C711 C695 1.429 . S
C711 C707 1.429 . S
C711 C712 1.523 . S
C712 C696 1.368 . S
C712 C708 1.368 . S
C712 C711 1.523 . S
H713 C688 0.950 . S
H714 C690 0.950 . S
H715 C691 0.949 . S
H716 C693 0.950 . S
H717 C695 0.950 . S
C718 C719 1.349 . S
C718 C720 1.327 . S
C718 H743 0.950 . S
C719 C718 1.349 . S
C719 C735 1.349 . S
C720 C718 1.327 . S
C720 C739 1.429 . S
C720 H744 0.950 . S
C721 C738 1.574 . S
C721 C740 1.368 . S
C721 H745 0.949 . S
H722 C726 0.949 . S
C723 C724 1.349 . S
C723 C725 1.327 . S
C723 H746 0.950 . S
C724 C723 1.349 . S
C724 C736 1.349 . S
C725 C723 1.327 . S
C725 C741 1.429 . S
C725 H747 0.950 . S
C726 H722 0.949 . S
C726 C734 1.574 . S
C726 C742 1.368 . S
H727 C735 0.950 . S
H728 C733 0.950 . S
H729 C734 0.949 . S
H730 C736 0.950 . S
H731 C737 0.950 . S
H732 C738 0.949 . S
C733 H728 0.950 . S
C733 C735 1.327 . S
C733 C739 1.429 . S
C734 C726 1.574 . S
C734 H729 0.949 . S
C734 C740 1.368 . S
C735 C719 1.349 . S
C735 H727 0.950 . S
C735 C733 1.327 . S
C736 C724 1.349 . S
C736 H730 0.950 . S
C736 C737 1.327 . S
C737 H731 0.950 . S
C737 C736 1.327 . S
C737 C741 1.429 . S
C738 C721 1.574 . S
C738 H732 0.949 . S
C738 C742 1.368 . S
C739 C720 1.429 . S
C739 C733 1.429 . S
C739 C740 1.523 . S
C740 C721 1.368 . S
C740 C734 1.368 . S
C740 C739 1.523 . S
C741 C725 1.429 . S
C741 C737 1.429 . S
C741 C742 1.523 . S
C742 C726 1.368 . S
C742 C738 1.368 . S
C742 C741 1.523 . S
H743 C718 0.950 . S
H744 C720 0.950 . S
H745 C721 0.949 . S
H746 C723 0.950 . S
H747 C725 0.950 . S
C748 C749 1.349 . S
C748 C750 1.327 . S
C748 H773 0.950 . S
C749 C748 1.349 . S
C749 C765 1.349 . S
C750 C748 1.327 . S
C750 C769 1.429 . S
C750 H774 0.950 . S
C751 C768 1.574 . S
C751 C770 1.368 . S
C751 H775 0.949 . S
H752 C756 0.949 . S
C753 C754 1.349 . S
C753 C755 1.327 . S
C753 H776 0.950 . S
C754 C753 1.349 . S
C754 C766 1.349 . S
C755 C753 1.327 . S
C755 C771 1.429 . S
C755 H777 0.950 . S
C756 H752 0.949 . S
C756 C764 1.574 . S
C756 C772 1.368 . S
H757 C765 0.950 . S
H758 C763 0.950 . S
H759 C764 0.949 . S
H760 C766 0.950 . S
H761 C767 0.950 . S
H762 C768 0.949 . S
C763 H758 0.950 . S
C763 C765 1.327 . S
C763 C769 1.429 . S
C764 C756 1.574 . S
C764 H759 0.949 . S
C764 C770 1.368 . S
C765 C749 1.349 . S
C765 H757 0.950 . S
C765 C763 1.327 . S
C766 C754 1.349 . S
C766 H760 0.950 . S
C766 C767 1.327 . S
C767 H761 0.950 . S
C767 C766 1.327 . S
C767 C771 1.429 . S
C768 C751 1.574 . S
C768 H762 0.949 . S
C768 C772 1.368 . S
C769 C750 1.429 . S
C769 C763 1.429 . S
C769 C770 1.523 . S
C770 C751 1.368 . S
C770 C764 1.368 . S
C770 C769 1.523 . S
C771 C755 1.429 . S
C771 C767 1.429 . S
C771 C772 1.523 . S
C772 C756 1.368 . S
C772 C768 1.368 . S
C772 C771 1.523 . S
H773 C748 0.950 . S
H774 C750 0.950 . S
H775 C751 0.949 . S
H776 C753 0.950 . S
H777 C755 0.950 . S
C778 C779 1.349 . S
C778 C780 1.327 . S
C778 H803 0.950 . S
C779 C778 1.349 . S
C779 C795 1.349 . S
C780 C778 1.327 . S
C780 C799 1.429 . S
C780 H804 0.950 . S
C781 C798 1.574 . S
C781 C800 1.368 . S
C781 H805 0.949 . S
H782 C786 0.949 . S
C783 C784 1.349 . S
C783 C785 1.327 . S
C783 H806 0.950 . S
C784 C783 1.349 . S
C784 C796 1.349 . S
C785 C783 1.327 . S
C785 C801 1.429 . S
C785 H807 0.950 . S
C786 H782 0.949 . S
C786 C794 1.574 . S
C786 C802 1.368 . S
H787 C795 0.950 . S
H788 C793 0.950 . S
H789 C794 0.949 . S
H790 C796 0.950 . S
H791 C797 0.950 . S
H792 C798 0.949 . S
C793 H788 0.950 . S
C793 C795 1.327 . S
C793 C799 1.429 . S
C794 C786 1.574 . S
C794 H789 0.949 . S
C794 C800 1.368 . S
C795 C779 1.349 . S
C795 H787 0.950 . S
C795 C793 1.327 . S
C796 C784 1.349 . S
C796 H790 0.950 . S
C796 C797 1.327 . S
C797 H791 0.950 . S
C797 C796 1.327 . S
C797 C801 1.429 . S
C798 C781 1.574 . S
C798 H792 0.949 . S
C798 C802 1.368 . S
C799 C780 1.429 . S
C799 C793 1.429 . S
C799 C800 1.523 . S
C800 C781 1.368 . S
C800 C794 1.368 . S
C800 C799 1.523 . S
C801 C785 1.429 . S
C801 C797 1.429 . S
C801 C802 1.523 . S
C802 C786 1.368 . S
C802 C798 1.368 . S
C802 C801 1.523 . S
H803 C778 0.950 . S
H804 C780 0.950 . S
H805 C781 0.949 . S
H806 C783 0.950 . S
H807 C785 0.950 . S
C808 C809 1.349 . S
C808 C810 1.327 . S
C808 H833 0.950 . S
C809 C808 1.349 . S
C809 C825 1.349 . S
C810 C808 1.327 . S
C810 C829 1.429 . S
C810 H834 0.950 . S
C811 C828 1.574 . S
C811 C830 1.368 . S
C811 H835 0.949 . S
H812 C816 0.949 . S
C813 C814 1.349 . S
C813 C815 1.327 . S
C813 H836 0.950 . S
C814 C813 1.349 . S
C814 C826 1.349 . S
C815 C813 1.327 . S
C815 C831 1.429 . S
C815 H837 0.950 . S
C816 H812 0.949 . S
C816 C824 1.574 . S
C816 C832 1.368 . S
H817 C825 0.950 . S
H818 C823 0.950 . S
H819 C824 0.949 . S
H820 C826 0.950 . S
H821 C827 0.950 . S
H822 C828 0.949 . S
C823 H818 0.950 . S
C823 C825 1.327 . S
C823 C829 1.429 . S
C824 C816 1.574 . S
C824 H819 0.949 . S
C824 C830 1.368 . S
C825 C809 1.349 . S
C825 H817 0.950 . S
C825 C823 1.327 . S
C826 C814 1.349 . S
C826 H820 0.950 . S
C826 C827 1.327 . S
C827 H821 0.950 . S
C827 C826 1.327 . S
C827 C831 1.429 . S
C828 C811 1.574 . S
C828 H822 0.949 . S
C828 C832 1.368 . S
C829 C810 1.429 . S
C829 C823 1.429 . S
C829 C830 1.523 . S
C830 C811 1.368 . S
C830 C824 1.368 . S
C830 C829 1.523 . S
C831 C815 1.429 . S
C831 C827 1.429 . S
C831 C832 1.523 . S
C832 C816 1.368 . S
C832 C828 1.368 . S
C832 C831 1.523 . S
H833 C808 0.950 . S
H834 C810 0.950 . S
H835 C811 0.949 . S
H836 C813 0.950 . S
H837 C815 0.950 . S
C838 C839 1.349 . S
C838 C840 1.327 . S
C838 H863 0.950 . S
C839 C838 1.349 . S
C839 C855 1.349 . S
C840 C838 1.327 . S
C840 C859 1.429 . S
C840 H864 0.950 . S
C841 C858 1.574 . S
C841 C860 1.368 . S
C841 H865 0.949 . S
H842 C846 0.949 . S
C843 C844 1.349 . S
C843 C845 1.327 . S
C843 H866 0.950 . S
C844 C843 1.349 . S
C844 C856 1.349 . S
C845 C843 1.327 . S
C845 C861 1.429 . S
C845 H867 0.950 . S
C846 H842 0.949 . S
C846 C854 1.574 . S
C846 C862 1.368 . S
H847 C855 0.950 . S
H848 C853 0.950 . S
H849 C854 0.949 . S
H850 C856 0.950 . S
H851 C857 0.950 . S
H852 C858 0.949 . S
C853 H848 0.950 . S
C853 C855 1.327 . S
C853 C859 1.429 . S
C854 C846 1.574 . S
C854 H849 0.949 . S
C854 C860 1.368 . S
C855 C839 1.349 . S
C855 H847 0.950 . S
C855 C853 1.327 . S
C856 C844 1.349 . S
C856 H850 0.950 . S
C856 C857 1.327 . S
C857 H851 0.950 . S
C857 C856 1.327 . S
C857 C861 1.429 . S
C858 C841 1.574 . S
C858 H852 0.949 . S
C858 C862 1.368 . S
C859 C840 1.429 . S
C859 C853 1.429 . S
C859 C860 1.523 . S
C860 C841 1.368 . S
C860 C854 1.368 . S
C860 C859 1.523 . S
C861 C845 1.429 . S
C861 C857 1.429 . S
C861 C862 1.523 . S
C862 C846 1.368 . S
C862 C858 1.368 . S
C862 C861 1.523 . S
H863 C838 0.950 . S
H864 C840 0.950 . S
H865 C841 0.949 . S
H866 C843 0.950 . S
H867 C845 0.950 . S
C868 C869 1.349 . S
C868 C870 1.327 . S
C868 H893 0.950 . S
C869 C868 1.349 . S
C869 C885 1.349 . S
C870 C868 1.327 . S
C870 C889 1.429 . S
C870 H894 0.950 . S
C871 C888 1.574 . S
C871 C890 1.368 . S
C871 H895 0.949 . S
H872 C876 0.949 . S
C873 C874 1.349 . S
C873 C875 1.327 . S
C873 H896 0.950 . S
C874 C873 1.349 . S
C874 C886 1.349 . S
C875 C873 1.327 . S
C875 C891 1.429 . S
C875 H897 0.950 . S
C876 H872 0.949 . S
C876 C884 1.574 . S
C876 C892 1.368 . S
H877 C885 0.950 . S
H878 C883 0.950 . S
H879 C884 0.949 . S
H880 C886 0.950 . S
H881 C887 0.950 . S
H882 C888 0.949 . S
C883 H878 0.950 . S
C883 C885 1.327 . S
C883 C889 1.429 . S
C884 C876 1.574 . S
C884 H879 0.949 . S
C884 C890 1.368 . S
C885 C869 1.349 . S
C885 H877 0.950 . S
C885 C883 1.327 . S
C886 C874 1.349 . S
C886 H880 0.950 . S
C886 C887 1.327 . S
C887 H881 0.950 . S
C887 C886 1.327 . S
C887 C891 1.429 . S
C888 C871 1.574 . S
C888 H882 0.949 . S
C888 C892 1.368 . S
C889 C870 1.429 . S
C889 C883 1.429 . S
C889 C890 1.523 . S
C890 C871 1.368 . S
C890 C884 1.368 . S
C890 C889 1.523 . S
C891 C875 1.429 . S
C891 C887 1.429 . S
C891 C892 1.523 . S
C892 C876 1.368 . S
C892 C888 1.368 . S
C892 C891 1.523 . S
H893 C868 0.950 . S
H894 C870 0.950 . S
H895 C871 0.949 . S
H896 C873 0.950 . S
H897 C875 0.950 . S
C898 C899 1.349 . S
C898 C900 1.327 . S
C898 H923 0.950 . S
C899 C898 1.349 . S
C899 C915 1.349 . S
C900 C898 1.327 . S
C900 C919 1.429 . S
C900 H924 0.950 . S
C901 C918 1.574 . S
C901 C920 1.368 . S
C901 H925 0.949 . S
H902 C906 0.949 . S
C903 C904 1.349 . S
C903 C905 1.327 . S
C903 H926 0.950 . S
C904 C903 1.349 . S
C904 C916 1.349 . S
C905 C903 1.327 . S
C905 C921 1.429 . S
C905 H927 0.950 . S
C906 H902 0.949 . S
C906 C914 1.574 . S
C906 C922 1.368 . S
H907 C915 0.950 . S
H908 C913 0.950 . S
H909 C914 0.949 . S
H910 C916 0.950 . S
H911 C917 0.950 . S
H912 C918 0.949 . S
C913 H908 0.950 . S
C913 C915 1.327 . S
C913 C919 1.429 . S
C914 C906 1.574 . S
C914 H909 0.949 . S
C914 C920 1.368 . S
C915 C899 1.349 . S
C915 H907 0.950 . S
C915 C913 1.327 . S
C916 C904 1.349 . S
C916 H910 0.950 . S
C916 C917 1.327 . S
C917 H911 0.950 . S
C917 C916 1.327 . S
C917 C921 1.429 . S
C918 C901 1.574 . S
C918 H912 0.949 . S
C918 C922 1.368 . S
C919 C900 1.429 . S
C919 C913 1.429 . S
C919 C920 1.523 . S
C920 C901 1.368 . S
C920 C914 1.368 . S
C920 C919 1.523 . S
C921 C905 1.429 . S
C921 C917 1.429 . S
C921 C922 1.523 . S
C922 C906 1.368 . S
C922 C918 1.368 . S
C922 C921 1.523 . S
H923 C898 0.950 . S
H924 C900 0.950 . S
H925 C901 0.949 . S
H926 C903 0.950 . S
H927 C905 0.950 . S
C928 C929 1.349 . S
C928 C930 1.327 . S
C928 H953 0.950 . S
C929 C928 1.349 . S
C929 C945 1.349 . S
C930 C928 1.327 . S
C930 C949 1.429 . S
C930 H954 0.950 . S
C931 C948 1.574 . S
C931 C950 1.368 . S
C931 H955 0.949 . S
H932 C936 0.949 . S
C933 C934 1.349 . S
C933 C935 1.327 . S
C933 H956 0.950 . S
C934 C933 1.349 . S
C934 C946 1.349 . S
C935 C933 1.327 . S
C935 C951 1.429 . S
C935 H957 0.950 . S
C936 H932 0.949 . S
C936 C944 1.574 . S
C936 C952 1.368 . S
H937 C945 0.950 . S
H938 C943 0.950 . S
H939 C944 0.949 . S
H940 C946 0.950 . S
H941 C947 0.950 . S
H942 C948 0.949 . S
C943 H938 0.950 . S
C943 C945 1.327 . S
C943 C949 1.429 . S
C944 C936 1.574 . S
C944 H939 0.949 . S
C944 C950 1.368 . S
C945 C929 1.349 . S
C945 H937 0.950 . S
C945 C943 1.327 . S
C946 C934 1.349 . S
C946 H940 0.950 . S
C946 C947 1.327 . S
C947 H941 0.950 . S
C947 C946 1.327 . S
C947 C951 1.429 . S
C948 C931 1.574 . S
C948 H942 0.949 . S
C948 C952 1.368 . S
C949 C930 1.429 . S
C949 C943 1.429 . S
C949 C950 1.523 . S
C950 C931 1.368 . S
C950 C944 1.368 . S
C950 C949 1.523 . S
C951 C935 1.429 . S
C951 C947 1.429 . S
C951 C952 1.523 . S
C952 C936 1.368 . S
C952 C948 1.368 . S
C952 C951 1.523 . S
H953 C928 0.950 . S
H954 C930 0.950 . S
H955 C931 0.949 . S
H956 C933 0.950 . S
H957 C935 0.950 . S
C958 C959 1.349 . S
C958 C960 1.327 . S
C958 H983 0.950 . S
C959 C958 1.349 . S
C959 C975 1.349 . S
C960 C958 1.327 . S
C960 C979 1.429 . S
C960 H984 0.950 . S
C961 C978 1.574 . S
C961 C980 1.368 . S
C961 H985 0.949 . S
H962 C966 0.949 . S
C963 C964 1.349 . S
C963 C965 1.327 . S
C963 H986 0.950 . S
C964 C963 1.349 . S
C964 C976 1.349 . S
C965 C963 1.327 . S
C965 C981 1.429 . S
C965 H987 0.950 . S
C966 H962 0.949 . S
C966 C974 1.574 . S
C966 C982 1.368 . S
H967 C975 0.950 . S
H968 C973 0.950 . S
H969 C974 0.949 . S
H970 C976 0.950 . S
H971 C977 0.950 . S
H972 C978 0.949 . S
C973 H968 0.950 . S
C973 C975 1.327 . S
C973 C979 1.429 . S
C974 C966 1.574 . S
C974 H969 0.949 . S
C974 C980 1.368 . S
C975 C959 1.349 . S
C975 H967 0.950 . S
C975 C973 1.327 . S
C976 C964 1.349 . S
C976 H970 0.950 . S
C976 C977 1.327 . S
C977 H971 0.950 . S
C977 C976 1.327 . S
C977 C981 1.429 . S
C978 C961 1.574 . S
C978 H972 0.949 . S
C978 C982 1.368 . S
C979 C960 1.429 . S
C979 C973 1.429 . S
C979 C980 1.523 . S
C980 C961 1.368 . S
C980 C974 1.368 . S
C980 C979 1.523 . S
C981 C965 1.429 . S
C981 C977 1.429 . S
C981 C982 1.523 . S
C982 C966 1.368 . S
C982 C978 1.368 . S
C982 C981 1.523 . S
H983 C958 0.950 . S
H984 C960 0.950 . S
H985 C961 0.949 . S
H986 C963 0.950 . S
H987 C965 0.950 . S
C988 C989 1.349 . S
C988 C990 1.327 . S
C988 H1013 0.950 . S
C989 C988 1.349 . S
C989 C1005 1.349 . S
C990 C988 1.327 . S
C990 C1009 1.429 . S
C990 H1014 0.950 . S
C991 C1008 1.574 . S
C991 C1010 1.368 . S
C991 H1015 0.949 . S
H992 C996 0.949 . S
C993 C994 1.349 . S
C993 C995 1.327 . S
C993 H1016 0.950 . S
C994 C993 1.349 . S
C994 C1006 1.349 . S
C995 C993 1.327 . S
C995 C1011 1.429 . S
C995 H1017 0.950 . S
C996 H992 0.949 . S
C996 C1004 1.574 . S
C996 C1012 1.368 . S
H997 C1005 0.950 . S
H998 C1003 0.950 . S
H999 C1004 0.949 . S
H1000 C1006 0.950 . S
H1001 C1007 0.950 . S
H1002 C1008 0.949 . S
C1003 H998 0.950 . S
C1003 C1005 1.327 . S
C1003 C1009 1.429 . S
C1004 C996 1.574 . S
C1004 H999 0.949 . S
C1004 C1010 1.368 . S
C1005 C989 1.349 . S
C1005 H997 0.950 . S
C1005 C1003 1.327 . S
C1006 C994 1.349 . S
C1006 H1000 0.950 . S
C1006 C1007 1.327 . S
C1007 H1001 0.950 . S
C1007 C1006 1.327 . S
C1007 C1011 1.429 . S
C1008 C991 1.574 . S
C1008 H1002 0.949 . S
C1008 C1012 1.368 . S
C1009 C990 1.429 . S
C1009 C1003 1.429 . S
C1009 C1010 1.523 . S
C1010 C991 1.368 . S
C1010 C1004 1.368 . S
C1010 C1009 1.523 . S
C1011 C995 1.429 . S
C1011 C1007 1.429 . S
C1011 C1012 1.523 . S
C1012 C996 1.368 . S
C1012 C1008 1.368 . S
C1012 C1011 1.523 . S
H1013 C988 0.950 . S
H1014 C990 0.950 . S
H1015 C991 0.949 . S
H1016 C993 0.950 . S
H1017 C995 0.950 . S
C1018 C1019 1.349 . S
C1018 C1020 1.327 . S
C1018 H1043 0.950 . S
C1019 C1018 1.349 . S
C1019 C1035 1.349 . S
C1020 C1018 1.327 . S
C1020 C1039 1.429 . S
C1020 H1044 0.950 . S
C1021 C1038 1.574 . S
C1021 C1040 1.368 . S
C1021 H1045 0.949 . S
H1022 C1026 0.949 . S
C1023 C1024 1.349 . S
C1023 C1025 1.327 . S
C1023 H1046 0.950 . S
C1024 C1023 1.349 . S
C1024 C1036 1.349 . S
C1025 C1023 1.327 . S
C1025 C1041 1.429 . S
C1025 H1047 0.950 . S
C1026 H1022 0.949 . S
C1026 C1034 1.574 . S
C1026 C1042 1.368 . S
H1027 C1035 0.950 . S
H1028 C1033 0.950 . S
H1029 C1034 0.949 . S
H1030 C1036 0.950 . S
H1031 C1037 0.950 . S
H1032 C1038 0.949 . S
C1033 H1028 0.950 . S
C1033 C1035 1.327 . S
C1033 C1039 1.429 . S
C1034 C1026 1.574 . S
C1034 H1029 0.949 . S
C1034 C1040 1.368 . S
C1035 C1019 1.349 . S
C1035 H1027 0.950 . S
C1035 C1033 1.327 . S
C1036 C1024 1.349 . S
C1036 H1030 0.950 . S
C1036 C1037 1.327 . S
C1037 H1031 0.950 . S
C1037 C1036 1.327 . S
C1037 C1041 1.429 . S
C1038 C1021 1.574 . S
C1038 H1032 0.949 . S
C1038 C1042 1.368 . S
C1039 C1020 1.429 . S
C1039 C1033 1.429 . S
C1039 C1040 1.523 . S
C1040 C1021 1.368 . S
C1040 C1034 1.368 . S
C1040 C1039 1.523 . S
C1041 C1025 1.429 . S
C1041 C1037 1.429 . S
C1041 C1042 1.523 . S
C1042 C1026 1.368 . S
C1042 C1038 1.368 . S
C1042 C1041 1.523 . S
H1043 C1018 0.950 . S
H1044 C1020 0.950 . S
H1045 C1021 0.949 . S
H1046 C1023 0.950 . S
H1047 C1025 0.950 . S
C1048 C1049 1.349 . S
C1048 C1050 1.327 . S
C1048 H1073 0.950 . S
C1049 C1048 1.349 . S
C1049 C1065 1.349 . S
C1050 C1048 1.327 . S
C1050 C1069 1.429 . S
C1050 H1074 0.950 . S
C1051 C1068 1.574 . S
C1051 C1070 1.368 . S
C1051 H1075 0.949 . S
H1052 C1056 0.949 . S
C1053 C1054 1.349 . S
C1053 C1055 1.327 . S
C1053 H1076 0.950 . S
C1054 C1053 1.349 . S
C1054 C1066 1.349 . S
C1055 C1053 1.327 . S
C1055 C1071 1.429 . S
C1055 H1077 0.950 . S
C1056 H1052 0.949 . S
C1056 C1064 1.574 . S
C1056 C1072 1.368 . S
H1057 C1065 0.950 . S
H1058 C1063 0.950 . S
H1059 C1064 0.949 . S
H1060 C1066 0.950 . S
H1061 C1067 0.950 . S
H1062 C1068 0.949 . S
C1063 H1058 0.950 . S
C1063 C1065 1.327 . S
C1063 C1069 1.429 . S
C1064 C1056 1.574 . S
C1064 H1059 0.949 . S
C1064 C1070 1.368 . S
C1065 C1049 1.349 . S
C1065 H1057 0.950 . S
C1065 C1063 1.327 . S
C1066 C1054 1.349 . S
C1066 H1060 0.950 . S
C1066 C1067 1.327 . S
C1067 H1061 0.950 . S
C1067 C1066 1.327 . S
C1067 C1071 1.429 . S
C1068 C1051 1.574 . S
C1068 H1062 0.949 . S
C1068 C1072 1.368 . S
C1069 C1050 1.429 . S
C1069 C1063 1.429 . S
C1069 C1070 1.523 . S
C1070 C1051 1.368 . S
C1070 C1064 1.368 . S
C1070 C1069 1.523 . S
C1071 C1055 1.429 . S
C1071 C1067 1.429 . S
C1071 C1072 1.523 . S
C1072 C1056 1.368 . S
C1072 C1068 1.368 . S
C1072 C1071 1.523 . S
H1073 C1048 0.950 . S
H1074 C1050 0.950 . S
H1075 C1051 0.949 . S
H1076 C1053 0.950 . S
H1077 C1055 0.950 . S
C1078 C1079 1.349 . S
C1078 C1080 1.327 . S
C1078 H1103 0.950 . S
C1079 C1078 1.349 . S
C1079 C1095 1.349 . S
C1080 C1078 1.327 . S
C1080 C1099 1.429 . S
C1080 H1104 0.950 . S
C1081 C1098 1.574 . S
C1081 C1100 1.368 . S
C1081 H1105 0.949 . S
H1082 C1086 0.949 . S
C1083 C1084 1.349 . S
C1083 C1085 1.327 . S
C1083 H1106 0.950 . S
C1084 C1083 1.349 . S
C1084 C1096 1.349 . S
C1085 C1083 1.327 . S
C1085 C1101 1.429 . S
C1085 H1107 0.950 . S
C1086 H1082 0.949 . S
C1086 C1094 1.574 . S
C1086 C1102 1.368 . S
H1087 C1095 0.950 . S
H1088 C1093 0.950 . S
H1089 C1094 0.949 . S
H1090 C1096 0.950 . S
H1091 C1097 0.950 . S
H1092 C1098 0.949 . S
C1093 H1088 0.950 . S
C1093 C1095 1.327 . S
C1093 C1099 1.429 . S
C1094 C1086 1.574 . S
C1094 H1089 0.949 . S
C1094 C1100 1.368 . S
C1095 C1079 1.349 . S
C1095 H1087 0.950 . S
C1095 C1093 1.327 . S
C1096 C1084 1.349 . S
C1096 H1090 0.950 . S
C1096 C1097 1.327 . S
C1097 H1091 0.950 . S
C1097 C1096 1.327 . S
C1097 C1101 1.429 . S
C1098 C1081 1.574 . S
C1098 H1092 0.949 . S
C1098 C1102 1.368 . S
C1099 C1080 1.429 . S
C1099 C1093 1.429 . S
C1099 C1100 1.523 . S
C1100 C1081 1.368 . S
C1100 C1094 1.368 . S
C1100 C1099 1.523 . S
C1101 C1085 1.429 . S
C1101 C1097 1.429 . S
C1101 C1102 1.523 . S
C1102 C1086 1.368 . S
C1102 C1098 1.368 . S
C1102 C1101 1.523 . S
H1103 C1078 0.950 . S
H1104 C1080 0.950 . S
H1105 C1081 0.949 . S
H1106 C1083 0.950 . S
H1107 C1085 0.950 . S
C1108 C1109 1.349 . S
C1108 C1110 1.327 . S
C1108 H1133 0.950 . S
C1109 C1108 1.349 . S
C1109 C1125 1.349 . S
C1110 C1108 1.327 . S
C1110 C1129 1.429 . S
C1110 H1134 0.950 . S
C1111 C1128 1.574 . S
C1111 C1130 1.368 . S
C1111 H1135 0.949 . S
H1112 C1116 0.949 . S
C1113 C1114 1.349 . S
C1113 C1115 1.327 . S
C1113 H1136 0.950 . S
C1114 C1113 1.349 . S
C1114 C1126 1.349 . S
C1115 C1113 1.327 . S
C1115 C1131 1.429 . S
C1115 H1137 0.950 . S
C1116 H1112 0.949 . S
C1116 C1124 1.574 . S
C1116 C1132 1.368 . S
H1117 C1125 0.950 . S
H1118 C1123 0.950 . S
H1119 C1124 0.949 . S
H1120 C1126 0.950 . S
H1121 C1127 0.950 . S
H1122 C1128 0.949 . S
C1123 H1118 0.950 . S
C1123 C1125 1.327 . S
C1123 C1129 1.429 . S
C1124 C1116 1.574 . S
C1124 H1119 0.949 . S
C1124 C1130 1.368 . S
C1125 C1109 1.349 . S
C1125 H1117 0.950 . S
C1125 C1123 1.327 . S
C1126 C1114 1.349 . S
C1126 H1120 0.950 . S
C1126 C1127 1.327 . S
C1127 H1121 0.950 . S
C1127 C1126 1.327 . S
C1127 C1131 1.429 . S
C1128 C1111 1.574 . S
C1128 H1122 0.949 . S
C1128 C1132 1.368 . S
C1129 C1110 1.429 . S
C1129 C1123 1.429 . S
C1129 C1130 1.523 . S
C1130 C1111 1.368 . S
C1130 C1124 1.368 . S
C1130 C1129 1.523 . S
C1131 C1115 1.429 . S
C1131 C1127 1.429 . S
C1131 C1132 1.523 . S
C1132 C1116 1.368 . S
C1132 C1128 1.368 . S
C1132 C1131 1.523 . S
H1133 C1108 0.950 . S
H1134 C1110 0.950 . S
H1135 C1111 0.949 . S
H1136 C1113 0.950 . S
H1137 C1115 0.950 . S
C1138 C1139 1.349 . S
C1138 C1140 1.327 . S
C1138 H1163 0.950 . S
C1139 C1138 1.349 . S
C1139 C1155 1.349 . S
C1140 C1138 1.327 . S
C1140 C1159 1.429 . S
C1140 H1164 0.950 . S
C1141 C1158 1.574 . S
C1141 C1160 1.368 . S
C1141 H1165 0.949 . S
H1142 C1146 0.949 . S
C1143 C1144 1.349 . S
C1143 C1145 1.327 . S
C1143 H1166 0.950 . S
C1144 C1143 1.349 . S
C1144 C1156 1.349 . S
C1145 C1143 1.327 . S
C1145 C1161 1.429 . S
C1145 H1167 0.950 . S
C1146 H1142 0.949 . S
C1146 C1154 1.574 . S
C1146 C1162 1.368 . S
H1147 C1155 0.950 . S
H1148 C1153 0.950 . S
H1149 C1154 0.949 . S
H1150 C1156 0.950 . S
H1151 C1157 0.950 . S
H1152 C1158 0.949 . S
C1153 H1148 0.950 . S
C1153 C1155 1.327 . S
C1153 C1159 1.429 . S
C1154 C1146 1.574 . S
C1154 H1149 0.949 . S
C1154 C1160 1.368 . S
C1155 C1139 1.349 . S
C1155 H1147 0.950 . S
C1155 C1153 1.327 . S
C1156 C1144 1.349 . S
C1156 H1150 0.950 . S
C1156 C1157 1.327 . S
C1157 H1151 0.950 . S
C1157 C1156 1.327 . S
C1157 C1161 1.429 . S
C1158 C1141 1.574 . S
C1158 H1152 0.949 . S
C1158 C1162 1.368 . S
C1159 C1140 1.429 . S
C1159 C1153 1.429 . S
C1159 C1160 1.523 . S
C1160 C1141 1.368 . S
C1160 C1154 1.368 . S
C1160 C1159 1.523 . S
C1161 C1145 1.429 . S
C1161 C1157 1.429 . S
C1161 C1162 1.523 . S
C1162 C1146 1.368 . S
C1162 C1158 1.368 . S
C1162 C1161 1.523 . S
H1163 C1138 0.950 . S
H1164 C1140 0.950 . S
H1165 C1141 0.949 . S
H1166 C1143 0.950 . S
H1167 C1145 0.950 . S
C1168 C1169 1.349 . S
C1168 C1170 1.327 . S
C1168 H1193 0.950 . S
C1169 C1168 1.349 . S
C1169 C1185 1.349 . S
C1170 C1168 1.327 . S
C1170 C1189 1.429 . S
C1170 H1194 0.950 . S
C1171 C1188 1.574 . S
C1171 C1190 1.368 . S
C1171 H1195 0.949 . S
H1172 C1176 0.949 . S
C1173 C1174 1.349 . S
C1173 C1175 1.327 . S
C1173 H1196 0.950 . S
C1174 C1173 1.349 . S
C1174 C1186 1.349 . S
C1175 C1173 1.327 . S
C1175 C1191 1.429 . S
C1175 H1197 0.950 . S
C1176 H1172 0.949 . S
C1176 C1184 1.574 . S
C1176 C1192 1.368 . S
H1177 C1185 0.950 . S
H1178 C1183 0.950 . S
H1179 C1184 0.949 . S
H1180 C1186 0.950 . S
H1181 C1187 0.950 . S
H1182 C1188 0.949 . S
C1183 H1178 0.950 . S
C1183 C1185 1.327 . S
C1183 C1189 1.429 . S
C1184 C1176 1.574 . S
C1184 H1179 0.949 . S
C1184 C1190 1.368 . S
C1185 C1169 1.349 . S
C1185 H1177 0.950 . S
C1185 C1183 1.327 . S
C1186 C1174 1.349 . S
C1186 H1180 0.950 . S
C1186 C1187 1.327 . S
C1187 H1181 0.950 . S
C1187 C1186 1.327 . S
C1187 C1191 1.429 . S
C1188 C1171 1.574 . S
C1188 H1182 0.949 . S
C1188 C1192 1.368 . S
C1189 C1170 1.429 . S
C1189 C1183 1.429 . S
C1189 C1190 1.523 . S
C1190 C1171 1.368 . S
C1190 C1184 1.368 . S
C1190 C1189 1.523 . S
C1191 C1175 1.429 . S
C1191 C1187 1.429 . S
C1191 C1192 1.523 . S
C1192 C1176 1.368 . S
C1192 C1188 1.368 . S
C1192 C1191 1.523 . S
H1193 C1168 0.950 . S
H1194 C1170 0.950 . S
H1195 C1171 0.949 . S
H1196 C1173 0.950 . S
H1197 C1175 0.950 . S
C1198 C1199 1.349 . S
C1198 C1200 1.327 . S
C1198 H1223 0.950 . S
C1199 C1198 1.349 . S
C1199 C1215 1.349 . S
C1200 C1198 1.327 . S
C1200 C1219 1.429 . S
C1200 H1224 0.950 . S
C1201 C1218 1.574 . S
C1201 C1220 1.368 . S
C1201 H1225 0.949 . S
H1202 C1206 0.949 . S
C1203 C1204 1.349 . S
C1203 C1205 1.327 . S
C1203 H1226 0.950 . S
C1204 C1203 1.349 . S
C1204 C1216 1.349 . S
C1205 C1203 1.327 . S
C1205 C1221 1.429 . S
C1205 H1227 0.950 . S
C1206 H1202 0.949 . S
C1206 C1214 1.574 . S
C1206 C1222 1.368 . S
H1207 C1215 0.950 . S
H1208 C1213 0.950 . S
H1209 C1214 0.949 . S
H1210 C1216 0.950 . S
H1211 C1217 0.950 . S
H1212 C1218 0.949 . S
C1213 H1208 0.950 . S
C1213 C1215 1.327 . S
C1213 C1219 1.429 . S
C1214 C1206 1.574 . S
C1214 H1209 0.949 . S
C1214 C1220 1.368 . S
C1215 C1199 1.349 . S
C1215 H1207 0.950 . S
C1215 C1213 1.327 . S
C1216 C1204 1.349 . S
C1216 H1210 0.950 . S
C1216 C1217 1.327 . S
C1217 H1211 0.950 . S
C1217 C1216 1.327 . S
C1217 C1221 1.429 . S
C1218 C1201 1.574 . S
C1218 H1212 0.949 . S
C1218 C1222 1.368 . S
C1219 C1200 1.429 . S
C1219 C1213 1.429 . S
C1219 C1220 1.523 . S
C1220 C1201 1.368 . S
C1220 C1214 1.368 . S
C1220 C1219 1.523 . S
C1221 C1205 1.429 . S
C1221 C1217 1.429 . S
C1221 C1222 1.523 . S
C1222 C1206 1.368 . S
C1222 C1218 1.368 . S
C1222 C1221 1.523 . S
H1223 C1198 0.950 . S
H1224 C1200 0.950 . S
H1225 C1201 0.949 . S
H1226 C1203 0.950 . S
H1227 C1205 0.950 . S
C1228 C1229 1.349 . S
C1228 C1230 1.327 . S
C1228 H1253 0.950 . S
C1229 C1228 1.349 . S
C1229 C1245 1.349 . S
C1230 C1228 1.327 . S
C1230 C1249 1.429 . S
C1230 H1254 0.950 . S
C1231 C1248 1.574 . S
C1231 C1250 1.368 . S
C1231 H1255 0.949 . S
H1232 C1236 0.949 . S
C1233 C1234 1.349 . S
C1233 C1235 1.327 . S
C1233 H1256 0.950 . S
C1234 C1233 1.349 . S
C1234 C1246 1.349 . S
C1235 C1233 1.327 . S
C1235 C1251 1.429 . S
C1235 H1257 0.950 . S
C1236 H1232 0.949 . S
C1236 C1244 1.574 . S
C1236 C1252 1.368 . S
H1237 C1245 0.950 . S
H1238 C1243 0.950 . S
H1239 C1244 0.949 . S
H1240 C1246 0.950 . S
H1241 C1247 0.950 . S
H1242 C1248 0.949 . S
C1243 H1238 0.950 . S
C1243 C1245 1.327 . S
C1243 C1249 1.429 . S
C1244 C1236 1.574 . S
C1244 H1239 0.949 . S
C1244 C1250 1.368 . S
C1245 C1229 1.349 . S
C1245 H1237 0.950 . S
C1245 C1243 1.327 . S
C1246 C1234 1.349 . S
C1246 H1240 0.950 . S
C1246 C1247 1.327 . S
C1247 H1241 0.950 . S
C1247 C1246 1.327 . S
C1247 C1251 1.429 . S
C1248 C1231 1.574 . S
C1248 H1242 0.949 . S
C1248 C1252 1.368 . S
C1249 C1230 1.429 . S
C1249 C1243 1.429 . S
C1249 C1250 1.523 . S
C1250 C1231 1.368 . S
C1250 C1244 1.368 . S
C1250 C1249 1.523 . S
C1251 C1235 1.429 . S
C1251 C1247 1.429 . S
C1251 C1252 1.523 . S
C1252 C1236 1.368 . S
C1252 C1248 1.368 . S
C1252 C1251 1.523 . S
H1253 C1228 0.950 . S
H1254 C1230 0.950 . S
H1255 C1231 0.949 . S
H1256 C1233 0.950 . S
H1257 C1235 0.950 . S
C1258 C1259 1.349 . S
C1258 C1260 1.327 . S
C1258 H1283 0.950 . S
C1259 C1258 1.349 . S
C1259 C1275 1.349 . S
C1260 C1258 1.327 . S
C1260 C1279 1.429 . S
C1260 H1284 0.950 . S
C1261 C1278 1.574 . S
C1261 C1280 1.368 . S
C1261 H1285 0.949 . S
H1262 C1266 0.949 . S
C1263 C1264 1.349 . S
C1263 C1265 1.327 . S
C1263 H1286 0.950 . S
C1264 C1263 1.349 . S
C1264 C1276 1.349 . S
C1265 C1263 1.327 . S
C1265 C1281 1.429 . S
C1265 H1287 0.950 . S
C1266 H1262 0.949 . S
C1266 C1274 1.574 . S
C1266 C1282 1.368 . S
H1267 C1275 0.950 . S
H1268 C1273 0.950 . S
H1269 C1274 0.949 . S
H1270 C1276 0.950 . S
H1271 C1277 0.950 . S
H1272 C1278 0.949 . S
C1273 H1268 0.950 . S
C1273 C1275 1.327 . S
C1273 C1279 1.429 . S
C1274 C1266 1.574 . S
C1274 H1269 0.949 . S
C1274 C1280 1.368 . S
C1275 C1259 1.349 . S
C1275 H1267 0.950 . S
C1275 C1273 1.327 . S
C1276 C1264 1.349 . S
C1276 H1270 0.950 . S
C1276 C1277 1.327 . S
C1277 H1271 0.950 . S
C1277 C1276 1.327 . S
C1277 C1281 1.429 . S
C1278 C1261 1.574 . S
C1278 H1272 0.949 . S
C1278 C1282 1.368 . S
C1279 C1260 1.429 . S
C1279 C1273 1.429 . S
C1279 C1280 1.523 . S
C1280 C1261 1.368 . S
C1280 C1274 1.368 . S
C1280 C1279 1.523 . S
C1281 C1265 1.429 . S
C1281 C1277 1.429 . S
C1281 C1282 1.523 . S
C1282 C1266 1.368 . S
C1282 C1278 1.368 . S
C1282 C1281 1.523 . S
H1283 C1258 0.950 . S
H1284 C1260 0.950 . S
H1285 C1261 0.949 . S
H1286 C1263 0.950 . S
H1287 C1265 0.950 . S
C1288 C1289 1.349 . S
C1288 C1290 1.327 . S
C1288 H1313 0.950 . S
C1289 C1288 1.349 . S
C1289 C1305 1.349 . S
C1290 C1288 1.327 . S
C1290 C1309 1.429 . S
C1290 H1314 0.950 . S
C1291 C1308 1.574 . S
C1291 C1310 1.368 . S
C1291 H1315 0.949 . S
H1292 C1296 0.949 . S
C1293 C1294 1.349 . S
C1293 C1295 1.327 . S
C1293 H1316 0.950 . S
C1294 C1293 1.349 . S
C1294 C1306 1.349 . S
C1295 C1293 1.327 . S
C1295 C1311 1.429 . S
C1295 H1317 0.950 . S
C1296 H1292 0.949 . S
C1296 C1304 1.574 . S
C1296 C1312 1.368 . S
H1297 C1305 0.950 . S
H1298 C1303 0.950 . S
H1299 C1304 0.949 . S
H1300 C1306 0.950 . S
H1301 C1307 0.950 . S
H1302 C1308 0.949 . S
C1303 H1298 0.950 . S
C1303 C1305 1.327 . S
C1303 C1309 1.429 . S
C1304 C1296 1.574 . S
C1304 H1299 0.949 . S
C1304 C1310 1.368 . S
C1305 C1289 1.349 . S
C1305 H1297 0.950 . S
C1305 C1303 1.327 . S
C1306 C1294 1.349 . S
C1306 H1300 0.950 . S
C1306 C1307 1.327 . S
C1307 H1301 0.950 . S
C1307 C1306 1.327 . S
C1307 C1311 1.429 . S
C1308 C1291 1.574 . S
C1308 H1302 0.949 . S
C1308 C1312 1.368 . S
C1309 C1290 1.429 . S
C1309 C1303 1.429 . S
C1309 C1310 1.523 . S
C1310 C1291 1.368 . S
C1310 C1304 1.368 . S
C1310 C1309 1.523 . S
C1311 C1295 1.429 . S
C1311 C1307 1.429 . S
C1311 C1312 1.523 . S
C1312 C1296 1.368 . S
C1312 C1308 1.368 . S
C1312 C1311 1.523 . S
H1313 C1288 0.950 . S
H1314 C1290 0.950 . S
H1315 C1291 0.949 . S
H1316 C1293 0.950 . S
H1317 C1295 0.950 . S
C1318 C1319 1.349 . S
C1318 C1320 1.327 . S
C1318 H1343 0.950 . S
C1319 C1318 1.349 . S
C1319 C1335 1.349 . S
C1320 C1318 1.327 . S
C1320 C1339 1.429 . S
C1320 H1344 0.950 . S
C1321 C1338 1.574 . S
C1321 C1340 1.368 . S
C1321 H1345 0.949 . S
H1322 C1326 0.949 . S
C1323 C1324 1.349 . S
C1323 C1325 1.327 . S
C1323 H1346 0.950 . S
C1324 C1323 1.349 . S
C1324 C1336 1.349 . S
C1325 C1323 1.327 . S
C1325 C1341 1.429 . S
C1325 H1347 0.950 . S
C1326 H1322 0.949 . S
C1326 C1334 1.574 . S
C1326 C1342 1.368 . S
H1327 C1335 0.950 . S
H1328 C1333 0.950 . S
H1329 C1334 0.949 . S
H1330 C1336 0.950 . S
H1331 C1337 0.950 . S
H1332 C1338 0.949 . S
C1333 H1328 0.950 . S
C1333 C1335 1.327 . S
C1333 C1339 1.429 . S
C1334 C1326 1.574 . S
C1334 H1329 0.949 . S
C1334 C1340 1.368 . S
C1335 C1319 1.349 . S
C1335 H1327 0.950 . S
C1335 C1333 1.327 . S
C1336 C1324 1.349 . S
C1336 H1330 0.950 . S
C1336 C1337 1.327 . S
C1337 H1331 0.950 . S
C1337 C1336 1.327 . S
C1337 C1341 1.429 . S
C1338 C1321 1.574 . S
C1338 H1332 0.949 . S
C1338 C1342 1.368 . S
C1339 C1320 1.429 . S
C1339 C1333 1.429 . S
C1339 C1340 1.523 . S
C1340 C1321 1.368 . S
C1340 C1334 1.368 . S
C1340 C1339 1.523 . S
C1341 C1325 1.429 . S
C1341 C1337 1.429 . S
C1341 C1342 1.523 . S
C1342 C1326 1.368 . S
C1342 C1338 1.368 . S
C1342 C1341 1.523 . S
H1343 C1318 0.950 . S
H1344 C1320 0.950 . S
H1345 C1321 0.949 . S
H1346 C1323 0.950 . S
H1347 C1325 0.950 . S
C1348 C1349 1.349 . S
C1348 C1350 1.327 . S
C1348 H1373 0.950 . S
C1349 C1348 1.349 . S
C1349 C1365 1.349 . S
C1350 C1348 1.327 . S
C1350 C1369 1.429 . S
C1350 H1374 0.950 . S
C1351 C1368 1.574 . S
C1351 C1370 1.368 . S
C1351 H1375 0.949 . S
H1352 C1356 0.949 . S
C1353 C1354 1.349 . S
C1353 C1355 1.327 . S
C1353 H1376 0.950 . S
C1354 C1353 1.349 . S
C1354 C1366 1.349 . S
C1355 C1353 1.327 . S
C1355 C1371 1.429 . S
C1355 H1377 0.950 . S
C1356 H1352 0.949 . S
C1356 C1364 1.574 . S
C1356 C1372 1.368 . S
H1357 C1365 0.950 . S
H1358 C1363 0.950 . S
H1359 C1364 0.949 . S
H1360 C1366 0.950 . S
H1361 C1367 0.950 . S
H1362 C1368 0.949 . S
C1363 H1358 0.950 . S
C1363 C1365 1.327 . S
C1363 C1369 1.429 . S
C1364 C1356 1.574 . S
C1364 H1359 0.949 . S
C1364 C1370 1.368 . S
C1365 C1349 1.349 . S
C1365 H1357 0.950 . S
C1365 C1363 1.327 . S
C1366 C1354 1.349 . S
C1366 H1360 0.950 . S
C1366 C1367 1.327 . S
C1367 H1361 0.950 . S
C1367 C1366 1.327 . S
C1367 C1371 1.429 . S
C1368 C1351 1.574 . S
C1368 H1362 0.949 . S
C1368 C1372 1.368 . S
C1369 C1350 1.429 . S
C1369 C1363 1.429 . S
C1369 C1370 1.523 . S
C1370 C1351 1.368 . S
C1370 C1364 1.368 . S
C1370 C1369 1.523 . S
C1371 C1355 1.429 . S
C1371 C1367 1.429 . S
C1371 C1372 1.523 . S
C1372 C1356 1.368 . S
C1372 C1368 1.368 . S
C1372 C1371 1.523 . S
H1373 C1348 0.950 . S
H1374 C1350 0.950 . S
H1375 C1351 0.949 . S
H1376 C1353 0.950 . S
H1377 C1355 0.950 . S
C1378 C1379 1.349 . S
C1378 C1380 1.327 . S
C1378 H1403 0.950 . S
C1379 C1378 1.349 . S
C1379 C1395 1.349 . S
C1380 C1378 1.327 . S
C1380 C1399 1.429 . S
C1380 H1404 0.950 . S
C1381 C1398 1.574 . S
C1381 C1400 1.368 . S
C1381 H1405 0.949 . S
H1382 C1386 0.949 . S
C1383 C1384 1.349 . S
C1383 C1385 1.327 . S
C1383 H1406 0.950 . S
C1384 C1383 1.349 . S
C1384 C1396 1.349 . S
C1385 C1383 1.327 . S
C1385 C1401 1.429 . S
C1385 H1407 0.950 . S
C1386 H1382 0.949 . S
C1386 C1394 1.574 . S
C1386 C1402 1.368 . S
H1387 C1395 0.950 . S
H1388 C1393 0.950 . S
H1389 C1394 0.949 . S
H1390 C1396 0.950 . S
H1391 C1397 0.950 . S
H1392 C1398 0.949 . S
C1393 H1388 0.950 . S
C1393 C1395 1.327 . S
C1393 C1399 1.429 . S
C1394 C1386 1.574 . S
C1394 H1389 0.949 . S
C1394 C1400 1.368 . S
C1395 C1379 1.349 . S
C1395 H1387 0.950 . S
C1395 C1393 1.327 . S
C1396 C1384 1.349 . S
C1396 H1390 0.950 . S
C1396 C1397 1.327 . S
C1397 H1391 0.950 . S
C1397 C1396 1.327 . S
C1397 C1401 1.429 . S
C1398 C1381 1.574 . S
C1398 H1392 0.949 . S
C1398 C1402 1.368 . S
C1399 C1380 1.429 . S
C1399 C1393 1.429 . S
C1399 C1400 1.523 . S
C1400 C1381 1.368 . S
C1400 C1394 1.368 . S
C1400 C1399 1.523 . S
C1401 C1385 1.429 . S
C1401 C1397 1.429 . S
C1401 C1402 1.523 . S
C1402 C1386 1.368 . S
C1402 C1398 1.368 . S
C1402 C1401 1.523 . S
H1403 C1378 0.950 . S
H1404 C1380 0.950 . S
H1405 C1381 0.949 . S
H1406 C1383 0.950 . S
H1407 C1385 0.950 . S
C1408 C1409 1.349 . S
C1408 C1410 1.327 . S
C1408 H1433 0.950 . S
C1409 C1408 1.349 . S
C1409 C1425 1.349 . S
C1410 C1408 1.327 . S
C1410 C1429 1.429 . S
C1410 H1434 0.950 . S
C1411 C1428 1.574 . S
C1411 C1430 1.368 . S
C1411 H1435 0.949 . S
H1412 C1416 0.949 . S
C1413 C1414 1.349 . S
C1413 C1415 1.327 . S
C1413 H1436 0.950 . S
C1414 C1413 1.349 . S
C1414 C1426 1.349 . S
C1415 C1413 1.327 . S
C1415 C1431 1.429 . S
C1415 H1437 0.950 . S
C1416 H1412 0.949 . S
C1416 C1424 1.574 . S
C1416 C1432 1.368 . S
H1417 C1425 0.950 . S
H1418 C1423 0.950 . S
H1419 C1424 0.949 . S
H1420 C1426 0.950 . S
H1421 C1427 0.950 . S
H1422 C1428 0.949 . S
C1423 H1418 0.950 . S
C1423 C1425 1.327 . S
C1423 C1429 1.429 . S
C1424 C1416 1.574 . S
C1424 H1419 0.949 . S
C1424 C1430 1.368 . S
C1425 C1409 1.349 . S
C1425 H1417 0.950 . S
C1425 C1423 1.327 . S
C1426 C1414 1.349 . S
C1426 H1420 0.950 . S
C1426 C1427 1.327 . S
C1427 H1421 0.950 . S
C1427 C1426 1.327 . S
C1427 C1431 1.429 . S
C1428 C1411 1.574 . S
C1428 H1422 0.949 . S
C1428 C1432 1.368 . S
C1429 C1410 1.429 . S
C1429 C1423 1.429 . S
C1429 C1430 1.523 . S
C1430 C1411 1.368 . S
C1430 C1424 1.368 . S
C1430 C1429 1.523 . S
C1431 C1415 1.429 . S
C1431 C1427 1.429 . S
C1431 C1432 1.523 . S
C1432 C1416 1.368 . S
C1432 C1428 1.368 . S
C1432 C1431 1.523 . S
H1433 C1408 0.950 . S
H1434 C1410 0.950 . S
H1435 C1411 0.949 . S
H1436 C1413 0.950 . S
H1437 C1415 0.950 . S
C1438 C1439 1.349 . S
C1438 C1440 1.327 . S
C1438 H1463 0.950 . S
C1439 C1438 1.349 . S
C1439 C1455 1.349 1_455 S
C1440 C1438 1.327 . S
C1440 C1459 1.429 . S
C1440 H1464 0.950 . S
C1441 C1458 1.574 . S
C1441 C1460 1.368 1_645 S
C1441 H1465 0.949 . S
H1442 C1446 0.949 . S
C1443 C1444 1.349 . S
C1443 C1445 1.327 . S
C1443 H1466 0.950 . S
C1444 C1443 1.349 . S
C1444 C1456 1.349 1_655 S
C1445 C1443 1.327 . S
C1445 C1461 1.429 . S
C1445 H1467 0.950 . S
C1446 H1442 0.949 . S
C1446 C1454 1.574 . S
C1446 C1462 1.368 1_465 S
H1447 C1455 0.950 . S
H1448 C1453 0.950 1_545 S
H1449 C1454 0.949 . S
H1450 C1456 0.950 . S
H1451 C1457 0.950 1_565 S
H1452 C1458 0.949 . S
C1453 H1448 0.950 1_565 S
C1453 C1455 1.327 . S
C1453 C1459 1.429 1_655 S
C1454 C1446 1.574 . S
C1454 H1449 0.949 . S
C1454 C1460 1.368 . S
C1455 C1439 1.349 1_655 S
C1455 H1447 0.950 . S
C1455 C1453 1.327 . S
C1456 C1444 1.349 1_455 S
C1456 H1450 0.950 . S
C1456 C1457 1.327 . S
C1457 H1451 0.950 1_545 S
C1457 C1456 1.327 . S
C1457 C1461 1.429 1_455 S
C1458 C1441 1.574 . S
C1458 H1452 0.949 . S
C1458 C1462 1.368 . S
C1459 C1440 1.429 . S
C1459 C1453 1.429 1_455 S
C1459 C1460 1.523 . S
C1460 C1441 1.368 1_465 S
C1460 C1454 1.368 . S
C1460 C1459 1.523 . S
C1461 C1445 1.429 . S
C1461 C1457 1.429 1_655 S
C1461 C1462 1.523 . S
C1462 C1446 1.368 1_645 S
C1462 C1458 1.368 . S
C1462 C1461 1.523 . S
H1463 C1438 0.950 . S
H1464 C1440 0.950 . S
H1465 C1441 0.949 . S
H1466 C1443 0.950 . S
H1467 C1445 0.950 . S
C1468 C1469 1.349 . S
C1468 C1470 1.327 . S
C1468 H1493 0.950 . S
C1469 C1468 1.349 . S
C1469 C1485 1.349 . S
C1470 C1468 1.327 . S
C1470 C1489 1.429 . S
C1470 H1494 0.950 . S
C1471 C1488 1.574 . S
C1471 C1490 1.368 . S
C1471 H1495 0.949 . S
H1472 C1476 0.949 . S
C1473 C1474 1.349 . S
C1473 C1475 1.327 . S
C1473 H1496 0.950 . S
C1474 C1473 1.349 . S
C1474 C1486 1.349 . S
C1475 C1473 1.327 . S
C1475 C1491 1.429 . S
C1475 H1497 0.950 . S
C1476 H1472 0.949 . S
C1476 C1484 1.574 . S
C1476 C1492 1.368 . S
H1477 C1485 0.950 . S
H1478 C1483 0.950 . S
H1479 C1484 0.949 . S
H1480 C1486 0.950 . S
H1481 C1487 0.950 . S
H1482 C1488 0.949 . S
C1483 H1478 0.950 . S
C1483 C1485 1.327 . S
C1483 C1489 1.429 . S
C1484 C1476 1.574 . S
C1484 H1479 0.949 . S
C1484 C1490 1.368 . S
C1485 C1469 1.349 . S
C1485 H1477 0.950 . S
C1485 C1483 1.327 . S
C1486 C1474 1.349 . S
C1486 H1480 0.950 . S
C1486 C1487 1.327 . S
C1487 H1481 0.950 . S
C1487 C1486 1.327 . S
C1487 C1491 1.429 . S
C1488 C1471 1.574 . S
C1488 H1482 0.949 . S
C1488 C1492 1.368 . S
C1489 C1470 1.429 . S
C1489 C1483 1.429 . S
C1489 C1490 1.523 . S
C1490 C1471 1.368 . S
C1490 C1484 1.368 . S
C1490 C1489 1.523 . S
C1491 C1475 1.429 . S
C1491 C1487 1.429 . S
C1491 C1492 1.523 . S
C1492 C1476 1.368 . S
C1492 C1488 1.368 . S
C1492 C1491 1.523 . S
H1493 C1468 0.950 . S
H1494 C1470 0.950 . S
H1495 C1471 0.949 . S
H1496 C1473 0.950 . S
H1497 C1475 0.950 . S
C1498 C1499 1.349 . S
C1498 C1500 1.327 . S
C1498 H1523 0.950 . S
C1499 C1498 1.349 . S
C1499 C1515 1.349 1_545 S
C1500 C1498 1.327 . S
C1500 C1519 1.429 . S
C1500 H1524 0.950 . S
C1501 C1518 1.574 1_554 S
C1501 C1520 1.368 1_565 S
C1501 H1525 0.949 . S
H1502 C1506 0.949 . S
C1503 C1504 1.349 . S
C1503 C1505 1.327 . S
C1503 H1526 0.950 . S
C1504 C1503 1.349 . S
C1504 C1516 1.349 1_565 S
C1505 C1503 1.327 . S
C1505 C1521 1.429 . S
C1505 H1527 0.950 . S
C1506 H1502 0.949 . S
C1506 C1514 1.574 1_556 S
C1506 C1522 1.368 1_545 S
H1507 C1515 0.950 . S
H1508 C1513 0.950 . S
H1509 C1514 0.949 . S
H1510 C1516 0.950 . S
H1511 C1517 0.950 . S
H1512 C1518 0.949 . S
C1513 H1508 0.950 . S
C1513 C1515 1.327 . S
C1513 C1519 1.429 1_565 S
C1514 C1506 1.574 1_554 S
C1514 H1509 0.949 . S
C1514 C1520 1.368 . S
C1515 C1499 1.349 1_565 S
C1515 H1507 0.950 . S
C1515 C1513 1.327 . S
C1516 C1504 1.349 1_545 S
C1516 H1510 0.950 . S
C1516 C1517 1.327 . S
C1517 H1511 0.950 . S
C1517 C1516 1.327 . S
C1517 C1521 1.429 1_545 S
C1518 C1501 1.574 1_556 S
C1518 H1512 0.949 . S
C1518 C1522 1.368 . S
C1519 C1500 1.429 . S
C1519 C1513 1.429 1_545 S
C1519 C1520 1.523 . S
C1520 C1501 1.368 1_545 S
C1520 C1514 1.368 . S
C1520 C1519 1.523 . S
C1521 C1505 1.429 . S
C1521 C1517 1.429 1_565 S
C1521 C1522 1.523 . S
C1522 C1506 1.368 1_565 S
C1522 C1518 1.368 . S
C1522 C1521 1.523 . S
H1523 C1498 0.950 . S
H1524 C1500 0.950 . S
H1525 C1501 0.949 . S
H1526 C1503 0.950 . S
H1527 C1505 0.950 . S
C1528 C1529 1.349 . S
C1528 C1530 1.327 . S
C1528 H1553 0.950 . S
C1529 C1528 1.349 . S
C1529 C1545 1.349 . S
C1530 C1528 1.327 . S
C1530 C1549 1.429 . S
C1530 H1554 0.950 . S
C1531 C1548 1.574 . S
C1531 C1550 1.368 . S
C1531 H1555 0.949 . S
H1532 C1536 0.949 . S
C1533 C1534 1.349 . S
C1533 C1535 1.327 . S
C1533 H1556 0.950 . S
C1534 C1533 1.349 . S
C1534 C1546 1.349 . S
C1535 C1533 1.327 . S
C1535 C1551 1.429 . S
C1535 H1557 0.950 . S
C1536 H1532 0.949 . S
C1536 C1544 1.574 . S
C1536 C1552 1.368 . S
H1537 C1545 0.950 . S
H1538 C1543 0.950 . S
H1539 C1544 0.949 . S
H1540 C1546 0.950 . S
H1541 C1547 0.950 . S
H1542 C1548 0.949 . S
C1543 H1538 0.950 . S
C1543 C1545 1.327 . S
C1543 C1549 1.429 . S
C1544 C1536 1.574 . S
C1544 H1539 0.949 . S
C1544 C1550 1.368 . S
C1545 C1529 1.349 . S
C1545 H1537 0.950 . S
C1545 C1543 1.327 . S
C1546 C1534 1.349 . S
C1546 H1540 0.950 . S
C1546 C1547 1.327 . S
C1547 H1541 0.950 . S
C1547 C1546 1.327 . S
C1547 C1551 1.429 . S
C1548 C1531 1.574 . S
C1548 H1542 0.949 . S
C1548 C1552 1.368 . S
C1549 C1530 1.429 . S
C1549 C1543 1.429 . S
C1549 C1550 1.523 . S
C1550 C1531 1.368 . S
C1550 C1544 1.368 . S
C1550 C1549 1.523 . S
C1551 C1535 1.429 . S
C1551 C1547 1.429 . S
C1551 C1552 1.523 . S
C1552 C1536 1.368 . S
C1552 C1548 1.368 . S
C1552 C1551 1.523 . S
H1553 C1528 0.950 . S
H1554 C1530 0.950 . S
H1555 C1531 0.949 . S
H1556 C1533 0.950 . S
H1557 C1535 0.950 . S
C1558 C1559 1.349 . S
C1558 C1560 1.327 . S
C1558 H1583 0.950 . S
C1559 C1558 1.349 . S
C1559 C1575 1.349 1_565 S
C1560 C1558 1.327 . S
C1560 C1579 1.429 . S
C1560 H1584 0.950 . S
C1561 C1578 1.574 . S
C1561 C1580 1.368 1_545 S
C1561 H1585 0.949 . S
H1562 C1566 0.949 . S
C1563 C1564 1.349 . S
C1563 C1565 1.327 . S
C1563 H1586 0.950 . S
C1564 C1563 1.349 . S
C1564 C1576 1.349 1_545 S
C1565 C1563 1.327 . S
C1565 C1581 1.429 . S
C1565 H1587 0.950 . S
C1566 H1562 0.949 . S
C1566 C1574 1.574 . S
C1566 C1582 1.368 1_565 S
H1567 C1575 0.950 . S
H1568 C1573 0.950 . S
H1569 C1574 0.949 . S
H1570 C1576 0.950 . S
H1571 C1577 0.950 . S
H1572 C1578 0.949 . S
C1573 H1568 0.950 . S
C1573 C1575 1.327 . S
C1573 C1579 1.429 1_545 S
C1574 C1566 1.574 . S
C1574 H1569 0.949 . S
C1574 C1580 1.368 . S
C1575 C1559 1.349 1_545 S
C1575 H1567 0.950 . S
C1575 C1573 1.327 . S
C1576 C1564 1.349 1_565 S
C1576 H1570 0.950 . S
C1576 C1577 1.327 . S
C1577 H1571 0.950 . S
C1577 C1576 1.327 . S
C1577 C1581 1.429 1_565 S
C1578 C1561 1.574 . S
C1578 H1572 0.949 . S
C1578 C1582 1.368 . S
C1579 C1560 1.429 . S
C1579 C1573 1.429 1_565 S
C1579 C1580 1.523 . S
C1580 C1561 1.368 1_565 S
C1580 C1574 1.368 . S
C1580 C1579 1.523 . S
C1581 C1565 1.429 . S
C1581 C1577 1.429 1_545 S
C1581 C1582 1.523 . S
C1582 C1566 1.368 1_545 S
C1582 C1578 1.368 . S
C1582 C1581 1.523 . S
H1583 C1558 0.950 . S
H1584 C1560 0.950 . S
H1585 C1561 0.949 . S
H1586 C1563 0.950 . S
H1587 C1565 0.950 . S
C1588 C1589 1.349 . S
C1588 C1590 1.327 . S
C1588 H1613 0.950 . S
C1589 C1588 1.349 . S
C1589 C1605 1.349 . S
C1590 C1588 1.327 . S
C1590 C1609 1.429 . S
C1590 H1614 0.950 . S
C1591 C1608 1.574 . S
C1591 C1610 1.368 . S
C1591 H1615 0.949 . S
H1592 C1596 0.949 . S
C1593 C1594 1.349 . S
C1593 C1595 1.327 . S
C1593 H1616 0.950 . S
C1594 C1593 1.349 . S
C1594 C1606 1.349 . S
C1595 C1593 1.327 . S
C1595 C1611 1.429 . S
C1595 H1617 0.950 . S
C1596 H1592 0.949 . S
C1596 C1604 1.574 . S
C1596 C1612 1.368 . S
H1597 C1605 0.950 . S
H1598 C1603 0.950 . S
H1599 C1604 0.949 . S
H1600 C1606 0.950 . S
H1601 C1607 0.950 . S
H1602 C1608 0.949 . S
C1603 H1598 0.950 . S
C1603 C1605 1.327 . S
C1603 C1609 1.429 . S
C1604 C1596 1.574 . S
C1604 H1599 0.949 . S
C1604 C1610 1.368 . S
C1605 C1589 1.349 . S
C1605 H1597 0.950 . S
C1605 C1603 1.327 . S
C1606 C1594 1.349 . S
C1606 H1600 0.950 . S
C1606 C1607 1.327 . S
C1607 H1601 0.950 . S
C1607 C1606 1.327 . S
C1607 C1611 1.429 . S
C1608 C1591 1.574 . S
C1608 H1602 0.949 . S
C1608 C1612 1.368 . S
C1609 C1590 1.429 . S
C1609 C1603 1.429 . S
C1609 C1610 1.523 . S
C1610 C1591 1.368 . S
C1610 C1604 1.368 . S
C1610 C1609 1.523 . S
C1611 C1595 1.429 . S
C1611 C1607 1.429 . S
C1611 C1612 1.523 . S
C1612 C1596 1.368 . S
C1612 C1608 1.368 . S
C1612 C1611 1.523 . S
H1613 C1588 0.950 . S
H1614 C1590 0.950 . S
H1615 C1591 0.949 . S
H1616 C1593 0.950 . S
H1617 C1595 0.950 . S
C1618 C1619 1.349 1_565 S
C1618 C1620 1.327 . S
C1618 H1643 0.950 . S
C1619 C1618 1.349 1_545 S
C1619 C1635 1.349 . S
C1620 C1618 1.327 . S
C1620 C1639 1.429 1_565 S
C1620 H1644 0.950 . S
C1621 C1638 1.574 1_556 S
C1621 C1640 1.368 1_655 S
C1621 H1645 0.949 . S
H1622 C1626 0.949 . S
C1623 C1624 1.349 1_545 S
C1623 C1625 1.327 . S
C1623 H1646 0.950 . S
C1624 C1623 1.349 1_565 S
C1624 C1636 1.349 . S
C1625 C1623 1.327 . S
C1625 C1641 1.429 1_545 S
C1625 H1647 0.950 . S
C1626 H1622 0.949 . S
C1626 C1634 1.574 1_554 S
C1626 C1642 1.368 1_455 S
H1627 C1635 0.950 1_655 S
H1628 C1633 0.971 . S
H1629 C1634 0.949 . S
H1630 C1636 0.950 1_455 S
H1631 C1637 0.971 . S
H1632 C1638 0.949 . S
C1633 H1628 0.971 . S
C1633 C1635 1.320 1_655 S
C1633 C1639 1.415 1_655 S
C1634 C1626 1.574 1_556 S
C1634 H1629 0.949 . S
C1634 C1640 1.368 1_565 S
C1635 C1619 1.349 . S
C1635 H1627 0.950 1_455 S
C1635 C1633 1.320 1_455 S
C1636 C1624 1.349 . S
C1636 H1630 0.950 1_655 S
C1636 C1637 1.320 1_655 S
C1637 H1631 0.971 . S
C1637 C1636 1.320 1_455 S
C1637 C1641 1.415 1_455 S
C1638 C1621 1.574 1_554 S
C1638 H1632 0.949 . S
C1638 C1642 1.368 1_545 S
C1639 C1620 1.429 1_545 S
C1639 C1633 1.415 1_455 S
C1639 C1640 1.523 . S
C1640 C1621 1.368 1_455 S
C1640 C1634 1.368 1_545 S
C1640 C1639 1.523 . S
C1641 C1625 1.429 1_565 S
C1641 C1637 1.415 1_655 S
C1641 C1642 1.523 . S
C1642 C1626 1.368 1_655 S
C1642 C1638 1.368 1_565 S
C1642 C1641 1.523 . S
H1643 C1618 0.950 . S
H1644 C1620 0.950 . S
H1645 C1621 0.949 . S
H1646 C1623 0.950 . S
H1647 C1625 0.950 . S
C1648 C1649 1.349 . S
C1648 C1650 1.327 . S
C1648 H1673 0.950 . S
C1649 C1648 1.349 . S
C1649 C1665 1.349 . S
C1650 C1648 1.327 . S
C1650 C1669 1.429 . S
C1650 H1674 0.950 . S
C1651 C1668 1.574 . S
C1651 C1670 1.368 . S
C1651 H1675 0.949 . S
H1652 C1656 0.949 . S
C1653 C1654 1.349 . S
C1653 C1655 1.327 . S
C1653 H1676 0.950 . S
C1654 C1653 1.349 . S
C1654 C1666 1.349 . S
C1655 C1653 1.327 . S
C1655 C1671 1.429 . S
C1655 H1677 0.950 . S
C1656 H1652 0.949 . S
C1656 C1664 1.574 . S
C1656 C1672 1.368 . S
H1657 C1665 0.950 . S
H1658 C1663 0.950 . S
H1659 C1664 0.949 . S
H1660 C1666 0.950 . S
H1661 C1667 0.950 . S
H1662 C1668 0.949 . S
C1663 H1658 0.950 . S
C1663 C1665 1.327 . S
C1663 C1669 1.429 . S
C1664 C1656 1.574 . S
C1664 H1659 0.949 . S
C1664 C1670 1.368 . S
C1665 C1649 1.349 . S
C1665 H1657 0.950 . S
C1665 C1663 1.327 . S
C1666 C1654 1.349 . S
C1666 H1660 0.950 . S
C1666 C1667 1.327 . S
C1667 H1661 0.950 . S
C1667 C1666 1.327 . S
C1667 C1671 1.429 . S
C1668 C1651 1.574 . S
C1668 H1662 0.949 . S
C1668 C1672 1.368 . S
C1669 C1650 1.429 . S
C1669 C1663 1.429 . S
C1669 C1670 1.523 . S
C1670 C1651 1.368 . S
C1670 C1664 1.368 . S
C1670 C1669 1.523 . S
C1671 C1655 1.429 . S
C1671 C1667 1.429 . S
C1671 C1672 1.523 . S
C1672 C1656 1.368 . S
C1672 C1668 1.368 . S
C1672 C1671 1.523 . S
H1673 C1648 0.950 . S
H1674 C1650 0.950 . S
H1675 C1651 0.949 . S
H1676 C1653 0.950 . S
H1677 C1655 0.950 . S
C1678 C1679 1.349 . S
C1678 C1680 1.327 . S
C1678 H1703 0.950 . S
C1679 C1678 1.349 . S
C1679 C1695 1.349 . S
C1680 C1678 1.327 . S
C1680 C1699 1.429 . S
C1680 H1704 0.950 . S
C1681 C1698 1.574 . S
C1681 C1700 1.368 . S
C1681 H1705 0.949 . S
H1682 C1686 0.949 . S
C1683 C1684 1.349 . S
C1683 C1685 1.327 . S
C1683 H1706 0.950 . S
C1684 C1683 1.349 . S
C1684 C1696 1.349 . S
C1685 C1683 1.327 . S
C1685 C1701 1.429 . S
C1685 H1707 0.950 . S
C1686 H1682 0.949 . S
C1686 C1694 1.574 . S
C1686 C1702 1.368 . S
H1687 C1695 0.950 . S
H1688 C1693 0.950 . S
H1689 C1694 0.949 . S
H1690 C1696 0.950 . S
H1691 C1697 0.950 . S
H1692 C1698 0.949 . S
C1693 H1688 0.950 . S
C1693 C1695 1.327 . S
C1693 C1699 1.429 . S
C1694 C1686 1.574 . S
C1694 H1689 0.949 . S
C1694 C1700 1.368 . S
C1695 C1679 1.349 . S
C1695 H1687 0.950 . S
C1695 C1693 1.327 . S
C1696 C1684 1.349 . S
C1696 H1690 0.950 . S
C1696 C1697 1.327 . S
C1697 H1691 0.950 . S
C1697 C1696 1.327 . S
C1697 C1701 1.429 . S
C1698 C1681 1.574 . S
C1698 H1692 0.949 . S
C1698 C1702 1.368 . S
C1699 C1680 1.429 . S
C1699 C1693 1.429 . S
C1699 C1700 1.523 . S
C1700 C1681 1.368 . S
C1700 C1694 1.368 . S
C1700 C1699 1.523 . S
C1701 C1685 1.429 . S
C1701 C1697 1.429 . S
C1701 C1702 1.523 . S
C1702 C1686 1.368 . S
C1702 C1698 1.368 . S
C1702 C1701 1.523 . S
H1703 C1678 0.950 . S
H1704 C1680 0.950 . S
H1705 C1681 0.949 . S
H1706 C1683 0.950 . S
H1707 C1685 0.950 . S
C1708 C1709 1.349 . S
C1708 C1710 1.327 . S
C1708 H1733 0.950 . S
C1709 C1708 1.349 . S
C1709 C1725 1.349 . S
C1710 C1708 1.327 . S
C1710 C1729 1.429 . S
C1710 H1734 0.950 . S
C1711 C1728 1.574 . S
C1711 C1730 1.368 . S
C1711 H1735 0.949 . S
H1712 C1716 0.949 . S
C1713 C1714 1.349 . S
C1713 C1715 1.327 . S
C1713 H1736 0.950 . S
C1714 C1713 1.349 . S
C1714 C1726 1.349 . S
C1715 C1713 1.327 . S
C1715 C1731 1.429 . S
C1715 H1737 0.950 . S
C1716 H1712 0.949 . S
C1716 C1724 1.574 . S
C1716 C1732 1.368 . S
H1717 C1725 0.950 . S
H1718 C1723 0.950 . S
H1719 C1724 0.949 . S
H1720 C1726 0.950 . S
H1721 C1727 0.950 . S
H1722 C1728 0.949 . S
C1723 H1718 0.950 . S
C1723 C1725 1.327 . S
C1723 C1729 1.429 . S
C1724 C1716 1.574 . S
C1724 H1719 0.949 . S
C1724 C1730 1.368 . S
C1725 C1709 1.349 . S
C1725 H1717 0.950 . S
C1725 C1723 1.327 . S
C1726 C1714 1.349 . S
C1726 H1720 0.950 . S
C1726 C1727 1.327 . S
C1727 H1721 0.950 . S
C1727 C1726 1.327 . S
C1727 C1731 1.429 . S
C1728 C1711 1.574 . S
C1728 H1722 0.949 . S
C1728 C1732 1.368 . S
C1729 C1710 1.429 . S
C1729 C1723 1.429 . S
C1729 C1730 1.523 . S
C1730 C1711 1.368 . S
C1730 C1724 1.368 . S
C1730 C1729 1.523 . S
C1731 C1715 1.429 . S
C1731 C1727 1.429 . S
C1731 C1732 1.523 . S
C1732 C1716 1.368 . S
C1732 C1728 1.368 . S
C1732 C1731 1.523 . S
H1733 C1708 0.950 . S
H1734 C1710 0.950 . S
H1735 C1711 0.949 . S
H1736 C1713 0.950 . S
H1737 C1715 0.950 . S
C1738 C1739 1.349 . S
C1738 C1740 1.327 . S
C1738 H1763 0.950 . S
C1739 C1738 1.349 . S
C1739 C1755 1.349 . S
C1740 C1738 1.327 . S
C1740 C1759 1.429 . S
C1740 H1764 0.950 . S
C1741 C1758 1.574 . S
C1741 C1760 1.368 . S
C1741 H1765 0.949 . S
H1742 C1746 0.949 . S
C1743 C1744 1.349 . S
C1743 C1745 1.327 . S
C1743 H1766 0.950 . S
C1744 C1743 1.349 . S
C1744 C1756 1.349 . S
C1745 C1743 1.327 . S
C1745 C1761 1.429 . S
C1745 H1767 0.950 . S
C1746 H1742 0.949 . S
C1746 C1754 1.574 . S
C1746 C1762 1.368 . S
H1747 C1755 0.950 . S
H1748 C1753 0.950 . S
H1749 C1754 0.949 . S
H1750 C1756 0.950 . S
H1751 C1757 0.950 . S
H1752 C1758 0.949 . S
C1753 H1748 0.950 . S
C1753 C1755 1.327 . S
C1753 C1759 1.429 . S
C1754 C1746 1.574 . S
C1754 H1749 0.949 . S
C1754 C1760 1.368 . S
C1755 C1739 1.349 . S
C1755 H1747 0.950 . S
C1755 C1753 1.327 . S
C1756 C1744 1.349 . S
C1756 H1750 0.950 . S
C1756 C1757 1.327 . S
C1757 H1751 0.950 . S
C1757 C1756 1.327 . S
C1757 C1761 1.429 . S
C1758 C1741 1.574 . S
C1758 H1752 0.949 . S
C1758 C1762 1.368 . S
C1759 C1740 1.429 . S
C1759 C1753 1.429 . S
C1759 C1760 1.523 . S
C1760 C1741 1.368 . S
C1760 C1754 1.368 . S
C1760 C1759 1.523 . S
C1761 C1745 1.429 . S
C1761 C1757 1.429 . S
C1761 C1762 1.523 . S
C1762 C1746 1.368 . S
C1762 C1758 1.368 . S
C1762 C1761 1.523 . S
H1763 C1738 0.950 . S
H1764 C1740 0.950 . S
H1765 C1741 0.949 . S
H1766 C1743 0.950 . S
H1767 C1745 0.950 . S
C1768 C1769 1.349 . S
C1768 C1770 1.327 . S
C1768 H1793 0.950 . S
C1769 C1768 1.349 . S
C1769 C1785 1.349 . S
C1770 C1768 1.327 . S
C1770 C1789 1.429 . S
C1770 H1794 0.950 . S
C1771 C1788 1.574 1_554 S
C1771 C1790 1.368 . S
C1771 H1795 0.949 . S
H1772 C1776 0.949 . S
C1773 C1774 1.349 . S
C1773 C1775 1.327 . S
C1773 H1796 0.950 . S
C1774 C1773 1.349 . S
C1774 C1786 1.349 . S
C1775 C1773 1.327 . S
C1775 C1791 1.429 . S
C1775 H1797 0.950 . S
C1776 H1772 0.949 . S
C1776 C1784 1.574 1_556 S
C1776 C1792 1.368 . S
H1777 C1785 0.950 . S
H1778 C1783 0.950 . S
H1779 C1784 0.949 . S
H1780 C1786 0.950 . S
H1781 C1787 0.950 . S
H1782 C1788 0.949 . S
C1783 H1778 0.950 . S
C1783 C1785 1.327 . S
C1783 C1789 1.429 . S
C1784 C1776 1.574 1_554 S
C1784 H1779 0.949 . S
C1784 C1790 1.368 . S
C1785 C1769 1.349 . S
C1785 H1777 0.950 . S
C1785 C1783 1.327 . S
C1786 C1774 1.349 . S
C1786 H1780 0.950 . S
C1786 C1787 1.327 . S
C1787 H1781 0.950 . S
C1787 C1786 1.327 . S
C1787 C1791 1.429 . S
C1788 C1771 1.574 1_556 S
C1788 H1782 0.949 . S
C1788 C1792 1.368 . S
C1789 C1770 1.429 . S
C1789 C1783 1.429 . S
C1789 C1790 1.523 . S
C1790 C1771 1.368 . S
C1790 C1784 1.368 . S
C1790 C1789 1.523 . S
C1791 C1775 1.429 . S
C1791 C1787 1.429 . S
C1791 C1792 1.523 . S
C1792 C1776 1.368 . S
C1792 C1788 1.368 . S
C1792 C1791 1.523 . S
H1793 C1768 0.950 . S
H1794 C1770 0.950 . S
H1795 C1771 0.949 . S
H1796 C1773 0.950 . S
H1797 C1775 0.950 . S
C1798 C1799 1.349 . S
C1798 C1800 1.327 . S
C1798 H1823 0.950 . S
C1799 C1798 1.349 . S
C1799 C1815 1.349 . S
C1800 C1798 1.327 . S
C1800 C1819 1.429 . S
C1800 H1824 0.950 . S
C1801 C1818 1.574 1_455 S
C1801 C1820 1.368 . S
C1801 H1825 0.949 . S
H1802 C1806 0.949 . S
C1803 C1804 1.349 . S
C1803 C1805 1.327 . S
C1803 H1826 0.950 . S
C1804 C1803 1.349 . S
C1804 C1816 1.349 . S
C1805 C1803 1.327 . S
C1805 C1821 1.429 . S
C1805 H1827 0.950 . S
C1806 H1802 0.949 . S
C1806 C1814 1.574 1_655 S
C1806 C1822 1.368 . S
H1807 C1815 0.950 . S
H1808 C1813 0.950 . S
H1809 C1814 0.949 . S
H1810 C1816 0.950 . S
H1811 C1817 0.950 . S
H1812 C1818 0.949 . S
C1813 H1808 0.950 . S
C1813 C1815 1.327 . S
C1813 C1819 1.429 . S
C1814 C1806 1.574 1_455 S
C1814 H1809 0.949 . S
C1814 C1820 1.368 . S
C1815 C1799 1.349 . S
C1815 H1807 0.950 . S
C1815 C1813 1.327 . S
C1816 C1804 1.349 . S
C1816 H1810 0.950 . S
C1816 C1817 1.327 . S
C1817 H1811 0.950 . S
C1817 C1816 1.327 . S
C1817 C1821 1.429 . S
C1818 C1801 1.574 1_655 S
C1818 H1812 0.949 . S
C1818 C1822 1.368 . S
C1819 C1800 1.429 . S
C1819 C1813 1.429 . S
C1819 C1820 1.523 . S
C1820 C1801 1.368 . S
C1820 C1814 1.368 . S
C1820 C1819 1.523 . S
C1821 C1805 1.429 . S
C1821 C1817 1.429 . S
C1821 C1822 1.523 . S
C1822 C1806 1.368 . S
C1822 C1818 1.368 . S
C1822 C1821 1.523 . S
H1823 C1798 0.950 . S
H1824 C1800 0.950 . S
H1825 C1801 0.949 . S
H1826 C1803 0.950 . S
H1827 C1805 0.950 . S
C1828 C1829 1.349 . S
C1828 C1830 1.327 . S
C1828 H1853 0.946 1_455 S
C1829 C1828 1.349 . S
C1829 C1845 1.349 . S
C1830 C1828 1.327 . S
C1830 C1849 1.429 . S
C1830 H1854 0.950 1_455 S
C1831 C1848 1.574 1_554 S
C1831 C1850 1.368 . S
C1831 H1855 0.949 . S
H1832 C1836 0.949 . S
C1833 C1834 1.349 . S
C1833 C1835 1.327 . S
C1833 H1856 0.946 1_655 S
C1834 C1833 1.349 . S
C1834 C1846 1.349 . S
C1835 C1833 1.327 . S
C1835 C1851 1.429 . S
C1835 H1857 0.950 1_655 S
C1836 H1832 0.949 . S
C1836 C1844 1.574 1_556 S
C1836 C1852 1.368 . S
H1837 C1845 0.950 . S
H1838 C1843 0.950 . S
H1839 C1844 0.949 . S
H1840 C1846 0.950 . S
H1841 C1847 0.950 . S
H1842 C1848 0.949 . S
C1843 H1838 0.950 . S
C1843 C1845 1.327 . S
C1843 C1849 1.429 . S
C1844 C1836 1.574 1_554 S
C1844 H1839 0.949 . S
C1844 C1850 1.368 1_655 S
C1845 C1829 1.349 . S
C1845 H1837 0.950 . S
C1845 C1843 1.327 . S
C1846 C1834 1.349 . S
C1846 H1840 0.950 . S
C1846 C1847 1.327 . S
C1847 H1841 0.950 . S
C1847 C1846 1.327 . S
C1847 C1851 1.429 . S
C1848 C1831 1.574 1_556 S
C1848 H1842 0.949 . S
C1848 C1852 1.368 1_455 S
C1849 C1830 1.429 . S
C1849 C1843 1.429 . S
C1849 C1850 1.523 . S
C1850 C1831 1.368 . S
C1850 C1844 1.368 1_455 S
C1850 C1849 1.523 . S
C1851 C1835 1.429 . S
C1851 C1847 1.429 . S
C1851 C1852 1.523 . S
C1852 C1836 1.368 . S
C1852 C1848 1.368 1_655 S
C1852 C1851 1.523 . S
H1853 C1828 0.946 1_655 S
H1854 C1830 0.950 1_655 S
H1855 C1831 0.949 . S
H1856 C1833 0.946 1_455 S
H1857 C1835 0.950 1_455 S
C1858 C1859 1.349 . S
C1858 C1860 1.327 . S
C1858 H1883 0.950 . S
C1859 C1858 1.349 . S
C1859 C1875 1.349 . S
C1860 C1858 1.327 . S
C1860 C1879 1.429 . S
C1860 H1884 0.950 . S
C1861 C1878 1.574 . S
C1861 C1880 1.368 . S
C1861 H1885 0.949 . S
H1862 C1866 0.949 . S
C1863 C1864 1.349 . S
C1863 C1865 1.327 . S
C1863 H1886 0.950 . S
C1864 C1863 1.349 . S
C1864 C1876 1.349 . S
C1865 C1863 1.327 . S
C1865 C1881 1.429 . S
C1865 H1887 0.950 . S
C1866 H1862 0.949 . S
C1866 C1874 1.574 . S
C1866 C1882 1.368 . S
H1867 C1875 0.950 . S
H1868 C1873 0.950 . S
H1869 C1874 0.949 . S
H1870 C1876 0.950 . S
H1871 C1877 0.950 . S
H1872 C1878 0.949 . S
C1873 H1868 0.950 . S
C1873 C1875 1.327 . S
C1873 C1879 1.429 . S
C1874 C1866 1.574 . S
C1874 H1869 0.949 . S
C1874 C1880 1.368 . S
C1875 C1859 1.349 . S
C1875 H1867 0.950 . S
C1875 C1873 1.327 . S
C1876 C1864 1.349 . S
C1876 H1870 0.950 . S
C1876 C1877 1.327 . S
C1877 H1871 0.950 . S
C1877 C1876 1.327 . S
C1877 C1881 1.429 . S
C1878 C1861 1.574 . S
C1878 H1872 0.949 . S
C1878 C1882 1.368 . S
C1879 C1860 1.429 . S
C1879 C1873 1.429 . S
C1879 C1880 1.523 . S
C1880 C1861 1.368 . S
C1880 C1874 1.368 . S
C1880 C1879 1.523 . S
C1881 C1865 1.429 . S
C1881 C1877 1.429 . S
C1881 C1882 1.523 . S
C1882 C1866 1.368 . S
C1882 C1878 1.368 . S
C1882 C1881 1.523 . S
H1883 C1858 0.950 . S
H1884 C1860 0.950 . S
H1885 C1861 0.949 . S
H1886 C1863 0.950 . S
H1887 C1865 0.950 . S
C1888 C1889 1.349 . S
C1888 C1890 1.327 . S
C1888 H1913 0.950 . S
C1889 C1888 1.349 . S
C1889 C1905 1.349 . S
C1890 C1888 1.327 . S
C1890 C1909 1.429 . S
C1890 H1914 0.950 . S
C1891 C1908 1.574 . S
C1891 C1910 1.368 . S
C1891 H1915 0.949 . S
H1892 C1896 0.949 . S
C1893 C1894 1.349 . S
C1893 C1895 1.327 . S
C1893 H1916 0.950 . S
C1894 C1893 1.349 . S
C1894 C1906 1.349 . S
C1895 C1893 1.327 . S
C1895 C1911 1.429 . S
C1895 H1917 0.950 . S
C1896 H1892 0.949 . S
C1896 C1904 1.574 . S
C1896 C1912 1.368 . S
H1897 C1905 0.950 . S
H1898 C1903 0.950 . S
H1899 C1904 0.949 . S
H1900 C1906 0.950 . S
H1901 C1907 0.950 . S
H1902 C1908 0.949 . S
C1903 H1898 0.950 . S
C1903 C1905 1.327 . S
C1903 C1909 1.429 . S
C1904 C1896 1.574 . S
C1904 H1899 0.949 . S
C1904 C1910 1.368 . S
C1905 C1889 1.349 . S
C1905 H1897 0.950 . S
C1905 C1903 1.327 . S
C1906 C1894 1.349 . S
C1906 H1900 0.950 . S
C1906 C1907 1.327 . S
C1907 H1901 0.950 . S
C1907 C1906 1.327 . S
C1907 C1911 1.429 . S
C1908 C1891 1.574 . S
C1908 H1902 0.949 . S
C1908 C1912 1.368 . S
C1909 C1890 1.429 . S
C1909 C1903 1.429 . S
C1909 C1910 1.523 . S
C1910 C1891 1.368 . S
C1910 C1904 1.368 . S
C1910 C1909 1.523 . S
C1911 C1895 1.429 . S
C1911 C1907 1.429 . S
C1911 C1912 1.523 . S
C1912 C1896 1.368 . S
C1912 C1908 1.368 . S
C1912 C1911 1.523 . S
H1913 C1888 0.950 . S
H1914 C1890 0.950 . S
H1915 C1891 0.949 . S
H1916 C1893 0.950 . S
H1917 C1895 0.950 . S
C1918 C1919 1.349 . S
C1918 C1920 1.327 . S
C1918 H1943 0.950 . S
C1919 C1918 1.349 . S
C1919 C1935 1.349 . S
C1920 C1918 1.327 . S
C1920 C1939 1.429 . S
C1920 H1944 0.950 . S
C1921 C1938 1.574 . S
C1921 C1940 1.368 . S
C1921 H1945 0.949 . S
H1922 C1926 0.949 . S
C1923 C1924 1.349 . S
C1923 C1925 1.327 . S
C1923 H1946 0.950 . S
C1924 C1923 1.349 . S
C1924 C1936 1.349 . S
C1925 C1923 1.327 . S
C1925 C1941 1.429 . S
C1925 H1947 0.950 . S
C1926 H1922 0.949 . S
C1926 C1934 1.574 . S
C1926 C1942 1.368 . S
H1927 C1935 0.950 . S
H1928 C1933 0.950 . S
H1929 C1934 0.949 . S
H1930 C1936 0.950 . S
H1931 C1937 0.950 . S
H1932 C1938 0.949 . S
C1933 H1928 0.950 . S
C1933 C1935 1.327 . S
C1933 C1939 1.429 . S
C1934 C1926 1.574 . S
C1934 H1929 0.949 . S
C1934 C1940 1.368 . S
C1935 C1919 1.349 . S
C1935 H1927 0.950 . S
C1935 C1933 1.327 . S
C1936 C1924 1.349 . S
C1936 H1930 0.950 . S
C1936 C1937 1.327 . S
C1937 H1931 0.950 . S
C1937 C1936 1.327 . S
C1937 C1941 1.429 . S
C1938 C1921 1.574 . S
C1938 H1932 0.949 . S
C1938 C1942 1.368 . S
C1939 C1920 1.429 . S
C1939 C1933 1.429 . S
C1939 C1940 1.523 . S
C1940 C1921 1.368 . S
C1940 C1934 1.368 . S
C1940 C1939 1.523 . S
C1941 C1925 1.429 . S
C1941 C1937 1.429 . S
C1941 C1942 1.523 . S
C1942 C1926 1.368 . S
C1942 C1938 1.368 . S
C1942 C1941 1.523 . S
H1943 C1918 0.950 . S
H1944 C1920 0.950 . S
H1945 C1921 0.949 . S
H1946 C1923 0.950 . S
H1947 C1925 0.950 . S
C1948 C1949 1.349 . S
C1948 C1950 1.327 . S
C1948 H1973 0.950 . S
C1949 C1948 1.349 . S
C1949 C1965 1.349 . S
C1950 C1948 1.327 . S
C1950 C1969 1.429 . S
C1950 H1974 0.950 . S
C1951 C1968 1.574 . S
C1951 C1970 1.368 . S
C1951 H1975 0.949 . S
H1952 C1956 0.949 . S
C1953 C1954 1.349 . S
C1953 C1955 1.327 . S
C1953 H1976 0.950 . S
C1954 C1953 1.349 . S
C1954 C1966 1.349 . S
C1955 C1953 1.327 . S
C1955 C1971 1.429 . S
C1955 H1977 0.950 . S
C1956 H1952 0.949 . S
C1956 C1964 1.574 . S
C1956 C1972 1.368 . S
H1957 C1965 0.950 . S
H1958 C1963 0.950 . S
H1959 C1964 0.949 . S
H1960 C1966 0.950 . S
H1961 C1967 0.950 . S
H1962 C1968 0.949 . S
C1963 H1958 0.950 . S
C1963 C1965 1.327 . S
C1963 C1969 1.429 . S
C1964 C1956 1.574 . S
C1964 H1959 0.949 . S
C1964 C1970 1.368 . S
C1965 C1949 1.349 . S
C1965 H1957 0.950 . S
C1965 C1963 1.327 . S
C1966 C1954 1.349 . S
C1966 H1960 0.950 . S
C1966 C1967 1.327 . S
C1967 H1961 0.950 . S
C1967 C1966 1.327 . S
C1967 C1971 1.429 . S
C1968 C1951 1.574 . S
C1968 H1962 0.949 . S
C1968 C1972 1.368 . S
C1969 C1950 1.429 . S
C1969 C1963 1.429 . S
C1969 C1970 1.523 . S
C1970 C1951 1.368 . S
C1970 C1964 1.368 . S
C1970 C1969 1.523 . S
C1971 C1955 1.429 . S
C1971 C1967 1.429 . S
C1971 C1972 1.523 . S
C1972 C1956 1.368 . S
C1972 C1968 1.368 . S
C1972 C1971 1.523 . S
H1973 C1948 0.950 . S
H1974 C1950 0.950 . S
H1975 C1951 0.949 . S
H1976 C1953 0.950 . S
H1977 C1955 0.950 . S
C1978 C1979 1.349 . S
C1978 C1980 1.327 . S
C1978 H2003 0.950 . S
C1979 C1978 1.349 . S
C1979 C1995 1.349 . S
C1980 C1978 1.327 . S
C1980 C1999 1.429 . S
C1980 H2004 0.950 . S
C1981 C1998 1.574 . S
C1981 C2000 1.368 . S
C1981 H2005 0.949 . S
H1982 C1986 0.949 . S
C1983 C1984 1.349 . S
C1983 C1985 1.327 . S
C1983 H2006 0.950 . S
C1984 C1983 1.349 . S
C1984 C1996 1.349 . S
C1985 C1983 1.327 . S
C1985 C2001 1.429 . S
C1985 H2007 0.950 . S
C1986 H1982 0.949 . S
C1986 C1994 1.574 . S
C1986 C2002 1.368 . S
H1987 C1995 0.950 . S
H1988 C1993 0.950 . S
H1989 C1994 0.949 . S
H1990 C1996 0.950 . S
H1991 C1997 0.950 . S
H1992 C1998 0.949 . S
C1993 H1988 0.950 . S
C1993 C1995 1.327 . S
C1993 C1999 1.429 . S
C1994 C1986 1.574 . S
C1994 H1989 0.949 . S
C1994 C2000 1.368 . S
C1995 C1979 1.349 . S
C1995 H1987 0.950 . S
C1995 C1993 1.327 . S
C1996 C1984 1.349 . S
C1996 H1990 0.950 . S
C1996 C1997 1.327 . S
C1997 H1991 0.950 . S
C1997 C1996 1.327 . S
C1997 C2001 1.429 . S
C1998 C1981 1.574 . S
C1998 H1992 0.949 . S
C1998 C2002 1.368 . S
C1999 C1980 1.429 . S
C1999 C1993 1.429 . S
C1999 C2000 1.523 . S
C2000 C1981 1.368 . S
C2000 C1994 1.368 . S
C2000 C1999 1.523 . S
C2001 C1985 1.429 . S
C2001 C1997 1.429 . S
C2001 C2002 1.523 . S
C2002 C1986 1.368 . S
C2002 C1998 1.368 . S
C2002 C2001 1.523 . S
H2003 C1978 0.950 . S
H2004 C1980 0.950 . S
H2005 C1981 0.949 . S
H2006 C1983 0.950 . S
H2007 C1985 0.950 . S
C2008 C2009 1.349 . S
C2008 C2010 1.327 . S
C2008 H2033 0.950 . S
C2009 C2008 1.349 . S
C2009 C2025 1.349 . S
C2010 C2008 1.327 . S
C2010 C2029 1.429 . S
C2010 H2034 0.950 . S
C2011 C2028 1.574 . S
C2011 C2030 1.368 . S
C2011 H2035 0.949 . S
H2012 C2016 0.949 . S
C2013 C2014 1.349 . S
C2013 C2015 1.327 . S
C2013 H2036 0.950 . S
C2014 C2013 1.349 . S
C2014 C2026 1.349 . S
C2015 C2013 1.327 . S
C2015 C2031 1.429 . S
C2015 H2037 0.950 . S
C2016 H2012 0.949 . S
C2016 C2024 1.574 . S
C2016 C2032 1.368 . S
H2017 C2025 0.950 . S
H2018 C2023 0.950 . S
H2019 C2024 0.949 . S
H2020 C2026 0.950 . S
H2021 C2027 0.950 . S
H2022 C2028 0.949 . S
C2023 H2018 0.950 . S
C2023 C2025 1.327 . S
C2023 C2029 1.429 . S
C2024 C2016 1.574 . S
C2024 H2019 0.949 . S
C2024 C2030 1.368 . S
C2025 C2009 1.349 . S
C2025 H2017 0.950 . S
C2025 C2023 1.327 . S
C2026 C2014 1.349 . S
C2026 H2020 0.950 . S
C2026 C2027 1.327 . S
C2027 H2021 0.950 . S
C2027 C2026 1.327 . S
C2027 C2031 1.429 . S
C2028 C2011 1.574 . S
C2028 H2022 0.949 . S
C2028 C2032 1.368 . S
C2029 C2010 1.429 . S
C2029 C2023 1.429 . S
C2029 C2030 1.523 . S
C2030 C2011 1.368 . S
C2030 C2024 1.368 . S
C2030 C2029 1.523 . S
C2031 C2015 1.429 . S
C2031 C2027 1.429 . S
C2031 C2032 1.523 . S
C2032 C2016 1.368 . S
C2032 C2028 1.368 . S
C2032 C2031 1.523 . S
H2033 C2008 0.950 . S
H2034 C2010 0.950 . S
H2035 C2011 0.949 . S
H2036 C2013 0.950 . S
H2037 C2015 0.950 . S
C2038 C2039 1.349 . S
C2038 C2040 1.327 . S
C2038 H2063 0.950 . S
C2039 C2038 1.349 . S
C2039 C2055 1.349 . S
C2040 C2038 1.327 . S
C2040 C2059 1.429 . S
C2040 H2064 0.950 . S
C2041 C2058 1.574 . S
C2041 C2060 1.368 . S
C2041 H2065 0.949 . S
H2042 C2046 0.949 . S
C2043 C2044 1.349 . S
C2043 C2045 1.327 . S
C2043 H2066 0.950 . S
C2044 C2043 1.349 . S
C2044 C2056 1.349 . S
C2045 C2043 1.327 . S
C2045 C2061 1.429 . S
C2045 H2067 0.950 . S
C2046 H2042 0.949 . S
C2046 C2054 1.574 . S
C2046 C2062 1.368 . S
H2047 C2055 0.950 . S
H2048 C2053 0.950 . S
H2049 C2054 0.949 . S
H2050 C2056 0.950 . S
H2051 C2057 0.950 . S
H2052 C2058 0.949 . S
C2053 H2048 0.950 . S
C2053 C2055 1.327 . S
C2053 C2059 1.429 . S
C2054 C2046 1.574 . S
C2054 H2049 0.949 . S
C2054 C2060 1.368 . S
C2055 C2039 1.349 . S
C2055 H2047 0.950 . S
C2055 C2053 1.327 . S
C2056 C2044 1.349 . S
C2056 H2050 0.950 . S
C2056 C2057 1.327 . S
C2057 H2051 0.950 . S
C2057 C2056 1.327 . S
C2057 C2061 1.429 . S
C2058 C2041 1.574 . S
C2058 H2052 0.949 . S
C2058 C2062 1.368 . S
C2059 C2040 1.429 . S
C2059 C2053 1.429 . S
C2059 C2060 1.523 . S
C2060 C2041 1.368 . S
C2060 C2054 1.368 . S
C2060 C2059 1.523 . S
C2061 C2045 1.429 . S
C2061 C2057 1.429 . S
C2061 C2062 1.523 . S
C2062 C2046 1.368 . S
C2062 C2058 1.368 . S
C2062 C2061 1.523 . S
H2063 C2038 0.950 . S
H2064 C2040 0.950 . S
H2065 C2041 0.949 . S
H2066 C2043 0.950 . S
H2067 C2045 0.950 . S
C2068 C2069 1.349 . S
C2068 C2070 1.327 . S
C2068 H2093 0.950 . S
C2069 C2068 1.349 . S
C2069 C2085 1.349 . S
C2070 C2068 1.327 . S
C2070 C2089 1.429 . S
C2070 H2094 0.950 . S
C2071 C2088 1.574 . S
C2071 C2090 1.368 . S
C2071 H2095 0.949 . S
H2072 C2076 0.949 . S
C2073 C2074 1.349 . S
C2073 C2075 1.327 . S
C2073 H2096 0.950 . S
C2074 C2073 1.349 . S
C2074 C2086 1.349 . S
C2075 C2073 1.327 . S
C2075 C2091 1.429 . S
C2075 H2097 0.950 . S
C2076 H2072 0.949 . S
C2076 C2084 1.574 . S
C2076 C2092 1.368 . S
H2077 C2085 0.950 . S
H2078 C2083 0.950 . S
H2079 C2084 0.949 . S
H2080 C2086 0.950 . S
H2081 C2087 0.950 . S
H2082 C2088 0.949 . S
C2083 H2078 0.950 . S
C2083 C2085 1.327 . S
C2083 C2089 1.429 . S
C2084 C2076 1.574 . S
C2084 H2079 0.949 . S
C2084 C2090 1.368 . S
C2085 C2069 1.349 . S
C2085 H2077 0.950 . S
C2085 C2083 1.327 . S
C2086 C2074 1.349 . S
C2086 H2080 0.950 . S
C2086 C2087 1.327 . S
C2087 H2081 0.950 . S
C2087 C2086 1.327 . S
C2087 C2091 1.429 . S
C2088 C2071 1.574 . S
C2088 H2082 0.949 . S
C2088 C2092 1.368 . S
C2089 C2070 1.429 . S
C2089 C2083 1.429 . S
C2089 C2090 1.523 . S
C2090 C2071 1.368 . S
C2090 C2084 1.368 . S
C2090 C2089 1.523 . S
C2091 C2075 1.429 . S
C2091 C2087 1.429 . S
C2091 C2092 1.523 . S
C2092 C2076 1.368 . S
C2092 C2088 1.368 . S
C2092 C2091 1.523 . S
H2093 C2068 0.950 . S
H2094 C2070 0.950 . S
H2095 C2071 0.949 . S
H2096 C2073 0.950 . S
H2097 C2075 0.950 . S
C2098 C2099 1.349 . S
C2098 C2100 1.327 . S
C2098 H2123 0.950 . S
C2099 C2098 1.349 . S
C2099 C2115 1.349 . S
C2100 C2098 1.327 . S
C2100 C2119 1.429 . S
C2100 H2124 0.950 . S
C2101 C2118 1.574 . S
C2101 C2120 1.368 . S
C2101 H2125 0.949 . S
H2102 C2106 0.949 . S
C2103 C2104 1.349 . S
C2103 C2105 1.327 . S
C2103 H2126 0.950 . S
C2104 C2103 1.349 . S
C2104 C2116 1.349 . S
C2105 C2103 1.327 . S
C2105 C2121 1.429 . S
C2105 H2127 0.950 . S
C2106 H2102 0.949 . S
C2106 C2114 1.574 . S
C2106 C2122 1.368 . S
H2107 C2115 0.950 . S
H2108 C2113 0.950 . S
H2109 C2114 0.949 . S
H2110 C2116 0.950 . S
H2111 C2117 0.950 . S
H2112 C2118 0.949 . S
C2113 H2108 0.950 . S
C2113 C2115 1.327 . S
C2113 C2119 1.429 . S
C2114 C2106 1.574 . S
C2114 H2109 0.949 . S
C2114 C2120 1.368 . S
C2115 C2099 1.349 . S
C2115 H2107 0.950 . S
C2115 C2113 1.327 . S
C2116 C2104 1.349 . S
C2116 H2110 0.950 . S
C2116 C2117 1.327 . S
C2117 H2111 0.950 . S
C2117 C2116 1.327 . S
C2117 C2121 1.429 . S
C2118 C2101 1.574 . S
C2118 H2112 0.949 . S
C2118 C2122 1.368 . S
C2119 C2100 1.429 . S
C2119 C2113 1.429 . S
C2119 C2120 1.523 . S
C2120 C2101 1.368 . S
C2120 C2114 1.368 . S
C2120 C2119 1.523 . S
C2121 C2105 1.429 . S
C2121 C2117 1.429 . S
C2121 C2122 1.523 . S
C2122 C2106 1.368 . S
C2122 C2118 1.368 . S
C2122 C2121 1.523 . S
H2123 C2098 0.950 . S
H2124 C2100 0.950 . S
H2125 C2101 0.949 . S
H2126 C2103 0.950 . S
H2127 C2105 0.950 . S
C2128 C2129 1.349 . S
C2128 C2130 1.327 . S
C2128 H2153 0.950 . S
C2129 C2128 1.349 . S
C2129 C2145 1.349 . S
C2130 C2128 1.327 . S
C2130 C2149 1.429 . S
C2130 H2154 0.950 . S
C2131 C2148 1.574 . S
C2131 C2150 1.368 . S
C2131 H2155 0.949 . S
H2132 C2136 0.949 . S
C2133 C2134 1.349 . S
C2133 C2135 1.327 . S
C2133 H2156 0.950 . S
C2134 C2133 1.349 . S
C2134 C2146 1.349 . S
C2135 C2133 1.327 . S
C2135 C2151 1.429 . S
C2135 H2157 0.950 . S
C2136 H2132 0.949 . S
C2136 C2144 1.574 . S
C2136 C2152 1.368 . S
H2137 C2145 0.950 . S
H2138 C2143 0.950 . S
H2139 C2144 0.949 . S
H2140 C2146 0.950 . S
H2141 C2147 0.950 . S
H2142 C2148 0.949 . S
C2143 H2138 0.950 . S
C2143 C2145 1.327 . S
C2143 C2149 1.429 . S
C2144 C2136 1.574 . S
C2144 H2139 0.949 . S
C2144 C2150 1.368 . S
C2145 C2129 1.349 . S
C2145 H2137 0.950 . S
C2145 C2143 1.327 . S
C2146 C2134 1.349 . S
C2146 H2140 0.950 . S
C2146 C2147 1.327 . S
C2147 H2141 0.950 . S
C2147 C2146 1.327 . S
C2147 C2151 1.429 . S
C2148 C2131 1.574 . S
C2148 H2142 0.949 . S
C2148 C2152 1.368 . S
C2149 C2130 1.429 . S
C2149 C2143 1.429 . S
C2149 C2150 1.523 . S
C2150 C2131 1.368 . S
C2150 C2144 1.368 . S
C2150 C2149 1.523 . S
C2151 C2135 1.429 . S
C2151 C2147 1.429 . S
C2151 C2152 1.523 . S
C2152 C2136 1.368 . S
C2152 C2148 1.368 . S
C2152 C2151 1.523 . S
H2153 C2128 0.950 . S
H2154 C2130 0.950 . S
H2155 C2131 0.949 . S
H2156 C2133 0.950 . S
H2157 C2135 0.950 . S
C2158 C2159 1.349 . S
C2158 C2160 1.327 . S
C2158 H2183 0.950 . S
C2159 C2158 1.349 . S
C2159 C2175 1.349 . S
C2160 C2158 1.327 . S
C2160 C2179 1.429 . S
C2160 H2184 0.950 . S
C2161 C2178 1.574 . S
C2161 C2180 1.368 . S
C2161 H2185 0.949 . S
H2162 C2166 0.949 . S
C2163 C2164 1.349 . S
C2163 C2165 1.327 . S
C2163 H2186 0.950 . S
C2164 C2163 1.349 . S
C2164 C2176 1.349 . S
C2165 C2163 1.327 . S
C2165 C2181 1.429 . S
C2165 H2187 0.950 . S
C2166 H2162 0.949 . S
C2166 C2174 1.574 . S
C2166 C2182 1.368 . S
H2167 C2175 0.950 . S
H2168 C2173 0.950 . S
H2169 C2174 0.949 . S
H2170 C2176 0.950 . S
H2171 C2177 0.950 . S
H2172 C2178 0.949 . S
C2173 H2168 0.950 . S
C2173 C2175 1.327 . S
C2173 C2179 1.429 . S
C2174 C2166 1.574 . S
C2174 H2169 0.949 . S
C2174 C2180 1.368 . S
C2175 C2159 1.349 . S
C2175 H2167 0.950 . S
C2175 C2173 1.327 . S
C2176 C2164 1.349 . S
C2176 H2170 0.950 . S
C2176 C2177 1.327 . S
C2177 H2171 0.950 . S
C2177 C2176 1.327 . S
C2177 C2181 1.429 . S
C2178 C2161 1.574 . S
C2178 H2172 0.949 . S
C2178 C2182 1.368 . S
C2179 C2160 1.429 . S
C2179 C2173 1.429 . S
C2179 C2180 1.523 . S
C2180 C2161 1.368 . S
C2180 C2174 1.368 . S
C2180 C2179 1.523 . S
C2181 C2165 1.429 . S
C2181 C2177 1.429 . S
C2181 C2182 1.523 . S
C2182 C2166 1.368 . S
C2182 C2178 1.368 . S
C2182 C2181 1.523 . S
H2183 C2158 0.950 . S
H2184 C2160 0.950 . S
H2185 C2161 0.949 . S
H2186 C2163 0.950 . S
H2187 C2165 0.950 . S
C2188 C2189 1.349 . S
C2188 C2190 1.327 . S
C2188 H2213 0.950 . S
C2189 C2188 1.349 . S
C2189 C2205 1.349 . S
C2190 C2188 1.327 . S
C2190 C2209 1.429 . S
C2190 H2214 0.950 . S
C2191 C2208 1.574 . S
C2191 C2210 1.368 . S
C2191 H2215 0.949 . S
H2192 C2196 0.949 . S
C2193 C2194 1.349 . S
C2193 C2195 1.327 . S
C2193 H2216 0.950 . S
C2194 C2193 1.349 . S
C2194 C2206 1.349 . S
C2195 C2193 1.327 . S
C2195 C2211 1.429 . S
C2195 H2217 0.950 . S
C2196 H2192 0.949 . S
C2196 C2204 1.574 . S
C2196 C2212 1.368 . S
H2197 C2205 0.950 . S
H2198 C2203 0.950 . S
H2199 C2204 0.949 . S
H2200 C2206 0.950 . S
H2201 C2207 0.950 . S
H2202 C2208 0.949 . S
C2203 H2198 0.950 . S
C2203 C2205 1.327 . S
C2203 C2209 1.429 . S
C2204 C2196 1.574 . S
C2204 H2199 0.949 . S
C2204 C2210 1.368 . S
C2205 C2189 1.349 . S
C2205 H2197 0.950 . S
C2205 C2203 1.327 . S
C2206 C2194 1.349 . S
C2206 H2200 0.950 . S
C2206 C2207 1.327 . S
C2207 H2201 0.950 . S
C2207 C2206 1.327 . S
C2207 C2211 1.429 . S
C2208 C2191 1.574 . S
C2208 H2202 0.949 . S
C2208 C2212 1.368 . S
C2209 C2190 1.429 . S
C2209 C2203 1.429 . S
C2209 C2210 1.523 . S
C2210 C2191 1.368 . S
C2210 C2204 1.368 . S
C2210 C2209 1.523 . S
C2211 C2195 1.429 . S
C2211 C2207 1.429 . S
C2211 C2212 1.523 . S
C2212 C2196 1.368 . S
C2212 C2208 1.368 . S
C2212 C2211 1.523 . S
H2213 C2188 0.950 . S
H2214 C2190 0.950 . S
H2215 C2191 0.949 . S
H2216 C2193 0.950 . S
H2217 C2195 0.950 . S
C2218 C2219 1.349 . S
C2218 C2220 1.327 . S
C2218 H2243 0.950 . S
C2219 C2218 1.349 . S
C2219 C2235 1.349 . S
C2220 C2218 1.327 . S
C2220 C2239 1.429 . S
C2220 H2244 0.950 . S
C2221 C2238 1.574 . S
C2221 C2240 1.368 . S
C2221 H2245 0.949 . S
H2222 C2226 0.949 . S
C2223 C2224 1.349 . S
C2223 C2225 1.327 . S
C2223 H2246 0.950 . S
C2224 C2223 1.349 . S
C2224 C2236 1.349 . S
C2225 C2223 1.327 . S
C2225 C2241 1.429 . S
C2225 H2247 0.950 . S
C2226 H2222 0.949 . S
C2226 C2234 1.574 . S
C2226 C2242 1.368 . S
H2227 C2235 0.950 . S
H2228 C2233 0.950 . S
H2229 C2234 0.949 . S
H2230 C2236 0.950 . S
H2231 C2237 0.950 . S
H2232 C2238 0.949 . S
C2233 H2228 0.950 . S
C2233 C2235 1.327 . S
C2233 C2239 1.429 . S
C2234 C2226 1.574 . S
C2234 H2229 0.949 . S
C2234 C2240 1.368 . S
C2235 C2219 1.349 . S
C2235 H2227 0.950 . S
C2235 C2233 1.327 . S
C2236 C2224 1.349 . S
C2236 H2230 0.950 . S
C2236 C2237 1.327 . S
C2237 H2231 0.950 . S
C2237 C2236 1.327 . S
C2237 C2241 1.429 . S
C2238 C2221 1.574 . S
C2238 H2232 0.949 . S
C2238 C2242 1.368 . S
C2239 C2220 1.429 . S
C2239 C2233 1.429 . S
C2239 C2240 1.523 . S
C2240 C2221 1.368 . S
C2240 C2234 1.368 . S
C2240 C2239 1.523 . S
C2241 C2225 1.429 . S
C2241 C2237 1.429 . S
C2241 C2242 1.523 . S
C2242 C2226 1.368 . S
C2242 C2238 1.368 . S
C2242 C2241 1.523 . S
H2243 C2218 0.950 . S
H2244 C2220 0.950 . S
H2245 C2221 0.949 . S
H2246 C2223 0.950 . S
H2247 C2225 0.950 . S
C2248 C2249 1.349 . S
C2248 C2250 1.327 . S
C2248 H2273 0.950 . S
C2249 C2248 1.349 . S
C2249 C2265 1.349 . S
C2250 C2248 1.327 . S
C2250 C2269 1.429 . S
C2250 H2274 0.950 . S
C2251 C2268 1.574 . S
C2251 C2270 1.368 . S
C2251 H2275 0.949 . S
H2252 C2256 0.949 . S
C2253 C2254 1.349 . S
C2253 C2255 1.327 . S
C2253 H2276 0.950 . S
C2254 C2253 1.349 . S
C2254 C2266 1.349 . S
C2255 C2253 1.327 . S
C2255 C2271 1.429 . S
C2255 H2277 0.950 . S
C2256 H2252 0.949 . S
C2256 C2264 1.574 . S
C2256 C2272 1.368 . S
H2257 C2265 0.950 . S
H2258 C2263 0.950 . S
H2259 C2264 0.949 . S
H2260 C2266 0.950 . S
H2261 C2267 0.950 . S
H2262 C2268 0.949 . S
C2263 H2258 0.950 . S
C2263 C2265 1.327 . S
C2263 C2269 1.429 . S
C2264 C2256 1.574 . S
C2264 H2259 0.949 . S
C2264 C2270 1.368 . S
C2265 C2249 1.349 . S
C2265 H2257 0.950 . S
C2265 C2263 1.327 . S
C2266 C2254 1.349 . S
C2266 H2260 0.950 . S
C2266 C2267 1.327 . S
C2267 H2261 0.950 . S
C2267 C2266 1.327 . S
C2267 C2271 1.429 . S
C2268 C2251 1.574 . S
C2268 H2262 0.949 . S
C2268 C2272 1.368 . S
C2269 C2250 1.429 . S
C2269 C2263 1.429 . S
C2269 C2270 1.523 . S
C2270 C2251 1.368 . S
C2270 C2264 1.368 . S
C2270 C2269 1.523 . S
C2271 C2255 1.429 . S
C2271 C2267 1.429 . S
C2271 C2272 1.523 . S
C2272 C2256 1.368 . S
C2272 C2268 1.368 . S
C2272 C2271 1.523 . S
H2273 C2248 0.950 . S
H2274 C2250 0.950 . S
H2275 C2251 0.949 . S
H2276 C2253 0.950 . S
H2277 C2255 0.950 . S
C2278 C2279 1.349 . S
C2278 C2280 1.327 . S
C2278 H2303 0.950 . S
C2279 C2278 1.349 . S
C2279 C2295 1.349 . S
C2280 C2278 1.327 . S
C2280 C2299 1.429 . S
C2280 H2304 0.950 . S
C2281 C2298 1.574 . S
C2281 C2300 1.368 . S
C2281 H2305 0.949 . S
H2282 C2286 0.949 . S
C2283 C2284 1.349 . S
C2283 C2285 1.327 . S
C2283 H2306 0.950 . S
C2284 C2283 1.349 . S
C2284 C2296 1.349 . S
C2285 C2283 1.327 . S
C2285 C2301 1.429 . S
C2285 H2307 0.950 . S
C2286 H2282 0.949 . S
C2286 C2294 1.574 . S
C2286 C2302 1.368 . S
H2287 C2295 0.950 . S
H2288 C2293 0.950 . S
H2289 C2294 0.949 . S
H2290 C2296 0.950 . S
H2291 C2297 0.950 . S
H2292 C2298 0.949 . S
C2293 H2288 0.950 . S
C2293 C2295 1.327 . S
C2293 C2299 1.429 . S
C2294 C2286 1.574 . S
C2294 H2289 0.949 . S
C2294 C2300 1.368 . S
C2295 C2279 1.349 . S
C2295 H2287 0.950 . S
C2295 C2293 1.327 . S
C2296 C2284 1.349 . S
C2296 H2290 0.950 . S
C2296 C2297 1.327 . S
C2297 H2291 0.950 . S
C2297 C2296 1.327 . S
C2297 C2301 1.429 . S
C2298 C2281 1.574 . S
C2298 H2292 0.949 . S
C2298 C2302 1.368 . S
C2299 C2280 1.429 . S
C2299 C2293 1.429 . S
C2299 C2300 1.523 . S
C2300 C2281 1.368 . S
C2300 C2294 1.368 . S
C2300 C2299 1.523 . S
C2301 C2285 1.429 . S
C2301 C2297 1.429 . S
C2301 C2302 1.523 . S
C2302 C2286 1.368 . S
C2302 C2298 1.368 . S
C2302 C2301 1.523 . S
H2303 C2278 0.950 . S
H2304 C2280 0.950 . S
H2305 C2281 0.949 . S
H2306 C2283 0.950 . S
H2307 C2285 0.950 . S
C2308 C2309 1.349 . S
C2308 C2310 1.327 . S
C2308 H2333 0.950 . S
C2309 C2308 1.349 . S
C2309 C2325 1.349 . S
C2310 C2308 1.327 . S
C2310 C2329 1.429 . S
C2310 H2334 0.950 . S
C2311 C2328 1.574 . S
C2311 C2330 1.368 . S
C2311 H2335 0.949 . S
H2312 C2316 0.949 . S
C2313 C2314 1.349 . S
C2313 C2315 1.327 . S
C2313 H2336 0.950 . S
C2314 C2313 1.349 . S
C2314 C2326 1.349 . S
C2315 C2313 1.327 . S
C2315 C2331 1.429 . S
C2315 H2337 0.950 . S
C2316 H2312 0.949 . S
C2316 C2324 1.574 . S
C2316 C2332 1.368 . S
H2317 C2325 0.950 . S
H2318 C2323 0.950 . S
H2319 C2324 0.949 . S
H2320 C2326 0.950 . S
H2321 C2327 0.950 . S
H2322 C2328 0.949 . S
C2323 H2318 0.950 . S
C2323 C2325 1.327 . S
C2323 C2329 1.429 . S
C2324 C2316 1.574 . S
C2324 H2319 0.949 . S
C2324 C2330 1.368 . S
C2325 C2309 1.349 . S
C2325 H2317 0.950 . S
C2325 C2323 1.327 . S
C2326 C2314 1.349 . S
C2326 H2320 0.950 . S
C2326 C2327 1.327 . S
C2327 H2321 0.950 . S
C2327 C2326 1.327 . S
C2327 C2331 1.429 . S
C2328 C2311 1.574 . S
C2328 H2322 0.949 . S
C2328 C2332 1.368 . S
C2329 C2310 1.429 . S
C2329 C2323 1.429 . S
C2329 C2330 1.523 . S
C2330 C2311 1.368 . S
C2330 C2324 1.368 . S
C2330 C2329 1.523 . S
C2331 C2315 1.429 . S
C2331 C2327 1.429 . S
C2331 C2332 1.523 . S
C2332 C2316 1.368 . S
C2332 C2328 1.368 . S
C2332 C2331 1.523 . S
H2333 C2308 0.950 . S
H2334 C2310 0.950 . S
H2335 C2311 0.949 . S
H2336 C2313 0.950 . S
H2337 C2315 0.950 . S
C2338 C2339 1.349 . S
C2338 C2340 1.327 . S
C2338 H2363 0.950 . S
C2339 C2338 1.349 . S
C2339 C2355 1.349 . S
C2340 C2338 1.327 . S
C2340 C2359 1.429 . S
C2340 H2364 0.950 . S
C2341 C2358 1.574 . S
C2341 C2360 1.368 . S
C2341 H2365 0.949 . S
H2342 C2346 0.949 . S
C2343 C2344 1.349 . S
C2343 C2345 1.327 . S
C2343 H2366 0.950 . S
C2344 C2343 1.349 . S
C2344 C2356 1.349 . S
C2345 C2343 1.327 . S
C2345 C2361 1.429 . S
C2345 H2367 0.950 . S
C2346 H2342 0.949 . S
C2346 C2354 1.574 . S
C2346 C2362 1.368 . S
H2347 C2355 0.950 . S
H2348 C2353 0.950 . S
H2349 C2354 0.949 . S
H2350 C2356 0.950 . S
H2351 C2357 0.950 . S
H2352 C2358 0.949 . S
C2353 H2348 0.950 . S
C2353 C2355 1.327 . S
C2353 C2359 1.429 . S
C2354 C2346 1.574 . S
C2354 H2349 0.949 . S
C2354 C2360 1.368 . S
C2355 C2339 1.349 . S
C2355 H2347 0.950 . S
C2355 C2353 1.327 . S
C2356 C2344 1.349 . S
C2356 H2350 0.950 . S
C2356 C2357 1.327 . S
C2357 H2351 0.950 . S
C2357 C2356 1.327 . S
C2357 C2361 1.429 . S
C2358 C2341 1.574 . S
C2358 H2352 0.949 . S
C2358 C2362 1.368 . S
C2359 C2340 1.429 . S
C2359 C2353 1.429 . S
C2359 C2360 1.523 . S
C2360 C2341 1.368 . S
C2360 C2354 1.368 . S
C2360 C2359 1.523 . S
C2361 C2345 1.429 . S
C2361 C2357 1.429 . S
C2361 C2362 1.523 . S
C2362 C2346 1.368 . S
C2362 C2358 1.368 . S
C2362 C2361 1.523 . S
H2363 C2338 0.950 . S
H2364 C2340 0.950 . S
H2365 C2341 0.949 . S
H2366 C2343 0.950 . S
H2367 C2345 0.950 . S
C449 C382 1.314 . S
C454 C12 1.315 . S
C479 C26 1.315 . S
C484 C116 1.314 . S
C509 C354 1.314 . S
C514 C40 1.315 . S
C539 C54 1.315 . S
C544 C144 1.314 . S
C569 C68 1.315 . S
C574 C410 1.314 . S
C599 C82 1.315 . S
C604 C200 1.313 . S
C629 C96 1.315 . S
C634 C438 1.314 . S
C659 C110 1.315 . S
C664 C172 1.313 . S
C689 C270 1.314 . S
C694 C124 1.315 . S
C719 C4 1.314 . S
C724 C138 1.315 . S
C749 C242 1.314 . S
C754 C152 1.315 . S
C779 C166 1.315 . S
C784 C32 1.314 . S
C809 C298 1.314 . S
C814 C180 1.315 . S
C839 C88 1.313 . S
C844 C194 1.315 . S
C869 C208 1.315 . S
C874 C326 1.314 . S
C899 C60 1.313 . S
C904 C222 1.315 . S
C929 C236 1.315 . S
C934 C158 1.314 . S
C959 C250 1.315 . S
C964 C340 1.314 . S
C989 C130 1.314 . S
C994 C264 1.315 . S
C1019 C368 1.314 . S
C1024 C278 1.316 . S
C1049 C186 1.314 . S
C1054 C292 1.315 . S
C1079 C424 1.314 . S
C1084 C306 1.315 . S
C1109 C214 1.314 . S
C1114 C320 1.315 . S
C1139 C334 1.315 . S
C1144 C396 1.314 . S
C1169 C46 1.314 . S
C1174 C348 1.315 . S
C1199 C362 1.315 . S
C1204 C228 1.314 . S
C1229 C376 1.315 . S
C1234 C18 1.314 . S
C1259 C390 1.316 . S
C1264 C256 1.314 . S
C1289 C404 1.315 . S
C1294 C74 1.314 . S
C1319 C418 1.315 . S
C1324 C312 1.314 . S
C1349 C432 1.315 . S
C1354 C102 1.314 . S
C1379 C446 1.315 . S
C1384 C284 1.314 . S
C1409 C347 1.491 . S
C1414 C11 1.491 . S
C1439 C25 1.491 . S
C1444 C137 1.491 . S
C1469 C375 1.491 . S
C1474 C39 1.491 . S
C1499 C53 1.490 . S
C1504 C165 1.490 . S
C1529 C403 1.491 . S
C1534 C67 1.491 . S
C1559 C81 1.490 . S
C1564 C193 1.490 . S
C1589 C431 1.491 . S
C1594 C95 1.491 . S
C1619 C109 1.491 . S
C1624 C221 1.491 . S
C1649 C123 1.491 . S
C1654 C235 1.491 . S
C1679 C151 1.491 . S
C1684 C263 1.491 . S
C1709 C179 1.491 . S
C1714 C291 1.491 . S
C1739 C207 1.491 . S
C1744 C319 1.491 . S
C1769 C249 1.490 . S
C1774 C361 1.490 . S
C1799 C389 1.490 . S
C1804 C277 1.490 . S
C1829 C417 1.490 . S
C1834 C305 1.490 . S
C1859 C333 1.490 . S
C1864 C445 1.490 . S
C1889 C5 0.801 . S
C1894 C75 0.801 . S
C1919 C19 0.801 . S
C1924 C89 0.801 . S
C1949 C33 0.801 . S
C1954 C103 0.801 . S
C1979 C61 0.801 . S
C1984 C47 0.801 . S
C2009 C117 0.801 . S
C2014 C187 0.801 . S
C2039 C131 0.801 . S
C2044 C201 0.801 . S
C2069 C145 0.801 . S
C2074 C215 0.801 . S
C2099 C159 0.801 . S
C2104 C173 0.801 . S
C2129 C229 0.801 . S
C2134 C299 0.801 . S
C2159 C313 0.801 . S
C2164 C243 0.801 . S
C2189 C257 0.801 . S
C2194 C327 0.801 . S
C2219 C271 0.801 . S
C2224 C285 0.801 . S
C2249 C411 0.801 . S
C2254 C341 0.801 . S
C2279 C355 0.801 . S
C2284 C425 0.801 . S
C2309 C439 0.801 . S
C2314 C369 0.801 . S
C2339 C383 0.801 . S
C2344 C397 0.801 . S
