# Generated by pormake.
# Topology snp, (6)-cn, num edge types: 1
# Building blocks:
#     Node 0, Type 0, BuildingBlock: MIFKUJ_clean_sbu_0, # of connection points: 6
#     Node 1, Type 0, BuildingBlock: MIFKUJ_clean_sbu_0, # of connection points: 6
#     Node 2, Type 0, BuildingBlock: MIFKUJ_clean_sbu_0, # of connection points: 6
#     Node 3, Type 0, BuildingBlock: MIFKUJ_clean_sbu_0, # of connection points: 6
#     Edge 4, Type (0, 0), BuildingBlock: FUNLAD_clean_linker_0, # of connection points: 2
#     Edge 5, Type (0, 0), BuildingBlock: FUNLAD_clean_linker_0, # of connection points: 2
#     Edge 6, Type (0, 0), BuildingBlock: FUNLAD_clean_linker_0, # of connection points: 2
#     Edge 7, Type (0, 0), BuildingBlock: FUNLAD_clean_linker_0, # of connection points: 2
#     Edge 8, Type (0, 0), BuildingBlock: FUNLAD_clean_linker_0, # of connection points: 2
#     Edge 9, Type (0, 0), BuildingBlock: FUNLAD_clean_linker_0, # of connection points: 2
#     Edge 10, Type (0, 0), BuildingBlock: FUNLAD_clean_linker_0, # of connection points: 2
#     Edge 11, Type (0, 0), BuildingBlock: FUNLAD_clean_linker_0, # of connection points: 2
#     Edge 12, Type (0, 0), BuildingBlock: FUNLAD_clean_linker_0, # of connection points: 2
#     Edge 13, Type (0, 0), BuildingBlock: FUNLAD_clean_linker_0, # of connection points: 2
#     Edge 14, Type (0, 0), BuildingBlock: FUNLAD_clean_linker_0, # of connection points: 2
#     Edge 15, Type (0, 0), BuildingBlock: FUNLAD_clean_linker_0, # of connection points: 2
# Relax obj value: 0.286
# Max RMSD: 0.223
# Mean RMSD: 0.223
data_MOF--net-snp--node1-MIFKUJ_clean_sbu_0--edge1-FUNLAD_clean_linker_0
_symmetry_space_group_name_H-M    P1
_symmetry_Int_Tables_number       1
_symmetry_cell_setting            triclinic
loop_
_symmetry_equiv_pos_as_xyz
'x, y, z'
_cell_length_a     27.685913
_cell_length_b     27.441406
_cell_length_c     34.963331
_cell_angle_alpha  90.07166
_cell_angle_beta   90.048271
_cell_angle_gamma 89.686158
loop_
_atom_site_label
_atom_site_type_symbol
_atom_site_fract_x
_atom_site_fract_y
_atom_site_fract_z
_atom_type_partial_charge
Zn0 Zn 0.29207 0.9755 0.05556 0.0
Zn1 Zn 0.32109 0.95516 0.9352 0.0
C2 C 0.24013 0.94035 0.11505 0.0
O3 O 0.22544 0.98538 0.10932 0.0
C4 C 0.36066 0.01254 0.87399 0.0
O5 O 0.38105 0.97069 0.8651 0.0
O6 O 0.31176 0.03266 0.08882 0.0
O7 O 0.34588 0.95653 0.01771 0.0
O8 O 0.38233 0.9376 0.9638 0.0
C9 C 0.3412 0.02254 0.11569 0.0
O10 O 0.35989 0.97845 0.11718 0.0
O11 O 0.27256 0.92285 0.09307 0.0
C12 C 0.26597 0.92015 0.87474 0.0
O13 O 0.25572 0.9669 0.87543 0.0
O14 O 0.29462 0.90304 0.8999 0.0
O15 O 0.27448 0.97319 0.97583 0.0
O16 O 0.2304 0.98989 0.02528 0.0
O17 O 0.33455 0.01519 0.90382 0.0
C18 C 0.38474 0.94734 0.99949 0.0
C19 C 0.23357 0.98384 0.98938 0.0
Zn20 Zn 0.15073 0.29726 0.56389 0.0
Zn21 Zn 0.18811 0.30167 0.44585 0.0
C22 C 0.1869 0.25529 0.62836 0.0
O23 O 0.14242 0.23932 0.62503 0.0
C24 C 0.0977 0.31713 0.4033 0.0
O25 O 0.0984 0.36147 0.41747 0.0
O26 O 0.09099 0.31884 0.59285 0.0
O27 O 0.1657 0.34405 0.52059 0.0
O28 O 0.18393 0.37229 0.46401 0.0
C29 C 0.09375 0.34534 0.62265 0.0
O30 O 0.13601 0.36247 0.63302 0.0
O31 O 0.2034 0.28331 0.60255 0.0
C32 C 0.26019 0.24435 0.40823 0.0
O33 O 0.24253 0.21094 0.43104 0.0
O34 O 0.24584 0.28814 0.41216 0.0
O35 O 0.18434 0.26129 0.49354 0.0
O36 O 0.13464 0.23447 0.53673 0.0
O37 O 0.13079 0.28705 0.4125 0.0
C38 C 0.17051 0.38028 0.4984 0.0
C39 C 0.15189 0.23123 0.50316 0.0
Zn40 Zn 0.83064 0.13334 0.062 0.0
Zn41 Zn 0.82397 0.17942 0.94707 0.0
C42 C 0.89735 0.1628 0.11467 0.0
O43 O 0.9097 0.11794 0.10564 0.0
C44 C 0.78773 0.10609 0.89382 0.0
O45 O 0.74622 0.12875 0.89843 0.0
O46 O 0.80137 0.0813 0.0951 0.0
O47 O 0.78239 0.16007 0.02317 0.0
O48 O 0.7558 0.18865 0.96845 0.0
C49 C 0.77824 0.09398 0.12493 0.0
O50 O 0.77105 0.14058 0.1316 0.0
O51 O 0.86122 0.18206 0.09786 0.0
C52 C 0.83177 0.24887 0.88638 0.0
O53 O 0.79141 0.22787 0.87569 0.0
O54 O 0.85096 0.23641 0.91797 0.0
O55 O 0.86394 0.16322 0.99255 0.0
O56 O 0.88358 0.10324 0.02987 0.0
O57 O 0.82472 0.12116 0.91177 0.0
C58 C 0.74726 0.17436 0.00256 0.0
C59 C 0.88737 0.12399 0.99761 0.0
Zn60 Zn 0.95124 0.82503 0.56377 0.0
Zn61 Zn 0.92427 0.82123 0.44198 0.0
C62 C 0.92298 0.85496 0.63457 0.0
O63 O 0.96476 0.87589 0.62817 0.0
C64 C 0.988 0.79979 0.37827 0.0
O65 O 0.95395 0.76884 0.36885 0.0
O66 O 0.01732 0.80882 0.58545 0.0
O67 O 0.93498 0.77882 0.51946 0.0
O68 O 0.91767 0.75234 0.46182 0.0
C69 C 0.02152 0.77991 0.61372 0.0
O70 O 0.98313 0.75664 0.62587 0.0
O71 O 0.90486 0.8279 0.60869 0.0
C72 C 0.84487 0.88359 0.41693 0.0
O73 O 0.85558 0.90912 0.44753 0.0
O74 O 0.86735 0.8439 0.41059 0.0
O75 O 0.93708 0.86149 0.48812 0.0
O76 O 0.95309 0.89431 0.54295 0.0
O77 O 0.9832 0.8251 0.40852 0.0
C78 C 0.92771 0.74326 0.49675 0.0
C79 C 0.94554 0.89947 0.50737 0.0
C80 C 0.92701 0.05151 0.96848 0.0
C81 C 0.91589 0.10132 0.96677 0.0
C82 C 0.96317 0.03189 0.94537 0.0
C83 C -0.01058 0.062 0.92027 0.0
C84 C 0.97456 0.11072 0.91577 0.0
C85 C 0.93782 0.13022 0.93869 0.0
C86 C 0.03827 0.04758 0.90646 0.0
C87 C 0.0548 0.00145 0.90844 0.0
C88 C 0.10385 0.99157 0.92345 0.0
C89 C 0.10811 0.95877 0.95403 0.0
C90 C 0.15074 0.95601 0.97513 0.0
C91 C 0.19033 0.98487 0.96521 0.0
H92 H 0.14205 0.04431 0.88873 0.0
C93 C 0.18751 0.01533 0.93309 0.0
C94 C 0.14431 0.01899 0.91241 0.0
H95 H 0.21795 0.03775 0.92505 0.0
H96 H 0.91004 0.02828 0.98954 0.0
H97 H 0.97313 -0.0057 0.95031 0.0
H98 H -0.00597 0.13479 0.89676 0.0
H99 H 0.92958 0.16876 0.93665 0.0
H100 H 0.0641 0.07707 0.9037 0.0
H101 H 0.02922 0.9717 0.91008 0.0
H102 H 0.07736 0.9375 0.96322 0.0
H103 H 0.15252 0.93195 0.99965 0.0
C104 C 0.96561 0.95226 0.45123 0.0
C105 C 0.95005 0.94766 0.4893 0.0
C106 C 0.97659 -0.00177 0.43632 0.0
C107 C 0.97131 0.04011 0.45921 0.0
C108 C 0.95187 0.03556 0.49607 0.0
C109 C 0.94196 0.98976 0.51117 0.0
C110 C -0.00918 0.08819 0.44809 0.0
C111 C 0.03375 0.09248 0.43027 0.0
C112 C 0.06578 0.13466 0.43795 0.0
C113 C 0.11558 0.12575 0.44185 0.0
C114 C 0.14508 0.15952 0.46038 0.0
C115 C 0.1252 0.20283 0.47473 0.0
H116 H 0.00953 0.18973 0.44425 0.0
C117 C 0.07669 0.21419 0.46722 0.0
C118 C 0.0473 0.18073 0.44831 0.0
H119 H 0.06092 0.2478 0.47786 0.0
H120 H 0.97164 0.92028 0.43367 0.0
H121 H -0.00941 0.00077 0.40749 0.0
H122 H 0.94721 0.06729 0.51422 0.0
H123 H 0.92929 0.9872 0.54042 0.0
H124 H 0.97566 0.11939 0.46307 0.0
H125 H 0.0505 0.06019 0.41793 0.0
H126 H 0.13086 0.09075 0.43386 0.0
H127 H 0.1823 0.14987 0.4664 0.0
C128 C 0.66344 0.14962 0.98631 0.0
C129 C 0.69776 0.16175 0.01425 0.0
C130 C 0.62154 0.12493 0.99657 0.0
C131 C 0.61301 0.11257 0.03496 0.0
C132 C 0.64478 0.12897 0.06331 0.0
C133 C 0.68719 0.15303 0.05297 0.0
C134 C 0.57231 0.0805 0.04506 0.0
C135 C 0.56433 0.03953 0.02483 0.0
C136 C 0.52042 0.00893 0.02761 0.0
C137 C 0.51837 0.96647 0.00517 0.0
C138 C 0.47452 0.94285 0.99907 0.0
C139 C 0.43195 0.96111 0.01554 0.0
H140 H 0.47814 0.05692 0.06448 0.0
C141 C 0.43476 0.00058 0.04101 0.0
C142 C 0.47855 0.02437 0.04706 0.0
H143 H 0.40239 0.01632 0.05316 0.0
H144 H 0.67047 0.15593 0.95625 0.0
H145 H 0.59669 0.11377 0.9743 0.0
H146 H 0.63835 0.12052 0.09314 0.0
H147 H 0.71283 0.16269 0.07502 0.0
H148 H 0.55001 0.09045 0.06934 0.0
H149 H 0.59045 0.02939 0.00292 0.0
H150 H 0.55009 0.9535 0.99004 0.0
H151 H 0.47335 0.91252 0.97922 0.0
C152 C 0.1349 0.46059 0.48046 0.0
C153 C 0.14968 0.42796 0.50912 0.0
C154 C 0.10633 0.50088 0.48964 0.0
C155 C 0.09238 0.50958 0.52769 0.0
C156 C 0.11031 0.47933 0.55674 0.0
C157 C 0.1384 0.43847 0.54747 0.0
C158 C 0.0587 0.54989 0.53693 0.0
C159 C 0.0195 0.5582 0.51497 0.0
C160 C 0.98849 0.60251 0.51678 0.0
C161 C 0.95431 0.60937 0.48754 0.0
C162 C 0.93112 0.65421 0.4829 0.0
C163 C 0.94139 0.6931 0.50765 0.0
H164 H 0.02022 0.63626 0.56732 0.0
C165 C 0.97176 0.68485 0.53918 0.0
C166 C -0.00477 0.64002 0.54377 0.0
H167 H 0.98024 0.7141 0.55869 0.0
H168 H 0.14319 0.45371 0.45066 0.0
H169 H 0.09424 0.52469 0.46682 0.0
H170 H 0.10072 0.48599 0.58634 0.0
H171 H 0.14995 0.41422 0.5701 0.0
H172 H 0.06695 0.5724 0.56153 0.0
H173 H 0.01184 0.53251 0.49204 0.0
H174 H 0.94774 0.58097 0.46662 0.0
H175 H 0.90745 0.65926 0.45851 0.0
C176 C 0.30016 0.18032 0.36812 0.0
C177 C 0.28715 0.22941 0.37348 0.0
C178 C 0.31701 0.16392 0.33268 0.0
C179 C 0.32156 0.19639 0.30172 0.0
C180 C 0.31098 0.24593 0.30772 0.0
C181 C 0.29425 0.26238 0.34326 0.0
C182 C 0.33144 0.17893 0.26209 0.0
C183 C 0.35306 0.13593 0.25428 0.0
C184 C 0.35449 0.11295 0.21565 0.0
C185 C 0.38559 0.07305 0.20989 0.0
C186 C 0.38304 0.04534 0.17643 0.0
C187 C 0.34912 0.05677 0.14785 0.0
H188 H 0.29676 0.15571 0.18951 0.0
C189 C 0.31967 0.09822 0.15255 0.0
C190 C 0.32212 0.12593 0.18615 0.0
H191 H 0.29298 0.10784 0.13115 0.0
H192 H 0.29501 0.15392 0.39073 0.0
H193 H 0.32355 0.12528 0.32928 0.0
H194 H 0.31392 0.27174 0.28442 0.0
H195 H 0.28447 0.30045 0.34635 0.0
H196 H 0.319 0.20188 0.23879 0.0
H197 H 0.3694 0.11539 0.27749 0.0
H198 H 0.41081 0.06206 0.23203 0.0
H199 H 0.40646 0.01379 0.17365 0.0
C200 C 0.05544 0.37662 0.68288 0.0
C201 C 0.05183 0.34972 0.64876 0.0
C202 C 0.0186 0.37499 0.71022 0.0
C203 C 0.9775 0.34593 0.70414 0.0
C204 C 0.9726 0.32174 0.66892 0.0
C205 C 0.00932 0.32351 0.64156 0.0
C206 C 0.94024 0.33757 0.73415 0.0
C207 C 0.94844 0.34354 0.77194 0.0
C208 C 0.91528 0.32547 0.8023 0.0
C209 C 0.93442 0.31612 0.83881 0.0
C210 C 0.90653 0.29353 0.8669 0.0
C211 C 0.85866 0.27987 0.85914 0.0
H212 H 0.84934 0.32334 0.76837 0.0
C213 C 0.83841 0.29216 0.82353 0.0
C214 C 0.86628 0.31496 0.79546 0.0
H215 H 0.80139 0.28283 0.81683 0.0
H216 H 0.08739 0.39784 0.68905 0.0
H217 H 0.02308 0.3959 0.73619 0.0
H218 H 0.94112 0.29962 0.66313 0.0
H219 H 0.00513 0.30266 0.61545 0.0
H220 H 0.90697 0.32061 0.72477 0.0
H221 H 0.98316 0.35709 0.78146 0.0
H222 H 0.97182 0.32437 0.84516 0.0
H223 H 0.92322 0.2849 0.89411 0.0
C224 C 0.80226 0.87772 0.35384 0.0
C225 C 0.81395 0.9049 0.38664 0.0
C226 C 0.78029 0.90015 0.32238 0.0
C227 C 0.77018 0.95052 0.3229 0.0
C228 C 0.77847 0.97666 0.35684 0.0
C229 C 0.80012 0.95417 0.38837 0.0
C230 C 0.75462 0.97812 0.28829 0.0
C231 C 0.76155 0.96202 0.25217 0.0
C232 C 0.75815 -0.00611 0.21776 0.0
C233 C 0.78229 0.97906 0.18434 0.0
C234 C 0.78652 0.01056 0.15318 0.0
C235 C 0.76666 0.05772 0.15477 0.0
H236 H 0.71402 0.05196 0.24239 0.0
C237 C 0.73942 0.07133 0.18698 0.0
C238 C 0.73485 0.03968 0.21806 0.0
H239 H 0.72284 0.10711 0.18874 0.0
H240 H 0.81164 0.83942 0.3519 0.0
H241 H 0.77258 0.87796 0.29758 0.0
H242 H 0.77045 0.01531 0.35838 0.0
H243 H 0.80824 0.97611 0.4133 0.0
H244 H 0.74286 0.01538 0.29302 0.0
H245 H 0.77619 0.92577 0.24755 0.0
H246 H 0.80004 0.9438 0.18296 0.0
H247 H 0.80742 -0.00125 0.12865 0.0
C248 C 0.06615 0.75882 0.6738 0.0
C249 C 0.06571 0.781 0.63757 0.0
C250 C 0.10351 0.7681 0.6997 0.0
C251 C 0.14152 0.79953 0.68971 0.0
C252 C 0.14285 0.81847 0.65241 0.0
C253 C 0.10541 0.80936 0.62661 0.0
C254 C 0.17613 0.81926 0.71835 0.0
C255 C 0.18036 0.8036 0.75476 0.0
C256 C 0.20508 0.83314 0.78447 0.0
C257 C 0.22738 0.81037 0.8159 0.0
C258 C 0.24807 0.8383 0.84523 0.0
C259 C 0.24572 0.88947 0.84392 0.0
H260 H 0.18456 0.90323 0.76035 0.0
C261 C 0.22303 0.91202 0.8126 0.0
C262 C 0.203 0.88431 0.78331 0.0
H263 H 0.2204 0.95135 0.8107 0.0
H264 H 0.03618 0.73659 0.68312 0.0
H265 H 0.10056 0.75284 0.72806 0.0
H266 H 0.17165 0.84267 0.64379 0.0
H267 H 0.1064 0.82671 0.59881 0.0
H268 H 0.19677 0.85096 0.70965 0.0
H269 H 0.16395 0.76971 0.76373 0.0
H270 H 0.22872 0.77098 0.81777 0.0
H271 H 0.26511 0.81993 0.86913 0.0
C272 C 0.83596 0.0394 0.86294 0.0
C273 C 0.7923 0.06543 0.86614 0.0
C274 C 0.84163 0.00339 0.835 0.0
C275 C 0.80364 0.99241 0.80962 0.0
C276 C 0.75977 0.01786 0.81329 0.0
C277 C 0.75397 0.05372 0.84144 0.0
C278 C 0.81053 0.9587 0.77666 0.0
C279 C 0.84366 0.92257 0.77655 0.0
C280 C 0.86011 0.89773 0.74108 0.0
C281 C 0.90871 0.88341 0.73894 0.0
C282 C 0.92826 0.86704 0.70452 0.0
C283 C 0.89932 0.86335 0.6717 0.0
H284 H 0.79226 0.90068 0.70977 0.0
C285 C 0.84975 0.87374 0.67433 0.0
C286 C 0.83024 0.89123 0.70879 0.0
H287 H 0.8268 0.87111 0.64931 0.0
H288 H 0.86628 0.04761 0.88143 0.0
H289 H 0.8766 0.98593 0.83244 0.0
H290 H 0.73014 0.01059 0.79388 0.0
H291 H 0.71989 0.07317 0.84309 0.0
H292 H 0.78985 0.96636 0.75094 0.0
H293 H 0.86385 0.91485 0.80251 0.0
H294 H 0.93241 0.88758 0.7634 0.0
H295 H 0.96657 0.85882 0.70322 0.0
C296 C 0.19102 0.9369 0.1744 0.0
C297 C 0.21901 0.91223 0.14695 0.0
C298 C 0.1688 0.91163 0.20397 0.0
C299 C 0.17405 0.86082 0.2071 0.0
C300 C 0.20197 0.8359 0.17968 0.0
C301 C 0.22474 0.86146 0.15002 0.0
C302 C 0.14756 0.83348 0.23714 0.0
C303 C 0.13735 0.85359 0.27144 0.0
C304 C 0.10289 0.83335 0.29985 0.0
C305 C 0.10133 0.85462 0.33639 0.0
C306 C 0.0651 0.84237 0.36234 0.0
C307 C 0.02934 0.80853 0.35234 0.0
H308 H 0.06744 0.78119 0.26235 0.0
C309 C 0.03197 0.78555 0.31642 0.0
C310 C 0.06825 0.79791 0.29035 0.0
H311 H 0.00496 0.75931 0.30784 0.0
H312 H 0.18568 0.97599 0.17291 0.0
H313 H 0.14622 0.93203 0.22361 0.0
H314 H 0.20602 0.79666 0.18116 0.0
H315 H 0.24587 0.84145 0.12914 0.0
H316 H 0.13556 0.79692 0.23032 0.0
H317 H 0.1538 0.88826 0.27874 0.0
H318 H 0.12734 0.88214 0.3445 0.0
H319 H 0.06433 0.86063 0.38982 0.0
C320 C 0.26596 0.24035 0.66221 0.0
C321 C 0.21522 0.24187 0.66256 0.0
C322 C 0.29144 0.22324 0.69427 0.0
C323 C 0.26636 0.20814 0.72722 0.0
C324 C 0.21589 0.21224 0.72797 0.0
C325 C 0.1906 0.2284 0.69596 0.0
C326 C 0.29047 0.18604 0.76098 0.0
C327 C 0.33126 0.15915 0.75888 0.0
C328 C 0.34652 0.1261 0.79045 0.0
C329 C 0.3707 0.08255 0.78125 0.0
C330 C 0.3779 0.04655 0.80898 0.0
C331 C 0.36109 0.05353 0.84653 0.0
H332 H 0.31699 0.16881 0.83749 0.0
C333 C 0.34056 0.09872 0.85649 0.0
C334 C 0.33371 0.13482 0.82884 0.0
H335 H 0.32816 0.10563 0.88538 0.0
H336 H 0.28577 0.25088 0.63685 0.0
H337 H 0.33047 0.22162 0.69308 0.0
H338 H 0.19566 0.20126 0.75302 0.0
H339 H 0.15152 0.22987 0.6973 0.0
H340 H 0.26977 0.18608 0.78734 0.0
H341 H 0.34968 0.15546 0.73161 0.0
H342 H 0.38159 0.07511 0.75205 0.0
H343 H 0.39433 0.01233 0.80045 0.0
C344 C 0.90253 0.22674 0.16619 0.0
C345 C 0.92339 0.18775 0.14587 0.0
C346 C 0.92569 0.24585 0.19857 0.0
C347 C 0.97029 0.22634 0.21091 0.0
C348 C -0.00818 0.18896 0.18934 0.0
C349 C 0.96864 0.16975 0.15742 0.0
C350 C -0.00429 0.24215 0.24627 0.0
C351 C 0.97666 0.27031 0.27409 0.0
C352 C 0.00418 0.28075 0.30961 0.0
C353 C 0.00118 0.327 0.3266 0.0
C354 C 0.03028 0.33854 0.35809 0.0
C355 C 0.06241 0.30372 0.37334 0.0
H356 H 0.03573 0.20842 0.31492 0.0
C357 C 0.06292 0.25647 0.35781 0.0
C358 C 0.03409 0.24508 0.32637 0.0
H359 H 0.08654 0.22847 0.3693 0.0
H360 H 0.86766 0.24135 0.15785 0.0
H361 H 0.9082 0.27533 0.2138 0.0
H362 H 0.02629 0.17346 0.1978 0.0
H363 H 0.98592 0.14002 0.14217 0.0
H364 H 0.03223 0.2282 0.25016 0.0
H365 H 0.94127 0.2869 0.27087 0.0
H366 H 0.97776 0.3548 0.31459 0.0
H367 H 0.0287 0.37515 0.36965 0.0
loop_
_geom_bond_atom_site_label_1
_geom_bond_atom_site_label_2
_geom_bond_distance
_geom_bond_site_symmetry_2
_ccdc_geom_bond_type
Zn0 O6 1.969 . S
Zn0 O7 1.965 . S
Zn0 O11 2.024 1_545 S
Zn0 O16 1.969 . S
Zn1 O8 1.969 . S
Zn1 O14 1.969 . S
Zn1 O15 1.965 . S
Zn1 O17 2.024 1_565 S
C2 O3 1.229 . S
C2 O11 1.058 . S
O3 C2 1.229 . S
C4 O5 1.229 . S
C4 O17 1.058 . S
O5 C4 1.229 . S
O6 Zn0 1.969 . S
O6 C9 1.267 . S
O7 Zn0 1.965 . S
O7 C18 1.265 1_554 S
O8 Zn1 1.969 . S
O8 C18 1.256 1_565 S
C9 O6 1.267 . S
C9 O10 1.228 . S
O10 C9 1.228 . S
O11 Zn0 2.024 1_565 S
O11 C2 1.058 . S
C12 O13 1.228 . S
C12 O14 1.267 . S
O13 C12 1.228 . S
O14 Zn1 1.969 . S
O14 C12 1.267 . S
O15 Zn1 1.965 . S
O15 C19 1.262 1_556 S
O16 Zn0 1.969 . S
O16 C19 1.257 1_545 S
O17 Zn1 2.024 1_545 S
O17 C4 1.058 . S
C18 O7 1.265 1_556 S
C18 O8 1.256 1_545 S
C19 O15 1.262 1_554 S
C19 O16 1.257 1_565 S
Zn20 O26 1.969 . S
Zn20 O27 1.965 . S
Zn20 O31 2.024 . S
Zn20 O36 1.969 . S
Zn21 O28 1.969 . S
Zn21 O34 1.969 . S
Zn21 O35 1.965 . S
Zn21 O37 2.024 . S
C22 O23 1.229 . S
C22 O31 1.058 . S
O23 C22 1.229 . S
C24 O25 1.229 . S
C24 O37 1.058 . S
O25 C24 1.229 . S
O26 Zn20 1.969 . S
O26 C29 1.267 . S
O27 Zn20 1.965 . S
O27 C38 1.260 . S
O28 Zn21 1.969 . S
O28 C38 1.258 . S
C29 O26 1.267 . S
C29 O30 1.228 . S
O30 C29 1.228 . S
O31 Zn20 2.024 . S
O31 C22 1.058 . S
C32 O33 1.228 . S
C32 O34 1.267 . S
O33 C32 1.228 . S
O34 Zn21 1.969 . S
O34 C32 1.267 . S
O35 Zn21 1.965 . S
O35 C39 1.260 . S
O36 Zn20 1.969 . S
O36 C39 1.258 . S
O37 Zn21 2.024 . S
O37 C24 1.058 . S
C38 O27 1.260 . S
C38 O28 1.258 . S
C39 O35 1.260 . S
C39 O36 1.258 . S
Zn40 O46 1.969 . S
Zn40 O47 1.965 . S
Zn40 O51 2.024 . S
Zn40 O56 1.969 . S
Zn41 O48 1.969 . S
Zn41 O54 1.969 . S
Zn41 O55 1.965 . S
Zn41 O57 2.024 . S
C42 O43 1.229 . S
C42 O51 1.058 . S
O43 C42 1.229 . S
C44 O45 1.229 . S
C44 O57 1.058 . S
O45 C44 1.229 . S
O46 Zn40 1.969 . S
O46 C49 1.267 . S
O47 Zn40 1.965 . S
O47 C58 1.260 1_554 S
O48 Zn41 1.969 . S
O48 C58 1.258 . S
C49 O46 1.267 . S
C49 O50 1.228 . S
O50 C49 1.228 . S
O51 Zn40 2.024 . S
O51 C42 1.058 . S
C52 O53 1.228 . S
C52 O54 1.267 . S
O53 C52 1.228 . S
O54 Zn41 1.969 . S
O54 C52 1.267 . S
O55 Zn41 1.965 . S
O55 C59 1.260 1_556 S
O56 Zn40 1.969 . S
O56 C59 1.258 . S
O57 Zn41 2.024 . S
O57 C44 1.058 . S
C58 O47 1.260 1_556 S
C58 O48 1.258 . S
C59 O55 1.260 1_554 S
C59 O56 1.258 . S
Zn60 O66 1.969 . S
Zn60 O67 1.965 . S
Zn60 O71 2.024 1_455 S
Zn60 O76 1.969 . S
Zn61 O68 1.969 . S
Zn61 O74 1.969 . S
Zn61 O75 1.965 . S
Zn61 O77 2.024 1_655 S
C62 O63 1.229 . S
C62 O71 1.058 . S
O63 C62 1.229 . S
C64 O65 1.229 . S
C64 O77 1.058 . S
O65 C64 1.229 . S
O66 Zn60 1.969 . S
O66 C69 1.267 . S
O67 Zn60 1.965 . S
O67 C78 1.265 . S
O68 Zn61 1.969 . S
O68 C78 1.256 1_655 S
C69 O66 1.267 . S
C69 O70 1.228 . S
O70 C69 1.228 . S
O71 Zn60 2.024 1_655 S
O71 C62 1.058 . S
C72 O73 1.228 . S
C72 O74 1.267 . S
O73 C72 1.228 . S
O74 Zn61 1.969 . S
O74 C72 1.267 . S
O75 Zn61 1.965 . S
O75 C79 1.263 . S
O76 Zn60 1.969 . S
O76 C79 1.257 1_455 S
O77 Zn61 2.024 1_455 S
O77 C64 1.058 . S
C78 O67 1.265 . S
C78 O68 1.256 1_455 S
C79 O75 1.263 . S
C79 O76 1.257 1_655 S
C80 C81 1.386 1_554 S
C80 C82 1.383 1_554 S
C80 H96 0.951 . S
C81 C80 1.386 1_556 S
C81 C85 1.383 . S
C82 C80 1.383 1_556 S
C82 C83 1.402 1_655 S
C82 H97 0.951 1_556 S
C83 C82 1.402 1_455 S
C83 C84 1.375 . S
C83 C86 1.481 . S
C84 C83 1.375 . S
C84 C85 1.367 1_455 S
C84 H98 0.951 . S
C85 C81 1.383 . S
C85 C84 1.367 1_655 S
C85 H99 0.950 . S
C86 C83 1.481 . S
C86 C87 1.297 . S
C86 H100 0.950 . S
C87 C86 1.297 . S
C87 C88 1.479 . S
C87 H101 0.950 . S
C88 C87 1.479 . S
C88 C89 1.375 1_545 S
C88 C94 1.404 . S
C89 C88 1.375 1_565 S
C89 C90 1.369 1_556 S
C89 H102 0.950 1_556 S
C90 C89 1.369 1_554 S
C90 C91 1.392 1_554 S
C90 H103 0.951 . S
C91 C90 1.392 1_556 S
C91 C93 1.384 1_565 S
H92 C94 0.949 . S
C93 C91 1.384 1_545 S
C93 C94 1.385 . S
C93 H95 0.950 . S
C94 C88 1.404 . S
C94 H92 0.949 . S
C94 C93 1.385 . S
H95 C93 0.950 . S
H96 C80 0.951 . S
H97 C82 0.951 1_554 S
H98 C84 0.951 . S
H99 C85 0.950 . S
H100 C86 0.950 . S
H101 C87 0.950 . S
H102 C89 0.950 1_554 S
H103 C90 0.951 . S
C104 C105 1.386 1_455 S
C104 C106 1.383 . S
C104 H120 0.951 . S
C105 C104 1.386 1_655 S
C105 C109 1.383 . S
C106 C104 1.383 . S
C106 C107 1.402 1_565 S
C106 H121 0.951 . S
C107 C106 1.402 1_545 S
C107 C108 1.375 1_455 S
C107 C110 1.481 . S
C108 C107 1.375 1_655 S
C108 C109 1.367 1_545 S
C108 H122 0.951 . S
C109 C105 1.383 . S
C109 C108 1.367 1_565 S
C109 H123 0.950 . S
C110 C107 1.481 . S
C110 C111 1.297 . S
C110 H124 0.950 . S
C111 C110 1.297 . S
C111 C112 1.479 . S
C111 H125 0.950 . S
C112 C111 1.479 . S
C112 C113 1.375 . S
C112 C118 1.404 . S
C113 C112 1.375 . S
C113 C114 1.369 . S
C113 H126 0.950 . S
C114 C113 1.369 . S
C114 C115 1.392 . S
C114 H127 0.951 . S
C115 C114 1.392 . S
C115 C117 1.384 . S
H116 C118 0.949 . S
C117 C115 1.384 . S
C117 C118 1.385 . S
C117 H119 0.950 . S
C118 C112 1.404 . S
C118 H116 0.949 . S
C118 C117 1.385 . S
H119 C117 0.950 . S
H120 C104 0.951 . S
H121 C106 0.951 . S
H122 C108 0.951 . S
H123 C109 0.950 . S
H124 C110 0.950 . S
H125 C111 0.950 . S
H126 C113 0.950 . S
H127 C114 0.951 . S
C128 C129 1.386 1_556 S
C128 C130 1.383 . S
C128 H144 0.951 . S
C129 C128 1.386 1_554 S
C129 C133 1.383 . S
C130 C128 1.383 . S
C130 C131 1.402 1_556 S
C130 H145 0.951 . S
C131 C130 1.402 1_554 S
C131 C132 1.375 . S
C131 C134 1.481 . S
C132 C131 1.375 . S
C132 C133 1.367 . S
C132 H146 0.951 . S
C133 C129 1.383 . S
C133 C132 1.367 . S
C133 H147 0.950 . S
C134 C131 1.481 . S
C134 C135 1.297 . S
C134 H148 0.950 . S
C135 C134 1.297 . S
C135 C136 1.479 . S
C135 H149 0.950 1_554 S
C136 C135 1.479 . S
C136 C137 1.375 1_554 S
C136 C142 1.404 . S
C137 C136 1.375 1_556 S
C137 C138 1.369 1_545 S
C137 H150 0.952 . S
C138 C137 1.369 1_565 S
C138 C139 1.392 1_556 S
C138 H151 0.951 . S
C139 C138 1.392 1_554 S
C139 C141 1.384 1_565 S
H140 C142 0.949 . S
C141 C139 1.384 1_545 S
C141 C142 1.385 . S
C141 H143 0.950 . S
C142 C136 1.404 . S
C142 H140 0.949 . S
C142 C141 1.385 . S
H143 C141 0.950 . S
H144 C128 0.951 . S
H145 C130 0.951 . S
H146 C132 0.951 . S
H147 C133 0.950 . S
H148 C134 0.950 . S
H149 C135 0.950 1_556 S
H150 C137 0.952 . S
H151 C138 0.951 . S
C152 C153 1.386 . S
C152 C154 1.383 . S
C152 H168 0.951 . S
C153 C152 1.386 . S
C153 C157 1.383 . S
C154 C152 1.383 . S
C154 C155 1.402 . S
C154 H169 0.951 . S
C155 C154 1.402 . S
C155 C156 1.375 . S
C155 C158 1.481 . S
C156 C155 1.375 . S
C156 C157 1.367 . S
C156 H170 0.951 . S
C157 C153 1.383 . S
C157 C156 1.367 . S
C157 H171 0.950 . S
C158 C155 1.481 . S
C158 C159 1.297 . S
C158 H172 0.950 . S
C159 C158 1.297 . S
C159 C160 1.479 . S
C159 H173 0.950 . S
C160 C159 1.479 . S
C160 C161 1.375 . S
C160 C166 1.404 . S
C161 C160 1.375 . S
C161 C162 1.369 . S
C161 H174 0.950 . S
C162 C161 1.369 . S
C162 C163 1.392 1_455 S
C162 H175 0.951 1_455 S
C163 C162 1.392 1_655 S
C163 C165 1.384 . S
H164 C166 0.949 . S
C165 C163 1.384 . S
C165 C166 1.385 1_655 S
C165 H167 0.950 . S
C166 C160 1.404 . S
C166 H164 0.949 . S
C166 C165 1.385 1_455 S
H167 C165 0.950 . S
H168 C152 0.951 . S
H169 C154 0.951 . S
H170 C156 0.951 . S
H171 C157 0.950 . S
H172 C158 0.950 . S
H173 C159 0.950 . S
H174 C161 0.950 . S
H175 C162 0.951 1_655 S
C176 C177 1.386 . S
C176 C178 1.383 . S
C176 H192 0.951 . S
C177 C176 1.386 . S
C177 C181 1.383 . S
C178 C176 1.383 . S
C178 C179 1.402 . S
C178 H193 0.951 . S
C179 C178 1.402 . S
C179 C180 1.375 . S
C179 C182 1.481 . S
C180 C179 1.375 . S
C180 C181 1.367 . S
C180 H194 0.951 . S
C181 C177 1.383 . S
C181 C180 1.367 . S
C181 H195 0.950 . S
C182 C179 1.481 . S
C182 C183 1.297 . S
C182 H196 0.950 . S
C183 C182 1.297 . S
C183 C184 1.479 . S
C183 H197 0.950 . S
C184 C183 1.479 . S
C184 C185 1.375 . S
C184 C190 1.404 . S
C185 C184 1.375 . S
C185 C186 1.369 . S
C185 H198 0.950 . S
C186 C185 1.369 . S
C186 C187 1.392 . S
C186 H199 0.951 . S
C187 C186 1.392 . S
C187 C189 1.384 . S
H188 C190 0.949 . S
C189 C187 1.384 . S
C189 C190 1.385 . S
C189 H191 0.950 . S
C190 C184 1.404 . S
C190 H188 0.949 . S
C190 C189 1.385 . S
H191 C189 0.950 . S
H192 C176 0.951 . S
H193 C178 0.951 . S
H194 C180 0.951 . S
H195 C181 0.950 . S
H196 C182 0.950 . S
H197 C183 0.950 . S
H198 C185 0.950 . S
H199 C186 0.951 . S
C200 C201 1.384 1_655 S
C200 C202 1.384 . S
C200 H216 0.951 . S
C201 C200 1.384 1_455 S
C201 C205 1.383 . S
C202 C200 1.384 . S
C202 C203 1.402 . S
C202 H217 0.951 . S
C203 C202 1.402 . S
C203 C204 1.375 1_655 S
C203 C206 1.481 . S
C204 C203 1.375 1_455 S
C204 C205 1.367 . S
C204 H218 0.951 . S
C205 C201 1.383 . S
C205 C204 1.367 . S
C205 H219 0.950 . S
C206 C203 1.481 . S
C206 C207 1.297 . S
C206 H220 0.950 . S
C207 C206 1.297 . S
C207 C208 1.479 . S
C207 H221 0.950 . S
C208 C207 1.479 . S
C208 C209 1.375 . S
C208 C214 1.404 . S
C209 C208 1.375 . S
C209 C210 1.369 . S
C209 H222 0.950 . S
C210 C209 1.369 . S
C210 C211 1.392 . S
C210 H223 0.951 . S
C211 C210 1.392 . S
C211 C213 1.384 . S
H212 C214 0.949 . S
C213 C211 1.384 . S
C213 C214 1.385 . S
C213 H215 0.950 . S
C214 C208 1.404 . S
C214 H212 0.949 . S
C214 C213 1.385 . S
H215 C213 0.950 . S
H216 C200 0.951 . S
H217 C202 0.951 . S
H218 C204 0.951 . S
H219 C205 0.950 . S
H220 C206 0.950 . S
H221 C207 0.950 . S
H222 C209 0.950 . S
H223 C210 0.951 . S
C224 C225 1.386 . S
C224 C226 1.383 . S
C224 H240 0.951 . S
C225 C224 1.386 . S
C225 C229 1.383 . S
C226 C224 1.383 . S
C226 C227 1.402 . S
C226 H241 0.951 . S
C227 C226 1.402 . S
C227 C228 1.375 . S
C227 C230 1.481 . S
C228 C227 1.375 . S
C228 C229 1.367 . S
C228 H242 0.951 . S
C229 C225 1.383 . S
C229 C228 1.367 . S
C229 H243 0.950 . S
C230 C227 1.481 . S
C230 C231 1.297 . S
C230 H244 0.950 . S
C231 C230 1.297 . S
C231 C232 1.479 . S
C231 H245 0.950 . S
C232 C231 1.479 . S
C232 C233 1.375 . S
C232 C238 1.404 1_565 S
C233 C232 1.375 . S
C233 C234 1.369 . S
C233 H246 0.950 . S
C234 C233 1.369 . S
C234 C235 1.392 1_565 S
C234 H247 0.951 . S
C235 C234 1.392 1_545 S
C235 C237 1.384 . S
H236 C238 0.949 . S
C237 C235 1.384 . S
C237 C238 1.385 . S
C237 H239 0.950 . S
C238 C232 1.404 1_545 S
C238 H236 0.949 . S
C238 C237 1.385 . S
H239 C237 0.950 . S
H240 C224 0.951 . S
H241 C226 0.951 . S
H242 C228 0.951 . S
H243 C229 0.950 . S
H244 C230 0.950 . S
H245 C231 0.950 . S
H246 C233 0.950 . S
H247 C234 0.951 . S
C248 C249 1.386 . S
C248 C250 1.383 . S
C248 H264 0.951 . S
C249 C248 1.386 . S
C249 C253 1.383 . S
C250 C248 1.383 . S
C250 C251 1.402 . S
C250 H265 0.951 . S
C251 C250 1.402 . S
C251 C252 1.375 . S
C251 C254 1.481 . S
C252 C251 1.375 . S
C252 C253 1.367 . S
C252 H266 0.951 . S
C253 C249 1.383 . S
C253 C252 1.367 . S
C253 H267 0.950 . S
C254 C251 1.481 . S
C254 C255 1.297 . S
C254 H268 0.950 . S
C255 C254 1.297 . S
C255 C256 1.479 . S
C255 H269 0.950 . S
C256 C255 1.479 . S
C256 C257 1.375 . S
C256 C262 1.404 . S
C257 C256 1.375 . S
C257 C258 1.369 . S
C257 H270 0.950 . S
C258 C257 1.369 . S
C258 C259 1.392 . S
C258 H271 0.951 . S
C259 C258 1.392 . S
C259 C261 1.384 . S
H260 C262 0.949 . S
C261 C259 1.384 . S
C261 C262 1.385 . S
C261 H263 0.950 . S
C262 C256 1.404 . S
C262 H260 0.949 . S
C262 C261 1.385 . S
H263 C261 0.950 . S
H264 C248 0.951 . S
H265 C250 0.951 . S
H266 C252 0.951 . S
H267 C253 0.950 . S
H268 C254 0.950 . S
H269 C255 0.950 . S
H270 C257 0.950 . S
H271 C258 0.951 . S
C272 C273 1.386 1_565 S
C272 C274 1.383 . S
C272 H288 0.951 . S
C273 C272 1.386 1_545 S
C273 C277 1.383 . S
C274 C272 1.383 . S
C274 C275 1.402 . S
C274 H289 0.951 . S
C275 C274 1.402 . S
C275 C276 1.375 1_565 S
C275 C278 1.481 . S
C276 C275 1.375 1_545 S
C276 C277 1.367 . S
C276 H290 0.951 . S
C277 C273 1.383 . S
C277 C276 1.367 . S
C277 H291 0.950 . S
C278 C275 1.481 . S
C278 C279 1.297 . S
C278 H292 0.950 . S
C279 C278 1.297 . S
C279 C280 1.479 . S
C279 H293 0.950 . S
C280 C279 1.479 . S
C280 C281 1.375 . S
C280 C286 1.404 . S
C281 C280 1.375 . S
C281 C282 1.369 . S
C281 H294 0.950 . S
C282 C281 1.369 . S
C282 C283 1.392 . S
C282 H295 0.951 . S
C283 C282 1.392 . S
C283 C285 1.384 . S
H284 C286 0.949 . S
C285 C283 1.384 . S
C285 C286 1.385 . S
C285 H287 0.950 . S
C286 C280 1.404 . S
C286 H284 0.949 . S
C286 C285 1.385 . S
H287 C285 0.950 . S
H288 C272 0.951 . S
H289 C274 0.951 . S
H290 C276 0.951 . S
H291 C277 0.950 . S
H292 C278 0.950 . S
H293 C279 0.950 . S
H294 C281 0.950 . S
H295 C282 0.951 . S
C296 C297 1.386 . S
C296 C298 1.383 . S
C296 H312 0.951 . S
C297 C296 1.386 . S
C297 C301 1.383 . S
C298 C296 1.383 . S
C298 C299 1.402 . S
C298 H313 0.951 . S
C299 C298 1.402 . S
C299 C300 1.375 . S
C299 C302 1.481 . S
C300 C299 1.375 . S
C300 C301 1.367 . S
C300 H314 0.951 . S
C301 C297 1.383 . S
C301 C300 1.367 . S
C301 H315 0.950 . S
C302 C299 1.481 . S
C302 C303 1.297 . S
C302 H316 0.950 . S
C303 C302 1.297 . S
C303 C304 1.479 . S
C303 H317 0.950 . S
C304 C303 1.479 . S
C304 C305 1.375 . S
C304 C310 1.404 . S
C305 C304 1.375 . S
C305 C306 1.369 . S
C305 H318 0.950 . S
C306 C305 1.369 . S
C306 C307 1.392 . S
C306 H319 0.951 . S
C307 C306 1.392 . S
C307 C309 1.384 . S
H308 C310 0.949 . S
C309 C307 1.384 . S
C309 C310 1.385 . S
C309 H311 0.950 . S
C310 C304 1.404 . S
C310 H308 0.949 . S
C310 C309 1.385 . S
H311 C309 0.950 . S
H312 C296 0.951 . S
H313 C298 0.951 . S
H314 C300 0.951 . S
H315 C301 0.950 . S
H316 C302 0.950 . S
H317 C303 0.950 . S
H318 C305 0.950 . S
H319 C306 0.951 . S
C320 C321 1.386 . S
C320 C322 1.383 . S
C320 H336 0.951 . S
C321 C320 1.386 . S
C321 C325 1.383 . S
C322 C320 1.383 . S
C322 C323 1.402 . S
C322 H337 0.951 . S
C323 C322 1.402 . S
C323 C324 1.375 . S
C323 C326 1.481 . S
C324 C323 1.375 . S
C324 C325 1.367 . S
C324 H338 0.951 . S
C325 C321 1.383 . S
C325 C324 1.367 . S
C325 H339 0.950 . S
C326 C323 1.481 . S
C326 C327 1.297 . S
C326 H340 0.950 . S
C327 C326 1.297 . S
C327 C328 1.479 . S
C327 H341 0.950 . S
C328 C327 1.479 . S
C328 C329 1.375 . S
C328 C334 1.404 . S
C329 C328 1.375 . S
C329 C330 1.369 . S
C329 H342 0.950 . S
C330 C329 1.369 . S
C330 C331 1.392 . S
C330 H343 0.951 . S
C331 C330 1.392 . S
C331 C333 1.384 . S
H332 C334 0.949 . S
C333 C331 1.384 . S
C333 C334 1.385 . S
C333 H335 0.950 . S
C334 C328 1.404 . S
C334 H332 0.949 . S
C334 C333 1.385 . S
H335 C333 0.950 . S
H336 C320 0.951 . S
H337 C322 0.951 . S
H338 C324 0.951 . S
H339 C325 0.950 . S
H340 C326 0.950 . S
H341 C327 0.950 . S
H342 C329 0.950 . S
H343 C330 0.951 . S
C344 C345 1.386 . S
C344 C346 1.383 . S
C344 H360 0.951 . S
C345 C344 1.386 . S
C345 C349 1.383 . S
C346 C344 1.383 . S
C346 C347 1.402 . S
C346 H361 0.951 . S
C347 C346 1.402 . S
C347 C348 1.375 . S
C347 C350 1.481 . S
C348 C347 1.375 . S
C348 C349 1.367 . S
C348 H362 0.951 . S
C349 C345 1.383 . S
C349 C348 1.367 . S
C349 H363 0.950 . S
C350 C347 1.481 . S
C350 C351 1.297 . S
C350 H364 0.955 . S
C351 C350 1.297 . S
C351 C352 1.479 . S
C351 H365 0.950 . S
C352 C351 1.479 . S
C352 C353 1.375 . S
C352 C358 1.404 1_655 S
C353 C352 1.375 . S
C353 C354 1.369 . S
C353 H366 0.950 . S
C354 C353 1.369 . S
C354 C355 1.392 1_655 S
C354 H367 0.951 . S
C355 C354 1.392 1_455 S
C355 C357 1.384 . S
H356 C358 0.949 . S
C357 C355 1.384 . S
C357 C358 1.385 . S
C357 H359 0.950 . S
C358 C352 1.404 1_455 S
C358 H356 0.949 . S
C358 C357 1.385 . S
H359 C357 0.950 . S
H360 C344 0.951 . S
H361 C346 0.951 . S
H362 C348 0.951 . S
H363 C349 0.950 . S
H364 C350 0.955 . S
H365 C351 0.950 . S
H366 C353 0.950 . S
H367 C354 0.951 . S
C81 C59 0.430 1_556 S
C91 C19 0.511 1_556 S
C105 C79 0.418 . S
C115 C39 0.476 . S
C129 C58 1.112 1_554 S
C139 C18 1.181 1_564 S
C153 C38 1.097 . S
C163 C78 1.169 1_655 S
C177 C32 1.090 . S
C187 C9 1.120 . S
C201 C29 1.191 . S
C211 C52 1.143 . S
C225 C72 1.181 . S
C235 C49 1.241 . S
C249 C69 1.182 . S
C259 C12 1.121 . S
C273 C44 1.604 . S
C283 C62 1.572 . S
C297 C2 1.548 . S
C307 C64 1.563 . S
C321 C22 1.510 . S
C331 C4 1.647 . S
C345 C42 1.458 . S
C355 C24 1.614 . S
