# Generated by pormake.
# Topology vcc, (6)-cn, num edge types: 1
# Building blocks:
#     Node 0, Type 0, BuildingBlock: BETDEL_clean_sbu_0, # of connection points: 6
#     Node 1, Type 0, BuildingBlock: BETDEL_clean_sbu_0, # of connection points: 6
#     Node 2, Type 0, BuildingBlock: BETDEL_clean_sbu_0, # of connection points: 6
#     Node 3, Type 0, BuildingBlock: BETDEL_clean_sbu_0, # of connection points: 6
#     Node 4, Type 0, BuildingBlock: BETDEL_clean_sbu_0, # of connection points: 6
#     Node 5, Type 0, BuildingBlock: BETDEL_clean_sbu_0, # of connection points: 6
#     Node 6, Type 0, BuildingBlock: BETDEL_clean_sbu_0, # of connection points: 6
#     Node 7, Type 0, BuildingBlock: BETDEL_clean_sbu_0, # of connection points: 6
#     Node 8, Type 0, BuildingBlock: BETDEL_clean_sbu_0, # of connection points: 6
#     Node 9, Type 0, BuildingBlock: BETDEL_clean_sbu_0, # of connection points: 6
#     Node 10, Type 0, BuildingBlock: BETDEL_clean_sbu_0, # of connection points: 6
#     Node 11, Type 0, BuildingBlock: BETDEL_clean_sbu_0, # of connection points: 6
#     Node 12, Type 0, BuildingBlock: BETDEL_clean_sbu_0, # of connection points: 6
#     Node 13, Type 0, BuildingBlock: BETDEL_clean_sbu_0, # of connection points: 6
#     Node 14, Type 0, BuildingBlock: BETDEL_clean_sbu_0, # of connection points: 6
#     Node 15, Type 0, BuildingBlock: BETDEL_clean_sbu_0, # of connection points: 6
#     Node 16, Type 0, BuildingBlock: BETDEL_clean_sbu_0, # of connection points: 6
#     Node 17, Type 0, BuildingBlock: BETDEL_clean_sbu_0, # of connection points: 6
#     Node 18, Type 0, BuildingBlock: BETDEL_clean_sbu_0, # of connection points: 6
#     Node 19, Type 0, BuildingBlock: BETDEL_clean_sbu_0, # of connection points: 6
#     Node 20, Type 0, BuildingBlock: BETDEL_clean_sbu_0, # of connection points: 6
#     Node 21, Type 0, BuildingBlock: BETDEL_clean_sbu_0, # of connection points: 6
#     Node 22, Type 0, BuildingBlock: BETDEL_clean_sbu_0, # of connection points: 6
#     Node 23, Type 0, BuildingBlock: BETDEL_clean_sbu_0, # of connection points: 6
#     Node 24, Type 0, BuildingBlock: BETDEL_clean_sbu_0, # of connection points: 6
#     Node 25, Type 0, BuildingBlock: BETDEL_clean_sbu_0, # of connection points: 6
#     Node 26, Type 0, BuildingBlock: BETDEL_clean_sbu_0, # of connection points: 6
#     Node 27, Type 0, BuildingBlock: BETDEL_clean_sbu_0, # of connection points: 6
#     Node 28, Type 0, BuildingBlock: BETDEL_clean_sbu_0, # of connection points: 6
#     Node 29, Type 0, BuildingBlock: BETDEL_clean_sbu_0, # of connection points: 6
#     Node 30, Type 0, BuildingBlock: BETDEL_clean_sbu_0, # of connection points: 6
#     Node 31, Type 0, BuildingBlock: BETDEL_clean_sbu_0, # of connection points: 6
#     Edge 32, Type (0, 0), None
#     Edge 33, Type (0, 0), None
#     Edge 34, Type (0, 0), None
#     Edge 35, Type (0, 0), None
#     Edge 36, Type (0, 0), None
#     Edge 37, Type (0, 0), None
#     Edge 38, Type (0, 0), None
#     Edge 39, Type (0, 0), None
#     Edge 40, Type (0, 0), None
#     Edge 41, Type (0, 0), None
#     Edge 42, Type (0, 0), None
#     Edge 43, Type (0, 0), None
#     Edge 44, Type (0, 0), None
#     Edge 45, Type (0, 0), None
#     Edge 46, Type (0, 0), None
#     Edge 47, Type (0, 0), None
#     Edge 48, Type (0, 0), None
#     Edge 49, Type (0, 0), None
#     Edge 50, Type (0, 0), None
#     Edge 51, Type (0, 0), None
#     Edge 52, Type (0, 0), None
#     Edge 53, Type (0, 0), None
#     Edge 54, Type (0, 0), None
#     Edge 55, Type (0, 0), None
#     Edge 56, Type (0, 0), None
#     Edge 57, Type (0, 0), None
#     Edge 58, Type (0, 0), None
#     Edge 59, Type (0, 0), None
#     Edge 60, Type (0, 0), None
#     Edge 61, Type (0, 0), None
#     Edge 62, Type (0, 0), None
#     Edge 63, Type (0, 0), None
#     Edge 64, Type (0, 0), None
#     Edge 65, Type (0, 0), None
#     Edge 66, Type (0, 0), None
#     Edge 67, Type (0, 0), None
#     Edge 68, Type (0, 0), None
#     Edge 69, Type (0, 0), None
#     Edge 70, Type (0, 0), None
#     Edge 71, Type (0, 0), None
#     Edge 72, Type (0, 0), None
#     Edge 73, Type (0, 0), None
#     Edge 74, Type (0, 0), None
#     Edge 75, Type (0, 0), None
#     Edge 76, Type (0, 0), None
#     Edge 77, Type (0, 0), None
#     Edge 78, Type (0, 0), None
#     Edge 79, Type (0, 0), None
#     Edge 80, Type (0, 0), None
#     Edge 81, Type (0, 0), None
#     Edge 82, Type (0, 0), None
#     Edge 83, Type (0, 0), None
#     Edge 84, Type (0, 0), None
#     Edge 85, Type (0, 0), None
#     Edge 86, Type (0, 0), None
#     Edge 87, Type (0, 0), None
#     Edge 88, Type (0, 0), None
#     Edge 89, Type (0, 0), None
#     Edge 90, Type (0, 0), None
#     Edge 91, Type (0, 0), None
#     Edge 92, Type (0, 0), None
#     Edge 93, Type (0, 0), None
#     Edge 94, Type (0, 0), None
#     Edge 95, Type (0, 0), None
#     Edge 96, Type (0, 0), None
#     Edge 97, Type (0, 0), None
#     Edge 98, Type (0, 0), None
#     Edge 99, Type (0, 0), None
#     Edge 100, Type (0, 0), None
#     Edge 101, Type (0, 0), None
#     Edge 102, Type (0, 0), None
#     Edge 103, Type (0, 0), None
#     Edge 104, Type (0, 0), None
#     Edge 105, Type (0, 0), None
#     Edge 106, Type (0, 0), None
#     Edge 107, Type (0, 0), None
#     Edge 108, Type (0, 0), None
#     Edge 109, Type (0, 0), None
#     Edge 110, Type (0, 0), None
#     Edge 111, Type (0, 0), None
#     Edge 112, Type (0, 0), None
#     Edge 113, Type (0, 0), None
#     Edge 114, Type (0, 0), None
#     Edge 115, Type (0, 0), None
#     Edge 116, Type (0, 0), None
#     Edge 117, Type (0, 0), None
#     Edge 118, Type (0, 0), None
#     Edge 119, Type (0, 0), None
#     Edge 120, Type (0, 0), None
#     Edge 121, Type (0, 0), None
#     Edge 122, Type (0, 0), None
#     Edge 123, Type (0, 0), None
#     Edge 124, Type (0, 0), None
#     Edge 125, Type (0, 0), None
#     Edge 126, Type (0, 0), None
#     Edge 127, Type (0, 0), None
# Relax obj value: 0.184
# Max RMSD: 0.158
# Mean RMSD: 0.158
data_MOF--net-vcc--node1-BETDEL_clean_sbu_0--edge1-none
_symmetry_space_group_name_H-M    P1
_symmetry_Int_Tables_number       1
_symmetry_cell_setting            triclinic
loop_
_symmetry_equiv_pos_as_xyz
'x, y, z'
_cell_length_a     20.37891
_cell_length_b     23.711674
_cell_length_c     20.865073
_cell_angle_alpha  89.999432
_cell_angle_beta   90.000003
_cell_angle_gamma 90.002007
loop_
_atom_site_label
_atom_site_type_symbol
_atom_site_fract_x
_atom_site_fract_y
_atom_site_fract_z
_atom_type_partial_charge
Dy0 Dy 0.32052 0.05665 0.09592 0.0
C1 C 0.1823 1.01822 0.29957 0.0
C2 C 0.31288 0.11904 0.99057 0.0
Dy3 Dy 0.23655 1.01476 0.18388 0.0
O4 O 0.26802 0.11652 1.03421 0.0
O5 O 0.36534 0.08955 1.00692 0.0
O6 O 0.34692 0.13227 0.14877 0.0
O7 O 0.24976 0.10064 0.15505 0.0
C8 C 0.29011 0.13704 0.17611 0.0
C9 C 0.28618 0.92656 0.12183 0.0
O10 O 0.16572 1.02098 0.09859 0.0
O11 O 0.2498 1.01211 1.02786 0.0
O12 O 0.2145 0.9752 0.278 0.0
O13 O 0.17028 0.05479 0.25513 0.0
O14 O 0.2252 0.93026 0.14032 0.0
O15 O 0.31837 0.97081 0.13684 0.0
O16 O 0.40221 0.04456 0.17151 0.0
O17 O 0.32466 0.02705 0.24861 0.0
C18 C 0.18594 1.01353 1.0383 0.0
C19 C 0.38655 0.03605 0.23332 0.0
Dy20 Dy 0.78363 0.24077 0.09591 0.0
C21 C 0.92185 0.2792 0.29956 0.0
C22 C 0.79129 0.17837 0.99058 0.0
Dy23 Dy 0.86761 0.28266 0.18386 0.0
O24 O 0.83614 0.1809 1.03422 0.0
O25 O 0.73883 0.20786 1.00691 0.0
O26 O 0.75719 0.16518 0.14878 0.0
O27 O 0.85437 0.19678 0.15506 0.0
C28 C 0.814 0.16039 0.17612 0.0
C29 C 0.81799 0.37086 0.1218 0.0
O30 O -0.06155 0.27642 0.09859 0.0
O31 O 0.85437 0.28531 1.02785 0.0
O32 O 0.88968 0.32223 0.27797 0.0
O33 O -0.06616 0.24261 0.25514 0.0
O34 O 0.87896 0.36716 0.1403 0.0
O35 O 0.7858 0.32662 0.13682 0.0
O36 O 0.70195 0.25291 0.17149 0.0
O37 O 0.77949 0.27039 0.2486 0.0
C38 C 0.91823 0.28387 1.03829 0.0
C39 C 0.7176 0.26141 0.23331 0.0
Dy40 Dy 0.3205 0.24075 0.32013 0.0
C41 C 0.18229 0.27921 0.11649 0.0
C42 C 0.31285 0.17837 0.42547 0.0
Dy43 Dy 0.23653 0.28267 0.23219 0.0
O44 O 0.26799 0.18089 0.38184 0.0
O45 O 0.36531 0.20785 0.40913 0.0
O46 O 0.34693 0.16514 0.26727 0.0
O47 O 0.24974 0.19679 0.26097 0.0
C48 C 0.29013 0.16044 0.2399 0.0
C49 C 0.28617 0.37085 0.29426 0.0
O50 O 0.16571 0.27646 0.31748 0.0
O51 O 0.2498 0.2853 0.3882 0.0
O52 O 0.21452 0.32222 0.13805 0.0
O53 O 0.17024 0.24265 0.16094 0.0
O54 O 0.22519 0.36716 0.27576 0.0
O55 O 0.31835 0.32661 0.27924 0.0
O56 O 0.40219 0.25287 0.24455 0.0
O57 O 0.32465 0.2704 0.16745 0.0
C58 C 0.18594 0.2839 0.37777 0.0
C59 C 0.38654 0.26139 0.18274 0.0
Dy60 Dy 0.78365 0.05666 0.32013 0.0
C61 C 0.92186 1.01821 0.1165 0.0
C62 C 0.79132 0.11905 0.42547 0.0
Dy63 Dy 0.86762 1.01474 0.23219 0.0
O64 O 0.83617 0.11653 0.38182 0.0
O65 O 0.73885 0.08957 0.40913 0.0
O66 O 0.75718 0.13224 0.26727 0.0
O67 O 0.85439 0.10062 0.26096 0.0
C68 C 0.81398 0.13697 0.23989 0.0
C69 C 0.81799 0.92656 0.29427 0.0
O70 O -0.06155 1.02097 0.31748 0.0
O71 O 0.85436 1.01212 0.38821 0.0
O72 O 0.88967 0.97518 0.13807 0.0
O73 O -0.06612 0.05478 0.16093 0.0
O74 O 0.87896 0.93025 0.27577 0.0
O75 O 0.7858 0.9708 0.27925 0.0
O76 O 0.70196 0.04451 0.24456 0.0
O77 O 0.7795 0.02699 0.16746 0.0
C78 C 0.91822 1.01353 0.37777 0.0
C79 C 0.71761 0.03599 0.18275 0.0
Dy80 Dy 0.61751 0.03244 0.98222 0.0
C81 C 0.54128 0.92807 0.1755 0.0
C82 C 0.67159 0.02875 0.86645 0.0
Dy83 Dy 0.53365 0.99052 1.07022 0.0
O84 O 0.63953 0.07185 0.88802 0.0
O85 O 0.68357 0.9922 0.91091 0.0
O86 O 0.62891 0.11707 1.02532 0.0
O87 O 0.53566 0.07651 1.02947 0.0
C88 C 0.56798 0.12084 1.04395 0.0
C89 C 0.56425 0.91025 0.99 0.0
O90 O 0.45194 1.00258 0.99462 0.0
O91 O 0.52942 1.0202 0.91751 0.0
O92 O 0.58614 0.93062 0.13188 0.0
O93 O 0.48883 0.95757 0.15918 0.0
O94 O 0.50741 0.9149 1.0173 0.0
O95 O 0.60446 0.94668 1.01126 0.0
O96 O 0.68846 0.02631 1.06741 0.0
O97 O 0.60442 0.03511 0.1382 0.0
C98 C 0.46756 1.01116 0.9328 0.0
C99 C 0.66827 0.03371 0.12771 0.0
Dy100 Dy -0.01333 0.76498 0.98224 0.0
C101 C 0.06288 0.86935 0.17549 0.0
C102 C -0.06741 0.76866 0.86646 0.0
Dy103 Dy 0.07053 0.80689 1.07023 0.0
O104 O -0.03539 0.72555 0.88805 0.0
O105 O 0.92063 0.80523 0.91091 0.0
O106 O -0.02474 0.68036 1.02535 0.0
O107 O 0.06851 0.7209 1.02949 0.0
C108 C 0.03619 0.67657 1.04397 0.0
C109 C 0.03997 0.88716 0.98999 0.0
O110 O 0.15224 0.79479 0.99462 0.0
O111 O 0.07475 0.77719 0.91751 0.0
O112 O 0.01803 0.8668 0.13187 0.0
O113 O 0.11534 0.83986 0.15919 0.0
O114 O 0.09682 0.88249 1.01729 0.0
O115 O -0.00025 0.85074 1.01126 0.0
O116 O 0.91572 0.77113 1.06742 0.0
O117 O -0.00024 0.76232 0.13821 0.0
C118 C 0.13661 0.78621 0.93281 0.0
C119 C -0.0641 0.76372 0.12773 0.0
Dy120 Dy 0.61752 0.76496 0.93384 0.0
C121 C 0.54131 0.86935 0.74058 0.0
C122 C 0.6716 0.76865 1.0496 0.0
Dy123 Dy 0.53366 0.80691 0.84586 0.0
O124 O 0.63952 0.72556 1.02805 0.0
O125 O 0.68361 0.80519 1.00513 0.0
O126 O 0.62891 0.68034 0.89073 0.0
O127 O 0.53566 0.7209 0.88658 0.0
C128 C 0.56798 0.67657 0.87209 0.0
C129 C 0.56423 0.8871 0.92611 0.0
O130 O 0.45195 0.79483 0.92146 0.0
O131 O 0.52943 0.77718 0.99856 0.0
O132 O 0.58617 0.8668 0.7842 0.0
O133 O 0.48884 0.83986 0.7569 0.0
O134 O 0.50738 0.88252 0.89878 0.0
O135 O 0.60447 0.85072 0.90483 0.0
O136 O 0.68846 0.77108 0.84864 0.0
O137 O 0.6044 0.76232 0.77786 0.0
C138 C 0.46757 0.78623 0.98327 0.0
C139 C 0.66826 0.76369 0.78834 0.0
Dy140 Dy -0.01335 0.03245 0.93384 0.0
C141 C 0.06286 0.92806 0.74058 0.0
C142 C -0.06731 0.02869 1.04965 0.0
Dy143 Dy 0.07052 0.99052 0.84584 0.0
O144 O -0.03535 0.07184 1.02806 0.0
O145 O 0.92065 0.99216 1.00517 0.0
O146 O -0.02475 0.11707 0.89074 0.0
O147 O 0.06849 0.07652 0.88658 0.0
C148 C 0.03617 0.12085 0.87209 0.0
C149 C 0.04 0.91033 0.92611 0.0
O150 O 0.15224 1.00263 0.92144 0.0
O151 O 0.07476 1.02027 0.99855 0.0
O152 O 0.01801 0.93061 0.78421 0.0
O153 O 0.11533 0.95755 0.75688 0.0
O154 O 0.09684 0.91492 0.89879 0.0
O155 O -0.00026 0.94669 0.90483 0.0
O156 O 0.91571 0.02631 0.84865 0.0
O157 O -0.00024 0.0351 0.77786 0.0
C158 C 0.13662 1.01123 0.98325 0.0
C159 C -0.0641 0.03371 0.78834 0.0
Dy160 Dy 0.32052 0.55666 0.59592 0.0
C161 C 0.1823 0.51822 0.79957 0.0
C162 C 0.31288 0.61904 0.49057 0.0
Dy163 Dy 0.23654 0.51477 0.68387 0.0
O164 O 0.26802 0.61652 0.5342 0.0
O165 O 0.36534 0.58956 0.50692 0.0
O166 O 0.34692 0.63227 0.64877 0.0
O167 O 0.24976 0.60064 0.65505 0.0
C168 C 0.2901 0.63705 0.67611 0.0
C169 C 0.28617 0.42657 0.62182 0.0
O170 O 0.16571 0.52098 0.59859 0.0
O171 O 0.2498 0.51211 0.52785 0.0
O172 O 0.2145 0.47521 0.778 0.0
O173 O 0.17028 0.55479 0.75513 0.0
O174 O 0.2252 0.43027 0.64032 0.0
O175 O 0.31836 0.47081 0.63683 0.0
O176 O 0.4022 0.54456 0.6715 0.0
O177 O 0.32466 0.52705 0.7486 0.0
C178 C 0.18594 0.51354 0.53829 0.0
C179 C 0.38655 0.53605 0.73332 0.0
Dy180 Dy 0.78363 0.74077 0.59591 0.0
C181 C 0.92174 0.77912 0.79961 0.0
C182 C 0.79129 0.67837 0.49058 0.0
Dy183 Dy 0.86762 0.78265 0.68388 0.0
O184 O 0.83613 0.6809 0.53422 0.0
O185 O 0.73883 0.70786 0.50691 0.0
O186 O 0.75719 0.66518 0.64877 0.0
O187 O 0.85436 0.69678 0.65506 0.0
C188 C 0.814 0.66039 0.67611 0.0
C189 C 0.818 0.87086 0.62182 0.0
O190 O -0.06155 0.77642 0.5986 0.0
O191 O 0.85437 0.78531 0.52786 0.0
O192 O 0.88965 0.82219 0.77801 0.0
O193 O -0.06621 0.74255 0.75518 0.0
O194 O 0.87897 0.86715 0.64033 0.0
O195 O 0.78581 0.82661 0.63683 0.0
O196 O 0.70194 0.7529 0.67149 0.0
O197 O 0.77948 0.7704 0.74859 0.0
C198 C 0.91823 0.78387 0.5383 0.0
C199 C 0.71759 0.76141 0.7333 0.0
Dy200 Dy 0.3205 0.74075 0.82013 0.0
C201 C 0.1823 0.7792 0.61648 0.0
C202 C 0.31285 0.67837 0.92547 0.0
Dy203 Dy 0.23653 0.78267 0.73218 0.0
O204 O 0.26799 0.68088 0.88184 0.0
O205 O 0.36531 0.70785 0.90913 0.0
O206 O 0.34693 0.66514 0.76727 0.0
O207 O 0.24974 0.69679 0.76097 0.0
C208 C 0.29013 0.66044 0.7399 0.0
C209 C 0.28616 0.87085 0.79426 0.0
O210 O 0.1657 0.77646 0.81747 0.0
O211 O 0.24979 0.7853 0.8882 0.0
O212 O 0.21452 0.82222 0.63805 0.0
O213 O 0.17025 0.74265 0.66093 0.0
O214 O 0.22519 0.86716 0.77575 0.0
O215 O 0.31835 0.82661 0.77924 0.0
O216 O 0.40219 0.75287 0.74456 0.0
O217 O 0.32466 0.7704 0.66746 0.0
C218 C 0.18593 0.78389 0.87776 0.0
C219 C 0.38654 0.76139 0.68275 0.0
Dy220 Dy 0.78365 0.55666 0.82013 0.0
C221 C 0.92186 0.51821 0.6165 0.0
C222 C 0.79133 0.61906 0.92547 0.0
Dy223 Dy 0.86763 0.51474 0.7322 0.0
O224 O 0.83617 0.61653 0.88182 0.0
O225 O 0.73886 0.58957 0.90913 0.0
O226 O 0.75718 0.63224 0.76726 0.0
O227 O 0.85439 0.60063 0.76096 0.0
C228 C 0.81398 0.63697 0.73989 0.0
C229 C 0.81799 0.42656 0.79427 0.0
O230 O -0.06155 0.52097 0.81748 0.0
O231 O 0.85437 0.51212 0.88821 0.0
O232 O 0.88967 0.47518 0.63808 0.0
O233 O -0.06612 0.55478 0.66093 0.0
O234 O 0.87897 0.43025 0.77577 0.0
O235 O 0.78581 0.4708 0.77925 0.0
O236 O 0.70196 0.5445 0.74456 0.0
O237 O 0.7795 0.52699 0.66746 0.0
C238 C 0.91823 0.51354 0.87777 0.0
C239 C 0.71761 0.53598 0.68275 0.0
Dy240 Dy 0.61751 0.53244 0.48222 0.0
C241 C 0.54128 0.42807 0.6755 0.0
C242 C 0.67159 0.52875 0.36645 0.0
Dy243 Dy 0.53365 0.49052 0.57022 0.0
O244 O 0.63953 0.57185 0.38802 0.0
O245 O 0.68357 0.4922 0.41091 0.0
O246 O 0.62892 0.61706 0.52533 0.0
O247 O 0.53567 0.57651 0.52948 0.0
C248 C 0.56799 0.62084 0.54396 0.0
C249 C 0.56426 0.41025 0.49 0.0
O250 O 0.45194 0.50258 0.49462 0.0
O251 O 0.52943 0.5202 0.41751 0.0
O252 O 0.58614 0.43062 0.63188 0.0
O253 O 0.48883 0.45757 0.65918 0.0
O254 O 0.50741 0.4149 0.5173 0.0
O255 O 0.60446 0.44668 0.51126 0.0
O256 O 0.68846 0.52631 0.56741 0.0
O257 O 0.60442 0.5351 0.6382 0.0
C258 C 0.46757 0.51116 0.43281 0.0
C259 C 0.66828 0.5337 0.62771 0.0
Dy260 Dy -0.01334 0.26499 0.48222 0.0
C261 C 0.06289 0.36935 0.67549 0.0
C262 C -0.06731 0.26874 0.36642 0.0
Dy263 Dy 0.07054 0.30689 0.57023 0.0
O264 O -0.03536 0.22559 0.38801 0.0
O265 O 0.92069 0.30529 0.41088 0.0
O266 O -0.02475 0.18036 0.52532 0.0
O267 O 0.0685 0.2209 0.52947 0.0
C268 C 0.03618 0.17657 0.54395 0.0
C269 C 0.03997 0.38716 0.49 0.0
O270 O 0.15225 0.29479 0.49463 0.0
O271 O 0.07476 0.27719 0.41752 0.0
O272 O 0.01804 0.3668 0.63187 0.0
O273 O 0.11535 0.33985 0.65919 0.0
O274 O 0.09682 0.38249 0.5173 0.0
O275 O -0.00025 0.35074 0.51126 0.0
O276 O 0.91571 0.27113 0.56741 0.0
O277 O -0.00025 0.26232 0.6382 0.0
C278 C 0.13662 0.28621 0.43282 0.0
C279 C -0.0641 0.26372 0.62772 0.0
Dy280 Dy 0.61752 0.26496 0.43384 0.0
C281 C 0.54131 0.36936 0.24058 0.0
C282 C 0.67159 0.26865 0.54961 0.0
Dy283 Dy 0.53367 0.30691 0.34585 0.0
O284 O 0.63952 0.22556 0.52805 0.0
O285 O 0.6836 0.30519 0.50514 0.0
O286 O 0.62891 0.18034 0.39073 0.0
O287 O 0.53567 0.2209 0.38658 0.0
C288 C 0.56799 0.17657 0.37209 0.0
C289 C 0.56423 0.3871 0.42611 0.0
O290 O 0.45195 0.29483 0.42145 0.0
O291 O 0.52943 0.27718 0.49856 0.0
O292 O 0.58617 0.36681 0.2842 0.0
O293 O 0.48885 0.33986 0.25689 0.0
O294 O 0.50739 0.38252 0.39878 0.0
O295 O 0.60448 0.35072 0.40483 0.0
O296 O 0.68847 0.27108 0.34865 0.0
O297 O 0.60441 0.26232 0.27786 0.0
C298 C 0.46757 0.28623 0.48326 0.0
C299 C 0.66827 0.2637 0.28834 0.0
Dy300 Dy -0.01335 0.53245 0.43384 0.0
C301 C 0.06286 0.42806 0.24058 0.0
C302 C -0.06731 0.52869 0.54965 0.0
Dy303 Dy 0.07052 0.49052 0.34584 0.0
O304 O -0.03535 0.57184 0.52806 0.0
O305 O 0.92065 0.49216 0.50517 0.0
O306 O -0.02476 0.61707 0.39074 0.0
O307 O 0.06849 0.57652 0.38657 0.0
C308 C 0.03617 0.62085 0.37209 0.0
C309 C 0.04 0.41032 0.42611 0.0
O310 O 0.15224 0.50263 0.42144 0.0
O311 O 0.07476 0.52027 0.49854 0.0
O312 O 0.01801 0.43061 0.28421 0.0
O313 O 0.11532 0.45755 0.25688 0.0
O314 O 0.09684 0.41492 0.39879 0.0
O315 O -0.00027 0.44669 0.40484 0.0
O316 O 0.91571 0.52631 0.34865 0.0
O317 O -0.00024 0.53509 0.27786 0.0
C318 C 0.13662 0.51123 0.48325 0.0
C319 C -0.0641 0.53371 0.28834 0.0
Dy320 Dy 0.8205 0.05661 0.59593 0.0
C321 C 0.68243 1.01828 0.7996 0.0
C322 C 0.81271 0.11898 0.49068 0.0
Dy323 Dy 0.73656 1.01474 0.68387 0.0
O324 O 0.76785 0.11646 0.53431 0.0
O325 O 0.86524 0.08955 0.50691 0.0
O326 O 0.84701 0.13218 0.64878 0.0
O327 O 0.74981 0.10063 0.6551 0.0
C328 C 0.79021 0.137 0.67614 0.0
C329 C 0.78612 0.92653 0.6219 0.0
O330 O 0.66571 1.02096 0.5986 0.0
O331 O 0.74978 1.01204 0.52787 0.0
O332 O 0.71455 0.97521 0.77802 0.0
O333 O 0.67036 0.05482 0.75515 0.0
O334 O 0.72513 0.93022 0.64037 0.0
O335 O 0.81837 0.97076 0.63683 0.0
O336 O 0.90221 0.04449 0.67149 0.0
O337 O 0.82468 0.02698 0.7486 0.0
C338 C 0.68593 1.0135 0.53831 0.0
C339 C 0.88656 0.03598 0.73331 0.0
Dy340 Dy 0.2837 0.24081 0.59594 0.0
C341 C 0.42185 0.27922 0.79957 0.0
C342 C 0.29147 0.17844 0.49069 0.0
Dy343 Dy 0.36762 0.28269 0.68387 0.0
O344 O 0.33634 0.18096 0.53431 0.0
O345 O 0.23894 0.20787 0.50692 0.0
O346 O 0.2572 0.16523 0.64878 0.0
O347 O 0.3544 0.1968 0.6551 0.0
C348 C 0.31401 0.16042 0.67613 0.0
C349 C 0.31805 0.37089 0.6219 0.0
O350 O 0.43846 0.27648 0.5986 0.0
O351 O 0.35439 0.28539 0.52787 0.0
O352 O 0.38961 0.32222 0.77802 0.0
O353 O 0.43391 0.24267 0.75511 0.0
O354 O 0.37904 0.36721 0.64036 0.0
O355 O 0.2858 0.32666 0.63683 0.0
O356 O 0.20199 0.2529 0.6715 0.0
O357 O 0.27951 0.27041 0.74861 0.0
C358 C 0.41825 0.28394 0.53831 0.0
C359 C 0.21763 0.2614 0.73332 0.0
Dy360 Dy 0.82048 0.2408 0.82012 0.0
C361 C 0.68242 0.27915 0.61646 0.0
C362 C 0.81268 0.17842 0.92537 0.0
Dy363 Dy 0.73654 0.2827 0.73219 0.0
O364 O 0.76782 0.18094 0.88173 0.0
O365 O 0.86522 0.20785 0.90914 0.0
O366 O 0.84703 0.16523 0.76726 0.0
O367 O 0.74979 0.1968 0.76093 0.0
C368 C 0.79023 0.16048 0.73987 0.0
C369 C 0.78611 0.37088 0.79419 0.0
O370 O 0.6657 0.27648 0.81747 0.0
O371 O 0.74979 0.28536 0.8882 0.0
O372 O 0.71457 0.32221 0.63803 0.0
O373 O 0.67032 0.24262 0.66092 0.0
O374 O 0.72512 0.36721 0.77571 0.0
O375 O 0.81836 0.32665 0.77925 0.0
O376 O 0.90219 0.25294 0.74456 0.0
O377 O 0.82467 0.27048 0.66746 0.0
C378 C 0.68593 0.28393 0.87776 0.0
C379 C 0.88655 0.26146 0.68275 0.0
Dy380 Dy 0.28371 0.05662 0.82011 0.0
C381 C 0.42186 1.01819 0.61649 0.0
C382 C 0.29151 0.11898 0.92536 0.0
Dy383 Dy 0.36763 1.01471 0.73219 0.0
O384 O 0.33637 0.11646 0.88173 0.0
O385 O 0.23896 0.08956 0.90912 0.0
O386 O 0.25719 0.1322 0.76726 0.0
O387 O 0.35442 0.10061 0.76092 0.0
C388 C 0.31399 0.13694 0.73988 0.0
C389 C 0.31805 0.92652 0.79418 0.0
O390 O 0.43847 1.02091 0.81747 0.0
O391 O 0.35438 1.01204 0.88819 0.0
O392 O 0.3896 0.97519 0.63803 0.0
O393 O 0.43394 0.05472 0.66096 0.0
O394 O 0.37904 0.9302 0.77571 0.0
O395 O 0.28581 0.97076 0.77924 0.0
O396 O 0.202 0.04451 0.74455 0.0
O397 O 0.27951 0.02697 0.66745 0.0
C398 C 0.41824 1.01346 0.87776 0.0
C399 C 0.21763 0.03599 0.68273 0.0
Dy400 Dy 0.11749 0.03247 0.48223 0.0
C401 C 0.04146 0.92813 0.67539 0.0
C402 C 0.17145 0.0287 0.36642 0.0
Dy403 Dy 0.03368 0.99057 0.57022 0.0
O404 O 0.13948 0.07184 0.388 0.0
O405 O 0.1835 0.99217 0.4109 0.0
O406 O 0.12898 0.11711 0.52527 0.0
O407 O 0.03566 0.07656 0.52948 0.0
C408 C 0.06804 0.12088 0.54388 0.0
C409 C 0.06415 0.91029 0.48998 0.0
O410 O -0.04806 1.00265 0.49463 0.0
O411 O 0.0294 1.02027 0.41751 0.0
O412 O 0.08632 0.93068 0.63177 0.0
O413 O -0.01108 0.95757 0.65919 0.0
O414 O 0.00731 0.91499 0.51729 0.0
O415 O 0.10441 0.94669 0.51122 0.0
O416 O 0.18847 0.02633 0.5674 0.0
O417 O 0.10443 0.03517 0.63819 0.0
C418 C -0.03245 1.01124 0.43282 0.0
C419 C 0.16829 0.03375 0.6277 0.0
Dy420 Dy 0.48667 0.76494 0.48223 0.0
C421 C 0.5627 0.86928 0.67539 0.0
C422 C 0.43259 0.76864 0.36646 0.0
Dy423 Dy 0.57047 0.80685 0.5702 0.0
O424 O 0.46468 0.72556 0.38801 0.0
O425 O 0.42057 0.80517 0.41094 0.0
O426 O 0.47519 0.6803 0.52529 0.0
O427 O 0.56851 0.72085 0.52948 0.0
C428 C 0.53613 0.67654 0.54388 0.0
C429 C 0.53997 0.88713 0.48998 0.0
O430 O 0.6522 0.79479 0.49461 0.0
O431 O 0.57473 0.77717 0.4175 0.0
O432 O 0.51783 0.86673 0.63177 0.0
O433 O 0.61523 0.83984 0.65918 0.0
O434 O 0.59681 0.88244 0.51728 0.0
O435 O 0.49971 0.85073 0.51122 0.0
O436 O 0.4157 0.77107 0.56741 0.0
O437 O 0.49974 0.76224 0.63819 0.0
C438 C 0.63659 0.78622 0.4328 0.0
C439 C 0.43588 0.76365 0.62771 0.0
Dy440 Dy 0.11751 0.76493 0.43383 0.0
C441 C 0.04148 0.8693 0.24068 0.0
C442 C 0.17147 0.7687 0.54964 0.0
Dy443 Dy 0.03369 0.80686 0.34586 0.0
O444 O 0.13947 0.72557 0.52807 0.0
O445 O 0.18353 0.80521 0.50515 0.0
O446 O 0.12898 0.6803 0.39078 0.0
O447 O 0.03566 0.72085 0.38657 0.0
C448 C 0.06804 0.67654 0.37217 0.0
C449 C 0.06413 0.88706 0.42613 0.0
O450 O -0.04805 0.79476 0.42144 0.0
O451 O 0.02941 0.77711 0.49856 0.0
O452 O 0.08634 0.86675 0.28431 0.0
O453 O -0.01106 0.83986 0.25689 0.0
O454 O 0.00729 0.88243 0.3988 0.0
O455 O 0.10443 0.85071 0.40488 0.0
O456 O 0.18846 0.77107 0.34865 0.0
O457 O 0.10442 0.76225 0.27787 0.0
C458 C -0.03244 0.78616 0.48326 0.0
C459 C 0.16827 0.76365 0.28835 0.0
Dy460 Dy 0.48665 0.03249 0.43385 0.0
C461 C 0.56267 0.92813 0.24069 0.0
C462 C 0.43269 0.02871 0.54965 0.0
Dy463 Dy 0.57046 0.99056 0.34587 0.0
O464 O 0.46472 0.07183 0.5281 0.0
O465 O 0.42059 0.99222 0.50514 0.0
O466 O 0.47518 0.11713 0.3908 0.0
O467 O 0.56849 0.07656 0.38658 0.0
C468 C 0.53611 0.12088 0.37218 0.0
C469 C 0.53999 0.91035 0.42613 0.0
O470 O 0.6522 1.00263 0.42145 0.0
O471 O 0.57474 1.02029 0.49856 0.0
O472 O 0.51781 0.93068 0.2843 0.0
O473 O 0.61522 0.95757 0.25689 0.0
O474 O 0.59683 0.91497 0.39879 0.0
O475 O 0.4997 0.94671 0.40487 0.0
O476 O 0.41569 0.02637 0.34866 0.0
O477 O 0.49974 0.03518 0.27788 0.0
C478 C 0.6366 1.01122 0.48326 0.0
C479 C 0.43588 0.03378 0.28836 0.0
Dy480 Dy 0.8205 0.55661 0.09592 0.0
C481 C 0.68243 0.51828 0.2996 0.0
C482 C 0.81271 0.61899 0.99068 0.0
Dy483 Dy 0.73656 0.51474 0.18387 0.0
O484 O 0.76785 0.61647 1.03431 0.0
O485 O 0.86525 0.58955 1.00691 0.0
O486 O 0.84701 0.63218 0.14878 0.0
O487 O 0.74981 0.60063 0.1551 0.0
C488 C 0.79021 0.637 0.17613 0.0
C489 C 0.78611 0.42654 0.12189 0.0
O490 O 0.66571 0.52097 0.0986 0.0
O491 O 0.74978 0.51205 1.02786 0.0
O492 O 0.71455 0.47522 0.27802 0.0
O493 O 0.67036 0.55482 0.25515 0.0
O494 O 0.72512 0.43022 0.14036 0.0
O495 O 0.81836 0.47077 0.13682 0.0
O496 O 0.90221 0.54449 0.17149 0.0
O497 O 0.82468 0.52698 0.2486 0.0
C498 C 0.68592 0.5135 1.0383 0.0
C499 C 0.88656 0.53598 0.23331 0.0
Dy500 Dy 0.28369 0.74081 0.09593 0.0
C501 C 0.42174 0.77914 0.29962 0.0
C502 C 0.29147 0.67844 0.99069 0.0
Dy503 Dy 0.36762 0.78268 0.18388 0.0
O504 O 0.33633 0.68096 1.03431 0.0
O505 O 0.23894 0.70788 1.00692 0.0
O506 O 0.2572 0.66523 0.14878 0.0
O507 O 0.35439 0.6968 0.15509 0.0
C508 C 0.31401 0.66041 0.17613 0.0
C509 C 0.31806 0.87089 0.12191 0.0
O510 O 0.43847 0.77648 0.09861 0.0
O511 O 0.35439 0.78539 1.02788 0.0
O512 O 0.38959 0.82219 0.27805 0.0
O513 O 0.43385 0.74262 0.25515 0.0
O514 O 0.37905 0.86721 0.14039 0.0
O515 O 0.28581 0.82666 0.13684 0.0
O516 O 0.20197 0.7529 0.1715 0.0
O517 O 0.2795 0.77041 0.24861 0.0
C518 C 0.41825 0.78394 1.03832 0.0
C519 C 0.21762 0.7614 0.23331 0.0
Dy520 Dy 0.82048 0.7408 0.32012 0.0
C521 C 0.68243 0.77915 0.11645 0.0
C522 C 0.81268 0.67842 0.42537 0.0
Dy523 Dy 0.73654 0.7827 0.23219 0.0
O524 O 0.76782 0.68094 0.38173 0.0
O525 O 0.86522 0.70786 0.40914 0.0
O526 O 0.84703 0.66523 0.26726 0.0
O527 O 0.74978 0.6968 0.26093 0.0
C528 C 0.79023 0.66048 0.23987 0.0
C529 C 0.7861 0.87088 0.29418 0.0
O530 O 0.6657 0.77648 0.31746 0.0
O531 O 0.74978 0.78536 0.38819 0.0
O532 O 0.71457 0.8222 0.13802 0.0
O533 O 0.67033 0.74262 0.16092 0.0
O534 O 0.72512 0.86721 0.27571 0.0
O535 O 0.81835 0.82665 0.27925 0.0
O536 O 0.90219 0.75294 0.24457 0.0
O537 O 0.82468 0.77048 0.16746 0.0
C538 C 0.68592 0.78393 0.37775 0.0
C539 C 0.88656 0.76146 0.18276 0.0
Dy540 Dy 0.28372 0.55662 0.32011 0.0
C541 C 0.42186 0.51819 0.11649 0.0
C542 C 0.29151 0.61898 0.42536 0.0
Dy543 Dy 0.36763 0.51471 0.23219 0.0
O544 O 0.33637 0.61646 0.38173 0.0
O545 O 0.23897 0.58956 0.40912 0.0
O546 O 0.25719 0.6322 0.26725 0.0
O547 O 0.35442 0.60061 0.26092 0.0
C548 C 0.31399 0.63694 0.23987 0.0
C549 C 0.31806 0.42652 0.29418 0.0
O550 O 0.43847 0.52091 0.31747 0.0
O551 O 0.35439 0.51204 0.38819 0.0
O552 O 0.3896 0.47519 0.13803 0.0
O553 O 0.43394 0.55472 0.16096 0.0
O554 O 0.37904 0.4302 0.27571 0.0
O555 O 0.28581 0.47076 0.27925 0.0
O556 O 0.202 0.54451 0.24455 0.0
O557 O 0.27952 0.52697 0.16745 0.0
C558 C 0.41825 0.51346 0.37776 0.0
C559 C 0.21764 0.53599 0.18274 0.0
Dy560 Dy 0.1175 0.53246 0.98223 0.0
C561 C 0.04145 0.42812 0.17539 0.0
C562 C 0.17145 0.5287 0.86642 0.0
Dy563 Dy 0.03368 0.49057 1.07022 0.0
O564 O 0.13947 0.57184 0.888 0.0
O565 O 0.1835 0.49218 0.9109 0.0
O566 O 0.12899 0.61711 1.02528 0.0
O567 O 0.03566 0.57656 1.02949 0.0
C568 C 0.06805 0.62087 1.04388 0.0
C569 C 0.06415 0.41029 0.98998 0.0
O570 O -0.04806 0.50265 0.99463 0.0
O571 O 0.02941 0.52027 0.91752 0.0
O572 O 0.08631 0.43067 0.13177 0.0
O573 O -0.01108 0.45757 0.15919 0.0
O574 O 0.00731 0.41499 1.01729 0.0
O575 O 0.10442 0.44669 1.01122 0.0
O576 O 0.18847 0.52632 1.0674 0.0
O577 O 0.10444 0.53516 0.13819 0.0
C578 C -0.03245 0.51124 0.93282 0.0
C579 C 0.16829 0.53374 0.1277 0.0
Dy580 Dy 0.48666 0.26495 0.98222 0.0
C581 C 0.5627 0.36928 0.17539 0.0
C582 C 0.4327 0.26872 0.86641 0.0
Dy583 Dy 0.57048 0.30685 1.07021 0.0
O584 O 0.46471 0.22559 0.88797 0.0
O585 O 0.42062 0.30522 0.91091 0.0
O586 O 0.47518 0.1803 1.02526 0.0
O587 O 0.5685 0.22086 1.02947 0.0
C588 C 0.53611 0.17654 1.04386 0.0
C589 C 0.53997 0.38713 0.98998 0.0
O590 O 0.65221 0.2948 0.99462 0.0
O591 O 0.57475 0.27717 0.9175 0.0
O592 O 0.51783 0.36673 0.13177 0.0
O593 O 0.61524 0.33984 0.15918 0.0
O594 O 0.59681 0.38244 1.01729 0.0
O595 O 0.49972 0.35072 1.01122 0.0
O596 O 0.41569 0.27107 1.0674 0.0
O597 O 0.49973 0.26224 0.13818 0.0
C598 C 0.6366 0.28621 0.93281 0.0
C599 C 0.43588 0.26365 0.1277 0.0
Dy600 Dy 0.11751 0.26493 0.93384 0.0
C601 C 0.04148 0.3693 0.74068 0.0
C602 C 0.17146 0.26871 1.04965 0.0
Dy603 Dy 0.03369 0.30686 0.84586 0.0
O604 O 0.13946 0.22557 1.02808 0.0
O605 O 0.18353 0.30522 1.00515 0.0
O606 O 0.12898 0.1803 0.89078 0.0
O607 O 0.03567 0.22085 0.88657 0.0
C608 C 0.06805 0.17654 0.87217 0.0
C609 C 0.06413 0.38706 0.92613 0.0
O610 O -0.04805 0.29476 0.92144 0.0
O611 O 0.02941 0.27711 0.99855 0.0
O612 O 0.08634 0.36675 0.78431 0.0
O613 O -0.01106 0.33986 0.75688 0.0
O614 O 0.00729 0.38243 0.8988 0.0
O615 O 0.10443 0.35071 0.90488 0.0
O616 O 0.18847 0.27107 0.84866 0.0
O617 O 0.10443 0.26226 0.77787 0.0
C618 C -0.03244 0.28616 0.98325 0.0
C619 C 0.16828 0.26366 0.78836 0.0
Dy620 Dy 0.48665 0.53249 0.93384 0.0
C621 C 0.56267 0.42813 0.74069 0.0
C622 C 0.43269 0.52871 1.04965 0.0
Dy623 Dy 0.57046 0.49056 0.84587 0.0
O624 O 0.46472 0.57183 1.0281 0.0
O625 O 0.42059 0.49222 1.00514 0.0
O626 O 0.47517 0.61712 0.8908 0.0
O627 O 0.56849 0.57656 0.88658 0.0
C628 C 0.53611 0.62088 0.87218 0.0
C629 C 0.53999 0.41035 0.92613 0.0
O630 O 0.6522 0.50263 0.92145 0.0
O631 O 0.57474 0.52029 0.99856 0.0
O632 O 0.51781 0.43068 0.78431 0.0
O633 O 0.61521 0.45756 0.7569 0.0
O634 O 0.59683 0.41497 0.8988 0.0
O635 O 0.4997 0.44671 0.90487 0.0
O636 O 0.41569 0.52637 0.84866 0.0
O637 O 0.49974 0.53517 0.77788 0.0
C638 C 0.6366 0.51123 0.98326 0.0
C639 C 0.43588 0.53378 0.78836 0.0
loop_
_geom_bond_atom_site_label_1
_geom_bond_atom_site_label_2
_geom_bond_distance
_geom_bond_site_symmetry_2
_ccdc_geom_bond_type
Dy0 O4 2.398 1_554 S
Dy0 O5 2.491 1_544 S
Dy0 O6 2.403 . S
Dy0 O7 2.664 . S
Dy0 O11 2.326 1_554 S
Dy0 O15 2.310 1_545 S
Dy0 O16 2.351 . S
C1 O12 1.185 . S
C1 O13 1.355 1_565 S
C2 O4 1.185 . S
C2 O5 1.355 1_545 S
Dy3 O7 2.310 1_565 S
Dy3 O10 2.351 . S
Dy3 O12 2.398 . S
Dy3 O13 2.491 1_565 S
Dy3 O14 2.403 . S
Dy3 O15 2.664 . S
Dy3 O17 2.326 . S
O4 Dy0 2.398 1_556 S
O4 C2 1.185 . S
O5 Dy0 2.491 1_566 S
O5 C2 1.355 1_565 S
O6 Dy0 2.403 . S
O6 C8 1.254 . S
O7 Dy0 2.664 . S
O7 Dy3 2.310 1_545 S
O7 C8 1.268 . S
C8 O6 1.254 . S
C8 O7 1.268 . S
C9 O14 1.254 . S
C9 O15 1.268 . S
O10 Dy3 2.351 . S
O10 C18 1.249 1_564 S
O11 Dy0 2.326 1_556 S
O11 C18 1.267 . S
O12 C1 1.185 . S
O12 Dy3 2.398 . S
O13 C1 1.355 1_545 S
O13 Dy3 2.491 1_545 S
O14 Dy3 2.403 . S
O14 C9 1.254 . S
O15 Dy0 2.310 1_565 S
O15 Dy3 2.664 . S
O15 C9 1.268 . S
O16 Dy0 2.351 . S
O16 C19 1.248 1_545 S
O17 Dy3 2.326 . S
O17 C19 1.269 . S
C18 O10 1.249 1_546 S
C18 O11 1.267 . S
C19 O16 1.248 1_565 S
C19 O17 1.269 . S
Dy20 O24 2.398 1_554 S
Dy20 O25 2.491 1_554 S
Dy20 O26 2.403 . S
Dy20 O27 2.664 . S
Dy20 O31 2.326 1_554 S
Dy20 O35 2.310 . S
Dy20 O36 2.351 . S
C21 O32 1.185 . S
C21 O33 1.355 1_455 S
C22 O24 1.185 . S
C22 O25 1.355 . S
Dy23 O27 2.310 . S
Dy23 O30 2.351 1_655 S
Dy23 O32 2.398 1_655 S
Dy23 O33 2.491 . S
Dy23 O34 2.403 . S
Dy23 O35 2.664 . S
Dy23 O37 2.326 . S
O24 Dy20 2.398 1_556 S
O24 C22 1.185 . S
O25 Dy20 2.491 1_556 S
O25 C22 1.355 . S
O26 Dy20 2.403 . S
O26 C28 1.254 . S
O27 Dy20 2.664 . S
O27 Dy23 2.310 . S
O27 C28 1.268 . S
C28 O26 1.254 . S
C28 O27 1.268 . S
C29 O34 1.254 . S
C29 O35 1.268 . S
O30 Dy23 2.351 1_455 S
O30 C38 1.249 1_554 S
O31 Dy20 2.326 1_556 S
O31 C38 1.267 1_655 S
O32 C21 1.185 . S
O32 Dy23 2.398 1_455 S
O33 C21 1.355 1_655 S
O33 Dy23 2.491 . S
O34 Dy23 2.403 . S
O34 C29 1.254 . S
O35 Dy20 2.310 . S
O35 Dy23 2.664 . S
O35 C29 1.268 . S
O36 Dy20 2.351 . S
O36 C39 1.249 . S
O37 Dy23 2.326 . S
O37 C39 1.267 . S
C38 O30 1.249 1_556 S
C38 O31 1.267 1_455 S
C39 O36 1.249 . S
C39 O37 1.267 . S
Dy40 O44 2.398 . S
Dy40 O45 2.491 . S
Dy40 O46 2.403 . S
Dy40 O47 2.664 . S
Dy40 O51 2.326 . S
Dy40 O55 2.310 . S
Dy40 O56 2.351 . S
C41 O52 1.185 . S
C41 O53 1.355 . S
C42 O44 1.185 . S
C42 O45 1.355 . S
Dy43 O47 2.310 . S
Dy43 O50 2.351 . S
Dy43 O52 2.398 . S
Dy43 O53 2.491 . S
Dy43 O54 2.403 . S
Dy43 O55 2.664 . S
Dy43 O57 2.326 . S
O44 Dy40 2.398 . S
O44 C42 1.185 . S
O45 Dy40 2.491 . S
O45 C42 1.355 . S
O46 Dy40 2.403 . S
O46 C48 1.254 . S
O47 Dy40 2.664 . S
O47 Dy43 2.310 . S
O47 C48 1.268 . S
C48 O46 1.254 . S
C48 O47 1.268 . S
C49 O54 1.254 . S
C49 O55 1.268 . S
O50 Dy43 2.351 . S
O50 C58 1.249 . S
O51 Dy40 2.326 . S
O51 C58 1.267 . S
O52 C41 1.185 . S
O52 Dy43 2.398 . S
O53 C41 1.355 . S
O53 Dy43 2.491 . S
O54 Dy43 2.403 . S
O54 C49 1.254 . S
O55 Dy40 2.310 . S
O55 Dy43 2.664 . S
O55 C49 1.268 . S
O56 Dy40 2.351 . S
O56 C59 1.249 . S
O57 Dy43 2.326 . S
O57 C59 1.267 . S
C58 O50 1.249 . S
C58 O51 1.267 . S
C59 O56 1.249 . S
C59 O57 1.267 . S
Dy60 O64 2.398 . S
Dy60 O65 2.491 1_545 S
Dy60 O66 2.403 . S
Dy60 O67 2.664 . S
Dy60 O71 2.326 . S
Dy60 O75 2.310 1_545 S
Dy60 O76 2.351 . S
C61 O72 1.185 . S
C61 O73 1.355 1_465 S
C62 O64 1.185 . S
C62 O65 1.355 1_545 S
Dy63 O67 2.310 1_565 S
Dy63 O70 2.351 1_655 S
Dy63 O72 2.398 1_655 S
Dy63 O73 2.491 1_565 S
Dy63 O74 2.403 . S
Dy63 O75 2.664 . S
Dy63 O77 2.326 . S
O64 Dy60 2.398 . S
O64 C62 1.185 . S
O65 Dy60 2.491 1_565 S
O65 C62 1.355 1_565 S
O66 Dy60 2.403 . S
O66 C68 1.254 . S
O67 Dy60 2.664 . S
O67 Dy63 2.310 1_545 S
O67 C68 1.268 . S
C68 O66 1.254 . S
C68 O67 1.268 . S
C69 O74 1.254 . S
C69 O75 1.268 . S
O70 Dy63 2.351 1_455 S
O70 C78 1.249 1_565 S
O71 Dy60 2.326 . S
O71 C78 1.267 1_655 S
O72 C61 1.185 . S
O72 Dy63 2.398 1_455 S
O73 C61 1.355 1_645 S
O73 Dy63 2.491 1_545 S
O74 Dy63 2.403 . S
O74 C69 1.254 . S
O75 Dy60 2.310 1_565 S
O75 Dy63 2.664 . S
O75 C69 1.268 . S
O76 Dy60 2.351 . S
O76 C79 1.248 1_545 S
O77 Dy63 2.326 . S
O77 C79 1.269 . S
C78 O70 1.249 1_545 S
C78 O71 1.267 1_455 S
C79 O76 1.248 1_565 S
C79 O77 1.269 . S
Dy80 O84 2.398 . S
Dy80 O85 2.491 1_545 S
Dy80 O86 2.403 . S
Dy80 O87 2.664 . S
Dy80 O91 2.326 . S
Dy80 O95 2.310 1_545 S
Dy80 O96 2.351 . S
C81 O92 1.185 . S
C81 O93 1.355 1_565 S
C82 O84 1.185 . S
C82 O85 1.355 1_545 S
Dy83 O87 2.310 1_565 S
Dy83 O90 2.351 . S
Dy83 O92 2.398 1_556 S
Dy83 O93 2.491 1_566 S
Dy83 O94 2.403 . S
Dy83 O95 2.664 . S
Dy83 O97 2.326 1_556 S
O84 Dy80 2.398 . S
O84 C82 1.185 . S
O85 Dy80 2.491 1_565 S
O85 C82 1.355 1_565 S
O86 Dy80 2.403 . S
O86 C88 1.254 . S
O87 Dy80 2.664 . S
O87 Dy83 2.310 1_545 S
O87 C88 1.268 . S
C88 O86 1.254 . S
C88 O87 1.268 . S
C89 O94 1.254 . S
C89 O95 1.268 . S
O90 Dy83 2.351 . S
O90 C98 1.248 1_565 S
O91 Dy80 2.326 . S
O91 C98 1.269 . S
O92 C81 1.185 . S
O92 Dy83 2.398 1_554 S
O93 C81 1.355 1_545 S
O93 Dy83 2.491 1_544 S
O94 Dy83 2.403 . S
O94 C89 1.254 . S
O95 Dy80 2.310 1_565 S
O95 Dy83 2.664 . S
O95 C89 1.268 . S
O96 Dy80 2.351 . S
O96 C99 1.249 1_546 S
O97 Dy83 2.326 1_554 S
O97 C99 1.267 . S
C98 O90 1.248 1_545 S
C98 O91 1.269 . S
C99 O96 1.249 1_564 S
C99 O97 1.267 . S
Dy100 O104 2.398 1_455 S
Dy100 O105 2.491 . S
Dy100 O106 2.403 . S
Dy100 O107 2.664 . S
Dy100 O111 2.326 . S
Dy100 O115 2.310 . S
Dy100 O116 2.351 1_455 S
C101 O112 1.185 . S
C101 O113 1.355 . S
C102 O104 1.185 . S
C102 O105 1.355 1_655 S
Dy103 O107 2.310 . S
Dy103 O110 2.351 . S
Dy103 O112 2.398 1_556 S
Dy103 O113 2.491 1_556 S
Dy103 O114 2.403 . S
Dy103 O115 2.664 . S
Dy103 O117 2.326 1_556 S
O104 Dy100 2.398 1_655 S
O104 C102 1.185 . S
O105 Dy100 2.491 . S
O105 C102 1.355 1_455 S
O106 Dy100 2.403 . S
O106 C108 1.254 . S
O107 Dy100 2.664 . S
O107 Dy103 2.310 . S
O107 C108 1.268 . S
C108 O106 1.254 . S
C108 O107 1.268 . S
C109 O114 1.254 . S
C109 O115 1.268 . S
O110 Dy103 2.351 . S
O110 C118 1.249 . S
O111 Dy100 2.326 . S
O111 C118 1.267 . S
O112 C101 1.185 . S
O112 Dy103 2.398 1_554 S
O113 C101 1.355 . S
O113 Dy103 2.491 1_554 S
O114 Dy103 2.403 . S
O114 C109 1.254 . S
O115 Dy100 2.310 . S
O115 Dy103 2.664 . S
O115 C109 1.268 . S
O116 Dy100 2.351 1_655 S
O116 C119 1.249 1_556 S
O117 Dy103 2.326 1_554 S
O117 C119 1.267 1_455 S
C118 O110 1.249 . S
C118 O111 1.267 . S
C119 O116 1.249 1_554 S
C119 O117 1.267 1_655 S
Dy120 O124 2.398 . S
Dy120 O125 2.491 . S
Dy120 O126 2.403 . S
Dy120 O127 2.664 . S
Dy120 O131 2.326 . S
Dy120 O135 2.310 . S
Dy120 O136 2.351 . S
C121 O132 1.185 . S
C121 O133 1.355 . S
C122 O124 1.185 . S
C122 O125 1.355 . S
Dy123 O127 2.310 . S
Dy123 O130 2.351 . S
Dy123 O132 2.398 . S
Dy123 O133 2.491 . S
Dy123 O134 2.403 . S
Dy123 O135 2.664 . S
Dy123 O137 2.326 . S
O124 Dy120 2.398 . S
O124 C122 1.185 . S
O125 Dy120 2.491 . S
O125 C122 1.355 . S
O126 Dy120 2.403 . S
O126 C128 1.254 . S
O127 Dy120 2.664 . S
O127 Dy123 2.310 . S
O127 C128 1.268 . S
C128 O126 1.254 . S
C128 O127 1.268 . S
C129 O134 1.254 . S
C129 O135 1.268 . S
O130 Dy123 2.351 . S
O130 C138 1.249 . S
O131 Dy120 2.326 . S
O131 C138 1.267 . S
O132 C121 1.185 . S
O132 Dy123 2.398 . S
O133 C121 1.355 . S
O133 Dy123 2.491 . S
O134 Dy123 2.403 . S
O134 C129 1.254 . S
O135 Dy120 2.310 . S
O135 Dy123 2.664 . S
O135 C129 1.268 . S
O136 Dy120 2.351 . S
O136 C139 1.249 . S
O137 Dy123 2.326 . S
O137 C139 1.267 . S
C138 O130 1.249 . S
C138 O131 1.267 . S
C139 O136 1.249 . S
C139 O137 1.267 . S
Dy140 O144 2.398 1_455 S
Dy140 O145 2.491 1_545 S
Dy140 O146 2.403 . S
Dy140 O147 2.664 . S
Dy140 O151 2.326 . S
Dy140 O155 2.310 1_545 S
Dy140 O156 2.351 1_455 S
C141 O152 1.185 . S
C141 O153 1.355 1_565 S
C142 O144 1.185 . S
C142 O145 1.355 1_645 S
Dy143 O147 2.310 1_565 S
Dy143 O150 2.351 . S
Dy143 O152 2.398 . S
Dy143 O153 2.491 1_565 S
Dy143 O154 2.403 . S
Dy143 O155 2.664 . S
Dy143 O157 2.326 . S
O144 Dy140 2.398 1_655 S
O144 C142 1.185 . S
O145 Dy140 2.491 1_565 S
O145 C142 1.355 1_465 S
O146 Dy140 2.403 . S
O146 C148 1.254 . S
O147 Dy140 2.664 . S
O147 Dy143 2.310 1_545 S
O147 C148 1.268 . S
C148 O146 1.254 . S
C148 O147 1.268 . S
C149 O154 1.254 . S
C149 O155 1.268 . S
O150 Dy143 2.351 . S
O150 C158 1.248 1_565 S
O151 Dy140 2.326 . S
O151 C158 1.269 . S
O152 C141 1.185 . S
O152 Dy143 2.398 . S
O153 C141 1.355 1_545 S
O153 Dy143 2.491 1_545 S
O154 Dy143 2.403 . S
O154 C149 1.254 . S
O155 Dy140 2.310 1_565 S
O155 Dy143 2.664 . S
O155 C149 1.268 . S
O156 Dy140 2.351 1_655 S
O156 C159 1.249 1_545 S
O157 Dy143 2.326 . S
O157 C159 1.267 1_455 S
C158 O150 1.248 1_545 S
C158 O151 1.269 . S
C159 O156 1.249 1_565 S
C159 O157 1.267 1_655 S
Dy160 O164 2.398 . S
Dy160 O165 2.491 . S
Dy160 O166 2.403 . S
Dy160 O167 2.664 . S
Dy160 O171 2.326 . S
Dy160 O175 2.310 . S
Dy160 O176 2.351 . S
C161 O172 1.185 . S
C161 O173 1.355 . S
C162 O164 1.185 . S
C162 O165 1.355 . S
Dy163 O167 2.310 . S
Dy163 O170 2.351 . S
Dy163 O172 2.398 . S
Dy163 O173 2.491 . S
Dy163 O174 2.403 . S
Dy163 O175 2.664 . S
Dy163 O177 2.326 . S
O164 Dy160 2.398 . S
O164 C162 1.185 . S
O165 Dy160 2.491 . S
O165 C162 1.355 . S
O166 Dy160 2.403 . S
O166 C168 1.254 . S
O167 Dy160 2.664 . S
O167 Dy163 2.310 . S
O167 C168 1.268 . S
C168 O166 1.254 . S
C168 O167 1.268 . S
C169 O174 1.254 . S
C169 O175 1.268 . S
O170 Dy163 2.351 . S
O170 C178 1.249 . S
O171 Dy160 2.326 . S
O171 C178 1.267 . S
O172 C161 1.185 . S
O172 Dy163 2.398 . S
O173 C161 1.355 . S
O173 Dy163 2.491 . S
O174 Dy163 2.403 . S
O174 C169 1.254 . S
O175 Dy160 2.310 . S
O175 Dy163 2.664 . S
O175 C169 1.268 . S
O176 Dy160 2.351 . S
O176 C179 1.249 . S
O177 Dy163 2.326 . S
O177 C179 1.267 . S
C178 O170 1.249 . S
C178 O171 1.267 . S
C179 O176 1.249 . S
C179 O177 1.267 . S
Dy180 O184 2.398 . S
Dy180 O185 2.491 . S
Dy180 O186 2.403 . S
Dy180 O187 2.664 . S
Dy180 O191 2.326 . S
Dy180 O195 2.310 . S
Dy180 O196 2.351 . S
C181 O192 1.185 . S
C181 O193 1.355 1_455 S
C182 O184 1.185 . S
C182 O185 1.355 . S
Dy183 O187 2.310 . S
Dy183 O190 2.351 1_655 S
Dy183 O192 2.398 1_655 S
Dy183 O193 2.491 . S
Dy183 O194 2.403 . S
Dy183 O195 2.664 . S
Dy183 O197 2.326 . S
O184 Dy180 2.398 . S
O184 C182 1.185 . S
O185 Dy180 2.491 . S
O185 C182 1.355 . S
O186 Dy180 2.403 . S
O186 C188 1.254 . S
O187 Dy180 2.664 . S
O187 Dy183 2.310 . S
O187 C188 1.268 . S
C188 O186 1.254 . S
C188 O187 1.268 . S
C189 O194 1.254 . S
C189 O195 1.268 . S
O190 Dy183 2.351 1_455 S
O190 C198 1.249 . S
O191 Dy180 2.326 . S
O191 C198 1.267 1_655 S
O192 C181 1.185 . S
O192 Dy183 2.398 1_455 S
O193 C181 1.355 1_655 S
O193 Dy183 2.491 . S
O194 Dy183 2.403 . S
O194 C189 1.254 . S
O195 Dy180 2.310 . S
O195 Dy183 2.664 . S
O195 C189 1.268 . S
O196 Dy180 2.351 . S
O196 C199 1.249 . S
O197 Dy183 2.326 . S
O197 C199 1.267 . S
C198 O190 1.249 . S
C198 O191 1.267 1_455 S
C199 O196 1.249 . S
C199 O197 1.267 . S
Dy200 O204 2.398 . S
Dy200 O205 2.491 . S
Dy200 O206 2.403 . S
Dy200 O207 2.664 . S
Dy200 O211 2.326 . S
Dy200 O215 2.310 . S
Dy200 O216 2.351 . S
C201 O212 1.185 . S
C201 O213 1.355 . S
C202 O204 1.185 . S
C202 O205 1.355 . S
Dy203 O207 2.310 . S
Dy203 O210 2.351 . S
Dy203 O212 2.398 . S
Dy203 O213 2.491 . S
Dy203 O214 2.403 . S
Dy203 O215 2.664 . S
Dy203 O217 2.326 . S
O204 Dy200 2.398 . S
O204 C202 1.185 . S
O205 Dy200 2.491 . S
O205 C202 1.355 . S
O206 Dy200 2.403 . S
O206 C208 1.254 . S
O207 Dy200 2.664 . S
O207 Dy203 2.310 . S
O207 C208 1.268 . S
C208 O206 1.254 . S
C208 O207 1.268 . S
C209 O214 1.254 . S
C209 O215 1.268 . S
O210 Dy203 2.351 . S
O210 C218 1.249 . S
O211 Dy200 2.326 . S
O211 C218 1.267 . S
O212 C201 1.185 . S
O212 Dy203 2.398 . S
O213 C201 1.355 . S
O213 Dy203 2.491 . S
O214 Dy203 2.403 . S
O214 C209 1.254 . S
O215 Dy200 2.310 . S
O215 Dy203 2.664 . S
O215 C209 1.268 . S
O216 Dy200 2.351 . S
O216 C219 1.249 . S
O217 Dy203 2.326 . S
O217 C219 1.267 . S
C218 O210 1.249 . S
C218 O211 1.267 . S
C219 O216 1.249 . S
C219 O217 1.267 . S
Dy220 O224 2.398 . S
Dy220 O225 2.491 . S
Dy220 O226 2.403 . S
Dy220 O227 2.664 . S
Dy220 O231 2.326 . S
Dy220 O235 2.310 . S
Dy220 O236 2.351 . S
C221 O232 1.185 . S
C221 O233 1.355 1_455 S
C222 O224 1.185 . S
C222 O225 1.355 . S
Dy223 O227 2.310 . S
Dy223 O230 2.351 1_655 S
Dy223 O232 2.398 1_655 S
Dy223 O233 2.491 . S
Dy223 O234 2.403 . S
Dy223 O235 2.664 . S
Dy223 O237 2.326 . S
O224 Dy220 2.398 . S
O224 C222 1.185 . S
O225 Dy220 2.491 . S
O225 C222 1.355 . S
O226 Dy220 2.403 . S
O226 C228 1.254 . S
O227 Dy220 2.664 . S
O227 Dy223 2.310 . S
O227 C228 1.268 . S
C228 O226 1.254 . S
C228 O227 1.268 . S
C229 O234 1.254 . S
C229 O235 1.268 . S
O230 Dy223 2.351 1_455 S
O230 C238 1.249 . S
O231 Dy220 2.326 . S
O231 C238 1.267 1_655 S
O232 C221 1.185 . S
O232 Dy223 2.398 1_455 S
O233 C221 1.355 1_655 S
O233 Dy223 2.491 . S
O234 Dy223 2.403 . S
O234 C229 1.254 . S
O235 Dy220 2.310 . S
O235 Dy223 2.664 . S
O235 C229 1.268 . S
O236 Dy220 2.351 . S
O236 C239 1.249 . S
O237 Dy223 2.326 . S
O237 C239 1.267 . S
C238 O230 1.249 . S
C238 O231 1.267 1_455 S
C239 O236 1.249 . S
C239 O237 1.267 . S
Dy240 O244 2.398 . S
Dy240 O245 2.491 . S
Dy240 O246 2.403 . S
Dy240 O247 2.664 . S
Dy240 O251 2.326 . S
Dy240 O255 2.310 . S
Dy240 O256 2.351 . S
C241 O252 1.185 . S
C241 O253 1.355 . S
C242 O244 1.185 . S
C242 O245 1.355 . S
Dy243 O247 2.310 . S
Dy243 O250 2.351 . S
Dy243 O252 2.398 . S
Dy243 O253 2.491 . S
Dy243 O254 2.403 . S
Dy243 O255 2.664 . S
Dy243 O257 2.326 . S
O244 Dy240 2.398 . S
O244 C242 1.185 . S
O245 Dy240 2.491 . S
O245 C242 1.355 . S
O246 Dy240 2.403 . S
O246 C248 1.254 . S
O247 Dy240 2.664 . S
O247 Dy243 2.310 . S
O247 C248 1.268 . S
C248 O246 1.254 . S
C248 O247 1.268 . S
C249 O254 1.254 . S
C249 O255 1.268 . S
O250 Dy243 2.351 . S
O250 C258 1.249 . S
O251 Dy240 2.326 . S
O251 C258 1.267 . S
O252 C241 1.185 . S
O252 Dy243 2.398 . S
O253 C241 1.355 . S
O253 Dy243 2.491 . S
O254 Dy243 2.403 . S
O254 C249 1.254 . S
O255 Dy240 2.310 . S
O255 Dy243 2.664 . S
O255 C249 1.268 . S
O256 Dy240 2.351 . S
O256 C259 1.249 . S
O257 Dy243 2.326 . S
O257 C259 1.267 . S
C258 O250 1.249 . S
C258 O251 1.267 . S
C259 O256 1.249 . S
C259 O257 1.267 . S
Dy260 O264 2.398 1_455 S
Dy260 O265 2.491 . S
Dy260 O266 2.403 . S
Dy260 O267 2.664 . S
Dy260 O271 2.326 . S
Dy260 O275 2.310 . S
Dy260 O276 2.351 1_455 S
C261 O272 1.185 . S
C261 O273 1.355 . S
C262 O264 1.185 . S
C262 O265 1.355 1_655 S
Dy263 O267 2.310 . S
Dy263 O270 2.351 . S
Dy263 O272 2.398 . S
Dy263 O273 2.491 . S
Dy263 O274 2.403 . S
Dy263 O275 2.664 . S
Dy263 O277 2.326 . S
O264 Dy260 2.398 1_655 S
O264 C262 1.185 . S
O265 Dy260 2.491 . S
O265 C262 1.355 1_455 S
O266 Dy260 2.403 . S
O266 C268 1.254 . S
O267 Dy260 2.664 . S
O267 Dy263 2.310 . S
O267 C268 1.268 . S
C268 O266 1.254 . S
C268 O267 1.268 . S
C269 O274 1.254 . S
C269 O275 1.268 . S
O270 Dy263 2.351 . S
O270 C278 1.249 . S
O271 Dy260 2.326 . S
O271 C278 1.267 . S
O272 C261 1.185 . S
O272 Dy263 2.398 . S
O273 C261 1.355 . S
O273 Dy263 2.491 . S
O274 Dy263 2.403 . S
O274 C269 1.254 . S
O275 Dy260 2.310 . S
O275 Dy263 2.664 . S
O275 C269 1.268 . S
O276 Dy260 2.351 1_655 S
O276 C279 1.249 . S
O277 Dy263 2.326 . S
O277 C279 1.267 1_455 S
C278 O270 1.249 . S
C278 O271 1.267 . S
C279 O276 1.249 . S
C279 O277 1.267 1_655 S
Dy280 O284 2.398 . S
Dy280 O285 2.491 . S
Dy280 O286 2.403 . S
Dy280 O287 2.664 . S
Dy280 O291 2.326 . S
Dy280 O295 2.310 . S
Dy280 O296 2.351 . S
C281 O292 1.185 . S
C281 O293 1.355 . S
C282 O284 1.185 . S
C282 O285 1.355 . S
Dy283 O287 2.310 . S
Dy283 O290 2.351 . S
Dy283 O292 2.398 . S
Dy283 O293 2.491 . S
Dy283 O294 2.403 . S
Dy283 O295 2.664 . S
Dy283 O297 2.326 . S
O284 Dy280 2.398 . S
O284 C282 1.185 . S
O285 Dy280 2.491 . S
O285 C282 1.355 . S
O286 Dy280 2.403 . S
O286 C288 1.254 . S
O287 Dy280 2.664 . S
O287 Dy283 2.310 . S
O287 C288 1.268 . S
C288 O286 1.254 . S
C288 O287 1.268 . S
C289 O294 1.254 . S
C289 O295 1.268 . S
O290 Dy283 2.351 . S
O290 C298 1.249 . S
O291 Dy280 2.326 . S
O291 C298 1.267 . S
O292 C281 1.185 . S
O292 Dy283 2.398 . S
O293 C281 1.355 . S
O293 Dy283 2.491 . S
O294 Dy283 2.403 . S
O294 C289 1.254 . S
O295 Dy280 2.310 . S
O295 Dy283 2.664 . S
O295 C289 1.268 . S
O296 Dy280 2.351 . S
O296 C299 1.249 . S
O297 Dy283 2.326 . S
O297 C299 1.267 . S
C298 O290 1.249 . S
C298 O291 1.267 . S
C299 O296 1.249 . S
C299 O297 1.267 . S
Dy300 O304 2.398 1_455 S
Dy300 O305 2.491 . S
Dy300 O306 2.403 . S
Dy300 O307 2.664 . S
Dy300 O311 2.326 . S
Dy300 O315 2.310 . S
Dy300 O316 2.351 1_455 S
C301 O312 1.185 . S
C301 O313 1.355 . S
C302 O304 1.185 . S
C302 O305 1.355 1_655 S
Dy303 O307 2.310 . S
Dy303 O310 2.351 . S
Dy303 O312 2.398 . S
Dy303 O313 2.491 . S
Dy303 O314 2.403 . S
Dy303 O315 2.664 . S
Dy303 O317 2.326 . S
O304 Dy300 2.398 1_655 S
O304 C302 1.185 . S
O305 Dy300 2.491 . S
O305 C302 1.355 1_455 S
O306 Dy300 2.403 . S
O306 C308 1.254 . S
O307 Dy300 2.664 . S
O307 Dy303 2.310 . S
O307 C308 1.268 . S
C308 O306 1.254 . S
C308 O307 1.268 . S
C309 O314 1.254 . S
C309 O315 1.268 . S
O310 Dy303 2.351 . S
O310 C318 1.249 . S
O311 Dy300 2.326 . S
O311 C318 1.267 . S
O312 C301 1.185 . S
O312 Dy303 2.398 . S
O313 C301 1.355 . S
O313 Dy303 2.491 . S
O314 Dy303 2.403 . S
O314 C309 1.254 . S
O315 Dy300 2.310 . S
O315 Dy303 2.664 . S
O315 C309 1.268 . S
O316 Dy300 2.351 1_655 S
O316 C319 1.249 . S
O317 Dy303 2.326 . S
O317 C319 1.267 1_455 S
C318 O310 1.249 . S
C318 O311 1.267 . S
C319 O316 1.249 . S
C319 O317 1.267 1_655 S
Dy320 O324 2.398 . S
Dy320 O325 2.491 1_545 S
Dy320 O326 2.403 . S
Dy320 O327 2.664 . S
Dy320 O331 2.326 . S
Dy320 O335 2.310 1_545 S
Dy320 O336 2.351 . S
C321 O332 1.185 . S
C321 O333 1.355 1_565 S
C322 O324 1.185 . S
C322 O325 1.355 1_545 S
Dy323 O327 2.310 1_565 S
Dy323 O330 2.351 . S
Dy323 O332 2.398 . S
Dy323 O333 2.491 1_565 S
Dy323 O334 2.403 . S
Dy323 O335 2.664 . S
Dy323 O337 2.326 . S
O324 Dy320 2.398 . S
O324 C322 1.185 . S
O325 Dy320 2.491 1_565 S
O325 C322 1.355 1_565 S
O326 Dy320 2.403 . S
O326 C328 1.254 . S
O327 Dy320 2.664 . S
O327 Dy323 2.310 1_545 S
O327 C328 1.268 . S
C328 O326 1.254 . S
C328 O327 1.268 . S
C329 O334 1.254 . S
C329 O335 1.268 . S
O330 Dy323 2.351 . S
O330 C338 1.249 1_565 S
O331 Dy320 2.326 . S
O331 C338 1.267 . S
O332 C321 1.185 . S
O332 Dy323 2.398 . S
O333 C321 1.355 1_545 S
O333 Dy323 2.491 1_545 S
O334 Dy323 2.403 . S
O334 C329 1.254 . S
O335 Dy320 2.310 1_565 S
O335 Dy323 2.664 . S
O335 C329 1.268 . S
O336 Dy320 2.351 . S
O336 C339 1.248 1_545 S
O337 Dy323 2.326 . S
O337 C339 1.269 . S
C338 O330 1.249 1_545 S
C338 O331 1.267 . S
C339 O336 1.248 1_565 S
C339 O337 1.269 . S
Dy340 O344 2.398 . S
Dy340 O345 2.491 . S
Dy340 O346 2.403 . S
Dy340 O347 2.664 . S
Dy340 O351 2.326 . S
Dy340 O355 2.310 . S
Dy340 O356 2.351 . S
C341 O352 1.185 . S
C341 O353 1.355 . S
C342 O344 1.185 . S
C342 O345 1.355 . S
Dy343 O347 2.310 . S
Dy343 O350 2.351 . S
Dy343 O352 2.398 . S
Dy343 O353 2.491 . S
Dy343 O354 2.403 . S
Dy343 O355 2.664 . S
Dy343 O357 2.326 . S
O344 Dy340 2.398 . S
O344 C342 1.185 . S
O345 Dy340 2.491 . S
O345 C342 1.355 . S
O346 Dy340 2.403 . S
O346 C348 1.254 . S
O347 Dy340 2.664 . S
O347 Dy343 2.310 . S
O347 C348 1.268 . S
C348 O346 1.254 . S
C348 O347 1.268 . S
C349 O354 1.254 . S
C349 O355 1.268 . S
O350 Dy343 2.351 . S
O350 C358 1.249 . S
O351 Dy340 2.326 . S
O351 C358 1.267 . S
O352 C341 1.185 . S
O352 Dy343 2.398 . S
O353 C341 1.355 . S
O353 Dy343 2.491 . S
O354 Dy343 2.403 . S
O354 C349 1.254 . S
O355 Dy340 2.310 . S
O355 Dy343 2.664 . S
O355 C349 1.268 . S
O356 Dy340 2.351 . S
O356 C359 1.249 . S
O357 Dy343 2.326 . S
O357 C359 1.267 . S
C358 O350 1.249 . S
C358 O351 1.267 . S
C359 O356 1.249 . S
C359 O357 1.267 . S
Dy360 O364 2.398 . S
Dy360 O365 2.491 . S
Dy360 O366 2.403 . S
Dy360 O367 2.664 . S
Dy360 O371 2.326 . S
Dy360 O375 2.310 . S
Dy360 O376 2.351 . S
C361 O372 1.185 . S
C361 O373 1.355 . S
C362 O364 1.185 . S
C362 O365 1.355 . S
Dy363 O367 2.310 . S
Dy363 O370 2.351 . S
Dy363 O372 2.398 . S
Dy363 O373 2.491 . S
Dy363 O374 2.403 . S
Dy363 O375 2.664 . S
Dy363 O377 2.326 . S
O364 Dy360 2.398 . S
O364 C362 1.185 . S
O365 Dy360 2.491 . S
O365 C362 1.355 . S
O366 Dy360 2.403 . S
O366 C368 1.254 . S
O367 Dy360 2.664 . S
O367 Dy363 2.310 . S
O367 C368 1.268 . S
C368 O366 1.254 . S
C368 O367 1.268 . S
C369 O374 1.254 . S
C369 O375 1.268 . S
O370 Dy363 2.351 . S
O370 C378 1.249 . S
O371 Dy360 2.326 . S
O371 C378 1.267 . S
O372 C361 1.185 . S
O372 Dy363 2.398 . S
O373 C361 1.355 . S
O373 Dy363 2.491 . S
O374 Dy363 2.403 . S
O374 C369 1.254 . S
O375 Dy360 2.310 . S
O375 Dy363 2.664 . S
O375 C369 1.268 . S
O376 Dy360 2.351 . S
O376 C379 1.249 . S
O377 Dy363 2.326 . S
O377 C379 1.267 . S
C378 O370 1.249 . S
C378 O371 1.267 . S
C379 O376 1.249 . S
C379 O377 1.267 . S
Dy380 O384 2.398 . S
Dy380 O385 2.491 1_545 S
Dy380 O386 2.403 . S
Dy380 O387 2.664 . S
Dy380 O391 2.326 . S
Dy380 O395 2.310 1_545 S
Dy380 O396 2.351 . S
C381 O392 1.185 . S
C381 O393 1.355 1_565 S
C382 O384 1.185 . S
C382 O385 1.355 1_545 S
Dy383 O387 2.310 1_565 S
Dy383 O390 2.351 . S
Dy383 O392 2.398 . S
Dy383 O393 2.491 1_565 S
Dy383 O394 2.403 . S
Dy383 O395 2.664 . S
Dy383 O397 2.326 . S
O384 Dy380 2.398 . S
O384 C382 1.185 . S
O385 Dy380 2.491 1_565 S
O385 C382 1.355 1_565 S
O386 Dy380 2.403 . S
O386 C388 1.254 . S
O387 Dy380 2.664 . S
O387 Dy383 2.310 1_545 S
O387 C388 1.268 . S
C388 O386 1.254 . S
C388 O387 1.268 . S
C389 O394 1.254 . S
C389 O395 1.268 . S
O390 Dy383 2.351 . S
O390 C398 1.249 1_565 S
O391 Dy380 2.326 . S
O391 C398 1.267 . S
O392 C381 1.185 . S
O392 Dy383 2.398 . S
O393 C381 1.355 1_545 S
O393 Dy383 2.491 1_545 S
O394 Dy383 2.403 . S
O394 C389 1.254 . S
O395 Dy380 2.310 1_565 S
O395 Dy383 2.664 . S
O395 C389 1.268 . S
O396 Dy380 2.351 . S
O396 C399 1.248 1_545 S
O397 Dy383 2.326 . S
O397 C399 1.269 . S
C398 O390 1.249 1_545 S
C398 O391 1.267 . S
C399 O396 1.248 1_565 S
C399 O397 1.269 . S
Dy400 O404 2.398 . S
Dy400 O405 2.491 1_545 S
Dy400 O406 2.403 . S
Dy400 O407 2.664 . S
Dy400 O411 2.326 . S
Dy400 O415 2.310 1_545 S
Dy400 O416 2.351 . S
C401 O412 1.185 . S
C401 O413 1.355 1_565 S
C402 O404 1.185 . S
C402 O405 1.355 1_545 S
Dy403 O407 2.310 1_565 S
Dy403 O410 2.351 . S
Dy403 O412 2.398 . S
Dy403 O413 2.491 1_565 S
Dy403 O414 2.403 . S
Dy403 O415 2.664 . S
Dy403 O417 2.326 . S
O404 Dy400 2.398 . S
O404 C402 1.185 . S
O405 Dy400 2.491 1_565 S
O405 C402 1.355 1_565 S
O406 Dy400 2.403 . S
O406 C408 1.254 . S
O407 Dy400 2.664 . S
O407 Dy403 2.310 1_545 S
O407 C408 1.268 . S
C408 O406 1.254 . S
C408 O407 1.268 . S
C409 O414 1.254 . S
C409 O415 1.268 . S
O410 Dy403 2.351 . S
O410 C418 1.248 1_565 S
O411 Dy400 2.326 . S
O411 C418 1.269 . S
O412 C401 1.185 . S
O412 Dy403 2.398 . S
O413 C401 1.355 1_545 S
O413 Dy403 2.491 1_545 S
O414 Dy403 2.403 . S
O414 C409 1.254 . S
O415 Dy400 2.310 1_565 S
O415 Dy403 2.664 . S
O415 C409 1.268 . S
O416 Dy400 2.351 . S
O416 C419 1.249 1_545 S
O417 Dy403 2.326 . S
O417 C419 1.267 . S
C418 O410 1.248 1_545 S
C418 O411 1.269 . S
C419 O416 1.249 1_565 S
C419 O417 1.267 . S
Dy420 O424 2.398 . S
Dy420 O425 2.491 . S
Dy420 O426 2.403 . S
Dy420 O427 2.664 . S
Dy420 O431 2.326 . S
Dy420 O435 2.310 . S
Dy420 O436 2.351 . S
C421 O432 1.185 . S
C421 O433 1.355 . S
C422 O424 1.185 . S
C422 O425 1.355 . S
Dy423 O427 2.310 . S
Dy423 O430 2.351 . S
Dy423 O432 2.398 . S
Dy423 O433 2.491 . S
Dy423 O434 2.403 . S
Dy423 O435 2.664 . S
Dy423 O437 2.326 . S
O424 Dy420 2.398 . S
O424 C422 1.185 . S
O425 Dy420 2.491 . S
O425 C422 1.355 . S
O426 Dy420 2.403 . S
O426 C428 1.254 . S
O427 Dy420 2.664 . S
O427 Dy423 2.310 . S
O427 C428 1.268 . S
C428 O426 1.254 . S
C428 O427 1.268 . S
C429 O434 1.254 . S
C429 O435 1.268 . S
O430 Dy423 2.351 . S
O430 C438 1.249 . S
O431 Dy420 2.326 . S
O431 C438 1.267 . S
O432 C421 1.185 . S
O432 Dy423 2.398 . S
O433 C421 1.355 . S
O433 Dy423 2.491 . S
O434 Dy423 2.403 . S
O434 C429 1.254 . S
O435 Dy420 2.310 . S
O435 Dy423 2.664 . S
O435 C429 1.268 . S
O436 Dy420 2.351 . S
O436 C439 1.249 . S
O437 Dy423 2.326 . S
O437 C439 1.267 . S
C438 O430 1.249 . S
C438 O431 1.267 . S
C439 O436 1.249 . S
C439 O437 1.267 . S
Dy440 O444 2.398 . S
Dy440 O445 2.491 . S
Dy440 O446 2.403 . S
Dy440 O447 2.664 . S
Dy440 O451 2.326 . S
Dy440 O455 2.310 . S
Dy440 O456 2.351 . S
C441 O452 1.185 . S
C441 O453 1.355 . S
C442 O444 1.185 . S
C442 O445 1.355 . S
Dy443 O447 2.310 . S
Dy443 O450 2.351 . S
Dy443 O452 2.398 . S
Dy443 O453 2.491 . S
Dy443 O454 2.403 . S
Dy443 O455 2.664 . S
Dy443 O457 2.326 . S
O444 Dy440 2.398 . S
O444 C442 1.185 . S
O445 Dy440 2.491 . S
O445 C442 1.355 . S
O446 Dy440 2.403 . S
O446 C448 1.254 . S
O447 Dy440 2.664 . S
O447 Dy443 2.310 . S
O447 C448 1.268 . S
C448 O446 1.254 . S
C448 O447 1.268 . S
C449 O454 1.254 . S
C449 O455 1.268 . S
O450 Dy443 2.351 . S
O450 C458 1.249 . S
O451 Dy440 2.326 . S
O451 C458 1.267 . S
O452 C441 1.185 . S
O452 Dy443 2.398 . S
O453 C441 1.355 . S
O453 Dy443 2.491 . S
O454 Dy443 2.403 . S
O454 C449 1.254 . S
O455 Dy440 2.310 . S
O455 Dy443 2.664 . S
O455 C449 1.268 . S
O456 Dy440 2.351 . S
O456 C459 1.249 . S
O457 Dy443 2.326 . S
O457 C459 1.267 . S
C458 O450 1.249 . S
C458 O451 1.267 . S
C459 O456 1.249 . S
C459 O457 1.267 . S
Dy460 O464 2.398 . S
Dy460 O465 2.491 1_545 S
Dy460 O466 2.403 . S
Dy460 O467 2.664 . S
Dy460 O471 2.326 . S
Dy460 O475 2.310 1_545 S
Dy460 O476 2.351 . S
C461 O472 1.185 . S
C461 O473 1.355 1_565 S
C462 O464 1.185 . S
C462 O465 1.355 1_545 S
Dy463 O467 2.310 1_565 S
Dy463 O470 2.351 . S
Dy463 O472 2.398 . S
Dy463 O473 2.491 1_565 S
Dy463 O474 2.403 . S
Dy463 O475 2.664 . S
Dy463 O477 2.326 . S
O464 Dy460 2.398 . S
O464 C462 1.185 . S
O465 Dy460 2.491 1_565 S
O465 C462 1.355 1_565 S
O466 Dy460 2.403 . S
O466 C468 1.254 . S
O467 Dy460 2.664 . S
O467 Dy463 2.310 1_545 S
O467 C468 1.268 . S
C468 O466 1.254 . S
C468 O467 1.268 . S
C469 O474 1.254 . S
C469 O475 1.268 . S
O470 Dy463 2.351 . S
O470 C478 1.248 1_565 S
O471 Dy460 2.326 . S
O471 C478 1.269 . S
O472 C461 1.185 . S
O472 Dy463 2.398 . S
O473 C461 1.355 1_545 S
O473 Dy463 2.491 1_545 S
O474 Dy463 2.403 . S
O474 C469 1.254 . S
O475 Dy460 2.310 1_565 S
O475 Dy463 2.664 . S
O475 C469 1.268 . S
O476 Dy460 2.351 . S
O476 C479 1.249 1_545 S
O477 Dy463 2.326 . S
O477 C479 1.267 . S
C478 O470 1.248 1_545 S
C478 O471 1.269 . S
C479 O476 1.249 1_565 S
C479 O477 1.267 . S
Dy480 O484 2.398 1_554 S
Dy480 O485 2.491 1_554 S
Dy480 O486 2.403 . S
Dy480 O487 2.664 . S
Dy480 O491 2.326 1_554 S
Dy480 O495 2.310 . S
Dy480 O496 2.351 . S
C481 O492 1.185 . S
C481 O493 1.355 . S
C482 O484 1.185 . S
C482 O485 1.355 . S
Dy483 O487 2.310 . S
Dy483 O490 2.351 . S
Dy483 O492 2.398 . S
Dy483 O493 2.491 . S
Dy483 O494 2.403 . S
Dy483 O495 2.664 . S
Dy483 O497 2.326 . S
O484 Dy480 2.398 1_556 S
O484 C482 1.185 . S
O485 Dy480 2.491 1_556 S
O485 C482 1.355 . S
O486 Dy480 2.403 . S
O486 C488 1.254 . S
O487 Dy480 2.664 . S
O487 Dy483 2.310 . S
O487 C488 1.268 . S
C488 O486 1.254 . S
C488 O487 1.268 . S
C489 O494 1.254 . S
C489 O495 1.268 . S
O490 Dy483 2.351 . S
O490 C498 1.249 1_554 S
O491 Dy480 2.326 1_556 S
O491 C498 1.267 . S
O492 C481 1.185 . S
O492 Dy483 2.398 . S
O493 C481 1.355 . S
O493 Dy483 2.491 . S
O494 Dy483 2.403 . S
O494 C489 1.254 . S
O495 Dy480 2.310 . S
O495 Dy483 2.664 . S
O495 C489 1.268 . S
O496 Dy480 2.351 . S
O496 C499 1.249 . S
O497 Dy483 2.326 . S
O497 C499 1.267 . S
C498 O490 1.249 1_556 S
C498 O491 1.267 . S
C499 O496 1.249 . S
C499 O497 1.267 . S
Dy500 O504 2.398 1_554 S
Dy500 O505 2.491 1_554 S
Dy500 O506 2.403 . S
Dy500 O507 2.664 . S
Dy500 O511 2.326 1_554 S
Dy500 O515 2.310 . S
Dy500 O516 2.351 . S
C501 O512 1.185 . S
C501 O513 1.355 . S
C502 O504 1.185 . S
C502 O505 1.355 . S
Dy503 O507 2.310 . S
Dy503 O510 2.351 . S
Dy503 O512 2.398 . S
Dy503 O513 2.491 . S
Dy503 O514 2.403 . S
Dy503 O515 2.664 . S
Dy503 O517 2.326 . S
O504 Dy500 2.398 1_556 S
O504 C502 1.185 . S
O505 Dy500 2.491 1_556 S
O505 C502 1.355 . S
O506 Dy500 2.403 . S
O506 C508 1.254 . S
O507 Dy500 2.664 . S
O507 Dy503 2.310 . S
O507 C508 1.268 . S
C508 O506 1.254 . S
C508 O507 1.268 . S
C509 O514 1.254 . S
C509 O515 1.268 . S
O510 Dy503 2.351 . S
O510 C518 1.249 1_554 S
O511 Dy500 2.326 1_556 S
O511 C518 1.267 . S
O512 C501 1.185 . S
O512 Dy503 2.398 . S
O513 C501 1.355 . S
O513 Dy503 2.491 . S
O514 Dy503 2.403 . S
O514 C509 1.254 . S
O515 Dy500 2.310 . S
O515 Dy503 2.664 . S
O515 C509 1.268 . S
O516 Dy500 2.351 . S
O516 C519 1.249 . S
O517 Dy503 2.326 . S
O517 C519 1.267 . S
C518 O510 1.249 1_556 S
C518 O511 1.267 . S
C519 O516 1.249 . S
C519 O517 1.267 . S
Dy520 O524 2.398 . S
Dy520 O525 2.491 . S
Dy520 O526 2.403 . S
Dy520 O527 2.664 . S
Dy520 O531 2.326 . S
Dy520 O535 2.310 . S
Dy520 O536 2.351 . S
C521 O532 1.185 . S
C521 O533 1.355 . S
C522 O524 1.185 . S
C522 O525 1.355 . S
Dy523 O527 2.310 . S
Dy523 O530 2.351 . S
Dy523 O532 2.398 . S
Dy523 O533 2.491 . S
Dy523 O534 2.403 . S
Dy523 O535 2.664 . S
Dy523 O537 2.326 . S
O524 Dy520 2.398 . S
O524 C522 1.185 . S
O525 Dy520 2.491 . S
O525 C522 1.355 . S
O526 Dy520 2.403 . S
O526 C528 1.254 . S
O527 Dy520 2.664 . S
O527 Dy523 2.310 . S
O527 C528 1.268 . S
C528 O526 1.254 . S
C528 O527 1.268 . S
C529 O534 1.254 . S
C529 O535 1.268 . S
O530 Dy523 2.351 . S
O530 C538 1.249 . S
O531 Dy520 2.326 . S
O531 C538 1.267 . S
O532 C521 1.185 . S
O532 Dy523 2.398 . S
O533 C521 1.355 . S
O533 Dy523 2.491 . S
O534 Dy523 2.403 . S
O534 C529 1.254 . S
O535 Dy520 2.310 . S
O535 Dy523 2.664 . S
O535 C529 1.268 . S
O536 Dy520 2.351 . S
O536 C539 1.249 . S
O537 Dy523 2.326 . S
O537 C539 1.267 . S
C538 O530 1.249 . S
C538 O531 1.267 . S
C539 O536 1.249 . S
C539 O537 1.267 . S
Dy540 O544 2.398 . S
Dy540 O545 2.491 . S
Dy540 O546 2.403 . S
Dy540 O547 2.664 . S
Dy540 O551 2.326 . S
Dy540 O555 2.310 . S
Dy540 O556 2.351 . S
C541 O552 1.185 . S
C541 O553 1.355 . S
C542 O544 1.185 . S
C542 O545 1.355 . S
Dy543 O547 2.310 . S
Dy543 O550 2.351 . S
Dy543 O552 2.398 . S
Dy543 O553 2.491 . S
Dy543 O554 2.403 . S
Dy543 O555 2.664 . S
Dy543 O557 2.326 . S
O544 Dy540 2.398 . S
O544 C542 1.185 . S
O545 Dy540 2.491 . S
O545 C542 1.355 . S
O546 Dy540 2.403 . S
O546 C548 1.254 . S
O547 Dy540 2.664 . S
O547 Dy543 2.310 . S
O547 C548 1.268 . S
C548 O546 1.254 . S
C548 O547 1.268 . S
C549 O554 1.254 . S
C549 O555 1.268 . S
O550 Dy543 2.351 . S
O550 C558 1.249 . S
O551 Dy540 2.326 . S
O551 C558 1.267 . S
O552 C541 1.185 . S
O552 Dy543 2.398 . S
O553 C541 1.355 . S
O553 Dy543 2.491 . S
O554 Dy543 2.403 . S
O554 C549 1.254 . S
O555 Dy540 2.310 . S
O555 Dy543 2.664 . S
O555 C549 1.268 . S
O556 Dy540 2.351 . S
O556 C559 1.249 . S
O557 Dy543 2.326 . S
O557 C559 1.267 . S
C558 O550 1.249 . S
C558 O551 1.267 . S
C559 O556 1.249 . S
C559 O557 1.267 . S
Dy560 O564 2.398 . S
Dy560 O565 2.491 . S
Dy560 O566 2.403 . S
Dy560 O567 2.664 . S
Dy560 O571 2.326 . S
Dy560 O575 2.310 . S
Dy560 O576 2.351 . S
C561 O572 1.185 . S
C561 O573 1.355 . S
C562 O564 1.185 . S
C562 O565 1.355 . S
Dy563 O567 2.310 . S
Dy563 O570 2.351 . S
Dy563 O572 2.398 1_556 S
Dy563 O573 2.491 1_556 S
Dy563 O574 2.403 . S
Dy563 O575 2.664 . S
Dy563 O577 2.326 1_556 S
O564 Dy560 2.398 . S
O564 C562 1.185 . S
O565 Dy560 2.491 . S
O565 C562 1.355 . S
O566 Dy560 2.403 . S
O566 C568 1.254 . S
O567 Dy560 2.664 . S
O567 Dy563 2.310 . S
O567 C568 1.268 . S
C568 O566 1.254 . S
C568 O567 1.268 . S
C569 O574 1.254 . S
C569 O575 1.268 . S
O570 Dy563 2.351 . S
O570 C578 1.249 . S
O571 Dy560 2.326 . S
O571 C578 1.267 . S
O572 C561 1.185 . S
O572 Dy563 2.398 1_554 S
O573 C561 1.355 . S
O573 Dy563 2.491 1_554 S
O574 Dy563 2.403 . S
O574 C569 1.254 . S
O575 Dy560 2.310 . S
O575 Dy563 2.664 . S
O575 C569 1.268 . S
O576 Dy560 2.351 . S
O576 C579 1.249 1_556 S
O577 Dy563 2.326 1_554 S
O577 C579 1.267 . S
C578 O570 1.249 . S
C578 O571 1.267 . S
C579 O576 1.249 1_554 S
C579 O577 1.267 . S
Dy580 O584 2.398 . S
Dy580 O585 2.491 . S
Dy580 O586 2.403 . S
Dy580 O587 2.664 . S
Dy580 O591 2.326 . S
Dy580 O595 2.310 . S
Dy580 O596 2.351 . S
C581 O592 1.185 . S
C581 O593 1.355 . S
C582 O584 1.185 . S
C582 O585 1.355 . S
Dy583 O587 2.310 . S
Dy583 O590 2.351 . S
Dy583 O592 2.398 1_556 S
Dy583 O593 2.491 1_556 S
Dy583 O594 2.403 . S
Dy583 O595 2.664 . S
Dy583 O597 2.326 1_556 S
O584 Dy580 2.398 . S
O584 C582 1.185 . S
O585 Dy580 2.491 . S
O585 C582 1.355 . S
O586 Dy580 2.403 . S
O586 C588 1.254 . S
O587 Dy580 2.664 . S
O587 Dy583 2.310 . S
O587 C588 1.268 . S
C588 O586 1.254 . S
C588 O587 1.268 . S
C589 O594 1.254 . S
C589 O595 1.268 . S
O590 Dy583 2.351 . S
O590 C598 1.249 . S
O591 Dy580 2.326 . S
O591 C598 1.267 . S
O592 C581 1.185 . S
O592 Dy583 2.398 1_554 S
O593 C581 1.355 . S
O593 Dy583 2.491 1_554 S
O594 Dy583 2.403 . S
O594 C589 1.254 . S
O595 Dy580 2.310 . S
O595 Dy583 2.664 . S
O595 C589 1.268 . S
O596 Dy580 2.351 . S
O596 C599 1.249 1_556 S
O597 Dy583 2.326 1_554 S
O597 C599 1.267 . S
C598 O590 1.249 . S
C598 O591 1.267 . S
C599 O596 1.249 1_554 S
C599 O597 1.267 . S
Dy600 O604 2.398 . S
Dy600 O605 2.491 . S
Dy600 O606 2.403 . S
Dy600 O607 2.664 . S
Dy600 O611 2.326 . S
Dy600 O615 2.310 . S
Dy600 O616 2.351 . S
C601 O612 1.185 . S
C601 O613 1.355 . S
C602 O604 1.185 . S
C602 O605 1.355 . S
Dy603 O607 2.310 . S
Dy603 O610 2.351 . S
Dy603 O612 2.398 . S
Dy603 O613 2.491 . S
Dy603 O614 2.403 . S
Dy603 O615 2.664 . S
Dy603 O617 2.326 . S
O604 Dy600 2.398 . S
O604 C602 1.185 . S
O605 Dy600 2.491 . S
O605 C602 1.355 . S
O606 Dy600 2.403 . S
O606 C608 1.254 . S
O607 Dy600 2.664 . S
O607 Dy603 2.310 . S
O607 C608 1.268 . S
C608 O606 1.254 . S
C608 O607 1.268 . S
C609 O614 1.254 . S
C609 O615 1.268 . S
O610 Dy603 2.351 . S
O610 C618 1.249 . S
O611 Dy600 2.326 . S
O611 C618 1.267 . S
O612 C601 1.185 . S
O612 Dy603 2.398 . S
O613 C601 1.355 . S
O613 Dy603 2.491 . S
O614 Dy603 2.403 . S
O614 C609 1.254 . S
O615 Dy600 2.310 . S
O615 Dy603 2.664 . S
O615 C609 1.268 . S
O616 Dy600 2.351 . S
O616 C619 1.249 . S
O617 Dy603 2.326 . S
O617 C619 1.267 . S
C618 O610 1.249 . S
C618 O611 1.267 . S
C619 O616 1.249 . S
C619 O617 1.267 . S
Dy620 O624 2.398 . S
Dy620 O625 2.491 . S
Dy620 O626 2.403 . S
Dy620 O627 2.664 . S
Dy620 O631 2.326 . S
Dy620 O635 2.310 . S
Dy620 O636 2.351 . S
C621 O632 1.185 . S
C621 O633 1.355 . S
C622 O624 1.185 . S
C622 O625 1.355 . S
Dy623 O627 2.310 . S
Dy623 O630 2.351 . S
Dy623 O632 2.398 . S
Dy623 O633 2.491 . S
Dy623 O634 2.403 . S
Dy623 O635 2.664 . S
Dy623 O637 2.326 . S
O624 Dy620 2.398 . S
O624 C622 1.185 . S
O625 Dy620 2.491 . S
O625 C622 1.355 . S
O626 Dy620 2.403 . S
O626 C628 1.254 . S
O627 Dy620 2.664 . S
O627 Dy623 2.310 . S
O627 C628 1.268 . S
C628 O626 1.254 . S
C628 O627 1.268 . S
C629 O634 1.254 . S
C629 O635 1.268 . S
O630 Dy623 2.351 . S
O630 C638 1.249 . S
O631 Dy620 2.326 . S
O631 C638 1.267 . S
O632 C621 1.185 . S
O632 Dy623 2.398 . S
O633 C621 1.355 . S
O633 Dy623 2.491 . S
O634 Dy623 2.403 . S
O634 C629 1.254 . S
O635 Dy620 2.310 . S
O635 Dy623 2.664 . S
O635 C629 1.268 . S
O636 Dy620 2.351 . S
O636 C639 1.249 . S
O637 Dy623 2.326 . S
O637 C639 1.267 . S
C638 O630 1.249 . S
C638 O631 1.267 . S
C639 O636 1.249 . S
C639 O637 1.267 . S
C509 C9 1.882 . S
C489 C29 1.882 . S
C549 C49 1.882 . S
C529 C69 1.882 . S
C88 C588 1.882 . S
C108 C568 1.882 . S
C128 C628 1.882 . S
C608 C148 1.882 . S
C349 C169 1.882 . S
C329 C189 1.882 . S
C389 C209 1.882 . S
C369 C229 1.882 . S
C248 C428 1.882 . S
C408 C268 1.882 . S
C288 C468 1.882 . S
C448 C308 1.882 . S
C1 C402 0.587 1_565 S
C262 C21 0.587 1_655 S
C602 C41 0.588 1_556 S
C61 C142 0.588 1_464 S
C82 C321 0.587 1_545 S
C102 C181 0.587 1_655 S
C122 C521 0.588 1_556 S
C562 C161 0.587 . S
C442 C201 0.588 . S
C302 C221 0.588 1_655 S
C481 C242 0.587 . S
C282 C361 0.588 . S
C582 C341 0.587 . S
C381 C462 0.587 1_565 S
C501 C422 0.587 . S
C541 C622 0.588 1_554 S
C2 C382 2.627 . S
C22 C362 2.627 . S
C42 C342 2.627 . S
C62 C322 2.627 . S
C81 C461 2.627 . S
C101 C441 2.627 . S
C121 C421 2.627 . S
C141 C401 2.627 . S
C162 C542 2.627 . S
C182 C522 2.627 . S
C202 C502 2.627 . S
C222 C482 2.627 . S
C621 C241 2.627 . S
C601 C261 2.627 . S
C581 C281 2.627 . S
C561 C301 2.627 . S
C48 C8 2.316 . S
C68 C28 2.316 . S
C129 C89 2.316 . S
C109 C149 2.316 . S
C208 C168 2.316 . S
C188 C228 2.316 . S
C289 C249 2.316 . S
C269 C309 2.316 . S
C328 C368 2.316 . S
C348 C388 2.316 . S
C449 C409 2.316 . S
C429 C469 2.316 . S
C488 C528 2.316 . S
C548 C508 2.316 . S
C569 C609 2.316 . S
C589 C629 2.316 . S
C18 C158 2.279 . S
C618 C38 2.279 . S
C58 C278 2.279 . S
C78 C418 2.279 . S
C79 C99 2.279 . S
C119 C539 2.279 . S
C199 C139 2.279 . S
C339 C159 2.279 . S
C178 C318 2.279 . S
C458 C198 2.279 . S
C218 C118 2.279 . S
C578 C238 2.279 . S
C259 C239 2.279 . S
C279 C379 2.279 . S
C299 C39 2.279 . S
C499 C319 2.279 . S
C338 C478 2.279 . S
C358 C298 2.279 . S
C378 C598 2.279 . S
C398 C98 2.279 . S
C419 C399 2.279 . S
C219 C439 2.279 . S
C519 C459 2.279 . S
C479 C19 2.279 . S
C638 C498 2.279 . S
C138 C518 2.279 . S
C438 C538 2.279 . S
C558 C258 2.279 . S
C559 C579 2.279 . S
C59 C599 2.279 . S
C359 C619 2.279 . S
C639 C179 2.279 . S
