# Generated by pormake.
# Topology umm, (4)-cn, num edge types: 1
# Building blocks:
#     Node 0, Type 0, BuildingBlock: QUQFOY_clean_sbu_1, # of connection points: 4
#     Node 1, Type 0, BuildingBlock: QUQFOY_clean_sbu_1, # of connection points: 4
#     Node 2, Type 0, BuildingBlock: QUQFOY_clean_sbu_1, # of connection points: 4
#     Node 3, Type 0, BuildingBlock: QUQFOY_clean_sbu_1, # of connection points: 4
#     Node 4, Type 0, BuildingBlock: QUQFOY_clean_sbu_1, # of connection points: 4
#     Node 5, Type 0, BuildingBlock: QUQFOY_clean_sbu_1, # of connection points: 4
#     Node 6, Type 0, BuildingBlock: QUQFOY_clean_sbu_1, # of connection points: 4
#     Node 7, Type 0, BuildingBlock: QUQFOY_clean_sbu_1, # of connection points: 4
#     Node 8, Type 0, BuildingBlock: QUQFOY_clean_sbu_1, # of connection points: 4
#     Node 9, Type 0, BuildingBlock: QUQFOY_clean_sbu_1, # of connection points: 4
#     Node 10, Type 0, BuildingBlock: QUQFOY_clean_sbu_1, # of connection points: 4
#     Node 11, Type 0, BuildingBlock: QUQFOY_clean_sbu_1, # of connection points: 4
#     Edge 12, Type (0, 0), BuildingBlock: OJICUG_clean_linker_0, # of connection points: 2
#     Edge 13, Type (0, 0), BuildingBlock: OJICUG_clean_linker_0, # of connection points: 2
#     Edge 14, Type (0, 0), BuildingBlock: OJICUG_clean_linker_0, # of connection points: 2
#     Edge 15, Type (0, 0), BuildingBlock: OJICUG_clean_linker_0, # of connection points: 2
#     Edge 16, Type (0, 0), BuildingBlock: OJICUG_clean_linker_0, # of connection points: 2
#     Edge 17, Type (0, 0), BuildingBlock: OJICUG_clean_linker_0, # of connection points: 2
#     Edge 18, Type (0, 0), BuildingBlock: OJICUG_clean_linker_0, # of connection points: 2
#     Edge 19, Type (0, 0), BuildingBlock: OJICUG_clean_linker_0, # of connection points: 2
#     Edge 20, Type (0, 0), BuildingBlock: OJICUG_clean_linker_0, # of connection points: 2
#     Edge 21, Type (0, 0), BuildingBlock: OJICUG_clean_linker_0, # of connection points: 2
#     Edge 22, Type (0, 0), BuildingBlock: OJICUG_clean_linker_0, # of connection points: 2
#     Edge 23, Type (0, 0), BuildingBlock: OJICUG_clean_linker_0, # of connection points: 2
#     Edge 24, Type (0, 0), BuildingBlock: OJICUG_clean_linker_0, # of connection points: 2
#     Edge 25, Type (0, 0), BuildingBlock: OJICUG_clean_linker_0, # of connection points: 2
#     Edge 26, Type (0, 0), BuildingBlock: OJICUG_clean_linker_0, # of connection points: 2
#     Edge 27, Type (0, 0), BuildingBlock: OJICUG_clean_linker_0, # of connection points: 2
#     Edge 28, Type (0, 0), BuildingBlock: OJICUG_clean_linker_0, # of connection points: 2
#     Edge 29, Type (0, 0), BuildingBlock: OJICUG_clean_linker_0, # of connection points: 2
#     Edge 30, Type (0, 0), BuildingBlock: OJICUG_clean_linker_0, # of connection points: 2
#     Edge 31, Type (0, 0), BuildingBlock: OJICUG_clean_linker_0, # of connection points: 2
#     Edge 32, Type (0, 0), BuildingBlock: OJICUG_clean_linker_0, # of connection points: 2
#     Edge 33, Type (0, 0), BuildingBlock: OJICUG_clean_linker_0, # of connection points: 2
#     Edge 34, Type (0, 0), BuildingBlock: OJICUG_clean_linker_0, # of connection points: 2
#     Edge 35, Type (0, 0), BuildingBlock: OJICUG_clean_linker_0, # of connection points: 2
# Relax obj value: 0.041
# Max RMSD: 0.170
# Mean RMSD: 0.170
data_MOF--net-umm--node1-QUQFOY_clean_sbu_1--edge1-OJICUG_clean_linker_0
_symmetry_space_group_name_H-M    P1
_symmetry_Int_Tables_number       1
_symmetry_cell_setting            triclinic
loop_
_symmetry_equiv_pos_as_xyz
'x, y, z'
_cell_length_a     41.810667
_cell_length_b     41.280561
_cell_length_c     20.983643
_cell_angle_alpha  89.934825
_cell_angle_beta   89.992754
_cell_angle_gamma 120.43556
loop_
_atom_site_label
_atom_site_type_symbol
_atom_site_fract_x
_atom_site_fract_y
_atom_site_fract_z
_atom_type_partial_charge
O0 O 0.49249 0.58572 0.10326 0.0
Cd1 Cd 0.45531 0.60449 0.10705 0.0
Cd2 Cd 0.41267 0.53672 0.05716 0.0
O3 O 0.45158 0.52512 0.09692 0.0
O4 O 0.47526 0.64532 0.1729 0.0
O5 O 0.4238 0.59044 0.18562 0.0
C6 C 0.44822 0.62243 0.20925 0.0
C7 C 0.35033 0.51514 0.06686 0.0
C8 C 0.485 0.55179 0.10462 0.0
C9 C 0.43575 0.60124 0.97164 0.0
O10 O 0.42872 0.56757 0.97562 0.0
O11 O 0.44357 0.62156 0.02136 0.0
O12 O 0.36118 0.49471 0.03785 0.0
O13 O 0.37447 0.54372 0.09949 0.0
O14 O 0.94352 0.48339 0.45197 0.0
Cd15 Cd 0.88703 0.44689 0.45808 0.0
Cd16 Cd 0.90777 0.40175 0.40145 0.0
O17 O 0.961 0.44212 0.43176 0.0
O18 O 0.86966 0.46731 0.52739 0.0
O19 O 0.86795 0.41296 0.53468 0.0
C20 C 0.8631 0.43843 0.56118 0.0
C21 C 0.87781 0.33655 0.39741 0.0
C22 C 0.96915 0.4757 0.44473 0.0
C23 C 0.86508 0.42951 0.32528 0.0
O24 O 0.88737 0.41724 0.32662 0.0
O25 O 0.85724 0.44085 0.37597 0.0
O26 O 0.90611 0.35699 0.36153 0.0
O27 O 0.8702 0.35307 0.4423 0.0
O28 O 0.49718 0.93341 0.76982 0.0
Cd29 Cd 0.47728 0.87643 0.77778 0.0
Cd30 Cd 0.54392 0.89894 0.72392 0.0
O31 O 0.55633 0.95238 0.75391 0.0
O32 O 0.43912 0.85849 0.84688 0.0
O33 O 0.49215 0.8591 0.85601 0.0
C34 C 0.46165 0.85347 0.88185 0.0
C35 C 0.57883 0.86956 0.72266 0.0
C36 C 0.53069 0.9599 0.76454 0.0
C37 C 0.47498 0.85339 0.64553 0.0
O38 O 0.50928 0.87758 0.64754 0.0
O39 O 0.45528 0.84481 0.69575 0.0
O40 O 0.58759 0.89831 0.68681 0.0
O41 O 0.55399 0.86135 0.76632 0.0
O42 O 0.59976 0.48914 0.10179 0.0
Cd43 Cd 0.63708 0.47055 0.10543 0.0
Cd44 Cd 0.67943 0.53824 0.05537 0.0
O45 O 0.64068 0.54975 0.09606 0.0
O46 O 0.61727 0.42963 0.17129 0.0
O47 O 0.66855 0.48463 0.18399 0.0
C48 C 0.64422 0.45256 0.20764 0.0
C49 C 0.7417 0.55944 0.06402 0.0
C50 C 0.60725 0.52306 0.10364 0.0
C51 C 0.65647 0.47406 0.96986 0.0
O52 O 0.66306 0.50758 0.97379 0.0
O53 O 0.64906 0.4538 1.01968 0.0
O54 O 0.73093 0.58019 0.0358 0.0
O55 O 0.71759 0.53074 0.09659 0.0
O56 O 0.14808 0.59031 0.45328 0.0
Cd57 Cd 0.2046 0.62649 0.45942 0.0
Cd58 Cd 0.18422 0.67185 0.40194 0.0
O59 O 0.13082 0.63167 0.43206 0.0
O60 O 0.22157 0.60569 0.52881 0.0
O61 O 0.22386 0.6603 0.53603 0.0
C62 C 0.22838 0.63461 0.56257 0.0
C63 C 0.21449 0.73708 0.39723 0.0
C64 C 0.12254 0.59808 0.44547 0.0
C65 C 0.22665 0.64349 0.3265 0.0
O66 O 0.20459 0.65606 0.32756 0.0
O67 O 0.23433 0.63213 0.37737 0.0
O68 O 0.18622 0.71668 0.36137 0.0
O69 O 0.22189 0.72054 0.44244 0.0
O70 O 0.59578 0.14068 0.77419 0.0
Cd71 Cd 0.61632 0.19773 0.78255 0.0
Cd72 Cd 0.54981 0.17598 0.72714 0.0
O73 O 0.53694 0.12212 0.75572 0.0
O74 O 0.65428 0.21486 0.85182 0.0
O75 O 0.60181 0.21539 0.8608 0.0
C76 C 0.63206 0.2204 0.88672 0.0
C77 C 0.51442 0.2049 0.72426 0.0
C78 C 0.56234 0.11436 0.76726 0.0
C79 C 0.61984 0.22155 0.65037 0.0
O80 O 0.58535 0.19804 0.65197 0.0
O81 O 0.63928 0.2294 0.70076 0.0
O82 O 0.50651 0.17654 0.68809 0.0
O83 O 0.53861 0.21293 0.76898 0.0
O84 O 0.49702 0.59042 0.59044 0.0
Cd85 Cd 0.47708 0.62695 0.5844 0.0
Cd86 Cd 0.54299 0.67206 0.64084 0.0
O87 O 0.55581 0.63168 0.61047 0.0
O88 O 0.43928 0.60657 0.51512 0.0
O89 O 0.49196 0.66089 0.50782 0.0
C90 C 0.46162 0.63545 0.48133 0.0
C91 C 0.57818 0.73727 0.64464 0.0
C92 C 0.53035 0.5981 0.59757 0.0
C93 C 0.47261 0.64437 0.71721 0.0
O94 O 0.50717 0.65661 0.7158 0.0
O95 O 0.4534 0.63305 0.66656 0.0
O96 O 0.58612 0.7169 0.68053 0.0
O97 O 0.55399 0.72067 0.59987 0.0
O98 O 0.9437 0.48815 0.93927 0.0
Cd99 Cd 0.88775 0.46942 0.93548 0.0
Cd100 Cd 0.91293 0.53718 0.98535 0.0
O101 O 0.96342 0.54875 0.94552 0.0
O102 O 0.86684 0.42858 0.86964 0.0
O103 O 0.87033 0.48348 0.85688 0.0
C104 C 0.86272 0.45148 0.83327 0.0
C105 C 0.87214 0.55872 0.97568 0.0
C106 C 0.97016 0.52208 0.93786 0.0
C107 C 0.87146 0.4727 0.07089 0.0
O108 O 0.89814 0.50635 0.06691 0.0
O109 O 0.85892 0.45239 0.02117 0.0
O110 O 0.90345 0.57919 1.00462 0.0
O111 O 0.8677 0.53012 0.94309 0.0
O112 O 0.492 0.93312 0.26748 0.0
Cd113 Cd 0.45547 0.87607 0.25912 0.0
Cd114 Cd 0.41072 0.89782 0.31457 0.0
O115 O 0.45172 0.95167 0.28596 0.0
O116 O 0.47629 0.85894 0.18984 0.0
O117 O 0.4233 0.85842 0.18089 0.0
C118 C 0.44854 0.85341 0.15495 0.0
C119 C 0.34641 0.86889 0.31752 0.0
C120 C 0.48489 0.95944 0.27441 0.0
C121 C 0.43518 0.85226 0.39131 0.0
O122 O 0.42421 0.87577 0.38973 0.0
O123 O 0.44676 0.8444 0.34091 0.0
O124 O 0.36687 0.89726 0.35365 0.0
O125 O 0.36256 0.86086 0.27278 0.0
O126 O 0.59459 0.48345 0.58901 0.0
Cd127 Cd 0.61488 0.44724 0.5829 0.0
Cd128 Cd 0.54914 0.40191 0.6403 0.0
O129 O 0.53594 0.4421 0.61015 0.0
O130 O 0.65268 0.46801 0.5135 0.0
O131 O 0.60031 0.41342 0.50631 0.0
C132 C 0.63055 0.43909 0.47976 0.0
C133 C 0.51423 0.33669 0.64483 0.0
C134 C 0.56127 0.47568 0.59677 0.0
C135 C 0.61987 0.43024 0.71583 0.0
O136 O 0.58525 0.4177 0.71475 0.0
O137 O 0.63894 0.44158 0.66497 0.0
O138 O 0.50629 0.35703 0.6807 0.0
O139 O 0.53822 0.35329 0.59969 0.0
O140 O 0.14757 0.58464 0.94062 0.0
Cd141 Cd 0.20347 0.60317 0.93694 0.0
Cd142 Cd 0.17807 0.5355 0.98699 0.0
O143 O 0.12783 0.52401 0.94629 0.0
O144 O 0.22461 0.64409 0.87106 0.0
O145 O 0.22081 0.58906 0.85835 0.0
C146 C 0.22858 0.62113 0.8347 0.0
C147 C 0.21912 0.51428 0.97844 0.0
C148 C 0.12112 0.55072 0.93875 0.0
C149 C 0.21935 0.59965 0.07248 0.0
O150 O 0.19236 0.56616 0.06857 0.0
O151 O 0.23223 0.6199 0.02266 0.0
O152 O 0.18758 0.49354 1.0066 0.0
O153 O 0.22376 0.54299 0.94584 0.0
O154 O 0.60072 0.14039 0.27184 0.0
Cd155 Cd 0.63781 0.19738 0.26388 0.0
Cd156 Cd 0.68192 0.17487 0.31776 0.0
O157 O 0.6409 0.12143 0.28775 0.0
O158 O 0.61758 0.21531 0.1948 0.0
O159 O 0.67001 0.21471 0.18564 0.0
C160 C 0.64514 0.22034 0.15981 0.0
C161 C 0.74623 0.20426 0.31908 0.0
C162 C 0.60773 0.1139 0.27712 0.0
C163 C 0.65853 0.22041 0.39614 0.0
O164 O 0.66862 0.19621 0.39413 0.0
O165 O 0.64743 0.229 0.34592 0.0
O166 O 0.72621 0.17549 0.3549 0.0
O167 O 0.72962 0.21247 0.27541 0.0
C168 C 0.47842 0.66157 0.30643 0.0
C169 C 0.44787 0.63034 0.27813 0.0
H170 H 0.50665 0.68797 0.39317 0.0
C171 C 0.41934 0.60402 0.31762 0.0
H172 H 0.50084 0.68246 0.2774 0.0
C173 C 0.42266 0.6072 0.38394 0.0
C174 C 0.45462 0.63676 0.41231 0.0
H175 H 0.3953 0.57977 0.29743 0.0
H176 H 0.40104 0.58531 0.41286 0.0
C177 C 0.48177 0.66474 0.37288 0.0
C178 C 0.85396 0.40915 0.66964 0.0
C179 C 0.8548 0.43714 0.63021 0.0
H180 H 0.85528 0.39143 0.76512 0.0
C181 C 0.85242 0.4667 0.65858 0.0
H182 H 0.85558 0.38591 0.64935 0.0
C183 C 0.85229 0.46989 0.7249 0.0
C184 C 0.85447 0.44356 0.76439 0.0
H185 H 0.85271 0.4886 0.62965 0.0
H186 H 0.85252 0.49415 0.74508 0.0
C187 C 0.85376 0.41232 0.73609 0.0
C188 C 0.48126 0.84485 0.99069 0.0
C189 C 0.45467 0.84594 0.95122 0.0
H190 H 0.49995 0.84583 0.08603 0.0
C191 C 0.42341 0.84433 0.97973 0.0
H192 H 0.5056 0.8459 0.97039 0.0
C193 C 0.42018 0.84436 0.04616 0.0
C194 C 0.4481 0.84594 0.08561 0.0
H195 H 0.40228 0.84495 0.9508 0.0
H196 H 0.3967 0.84502 0.06645 0.0
C197 C 0.478 0.84482 0.05711 0.0
C198 C 0.67292 0.47097 0.31603 0.0
C199 C 0.64453 0.44458 0.27653 0.0
H200 H 0.69105 0.48961 0.41127 0.0
C201 C 0.61405 0.41321 0.30484 0.0
H202 H 0.6969 0.49534 0.29585 0.0
C203 C 0.61063 0.40994 0.3713 0.0
C204 C 0.63765 0.43796 0.41073 0.0
H205 H 0.59174 0.39227 0.27581 0.0
H206 H 0.58581 0.38658 0.39158 0.0
C207 C 0.66954 0.46768 0.38236 0.0
C208 C 0.23873 0.60598 0.65996 0.0
C209 C 0.23661 0.63573 0.6316 0.0
H210 H 0.2384 0.57831 0.74645 0.0
C211 C 0.23765 0.66376 0.67104 0.0
H212 H 0.23827 0.58404 0.63103 0.0
C213 C 0.23781 0.66049 0.7375 0.0
C214 C 0.23686 0.6291 0.7658 0.0
H215 H 0.23622 0.68713 0.65077 0.0
H216 H 0.23646 0.68144 0.76654 0.0
C217 C 0.23883 0.60269 0.72628 0.0
C218 C 0.61603 0.22948 0.06196 0.0
C219 C 0.64568 0.22786 0.09044 0.0
H220 H 0.58862 0.22878 0.97526 0.0
C221 C 0.67336 0.22895 0.05096 0.0
H222 H 0.59428 0.22885 0.09091 0.0
C223 C 0.67013 0.22898 0.98453 0.0
C224 C 0.6391 0.22786 0.95606 0.0
H225 H 0.69664 0.2279 0.07123 0.0
H226 H 0.69106 0.22797 0.9556 0.0
C227 C 0.61277 0.22945 0.99553 0.0
C228 C 0.31474 0.5463 0.04084 0.0
C229 C 0.31485 0.51261 0.04915 0.0
H230 H 0.28517 0.5729 1.00939 0.0
C231 C 0.28304 0.47854 0.03192 0.0
H232 H 0.33901 0.57311 0.05224 0.0
C233 C 0.25141 0.47839 1.00821 0.0
C234 C 0.2521 0.51245 0.99828 0.0
H235 H 0.28263 0.45222 0.03691 0.0
H236 H 0.22678 0.4519 0.99685 0.0
C237 C 0.2841 0.54626 1.0149 0.0
C238 C 0.84286 0.28921 0.31277 0.0
C239 C 0.85004 0.2977 0.37808 0.0
H240 H 0.80383 0.25291 0.24238 0.0
C241 C 0.8258 0.27154 0.42294 0.0
H242 H 0.86074 0.30909 0.27697 0.0
C243 C 0.79387 0.23869 0.40292 0.0
C244 C 0.78482 0.23207 0.33772 0.0
H245 H 0.83043 0.27749 0.47345 0.0
H246 H 0.7746 0.22024 0.43883 0.0
C247 C 0.81022 0.25707 0.29279 0.0
C248 C 0.59202 0.83508 0.63889 0.0
C249 C 0.58962 0.84175 0.70407 0.0
H250 H 0.58976 0.79623 0.56845 0.0
C251 C 0.59006 0.81681 0.74906 0.0
H252 H 0.59117 0.85349 0.60295 0.0
C253 C 0.59059 0.78468 0.72916 0.0
C254 C 0.58924 0.77612 0.66387 0.0
H255 H 0.58787 0.82102 0.79946 0.0
H256 H 0.58862 0.76484 0.76501 0.0
C257 C 0.59112 0.80222 0.61895 0.0
C258 C 0.77489 0.52748 0.02845 0.0
C259 C 0.77656 0.56131 0.04438 0.0
H260 H 0.80306 0.50062 0.99162 0.0
C261 C 0.80983 0.5954 0.03384 0.0
H262 H 0.7494 0.5008 0.03443 0.0
C263 C 0.84132 0.59527 1.01016 0.0
C264 C 0.83918 0.56118 0.99354 0.0
H265 H 0.81158 0.62189 0.04465 0.0
H266 H 0.86715 0.62162 1.00464 0.0
C267 C 0.8055 0.52744 1.00253 0.0
C268 C 0.26691 0.8019 0.42225 0.0
C269 C 0.24242 0.77587 0.37763 0.0
H270 H 0.31838 0.85295 0.43766 0.0
C271 C 0.24943 0.7844 0.31226 0.0
H272 H 0.26241 0.79593 0.47281 0.0
C273 C 0.28214 0.81641 0.29196 0.0
C274 C 0.3078 0.84124 0.33664 0.0
H275 H 0.23133 0.76463 0.27662 0.0
H276 H 0.28835 0.82058 0.24147 0.0
C277 C 0.29893 0.83462 0.40193 0.0
C278 C 0.50258 0.25732 0.74993 0.0
C279 C 0.50345 0.23253 0.7052 0.0
H280 H 0.50349 0.30905 0.76538 0.0
C281 C 0.50123 0.2392 0.63991 0.0
H282 H 0.5046 0.25311 0.8004 0.0
C283 C 0.5019 0.27191 0.61966 0.0
C284 C 0.50339 0.2979 0.66434 0.0
H285 H 0.50238 0.2209 0.60416 0.0
H286 H 0.50339 0.27791 0.56912 0.0
C287 C 0.50185 0.28932 0.72969 0.0
C288 C 0.50948 0.50729 0.11123 0.0
C289 C 0.51606 0.54417 0.11051 0.0
H290 H 0.53292 0.47175 0.11034 0.0
C291 C 0.5531 0.57419 0.11178 0.0
H292 H 0.48141 0.48352 0.11044 0.0
C293 C 0.58277 0.56752 0.11133 0.0
C294 C 0.57619 0.53064 0.11001 0.0
H295 H 0.55932 0.60305 0.1114 0.0
H296 H 0.61083 0.59128 0.11064 0.0
C297 C 0.53915 0.50061 0.11118 0.0
C298 C 1.01696 0.54456 0.44865 0.0
C299 C 1.00845 0.50683 0.44825 0.0
H300 H 0.05929 0.60284 0.4477 0.0
C301 C 1.03782 0.49958 0.44909 0.0
H302 H 0.99507 0.5513 0.44782 0.0
C303 C 0.07468 0.52925 0.44971 0.0
C304 C 0.0832 0.56698 0.44867 0.0
H305 H 1.03236 0.47098 0.44888 0.0
H306 H 0.09656 0.52249 0.44969 0.0
C307 C 0.05383 0.57424 0.44845 0.0
C308 C 0.58302 0.06679 0.77093 0.0
C309 C 0.55393 0.07472 0.76966 0.0
H310 H 0.59872 1.02471 0.76998 0.0
C311 C 0.51725 0.0445 0.76861 0.0
H312 H 0.6117 0.08932 0.77161 0.0
C313 C 0.50987 1.00738 0.76822 0.0
C314 C 0.53898 0.99946 0.76818 0.0
H315 H 0.49418 0.04948 0.76766 0.0
H316 H 0.4812 0.98484 0.76681 0.0
C317 C 0.57565 1.02968 0.76986 0.0
C318 C 0.50925 0.52923 0.59364 0.0
C319 C 0.5385 0.56696 0.59401 0.0
H320 H 0.49328 0.47095 0.59459 0.0
C321 C 0.57511 0.5742 0.59312 0.0
H322 H 0.48062 0.5225 0.5945 0.0
C323 C 0.58229 0.54452 0.59249 0.0
C324 C 0.55305 0.50679 0.59356 0.0
H325 H 0.59827 0.6028 0.59331 0.0
H326 H 0.61092 0.55127 0.59247 0.0
C327 C 0.51643 0.49955 0.59382 0.0
C328 C 0.07549 0.5732 0.93124 0.0
C329 C 0.08247 0.54316 0.9324 0.0
H330 H 1.03488 0.59032 0.932 0.0
C331 C 0.05216 0.50629 0.93109 0.0
H332 H 0.09814 0.60205 0.93206 0.0
C333 C 1.01582 0.49963 0.93067 0.0
C334 C 1.00883 0.52967 0.93194 0.0
H335 H 0.05643 0.48251 0.93178 0.0
H336 H 0.99316 0.47078 0.93106 0.0
C337 C 1.03915 0.56655 0.93121 0.0
C338 C 0.50967 1.0293 0.27305 0.0
C339 C 0.51613 0.99908 0.272 0.0
H340 H 0.53329 0.08896 0.27484 0.0
C341 C 0.55315 1.00702 0.27072 0.0
H342 H 0.48162 1.02432 0.274 0.0
C343 C 0.5829 0.04413 0.27179 0.0
C344 C 0.57645 0.07434 0.27347 0.0
H345 H 0.5593 0.98449 0.27004 0.0
H346 H 0.61094 0.0491 0.27167 0.0
C347 C 0.53942 0.06642 0.27344 0.0
C348 C 0.47504 0.66411 0.8294 0.0
C349 C 0.45521 0.63868 0.78013 0.0
H350 H 0.48366 0.67229 0.93015 0.0
C351 C 0.42389 0.60402 0.79502 0.0
H352 H 0.49931 0.6911 0.81873 0.0
C353 C 0.41549 0.59301 0.85863 0.0
C354 C 0.43786 0.61687 0.90781 0.0
H355 H 0.40835 0.58393 0.75785 0.0
H356 H 0.39318 0.5648 0.86919 0.0
C357 C 0.46614 0.65341 0.89303 0.0
C358 C 0.84769 0.40979 0.21311 0.0
C359 C 0.85337 0.43523 0.2624 0.0
H360 H 0.8481 0.40161 0.11236 0.0
C361 C 0.85682 0.46994 0.24753 0.0
H362 H 0.8449 0.38277 0.22377 0.0
C363 C 0.85947 0.48097 0.18393 0.0
C364 C 0.8579 0.45708 0.13472 0.0
H365 H 0.86144 0.49005 0.28471 0.0
H366 H 0.86546 0.50921 0.17338 0.0
C367 C 0.84954 0.42051 0.14949 0.0
C368 C 0.48041 0.83785 0.53319 0.0
C369 C 0.45838 0.83954 0.58235 0.0
H370 H 0.48957 0.8394 0.43247 0.0
C371 C 0.42404 0.83581 0.56728 0.0
H372 H 0.50691 0.84028 0.54387 0.0
C373 C 0.41438 0.83571 0.50354 0.0
C374 C 0.43865 0.83871 0.45435 0.0
H375 H 0.40657 0.83699 0.60426 0.0
H376 H 0.38945 0.83655 0.49283 0.0
C377 C 0.47045 0.83712 0.46945 0.0
C378 C 0.66831 0.47135 0.79317 0.0
C379 C 0.63745 0.43631 0.77861 0.0
H380 H 0.69849 0.51098 0.86695 0.0
C381 C 0.61802 0.41081 0.82813 0.0
H382 H 0.68352 0.49151 0.75579 0.0
C383 C 0.6268 0.42172 0.89166 0.0
C384 C 0.65455 0.45852 0.90608 0.0
H385 H 0.59409 0.38355 0.81772 0.0
H386 H 0.60957 0.40269 0.92897 0.0
C387 C 0.67657 0.48255 0.85667 0.0
C388 C 0.24212 0.65201 0.15069 0.0
C389 C 0.23299 0.61519 0.13626 0.0
H390 H 0.24766 0.6902 0.22463 0.0
C391 C 0.23094 0.59114 0.18567 0.0
H392 H 0.24395 0.67104 0.11338 0.0
C393 C 0.23391 0.60235 0.24917 0.0
C394 C 0.23816 0.63741 0.26373 0.0
H395 H 0.22438 0.5627 0.17537 0.0
H396 H 0.22892 0.58217 0.28653 0.0
C397 C 0.24429 0.66293 0.21422 0.0
C398 C 0.61559 0.23808 0.53813 0.0
C399 C 0.63687 0.23509 0.58732 0.0
H400 H 0.60651 0.2368 0.43743 0.0
C401 C 0.67025 0.23668 0.57221 0.0
H402 H 0.58982 0.23724 0.54886 0.0
C403 C 0.6795 0.23596 0.50848 0.0
C404 C 0.65577 0.23426 0.45932 0.0
H405 H 0.6871 0.23441 0.6092 0.0
H406 H 0.70356 0.23353 0.4978 0.0
C407 C 0.62516 0.23798 0.47439 0.0
loop_
_geom_bond_atom_site_label_1
_geom_bond_atom_site_label_2
_geom_bond_distance
_geom_bond_site_symmetry_2
_ccdc_geom_bond_type
O0 Cd1 2.223 . S
O0 C8 1.315 . S
Cd1 O0 2.223 . S
Cd1 O4 2.297 . S
Cd1 O5 2.439 . S
Cd1 O11 2.240 1_554 S
Cd2 O3 2.240 . S
Cd2 O10 2.223 1_554 S
Cd2 O12 2.297 1_554 S
Cd2 O13 2.439 . S
O3 Cd2 2.240 . S
O3 C8 1.279 . S
O4 Cd1 2.297 . S
O4 C6 1.247 . S
O5 Cd1 2.439 . S
O5 C6 1.208 . S
C6 O4 1.247 . S
C6 O5 1.208 . S
C7 O12 1.247 1_554 S
C7 O13 1.208 . S
C8 O0 1.315 . S
C8 O3 1.279 . S
C9 O10 1.315 . S
C9 O11 1.279 . S
O10 Cd2 2.223 1_556 S
O10 C9 1.315 . S
O11 Cd1 2.240 1_556 S
O11 C9 1.279 . S
O12 Cd2 2.297 1_556 S
O12 C7 1.247 1_556 S
O13 Cd2 2.439 . S
O13 C7 1.208 . S
O14 Cd15 2.223 . S
O14 C22 1.315 . S
Cd15 O14 2.223 . S
Cd15 O18 2.297 . S
Cd15 O19 2.439 . S
Cd15 O25 2.240 . S
Cd16 O17 2.240 . S
Cd16 O24 2.223 . S
Cd16 O26 2.297 . S
Cd16 O27 2.439 . S
O17 Cd16 2.240 . S
O17 C22 1.279 . S
O18 Cd15 2.297 . S
O18 C20 1.247 . S
O19 Cd15 2.439 . S
O19 C20 1.208 . S
C20 O18 1.247 . S
C20 O19 1.208 . S
C21 O26 1.247 . S
C21 O27 1.208 . S
C22 O14 1.315 . S
C22 O17 1.279 . S
C23 O24 1.315 . S
C23 O25 1.279 . S
O24 Cd16 2.223 . S
O24 C23 1.315 . S
O25 Cd15 2.240 . S
O25 C23 1.279 . S
O26 Cd16 2.297 . S
O26 C21 1.247 . S
O27 Cd16 2.439 . S
O27 C21 1.208 . S
O28 Cd29 2.223 . S
O28 C36 1.315 . S
Cd29 O28 2.223 . S
Cd29 O32 2.297 . S
Cd29 O33 2.439 . S
Cd29 O39 2.240 . S
Cd30 O31 2.240 . S
Cd30 O38 2.223 . S
Cd30 O40 2.297 . S
Cd30 O41 2.439 . S
O31 Cd30 2.240 . S
O31 C36 1.279 . S
O32 Cd29 2.297 . S
O32 C34 1.247 . S
O33 Cd29 2.439 . S
O33 C34 1.208 . S
C34 O32 1.247 . S
C34 O33 1.208 . S
C35 O40 1.247 . S
C35 O41 1.208 . S
C36 O28 1.315 . S
C36 O31 1.279 . S
C37 O38 1.315 . S
C37 O39 1.279 . S
O38 Cd30 2.223 . S
O38 C37 1.315 . S
O39 Cd29 2.240 . S
O39 C37 1.279 . S
O40 Cd30 2.297 . S
O40 C35 1.247 . S
O41 Cd30 2.439 . S
O41 C35 1.208 . S
O42 Cd43 2.223 . S
O42 C50 1.315 . S
Cd43 O42 2.223 . S
Cd43 O46 2.297 . S
Cd43 O47 2.439 . S
Cd43 O53 2.240 1_554 S
Cd44 O45 2.240 . S
Cd44 O52 2.223 1_554 S
Cd44 O54 2.297 1_554 S
Cd44 O55 2.439 . S
O45 Cd44 2.240 . S
O45 C50 1.279 . S
O46 Cd43 2.297 . S
O46 C48 1.247 . S
O47 Cd43 2.439 . S
O47 C48 1.208 . S
C48 O46 1.247 . S
C48 O47 1.208 . S
C49 O54 1.247 1_554 S
C49 O55 1.208 . S
C50 O42 1.315 . S
C50 O45 1.279 . S
C51 O52 1.315 . S
C51 O53 1.279 . S
O52 Cd44 2.223 1_556 S
O52 C51 1.315 . S
O53 Cd43 2.240 1_556 S
O53 C51 1.279 . S
O54 Cd44 2.297 1_556 S
O54 C49 1.247 1_556 S
O55 Cd44 2.439 . S
O55 C49 1.208 . S
O56 Cd57 2.223 . S
O56 C64 1.315 . S
Cd57 O56 2.223 . S
Cd57 O60 2.297 . S
Cd57 O61 2.439 . S
Cd57 O67 2.240 . S
Cd58 O59 2.240 . S
Cd58 O66 2.223 . S
Cd58 O68 2.297 . S
Cd58 O69 2.439 . S
O59 Cd58 2.240 . S
O59 C64 1.279 . S
O60 Cd57 2.297 . S
O60 C62 1.247 . S
O61 Cd57 2.439 . S
O61 C62 1.208 . S
C62 O60 1.247 . S
C62 O61 1.208 . S
C63 O68 1.247 . S
C63 O69 1.208 . S
C64 O56 1.315 . S
C64 O59 1.279 . S
C65 O66 1.315 . S
C65 O67 1.279 . S
O66 Cd58 2.223 . S
O66 C65 1.315 . S
O67 Cd57 2.240 . S
O67 C65 1.279 . S
O68 Cd58 2.297 . S
O68 C63 1.247 . S
O69 Cd58 2.439 . S
O69 C63 1.208 . S
O70 Cd71 2.223 . S
O70 C78 1.315 . S
Cd71 O70 2.223 . S
Cd71 O74 2.297 . S
Cd71 O75 2.439 . S
Cd71 O81 2.240 . S
Cd72 O73 2.240 . S
Cd72 O80 2.223 . S
Cd72 O82 2.297 . S
Cd72 O83 2.439 . S
O73 Cd72 2.240 . S
O73 C78 1.279 . S
O74 Cd71 2.297 . S
O74 C76 1.247 . S
O75 Cd71 2.439 . S
O75 C76 1.208 . S
C76 O74 1.247 . S
C76 O75 1.208 . S
C77 O82 1.247 . S
C77 O83 1.208 . S
C78 O70 1.315 . S
C78 O73 1.279 . S
C79 O80 1.315 . S
C79 O81 1.279 . S
O80 Cd72 2.223 . S
O80 C79 1.315 . S
O81 Cd71 2.240 . S
O81 C79 1.279 . S
O82 Cd72 2.297 . S
O82 C77 1.247 . S
O83 Cd72 2.439 . S
O83 C77 1.208 . S
O84 Cd85 2.223 . S
O84 C92 1.315 . S
Cd85 O84 2.223 . S
Cd85 O88 2.297 . S
Cd85 O89 2.439 . S
Cd85 O95 2.240 . S
Cd86 O87 2.240 . S
Cd86 O94 2.223 . S
Cd86 O96 2.297 . S
Cd86 O97 2.439 . S
O87 Cd86 2.240 . S
O87 C92 1.279 . S
O88 Cd85 2.297 . S
O88 C90 1.247 . S
O89 Cd85 2.439 . S
O89 C90 1.208 . S
C90 O88 1.247 . S
C90 O89 1.208 . S
C91 O96 1.247 . S
C91 O97 1.208 . S
C92 O84 1.315 . S
C92 O87 1.279 . S
C93 O94 1.315 . S
C93 O95 1.279 . S
O94 Cd86 2.223 . S
O94 C93 1.315 . S
O95 Cd85 2.240 . S
O95 C93 1.279 . S
O96 Cd86 2.297 . S
O96 C91 1.247 . S
O97 Cd86 2.439 . S
O97 C91 1.208 . S
O98 Cd99 2.223 . S
O98 C106 1.315 . S
Cd99 O98 2.223 . S
Cd99 O102 2.297 . S
Cd99 O103 2.439 . S
Cd99 O109 2.240 1_556 S
Cd100 O101 2.240 . S
Cd100 O108 2.223 1_556 S
Cd100 O110 2.297 1_556 S
Cd100 O111 2.439 . S
O101 Cd100 2.240 . S
O101 C106 1.279 . S
O102 Cd99 2.297 . S
O102 C104 1.247 . S
O103 Cd99 2.439 . S
O103 C104 1.208 . S
C104 O102 1.247 . S
C104 O103 1.208 . S
C105 O110 1.247 1_556 S
C105 O111 1.208 . S
C106 O98 1.315 . S
C106 O101 1.279 . S
C107 O108 1.315 . S
C107 O109 1.279 . S
O108 Cd100 2.223 1_554 S
O108 C107 1.315 . S
O109 Cd99 2.240 1_554 S
O109 C107 1.279 . S
O110 Cd100 2.297 1_554 S
O110 C105 1.247 1_554 S
O111 Cd100 2.439 . S
O111 C105 1.208 . S
O112 Cd113 2.223 . S
O112 C120 1.315 . S
Cd113 O112 2.223 . S
Cd113 O116 2.297 . S
Cd113 O117 2.439 . S
Cd113 O123 2.240 . S
Cd114 O115 2.240 . S
Cd114 O122 2.223 . S
Cd114 O124 2.297 . S
Cd114 O125 2.439 . S
O115 Cd114 2.240 . S
O115 C120 1.279 . S
O116 Cd113 2.297 . S
O116 C118 1.247 . S
O117 Cd113 2.439 . S
O117 C118 1.208 . S
C118 O116 1.247 . S
C118 O117 1.208 . S
C119 O124 1.247 . S
C119 O125 1.208 . S
C120 O112 1.315 . S
C120 O115 1.279 . S
C121 O122 1.315 . S
C121 O123 1.279 . S
O122 Cd114 2.223 . S
O122 C121 1.315 . S
O123 Cd113 2.240 . S
O123 C121 1.279 . S
O124 Cd114 2.297 . S
O124 C119 1.247 . S
O125 Cd114 2.439 . S
O125 C119 1.208 . S
O126 Cd127 2.223 . S
O126 C134 1.315 . S
Cd127 O126 2.223 . S
Cd127 O130 2.297 . S
Cd127 O131 2.439 . S
Cd127 O137 2.240 . S
Cd128 O129 2.240 . S
Cd128 O136 2.223 . S
Cd128 O138 2.297 . S
Cd128 O139 2.439 . S
O129 Cd128 2.240 . S
O129 C134 1.279 . S
O130 Cd127 2.297 . S
O130 C132 1.247 . S
O131 Cd127 2.439 . S
O131 C132 1.208 . S
C132 O130 1.247 . S
C132 O131 1.208 . S
C133 O138 1.247 . S
C133 O139 1.208 . S
C134 O126 1.315 . S
C134 O129 1.279 . S
C135 O136 1.315 . S
C135 O137 1.279 . S
O136 Cd128 2.223 . S
O136 C135 1.315 . S
O137 Cd127 2.240 . S
O137 C135 1.279 . S
O138 Cd128 2.297 . S
O138 C133 1.247 . S
O139 Cd128 2.439 . S
O139 C133 1.208 . S
O140 Cd141 2.223 . S
O140 C148 1.315 . S
Cd141 O140 2.223 . S
Cd141 O144 2.297 . S
Cd141 O145 2.439 . S
Cd141 O151 2.240 1_556 S
Cd142 O143 2.240 . S
Cd142 O150 2.223 1_556 S
Cd142 O152 2.297 1_556 S
Cd142 O153 2.439 . S
O143 Cd142 2.240 . S
O143 C148 1.279 . S
O144 Cd141 2.297 . S
O144 C146 1.247 . S
O145 Cd141 2.439 . S
O145 C146 1.208 . S
C146 O144 1.247 . S
C146 O145 1.208 . S
C147 O152 1.247 1_556 S
C147 O153 1.208 . S
C148 O140 1.315 . S
C148 O143 1.279 . S
C149 O150 1.315 . S
C149 O151 1.279 . S
O150 Cd142 2.223 1_554 S
O150 C149 1.315 . S
O151 Cd141 2.240 1_554 S
O151 C149 1.279 . S
O152 Cd142 2.297 1_554 S
O152 C147 1.247 1_554 S
O153 Cd142 2.439 . S
O153 C147 1.208 . S
O154 Cd155 2.223 . S
O154 C162 1.315 . S
Cd155 O154 2.223 . S
Cd155 O158 2.297 . S
Cd155 O159 2.439 . S
Cd155 O165 2.240 . S
Cd156 O157 2.240 . S
Cd156 O164 2.223 . S
Cd156 O166 2.297 . S
Cd156 O167 2.439 . S
O157 Cd156 2.240 . S
O157 C162 1.279 . S
O158 Cd155 2.297 . S
O158 C160 1.247 . S
O159 Cd155 2.439 . S
O159 C160 1.208 . S
C160 O158 1.247 . S
C160 O159 1.208 . S
C161 O166 1.247 . S
C161 O167 1.208 . S
C162 O154 1.315 . S
C162 O157 1.279 . S
C163 O164 1.315 . S
C163 O165 1.279 . S
O164 Cd156 2.223 . S
O164 C163 1.315 . S
O165 Cd155 2.240 . S
O165 C163 1.279 . S
O166 Cd156 2.297 . S
O166 C161 1.247 . S
O167 Cd156 2.439 . S
O167 C161 1.208 . S
C168 C169 1.387 . S
C168 H172 0.950 . S
C168 C177 1.390 . S
C169 C168 1.387 . S
C169 C171 1.387 . S
H170 C177 0.950 . S
C171 C169 1.387 . S
C171 C173 1.390 . S
C171 H175 0.950 . S
H172 C168 0.950 . S
C173 C171 1.390 . S
C173 C174 1.387 . S
C173 H176 0.950 . S
C174 C173 1.387 . S
C174 C177 1.387 . S
H175 C171 0.950 . S
H176 C173 0.950 . S
C177 C168 1.390 . S
C177 H170 0.950 . S
C177 C174 1.387 . S
C178 C179 1.387 . S
C178 H182 0.950 . S
C178 C187 1.390 . S
C179 C178 1.387 . S
C179 C181 1.387 . S
H180 C187 0.950 . S
C181 C179 1.387 . S
C181 C183 1.390 . S
C181 H185 0.950 . S
H182 C178 0.950 . S
C183 C181 1.390 . S
C183 C184 1.387 . S
C183 H186 0.950 . S
C184 C183 1.387 . S
C184 C187 1.387 . S
H185 C181 0.950 . S
H186 C183 0.950 . S
C187 C178 1.390 . S
C187 H180 0.950 . S
C187 C184 1.387 . S
C188 C189 1.387 . S
C188 H192 0.950 . S
C188 C197 1.390 1_556 S
C189 C188 1.387 . S
C189 C191 1.387 . S
H190 C197 0.950 . S
C191 C189 1.387 . S
C191 C193 1.390 1_556 S
C191 H195 0.950 . S
H192 C188 0.950 . S
C193 C191 1.390 1_554 S
C193 C194 1.387 . S
C193 H196 0.950 . S
C194 C193 1.387 . S
C194 C197 1.387 . S
H195 C191 0.950 . S
H196 C193 0.950 . S
C197 C188 1.390 1_554 S
C197 H190 0.950 . S
C197 C194 1.387 . S
C198 C199 1.387 . S
C198 H202 0.950 . S
C198 C207 1.390 . S
C199 C198 1.387 . S
C199 C201 1.387 . S
H200 C207 0.950 . S
C201 C199 1.387 . S
C201 C203 1.390 . S
C201 H205 0.950 . S
H202 C198 0.950 . S
C203 C201 1.390 . S
C203 C204 1.387 . S
C203 H206 0.950 . S
C204 C203 1.387 . S
C204 C207 1.387 . S
H205 C201 0.950 . S
H206 C203 0.950 . S
C207 C198 1.390 . S
C207 H200 0.950 . S
C207 C204 1.387 . S
C208 C209 1.387 . S
C208 H212 0.950 . S
C208 C217 1.390 . S
C209 C208 1.387 . S
C209 C211 1.387 . S
H210 C217 0.950 . S
C211 C209 1.387 . S
C211 C213 1.390 . S
C211 H215 0.950 . S
H212 C208 0.950 . S
C213 C211 1.390 . S
C213 C214 1.387 . S
C213 H216 0.950 . S
C214 C213 1.387 . S
C214 C217 1.387 . S
H215 C211 0.950 . S
H216 C213 0.950 . S
C217 C208 1.390 . S
C217 H210 0.950 . S
C217 C214 1.387 . S
C218 C219 1.387 . S
C218 H222 0.950 . S
C218 C227 1.390 1_554 S
C219 C218 1.387 . S
C219 C221 1.387 . S
H220 C227 0.950 . S
C221 C219 1.387 . S
C221 C223 1.390 1_554 S
C221 H225 0.950 . S
H222 C218 0.950 . S
C223 C221 1.390 1_556 S
C223 C224 1.387 . S
C223 H226 0.950 . S
C224 C223 1.387 . S
C224 C227 1.387 . S
H225 C221 0.950 . S
H226 C223 0.950 . S
C227 C218 1.390 1_556 S
C227 H220 0.950 . S
C227 C224 1.387 . S
C228 C229 1.387 . S
C228 H232 0.950 . S
C228 C237 1.390 1_554 S
C229 C228 1.387 . S
C229 C231 1.387 . S
H230 C237 0.950 . S
C231 C229 1.387 . S
C231 C233 1.390 1_554 S
C231 H235 0.950 . S
H232 C228 0.950 . S
C233 C231 1.390 1_556 S
C233 C234 1.387 . S
C233 H236 0.950 . S
C234 C233 1.387 . S
C234 C237 1.387 . S
H235 C231 0.950 . S
H236 C233 0.950 . S
C237 C228 1.390 1_556 S
C237 H230 0.950 . S
C237 C234 1.387 . S
C238 C239 1.387 . S
C238 H242 0.950 . S
C238 C247 1.390 . S
C239 C238 1.387 . S
C239 C241 1.387 . S
H240 C247 0.950 . S
C241 C239 1.387 . S
C241 C243 1.390 . S
C241 H245 0.950 . S
H242 C238 0.950 . S
C243 C241 1.390 . S
C243 C244 1.387 . S
C243 H246 0.950 . S
C244 C243 1.387 . S
C244 C247 1.387 . S
H245 C241 0.950 . S
H246 C243 0.950 . S
C247 C238 1.390 . S
C247 H240 0.950 . S
C247 C244 1.387 . S
C248 C249 1.387 . S
C248 H252 0.950 . S
C248 C257 1.390 . S
C249 C248 1.387 . S
C249 C251 1.387 . S
H250 C257 0.950 . S
C251 C249 1.387 . S
C251 C253 1.390 . S
C251 H255 0.950 . S
H252 C248 0.950 . S
C253 C251 1.390 . S
C253 C254 1.387 . S
C253 H256 0.950 . S
C254 C253 1.387 . S
C254 C257 1.387 . S
H255 C251 0.950 . S
H256 C253 0.950 . S
C257 C248 1.390 . S
C257 H250 0.950 . S
C257 C254 1.387 . S
C258 C259 1.387 . S
C258 H262 0.950 . S
C258 C267 1.390 1_554 S
C259 C258 1.387 . S
C259 C261 1.387 . S
H260 C267 0.950 . S
C261 C259 1.387 . S
C261 C263 1.390 1_554 S
C261 H265 0.950 . S
H262 C258 0.950 . S
C263 C261 1.390 1_556 S
C263 C264 1.387 . S
C263 H266 0.950 . S
C264 C263 1.387 . S
C264 C267 1.387 . S
H265 C261 0.950 . S
H266 C263 0.950 . S
C267 C258 1.390 1_556 S
C267 H260 0.950 . S
C267 C264 1.387 . S
C268 C269 1.387 . S
C268 H272 0.950 . S
C268 C277 1.390 . S
C269 C268 1.387 . S
C269 C271 1.387 . S
H270 C277 0.950 . S
C271 C269 1.387 . S
C271 C273 1.390 . S
C271 H275 0.950 . S
H272 C268 0.950 . S
C273 C271 1.390 . S
C273 C274 1.387 . S
C273 H276 0.950 . S
C274 C273 1.387 . S
C274 C277 1.387 . S
H275 C271 0.950 . S
H276 C273 0.950 . S
C277 C268 1.390 . S
C277 H270 0.950 . S
C277 C274 1.387 . S
C278 C279 1.387 . S
C278 H282 0.950 . S
C278 C287 1.390 . S
C279 C278 1.387 . S
C279 C281 1.387 . S
H280 C287 0.950 . S
C281 C279 1.387 . S
C281 C283 1.390 . S
C281 H285 0.950 . S
H282 C278 0.950 . S
C283 C281 1.390 . S
C283 C284 1.387 . S
C283 H286 0.950 . S
C284 C283 1.387 . S
C284 C287 1.387 . S
H285 C281 0.950 . S
H286 C283 0.950 . S
C287 C278 1.390 . S
C287 H280 0.950 . S
C287 C284 1.387 . S
C288 C289 1.387 1_556 S
C288 H292 0.950 . S
C288 C297 1.390 . S
C289 C288 1.387 1_554 S
C289 C291 1.387 . S
H290 C297 0.950 . S
C291 C289 1.387 . S
C291 C293 1.390 . S
C291 H295 0.950 . S
H292 C288 0.950 . S
C293 C291 1.390 . S
C293 C294 1.387 . S
C293 H296 0.950 . S
C294 C293 1.387 . S
C294 C297 1.387 1_554 S
H295 C291 0.950 . S
H296 C293 0.950 . S
C297 C288 1.390 . S
C297 H290 0.950 . S
C297 C294 1.387 1_556 S
C298 C299 1.387 . S
C298 H302 0.950 . S
C298 C307 1.390 1_655 S
C299 C298 1.387 . S
C299 C301 1.387 . S
H300 C307 0.950 . S
C301 C299 1.387 . S
C301 C303 1.390 1_655 S
C301 H305 0.950 . S
H302 C298 0.950 . S
C303 C301 1.390 1_455 S
C303 C304 1.387 . S
C303 H306 0.950 . S
C304 C303 1.387 . S
C304 C307 1.387 . S
H305 C301 0.950 . S
H306 C303 0.950 . S
C307 C298 1.390 1_455 S
C307 H300 0.950 . S
C307 C304 1.387 . S
C308 C309 1.387 . S
C308 H312 0.950 . S
C308 C317 1.390 1_545 S
C309 C308 1.387 . S
C309 C311 1.387 . S
H310 C317 0.950 . S
C311 C309 1.387 . S
C311 C313 1.390 1_545 S
C311 H315 0.950 . S
H312 C308 0.950 . S
C313 C311 1.390 1_565 S
C313 C314 1.387 . S
C313 H316 0.950 . S
C314 C313 1.387 . S
C314 C317 1.387 . S
H315 C311 0.950 . S
H316 C313 0.950 . S
C317 C308 1.390 1_565 S
C317 H310 0.950 . S
C317 C314 1.387 . S
C318 C319 1.387 . S
C318 H322 0.950 . S
C318 C327 1.390 . S
C319 C318 1.387 . S
C319 C321 1.387 . S
H320 C327 0.950 . S
C321 C319 1.387 . S
C321 C323 1.390 . S
C321 H325 0.950 . S
H322 C318 0.950 . S
C323 C321 1.390 . S
C323 C324 1.387 . S
C323 H326 0.950 . S
C324 C323 1.387 . S
C324 C327 1.387 . S
H325 C321 0.950 . S
H326 C323 0.950 . S
C327 C318 1.390 . S
C327 H320 0.950 . S
C327 C324 1.387 . S
C328 C329 1.387 1_554 S
C328 H332 0.950 . S
C328 C337 1.390 1_455 S
C329 C328 1.387 1_556 S
C329 C331 1.387 . S
H330 C337 0.950 . S
C331 C329 1.387 . S
C331 C333 1.390 1_455 S
C331 H335 0.950 . S
H332 C328 0.950 . S
C333 C331 1.390 1_655 S
C333 C334 1.387 . S
C333 H336 0.950 . S
C334 C333 1.387 . S
C334 C337 1.387 1_556 S
H335 C331 0.950 . S
H336 C333 0.950 . S
C337 C328 1.390 1_655 S
C337 H330 0.950 . S
C337 C334 1.387 1_554 S
C338 C339 1.387 . S
C338 H342 0.950 . S
C338 C347 1.390 1_565 S
C339 C338 1.387 . S
C339 C341 1.387 . S
H340 C347 0.950 . S
C341 C339 1.387 . S
C341 C343 1.390 1_565 S
C341 H345 0.950 . S
H342 C338 0.950 . S
C343 C341 1.390 1_545 S
C343 C344 1.387 . S
C343 H346 0.950 . S
C344 C343 1.387 . S
C344 C347 1.387 . S
H345 C341 0.950 . S
H346 C343 0.950 . S
C347 C338 1.390 1_545 S
C347 H340 0.950 . S
C347 C344 1.387 . S
C348 C349 1.387 . S
C348 H352 0.950 . S
C348 C357 1.390 . S
C349 C348 1.387 . S
C349 C351 1.387 . S
H350 C357 0.950 . S
C351 C349 1.387 . S
C351 C353 1.390 . S
C351 H355 0.950 . S
H352 C348 0.950 . S
C353 C351 1.390 . S
C353 C354 1.387 . S
C353 H356 0.950 . S
C354 C353 1.387 . S
C354 C357 1.387 . S
H355 C351 0.950 . S
H356 C353 0.950 . S
C357 C348 1.390 . S
C357 H350 0.950 . S
C357 C354 1.387 . S
C358 C359 1.387 . S
C358 H362 0.950 . S
C358 C367 1.390 . S
C359 C358 1.387 . S
C359 C361 1.387 . S
H360 C367 0.950 . S
C361 C359 1.387 . S
C361 C363 1.390 . S
C361 H365 0.950 . S
H362 C358 0.950 . S
C363 C361 1.390 . S
C363 C364 1.387 . S
C363 H366 0.950 . S
C364 C363 1.387 . S
C364 C367 1.387 . S
H365 C361 0.950 . S
H366 C363 0.950 . S
C367 C358 1.390 . S
C367 H360 0.950 . S
C367 C364 1.387 . S
C368 C369 1.387 . S
C368 H372 0.950 . S
C368 C377 1.390 . S
C369 C368 1.387 . S
C369 C371 1.387 . S
H370 C377 0.950 . S
C371 C369 1.387 . S
C371 C373 1.390 . S
C371 H375 0.950 . S
H372 C368 0.950 . S
C373 C371 1.390 . S
C373 C374 1.387 . S
C373 H376 0.950 . S
C374 C373 1.387 . S
C374 C377 1.387 . S
H375 C371 0.950 . S
H376 C373 0.950 . S
C377 C368 1.390 . S
C377 H370 0.950 . S
C377 C374 1.387 . S
C378 C379 1.387 . S
C378 H382 0.950 . S
C378 C387 1.390 . S
C379 C378 1.387 . S
C379 C381 1.387 . S
H380 C387 0.950 . S
C381 C379 1.387 . S
C381 C383 1.390 . S
C381 H385 0.950 . S
H382 C378 0.950 . S
C383 C381 1.390 . S
C383 C384 1.387 . S
C383 H386 0.950 . S
C384 C383 1.387 . S
C384 C387 1.387 . S
H385 C381 0.950 . S
H386 C383 0.950 . S
C387 C378 1.390 . S
C387 H380 0.950 . S
C387 C384 1.387 . S
C388 C389 1.387 . S
C388 H392 0.950 . S
C388 C397 1.390 . S
C389 C388 1.387 . S
C389 C391 1.387 . S
H390 C397 0.950 . S
C391 C389 1.387 . S
C391 C393 1.390 . S
C391 H395 0.950 . S
H392 C388 0.950 . S
C393 C391 1.390 . S
C393 C394 1.387 . S
C393 H396 0.950 . S
C394 C393 1.387 . S
C394 C397 1.387 . S
H395 C391 0.950 . S
H396 C393 0.950 . S
C397 C388 1.390 . S
C397 H390 0.950 . S
C397 C394 1.387 . S
C398 C399 1.387 . S
C398 H402 0.950 . S
C398 C407 1.390 . S
C399 C398 1.387 . S
C399 C401 1.387 . S
H400 C407 0.950 . S
C401 C399 1.387 . S
C401 C403 1.390 . S
C401 H405 0.950 . S
H402 C398 0.950 . S
C403 C401 1.390 . S
C403 C404 1.387 . S
C403 H406 0.950 . S
C404 C403 1.387 . S
C404 C407 1.387 . S
H405 C401 0.950 . S
H406 C403 0.950 . S
C407 C398 1.390 . S
C407 H400 0.950 . S
C407 C404 1.387 . S
C169 C6 1.467 . S
C174 C90 1.468 . S
C179 C20 1.469 . S
C184 C104 1.468 . S
C189 C34 1.469 . S
C194 C118 1.469 . S
C199 C48 1.468 . S
C204 C132 1.468 . S
C209 C62 1.469 . S
C214 C146 1.469 . S
C219 C160 1.468 . S
C224 C76 1.468 . S
C229 C7 1.468 . S
C234 C147 1.468 . S
C239 C21 1.467 . S
C244 C161 1.467 . S
C249 C35 1.467 . S
C254 C91 1.467 . S
C259 C49 1.468 . S
C264 C105 1.468 . S
C269 C63 1.467 . S
C274 C119 1.467 . S
C279 C77 1.467 . S
C284 C133 1.467 . S
C289 C8 1.341 . S
C294 C50 1.341 . S
C299 C22 1.341 . S
C304 C64 1.341 . S
C309 C78 1.335 . S
C314 C36 1.335 . S
C319 C92 1.341 . S
C324 C134 1.341 . S
C329 C148 1.341 . S
C334 C106 1.341 . S
C339 C120 1.341 . S
C344 C162 1.341 . S
C349 C93 1.336 . S
C354 C9 1.336 . S
C359 C23 1.335 . S
C364 C107 1.336 . S
C369 C37 1.337 . S
C374 C121 1.337 . S
C379 C135 1.336 . S
C384 C51 1.336 . S
C389 C149 1.335 . S
C394 C65 1.334 . S
C399 C79 1.333 . S
C404 C163 1.333 . S
